drugbank_target|Q8IKR1 V-type H(+)-translocating pyrophosphatase, putative (DB11638)
 OpenBabel12092121103D

  0  0  0     0  0            999 V3000
M  V30 BEGIN CTAB
M  V30 COUNTS 10922 11031 0 0 0
M  V30 BEGIN ATOM
M  V30 1 H -0.908 1.98254 -0.117106 0
M  V30 2 N 0 1.576 0 0
M  V30 3 C 0.933 2.03868 1.02534 0
M  V30 4 C 1.911 0.928543 1.3348 0
M  V30 5 O 3.095 1.19667 1.45644 0
M  V30 6 C 0.222 2.43627 2.35294 0
M  V30 7 C -0.732 3.65373 2.2001 0
M  V30 8 S 0.101 5.13292 1.52614 0
M  V30 9 C 1.257 5.56322 2.86805 0
M  V30 10 H 1.49 2.90518 0.631377 0
M  V30 11 H -0.977 1.52953 0.210867 0
M  V30 12 H 0.981 2.67203 3.11629 0
M  V30 13 H -0.358 1.57376 2.7183 0
M  V30 14 H -1.165 3.90944 3.18086 0
M  V30 15 H -1.563 3.418 1.51819 0
M  V30 16 H 0.729 5.58782 3.83104 0
M  V30 17 H 1.672 6.56266 2.65933 0
M  V30 18 H 2.08 4.83886 2.90714 0
M  V30 19 N 1.4781 -0.272755 1.55222 0
M  V30 20 C 2.7551 -1.02562 1.66555 0
M  V30 21 C 3.1351 -2.04282 0.532189 0
M  V30 22 O 2.4831 -2.23662 -0.467717 0
M  V30 23 C 2.6931 -1.6822 3.05782 0
M  V30 24 C 4.0411 -2.19373 3.63539 0
M  V30 25 O 5.0651 -1.78206 3.08417 0
M  V30 26 O 3.9241 -2.94883 4.60115 0
M  V30 27 H 1.0181 -0.475755 0.676451 0
M  V30 28 H 3.5641 -0.268593 1.67561 0
M  V30 29 H 2.3361 -0.945112 3.79715 0
M  V30 30 H 1.9591 -2.50609 3.08676 0
M  V30 31 N 2.9562 -1.48159 -0.537278 0
M  V30 32 C 3.8862 -1.65029 -1.6519 0
M  V30 33 C 4.8672 -0.499281 -1.62607 0
M  V30 34 O 6.0522 -0.730972 -1.79918 0
M  V30 35 C 3.1822 -1.68303 -3.03795 0
M  V30 36 C 2.1362 -2.8283 -3.21234 0
M  V30 37 C 1.4622 -2.71189 -4.60826 0
M  V30 38 C 2.7622 -4.24211 -3.04701 0
M  V30 39 H 4.4562 -2.58341 -1.51328 0
M  V30 40 H 2.0022 -1.24325 -0.726585 0
M  V30 41 H 3.9552 -1.78693 -3.81637 0
M  V30 42 H 2.6792 -0.715635 -3.18663 0
M  V30 43 H 1.3382 -2.71983 -2.45807 0
M  V30 44 H 0.9862 -1.72435 -4.7252 0
M  V30 45 H 0.6862 -3.48035 -4.7344 0
M  V30 46 H 2.2102 -2.83537 -5.40777 0
M  V30 47 H 3.6242 -4.3593 -3.72341 0
M  V30 48 H 2.0212 -5.01998 -3.28813 0
M  V30 49 H 3.0912 -4.41184 -2.01209 0
M  V30 50 N 4.4343 0.785586 -1.36625 0
M  V30 51 C 5.6813 1.54362 -1.31067 0
M  V30 52 C 6.0093 1.94195 0.10893 0
M  V30 53 O 5.2643 1.63262 1.07908 0
M  V30 54 C 5.5633 2.83007 -2.1827 0
M  V30 55 C 5.2293 2.62294 -3.6676 0
M  V30 56 C 3.8913 2.56353 -4.0723 0
M  V30 57 C 6.2433 2.43371 -4.6089 0
M  V30 58 C 3.5713 2.29461 -5.39967 0
M  V30 59 C 5.9233 2.18005 -5.93849 0
M  V30 60 C 4.5873 2.105 -6.3344 0
M  V30 61 H 3.8573 0.564851 -0.479609 0
M  V30 62 H 6.5043 0.906028 -1.68711 0
M  V30 63 H 4.8093 3.51253 -1.73576 0
M  V30 64 H 6.5063 3.40817 -2.11292 0
M  V30 65 H 3.0963 2.67774 -3.34656 0
M  V30 66 H 7.2803 2.46959 -4.30494 0
M  V30 67 H 2.5363 2.22135 -5.69619 0
M  V30 68 H 6.7103 2.02359 -6.66351 0
M  V30 69 H 4.3373 1.89425 -7.36222 0
M  V30 70 N 5.9124 1.20967 1.01018 0
M  V30 71 C 7.1424 1.04803 1.78044 0
M  V30 72 C 7.5504 -0.405462 1.84804 0
M  V30 73 O 6.8934 -1.2932 1.30468 0
M  V30 74 C 6.9554 1.56377 3.23707 0
M  V30 75 C 6.6194 3.04767 3.40538 0
M  V30 76 C 7.6164 4.02366 3.29239 0
M  V30 77 C 5.3014 3.43862 3.66147 0
M  V30 78 C 7.2954 5.37049 3.43304 0
M  V30 79 C 4.9824 4.78699 3.79855 0
M  V30 80 C 5.9804 5.75101 3.68439 0
M  V30 81 O 5.6684 7.07493 3.81719 0
M  V30 82 H 5.4004 0.368778 0.56655 0
M  V30 83 H 7.9544 1.60642 1.27997 0
M  V30 84 H 6.1844 0.949297 3.74867 0
M  V30 85 H 7.8734 1.36136 3.8239 0
M  V30 86 H 8.6394 3.73506 3.09384 0
M  V30 87 H 4.5184 2.69364 3.74118 0
M  V30 88 H 8.0624 6.12277 3.34309 0
M  V30 89 H 3.9594 5.07247 3.99213 0
M  V30 90 H 4.7274 7.1483 3.98697 0
M  V30 91 N 7.3905 -1.2043 1.01659 0
M  V30 92 C 8.6365 -1.90079 0.706963 0
M  V30 93 C 8.9695 -1.78648 -0.761474 0
M  V30 94 O 8.2445 -1.17069 -1.55323 0
M  V30 95 C 8.5275 -3.41469 1.14327 0
M  V30 96 C 8.3805 -3.61833 2.67201 0
M  V30 97 C 9.6995 -4.34261 0.714529 0
M  V30 98 H 6.8185 -0.690254 0.2583 0
M  V30 99 H 9.4605 -1.41826 1.26433 0
M  V30 100 H 7.6105 -3.82696 0.669056 0
M  V30 101 H 9.2825 -3.2986 3.22475 0
M  V30 102 H 7.5255 -3.05304 3.08175 0
M  V30 103 H 8.1965 -4.67955 2.92783 0
M  V30 104 H 10.6725 -4.00682 1.12221 0
M  V30 105 H 9.5485 -5.38806 1.04784 0
M  V30 106 H 9.8095 -4.40431 -0.383799 0
M  V30 107 N 8.8686 -0.792821 -1.36206 0
M  V30 108 C 10.1156 -0.366786 -1.99151 0
M  V30 109 C 10.4436 1.06243 -1.62919 0
M  V30 110 O 9.6986 1.74927 -0.877442 0
M  V30 111 C 9.9976 -0.481501 -3.54142 0
M  V30 112 C 9.6636 -1.87202 -4.10203 0
M  V30 113 C 8.3256 -2.25248 -4.25226 0
M  V30 114 C 10.6776 -2.78237 -4.40719 0
M  V30 115 C 8.0056 -3.53723 -4.68078 0
M  V30 116 C 10.3576 -4.06144 -4.85005 0
M  V30 117 C 9.0216 -4.44207 -4.98234 0
M  V30 118 H 8.2916 -0.134217 -0.728743 0
M  V30 119 H 10.9386 -1.01094 -1.62641 0
M  V30 120 H 9.2436 0.246146 -3.91026 0
M  V30 121 H 10.9406 -0.132844 -4.0078 0
M  V30 122 H 7.5306 -1.56639 -3.98951 0
M  V30 123 H 11.7146 -2.50097 -4.28679 0
M  V30 124 H 6.9706 -3.8308 -4.76508 0
M  V30 125 H 11.1446 -4.76796 -5.07581 0
M  V30 126 H 8.7716 -5.43814 -5.31197 0
M  V30 127 N 10.3467 1.47872 -0.545128 0
M  V30 128 C 11.2767 2.32661 0.197793 0
M  V30 129 C 12.2577 1.43041 0.920504 0
M  V30 130 O 13.4427 1.71912 0.90333 0
M  V30 131 C 10.5727 3.24569 1.23582 0
M  V30 132 C 9.5267 4.23333 0.630323 0
M  V30 133 C 8.8527 5.0448 1.77211 0
M  V30 134 C 10.1527 5.20704 -0.407974 0
M  V30 135 H 11.8467 2.95024 -0.510045 0
M  V30 136 H 9.3927 1.4187 -0.246731 0
M  V30 137 H 11.3457 3.8272 1.76362 0
M  V30 138 H 10.0697 2.60236 1.97344 0
M  V30 139 H 8.7287 3.6639 0.123922 0
M  V30 140 H 8.3767 4.36561 2.49847 0
M  V30 141 H 8.0767 5.71339 1.37281 0
M  V30 142 H 9.6007 5.65487 2.3034 0
M  V30 143 H 11.0147 5.7329 0.033305 0
M  V30 144 H 9.4117 5.95699 -0.725486 0
M  V30 145 H 10.4817 4.66917 -1.30828 0
M  V30 146 N 11.8248 0.280983 1.55075 0
M  V30 147 C 13.0718 -0.334115 1.99725 0
M  V30 148 C 13.3998 -1.5542 1.1694 0
M  V30 149 O 12.6548 -1.94361 0.228531 0
M  V30 150 C 12.9538 -0.754656 3.49342 0
M  V30 151 C 12.6198 0.361445 4.49449 0
M  V30 152 C 11.2818 0.667893 4.76542 0
M  V30 153 C 13.6338 1.11322 5.09173 0
M  V30 154 C 10.9618 1.7296 5.60626 0
M  V30 155 C 13.3138 2.1647 5.9441 0
M  V30 156 C 11.9778 2.47742 6.19822 0
M  V30 157 H 11.2478 -0.122261 0.730844 0
M  V30 158 H 13.8948 0.395917 1.87363 0
M  V30 159 H 12.1998 -1.56446 3.5921 0
M  V30 160 H 13.8968 -1.24142 3.813 0
M  V30 161 H 10.4868 0.112481 4.28452 0
M  V30 162 H 14.6708 0.88973 4.8826 0
M  V30 163 H 9.9268 1.97684 5.78559 0
M  V30 164 H 14.1008 2.75193 6.3972 0
M  V30 165 H 11.7278 3.30145 6.84769 0
M  V30 166 N 13.3029 -1.57598 0.00835791 0
M  V30 167 C 14.2329 -2.1198 -0.979113 0
M  V30 168 C 15.2139 -1.03091 -1.35301 0
M  V30 169 O 16.3989 -1.30818 -1.43528 0
M  V30 170 C 13.5289 -2.62995 -2.26828 0
M  V30 171 C 12.4829 -3.76485 -2.03576 0
M  V30 172 C 11.8089 -4.13846 -3.38579 0
M  V30 173 C 13.1089 -5.0342 -1.39161 0
M  V30 174 H 14.8029 -2.94738 -0.526281 0
M  V30 175 H 12.3489 -1.41783 -0.251704 0
M  V30 176 H 14.3019 -2.99669 -2.96271 0
M  V30 177 H 13.0259 -1.7737 -2.7424 0
M  V30 178 H 11.6849 -3.40217 -1.36557 0
M  V30 179 H 11.3329 -3.25232 -3.83709 0
M  V30 180 H 11.0329 -4.90312 -3.23834 0
M  V30 181 H 12.5569 -4.53086 -4.09323 0
M  V30 182 H 13.9709 -5.37812 -1.98573 0
M  V30 183 H 12.3679 -5.84746 -1.34878 0
M  V30 184 H 13.4379 -4.83548 -0.361868 0
M  V30 185 N 14.781 0.264519 -1.55364 0
M  V30 186 C 16.192 0.834936 -1.6699 0
M  V30 187 C 16.543 1.86718 -0.602552 0
M  V30 188 O 15.668 2.14899 0.254425 0
M  V30 189 C 16.263 1.5212 -3.02729 0
M  V30 190 C 14.822 2.03954 -3.16354 0
M  V30 191 C 13.969 0.884498 -2.62815 0
M  V30 192 H 16.92 0.0406869 -1.58648 0
M  V30 193 H 16.941 2.38853 -2.96191 0
M  V30 194 H 16.453 0.769668 -3.80392 0
M  V30 195 H 14.554 2.82041 -2.43482 0
M  V30 196 H 14.667 2.24902 -4.23032 0
M  V30 197 H 13.031 1.2802 -2.20188 0
M  V30 198 H 13.814 0.14634 -3.42988 0
M  V30 199 N 16.2591 1.48442 0.529413 0
M  V30 200 C 17.6701 1.5002 1.11134 0
M  V30 201 C 18.0211 0.27031 1.94329 0
M  V30 202 O 17.1461 -0.622507 2.07253 0
M  V30 203 C 17.7411 2.71834 2.02217 0
M  V30 204 C 16.3001 2.76283 2.55627 0
M  V30 205 C 15.4471 2.43542 1.326 0
M  V30 206 H 18.3981 1.5555 0.314641 0
M  V30 207 H 18.4191 2.50384 2.8651 0
M  V30 208 H 17.9311 3.61331 1.41639 0
M  V30 209 H 16.0321 1.90995 3.19924 0
M  V30 210 H 16.1451 3.77725 2.94721 0
M  V30 211 H 14.5091 1.94709 1.64196 0
M  V30 212 H 15.2921 3.3528 0.737734 0
M  V30 213 N 17.7372 -0.778329 1.37039 0
M  V30 214 C 18.9652 -1.56734 1.35063 0
M  V30 215 C 19.3802 -1.88686 -0.0655597 0
M  V30 216 O 18.7372 -1.5096 -1.02554 0
M  V30 217 C 18.7882 -2.88163 2.18276 0
M  V30 218 O 18.5092 -2.57583 3.54376 0
M  V30 219 C 20.0102 -3.82422 2.24206 0
M  V30 220 H 17.2302 -0.485778 0.462883 0
M  V30 221 H 19.7742 -0.965185 1.8029 0
M  V30 222 H 17.9292 -3.44818 1.76576 0
M  V30 223 H 18.3432 -3.41699 3.97922 0
M  V30 224 H 19.8172 -4.71667 2.86765 0
M  V30 225 H 20.2942 -4.21078 1.24861 0
M  V30 226 H 20.9002 -3.31697 2.6619 0
M  V30 227 N 19.2153 -1.21501 -1.00376 0
M  V30 228 C 20.4643 -1.02718 -1.73586 0
M  V30 229 C 20.7773 0.439589 -1.90596 0
M  V30 230 O 21.9833 0.746848 -2.61026 0
M  V30 231 C 20.4393 -1.78929 -3.1227 0
M  V30 232 C 20.0473 -3.29783 -3.03228 0
M  V30 233 C 21.7913 -1.68557 -3.89601 0
M  V30 234 C 19.6983 -3.98479 -4.36999 0
M  V30 235 H 18.6283 -0.380733 -0.650814 0
M  V30 236 H 21.2793 -1.45248 -1.1214 0
M  V30 237 H 19.6613 -1.29192 -3.74333 0
M  V30 238 H 20.8353 -3.86832 -2.50395 0
M  V30 239 H 19.1503 -3.40711 -2.39385 0
M  V30 240 H 21.7473 -2.17211 -4.88593 0
M  V30 241 H 22.0903 -0.644021 -4.11288 0
M  V30 242 H 22.6233 -2.15778 -3.34193 0
M  V30 243 H 19.3623 -5.02841 -4.20513 0
M  V30 244 H 18.8823 -3.46219 -4.89788 0
M  V30 245 H 20.5613 -4.03462 -5.05794 0
M  V30 246 N 20.6934 1.19889 -1.02296 0
M  V30 247 C 21.9414 1.89046 -0.714558 0
M  V30 248 C 22.2624 1.79636 0.758681 0
M  V30 249 O 21.5324 1.20292 1.54618 0
M  V30 250 H 20.1124 0.699802 -0.261317 0
M  V30 251 H 22.7744 1.45574 -1.29592 0
M  V30 252 H 21.8704 2.95524 -1.0036 0
M  V30 253 N 22.1715 0.800033 1.35784 0
M  V30 254 C 23.1015 0.220184 2.3246 0
M  V30 255 C 24.0825 -0.65073 1.57161 0
M  V30 256 O 25.2675 -0.582359 1.85263 0
M  V30 257 C 22.3975 -0.637353 3.41402 0
M  V30 258 C 21.3515 0.134531 4.27789 0
M  V30 259 C 20.6775 -0.844285 5.27992 0
M  V30 260 C 21.9775 1.32979 5.05088 0
M  V30 261 H 23.6715 1.02787 2.81203 0
M  V30 262 H 21.2175 0.495717 1.35199 0
M  V30 263 H 23.1705 -1.05302 4.08031 0
M  V30 264 H 21.8945 -1.47785 2.91251 0
M  V30 265 H 20.5535 0.531296 3.6273 0
M  V30 266 H 20.2015 -1.68011 4.74111 0
M  V30 267 H 19.9015 -0.332184 5.8666 0
M  V30 268 H 21.4255 -1.2583 5.97494 0
M  V30 269 H 22.8395 0.98934 5.64699 0
M  V30 270 H 21.2365 1.77593 5.7322 0
M  V30 271 H 22.3065 2.11978 4.36111 0
M  V30 272 N 23.6496 -1.47581 0.552962 0
M  V30 273 C 24.8986 -2.01684 0.0251995 0
M  V30 274 C 25.2116 -1.43317 -1.33115 0
M  V30 275 O 26.4176 -1.89057 -1.94858 0
M  V30 276 C 24.8736 -3.599 -0.00542052 0
M  V30 277 C 24.4816 -4.27257 1.34742 0
M  V30 278 C 26.2256 -4.21768 -0.4808 0
M  V30 279 C 24.1326 -5.77467 1.27614 0
M  V30 280 H 23.0626 -0.753979 0.00565033 0
M  V30 281 H 25.7136 -1.69616 0.70018 0
M  V30 282 H 24.0956 -3.88911 -0.745961 0
M  V30 283 H 25.2696 -4.09893 2.10534 0
M  V30 284 H 23.5846 -3.77358 1.76039 0
M  V30 285 H 26.1816 -5.31838 -0.55246 0
M  V30 286 H 26.5246 -3.88651 -1.49184 0
M  V30 287 H 27.0576 -3.97273 0.204752 0
M  V30 288 H 23.7966 -6.15196 2.26304 0
M  V30 289 H 23.3166 -5.9718 0.55996 0
M  V30 290 H 24.9956 -6.3959 0.976421 0
M  V30 291 N 25.1277 -0.289203 -1.54924 0
M  V30 292 C 26.3747 0.323519 -1.99899 0
M  V30 293 C 26.7027 1.54797 -1.17762 0
M  V30 294 O 25.9577 1.94237 -0.238835 0
M  V30 295 C 26.2567 0.736119 -3.49737 0
M  V30 296 C 25.9227 -0.385276 -4.49251 0
M  V30 297 C 24.5847 -0.693156 -4.76181 0
M  V30 298 C 26.9367 -1.14021 -5.08575 0
M  V30 299 C 24.2647 -1.7593 -5.59701 0
M  V30 300 C 26.6167 -2.19619 -5.93254 0
M  V30 301 C 25.2807 -2.51026 -6.185 0
M  V30 302 H 24.5507 0.118384 -0.731482 0
M  V30 303 H 27.1977 -0.405847 -1.8715 0
M  V30 304 H 25.5027 1.54539 -3.60035 0
M  V30 305 H 27.1997 1.22118 -3.81953 0
M  V30 306 H 23.7897 -0.135202 -4.28387 0
M  V30 307 H 27.9737 -0.915611 -4.87781 0
M  V30 308 H 23.2297 -2.0075 -5.77503 0
M  V30 309 H 27.4037 -2.78581 -6.38252 0
M  V30 310 H 25.0307 -3.33772 -6.83008 0
M  V30 311 N 26.6058 1.57591 -0.0167156 0
M  V30 312 C 27.8308 1.9598 0.67872 0
M  V30 313 C 28.2558 0.892546 1.65575 0
M  V30 314 O 27.6138 -0.147772 1.80697 0
M  V30 315 C 27.6618 3.33468 1.37227 0
M  V30 316 O 26.7658 3.28954 2.48722 0
M  V30 317 H 26.1068 0.639339 0.17928 0
M  V30 318 H 28.6368 2.04463 -0.0748802 0
M  V30 319 H 28.6468 3.69417 1.7319 0
M  V30 320 H 27.3218 4.10694 0.656007 0
M  V30 321 H 25.8988 3.04705 2.14963 0
M  V30 322 N 28.0839 -0.256276 1.55502 0
M  V30 323 C 29.3329 -0.983486 1.76098 0
M  V30 324 C 29.6459 -1.86837 0.578896 0
M  V30 325 O 30.8519 -2.63163 0.667648 0
M  V30 326 C 29.3079 -1.79868 3.1173 0
M  V30 327 C 28.9159 -0.961648 4.37557 0
M  V30 328 C 30.6599 -2.51919 3.41668 0
M  V30 329 C 28.5669 -1.77219 5.64223 0
M  V30 330 H 27.4969 -0.370936 0.656447 0
M  V30 331 H 30.1479 -0.238492 1.81944 0
M  V30 332 H 28.5299 -2.58527 2.99966 0
M  V30 333 H 29.7039 -0.218048 4.60284 0
M  V30 334 H 28.0189 -0.354913 4.14885 0
M  V30 335 H 30.6159 -3.12998 4.33516 0
M  V30 336 H 30.9589 -3.23059 2.62562 0
M  V30 337 H 31.4919 -1.80278 3.54605 0
M  V30 338 H 28.2309 -1.10471 6.46124 0
M  V30 339 H 27.7509 -2.49132 5.45613 0
M  V30 340 H 29.4299 -2.34169 6.03137 0
M  V30 341 N 29.562 -1.4872 -0.521534 0
M  V30 342 C 30.811 -1.56419 -1.27341 0
M  V30 343 C 31.124 -0.246805 -1.94037 0
M  V30 344 O 32.33 -0.202122 -2.70747 0
M  V30 345 C 30.786 -2.75896 -2.31105 0
M  V30 346 C 30.394 -4.14311 -1.70441 0
M  V30 347 C 32.138 -2.92913 -3.07249 0
M  V30 348 C 30.045 -5.25038 -2.72194 0
M  V30 349 H 28.975 -0.582344 -0.478949 0
M  V30 350 H 31.626 -1.75071 -0.549779 0
M  V30 351 H 30.008 -2.50697 -3.06541 0
M  V30 352 H 31.182 -4.49564 -1.01136 0
M  V30 353 H 29.497 -4.02482 -1.06759 0
M  V30 354 H 32.094 -3.72805 -3.83302 0
M  V30 355 H 32.437 -2.02689 -3.63625 0
M  V30 356 H 32.97 -3.18054 -2.38928 0
M  V30 357 H 29.709 -6.17255 -2.20627 0
M  V30 358 H 29.229 -4.94263 -3.39801 0
M  V30 359 H 30.908 -5.53508 -3.35019 0
M  V30 360 N 31.0401 0.771051 -1.3745 0
M  V30 361 C 31.9501 1.91538 -1.35464 0
M  V30 362 C 32.9661 1.72134 -0.254123 0
M  V30 363 O 34.1421 1.95358 -0.489626 0
M  V30 364 C 31.2071 3.26671 -1.16134 0
M  V30 365 C 30.2681 3.58723 -2.35831 0
M  V30 366 C 29.5011 4.87409 -2.17413 0
M  V30 367 O 29.7241 5.58506 -1.15876 0
M  V30 368 O 28.6581 5.18539 -3.05615 0
M  V30 369 H 32.4841 1.96165 -2.31847 0
M  V30 370 H 30.0691 0.9139 -1.18187 0
M  V30 371 H 31.9511 4.07499 -1.07345 0
M  V30 372 H 30.6261 3.22894 -0.228251 0
M  V30 373 H 29.5331 2.78127 -2.50192 0
M  V30 374 H 30.8661 3.67243 -3.27709 0
M  V30 375 N 32.5182 1.22032 0.997298 0
M  V30 376 C 33.7582 1.05375 1.75144 0
M  V30 377 C 34.1222 -0.404696 1.87686 0
M  V30 378 O 35.3232 -0.691998 2.5974 0
M  V30 379 C 33.5942 1.74046 3.12158 0
M  V30 380 S 35.1532 1.72745 4.03366 0
M  V30 381 H 31.9712 0.377449 0.602539 0
M  V30 382 H 34.5732 1.54902 1.19272 0
M  V30 383 H 33.2772 2.79332 3.00669 0
M  V30 384 H 32.8082 1.24731 3.73103 0
M  V30 385 H 34.8232 0.774015 4.90126 0
M  V30 386 N 33.9963 -1.19345 1.0293 0
M  V30 387 C 35.2453 -1.88363 0.721256 0
M  V30 388 C 35.5583 -1.80514 -0.753254 0
M  V30 389 O 36.7643 -2.44788 -1.17436 0
M  V30 390 C 35.2203 -3.37872 1.23978 0
M  V30 391 C 34.8283 -3.54278 2.74211 0
M  V30 392 C 36.5723 -4.12365 1.00775 0
M  V30 393 C 34.4793 -4.97682 3.19479 0
M  V30 394 H 33.4093 -0.705484 0.266098 0
M  V30 395 H 36.0603 -1.34928 1.24365 0
M  V30 396 H 34.4423 -3.90707 0.6453 0
M  V30 397 H 35.6163 -3.11769 3.39318 0
M  V30 398 H 33.9313 -2.93174 2.95699 0
M  V30 399 H 36.5283 -5.18119 1.32123 0
M  V30 400 H 36.8713 -4.16263 -0.0554308 0
M  V30 401 H 37.4043 -3.65668 1.56625 0
M  V30 402 H 34.1433 -4.98945 4.25128 0
M  V30 403 H 33.6633 -5.4095 2.591 0
M  V30 404 H 35.3423 -5.66337 3.12845 0
M  V30 405 N 35.4744 -0.807222 -1.35358 0
M  V30 406 C 36.7204 -0.397594 -1.99476 0
M  V30 407 C 37.0754 1.02405 -1.62883 0
M  V30 408 O 36.3684 1.70077 -0.882282 0
M  V30 409 C 36.5624 -0.519036 -3.53611 0
M  V30 410 C 36.3914 -1.95094 -4.05177 0
M  V30 411 C 35.1614 -2.57945 -4.34503 0
M  V30 412 C 37.3594 -2.91558 -4.23673 0
M  V30 413 N 35.3414 -3.92539 -4.72003 0
M  V30 414 C 36.7124 -4.11024 -4.64176 0
M  V30 415 C 38.7674 -2.88381 -4.05883 0
M  V30 416 C 37.4704 -5.27745 -4.88751 0
M  V30 417 C 39.4964 -4.04306 -4.31614 0
M  V30 418 C 38.8584 -5.22519 -4.72391 0
M  V30 419 H 34.9574 -0.193274 -0.75774 0
M  V30 420 H 37.5414 -1.0486 -1.6405 0
M  V30 421 H 35.7124 0.101979 -3.88266 0
M  V30 422 H 37.4444 -0.0839321 -4.04613 0
M  V30 423 H 34.1994 -2.09295 -4.24844 0
M  V30 424 H 34.6234 -4.61836 -4.95011 0
M  V30 425 H 39.2654 -1.98137 -3.73499 0
M  V30 426 H 36.9834 -6.1856 -5.20008 0
M  V30 427 H 40.5694 -4.03229 -4.19402 0
M  V30 428 H 39.4494 -6.1073 -4.91913 0
M  V30 429 N 36.9525 1.47285 -0.560781 0
M  V30 430 C 38.1985 2.02764 -0.0381184 0
M  V30 431 C 38.5315 1.43384 1.30976 0
M  V30 432 O 37.8065 0.590733 1.85312 0
M  V30 433 C 38.0895 3.60064 0.0511427 0
M  V30 434 C 37.9425 4.2987 -1.32408 0
M  V30 435 C 39.2615 4.33439 0.762795 0
M  V30 436 H 36.3805 0.736841 -0.0153264 0
M  V30 437 H 39.0225 1.75675 -0.723759 0
M  V30 438 H 37.1725 3.83274 0.635065 0
M  V30 439 H 38.8445 4.17989 -1.95148 0
M  V30 440 H 37.0875 3.90085 -1.8978 0
M  V30 441 H 37.7585 5.38478 -1.21431 0
M  V30 442 H 40.2345 4.15243 0.266965 0
M  V30 443 H 39.1105 5.43124 0.794221 0
M  V30 444 H 39.3715 4.02915 1.81966 0
M  V30 445 N 38.4306 0.297415 1.54768 0
M  V30 446 C 39.6556 -0.318435 2.04941 0
M  V30 447 C 40.0806 -1.4701 1.17345 0
M  V30 448 O 39.4386 -1.80436 0.176758 0
M  V30 449 C 39.4866 -0.755749 3.52592 0
M  V30 450 O 38.5906 -1.86088 3.68028 0
M  V30 451 H 37.9316 -0.062421 0.661059 0
M  V30 452 H 40.4616 0.438215 1.99852 0
M  V30 453 H 40.4716 -1.04552 3.94376 0
M  V30 454 H 39.1466 0.0867233 4.1581 0
M  V30 455 H 37.7236 -1.57193 3.38149 0
M  V30 456 N 39.9087 -1.5758 0.0250728 0
M  V30 457 C 40.8567 -2.11125 -0.97617 0
M  V30 458 C 41.8507 -1.03689 -1.33959 0
M  V30 459 O 43.0567 -1.22128 -1.3223 0
M  V30 460 H 39.4317 -0.674468 -0.332561 0
M  V30 461 H 41.4027 -2.94194 -0.499223 0
M  V30 462 C 40.1517 -2.65017 -2.2508 0
M  V30 463 H 39.4747 -3.47333 -1.9799 0
M  V30 464 H 40.9147 -3.06133 -2.93357 0
M  V30 465 C 39.3737 -1.57574 -2.97779 0
M  V30 466 O 39.9037 -0.973203 -3.89733 0
M  V30 467 N 38.1097 -1.29716 -2.60043 0
M  V30 468 H 37.6567 -1.789 -1.85345 0
M  V30 469 H 37.6147 -0.58051 -3.08994 0
M  V30 470 N 41.3868 0.248026 -1.55636 0
M  V30 471 C 42.6358 0.974134 -1.76617 0
M  V30 472 C 42.9488 1.86528 -0.588796 0
M  V30 473 O 44.1548 2.62805 -0.681594 0
M  V30 474 C 42.6108 1.78213 -3.12679 0
M  V30 475 C 42.2188 0.93843 -4.38061 0
M  V30 476 C 43.9628 2.50104 -3.42999 0
M  V30 477 C 41.8698 1.74225 -5.65155 0
M  V30 478 H 40.7998 0.36745 -0.658405 0
M  V30 479 H 43.4508 0.22884 -1.82067 0
M  V30 480 H 41.8328 2.56933 -3.01333 0
M  V30 481 H 43.0068 0.193635 -4.60393 0
M  V30 482 H 41.3218 0.332905 -4.15067 0
M  V30 483 H 43.9188 3.10694 -4.3517 0
M  V30 484 H 44.2618 3.21662 -2.64271 0
M  V30 485 H 44.7948 1.78395 -3.55556 0
M  V30 486 H 41.5338 1.07043 -6.46701 0
M  V30 487 H 41.0538 2.46235 -5.46926 0
M  V30 488 H 42.7328 2.30967 -6.0437 0
M  V30 489 N 42.8649 1.48995 0.513639 0
M  V30 490 C 43.8129 1.65199 1.63744 0
M  V30 491 C 44.8069 0.51809 1.61283 0
M  V30 492 O 46.0129 0.697335 1.65943 0
M  V30 493 H 42.3879 0.52069 0.542574 0
M  V30 494 H 44.3589 2.59552 1.47226 0
M  V30 495 C 43.1079 1.72409 3.01945 0
M  V30 496 H 42.4309 2.59029 3.04539 0
M  V30 497 H 43.8709 1.87785 3.80148 0
M  V30 498 C 42.3299 0.46618 3.33659 0
M  V30 499 O 42.8599 -0.413744 3.99564 0
M  V30 500 N 41.0659 0.332931 2.88687 0
M  V30 501 H 40.6129 1.04996 2.35231 0
M  V30 502 H 40.5709 -0.507665 3.10274 0
M  V30 503 N 44.343 -0.763751 1.37857 0
M  V30 504 C 45.592 -1.51789 1.32827 0
M  V30 505 C 45.905 -1.95426 -0.0823719 0
M  V30 506 O 47.111 -2.70298 -0.255172 0
M  V30 507 C 45.567 -2.74133 2.33193 0
M  V30 508 C 45.175 -2.37562 3.79827 0
M  V30 509 C 46.919 -3.52054 2.37188 0
M  V30 510 C 44.826 -3.56456 4.71904 0
M  V30 511 H 43.756 -0.569896 0.493695 0
M  V30 512 H 46.407 -0.835822 1.63359 0
M  V30 513 H 44.789 -3.4427 1.9569 0
M  V30 514 H 45.963 -1.75157 4.26212 0
M  V30 515 H 44.278 -1.72798 3.78853 0
M  V30 516 H 46.875 -4.40437 3.03182 0
M  V30 517 H 47.218 -3.92486 1.38782 0
M  V30 518 H 47.751 -2.88921 2.7344 0
M  V30 519 H 44.49 -3.21099 5.71468 0
M  V30 520 H 44.01 -4.17938 4.30218 0
M  V30 521 H 45.689 -4.23168 4.89426 0
M  V30 522 N 45.8211 -1.22559 -0.990812 0
M  V30 523 C 46.7681 -0.997519 -2.0813 0
M  V30 524 C 47.7381 0.0814702 -1.659 0
M  V30 525 O 48.9231 -0.0685424 -1.90677 0
M  V30 526 C 46.0631 -0.583615 -3.40129 0
M  V30 527 C 45.1761 -1.7336 -3.9569 0
M  V30 528 C 44.3111 -1.26748 -5.15857 0
M  V30 529 C 43.3501 -2.38888 -5.63559 0
M  V30 530 N 42.4871 -1.93308 -6.74964 0
M  V30 531 H 47.3271 -1.93099 -2.26973 0
M  V30 532 H 44.8641 -0.962114 -1.11273 0
M  V30 533 H 46.8221 -0.324801 -4.15934 0
M  V30 534 H 45.4521 0.312845 -3.2128 0
M  V30 535 H 44.5041 -2.10669 -3.16738 0
M  V30 536 H 45.8161 -2.57704 -4.27071 0
M  V30 537 H 44.9701 -0.966173 -5.98957 0
M  V30 538 H 43.7091 -0.394272 -4.86104 0
M  V30 539 H 42.7141 -2.69805 -4.79046 0
M  V30 540 H 43.9391 -3.26728 -5.95336 0
M  V30 541 H 41.8851 -1.08352 -6.4699 0
M  V30 542 H 41.8021 -2.71217 -7.05675 0
M  V30 543 H 43.0701 -1.66252 -7.61564 0
M  V30 544 N 47.2992 1.18797 -1.03562 0
M  V30 545 C 48.5472 1.88278 -0.734569 0
M  V30 546 C 48.8682 1.8043 0.739586 0
M  V30 547 O 48.1382 1.21925 1.53333 0
M  V30 548 H 46.7182 0.696991 -0.268725 0
M  V30 549 H 49.3802 1.44192 -1.31129 0
M  V30 550 H 48.4762 2.94443 -1.03489 0
M  V30 551 N 48.7773 0.814389 1.34928 0
M  V30 552 C 50.1883 0.458364 1.80986 0
M  V30 553 C 50.5393 -1.02042 1.67577 0
M  V30 554 O 49.6643 -1.79352 1.21086 0
M  V30 555 C 50.2593 0.825212 3.28597 0
M  V30 556 C 48.8183 0.521677 3.72767 0
M  V30 557 C 47.9653 1.04668 2.56788 0
M  V30 558 H 50.9163 1.00533 1.22795 0
M  V30 559 H 50.9373 0.12571 3.80292 0
M  V30 560 H 50.4493 1.90154 3.38324 0
M  V30 561 H 48.5503 -0.545589 3.68584 0
M  V30 562 H 48.6633 1.05977 4.67232 0
M  V30 563 H 47.0273 0.468622 2.50352 0
M  V30 564 H 47.8103 2.12927 2.6929 0
M  V30 565 N 50.2554 -1.46986 0.568584 0
M  V30 566 C 51.1654 -2.33942 -0.17555 0
M  V30 567 C 52.1814 -1.48891 -0.90041 0
M  V30 568 O 53.3574 -1.81794 -0.86676 0
M  V30 569 C 50.4224 -3.25811 -1.18524 0
M  V30 570 C 49.4834 -4.26757 -0.466582 0
M  V30 571 C 48.7164 -5.14236 -1.42817 0
M  V30 572 O 48.9394 -5.04379 -2.66379 0
M  V30 573 O 47.8734 -5.94412 -0.946453 0
M  V30 574 H 51.6994 -2.98896 0.538036 0
M  V30 575 H 49.2844 -1.4573 0.329097 0
M  V30 576 H 51.1664 -3.82527 -1.76779 0
M  V30 577 H 49.8414 -2.63471 -1.88055 0
M  V30 578 H 48.7484 -3.73769 0.157451 0
M  V30 579 H 50.0814 -4.91843 0.187485 0
M  V30 580 N 51.7335 -0.305618 -1.54608 0
M  V30 581 C 53.0105 0.355652 -1.92339 0
M  V30 582 C 53.3905 1.71324 -1.23335 0
M  V30 583 O 52.7385 2.25473 -0.370702 0
M  V30 584 C 52.9485 0.46572 -3.45879 0
M  V30 585 C 54.2965 0.734426 -4.182 0
M  V30 586 O 55.3205 0.54935 -3.51938 0
M  V30 587 O 54.1795 1.09024 -5.35515 0
M  V30 588 H 51.2735 0.199666 -0.802535 0
M  V30 589 H 53.8195 -0.354017 -1.65966 0
M  V30 590 H 52.5915 -0.488461 -3.88239 0
M  V30 591 H 52.2145 1.22367 -3.78301 0
M  V30 592 N 53.2116 1.57565 -0.0334293 0
M  V30 593 C 54.1586 2.10478 0.946981 0
M  V30 594 C 55.1286 1.00787 1.32027 0
M  V30 595 O 56.3136 1.28232 1.41284 0
M  V30 596 C 53.4536 2.63994 2.22263 0
M  V30 597 C 52.5666 3.87709 1.90541 0
M  V30 598 C 51.7016 4.29604 3.12433 0
M  V30 599 C 50.7406 5.46065 2.76549 0
M  V30 600 N 49.8776 5.83096 3.9108 0
M  V30 601 H 54.7176 2.93963 0.488846 0
M  V30 602 H 52.2546 1.45296 0.22969 0
M  V30 603 H 54.2126 2.93114 2.96884 0
M  V30 604 H 52.8426 1.83333 2.65685 0
M  V30 605 H 51.8946 3.65291 1.06144 0
M  V30 606 H 53.2066 4.72403 1.60116 0
M  V30 607 H 52.3606 4.60182 3.9537 0
M  V30 608 H 51.0996 3.43685 3.46023 0
M  V30 609 H 50.1046 5.15176 1.92026 0
M  V30 610 H 51.3296 6.33685 2.44171 0
M  V30 611 H 49.2756 5.00132 4.24504 0
M  V30 612 H 49.1926 6.6244 3.64293 0
M  V30 613 H 50.4606 6.18282 4.74708 0
M  V30 614 N 54.6897 -0.239769 1.55765 0
M  V30 615 C 55.9357 -0.968234 1.78194 0
M  V30 616 C 56.2687 -1.84701 0.599938 0
M  V30 617 O 55.5437 -1.9031 -0.401524 0
M  V30 618 C 55.8267 -1.8227 3.10564 0
M  V30 619 C 55.6797 -0.971633 4.3918 0
M  V30 620 C 56.9987 -2.80388 3.39221 0
M  V30 621 H 54.1177 -0.350572 0.648281 0
M  V30 622 H 56.7597 -0.238259 1.885 0
M  V30 623 H 54.9097 -2.44507 3.01908 0
M  V30 624 H 56.5817 -0.367408 4.59835 0
M  V30 625 H 54.8247 -0.276276 4.32919 0
M  V30 626 H 55.4957 -1.60346 5.28198 0
M  V30 627 H 57.9717 -2.28287 3.47885 0
M  V30 628 H 56.8477 -3.3729 4.33044 0
M  V30 629 H 57.1087 -3.57212 2.60484 0
M  V30 630 N 56.1678 -1.49265 -0.50573 0
M  V30 631 C 57.0778 -1.68312 -1.63427 0
M  V30 632 C 58.0938 -0.565682 -1.64548 0
M  V30 633 O 59.2698 -0.839801 -1.83055 0
M  V30 634 C 56.3348 -1.74107 -2.99813 0
M  V30 635 C 55.3958 -2.97653 -3.09356 0
M  V30 636 C 54.6288 -3.03163 -4.39236 0
M  V30 637 O 54.8518 -2.16396 -5.27758 0
M  V30 638 O 53.7858 -3.9558 -4.53652 0
M  V30 639 H 57.6118 -2.63907 -1.50289 0
M  V30 640 H 55.1968 -1.32951 -0.681502 0
M  V30 641 H 57.0788 -1.803 -3.80881 0
M  V30 642 H 55.7538 -0.816901 -3.13223 0
M  V30 643 H 54.6608 -2.96981 -2.27493 0
M  V30 644 H 55.9938 -3.89535 -3.00871 0
M  V30 645 N 57.6459 0.756429 -1.3826 0
M  V30 646 C 58.5929 1.87011 -1.35261 0
M  V30 647 C 59.5629 1.64695 -0.215616 0
M  V30 648 O 60.7479 1.864 -0.407399 0
M  V30 649 C 57.8879 3.24275 -1.18068 0
M  V30 650 C 57.0009 3.58442 -2.41129 0
M  V30 651 C 56.1359 4.84994 -2.16689 0
M  V30 652 C 55.1749 5.11939 -3.35537 0
M  V30 653 N 54.3119 6.29685 -3.10549 0
M  V30 654 H 59.1519 1.8891 -2.30472 0
M  V30 655 H 56.6889 0.923373 -1.14509 0
M  V30 656 H 58.6469 4.03479 -1.06116 0
M  V30 657 H 57.2769 3.21711 -0.264973 0
M  V30 658 H 56.3289 2.74103 -2.63764 0
M  V30 659 H 57.6409 3.74283 -3.29717 0
M  V30 660 H 56.7949 5.72135 -2.01857 0
M  V30 661 H 55.5339 4.71286 -1.25462 0
M  V30 662 H 54.5389 4.23268 -3.50891 0
M  V30 663 H 55.7639 5.27546 -4.27635 0
M  V30 664 H 53.7099 6.17306 -2.21967 0
M  V30 665 H 53.6269 6.46014 -3.92686 0
M  V30 666 H 54.8949 7.19722 -2.99367 0
M  V30 667 N 59.124 1.23083 0.984299 0
M  V30 668 C 60.054 1.03292 2.09411 0
M  V30 669 C 61.035 -0.048923 1.7003 0
M  V30 670 O 62.22 0.114967 1.93859 0
M  V30 671 C 59.35 0.619155 3.41736 0
M  V30 672 C 58.304 1.64791 3.95004 0
M  V30 673 C 57.63 1.0897 5.23478 0
M  V30 674 C 58.93 3.03999 4.24714 0
M  V30 675 H 60.624 1.96119 2.26225 0
M  V30 676 H 58.17 0.944344 1.08711 0
M  V30 677 H 60.123 0.467777 4.18796 0
M  V30 678 H 58.847 -0.344786 3.24775 0
M  V30 679 H 57.506 1.78721 3.20085 0
M  V30 680 H 57.154 0.11686 5.02864 0
M  V30 681 H 56.854 1.77704 5.60085 0
M  V30 682 H 58.378 0.950093 6.03163 0
M  V30 683 H 59.792 2.93393 4.92538 0
M  V30 684 H 58.189 3.69936 4.72512 0
M  V30 685 H 59.259 3.53285 3.32142 0
M  V30 686 N 60.6021 -1.18246 1.0419 0
M  V30 687 C 61.5121 -2.25574 0.644476 0
M  V30 688 C 62.5281 -1.70845 -0.329826 0
M  V30 689 O 63.7041 -2.00554 -0.184443 0
M  V30 690 C 60.7691 -3.46697 0.014877 0
M  V30 691 C 59.8301 -4.16554 1.03834 0
M  V30 692 C 59.0631 -5.31894 0.438692 0
M  V30 693 O 59.2861 -5.65385 -0.754752 0
M  V30 694 O 58.2201 -5.90459 1.168 0
M  V30 695 H 62.0461 -2.61836 1.53869 0
M  V30 696 H 59.6311 -1.25352 0.812854 0
M  V30 697 H 61.5131 -4.20062 -0.335538 0
M  V30 698 H 60.1881 -3.12255 -0.853138 0
M  V30 699 H 59.0951 -3.45251 1.44057 0
M  V30 700 H 60.4281 -4.54998 1.87716 0
M  V30 701 N 62.0802 -0.821533 -1.34494 0
M  V30 702 C 63.3572 -0.33159 -1.92769 0
M  V30 703 C 63.7372 1.18088 -1.74981 0
M  V30 704 O 63.0852 1.98733 -1.12772 0
M  V30 705 C 63.2952 -0.759398 -3.40638 0
M  V30 706 C 64.6432 -0.757433 -4.1779 0
M  V30 707 O 65.6672 -0.70189 -3.49216 0
M  V30 708 O 64.5262 -0.829361 -5.4017 0
M  V30 709 H 61.6202 -0.0902502 -0.822061 0
M  V30 710 H 64.1662 -0.906231 -1.43477 0
M  V30 711 H 62.9382 -1.8012 -3.47379 0
M  V30 712 H 62.5612 -0.160378 -3.97276 0
M  V30 713 N 63.5583 1.46682 -0.576371 0
M  V30 714 C 64.8063 2.02013 -0.0594163 0
M  V30 715 C 65.1273 1.45101 1.30271 0
M  V30 716 O 64.3973 0.633317 1.8538 0
M  V30 717 H 62.9773 0.746759 -0.0189745 0
M  V30 718 H 65.6393 1.79862 -0.750717 0
M  V30 719 H 64.7353 3.12097 0.014345 0
M  V30 720 N 65.0364 0.313813 1.54444 0
M  V30 721 C 66.3134 -0.345447 1.92525 0
M  V30 722 C 66.6934 -1.70667 1.24242 0
M  V30 723 O 66.0414 -2.25273 0.382654 0
M  V30 724 C 66.2514 -0.44737 3.46121 0
M  V30 725 C 67.5994 -0.712238 4.18584 0
M  V30 726 O 68.6234 -0.530678 3.52225 0
M  V30 727 O 67.4824 -1.06183 5.36085 0
M  V30 728 H 64.5764 -0.195407 0.803583 0
M  V30 729 H 67.1224 0.362813 1.65776 0
M  V30 730 H 65.8944 0.509043 3.87975 0
M  V30 731 H 65.5174 -1.20359 3.78945 0
M  V30 732 N 66.5145 -1.57545 0.0417849 0
M  V30 733 C 67.4625 -2.12148 -0.953723 0
M  V30 734 C 68.4565 -1.05104 -1.32852 0
M  V30 735 O 69.6625 -1.23524 -1.30927 0
M  V30 736 H 66.0375 -0.677957 -0.325389 0
M  V30 737 H 68.0085 -2.94707 -0.467991 0
M  V30 738 C 66.7575 -2.6739 -2.22257 0
M  V30 739 H 66.0805 -3.49413 -1.94295 0
M  V30 740 H 67.5205 -3.09227 -2.90094 0
M  V30 741 C 65.9795 -1.60723 -2.96091 0
M  V30 742 O 66.5095 -1.01449 -3.88679 0
M  V30 743 N 64.7155 -1.32466 -2.58652 0
M  V30 744 H 64.2625 -1.80856 -1.83437 0
M  V30 745 H 64.2205 -0.61325 -3.08361 0
M  V30 746 N 67.9926 0.231505 -1.5589 0
M  V30 747 C 69.4036 0.799327 -1.68724 0
M  V30 748 C 69.7546 1.85398 -0.642022 0
M  V30 749 O 68.8796 2.1539 0.208784 0
M  V30 750 C 69.4746 1.45664 -3.05888 0
M  V30 751 C 68.0336 1.97197 -3.20609 0
M  V30 752 C 67.1806 0.828552 -2.64632 0
M  V30 753 H 70.1316 0.00702616 -1.58698 0
M  V30 754 H 70.1526 2.32517 -3.01191 0
M  V30 755 H 69.6646 0.688808 -3.81939 0
M  V30 756 H 67.7656 2.76813 -2.4941 0
M  V30 757 H 67.8786 2.15878 -4.27707 0
M  V30 758 H 66.2426 1.23321 -2.22854 0
M  V30 759 H 67.0256 0.0735544 -3.43221 0
M  V30 760 N 69.4707 1.49531 0.497807 0
M  V30 761 C 70.7167 1.59415 1.25358 0
M  V30 762 C 71.0497 0.281422 1.9215 0
M  V30 763 O 70.3247 -0.715249 1.80871 0
M  V30 764 C 70.6077 2.75566 2.3181 0
M  V30 765 C 70.4607 4.16642 1.69498 0
M  V30 766 C 71.7797 2.87347 3.33346 0
M  V30 767 H 68.8987 0.580244 0.454408 0
M  V30 768 H 71.5407 1.81827 0.551262 0
M  V30 769 H 69.6907 2.56587 2.91711 0
M  V30 770 H 71.3627 4.47145 1.13399 0
M  V30 771 H 69.6057 4.22141 0.998978 0
M  V30 772 H 70.2767 4.93792 2.46725 0
M  V30 773 H 72.7527 3.04634 2.83438 0
M  V30 774 H 71.6287 3.70289 4.05188 0
M  V30 775 H 71.8897 1.96834 3.95865 0
M  V30 776 N 70.9488 -0.749086 1.3866 0
M  V30 777 C 71.8588 -1.89358 1.38494 0
M  V30 778 C 72.8748 -1.71708 0.281476 0
M  V30 779 O 74.0508 -1.94554 0.520643 0
M  V30 780 C 71.1158 -3.24782 1.21316 0
M  V30 781 C 70.1768 -3.54926 2.41508 0
M  V30 782 C 69.4098 -4.83888 2.2514 0
M  V30 783 O 69.6328 -5.56592 1.24746 0
M  V30 784 O 68.5668 -5.13612 3.13826 0
M  V30 785 H 72.3928 -1.92452 2.34938 0
M  V30 786 H 69.9778 -0.894981 1.19626 0
M  V30 787 H 71.8598 -4.05739 1.13814 0
M  V30 788 H 70.5348 -3.2249 0.279592 0
M  V30 789 H 69.4418 -2.74112 2.54585 0
M  V30 790 H 70.7748 -3.61983 3.3351 0
M  V30 791 N 72.4269 -1.23603 -0.977757 0
M  V30 792 C 73.3739 -1.01954 -2.07061 0
M  V30 793 C 74.3439 0.0638697 -1.65977 0
M  V30 794 O 75.5289 -0.0887624 -1.90593 0
M  V30 795 C 72.6689 -0.619658 -3.39491 0
M  V30 796 C 71.7819 -1.77547 -3.93829 0
M  V30 797 C 70.9169 -1.32212 -5.14484 0
M  V30 798 C 69.9559 -2.44852 -5.60994 0
M  V30 799 N 69.0929 -2.00456 -6.72876 0
M  V30 800 H 73.9329 -1.95495 -2.24913 0
M  V30 801 H 71.4699 -0.973861 -1.10247 0
M  V30 802 H 73.4279 -0.368898 -4.15566 0
M  V30 803 H 72.0579 0.278752 -3.21594 0
M  V30 804 H 71.1099 -2.14016 -3.14486 0
M  V30 805 H 72.4219 -2.62219 -4.24314 0
M  V30 806 H 71.5759 -1.02965 -5.97899 0
M  V30 807 H 70.3149 -0.445808 -4.85658 0
M  V30 808 H 69.3199 -2.74871 -4.76157 0
M  V30 809 H 70.5449 -3.33024 -5.91837 0
M  V30 810 H 68.4909 -1.15208 -6.45804 0
M  V30 811 H 68.4079 -2.78687 -7.02759 0
M  V30 812 H 69.6759 -1.7432 -7.59758 0
M  V30 813 N 73.905 1.17692 -1.04816 0
M  V30 814 C 74.838 2.20436 -0.590173 0
M  V30 815 C 75.816 1.58115 0.379244 0
M  V30 816 O 77 1.86228 0.291762 0
M  V30 817 C 74.127 3.38424 0.136817 0
M  V30 818 C 73.173 4.19176 -0.787023 0
M  V30 819 S 74.006 4.84815 -2.27409 0
M  V30 820 C 75.162 6.06195 -1.55817 0
M  V30 821 H 75.395 2.58944 -1.46067 0
M  V30 822 H 72.928 1.28246 -0.859784 0
M  V30 823 H 74.886 4.06798 0.550076 0
M  V30 824 H 73.547 2.98312 0.983299 0
M  V30 825 H 72.74 5.03499 -0.224681 0
M  V30 826 H 72.342 3.56219 -1.13947 0
M  V30 827 H 74.634 6.72078 -0.855387 0
M  V30 828 H 75.577 6.6695 -2.37873 0
M  V30 829 H 75.985 5.54701 -1.04722 0
M  V30 830 N 75.3831 0.828654 1.34056 0
M  V30 831 C 76.3301 0.252567 2.29414 0
M  V30 832 C 77.3001 -0.62588 1.53857 0
M  V30 833 O 78.4851 -0.566312 1.82202 0
M  V30 834 C 75.6251 -0.574831 3.40279 0
M  V30 835 C 74.7381 0.326499 4.30764 0
M  V30 836 C 73.8731 -0.511016 5.28736 0
M  V30 837 C 72.9121 0.389342 6.1086 0
M  V30 838 N 72.0491 -0.409439 7.00905 0
M  V30 839 H 76.8891 1.07108 2.78086 0
M  V30 840 H 74.4261 0.539677 1.36843 0
M  V30 841 H 76.3841 -1.06992 4.03248 0
M  V30 842 H 75.0141 -1.35841 2.92826 0
M  V30 843 H 74.0661 0.939837 3.68607 0
M  V30 844 H 75.3781 1.01857 4.88289 0
M  V30 845 H 74.5321 -1.07035 5.97184 0
M  V30 846 H 73.2711 -1.23657 4.71763 0
M  V30 847 H 72.2761 0.960769 5.4134 0
M  V30 848 H 73.5011 1.1131 6.69916 0
M  V30 849 H 71.4471 -1.11856 6.46393 0
M  V30 850 H 71.3641 0.224126 7.55668 0
M  V30 851 H 72.6321 -0.951336 7.73673 0
M  V30 852 N 76.8612 -1.46375 0.584142 0
M  V30 853 C 77.7712 -2.34115 -0.150728 0
M  V30 854 C 78.7872 -1.49838 -0.884567 0
M  V30 855 O 79.9632 -1.82704 -0.847429 0
M  V30 856 C 77.0282 -3.2705 -1.15062 0
M  V30 857 C 76.0892 -4.27228 -0.421293 0
M  V30 858 C 75.3222 -5.15722 -1.37355 0
M  V30 859 O 75.5452 -5.07176 -2.61014 0
M  V30 860 O 74.4792 -5.95383 -0.883355 0
M  V30 861 H 78.3052 -2.98309 0.569708 0
M  V30 862 H 75.8902 -1.45373 0.344535 0
M  V30 863 H 77.7722 -3.84381 -1.72712 0
M  V30 864 H 76.4472 -2.65451 -1.8525 0
M  V30 865 H 75.3542 -3.7358 0.197085 0
M  V30 866 H 76.6872 -4.91616 0.239641 0
M  V30 867 N 78.3393 -0.321999 -1.54275 0
M  V30 868 C 79.5883 0.281931 -1.9972 0
M  V30 869 C 79.9013 1.53369 -1.21397 0
M  V30 870 O 81.1073 2.21352 -1.57211 0
M  V30 871 C 79.5633 0.5529 -3.55628 0
M  V30 872 C 79.1713 -0.681721 -4.42783 0
M  V30 873 C 80.9153 1.11687 -4.09544 0
M  V30 874 C 78.8223 -0.382742 -5.9016 0
M  V30 875 H 77.7523 0.109124 -0.746062 0
M  V30 876 H 80.4033 -0.43398 -1.78294 0
M  V30 877 H 78.7853 1.32896 -3.73035 0
M  V30 878 H 79.9593 -1.45723 -4.37151 0
M  V30 879 H 78.2743 -1.1658 -3.99748 0
M  V30 880 H 80.8713 1.35515 -5.17242 0
M  V30 881 H 81.2143 2.06575 -3.61431 0
M  V30 882 H 81.7473 0.402032 -3.95763 0
M  V30 883 H 78.4863 -1.30076 -6.42464 0
M  V30 884 H 78.0063 0.355094 -5.98748 0
M  V30 885 H 79.6853 0.00800157 -6.47 0
M  V30 886 N 79.8174 1.5752 -0.0501392 0
M  V30 887 C 80.7804 2.1037 0.909786 0
M  V30 888 C 81.7804 1.02308 1.24056 0
M  V30 889 O 82.9704 1.28385 1.17741 0
M  V30 890 C 80.1024 2.58708 2.21998 0
M  V30 891 H 81.2954 2.96479 0.451665 0
M  V30 892 H 78.8484 1.55038 0.198248 0
M  V30 893 H 79.5834 1.75989 2.72394 0
M  V30 894 H 79.3684 3.37675 1.99295 0
M  V30 895 H 80.8584 2.99747 2.9076 0
M  V30 896 N 81.2955 -0.223234 1.56011 0
M  V30 897 C 82.5205 -0.968978 1.83373 0
M  V30 898 C 82.9455 -1.77227 0.630254 0
M  V30 899 O 82.3035 -1.76345 -0.420959 0
M  V30 900 C 82.3515 -1.86363 3.08709 0
M  V30 901 O 81.4555 -2.95873 2.87285 0
M  V30 902 H 80.7965 -0.274461 0.604622 0
M  V30 903 H 83.3265 -0.237056 2.03222 0
M  V30 904 H 83.3365 -2.27376 3.38768 0
M  V30 905 H 82.0115 -1.27319 3.95933 0
M  V30 906 H 80.5885 -2.58818 2.68454 0
M  V30 907 N 82.7736 -1.49793 -0.48987 0
M  V30 908 C 84.0036 -1.6333 -1.26518 0
M  V30 909 C 84.4116 -0.308392 -1.8667 0
M  V30 910 O 83.7546 0.717512 -1.69108 0
M  V30 911 C 83.8166 -2.6522 -2.4269 0
M  V30 912 C 83.4806 -4.09279 -2.03321 0
M  V30 913 C 84.4776 -4.95738 -1.56652 0
M  V30 914 C 82.1626 -4.55082 -2.12616 0
M  V30 915 C 84.1566 -6.26041 -1.19795 0
M  V30 916 C 81.8436 -5.85396 -1.75371 0
M  V30 917 C 82.8416 -6.707 -1.29036 0
M  V30 918 O 82.5296 -7.98584 -0.92299 0
M  V30 919 H 82.2616 -0.552502 -0.389509 0
M  V30 920 H 84.8156 -1.96642 -0.593381 0
M  V30 921 H 83.0456 -2.27112 -3.12981 0
M  V30 922 H 84.7346 -2.68171 -3.04695 0
M  V30 923 H 85.5006 -4.61575 -1.48908 0
M  V30 924 H 81.3796 -3.88844 -2.47631 0
M  V30 925 H 84.9236 -6.92578 -0.835582 0
M  V30 926 H 80.8206 -6.19085 -1.82768 0
M  V30 927 H 81.5886 -8.11692 -1.05349 0
M  V30 928 N 84.2517 0.741722 -1.39055 0
M  V30 929 C 85.5007 1.49656 -1.35225 0
M  V30 930 C 85.8137 1.95533 0.0512708 0
M  V30 931 O 87.0197 2.7067 0.212138 0
M  V30 932 C 85.4757 2.70389 -2.37525 0
M  V30 933 C 85.0837 2.31489 -3.83558 0
M  V30 934 C 86.8277 3.48236 -2.42759 0
M  V30 935 C 84.7347 3.48903 -4.77515 0
M  V30 936 H 83.6647 0.56197 -0.502699 0
M  V30 937 H 86.3157 0.809727 -1.64668 0
M  V30 938 H 84.6977 3.41113 -2.01142 0
M  V30 939 H 85.8717 1.68354 -4.28945 0
M  V30 940 H 84.1867 1.66749 -3.81554 0
M  V30 941 H 86.7837 4.35558 -3.1015 0
M  V30 942 H 87.1267 3.90229 -1.45008 0
M  V30 943 H 87.6597 2.84535 -2.78002 0
M  V30 944 H 84.3987 3.11966 -5.76504 0
M  V30 945 H 83.9187 4.11041 -4.36813 0
M  V30 946 H 85.5977 4.15328 -4.96096 0
M  V30 947 N 85.7298 1.2412 0.971189 0
M  V30 948 C 86.6928 1.03156 2.04674 0
M  V30 949 C 87.6928 -0.00990322 1.60797 0
M  V30 950 O 88.8828 0.230729 1.72665 0
M  V30 951 C 86.0148 0.562765 3.36223 0
M  V30 952 H 87.2078 1.98614 2.24705 0
M  V30 953 H 84.7608 1.06293 1.14593 0
M  V30 954 H 85.4958 -0.395176 3.21883 0
M  V30 955 H 85.2808 1.31441 3.69413 0
M  V30 956 H 86.7708 0.437015 4.15307 0
M  V30 957 N 87.2079 -1.17134 1.05439 0
M  V30 958 C 88.4539 -1.87733 0.767077 0
M  V30 959 C 88.7869 -1.8098 -0.704253 0
M  V30 960 O 88.0619 -1.21951 -1.5152 0
M  V30 961 C 88.3449 -3.37659 1.25133 0
M  V30 962 C 88.1979 -3.53149 2.78578 0
M  V30 963 C 89.5169 -4.31768 0.852324 0
M  V30 964 H 86.6359 -0.681687 0.280129 0
M  V30 965 H 89.2779 -1.37732 1.30881 0
M  V30 966 H 87.4279 -3.80373 0.790469 0
M  V30 967 H 89.0999 -3.19434 3.32806 0
M  V30 968 H 87.3429 -2.95345 3.17732 0
M  V30 969 H 88.0139 -4.58403 3.07523 0
M  V30 970 H 90.4899 -3.96909 1.24911 0
M  V30 971 H 89.3659 -5.35199 1.21873 0
M  V30 972 H 89.6269 -4.41429 -0.243485 0
M  V30 973 N 88.686 -0.835752 -1.33615 0
M  V30 974 C 89.934 -0.429109 -1.97492 0
M  V30 975 C 90.255 1.01433 -1.66543 0
M  V30 976 O 89.525 1.70611 -0.962744 0
M  V30 977 H 88.105 -0.155686 -0.730596 0
M  V30 978 H 90.767 -1.06802 -1.63031 0
M  V30 979 H 89.863 -0.55861 -3.0706 0
M  V30 980 N 90.1641 1.46063 -0.591896 0
M  V30 981 C 91.1271 2.28854 0.125973 0
M  V30 982 C 92.1271 1.38903 0.810107 0
M  V30 983 O 93.3171 1.61186 0.66066 0
M  V30 984 C 90.4491 3.19526 1.1881 0
M  V30 985 H 91.6421 2.93802 -0.601717 0
M  V30 986 H 89.1951 1.52325 -0.350254 0
M  V30 987 H 89.9301 2.59345 1.94707 0
M  V30 988 H 89.7151 3.85766 0.701936 0
M  V30 989 H 91.2051 3.81817 1.69132 0
M  V30 990 N 91.6422 0.330177 1.54103 0
M  V30 991 C 92.5902 -0.548226 2.26047 0
M  V30 992 C 93.5842 -1.11309 1.27698 0
M  V30 993 O 94.7902 -1.06036 1.45452 0
M  V30 994 H 91.1652 -0.195456 0.726155 0
M  V30 995 H 93.1362 0.0807567 2.98291 0
M  V30 996 C 91.8852 -1.69415 3.03634 0
M  V30 997 H 91.2082 -1.26876 3.79134 0
M  V30 998 H 92.6482 -2.28423 3.5721 0
M  V30 999 C 91.1072 -2.61569 2.12328 0
M  V30 1000 O 91.6372 -3.63462 1.7105 0
M  V30 1001 N 89.8432 -2.29952 1.77681 0
M  V30 1002 H 89.3902 -1.47134 2.11446 0
M  V30 1003 H 89.3482 -2.91871 1.16869 0
M  V30 1004 N 93.1203 -1.57491 0.0584922 0
M  V30 1005 C 94.0833 -2.1085 -0.898617 0
M  V30 1006 C 95.0833 -1.02964 -1.23511 0
M  V30 1007 O 96.2733 -1.29007 -1.17059 0
M  V30 1008 C 93.4053 -2.59881 -2.20623 0
M  V30 1009 H 94.5983 -2.96715 -0.435936 0
M  V30 1010 H 92.1513 -1.55141 -0.190023 0
M  V30 1011 H 92.8863 -1.77431 -2.71457 0
M  V30 1012 H 92.6713 -3.38727 -1.97501 0
M  V30 1013 H 94.1613 -3.01285 -2.89166 0
M  V30 1014 N 94.5984 0.214957 -1.56127 0
M  V30 1015 C 95.8454 0.938372 -1.79446 0
M  V30 1016 C 96.1734 1.8407 -0.628378 0
M  V30 1017 O 95.4284 1.91837 0.386925 0
M  V30 1018 C 95.7274 1.80314 -3.0858 0
M  V30 1019 C 95.3934 1.05349 -4.3842 0
M  V30 1020 C 94.0554 0.846435 -4.73697 0
M  V30 1021 C 96.4074 0.524588 -5.18553 0
M  V30 1022 C 93.7354 0.098683 -5.86617 0
M  V30 1023 C 96.0874 -0.209853 -6.32252 0
M  V30 1024 C 94.7514 -0.428102 -6.66126 0
M  V30 1025 H 94.0214 0.343375 -0.656639 0
M  V30 1026 H 96.6684 0.206077 -1.90388 0
M  V30 1027 H 94.9734 2.6035 -2.92789 0
M  V30 1028 H 96.6704 2.36513 -3.23825 0
M  V30 1029 H 93.2604 1.22486 -4.10725 0
M  V30 1030 H 97.4444 0.672008 -4.91729 0
M  V30 1031 H 92.7004 -0.0805753 -6.11347 0
M  V30 1032 H 96.8744 -0.627157 -6.9357 0
M  V30 1033 H 94.5014 -1.00944 -7.53468 0
M  V30 1034 N 96.0765 1.50051 0.48192 0
M  V30 1035 C 97.0065 1.71046 1.58951 0
M  V30 1036 C 97.9875 0.559288 1.60642 0
M  V30 1037 O 99.1725 0.797243 1.77081 0
M  V30 1038 C 96.3025 1.79462 2.97339 0
M  V30 1039 C 95.2565 2.94558 3.10515 0
M  V30 1040 C 94.5825 2.88105 4.50444 0
M  V30 1041 C 95.8825 4.35227 2.88747 0
M  V30 1042 H 97.5765 2.6378 1.41635 0
M  V30 1043 H 95.1225 1.26936 0.679942 0
M  V30 1044 H 97.0755 1.92734 3.74742 0
M  V30 1045 H 95.7995 0.833412 3.15788 0
M  V30 1046 H 94.4585 2.80918 2.35543 0
M  V30 1047 H 94.1065 1.89853 4.65795 0
M  V30 1048 H 93.8065 3.65366 4.60197 0
M  V30 1049 H 95.3305 3.03412 5.29881 0
M  V30 1050 H 96.7445 4.49449 3.55905 0
M  V30 1051 H 95.1415 5.13856 3.09955 0
M  V30 1052 H 96.2115 4.48347 1.84696 0
M  V30 1053 N 97.5546 -0.734337 1.39446 0
M  V30 1054 C 98.5016 -1.84835 1.38219 0
M  V30 1055 C 99.4716 -1.64331 0.24179 0
M  V30 1056 O 100.657 -1.85728 0.437002 0
M  V30 1057 C 97.7966 -3.22355 1.23212 0
M  V30 1058 C 96.9096 -3.5456 2.46801 0
M  V30 1059 C 96.0446 -4.81485 2.24377 0
M  V30 1060 C 95.0836 -5.06536 3.43639 0
M  V30 1061 N 94.2206 -6.24665 3.20528 0
M  V30 1062 H 99.0606 -1.85219 2.33448 0
M  V30 1063 H 96.5976 -0.905039 1.15963 0
M  V30 1064 H 98.5556 -4.0174 1.12522 0
M  V30 1065 H 97.1856 -3.21248 0.316121 0
M  V30 1066 H 96.2376 -2.69872 2.68092 0
M  V30 1067 H 97.5496 -3.6899 3.3563 0
M  V30 1068 H 96.7036 -5.68852 2.10933 0
M  V30 1069 H 95.4426 -4.6923 1.32944 0
M  V30 1070 H 94.4476 -4.17632 3.5758 0
M  V30 1071 H 95.6726 -5.20676 4.35974 0
M  V30 1072 H 93.6186 -6.13696 2.3176 0
M  V30 1073 H 93.5356 -6.39685 4.02913 0
M  V30 1074 H 94.8036 -7.14868 3.10779 0
M  V30 1075 N 99.0327 -1.24633 -0.964593 0
M  V30 1076 C 99.9797 -1.04144 -2.05968 0
M  V30 1077 C 100.95 0.046262 -1.66036 0
M  V30 1078 O 102.135 -0.108972 -1.90489 0
M  V30 1079 C 99.2747 -0.65563 -3.38815 0
M  V30 1080 C 98.3877 -1.81714 -3.91923 0
M  V30 1081 C 97.5227 -1.37662 -5.13052 0
M  V30 1082 C 96.5617 -2.50788 -5.58365 0
M  V30 1083 N 95.6987 -2.07582 -6.70712 0
M  V30 1084 H 100.539 -1.9787 -2.22827 0
M  V30 1085 H 98.0757 -0.9855 -1.09208 0
M  V30 1086 H 100.034 -0.412954 -4.15151 0
M  V30 1087 H 98.6637 0.244627 -3.21872 0
M  V30 1088 H 97.7157 -2.1734 -3.12198 0
M  V30 1089 H 99.0277 -2.66705 -4.21509 0
M  V30 1090 H 98.1817 -1.093 -5.96773 0
M  V30 1091 H 96.9207 -0.497293 -4.85158 0
M  V30 1092 H 95.9257 -2.79906 -4.73215 0
M  V30 1093 H 97.1507 -3.39283 -5.88272 0
M  V30 1094 H 95.0967 -1.22051 -6.44546 0
M  V30 1095 H 95.0137 -2.86125 -6.99763 0
M  V30 1096 H 96.2817 -1.82369 -7.57867 0
M  V30 1097 N 100.511 1.16574 -1.06058 0
M  V30 1098 C 101.421 2.2452 -0.680282 0
M  V30 1099 C 102.437 1.71348 0.302604 0
M  V30 1100 O 103.613 2.00822 0.152513 0
M  V30 1101 C 100.678 3.46629 -0.0700315 0
M  V30 1102 C 99.7388 4.14849 -1.10448 0
M  V30 1103 C 98.9718 5.31129 -0.523256 0
M  V30 1104 O 99.1948 5.66514 0.664709 0
M  V30 1105 O 98.1288 5.88526 -1.26179 0
M  V30 1106 H 101.955 2.59355 -1.58015 0
M  V30 1107 H 99.5398 1.24043 -0.832694 0
M  V30 1108 H 101.422 4.20543 0.268667 0
M  V30 1109 H 100.097 3.13573 0.803353 0
M  V30 1110 H 99.0038 3.42916 -1.49532 0
M  V30 1111 H 100.337 4.51954 -1.94931 0
M  V30 1112 N 101.989 0.842826 1.3317 0
M  V30 1113 C 103.236 0.440447 1.97652 0
M  V30 1114 C 103.564 -1.00123 1.6675 0
M  V30 1115 O 102.819 -1.7155 0.941761 0
M  V30 1116 C 103.118 0.612607 3.52111 0
M  V30 1117 C 102.784 2.02297 4.02972 0
M  V30 1118 C 101.446 2.40874 4.16573 0
M  V30 1119 C 103.798 2.94402 4.30089 0
M  V30 1120 C 101.126 3.70852 4.54627 0
M  V30 1121 C 103.478 4.23865 4.69597 0
M  V30 1122 C 102.142 4.62392 4.81404 0
M  V30 1123 H 101.412 0.161171 0.72326 0
M  V30 1124 H 104.059 1.07061 1.58777 0
M  V30 1125 H 102.364 -0.100849 3.9167 0
M  V30 1126 H 104.061 0.2815 4.00011 0
M  V30 1127 H 100.651 1.71338 3.92863 0
M  V30 1128 H 104.835 2.65835 4.19101 0
M  V30 1129 H 100.091 4.00501 4.61962 0
M  V30 1130 H 104.265 4.95306 4.89536 0
M  V30 1131 H 101.892 5.63154 5.10648 0
M  V30 1132 N 103.467 -1.45747 0.599634 0
M  V30 1133 C 104.399 -2.28628 -0.161879 0
M  V30 1134 C 105.412 -1.39494 -0.839367 0
M  V30 1135 O 106.601 -1.63941 -0.706089 0
M  V30 1136 C 103.701 -3.15014 -1.24976 0
M  V30 1137 C 102.874 -4.32378 -0.660935 0
M  V30 1138 C 101.933 -5.00033 -1.63869 0
M  V30 1139 O 100.959 -5.57085 -1.1681 0
M  V30 1140 N 102.161 -4.98589 -2.97303 0
M  V30 1141 H 104.926 -2.94624 0.549265 0
M  V30 1142 H 102.487 -1.55847 0.438565 0
M  V30 1143 H 104.479 -3.5714 -1.9035 0
M  V30 1144 H 103.049 -2.5098 -1.86354 0
M  V30 1145 H 102.269 -3.9383 0.170688 0
M  V30 1146 H 103.557 -5.08197 -0.247619 0
M  V30 1147 H 102.955 -4.53514 -3.38145 0
M  V30 1148 H 101.512 -5.44603 -3.58121 0
M  V30 1149 N 104.945 -0.338344 -1.53925 0
M  V30 1150 C 106.175 0.260919 -2.04946 0
M  V30 1151 C 106.583 1.45174 -1.2133 0
M  V30 1152 O 105.926 1.82122 -0.240262 0
M  V30 1153 C 105.988 0.744596 -3.51704 0
M  V30 1154 C 105.652 -0.325883 -4.55837 0
M  V30 1155 C 106.649 -1.16687 -5.06636 0
M  V30 1156 C 104.334 -0.478317 -5.00017 0
M  V30 1157 C 106.328 -2.14588 -6.00192 0
M  V30 1158 C 104.015 -1.46073 -5.93385 0
M  V30 1159 C 105.013 -2.29297 -6.4336 0
M  V30 1160 O 104.701 -3.25867 -7.34892 0
M  V30 1161 H 104.433 0.0551207 -0.673749 0
M  V30 1162 H 106.987 -0.486984 -1.99544 0
M  V30 1163 H 105.217 1.54366 -3.54553 0
M  V30 1164 H 106.906 1.26383 -3.85723 0
M  V30 1165 H 107.672 -1.06016 -4.73271 0
M  V30 1166 H 103.551 0.159613 -4.60724 0
M  V30 1167 H 107.095 -2.79585 -6.39123 0
M  V30 1168 H 102.992 -1.56802 -6.26166 0
M  V30 1169 H 103.76 -3.21278 -7.5281 0
M  V30 1170 N 106.423 1.57458 -0.0668435 0
M  V30 1171 C 107.353 2.15468 0.899764 0
M  V30 1172 C 108.334 1.08042 1.31381 0
M  V30 1173 O 109.519 1.36054 1.38574 0
M  V30 1174 C 106.649 2.71232 2.16911 0
M  V30 1175 C 105.603 3.83781 1.89463 0
M  V30 1176 C 104.929 4.26127 3.22986 0
M  V30 1177 C 106.229 5.08238 1.20381 0
M  V30 1178 H 107.923 2.96488 0.416529 0
M  V30 1179 H 105.469 1.4262 0.198908 0
M  V30 1180 H 107.422 3.10458 2.84945 0
M  V30 1181 H 106.146 1.87426 2.67468 0
M  V30 1182 H 104.805 3.45051 1.23836 0
M  V30 1183 H 104.453 3.39249 3.71374 0
M  V30 1184 H 104.153 5.01993 3.05413 0
M  V30 1185 H 105.677 4.67966 3.92225 0
M  V30 1186 H 107.091 5.44811 1.78475 0
M  V30 1187 H 105.488 5.89349 1.13083 0
M  V30 1188 H 106.558 4.84558 0.182153 0
M  V30 1189 N 107.901 -0.206675 1.56239 0
M  V30 1190 C 108.864 -1.23976 1.92776 0
M  V30 1191 C 109.864 -1.39041 0.807729 0
M  V30 1192 O 111.054 -1.37051 1.0753 0
M  V30 1193 C 108.186 -2.61112 2.19165 0
M  V30 1194 H 109.379 -0.927764 2.85189 0
M  V30 1195 H 106.932 -0.447718 1.4975 0
M  V30 1196 H 107.667 -2.97386 1.29352 0
M  V30 1197 H 107.452 -2.51552 3.00772 0
M  V30 1198 H 108.942 -3.35633 2.48476 0
M  V30 1199 N 109.379 -1.50304 -0.473955 0
M  V30 1200 C 110.625 -1.61389 -1.22806 0
M  V30 1201 C 110.958 -0.311955 -1.91678 0
M  V30 1202 O 110.233 0.686384 -1.81986 0
M  V30 1203 C 110.516 -2.79219 -2.27396 0
M  V30 1204 C 110.369 -4.19286 -1.62848 0
M  V30 1205 C 111.688 -2.92614 -3.28732 0
M  V30 1206 H 108.807 -0.587399 -0.445119 0
M  V30 1207 H 111.449 -1.82681 -0.522265 0
M  V30 1208 H 109.599 -2.61195 -2.87592 0
M  V30 1209 H 111.271 -4.48892 -1.06271 0
M  V30 1210 H 109.514 -4.23677 -0.931693 0
M  V30 1211 H 110.185 -4.97655 -2.38838 0
M  V30 1212 H 112.661 -3.09105 -2.78556 0
M  V30 1213 H 111.537 -3.76688 -3.99246 0
M  V30 1214 H 111.798 -2.03107 -3.92683 0
M  V30 1215 N 110.857 0.726932 -1.39834 0
M  V30 1216 C 112.104 1.48664 -1.37496 0
M  V30 1217 C 112.432 1.94482 0.0264678 0
M  V30 1218 O 111.687 1.67692 1.00886 0
M  V30 1219 C 111.986 2.73495 -2.30077 0
M  V30 1220 C 111.652 2.46502 -3.77555 0
M  V30 1221 C 110.314 2.3885 -4.17737 0
M  V30 1222 C 112.666 2.23604 -4.70798 0
M  V30 1223 C 109.994 2.06352 -5.49214 0
M  V30 1224 C 112.346 1.92622 -6.02561 0
M  V30 1225 C 111.01 1.83444 -6.41798 0
M  V30 1226 H 110.28 0.544001 -0.503135 0
M  V30 1227 H 112.927 0.833657 -1.72402 0
M  V30 1228 H 111.232 3.43575 -1.88317 0
M  V30 1229 H 112.929 3.31549 -2.25558 0
M  V30 1230 H 109.519 2.5334 -3.45712 0
M  V30 1231 H 113.703 2.28479 -4.40581 0
M  V30 1232 H 108.959 1.97776 -5.78528 0
M  V30 1233 H 113.133 1.73914 -6.74334 0
M  V30 1234 H 110.76 1.58029 -7.43593 0
M  V30 1235 N 112.336 1.25143 0.95797 0
M  V30 1236 C 113.585 1.0909 1.69654 0
M  V30 1237 C 113.898 -0.368548 1.92097 0
M  V30 1238 O 115.104 -0.649455 2.63618 0
M  V30 1239 C 113.56 1.90395 3.05414 0
M  V30 1240 C 113.168 3.4081 2.90779 0
M  V30 1241 C 114.912 1.82901 3.83076 0
M  V30 1242 C 112.819 4.14423 4.21909 0
M  V30 1243 H 111.749 0.404625 0.636235 0
M  V30 1244 H 114.4 1.4931 1.06672 0
M  V30 1245 H 112.782 1.42996 3.69281 0
M  V30 1246 H 113.956 3.95859 2.35865 0
M  V30 1247 H 112.271 3.49361 2.26575 0
M  V30 1248 H 114.868 2.35196 4.80195 0
M  V30 1249 H 115.211 0.796224 4.08615 0
M  V30 1250 H 115.744 2.28033 3.25954 0
M  V30 1251 H 112.483 5.18102 4.01561 0
M  V30 1252 H 112.003 3.64159 4.76601 0
M  V30 1253 H 113.682 4.21956 4.90471 0
M  V30 1254 N 113.814 -1.1601 1.06675 0
M  V30 1255 C 115.063 -1.85973 0.780818 0
M  V30 1256 C 115.376 -1.82819 -0.695444 0
M  V30 1257 O 116.582 -2.484 -1.09589 0
M  V30 1258 C 115.038 -3.33757 1.34665 0
M  V30 1259 C 114.646 -3.45374 2.85343 0
M  V30 1260 C 116.39 -4.0895 1.13843 0
M  V30 1261 C 114.297 -4.87266 3.35151 0
M  V30 1262 H 113.227 -0.696661 0.288407 0
M  V30 1263 H 115.878 -1.30903 1.28595 0
M  V30 1264 H 114.26 -3.88456 0.769274 0
M  V30 1265 H 115.434 -3.00816 3.49065 0
M  V30 1266 H 113.749 -2.83619 3.04876 0
M  V30 1267 H 116.346 -5.13654 1.4854 0
M  V30 1268 H 116.689 -4.16229 0.0770282 0
M  V30 1269 H 117.222 -3.605 1.68179 0
M  V30 1270 H 113.961 -4.85168 4.40786 0
M  V30 1271 H 113.481 -5.32433 2.76179 0
M  V30 1272 H 115.16 -5.56097 3.30704 0
M  V30 1273 N 115.292 -0.849877 -1.32721 0
M  V30 1274 C 116.538 -0.451591 -1.97708 0
M  V30 1275 C 116.871 0.989175 -1.6712 0
M  V30 1276 O 116.146 1.69334 -0.956891 0
M  V30 1277 C 116.429 -0.685598 -3.53513 0
M  V30 1278 C 116.282 -2.17444 -3.93749 0
M  V30 1279 C 117.601 -0.138874 -4.39881 0
M  V30 1280 H 114.72 -0.16555 -0.718166 0
M  V30 1281 H 117.362 -1.06742 -1.57182 0
M  V30 1282 H 115.512 -0.161416 -3.88165 0
M  V30 1283 H 117.184 -2.76433 -3.693 0
M  V30 1284 H 115.427 -2.65476 -3.43081 0
M  V30 1285 H 116.098 -2.28888 -5.02309 0
M  V30 1286 H 118.574 -0.587068 -4.11938 0
M  V30 1287 H 117.45 -0.332213 -5.47894 0
M  V30 1288 H 117.711 0.95806 -4.31594 0
M  V30 1289 N 116.77 1.45427 -0.607355 0
M  V30 1290 C 118.017 2.02241 -0.102455 0
M  V30 1291 C 118.345 1.4758 1.26691 0
M  V30 1292 O 117.6 0.640468 1.84923 0
M  V30 1293 C 117.899 3.57398 -0.0129263 0
M  V30 1294 C 117.565 4.3121 -1.31792 0
M  V30 1295 C 116.227 4.51092 -1.67539 0
M  V30 1296 C 118.579 4.73401 -2.18039 0
M  V30 1297 C 115.907 5.10422 -2.89285 0
M  V30 1298 C 118.259 5.34078 -3.39034 0
M  V30 1299 C 116.923 5.52184 -3.75033 0
M  V30 1300 H 116.193 0.740051 -0.037491 0
M  V30 1301 H 118.84 1.74494 -0.788926 0
M  V30 1302 H 117.145 3.84421 0.756806 0
M  V30 1303 H 118.842 3.99061 0.393881 0
M  V30 1304 H 115.432 4.16047 -1.02968 0
M  V30 1305 H 119.616 4.57774 -1.91721 0
M  V30 1306 H 114.872 5.22629 -3.17283 0
M  V30 1307 H 119.046 5.65724 -4.06115 0
M  V30 1308 H 116.673 5.97925 -4.69457 0
M  V30 1309 N 118.248 0.346503 1.53744 0
M  V30 1310 C 119.473 -0.253074 2.0585 0
M  V30 1311 C 119.898 -1.43202 1.21962 0
M  V30 1312 O 119.256 -1.79783 0.234073 0
M  V30 1313 C 119.304 -0.643193 3.54817 0
M  V30 1314 O 118.408 -1.74286 3.73762 0
M  V30 1315 H 117.749 -0.0413583 0.662711 0
M  V30 1316 H 120.279 0.501574 1.98357 0
M  V30 1317 H 120.289 -0.919526 3.97503 0
M  V30 1318 H 118.964 0.218966 4.15323 0
M  V30 1319 H 117.541 -1.46356 3.42979 0
M  V30 1320 N 119.726 -1.57421 0.075193 0
M  V30 1321 C 120.975 -1.92794 -0.592731 0
M  V30 1322 C 121.288 -0.957478 -1.70563 0
M  V30 1323 O 122.494 -1.20417 -2.43335 0
M  V30 1324 C 120.95 -3.42495 -1.10569 0
M  V30 1325 C 120.558 -4.47994 -0.0236121 0
M  V30 1326 C 122.302 -3.86864 -1.74748 0
M  V30 1327 C 120.209 -5.88829 -0.550803 0
M  V30 1328 H 119.139 -0.719591 -0.225177 0
M  V30 1329 H 121.79 -1.82902 0.147978 0
M  V30 1330 H 120.172 -3.47471 -1.89947 0
M  V30 1331 H 121.346 -4.54637 0.751099 0
M  V30 1332 H 119.661 -4.13113 0.522159 0
M  V30 1333 H 122.258 -4.8947 -2.15229 0
M  V30 1334 H 122.601 -3.24417 -2.60882 0
M  V30 1335 H 123.134 -3.84504 -1.01986 0
M  V30 1336 H 119.873 -6.54929 0.273457 0
M  V30 1337 H 119.393 -5.85698 -1.29296 0
M  V30 1338 H 121.072 -6.38811 -1.02613 0
M  V30 1339 N 121.204 0.198386 -1.56346 0
M  V30 1340 C 122.134 1.24865 -1.9731 0
M  V30 1341 C 123.115 1.47651 -0.844576 0
M  V30 1342 O 124.3 1.59444 -1.10866 0
M  V30 1343 C 121.43 2.59358 -2.30977 0
M  V30 1344 C 120.384 2.5119 -3.46537 0
M  V30 1345 C 119.71 3.89926 -3.65871 0
M  V30 1346 C 121.01 2.03977 -4.80823 0
M  V30 1347 H 122.704 0.908252 -2.85291 0
M  V30 1348 H 120.25 0.435462 -1.37258 0
M  V30 1349 H 122.203 3.33011 -2.58228 0
M  V30 1350 H 120.927 2.95132 -1.39874 0
M  V30 1351 H 119.586 1.79993 -3.19371 0
M  V30 1352 H 119.234 4.23046 -2.72105 0
M  V30 1353 H 118.934 3.85336 -4.4361 0
M  V30 1354 H 120.458 4.65205 -3.95495 0
M  V30 1355 H 121.872 2.67386 -5.07127 0
M  V30 1356 H 120.269 2.10397 -5.62008 0
M  V30 1357 H 121.339 0.992861 -4.74626 0
M  V30 1358 N 122.682 1.50554 0.465978 0
M  V30 1359 C 123.612 1.72722 1.57128 0
M  V30 1360 C 124.593 0.576294 1.6004 0
M  V30 1361 O 125.778 0.81598 1.76225 0
M  V30 1362 C 122.908 1.82605 2.95419 0
M  V30 1363 C 121.862 2.97835 3.07373 0
M  V30 1364 C 121.188 2.92867 4.47363 0
M  V30 1365 C 122.488 4.38265 2.84114 0
M  V30 1366 H 124.182 2.65267 1.38829 0
M  V30 1367 H 121.728 1.2765 0.666441 0
M  V30 1368 H 123.681 1.96698 3.72677 0
M  V30 1369 H 122.405 0.866858 3.14886 0
M  V30 1370 H 121.064 2.83401 2.3255 0
M  V30 1371 H 120.712 1.94783 4.63755 0
M  V30 1372 H 120.412 3.70227 4.56296 0
M  V30 1373 H 121.936 3.09015 5.26633 0
M  V30 1374 H 123.35 4.53198 3.51118 0
M  V30 1375 H 121.747 5.17115 3.04487 0
M  V30 1376 H 122.817 4.50281 1.7993 0
M  V30 1377 N 124.16 -0.719506 1.40217 0
M  V30 1378 C 125.408 -1.47641 1.3801 0
M  V30 1379 C 125.729 -1.94992 -0.018145 0
M  V30 1380 O 124.999 -1.70073 -0.972207 0
M  V30 1381 H 123.579 -0.547744 0.507923 0
M  V30 1382 H 126.241 -0.853187 1.75233 0
M  V30 1383 H 125.337 -2.35112 2.05253 0
M  V30 1384 N 125.638 -1.25649 -0.95132 0
M  V30 1385 C 126.885 -1.10594 -1.69633 0
M  V30 1386 C 127.213 0.352515 -1.91279 0
M  V30 1387 O 126.468 1.27601 -1.4838 0
M  V30 1388 C 126.767 -1.80909 -3.08231 0
M  V30 1389 C 126.433 -3.30825 -3.06375 0
M  V30 1390 C 125.095 -3.71722 -3.05576 0
M  V30 1391 C 127.447 -4.26589 -2.99452 0
M  V30 1392 C 124.775 -5.06788 -2.95606 0
M  V30 1393 C 127.127 -5.61683 -2.91024 0
M  V30 1394 C 125.791 -6.01904 -2.88562 0
M  V30 1395 H 125.061 -0.404691 -0.620731 0
M  V30 1396 H 127.708 -1.55964 -1.11119 0
M  V30 1397 H 126.013 -1.27979 -3.70309 0
M  V30 1398 H 127.71 -1.6671 -3.64704 0
M  V30 1399 H 124.3 -2.98287 -3.07771 0
M  V30 1400 H 128.484 -3.95982 -2.99185 0
M  V30 1401 H 123.74 -5.37126 -2.92071 0
M  V30 1402 H 127.914 -6.35578 -2.84629 0
M  V30 1403 H 125.541 -7.06521 -2.80593 0
M  V30 1404 N 127.117 1.15442 -1.07289 0
M  V30 1405 C 128.364 1.86213 -0.795668 0
M  V30 1406 C 128.692 1.82291 0.678238 0
M  V30 1407 O 127.947 1.24057 1.51355 0
M  V30 1408 C 128.246 3.3489 -1.24834 0
M  V30 1409 C 127.912 3.59007 -2.72809 0
M  V30 1410 C 126.574 3.65298 -3.13227 0
M  V30 1411 C 128.926 3.68762 -3.68326 0
M  V30 1412 C 126.254 3.78854 -4.4798 0
M  V30 1413 C 128.606 3.83842 -5.0284 0
M  V30 1414 C 127.27 3.88378 -5.4288 0
M  V30 1415 H 126.54 0.681403 -0.291155 0
M  V30 1416 H 129.187 1.36435 -1.34379 0
M  V30 1417 H 127.492 3.8687 -0.619595 0
M  V30 1418 H 129.189 3.88052 -1.01076 0
M  V30 1419 H 125.779 3.5475 -2.40521 0
M  V30 1420 H 129.963 3.63202 -3.38227 0
M  V30 1421 H 125.219 3.80623 -4.78472 0
M  V30 1422 H 129.393 3.90332 -5.76727 0
M  V30 1423 H 127.02 3.98635 -6.47298 0
M  V30 1424 N 128.595 0.856903 1.32268 0
M  V30 1425 C 129.841 0.462069 1.97466 0
M  V30 1426 C 130.174 -0.980298 1.67642 0
M  V30 1427 O 129.449 -1.68824 0.965858 0
M  V30 1428 C 129.732 0.704336 3.53145 0
M  V30 1429 C 129.585 2.19529 3.9259 0
M  V30 1430 C 130.904 0.1622 4.39801 0
M  V30 1431 H 128.023 0.169357 0.717278 0
M  V30 1432 H 130.665 1.07574 1.56614 0
M  V30 1433 H 128.815 0.181999 3.88073 0
M  V30 1434 H 130.487 2.78387 3.67829 0
M  V30 1435 H 128.73 2.67292 3.41668 0
M  V30 1436 H 129.401 2.31549 5.01088 0
M  V30 1437 H 131.877 0.608905 4.11621 0
M  V30 1438 H 130.753 0.361265 5.4771 0
M  V30 1439 H 131.014 -0.935158 4.32096 0
M  V30 1440 N 130.073 -1.45103 0.615059 0
M  V30 1441 C 131.021 -2.32331 -0.111791 0
M  V30 1442 C 132.015 -1.46409 -0.852102 0
M  V30 1443 O 133.221 -1.62849 -0.766821 0
M  V30 1444 H 129.596 -0.749993 -0.0549072 0
M  V30 1445 H 131.567 -2.91407 0.642225 0
M  V30 1446 C 130.316 -3.3015 -1.09071 0
M  V30 1447 H 129.639 -3.96265 -0.530485 0
M  V30 1448 H 131.079 -3.93898 -1.56908 0
M  V30 1449 C 129.538 -2.57875 -2.168 0
M  V30 1450 O 130.068 -2.36567 -3.24652 0
M  V30 1451 N 128.274 -2.17884 -1.92289 0
M  V30 1452 H 127.821 -2.35413 -1.04587 0
M  V30 1453 H 127.779 -1.6985 -2.64572 0
M  V30 1454 N 131.551 -0.354651 -1.53558 0
M  V30 1455 C 132.776 0.242153 -2.05981 0
M  V30 1456 C 133.201 1.42553 -1.2272 0
M  V30 1457 O 132.559 1.79656 -0.243604 0
M  V30 1458 C 132.607 0.624367 -3.55154 0
M  V30 1459 O 131.711 1.72301 -3.74681 0
M  V30 1460 H 131.052 0.0378432 -0.662921 0
M  V30 1461 H 133.582 -0.512087 -1.98088 0
M  V30 1462 H 133.592 0.898433 -3.97985 0
M  V30 1463 H 132.267 -0.240989 -4.15201 0
M  V30 1464 H 130.844 1.44535 -3.4375 0
M  V30 1465 N 133.029 1.57378 -0.0835403 0
M  V30 1466 C 134.276 1.9393 0.58287 0
M  V30 1467 C 134.604 0.964455 1.68904 0
M  V30 1468 O 133.859 -0.0179474 1.95692 0
M  V30 1469 C 134.158 3.37063 1.1884 0
M  V30 1470 C 133.824 4.50424 0.207194 0
M  V30 1471 C 132.486 4.81159 -0.0627115 0
M  V30 1472 C 134.838 5.19136 -0.463426 0
M  V30 1473 C 132.166 5.77939 -1.01012 0
M  V30 1474 C 134.518 6.16931 -1.39924 0
M  V30 1475 C 133.182 6.46078 -1.67749 0
M  V30 1476 H 132.452 0.70964 0.213287 0
M  V30 1477 H 135.099 1.90856 -0.156916 0
M  V30 1478 H 133.404 3.3666 2.00418 0
M  V30 1479 H 135.101 3.6264 1.71153 0
M  V30 1480 H 131.691 4.2646 0.427747 0
M  V30 1481 H 135.875 4.95576 -0.268034 0
M  V30 1482 H 131.131 5.98842 -1.23283 0
M  V30 1483 H 135.305 6.69273 -1.92476 0
M  V30 1484 H 132.932 7.2088 -2.41321 0
M  V30 1485 N 134.507 -0.190092 1.56449 0
M  V30 1486 C 135.735 -0.925772 1.85033 0
M  V30 1487 C 136.15 -1.76638 0.666658 0
M  V30 1488 O 135.507 -1.78822 -0.364565 0
M  V30 1489 C 135.558 -1.81786 3.12468 0
M  V30 1490 O 135.279 -1.01118 4.26271 0
M  V30 1491 C 136.78 -2.6648 3.54265 0
M  V30 1492 H 134 -0.269872 0.614337 0
M  V30 1493 H 136.544 -0.195837 2.0356 0
M  V30 1494 H 134.699 -2.50136 2.95822 0
M  V30 1495 H 135.113 -1.61956 4.98869 0
M  V30 1496 H 136.587 -3.24722 4.46385 0
M  V30 1497 H 137.064 -3.40434 2.77491 0
M  V30 1498 H 137.67 -2.03493 3.73458 0
M  V30 1499 N 135.985 -1.50799 -0.457987 0
M  V30 1500 C 136.948 -1.7005 -1.53674 0
M  V30 1501 C 137.948 -0.570881 -1.50325 0
M  V30 1502 O 139.138 -0.838126 -1.52712 0
M  V30 1503 C 136.27 -1.73788 -2.93276 0
M  V30 1504 H 137.463 -2.66306 -1.37917 0
M  V30 1505 H 135.016 -1.40477 -0.685271 0
M  V30 1506 H 135.751 -0.792717 -3.14462 0
M  V30 1507 H 135.536 -2.55864 -2.97113 0
M  V30 1508 H 137.026 -1.90591 -3.71571 0
M  V30 1509 N 137.463 0.71206 -1.40597 0
M  V30 1510 C 138.709 1.47416 -1.39271 0
M  V30 1511 C 139.042 1.942 0.00388791 0
M  V30 1512 O 138.317 1.68403 0.973179 0
M  V30 1513 C 138.6 2.69774 -2.38525 0
M  V30 1514 C 138.453 2.28861 -3.87224 0
M  V30 1515 C 139.772 3.71939 -2.35264 0
M  V30 1516 H 136.891 0.534713 -0.5072 0
M  V30 1517 H 139.533 0.812375 -1.71757 0
M  V30 1518 H 137.683 3.26238 -2.10953 0
M  V30 1519 H 139.355 1.77852 -4.25636 0
M  V30 1520 H 137.598 1.60824 -4.02887 0
M  V30 1521 H 138.269 3.16584 -4.52193 0
M  V30 1522 H 140.745 3.25113 -2.59694 0
M  V30 1523 H 139.621 4.55186 -3.06753 0
M  V30 1524 H 139.882 4.20484 -1.36549 0
M  V30 1525 N 138.941 1.26152 0.944643 0
M  V30 1526 C 140.166 1.14363 1.7302 0
M  V30 1527 C 140.591 -0.29772 1.85729 0
M  V30 1528 O 139.949 -1.2157 1.34501 0
M  V30 1529 C 139.997 1.81378 3.11664 0
M  V30 1530 O 139.101 1.10022 3.97453 0
M  V30 1531 H 138.442 0.398694 0.53098 0
M  V30 1532 H 140.972 1.66906 1.18337 0
M  V30 1533 H 140.982 1.88064 3.62072 0
M  V30 1534 H 139.657 2.86237 3.0173 0
M  V30 1535 H 138.234 1.11287 3.55907 0
M  V30 1536 N 140.419 -1.14872 1.07899 0
M  V30 1537 C 141.666 -1.85789 0.805532 0
M  V30 1538 C 141.994 -1.82649 -0.668561 0
M  V30 1539 O 141.249 -1.24858 -1.50695 0
M  V30 1540 C 141.548 -3.34223 1.26609 0
M  V30 1541 C 141.214 -3.57555 2.74709 0
M  V30 1542 C 139.876 -3.63631 3.1516 0
M  V30 1543 C 142.228 -3.66803 3.70277 0
M  V30 1544 C 139.556 -3.76473 4.49983 0
M  V30 1545 C 141.908 -3.8117 5.04869 0
M  V30 1546 C 140.572 -3.85494 5.44932 0
M  V30 1547 H 139.842 -0.679849 0.294765 0
M  V30 1548 H 142.489 -1.3572 1.35101 0
M  V30 1549 H 140.794 -3.86536 0.640103 0
M  V30 1550 H 142.491 -3.87511 1.03132 0
M  V30 1551 H 139.081 -3.5347 2.42398 0
M  V30 1552 H 143.265 -3.61404 3.40149 0
M  V30 1553 H 138.521 -3.7808 4.80484 0
M  V30 1554 H 142.695 -3.87268 5.78789 0
M  V30 1555 H 140.322 -3.95197 6.49403 0
M  V30 1556 N 141.898 -0.863906 -1.31812 0
M  V30 1557 C 143.144 -0.472535 -1.97218 0
M  V30 1558 C 143.477 0.971394 -1.68159 0
M  V30 1559 O 142.752 1.68309 -0.974798 0
M  V30 1560 C 143.035 -0.723054 -3.52766 0
M  V30 1561 C 142.888 -2.21608 -3.91421 0
M  V30 1562 C 144.207 -0.185522 -4.39709 0
M  V30 1563 H 141.326 -0.173158 -0.71637 0
M  V30 1564 H 143.968 -1.08403 -1.56041 0
M  V30 1565 H 142.118 -0.202577 -3.87971 0
M  V30 1566 H 143.79 -2.80334 -3.66347 0
M  V30 1567 H 142.033 -2.691 -3.40246 0
M  V30 1568 H 142.704 -2.34203 -4.99853 0
M  V30 1569 H 145.18 -0.630726 -4.11292 0
M  V30 1570 H 144.056 -0.390306 -5.47511 0
M  V30 1571 H 144.317 0.912229 -4.32586 0
M  V30 1572 N 143.376 1.44774 -0.622745 0
M  V30 1573 C 144.306 2.33382 0.0741861 0
M  V30 1574 C 145.287 1.47719 0.843387 0
M  V30 1575 O 146.472 1.76458 0.810934 0
M  V30 1576 C 143.602 3.30663 1.06204 0
M  V30 1577 C 142.556 4.26079 0.405037 0
M  V30 1578 C 141.882 5.13165 1.5022 0
M  V30 1579 C 143.182 5.1781 -0.683414 0
M  V30 1580 H 144.876 2.91905 -0.665713 0
M  V30 1581 H 142.422 1.40363 -0.321587 0
M  V30 1582 H 144.375 3.9153 1.55827 0
M  V30 1583 H 143.099 2.70331 1.83272 0
M  V30 1584 H 141.758 3.66532 -0.0704683 0
M  V30 1585 H 141.406 4.49191 2.26355 0
M  V30 1586 H 141.106 5.77812 1.06803 0
M  V30 1587 H 142.63 5.76902 2.00041 0
M  V30 1588 H 144.044 5.72661 -0.270631 0
M  V30 1589 H 142.441 5.91015 -1.04023 0
M  V30 1590 H 143.511 4.59326 -1.55395 0
M  V30 1591 N 144.854 0.36279 1.53368 0
M  V30 1592 C 146.102 -0.227326 2.00817 0
M  V30 1593 C 146.423 -1.49511 1.25186 0
M  V30 1594 O 145.693 -1.92482 0.364348 0
M  V30 1595 H 144.273 -0.0869923 0.741917 0
M  V30 1596 H 146.935 0.488381 1.88682 0
M  V30 1597 H 146.031 -0.456273 3.08747 0
M  V30 1598 N 146.332 -1.57332 0.0918853 0
M  V30 1599 C 147.572 -1.96117 -0.575988 0
M  V30 1600 C 147.936 -0.972499 -1.65549 0
M  V30 1601 O 149.137 -1.24872 -2.38034 0
M  V30 1602 C 147.408 -3.39407 -1.11973 0
M  V30 1603 S 148.967 -4.00185 -1.79992 0
M  V30 1604 H 145.785 -0.685682 -0.188045 0
M  V30 1605 H 148.387 -1.94755 0.170525 0
M  V30 1606 H 147.091 -4.09131 -0.322504 0
M  V30 1607 H 146.622 -3.44358 -1.90214 0
M  V30 1608 H 148.637 -3.88728 -3.08391 0
M  V30 1609 N 147.81 0.181792 -1.56548 0
M  V30 1610 C 148.74 1.22765 -1.98623 0
M  V30 1611 C 149.721 1.46747 -0.860189 0
M  V30 1612 O 150.906 1.58259 -1.12551 0
M  V30 1613 C 148.036 2.56894 -2.33715 0
M  V30 1614 C 146.99 2.475 -3.49182 0
M  V30 1615 C 146.316 3.86023 -3.69986 0
M  V30 1616 C 147.616 1.98866 -4.82959 0
M  V30 1617 H 149.31 0.877942 -2.86239 0
M  V30 1618 H 146.856 0.42088 -1.37712 0
M  V30 1619 H 148.809 3.30253 -2.61746 0
M  V30 1620 H 147.533 2.93632 -1.42997 0
M  V30 1621 H 146.192 1.76596 -3.21262 0
M  V30 1622 H 145.84 4.20136 -2.76576 0
M  V30 1623 H 145.54 3.80609 -4.47672 0
M  V30 1624 H 147.064 4.60984 -4.00407 0
M  V30 1625 H 148.478 2.61992 -5.09934 0
M  V30 1626 H 146.875 2.04424 -5.64208 0
M  V30 1627 H 147.945 0.942465 -4.75653 0
M  V30 1628 N 149.288 1.51039 0.449983 0
M  V30 1629 C 150.516 1.66869 1.2232 0
M  V30 1630 C 150.931 0.360727 1.85322 0
M  V30 1631 O 150.288 -0.659531 1.70166 0
M  V30 1632 C 150.339 2.77524 2.31652 0
M  V30 1633 O 150.06 4.03252 1.7123 0
M  V30 1634 C 151.561 3.04512 3.2216 0
M  V30 1635 H 148.781 0.560326 0.369155 0
M  V30 1636 H 151.325 1.97385 0.534719 0
M  V30 1637 H 149.48 2.49642 2.96239 0
M  V30 1638 H 149.894 4.64609 2.43389 0
M  V30 1639 H 151.368 3.85551 3.95038 0
M  V30 1640 H 151.845 2.16415 3.8218 0
M  V30 1641 H 152.451 3.34005 2.63288 0
M  V30 1642 N 150.766 -0.704594 1.40972 0
M  V30 1643 C 151.991 -1.49858 1.43378 0
M  V30 1644 C 152.416 -1.88061 0.038184 0
M  V30 1645 O 151.774 -1.5402 -0.956425 0
M  V30 1646 C 151.822 -2.74333 2.34038 0
M  V30 1647 O 150.926 -3.7147 1.7912 0
M  V30 1648 H 150.267 -0.45139 0.486974 0
M  V30 1649 H 152.797 -0.866832 1.8533 0
M  V30 1650 H 152.807 -3.22741 2.49604 0
M  V30 1651 H 151.482 -2.45863 3.35446 0
M  V30 1652 H 150.059 -3.30363 1.72958 0
M  V30 1653 N 152.244 -1.26651 -0.937939 0
M  V30 1654 C 153.493 -1.11775 -1.67897 0
M  V30 1655 C 153.806 0.33794 -1.92659 0
M  V30 1656 O 155.012 0.607434 -2.64618 0
M  V30 1657 C 153.468 -1.9523 -3.02346 0
M  V30 1658 C 153.076 -3.45393 -2.8532 0
M  V30 1659 C 154.82 -1.88972 -3.80118 0
M  V30 1660 C 152.727 -4.21083 -4.15263 0
M  V30 1661 H 151.657 -0.414696 -0.629717 0
M  V30 1662 H 154.308 -1.50988 -1.04283 0
M  V30 1663 H 152.69 -1.48853 -3.66959 0
M  V30 1664 H 153.864 -3.99561 -2.29537 0
M  V30 1665 H 152.179 -3.52921 -2.20988 0
M  V30 1666 H 154.776 -2.42805 -4.76392 0
M  V30 1667 H 155.119 -0.86113 -4.07296 0
M  V30 1668 H 155.652 -2.33189 -3.22285 0
M  V30 1669 H 152.391 -5.24425 -3.93267 0
M  V30 1670 H 151.911 -3.71695 -4.70747 0
M  V30 1671 H 153.59 -4.29706 -4.83696 0
M  V30 1672 N 153.722 1.14298 -1.08507 0
M  V30 1673 C 154.652 2.21542 -0.737646 0
M  V30 1674 C 155.633 1.67773 0.280377 0
M  V30 1675 O 156.818 1.93616 0.150521 0
M  V30 1676 C 153.948 3.46988 -0.147259 0
M  V30 1677 C 152.902 4.13789 -1.09374 0
M  V30 1678 C 152.228 5.33449 -0.365524 0
M  V30 1679 C 153.528 4.62208 -2.4323 0
M  V30 1680 H 155.222 2.5086 -1.6343 0
M  V30 1681 H 152.768 1.20576 -0.787243 0
M  V30 1682 H 154.721 4.21262 0.107808 0
M  V30 1683 H 153.445 3.17037 0.784538 0
M  V30 1684 H 152.104 3.4147 -1.33393 0
M  V30 1685 H 151.752 4.99759 0.57011 0
M  V30 1686 H 151.452 5.79088 -0.996512 0
M  V30 1687 H 152.976 6.10485 -0.118534 0
M  V30 1688 H 154.39 5.27952 -2.23472 0
M  V30 1689 H 152.787 5.18553 -3.02031 0
M  V30 1690 H 153.857 3.77224 -3.04681 0
M  V30 1691 N 155.201 0.870884 1.31352 0
M  V30 1692 C 156.441 0.488783 1.9847 0
M  V30 1693 C 156.805 -0.941536 1.67329 0
M  V30 1694 O 158.006 -1.42903 2.27667 0
M  V30 1695 C 156.277 0.739688 3.49662 0
M  V30 1696 S 157.836 0.457582 4.36408 0
M  V30 1697 H 154.654 0.18242 0.6872 0
M  V30 1698 H 157.256 1.12711 1.59739 0
M  V30 1699 H 155.96 1.77944 3.69816 0
M  V30 1700 H 155.491 0.0883905 3.93301 0
M  V30 1701 H 157.506 -0.709752 4.91098 0
M  V30 1702 N 156.679 -1.44442 0.630414 0
M  V30 1703 C 157.927 -2.01653 0.134351 0
M  V30 1704 C 158.248 -1.49836 -1.24796 0
M  V30 1705 O 157.518 -0.701684 -1.82902 0
M  V30 1706 H 156.098 -0.74554 0.0466769 0
M  V30 1707 H 158.76 -1.76952 0.816955 0
M  V30 1708 H 157.856 -3.11935 0.101498 0
M  V30 1709 N 158.157 -0.370918 -1.53173 0
M  V30 1710 C 159.387 0.217389 -2.05453 0
M  V30 1711 C 159.795 1.42568 -1.24382 0
M  V30 1712 O 159.138 1.81571 -0.278839 0
M  V30 1713 C 159.2 0.669827 -3.53205 0
M  V30 1714 C 158.864 -0.4225 -4.55043 0
M  V30 1715 C 159.861 -1.27407 -5.04047 0
M  V30 1716 C 157.546 -0.58427 -4.9889 0
M  V30 1717 C 159.54 -2.27271 -5.95505 0
M  V30 1718 C 157.227 -1.58627 -5.90153 0
M  V30 1719 C 158.225 -2.42892 -6.38351 0
M  V30 1720 O 157.913 -3.41382 -7.27814 0
M  V30 1721 H 157.645 0.0408171 -0.674767 0
M  V30 1722 H 160.199 -0.5292 -1.98466 0
M  V30 1723 H 158.429 1.4681 -3.57748 0
M  V30 1724 H 160.118 1.18173 -3.88317 0
M  V30 1725 H 160.884 -1.16031 -4.70916 0
M  V30 1726 H 156.763 0.061851 -4.60959 0
M  V30 1727 H 160.307 -2.93079 -6.33049 0
M  V30 1728 H 156.204 -1.70048 -6.22699 0
M  V30 1729 H 156.972 -3.37173 -7.45826 0
M  V30 1730 N 159.635 1.57281 -0.100228 0
M  V30 1731 C 160.884 1.93713 0.561984 0
M  V30 1732 C 161.197 0.984492 1.69018 0
M  V30 1733 O 162.403 1.24273 2.41389 0
M  V30 1734 C 160.859 3.4421 1.05106 0
M  V30 1735 C 160.467 4.47975 -0.0476628 0
M  V30 1736 C 162.211 3.89595 1.68571 0
M  V30 1737 C 160.118 5.89631 0.457055 0
M  V30 1738 H 159.048 0.723082 0.2137 0
M  V30 1739 H 161.699 1.82644 -0.177057 0
M  V30 1740 H 160.081 3.50449 1.84395 0
M  V30 1741 H 161.255 4.53385 -0.823333 0
M  V30 1742 H 159.57 4.1223 -0.587816 0
M  V30 1743 H 162.167 4.92832 2.07414 0
M  V30 1744 H 162.51 3.28526 2.55688 0
M  V30 1745 H 163.043 3.86078 0.958562 0
M  V30 1746 H 159.782 6.54411 -0.377616 0
M  V30 1747 H 159.302 5.87681 1.19962 0
M  V30 1748 H 160.981 6.40363 0.92437 0
M  V30 1749 N 161.113 -0.173488 1.56642 0
M  V30 1750 C 162.361 -0.888706 1.81512 0
M  V30 1751 C 162.682 -1.82875 0.676872 0
M  V30 1752 O 161.952 -1.93536 -0.303414 0
M  V30 1753 H 160.532 -0.331164 0.669582 0
M  V30 1754 H 163.194 -0.173823 1.94123 0
M  V30 1755 H 162.29 -1.46691 2.75478 0
M  V30 1756 N 162.591 -1.51276 -0.441967 0
M  V30 1757 C 163.524 -1.66933 -1.55591 0
M  V30 1758 C 164.502 -0.516958 -1.54163 0
M  V30 1759 O 165.686 -0.740209 -1.73358 0
M  V30 1760 C 162.813 -1.67866 -2.94174 0
M  V30 1761 C 161.859 -2.89013 -3.13646 0
M  V30 1762 S 162.692 -4.49897 -2.90436 0
M  V30 1763 C 163.848 -4.53568 -4.31308 0
M  V30 1764 H 164.081 -2.61155 -1.42076 0
M  V30 1765 H 161.614 -1.40902 -0.631341 0
M  V30 1766 H 163.572 -1.69089 -3.74058 0
M  V30 1767 H 162.233 -0.748296 -3.05056 0
M  V30 1768 H 161.426 -2.86054 -4.14957 0
M  V30 1769 H 161.028 -2.85509 -2.4158 0
M  V30 1770 H 163.32 -4.28924 -5.24434 0
M  V30 1771 H 164.263 -5.55355 -4.39303 0
M  V30 1772 H 164.671 -3.82943 -4.14747 0
M  V30 1773 N 164.069 0.697108 -1.41344 0
M  V30 1774 C 165.016 1.81106 -1.43071 0
M  V30 1775 C 165.986 1.63632 -0.285275 0
M  V30 1776 O 167.171 1.84504 -0.486091 0
M  V30 1777 C 164.311 3.18975 -1.31715 0
M  V30 1778 C 163.424 3.47892 -2.56115 0
M  V30 1779 C 162.559 4.75367 -2.37064 0
M  V30 1780 C 161.598 4.97247 -3.56948 0
M  V30 1781 N 160.735 6.15947 -3.36977 0
M  V30 1782 H 165.575 1.78965 -2.38276 0
M  V30 1783 H 163.112 0.873975 -1.18322 0
M  V30 1784 H 165.07 3.98615 -1.23133 0
M  V30 1785 H 163.7 3.20297 -0.401183 0
M  V30 1786 H 162.752 2.62669 -2.75153 0
M  V30 1787 H 164.064 3.59962 -3.45295 0
M  V30 1788 H 163.218 5.63059 -2.25941 0
M  V30 1789 H 161.957 4.65541 -1.45338 0
M  V30 1790 H 160.962 4.08004 -3.68527 0
M  V30 1791 H 162.187 5.08934 -4.49626 0
M  V30 1792 H 160.133 6.07336 -2.47949 0
M  V30 1793 H 160.05 6.28777 -4.19732 0
M  V30 1794 H 161.318 7.06377 -3.29623 0
M  V30 1795 N 165.547 1.27147 0.931209 0
M  V30 1796 C 166.796 1.12664 1.67302 0
M  V30 1797 C 167.109 -0.327718 1.92835 0
M  V30 1798 O 168.315 -0.593392 2.64936 0
M  V30 1799 C 166.771 1.9683 3.01307 0
M  V30 1800 C 166.379 3.46901 2.83485 0
M  V30 1801 C 168.123 1.90985 3.79111 0
M  V30 1802 C 166.03 4.23279 4.13024 0
M  V30 1803 H 164.96 0.41803 0.627509 0
M  V30 1804 H 167.611 1.51539 1.03481 0
M  V30 1805 H 165.993 1.50797 3.66164 0
M  V30 1806 H 167.167 4.00773 2.27415 0
M  V30 1807 H 165.482 3.54088 2.19113 0
M  V30 1808 H 168.079 2.45328 4.75098 0
M  V30 1809 H 168.422 0.882718 4.06834 0
M  V30 1810 H 168.955 2.34895 3.21044 0
M  V30 1811 H 165.694 5.26503 3.90481 0
M  V30 1812 H 165.214 3.74186 4.6877 0
M  V30 1813 H 166.893 4.32265 4.81411 0
M  V30 1814 N 167.025 -1.13721 1.09112 0
M  V30 1815 C 167.988 -2.17222 0.731241 0
M  V30 1816 C 168.988 -1.59035 -0.237566 0
M  V30 1817 O 170.178 -1.74192 -0.0161704 0
M  V30 1818 C 167.31 -3.40804 0.0808443 0
M  V30 1819 H 168.503 -2.50573 1.64783 0
M  V30 1820 H 166.056 -1.28493 0.889897 0
M  V30 1821 H 166.791 -3.1304 -0.847127 0
M  V30 1822 H 166.576 -3.84306 0.777896 0
M  V30 1823 H 168.066 -4.1731 -0.155657 0
M  V30 1824 N 168.503 -0.877838 -1.30888 0
M  V30 1825 C 169.749 -0.493426 -1.96706 0
M  V30 1826 C 170.082 0.953504 -1.6918 0
M  V30 1827 O 169.357 1.67266 -0.992594 0
M  V30 1828 C 169.64 -0.760429 -3.51979 0
M  V30 1829 C 169.493 -2.25747 -3.89048 0
M  V30 1830 C 170.812 -0.232148 -4.39487 0
M  V30 1831 H 167.931 -0.180746 -0.714493 0
M  V30 1832 H 170.573 -1.10052 -1.54882 0
M  V30 1833 H 168.723 -0.243715 -3.87735 0
M  V30 1834 H 170.395 -2.84204 -3.63354 0
M  V30 1835 H 168.638 -2.72694 -3.37373 0
M  V30 1836 H 169.309 -2.39491 -4.97341 0
M  V30 1837 H 171.785 -0.674314 -4.106 0
M  V30 1838 H 170.661 -0.448355 -5.47066 0
M  V30 1839 H 170.922 0.866297 -4.33529 0
M  V30 1840 N 169.982 1.44106 -0.638065 0
M  V30 1841 C 171.212 2.06037 -0.152394 0
M  V30 1842 C 171.62 1.47808 1.18108 0
M  V30 1843 O 170.963 0.598092 1.73691 0
M  V30 1844 C 171.025 3.59488 0.0293714 0
M  V30 1845 C 170.689 4.4022 -1.22702 0
M  V30 1846 C 171.686 4.73256 -2.15232 0
M  V30 1847 C 169.371 4.8048 -1.46437 0
M  V30 1848 C 171.365 5.45444 -3.29802 0
M  V30 1849 C 169.052 5.52417 -2.61303 0
M  V30 1850 C 170.05 5.84819 -3.52811 0
M  V30 1851 O 169.738 6.55289 -4.65673 0
M  V30 1852 H 169.47 0.671233 -0.0801401 0
M  V30 1853 H 172.024 1.85851 -0.874563 0
M  V30 1854 H 170.254 3.78191 0.806758 0
M  V30 1855 H 171.943 4.03164 0.470475 0
M  V30 1856 H 172.709 4.42684 -1.98131 0
M  V30 1857 H 168.588 4.54676 -0.760977 0
M  V30 1858 H 172.132 5.70653 -4.01249 0
M  V30 1859 H 168.029 5.82404 -2.78344 0
M  V30 1860 H 168.797 6.73762 -4.64744 0
M  V30 1861 N 171.46 0.379036 1.52974 0
M  V30 1862 C 172.423 -0.448865 2.24762 0
M  V30 1863 C 173.423 -0.998689 1.26027 0
M  V30 1864 O 174.613 -0.882313 1.50203 0
M  V30 1865 C 171.745 -1.62872 2.99476 0
M  V30 1866 H 172.938 0.179491 2.99362 0
M  V30 1867 H 170.491 0.13096 1.5575 0
M  V30 1868 H 171.226 -2.29479 2.29151 0
M  V30 1869 H 171.011 -1.24128 3.71934 0
M  V30 1870 H 172.501 -2.2151 3.5401 0
M  V30 1871 N 172.938 -1.57226 0.108567 0
M  V30 1872 C 173.886 -2.16002 -0.862885 0
M  V30 1873 C 174.88 -1.10644 -1.28274 0
M  V30 1874 O 176.086 -1.28966 -1.2557 0
M  V30 1875 H 172.461 -0.691148 -0.296342 0
M  V30 1876 H 174.432 -2.96427 -0.342575 0
M  V30 1877 C 173.181 -2.76576 -2.10716 0
M  V30 1878 H 172.504 -3.5734 -1.793 0
M  V30 1879 H 173.944 -3.21253 -2.76717 0
M  V30 1880 C 172.403 -1.73137 -2.89007 0
M  V30 1881 O 172.933 -1.17842 -3.84026 0
M  V30 1882 N 171.139 -1.43317 -2.52801 0
M  V30 1883 H 170.686 -1.88473 -1.75601 0
M  V30 1884 H 170.644 -0.743485 -3.05483 0
M  V30 1885 N 174.416 0.165178 -1.56732 0
M  V30 1886 C 175.662 0.882112 -1.82611 0
M  V30 1887 C 175.995 1.81628 -0.687378 0
M  V30 1888 O 175.27 1.92009 0.310267 0
M  V30 1889 C 175.553 1.67245 -3.18906 0
M  V30 1890 C 175.406 0.760987 -4.43316 0
M  V30 1891 C 176.725 2.63884 -3.52212 0
M  V30 1892 H 173.844 0.319242 -0.664269 0
M  V30 1893 H 176.486 0.148052 -1.89422 0
M  V30 1894 H 174.636 2.29824 -3.1323 0
M  V30 1895 H 176.308 0.147596 -4.61064 0
M  V30 1896 H 174.551 0.0694102 -4.33744 0
M  V30 1897 H 175.222 1.34962 -5.35247 0
M  V30 1898 H 177.698 2.11429 -3.58381 0
M  V30 1899 H 176.574 3.16245 -4.48643 0
M  V30 1900 H 176.835 3.44377 -2.77231 0
M  V30 1901 N 175.894 1.51508 0.433938 0
M  V30 1902 C 177.31 1.39759 0.770682 0
M  V30 1903 C 177.51 0.482594 1.95636 0
M  V30 1904 O 176.566 -0.0609691 2.52426 0
M  V30 1905 C 177.879 2.81851 1.04787 0
M  V30 1906 C 179.427 2.91025 1.1521 0
M  V30 1907 C 179.902 4.34032 1.46219 0
M  V30 1908 N 181.393 4.37154 1.53136 0
M  V30 1909 C 182.128 5.4484 1.78709 0
M  V30 1910 N 181.624 6.62682 2.02051 0
M  V30 1911 N 183.417 5.32324 1.80519 0
M  V30 1912 H 175.568 2.09548 -0.346892 0
M  V30 1913 H 177.831 0.943446 -0.0928074 0
M  V30 1914 H 177.537 3.50815 0.249304 0
M  V30 1915 H 177.411 3.21386 1.97461 0
M  V30 1916 H 179.798 2.22257 1.94128 0
M  V30 1917 H 179.879 2.54983 0.204281 0
M  V30 1918 H 179.523 5.03351 0.678274 0
M  V30 1919 H 179.453 4.6759 2.42212 0
M  V30 1920 H 181.944 3.52197 1.36987 0
M  V30 1921 H 182.257 7.40543 2.20943 0
M  V30 1922 H 180.602 6.65791 1.99366 0
M  V30 1923 H 183.793 4.39246 1.61805 0
M  V30 1924 H 183.966 6.16328 2.00111 0
M  V30 1925 N 177.372 -0.689602 1.41712 0
M  V30 1926 C 178.6 -1.47827 1.44758 0
M  V30 1927 C 179.015 -1.88721 0.0545703 0
M  V30 1928 O 178.372 -1.57176 -0.927463 0
M  V30 1929 C 178.423 -2.73698 2.3616 0
M  V30 1930 O 178.144 -2.34524 3.7004 0
M  V30 1931 C 179.645 -3.67389 2.48072 0
M  V30 1932 H 176.865 -0.455357 0.49284 0
M  V30 1933 H 179.409 -0.848574 1.86063 0
M  V30 1934 H 177.564 -3.32891 1.98148 0
M  V30 1935 H 177.978 -3.15701 4.18847 0
M  V30 1936 H 179.452 -4.52475 3.16181 0
M  V30 1937 H 179.929 -4.12284 1.51388 0
M  V30 1938 H 180.535 -3.14097 2.86746 0
M  V30 1939 N 178.85 -1.27639 -0.924453 0
M  V30 1940 C 180.078 -1.16989 -1.70649 0
M  V30 1941 C 180.493 0.272869 -1.86818 0
M  V30 1942 O 179.85 1.18549 -1.38753 0
M  V30 1943 C 179.901 -1.85229 -3.10439 0
M  V30 1944 O 179.622 -3.23868 -2.95028 0
M  V30 1945 C 181.123 -1.80746 -4.04779 0
M  V30 1946 H 178.343 -0.406595 -0.53378 0
M  V30 1947 H 180.887 -1.68569 -1.15778 0
M  V30 1948 H 179.042 -1.37545 -3.6216 0
M  V30 1949 H 179.456 -3.57889 -3.83426 0
M  V30 1950 H 180.93 -2.33101 -5.00368 0
M  V30 1951 H 181.407 -0.777499 -4.32263 0
M  V30 1952 H 182.013 -2.28059 -3.58984 0
M  V30 1953 N 180.328 1.1314 -1.09713 0
M  V30 1954 C 181.276 2.20717 -0.733934 0
M  V30 1955 C 182.27 1.6729 0.266506 0
M  V30 1956 O 183.476 1.79547 0.127656 0
M  V30 1957 H 179.851 0.719292 -0.21937 0
M  V30 1958 H 181.822 2.48611 -1.6503 0
M  V30 1959 C 180.571 3.47265 -0.173849 0
M  V30 1960 H 179.894 3.88716 -0.934873 0
M  V30 1961 H 181.334 4.23979 0.0423126 0
M  V30 1962 C 179.793 3.18724 1.09164 0
M  V30 1963 O 180.323 3.37762 2.17439 0
M  V30 1964 N 178.529 2.72583 1.00732 0
M  V30 1965 H 178.076 2.57291 0.126121 0
M  V30 1966 H 178.034 2.53862 1.85476 0
M  V30 1967 N 181.806 0.884767 1.30421 0
M  V30 1968 C 182.716 0.355398 2.31892 0
M  V30 1969 C 183.732 -0.542261 1.65335 0
M  V30 1970 O 184.908 -0.435432 1.96637 0
M  V30 1971 C 181.973 -0.421661 3.44126 0
M  V30 1972 C 181.034 0.505727 4.26311 0
M  V30 1973 C 180.267 -0.234343 5.33185 0
M  V30 1974 O 180.49 -1.46045 5.51386 0
M  V30 1975 O 179.424 0.415443 6.00465 0
M  V30 1976 H 183.25 1.19685 2.79122 0
M  V30 1977 H 180.835 0.648596 1.34587 0
M  V30 1978 H 182.717 -0.861641 4.12497 0
M  V30 1979 H 181.392 -1.23942 2.99032 0
M  V30 1980 H 180.299 0.994513 3.60639 0
M  V30 1981 H 181.632 1.28948 4.75009 0
M  V30 1982 N 183.284 -1.43765 0.645699 0
M  V30 1983 C 184.512 -2.06253 0.163556 0
M  V30 1984 C 184.927 -1.48352 -1.16778 0
M  V30 1985 O 184.284 -0.611932 -1.71935 0
M  V30 1986 C 184.335 -3.61453 0.0583186 0
M  V30 1987 O 184.056 -4.172 1.33702 0
M  V30 1988 C 185.557 -4.41002 -0.450795 0
M  V30 1989 H 182.777 -0.665413 0.0864077 0
M  V30 1990 H 185.321 -1.84396 0.884222 0
M  V30 1991 H 183.476 -3.82522 -0.612865 0
M  V30 1992 H 183.89 -5.10791 1.19131 0
M  V30 1993 H 185.364 -5.49966 -0.473403 0
M  V30 1994 H 185.841 -4.13488 -1.48068 0
M  V30 1995 H 186.447 -4.24886 0.187637 0
M  V30 1996 N 184.763 -0.387143 -1.52771 0
M  V30 1997 C 186.009 0.188506 -2.02525 0
M  V30 1998 C 186.364 1.44649 -1.26864 0
M  V30 1999 O 185.657 1.88189 -0.359945 0
M  V30 2000 C 185.851 0.512209 -3.53711 0
M  V30 2001 C 185.68 -0.712855 -4.44014 0
M  V30 2002 C 184.45 -1.23147 -4.90064 0
M  V30 2003 C 186.648 -1.58453 -4.89282 0
M  V30 2004 N 184.63 -2.41431 -5.64433 0
M  V30 2005 C 186.001 -2.61381 -5.6221 0
M  V30 2006 C 188.056 -1.60488 -4.71326 0
M  V30 2007 C 186.759 -3.66227 -6.19088 0
M  V30 2008 C 188.785 -2.6424 -5.29085 0
M  V30 2009 C 188.147 -3.6589 -6.01917 0
M  V30 2010 H 184.246 0.0311236 -0.78138 0
M  V30 2011 H 186.83 -0.536548 -1.87161 0
M  V30 2012 H 185.001 1.20632 -3.69192 0
M  V30 2013 H 186.733 1.07482 -3.90166 0
M  V30 2014 H 183.488 -0.792795 -4.66917 0
M  V30 2015 H 183.912 -3.01274 -6.0627 0
M  V30 2016 H 188.554 -0.83247 -4.14524 0
M  V30 2017 H 186.272 -4.44337 -6.74974 0
M  V30 2018 H 189.858 -2.66695 -5.17074 0
M  V30 2019 H 188.738 -4.44855 -6.45813 0
M  V30 2020 N 186.241 1.57166 -0.116904 0
M  V30 2021 C 187.188 2.15202 0.83408 0
M  V30 2022 C 188.158 1.07644 1.26499 0
M  V30 2023 O 189.343 1.35541 1.34288 0
M  V30 2024 C 186.483 2.75405 2.07957 0
M  V30 2025 C 185.596 3.97264 1.69721 0
M  V30 2026 C 184.731 4.45561 2.89221 0
M  V30 2027 C 183.77 5.59956 2.47215 0
M  V30 2028 N 182.907 6.03006 3.59622 0
M  V30 2029 H 187.747 2.96141 0.332335 0
M  V30 2030 H 185.284 1.46309 0.152349 0
M  V30 2031 H 187.242 3.08439 2.80929 0
M  V30 2032 H 185.872 1.97159 2.55594 0
M  V30 2033 H 184.924 3.70404 0.866316 0
M  V30 2034 H 186.236 4.80226 1.34849 0
M  V30 2035 H 185.39 4.80493 3.7042 0
M  V30 2036 H 184.129 3.61544 3.27318 0
M  V30 2037 H 183.134 5.2463 1.64448 0
M  V30 2038 H 184.359 6.45738 2.10238 0
M  V30 2039 H 182.305 5.21931 3.97396 0
M  V30 2040 H 182.222 6.80819 3.28667 0
M  V30 2041 H 183.49 6.42576 4.41267 0
M  V30 2042 N 187.719 -0.156864 1.56817 0
M  V30 2043 C 188.944 -0.890331 1.87318 0
M  V30 2044 C 189.369 -1.74394 0.704855 0
M  V30 2045 O 188.727 -1.77972 -0.345786 0
M  V30 2046 C 188.775 -1.73102 3.16336 0
M  V30 2047 O 187.879 -2.83422 2.99576 0
M  V30 2048 H 187.22 -0.24857 0.615718 0
M  V30 2049 H 189.75 -0.150649 2.04045 0
M  V30 2050 H 189.76 -2.12803 3.48107 0
M  V30 2051 H 188.435 -1.10412 4.00976 0
M  V30 2052 H 187.012 -2.47199 2.7919 0
M  V30 2053 N 189.197 -1.51736 -0.425897 0
M  V30 2054 C 190.127 -1.76827 -1.52494 0
M  V30 2055 C 191.108 -0.618524 -1.58456 0
M  V30 2056 O 192.293 -0.862416 -1.74 0
M  V30 2057 C 189.423 -1.90374 -2.90474 0
M  V30 2058 C 188.377 -3.0588 -2.99369 0
M  V30 2059 C 187.703 -3.04625 -4.3944 0
M  V30 2060 C 189.003 -4.45644 -2.72394 0
M  V30 2061 H 190.697 -2.68855 -1.31748 0
M  V30 2062 H 188.243 -1.29372 -0.632362 0
M  V30 2063 H 190.196 -2.0651 -3.6733 0
M  V30 2064 H 188.92 -0.95004 -3.12477 0
M  V30 2065 H 187.579 -2.89467 -2.24954 0
M  V30 2066 H 187.227 -2.0701 -4.58428 0
M  V30 2067 H 186.927 -3.82195 -4.46319 0
M  V30 2068 H 188.451 -3.22869 -5.18255 0
M  V30 2069 H 189.865 -4.62348 -3.38979 0
M  V30 2070 H 188.262 -5.25006 -2.9067 0
M  V30 2071 H 189.332 -4.54893 -1.67929 0
M  V30 2072 N 190.675 0.682077 -1.42076 0
M  V30 2073 C 191.952 1.43755 -1.32642 0
M  V30 2074 C 192.332 2.11063 0.0396611 0
M  V30 2075 O 191.68 2.02701 1.05474 0
M  V30 2076 C 191.89 2.44596 -2.48946 0
M  V30 2077 C 193.238 3.09454 -2.9073 0
M  V30 2078 O 194.262 2.54922 -2.48783 0
M  V30 2079 O 193.121 4.08253 -3.63307 0
M  V30 2080 H 190.215 0.640857 -0.522715 0
M  V30 2081 H 192.761 0.711415 -1.54068 0
M  V30 2082 H 191.533 1.93609 -3.40046 0
M  V30 2083 H 191.156 3.24701 -2.29467 0
M  V30 2084 N 192.153 1.28127 0.917671 0
M  V30 2085 C 193.1 1.11717 2.0196 0
M  V30 2086 C 194.07 0.0153929 1.66093 0
M  V30 2087 O 195.255 0.179596 1.89953 0
M  V30 2088 C 192.395 0.780927 3.36148 0
M  V30 2089 C 191.508 1.96135 3.84909 0
M  V30 2090 C 190.643 1.56609 5.0759 0
M  V30 2091 C 189.682 2.71339 5.48673 0
M  V30 2092 N 188.819 2.32332 6.62545 0
M  V30 2093 H 193.659 2.06003 2.15329 0
M  V30 2094 H 191.196 1.02535 1.05475 0
M  V30 2095 H 193.154 0.56675 4.13333 0
M  V30 2096 H 191.784 -0.124998 3.22558 0
M  V30 2097 H 190.836 2.28777 3.03916 0
M  V30 2098 H 192.148 2.82165 4.1132 0
M  V30 2099 H 191.302 1.31374 5.92305 0
M  V30 2100 H 190.041 0.677014 4.82978 0
M  V30 2101 H 189.046 2.97276 4.62501 0
M  V30 2102 H 190.271 3.60882 5.75274 0
M  V30 2103 H 188.217 1.45889 6.39572 0
M  V30 2104 H 188.134 3.11899 6.88662 0
M  V30 2105 H 189.402 2.10371 7.50576 0
M  V30 2106 N 193.631 -1.12557 1.10312 0
M  V30 2107 C 194.879 -1.83675 0.843091 0
M  V30 2108 C 195.2 -1.84435 -0.633131 0
M  V30 2109 O 194.47 -1.30657 -1.45964 0
M  V30 2110 H 193.05 -0.680138 0.308904 0
M  V30 2111 H 195.712 -1.36301 1.39313 0
M  V30 2112 H 194.808 -2.87908 1.2048 0
M  V30 2113 N 195.109 -0.891671 -1.2995 0
M  V30 2114 C 196.356 -0.513501 -1.95881 0
M  V30 2115 C 196.684 0.938655 -1.70351 0
M  V30 2116 O 195.939 1.67936 -1.00478 0
M  V30 2117 C 196.238 -0.742868 -3.49594 0
M  V30 2118 C 195.904 -2.17114 -3.95186 0
M  V30 2119 C 194.566 -2.56169 -4.07346 0
M  V30 2120 C 196.918 -3.10162 -4.18866 0
M  V30 2121 C 194.246 -3.87469 -4.4055 0
M  V30 2122 C 196.598 -4.41001 -4.53542 0
M  V30 2123 C 195.262 -4.79941 -4.63911 0
M  V30 2124 H 194.532 -0.187903 -0.71678 0
M  V30 2125 H 197.179 -1.1288 -1.54694 0
M  V30 2126 H 195.484 -0.044586 -3.91775 0
M  V30 2127 H 197.181 -0.429767 -3.9869 0
M  V30 2128 H 193.771 -1.85801 -3.86233 0
M  V30 2129 H 197.955 -2.81206 -4.08946 0
M  V30 2130 H 193.211 -4.17371 -4.46779 0
M  V30 2131 H 197.385 -5.13133 -4.70815 0
M  V30 2132 H 195.012 -5.81719 -4.89395 0
M  V30 2133 N 196.587 1.43421 -0.653314 0
M  V30 2134 C 197.519 2.29071 0.0769134 0
M  V30 2135 C 198.532 1.42513 0.787017 0
M  V30 2136 O 199.721 1.66449 0.644757 0
M  V30 2137 C 196.821 3.19436 1.13199 0
M  V30 2138 C 195.994 4.34533 0.500006 0
M  V30 2139 C 195.053 5.05771 1.45198 0
M  V30 2140 O 194.079 5.61037 0.960538 0
M  V30 2141 N 195.281 5.0928 2.78594 0
M  V30 2142 H 198.046 2.92382 -0.658235 0
M  V30 2143 H 195.607 1.54112 -0.496104 0
M  V30 2144 H 197.599 3.63958 1.76964 0
M  V30 2145 H 196.169 2.57724 1.7691 0
M  V30 2146 H 195.389 3.92925 -0.316738 0
M  V30 2147 H 196.677 5.08766 0.0588345 0
M  V30 2148 H 196.075 4.65751 3.2108 0
M  V30 2149 H 194.632 5.57519 3.37662 0
M  V30 2150 N 198.065 0.39524 1.52563 0
M  V30 2151 C 199.311 -0.185318 2.01952 0
M  V30 2152 C 199.644 -1.45964 1.28095 0
M  V30 2153 O 198.919 -1.90689 0.38315 0
M  V30 2154 C 199.202 -0.447193 3.57312 0
M  V30 2155 C 199.055 0.842828 4.41833 0
M  V30 2156 C 200.374 -1.23529 4.22408 0
M  V30 2157 H 197.493 -0.0658788 0.73405 0
M  V30 2158 H 200.135 0.525975 1.82575 0
M  V30 2159 H 198.285 -1.05312 3.73954 0
M  V30 2160 H 199.957 1.4795 4.36931 0
M  V30 2161 H 198.2 1.45686 4.08605 0
M  V30 2162 H 198.871 0.614165 5.48573 0
M  V30 2163 H 201.347 -0.722445 4.0978 0
M  V30 2164 H 200.223 -1.38727 5.3108 0
M  V30 2165 H 200.484 -2.25213 3.80436 0
M  V30 2166 N 199.544 -1.57102 0.125237 0
M  V30 2167 C 200.772 -1.99761 -0.538797 0
M  V30 2168 C 201.187 -1.00503 -1.59827 0
M  V30 2169 O 200.544 0.00119474 -1.825 0
M  V30 2170 C 200.595 -3.42408 -1.15927 0
M  V30 2171 O 200.316 -4.37869 -0.142143 0
M  V30 2172 C 201.817 -4.00232 -1.90602 0
M  V30 2173 H 199.037 -0.655772 -0.14214 0
M  V30 2174 H 201.581 -2.03383 0.213413 0
M  V30 2175 H 199.736 -3.39706 -1.86223 0
M  V30 2176 H 200.15 -5.21128 -0.593775 0
M  V30 2177 H 201.624 -5.02105 -2.29335 0
M  V30 2178 H 202.101 -3.39721 -2.78363 0
M  V30 2179 H 202.707 -4.06499 -1.25055 0
M  V30 2180 N 201.022 0.148545 -1.56898 0
M  V30 2181 C 201.952 1.18524 -2.01182 0
M  V30 2182 C 202.933 1.4489 -0.891123 0
M  V30 2183 O 204.118 1.55836 -1.15882 0
M  V30 2184 C 201.248 2.51879 -2.39112 0
M  V30 2185 C 200.202 2.40038 -3.54353 0
M  V30 2186 C 199.528 3.78089 -3.78091 0
M  V30 2187 C 200.828 1.88577 -4.87069 0
M  V30 2188 H 202.522 0.817029 -2.88036 0
M  V30 2189 H 200.068 0.391575 -1.38574 0
M  V30 2190 H 202.021 3.24627 -2.68692 0
M  V30 2191 H 200.745 2.90532 -1.49193 0
M  V30 2192 H 199.404 1.69742 -3.24936 0
M  V30 2193 H 199.052 4.14175 -2.85426 0
M  V30 2194 H 198.752 3.71028 -4.55645 0
M  V30 2195 H 200.276 4.52387 -4.10095 0
M  V30 2196 H 201.69 2.51117 -5.15377 0
M  V30 2197 H 200.087 1.9241 -5.68417 0
M  V30 2198 H 201.157 0.84136 -4.77545 0
M  V30 2199 N 202.5 1.5196 0.417844 0
M  V30 2200 C 203.448 1.75278 1.52907 0
M  V30 2201 C 204.442 0.619611 1.57662 0
M  V30 2202 O 205.648 0.801457 1.61173 0
M  V30 2203 H 202.023 0.554141 0.508362 0
M  V30 2204 H 203.994 2.68389 1.30422 0
M  V30 2205 C 202.743 1.91262 2.90369 0
M  V30 2206 H 202.066 2.77872 2.8745 0
M  V30 2207 H 203.506 2.11581 3.67436 0
M  V30 2208 C 201.965 0.677431 3.30019 0
M  V30 2209 O 202.495 -0.158799 4.01386 0
M  V30 2210 N 200.701 0.515851 2.85985 0
M  V30 2211 H 200.248 1.19744 2.28077 0
M  V30 2212 H 200.206 -0.309315 3.12875 0
M  V30 2213 N 203.978 -0.674533 1.42435 0
M  V30 2214 C 204.941 -1.76986 1.45632 0
M  V30 2215 C 205.941 -1.5708 0.343871 0
M  V30 2216 O 207.131 -1.63367 0.604709 0
M  V30 2217 C 204.263 -3.15623 1.28822 0
M  V30 2218 H 205.456 -1.75539 2.43158 0
M  V30 2219 H 203.009 -0.884189 1.28887 0
M  V30 2220 H 203.744 -3.22696 0.322193 0
M  V30 2221 H 203.529 -3.31475 2.09444 0
M  V30 2222 H 205.019 -3.95537 1.33942 0
M  V30 2223 N 205.456 -1.28612 -0.910864 0
M  V30 2224 C 206.704 -1.15705 -1.65701 0
M  V30 2225 C 207.025 0.29416 -1.92769 0
M  V30 2226 O 206.295 1.20331 -1.54588 0
M  V30 2227 H 204.875 -0.425216 -0.614167 0
M  V30 2228 H 207.537 -1.61381 -1.0928 0
M  V30 2229 H 206.633 -1.6988 -2.61815 0
M  V30 2230 N 206.934 1.1197 -1.10907 0
M  V30 2231 C 208.162 1.87402 -0.876824 0
M  V30 2232 C 208.577 1.79894 0.573025 0
M  V30 2233 O 207.934 1.17629 1.39534 0
M  V30 2234 C 207.985 3.36428 -1.32282 0
M  V30 2235 O 207.706 3.43765 -2.71582 0
M  V30 2236 C 209.207 4.28783 -1.12518 0
M  V30 2237 H 206.427 0.592793 -0.314384 0
M  V30 2238 H 208.971 1.41649 -1.47499 0
M  V30 2239 H 207.126 3.79706 -0.768229 0
M  V30 2240 H 207.54 4.3652 -2.90776 0
M  V30 2241 H 209.014 5.31613 -1.48633 0
M  V30 2242 H 209.491 4.39153 -0.0642394 0
M  V30 2243 H 210.097 3.91291 -1.66648 0
M  V30 2244 N 208.412 0.89855 1.29475 0
M  V30 2245 C 209.658 0.524658 1.95896 0
M  V30 2246 C 209.991 -0.926468 1.70676 0
M  V30 2247 O 209.266 -1.65665 1.01908 0
M  V30 2248 C 209.549 0.81633 3.50725 0
M  V30 2249 C 209.402 2.31907 3.85408 0
M  V30 2250 C 210.721 0.302038 4.39062 0
M  V30 2251 H 207.84 0.19209 0.711527 0
M  V30 2252 H 210.482 1.12502 1.53112 0
M  V30 2253 H 208.632 0.305369 3.87298 0
M  V30 2254 H 210.304 2.89949 3.58786 0
M  V30 2255 H 208.547 2.78027 3.32992 0
M  V30 2256 H 209.218 2.47373 4.93468 0
M  V30 2257 H 211.694 0.739551 4.09475 0
M  V30 2258 H 210.57 0.535331 5.46283 0
M  V30 2259 H 210.831 -0.797216 4.34853 0
M  V30 2260 N 209.89 -1.43072 0.660911 0
M  V30 2261 C 210.823 -2.28074 -0.0758862 0
M  V30 2262 C 211.801 -1.40271 -0.822362 0
M  V30 2263 O 212.985 -1.69713 -0.820352 0
M  V30 2264 C 210.112 -3.19843 -1.11437 0
M  V30 2265 C 209.158 -4.23957 -0.465069 0
M  V30 2266 S 209.991 -5.29978 0.767078 0
M  V30 2267 C 211.147 -6.25314 -0.270682 0
M  V30 2268 H 211.38 -2.90216 0.645139 0
M  V30 2269 H 208.913 -1.47697 0.449995 0
M  V30 2270 H 210.871 -3.73257 -1.70849 0
M  V30 2271 H 209.532 -2.56863 -1.80776 0
M  V30 2272 H 208.725 -4.88299 -1.24819 0
M  V30 2273 H 208.327 -3.73959 0.0551242 0
M  V30 2274 H 210.619 -6.67932 -1.13459 0
M  V30 2275 H 211.562 -7.07293 0.337916 0
M  V30 2276 H 211.97 -5.61195 -0.609937 0
M  V30 2277 N 211.368 -0.403325 -1.52352 0
M  V30 2278 C 212.616 0.174003 -2.0135 0
M  V30 2279 C 212.937 1.46139 -1.29106 0
M  V30 2280 O 212.207 1.91448 -0.415253 0
M  V30 2281 H 210.787 0.0672911 -0.743963 0
M  V30 2282 H 213.449 -0.538235 -1.87321 0
M  V30 2283 H 212.545 0.374254 -3.09848 0
M  V30 2284 N 212.846 1.57033 -0.133567 0
M  V30 2285 C 214.093 1.95686 0.520877 0
M  V30 2286 C 214.421 1.0177 1.6575 0
M  V30 2287 O 213.676 0.0443195 1.9565 0
M  V30 2288 C 213.975 3.40674 1.08057 0
M  V30 2289 C 213.641 4.50855 0.0637899 0
M  V30 2290 C 212.303 4.80716 -0.215757 0
M  V30 2291 C 214.655 5.17398 -0.62835 0
M  V30 2292 C 211.983 5.74433 -1.19348 0
M  V30 2293 C 214.335 6.12167 -1.5948 0
M  V30 2294 C 212.999 6.40414 -1.88218 0
M  V30 2295 H 212.269 0.716067 0.190602 0
M  V30 2296 H 214.916 1.9026 -0.217556 0
M  V30 2297 H 213.221 3.42865 1.89606 0
M  V30 2298 H 214.918 3.67902 1.59529 0
M  V30 2299 H 211.508 4.27605 0.291855 0
M  V30 2300 H 215.692 4.94472 -0.425562 0
M  V30 2301 H 210.948 5.94616 -1.42272 0
M  V30 2302 H 215.122 6.6281 -2.13671 0
M  V30 2303 H 212.749 7.12838 -2.64133 0
M  V30 2304 N 214.325 -0.140222 1.56975 0
M  V30 2305 C 215.55 -0.870414 1.88251 0
M  V30 2306 C 215.975 -1.73637 0.723312 0
M  V30 2307 O 215.333 -1.78329 -0.32689 0
M  V30 2308 C 215.381 -1.69737 3.18154 0
M  V30 2309 O 214.485 -2.80229 3.02565 0
M  V30 2310 H 213.826 -0.242025 0.61832 0
M  V30 2311 H 216.356 -0.128999 2.04193 0
M  V30 2312 H 216.366 -2.09099 3.50345 0
M  V30 2313 H 215.041 -1.06152 4.02125 0
M  V30 2314 H 213.618 -2.44224 2.81796 0
M  V30 2315 N 215.803 -1.52179 -0.40978 0
M  V30 2316 C 216.733 -1.78435 -1.5061 0
M  V30 2317 C 217.714 -0.635295 -1.57791 0
M  V30 2318 O 218.899 -0.880823 -1.73076 0
M  V30 2319 C 216.029 -1.93444 -2.88439 0
M  V30 2320 C 214.983 -3.09038 -2.96108 0
M  V30 2321 C 214.309 -3.09268 -4.36185 0
M  V30 2322 C 215.609 -4.48508 -2.67652 0
M  V30 2323 H 217.303 -2.70237 -1.28889 0
M  V30 2324 H 214.849 -1.30036 -0.618605 0
M  V30 2325 H 216.802 -2.10394 -3.65119 0
M  V30 2326 H 215.526 -0.983129 -3.11452 0
M  V30 2327 H 214.185 -2.91837 -2.21872 0
M  V30 2328 H 213.833 -2.11861 -4.56206 0
M  V30 2329 H 213.533 -3.86907 -4.42241 0
M  V30 2330 H 215.057 -3.28348 -5.14801 0
M  V30 2331 H 216.471 -4.65918 -3.34056 0
M  V30 2332 H 214.868 -5.28059 -2.85085 0
M  V30 2333 H 215.938 -4.56649 -1.63095 0
M  V30 2334 N 217.281 0.66697 -1.42791 0
M  V30 2335 C 218.527 1.4291 -1.43891 0
M  V30 2336 C 218.86 1.94114 -0.0578972 0
M  V30 2337 O 218.135 1.71414 0.91911 0
M  V30 2338 C 218.418 2.62049 -2.46987 0
M  V30 2339 C 218.271 2.16426 -3.94309 0
M  V30 2340 C 219.59 3.64266 -2.46978 0
M  V30 2341 H 216.709 0.518306 -0.523954 0
M  V30 2342 H 219.351 0.757321 -1.74255 0
M  V30 2343 H 217.501 3.19361 -2.21225 0
M  V30 2344 H 219.173 1.64221 -4.31079 0
M  V30 2345 H 217.416 1.47925 -4.078 0
M  V30 2346 H 218.087 3.02038 -4.62036 0
M  V30 2347 H 220.563 3.16686 -2.69906 0
M  V30 2348 H 219.439 4.45196 -3.21079 0
M  V30 2349 H 219.7 4.15927 -1.49857 0
M  V30 2350 N 218.759 1.29093 0.90403 0
M  V30 2351 C 219.984 1.19809 1.69294 0
M  V30 2352 C 220.409 -0.238481 1.86582 0
M  V30 2353 O 219.767 -1.1723 1.383 0
M  V30 2354 C 219.815 1.91202 3.05736 0
M  V30 2355 O 218.919 1.22611 3.93752 0
M  V30 2356 H 218.26 0.415385 0.518027 0
M  V30 2357 H 220.79 1.70586 1.12967 0
M  V30 2358 H 220.8 1.99487 3.55906 0
M  V30 2359 H 219.475 2.95692 2.92471 0
M  V30 2360 H 218.052 1.22554 3.52186 0
M  V30 2361 N 220.237 -1.11381 1.11499 0
M  V30 2362 C 221.484 -1.83132 0.864231 0
M  V30 2363 C 221.812 -1.84683 -0.610114 0
M  V30 2364 O 221.067 -1.29589 -1.46646 0
M  V30 2365 C 221.366 -3.30026 1.37177 0
M  V30 2366 C 221.032 -3.48634 2.85946 0
M  V30 2367 C 219.694 -3.53421 3.26569 0
M  V30 2368 C 222.046 -3.54837 3.81759 0
M  V30 2369 C 219.374 -3.61967 4.61733 0
M  V30 2370 C 221.726 -3.64915 5.1674 0
M  V30 2371 C 220.39 -3.67962 5.5692 0
M  V30 2372 H 219.66 -0.670127 0.316245 0
M  V30 2373 H 222.307 -1.31354 1.3935 0
M  V30 2374 H 220.612 -3.84304 0.762753 0
M  V30 2375 H 222.309 -3.84034 1.15408 0
M  V30 2376 H 218.899 -3.45579 2.53521 0
M  V30 2377 H 223.083 -3.50399 3.51474 0
M  V30 2378 H 218.339 -3.62603 4.92269 0
M  V30 2379 H 222.513 -3.68658 5.90816 0
M  V30 2380 H 220.14 -3.74336 6.61647 0
M  V30 2381 N 221.715 -0.905404 -1.28997 0
M  V30 2382 C 222.963 -0.533192 -1.9494 0
M  V30 2383 C 223.284 0.924618 -1.71685 0
M  V30 2384 O 222.554 1.65268 -1.05183 0
M  V30 2385 H 221.134 -0.194194 -0.721317 0
M  V30 2386 H 223.796 -1.15294 -1.57141 0
M  V30 2387 H 222.892 -0.72059 -3.03667 0
M  V30 2388 N 223.193 1.4272 -0.668489 0
M  V30 2389 C 224.442 2.00846 -0.185389 0
M  V30 2390 C 224.755 1.53442 1.21305 0
M  V30 2391 O 225.961 2.03944 1.79218 0
M  V30 2392 C 224.417 3.58805 -0.280591 0
M  V30 2393 C 224.025 4.15198 -1.68268 0
M  V30 2394 C 225.769 4.24255 0.14412 0
M  V30 2395 C 223.676 5.655 -1.73099 0
M  V30 2396 H 222.606 0.751145 -0.0655475 0
M  V30 2397 H 225.257 1.63516 -0.832752 0
M  V30 2398 H 223.639 3.93608 0.434553 0
M  V30 2399 H 224.813 3.91866 -2.42441 0
M  V30 2400 H 223.128 3.62176 -2.05469 0
M  V30 2401 H 225.725 5.34547 0.128086 0
M  V30 2402 H 226.068 3.99277 1.17827 0
M  V30 2403 H 226.601 3.94389 -0.519798 0
M  V30 2404 H 223.34 5.95268 -2.74475 0
M  V30 2405 H 222.86 5.90842 -1.03274 0
M  V30 2406 H 224.539 6.29808 -1.48158 0
M  V30 2407 N 224.671 0.411399 1.52136 0
M  V30 2408 C 225.92 -0.165009 2.01024 0
M  V30 2409 C 226.233 -1.4603 1.30133 0
M  V30 2410 O 227.439 -2.1181 1.69849 0
M  V30 2411 C 225.895 -0.344618 3.58246 0
M  V30 2412 C 225.503 0.938716 4.38055 0
M  V30 2413 C 227.247 -0.876195 4.15359 0
M  V30 2414 C 225.154 0.726172 5.86925 0
M  V30 2415 H 224.084 -0.0654407 0.751155 0
M  V30 2416 H 226.735 0.537192 1.75461 0
M  V30 2417 H 225.117 -1.10921 3.80148 0
M  V30 2418 H 226.291 1.70963 4.27912 0
M  V30 2419 H 224.606 1.39688 3.92271 0
M  V30 2420 H 227.203 -1.05128 5.24263 0
M  V30 2421 H 227.546 -1.85152 3.7286 0
M  V30 2422 H 228.079 -0.170607 3.97434 0
M  V30 2423 H 224.818 1.67312 6.33788 0
M  V30 2424 H 224.338 -0.00540283 5.998 0
M  V30 2425 H 226.017 0.369231 6.45946 0
M  V30 2426 N 226.149 -1.5696 0.141893 0
M  V30 2427 C 227.112 -2.15316 -0.785587 0
M  V30 2428 C 228.112 -1.09366 -1.1788 0
M  V30 2429 O 229.302 -1.35031 -1.10056 0
M  V30 2430 C 226.434 -2.71211 -2.06537 0
M  V30 2431 H 227.627 -2.98608 -0.278041 0
M  V30 2432 H 225.18 -1.5593 -0.107519 0
M  V30 2433 H 225.915 -1.91571 -2.6167 0
M  V30 2434 H 225.7 -3.4872 -1.79268 0
M  V30 2435 H 227.19 -3.16189 -2.72789 0
M  V30 2436 N 227.627 0.131896 -1.57047 0
M  V30 2437 C 228.557 1.16384 -2.02428 0
M  V30 2438 C 229.538 1.43936 -0.90644 0
M  V30 2439 O 230.723 1.54599 -1.17528 0
M  V30 2440 C 227.853 2.49328 -2.4177 0
M  V30 2441 C 226.807 2.36266 -3.56879 0
M  V30 2442 C 226.133 3.74057 -3.8208 0
M  V30 2443 C 227.433 1.834 -4.89042 0
M  V30 2444 H 229.127 0.786433 -2.88887 0
M  V30 2445 H 226.673 0.376855 -1.38981 0
M  V30 2446 H 228.626 3.21759 -2.7212 0
M  V30 2447 H 227.35 2.88934 -1.52266 0
M  V30 2448 H 226.009 1.66286 -3.26718 0
M  V30 2449 H 225.657 4.11125 -2.89803 0
M  V30 2450 H 225.357 3.66174 -4.59554 0
M  V30 2451 H 226.881 4.48012 -4.1487 0
M  V30 2452 H 228.295 2.45636 -5.18011 0
M  V30 2453 H 226.692 1.8637 -5.70426 0
M  V30 2454 H 227.762 0.790662 -4.7841 0
M  V30 2455 N 229.106 1.52395 0.401703 0
M  V30 2456 C 230.354 1.66488 1.14569 0
M  V30 2457 C 230.675 0.400897 1.90835 0
M  V30 2458 O 229.945 -0.584415 1.8698 0
M  V30 2459 H 228.525 0.613672 0.425929 0
M  V30 2460 H 231.187 1.89464 0.457093 0
M  V30 2461 H 230.283 2.50942 1.85566 0
M  V30 2462 N 230.584 -0.659388 1.43143 0
M  V30 2463 C 231.514 -1.78422 1.50625 0
M  V30 2464 C 232.495 -1.66216 0.361443 0
M  V30 2465 O 233.68 -1.85404 0.577834 0
M  V30 2466 C 230.81 -3.16815 1.42287 0
M  V30 2467 C 229.764 -3.43777 2.54954 0
M  V30 2468 C 229.09 -4.81905 2.31671 0
M  V30 2469 C 230.39 -3.39134 3.97222 0
M  V30 2470 H 232.084 -1.72417 2.44771 0
M  V30 2471 H 229.63 -0.828084 1.17808 0
M  V30 2472 H 231.583 -3.95253 1.46127 0
M  V30 2473 H 230.307 -3.23534 0.446435 0
M  V30 2474 H 228.966 -2.67707 2.50457 0
M  V30 2475 H 228.614 -4.85294 1.32284 0
M  V30 2476 H 228.314 -5.00906 3.07192 0
M  V30 2477 H 229.838 -5.62609 2.37284 0
M  V30 2478 H 231.252 -4.07518 4.03239 0
M  V30 2479 H 229.649 -3.69671 4.72719 0
M  V30 2480 H 230.719 -2.37426 4.22797 0
M  V30 2481 N 232.062 -1.29571 -0.897171 0
M  V30 2482 C 232.992 -1.17473 -2.01798 0
M  V30 2483 C 233.973 -0.068323 -1.69963 0
M  V30 2484 O 235.158 -0.248239 -1.92607 0
M  V30 2485 C 232.288 -0.853099 -3.36659 0
M  V30 2486 C 231.242 -1.9161 -3.82713 0
M  V30 2487 C 230.568 -1.44773 -5.14728 0
M  V30 2488 C 231.868 -3.32535 -4.02763 0
M  V30 2489 H 233.562 -2.11237 -2.12177 0
M  V30 2490 H 231.108 -1.01699 -1.01948 0
M  V30 2491 H 233.061 -0.755165 -4.14578 0
M  V30 2492 H 231.785 0.120236 -3.26379 0
M  V30 2493 H 230.444 -2.00346 -3.07013 0
M  V30 2494 H 230.092 -0.462995 -5.00865 0
M  V30 2495 H 229.792 -2.15865 -5.46513 0
M  V30 2496 H 231.316 -1.36334 -5.95185 0
M  V30 2497 H 232.73 -3.26626 -4.71156 0
M  V30 2498 H 231.127 -4.01607 -4.45905 0
M  V30 2499 H 232.197 -3.75326 -3.07016 0
M  V30 2500 N 233.54 1.10788 -1.12088 0
M  V30 2501 C 234.789 1.82036 -0.868659 0
M  V30 2502 C 235.102 1.85929 0.607426 0
M  V30 2503 O 236.308 2.53346 0.97613 0
M  V30 2504 C 234.764 3.26951 -1.50435 0
M  V30 2505 C 234.372 3.31367 -3.01496 0
M  V30 2506 C 236.116 4.03053 -1.33225 0
M  V30 2507 C 234.023 4.7072 -3.58017 0
M  V30 2508 H 232.953 0.682108 -0.321318 0
M  V30 2509 H 235.604 1.24618 -1.34694 0
M  V30 2510 H 233.986 3.84343 -0.953735 0
M  V30 2511 H 235.16 2.83819 -3.6302 0
M  V30 2512 H 233.475 2.6875 -3.18061 0
M  V30 2513 H 236.072 5.05981 -1.72878 0
M  V30 2514 H 236.415 4.15387 -0.275529 0
M  V30 2515 H 236.948 3.52066 -1.85188 0
M  V30 2516 H 233.687 4.63585 -4.63432 0
M  V30 2517 H 233.207 5.1865 -3.01268 0
M  V30 2518 H 234.886 5.39685 -3.56859 0
M  V30 2519 N 235.018 0.912232 1.28515 0
M  V30 2520 C 236.265 0.544599 1.95039 0
M  V30 2521 C 236.593 -0.911435 1.71823 0
M  V30 2522 O 235.848 -1.66317 1.03137 0
M  V30 2523 C 236.147 0.798392 3.48368 0
M  V30 2524 C 235.813 2.23374 3.91682 0
M  V30 2525 C 234.475 2.62617 4.03219 0
M  V30 2526 C 236.827 3.16786 4.13879 0
M  V30 2527 C 234.155 3.94429 4.3433 0
M  V30 2528 C 236.507 4.48161 4.46469 0
M  V30 2529 C 235.171 4.8726 4.56217 0
M  V30 2530 H 234.441 0.199283 0.7137 0
M  V30 2531 H 237.088 1.15327 1.52879 0
M  V30 2532 H 235.393 0.106908 3.91654 0
M  V30 2533 H 237.09 0.493141 3.97956 0
M  V30 2534 H 233.68 1.91922 3.83228 0
M  V30 2535 H 237.864 2.87677 4.0442 0
M  V30 2536 H 233.12 4.24426 4.40082 0
M  V30 2537 H 237.294 5.20559 4.62592 0
M  V30 2538 H 234.921 5.89431 4.80078 0
M  V30 2539 N 236.496 -1.42363 0.676048 0
M  V30 2540 C 237.742 -2.0182 0.199125 0
M  V30 2541 C 238.075 -1.53339 -1.19168 0
M  V30 2542 O 237.35 -0.736124 -1.80032 0
M  V30 2543 C 237.633 -3.59331 0.235144 0
M  V30 2544 C 237.486 -4.17989 1.66149 0
M  V30 2545 C 238.805 -4.3813 -0.41595 0
M  V30 2546 H 235.924 -0.733293 0.0738311 0
M  V30 2547 H 238.566 -1.69368 0.86107 0
M  V30 2548 H 236.716 -3.87109 -0.328487 0
M  V30 2549 H 238.388 -4.0116 2.27747 0
M  V30 2550 H 236.631 -3.7377 2.20178 0
M  V30 2551 H 237.302 -5.27126 1.63837 0
M  V30 2552 H 239.778 -4.16051 0.0638529 0
M  V30 2553 H 238.654 -5.47717 -0.360115 0
M  V30 2554 H 238.915 -4.16101 -1.49373 0
M  V30 2555 N 237.974 -0.419461 -1.51915 0
M  V30 2556 C 239.204 0.151915 -2.06041 0
M  V30 2557 C 239.612 1.38539 -1.28855 0
M  V30 2558 O 238.955 1.80592 -0.336463 0
M  V30 2559 C 239.017 0.557119 -3.55157 0
M  V30 2560 C 238.681 -0.567054 -4.53468 0
M  V30 2561 C 239.678 -1.43379 -4.99738 0
M  V30 2562 C 237.363 -0.742693 -4.96779 0
M  V30 2563 C 239.357 -2.46102 -5.87973 0
M  V30 2564 C 237.044 -1.77322 -5.84808 0
M  V30 2565 C 238.042 -2.63078 -6.30301 0
M  V30 2566 O 237.73 -3.64364 -7.16585 0
M  V30 2567 H 237.462 0.0193293 -0.675724 0
M  V30 2568 H 240.016 -0.592073 -1.96682 0
M  V30 2569 H 238.246 1.35355 -3.62238 0
M  V30 2570 H 239.935 1.05759 -3.9188 0
M  V30 2571 H 240.701 -1.30954 -4.66986 0
M  V30 2572 H 236.58 -0.0848307 -4.60922 0
M  V30 2573 H 240.124 -3.13071 -6.23404 0
M  V30 2574 H 236.021 -1.89773 -6.16974 0
M  V30 2575 H 236.789 -3.60731 -7.34721 0
M  V30 2576 N 239.452 1.56882 -0.150215 0
M  V30 2577 C 240.399 2.16922 0.788244 0
M  V30 2578 C 241.369 1.10303 1.24187 0
M  V30 2579 O 242.554 1.38359 1.31383 0
M  V30 2580 C 239.694 2.79754 2.02068 0
M  V30 2581 C 238.807 4.00775 1.61257 0
M  V30 2582 C 237.942 4.51595 2.79705 0
M  V30 2583 C 236.981 5.65074 2.35282 0
M  V30 2584 N 236.118 6.10499 3.4675 0
M  V30 2585 H 240.958 2.96779 0.269444 0
M  V30 2586 H 238.495 1.46599 0.12128 0
M  V30 2587 H 240.453 3.14329 2.74323 0
M  V30 2588 H 239.083 2.02536 2.51354 0
M  V30 2589 H 238.135 3.72158 0.787553 0
M  V30 2590 H 239.447 4.82978 1.24633 0
M  V30 2591 H 238.601 4.88242 3.60145 0
M  V30 2592 H 237.34 3.68406 3.19576 0
M  V30 2593 H 236.345 5.28 1.53283 0
M  V30 2594 H 237.57 6.50052 1.96493 0
M  V30 2595 H 235.516 5.30243 3.86236 0
M  V30 2596 H 235.433 6.87637 3.14152 0
M  V30 2597 H 236.701 6.51791 4.27537 0
M  V30 2598 N 240.93 -0.123565 1.57115 0
M  V30 2599 C 242.158 -0.846461 1.88793 0
M  V30 2600 C 242.573 -1.73652 0.740976 0
M  V30 2601 O 241.93 -1.80207 -0.288393 0
M  V30 2602 C 241.981 -1.6837 3.19897 0
M  V30 2603 O 241.702 -0.829477 4.30176 0
M  V30 2604 C 243.203 -2.51214 3.65248 0
M  V30 2605 H 240.423 -0.243573 0.625231 0
M  V30 2606 H 242.967 -0.109324 2.04208 0
M  V30 2607 H 241.122 -2.37364 3.06165 0
M  V30 2608 H 241.536 -1.40651 5.0529 0
M  V30 2609 H 243.01 -3.05497 4.59756 0
M  V30 2610 H 243.487 -3.28359 2.9168 0
M  V30 2611 H 244.093 -1.8747 3.81752 0
M  V30 2612 N 242.408 -1.52605 -0.393616 0
M  V30 2613 C 243.638 -1.71046 -1.15874 0
M  V30 2614 C 244.046 -0.426483 -1.84331 0
M  V30 2615 O 243.389 0.608513 -1.73329 0
M  V30 2616 C 243.451 -2.80118 -2.25332 0
M  V30 2617 C 243.115 -4.21381 -1.76881 0
M  V30 2618 C 244.112 -5.04697 -1.24808 0
M  V30 2619 C 241.797 -4.67683 -1.83244 0
M  V30 2620 C 243.791 -6.32393 -0.797387 0
M  V30 2621 C 241.478 -5.95364 -1.37787 0
M  V30 2622 C 242.476 -6.77549 -0.861208 0
M  V30 2623 O 242.164 -8.02837 -0.413252 0
M  V30 2624 H 241.896 -0.576155 -0.353583 0
M  V30 2625 H 244.45 -2.00018 -0.467123 0
M  V30 2626 H 242.68 -2.46557 -2.97904 0
M  V30 2627 H 244.369 -2.87006 -2.87023 0
M  V30 2628 H 245.135 -4.70111 -1.19252 0
M  V30 2629 H 241.014 -4.03805 -2.22401 0
M  V30 2630 H 244.558 -6.9649 -0.393437 0
M  V30 2631 H 240.455 -6.29455 -1.43026 0
M  V30 2632 H 241.223 -8.16749 -0.53515 0
M  V30 2633 N 243.887 0.651787 -1.4349 0
M  V30 2634 C 245.133 1.41376 -1.45398 0
M  V30 2635 C 245.466 1.94041 -0.0784823 0
M  V30 2636 O 244.741 1.72379 0.900878 0
M  V30 2637 C 245.024 2.59414 -2.49752 0
M  V30 2638 C 244.877 2.12232 -3.96582 0
M  V30 2639 C 246.196 3.61626 -2.50827 0
M  V30 2640 H 243.315 0.512719 -0.529422 0
M  V30 2641 H 245.957 0.738796 -1.75048 0
M  V30 2642 H 244.107 3.16997 -2.246 0
M  V30 2643 H 245.779 1.59639 -4.32797 0
M  V30 2644 H 244.022 1.43592 -4.09346 0
M  V30 2645 H 244.693 2.9712 -4.65214 0
M  V30 2646 H 247.169 3.13805 -2.7325 0
M  V30 2647 H 246.045 4.41766 -3.25783 0
M  V30 2648 H 246.306 4.14314 -1.5426 0
M  V30 2649 N 245.365 1.30045 0.890287 0
M  V30 2650 C 246.612 1.18561 1.64163 0
M  V30 2651 C 246.94 -0.260852 1.92743 0
M  V30 2652 O 246.195 -1.20376 1.54299 0
M  V30 2653 C 246.494 1.95409 2.99249 0
M  V30 2654 C 246.16 3.45066 2.90242 0
M  V30 2655 C 244.822 3.85878 2.87492 0
M  V30 2656 C 247.174 4.4039 2.78758 0
M  V30 2657 C 244.502 5.20314 2.7109 0
M  V30 2658 C 246.854 5.74928 2.63894 0
M  V30 2659 C 245.518 6.14986 2.59516 0
M  V30 2660 H 244.788 0.433846 0.600715 0
M  V30 2661 H 247.435 1.61088 1.03552 0
M  V30 2662 H 245.74 1.45501 3.63781 0
M  V30 2663 H 247.437 1.8392 3.56334 0
M  V30 2664 H 244.027 3.12631 2.93189 0
M  V30 2665 H 248.211 4.09806 2.79952 0
M  V30 2666 H 243.467 5.50449 2.66112 0
M  V30 2667 H 247.641 6.48434 2.53981 0
M  V30 2668 H 245.268 7.19104 2.46565 0
M  V30 2669 N 246.843 -1.10192 1.12674 0
M  V30 2670 C 247.79 -2.16606 0.796906 0
M  V30 2671 C 248.76 -1.64394 -0.237476 0
M  V30 2672 O 249.945 -1.90474 -0.111484 0
M  V30 2673 C 247.085 -3.44116 0.26043 0
M  V30 2674 C 246.198 -4.10268 1.35293 0
M  V30 2675 C 245.333 -5.25507 0.775621 0
M  V30 2676 C 244.372 -5.83567 1.84706 0
M  V30 2677 N 243.509 -6.90179 1.28829 0
M  V30 2678 H 248.349 -2.44163 1.70846 0
M  V30 2679 H 245.886 -1.19846 0.85295 0
M  V30 2680 H 247.844 -4.17143 -0.0686814 0
M  V30 2681 H 246.474 -3.16901 -0.614274 0
M  V30 2682 H 245.526 -3.35184 1.79877 0
M  V30 2683 H 246.838 -4.4946 2.16303 0
M  V30 2684 H 245.992 -6.05398 0.397327 0
M  V30 2685 H 244.731 -4.87656 -0.0656581 0
M  V30 2686 H 243.736 -5.02344 2.23452 0
M  V30 2687 H 244.961 -6.23482 2.69161 0
M  V30 2688 H 242.907 -6.54322 0.468881 0
M  V30 2689 H 242.824 -7.28097 2.03497 0
M  V30 2690 H 244.092 -7.73844 0.937311 0
M  V30 2691 N 248.321 -0.919034 -1.28029 0
M  V30 2692 C 249.269 -0.401753 -2.29104 0
M  V30 2693 C 250.263 0.509354 -1.61561 0
M  V30 2694 O 251.469 0.390014 -1.75724 0
M  V30 2695 H 247.844 -0.111331 -0.743713 0
M  V30 2696 H 249.815 -1.2672 -2.70156 0
M  V30 2697 C 248.564 0.338148 -3.46052 0
M  V30 2698 H 247.887 -0.353732 -3.98232 0
M  V30 2699 H 249.327 0.664653 -4.18758 0
M  V30 2700 C 247.786 1.54798 -2.99231 0
M  V30 2701 O 248.316 2.64696 -3.02157 0
M  V30 2702 N 246.522 1.3968 -2.54829 0
M  V30 2703 H 246.069 0.502698 -2.52647 0
M  V30 2704 H 246.027 2.20755 -2.23863 0
M  V30 2705 N 249.799 1.42003 -0.683588 0
M  V30 2706 C 251.027 2.05746 -0.218182 0
M  V30 2707 C 251.442 1.51396 1.12804 0
M  V30 2708 O 250.799 0.657303 1.70252 0
M  V30 2709 C 250.85 3.61171 -0.154131 0
M  V30 2710 O 250.571 4.13508 -1.44716 0
M  V30 2711 C 252.072 4.42042 0.333713 0
M  V30 2712 H 249.292 0.662888 -0.10402 0
M  V30 2713 H 251.836 1.81987 -0.9328 0
M  V30 2714 H 249.991 3.84012 0.511231 0
M  V30 2715 H 250.405 5.07453 -1.32632 0
M  V30 2716 H 251.879 5.51028 0.327423 0
M  V30 2717 H 252.356 4.17269 1.37053 0
M  V30 2718 H 252.962 4.24239 -0.300222 0
M  V30 2719 N 251.277 0.427512 1.51691 0
M  V30 2720 C 252.526 -0.143679 2.01188 0
M  V30 2721 C 252.839 -1.44642 1.31674 0
M  V30 2722 O 254.045 -2.09997 1.72086 0
M  V30 2723 C 252.501 -0.306602 3.58592 0
M  V30 2724 C 252.109 0.985125 4.37035 0
M  V30 2725 C 253.853 -0.832091 4.16265 0
M  V30 2726 C 251.76 0.788382 5.86122 0
M  V30 2727 H 250.69 -0.0574701 0.751807 0
M  V30 2728 H 253.341 0.555772 1.74881 0
M  V30 2729 H 251.723 -1.06882 3.81303 0
M  V30 2730 H 252.897 1.75492 4.26074 0
M  V30 2731 H 251.212 1.4384 3.90767 0
M  V30 2732 H 253.809 -0.995617 5.25349 0
M  V30 2733 H 254.152 -1.81186 3.74803 0
M  V30 2734 H 254.685 -0.128444 3.97593 0
M  V30 2735 H 251.424 1.74025 6.31978 0
M  V30 2736 H 250.944 0.0582143 5.99772 0
M  V30 2737 H 252.623 0.437722 6.45518 0
M  V30 2738 N 252.755 -1.56801 0.158532 0
M  V30 2739 C 254.166 -1.83189 -0.360366 0
M  V30 2740 C 254.517 -1.07778 -1.63946 0
M  V30 2741 O 253.642 -0.326718 -2.13919 0
M  V30 2742 C 254.237 -3.32297 -0.660595 0
M  V30 2743 C 252.796 -3.59227 -1.12398 0
M  V30 2744 C 251.943 -2.76877 -0.153097 0
M  V30 2745 H 254.894 -1.54008 0.383031 0
M  V30 2746 H 254.915 -3.4908 -1.51405 0
M  V30 2747 H 254.427 -3.87156 0.270527 0
M  V30 2748 H 252.528 -3.09766 -2.07064 0
M  V30 2749 H 252.641 -4.67632 -1.04197 0
M  V30 2750 H 251.005 -2.46319 -0.647983 0
M  V30 2751 H 251.788 -3.34511 0.77182 0
M  V30 2752 N 254.233 0.115231 -1.57178 0
M  V30 2753 C 255.51 0.852873 -1.76027 0
M  V30 2754 C 255.89 1.97892 -0.73498 0
M  V30 2755 O 255.238 2.27232 0.24036 0
M  V30 2756 C 255.448 1.36608 -3.21153 0
M  V30 2757 C 256.796 1.81692 -3.83762 0
M  V30 2758 O 257.82 1.46278 -3.24779 0
M  V30 2759 O 256.679 2.47104 -4.87444 0
M  V30 2760 H 253.773 0.405296 -0.720877 0
M  V30 2761 H 256.319 0.0986785 -1.69413 0
M  V30 2762 H 255.091 0.558357 -3.87296 0
M  V30 2763 H 254.714 2.18287 -3.3232 0
M  V30 2764 N 255.711 1.52812 0.385517 0
M  V30 2765 C 256.659 1.78482 1.49155 0
M  V30 2766 C 257.653 0.652914 1.56312 0
M  V30 2767 O 258.859 0.835464 1.59436 0
M  V30 2768 H 255.234 0.5648 0.496493 0
M  V30 2769 H 257.205 2.71095 1.24699 0
M  V30 2770 C 255.954 1.97378 2.86247 0
M  V30 2771 H 255.277 2.83907 2.81491 0
M  V30 2772 H 256.717 2.19327 3.62866 0
M  V30 2773 C 255.176 0.74728 3.28508 0
M  V30 2774 O 255.706 -0.0736232 4.01633 0
M  V30 2775 N 253.912 0.576396 2.84826 0
M  V30 2776 H 253.459 1.24555 2.25486 0
M  V30 2777 H 253.417 -0.24288 3.1346 0
M  V30 2778 N 257.189 -0.644168 1.43834 0
M  V30 2779 C 258.121 -1.76955 1.45669 0
M  V30 2780 C 259.134 -1.58956 0.351666 0
M  V30 2781 O 260.323 -1.6751 0.616644 0
M  V30 2782 C 257.423 -3.14507 1.26248 0
M  V30 2783 C 256.596 -3.59083 2.49757 0
M  V30 2784 C 255.655 -4.75467 2.25427 0
M  V30 2785 O 254.681 -4.84444 2.98836 0
M  V30 2786 N 255.883 -5.66289 1.27661 0
M  V30 2787 H 258.648 -1.75856 2.42682 0
M  V30 2788 H 256.209 -0.828312 1.39106 0
M  V30 2789 H 258.201 -3.90067 1.0784 0
M  V30 2790 H 256.771 -3.10325 0.376478 0
M  V30 2791 H 255.991 -2.7387 2.8353 0
M  V30 2792 H 257.279 -3.85613 3.31934 0
M  V30 2793 H 256.677 -5.61718 0.670064 0
M  V30 2794 H 255.234 -6.41533 1.15234 0
M  V30 2795 N 258.668 -1.30515 -0.883378 0
M  V30 2796 C 259.917 -1.18795 -1.63005 0
M  V30 2797 C 260.23 0.255923 -1.93919 0
M  V30 2798 O 261.436 0.494654 -2.66956 0
M  V30 2799 C 259.892 -2.07878 -2.93794 0
M  V30 2800 C 259.5 -3.57184 -2.70414 0
M  V30 2801 C 261.244 -2.04924 -3.71761 0
M  V30 2802 C 259.151 -4.38317 -3.97029 0
M  V30 2803 H 258.081 -0.441031 -0.611562 0
M  V30 2804 H 260.732 -1.55275 -0.977854 0
M  V30 2805 H 259.114 -1.64283 -3.60315 0
M  V30 2806 H 260.288 -4.08937 -2.12384 0
M  V30 2807 H 258.603 -3.61976 -2.0582 0
M  V30 2808 H 261.2 -2.62792 -4.65665 0
M  V30 2809 H 261.543 -1.0331 -4.03277 0
M  V30 2810 H 262.076 -2.46649 -3.12104 0
M  V30 2811 H 258.815 -5.40632 -3.70671 0
M  V30 2812 H 258.335 -3.91326 -4.54559 0
M  V30 2813 H 260.014 -4.49834 -4.65036 0
M  V30 2814 N 260.146 1.09593 -1.13257 0
M  V30 2815 C 261.376 1.85231 -0.915049 0
M  V30 2816 C 261.784 1.81345 0.539498 0
M  V30 2817 O 261.127 1.20664 1.38513 0
M  V30 2818 C 261.189 3.34275 -1.3229 0
M  V30 2819 C 260.853 3.6191 -2.79052 0
M  V30 2820 C 261.85 3.57777 -3.77216 0
M  V30 2821 C 259.535 3.90309 -3.16171 0
M  V30 2822 C 261.529 3.81652 -5.1051 0
M  V30 2823 C 259.216 4.13839 -4.49644 0
M  V30 2824 C 260.214 4.09502 -5.46623 0
M  V30 2825 O 259.902 4.32426 -6.77689 0
M  V30 2826 H 259.634 0.591997 -0.326367 0
M  V30 2827 H 262.188 1.394 -1.50854 0
M  V30 2828 H 260.418 3.80805 -0.672667 0
M  V30 2829 H 262.107 3.9132 -1.07812 0
M  V30 2830 H 262.873 3.35865 -3.49885 0
M  V30 2831 H 258.752 3.92811 -2.41289 0
M  V30 2832 H 262.296 3.78182 -5.86195 0
M  V30 2833 H 258.193 4.35232 -4.767 0
M  V30 2834 H 258.961 4.49896 -6.83766 0
M  V30 2835 N 261.624 0.925811 1.2754 0
M  V30 2836 C 262.571 0.422045 2.26908 0
M  V30 2837 C 263.541 -0.510029 1.58076 0
M  V30 2838 O 264.726 -0.429599 1.85901 0
M  V30 2839 C 261.866 -0.320837 3.43605 0
M  V30 2840 C 260.979 0.64513 4.27156 0
M  V30 2841 C 260.114 -0.117405 5.3107 0
M  V30 2842 C 259.153 0.841391 6.0629 0
M  V30 2843 N 258.29 0.111604 7.02011 0
M  V30 2844 H 263.13 1.27441 2.69375 0
M  V30 2845 H 260.667 0.639697 1.32462 0
M  V30 2846 H 262.625 -0.76785 4.10073 0
M  V30 2847 H 261.255 -1.13745 3.02096 0
M  V30 2848 H 260.307 1.21067 3.6062 0
M  V30 2849 H 261.619 1.37797 4.79389 0
M  V30 2850 H 260.773 -0.624422 6.03478 0
M  V30 2851 H 259.512 -0.883219 4.79636 0
M  V30 2852 H 258.517 1.35967 5.32722 0
M  V30 2853 H 259.742 1.60696 6.59813 0
M  V30 2854 H 257.688 -0.635999 6.5291 0
M  V30 2855 H 257.605 0.784044 7.51923 0
M  V30 2856 H 258.873 -0.374823 7.78598 0
M  V30 2857 N 263.102 -1.41638 0.69111 0
M  V30 2858 C 264.351 -2.00526 0.217318 0
M  V30 2859 C 264.664 -1.55353 -1.18848 0
M  V30 2860 O 265.87 -2.06769 -1.75951 0
M  V30 2861 C 264.326 -3.58313 0.337639 0
M  V30 2862 C 263.934 -4.12469 1.74852 0
M  V30 2863 C 265.678 -4.24431 -0.0766066 0
M  V30 2864 C 263.585 -5.62675 1.82074 0
M  V30 2865 H 262.515 -0.750008 0.0774893 0
M  V30 2866 H 265.166 -1.6217 0.858661 0
M  V30 2867 H 263.548 -3.9425 -0.371879 0
M  V30 2868 H 264.722 -3.8796 2.48644 0
M  V30 2869 H 263.037 -3.58861 2.11205 0
M  V30 2870 H 265.634 -5.34683 -0.0430284 0
M  V30 2871 H 265.977 -4.01101 -1.1146 0
M  V30 2872 H 266.51 -3.93512 0.582476 0
M  V30 2873 H 263.249 -5.90826 2.83911 0
M  V30 2874 H 262.769 -5.89124 1.12661 0
M  V30 2875 H 264.448 -6.27371 1.58159 0
M  V30 2876 N 264.58 -0.43555 -1.51462 0
M  V30 2877 C 265.829 0.133007 -2.01261 0
M  V30 2878 C 266.142 1.43942 -1.32439 0
M  V30 2879 O 267.348 2.09081 -1.73198 0
M  V30 2880 C 265.804 0.287581 -3.58749 0
M  V30 2881 C 265.412 -1.00829 -4.36506 0
M  V30 2882 C 267.156 0.810004 -4.167 0
M  V30 2883 C 265.063 -0.819454 -5.85695 0
M  V30 2884 H 263.993 0.0534822 -0.752101 0
M  V30 2885 H 266.644 -0.565038 -1.74584 0
M  V30 2886 H 265.026 1.04859 -3.81865 0
M  V30 2887 H 266.2 -1.77749 -4.25138 0
M  V30 2888 H 264.515 -1.45911 -3.89999 0
M  V30 2889 H 267.112 0.967743 -5.2587 0
M  V30 2890 H 267.455 1.79196 -3.75758 0
M  V30 2891 H 267.988 0.107357 -3.97655 0
M  V30 2892 H 264.727 -1.77374 -6.31046 0
M  V30 2893 H 264.247 -0.0900208 -5.99732 0
M  V30 2894 H 265.926 -0.471949 -6.45276 0
M  V30 2895 N 266.058 1.56714 -0.166846 0
M  V30 2896 C 267.021 2.16539 0.751232 0
M  V30 2897 C 268.021 1.11228 1.16125 0
M  V30 2898 O 269.211 1.36765 1.07894 0
M  V30 2899 C 266.343 2.74462 2.02196 0
M  V30 2900 H 267.536 2.99013 0.230499 0
M  V30 2901 H 265.089 1.56081 0.0826982 0
M  V30 2902 H 265.824 1.95709 2.58589 0
M  V30 2903 H 265.609 3.51527 1.73698 0
M  V30 2904 H 267.099 3.20489 2.67725 0
M  V30 2905 N 267.536 -0.106894 1.57237 0
M  V30 2906 C 268.784 -0.810921 1.85117 0
M  V30 2907 C 269.105 -1.7984 0.753827 0
M  V30 2908 O 268.375 -1.94649 -0.221056 0
M  V30 2909 H 266.955 -0.302466 0.683025 0
M  V30 2910 H 269.617 -0.0913324 1.94686 0
M  V30 2911 H 268.713 -1.34875 2.81452 0
M  V30 2912 N 269.014 -1.53014 -0.377408 0
M  V30 2913 C 270.261 -1.68623 -1.12128 0
M  V30 2914 C 270.589 -0.431997 -1.89642 0
M  V30 2915 O 269.844 0.585855 -1.86725 0
M  V30 2916 C 270.143 -2.87982 -2.11663 0
M  V30 2917 C 269.809 -4.24964 -1.50719 0
M  V30 2918 C 268.471 -4.62217 -1.33825 0
M  V30 2919 C 270.823 -5.10199 -1.06519 0
M  V30 2920 C 268.151 -5.82352 -0.712963 0
M  V30 2921 C 270.503 -6.30969 -0.453955 0
M  V30 2922 C 269.167 -6.66944 -0.272411 0
M  V30 2923 H 268.437 -0.617034 -0.410305 0
M  V30 2924 H 271.084 -1.8718 -0.404484 0
M  V30 2925 H 269.389 -2.63889 -2.89603 0
M  V30 2926 H 271.086 -2.97253 -2.6915 0
M  V30 2927 H 267.676 -3.95626 -1.64858 0
M  V30 2928 H 271.86 -4.81978 -1.18368 0
M  V30 2929 H 267.116 -6.08824 -0.560611 0
M  V30 2930 H 271.29 -6.96324 -0.103217 0
M  V30 2931 H 268.917 -7.59898 0.214181 0
M  V30 2932 N 270.492 0.636531 -1.44174 0
M  V30 2933 C 271.74 1.39343 -1.46383 0
M  V30 2934 C 272.061 1.94766 -0.0955715 0
M  V30 2935 O 271.331 1.75452 0.871395 0
M  V30 2936 H 269.911 0.517199 -0.538994 0
M  V30 2937 H 272.573 0.74957 -1.7991 0
M  V30 2938 H 271.669 2.22746 -2.18611 0
M  V30 2939 N 271.97 1.30982 0.876444 0
M  V30 2940 C 272.9 1.20668 1.99903 0
M  V30 2941 C 273.881 0.095354 1.69833 0
M  V30 2942 O 275.066 0.27885 1.92188 0
M  V30 2943 C 272.196 0.90655 3.3526 0
M  V30 2944 C 271.15 1.97675 3.79617 0
M  V30 2945 C 270.476 1.52943 5.1236 0
M  V30 2946 C 271.776 3.389 3.97422 0
M  V30 2947 H 273.47 2.14586 2.0879 0
M  V30 2948 H 271.016 1.03308 1.00317 0
M  V30 2949 H 272.969 0.821025 4.13324 0
M  V30 2950 H 271.693 -0.0682969 3.26529 0
M  V30 2951 H 270.352 2.05205 3.03787 0
M  V30 2952 H 270 0.54262 5.00065 0
M  V30 2953 H 269.7 2.24532 5.43009 0
M  V30 2954 H 271.224 1.45786 5.92941 0
M  V30 2955 H 272.638 3.34081 4.659 0
M  V30 2956 H 271.035 4.0865 4.3946 0
M  V30 2957 H 272.105 3.80163 3.01006 0
M  V30 2958 N 273.449 -1.08991 1.13837 0
M  V30 2959 C 274.697 -1.80899 0.901098 0
M  V30 2960 C 275.018 -1.86356 -0.574134 0
M  V30 2961 O 274.288 -1.35235 -1.41733 0
M  V30 2962 H 272.868 -0.669966 0.330386 0
M  V30 2963 H 275.53 -1.318 1.43578 0
M  V30 2964 H 274.626 -2.83929 1.29578 0
M  V30 2965 N 274.927 -0.932562 -1.27047 0
M  V30 2966 C 276.175 -0.574422 -1.93765 0
M  V30 2967 C 276.496 0.887993 -1.73608 0
M  V30 2968 O 275.766 1.62999 -1.08665 0
M  V30 2969 H 274.346 -0.209451 -0.717035 0
M  V30 2970 H 277.008 -1.18601 -1.5466 0
M  V30 2971 H 276.104 -0.784841 -3.02071 0
M  V30 2972 N 276.405 1.4127 -0.698611 0
M  V30 2973 C 277.63 2.06024 -0.238512 0
M  V30 2974 C 278.055 1.5224 1.10475 0
M  V30 2975 O 277.413 0.650623 1.69223 0
M  V30 2976 C 277.461 3.59988 -0.209952 0
M  V30 2977 O 276.565 4.04282 0.814235 0
M  V30 2978 H 275.906 0.653829 -0.115775 0
M  V30 2979 H 278.436 1.8098 -0.954326 0
M  V30 2980 H 278.446 4.07979 -0.0418436 0
M  V30 2981 H 277.121 3.98503 -1.1903 0
M  V30 2982 H 275.698 3.6779 0.615234 0
M  V30 2983 N 277.883 0.443576 1.51229 0
M  V30 2984 C 279.108 -0.121648 2.07043 0
M  V30 2985 C 279.533 -1.35156 1.30823 0
M  V30 2986 O 278.891 -1.7793 0.347934 0
M  V30 2987 C 278.939 -0.41624 3.5819 0
M  V30 2988 O 278.043 -1.50163 3.8409 0
M  V30 2989 H 277.384 0.000871367 0.663999 0
M  V30 2990 H 279.914 0.626706 1.94765 0
M  V30 2991 H 279.924 -0.664867 4.02546 0
M  V30 2992 H 278.599 0.482653 4.1309 0
M  V30 2993 H 277.176 -1.24248 3.51592 0
M  V30 2994 N 279.361 -1.56624 0.175154 0
M  V30 2995 C 280.61 -1.96173 -0.468921 0
M  V30 2996 C 280.923 -1.06401 -1.64128 0
M  V30 2997 O 282.129 -1.35648 -2.35185 0
M  V30 2998 C 280.585 -3.48833 -0.885633 0
M  V30 2999 C 280.193 -4.47237 0.261343 0
M  V30 3000 C 281.937 -3.97194 -1.49791 0
M  V30 3001 C 279.844 -5.9114 -0.175214 0
M  V30 3002 H 278.774 -0.732455 -0.178958 0
M  V30 3003 H 281.425 -1.81591 0.263997 0
M  V30 3004 H 279.807 -3.58848 -1.67464 0
M  V30 3005 H 280.981 -4.4894 1.03871 0
M  V30 3006 H 279.296 -4.08956 0.783827 0
M  V30 3007 H 281.893 -5.02167 -1.83665 0
M  V30 3008 H 282.236 -3.40351 -2.39722 0
M  V30 3009 H 282.769 -3.90212 -0.773267 0
M  V30 3010 H 279.508 -6.51865 0.689414 0
M  V30 3011 H 279.028 -5.92735 -0.91786 0
M  V30 3012 H 280.707 -6.44044 -0.617792 0
M  V30 3013 N 280.839 0.0985539 -1.57292 0
M  V30 3014 C 281.802 1.10402 -2.00858 0
M  V30 3015 C 282.802 1.33146 -0.901593 0
M  V30 3016 O 283.992 1.29318 -1.16716 0
M  V30 3017 C 281.124 2.45394 -2.36632 0
M  V30 3018 H 282.317 0.729099 -2.90902 0
M  V30 3019 H 279.87 0.343495 -1.52479 0
M  V30 3020 H 280.605 2.87769 -1.49531 0
M  V30 3021 H 280.39 2.30235 -3.17387 0
M  V30 3022 H 281.88 3.17718 -2.71007 0
M  V30 3023 N 282.317 1.53212 0.369288 0
M  V30 3024 C 283.247 1.82365 1.45826 0
M  V30 3025 C 284.228 0.676907 1.56051 0
M  V30 3026 O 285.413 0.926401 1.70679 0
M  V30 3027 C 282.543 2.01023 2.83208 0
M  V30 3028 C 281.497 3.1678 2.8781 0
M  V30 3029 C 280.823 3.20724 4.27832 0
M  V30 3030 C 282.123 4.55447 2.55667 0
M  V30 3031 H 283.817 2.73559 1.21678 0
M  V30 3032 H 281.363 1.3163 0.583911 0
M  V30 3033 H 283.316 2.20001 3.59413 0
M  V30 3034 H 282.04 1.06536 3.08736 0
M  V30 3035 H 280.699 2.97616 2.14056 0
M  V30 3036 H 280.347 2.23882 4.50429 0
M  V30 3037 H 280.047 3.98496 4.31827 0
M  V30 3038 H 281.571 3.41881 5.05915 0
M  V30 3039 H 282.985 4.74611 3.21586 0
M  V30 3040 H 281.382 5.35432 2.70984 0
M  V30 3041 H 282.452 4.60812 1.5093 0
M  V30 3042 N 283.795 -0.628877 1.44509 0
M  V30 3043 C 285.042 -1.38839 1.47411 0
M  V30 3044 C 285.37 -1.94202 0.10757 0
M  V30 3045 O 284.625 -1.74243 -0.890947 0
M  V30 3046 C 284.924 -2.56995 2.48371 0
M  V30 3047 C 284.59 -2.19908 3.93639 0
M  V30 3048 C 283.252 -2.09506 4.33198 0
M  V30 3049 C 285.604 -1.9064 4.85083 0
M  V30 3050 C 282.932 -1.68028 5.62124 0
M  V30 3051 C 285.284 -1.50655 6.14399 0
M  V30 3052 C 283.948 -1.38796 6.5291 0
M  V30 3053 H 283.218 -0.508048 0.539414 0
M  V30 3054 H 285.865 -0.712913 1.77735 0
M  V30 3055 H 284.17 -3.29786 2.11538 0
M  V30 3056 H 285.867 -3.15223 2.47861 0
M  V30 3057 H 282.457 -2.28922 3.62343 0
M  V30 3058 H 286.641 -1.97585 4.55273 0
M  V30 3059 H 281.897 -1.57452 5.90778 0
M  V30 3060 H 286.071 -1.27048 6.84713 0
M  V30 3061 H 283.698 -1.06429 7.52713 0
M  V30 3062 N 285.273 -1.31445 -0.869486 0
M  V30 3063 C 286.498 -1.24256 -1.66058 0
M  V30 3064 C 286.923 0.188928 -1.87149 0
M  V30 3065 O 286.281 1.13522 -1.4136 0
M  V30 3066 C 286.329 -1.9924 -3.00559 0
M  V30 3067 O 285.433 -1.33007 -3.90362 0
M  V30 3068 H 284.774 -0.428973 -0.506831 0
M  V30 3069 H 287.304 -1.73521 -1.08404 0
M  V30 3070 H 287.314 -2.08854 -3.50491 0
M  V30 3071 H 285.989 -3.03342 -2.84528 0
M  V30 3072 H 284.566 -1.31848 -3.48813 0
M  V30 3073 N 286.751 1.08385 -1.14413 0
M  V30 3074 C 288.167 1.32844 -0.884563 0
M  V30 3075 C 288.367 1.95841 0.474181 0
M  V30 3076 O 287.423 2.21158 1.21842 0
M  V30 3077 C 288.736 2.22978 -2.01745 0
M  V30 3078 C 290.284 2.36458 -2.05077 0
M  V30 3079 C 290.759 3.29934 -3.1766 0
M  V30 3080 N 292.25 3.37511 -3.17239 0
M  V30 3081 C 292.985 4.09871 -4.0099 0
M  V30 3082 N 292.481 4.84936 -4.94781 0
M  V30 3083 N 294.274 4.05704 -3.89051 0
M  V30 3084 H 286.425 0.658756 -2.01926 0
M  V30 3085 H 288.688 0.352821 -0.879899 0
M  V30 3086 H 288.394 1.83934 -2.99769 0
M  V30 3087 H 288.268 3.23441 -1.94077 0
M  V30 3088 H 290.655 2.7476 -1.0766 0
M  V30 3089 H 290.736 1.35736 -2.16816 0
M  V30 3090 H 290.38 2.92352 -4.15322 0
M  V30 3091 H 290.31 4.30584 -3.03158 0
M  V30 3092 H 292.801 2.83996 -2.49308 0
M  V30 3093 H 293.114 5.37612 -5.55151 0
M  V30 3094 H 291.459 4.83988 -4.98779 0
M  V30 3095 H 294.65 3.46167 -3.15097 0
M  V30 3096 H 294.823 4.61834 -4.54547 0
M  V30 3097 N 288.23 0.939286 1.26551 0
M  V30 3098 C 289.476 0.586715 1.94128 0
M  V30 3099 C 289.809 -0.8717 1.73537 0
M  V30 3100 O 289.084 -1.62339 1.07127 0
M  V30 3101 C 289.367 0.927497 3.4795 0
M  V30 3102 C 289.22 2.44052 3.77834 0
M  V30 3103 C 290.539 0.441569 4.37879 0
M  V30 3104 H 287.658 0.21463 0.705055 0
M  V30 3105 H 290.3 1.17316 1.49455 0
M  V30 3106 H 288.45 0.428431 3.8613 0
M  V30 3107 H 290.122 3.01216 3.4938 0
M  V30 3108 H 288.365 2.8848 3.23978 0
M  V30 3109 H 289.036 2.62947 4.85348 0
M  V30 3110 H 291.512 0.869448 4.06915 0
M  V30 3111 H 290.388 0.708856 5.44304 0
M  V30 3112 H 290.649 -0.658467 4.37169 0
M  V30 3113 N 289.708 -1.40897 0.706093 0
M  V30 3114 C 290.956 -2.00657 0.241054 0
M  V30 3115 C 291.277 -1.56241 -1.16678 0
M  V30 3116 O 290.547 -0.79765 -1.78926 0
M  V30 3117 H 289.127 -0.742018 0.0861308 0
M  V30 3118 H 291.789 -1.72372 0.909604 0
M  V30 3119 H 290.885 -3.10958 0.266705 0
M  V30 3120 N 291.186 -0.45159 -1.50991 0
M  V30 3121 C 292.434 0.109857 -2.01801 0
M  V30 3122 C 292.755 1.41958 -1.3369 0
M  V30 3123 O 292.025 1.9003 -0.475951 0
M  V30 3124 H 290.605 0.0435884 -0.745727 0
M  V30 3125 H 293.267 -0.597557 -1.85514 0
M  V30 3126 H 292.363 0.275489 -3.10882 0
M  V30 3127 N 292.664 1.56529 -0.183458 0
M  V30 3128 C 293.912 1.96855 0.457452 0
M  V30 3129 C 294.233 1.07104 1.62953 0
M  V30 3130 O 293.503 0.139887 1.954 0
M  V30 3131 H 292.083 0.72693 0.171992 0
M  V30 3132 H 294.745 1.93056 -0.267476 0
M  V30 3133 H 293.841 3.01423 0.809368 0
M  V30 3134 N 294.142 -0.090211 1.57342 0
M  V30 3135 C 295.391 -0.791531 1.8552 0
M  V30 3136 C 295.704 -1.79659 0.773441 0
M  V30 3137 O 296.91 -2.54616 0.942497 0
M  V30 3138 C 295.366 -1.45856 3.2902 0
M  V30 3139 C 294.974 -0.493017 4.45279 0
M  V30 3140 C 296.718 -2.14332 3.66418 0
M  V30 3141 C 294.625 -1.16491 5.79814 0
M  V30 3142 H 293.555 -0.299356 0.692027 0
M  V30 3143 H 296.206 -0.0445343 1.83446 0
M  V30 3144 H 294.588 -2.25318 3.2565 0
M  V30 3145 H 295.762 0.270464 4.60006 0
M  V30 3146 H 294.077 0.0863061 4.16311 0
M  V30 3147 H 296.674 -2.65344 4.64216 0
M  V30 3148 H 297.017 -2.93447 2.95287 0
M  V30 3149 H 297.55 -1.41724 3.71698 0
M  V30 3150 H 294.289 -0.41447 6.54188 0
M  V30 3151 H 293.809 -1.8997 5.68921 0
M  V30 3152 H 295.488 -1.69001 6.24538 0
M  V30 3153 N 295.62 -1.53406 -0.361157 0
M  V30 3154 C 296.85 -1.73465 -1.1222 0
M  V30 3155 C 297.258 -0.465486 -1.83384 0
M  V30 3156 O 296.601 0.571611 -1.7458 0
M  V30 3157 C 296.663 -2.84834 -2.19339 0
M  V30 3158 C 296.327 -4.25038 -1.67903 0
M  V30 3159 C 297.324 -5.07231 -1.14074 0
M  V30 3160 C 295.009 -4.71464 -1.73282 0
M  V30 3161 C 297.003 -6.33942 -0.663068 0
M  V30 3162 C 294.69 -5.98153 -1.25127 0
M  V30 3163 C 295.688 -6.79223 -0.717296 0
M  V30 3164 O 295.376 -8.03533 -0.242865 0
M  V30 3165 H 295.108 -0.583526 -0.341283 0
M  V30 3166 H 297.662 -2.00964 -0.424591 0
M  V30 3167 H 295.892 -2.5282 -2.92607 0
M  V30 3168 H 297.581 -2.9303 -2.80871 0
M  V30 3169 H 298.347 -4.72534 -1.09254 0
M  V30 3170 H 294.226 -4.08432 -2.13786 0
M  V30 3171 H 297.77 -6.97167 -0.245612 0
M  V30 3172 H 293.667 -6.32347 -1.29642 0
M  V30 3173 H 294.435 -8.177 -0.361786 0
M  V30 3174 N 297.098 0.621204 -1.44841 0
M  V30 3175 C 298.326 1.40752 -1.51646 0
M  V30 3176 C 298.741 1.88246 -0.144549 0
M  V30 3177 O 298.098 1.61422 0.851416 0
M  V30 3178 C 298.149 2.62119 -2.4895 0
M  V30 3179 O 297.87 2.16602 -3.80808 0
M  V30 3180 C 299.371 3.55135 -2.65319 0
M  V30 3181 H 296.591 0.431325 -0.514004 0
M  V30 3182 H 299.135 0.758835 -1.899 0
M  V30 3183 H 297.29 3.23058 -2.13805 0
M  V30 3184 H 297.704 2.95358 -4.33433 0
M  V30 3185 H 299.178 4.36874 -3.37409 0
M  V30 3186 H 299.655 4.04592 -1.70886 0
M  V30 3187 H 300.261 3.00058 -3.01405 0
M  V30 3188 N 298.576 1.31904 0.862503 0
M  V30 3189 C 299.523 1.20182 1.9704 0
M  V30 3190 C 300.493 0.0858247 1.65878 0
M  V30 3191 O 301.678 0.26 1.8902 0
M  V30 3192 C 298.818 0.922797 3.32533 0
M  V30 3193 C 297.931 2.12284 3.76244 0
M  V30 3194 C 297.066 1.77996 5.00491 0
M  V30 3195 C 296.105 2.94366 5.36671 0
M  V30 3196 N 295.242 2.60223 6.52095 0
M  V30 3197 H 300.082 2.14951 2.06398 0
M  V30 3198 H 297.619 1.06917 1.01031 0
M  V30 3199 H 299.577 0.741548 4.10557 0
M  V30 3200 H 298.207 0.0119227 3.22798 0
M  V30 3201 H 297.259 2.41461 2.9394 0
M  V30 3202 H 298.571 2.99357 3.98982 0
M  V30 3203 H 297.725 1.56377 5.862 0
M  V30 3204 H 296.464 0.881252 4.79672 0
M  V30 3205 H 295.469 3.16625 4.49476 0
M  V30 3206 H 296.694 3.84957 5.59451 0
M  V30 3207 H 294.64 1.72884 6.32809 0
M  V30 3208 H 294.557 3.40827 6.74814 0
M  V30 3209 H 295.825 2.42016 7.40978 0
M  V30 3210 N 300.054 -1.07777 1.14986 0
M  V30 3211 C 301.017 -2.13041 0.845358 0
M  V30 3212 C 302.017 -1.60071 -0.152931 0
M  V30 3213 O 303.207 -1.74033 0.0761879 0
M  V30 3214 C 300.339 -3.39896 0.261383 0
M  V30 3215 H 301.532 -2.41485 1.77834 0
M  V30 3216 H 299.085 -1.23595 0.956757 0
M  V30 3217 H 299.82 -3.17091 -0.68 0
M  V30 3218 H 299.605 -3.79642 0.980514 0
M  V30 3219 H 301.095 -4.17548 0.0657687 0
M  V30 3220 N 301.532 -0.945985 -1.26051 0
M  V30 3221 C 302.495 -0.463897 -2.24456 0
M  V30 3222 C 303.495 0.427655 -1.55009 0
M  V30 3223 O 304.685 0.226157 -1.72726 0
M  V30 3224 C 301.817 0.330812 -3.39291 0
M  V30 3225 H 303.01 -1.33357 -2.68619 0
M  V30 3226 H 300.563 -0.728416 -1.38289 0
M  V30 3227 H 301.298 1.21852 -3.00537 0
M  V30 3228 H 301.083 -0.308679 -3.90883 0
M  V30 3229 H 302.573 0.657865 -4.12386 0
M  V30 3230 N 303.011 1.40521 -0.713556 0
M  V30 3231 C 304.288 1.94775 -0.17943 0
M  V30 3232 C 304.668 1.65184 1.31444 0
M  V30 3233 O 304.016 0.968429 2.06963 0
M  V30 3234 C 304.226 3.45543 -0.489986 0
M  V30 3235 C 305.574 4.22442 -0.427536 0
M  V30 3236 O 306.598 3.53644 -0.425929 0
M  V30 3237 O 305.457 5.4501 -0.403292 0
M  V30 3238 H 302.551 0.826606 -0.0255192 0
M  V30 3239 H 305.097 1.5014 -0.790949 0
M  V30 3240 H 303.869 3.60432 -1.5233 0
M  V30 3241 H 303.492 3.97311 0.151598 0
M  V30 3242 N 304.489 0.459591 1.5075 0
M  V30 3243 C 305.735 -0.0994966 2.02556 0
M  V30 3244 C 306.068 -1.40399 1.3417 0
M  V30 3245 O 305.343 -1.88892 0.463683 0
M  V30 3246 C 305.626 -0.295242 3.58888 0
M  V30 3247 C 305.479 1.02947 4.37861 0
M  V30 3248 C 306.798 -1.05502 4.27267 0
M  V30 3249 H 303.917 -0.034686 0.736183 0
M  V30 3250 H 306.559 0.602938 1.8018 0
M  V30 3251 H 304.709 -0.893563 3.78084 0
M  V30 3252 H 306.381 1.66348 4.30263 0
M  V30 3253 H 304.624 1.62885 4.02058 0
M  V30 3254 H 305.295 0.846281 5.45474 0
M  V30 3255 H 307.771 -0.547993 4.12476 0
M  V30 3256 H 306.647 -1.16077 5.36486 0
M  V30 3257 H 306.908 -2.08875 3.89645 0
M  V30 3258 N 305.967 -1.56429 0.191757 0
M  V30 3259 C 307.215 -1.97095 -0.447006 0
M  V30 3260 C 307.536 -1.07967 -1.62383 0
M  V30 3261 O 306.806 -0.150248 -1.95323 0
M  V30 3262 H 305.386 -0.727832 -0.168135 0
M  V30 3263 H 308.048 -1.92911 0.27771 0
M  V30 3264 H 307.144 -3.01848 -0.793371 0
M  V30 3265 N 307.445 0.0818655 -1.57387 0
M  V30 3266 C 308.408 1.08265 -2.02018 0
M  V30 3267 C 309.408 1.32183 -0.915664 0
M  V30 3268 O 310.598 1.28073 -1.18081 0
M  V30 3269 C 307.73 2.42871 -2.39221 0
M  V30 3270 H 308.923 0.698204 -2.91659 0
M  V30 3271 H 306.476 0.327303 -1.52835 0
M  V30 3272 H 307.211 2.86167 -1.52575 0
M  V30 3273 H 306.996 2.26855 -3.19811 0
M  V30 3274 H 308.486 3.14826 -2.74362 0
M  V30 3275 N 308.923 1.53595 0.353017 0
M  V30 3276 C 310.2 1.61002 1.11075 0
M  V30 3277 C 310.58 0.425356 2.0677 0
M  V30 3278 O 309.928 -0.583267 2.2093 0
M  V30 3279 C 310.138 2.96631 1.83877 0
M  V30 3280 C 311.486 3.51653 2.37961 0
M  V30 3281 O 312.51 2.98743 1.93987 0
M  V30 3282 O 311.369 4.44177 3.18386 0
M  V30 3283 H 308.463 0.650825 0.510251 0
M  V30 3284 H 311.009 1.6594 0.35527 0
M  V30 3285 H 309.781 3.74293 1.14108 0
M  V30 3286 H 309.404 2.95242 2.66304 0
M  V30 3287 N 310.401 -0.613514 1.45168 0
M  V30 3288 C 311.331 -1.7354 1.56225 0
M  V30 3289 C 312.312 -1.64981 0.41414 0
M  V30 3290 O 313.497 -1.83472 0.636526 0
M  V30 3291 C 310.627 -3.12128 1.52295 0
M  V30 3292 C 309.581 -3.35491 2.65762 0
M  V30 3293 C 308.907 -4.74291 2.46885 0
M  V30 3294 C 310.207 -3.26325 4.0781 0
M  V30 3295 H 311.901 -1.64543 2.50132 0
M  V30 3296 H 309.447 -0.790185 1.20383 0
M  V30 3297 H 311.4 -3.90404 1.58628 0
M  V30 3298 H 310.124 -3.2195 0.549139 0
M  V30 3299 H 308.783 -2.59603 2.58847 0
M  V30 3300 H 308.431 -4.80839 1.47657 0
M  V30 3301 H 308.131 -4.9088 3.22972 0
M  V30 3302 H 309.655 -5.54775 2.55063 0
M  V30 3303 H 311.069 -3.94483 4.16 0
M  V30 3304 H 309.466 -3.54445 4.8424 0
M  V30 3305 H 310.536 -2.23855 4.30136 0
M  V30 3306 N 311.879 -1.3236 -0.855495 0
M  V30 3307 C 313.104 -1.2601 -1.64731 0
M  V30 3308 C 313.529 0.169068 -1.87339 0
M  V30 3309 O 312.887 1.12016 -1.42556 0
M  V30 3310 C 312.935 -2.02417 -2.98429 0
M  V30 3311 O 312.039 -1.3714 -3.8893 0
M  V30 3312 H 311.38 -0.434325 -0.502253 0
M  V30 3313 H 313.91 -1.74661 -1.06558 0
M  V30 3314 H 313.92 -2.12559 -3.48257 0
M  V30 3315 H 312.595 -3.06343 -2.81295 0
M  V30 3316 H 311.172 -1.3554 -3.47395 0
M  V30 3317 N 313.357 1.07166 -1.15556 0
M  V30 3318 C 314.605 1.79443 -0.929764 0
M  V30 3319 C 314.926 1.87246 0.544414 0
M  V30 3320 O 314.196 1.37473 1.39564 0
M  V30 3321 H 312.776 0.664625 -0.341003 0
M  V30 3322 H 315.438 1.29499 -1.45657 0
M  V30 3323 H 314.534 2.81832 -1.34079 0
M  V30 3324 N 314.835 0.952656 1.25548 0
M  V30 3325 C 315.782 0.47008 2.25962 0
M  V30 3326 C 316.752 -0.476384 1.59122 0
M  V30 3327 O 317.937 -0.39007 1.8677 0
M  V30 3328 C 315.077 -0.247881 3.44209 0
M  V30 3329 C 314.19 0.735591 4.25691 0
M  V30 3330 C 313.325 -0.0047306 5.312 0
M  V30 3331 C 312.364 0.969805 6.04368 0
M  V30 3332 N 311.501 0.260486 7.01617 0
M  V30 3333 H 316.341 1.33126 2.66611 0
M  V30 3334 H 313.878 0.66765 1.31076 0
M  V30 3335 H 315.836 -0.680695 4.1161 0
M  V30 3336 H 314.466 -1.07312 3.0444 0
M  V30 3337 H 313.518 1.28689 3.57971 0
M  V30 3338 H 314.83 1.47934 4.76358 0
M  V30 3339 H 313.984 -0.496275 6.04667 0
M  V30 3340 H 312.723 -0.781282 4.81401 0
M  V30 3341 H 311.728 1.47237 5.29718 0
M  V30 3342 H 312.953 1.74655 6.56256 0
M  V30 3343 H 310.899 -0.497364 6.54112 0
M  V30 3344 H 310.816 0.943362 7.50091 0
M  V30 3345 H 312.084 -0.209587 7.79218 0
M  V30 3346 N 316.313 -1.40141 0.720998 0
M  V30 3347 C 317.261 -2.3252 0.0608547 0
M  V30 3348 C 318.255 -1.52326 -0.741152 0
M  V30 3349 O 319.461 -1.68089 -0.643911 0
M  V30 3350 H 315.836 -0.751999 0.000876664 0
M  V30 3351 H 317.807 -2.8584 0.856614 0
M  V30 3352 C 316.556 -3.37331 -0.842809 0
M  V30 3353 H 315.879 -3.99108 -0.235084 0
M  V30 3354 H 317.319 -4.04452 -1.27257 0
M  V30 3355 C 315.778 -2.73246 -1.97074 0
M  V30 3356 O 316.308 -2.59998 -3.06209 0
M  V30 3357 N 314.514 -2.31547 -1.75597 0
M  V30 3358 H 314.061 -2.42522 -0.868368 0
M  V30 3359 H 314.019 -1.89007 -2.51244 0
M  V30 3360 N 317.792 -0.46758 -1.50504 0
M  V30 3361 C 318.702 0.33382 -2.32213 0
M  V30 3362 C 319.718 0.999323 -1.42441 0
M  V30 3363 O 320.894 0.988068 -1.75497 0
M  V30 3364 C 317.959 1.4035 -3.17022 0
M  V30 3365 C 317.02 0.754961 -4.2261 0
M  V30 3366 C 316.253 1.77367 -5.03365 0
M  V30 3367 O 316.476 2.99976 -4.8515 0
M  V30 3368 O 315.41 1.34744 -5.86624 0
M  V30 3369 H 319.236 -0.334067 -3.01857 0
M  V30 3370 H 316.821 -0.229496 -1.47627 0
M  V30 3371 H 318.703 2.02318 -3.69656 0
M  V30 3372 H 317.378 2.05492 -2.5011 0
M  V30 3373 H 316.285 0.0964244 -3.73976 0
M  V30 3374 H 317.618 0.146545 -4.91982 0
M  V30 3375 N 319.27 1.56325 -0.20005 0
M  V30 3376 C 320.5 2.01811 0.442232 0
M  V30 3377 C 320.908 1.07932 1.55394 0
M  V30 3378 O 320.251 0.0772685 1.83537 0
M  V30 3379 C 320.313 3.43685 1.05457 0
M  V30 3380 C 319.977 4.56928 0.0809833 0
M  V30 3381 C 320.974 5.15009 -0.711471 0
M  V30 3382 C 318.659 5.0229 -0.0315364 0
M  V30 3383 C 320.653 6.16904 -1.60336 0
M  V30 3384 C 318.34 6.04028 -0.926981 0
M  V30 3385 C 319.338 6.6121 -1.71146 0
M  V30 3386 O 319.026 7.60971 -2.59189 0
M  V30 3387 H 318.758 0.666173 0.114848 0
M  V30 3388 H 321.312 2.03085 -0.307511 0
M  V30 3389 H 319.542 3.39413 1.85299 0
M  V30 3390 H 321.231 3.72948 1.60201 0
M  V30 3391 H 321.997 4.80827 -0.634873 0
M  V30 3392 H 317.876 4.57476 0.568902 0
M  V30 3393 H 321.42 6.61464 -2.21611 0
M  V30 3394 H 317.317 6.37634 -1.00468 0
M  V30 3395 H 318.085 7.7841 -2.53023 0
M  V30 3396 N 320.748 -0.0735177 1.57428 0
M  V30 3397 C 321.996 -0.771472 1.86796 0
M  V30 3398 C 322.317 -1.78201 0.791804 0
M  V30 3399 O 321.587 -1.95074 -0.179718 0
M  V30 3400 H 320.167 -0.28791 0.689287 0
M  V30 3401 H 322.829 -0.0500161 1.94836 0
M  V30 3402 H 321.925 -1.28874 2.8425 0
M  V30 3403 N 322.226 -1.5378 -0.344866 0
M  V30 3404 C 323.475 -1.7018 -1.08267 0
M  V30 3405 C 323.788 -0.471 -1.89845 0
M  V30 3406 O 324.994 -0.515917 -2.66553 0
M  V30 3407 C 323.45 -3.00923 -1.97417 0
M  V30 3408 C 323.058 -4.31335 -1.21053 0
M  V30 3409 C 324.802 -3.26688 -2.71063 0
M  V30 3410 C 322.709 -5.53153 -2.09225 0
M  V30 3411 H 321.639 -0.634138 -0.407903 0
M  V30 3412 H 324.29 -1.8028 -0.342246 0
M  V30 3413 H 322.672 -2.84676 -2.75274 0
M  V30 3414 H 323.846 -4.58281 -0.481159 0
M  V30 3415 H 322.161 -4.12173 -0.591813 0
M  V30 3416 H 324.758 -4.1489 -3.37299 0
M  V30 3417 H 325.101 -2.43639 -3.37558 0
M  V30 3418 H 325.634 -3.43705 -2.0028 0
M  V30 3419 H 322.373 -6.38741 -1.47274 0
M  V30 3420 H 321.893 -5.30458 -2.79955 0
M  V30 3421 H 323.572 -5.88744 -2.68308 0
M  V30 3422 N 323.704 0.605807 -1.45491 0
M  V30 3423 C 325.115 1.18777 -1.44045 0
M  V30 3424 C 325.466 1.95471 -0.169001 0
M  V30 3425 O 324.591 2.0374 0.729324 0
M  V30 3426 C 325.186 2.16064 -2.60963 0
M  V30 3427 C 323.745 2.69633 -2.62631 0
M  V30 3428 C 322.892 1.45072 -2.36325 0
M  V30 3429 H 325.843 0.395017 -1.53705 0
M  V30 3430 H 325.864 2.9913 -2.35163 0
M  V30 3431 H 325.376 1.60217 -3.53486 0
M  V30 3432 H 323.477 3.29414 -1.74119 0
M  V30 3433 H 323.59 3.13944 -3.61906 0
M  V30 3434 H 321.954 1.74089 -1.85917 0
M  V30 3435 H 322.737 0.910899 -3.30995 0
M  V30 3436 N 325.182 1.32811 0.848464 0
M  V30 3437 C 326.092 1.24278 1.98978 0
M  V30 3438 C 327.108 0.155176 1.73307 0
M  V30 3439 O 328.284 0.376999 1.9784 0
M  V30 3440 C 325.349 0.972444 3.32783 0
M  V30 3441 C 324.41 2.14911 3.71634 0
M  V30 3442 C 323.643 1.89157 4.99054 0
M  V30 3443 O 323.866 0.837165 5.64223 0
M  V30 3444 O 322.8 2.75433 5.35183 0
M  V30 3445 H 326.626 2.20238 2.09115 0
M  V30 3446 H 324.211 1.12762 0.980052 0
M  V30 3447 H 326.093 0.838432 4.12975 0
M  V30 3448 H 324.768 0.043051 3.23671 0
M  V30 3449 H 323.675 2.33862 2.91992 0
M  V30 3450 H 325.008 3.06151 3.85399 0
M  V30 3451 N 326.66 -1.06551 1.16123 0
M  V30 3452 C 327.937 -1.76097 0.85142 0
M  V30 3453 C 328.317 -2.00802 -0.6513 0
M  V30 3454 O 327.665 -1.63302 -1.59827 0
M  V30 3455 C 327.875 -3.06384 1.67122 0
M  V30 3456 C 329.223 -3.80585 1.88255 0
M  V30 3457 O 330.247 -3.16218 1.63966 0
M  V30 3458 O 329.106 -4.96212 2.2899 0
M  V30 3459 H 326.2 -0.765102 0.313923 0
M  V30 3460 H 328.746 -1.12844 1.26745 0
M  V30 3461 H 327.518 -2.84071 2.69108 0
M  V30 3462 H 327.141 -3.77371 1.25206 0
M  V30 3463 N 328.138 -0.959301 -1.25041 0
M  V30 3464 C 329.415 -0.533805 -1.88175 0
M  V30 3465 C 329.795 0.988994 -1.865 0
M  V30 3466 O 329.143 1.85677 -1.33177 0
M  V30 3467 C 329.353 -1.11575 -3.30684 0
M  V30 3468 C 330.701 -1.19548 -4.07423 0
M  V30 3469 O 331.725 -1.06765 -3.39823 0
M  V30 3470 O 330.584 -1.39656 -5.28354 0
M  V30 3471 H 327.678 -0.176772 -0.807887 0
M  V30 3472 H 330.224 -1.05303 -1.33076 0
M  V30 3473 H 328.996 -2.15884 -3.26358 0
M  V30 3474 H 328.619 -0.580059 -3.93346 0
M  V30 3475 N 329.616 1.39756 -0.72842 0
M  V30 3476 C 330.865 1.99879 -0.270407 0
M  V30 3477 C 331.178 1.58449 1.14688 0
M  V30 3478 O 332.384 2.11362 1.70407 0
M  V30 3479 C 330.84 3.57292 -0.43252 0
M  V30 3480 C 330.448 4.07688 -1.85727 0
M  V30 3481 C 332.192 4.24485 -0.0359507 0
M  V30 3482 C 330.099 5.5765 -1.96928 0
M  V30 3483 H 329.029 0.747689 -0.0973472 0
M  V30 3484 H 331.68 1.59837 -0.901355 0
M  V30 3485 H 330.062 3.95097 0.267219 0
M  V30 3486 H 331.236 3.81231 -2.58843 0
M  V30 3487 H 329.551 3.53135 -2.20646 0
M  V30 3488 H 332.148 5.34609 -0.0987484 0
M  V30 3489 H 332.491 4.03915 1.00787 0
M  V30 3490 H 333.024 3.9183 -0.686604 0
M  V30 3491 H 329.763 5.8309 -2.99476 0
M  V30 3492 H 329.283 5.8593 -1.28241 0
M  V30 3493 H 330.962 6.22957 -1.74737 0
M  V30 3494 N 331.094 0.475555 1.50254 0
M  V30 3495 C 332.51 0.12997 1.5907 0
M  V30 3496 C 332.71 -1.36385 1.48328 0
M  V30 3497 O 331.766 -2.13754 1.34407 0
M  V30 3498 C 333.079 0.684139 2.92814 0
M  V30 3499 C 334.627 0.647965 3.0622 0
M  V30 3500 C 335.102 1.17975 4.42545 0
M  V30 3501 N 336.593 1.13936 4.48969 0
M  V30 3502 C 337.328 1.52129 5.52851 0
M  V30 3503 N 336.824 1.97793 6.63965 0
M  V30 3504 N 338.617 1.43704 5.4342 0
M  V30 3505 H 330.768 1.44706 1.55479 0
M  V30 3506 H 333.031 0.598691 0.735033 0
M  V30 3507 H 332.737 1.73079 3.06164 0
M  V30 3508 H 332.611 0.130204 3.76975 0
M  V30 3509 H 334.998 -0.38979 2.92514 0
M  V30 3510 H 335.079 1.23876 2.23805 0
M  V30 3511 H 334.723 2.21616 4.57 0
M  V30 3512 H 334.653 0.565138 5.23559 0
M  V30 3513 H 337.144 0.804488 3.69238 0
M  V30 3514 H 337.457 2.25072 7.39299 0
M  V30 3515 H 335.802 2.01749 6.65073 0
M  V30 3516 H 338.993 1.07867 4.55502 0
M  V30 3517 H 339.166 1.73794 6.24259 0
M  V30 3518 N 332.573 -1.56217 0.208337 0
M  V30 3519 C 333.521 -2.21053 -0.723769 0
M  V30 3520 C 334.515 -1.18578 -1.20978 0
M  V30 3521 O 335.721 -1.36691 -1.17114 0
M  V30 3522 H 332.096 -0.708595 -0.251788 0
M  V30 3523 H 334.067 -2.98006 -0.153365 0
M  V30 3524 C 332.816 -2.89417 -1.927 0
M  V30 3525 H 332.139 -3.68019 -1.56212 0
M  V30 3526 H 333.579 -3.38201 -2.55727 0
M  V30 3527 C 332.038 -1.91166 -2.77411 0
M  V30 3528 O 332.568 -1.42026 -3.75754 0
M  V30 3529 N 330.774 -1.59105 -2.43175 0
M  V30 3530 H 330.321 -1.99259 -1.63259 0
M  V30 3531 H 330.279 -0.936255 -3.00136 0
M  V30 3532 N 334.051 0.0651679 -1.57465 0
M  V30 3533 C 335.462 0.616213 -1.76238 0
M  V30 3534 C 335.813 1.7756 -0.834689 0
M  V30 3535 O 334.938 2.1639 -0.0204156 0
M  V30 3536 C 335.533 1.12462 -3.1959 0
M  V30 3537 C 334.092 1.62147 -3.39684 0
M  V30 3538 C 333.239 0.543739 -2.71917 0
M  V30 3539 H 336.19 -0.161022 -1.57881 0
M  V30 3540 H 336.211 1.99324 -3.24114 0
M  V30 3541 H 335.723 0.280592 -3.87084 0
M  V30 3542 H 333.824 2.48854 -2.77313 0
M  V30 3543 H 333.937 1.69385 -4.48158 0
M  V30 3544 H 332.301 0.990352 -2.34657 0
M  V30 3545 H 333.084 -0.290216 -3.42071 0
M  V30 3546 N 335.529 1.53961 0.336706 0
M  V30 3547 C 336.492 1.81724 1.39675 0
M  V30 3548 C 337.492 0.688532 1.45313 0
M  V30 3549 O 338.682 0.956829 1.45569 0
M  V30 3550 C 335.814 1.96543 2.78538 0
M  V30 3551 H 337.007 2.76424 1.16318 0
M  V30 3552 H 334.56 1.45478 0.571474 0
M  V30 3553 H 335.295 1.0401 3.07168 0
M  V30 3554 H 335.08 2.78665 2.75841 0
M  V30 3555 H 336.57 2.19516 3.5525 0
M  V30 3556 N 337.007 -0.598083 1.45811 0
M  V30 3557 C 338.247 -1.36802 1.5187 0
M  V30 3558 C 338.611 -1.9133 0.160224 0
M  V30 3559 O 339.812 -2.6863 0.0955302 0
M  V30 3560 C 338.083 -2.47835 2.57513 0
M  V30 3561 S 339.642 -3.35458 2.82866 0
M  V30 3562 H 336.46 -0.466278 0.536755 0
M  V30 3563 H 339.062 -0.689152 1.82951 0
M  V30 3564 H 337.766 -2.06141 3.54872 0
M  V30 3565 H 337.297 -3.20512 2.28114 0
M  V30 3566 H 339.312 -4.46251 2.16967 0
M  V30 3567 N 338.485 -1.33259 -0.841409 0
M  V30 3568 C 339.734 -1.23921 -1.59143 0
M  V30 3569 C 340.047 0.1941 -1.94635 0
M  V30 3570 O 341.253 0.409474 -2.68394 0
M  V30 3571 C 339.709 -2.17119 -2.87032 0
M  V30 3572 C 339.317 -3.65606 -2.58914 0
M  V30 3573 C 341.061 -2.16648 -3.65053 0
M  V30 3574 C 338.968 -4.50726 -3.82884 0
M  V30 3575 H 337.898 -0.460264 -0.597221 0
M  V30 3576 H 340.549 -1.58307 -0.927959 0
M  V30 3577 H 338.931 -1.75663 -3.54906 0
M  V30 3578 H 340.105 -4.15487 -1.99267 0
M  V30 3579 H 338.42 -3.68341 -1.942 0
M  V30 3580 H 341.017 -2.77474 -4.57069 0
M  V30 3581 H 341.36 -1.16088 -3.99787 0
M  V30 3582 H 341.893 -2.56453 -3.041 0
M  V30 3583 H 338.632 -5.52151 -3.53283 0
M  V30 3584 H 338.152 -4.0559 -4.41879 0
M  V30 3585 H 339.831 -4.64401 -4.50489 0
M  V30 3586 N 339.963 1.05934 -1.16686 0
M  V30 3587 C 340.926 2.11669 -0.879144 0
M  V30 3588 C 341.926 1.60294 0.127445 0
M  V30 3589 O 343.116 1.7389 -0.103865 0
M  V30 3590 C 340.248 3.39438 -0.315425 0
M  V30 3591 H 341.441 2.38626 -1.81653 0
M  V30 3592 H 338.994 1.22058 -0.976299 0
M  V30 3593 H 339.729 3.18132 0.629468 0
M  V30 3594 H 339.514 3.78034 -1.04079 0
M  V30 3595 H 341.004 4.17391 -0.132189 0
M  V30 3596 N 341.441 0.965919 1.2453 0
M  V30 3597 C 342.718 0.543777 1.87889 0
M  V30 3598 C 343.098 -0.97909 1.87021 0
M  V30 3599 O 342.446 -1.84969 1.3416 0
M  V30 3600 C 342.656 1.13327 3.30088 0
M  V30 3601 C 344.004 1.21707 4.06783 0
M  V30 3602 O 345.028 1.08566 3.39252 0
M  V30 3603 O 343.887 1.42456 5.27606 0
M  V30 3604 H 340.981 0.181054 0.806938 0
M  V30 3605 H 343.527 1.06007 1.32516 0
M  V30 3606 H 342.299 2.17612 3.25209 0
M  V30 3607 H 341.922 0.600911 3.93033 0
M  V30 3608 N 342.919 -1.39368 0.735821 0
M  V30 3609 C 343.867 -2.32443 0.0855131 0
M  V30 3610 C 344.861 -1.53104 -0.724954 0
M  V30 3611 O 346.067 -1.68762 -0.626047 0
M  V30 3612 H 342.442 -0.751948 0.00885257 0
M  V30 3613 H 344.413 -2.84916 0.886883 0
M  V30 3614 C 343.162 -3.38206 -0.806983 0
M  V30 3615 H 342.485 -3.99335 -0.19274 0
M  V30 3616 H 343.925 -4.05779 -1.2296 0
M  V30 3617 C 342.384 -2.75321 -1.94165 0
M  V30 3618 O 342.914 -2.63231 -3.03435 0
M  V30 3619 N 341.12 -2.33396 -1.73132 0
M  V30 3620 H 340.667 -2.4343 -0.842596 0
M  V30 3621 H 340.625 -1.91661 -2.49225 0
M  V30 3622 N 344.397 -0.483516 -1.5 0
M  V30 3623 C 345.643 0.0672592 -2.02688 0
M  V30 3624 C 345.976 1.38247 -1.36387 0
M  V30 3625 O 345.251 1.88131 -0.493675 0
M  V30 3626 C 345.534 0.238109 -3.59312 0
M  V30 3627 C 345.387 -1.099 -4.36168 0
M  V30 3628 C 346.706 0.986916 -4.28892 0
M  V30 3629 H 343.825 0.0229696 -0.736642 0
M  V30 3630 H 346.467 -0.631527 -1.79197 0
M  V30 3631 H 344.617 0.8333 -3.79458 0
M  V30 3632 H 346.289 -1.73172 -4.27562 0
M  V30 3633 H 344.532 -1.69261 -3.99416 0
M  V30 3634 H 345.203 -0.932954 -5.44059 0
M  V30 3635 H 347.679 0.482302 -4.13295 0
M  V30 3636 H 346.555 1.07527 -5.38265 0
M  V30 3637 H 346.816 2.0265 -3.92919 0
M  V30 3638 N 345.875 1.56104 -0.216619 0
M  V30 3639 C 347.123 1.97781 0.415593 0
M  V30 3640 C 347.444 1.10536 1.60645 0
M  V30 3641 O 346.714 0.181303 1.95059 0
M  V30 3642 H 345.294 0.730415 0.156534 0
M  V30 3643 H 347.956 1.92445 -0.308366 0
M  V30 3644 H 347.052 3.03072 0.74525 0
M  V30 3645 N 347.353 -0.0568162 1.57498 0
M  V30 3646 C 348.63 -0.786954 1.79071 0
M  V30 3647 C 349.01 -1.95028 0.80792 0
M  V30 3648 O 348.358 -2.27968 -0.155858 0
M  V30 3649 C 348.568 -1.24594 3.26002 0
M  V30 3650 C 349.916 -1.67323 3.90241 0
M  V30 3651 O 350.94 -1.34124 3.29984 0
M  V30 3652 O 349.799 -2.28842 4.9628 0
M  V30 3653 H 346.893 -0.378262 0.735423 0
M  V30 3654 H 349.439 -0.035734 1.69662 0
M  V30 3655 H 348.211 -0.41423 3.89101 0
M  V30 3656 H 347.834 -2.05803 3.40192 0
M  V30 3657 N 348.832 -1.54138 -0.328536 0
M  V30 3658 C 349.78 -1.83894 -1.42428 0
M  V30 3659 C 350.774 -0.710478 -1.53781 0
M  V30 3660 O 351.98 -0.894062 -1.56226 0
M  V30 3661 H 348.355 -0.582837 -0.475189 0
M  V30 3662 H 350.326 -2.75537 -1.14552 0
M  V30 3663 C 349.075 -2.07866 -2.78724 0
M  V30 3664 H 348.398 -2.94158 -2.7076 0
M  V30 3665 H 349.838 -2.32644 -3.54476 0
M  V30 3666 C 348.297 -0.868689 -3.25508 0
M  V30 3667 O 348.827 -0.0754908 -4.01629 0
M  V30 3668 N 347.033 -0.681711 -2.82491 0
M  V30 3669 H 346.58 -1.32838 -2.20708 0
M  V30 3670 H 346.538 0.126374 -3.14146 0
M  V30 3671 N 350.31 0.590341 -1.46126 0
M  V30 3672 C 351.556 1.35082 -1.51264 0
M  V30 3673 C 351.889 1.93534 -0.160711 0
M  V30 3674 O 351.164 1.76045 0.826956 0
M  V30 3675 C 351.447 2.48588 -2.6053 0
M  V30 3676 C 351.3 1.95221 -4.05227 0
M  V30 3677 C 352.619 3.50662 -2.6594 0
M  V30 3678 H 349.738 0.489803 -0.550692 0
M  V30 3679 H 352.38 0.663887 -1.78024 0
M  V30 3680 H 350.53 3.07186 -2.37843 0
M  V30 3681 H 352.202 1.41139 -4.39178 0
M  V30 3682 H 350.445 1.26101 -4.15068 0
M  V30 3683 H 351.116 2.77121 -4.77397 0
M  V30 3684 H 353.592 3.01934 -2.86313 0
M  V30 3685 H 352.468 4.27551 -3.44226 0
M  V30 3686 H 352.729 4.07399 -1.71694 0
M  V30 3687 N 351.788 1.33704 0.83433 0
M  V30 3688 C 353.036 1.25169 1.58673 0
M  V30 3689 C 353.357 -0.18127 1.94156 0
M  V30 3690 O 352.627 -1.11113 1.6134 0
M  V30 3691 H 351.207 0.4603 0.58833 0
M  V30 3692 H 353.869 1.67478 0.996847 0
M  V30 3693 H 352.965 1.84856 2.51465 0
M  V30 3694 N 353.266 -1.05314 1.17247 0
M  V30 3695 C 354.543 -1.75184 0.87005 0
M  V30 3696 C 354.923 -2.01481 -0.629965 0
M  V30 3697 O 354.271 -1.64988 -1.58086 0
M  V30 3698 C 354.481 -3.04594 1.70363 0
M  V30 3699 C 355.829 -3.78567 1.92281 0
M  V30 3700 O 356.853 -3.14461 1.67311 0
M  V30 3701 O 355.712 -4.93755 2.3424 0
M  V30 3702 H 352.806 -0.761729 0.322021 0
M  V30 3703 H 355.352 -1.11493 1.27935 0
M  V30 3704 H 354.124 -2.81201 2.72106 0
M  V30 3705 H 353.747 -3.76022 1.29202 0
M  V30 3706 N 354.744 -0.972509 -1.24016 0
M  V30 3707 C 355.677 -0.45117 -2.23696 0
M  V30 3708 C 356.655 0.477378 -1.55434 0
M  V30 3709 O 357.839 0.407647 -1.84039 0
M  V30 3710 C 354.966 0.34818 -3.36906 0
M  V30 3711 C 354.012 -0.523355 -4.23277 0
M  V30 3712 S 354.845 -1.96647 -4.98087 0
M  V30 3713 C 356.001 -1.17604 -6.14752 0
M  V30 3714 H 356.234 -1.29588 -2.67571 0
M  V30 3715 H 353.767 -0.777903 -1.33372 0
M  V30 3716 H 355.725 0.803387 -4.02562 0
M  V30 3717 H 354.386 1.16792 -2.91579 0
M  V30 3718 H 353.579 0.0906181 -5.03919 0
M  V30 3719 H 353.181 -0.914485 -3.62647 0
M  V30 3720 H 355.473 -0.433434 -6.76112 0
M  V30 3721 H 356.416 -1.95701 -6.8052 0
M  V30 3722 H 356.824 -0.698295 -5.60164 0
M  V30 3723 N 356.222 1.38976 -0.743202 0
M  V30 3724 C 357.185 2.28901 -0.117014 0
M  V30 3725 C 358.185 1.46698 0.658503 0
M  V30 3726 O 359.375 1.67274 0.486305 0
M  V30 3727 C 356.507 3.30309 0.84315 0
M  V30 3728 H 357.7 2.8578 -0.909373 0
M  V30 3729 H 355.253 1.47761 -0.509547 0
M  V30 3730 H 355.988 2.785 1.66157 0
M  V30 3731 H 355.773 3.91029 0.289594 0
M  V30 3732 H 357.263 3.97577 1.2776 0
M  V30 3733 N 357.7 0.491464 1.49741 0
M  V30 3734 C 358.948 -0.0563141 2.02022 0
M  V30 3735 C 359.269 -1.38363 1.37407 0
M  V30 3736 O 358.539 -1.88702 0.526166 0
M  V30 3737 H 357.119 -0.0238014 0.746621 0
M  V30 3738 H 359.781 0.646533 1.83864 0
M  V30 3739 H 358.877 -0.192967 3.11503 0
M  V30 3740 N 359.178 -1.55987 0.224894 0
M  V30 3741 C 360.111 -2.16413 -0.723929 0
M  V30 3742 C 361.089 -1.10952 -1.18863 0
M  V30 3743 O 362.273 -1.39225 -1.27077 0
M  V30 3744 C 359.4 -2.74711 -1.98121 0
M  V30 3745 C 358.446 -3.9303 -1.6562 0
M  V30 3746 S 359.279 -5.29817 -0.778058 0
M  V30 3747 C 360.435 -5.91555 -2.04483 0
M  V30 3748 H 360.668 -2.96555 -0.210347 0
M  V30 3749 H 358.201 -1.54397 0.00955457 0
M  V30 3750 H 360.159 -3.08938 -2.70311 0
M  V30 3751 H 358.82 -1.94555 -2.46591 0
M  V30 3752 H 358.013 -4.32334 -2.59043 0
M  V30 3753 H 357.615 -3.59966 -1.01491 0
M  V30 3754 H 359.907 -6.07732 -2.99446 0
M  V30 3755 H 360.85 -6.87498 -1.69563 0
M  V30 3756 H 361.258 -5.20419 -2.18688 0
M  V30 3757 N 360.656 0.0484629 -1.57525 0
M  V30 3758 C 361.904 0.741657 -1.88 0
M  V30 3759 C 362.225 1.76918 -0.820054 0
M  V30 3760 O 361.495 1.95335 0.148661 0
M  V30 3761 H 360.075 0.276908 -0.69378 0
M  V30 3762 H 362.737 0.019013 -1.94891 0
M  V30 3763 H 361.833 1.24336 -2.86264 0
M  V30 3764 N 362.134 1.5431 0.320358 0
M  V30 3765 C 363.097 1.83195 1.3774 0
M  V30 3766 C 364.097 0.703906 1.44575 0
M  V30 3767 O 365.287 0.972214 1.44546 0
M  V30 3768 C 362.419 1.99487 2.76438 0
M  V30 3769 H 363.612 2.77642 1.1338 0
M  V30 3770 H 361.165 1.46076 0.556012 0
M  V30 3771 H 361.9 1.07262 3.06048 0
M  V30 3772 H 361.685 2.81575 2.7287 0
M  V30 3773 H 363.175 2.23271 3.52902 0
M  V30 3774 N 363.613 -0.582584 1.46437 0
M  V30 3775 C 364.89 -1.34276 1.4223 0
M  V30 3776 C 365.27 -2.10835 0.10583 0
M  V30 3777 O 364.618 -2.09485 -0.912596 0
M  V30 3778 C 364.828 -2.26865 2.65204 0
M  V30 3779 C 366.176 -2.88691 3.11356 0
M  V30 3780 O 367.2 -2.37178 2.65753 0
M  V30 3781 O 366.059 -3.82255 3.90568 0
M  V30 3782 H 363.153 -0.603326 0.565621 0
M  V30 3783 H 365.699 -0.603591 1.58603 0
M  V30 3784 H 364.471 -1.69724 3.52576 0
M  V30 3785 H 364.094 -3.08122 2.5129 0
M  V30 3786 N 365.091 -1.34144 -0.827227 0
M  V30 3787 C 366.021 -1.28005 -1.95287 0
M  V30 3788 C 367.002 -0.158321 -1.69362 0
M  V30 3789 O 368.187 -0.349987 -1.9102 0
M  V30 3790 C 365.317 -1.03036 -3.31664 0
M  V30 3791 C 364.271 -2.11628 -3.72019 0
M  V30 3792 C 363.597 -1.71854 -5.0633 0
M  V30 3793 C 364.897 -3.53417 -3.8457 0
M  V30 3794 H 366.591 -2.22187 -2.00682 0
M  V30 3795 H 364.137 -1.0696 -0.964135 0
M  V30 3796 H 366.09 -0.973863 -4.09993 0
M  V30 3797 H 364.814 -0.0529391 -3.26557 0
M  V30 3798 H 363.473 -2.16339 -2.95961 0
M  V30 3799 H 363.121 -0.727841 -4.97706 0
M  V30 3800 H 362.821 -2.44531 -5.34302 0
M  V30 3801 H 364.345 -1.67692 -5.87122 0
M  V30 3802 H 365.759 -3.51142 -4.5318 0
M  V30 3803 H 364.156 -4.24679 -4.2399 0
M  V30 3804 H 365.226 -3.91072 -2.86689 0
M  V30 3805 N 366.569 1.04691 -1.17803 0
M  V30 3806 C 367.816 1.77782 -0.969532 0
M  V30 3807 C 368.144 1.87926 0.501401 0
M  V30 3808 O 367.399 1.37918 1.38842 0
M  V30 3809 C 367.698 3.21467 -1.56186 0
M  V30 3810 C 367.364 3.3137 -3.05786 0
M  V30 3811 C 366.026 3.3378 -3.46619 0
M  V30 3812 C 368.378 3.31976 -4.01797 0
M  V30 3813 C 365.706 3.34431 -4.82051 0
M  V30 3814 C 368.058 3.34167 -5.37136 0
M  V30 3815 C 366.722 3.34866 -5.77426 0
M  V30 3816 H 365.992 0.650549 -0.354777 0
M  V30 3817 H 368.639 1.23006 -1.46772 0
M  V30 3818 H 366.944 3.79203 -0.985515 0
M  V30 3819 H 368.641 3.76652 -1.37602 0
M  V30 3820 H 365.231 3.3021 -2.73238 0
M  V30 3821 H 369.415 3.29311 -3.71306 0
M  V30 3822 H 364.671 3.33285 -5.12573 0
M  V30 3823 H 368.845 3.33585 -6.11305 0
M  V30 3824 H 366.472 3.35124 -6.82346 0
M  V30 3825 N 368.047 0.979072 1.23499 0
M  V30 3826 C 369.295 0.645941 1.91499 0
M  V30 3827 C 369.616 -0.822948 1.76784 0
M  V30 3828 O 368.886 -1.58854 1.14639 0
M  V30 3829 H 367.466 0.235919 0.708767 0
M  V30 3830 H 370.128 1.2426 1.50152 0
M  V30 3831 H 369.224 0.896411 2.9895 0
M  V30 3832 N 369.525 -1.3858 0.750561 0
M  V30 3833 C 370.75 -2.04997 0.314812 0
M  V30 3834 C 371.175 -1.56235 -1.04749 0
M  V30 3835 O 370.533 -0.712981 -1.66692 0
M  V30 3836 C 370.581 -3.58961 0.343415 0
M  V30 3837 O 369.685 -4.07025 -0.663628 0
M  V30 3838 H 369.026 -0.649081 0.139962 0
M  V30 3839 H 371.556 -1.77313 1.02084 0
M  V30 3840 H 371.566 -4.07542 0.193233 0
M  V30 3841 H 370.241 -3.93811 1.33738 0
M  V30 3842 H 368.818 -3.6982 -0.478307 0
M  V30 3843 N 371.003 -0.499398 -1.49478 0
M  V30 3844 C 371.933 0.269244 -2.31943 0
M  V30 3845 C 372.914 0.964054 -1.40143 0
M  V30 3846 O 374.099 0.955767 -1.69052 0
M  V30 3847 C 371.229 1.33504 -3.20615 0
M  V30 3848 C 370.183 0.760202 -4.21195 0
M  V30 3849 C 369.509 1.9264 -4.98792 0
M  V30 3850 C 370.809 -0.247661 -5.21712 0
M  V30 3851 H 372.503 -0.419082 -2.96452 0
M  V30 3852 H 370.049 -0.202988 -1.42562 0
M  V30 3853 H 372.002 1.88048 -3.77115 0
M  V30 3854 H 370.726 2.05253 -2.54045 0
M  V30 3855 H 369.385 0.23653 -3.65836 0
M  V30 3856 H 369.033 2.63154 -4.28671 0
M  V30 3857 H 368.733 1.54785 -5.66847 0
M  V30 3858 H 370.257 2.4762 -5.58137 0
M  V30 3859 H 371.671 0.209579 -5.72917 0
M  V30 3860 H 370.068 -0.541962 -5.97648 0
M  V30 3861 H 371.138 -1.16409 -4.7072 0
M  V30 3862 N 372.481 1.55866 -0.233164 0
M  V30 3863 C 373.444 2.1953 0.658715 0
M  V30 3864 C 374.444 1.16053 1.11303 0
M  V30 3865 O 375.634 1.41218 1.01996 0
M  V30 3866 C 372.766 2.82791 1.90373 0
M  V30 3867 H 373.959 2.99721 0.10347 0
M  V30 3868 H 371.512 1.56291 0.0164245 0
M  V30 3869 H 372.247 2.06501 2.50056 0
M  V30 3870 H 372.032 3.58578 1.58632 0
M  V30 3871 H 373.522 3.31556 2.53891 0
M  V30 3872 N 373.959 -0.0401083 1.57549 0
M  V30 3873 C 374.869 -1.06133 2.0922 0
M  V30 3874 C 375.885 -1.40356 1.0284 0
M  V30 3875 O 377.061 -1.49897 1.34509 0
M  V30 3876 C 374.126 -2.34658 2.55218 0
M  V30 3877 C 373.187 -2.07117 3.76033 0
M  V30 3878 C 372.42 -3.29514 4.19829 0
M  V30 3879 O 372.643 -4.39794 3.63232 0
M  V30 3880 O 371.577 -3.15863 5.12362 0
M  V30 3881 H 375.403 -0.652244 2.96613 0
M  V30 3882 H 372.988 -0.256368 1.47184 0
M  V30 3883 H 374.87 -3.10239 2.85184 0
M  V30 3884 H 373.545 -2.74883 1.70941 0
M  V30 3885 H 372.452 -1.29139 3.51104 0
M  V30 3886 H 373.785 -1.71754 4.61261 0
M  V30 3887 N 375.437 -1.54477 -0.31217 0
M  V30 3888 C 376.662 -1.77526 -1.07235 0
M  V30 3889 C 377.087 -0.527775 -1.80544 0
M  V30 3890 O 376.445 0.52121 -1.73646 0
M  V30 3891 C 376.493 -2.97535 -2.03728 0
M  V30 3892 O 375.597 -2.69878 -3.11833 0
M  V30 3893 H 374.938 -0.58792 -0.30862 0
M  V30 3894 H 377.468 -2.01532 -0.352993 0
M  V30 3895 H 377.478 -3.25198 -2.46395 0
M  V30 3896 H 376.153 -3.87996 -1.49774 0
M  V30 3897 H 374.73 -2.53199 -2.7376 0
M  V30 3898 N 376.915 0.57481 -1.46744 0
M  V30 3899 C 377.845 1.69337 -1.60771 0
M  V30 3900 C 378.826 1.63825 -0.457736 0
M  V30 3901 O 380.011 1.8172 -0.684947 0
M  V30 3902 C 377.141 3.0798 -1.60517 0
M  V30 3903 C 376.095 3.28327 -2.74564 0
M  V30 3904 C 375.421 4.67578 -2.59373 0
M  V30 3905 C 376.721 3.15398 -4.16319 0
M  V30 3906 H 378.415 1.57853 -2.54407 0
M  V30 3907 H 375.961 0.75799 -1.22436 0
M  V30 3908 H 377.914 3.86061 -1.68923 0
M  V30 3909 H 376.638 3.20381 -0.634305 0
M  V30 3910 H 375.297 2.52649 -2.65639 0
M  V30 3911 H 374.945 4.76755 -1.60353 0
M  V30 3912 H 374.645 4.82144 -3.35873 0
M  V30 3913 H 376.169 5.47817 -2.69682 0
M  V30 3914 H 377.583 3.83315 -4.26313 0
M  V30 3915 H 375.98 3.41482 -4.93468 0
M  V30 3916 H 377.05 2.12372 -4.3592 0
M  V30 3917 N 378.394 1.34581 0.820102 0
M  V30 3918 C 379.634 1.28448 1.58998 0
M  V30 3919 C 379.998 -0.142883 1.91468 0
M  V30 3920 O 381.199 -0.328422 2.66786 0
M  V30 3921 C 379.47 2.153 2.85273 0
M  V30 3922 S 381.029 2.26548 3.75794 0
M  V30 3923 H 377.847 0.456685 0.54494 0
M  V30 3924 H 380.449 1.69825 0.968487 0
M  V30 3925 H 379.153 3.18008 2.59421 0
M  V30 3926 H 378.684 1.7483 3.52417 0
M  V30 3927 H 380.699 1.44034 4.74835 0
M  V30 3928 N 379.872 -1.04064 1.18357 0
M  V30 3929 C 380.835 -2.10243 0.912707 0
M  V30 3930 C 381.835 -1.60477 -0.101928 0
M  V30 3931 O 383.025 -1.73703 0.131517 0
M  V30 3932 C 380.157 -3.38893 0.369387 0
M  V30 3933 H 381.35 -2.35706 1.85426 0
M  V30 3934 H 378.903 -1.20489 0.995594 0
M  V30 3935 H 379.638 -3.19094 -0.578776 0
M  V30 3936 H 379.423 -3.76331 1.1008 0
M  V30 3937 H 380.913 -4.17128 0.198575 0
M  V30 3938 N 381.35 -0.985608 -1.22978 0
M  V30 3939 C 382.313 -0.535071 -2.22867 0
M  V30 3940 C 383.313 0.378123 -1.56291 0
M  V30 3941 O 384.503 0.171092 -1.73358 0
M  V30 3942 C 381.635 0.222702 -3.40172 0
M  V30 3943 H 382.828 -1.41835 -2.6424 0
M  V30 3944 H 380.381 -0.772042 -1.35901 0
M  V30 3945 H 381.116 1.12229 -3.04262 0
M  V30 3946 H 380.901 -0.43288 -3.89703 0
M  V30 3947 H 382.391 0.526335 -4.1427 0
M  V30 3948 N 382.828 1.3818 -0.7579 0
M  V30 3949 C 383.758 2.33027 -0.148597 0
M  V30 3950 C 384.739 1.55085 0.69875 0
M  V30 3951 O 385.924 1.83384 0.639053 0
M  V30 3952 C 383.054 3.3928 0.742034 0
M  V30 3953 C 382.008 4.28 -0.00291946 0
M  V30 3954 C 381.334 5.25146 1.00625 0
M  V30 3955 C 382.634 5.08938 -1.17385 0
M  V30 3956 H 384.328 2.84231 -0.940909 0
M  V30 3957 H 381.874 1.36659 -0.453908 0
M  V30 3958 H 383.827 4.046 1.17799 0
M  V30 3959 H 382.551 2.86569 1.56671 0
M  V30 3960 H 381.21 3.64192 -0.419504 0
M  V30 3961 H 380.858 4.68721 1.8251 0
M  V30 3962 H 380.558 5.85361 0.512428 0
M  V30 3963 H 382.082 5.93342 1.44143 0
M  V30 3964 H 383.496 5.67474 -0.815224 0
M  V30 3965 H 381.893 5.7841 -1.59882 0
M  V30 3966 H 382.963 4.42424 -1.98468 0
M  V30 3967 N 384.306 0.507319 1.49211 0
M  V30 3968 C 385.552 -0.0350047 2.0277 0
M  V30 3969 C 385.885 -1.3606 1.38569 0
M  V30 3970 O 385.16 -1.87321 0.523542 0
M  V30 3971 C 385.443 -0.180916 3.59645 0
M  V30 3972 C 385.296 1.16825 4.34364 0
M  V30 3973 C 386.615 -0.918558 4.30407 0
M  V30 3974 H 383.734 -0.0112473 0.736914 0
M  V30 3975 H 386.376 0.659956 1.7817 0
M  V30 3976 H 384.526 -0.772826 3.80736 0
M  V30 3977 H 386.198 1.79952 4.24753 0
M  V30 3978 H 384.441 1.75594 3.96673 0
M  V30 3979 H 385.112 1.01939 5.42506 0
M  V30 3980 H 387.588 -0.41649 4.1401 0
M  V30 3981 H 386.464 -0.989505 5.39907 0
M  V30 3982 H 386.725 -1.96373 3.96093 0
M  V30 3983 N 385.784 -1.5574 0.241426 0
M  V30 3984 C 387.033 -1.97986 -0.385295 0
M  V30 3985 C 387.346 -1.13267 -1.59468 0
M  V30 3986 O 388.552 -1.45501 -2.2922 0
M  V30 3987 C 387.008 -3.52275 -0.736884 0
M  V30 3988 C 386.616 -4.45726 0.450796 0
M  V30 3989 C 388.36 -4.03189 -1.3281 0
M  V30 3990 C 386.267 -5.91352 0.0756662 0
M  V30 3991 H 385.197 -0.739386 -0.147731 0
M  V30 3992 H 387.848 -1.80308 0.340779 0
M  V30 3993 H 386.23 -3.65628 -1.52094 0
M  V30 3994 H 387.404 -4.44131 1.22819 0
M  V30 3995 H 385.719 -4.05264 0.956573 0
M  V30 3996 H 388.316 -5.09505 -1.62201 0
M  V30 3997 H 388.659 -3.50212 -2.25071 0
M  V30 3998 H 389.192 -3.93141 -0.607069 0
M  V30 3999 H 385.931 -6.48354 0.965272 0
M  V30 4000 H 385.451 -5.96095 -0.665635 0
M  V30 4001 H 387.13 -6.46084 -0.344075 0
M  V30 4002 N 387.262 0.0317525 -1.57568 0
M  V30 4003 C 388.51 0.721676 -1.88776 0
M  V30 4004 C 388.831 1.76039 -0.838772 0
M  V30 4005 O 388.101 1.95482 0.127935 0
M  V30 4006 H 386.681 0.269534 -0.696678 0
M  V30 4007 H 389.343 -0.00165879 -1.949 0
M  V30 4008 H 388.439 1.21293 -2.87566 0
M  V30 4009 N 388.74 1.54641 0.303973 0
M  V30 4010 C 389.965 1.78092 1.06292 0
M  V30 4011 C 390.39 0.537342 1.80262 0
M  V30 4012 O 389.748 -0.511993 1.7392 0
M  V30 4013 C 389.796 2.98612 2.02147 0
M  V30 4014 O 388.9 2.71528 3.10397 0
M  V30 4015 H 388.241 0.589548 0.305497 0
M  V30 4016 H 390.771 2.01716 0.3423 0
M  V30 4017 H 390.781 3.265 2.44667 0
M  V30 4018 H 389.456 3.88785 1.47714 0
M  V30 4019 H 388.033 2.54648 2.72413 0
M  V30 4020 N 390.218 -0.567019 1.47046 0
M  V30 4021 C 391.443 -1.3551 1.57009 0
M  V30 4022 C 391.868 -1.86841 0.217259 0
M  V30 4023 O 391.226 -1.62435 -0.805268 0
M  V30 4024 C 391.274 -2.50777 2.5912 0
M  V30 4025 O 390.378 -3.52706 2.13711 0
M  V30 4026 H 389.719 -0.402919 0.52778 0
M  V30 4027 H 392.249 -0.686241 1.92748 0
M  V30 4028 H 392.259 -2.97481 2.79229 0
M  V30 4029 H 390.934 -2.12771 3.57353 0
M  V30 4030 H 389.511 -3.12374 2.03659 0
M  V30 4031 N 391.696 -1.35014 -0.812953 0
M  V30 4032 C 392.942 -1.2812 -1.57204 0
M  V30 4033 C 393.275 0.145869 -1.93651 0
M  V30 4034 O 392.55 1.0937 -1.60836 0
M  V30 4035 C 392.833 -2.18162 -2.86492 0
M  V30 4036 C 392.686 -3.69454 -2.56561 0
M  V30 4037 C 394.005 -2.07439 -3.88145 0
M  V30 4038 H 391.124 -0.466746 -0.570366 0
M  V30 4039 H 393.766 -1.65357 -0.935783 0
M  V30 4040 H 391.916 -1.86535 -3.40789 0
M  V30 4041 H 393.588 -4.11493 -2.08497 0
M  V30 4042 H 391.831 -3.9005 -1.89851 0
M  V30 4043 H 392.502 -4.27835 -3.48799 0
M  V30 4044 H 394.978 -2.35228 -3.4323 0
M  V30 4045 H 393.854 -2.7265 -4.76396 0
M  V30 4046 H 394.115 -1.05439 -4.29343 0
M  V30 4047 N 393.175 1.03435 -1.18907 0
M  V30 4048 C 394.424 1.76143 -0.982669 0
M  V30 4049 C 394.737 1.89416 0.487953 0
M  V30 4050 O 395.943 2.59041 0.813036 0
M  V30 4051 C 394.399 3.16722 -1.70924 0
M  V30 4052 C 394.007 3.11522 -3.21959 0
M  V30 4053 C 395.751 3.93764 -1.58588 0
M  V30 4054 C 393.658 4.46999 -3.87228 0
M  V30 4055 H 392.588 0.660292 -0.364047 0
M  V30 4056 H 395.239 1.158 -1.42347 0
M  V30 4057 H 393.621 3.775 -1.19623 0
M  V30 4058 H 394.795 2.60158 -3.80335 0
M  V30 4059 H 393.11 2.47978 -3.34508 0
M  V30 4060 H 395.707 4.93963 -2.04707 0
M  V30 4061 H 396.05 4.12794 -0.539142 0
M  V30 4062 H 396.583 3.39576 -2.07203 0
M  V30 4063 H 393.322 4.33174 -4.91976 0
M  V30 4064 H 392.842 4.98441 -3.33642 0
M  V30 4065 H 394.521 5.15898 -3.90459 0
M  V30 4066 N 394.653 0.992116 1.22453 0
M  V30 4067 C 395.878 0.685644 1.95739 0
M  V30 4068 C 396.303 -0.743 1.72804 0
M  V30 4069 O 395.661 -1.50778 1.00676 0
M  V30 4070 C 395.709 0.996293 3.46564 0
M  V30 4071 O 394.813 0.0945512 4.12292 0
M  V30 4072 H 394.154 0.256694 0.612376 0
M  V30 4073 H 396.684 1.32888 1.5557 0
M  V30 4074 H 396.694 0.93781 3.97076 0
M  V30 4075 H 395.369 2.03733 3.62582 0
M  V30 4076 H 393.946 0.208451 3.72317 0
M  V30 4077 N 396.131 -1.37776 0.765217 0
M  V30 4078 C 397.38 -1.99092 0.323307 0
M  V30 4079 C 397.693 -1.61434 -1.10446 0
M  V30 4080 O 398.899 -2.15805 -1.64743 0
M  V30 4081 C 397.355 -3.56019 0.527098 0
M  V30 4082 C 396.963 -4.0262 1.96471 0
M  V30 4083 C 398.707 -4.2424 0.148483 0
M  V30 4084 C 396.614 -5.52233 2.11644 0
M  V30 4085 H 395.544 -0.744846 0.117137 0
M  V30 4086 H 398.195 -1.57391 0.943417 0
M  V30 4087 H 396.577 -3.95667 -0.162372 0
M  V30 4088 H 397.751 -3.74234 2.68859 0
M  V30 4089 H 396.066 -3.47161 2.29931 0
M  V30 4090 H 398.663 -5.34159 0.240456 0
M  V30 4091 H 399.006 -4.06446 -0.900422 0
M  V30 4092 H 399.539 -3.89872 0.79025 0
M  V30 4093 H 396.278 -5.74945 3.1483 0
M  V30 4094 H 395.798 -5.82324 1.4373 0
M  V30 4095 H 397.477 -6.18106 1.91193 0
M  V30 4096 N 397.609 -0.515225 -1.4894 0
M  V30 4097 C 398.857 0.0241671 -2.02086 0
M  V30 4098 C 399.178 1.3616 -1.3959 0
M  V30 4099 O 398.448 1.87841 -0.556121 0
M  V30 4100 H 397.028 0.0119203 -0.746905 0
M  V30 4101 H 399.69 -0.675702 -1.82812 0
M  V30 4102 H 398.786 0.143385 -3.1177 0
M  V30 4103 N 399.087 1.5561 -0.249682 0
M  V30 4104 C 399.997 2.25143 0.659375 0
M  V30 4105 C 401.013 1.2685 1.19101 0
M  V30 4106 O 402.189 1.59732 1.22669 0
M  V30 4107 C 399.254 2.93945 1.8384 0
M  V30 4108 C 398.315 4.07655 1.34596 0
M  V30 4109 C 397.548 4.73167 2.46878 0
M  V30 4110 O 397.771 4.37768 3.65671 0
M  V30 4111 O 396.705 5.61623 2.16478 0
M  V30 4112 H 400.531 3.03545 0.0968698 0
M  V30 4113 H 398.116 1.49389 -0.018074 0
M  V30 4114 H 399.998 3.37271 2.52638 0
M  V30 4115 H 398.673 2.18481 2.38847 0
M  V30 4116 H 397.58 3.68839 0.625174 0
M  V30 4117 H 398.913 4.84946 0.841941 0
M  V30 4118 N 400.565 -0.0233959 1.57583 0
M  V30 4119 C 401.813 -0.711654 1.89156 0
M  V30 4120 C 402.134 -1.75591 0.848096 0
M  V30 4121 O 401.404 -1.95547 -0.117566 0
M  V30 4122 H 399.984 -0.265835 0.698098 0
M  V30 4123 H 402.646 0.0119948 1.94896 0
M  V30 4124 H 401.742 -1.19766 2.88206 0
M  V30 4125 N 402.043 -1.548 -0.295768 0
M  V30 4126 C 403.268 -1.78653 -1.05346 0
M  V30 4127 C 403.693 -0.546894 -1.79974 0
M  V30 4128 O 403.051 0.502763 -1.7419 0
M  V30 4129 C 403.099 -2.99679 -2.00561 0
M  V30 4130 O 402.203 -2.7317 -3.08953 0
M  V30 4131 H 401.544 -0.59116 -0.302367 0
M  V30 4132 H 404.074 -2.01895 -0.331598 0
M  V30 4133 H 404.084 -3.27793 -2.42932 0
M  V30 4134 H 402.759 -3.89562 -1.4565 0
M  V30 4135 H 401.336 -2.56089 -2.71059 0
M  V30 4136 N 403.521 0.559213 -1.47345 0
M  V30 4137 C 404.932 1.14134 -1.47751 0
M  V30 4138 C 405.283 1.94834 -0.231103 0
M  V30 4139 O 404.408 2.05957 0.664137 0
M  V30 4140 C 405.003 2.07653 -2.67705 0
M  V30 4141 C 403.562 2.61141 -2.71076 0
M  V30 4142 C 402.709 1.3748 -2.40821 0
M  V30 4143 H 405.66 0.345917 -1.54884 0
M  V30 4144 H 405.681 2.91497 -2.44561 0
M  V30 4145 H 405.193 1.4889 -3.58404 0
M  V30 4146 H 403.294 3.23707 -1.84511 0
M  V30 4147 H 403.407 3.02272 -3.7171 0
M  V30 4148 H 401.771 1.68086 -1.91362 0
M  V30 4149 H 402.554 0.805135 -3.33725 0
M  V30 4150 N 404.999 1.35443 0.805782 0
M  V30 4151 C 406.247 1.28507 1.55982 0
M  V30 4152 C 406.568 -0.140046 1.94496 0
M  V30 4153 O 405.838 -1.07666 1.63661 0
M  V30 4154 H 404.418 0.472676 0.578434 0
M  V30 4155 H 407.08 1.69555 0.961098 0
M  V30 4156 H 406.176 1.90148 2.47488 0
M  V30 4157 N 406.477 -1.02803 1.19454 0
M  V30 4158 C 407.425 -2.13213 0.929673 0
M  V30 4159 C 408.419 -1.69011 -0.114806 0
M  V30 4160 O 409.625 -1.79967 0.0345147 0
M  V30 4161 H 406 -0.69662 0.28324 0
M  V30 4162 H 407.971 -2.32744 1.86743 0
M  V30 4163 C 406.72 -3.4429 0.485797 0
M  V30 4164 H 406.043 -3.7872 1.28105 0
M  V30 4165 H 407.483 -4.22638 0.339582 0
M  V30 4166 C 405.942 -3.27258 -0.800244 0
M  V30 4167 O 406.472 -3.55967 -1.86146 0
M  V30 4168 N 404.678 -2.80545 -0.75781 0
M  V30 4169 H 404.225 -2.57382 0.106039 0
M  V30 4170 H 404.183 -2.6953 -1.61867 0
M  V30 4171 N 407.956 -0.998596 -1.21925 0
M  V30 4172 C 408.919 -0.558679 -2.22287 0
M  V30 4173 C 409.919 0.361525 -1.56683 0
M  V30 4174 O 411.109 0.152695 -1.73529 0
M  V30 4175 C 408.241 0.18661 -3.40389 0
M  V30 4176 H 409.434 -1.4463 -2.62721 0
M  V30 4177 H 406.987 -0.786413 -1.35075 0
M  V30 4178 H 407.722 1.08996 -3.05435 0
M  V30 4179 H 407.507 -0.474188 -3.89222 0
M  V30 4180 H 408.997 0.482367 -4.14805 0
M  V30 4181 N 409.434 1.37368 -0.772513 0
M  V30 4182 C 410.681 1.99673 -0.337182 0
M  V30 4183 C 411.009 1.61324 1.0865 0
M  V30 4184 O 410.264 0.851377 1.7621 0
M  V30 4185 C 410.563 3.54817 -0.428876 0
M  V30 4186 C 410.229 4.12936 -1.81092 0
M  V30 4187 C 408.891 4.28523 -2.1891 0
M  V30 4188 C 411.243 4.44801 -2.71664 0
M  V30 4189 C 408.571 4.73277 -3.46735 0
M  V30 4190 C 410.923 4.90981 -3.98899 0
M  V30 4191 C 409.587 5.04773 -4.36761 0
M  V30 4192 H 408.857 0.730656 -0.123384 0
M  V30 4193 H 411.504 1.64124 -0.986686 0
M  V30 4194 H 409.809 3.90618 0.304167 0
M  V30 4195 H 411.506 4.00933 -0.0733334 0
M  V30 4196 H 408.096 4.01233 -1.50699 0
M  V30 4197 H 412.28 4.32344 -2.43706 0
M  V30 4198 H 407.536 4.82142 -3.75964 0
M  V30 4199 H 411.71 5.14603 -4.69208 0
M  V30 4200 H 409.337 5.39211 -5.35868 0
M  V30 4201 N 410.912 0.523116 1.48665 0
M  V30 4202 C 411.862 -0.263106 2.26477 0
M  V30 4203 C 412.846 -0.916005 1.32281 0
M  V30 4204 O 414.038 -0.819946 1.56863 0
M  V30 4205 C 411.167 -1.31361 3.17174 0
M  V30 4206 C 410.253 -0.665849 4.1884 0
M  V30 4207 N 410.644 0.244434 5.05209 0
M  V30 4208 C 408.942 -0.923863 4.36326 0
M  V30 4209 C 409.643 0.617443 5.78414 0
M  V30 4210 N 408.619 -0.0198686 5.43596 0
M  V30 4211 H 412.421 0.437295 2.90629 0
M  V30 4212 H 409.935 0.340675 1.58787 0
M  V30 4213 H 411.932 -1.89052 3.71571 0
M  V30 4214 H 410.592 -2.01546 2.54576 0
M  V30 4215 H 411.603 0.616621 5.14216 0
M  V30 4216 H 408.28 -1.6168 3.84923 0
M  V30 4217 H 409.67 1.36346 6.57921 0
M  V30 4218 N 412.39 -1.55475 0.257931 0
M  V30 4219 C 413.63 -2.01112 -0.365129 0
M  V30 4220 C 413.994 -1.1423 -1.54323 0
M  V30 4221 O 415.195 -1.49371 -2.23477 0
M  V30 4222 C 413.466 -3.49353 -0.754117 0
M  V30 4223 S 415.025 -4.16992 -1.36614 0
M  V30 4224 H 411.843 -0.701737 -0.114397 0
M  V30 4225 H 414.445 -1.91855 0.375747 0
M  V30 4226 H 413.149 -4.10246 0.112441 0
M  V30 4227 H 412.68 -3.6256 -1.52689 0
M  V30 4228 H 414.695 -4.19191 -2.65505 0
M  V30 4229 N 413.868 0.0150385 -1.57593 0
M  V30 4230 C 415.117 0.702115 -1.89085 0
M  V30 4231 C 415.43 1.75764 -0.858277 0
M  V30 4232 O 416.636 2.49829 -1.0629 0
M  V30 4233 C 415.092 1.29992 -3.35604 0
M  V30 4234 C 414.7 0.280007 -4.47124 0
M  V30 4235 C 416.444 1.96606 -3.76227 0
M  V30 4236 C 414.351 0.886949 -5.84711 0
M  V30 4237 H 413.281 0.265997 -0.705522 0
M  V30 4238 H 415.932 -0.0430408 -1.8345 0
M  V30 4239 H 414.314 2.09525 -3.36029 0
M  V30 4240 H 415.488 -0.489631 -4.58191 0
M  V30 4241 H 413.803 -0.284835 -4.15425 0
M  V30 4242 H 416.4 2.42893 -4.76347 0
M  V30 4243 H 416.743 2.79024 -3.08952 0
M  V30 4244 H 417.276 1.23828 -3.78036 0
M  V30 4245 H 414.015 0.101876 -6.55421 0
M  V30 4246 H 413.535 1.6261 -5.77337 0
M  V30 4247 H 415.214 1.39011 -6.3189 0
M  V30 4248 N 415.346 1.54954 0.287554 0
M  V30 4249 C 416.276 1.89839 1.35954 0
M  V30 4250 C 417.257 0.758675 1.52244 0
M  V30 4251 O 418.442 1.01557 1.65529 0
M  V30 4252 C 415.572 2.15753 2.72154 0
M  V30 4253 C 414.526 3.3159 2.70614 0
M  V30 4254 C 413.852 3.42952 4.10229 0
M  V30 4255 C 415.152 4.68359 2.31165 0
M  V30 4256 H 416.846 2.79625 1.07007 0
M  V30 4257 H 414.392 1.3454 0.513316 0
M  V30 4258 H 416.345 2.38743 3.47246 0
M  V30 4259 H 415.069 1.22752 3.02654 0
M  V30 4260 H 413.728 3.08545 1.97979 0
M  V30 4261 H 413.376 2.47443 4.37928 0
M  V30 4262 H 413.076 4.20826 4.10097 0
M  V30 4263 H 414.6 3.68218 4.87081 0
M  V30 4264 H 416.014 4.9099 2.95976 0
M  V30 4265 H 414.411 5.49044 2.42221 0
M  V30 4266 H 415.481 4.68165 1.26291 0
M  V30 4267 N 416.824 -0.551391 1.4764 0
M  V30 4268 C 418.071 -1.3083 1.54563 0
M  V30 4269 C 418.399 -1.93359 0.210361 0
M  V30 4270 O 417.654 -1.78721 -0.797332 0
M  V30 4271 C 417.953 -2.43469 2.61644 0
M  V30 4272 C 417.619 -1.98732 4.04742 0
M  V30 4273 C 416.281 -1.86248 4.43695 0
M  V30 4274 C 418.633 -1.64659 4.94507 0
M  V30 4275 C 415.961 -1.37995 5.70241 0
M  V30 4276 C 418.313 -1.17875 6.21521 0
M  V30 4277 C 416.977 -1.03992 6.5935 0
M  V30 4278 H 416.247 -0.478741 0.565587 0
M  V30 4279 H 418.894 -0.617697 1.81264 0
M  V30 4280 H 417.199 -3.18109 2.28722 0
M  V30 4281 H 418.896 -3.01642 2.64222 0
M  V30 4282 H 415.486 -2.09393 3.73968 0
M  V30 4283 H 419.67 -1.73174 4.65107 0
M  V30 4284 H 414.926 -1.25915 5.98294 0
M  V30 4285 H 419.1 -0.905739 6.90485 0
M  V30 4286 H 416.727 -0.663794 7.57296 0
M  V30 4287 N 418.302 -1.35869 -0.798587 0
M  V30 4288 C 419.713 -1.26498 -1.37314 0
M  V30 4289 C 420.064 0.0991899 -1.95949 0
M  V30 4290 O 419.189 1.0004 -1.91888 0
M  V30 4291 C 419.784 -2.29054 -2.49639 0
M  V30 4292 C 418.343 -2.234 -3.02935 0
M  V30 4293 C 417.49 -2.14329 -1.75949 0
M  V30 4294 H 420.441 -1.46881 -0.600971 0
M  V30 4295 H 420.462 -1.92166 -3.28409 0
M  V30 4296 H 419.974 -3.2833 -2.06933 0
M  V30 4297 H 418.075 -1.27562 -3.50084 0
M  V30 4298 H 418.188 -3.15703 -3.60372 0
M  V30 4299 H 416.552 -1.60435 -1.9782 0
M  V30 4300 H 417.335 -3.15477 -1.35384 0
M  V30 4301 N 419.78 1.02168 -1.19998 0
M  V30 4302 C 420.71 2.12488 -0.96804 0
M  V30 4303 C 421.691 1.69799 0.101185 0
M  V30 4304 O 422.876 1.94121 -0.0552993 0
M  V30 4305 C 420.006 3.43479 -0.513776 0
M  V30 4306 C 418.96 3.99884 -1.52566 0
M  V30 4307 C 418.286 5.26582 -0.928214 0
M  V30 4308 C 419.586 4.33861 -2.90795 0
M  V30 4309 H 421.28 2.32149 -1.89069 0
M  V30 4310 H 418.826 1.11564 -0.910468 0
M  V30 4311 H 420.779 4.20036 -0.338774 0
M  V30 4312 H 419.503 3.23561 0.444493 0
M  V30 4313 H 418.162 3.25429 -1.68794 0
M  V30 4314 H 417.81 5.02986 0.0378289 0
M  V30 4315 H 417.51 5.65284 -1.60397 0
M  V30 4316 H 419.034 6.05799 -0.764167 0
M  V30 4317 H 420.448 5.01327 -2.78109 0
M  V30 4318 H 418.845 4.83664 -3.55231 0
M  V30 4319 H 419.915 3.42848 -3.42904 0
M  V30 4320 N 421.258 1.00505 1.21394 0
M  V30 4321 C 422.188 0.585684 2.26035 0
M  V30 4322 C 423.169 -0.393525 1.65485 0
M  V30 4323 O 424.354 -0.281497 1.92149 0
M  V30 4324 C 421.484 -0.0884283 3.47187 0
M  V30 4325 C 420.438 0.810567 4.20254 0
M  V30 4326 C 419.764 0.00286382 5.347 0
M  V30 4327 C 421.064 2.1132 4.77641 0
M  V30 4328 H 422.758 1.46039 2.61368 0
M  V30 4329 H 420.304 0.703648 1.25638 0
M  V30 4330 H 422.257 -0.393286 4.19561 0
M  V30 4331 H 420.981 -0.997766 3.10986 0
M  V30 4332 H 419.64 1.09925 3.49731 0
M  V30 4333 H 419.288 -0.907765 4.94741 0
M  V30 4334 H 418.988 0.601444 5.84514 0
M  V30 4335 H 420.512 -0.295808 6.09883 0
M  V30 4336 H 421.926 1.87148 5.41893 0
M  V30 4337 H 420.323 2.66164 5.37845 0
M  V30 4338 H 421.393 2.78393 3.9702 0
M  V30 4339 N 422.737 -1.36956 0.779787 0
M  V30 4340 C 423.984 -1.99491 0.347766 0
M  V30 4341 C 424.312 -1.61898 -1.07793 0
M  V30 4342 O 423.567 -0.86071 -1.75756 0
M  V30 4343 C 423.866 -3.54585 0.447686 0
M  V30 4344 C 423.532 -4.1197 1.83279 0
M  V30 4345 C 422.194 -4.27356 2.2118 0
M  V30 4346 C 424.546 -4.43354 2.74019 0
M  V30 4347 C 421.874 -4.71432 3.4924 0
M  V30 4348 C 424.226 -4.88858 4.01497 0
M  V30 4349 C 422.89 -5.0245 4.39432 0
M  V30 4350 H 422.16 -0.729991 0.127257 0
M  V30 4351 H 424.807 -1.63599 0.995376 0
M  V30 4352 H 423.112 -3.90773 -0.283447 0
M  V30 4353 H 424.809 -4.00888 0.0945948 0
M  V30 4354 H 421.399 -4.00428 1.52825 0
M  V30 4355 H 425.583 -4.31045 2.45995 0
M  V30 4356 H 420.839 -4.80141 3.78516 0
M  V30 4357 H 425.013 -5.12108 4.71931 0
M  V30 4358 H 422.64 -5.36362 5.38721 0
M  V30 4359 N 424.215 -0.530993 -1.48385 0
M  V30 4360 C 425.461 0.00274135 -2.028 0
M  V30 4361 C 425.794 1.33838 -1.40716 0
M  V30 4362 O 425.069 1.86465 -0.553277 0
M  V30 4363 C 425.352 0.123676 -3.59888 0
M  V30 4364 C 425.205 -1.2372 -4.3245 0
M  V30 4365 C 426.524 0.849967 -4.31814 0
M  V30 4366 H 423.643 -0.000477758 -0.737 0
M  V30 4367 H 426.285 -0.688217 -1.77098 0
M  V30 4368 H 424.435 0.712157 -3.81917 0
M  V30 4369 H 426.107 -1.86687 -4.21836 0
M  V30 4370 H 424.35 -1.81882 -3.93829 0
M  V30 4371 H 425.021 -1.10557 -5.40815 0
M  V30 4372 H 427.497 0.350572 -4.14621 0
M  V30 4373 H 426.373 0.903486 -5.41413 0
M  V30 4374 H 426.634 1.90047 -3.99167 0
M  V30 4375 N 425.693 1.55336 -0.266172 0
M  V30 4376 C 426.918 2.04258 0.359661 0
M  V30 4377 C 427.343 1.14359 1.49344 0
M  V30 4378 O 426.701 0.140369 1.80756 0
M  V30 4379 C 426.749 3.50997 0.826635 0
M  V30 4380 O 425.853 3.64204 1.93466 0
M  V30 4381 H 425.194 0.659668 0.075727 0
M  V30 4382 H 427.724 2.00694 -0.39786 0
M  V30 4383 H 427.734 3.9219 1.12477 0
M  V30 4384 H 426.409 4.159 -0.00293032 0
M  V30 4385 H 424.986 3.34913 1.63974 0
M  V30 4386 N 427.171 -0.0066808 1.57599 0
M  V30 4387 C 428.418 -0.69292 1.90276 0
M  V30 4388 C 428.746 -1.74148 0.866192 0
M  V30 4389 O 428.001 -1.95268 -0.129933 0
M  V30 4390 C 428.3 -1.37939 3.29708 0
M  V30 4391 C 427.966 -0.464679 4.48499 0
M  V30 4392 C 426.628 -0.212809 4.80729 0
M  V30 4393 C 428.98 0.16551 5.20937 0
M  V30 4394 C 426.308 0.677653 5.82773 0
M  V30 4395 C 428.66 1.04381 6.23929 0
M  V30 4396 C 427.324 1.30492 6.54621 0
M  V30 4397 H 426.594 -0.253558 0.696268 0
M  V30 4398 H 429.241 0.0474123 1.91441 0
M  V30 4399 H 427.546 -2.1936 3.24636 0
M  V30 4400 H 429.243 -1.9163 3.52249 0
M  V30 4401 H 425.833 -0.671153 4.23313 0
M  V30 4402 H 430.017 -0.0160756 4.96297 0
M  V30 4403 H 425.273 0.88803 6.04917 0
M  V30 4404 H 429.447 1.53851 6.79193 0
M  V30 4405 H 427.074 1.99662 7.33512 0
M  V30 4406 N 428.649 -1.55105 -0.279332 0
M  V30 4407 C 429.874 -1.7976 -1.03446 0
M  V30 4408 C 430.299 -0.565952 -1.79384 0
M  V30 4409 O 429.657 0.484259 -1.74713 0
M  V30 4410 C 429.705 -3.0179 -1.97371 0
M  V30 4411 O 428.809 -2.76432 -3.06038 0
M  V30 4412 H 428.15 -0.594334 -0.29608 0
M  V30 4413 H 430.68 -2.02235 -0.310165 0
M  V30 4414 H 430.69 -3.30351 -2.39441 0
M  V30 4415 H 429.365 -3.91085 -1.4151 0
M  V30 4416 H 427.942 -2.58949 -2.68328 0
M  V30 4417 N 430.127 0.543554 -1.4793 0
M  V30 4418 C 431.373 1.30201 -1.55485 0
M  V30 4419 C 431.706 1.92925 -0.222201 0
M  V30 4420 O 430.981 1.78586 0.77053 0
M  V30 4421 C 431.264 2.40174 -2.68307 0
M  V30 4422 C 431.117 1.8223 -4.11233 0
M  V30 4423 C 432.436 3.42024 -2.76961 0
M  V30 4424 H 429.555 0.472036 -0.565996 0
M  V30 4425 H 432.197 0.606914 -1.80046 0
M  V30 4426 H 430.347 2.99463 -2.47495 0
M  V30 4427 H 432.019 1.27096 -4.43446 0
M  V30 4428 H 430.262 1.12832 -4.18869 0
M  V30 4429 H 430.933 2.61793 -4.85972 0
M  V30 4430 H 433.409 2.92672 -2.95774 0
M  V30 4431 H 432.285 4.16383 -3.57654 0
M  V30 4432 H 432.546 4.0173 -1.84568 0
M  V30 4433 N 431.605 1.3629 0.791371 0
M  V30 4434 C 432.854 1.29742 1.54434 0
M  V30 4435 C 433.167 -0.121729 1.95221 0
M  V30 4436 O 434.373 -0.309579 2.69729 0
M  V30 4437 C 432.829 2.27623 2.78776 0
M  V30 4438 C 432.437 3.74963 2.45166 0
M  V30 4439 C 434.181 2.30047 3.56761 0
M  V30 4440 C 432.088 4.64626 3.65891 0
M  V30 4441 H 431.018 0.482113 0.579727 0
M  V30 4442 H 433.669 1.61642 0.868565 0
M  V30 4443 H 432.051 1.88714 3.48142 0
M  V30 4444 H 433.225 4.22596 1.83709 0
M  V30 4445 H 431.54 3.75295 1.80396 0
M  V30 4446 H 434.137 2.94247 4.46456 0
M  V30 4447 H 434.48 1.30846 3.95203 0
M  V30 4448 H 435.013 2.67563 2.94372 0
M  V30 4449 H 431.752 5.64883 3.32547 0
M  V30 4450 H 431.272 4.2171 4.26521 0
M  V30 4451 H 432.951 4.80801 4.32943 0
M  V30 4452 N 433.083 -1.0153 1.20538 0
M  V30 4453 C 434.323 -1.76689 1.02763 0
M  V30 4454 C 434.687 -1.87065 -0.432513 0
M  V30 4455 O 435.888 -2.58684 -0.730481 0
M  V30 4456 C 434.159 -3.14707 1.69393 0
M  V30 4457 S 435.718 -4.05886 1.66738 0
M  V30 4458 H 432.536 -0.608076 0.368463 0
M  V30 4459 H 435.138 -1.21558 1.53114 0
M  V30 4460 H 433.842 -3.04782 2.74838 0
M  V30 4461 H 433.373 -3.74913 1.19179 0
M  V30 4462 H 435.388 -4.91221 0.70117 0
M  V30 4463 N 434.561 -1.01147 -1.20859 0
M  V30 4464 C 435.786 -0.716698 -1.94623 0
M  V30 4465 C 436.211 0.715415 -1.73964 0
M  V30 4466 O 435.569 1.49157 -1.03062 0
M  V30 4467 C 435.617 -1.0513 -3.44935 0
M  V30 4468 O 434.721 -0.160131 -4.12089 0
M  V30 4469 H 434.062 -0.266404 -0.608214 0
M  V30 4470 H 436.592 -1.35346 -1.53436 0
M  V30 4471 H 436.602 -1.00086 -3.95533 0
M  V30 4472 H 435.277 -2.09475 -3.59295 0
M  V30 4473 H 433.854 -0.267657 -3.71938 0
M  V30 4474 N 436.039 1.36541 -0.78704 0
M  V30 4475 C 436.972 2.27831 -0.129765 0
M  V30 4476 C 437.95 1.47105 0.692732 0
M  V30 4477 O 439.134 1.7641 0.664222 0
M  V30 4478 C 436.261 3.28577 0.821883 0
M  V30 4479 C 435.307 4.26422 0.0814771 0
M  V30 4480 S 436.14 5.20919 -1.24112 0
M  V30 4481 C 437.296 6.25212 -0.293409 0
M  V30 4482 H 437.529 2.83229 -0.903811 0
M  V30 4483 H 435.062 1.43046 -0.581144 0
M  V30 4484 H 437.02 3.87123 1.3655 0
M  V30 4485 H 435.681 2.72096 1.56916 0
M  V30 4486 H 434.874 4.97554 0.803485 0
M  V30 4487 H 434.476 3.71944 -0.391589 0
M  V30 4488 H 436.768 6.75435 0.528622 0
M  V30 4489 H 437.711 7.01378 -0.973344 0
M  V30 4490 H 438.119 5.64407 0.102196 0
M  V30 4491 N 437.518 0.538854 1.48102 0
M  V30 4492 C 438.767 0.0059532 2.01699 0
M  V30 4493 C 439.08 -1.34476 1.42041 0
M  V30 4494 O 440.286 -1.96653 1.87189 0
M  V30 4495 C 438.742 -0.0397627 3.59878 0
M  V30 4496 C 438.35 1.30659 4.28523 0
M  V30 4497 C 440.094 -0.521024 4.2129 0
M  V30 4498 C 438.001 1.22098 5.78659 0
M  V30 4499 H 436.931 -0.00154456 0.753998 0
M  V30 4500 H 439.582 0.683963 1.70277 0
M  V30 4501 H 437.964 -0.783037 3.88181 0
M  V30 4502 H 439.138 2.06613 4.11883 0
M  V30 4503 H 437.453 1.7243 3.79021 0
M  V30 4504 H 440.05 -0.603184 5.31287 0
M  V30 4505 H 440.393 -1.52885 3.8721 0
M  V30 4506 H 440.926 0.166834 3.9745 0
M  V30 4507 H 437.665 2.20424 6.17328 0
M  V30 4508 H 437.185 0.50295 5.97688 0
M  V30 4509 H 438.864 0.915345 6.40492 0
M  V30 4510 N 438.996 -1.55193 0.274407 0
M  V30 4511 C 440.224 -2.03987 -0.345943 0
M  V30 4512 C 440.639 -1.15279 -1.4952 0
M  V30 4513 O 439.996 -0.172759 -1.8168 0
M  V30 4514 C 440.047 -3.51898 -0.827631 0
M  V30 4515 O 439.768 -4.37231 0.275855 0
M  V30 4516 C 441.269 -4.16577 -1.51587 0
M  V30 4517 H 438.489 -0.666335 -0.0789892 0
M  V30 4518 H 441.033 -2.00423 0.406294 0
M  V30 4519 H 439.188 -3.55909 -1.52996 0
M  V30 4520 H 439.602 -5.24415 -0.0943638 0
M  V30 4521 H 441.076 -5.21678 -1.80433 0
M  V30 4522 H 441.553 -3.64707 -2.44716 0
M  V30 4523 H 442.159 -4.16568 -0.857409 0
M  V30 4524 N 440.474 -0.00167713 -1.576 0
M  V30 4525 C 441.721 0.68282 -1.90641 0
M  V30 4526 C 442.049 1.73686 -0.875415 0
M  V30 4527 O 441.304 1.95334 0.119575 0
M  V30 4528 C 441.603 1.36189 -3.30435 0
M  V30 4529 C 441.269 0.440887 -4.48739 0
M  V30 4530 C 439.931 0.187312 -4.80835 0
M  V30 4531 C 442.283 -0.193134 -5.20842 0
M  V30 4532 C 439.611 -0.70855 -5.82406 0
M  V30 4533 C 441.963 -1.07688 -6.23367 0
M  V30 4534 C 440.627 -1.33962 -6.53919 0
M  V30 4535 H 439.897 0.249862 -0.697603 0
M  V30 4536 H 442.544 -0.0575642 -1.91413 0
M  V30 4537 H 440.849 2.17636 -3.25794 0
M  V30 4538 H 442.546 1.89759 -3.5326 0
M  V30 4539 H 439.136 0.648694 -4.23663 0
M  V30 4540 H 443.32 -0.0102445 -4.96299 0
M  V30 4541 H 438.576 -0.920097 -6.04437 0
M  V30 4542 H 442.75 -1.57451 -6.78367 0
M  V30 4543 H 440.377 -2.03549 -7.32442 0
M  V30 4544 N 441.952 1.55251 0.271103 0
M  V30 4545 C 443.182 1.79713 1.01916 0
M  V30 4546 C 443.59 0.571613 1.80359 0
M  V30 4547 O 442.933 -0.468853 1.77616 0
M  V30 4548 C 442.995 2.97138 2.02359 0
M  V30 4549 C 442.659 4.34104 1.42837 0
M  V30 4550 C 443.656 5.13019 0.843071 0
M  V30 4551 C 441.341 4.80765 1.455 0
M  V30 4552 C 443.335 6.36729 0.292333 0
M  V30 4553 C 441.022 6.0443 0.900402 0
M  V30 4554 C 442.02 6.8225 0.32007 0
M  V30 4555 O 441.708 8.03582 -0.226031 0
M  V30 4556 H 441.44 0.602431 0.306681 0
M  V30 4557 H 443.994 2.03097 0.306701 0
M  V30 4558 H 442.224 2.6945 2.77369 0
M  V30 4559 H 443.913 3.08907 2.63309 0
M  V30 4560 H 444.679 4.781 0.815178 0
M  V30 4561 H 440.558 4.20202 1.89609 0
M  V30 4562 H 444.102 6.97414 -0.161274 0
M  V30 4563 H 439.999 6.3883 0.925541 0
M  V30 4564 H 440.767 8.18418 -0.115572 0
M  V30 4565 N 443.43 -0.535701 1.48216 0
M  V30 4566 C 444.679 -1.28828 1.55197 0
M  V30 4567 C 444.992 -1.94263 0.228278 0
M  V30 4568 O 446.198 -2.70927 0.176278 0
M  V30 4569 C 444.654 -2.33727 2.73678 0
M  V30 4570 C 444.262 -1.74386 4.12666 0
M  V30 4571 C 446.006 -3.1003 2.89968 0
M  V30 4572 C 443.913 -2.77192 5.22416 0
M  V30 4573 H 442.843 -0.484484 0.577747 0
M  V30 4574 H 445.494 -0.56646 1.74538 0
M  V30 4575 H 443.876 -3.08919 2.4776 0
M  V30 4576 H 445.05 -1.05421 4.48579 0
M  V30 4577 H 443.365 -1.10595 4.01445 0
M  V30 4578 H 445.962 -3.86842 3.6913 0
M  V30 4579 H 446.305 -3.65542 1.9921 0
M  V30 4580 H 446.838 -2.41952 3.15759 0
M  V30 4581 H 443.577 -2.26507 6.15122 0
M  V30 4582 H 443.097 -3.44502 4.90998 0
M  V30 4583 H 444.776 -3.40285 5.50286 0
M  V30 4584 N 444.908 -1.36708 -0.784132 0
M  V30 4585 C 446.157 -1.30559 -1.53744 0
M  V30 4586 C 446.47 0.111374 -1.95283 0
M  V30 4587 O 447.676 0.29527 -2.6989 0
M  V30 4588 C 446.132 -2.29098 -2.77565 0
M  V30 4589 C 445.74 -3.76258 -2.43174 0
M  V30 4590 C 447.484 -2.31936 -3.55536 0
M  V30 4591 C 445.391 -4.6656 -3.63422 0
M  V30 4592 H 444.321 -0.48518 -0.577162 0
M  V30 4593 H 446.972 -1.62101 -0.859981 0
M  V30 4594 H 445.354 -1.90557 -3.47137 0
M  V30 4595 H 446.528 -4.23565 -1.81465 0
M  V30 4596 H 444.843 -3.76246 -1.78403 0
M  V30 4597 H 447.44 -2.9661 -4.44889 0
M  V30 4598 H 447.783 -1.3294 -3.94503 0
M  V30 4599 H 448.316 -2.6912 -2.92949 0
M  V30 4600 H 445.055 -5.66638 -3.29547 0
M  V30 4601 H 444.575 -4.23966 -4.24279 0
M  V30 4602 H 446.254 -4.8309 -4.30387 0
M  V30 4603 N 446.386 1.0089 -1.21074 0
M  V30 4604 C 447.614 1.78191 -1.05145 0
M  V30 4605 C 448.029 1.84537 0.398952 0
M  V30 4606 O 447.386 1.30393 1.27687 0
M  V30 4607 C 447.437 3.22288 -1.63746 0
M  V30 4608 O 447.158 3.16315 -3.03111 0
M  V30 4609 C 448.659 4.16106 -1.52875 0
M  V30 4610 H 445.879 0.560129 -0.369454 0
M  V30 4611 H 448.423 1.26945 -1.60328 0
M  V30 4612 H 446.578 3.70655 -1.12664 0
M  V30 4613 H 446.992 4.06817 -3.31059 0
M  V30 4614 H 448.466 5.15026 -1.98626 0
M  V30 4615 H 448.943 4.36541 -0.482521 0
M  V30 4616 H 449.549 3.73625 -2.03185 0
M  V30 4617 N 447.864 1.01787 1.20321 0
M  V30 4618 C 449.094 0.72614 1.93419 0
M  V30 4619 C 449.502 -0.717317 1.75075 0
M  V30 4620 O 448.845 -1.49836 1.06278 0
M  V30 4621 C 448.907 0.983621 3.45782 0
M  V30 4622 C 448.571 2.41645 3.87888 0
M  V30 4623 C 449.568 3.39732 3.93545 0
M  V30 4624 C 447.253 2.75752 4.19841 0
M  V30 4625 C 449.247 4.69988 4.30569 0
M  V30 4626 C 446.934 4.06221 4.56539 0
M  V30 4627 C 447.932 5.0315 4.61876 0
M  V30 4628 O 447.62 6.31284 4.97731 0
M  V30 4629 H 447.352 0.265824 0.621541 0
M  V30 4630 H 449.906 1.3623 1.53722 0
M  V30 4631 H 448.136 0.290301 3.85609 0
M  V30 4632 H 449.825 0.683279 4.00108 0
M  V30 4633 H 450.591 3.14718 3.69022 0
M  V30 4634 H 446.47 2.00993 4.14877 0
M  V30 4635 H 450.014 5.45642 4.3465 0
M  V30 4636 H 445.911 4.31013 4.80518 0
M  V30 4637 H 446.679 6.35591 5.15719 0
M  V30 4638 N 449.342 -1.36122 0.79427 0
M  V30 4639 C 450.567 -2.03891 0.379871 0
M  V30 4640 C 450.992 -1.59488 -0.997251 0
M  V30 4641 O 450.35 -0.765652 -1.64339 0
M  V30 4642 C 450.398 -3.57687 0.457442 0
M  V30 4643 O 449.502 -4.08931 -0.5338 0
M  V30 4644 H 448.843 -0.6443 0.160541 0
M  V30 4645 H 451.373 -1.73976 1.07673 0
M  V30 4646 H 451.383 -4.06721 0.322792 0
M  V30 4647 H 450.058 -3.89357 1.46199 0
M  V30 4648 H 448.635 -3.71154 -0.360409 0
M  V30 4649 N 450.82 -0.546701 -1.47814 0
M  V30 4650 C 452.066 -0.0187684 -2.02791 0
M  V30 4651 C 452.399 1.32338 -1.42128 0
M  V30 4652 O 451.674 1.85867 -0.573023 0
M  V30 4653 C 451.957 0.0854985 -3.59998 0
M  V30 4654 C 451.81 -1.283 -4.31114 0
M  V30 4655 C 453.129 0.80412 -4.32691 0
M  V30 4656 H 450.248 -0.0082946 -0.736953 0
M  V30 4657 H 452.89 -0.706962 -1.76358 0
M  V30 4658 H 451.04 0.671609 -3.82651 0
M  V30 4659 H 452.712 -1.91151 -4.19832 0
M  V30 4660 H 450.955 -1.86049 -3.91878 0
M  V30 4661 H 451.626 -1.16287 -5.39612 0
M  V30 4662 H 454.102 0.306576 -4.14969 0
M  V30 4663 H 452.978 0.846011 -5.42341 0
M  V30 4664 H 453.239 1.85802 -4.01161 0
M  V30 4665 N 452.299 1.55045 -0.282633 0
M  V30 4666 C 453.246 2.22822 0.601566 0
M  V30 4667 C 454.216 1.20431 1.14392 0
M  V30 4668 O 455.401 1.48996 1.19184 0
M  V30 4669 C 452.541 2.95873 1.77632 0
M  V30 4670 C 451.654 4.12999 1.26711 0
M  V30 4671 C 450.789 4.73676 2.40426 0
M  V30 4672 C 449.828 5.82981 1.86545 0
M  V30 4673 N 448.965 6.3769 2.93762 0
M  V30 4674 H 453.805 2.97995 0.0169528 0
M  V30 4675 H 451.342 1.471 -0.00339964 0
M  V30 4676 H 453.3 3.36447 2.46697 0
M  V30 4677 H 451.93 2.2311 2.33285 0
M  V30 4678 H 450.982 3.77494 0.469314 0
M  V30 4679 H 452.294 4.91803 0.832518 0
M  V30 4680 H 451.448 5.17008 3.17471 0
M  V30 4681 H 450.187 3.94164 2.87203 0
M  V30 4682 H 449.192 5.39092 1.07983 0
M  V30 4683 H 450.417 6.64366 1.40694 0
M  V30 4684 H 448.363 5.61069 3.39908 0
M  V30 4685 H 448.28 7.11788 2.54744 0
M  V30 4686 H 449.548 6.8568 3.7076 0
M  V30 4687 N 453.777 0.010035 1.57597 0
M  V30 4688 C 455.026 -0.671945 1.90178 0
M  V30 4689 C 455.339 -1.74376 0.886131 0
M  V30 4690 O 456.545 -2.48107 1.10252 0
M  V30 4691 C 455.001 -1.24636 3.3763 0
M  V30 4692 C 454.609 -0.208838 4.47513 0
M  V30 4693 C 456.353 -1.90595 3.79307 0
M  V30 4694 C 454.26 -0.793814 5.86048 0
M  V30 4695 H 453.19 -0.25474 0.709665 0
M  V30 4696 H 455.841 0.0722206 1.83358 0
M  V30 4697 H 454.223 -2.04152 3.3932 0
M  V30 4698 H 455.397 0.562463 4.57354 0
M  V30 4699 H 453.712 0.350889 4.14919 0
M  V30 4700 H 456.309 -2.35284 4.80151 0
M  V30 4701 H 456.652 -2.74074 3.13352 0
M  V30 4702 H 457.185 -1.17798 3.79958 0
M  V30 4703 H 453.924 0.00240855 6.555 0
M  V30 4704 H 453.444 -1.53404 5.79851 0
M  V30 4705 H 455.123 -1.2894 6.34022 0
M  V30 4706 N 455.255 -1.55392 -0.262866 0
M  V30 4707 C 456.203 -1.8977 -1.345 0
M  V30 4708 C 457.197 -0.775063 -1.50629 0
M  V30 4709 O 458.403 -0.959519 -1.52293 0
M  V30 4710 H 454.778 -0.602467 -0.450041 0
M  V30 4711 H 456.749 -2.80147 -1.02762 0
M  V30 4712 C 455.498 -2.19501 -2.69657 0
M  V30 4713 H 454.821 -3.05378 -2.5804 0
M  V30 4714 H 456.261 -2.47469 -3.44289 0
M  V30 4715 C 454.72 -1.00597 -3.21531 0
M  V30 4716 O 455.25 -0.245768 -4.00947 0
M  V30 4717 N 453.456 -0.800911 -2.79345 0
M  V30 4718 H 453.003 -1.42079 -2.14875 0
M  V30 4719 H 452.961 -0.00697996 -3.14399 0
M  V30 4720 N 456.733 0.527833 -1.48498 0
M  V30 4721 C 458.01 1.28905 -1.47115 0
M  V30 4722 C 458.39 2.10297 -0.184007 0
M  V30 4723 O 457.738 2.12728 0.834218 0
M  V30 4724 C 457.948 2.16866 -2.73441 0
M  V30 4725 C 459.296 2.76936 -3.21857 0
M  V30 4726 O 460.32 2.27152 -2.74373 0
M  V30 4727 O 459.179 3.67496 -4.04486 0
M  V30 4728 H 456.273 0.581918 -0.587623 0
M  V30 4729 H 458.819 0.544311 -1.60734 0
M  V30 4730 H 457.591 1.56521 -3.58632 0
M  V30 4731 H 457.214 2.98583 -2.62553 0
M  V30 4732 N 458.211 1.37122 0.776871 0
M  V30 4733 C 459.158 1.3247 1.88998 0
M  V30 4734 C 460.128 0.191143 1.64997 0
M  V30 4735 O 461.313 0.379683 1.86984 0
M  V30 4736 C 458.453 1.13241 3.25992 0
M  V30 4737 C 457.566 2.35782 3.61982 0
M  V30 4738 C 456.701 2.09465 4.88158 0
M  V30 4739 C 455.74 3.279 5.16864 0
M  V30 4740 N 454.877 3.01167 6.34226 0
M  V30 4741 H 459.717 2.27642 1.9231 0
M  V30 4742 H 457.254 1.13125 0.94027 0
M  V30 4743 H 459.212 1.00115 4.0501 0
M  V30 4744 H 457.842 0.217186 3.22069 0
M  V30 4745 H 456.894 2.59666 2.77989 0
M  V30 4746 H 458.206 3.24125 3.79137 0
M  V30 4747 H 457.36 1.93341 5.75069 0
M  V30 4748 H 456.099 1.18452 4.73097 0
M  V30 4749 H 455.104 3.44569 4.2843 0
M  V30 4750 H 456.329 4.19757 5.33836 0
M  V30 4751 H 454.275 2.12779 6.20533 0
M  V30 4752 H 454.192 3.83052 6.51772 0
M  V30 4753 H 455.46 2.88649 7.24087 0
M  V30 4754 N 459.689 -1.00246 1.21608 0
M  V30 4755 C 460.636 -2.09073 0.977613 0
M  V30 4756 C 461.606 -1.65815 -0.097297 0
M  V30 4757 O 462.791 -1.90734 0.0503445 0
M  V30 4758 C 459.931 -3.40671 0.551133 0
M  V30 4759 C 459.044 -3.97326 1.69576 0
M  V30 4760 C 458.179 -5.17043 1.2182 0
M  V30 4761 C 457.218 -5.65813 2.335 0
M  V30 4762 N 456.355 -6.76778 1.86859 0
M  V30 4763 H 461.195 -2.28806 1.90924 0
M  V30 4764 H 458.732 -1.12186 0.951452 0
M  V30 4765 H 460.69 -4.16225 0.285097 0
M  V30 4766 H 459.32 -3.20967 -0.343489 0
M  V30 4767 H 458.372 -3.18734 2.07637 0
M  V30 4768 H 459.684 -4.29511 2.53617 0
M  V30 4769 H 458.838 -5.99852 0.908975 0
M  V30 4770 H 457.577 -4.86458 0.347869 0
M  V30 4771 H 456.582 -4.81599 2.65222 0
M  V30 4772 H 457.807 -5.98427 3.21033 0
M  V30 4773 H 455.753 -6.47994 1.02174 0
M  V30 4774 H 455.67 -7.08231 2.64471 0
M  V30 4775 H 456.938 -7.63116 1.58978 0
M  V30 4776 N 461.167 -1.02423 -1.1978 0
M  V30 4777 C 462.444 -0.632802 -1.85081 0
M  V30 4778 C 462.824 0.888745 -1.9148 0
M  V30 4779 O 462.172 1.78357 -1.42832 0
M  V30 4780 C 462.382 -1.28947 -3.24305 0
M  V30 4781 C 463.73 -1.40976 -4.00513 0
M  V30 4782 O 464.754 -1.24628 -3.33686 0
M  V30 4783 O 463.613 -1.67467 -5.20209 0
M  V30 4784 H 460.707 -0.219348 -0.79738 0
M  V30 4785 H 463.253 -1.12209 -1.27307 0
M  V30 4786 H 462.025 -2.3288 -3.14456 0
M  V30 4787 H 461.648 -0.787748 -3.89718 0
M  V30 4788 N 462.645 1.35699 -0.801477 0
M  V30 4789 C 463.891 1.99208 -0.380022 0
M  V30 4790 C 464.224 1.63445 1.04878 0
M  V30 4791 O 463.499 0.895223 1.72673 0
M  V30 4792 C 463.782 3.55755 -0.557708 0
M  V30 4793 C 463.635 4.01332 -2.03107 0
M  V30 4794 C 464.954 4.40096 0.0197968 0
M  V30 4795 H 462.073 0.723667 -0.139552 0
M  V30 4796 H 464.715 1.60928 -1.01006 0
M  V30 4797 H 462.865 3.88494 -0.0213741 0
M  V30 4798 H 464.537 3.79026 -2.62939 0
M  V30 4799 H 462.78 3.52429 -2.52936 0
M  V30 4800 H 463.451 5.10234 -2.1063 0
M  V30 4801 H 465.927 4.13786 -0.438179 0
M  V30 4802 H 464.803 5.48735 -0.134477 0
M  V30 4803 H 465.064 4.2786 1.11303 0
M  V30 4804 N 464.123 0.554532 1.47522 0
M  V30 4805 C 465.033 -0.197865 2.33764 0
M  V30 4806 C 466.049 -0.914576 1.48025 0
M  V30 4807 O 467.225 -0.884067 1.80959 0
M  V30 4808 C 464.29 -1.21628 3.24665 0
M  V30 4809 C 463.351 -0.507283 4.26292 0
M  V30 4810 C 462.584 -1.47718 5.1285 0
M  V30 4811 O 462.807 -2.7118 5.01814 0
M  V30 4812 O 461.741 -1.00313 5.93482 0
M  V30 4813 H 465.567 0.50949 2.99396 0
M  V30 4814 H 463.152 0.315176 1.46038 0
M  V30 4815 H 465.034 -1.80421 3.80823 0
M  V30 4816 H 463.709 -1.9056 2.61665 0
M  V30 4817 H 462.616 0.121778 3.73902 0
M  V30 4818 H 463.949 0.140544 4.91999 0
M  V30 4819 N 465.601 -1.54893 0.290851 0
M  V30 4820 C 466.548 -2.23138 -0.58974 0
M  V30 4821 C 467.518 -1.21036 -1.13752 0
M  V30 4822 O 468.703 -1.49626 -1.18392 0
M  V30 4823 C 465.843 -2.96811 -1.76061 0
M  V30 4824 C 464.956 -4.13665 -1.24519 0
M  V30 4825 C 464.091 -4.74944 -2.3791 0
M  V30 4826 C 463.13 -5.83963 -1.83451 0
M  V30 4827 N 462.267 -6.39239 -2.90376 0
M  V30 4828 H 467.107 -2.98 -0.00114915 0
M  V30 4829 H 464.644 -1.47096 0.0112006 0
M  V30 4830 H 466.602 -3.37751 -2.44909 0
M  V30 4831 H 465.232 -2.24344 -2.32098 0
M  V30 4832 H 464.284 -3.77737 -0.449288 0
M  V30 4833 H 465.596 -4.92238 -0.806424 0
M  V30 4834 H 464.75 -5.18684 -3.14724 0
M  V30 4835 H 463.489 -3.95682 -2.85109 0
M  V30 4836 H 462.494 -5.39657 -1.05122 0
M  V30 4837 H 463.719 -6.65103 -1.37169 0
M  V30 4838 H 461.665 -5.62864 -3.36927 0
M  V30 4839 H 461.582 -7.13129 -2.50965 0
M  V30 4840 H 462.85 -6.87637 -3.67118 0
M  V30 4841 N 467.08 -0.0183926 -1.57589 0
M  V30 4842 C 468.305 0.676634 -1.96052 0
M  V30 4843 C 468.73 1.6548 -0.894307 0
M  V30 4844 O 468.088 1.80712 0.145849 0
M  V30 4845 C 468.136 1.36872 -3.33614 0
M  V30 4846 O 467.24 2.48372 -3.29219 0
M  V30 4847 H 466.581 0.1786 -0.63953 0
M  V30 4848 H 469.111 -0.077056 -2.04455 0
M  V30 4849 H 469.121 1.72797 -3.69601 0
M  V30 4850 H 467.796 0.651636 -4.10763 0
M  V30 4851 H 466.373 2.14639 -3.04934 0
M  V30 4852 N 468.558 1.5553 0.254621 0
M  V30 4853 C 469.488 1.9268 1.31897 0
M  V30 4854 C 470.469 0.790797 1.506 0
M  V30 4855 O 471.654 1.05045 1.63337 0
M  V30 4856 C 468.784 2.21477 2.67517 0
M  V30 4857 C 467.738 3.37256 2.63519 0
M  V30 4858 C 467.064 3.51576 4.02862 0
M  V30 4859 C 468.364 4.73157 2.21179 0
M  V30 4860 H 470.058 2.81832 1.01051 0
M  V30 4861 H 467.604 1.35599 0.484662 0
M  V30 4862 H 469.557 2.46055 3.42104 0
M  V30 4863 H 468.281 1.29144 2.99982 0
M  V30 4864 H 466.94 3.12675 1.9139 0
M  V30 4865 H 466.588 2.56676 4.32581 0
M  V30 4866 H 466.288 4.2943 4.01078 0
M  V30 4867 H 467.812 3.78467 4.79161 0
M  V30 4868 H 469.226 4.97158 2.85494 0
M  V30 4869 H 467.623 5.54058 2.30521 0
M  V30 4870 H 468.693 4.70739 1.16332 0
M  V30 4871 N 470.036 -0.519951 1.48776 0
M  V30 4872 C 470.983 -1.62352 1.64044 0
M  V30 4873 C 471.953 -1.58945 0.482251 0
M  V30 4874 O 473.138 -1.77219 0.706971 0
M  V30 4875 C 470.278 -3.00579 1.69547 0
M  V30 4876 C 469.391 -3.14145 2.96541 0
M  V30 4877 C 468.526 -4.42991 2.93142 0
M  V30 4878 C 467.565 -4.50122 4.14797 0
M  V30 4879 N 466.702 -5.7037 4.09418 0
M  V30 4880 H 471.542 -1.48643 2.58281 0
M  V30 4881 H 469.079 -0.723516 1.28077 0
M  V30 4882 H 471.037 -3.80671 1.70719 0
M  V30 4883 H 469.667 -3.13036 0.787918 0
M  V30 4884 H 468.719 -2.27239 3.05068 0
M  V30 4885 H 470.031 -3.15275 3.86527 0
M  V30 4886 H 469.185 -5.31385 2.92772 0
M  V30 4887 H 467.924 -4.44398 2.00902 0
M  V30 4888 H 466.929 -3.60133 4.15433 0
M  V30 4889 H 468.154 -4.50445 5.08208 0
M  V30 4890 H 466.1 -5.72655 3.20004 0
M  V30 4891 H 466.017 -5.73036 4.93119 0
M  V30 4892 H 467.285 -6.61023 4.13121 0
M  V30 4893 N 471.514 -1.37532 -0.769588 0
M  V30 4894 C 472.744 -1.35861 -1.55645 0
M  V30 4895 C 473.152 0.0574398 -1.89113 0
M  V30 4896 O 472.495 1.03021 -1.52093 0
M  V30 4897 C 472.557 -2.13431 -2.89288 0
M  V30 4898 C 472.221 -3.62378 -2.78444 0
M  V30 4899 C 473.218 -4.56215 -2.49326 0
M  V30 4900 C 470.903 -4.05529 -2.96398 0
M  V30 4901 C 472.897 -5.91181 -2.38294 0
M  V30 4902 C 470.584 -5.40579 -2.84987 0
M  V30 4903 C 471.582 -6.33218 -2.55975 0
M  V30 4904 O 471.27 -7.65787 -2.44594 0
M  V30 4905 H 471.002 -0.467001 -0.48876 0
M  V30 4906 H 473.556 -1.81505 -0.961515 0
M  V30 4907 H 471.786 -1.62481 -3.50909 0
M  V30 4908 H 473.475 -2.04368 -3.50697 0
M  V30 4909 H 474.241 -4.24187 -2.35139 0
M  V30 4910 H 470.12 -3.33781 -3.1798 0
M  V30 4911 H 473.664 -6.63457 -2.15571 0
M  V30 4912 H 469.561 -5.72209 -2.98743 0
M  V30 4913 H 470.329 -7.76132 -2.59927 0
M  V30 4914 N 472.992 0.995999 -1.22138 0
M  V30 4915 C 473.922 2.10387 -1.01289 0
M  V30 4916 C 474.903 1.69975 0.0651454 0
M  V30 4917 O 476.088 1.9396 -0.0964628 0
M  V30 4918 C 473.218 3.42312 -0.586517 0
M  V30 4919 C 472.172 3.96558 -1.61014 0
M  V30 4920 C 471.498 5.24494 -1.0397 0
M  V30 4921 C 472.798 4.27595 -2.99933 0
M  V30 4922 H 474.492 2.28086 -1.93951 0
M  V30 4923 H 472.038 1.09607 -0.933928 0
M  V30 4924 H 473.991 4.19223 -0.427793 0
M  V30 4925 H 472.715 3.24431 0.375761 0
M  V30 4926 H 471.374 3.21776 -1.75658 0
M  V30 4927 H 471.022 5.02953 -0.0688703 0
M  V30 4928 H 470.722 5.61755 -1.72352 0
M  V30 4929 H 472.246 6.04042 -0.892494 0
M  V30 4930 H 473.66 4.95315 -2.8868 0
M  V30 4931 H 472.057 4.76021 -3.6541 0
M  V30 4932 H 473.127 3.35498 -3.50099 0
M  V30 4933 N 474.47 1.03057 1.19235 0
M  V30 4934 C 475.4 0.633497 2.24742 0
M  V30 4935 C 476.381 -0.358335 1.66283 0
M  V30 4936 O 477.566 -0.240676 1.92703 0
M  V30 4937 C 474.696 -0.0147648 3.47297 0
M  V30 4938 C 473.65 0.899527 4.18441 0
M  V30 4939 C 472.976 0.116281 5.34574 0
M  V30 4940 C 474.276 2.21404 4.73051 0
M  V30 4941 H 475.97 1.5155 2.58211 0
M  V30 4942 H 473.516 0.73014 1.24117 0
M  V30 4943 H 475.469 -0.304202 4.20301 0
M  V30 4944 H 474.193 -0.931577 3.13032 0
M  V30 4945 H 472.852 1.17319 3.47321 0
M  V30 4946 H 472.5 -0.802619 4.96555 0
M  V30 4947 H 472.2 0.725293 5.83107 0
M  V30 4948 H 473.724 -0.166376 6.10373 0
M  V30 4949 H 475.138 1.98601 5.37802 0
M  V30 4950 H 473.535 2.77512 5.32078 0
M  V30 4951 H 474.605 2.86752 3.91026 0
M  V30 4952 N 475.948 -1.35272 0.808662 0
M  V30 4953 C 476.878 -2.32315 0.234981 0
M  V30 4954 C 477.859 -1.57572 -0.64071 0
M  V30 4955 O 479.044 -1.8563 -0.570551 0
M  V30 4956 C 476.174 -3.41801 -0.615601 0
M  V30 4957 C 475.128 -4.27694 0.161767 0
M  V30 4958 C 474.454 -5.28519 -0.810649 0
M  V30 4959 C 475.754 -5.04231 1.36193 0
M  V30 4960 H 477.448 -2.80543 1.04575 0
M  V30 4961 H 474.994 -1.3488 0.504315 0
M  V30 4962 H 476.947 -4.08693 -1.02702 0
M  V30 4963 H 475.671 -2.92186 -1.45928 0
M  V30 4964 H 474.33 -3.62384 0.554382 0
M  V30 4965 H 473.978 -4.75171 -1.64988 0
M  V30 4966 H 473.678 -5.8686 -0.294822 0
M  V30 4967 H 475.202 -5.98283 -1.22023 0
M  V30 4968 H 476.616 -5.64058 1.02528 0
M  V30 4969 H 475.013 -5.72077 1.81239 0
M  V30 4970 H 476.083 -4.34753 2.14751 0
M  V30 4971 N 477.426 -0.562348 -1.47226 0
M  V30 4972 C 478.356 0.170627 -2.32876 0
M  V30 4973 C 479.337 0.903748 -1.44106 0
M  V30 4974 O 480.522 0.883206 -1.72954 0
M  V30 4975 C 477.652 1.19786 -3.25989 0
M  V30 4976 C 476.606 0.580875 -4.2404 0
M  V30 4977 C 475.932 1.71311 -5.06514 0
M  V30 4978 C 477.232 -0.468714 -5.20193 0
M  V30 4979 H 478.926 -0.544441 -2.94408 0
M  V30 4980 H 476.472 -0.263271 -1.41573 0
M  V30 4981 H 478.425 1.71884 -3.84752 0
M  V30 4982 H 477.149 1.94294 -2.62521 0
M  V30 4983 H 475.808 0.0811538 -3.6651 0
M  V30 4984 H 475.456 2.44736 -4.39447 0
M  V30 4985 H 475.156 1.30604 -5.72902 0
M  V30 4986 H 476.68 2.23725 -5.68137 0
M  V30 4987 H 478.094 -0.0336028 -5.7329 0
M  V30 4988 H 476.491 -0.794957 -5.94811 0
M  V30 4989 H 477.561 -1.36269 -4.65359 0
M  V30 4990 N 478.904 1.54736 -0.299062 0
M  V30 4991 C 480.129 2.04975 0.316254 0
M  V30 4992 C 480.554 1.17501 1.46885 0
M  V30 4993 O 479.912 0.178678 1.80417 0
M  V30 4994 C 479.96 3.52672 0.751997 0
M  V30 4995 O 479.064 3.68226 1.85697 0
M  V30 4996 H 478.405 0.661126 0.0617175 0
M  V30 4997 H 480.935 1.99805 -0.440341 0
M  V30 4998 H 480.945 3.94488 1.04133 0
M  V30 4999 H 479.62 4.158 -0.0911482 0
M  V30 5000 H 478.197 3.38316 1.56834 0
M  V30 5001 N 480.382 0.0267497 1.57577 0
M  V30 5002 C 481.61 -0.662661 1.96001 0
M  V30 5003 C 482.025 -1.65799 0.903117 0
M  V30 5004 O 481.382 -1.82135 -0.115317 0
M  V30 5005 C 481.433 -1.37112 3.34488 0
M  V30 5006 O 481.154 -0.415683 4.36123 0
M  V30 5007 C 482.655 -2.15257 3.8753 0
M  V30 5008 H 479.875 -0.18287 0.6456 0
M  V30 5009 H 482.419 0.0858116 2.0432 0
M  V30 5010 H 480.574 -2.07101 3.27395 0
M  V30 5011 H 480.988 -0.918496 5.16395 0
M  V30 5012 H 482.462 -2.60285 4.86781 0
M  V30 5013 H 482.939 -2.99063 3.21649 0
M  V30 5014 H 483.545 -1.50231 3.97883 0
M  V30 5015 N 481.861 -1.55662 -0.24637 0
M  V30 5016 C 483.107 -1.77782 -0.975779 0
M  V30 5017 C 483.44 -0.592103 -1.84953 0
M  V30 5018 O 482.715 0.409588 -1.90138 0
M  V30 5019 C 482.998 -3.09788 -1.83584 0
M  V30 5020 C 482.851 -4.38764 -0.990241 0
M  V30 5021 C 484.17 -3.38029 -2.81823 0
M  V30 5022 H 481.289 -0.646789 -0.353317 0
M  V30 5023 H 483.931 -1.88398 -0.246248 0
M  V30 5024 H 482.081 -3.00869 -2.45784 0
M  V30 5025 H 483.753 -4.59675 -0.386897 0
M  V30 5026 H 481.996 -4.32798 -0.294626 0
M  V30 5027 H 482.667 -5.27514 -1.62584 0
M  V30 5028 H 485.143 -3.46915 -2.2976 0
M  V30 5029 H 484.019 -4.3161 -3.39122 0
M  V30 5030 H 484.28 -2.58968 -3.58313 0
M  V30 5031 N 483.339 0.512053 -1.4905 0
M  V30 5032 C 484.269 1.62365 -1.67809 0
M  V30 5033 C 485.25 1.61737 -0.526809 0
M  V30 5034 O 486.435 1.78651 -0.761404 0
M  V30 5035 C 483.565 3.00895 -1.73435 0
M  V30 5036 C 482.519 3.16387 -2.88242 0
M  V30 5037 C 481.845 4.56157 -2.78971 0
M  V30 5038 C 483.145 2.97457 -4.29321 0
M  V30 5039 H 484.839 1.46921 -2.60873 0
M  V30 5040 H 482.385 0.705379 -1.2554 0
M  V30 5041 H 484.338 3.78549 -1.85145 0
M  V30 5042 H 483.062 3.17403 -0.769619 0
M  V30 5043 H 481.721 2.41155 -2.76116 0
M  V30 5044 H 481.369 4.69525 -1.8043 0
M  V30 5045 H 481.069 4.67465 -3.5602 0
M  V30 5046 H 482.593 5.35886 -2.92675 0
M  V30 5047 H 484.007 3.64888 -4.42187 0
M  V30 5048 H 482.404 3.20245 -5.07507 0
M  V30 5049 H 483.474 1.93692 -4.44535 0
M  V30 5050 N 484.817 1.37938 0.762283 0
M  V30 5051 C 485.749 1.30349 1.88525 0
M  V30 5052 C 486.762 0.217402 1.61342 0
M  V30 5053 O 487.951 0.474291 1.72084 0
M  V30 5054 C 485.051 0.994844 3.23969 0
M  V30 5055 C 484.224 2.18829 3.78725 0
M  V30 5056 C 483.283 1.84844 4.92665 0
M  V30 5057 O 482.309 2.57244 5.07754 0
M  V30 5058 N 483.511 0.798201 5.74986 0
M  V30 5059 H 486.276 2.27114 1.95549 0
M  V30 5060 H 483.837 1.31686 0.941825 0
M  V30 5061 H 485.829 0.748168 3.97724 0
M  V30 5062 H 484.399 0.115446 3.12387 0
M  V30 5063 H 483.619 2.59615 2.96637 0
M  V30 5064 H 484.907 2.98497 4.1204 0
M  V30 5065 H 484.305 0.197611 5.65355 0
M  V30 5066 H 482.862 0.611396 6.48926 0
M  V30 5067 N 486.295 -0.989507 1.22664 0
M  V30 5068 C 487.52 -1.77031 1.08051 0
M  V30 5069 C 487.945 -1.84535 -0.364483 0
M  V30 5070 O 487.303 -1.3003 -1.2634 0
M  V30 5071 C 487.351 -3.18 1.70024 0
M  V30 5072 O 486.455 -4.01161 0.956216 0
M  V30 5073 H 485.796 -0.545008 0.379292 0
M  V30 5074 H 488.326 -1.24277 1.62531 0
M  V30 5075 H 488.336 -3.68616 1.74888 0
M  V30 5076 H 487.011 -3.11853 2.75174 0
M  V30 5077 H 485.588 -3.59687 0.98384 0
M  V30 5078 N 487.773 -1.03688 -1.18687 0
M  V30 5079 C 488.703 -0.645407 -2.24403 0
M  V30 5080 C 489.684 0.349511 -1.66471 0
M  V30 5081 O 490.869 0.230453 -1.92828 0
M  V30 5082 C 487.999 -0.00365337 -3.473 0
M  V30 5083 C 486.953 -0.921705 -4.17958 0
M  V30 5084 C 486.279 -0.144629 -5.34504 0
M  V30 5085 C 487.579 -2.23909 -4.71871 0
M  V30 5086 H 489.273 -1.52917 -2.57404 0
M  V30 5087 H 486.819 -0.736711 -1.23728 0
M  V30 5088 H 488.772 0.281908 -4.20456 0
M  V30 5089 H 487.496 0.914963 -3.13522 0
M  V30 5090 H 486.155 -1.19159 -3.46694 0
M  V30 5091 H 485.803 0.776274 -4.96974 0
M  V30 5092 H 485.503 -0.756206 -5.82714 0
M  V30 5093 H 487.027 0.134004 -6.10453 0
M  V30 5094 H 488.441 -2.0145 -5.36741 0
M  V30 5095 H 486.838 -2.8033 -5.30599 0
M  V30 5096 H 487.908 -2.88822 -3.895 0
M  V30 5097 N 489.251 1.34841 -0.815825 0
M  V30 5098 C 490.214 2.27959 -0.238185 0
M  V30 5099 C 491.214 1.49983 0.579816 0
M  V30 5100 O 492.404 1.69617 0.396953 0
M  V30 5101 C 489.536 3.34314 0.666876 0
M  V30 5102 H 490.729 2.80558 -1.05958 0
M  V30 5103 H 488.282 1.44852 -0.587156 0
M  V30 5104 H 489.017 2.86916 1.5116 0
M  V30 5105 H 488.802 3.92014 0.0819106 0
M  V30 5106 H 490.292 4.0379 1.06506 0
M  V30 5107 N 490.729 0.570148 1.46925 0
M  V30 5108 C 491.978 0.0487352 2.01641 0
M  V30 5109 C 492.291 -1.31433 1.44861 0
M  V30 5110 O 493.497 -1.92638 1.91318 0
M  V30 5111 C 491.953 0.0365817 3.59881 0
M  V30 5112 C 491.561 1.39719 4.25655 0
M  V30 5113 C 493.305 -0.431545 4.22301 0
M  V30 5114 C 491.212 1.34345 5.75939 0
M  V30 5115 H 490.142 0.0144492 0.753862 0
M  V30 5116 H 492.793 0.719928 1.68788 0
M  V30 5117 H 491.175 -0.700522 3.89755 0
M  V30 5118 H 492.349 2.15303 4.07408 0
M  V30 5119 H 490.664 1.80431 3.75278 0
M  V30 5120 H 493.261 -0.490354 5.32447 0
M  V30 5121 H 493.604 -1.44638 3.90366 0
M  V30 5122 H 494.137 0.251102 3.97007 0
M  V30 5123 H 490.876 2.33469 6.12513 0
M  V30 5124 H 490.396 0.629615 5.96486 0
M  V30 5125 H 492.075 1.051 6.38407 0
M  V30 5126 N 492.207 -1.54576 0.307264 0
M  V30 5127 C 493.137 -2.26708 -0.55907 0
M  V30 5128 C 494.118 -1.26893 -1.1328 0
M  V30 5129 O 495.303 -1.55677 -1.16097 0
M  V30 5130 C 492.433 -3.01259 -1.72801 0
M  V30 5131 C 491.387 -4.08275 -1.28435 0
M  V30 5132 C 490.713 -4.70575 -2.53895 0
M  V30 5133 C 492.013 -5.2068 -0.411038 0
M  V30 5134 H 493.707 -2.9937 0.042576 0
M  V30 5135 H 491.253 -1.43983 0.0219173 0
M  V30 5136 H 493.206 -3.50444 -2.34023 0
M  V30 5137 H 491.93 -2.26187 -2.356 0
M  V30 5138 H 490.589 -3.59949 -0.695161 0
M  V30 5139 H 490.237 -3.92136 -3.15021 0
M  V30 5140 H 489.937 -5.42854 -2.24908 0
M  V30 5141 H 491.461 -5.22527 -3.15908 0
M  V30 5142 H 492.875 -5.65721 -0.929097 0
M  V30 5143 H 491.272 -5.99716 -0.214664 0
M  V30 5144 H 492.342 -4.81629 0.562287 0
M  V30 5145 N 493.685 -0.035106 -1.57561 0
M  V30 5146 C 494.648 0.929819 -2.09492 0
M  V30 5147 C 495.648 1.25026 -1.01119 0
M  V30 5148 O 496.838 1.18961 -1.27255 0
M  V30 5149 C 493.97 2.24457 -2.56577 0
M  V30 5150 H 495.163 0.479935 -2.96035 0
M  V30 5151 H 492.716 0.213033 -1.54841 0
M  V30 5152 H 493.451 2.74061 -1.73382 0
M  V30 5153 H 493.236 2.02508 -3.35757 0
M  V30 5154 H 494.726 2.93607 -2.96959 0
M  V30 5155 N 495.163 1.55791 0.238111 0
M  V30 5156 C 496.412 1.77234 0.962868 0
M  V30 5157 C 496.725 0.600661 1.86149 0
M  V30 5158 O 497.931 0.698315 2.62366 0
M  V30 5159 C 496.387 3.13808 1.76218 0
M  V30 5160 C 495.995 4.3865 0.910518 0
M  V30 5161 C 497.739 3.44585 2.47914 0
M  V30 5162 C 495.646 5.66252 1.70623 0
M  V30 5163 H 494.576 0.660731 0.36325 0
M  V30 5164 H 497.227 1.8221 0.217242 0
M  V30 5165 H 495.609 3.02963 2.55009 0
M  V30 5166 H 496.783 4.60507 0.164316 0
M  V30 5167 H 495.098 4.15271 0.30647 0
M  V30 5168 H 497.695 4.3714 3.07917 0
M  V30 5169 H 498.038 2.66314 3.19973 0
M  V30 5170 H 498.571 3.56685 1.76127 0
M  V30 5171 H 495.31 6.47369 1.02923 0
M  V30 5172 H 494.83 5.48483 2.42748 0
M  V30 5173 H 496.509 6.05829 2.27114 0
M  V30 5174 N 496.642 -0.504142 1.49319 0
M  V30 5175 C 497.89 -1.25598 1.58334 0
M  V30 5176 C 498.211 -1.93114 0.270538 0
M  V30 5177 O 497.481 -1.82585 -0.709891 0
M  V30 5178 H 496.061 -0.466571 0.58337 0
M  V30 5179 H 498.723 -0.584547 1.85928 0
M  V30 5180 H 497.819 -2.02159 2.37778 0
M  V30 5181 N 498.12 -1.38341 -0.754957 0
M  V30 5182 C 499.35 -1.37504 -1.54195 0
M  V30 5183 C 499.758 0.0373787 -1.89163 0
M  V30 5184 O 499.101 1.01402 -1.53178 0
M  V30 5185 C 499.163 -2.16488 -2.87008 0
M  V30 5186 C 498.827 -3.65311 -2.74585 0
M  V30 5187 C 499.824 -4.58834 -2.44474 0
M  V30 5188 C 497.509 -4.08649 -2.9208 0
M  V30 5189 C 499.503 -5.93675 -2.32011 0
M  V30 5190 C 497.19 -5.43571 -2.79237 0
M  V30 5191 C 498.188 -6.35898 -2.49245 0
M  V30 5192 O 497.876 -7.68338 -2.36458 0
M  V30 5193 H 497.608 -0.472159 -0.483779 0
M  V30 5194 H 500.162 -1.82515 -0.94221 0
M  V30 5195 H 498.392 -1.66194 -3.49166 0
M  V30 5196 H 500.081 -2.08076 -3.4851 0
M  V30 5197 H 500.847 -4.26657 -2.30627 0
M  V30 5198 H 496.726 -3.37134 -3.14422 0
M  V30 5199 H 500.27 -6.65706 -2.08522 0
M  V30 5200 H 496.167 -5.75345 -2.92657 0
M  V30 5201 H 496.935 -7.78845 -2.5168 0
M  V30 5202 N 499.598 0.982988 -1.23187 0
M  V30 5203 C 500.844 1.72648 -1.06398 0
M  V30 5204 C 501.177 1.90066 0.398561 0
M  V30 5205 O 500.452 1.45105 1.29518 0
M  V30 5206 C 500.735 3.12627 -1.78707 0
M  V30 5207 C 500.588 3.02795 -3.32618 0
M  V30 5208 C 501.907 4.11997 -1.54747 0
M  V30 5209 H 499.026 0.626649 -0.387918 0
M  V30 5210 H 501.668 1.14455 -1.51658 0
M  V30 5211 H 499.818 3.62308 -1.40234 0
M  V30 5212 H 501.49 2.60659 -3.80598 0
M  V30 5213 H 499.733 2.39362 -3.61785 0
M  V30 5214 H 500.404 4.01893 -3.78399 0
M  V30 5215 H 502.88 3.71114 -1.88186 0
M  V30 5216 H 501.756 5.08037 -2.07821 0
M  V30 5217 H 502.017 4.39462 -0.482249 0
M  V30 5218 N 501.076 1.04316 1.18135 0
M  V30 5219 C 502.316 0.756937 1.89868 0
M  V30 5220 C 502.68 -0.702609 1.78682 0
M  V30 5221 O 503.881 -1.10255 2.45148 0
M  V30 5222 C 502.152 1.21327 3.36176 0
M  V30 5223 S 503.711 1.05307 4.25976 0
M  V30 5224 H 500.529 0.275143 0.655604 0
M  V30 5225 H 503.131 1.33597 1.42731 0
M  V30 5226 H 501.835 2.27086 3.41848 0
M  V30 5227 H 501.366 0.628137 3.88353 0
M  V30 5228 H 503.381 -0.0280093 4.96192 0
M  V30 5229 N 502.554 -1.34406 0.822964 0
M  V30 5230 C 503.801 -1.98284 0.411057 0
M  V30 5231 C 504.129 -1.65245 -1.02588 0
M  V30 5232 O 503.384 -0.91619 -1.72929 0
M  V30 5233 C 503.683 -3.52981 0.560268 0
M  V30 5234 C 503.349 -4.05931 1.96293 0
M  V30 5235 C 502.011 -4.20103 2.34664 0
M  V30 5236 C 504.363 -4.34412 2.87985 0
M  V30 5237 C 501.691 -4.60082 3.64062 0
M  V30 5238 C 504.043 -4.75838 4.16847 0
M  V30 5239 C 502.707 -4.88215 4.55195 0
M  V30 5240 H 501.977 -0.725573 0.150416 0
M  V30 5241 H 504.624 -1.60349 1.04692 0
M  V30 5242 H 502.929 -3.91477 -0.158982 0
M  V30 5243 H 504.626 -4.00385 0.222087 0
M  V30 5244 H 501.216 -3.95363 1.65487 0
M  V30 5245 H 505.4 -4.23001 2.59584 0
M  V30 5246 H 500.656 -4.67856 3.93599 0
M  V30 5247 H 504.83 -4.96834 4.87984 0
M  V30 5248 H 502.457 -5.18952 5.55512 0
M  V30 5249 N 504.032 -0.577932 -1.46621 0
M  V30 5250 C 505.443 -0.150071 -1.86096 0
M  V30 5251 C 505.794 1.28563 -1.48209 0
M  V30 5252 O 504.919 1.97036 -0.894754 0
M  V30 5253 C 505.514 -0.265576 -3.37758 0
M  V30 5254 C 504.073 0.10738 -3.76247 0
M  V30 5255 C 503.22 -0.603711 -2.70649 0
M  V30 5256 H 506.171 -0.786438 -1.37844 0
M  V30 5257 H 506.192 0.510352 -3.77062 0
M  V30 5258 H 505.704 -1.3106 -3.65301 0
M  V30 5259 H 503.805 1.15272 -3.54321 0
M  V30 5260 H 503.918 -0.26561 -4.78363 0
M  V30 5261 H 502.282 -0.0444884 -2.54661 0
M  V30 5262 H 503.065 -1.65029 -3.01032 0
M  V30 5263 N 505.51 1.54411 -0.315457 0
M  V30 5264 C 506.735 2.05299 0.294496 0
M  V30 5265 C 507.16 1.19052 1.4563 0
M  V30 5266 O 506.518 0.197804 1.80218 0
M  V30 5267 C 506.566 3.5345 0.714549 0
M  V30 5268 O 505.67 3.70175 1.81781 0
M  V30 5269 H 505.011 0.661743 0.0547019 0
M  V30 5270 H 507.541 1.99327 -0.461508 0
M  V30 5271 H 507.551 3.9557 0.999426 0
M  V30 5272 H 506.226 4.1568 -0.135244 0
M  V30 5273 H 504.803 3.3996 1.53236 0
M  V30 5274 N 506.988 0.0434614 1.5754 0
M  V30 5275 C 507.918 -0.931651 2.14109 0
M  V30 5276 C 508.899 -1.32971 1.06079 0
M  V30 5277 O 510.084 -1.40579 1.33982 0
M  V30 5278 C 507.214 -2.20914 2.67982 0
M  V30 5279 C 506.168 -1.95139 3.80926 0
M  V30 5280 C 505.494 -3.29276 4.21285 0
M  V30 5281 C 506.794 -1.27913 5.06395 0
M  V30 5282 H 508.488 -0.460497 2.95837 0
M  V30 5283 H 506.034 -0.220058 1.42309 0
M  V30 5284 H 507.987 -2.89522 3.06194 0
M  V30 5285 H 506.711 -2.70221 1.83434 0
M  V30 5286 H 505.37 -1.28945 3.43175 0
M  V30 5287 H 505.018 -3.76369 3.33699 0
M  V30 5288 H 504.718 -3.12831 4.97404 0
M  V30 5289 H 506.242 -3.99129 4.62091 0
M  V30 5290 H 507.656 -1.86544 5.42102 0
M  V30 5291 H 506.053 -1.2182 5.87605 0
M  V30 5292 H 507.123 -0.254066 4.84234 0
M  V30 5293 N 508.466 -1.55915 -0.229846 0
M  V30 5294 C 509.712 -1.78807 -0.956868 0
M  V30 5295 C 510.045 -0.611687 -1.84315 0
M  V30 5296 O 509.32 0.389398 -1.90562 0
M  V30 5297 C 509.603 -3.11718 -1.80288 0
M  V30 5298 C 509.456 -4.3979 -0.943649 0
M  V30 5299 C 510.775 -3.40999 -2.78222 0
M  V30 5300 H 507.894 -0.6505 -0.346437 0
M  V30 5301 H 510.536 -1.88648 -0.226252 0
M  V30 5302 H 508.686 -3.03459 -2.42579 0
M  V30 5303 H 510.358 -4.60059 -0.338121 0
M  V30 5304 H 508.601 -4.33086 -0.248705 0
M  V30 5305 H 509.272 -5.29208 -1.5698 0
M  V30 5306 H 511.748 -3.49332 -2.26067 0
M  V30 5307 H 510.624 -4.35183 -3.34526 0
M  V30 5308 H 510.885 -2.62754 -3.55546 0
M  V30 5309 N 509.944 0.496216 -1.49584 0
M  V30 5310 C 510.891 1.59722 -1.66606 0
M  V30 5311 C 511.861 1.58158 -0.507477 0
M  V30 5312 O 513.046 1.76072 -0.735076 0
M  V30 5313 C 510.186 2.97844 -1.74308 0
M  V30 5314 C 509.299 3.09388 -3.01502 0
M  V30 5315 C 508.434 4.38271 -3.00153 0
M  V30 5316 C 507.473 4.43466 -4.21906 0
M  V30 5317 N 506.61 5.63784 -4.1844 0
M  V30 5318 H 511.45 1.44515 -2.60613 0
M  V30 5319 H 508.987 0.703048 -1.29212 0
M  V30 5320 H 510.945 3.77907 -1.76754 0
M  V30 5321 H 509.575 3.11743 -0.837619 0
M  V30 5322 H 508.627 2.22357 -3.08645 0
M  V30 5323 H 509.939 3.09085 -3.91494 0
M  V30 5324 H 509.093 5.2666 -3.01188 0
M  V30 5325 H 507.832 4.41146 -2.07947 0
M  V30 5326 H 506.837 3.53478 -4.21109 0
M  V30 5327 H 508.062 4.42303 -5.1531 0
M  V30 5328 H 506.008 5.67491 -3.29074 0
M  V30 5329 H 505.925 5.65118 -5.02173 0
M  V30 5330 H 507.193 6.54367 -4.23585 0
M  V30 5331 N 511.423 1.38739 0.74761 0
M  V30 5332 C 512.653 1.3832 1.53464 0
M  V30 5333 C 513.061 -0.0273464 1.8918 0
M  V30 5334 O 512.404 -1.00588 1.53713 0
M  V30 5335 C 512.466 2.18007 2.85855 0
M  V30 5336 C 512.13 3.66762 2.72644 0
M  V30 5337 C 513.127 4.60124 2.42037 0
M  V30 5338 C 510.812 4.10193 2.89909 0
M  V30 5339 C 512.806 5.94897 2.28859 0
M  V30 5340 C 510.493 5.45045 2.7635 0
M  V30 5341 C 511.491 6.37211 2.45869 0
M  V30 5342 O 511.179 7.69581 2.3238 0
M  V30 5343 H 510.911 0.474718 0.481268 0
M  V30 5344 H 513.465 1.83012 0.932518 0
M  V30 5345 H 511.695 1.68043 3.48279 0
M  V30 5346 H 513.384 2.09921 3.47402 0
M  V30 5347 H 514.15 4.27874 2.28361 0
M  V30 5348 H 510.029 3.38797 3.1263 0
M  V30 5349 H 513.573 6.66802 2.04989 0
M  V30 5350 H 509.47 5.76889 2.89601 0
M  V30 5351 H 510.238 7.80169 2.47546 0
M  V30 5352 N 512.901 -0.976442 1.23707 0
M  V30 5353 C 513.849 -2.09078 1.01927 0
M  V30 5354 C 514.843 -1.69345 -0.0430193 0
M  V30 5355 O 516.049 -1.79659 0.110814 0
M  V30 5356 H 512.424 -0.68398 0.312531 0
M  V30 5357 H 514.395 -2.24614 1.96447 0
M  V30 5358 C 513.144 -3.41919 0.631385 0
M  V30 5359 H 512.467 -3.72946 1.44053 0
M  V30 5360 H 513.907 -4.20817 0.518532 0
M  V30 5361 C 512.366 -3.30357 -0.660723 0
M  V30 5362 O 512.896 -3.63542 -1.70881 0
M  V30 5363 N 511.102 -2.83507 -0.638139 0
M  V30 5364 H 510.649 -2.567 0.215108 0
M  V30 5365 H 510.607 -2.76153 -1.50289 0
M  V30 5366 N 514.379 -1.04941 -1.1758 0
M  V30 5367 C 515.609 -0.777166 -1.91425 0
M  V30 5368 C 516.017 0.670647 -1.76915 0
M  V30 5369 O 515.36 1.46965 -1.10213 0
M  V30 5370 C 515.422 -1.07495 -3.43052 0
M  V30 5371 C 515.086 -2.51844 -3.81345 0
M  V30 5372 C 516.083 -3.50047 -3.844 0
M  V30 5373 C 513.768 -2.86787 -4.12382 0
M  V30 5374 C 515.762 -4.81239 -4.17957 0
M  V30 5375 C 513.449 -4.18182 -4.45608 0
M  V30 5376 C 514.447 -5.15219 -4.48373 0
M  V30 5377 O 514.135 -6.44258 -4.80819 0
M  V30 5378 H 513.867 -0.282209 -0.614275 0
M  V30 5379 H 516.421 -1.40258 -1.50056 0
M  V30 5380 H 514.651 -0.392437 -3.84704 0
M  V30 5381 H 516.34 -0.78912 -3.98155 0
M  V30 5382 H 517.106 -3.24391 -3.60548 0
M  V30 5383 H 512.985 -2.11922 -4.09402 0
M  V30 5384 H 516.529 -5.56974 -4.2003 0
M  V30 5385 H 512.426 -4.43602 -4.68922 0
M  V30 5386 H 513.194 -6.49041 -4.98686 0
M  V30 5387 N 515.857 1.33968 -0.830081 0
M  V30 5388 C 516.787 2.31911 -0.271911 0
M  V30 5389 C 517.768 1.58571 0.61556 0
M  V30 5390 O 518.953 1.86514 0.540946 0
M  V30 5391 C 516.083 3.42737 0.561146 0
M  V30 5392 C 515.037 4.27383 -0.229789 0
M  V30 5393 C 514.363 5.29742 0.726463 0
M  V30 5394 C 515.663 5.02 -1.44197 0
M  V30 5395 H 517.357 2.78844 -1.09025 0
M  V30 5396 H 514.903 1.34061 -0.52571 0
M  V30 5397 H 516.856 4.10276 0.961867 0
M  V30 5398 H 515.58 2.94471 1.41261 0
M  V30 5399 H 514.239 3.61456 -0.611964 0
M  V30 5400 H 513.887 4.77736 1.57408 0
M  V30 5401 H 513.587 5.87255 0.20142 0
M  V30 5402 H 515.111 6.00149 1.12489 0
M  V30 5403 H 516.525 5.62355 -1.11488 0
M  V30 5404 H 514.922 5.69122 -1.90317 0
M  V30 5405 H 515.992 4.31281 -2.2164 0
M  V30 5406 N 517.335 0.585699 1.46312 0
M  V30 5407 C 518.282 -0.145835 2.30339 0
M  V30 5408 C 519.252 -0.881215 1.40797 0
M  V30 5409 O 520.437 -0.871293 1.69744 0
M  V30 5410 C 517.577 -1.15161 3.25318 0
M  V30 5411 C 516.69 -0.419367 4.2996 0
M  V30 5412 C 515.825 -1.41293 5.12064 0
M  V30 5413 C 514.864 -0.667261 6.08452 0
M  V30 5414 N 514.001 -1.60903 6.83414 0
M  V30 5415 H 518.841 0.576755 2.92365 0
M  V30 5416 H 516.378 0.296237 1.44086 0
M  V30 5417 H 518.336 -1.74763 3.78832 0
M  V30 5418 H 516.966 -1.84188 2.65094 0
M  V30 5419 H 516.018 0.291751 3.7928 0
M  V30 5420 H 517.33 0.163433 4.98532 0
M  V30 5421 H 516.484 -2.08167 5.6987 0
M  V30 5422 H 515.223 -2.02966 4.43459 0
M  V30 5423 H 514.228 0.0152356 5.49798 0
M  V30 5424 H 515.453 -0.0558817 6.79077 0
M  V30 5425 H 513.399 -2.21381 6.17516 0
M  V30 5426 H 513.316 -1.07911 7.48259 0
M  V30 5427 H 514.584 -2.26802 7.45775 0
M  V30 5428 N 518.813 -1.54241 0.323641 0
M  V30 5429 C 520.09 -1.92741 -0.333181 0
M  V30 5430 C 520.47 -1.25326 -1.69872 0
M  V30 5431 O 519.818 -0.396991 -2.25025 0
M  V30 5432 C 520.028 -3.46399 -0.425322 0
M  V30 5433 C 521.376 -4.19029 -0.68557 0
M  V30 5434 O 522.4 -3.52555 -0.50824 0
M  V30 5435 O 521.259 -5.36751 -1.02767 0
M  V30 5436 H 518.353 -0.804811 -0.190286 0
M  V30 5437 H 520.899 -1.65542 0.373361 0
M  V30 5438 H 519.671 -3.87643 0.533737 0
M  V30 5439 H 519.294 -3.79704 -1.17944 0
M  V30 5440 N 520.291 -0.0518155 -1.57515 0
M  V30 5441 C 521.54 0.621286 -1.91893 0
M  V30 5442 C 521.853 1.71966 -0.932052 0
M  V30 5443 O 523.059 2.45096 -1.16791 0
M  V30 5444 C 521.515 1.15641 -3.40816 0
M  V30 5445 C 521.123 0.0901146 -4.47909 0
M  V30 5446 C 522.867 1.80472 -3.84227 0
M  V30 5447 C 520.774 0.638154 -5.87947 0
M  V30 5448 H 519.704 0.235835 -0.716169 0
M  V30 5449 H 522.355 -0.120809 -1.83102 0
M  V30 5450 H 520.737 1.95084 -3.44613 0
M  V30 5451 H 521.911 -0.683525 -4.55702 0
M  V30 5452 H 520.226 -0.460774 -4.13843 0
M  V30 5453 H 522.823 2.22471 -4.86221 0
M  V30 5454 H 523.166 2.65669 -3.20508 0
M  V30 5455 H 523.699 1.07683 -3.82948 0
M  V30 5456 H 520.438 -0.176202 -6.55263 0
M  V30 5457 H 519.958 1.37976 -5.83714 0
M  V30 5458 H 521.637 1.12085 -6.37217 0
M  V30 5459 N 521.769 1.56035 0.221574 0
M  V30 5460 C 522.719 1.8881 1.27807 0
M  V30 5461 C 523.703 0.751177 1.42289 0
M  V30 5462 O 524.895 1.01359 1.45104 0
M  V30 5463 C 522.024 2.20828 2.6285 0
M  V30 5464 C 521.11 3.40912 2.52269 0
M  V30 5465 N 521.501 4.59531 2.1134 0
M  V30 5466 C 519.799 3.44526 2.83228 0
M  V30 5467 C 520.5 5.41689 2.1201 0
M  V30 5468 N 519.476 4.814 2.52497 0
M  V30 5469 H 523.278 2.78036 0.952529 0
M  V30 5470 H 520.792 1.566 0.430134 0
M  V30 5471 H 522.789 2.42483 3.39127 0
M  V30 5472 H 521.449 1.32914 2.9625 0
M  V30 5473 H 522.46 4.8469 1.82472 0
M  V30 5474 H 519.137 2.66956 3.21 0
M  V30 5475 H 520.527 6.46643 1.82491 0
M  V30 5476 N 523.247 -0.488276 1.49845 0
M  V30 5477 C 524.663 -0.820566 1.3689 0
M  V30 5478 C 524.863 -1.97248 0.411752 0
M  V30 5479 O 523.919 -2.52042 -0.151931 0
M  V30 5480 C 525.232 -1.1488 2.77891 0
M  V30 5481 C 526.78 -1.25626 2.86683 0
M  V30 5482 C 527.255 -1.61772 4.28479 0
M  V30 5483 N 528.746 -1.68797 4.31349 0
M  V30 5484 C 529.481 -1.98235 5.38043 0
M  V30 5485 N 528.977 -2.2581 6.54967 0
M  V30 5486 N 530.77 -1.99593 5.2547 0
M  V30 5487 H 522.921 0.271123 2.10662 0
M  V30 5488 H 525.184 0.058735 0.946179 0
M  V30 5489 H 524.89 -0.375614 3.49688 0
M  V30 5490 H 524.764 -2.08919 3.14058 0
M  V30 5491 H 527.151 -2.02014 2.15114 0
M  V30 5492 H 527.232 -0.296072 2.54081 0
M  V30 5493 H 526.876 -0.859295 5.00578 0
M  V30 5494 H 526.806 -2.58912 4.58554 0
M  V30 5495 H 529.297 -1.49595 3.4703 0
M  V30 5496 H 529.61 -2.47497 7.32096 0
M  V30 5497 H 527.955 -2.23239 6.58171 0
M  V30 5498 H 531.146 -1.77535 4.33127 0
M  V30 5499 H 531.319 -2.222 6.08713 0
M  V30 5500 N 524.725 -1.39134 -0.740242 0
M  V30 5501 C 525.971 -1.37278 -1.50088 0
M  V30 5502 C 526.326 0.0329967 -1.92372 0
M  V30 5503 O 525.619 0.998447 -1.63529 0
M  V30 5504 C 525.813 -2.27457 -2.75678 0
M  V30 5505 C 525.642 -3.76662 -2.45674 0
M  V30 5506 C 524.412 -4.45617 -2.38229 0
M  V30 5507 C 526.61 -4.6877 -2.11563 0
M  V30 5508 N 524.592 -5.80187 -2.00641 0
M  V30 5509 C 525.963 -5.91951 -1.84376 0
M  V30 5510 C 528.018 -4.56843 -1.97987 0
M  V30 5511 C 526.721 -7.04538 -1.4498 0
M  V30 5512 C 528.747 -5.69347 -1.59994 0
M  V30 5513 C 528.109 -6.91597 -1.33687 0
M  V30 5514 H 524.208 -0.557611 -0.548265 0
M  V30 5515 H 526.792 -1.74638 -0.860784 0
M  V30 5516 H 524.963 -1.92263 -3.37475 0
M  V30 5517 H 526.695 -2.16631 -3.41838 0
M  V30 5518 H 523.45 -3.98993 -2.5515 0
M  V30 5519 H 523.874 -6.51387 -1.84454 0
M  V30 5520 H 528.516 -3.62868 -2.16995 0
M  V30 5521 H 526.234 -7.98419 -1.24712 0
M  V30 5522 H 529.82 -5.62104 -1.50102 0
M  V30 5523 H 528.7 -7.77176 -1.04728 0
M  V30 5524 N 526.204 0.969867 -1.24223 0
M  V30 5525 C 527.151 2.06407 -1.0327 0
M  V30 5526 C 528.121 1.66014 0.0533 0
M  V30 5527 O 529.306 1.90533 -0.100896 0
M  V30 5528 C 526.446 3.3909 -0.641262 0
M  V30 5529 C 525.559 3.9269 -1.80051 0
M  V30 5530 C 524.694 5.13631 -1.35486 0
M  V30 5531 C 523.733 5.59423 -2.48419 0
M  V30 5532 N 522.87 6.71586 -2.04737 0
M  V30 5533 H 527.71 2.23663 -1.96923 0
M  V30 5534 H 525.247 1.09624 -0.980862 0
M  V30 5535 H 527.205 4.15323 -0.395351 0
M  V30 5536 H 525.835 3.21765 0.258269 0
M  V30 5537 H 524.887 3.13116 -2.16014 0
M  V30 5538 H 526.199 4.22636 -2.64916 0
M  V30 5539 H 525.353 5.97231 -1.0677 0
M  V30 5540 H 524.092 4.85364 -0.476722 0
M  V30 5541 H 523.097 4.74398 -2.77897 0
M  V30 5542 H 524.322 5.89705 -3.36786 0
M  V30 5543 H 522.268 6.45058 -1.19318 0
M  V30 5544 H 522.185 7.0097 -2.83156 0
M  V30 5545 H 523.453 7.58633 -1.79154 0
M  V30 5546 N 527.682 1.05563 1.17022 0
M  V30 5547 C 528.931 0.763036 1.8671 0
M  V30 5548 C 529.244 -0.712857 1.82147 0
M  V30 5549 O 530.45 -1.11955 2.47343 0
M  V30 5550 C 528.906 1.31474 3.35026 0
M  V30 5551 C 528.514 2.82034 3.48081 0
M  V30 5552 C 530.258 1.09935 4.10018 0
M  V30 5553 C 528.165 3.30486 4.90442 0
M  V30 5554 H 527.095 0.281747 0.699382 0
M  V30 5555 H 529.746 1.2734 1.32124 0
M  V30 5556 H 528.128 0.732171 3.89173 0
M  V30 5557 H 529.302 3.46178 3.04133 0
M  V30 5558 H 527.617 3.02156 2.86515 0
M  V30 5559 H 530.214 1.43632 5.15048 0
M  V30 5560 H 530.557 0.0373072 4.16283 0
M  V30 5561 H 531.09 1.64732 3.62089 0
M  V30 5562 H 527.829 4.36137 4.89352 0
M  V30 5563 H 527.349 2.71086 5.35044 0
M  V30 5564 H 529.028 3.25382 5.59227 0
M  V30 5565 N 529.16 -1.33526 0.837174 0
M  V30 5566 C 530.409 -1.97098 0.428387 0
M  V30 5567 C 530.722 -1.67062 -1.01734 0
M  V30 5568 O 531.928 -2.24235 -1.53072 0
M  V30 5569 C 530.384 -3.52725 0.715075 0
M  V30 5570 C 529.992 -3.9164 2.17537 0
M  V30 5571 C 531.736 -4.22857 0.373154 0
M  V30 5572 C 529.643 -5.40237 2.40619 0
M  V30 5573 H 528.573 -0.737589 0.156455 0
M  V30 5574 H 531.224 -1.52169 1.02552 0
M  V30 5575 H 529.606 -3.95971 0.0475904 0
M  V30 5576 H 530.78 -3.59456 2.88319 0
M  V30 5577 H 529.095 -3.34485 2.4801 0
M  V30 5578 H 531.692 -5.32133 0.523264 0
M  V30 5579 H 532.035 -4.10647 -0.683708 0
M  V30 5580 H 532.568 -3.85135 0.995801 0
M  V30 5581 H 529.307 -5.57449 3.44864 0
M  V30 5582 H 528.827 -5.73887 1.74396 0
M  V30 5583 H 530.506 -6.07102 2.23688 0
M  V30 5584 N 530.638 -0.59345 -1.46 0
M  V30 5585 C 531.884 -0.0832754 -2.02629 0
M  V30 5586 C 532.217 1.27749 -1.46266 0
M  V30 5587 O 531.492 1.8395 -0.631866 0
M  V30 5588 C 531.775 -0.0290756 -3.60088 0
M  V30 5589 C 531.628 -1.41951 -4.26814 0
M  V30 5590 C 532.947 0.666055 -4.35031 0
M  V30 5591 H 530.066 -0.031736 -0.736316 0
M  V30 5592 H 532.708 -0.762711 -1.74019 0
M  V30 5593 H 530.858 0.549532 -3.84594 0
M  V30 5594 H 532.53 -2.04411 -4.13538 0
M  V30 5595 H 530.773 -1.98422 -3.8576 0
M  V30 5596 H 531.444 -1.33395 -5.3564 0
M  V30 5597 H 533.92 0.174401 -4.15734 0
M  V30 5598 H 532.796 0.673041 -5.44758 0
M  V30 5599 H 533.057 1.72946 -4.06869 0
M  V30 5600 N 532.116 1.54067 -0.331816 0
M  V30 5601 C 533.527 1.86059 0.15454 0
M  V30 5602 C 533.878 1.25331 1.50952 0
M  V30 5603 O 533.003 0.562441 2.08963 0
M  V30 5604 C 533.598 3.37581 0.287192 0
M  V30 5605 C 532.157 3.69493 0.717773 0
M  V30 5606 C 531.304 2.76863 -0.155569 0
M  V30 5607 H 534.255 1.48797 -0.55182 0
M  V30 5608 H 534.276 3.63744 1.11671 0
M  V30 5609 H 533.788 3.81751 -0.699131 0
M  V30 5610 H 531.889 3.3086 1.71354 0
M  V30 5611 H 532.002 4.76315 0.5158 0
M  V30 5612 H 530.366 2.51995 0.370213 0
M  V30 5613 H 531.149 3.23861 -1.13881 0
M  V30 5614 N 533.594 0.0601682 1.57485 0
M  V30 5615 C 534.557 -0.896373 2.10945 0
M  V30 5616 C 535.557 -1.23402 1.03095 0
M  V30 5617 O 536.747 -1.16921 1.29132 0
M  V30 5618 C 533.879 -2.20346 2.60116 0
M  V30 5619 H 535.072 -0.432778 2.96761 0
M  V30 5620 H 532.625 -0.188372 1.55161 0
M  V30 5621 H 533.36 -2.71268 1.7772 0
M  V30 5622 H 533.145 -1.9714 3.38937 0
M  V30 5623 H 534.635 -2.88846 3.01592 0
M  V30 5624 N 535.072 -1.5615 -0.213296 0
M  V30 5625 C 536.002 -1.96109 -1.26742 0
M  V30 5626 C 536.983 -0.830448 -1.48451 0
M  V30 5627 O 538.168 -1.09339 -1.60495 0
M  V30 5628 C 535.298 -2.28492 -2.61551 0
M  V30 5629 C 534.252 -3.44124 -2.54485 0
M  V30 5630 C 533.578 -3.62134 -3.93399 0
M  V30 5631 C 534.878 -4.78855 -2.08556 0
M  V30 5632 H 536.572 -2.84412 -0.935434 0
M  V30 5633 H 534.118 -1.36836 -0.44854 0
M  V30 5634 H 536.071 -2.55039 -3.3546 0
M  V30 5635 H 534.795 -1.37052 -2.96453 0
M  V30 5636 H 533.454 -3.17639 -1.83033 0
M  V30 5637 H 533.102 -2.68055 -4.25623 0
M  V30 5638 H 532.802 -4.39913 -3.89551 0
M  V30 5639 H 534.326 -3.91038 -4.68958 0
M  V30 5640 H 535.74 -5.04552 -2.72213 0
M  V30 5641 H 534.137 -5.59975 -2.1575 0
M  V30 5642 H 535.207 -4.73657 -1.03811 0
M  V30 5643 N 536.55 0.480323 -1.50102 0
M  V30 5644 C 537.796 1.23489 -1.60867 0
M  V30 5645 C 538.129 1.91809 -0.303827 0
M  V30 5646 O 537.404 1.81694 0.694092 0
M  V30 5647 C 537.687 2.28578 -2.78252 0
M  V30 5648 C 537.54 1.64624 -4.18592 0
M  V30 5649 C 538.859 3.2997 -2.91218 0
M  V30 5650 H 535.978 0.447605 -0.585507 0
M  V30 5651 H 538.62 0.530005 -1.82458 0
M  V30 5652 H 536.77 2.88697 -2.59974 0
M  V30 5653 H 538.442 1.08173 -4.48438 0
M  V30 5654 H 536.685 0.949645 -4.23278 0
M  V30 5655 H 537.356 2.40946 -4.96638 0
M  V30 5656 H 539.832 2.79864 -3.07921 0
M  V30 5657 H 538.708 4.00839 -3.74993 0
M  V30 5658 H 538.969 3.93541 -2.0144 0
M  V30 5659 N 538.028 1.39524 0.732853 0
M  V30 5660 C 539.276 1.36594 1.48951 0
M  V30 5661 C 539.597 -0.0367507 1.94965 0
M  V30 5662 O 538.867 -0.988391 1.69138 0
M  V30 5663 H 537.447 0.502673 0.552566 0
M  V30 5664 H 540.109 1.74411 0.869869 0
M  V30 5665 H 539.205 2.03 2.3706 0
M  V30 5666 N 539.506 -0.963266 1.24736 0
M  V30 5667 C 540.436 -2.07628 1.06832 0
M  V30 5668 C 541.417 -1.70088 -0.0200566 0
M  V30 5669 O 542.602 -1.93636 0.147854 0
M  V30 5670 C 539.732 -3.40636 0.677069 0
M  V30 5671 C 538.686 -3.9215 1.71471 0
M  V30 5672 C 538.012 -5.21553 1.1784 0
M  V30 5673 C 539.312 -4.19493 3.11164 0
M  V30 5674 H 541.006 -2.22864 1.9993 0
M  V30 5675 H 538.552 -1.07093 0.96266 0
M  V30 5676 H 540.505 -4.17941 0.538792 0
M  V30 5677 H 539.229 -3.25313 -0.289612 0
M  V30 5678 H 537.888 -3.17005 1.84128 0
M  V30 5679 H 537.536 -5.02593 0.202195 0
M  V30 5680 H 537.236 -5.56988 1.87185 0
M  V30 5681 H 538.76 -6.01463 1.05233 0
M  V30 5682 H 540.174 -4.87487 3.01711 0
M  V30 5683 H 538.571 -4.66165 3.77902 0
M  V30 5684 H 539.641 -3.26097 3.58871 0
M  V30 5685 N 540.985 -1.06182 -1.16461 0
M  V30 5686 C 542.231 -0.788825 -1.87481 0
M  V30 5687 C 542.586 0.677298 -1.80085 0
M  V30 5688 O 541.879 1.48976 -1.20486 0
M  V30 5689 C 542.073 -1.21633 -3.36066 0
M  V30 5690 C 541.902 -2.72247 -3.57927 0
M  V30 5691 C 540.672 -3.39696 -3.74079 0
M  V30 5692 C 542.87 -3.70461 -3.56739 0
M  V30 5693 N 540.852 -4.79072 -3.83879 0
M  V30 5694 C 542.223 -4.95616 -3.72511 0
M  V30 5695 C 544.278 -3.63788 -3.39945 0
M  V30 5696 C 542.981 -6.14895 -3.73225 0
M  V30 5697 C 545.007 -4.82517 -3.41953 0
M  V30 5698 C 544.369 -6.065 -3.58242 0
M  V30 5699 H 540.468 -0.341034 -0.703719 0
M  V30 5700 H 543.052 -1.35575 -1.39741 0
M  V30 5701 H 541.223 -0.67725 -3.8245 0
M  V30 5702 H 542.955 -0.892119 -3.94745 0
M  V30 5703 H 539.71 -2.90097 -3.74354 0
M  V30 5704 H 540.134 -5.51573 -3.92551 0
M  V30 5705 H 544.776 -2.68888 -3.26281 0
M  V30 5706 H 542.494 -7.10129 -3.85672 0
M  V30 5707 H 546.08 -4.79017 -3.30203 0
M  V30 5708 H 544.96 -6.96833 -3.59712 0
M  V30 5709 N 542.463 1.3308 -0.844243 0
M  V30 5710 C 543.688 2.02341 -0.455282 0
M  V30 5711 C 544.113 1.6308 0.93737 0
M  V30 5712 O 543.471 0.826118 1.61385 0
M  V30 5713 C 543.519 3.55743 -0.58988 0
M  V30 5714 O 542.623 4.1063 0.38166 0
M  V30 5715 H 541.964 0.637898 -0.184343 0
M  V30 5716 H 544.494 1.6986 -1.14056 0
M  V30 5717 H 544.504 4.05243 -0.473522 0
M  V30 5718 H 543.179 3.83662 -1.60549 0
M  V30 5719 H 541.756 3.72236 0.22241 0
M  V30 5720 N 543.941 0.601185 1.45683 0
M  V30 5721 C 545.189 0.0936957 2.01883 0
M  V30 5722 C 545.51 -1.2779 1.47291 0
M  V30 5723 O 544.78 -1.84279 0.664691 0
M  V30 5724 H 543.36 0.0316466 0.746329 0
M  V30 5725 H 546.022 0.781137 1.78562 0
M  V30 5726 H 545.118 0.0386297 3.12076 0
M  V30 5727 N 545.419 -1.53889 0.339982 0
M  V30 5728 C 546.349 -2.27843 -0.510856 0
M  V30 5729 C 547.33 -1.29267 -1.10563 0
M  V30 5730 O 548.515 -1.58104 -1.12768 0
M  V30 5731 C 545.645 -3.04857 -1.66372 0
M  V30 5732 C 544.599 -4.10907 -1.19746 0
M  V30 5733 C 543.925 -4.75855 -2.43857 0
M  V30 5734 C 545.225 -5.21435 -0.300501 0
M  V30 5735 H 546.919 -2.99212 0.106067 0
M  V30 5736 H 544.465 -1.43904 0.0524533 0
M  V30 5737 H 546.418 -3.5533 -2.26537 0
M  V30 5738 H 545.142 -2.31133 -2.30749 0
M  V30 5739 H 543.801 -3.61342 -0.618654 0
M  V30 5740 H 543.449 -3.9873 -3.06633 0
M  V30 5741 H 543.149 -5.47502 -2.13343 0
M  V30 5742 H 544.673 -5.2911 -3.04754 0
M  V30 5743 H 546.087 -5.67565 -0.80889 0
M  V30 5744 H 544.484 -6.00036 -0.0874076 0
M  V30 5745 H 545.554 -4.80328 0.664321 0
M  V30 5746 N 546.897 -0.0685191 -1.57451 0
M  V30 5747 C 548.146 0.600898 -1.92541 0
M  V30 5748 C 548.459 1.70967 -0.950239 0
M  V30 5749 O 549.665 2.43844 -1.19384 0
M  V30 5750 C 548.121 1.12019 -3.42023 0
M  V30 5751 C 547.729 0.0426028 -4.4798 0
M  V30 5752 C 549.473 1.76386 -3.86119 0
M  V30 5753 C 547.38 0.575759 -5.88591 0
M  V30 5754 H 546.31 0.228225 -0.71863 0
M  V30 5755 H 548.961 -0.140223 -1.82963 0
M  V30 5756 H 547.343 1.91418 -3.46663 0
M  V30 5757 H 548.517 -0.73182 -4.54952 0
M  V30 5758 H 546.832 -0.504642 -4.13331 0
M  V30 5759 H 549.429 2.17302 -4.88553 0
M  V30 5760 H 549.772 2.62255 -3.23308 0
M  V30 5761 H 550.305 1.03615 -3.84069 0
M  V30 5762 H 547.044 -0.245691 -6.55039 0
M  V30 5763 H 546.564 1.31778 -5.85145 0
M  V30 5764 H 548.243 1.0532 -6.3837 0
M  V30 5765 N 548.375 1.56261 0.205012 0
M  V30 5766 C 549.624 1.79236 0.925058 0
M  V30 5767 C 549.937 0.640011 1.84833 0
M  V30 5768 O 551.143 0.753809 2.60826 0
M  V30 5769 C 549.599 3.17475 1.69522 0
M  V30 5770 C 549.207 4.40482 0.817269 0
M  V30 5771 C 550.951 3.49766 2.4055 0
M  V30 5772 C 548.858 5.69744 1.58573 0
M  V30 5773 H 547.788 0.668287 0.349153 0
M  V30 5774 H 550.439 1.82629 0.178544 0
M  V30 5775 H 548.821 3.08304 2.48526 0
M  V30 5776 H 549.995 4.60752 0.0665988 0
M  V30 5777 H 548.31 4.15827 0.218316 0
M  V30 5778 H 550.907 4.43573 2.98575 0
M  V30 5779 H 551.25 2.73041 3.14252 0
M  V30 5780 H 551.783 3.60341 1.68522 0
M  V30 5781 H 548.522 6.49407 0.891679 0
M  V30 5782 H 548.042 5.53509 2.31059 0
M  V30 5783 H 549.721 6.1051 2.14212 0
M  V30 5784 N 549.853 -0.472356 1.50355 0
M  V30 5785 C 551.101 -1.22211 1.60962 0
M  V30 5786 C 551.422 -1.92497 0.311439 0
M  V30 5787 O 550.692 -1.8405 -0.671002 0
M  V30 5788 H 549.272 -0.454092 0.593135 0
M  V30 5789 H 551.934 -0.544977 1.87126 0
M  V30 5790 H 551.03 -1.9707 2.42012 0
M  V30 5791 N 551.331 -1.39911 -0.725443 0
M  V30 5792 C 552.578 -1.37654 -1.48518 0
M  V30 5793 C 552.906 0.0243982 -1.94485 0
M  V30 5794 O 552.161 1.00708 -1.67799 0
M  V30 5795 C 552.46 -2.30368 -2.7325 0
M  V30 5796 C 552.126 -3.77817 -2.461 0
M  V30 5797 C 550.788 -4.17991 -2.38405 0
M  V30 5798 C 553.14 -4.71036 -2.23103 0
M  V30 5799 C 550.468 -5.49433 -2.05768 0
M  V30 5800 C 552.82 -6.02766 -1.9198 0
M  V30 5801 C 551.484 -6.41993 -1.82761 0
M  V30 5802 H 550.754 -0.503713 -0.543465 0
M  V30 5803 H 553.401 -1.7249 -0.831822 0
M  V30 5804 H 551.706 -1.88683 -3.43375 0
M  V30 5805 H 553.403 -2.2591 -3.31309 0
M  V30 5806 H 549.993 -3.45982 -2.52972 0
M  V30 5807 H 554.177 -4.40823 -2.2801 0
M  V30 5808 H 549.433 -5.78738 -1.9716 0
M  V30 5809 H 553.607 -6.74519 -1.73197 0
M  V30 5810 H 551.234 -7.43761 -1.57237 0
M  V30 5811 N 552.809 0.956637 -1.25245 0
M  V30 5812 C 554.037 1.73571 -1.12608 0
M  V30 5813 C 554.452 1.86063 0.320324 0
M  V30 5814 O 553.809 1.35691 1.22042 0
M  V30 5815 C 553.86 3.15053 -1.77268 0
M  V30 5816 O 553.581 3.03174 -3.16255 0
M  V30 5817 C 555.082 4.09248 -1.70386 0
M  V30 5818 H 552.302 0.543955 -0.392879 0
M  V30 5819 H 554.846 1.20031 -1.65568 0
M  V30 5820 H 553.001 3.65543 -1.28284 0
M  V30 5821 H 553.415 3.9241 -3.48015 0
M  V30 5822 H 554.889 5.06138 -2.20291 0
M  V30 5823 H 555.366 4.34102 -0.667239 0
M  V30 5824 H 555.972 3.64672 -2.18849 0
M  V30 5825 N 554.287 1.06798 1.15896 0
M  V30 5826 C 555.515 0.808694 1.90441 0
M  V30 5827 C 555.93 -0.637506 1.77711 0
M  V30 5828 O 555.287 -1.43684 1.12522 0
M  V30 5829 C 555.338 1.20068 3.40978 0
M  V30 5830 O 555.059 2.59013 3.53333 0
M  V30 5831 C 556.56 0.96987 4.3256 0
M  V30 5832 H 553.78 0.292809 0.603742 0
M  V30 5833 H 556.324 1.42296 1.46874 0
M  V30 5834 H 554.479 0.630842 3.82229 0
M  V30 5835 H 554.893 2.7485 4.46719 0
M  V30 5836 H 556.367 1.29371 5.36626 0
M  V30 5837 H 556.844 -0.0941209 4.39099 0
M  V30 5838 H 557.45 1.52433 3.97044 0
M  V30 5839 N 555.766 -1.3263 0.851289 0
M  V30 5840 C 556.676 -2.32722 0.296268 0
M  V30 5841 C 557.692 -1.63901 -0.584162 0
M  V30 5842 O 558.868 -1.95465 -0.485334 0
M  V30 5843 C 555.933 -3.42942 -0.509103 0
M  V30 5844 C 554.994 -4.2746 0.397069 0
M  V30 5845 C 554.227 -5.32416 -0.36996 0
M  V30 5846 O 554.45 -5.47491 -1.6003 0
M  V30 5847 O 553.384 -6.01327 0.262493 0
M  V30 5848 H 557.21 -2.82078 1.12543 0
M  V30 5849 H 554.795 -1.36194 0.614135 0
M  V30 5850 H 556.677 -4.1017 -0.96634 0
M  V30 5851 H 555.352 -2.95781 -1.31512 0
M  V30 5852 H 554.259 -3.63053 0.902411 0
M  V30 5853 H 555.592 -4.78136 1.16818 0
M  V30 5854 N 557.244 -0.608902 -1.45362 0
M  V30 5855 C 558.491 -0.104607 -2.0223 0
M  V30 5856 C 558.819 1.26534 -1.47714 0
M  V30 5857 O 558.074 1.84855 -0.642435 0
M  V30 5858 C 558.373 -0.0167296 -3.57396 0
M  V30 5859 C 558.039 -1.32251 -4.31069 0
M  V30 5860 C 556.701 -1.68019 -4.50914 0
M  V30 5861 C 559.053 -2.18542 -4.73169 0
M  V30 5862 C 556.381 -2.89828 -5.10114 0
M  V30 5863 C 558.733 -3.39602 -5.33717 0
M  V30 5864 C 557.397 -3.7562 -5.51784 0
M  V30 5865 H 556.667 -0.0382785 -0.740011 0
M  V30 5866 H 559.314 -0.790782 -1.7441 0
M  V30 5867 H 557.619 0.752715 -3.84502 0
M  V30 5868 H 559.316 0.389634 -3.99103 0
M  V30 5869 H 555.906 -1.03411 -4.15938 0
M  V30 5870 H 560.09 -1.92208 -4.5757 0
M  V30 5871 H 555.346 -3.17839 -5.22291 0
M  V30 5872 H 559.52 -4.06716 -5.65292 0
M  V30 5873 H 557.147 -4.70093 -5.97425 0
M  V30 5874 N 558.722 1.53707 -0.348139 0
M  V30 5875 C 559.952 2.05108 0.247864 0
M  V30 5876 C 560.36 1.22252 1.44399 0
M  V30 5877 O 559.703 0.251853 1.81965 0
M  V30 5878 C 559.765 3.52171 0.722187 0
M  V30 5879 C 559.429 4.5562 -0.354902 0
M  V30 5880 C 560.426 5.05883 -1.19911 0
M  V30 5881 C 558.111 4.99703 -0.510145 0
M  V30 5882 C 560.105 5.98814 -2.18406 0
M  V30 5883 C 557.792 5.92443 -1.49848 0
M  V30 5884 C 558.79 6.41887 -2.33389 0
M  V30 5885 O 558.478 7.32802 -3.3054 0
M  V30 5886 H 558.21 0.674086 0.0508296 0
M  V30 5887 H 560.764 1.99229 -0.49968 0
M  V30 5888 H 558.994 3.55529 1.52105 0
M  V30 5889 H 560.683 3.8652 1.23925 0
M  V30 5890 H 561.449 4.72586 -1.09028 0
M  V30 5891 H 557.328 4.60816 0.130274 0
M  V30 5892 H 560.872 6.3733 -2.83649 0
M  V30 5893 H 556.769 6.25155 -1.60786 0
M  V30 5894 H 557.537 7.50749 -3.26064 0
M  V30 5895 N 560.2 0.0768682 1.57412 0
M  V30 5896 C 561.428 -0.59997 1.9801 0
M  V30 5897 C 561.843 -1.62842 0.955408 0
M  V30 5898 O 561.2 -1.8241 -0.057314 0
M  V30 5899 C 561.251 -1.26401 3.38681 0
M  V30 5900 O 560.972 -0.276723 4.37225 0
M  V30 5901 C 562.473 -2.0282 3.94182 0
M  V30 5902 H 559.693 -0.162239 0.651091 0
M  V30 5903 H 562.237 0.150771 2.03943 0
M  V30 5904 H 560.392 -1.96581 3.33819 0
M  V30 5905 H 560.806 -0.753744 5.19056 0
M  V30 5906 H 562.28 -2.44667 4.94815 0
M  V30 5907 H 562.757 -2.88678 3.31001 0
M  V30 5908 H 563.363 -1.37496 4.02461 0
M  V30 5909 N 561.678 -1.56367 -0.196722 0
M  V30 5910 C 562.903 -1.84991 -0.937714 0
M  V30 5911 C 563.328 -0.660244 -1.76132 0
M  V30 5912 O 562.686 0.390967 -1.77034 0
M  V30 5913 C 562.734 -3.11828 -1.81096 0
M  V30 5914 O 561.838 -2.92266 -2.90955 0
M  V30 5915 H 561.179 -0.609193 -0.264159 0
M  V30 5916 H 563.709 -2.03595 -0.202529 0
M  V30 5917 H 563.719 -3.42579 -2.21594 0
M  V30 5918 H 562.394 -3.98037 -1.2058 0
M  V30 5919 H 560.971 -2.72809 -2.54224 0
M  V30 5920 N 563.156 0.464375 -1.50603 0
M  V30 5921 C 564.386 1.23727 -1.65454 0
M  V30 5922 C 564.794 1.86119 -0.340032 0
M  V30 5923 O 564.137 1.70301 0.688706 0
M  V30 5924 C 564.199 2.38153 -2.69301 0
M  V30 5925 C 563.863 1.96345 -4.12671 0
M  V30 5926 C 564.86 1.48215 -4.98326 0
M  V30 5927 C 562.545 2.04861 -4.58625 0
M  V30 5928 C 564.539 1.09152 -6.27985 0
M  V30 5929 C 562.226 1.65409 -5.88288 0
M  V30 5930 C 563.224 1.17634 -6.72794 0
M  V30 5931 O 562.912 0.787312 -8.00035 0
M  V30 5932 H 562.644 0.380075 -0.559034 0
M  V30 5933 H 565.198 0.559919 -1.97621 0
M  V30 5934 H 563.428 3.09081 -2.32392 0
M  V30 5935 H 565.117 3.00099 -2.73304 0
M  V30 5936 H 565.883 1.41052 -4.64036 0
M  V30 5937 H 561.762 2.40996 -3.92991 0
M  V30 5938 H 565.306 0.717909 -6.93896 0
M  V30 5939 H 561.203 1.72233 -6.22098 0
M  V30 5940 H 561.971 0.915567 -8.13363 0
M  V30 5941 N 564.634 1.40294 0.718013 0
M  V30 5942 C 565.859 1.41941 1.5122 0
M  V30 5943 C 566.284 0.0202371 1.88089 0
M  V30 5944 O 565.642 -0.971078 1.53101 0
M  V30 5945 C 565.69 2.3141 2.76554 0
M  V30 5946 O 564.794 1.75567 3.73162 0
M  V30 5947 H 564.135 0.482644 0.456016 0
M  V30 5948 H 566.665 1.84494 0.884478 0
M  V30 5949 H 566.675 2.46513 3.25108 0
M  V30 5950 H 565.35 3.33085 2.49053 0
M  V30 5951 H 563.927 1.69798 3.31999 0
M  V30 5952 N 566.112 -0.949982 1.2575 0
M  V30 5953 C 567.359 -1.69515 1.10774 0
M  V30 5954 C 567.687 -1.91316 -0.350479 0
M  V30 5955 O 566.942 -1.48515 -1.27443 0
M  V30 5956 C 567.241 -3.08039 1.81237 0
M  V30 5957 C 566.907 -3.06023 3.31151 0
M  V30 5958 C 565.569 -3.0518 3.72047 0
M  V30 5959 C 567.921 -2.98998 4.26907 0
M  V30 5960 C 565.249 -2.95067 5.07102 0
M  V30 5961 C 567.601 -2.90426 5.61992 0
M  V30 5962 C 566.265 -2.87922 6.0221 0
M  V30 5963 H 565.535 -0.6203 0.405351 0
M  V30 5964 H 568.182 -1.10953 1.56082 0
M  V30 5965 H 566.487 -3.70172 1.28373 0
M  V30 5966 H 568.184 -3.64526 1.67098 0
M  V30 5967 H 564.774 -3.07453 2.98614 0
M  V30 5968 H 568.958 -2.98764 3.963 0
M  V30 5969 H 564.214 -2.915 5.37436 0
M  V30 5970 H 568.388 -2.83952 6.35881 0
M  V30 5971 H 566.015 -2.79841 7.06819 0
M  V30 5972 N 567.59 -1.07411 -1.15328 0
M  V30 5973 C 568.815 -0.818856 -1.90551 0
M  V30 5974 C 569.24 0.622194 -1.77512 0
M  V30 5975 O 568.598 1.43484 -1.10824 0
M  V30 5976 C 568.646 -1.23267 -3.38877 0
M  V30 5977 O 567.75 -0.378345 -4.10661 0
M  V30 5978 H 567.091 -0.29827 -0.593238 0
M  V30 5979 H 569.621 -1.43289 -1.46046 0
M  V30 5980 H 569.631 -1.20912 -3.89672 0
M  V30 5981 H 568.306 -2.28226 -3.47686 0
M  V30 5982 H 566.883 -0.464437 -3.69996 0
M  V30 5983 N 569.068 1.32177 -0.85831 0
M  V30 5984 C 570.479 1.79381 -0.517621 0
M  V30 5985 C 570.83 1.70841 0.964769 0
M  V30 5986 O 569.955 1.26917 1.75274 0
M  V30 5987 C 570.55 3.25706 -0.932801 0
M  V30 5988 C 569.109 3.70851 -0.643953 0
M  V30 5989 C 568.256 2.53208 -1.13054 0
M  V30 5990 H 571.207 1.19424 -1.04516 0
M  V30 5991 H 571.228 3.79673 -0.250674 0
M  V30 5992 H 570.74 3.31889 -2.01174 0
M  V30 5993 H 568.841 3.70178 0.424112 0
M  V30 5994 H 568.954 4.63495 -1.21281 0
M  V30 5995 H 567.318 2.48676 -0.550679 0
M  V30 5996 H 568.101 2.62143 -2.21666 0
M  V30 5997 N 570.547 0.616602 1.45037 0
M  V30 5998 C 571.793 0.115501 2.02471 0
M  V30 5999 C 572.126 -1.25406 1.4828 0
M  V30 6000 O 571.401 -1.82922 0.661051 0
M  V30 6001 C 571.684 0.0863588 3.59996 0
M  V30 6002 C 571.537 1.48723 4.24501 0
M  V30 6003 C 572.856 -0.596762 4.36035 0
M  V30 6004 H 569.975 0.0434461 0.735718 0
M  V30 6005 H 572.617 0.7903 1.72784 0
M  V30 6006 H 570.767 -0.488277 3.85419 0
M  V30 6007 H 572.439 2.10964 4.10234 0
M  V30 6008 H 570.682 2.04534 3.82555 0
M  V30 6009 H 571.353 1.419 5.3345 0
M  V30 6010 H 573.829 -0.10824 4.15959 0
M  V30 6011 H 572.705 -0.586289 5.4576 0
M  V30 6012 H 572.966 -1.66451 4.09569 0
M  V30 6013 N 572.025 -1.5352 0.356285 0
M  V30 6014 C 572.957 -2.23009 -0.529127 0
M  V30 6015 C 573.97 -1.241 -1.05371 0
M  V30 6016 O 575.159 -1.50379 -0.961679 0
M  V30 6017 C 572.259 -2.90685 -1.74229 0
M  V30 6018 C 571.432 -4.16019 -1.35081 0
M  V30 6019 C 570.491 -4.66989 -2.42502 0
M  V30 6020 O 569.517 -5.30895 -2.05279 0
M  V30 6021 N 570.719 -4.44006 -3.7395 0
M  V30 6022 H 573.484 -2.99627 0.0660501 0
M  V30 6023 H 571.045 -1.60885 0.181014 0
M  V30 6024 H 573.037 -3.21695 -2.4555 0
M  V30 6025 H 571.607 -2.17575 -2.24454 0
M  V30 6026 H 570.827 -3.91414 -0.467833 0
M  V30 6027 H 572.115 -4.9752 -1.06542 0
M  V30 6028 H 571.513 -3.92924 -4.06973 0
M  V30 6029 H 570.07 -4.7959 -4.41403 0
M  V30 6030 N 573.503 -0.0852151 -1.57369 0
M  V30 6031 C 574.413 0.891712 -2.16992 0
M  V30 6032 C 575.429 1.3174 -1.13669 0
M  V30 6033 O 576.605 1.38735 -1.45995 0
M  V30 6034 C 573.67 2.13635 -2.73059 0
M  V30 6035 C 572.731 1.7658 -3.91303 0
M  V30 6036 C 571.964 2.95111 -4.44686 0
M  V30 6037 O 572.187 4.09539 -3.97032 0
M  V30 6038 O 571.121 2.74149 -5.35841 0
M  V30 6039 H 574.947 0.414477 -3.00858 0
M  V30 6040 H 572.532 0.138598 -1.48756 0
M  V30 6041 H 574.414 2.86595 -3.08935 0
M  V30 6042 H 573.089 2.6043 -1.92244 0
M  V30 6043 H 571.996 1.00831 -3.60255 0
M  V30 6044 H 573.329 1.34557 -4.7345 0
M  V30 6045 N 574.981 1.5647 0.188427 0
M  V30 6046 C 576.23 1.80207 0.905995 0
M  V30 6047 C 576.543 0.659579 1.84144 0
M  V30 6048 O 577.749 0.781431 2.60011 0
M  V30 6049 C 576.205 3.19255 1.66145 0
M  V30 6050 C 575.813 4.41324 0.770504 0
M  V30 6051 C 577.557 3.52298 2.36826 0
M  V30 6052 C 575.464 5.71394 1.52521 0
M  V30 6053 H 574.394 0.671953 0.342045 0
M  V30 6054 H 577.045 1.82808 0.159164 0
M  V30 6055 H 575.427 3.10922 2.45242 0
M  V30 6056 H 576.601 4.60797 0.0177261 0
M  V30 6057 H 574.916 4.16035 0.174199 0
M  V30 6058 H 577.513 4.46715 2.93854 0
M  V30 6059 H 577.856 2.76359 3.11338 0
M  V30 6060 H 578.389 3.62108 1.6469 0
M  V30 6061 H 575.128 6.50316 0.82275 0
M  V30 6062 H 574.648 5.55928 2.25175 0
M  V30 6063 H 576.327 6.12747 2.07725 0
M  V30 6064 N 576.459 -0.456382 1.50847 0
M  V30 6065 C 577.422 -1.53493 1.70213 0
M  V30 6066 C 578.422 -1.50264 0.572481 0
M  V30 6067 O 579.612 -1.52623 0.839751 0
M  V30 6068 C 576.744 -2.93091 1.741 0
M  V30 6069 H 577.937 -1.37633 2.66453 0
M  V30 6070 H 575.49 -0.683776 1.4055 0
M  V30 6071 H 576.225 -3.14378 0.796063 0
M  V30 6072 H 576.01 -2.9684 2.5618 0
M  V30 6073 H 577.5 -3.71368 1.90987 0
M  V30 6074 N 577.937 -1.40673 -0.710563 0
M  V30 6075 C 578.887 -1.37812 -1.81636 0
M  V30 6076 C 579.871 -0.254853 -1.58869 0
M  V30 6077 O 581.063 -0.494356 -1.69956 0
M  V30 6078 C 578.192 -1.24802 -3.19811 0
M  V30 6079 C 577.278 -2.41931 -3.48325 0
M  V30 6080 N 577.669 -3.67411 -3.47625 0
M  V30 6081 C 575.967 -2.35419 -3.78806 0
M  V30 6082 C 576.668 -4.45008 -3.74623 0
M  V30 6083 N 575.644 -3.74916 -3.93623 0
M  V30 6084 H 579.446 -2.32766 -1.79436 0
M  V30 6085 H 576.96 -1.34516 -0.909909 0
M  V30 6086 H 578.957 -1.20835 -3.99004 0
M  V30 6087 H 577.617 -0.308202 -3.23234 0
M  V30 6088 H 578.628 -4.00503 -3.28356 0
M  V30 6089 H 575.305 -1.4983 -3.89689 0
M  V30 6090 H 576.695 -5.53884 -3.80344 0
M  V30 6091 N 579.415 0.9433 -1.26252 0
M  V30 6092 C 580.643 1.72367 -1.14443 0
M  V30 6093 C 581.058 1.86392 0.300572 0
M  V30 6094 O 580.415 1.36978 1.20596 0
M  V30 6095 C 580.466 3.13155 -1.806 0
M  V30 6096 O 580.187 2.99803 -3.19452 0
M  V30 6097 C 581.688 4.07417 -1.74717 0
M  V30 6098 H 578.908 0.539758 -0.398626 0
M  V30 6099 H 581.452 1.18268 -1.66832 0
M  V30 6100 H 579.607 3.64162 -1.32154 0
M  V30 6101 H 580.021 3.88697 -3.52158 0
M  V30 6102 H 581.495 5.03773 -2.25647 0
M  V30 6103 H 581.972 4.3337 -0.713244 0
M  V30 6104 H 582.578 3.6233 -2.22704 0
M  V30 6105 N 580.893 1.08022 1.14757 0
M  V30 6106 C 581.825 0.664566 2.19354 0
M  V30 6107 C 582.838 -0.286374 1.60261 0
M  V30 6108 O 584.027 -0.0746362 1.78344 0
M  V30 6109 C 581.127 -0.0434634 3.38872 0
M  V30 6110 C 580.3 0.925381 4.27499 0
M  V30 6111 C 579.359 0.253398 5.2559 0
M  V30 6112 O 578.385 0.896581 5.62094 0
M  V30 6113 N 579.587 -0.998263 5.71852 0
M  V30 6114 H 582.352 1.56438 2.55631 0
M  V30 6115 H 579.913 0.965788 1.29939 0
M  V30 6116 H 581.905 -0.503857 4.01551 0
M  V30 6117 H 580.475 -0.845321 3.00954 0
M  V30 6118 H 579.695 1.56472 3.61815 0
M  V30 6119 H 580.983 1.58203 4.8358 0
M  V30 6120 H 580.381 -1.54063 5.44317 0
M  V30 6121 H 578.938 -1.40222 6.36538 0
M  V30 6122 N 582.371 -1.3172 0.865308 0
M  V30 6123 C 583.318 -2.2863 0.315736 0
M  V30 6124 C 584.288 -1.55524 -0.583213 0
M  V30 6125 O 585.473 -1.83694 -0.51585 0
M  V30 6126 C 582.613 -3.41735 -0.480773 0
M  V30 6127 C 581.726 -4.297 0.445167 0
M  V30 6128 C 580.861 -5.29944 -0.365012 0
M  V30 6129 C 579.9 -6.09554 0.557651 0
M  V30 6130 N 579.037 -7.01768 -0.215994 0
M  V30 6131 H 583.877 -2.75026 1.14736 0
M  V30 6132 H 581.414 -1.35302 0.577209 0
M  V30 6133 H 583.372 -4.06045 -0.958306 0
M  V30 6134 H 582.002 -2.96461 -1.27714 0
M  V30 6135 H 581.054 -3.65875 1.04113 0
M  V30 6136 H 582.366 -4.85295 1.15284 0
M  V30 6137 H 581.52 -5.99908 -0.905255 0
M  V30 6138 H 580.259 -4.74994 -1.106 0
M  V30 6139 H 579.264 -5.38485 1.10969 0
M  V30 6140 H 580.489 -6.66591 1.29742 0
M  V30 6141 H 578.435 -6.49232 -0.939878 0
M  V30 6142 H 578.352 -7.54762 0.432431 0
M  V30 6143 H 579.62 -7.76002 -0.737618 0
M  V30 6144 N 583.85 -0.624285 -1.44708 0
M  V30 6145 C 585.096 -0.126237 -2.02407 0
M  V30 6146 C 585.428 1.24618 -1.48943 0
M  V30 6147 O 584.704 1.82569 -0.670742 0
M  V30 6148 C 584.986 -0.105449 -3.59946 0
M  V30 6149 C 584.84 -1.50972 -4.23707 0
M  V30 6150 C 586.159 0.573629 -4.36346 0
M  V30 6151 H 583.278 -0.0473472 -0.735478 0
M  V30 6152 H 585.92 -0.799452 -1.72362 0
M  V30 6153 H 584.07 0.46783 -3.85673 0
M  V30 6154 H 585.742 -2.13136 -4.0911 0
M  V30 6155 H 583.985 -2.0656 -3.81465 0
M  V30 6156 H 584.656 -1.44727 -5.32689 0
M  V30 6157 H 587.132 0.0861787 -4.16011 0
M  V30 6158 H 586.008 0.557338 -5.46063 0
M  V30 6159 H 586.269 1.64276 -4.10446 0
M  V30 6160 N 585.328 1.53329 -0.364422 0
M  V30 6161 C 586.553 2.06132 0.229033 0
M  V30 6162 C 586.978 1.23625 1.41769 0
M  V30 6163 O 586.336 0.255038 1.79497 0
M  V30 6164 C 586.384 3.55544 0.60174 0
M  V30 6165 O 585.488 3.75771 1.69912 0
M  V30 6166 H 584.829 0.663148 0.0336213 0
M  V30 6167 H 587.359 1.97758 -0.524689 0
M  V30 6168 H 587.369 3.98549 0.873073 0
M  V30 6169 H 586.044 4.15039 -0.267421 0
M  V30 6170 H 584.621 3.44663 1.42343 0
M  V30 6171 N 586.806 0.0935595 1.57322 0
M  V30 6172 C 587.769 -0.851426 2.12799 0
M  V30 6173 C 588.769 -1.21187 1.0569 0
M  V30 6174 O 589.959 -1.14156 1.31583 0
M  V30 6175 C 587.091 -2.14779 2.64731 0
M  V30 6176 H 588.284 -0.369733 2.97612 0
M  V30 6177 H 585.837 -0.155417 1.55525 0
M  V30 6178 H 586.572 -2.67437 1.83434 0
M  V30 6179 H 586.357 -1.89907 3.43042 0
M  V30 6180 H 587.847 -2.82383 3.07651 0
M  V30 6181 N 588.284 -1.56567 -0.180126 0
M  V30 6182 C 589.247 -1.94852 -1.20686 0
M  V30 6183 C 590.247 -0.831212 -1.3765 0
M  V30 6184 O 591.437 -1.09841 -1.35206 0
M  V30 6185 C 588.569 -2.23565 -2.57355 0
M  V30 6186 H 589.762 -2.86722 -0.879225 0
M  V30 6187 H 587.315 -1.50489 -0.422237 0
M  V30 6188 H 588.05 -1.34381 -2.95148 0
M  V30 6189 H 587.835 -3.04999 -2.46411 0
M  V30 6190 H 589.325 -2.54137 -3.31367 0
M  V30 6191 N 589.762 0.448376 -1.51087 0
M  V30 6192 C 590.99 1.22143 -1.66999 0
M  V30 6193 C 591.405 1.85283 -0.362699 0
M  V30 6194 O 590.762 1.70236 0.65772 0
M  V30 6195 C 590.813 2.31357 -2.7777 0
M  V30 6196 O 590.534 1.70801 -4.03434 0
M  V30 6197 C 592.035 3.21836 -3.04855 0
M  V30 6198 H 589.255 0.368558 -0.560719 0
M  V30 6199 H 591.799 0.532618 -1.97442 0
M  V30 6200 H 589.954 2.95973 -2.49958 0
M  V30 6201 H 590.368 2.42895 -4.64868 0
M  V30 6202 H 591.842 3.94627 -3.85971 0
M  V30 6203 H 592.319 3.81949 -2.16821 0
M  V30 6204 H 592.925 2.62933 -3.34285 0
M  V30 6205 N 591.24 1.41047 0.703093 0
M  V30 6206 C 592.488 1.39723 1.4602 0
M  V30 6207 C 592.809 0.00461257 1.94999 0
M  V30 6208 O 592.079 -0.952292 1.71196 0
M  V30 6209 H 590.659 0.514281 0.541779 0
M  V30 6210 H 593.321 1.76217 0.832678 0
M  V30 6211 H 592.417 2.07982 2.32701 0
M  V30 6212 N 592.718 -0.936591 1.26751 0
M  V30 6213 C 593.967 -1.67778 1.11953 0
M  V30 6214 C 594.28 -1.92694 -0.33589 0
M  V30 6215 O 595.486 -2.64682 -0.604618 0
M  V30 6216 C 593.942 -3.02138 1.95551 0
M  V30 6217 C 593.55 -2.84953 3.45696 0
M  V30 6218 C 595.294 -3.79917 1.89377 0
M  V30 6219 C 593.201 -4.14814 4.21525 0
M  V30 6220 H 592.131 -0.629275 0.415366 0
M  V30 6221 H 594.782 -1.04122 1.51099 0
M  V30 6222 H 593.164 -3.668 1.49243 0
M  V30 6223 H 594.338 -2.29112 3.99805 0
M  V30 6224 H 592.653 -2.20612 3.53156 0
M  V30 6225 H 595.25 -4.76134 2.43312 0
M  V30 6226 H 595.593 -4.07204 0.865464 0
M  V30 6227 H 596.126 -3.22037 2.33532 0
M  V30 6228 H 592.865 -3.92709 5.24843 0
M  V30 6229 H 592.385 -4.70352 3.72195 0
M  V30 6230 H 594.064 -4.83239 4.3022 0
M  V30 6231 N 594.196 -1.08629 -1.14182 0
M  V30 6232 C 595.445 -0.812271 -1.84621 0
M  V30 6233 C 595.758 0.664313 -1.83973 0
M  V30 6234 O 596.964 1.05357 -2.50224 0
M  V30 6235 C 595.42 -1.4031 -3.31423 0
M  V30 6236 C 595.028 -2.91164 -3.40481 0
M  V30 6237 C 596.772 -1.20767 -4.06959 0
M  V30 6238 C 594.679 -3.43373 -4.81507 0
M  V30 6239 H 593.609 -0.30019 -0.691666 0
M  V30 6240 H 596.26 -1.30798 -1.28701 0
M  V30 6241 H 594.642 -0.835096 -3.87094 0
M  V30 6242 H 595.816 -3.5412 -2.94848 0
M  V30 6243 H 594.131 -3.09646 -2.78403 0
M  V30 6244 H 596.728 -1.57237 -5.11058 0
M  V30 6245 H 597.071 -0.147664 -4.16038 0
M  V30 6246 H 597.604 -1.74274 -3.57594 0
M  V30 6247 H 594.343 -4.48958 -4.77616 0
M  V30 6248 H 593.863 -2.85176 -5.27669 0
M  V30 6249 H 595.542 -3.40095 -5.50404 0
M  V30 6250 N 595.674 1.31259 -0.872281 0
M  V30 6251 C 596.904 2.00504 -0.498183 0
M  V30 6252 C 597.312 1.65632 0.914479 0
M  V30 6253 O 596.655 0.882849 1.61095 0
M  V30 6254 C 596.717 3.5482 -0.578194 0
M  V30 6255 C 596.381 4.13172 -1.95289 0
M  V30 6256 C 597.378 4.30107 -2.92069 0
M  V30 6257 C 595.063 4.48846 -2.25483 0
M  V30 6258 C 597.057 4.81908 -4.17185 0
M  V30 6259 C 594.744 5.00349 -3.50847 0
M  V30 6260 C 595.742 5.16831 -4.46514 0
M  V30 6261 O 595.43 5.67228 -5.69656 0
M  V30 6262 H 595.162 0.648055 -0.192354 0
M  V30 6263 H 597.716 1.6841 -1.17589 0
M  V30 6264 H 595.946 3.86383 0.156438 0
M  V30 6265 H 597.635 4.05318 -0.217192 0
M  V30 6266 H 598.401 4.02862 -2.7005 0
M  V30 6267 H 594.28 4.35292 -1.51795 0
M  V30 6268 H 597.824 4.94688 -4.91863 0
M  V30 6269 H 593.721 5.27028 -3.72708 0
M  V30 6270 H 594.489 5.85592 -5.7186 0
M  V30 6271 N 597.152 0.631951 1.44375 0
M  V30 6272 C 598.4 0.136497 2.01639 0
M  V30 6273 C 598.721 -1.24637 1.49969 0
M  V30 6274 O 597.991 -1.82827 0.70363 0
M  V30 6275 H 596.571 0.0474703 0.74549 0
M  V30 6276 H 599.233 0.818837 1.76865 0
M  V30 6277 H 598.329 0.104817 3.11924 0
M  V30 6278 N 598.631 -1.53133 0.372548 0
M  V30 6279 C 599.561 -2.28876 -0.462412 0
M  V30 6280 C 600.542 -1.31583 -1.07796 0
M  V30 6281 O 601.727 -1.60461 -1.09389 0
M  V30 6282 C 598.857 -3.08317 -1.59868 0
M  V30 6283 C 597.811 -4.13355 -1.11003 0
M  V30 6284 C 597.137 -4.8092 -2.33708 0
M  V30 6285 C 598.437 -5.21955 -0.18983 0
M  V30 6286 H 600.131 -2.9892 0.169511 0
M  V30 6287 H 597.677 -1.43761 0.0829658 0
M  V30 6288 H 599.63 -3.60055 -2.18949 0
M  V30 6289 H 598.354 -2.35976 -2.25794 0
M  V30 6290 H 597.013 -3.62573 -0.541869 0
M  V30 6291 H 596.661 -4.05144 -2.98106 0
M  V30 6292 H 596.361 -5.51904 -2.01682 0
M  V30 6293 H 597.885 -5.35455 -2.93462 0
M  V30 6294 H 599.299 -5.69153 -0.688319 0
M  V30 6295 H 597.696 -6.00087 0.0398887 0
M  V30 6296 H 598.766 -4.78811 0.766057 0
M  V30 6297 N 600.109 -0.101901 -1.5727 0
M  V30 6298 C 601.334 0.571759 -1.99363 0
M  V30 6299 C 601.759 1.60507 -0.980768 0
M  V30 6300 O 601.117 1.81231 0.0498517 0
M  V30 6301 C 601.165 1.18996 -3.404 0
M  V30 6302 O 600.269 2.30572 -3.41922 0
M  V30 6303 H 599.61 0.144449 -0.648098 0
M  V30 6304 H 602.14 -0.185325 -2.03759 0
M  V30 6305 H 602.15 1.52962 -3.78241 0
M  V30 6306 H 600.825 0.432984 -4.1364 0
M  V30 6307 H 599.402 1.98173 -3.15883 0
M  V30 6308 N 601.587 1.56661 0.17182 0
M  V30 6309 C 602.517 1.99401 1.21498 0
M  V30 6310 C 603.498 0.869516 1.46197 0
M  V30 6311 O 604.683 1.13556 1.57539 0
M  V30 6312 C 601.813 2.35346 2.55401 0
M  V30 6313 C 600.767 3.5075 2.45272 0
M  V30 6314 C 600.093 3.72437 3.8366 0
M  V30 6315 C 601.393 4.84216 1.95787 0
M  V30 6316 H 603.087 2.86792 0.859699 0
M  V30 6317 H 600.633 1.37977 0.412103 0
M  V30 6318 H 602.586 2.63843 3.2858 0
M  V30 6319 H 601.31 1.44864 2.92715 0
M  V30 6320 H 599.969 3.2238 1.74547 0
M  V30 6321 H 599.617 2.79246 4.18367 0
M  V30 6322 H 599.317 4.50087 3.77751 0
M  V30 6323 H 600.841 4.03334 4.58426 0
M  V30 6324 H 602.255 5.11592 2.5874 0
M  V30 6325 H 600.652 5.65498 2.00827 0
M  V30 6326 H 601.722 4.76243 0.912159 0
M  V30 6327 N 603.065 -0.440357 1.51323 0
M  V30 6328 C 604.313 -1.18769 1.63518 0
M  V30 6329 C 604.634 -1.91793 0.352201 0
M  V30 6330 O 603.904 -1.85432 -0.631811 0
M  V30 6331 H 602.484 -0.441408 0.602634 0
M  V30 6332 H 605.146 -0.505162 1.8824 0
M  V30 6333 H 604.242 -1.91892 2.46138 0
M  V30 6334 N 604.543 -1.41418 -0.695603 0
M  V30 6335 C 605.773 -1.43921 -1.48224 0
M  V30 6336 C 606.181 -0.0428855 -1.89151 0
M  V30 6337 O 605.524 0.948138 -1.5734 0
M  V30 6338 C 605.586 -2.28466 -2.77567 0
M  V30 6339 C 605.25 -3.76629 -2.58844 0
M  V30 6340 C 606.247 -4.6879 -2.24793 0
M  V30 6341 C 603.932 -4.2067 -2.74485 0
M  V30 6342 C 605.926 -6.02981 -2.06622 0
M  V30 6343 C 603.613 -5.54926 -2.55931 0
M  V30 6344 C 604.611 -6.45897 -2.2205 0
M  V30 6345 O 604.299 -7.77675 -2.03657 0
M  V30 6346 H 604.031 -0.492252 -0.463318 0
M  V30 6347 H 606.585 -1.86347 -0.863952 0
M  V30 6348 H 604.815 -1.80853 -3.41802 0
M  V30 6349 H 606.504 -2.2267 -3.39371 0
M  V30 6350 H 607.27 -4.36055 -2.12323 0
M  V30 6351 H 603.149 -3.50167 -2.9984 0
M  V30 6352 H 606.693 -6.73951 -1.80099 0
M  V30 6353 H 602.59 -5.8724 -2.67991 0
M  V30 6354 H 603.358 -7.88819 -2.1842 0
M  V30 6355 N 606.021 0.929856 -1.27246 0
M  V30 6356 C 606.968 2.03017 -1.09785 0
M  V30 6357 C 607.938 1.661 0.000456744 0
M  V30 6358 O 609.123 1.90116 -0.161462 0
M  V30 6359 C 606.263 3.36878 -0.748816 0
M  V30 6360 C 605.376 3.86763 -1.92453 0
M  V30 6361 C 604.511 5.09061 -1.51758 0
M  V30 6362 C 603.55 5.51237 -2.66091 0
M  V30 6363 N 602.687 6.64732 -2.25999 0
M  V30 6364 H 607.527 2.17285 -2.03939 0
M  V30 6365 H 605.064 1.06448 -1.01524 0
M  V30 6366 H 607.022 4.13855 -0.527283 0
M  V30 6367 H 605.652 3.22424 0.155771 0
M  V30 6368 H 604.704 3.06086 -2.25867 0
M  V30 6369 H 606.016 4.13994 -2.78227 0
M  V30 6370 H 605.17 5.93532 -1.25716 0
M  V30 6371 H 603.909 4.83602 -0.630896 0
M  V30 6372 H 602.914 4.65316 -2.92849 0
M  V30 6373 H 604.139 5.78692 -3.55377 0
M  V30 6374 H 602.085 6.40935 -1.3978 0
M  V30 6375 H 602.002 6.91607 -3.05313 0
M  V30 6376 H 603.27 7.52549 -2.03199 0
M  V30 6377 N 607.499 1.09233 1.13605 0
M  V30 6378 C 608.724 0.849067 1.89224 0
M  V30 6379 C 609.149 -0.593875 1.78479 0
M  V30 6380 O 608.507 -1.41703 1.13092 0
M  V30 6381 C 608.555 1.28642 3.36873 0
M  V30 6382 O 607.659 0.44363 4.10007 0
M  V30 6383 H 607 0.30767 0.588417 0
M  V30 6384 H 609.53 1.45595 1.43748 0
M  V30 6385 H 609.54 1.27096 3.87699 0
M  V30 6386 H 608.215 2.33729 3.44011 0
M  V30 6387 H 606.792 0.523241 3.69211 0
M  V30 6388 N 608.977 -1.30795 0.87923 0
M  V30 6389 C 610.205 -2.00527 0.509548 0
M  V30 6390 C 610.62 -1.65944 -0.90045 0
M  V30 6391 O 609.977 -0.893525 -1.5913 0
M  V30 6392 C 610.028 -3.55276 0.667943 0
M  V30 6393 O 609.749 -3.88625 2.02242 0
M  V30 6394 C 611.25 -4.4228 0.300494 0
M  V30 6395 H 608.47 -0.641261 0.197549 0
M  V30 6396 H 611.014 -1.66813 1.18295 0
M  V30 6397 H 609.169 -3.87377 0.0419843 0
M  V30 6398 H 609.583 -4.83334 2.03688 0
M  V30 6399 H 611.057 -5.50061 0.462242 0
M  V30 6400 H 611.534 -4.32556 -0.76106 0
M  V30 6401 H 612.14 -4.15613 0.902536 0
M  V30 6402 N 610.455 -0.639598 -1.44038 0
M  V30 6403 C 611.702 -0.14748 -2.01962 0
M  V30 6404 C 612.03 1.23372 -1.50365 0
M  V30 6405 O 611.285 1.8345 -0.681501 0
M  V30 6406 C 611.584 -0.0925348 -3.5728 0
M  V30 6407 C 611.25 -1.41365 -4.28167 0
M  V30 6408 C 609.912 -1.77545 -4.47248 0
M  V30 6409 C 612.264 -2.2853 -4.68427 0
M  V30 6410 C 609.592 -3.00583 -5.03852 0
M  V30 6411 C 611.944 -3.50846 -5.26393 0
M  V30 6412 C 610.608 -3.8724 -5.43692 0
M  V30 6413 H 609.878 -0.0539666 -0.739032 0
M  V30 6414 H 612.525 -0.827599 -1.72694 0
M  V30 6415 H 610.83 0.670987 -3.86012 0
M  V30 6416 H 612.527 0.304891 -3.99839 0
M  V30 6417 H 609.117 -1.1221 -4.13651 0
M  V30 6418 H 613.301 -2.0187 -4.5339 0
M  V30 6419 H 608.557 -3.28846 -5.15432 0
M  V30 6420 H 612.731 -4.18616 -5.56537 0
M  V30 6421 H 610.358 -4.8266 -5.87319 0
M  V30 6422 N 611.933 1.52934 -0.380664 0
M  V30 6423 C 613.182 2.00651 0.205477 0
M  V30 6424 C 613.495 1.27164 1.48623 0
M  V30 6425 O 614.701 1.65547 2.15189 0
M  V30 6426 C 613.157 3.57479 0.416726 0
M  V30 6427 C 612.765 4.39857 -0.850268 0
M  V30 6428 C 614.509 4.13509 0.959702 0
M  V30 6429 C 612.416 5.88269 -0.607773 0
M  V30 6430 H 611.346 0.749684 0.0805614 0
M  V30 6431 H 613.997 1.76508 -0.501732 0
M  V30 6432 H 612.379 3.77836 1.18557 0
M  V30 6433 H 613.553 4.31269 -1.62307 0
M  V30 6434 H 611.868 3.95005 -1.31756 0
M  V30 6435 H 614.465 5.22039 1.15669 0
M  V30 6436 H 614.808 3.69054 1.92626 0
M  V30 6437 H 615.341 3.9701 0.250645 0
M  V30 6438 H 612.08 6.3703 -1.54509 0
M  V30 6439 H 611.6 5.99667 0.126247 0
M  V30 6440 H 613.279 6.46558 -0.239014 0
M  V30 6441 N 613.412 0.11024 1.57214 0
M  V30 6442 C 614.823 -0.416527 1.81994 0
M  V30 6443 C 615.174 -1.67183 1.02686 0
M  V30 6444 O 614.299 -2.14823 0.260782 0
M  V30 6445 C 614.894 -0.762466 3.30109 0
M  V30 6446 C 613.453 -1.23391 3.556 0
M  V30 6447 C 612.6 -0.238166 2.76275 0
M  V30 6448 H 615.551 0.335491 1.55113 0
M  V30 6449 H 615.572 -1.62068 3.44259 0
M  V30 6450 H 615.084 0.151346 3.87805 0
M  V30 6451 H 613.185 -2.16492 3.03253 0
M  V30 6452 H 613.298 -1.18528 4.64207 0
M  V30 6453 H 611.662 -0.723421 2.4421 0
M  V30 6454 H 612.445 0.668591 3.36727 0
M  V30 6455 N 614.89 -1.56749 -0.16351 0
M  V30 6456 C 616.139 -1.81626 -0.877211 0
M  V30 6457 C 616.452 -0.688791 -1.83071 0
M  V30 6458 O 617.658 -0.822697 -2.58735 0
M  V30 6459 C 616.114 -3.21858 -1.61045 0
M  V30 6460 C 615.722 -4.42494 -0.700195 0
M  V30 6461 C 617.466 -3.56021 -2.31192 0
M  V30 6462 C 615.373 -5.73748 -1.43412 0
M  V30 6463 H 614.303 -0.67731 -0.331312 0
M  V30 6464 H 616.954 -1.83039 -0.13006 0
M  V30 6465 H 615.336 -3.14784 -2.40264 0
M  V30 6466 H 616.51 -4.60766 0.0555849 0
M  V30 6467 H 614.825 -4.1626 -0.10799 0
M  V30 6468 H 617.422 -4.51333 -2.8671 0
M  V30 6469 H 617.765 -2.81277 -3.06902 0
M  V30 6470 H 618.298 -3.64682 -1.58909 0
M  V30 6471 H 615.037 -6.51543 -0.719186 0
M  V30 6472 H 614.557 -5.5944 -2.16302 0
M  V30 6473 H 616.236 -6.15975 -1.9795 0
M  V30 6474 N 616.368 0.432326 -1.51554 0
M  V30 6475 C 617.617 1.17831 -1.63703 0
M  V30 6476 C 617.93 1.92229 -0.36156 0
M  V30 6477 O 619.136 2.69069 -0.362495 0
M  V30 6478 C 617.592 2.14318 -2.89129 0
M  V30 6479 C 617.2 1.45544 -4.23699 0
M  V30 6480 C 618.944 2.89319 -3.10636 0
M  V30 6481 C 616.851 2.40545 -5.4027 0
M  V30 6482 H 615.781 0.443533 -0.60975 0
M  V30 6483 H 618.432 0.444878 -1.78026 0
M  V30 6484 H 616.814 2.91117 -2.68452 0
M  V30 6485 H 617.988 0.742693 -4.54775 0
M  V30 6486 H 616.303 0.826772 -4.0811 0
M  V30 6487 H 618.9 3.60495 -3.94902 0
M  V30 6488 H 619.243 3.50951 -2.23918 0
M  V30 6489 H 619.776 2.19625 -3.31677 0
M  V30 6490 H 616.515 1.83594 -6.29264 0
M  V30 6491 H 616.035 3.09859 -5.13563 0
M  V30 6492 H 617.714 3.01569 -5.72421 0
M  V30 6493 N 617.846 1.41785 0.688094 0
M  V30 6494 C 619.086 1.43018 1.46032 0
M  V30 6495 C 619.45 0.0402632 1.91958 0
M  V30 6496 O 620.651 -0.0726425 2.68702 0
M  V30 6497 C 618.922 2.4151 2.63453 0
M  V30 6498 S 620.481 2.61335 3.5249 0
M  V30 6499 H 617.299 0.506546 0.498931 0
M  V30 6500 H 619.901 1.78283 0.80221 0
M  V30 6501 H 618.605 3.41286 2.27929 0
M  V30 6502 H 618.136 2.07624 3.34149 0
M  V30 6503 H 620.151 1.88637 4.58945 0
M  V30 6504 N 619.324 -0.923095 1.27737 0
M  V30 6505 C 620.254 -2.04124 1.13383 0
M  V30 6506 C 621.235 -1.70066 0.0340658 0
M  V30 6507 O 622.42 -1.93068 0.209383 0
M  V30 6508 C 619.55 -3.3831 0.785097 0
M  V30 6509 C 618.504 -3.86496 1.8386 0
M  V30 6510 C 617.83 -5.1754 1.34373 0
M  V30 6511 C 619.13 -4.09381 3.24353 0
M  V30 6512 H 620.824 -2.1639 2.06919 0
M  V30 6513 H 618.37 -1.03976 0.996243 0
M  V30 6514 H 620.323 -4.16016 0.671485 0
M  V30 6515 H 619.047 -3.2607 -0.185969 0
M  V30 6516 H 617.706 -3.10987 1.9412 0
M  V30 6517 H 617.354 -5.01696 0.361989 0
M  V30 6518 H 617.054 -5.50751 2.04811 0
M  V30 6519 H 618.578 -5.97811 1.24315 0
M  V30 6520 H 619.992 -4.77641 3.17067 0
M  V30 6521 H 618.389 -4.53906 3.92542 0
M  V30 6522 H 619.459 -3.14515 3.69064 0
M  V30 6523 N 620.802 -1.09834 -1.13024 0
M  V30 6524 C 622.027 -0.85909 -1.88771 0
M  V30 6525 C 622.452 0.584402 -1.78791 0
M  V30 6526 O 621.81 1.41101 -1.13842 0
M  V30 6527 C 621.858 -1.30427 -3.36186 0
M  V30 6528 O 620.962 -0.465368 -4.09766 0
M  V30 6529 H 620.303 -0.310786 -0.586778 0
M  V30 6530 H 622.833 -1.46355 -1.42973 0
M  V30 6531 H 622.843 -1.2915 -3.8702 0
M  V30 6532 H 621.518 -2.3555 -3.42767 0
M  V30 6533 H 620.095 -0.542814 -3.68928 0
M  V30 6534 N 622.28 1.30327 -0.886154 0
M  V30 6535 C 623.243 2.26376 -0.358687 0
M  V30 6536 C 624.243 1.52845 0.499498 0
M  V30 6537 O 625.433 1.71483 0.306485 0
M  V30 6538 C 622.565 3.37379 0.488726 0
M  V30 6539 H 623.758 2.74547 -1.20681 0
M  V30 6540 H 621.311 1.41536 -0.663113 0
M  V30 6541 H 622.046 2.94526 1.35739 0
M  V30 6542 H 621.831 3.91897 -0.126003 0
M  V30 6543 H 623.321 4.08868 0.84952 0
M  V30 6544 N 623.758 0.647228 1.43697 0
M  V30 6545 C 624.986 0.16575 2.06235 0
M  V30 6546 C 625.401 -1.1662 1.48476 0
M  V30 6547 O 624.758 -1.7187 0.613762 0
M  V30 6548 C 624.809 0.0621651 3.61447 0
M  V30 6549 O 624.53 1.34146 4.17057 0
M  V30 6550 C 626.031 -0.446102 4.4105 0
M  V30 6551 H 623.251 0.0871158 0.665321 0
M  V30 6552 H 625.795 0.886183 1.84301 0
M  V30 6553 H 623.95 -0.608794 3.82587 0
M  V30 6554 H 624.364 1.19675 5.10664 0
M  V30 6555 H 625.838 -0.46755 5.50016 0
M  V30 6556 H 626.315 -1.47627 4.13646 0
M  V30 6557 H 626.921 0.192159 4.24866 0
M  V30 6558 N 625.236 -1.5273 0.388769 0
M  V30 6559 C 626.166 -2.29353 -0.438111 0
M  V30 6560 C 627.147 -1.32719 -1.06394 0
M  V30 6561 O 628.332 -1.61612 -1.07681 0
M  V30 6562 C 625.462 -3.09995 -1.56589 0
M  V30 6563 C 624.416 -4.14509 -1.06613 0
M  V30 6564 C 623.742 -4.83372 -2.28594 0
M  V30 6565 C 625.042 -5.22127 -0.134459 0
M  V30 6566 H 626.736 -2.98723 0.201206 0
M  V30 6567 H 624.282 -1.43665 0.0982089 0
M  V30 6568 H 626.235 -3.62357 -2.15118 0
M  V30 6569 H 624.959 -2.38357 -2.23279 0
M  V30 6570 H 623.618 -3.63128 -0.503383 0
M  V30 6571 H 623.266 -4.08283 -2.93792 0
M  V30 6572 H 622.966 -5.54012 -1.95817 0
M  V30 6573 H 624.49 -5.38538 -2.87766 0
M  V30 6574 H 625.904 -5.69851 -0.627914 0
M  V30 6575 H 624.301 -6.00011 0.103534 0
M  V30 6576 H 625.371 -4.77971 0.816798 0
M  V30 6577 N 626.714 -0.118576 -1.57153 0
M  V30 6578 C 627.962 0.538461 -1.94795 0
M  V30 6579 C 628.283 1.67243 -1.00274 0
M  V30 6580 O 627.553 1.95811 -0.0589692 0
M  V30 6581 H 626.133 0.201904 -0.719197 0
M  V30 6582 H 628.795 -0.187418 -1.93997 0
M  V30 6583 H 627.891 0.933315 -2.97818 0
M  V30 6584 N 628.193 1.56834 0.155195 0
M  V30 6585 C 629.442 1.82088 0.867567 0
M  V30 6586 C 629.755 0.69849 1.82703 0
M  V30 6587 O 630.961 0.836407 2.58295 0
M  V30 6588 C 629.417 3.22707 1.59336 0
M  V30 6589 C 629.025 4.42859 0.676719 0
M  V30 6590 C 630.769 3.57242 2.293 0
M  V30 6591 C 628.676 5.74501 1.40367 0
M  V30 6592 H 627.606 0.679057 0.327715 0
M  V30 6593 H 630.257 1.83105 0.120351 0
M  V30 6594 H 628.639 3.16054 2.38591 0
M  V30 6595 H 629.813 4.60731 -0.0800196 0
M  V30 6596 H 628.128 4.16311 0.0859129 0
M  V30 6597 H 630.725 4.52847 2.84312 0
M  V30 6598 H 631.068 2.82901 3.05406 0
M  V30 6599 H 631.601 3.6552 1.56972 0
M  V30 6600 H 628.34 6.51915 0.684623 0
M  V30 6601 H 627.86 5.60579 2.13332 0
M  V30 6602 H 629.539 6.17016 1.94681 0
M  V30 6603 N 629.671 -0.424282 1.51781 0
M  V30 6604 C 630.896 -1.19928 1.6921 0
M  V30 6605 C 631.321 -1.8392 0.394355 0
M  V30 6606 O 630.679 -1.69371 -0.646778 0
M  V30 6607 C 630.727 -2.24937 2.81843 0
M  V30 6608 O 629.831 -3.3073 2.46356 0
M  V30 6609 H 629.172 -0.35078 0.563781 0
M  V30 6610 H 631.702 -0.499401 1.98412 0
M  V30 6611 H 631.712 -2.69512 3.06312 0
M  V30 6612 H 630.387 -1.77742 3.76006 0
M  V30 6613 H 628.964 -2.9154 2.32505 0
M  V30 6614 N 631.149 -1.42148 -0.680565 0
M  V30 6615 C 632.379 -1.45485 -1.46689 0
M  V30 6616 C 632.787 -0.0629451 -1.89095 0
M  V30 6617 O 632.13 0.931397 -1.58337 0
M  V30 6618 C 632.192 -2.31397 -2.75129 0
M  V30 6619 C 631.856 -3.79353 -2.54834 0
M  V30 6620 C 632.853 -4.71148 -2.19808 0
M  V30 6621 C 630.538 -4.23557 -2.70008 0
M  V30 6622 C 632.532 -6.05139 -2.00215 0
M  V30 6623 C 630.219 -5.57609 -2.50031 0
M  V30 6624 C 631.217 -6.48216 -2.15187 0
M  V30 6625 O 630.905 -7.79792 -1.95397 0
M  V30 6626 H 630.637 -0.497139 -0.458071 0
M  V30 6627 H 633.191 -1.87252 -0.844139 0
M  V30 6628 H 631.421 -1.84468 -3.39865 0
M  V30 6629 H 633.11 -2.26257 -3.36991 0
M  V30 6630 H 633.876 -4.38282 -2.07686 0
M  V30 6631 H 629.755 -3.53327 -2.96109 0
M  V30 6632 H 633.299 -6.75823 -1.72941 0
M  V30 6633 H 629.196 -5.9005 -2.61748 0
M  V30 6634 H 629.964 -7.91091 -2.10042 0
M  V30 6635 N 632.627 0.916307 -1.28225 0
M  V30 6636 C 633.875 1.6619 -1.15002 0
M  V30 6637 C 634.196 1.92642 0.302329 0
M  V30 6638 O 633.466 1.54076 1.20985 0
M  V30 6639 H 632.046 0.615964 -0.422608 0
M  V30 6640 H 634.708 1.09963 -1.60917 0
M  V30 6641 H 633.804 2.62533 -1.68769 0
M  V30 6642 N 634.105 1.10431 1.1244 0
M  V30 6643 C 635.035 0.775143 2.20258 0
M  V30 6644 C 636.016 -0.25186 1.68225 0
M  V30 6645 O 637.201 -0.117637 1.93843 0
M  V30 6646 C 634.331 0.206133 3.46688 0
M  V30 6647 C 633.285 1.16382 4.11873 0
M  V30 6648 C 632.611 0.456014 5.32752 0
M  V30 6649 C 633.911 2.5104 4.58013 0
M  V30 6650 H 635.605 1.67665 2.4805 0
M  V30 6651 H 633.151 0.807595 1.19222 0
M  V30 6652 H 635.104 -0.036291 4.21384 0
M  V30 6653 H 633.828 -0.730614 3.18323 0
M  V30 6654 H 632.487 1.39169 3.39157 0
M  V30 6655 H 632.135 -0.485203 5.00654 0
M  V30 6656 H 631.835 1.09466 5.77314 0
M  V30 6657 H 633.359 0.222135 6.10196 0
M  V30 6658 H 634.773 2.32401 5.24083 0
M  V30 6659 H 633.17 3.10789 5.13352 0
M  V30 6660 H 634.24 3.11039 3.71998 0
M  V30 6661 N 635.583 -1.29855 0.893053 0
M  V30 6662 C 636.823 -1.97612 0.522399 0
M  V30 6663 C 637.187 -1.68903 -0.913 0
M  V30 6664 O 638.388 -2.30059 -1.39019 0
M  V30 6665 C 636.659 -3.48356 0.79893 0
M  V30 6666 S 638.218 -4.35568 0.531588 0
M  V30 6667 H 635.036 -0.684005 0.194058 0
M  V30 6668 H 637.638 -1.57803 1.15406 0
M  V30 6669 H 636.342 -3.66743 1.84196 0
M  V30 6670 H 635.873 -3.93094 0.155133 0
M  V30 6671 H 637.888 -4.92232 -0.626295 0
M  V30 6672 N 637.061 -0.65484 -1.43351 0
M  V30 6673 C 638.338 -0.0987371 -1.95351 0
M  V30 6674 C 638.718 1.38161 -1.59608 0
M  V30 6675 O 638.066 2.10791 -0.882021 0
M  V30 6676 C 638.276 -0.346684 -3.47274 0
M  V30 6677 C 639.624 -0.25249 -4.23849 0
M  V30 6678 O 640.648 -0.279332 -3.55103 0
M  V30 6679 O 639.507 -0.177584 -5.46211 0
M  V30 6680 H 636.601 0.0086829 -0.826954 0
M  V30 6681 H 639.147 -0.728189 -1.53282 0
M  V30 6682 H 637.919 -1.37296 -3.66423 0
M  V30 6683 H 637.542 0.315757 -3.96344 0
M  V30 6684 N 638.539 1.52521 -0.396863 0
M  V30 6685 C 639.788 2.00857 0.184184 0
M  V30 6686 C 640.101 1.28733 1.47265 0
M  V30 6687 O 641.307 1.67821 2.13421 0
M  V30 6688 C 639.763 3.57901 0.378787 0
M  V30 6689 C 639.371 4.38931 -0.896873 0
M  V30 6690 C 641.115 4.14504 0.915789 0
M  V30 6691 C 639.022 5.87591 -0.670133 0
M  V30 6692 H 637.952 0.750496 0.0726055 0
M  V30 6693 H 640.603 1.75965 -0.520425 0
M  V30 6694 H 638.985 3.79072 1.14543 0
M  V30 6695 H 640.159 4.29524 -1.66872 0
M  V30 6696 H 638.474 3.93586 -1.35938 0
M  V30 6697 H 641.071 5.23236 1.10126 0
M  V30 6698 H 641.414 3.71076 1.88701 0
M  V30 6699 H 641.947 3.97253 0.208523 0
M  V30 6700 H 638.686 6.35355 -1.61257 0
M  V30 6701 H 638.206 5.99767 0.0626368 0
M  V30 6702 H 639.885 6.46268 -0.307577 0
M  V30 6703 N 640.017 0.126909 1.57088 0
M  V30 6704 C 641.247 -0.535892 1.99529 0
M  V30 6705 C 641.655 -1.60259 1.00566 0
M  V30 6706 O 640.998 -1.83698 -0.00843269 0
M  V30 6707 C 641.06 -1.21374 3.38391 0
M  V30 6708 C 640.724 -0.294044 4.56053 0
M  V30 6709 C 641.721 0.470454 5.17767 0
M  V30 6710 C 639.406 -0.202808 5.0189 0
M  V30 6711 C 641.4 1.31384 6.23712 0
M  V30 6712 C 639.087 0.644203 6.07695 0
M  V30 6713 C 640.085 1.40115 6.68473 0
M  V30 6714 O 639.773 2.23408 7.72233 0
M  V30 6715 H 639.505 -0.145799 0.66009 0
M  V30 6716 H 642.059 0.212441 2.04298 0
M  V30 6717 H 640.289 -2.00931 3.30399 0
M  V30 6718 H 641.978 -1.77424 3.65069 0
M  V30 6719 H 642.744 0.409884 4.83265 0
M  V30 6720 H 638.623 -0.781688 4.54324 0
M  V30 6721 H 642.167 1.90514 6.71081 0
M  V30 6722 H 638.064 0.706137 6.41626 0
M  V30 6723 H 638.832 2.16436 7.89365 0
M  V30 6724 N 641.495 -1.56914 -0.146875 0
M  V30 6725 C 642.743 -1.82994 -0.85777 0
M  V30 6726 C 643.064 -0.707814 -1.817 0
M  V30 6727 O 642.334 0.270521 -1.94023 0
M  V30 6728 H 640.914 -0.675106 -0.319751 0
M  V30 6729 H 643.576 -1.9439 -0.140849 0
M  V30 6730 H 642.672 -2.77928 -1.41994 0
M  V30 6731 N 642.974 0.416227 -1.52004 0
M  V30 6732 C 644.223 1.16088 -1.64944 0
M  V30 6733 C 644.536 1.91835 -0.381928 0
M  V30 6734 O 645.742 2.6867 -0.391013 0
M  V30 6735 C 644.198 2.1124 -2.91386 0
M  V30 6736 C 643.806 1.41042 -4.25219 0
M  V30 6737 C 645.55 2.86008 -3.13688 0
M  V30 6738 C 643.457 2.34801 -5.42791 0
M  V30 6739 H 642.387 0.437041 -0.61442 0
M  V30 6740 H 645.038 0.425971 -1.78487 0
M  V30 6741 H 643.42 2.88254 -2.71525 0
M  V30 6742 H 644.594 0.694416 -4.55538 0
M  V30 6743 H 642.909 0.78344 -4.08964 0
M  V30 6744 H 645.506 3.56286 -3.98703 0
M  V30 6745 H 645.849 3.48556 -2.27628 0
M  V30 6746 H 646.382 2.16095 -3.33988 0
M  V30 6747 H 643.121 1.7691 -6.31176 0
M  V30 6748 H 642.641 3.04395 -5.16821 0
M  V30 6749 H 644.32 2.9548 -5.75587 0
M  V30 6750 N 644.452 1.42507 0.673017 0
M  V30 6751 C 645.415 1.4582 1.76831 0
M  V30 6752 C 646.415 0.345542 1.57043 0
M  V30 6753 O 647.605 0.606447 1.63303 0
M  V30 6754 C 644.737 1.29158 3.15485 0
M  V30 6755 H 645.93 2.43345 1.7528 0
M  V30 6756 H 643.483 1.28981 0.882817 0
M  V30 6757 H 644.218 0.325626 3.22661 0
M  V30 6758 H 644.003 2.09797 3.31252 0
M  V30 6759 H 645.493 1.34363 3.95394 0
M  V30 6760 N 645.93 -0.909495 1.28709 0
M  V30 6761 C 646.86 -2.0291 1.15542 0
M  V30 6762 C 647.841 -1.7002 0.0521017 0
M  V30 6763 O 649.026 -1.92835 0.229849 0
M  V30 6764 C 646.156 -3.37458 0.820935 0
M  V30 6765 C 645.11 -3.84524 1.87949 0
M  V30 6766 C 644.436 -5.16086 1.39854 0
M  V30 6767 C 645.736 -4.05918 3.28676 0
M  V30 6768 H 647.43 -2.14183 2.09203 0
M  V30 6769 H 644.976 -1.02913 1.00722 0
M  V30 6770 H 646.929 -4.1528 0.715571 0
M  V30 6771 H 645.653 -3.26249 -0.151374 0
M  V30 6772 H 644.312 -3.08911 1.97408 0
M  V30 6773 H 643.96 -5.01284 0.41518 0
M  V30 6774 H 643.66 -5.48547 2.1064 0
M  V30 6775 H 645.184 -5.96459 1.30649 0
M  V30 6776 H 646.598 -4.74252 3.22115 0
M  V30 6777 H 644.995 -4.49717 3.97334 0
M  V30 6778 H 646.065 -3.10583 3.72379 0
M  V30 6779 N 647.408 -1.11026 -1.11852 0
M  V30 6780 C 648.371 -0.768006 -2.1595 0
M  V30 6781 C 649.371 0.210538 -1.59416 0
M  V30 6782 O 650.561 -0.0133978 -1.74195 0
M  V30 6783 C 647.693 -0.138678 -3.40618 0
M  V30 6784 H 648.886 -1.69012 -2.4774 0
M  V30 6785 H 646.439 -0.911578 -1.26964 0
M  V30 6786 H 647.174 0.793872 -3.14433 0
M  V30 6787 H 646.959 -0.843012 -3.8293 0
M  V30 6788 H 648.449 0.0848039 -4.17514 0
M  V30 6789 N 648.886 1.2938 -0.899927 0
M  V30 6790 C 649.849 2.25983 -0.382677 0
M  V30 6791 C 650.849 1.53366 0.483259 0
M  V30 6792 O 652.039 1.71798 0.28828 0
M  V30 6793 C 649.171 3.37878 0.452915 0
M  V30 6794 H 650.364 2.73252 -1.23586 0
M  V30 6795 H 647.917 1.40825 -0.678088 0
M  V30 6796 H 648.652 2.95949 1.32608 0
M  V30 6797 H 648.437 3.91742 -0.167562 0
M  V30 6798 H 649.927 4.09746 0.806107 0
M  V30 6799 N 650.364 0.662433 1.43002 0
M  V30 6800 C 651.61 0.179857 2.02001 0
M  V30 6801 C 651.943 -1.20625 1.52195 0
M  V30 6802 O 651.218 -1.80726 0.718911 0
M  V30 6803 C 651.501 0.200845 3.59539 0
M  V30 6804 C 651.354 1.62153 4.19555 0
M  V30 6805 C 652.673 -0.457738 4.37713 0
M  V30 6806 H 649.792 0.0668305 0.733964 0
M  V30 6807 H 652.434 0.84487 1.70182 0
M  V30 6808 H 650.584 -0.365411 3.86778 0
M  V30 6809 H 652.256 2.23908 4.03315 0
M  V30 6810 H 650.499 2.16601 3.75854 0
M  V30 6811 H 651.17 1.58799 5.28665 0
M  V30 6812 H 653.646 0.0241495 4.16093 0
M  V30 6813 H 652.522 -0.412363 5.47349 0
M  V30 6814 H 652.783 -1.53336 4.14657 0
M  V30 6815 N 651.842 -1.52309 0.404946 0
M  V30 6816 C 653.09 -2.01368 -0.17186 0
M  V30 6817 C 653.411 -1.29261 -1.46002 0
M  V30 6818 O 652.681 -0.41729 -1.91404 0
M  V30 6819 H 651.261 -0.744034 -0.0664993 0
M  V30 6820 H 653.923 -1.87263 0.540228 0
M  V30 6821 H 653.019 -3.09888 -0.370957 0
M  V30 6822 N 653.32 -0.135238 -1.57019 0
M  V30 6823 C 654.253 0.846618 -2.11914 0
M  V30 6824 C 655.231 1.25019 -1.03966 0
M  V30 6825 O 656.415 1.34838 -1.31723 0
M  V30 6826 C 653.542 2.1352 -2.6292 0
M  V30 6827 C 652.588 1.87846 -3.82905 0
M  V30 6828 S 653.421 1.08005 -5.24495 0
M  V30 6829 C 654.577 2.38008 -5.78881 0
M  V30 6830 H 654.81 0.379752 -2.94865 0
M  V30 6831 H 652.343 0.0788387 -1.54199 0
M  V30 6832 H 654.301 2.87551 -2.92958 0
M  V30 6833 H 652.962 2.57323 -1.80121 0
M  V30 6834 H 652.155 2.83365 -4.16797 0
M  V30 6835 H 651.757 1.21929 -3.53567 0
M  V30 6836 H 654.049 3.33742 -5.89595 0
M  V30 6837 H 654.992 2.08638 -6.76665 0
M  V30 6838 H 655.4 2.48119 -5.07048 0
M  V30 6839 N 654.798 1.5699 0.138552 0
M  V30 6840 C 655.728 2.01933 1.17241 0
M  V30 6841 C 656.709 0.90033 1.44319 0
M  V30 6842 O 657.894 1.16872 1.55095 0
M  V30 6843 C 655.024 2.40711 2.50351 0
M  V30 6844 C 653.978 3.55874 2.37776 0
M  V30 6845 C 653.304 3.80491 3.75674 0
M  V30 6846 C 654.604 4.8826 1.85472 0
M  V30 6847 H 656.298 2.88551 0.798672 0
M  V30 6848 H 653.844 1.3882 0.382743 0
M  V30 6849 H 655.797 2.70754 3.22909 0
M  V30 6850 H 654.521 1.5104 2.89576 0
M  V30 6851 H 653.18 3.2601 1.67669 0
M  V30 6852 H 652.828 2.88057 4.12349 0
M  V30 6853 H 652.528 4.57998 3.68119 0
M  V30 6854 H 654.052 4.12967 4.49767 0
M  V30 6855 H 655.466 5.16965 2.4783 0
M  V30 6856 H 653.863 5.69631 1.88787 0
M  V30 6857 H 654.933 4.78071 0.810935 0
M  V30 6858 N 656.276 -0.40816 1.52223 0
M  V30 6859 C 657.501 -1.18127 1.70472 0
M  V30 6860 C 657.926 -1.83491 0.41384 0
M  V30 6861 O 657.284 -1.70047 -0.628778 0
M  V30 6862 C 657.332 -2.21935 2.84213 0
M  V30 6863 O 656.436 -3.28099 2.4985 0
M  V30 6864 H 655.777 -0.344781 0.56747 0
M  V30 6865 H 658.307 -0.478328 1.9893 0
M  V30 6866 H 658.317 -2.66248 3.09153 0
M  V30 6867 H 656.992 -1.73744 3.7787 0
M  V30 6868 H 655.569 -2.89058 2.35584 0
M  V30 6869 N 657.755 -1.42862 -0.66545 0
M  V30 6870 C 658.983 -1.47246 -1.45349 0
M  V30 6871 C 659.398 -0.0865944 -1.88601 0
M  V30 6872 O 658.755 0.900652 -1.58728 0
M  V30 6873 C 658.806 -2.40772 -2.6965 0
M  V30 6874 O 658.527 -3.73968 -2.2821 0
M  V30 6875 C 660.028 -2.54272 -3.63126 0
M  V30 6876 H 657.248 -0.500497 -0.446927 0
M  V30 6877 H 659.792 -1.87477 -0.816871 0
M  V30 6878 H 657.947 -2.0377 -3.29479 0
M  V30 6879 H 658.361 -4.24146 -3.08546 0
M  V30 6880 H 659.835 -3.23815 -4.47043 0
M  V30 6881 H 660.312 -1.58364 -4.09656 0
M  V30 6882 H 660.918 -2.92036 -3.09185 0
M  V30 6883 N 659.233 0.902656 -1.29189 0
M  V30 6884 C 660.163 2.02294 -1.16616 0
M  V30 6885 C 661.144 1.6999 -0.0611175 0
M  V30 6886 O 662.329 1.9271 -0.240072 0
M  V30 6887 C 659.459 3.37018 -0.83882 0
M  V30 6888 C 658.413 3.83522 -1.89986 0
M  V30 6889 C 657.739 5.15337 -1.42589 0
M  V30 6890 C 659.039 4.04169 -3.30824 0
M  V30 6891 H 660.733 2.13071 -2.10336 0
M  V30 6892 H 658.279 1.02378 -1.01266 0
M  V30 6893 H 660.232 4.14895 -0.737584 0
M  V30 6894 H 658.956 3.26325 0.134071 0
M  V30 6895 H 657.615 3.07859 -1.99043 0
M  V30 6896 H 657.263 5.01056 -0.441759 0
M  V30 6897 H 656.963 5.47423 -2.13547 0
M  V30 6898 H 658.487 5.95758 -1.3381 0
M  V30 6899 H 659.901 4.72537 -3.24626 0
M  V30 6900 H 658.298 4.47604 -3.99713 0
M  V30 6901 H 659.368 3.08604 -3.74021 0
M  V30 6902 N 660.711 1.11618 1.11262 0
M  V30 6903 C 661.951 0.876154 1.8467 0
M  V30 6904 C 662.315 -0.587551 1.82789 0
M  V30 6905 O 663.516 -0.944411 2.51663 0
M  V30 6906 C 661.787 1.42461 3.2778 0
M  V30 6907 S 663.346 1.32185 4.18417 0
M  V30 6908 H 660.164 0.31628 0.636779 0
M  V30 6909 H 662.766 1.42404 1.33946 0
M  V30 6910 H 661.47 2.48367 3.26714 0
M  V30 6911 H 661.001 0.873844 3.83572 0
M  V30 6912 H 663.016 0.287607 4.95366 0
M  V30 6913 N 662.189 -1.289 0.906776 0
M  V30 6914 C 663.438 -1.9455 0.532262 0
M  V30 6915 C 663.751 -1.72219 -0.927353 0
M  V30 6916 O 664.957 -2.32033 -1.40971 0
M  V30 6917 C 663.413 -3.48438 0.901041 0
M  V30 6918 C 663.021 -3.79558 2.37991 0
M  V30 6919 C 664.765 -4.20284 0.596777 0
M  V30 6920 C 662.672 -5.26723 2.68918 0
M  V30 6921 H 661.602 -0.728259 0.195333 0
M  V30 6922 H 664.253 -1.46519 1.10474 0
M  V30 6923 H 662.635 -3.95162 0.257419 0
M  V30 6924 H 663.809 -3.43668 3.06967 0
M  V30 6925 H 662.124 -3.20868 2.65391 0
M  V30 6926 H 664.721 -5.28612 0.8046 0
M  V30 6927 H 665.064 -4.13694 -0.465072 0
M  V30 6928 H 665.597 -3.79315 1.19855 0
M  V30 6929 H 662.336 -5.38384 3.73928 0
M  V30 6930 H 661.856 -5.63836 2.04571 0
M  V30 6931 H 663.535 -5.94391 2.55555 0
M  V30 6932 N 663.667 -0.670007 -1.42649 0
M  V30 6933 C 664.907 -0.194106 -2.03476 0
M  V30 6934 C 665.271 1.1755 -1.51809 0
M  V30 6935 O 666.472 1.74579 -2.04391 0
M  V30 6936 C 664.743 -0.221828 -3.56711 0
M  V30 6937 S 666.302 0.183772 -4.38415 0
M  V30 6938 H 663.12 -0.0802478 -0.706457 0
M  V30 6939 H 665.722 -0.882092 -1.74469 0
M  V30 6940 H 664.426 -1.22107 -3.91814 0
M  V30 6941 H 663.957 0.486149 -3.90385 0
M  V30 6942 H 665.972 1.41839 -4.75496 0
M  V30 6943 N 665.145 1.52092 -0.413018 0
M  V30 6944 C 666.075 2.30021 0.401567 0
M  V30 6945 C 667.056 1.34395 1.04269 0
M  V30 6946 O 668.241 1.63304 1.05097 0
M  V30 6947 C 665.371 3.12447 1.51638 0
M  V30 6948 C 664.325 4.16153 1.00005 0
M  V30 6949 C 663.651 4.86948 2.20875 0
M  V30 6950 C 664.951 5.22275 0.0513757 0
M  V30 6951 H 666.645 2.98365 -0.248704 0
M  V30 6952 H 664.191 1.4349 -0.121052 0
M  V30 6953 H 666.144 3.65733 2.09326 0
M  V30 6954 H 664.868 2.41879 2.19458 0
M  V30 6955 H 663.527 3.63882 0.445549 0
M  V30 6956 H 663.175 4.12905 2.8726 0
M  V30 6957 H 662.875 5.57057 1.86978 0
M  V30 6958 H 664.399 5.43048 2.79162 0
M  V30 6959 H 665.813 5.70778 0.537176 0
M  V30 6960 H 664.21 5.9977 -0.198977 0
M  V30 6961 H 665.28 4.76611 -0.892736 0
M  V30 6962 N 666.623 0.143563 1.56945 0
M  V30 6963 C 667.851 -0.515447 2.00377 0
M  V30 6964 C 668.266 -1.58643 1.02361 0
M  V30 6965 O 667.623 -1.82489 0.0201039 0
M  V30 6966 C 667.674 -1.11923 3.43737 0
M  V30 6967 O 667.395 -0.0910318 4.38005 0
M  V30 6968 C 668.896 -1.85918 4.02429 0
M  V30 6969 H 666.116 -0.134478 0.657386 0
M  V30 6970 H 668.66 0.237135 2.0312 0
M  V30 6971 H 666.815 -1.82245 3.41856 0
M  V30 6972 H 667.229 -0.532916 5.21786 0
M  V30 6973 H 668.703 -2.2346 5.04747 0
M  V30 6974 H 669.18 -2.7438 3.42947 0
M  V30 6975 H 669.786 -1.20303 4.07931 0
M  V30 6976 N 668.101 -1.57061 -0.130224 0
M  V30 6977 C 669.35 -1.83446 -0.838488 0
M  V30 6978 C 669.663 -0.727468 -1.81569 0
M  V30 6979 O 670.869 -0.877394 -2.56932 0
M  V30 6980 C 669.325 -3.25201 -1.54182 0
M  V30 6981 C 668.933 -4.4388 -0.606178 0
M  V30 6982 C 670.677 -3.60844 -2.23588 0
M  V30 6983 C 668.584 -5.76661 -1.31209 0
M  V30 6984 H 667.514 -0.684185 -0.316871 0
M  V30 6985 H 670.165 -1.83273 -0.0912059 0
M  V30 6986 H 668.547 -3.1981 -2.33533 0
M  V30 6987 H 669.721 -4.60545 0.153308 0
M  V30 6988 H 668.036 -4.16395 -0.0196705 0
M  V30 6989 H 670.633 -4.57313 -2.77072 0
M  V30 6990 H 670.976 -2.87724 -3.00867 0
M  V30 6991 H 671.509 -3.67971 -1.51137 0
M  V30 6992 H 668.248 -6.52922 -0.580823 0
M  V30 6993 H 667.768 -5.63902 -2.04387 0
M  V30 6994 H 669.447 -6.20035 -1.8484 0
M  V30 6995 N 669.579 0.400081 -1.52437 0
M  V30 6996 C 670.856 1.15973 -1.57511 0
M  V30 6997 C 671.236 2.0798 -0.361572 0
M  V30 6998 O 670.584 2.19032 0.650929 0
M  V30 6999 C 670.794 1.92912 -2.90837 0
M  V30 7000 C 672.142 2.48662 -3.44169 0
M  V30 7001 O 673.166 2.03081 -2.92637 0
M  V30 7002 O 672.025 3.31894 -4.34176 0
M  V30 7003 H 669.119 0.530023 -0.634827 0
M  V30 7004 H 671.665 0.40613 -1.64769 0
M  V30 7005 H 670.437 1.25564 -3.70607 0
M  V30 7006 H 670.06 2.75257 -2.86913 0
M  V30 7007 N 671.057 1.43213 0.657864 0
M  V30 7008 C 672.02 1.47687 1.75275 0
M  V30 7009 C 673.02 0.362179 1.56668 0
M  V30 7010 O 674.21 0.623734 1.62651 0
M  V30 7011 C 671.342 1.32497 3.14098 0
M  V30 7012 H 672.535 2.4519 1.7269 0
M  V30 7013 H 670.088 1.2991 0.869087 0
M  V30 7014 H 670.823 0.359831 3.22298 0
M  V30 7015 H 670.608 2.13299 3.29008 0
M  V30 7016 H 672.098 1.38549 3.93946 0
M  V30 7017 N 672.536 -0.895792 1.29666 0
M  V30 7018 C 673.766 -1.67757 1.20586 0
M  V30 7019 C 674.174 -1.87729 -0.235432 0
M  V30 7020 O 673.517 -1.41706 -1.16898 0
M  V30 7021 C 673.579 -3.08117 1.85215 0
M  V30 7022 C 673.243 -3.1136 3.3452 0
M  V30 7023 C 674.24 -2.91217 4.30684 0
M  V30 7024 C 671.925 -3.33302 3.75786 0
M  V30 7025 C 673.919 -2.92955 5.66089 0
M  V30 7026 C 671.606 -3.3467 5.11311 0
M  V30 7027 C 672.604 -3.14519 6.06273 0
M  V30 7028 O 672.292 -3.15684 7.39323 0
M  V30 7029 H 672.024 -0.530601 0.418854 0
M  V30 7030 H 674.578 -1.12831 1.71634 0
M  V30 7031 H 672.808 -3.64661 1.28683 0
M  V30 7032 H 674.497 -3.68399 1.70403 0
M  V30 7033 H 675.263 -2.74074 4.00136 0
M  V30 7034 H 671.142 -3.48025 3.02324 0
M  V30 7035 H 674.686 -2.77145 6.40185 0
M  V30 7036 H 670.583 -3.51346 5.41504 0
M  V30 7037 H 671.351 -3.31924 7.48177 0
M  V30 7038 N 674.014 -1.12206 -1.10668 0
M  V30 7039 C 675.262 -0.874144 -1.82217 0
M  V30 7040 C 675.583 0.601736 -1.85484 0
M  V30 7041 O 674.853 1.43725 -1.33116 0
M  V30 7042 H 673.433 -0.320404 -0.674797 0
M  V30 7043 H 676.095 -1.41606 -1.33917 0
M  V30 7044 H 675.191 -1.25349 -2.85822 0
M  V30 7045 N 675.492 1.28418 -0.913599 0
M  V30 7046 C 676.903 1.77024 -0.593237 0
M  V30 7047 C 677.254 1.74779 0.891441 0
M  V30 7048 O 676.379 1.34237 1.69733 0
M  V30 7049 C 676.974 3.21456 -1.07011 0
M  V30 7050 C 675.533 3.67786 -0.800664 0
M  V30 7051 C 674.68 2.48185 -1.23691 0
M  V30 7052 H 677.631 1.14883 -1.09487 0
M  V30 7053 H 677.652 3.78269 -0.411481 0
M  V30 7054 H 677.164 3.23058 -2.1507 0
M  V30 7055 H 675.265 3.71644 0.266725 0
M  V30 7056 H 675.378 4.57934 -1.4083 0
M  V30 7057 H 673.742 2.46116 -0.655655 0
M  V30 7058 H 674.525 2.52506 -2.32585 0
M  V30 7059 N 676.97 0.677563 1.42291 0
M  V30 7060 C 678.219 0.198173 2.00724 0
M  V30 7061 C 678.532 -1.20325 1.54211 0
M  V30 7062 O 679.738 -1.77916 2.05081 0
M  V30 7063 C 678.194 0.303432 3.58619 0
M  V30 7064 C 677.802 1.70909 4.14119 0
M  V30 7065 C 679.546 -0.117103 4.24338 0
M  V30 7066 C 677.453 1.76696 5.64387 0
M  V30 7067 H 676.383 0.070329 0.750713 0
M  V30 7068 H 679.034 0.843147 1.62982 0
M  V30 7069 H 677.416 -0.409482 3.93877 0
M  V30 7070 H 678.59 2.44931 3.90315 0
M  V30 7071 H 676.905 2.07771 3.6086 0
M  V30 7072 H 679.502 -0.0940471 5.34617 0
M  V30 7073 H 679.845 -1.15283 4.00019 0
M  V30 7074 H 680.378 0.5449 3.9405 0
M  V30 7075 H 677.117 2.7826 5.93508 0
M  V30 7076 H 676.637 1.07034 5.90173 0
M  V30 7077 H 678.316 1.52166 6.28852 0
M  V30 7078 N 678.448 -1.51871 0.421078 0
M  V30 7079 C 679.673 -2.0684 -0.152371 0
M  V30 7080 C 680.098 -1.28802 -1.37083 0
M  V30 7081 O 679.456 -0.321482 -1.78427 0
M  V30 7082 C 679.504 -3.57532 -0.469368 0
M  V30 7083 O 678.608 -3.81818 -1.55848 0
M  V30 7084 H 677.949 -0.663939 -0.00898586 0
M  V30 7085 H 680.479 -1.95674 0.597724 0
M  V30 7086 H 680.489 -4.01515 -0.724553 0
M  V30 7087 H 679.164 -4.13761 0.421276 0
M  V30 7088 H 677.741 -3.49709 -1.29453 0
M  V30 7089 N 679.926 -0.151884 -1.56866 0
M  V30 7090 C 681.203 0.543328 -1.87902 0
M  V30 7091 C 681.583 1.82636 -1.05864 0
M  V30 7092 O 680.931 2.28028 -0.146868 0
M  V30 7093 C 681.141 0.804056 -3.39611 0
M  V30 7094 C 682.489 1.14267 -4.08935 0
M  V30 7095 O 683.513 0.893248 -3.44818 0
M  V30 7096 O 682.372 1.61229 -5.22176 0
M  V30 7097 H 679.466 0.277724 -0.778973 0
M  V30 7098 H 682.012 -0.188862 -1.68646 0
M  V30 7099 H 680.784 -0.103772 -3.91162 0
M  V30 7100 H 680.407 1.59025 -3.64413 0
M  V30 7101 N 681.404 1.57128 0.121893 0
M  V30 7102 C 682.352 2.01109 1.16868 0
M  V30 7103 C 683.346 0.907532 1.43039 0
M  V30 7104 O 684.552 1.09274 1.43036 0
M  V30 7105 H 680.927 0.640539 0.393971 0
M  V30 7106 H 682.898 2.88261 0.771224 0
M  V30 7107 C 681.647 2.42887 2.48799 0
M  V30 7108 H 680.97 3.2737 2.29498 0
M  V30 7109 H 682.41 2.77461 3.20611 0
M  V30 7110 C 680.869 1.29137 3.11168 0
M  V30 7111 O 681.399 0.605756 3.97106 0
M  V30 7112 N 679.605 1.04916 2.71 0
M  V30 7113 H 679.152 1.60848 2.01211 0
M  V30 7114 H 679.11 0.290016 3.1306 0
M  V30 7115 N 682.882 -0.391992 1.52647 0
M  V30 7116 C 683.845 -1.46135 1.7657 0
M  V30 7117 C 684.845 -1.47701 0.635698 0
M  V30 7118 O 686.035 -1.48924 0.903728 0
M  V30 7119 C 683.167 -2.85443 1.86374 0
M  V30 7120 H 684.36 -1.26208 2.72051 0
M  V30 7121 H 681.913 -0.623549 1.43323 0
M  V30 7122 H 682.648 -3.10718 0.928685 0
M  V30 7123 H 682.433 -2.85708 2.68539 0
M  V30 7124 H 683.923 -3.62933 2.06566 0
M  V30 7125 N 684.36 -1.4356 -0.65026 0
M  V30 7126 C 685.608 -1.45046 -1.40734 0
M  V30 7127 C 685.929 -0.0769822 -1.94848 0
M  V30 7128 O 685.199 0.888098 -1.74613 0
M  V30 7129 H 683.779 -0.534034 -0.522318 0
M  V30 7130 H 686.441 -1.79186 -0.766703 0
M  V30 7131 H 685.537 -2.16476 -2.24822 0
M  V30 7132 N 685.838 0.888903 -1.30139 0
M  V30 7133 C 687.086 1.63713 -1.18501 0
M  V30 7134 C 687.407 1.9324 0.261399 0
M  V30 7135 O 686.677 1.56608 1.17689 0
M  V30 7136 H 685.257 0.606861 -0.435579 0
M  V30 7137 H 687.919 1.06525 -1.63213 0
M  V30 7138 H 687.015 2.58894 -1.743 0
M  V30 7139 N 687.317 1.12792 1.10072 0
M  V30 7140 C 688.566 0.880232 1.81479 0
M  V30 7141 C 688.879 -0.595575 1.86312 0
M  V30 7142 O 690.085 -0.959979 2.53962 0
M  V30 7143 C 688.541 1.52514 3.25987 0
M  V30 7144 C 688.149 3.036 3.29441 0
M  V30 7145 C 689.893 1.35788 4.02196 0
M  V30 7146 C 687.8 3.61007 4.68431 0
M  V30 7147 H 686.73 0.325654 0.680048 0
M  V30 7148 H 689.381 1.35485 1.23758 0
M  V30 7149 H 687.763 0.978188 3.83728 0
M  V30 7150 H 688.937 3.64819 2.81502 0
M  V30 7151 H 687.252 3.19765 2.66719 0
M  V30 7152 H 689.849 1.76096 5.0487 0
M  V30 7153 H 690.192 0.301972 4.15203 0
M  V30 7154 H 690.725 1.87426 3.50879 0
M  V30 7155 H 687.464 4.66375 4.60625 0
M  V30 7156 H 686.984 3.04564 5.16721 0
M  V30 7157 H 688.663 3.60289 5.37402 0
M  V30 7158 N 688.795 -1.27931 0.920396 0
M  V30 7159 C 689.758 -2.25345 0.41858 0
M  V30 7160 C 690.758 -1.54116 -0.458798 0
M  V30 7161 O 691.948 -1.72235 -0.260912 0
M  V30 7162 C 689.08 -3.38556 -0.399104 0
M  V30 7163 H 690.273 -2.71251 1.27918 0
M  V30 7164 H 687.826 -1.39728 0.700406 0
M  V30 7165 H 688.561 -2.98021 -1.27882 0
M  V30 7166 H 688.346 -3.91426 0.229863 0
M  V30 7167 H 689.836 -4.10976 -0.740817 0
M  V30 7168 N 690.273 -0.685099 -1.4193 0
M  V30 7169 C 691.183 -0.013404 -2.34596 0
M  V30 7170 C 692.199 0.777589 -1.55658 0
M  V30 7171 O 693.375 0.717553 -1.88184 0
M  V30 7172 C 690.44 0.919031 -3.34297 0
M  V30 7173 C 689.501 0.121417 -4.29128 0
M  V30 7174 C 688.734 1.00944 -5.24067 0
M  V30 7175 O 688.957 2.24898 -5.24192 0
M  V30 7176 O 687.891 0.464724 -6.00103 0
M  V30 7177 H 691.717 -0.776978 -2.93593 0
M  V30 7178 H 689.302 -0.445379 -1.42607 0
M  V30 7179 H 691.184 1.45402 -3.9552 0
M  V30 7180 H 689.859 1.66228 -2.77759 0
M  V30 7181 H 688.766 -0.45792 -3.71287 0
M  V30 7182 H 690.099 -0.582937 -4.88736 0
M  V30 7183 N 691.751 1.51645 -0.429126 0
M  V30 7184 C 692.684 2.24083 0.431492 0
M  V30 7185 C 693.662 1.25691 1.03153 0
M  V30 7186 O 694.846 1.54802 1.07557 0
M  V30 7187 C 691.973 2.9849 1.60067 0
M  V30 7188 C 691.019 4.11474 1.12211 0
M  V30 7189 S 691.852 5.35453 0.0708449 0
M  V30 7190 C 693.008 6.13395 1.24488 0
M  V30 7191 H 693.241 2.96733 -0.183525 0
M  V30 7192 H 690.774 1.52916 -0.213574 0
M  V30 7193 H 692.732 3.4196 2.27099 0
M  V30 7194 H 691.393 2.25445 2.18708 0
M  V30 7195 H 690.586 4.62784 1.99618 0
M  V30 7196 H 690.188 3.70223 0.530149 0
M  V30 7197 H 692.48 6.41984 2.16479 0
M  V30 7198 H 693.423 7.0388 0.771921 0
M  V30 7199 H 693.831 5.44761 1.47973 0
M  V30 7200 N 693.229 0.160201 1.56784 0
M  V30 7201 C 694.192 -0.760405 2.16219 0
M  V30 7202 C 695.192 -1.16595 1.10735 0
M  V30 7203 O 696.382 -1.08472 1.36306 0
M  V30 7204 C 693.514 -2.03358 2.73603 0
M  V30 7205 H 694.707 -0.243173 2.98912 0
M  V30 7206 H 692.26 -0.0893139 1.56045 0
M  V30 7207 H 692.995 -2.59416 1.94612 0
M  V30 7208 H 692.78 -1.75186 3.50788 0
M  V30 7209 H 694.27 -2.69081 3.19351 0
M  V30 7210 N 694.707 -1.5719 -0.113559 0
M  V30 7211 C 695.955 -1.84772 -0.818761 0
M  V30 7212 C 696.276 -0.746196 -1.80158 0
M  V30 7213 O 695.546 0.229305 -1.94553 0
M  V30 7214 H 694.126 -0.681737 -0.305359 0
M  V30 7215 H 696.788 -1.94645 -0.0995845 0
M  V30 7216 H 695.884 -2.80878 -1.36067 0
M  V30 7217 N 696.185 0.383891 -1.52853 0
M  V30 7218 C 697.115 1.47559 -1.80965 0
M  V30 7219 C 698.096 1.5669 -0.661986 0
M  V30 7220 O 699.281 1.71556 -0.910072 0
M  V30 7221 C 696.411 2.85114 -1.98312 0
M  V30 7222 C 695.365 2.9082 -3.14019 0
M  V30 7223 C 694.691 4.30873 -3.16627 0
M  V30 7224 C 695.991 2.60001 -4.52986 0
M  V30 7225 H 697.685 1.24283 -2.72386 0
M  V30 7226 H 695.231 0.596445 -1.31067 0
M  V30 7227 H 697.184 3.61496 -2.16561 0
M  V30 7228 H 695.908 3.09738 -1.03585 0
M  V30 7229 H 694.567 2.16886 -2.9556 0
M  V30 7230 H 694.215 4.52545 -2.19573 0
M  V30 7231 H 693.915 4.3561 -3.94357 0
M  V30 7232 H 695.439 5.09154 -3.37038 0
M  V30 7233 H 696.853 3.261 -4.71521 0
M  V30 7234 H 695.25 2.76081 -5.32822 0
M  V30 7235 H 696.32 1.5532 -4.59351 0
M  V30 7236 N 697.663 1.43903 0.642637 0
M  V30 7237 C 699.074 1.40975 1.22404 0
M  V30 7238 C 699.425 0.1192 1.95838 0
M  V30 7239 O 698.55 -0.780939 2.01818 0
M  V30 7240 C 699.145 2.5538 2.22636 0
M  V30 7241 C 697.704 2.55684 2.76229 0
M  V30 7242 C 696.851 2.32556 1.51039 0
M  V30 7243 H 699.802 1.5265 0.434006 0
M  V30 7244 H 699.823 2.27474 3.05017 0
M  V30 7245 H 699.335 3.49294 1.69161 0
M  V30 7246 H 697.436 1.65679 3.33738 0
M  V30 7247 H 697.549 3.53799 3.23053 0
M  V30 7248 H 695.913 1.81427 1.78764 0
M  V30 7249 H 696.696 3.28569 0.99484 0
M  V30 7250 N 699.141 -0.881989 1.30609 0
M  V30 7251 C 700.366 -1.67236 1.22665 0
M  V30 7252 C 700.791 -1.8696 -0.206777 0
M  V30 7253 O 700.149 -1.4027 -1.14865 0
M  V30 7254 C 700.197 -3.02446 1.96363 0
M  V30 7255 O 699.301 -3.91614 1.29276 0
M  V30 7256 H 698.642 -0.510902 0.424117 0
M  V30 7257 H 701.172 -1.10055 1.72479 0
M  V30 7258 H 701.182 -3.52468 2.055 0
M  V30 7259 H 699.857 -2.8741 3.00613 0
M  V30 7260 H 698.434 -3.50055 1.28514 0
M  V30 7261 N 700.619 -1.13374 -1.09472 0
M  V30 7262 C 701.529 -0.824029 -2.19652 0
M  V30 7263 C 702.545 0.19118 -1.72947 0
M  V30 7264 O 703.721 0.0223464 -2.01388 0
M  V30 7265 C 700.786 -0.294009 -3.45451 0
M  V30 7266 C 699.847 -1.3704 -4.0684 0
M  V30 7267 C 699.08 -0.86558 -5.26634 0
M  V30 7268 O 699.303 0.29702 -5.69626 0
M  V30 7269 O 698.237 -1.63968 -5.79136 0
M  V30 7270 H 702.063 -1.74454 -2.48595 0
M  V30 7271 H 699.648 -0.911155 -1.18399 0
M  V30 7272 H 701.53 -0.00381039 -4.214 0
M  V30 7273 H 700.205 0.598921 -3.18111 0
M  V30 7274 H 699.112 -1.71391 -3.3253 0
M  V30 7275 H 700.445 -2.23746 -4.38405 0
M  V30 7276 N 702.098 1.27442 -0.927168 0
M  V30 7277 C 703.344 1.94679 -0.568164 0
M  V30 7278 C 703.677 1.72697 0.888219 0
M  V30 7279 O 702.952 1.05573 1.63354 0
M  V30 7280 C 703.235 3.4882 -0.894253 0
M  V30 7281 C 703.088 3.80146 -2.40435 0
M  V30 7282 C 704.407 4.38281 -0.399766 0
M  V30 7283 H 701.526 0.707071 -0.207892 0
M  V30 7284 H 704.168 1.50568 -1.15885 0
M  V30 7285 H 702.318 3.86522 -0.391566 0
M  V30 7286 H 703.99 3.52238 -2.97869 0
M  V30 7287 H 702.233 3.26716 -2.85375 0
M  V30 7288 H 702.904 4.87835 -2.58304 0
M  V30 7289 H 705.38 4.07726 -0.83058 0
M  V30 7290 H 704.256 5.44955 -0.656885 0
M  V30 7291 H 704.517 4.36521 0.700153 0
M  V30 7292 N 703.576 0.692616 1.41565 0
M  V30 7293 C 704.992 0.363878 1.55397 0
M  V30 7294 C 705.192 -1.1294 1.66874 0
M  V30 7295 O 704.248 -1.91517 1.64552 0
M  V30 7296 C 705.561 1.10982 2.7947 0
M  V30 7297 C 707.109 1.09387 2.93263 0
M  V30 7298 C 707.584 1.8215 4.20221 0
M  V30 7299 N 709.075 1.79105 4.27172 0
M  V30 7300 C 709.81 2.32247 5.2426 0
M  V30 7301 N 709.306 2.93847 6.27396 0
M  V30 7302 N 711.099 2.22519 5.1618 0
M  V30 7303 H 703.25 1.66116 1.3236 0
M  V30 7304 H 705.513 0.700848 0.63837 0
M  V30 7305 H 705.219 2.1647 2.77188 0
M  V30 7306 H 705.093 0.686492 3.709 0
M  V30 7307 H 707.48 0.0472638 2.95062 0
M  V30 7308 H 707.561 1.55623 2.03015 0
M  V30 7309 H 707.205 2.86789 4.19183 0
M  V30 7310 H 707.135 1.33351 5.09436 0
M  V30 7311 H 709.626 1.34191 3.53272 0
M  V30 7312 H 709.939 3.31972 6.97864 0
M  V30 7313 H 708.284 2.97924 6.27906 0
M  V30 7314 H 711.475 1.7407 4.34531 0
M  V30 7315 H 711.648 2.64239 5.91677 0
M  V30 7316 N 705.054 -1.51416 0.437162 0
M  V30 7317 C 705.964 -2.31493 -0.380537 0
M  V30 7318 C 706.98 -1.40399 -1.02782 0
M  V30 7319 O 708.156 -1.73471 -1.02323 0
M  V30 7320 C 705.221 -3.1413 -1.46709 0
M  V30 7321 C 704.282 -4.21003 -0.839953 0
M  V30 7322 C 703.515 -4.9969 -1.87473 0
M  V30 7323 O 703.738 -4.79008 -3.09689 0
M  V30 7324 O 702.672 -5.8379 -1.46536 0
M  V30 7325 H 706.498 -3.02469 0.273183 0
M  V30 7326 H 704.083 -1.48059 0.199706 0
M  V30 7327 H 705.965 -3.65505 -2.09724 0
M  V30 7328 H 704.64 -2.45919 -2.10489 0
M  V30 7329 H 703.547 -3.73706 -0.171752 0
M  V30 7330 H 704.88 -4.91587 -0.245638 0
M  V30 7331 N 706.532 -0.168513 -1.56696 0
M  V30 7332 C 707.948 0.187686 -1.58493 0
M  V30 7333 C 708.148 1.63063 -1.18375 0
M  V30 7334 O 707.204 2.36142 -0.894042 0
M  V30 7335 C 708.517 -0.0905858 -3.00564 0
M  V30 7336 C 710.065 -0.028575 -3.12987 0
M  V30 7337 C 710.54 -0.279799 -4.57145 0
M  V30 7338 N 712.031 -0.227476 -4.62641 0
M  V30 7339 C 712.766 -0.396073 -5.7203 0
M  V30 7340 N 712.262 -0.623572 -6.89988 0
M  V30 7341 N 714.055 -0.332173 -5.61118 0
M  V30 7342 H 706.206 -1.11042 -1.81062 0
M  V30 7343 H 708.469 -0.441235 -0.839056 0
M  V30 7344 H 708.175 -1.09006 -3.34381 0
M  V30 7345 H 708.049 0.619078 -3.72085 0
M  V30 7346 H 710.436 0.961471 -2.78998 0
M  V30 7347 H 710.517 -0.770905 -2.43907 0
M  V30 7348 H 710.161 -1.26704 -4.91842 0
M  V30 7349 H 710.091 0.48311 -5.24379 0
M  V30 7350 H 712.582 -0.0571723 -3.77857 0
M  V30 7351 H 712.895 -0.741745 -7.69232 0
M  V30 7352 H 711.24 -0.660153 -6.91858 0
M  V30 7353 H 714.431 -0.155051 -4.67843 0
M  V30 7354 H 714.604 -0.466994 -6.46315 0
M  V30 7355 N 708.01 1.57248 0.105221 0
M  V30 7356 C 709.238 1.89768 0.82437 0
M  V30 7357 C 709.653 0.761192 1.72775 0
M  V30 7358 O 709.01 -0.267342 1.80531 0
M  V30 7359 C 709.061 3.2184 1.64625 0
M  V30 7360 O 708.782 4.31115 0.779217 0
M  V30 7361 C 710.283 3.68155 2.46935 0
M  V30 7362 H 707.503 0.628031 0.236259 0
M  V30 7363 H 710.047 2.04321 0.085485 0
M  V30 7364 H 708.202 3.08915 2.33775 0
M  V30 7365 H 708.616 5.06897 1.34745 0
M  V30 7366 H 710.09 4.6329 3.00111 0
M  V30 7367 H 710.567 2.95492 3.24932 0
M  V30 7368 H 711.173 3.83914 1.83002 0
M  V30 7369 N 709.488 -0.375779 1.53054 0
M  V30 7370 C 710.765 -1.13453 1.59336 0
M  V30 7371 C 711.145 -2.07379 0.394614 0
M  V30 7372 O 710.493 -2.2004 -0.616 0
M  V30 7373 C 710.703 -1.8826 2.93869 0
M  V30 7374 C 712.051 -2.43155 3.48081 0
M  V30 7375 O 713.075 -1.984 2.95831 0
M  V30 7376 O 711.934 -3.24944 4.39401 0
M  V30 7377 H 709.028 -0.519856 0.643179 0
M  V30 7378 H 711.574 -0.379865 1.65394 0
M  V30 7379 H 710.346 -1.19652 3.72558 0
M  V30 7380 H 709.969 -2.70658 2.91256 0
M  V30 7381 N 710.966 -1.44241 -0.634997 0
M  V30 7382 C 712.215 -1.46102 -1.39058 0
M  V30 7383 C 712.528 -0.0959909 -1.95364 0
M  V30 7384 O 713.734 0.00788751 -2.71499 0
M  V30 7385 C 712.19 -2.57195 -2.51751 0
M  V30 7386 C 711.798 -3.99888 -2.01974 0
M  V30 7387 C 713.542 -2.68272 -3.28984 0
M  V30 7388 C 711.449 -5.02412 -3.11987 0
M  V30 7389 H 710.379 -0.543556 -0.522554 0
M  V30 7390 H 713.03 -1.70294 -0.683538 0
M  V30 7391 H 711.412 -2.26237 -3.25012 0
M  V30 7392 H 712.586 -4.40396 -1.35604 0
M  V30 7393 H 710.901 -3.93019 -1.37568 0
M  V30 7394 H 713.498 -3.42042 -4.10988 0
M  V30 7395 H 713.841 -1.73957 -3.78212 0
M  V30 7396 H 714.374 -2.98622 -2.62812 0
M  V30 7397 H 711.113 -5.98342 -2.67707 0
M  V30 7398 H 710.633 -4.66501 -3.77011 0
M  V30 7399 H 712.312 -5.25939 -3.76825 0
M  V30 7400 N 712.444 0.87505 -1.31075 0
M  V30 7401 C 713.374 1.99775 -1.20881 0
M  V30 7402 C 714.355 1.69822 -0.0971612 0
M  V30 7403 O 715.54 1.92158 -0.280895 0
M  V30 7404 C 712.67 3.35163 -0.910118 0
M  V30 7405 C 711.624 3.79406 -1.98078 0
M  V30 7406 C 710.95 5.12197 -1.53488 0
M  V30 7407 C 712.25 3.97061 -3.39323 0
M  V30 7408 H 713.944 2.08562 -2.14808 0
M  V30 7409 H 711.49 1.00207 -1.03415 0
M  V30 7410 H 713.443 4.13237 -0.825423 0
M  V30 7411 H 712.167 3.26536 0.064822 0
M  V30 7412 H 710.826 3.03568 -2.05528 0
M  V30 7413 H 710.474 5.00007 -0.547941 0
M  V30 7414 H 710.174 5.4277 -2.2511 0
M  V30 7415 H 711.698 5.92785 -1.46417 0
M  V30 7416 H 713.112 4.65545 -3.34576 0
M  V30 7417 H 711.509 4.39025 -4.09118 0
M  V30 7418 H 712.579 3.00601 -3.80483 0
M  V30 7419 N 713.922 1.13953 1.08869 0
M  V30 7420 C 715.199 0.815768 1.77777 0
M  V30 7421 C 715.579 -0.691624 1.99449 0
M  V30 7422 O 714.927 -1.63085 1.60049 0
M  V30 7423 C 715.137 1.60916 3.09689 0
M  V30 7424 C 716.485 1.80549 3.84301 0
M  V30 7425 O 717.509 1.57562 3.19457 0
M  V30 7426 O 716.368 2.18946 5.00724 0
M  V30 7427 H 713.462 0.298445 0.771271 0
M  V30 7428 H 716.008 1.24446 1.15374 0
M  V30 7429 H 714.78 2.6333 2.89435 0
M  V30 7430 H 714.403 1.17578 3.79817 0
M  V30 7431 N 715.4 -1.26948 0.933913 0
M  V30 7432 C 716.363 -2.24889 0.442457 0
M  V30 7433 C 717.363 -1.54594 -0.442426 0
M  V30 7434 O 718.553 -1.72502 -0.242629 0
M  V30 7435 C 715.685 -3.3896 -0.363173 0
M  V30 7436 H 716.878 -2.69879 1.30787 0
M  V30 7437 H 714.431 -1.38978 0.715187 0
M  V30 7438 H 715.166 -2.99361 -1.24714 0
M  V30 7439 H 714.951 -3.9116 0.271366 0
M  V30 7440 H 716.441 -4.11739 -0.697186 0
M  V30 7441 N 716.879 -0.700114 -1.41195 0
M  V30 7442 C 717.842 -0.0465706 -2.29153 0
M  V30 7443 C 718.842 0.703302 -1.44604 0
M  V30 7444 O 720.032 0.537513 -1.657 0
M  V30 7445 C 717.164 0.944324 -3.2756 0
M  V30 7446 H 718.357 -0.821064 -2.88442 0
M  V30 7447 H 715.91 -0.463869 -1.49258 0
M  V30 7448 H 716.645 1.74642 -2.73259 0
M  V30 7449 H 716.43 0.409701 -3.89954 0
M  V30 7450 H 717.92 1.39925 -3.9346 0
M  V30 7451 N 718.357 1.51182 -0.445186 0
M  V30 7452 C 719.605 2.01753 0.11841 0
M  V30 7453 C 719.926 1.33087 1.42523 0
M  V30 7454 O 719.196 0.467891 1.9023 0
M  V30 7455 H 717.776 0.745536 0.0467492 0
M  V30 7456 H 720.438 1.85765 -0.589688 0
M  V30 7457 H 719.534 3.10762 0.288665 0
M  V30 7458 N 719.835 0.176821 1.56605 0
M  V30 7459 C 720.783 -0.768159 2.1955 0
M  V30 7460 C 721.777 -1.23343 1.16116 0
M  V30 7461 O 722.983 -1.19844 1.34303 0
M  V30 7462 H 719.358 -0.266013 0.703378 0
M  V30 7463 H 721.329 -0.213374 2.97636 0
M  V30 7464 C 720.078 -1.98492 2.85475 0
M  V30 7465 H 719.401 -1.63595 3.64797 0
M  V30 7466 H 720.841 -2.62489 3.3298 0
M  V30 7467 C 719.3 -2.81207 1.85538 0
M  V30 7468 O 719.83 -3.7854 1.34427 0
M  V30 7469 N 718.036 -2.46331 1.54173 0
M  V30 7470 H 717.583 -1.67241 1.95929 0
M  V30 7471 H 717.541 -3.01961 0.875595 0
M  V30 7472 N 721.313 -1.57302 -0.09688 0
M  V30 7473 C 722.541 -1.90202 -0.814295 0
M  V30 7474 C 722.956 -0.770344 -1.72369 0
M  V30 7475 O 722.313 0.257764 -1.8067 0
M  V30 7476 C 722.364 -3.22708 -1.62916 0
M  V30 7477 O 722.085 -4.31522 -0.756343 0
M  V30 7478 C 723.586 -3.69459 -2.44979 0
M  V30 7479 H 720.806 -0.629275 -0.232925 0
M  V30 7480 H 723.35 -2.04364 -0.0746482 0
M  V30 7481 H 721.505 -3.1015 -2.32133 0
M  V30 7482 H 721.919 -5.07604 -1.32054 0
M  V30 7483 H 723.393 -4.64875 -2.9765 0
M  V30 7484 H 723.87 -2.97211 -3.23361 0
M  V30 7485 H 724.476 -3.84879 -1.80964 0
M  V30 7486 N 722.791 0.367657 -1.53252 0
M  V30 7487 C 724.019 1.13119 -1.73239 0
M  V30 7488 C 724.434 1.831 -0.460404 0
M  V30 7489 O 723.791 1.73483 0.566557 0
M  V30 7490 C 723.842 2.16308 -2.89643 0
M  V30 7491 O 723.563 1.49175 -4.1192 0
M  V30 7492 C 725.064 3.05224 -3.21486 0
M  V30 7493 H 722.284 0.338318 -0.579467 0
M  V30 7494 H 724.828 0.42721 -1.99988 0
M  V30 7495 H 722.983 2.82307 -2.65295 0
M  V30 7496 H 723.397 2.17912 -4.7709 0
M  V30 7497 H 724.871 3.73613 -4.06346 0
M  V30 7498 H 725.348 3.69919 -2.36763 0
M  V30 7499 H 725.954 2.44843 -3.47753 0
M  V30 7500 N 724.269 1.44576 0.627338 0
M  V30 7501 C 725.232 1.51372 1.72102 0
M  V30 7502 C 726.232 0.395329 1.55865 0
M  V30 7503 O 727.422 0.658094 1.61291 0
M  V30 7504 C 724.554 1.39129 3.11217 0
M  V30 7505 H 725.747 2.48798 1.6745 0
M  V30 7506 H 723.3 1.31724 0.841336 0
M  V30 7507 H 724.035 0.428114 3.21462 0
M  V30 7508 H 723.82 2.20229 3.24409 0
M  V30 7509 H 725.31 1.46874 3.90919 0
M  V30 7510 N 725.747 -0.868086 1.31537 0
M  V30 7511 C 726.71 -1.95703 1.19302 0
M  V30 7512 C 727.71 -1.60355 0.119612 0
M  V30 7513 O 728.9 -1.70247 0.36902 0
M  V30 7514 C 726.032 -3.30599 0.831684 0
M  V30 7515 H 727.225 -2.07982 2.16064 0
M  V30 7516 H 724.778 -1.05661 1.15176 0
M  V30 7517 H 725.513 -3.2402 -0.134694 0
M  V30 7518 H 725.298 -3.57629 1.60761 0
M  V30 7519 H 726.788 -4.10439 0.770026 0
M  V30 7520 N 727.225 -1.14528 -1.08264 0
M  V30 7521 C 728.474 -0.908992 -1.80056 0
M  V30 7522 C 728.787 0.565859 -1.87236 0
M  V30 7523 O 729.993 0.919454 -2.55457 0
M  V30 7524 C 728.449 -1.57681 -3.23519 0
M  V30 7525 C 728.057 -3.08803 -3.24569 0
M  V30 7526 C 729.801 -1.4217 -3.99985 0
M  V30 7527 C 727.708 -3.68414 -4.62629 0
M  V30 7528 H 726.638 -0.336432 -0.674781 0
M  V30 7529 H 729.289 -1.37437 -1.21587 0
M  V30 7530 H 727.671 -1.03911 -3.82124 0
M  V30 7531 H 728.845 -3.69252 -2.75663 0
M  V30 7532 H 727.16 -3.23968 -2.61598 0
M  V30 7533 H 729.757 -1.84106 -5.02005 0
M  V30 7534 H 730.1 -0.367989 -4.1467 0
M  V30 7535 H 730.633 -1.92984 -3.47853 0
M  V30 7536 H 727.372 -4.73644 -4.53147 0
M  V30 7537 H 726.892 -3.12746 -5.11811 0
M  V30 7538 H 728.571 -3.68793 -5.31602 0
M  V30 7539 N 728.703 1.26451 -0.940633 0
M  V30 7540 C 729.951 1.93395 -0.586748 0
M  V30 7541 C 730.272 1.7417 0.876921 0
M  V30 7542 O 729.542 1.097 1.62304 0
M  V30 7543 H 728.122 0.715687 -0.214012 0
M  V30 7544 H 730.784 1.53902 -1.19584 0
M  V30 7545 H 729.88 3.01565 -0.804059 0
M  V30 7546 N 730.181 0.707592 1.40822 0
M  V30 7547 C 731.128 0.0499029 2.30746 0
M  V30 7548 C 732.098 -0.758718 1.47759 0
M  V30 7549 O 733.283 -0.724299 1.76518 0
M  V30 7550 C 730.423 -0.871756 3.33908 0
M  V30 7551 C 729.536 -0.0534655 4.31967 0
M  V30 7552 C 728.671 -0.973869 5.22197 0
M  V30 7553 C 727.71 -0.149194 6.11918 0
M  V30 7554 N 726.847 -1.02404 6.94592 0
M  V30 7555 H 731.687 0.822461 2.86426 0
M  V30 7556 H 729.224 0.417285 1.41057 0
M  V30 7557 H 731.182 -1.42028 3.9228 0
M  V30 7558 H 729.812 -1.61058 2.7975 0
M  V30 7559 H 728.864 0.612142 3.75442 0
M  V30 7560 H 730.176 0.585354 4.95353 0
M  V30 7561 H 729.33 -1.59121 5.85462 0
M  V30 7562 H 728.069 -1.64652 4.59065 0
M  V30 7563 H 727.074 0.481137 5.47691 0
M  V30 7564 H 728.299 0.519841 6.77107 0
M  V30 7565 H 726.245 -1.6825 6.34057 0
M  V30 7566 H 726.162 -0.441076 7.54712 0
M  V30 7567 H 727.43 -1.62782 7.62314 0
M  V30 7568 N 731.66 -1.50943 0.453197 0
M  V30 7569 C 732.908 -2.01813 -0.107709 0
M  V30 7570 C 733.229 -1.33841 -1.41816 0
M  V30 7571 O 732.499 -0.477973 -1.8998 0
M  V30 7572 H 731.079 -0.745773 -0.0427948 0
M  V30 7573 H 733.741 -1.8545 0.599531 0
M  V30 7574 H 732.837 -3.10911 -0.27218 0
M  V30 7575 N 733.138 -0.185124 -1.56509 0
M  V30 7576 C 734.385 0.456258 -1.97293 0
M  V30 7577 C 734.713 1.62314 -1.07165 0
M  V30 7578 O 733.968 1.95398 -0.108621 0
M  V30 7579 C 734.267 0.967977 -3.44042 0
M  V30 7580 C 733.933 -0.084476 -4.50821 0
M  V30 7581 C 732.595 -0.373689 -4.79747 0
M  V30 7582 C 734.947 -0.79812 -5.15053 0
M  V30 7583 C 732.275 -1.3817 -5.70198 0
M  V30 7584 C 734.627 -1.79521 -6.06593 0
M  V30 7585 C 733.291 -2.09172 -6.3388 0
M  V30 7586 H 732.561 0.166957 -0.721946 0
M  V30 7587 H 735.208 -0.279992 -1.89442 0
M  V30 7588 H 733.513 1.78231 -3.48914 0
M  V30 7589 H 735.21 1.47347 -3.72948 0
M  V30 7590 H 731.8 0.15111 -4.28334 0
M  V30 7591 H 735.984 -0.587903 -4.92806 0
M  V30 7592 H 731.24 -1.61745 -5.89617 0
M  V30 7593 H 735.414 -2.35347 -6.55427 0
M  V30 7594 H 733.041 -2.87427 -7.03768 0
M  V30 7595 N 734.616 1.57351 0.0885366 0
M  V30 7596 C 735.579 2.01557 1.09121 0
M  V30 7597 C 736.579 0.910052 1.3257 0
M  V30 7598 O 737.769 1.17537 1.28572 0
M  V30 7599 C 734.901 2.38189 2.43883 0
M  V30 7600 H 736.094 2.91361 0.710562 0
M  V30 7601 H 733.647 1.52694 0.333779 0
M  V30 7602 H 734.382 1.5136 2.86811 0
M  V30 7603 H 734.167 3.18846 2.28209 0
M  V30 7604 H 735.657 2.73025 3.15986 0
M  V30 7605 N 736.094 -0.359525 1.53444 0
M  V30 7606 C 737.343 -1.09886 1.69139 0
M  V30 7607 C 737.656 -1.90285 0.452863 0
M  V30 7608 O 738.862 -2.67033 0.490459 0
M  V30 7609 C 737.318 -2.0028 2.99025 0
M  V30 7610 C 736.926 -1.25164 4.30161 0
M  V30 7611 C 738.67 -2.74168 3.24086 0
M  V30 7612 C 736.577 -2.14494 5.51132 0
M  V30 7613 H 735.507 -0.413936 0.630217 0
M  V30 7614 H 738.158 -0.359434 1.79945 0
M  V30 7615 H 736.54 -2.77978 2.82036 0
M  V30 7616 H 737.714 -0.524867 4.57801 0
M  V30 7617 H 736.029 -0.631116 4.11589 0
M  V30 7618 H 738.626 -3.41243 4.11652 0
M  V30 7619 H 738.969 -3.39868 2.40407 0
M  V30 7620 H 739.502 -2.0355 3.41778 0
M  V30 7621 H 736.241 -1.53362 6.37307 0
M  V30 7622 H 735.761 -2.85004 5.27762 0
M  V30 7623 H 737.44 -2.73914 5.86157 0
M  V30 7624 N 737.572 -1.44907 -0.619662 0
M  V30 7625 C 738.82 -1.47999 -1.37625 0
M  V30 7626 C 739.141 -0.118295 -1.94641 0
M  V30 7627 O 738.411 0.85086 -1.76457 0
M  V30 7628 H 736.991 -0.544993 -0.510873 0
M  V30 7629 H 739.653 -1.80772 -0.728522 0
M  V30 7630 H 738.749 -2.21196 -2.20179 0
M  V30 7631 N 739.05 0.861098 -1.31996 0
M  V30 7632 C 740.275 1.65264 -1.2531 0
M  V30 7633 C 740.7 1.87265 0.177007 0
M  V30 7634 O 740.058 1.4208 1.12619 0
M  V30 7635 C 740.106 2.99284 -2.0115 0
M  V30 7636 O 739.21 3.89508 -1.3549 0
M  V30 7637 H 738.551 0.50409 -0.432192 0
M  V30 7638 H 741.081 1.07297 -1.74208 0
M  V30 7639 H 741.091 3.49154 -2.11081 0
M  V30 7640 H 739.766 2.82591 -3.05148 0
M  V30 7641 H 738.343 3.47966 -1.34066 0
M  V30 7642 N 740.528 1.15101 1.07655 0
M  V30 7643 C 741.491 0.847625 2.12951 0
M  V30 7644 C 742.491 -0.151227 1.60087 0
M  V30 7645 O 743.681 0.0780399 1.74025 0
M  V30 7646 C 740.813 0.265 3.39868 0
M  V30 7647 H 742.006 1.7809 2.41296 0
M  V30 7648 H 739.559 0.958072 1.23494 0
M  V30 7649 H 740.294 -0.676625 3.17163 0
M  V30 7650 H 740.079 0.984554 3.79538 0
M  V30 7651 H 741.569 0.0702121 4.17541 0
M  V30 7652 N 742.006 -1.2595 0.947325 0
M  V30 7653 C 742.969 -2.24407 0.466285 0
M  V30 7654 C 743.969 -1.55054 -0.426005 0
M  V30 7655 O 745.159 -1.7275 -0.224319 0
M  V30 7656 C 742.291 -3.39326 -0.327201 0
M  V30 7657 H 743.484 -2.68477 1.33642 0
M  V30 7658 H 741.037 -1.38211 0.729887 0
M  V30 7659 H 741.772 -3.00667 -1.21532 0
M  V30 7660 H 741.557 -3.9085 0.312839 0
M  V30 7661 H 743.047 -4.12455 -0.653477 0
M  V30 7662 N 743.484 -0.715051 -1.40445 0
M  V30 7663 C 744.414 -0.0768699 -2.33373 0
M  V30 7664 C 745.395 0.746109 -1.52863 0
M  V30 7665 O 746.58 0.695142 -1.81332 0
M  V30 7666 C 743.71 0.846014 -3.36838 0
M  V30 7667 C 742.664 0.128694 -4.27806 0
M  V30 7668 C 741.99 1.16726 -5.21804 0
M  V30 7669 C 743.29 -1.01679 -5.12307 0
M  V30 7670 H 744.984 -0.853061 -2.8699 0
M  V30 7671 H 742.53 -0.41167 -1.3799 0
M  V30 7672 H 744.483 1.30185 -4.00786 0
M  V30 7673 H 743.207 1.6541 -2.81615 0
M  V30 7674 H 741.866 -0.307314 -3.6531 0
M  V30 7675 H 741.514 1.96838 -4.62887 0
M  V30 7676 H 741.214 0.692188 -5.83509 0
M  V30 7677 H 742.738 1.62321 -5.88629 0
M  V30 7678 H 744.152 -0.640337 -5.69713 0
M  V30 7679 H 742.549 -1.4202 -5.83053 0
M  V30 7680 H 743.619 -1.84769 -4.48317 0
M  V30 7681 N 744.962 1.50701 -0.461195 0
M  V30 7682 C 746.208 2.02566 0.0973411 0
M  V30 7683 C 746.541 1.3432 1.40257 0
M  V30 7684 O 745.816 0.465692 1.88843 0
M  V30 7685 C 746.099 3.58919 0.291423 0
M  V30 7686 C 745.952 4.37751 -1.03413 0
M  V30 7687 C 747.271 4.27379 1.05048 0
M  V30 7688 H 744.39 0.73622 0.0339026 0
M  V30 7689 H 747.032 1.80115 -0.604855 0
M  V30 7690 H 745.182 3.78179 0.889539 0
M  V30 7691 H 746.854 4.30085 -1.66806 0
M  V30 7692 H 745.097 4.01885 -1.63313 0
M  V30 7693 H 745.768 5.45384 -0.852085 0
M  V30 7694 H 748.244 4.12534 0.543603 0
M  V30 7695 H 747.12 5.36609 1.15506 0
M  V30 7696 H 747.381 3.89868 2.0846 0
M  V30 7697 N 746.441 0.193421 1.56409 0
M  V30 7698 C 747.404 -0.714371 2.17783 0
M  V30 7699 C 748.404 -1.1422 1.13183 0
M  V30 7700 O 749.594 -1.05557 1.38576 0
M  V30 7701 C 746.726 -1.97509 2.77855 0
M  V30 7702 H 747.919 -0.179714 2.99361 0
M  V30 7703 H 745.472 -0.0561944 1.56199 0
M  V30 7704 H 746.207 -2.5523 2.0007 0
M  V30 7705 H 745.992 -1.67706 3.54425 0
M  V30 7706 H 747.482 -2.62246 3.24987 0
M  V30 7707 N 747.919 -1.57396 -0.0801906 0
M  V30 7708 C 749.166 -1.86836 -0.780927 0
M  V30 7709 C 749.494 -0.784012 -1.77999 0
M  V30 7710 O 748.749 0.220881 -1.94449 0
M  V30 7711 C 749.048 -3.22915 -1.53169 0
M  V30 7712 C 748.714 -4.45843 -0.67339 0
M  V30 7713 C 747.376 -4.79213 -0.436829 0
M  V30 7714 C 749.728 -5.21142 -0.0776786 0
M  V30 7715 C 747.056 -5.853 0.405062 0
M  V30 7716 C 749.408 -6.28119 0.751619 0
M  V30 7717 C 748.072 -6.59995 0.998131 0
M  V30 7718 H 747.342 -0.683682 -0.285761 0
M  V30 7719 H 749.989 -1.91454 -0.0419435 0
M  V30 7720 H 748.294 -3.14049 -2.34265 0
M  V30 7721 H 749.991 -3.42926 -2.07853 0
M  V30 7722 H 746.581 -4.19721 -0.867891 0
M  V30 7723 H 750.765 -4.95682 -0.247572 0
M  V30 7724 H 746.021 -6.084 0.60488 0
M  V30 7725 H 750.195 -6.8563 1.22 0
M  V30 7726 H 747.822 -7.42027 1.65227 0
M  V30 7727 N 749.397 0.351382 -1.53633 0
M  V30 7728 C 750.36 1.41403 -1.80383 0
M  V30 7729 C 751.36 1.45963 -0.674635 0
M  V30 7730 O 752.55 1.46476 -0.942895 0
M  V30 7731 C 749.682 2.80401 -1.93876 0
M  V30 7732 H 750.875 1.18951 -2.75301 0
M  V30 7733 H 748.428 0.58533 -1.44926 0
M  V30 7734 H 749.163 3.08147 -1.01074 0
M  V30 7735 H 748.948 2.78488 -2.7602 0
M  V30 7736 H 750.438 3.57329 -2.16116 0
M  V30 7737 N 750.875 1.45233 0.611969 0
M  V30 7738 C 751.805 1.5641 1.73373 0
M  V30 7739 C 752.786 0.415896 1.64937 0
M  V30 7740 O 753.971 0.638478 1.83404 0
M  V30 7741 C 751.101 1.52627 3.11965 0
M  V30 7742 C 750.055 2.66119 3.35208 0
M  V30 7743 C 749.381 2.4739 4.74028 0
M  V30 7744 C 750.681 4.08157 3.25891 0
M  V30 7745 H 752.375 2.50307 1.64277 0
M  V30 7746 H 749.921 1.20467 0.788904 0
M  V30 7747 H 751.874 1.59043 3.90235 0
M  V30 7748 H 750.598 0.552564 3.21892 0
M  V30 7749 H 749.257 2.59123 2.59327 0
M  V30 7750 H 748.905 1.48168 4.80682 0
M  V30 7751 H 748.605 3.23494 4.90536 0
M  V30 7752 H 750.129 2.55653 5.54503 0
M  V30 7753 H 751.543 4.1642 3.9404 0
M  V30 7754 H 749.94 4.84617 3.5393 0
M  V30 7755 H 751.01 4.30374 2.23397 0
M  V30 7756 N 752.353 -0.854086 1.3245 0
M  V30 7757 C 753.6 -1.60831 1.23043 0
M  V30 7758 C 753.928 -1.93389 -0.2076 0
M  V30 7759 O 753.183 -1.5756 -1.16075 0
M  V30 7760 C 753.482 -2.93746 2.03587 0
M  V30 7761 C 753.148 -2.80615 3.52939 0
M  V30 7762 C 751.81 -2.76742 3.93659 0
M  V30 7763 C 754.162 -2.66507 4.4791 0
M  V30 7764 C 751.49 -2.56638 5.27592 0
M  V30 7765 C 753.842 -2.47939 5.81987 0
M  V30 7766 C 752.506 -2.42458 6.21909 0
M  V30 7767 H 751.776 -0.588523 0.450247 0
M  V30 7768 H 754.423 -0.990699 1.63882 0
M  V30 7769 H 752.728 -3.5963 1.55478 0
M  V30 7770 H 754.425 -3.51127 1.93677 0
M  V30 7771 H 751.015 -2.84456 3.20598 0
M  V30 7772 H 755.199 -2.68544 4.1737 0
M  V30 7773 H 750.455 -2.50831 5.57579 0
M  V30 7774 H 754.629 -2.36002 6.55192 0
M  V30 7775 H 752.256 -2.2664 7.2563 0
M  V30 7776 N 753.831 -1.1567 -1.07043 0
M  V30 7777 C 755.079 -0.931673 -1.79344 0
M  V30 7778 C 755.4 0.542421 -1.87304 0
M  V30 7779 O 754.67 1.39418 -1.37621 0
M  V30 7780 H 753.25 -0.34171 -0.664262 0
M  V30 7781 H 755.912 -1.45795 -1.29344 0
M  V30 7782 H 755.008 -1.34379 -2.81689 0
M  V30 7783 N 755.309 1.25446 -0.953992 0
M  V30 7784 C 756.272 2.24156 -0.478179 0
M  V30 7785 C 757.272 1.55278 0.417776 0
M  V30 7786 O 758.462 1.72866 0.215155 0
M  V30 7787 C 755.594 3.39495 0.309202 0
M  V30 7788 H 756.787 2.67764 -1.35064 0
M  V30 7789 H 754.34 1.37822 -0.737206 0
M  V30 7790 H 755.075 3.01307 1.19936 0
M  V30 7791 H 754.86 3.90679 -0.333562 0
M  V30 7792 H 756.35 4.12796 0.631594 0
M  V30 7793 N 756.787 0.722489 1.40064 0
M  V30 7794 C 758.017 0.274439 2.04769 0
M  V30 7795 C 758.425 -1.09125 1.54559 0
M  V30 7796 O 757.768 -1.69834 0.700149 0
M  V30 7797 C 757.83 0.184091 3.59028 0
M  V30 7798 C 757.494 1.48619 4.32159 0
M  V30 7799 C 758.491 2.42947 4.59644 0
M  V30 7800 C 756.176 1.74703 4.7094 0
M  V30 7801 C 758.17 3.616 5.24904 0
M  V30 7802 C 755.857 2.93636 5.3593 0
M  V30 7803 C 756.855 3.86907 5.62843 0
M  V30 7804 O 756.543 5.03753 6.26489 0
M  V30 7805 H 756.275 0.119847 0.665292 0
M  V30 7806 H 758.829 0.983352 1.80331 0
M  V30 7807 H 757.059 -0.580821 3.82313 0
M  V30 7808 H 758.748 -0.230306 4.05246 0
M  V30 7809 H 759.514 2.24062 4.30141 0
M  V30 7810 H 755.393 1.02955 4.49356 0
M  V30 7811 H 758.937 4.34418 5.45827 0
M  V30 7812 H 754.834 3.12428 5.64853 0
M  V30 7813 H 755.602 5.03922 6.44984 0
M  V30 7814 N 758.265 -1.50454 0.469181 0
M  V30 7815 C 759.228 -2.2703 -0.314643 0
M  V30 7816 C 760.228 -1.31734 -0.922111 0
M  V30 7817 O 761.418 -1.55176 -0.791588 0
M  V30 7818 C 758.55 -3.08616 -1.44806 0
M  V30 7819 H 759.743 -2.97769 0.356892 0
M  V30 7820 H 757.296 -1.54698 0.223191 0
M  V30 7821 H 758.031 -2.42369 -2.1547 0
M  V30 7822 H 757.816 -3.78647 -1.01829 0
M  V30 7823 H 759.306 -3.66536 -2.00103 0
M  V30 7824 N 759.743 -0.201713 -1.56304 0
M  V30 7825 C 760.968 0.443815 -2.02596 0
M  V30 7826 C 761.393 1.53945 -1.08086 0
M  V30 7827 O 760.751 1.81182 -0.0655056 0
M  V30 7828 C 760.799 0.971066 -3.47279 0
M  V30 7829 O 759.903 2.0836 -3.55893 0
M  V30 7830 H 759.244 0.10294 -0.655972 0
M  V30 7831 H 761.774 -0.314533 -2.02168 0
M  V30 7832 H 761.784 1.28598 -3.87204 0
M  V30 7833 H 760.459 0.169048 -4.15556 0
M  V30 7834 H 759.036 1.77683 -3.27846 0
M  V30 7835 N 761.222 1.57436 0.0718424 0
M  V30 7836 C 762.447 1.91858 0.787745 0
M  V30 7837 C 762.872 0.798119 1.70328 0
M  V30 7838 O 762.23 -0.24905 1.79581 0
M  V30 7839 C 762.278 3.25232 1.55744 0
M  V30 7840 O 761.382 3.14462 2.6681 0
M  V30 7841 H 760.723 0.628258 0.214914 0
M  V30 7842 H 763.253 2.04561 0.0401012 0
M  V30 7843 H 763.263 3.59105 1.9367 0
M  V30 7844 H 761.938 4.0636 0.885691 0
M  V30 7845 H 760.515 2.92148 2.31741 0
M  V30 7846 N 762.7 -0.34323 1.53817 0
M  V30 7847 C 763.663 -1.40444 1.8113 0
M  V30 7848 C 764.663 -1.45604 0.682366 0
M  V30 7849 O 765.853 -1.45974 0.950649 0
M  V30 7850 C 762.985 -2.79369 1.95361 0
M  V30 7851 H 764.178 -1.17489 2.75928 0
M  V30 7852 H 761.731 -0.577636 1.45234 0
M  V30 7853 H 762.466 -3.07607 1.02707 0
M  V30 7854 H 762.251 -2.7702 2.77493 0
M  V30 7855 H 763.741 -3.56178 2.18008 0
M  V30 7856 N 764.178 -1.45556 -0.604258 0
M  V30 7857 C 765.126 -1.5482 -1.7359 0
M  V30 7858 C 766.12 -0.417966 -1.64163 0
M  V30 7859 O 767.326 -0.594007 -1.69916 0
M  V30 7860 H 763.701 -0.486352 -0.573556 0
M  V30 7861 H 765.672 -2.5001 -1.62903 0
M  V30 7862 C 764.421 -1.53521 -3.11972 0
M  V30 7863 H 763.744 -2.39818 -3.19886 0
M  V30 7864 H 765.184 -1.64061 -3.90973 0
M  V30 7865 C 763.643 -0.260191 -3.35894 0
M  V30 7866 O 764.173 0.658582 -3.96265 0
M  V30 7867 N 762.379 -0.154839 -2.90187 0
M  V30 7868 H 761.926 -0.903378 -2.4124 0
M  V30 7869 H 761.884 0.697437 -3.06567 0
M  V30 7870 N 765.656 0.84705 -1.32902 0
M  V30 7871 C 766.586 1.97166 -1.25091 0
M  V30 7872 C 767.567 1.69578 -0.133161 0
M  V30 7873 O 768.752 1.91519 -0.321591 0
M  V30 7874 C 765.882 3.33157 -0.981006 0
M  V30 7875 C 764.836 3.75119 -2.06082 0
M  V30 7876 C 764.162 5.08826 -1.64318 0
M  V30 7877 C 765.462 3.89774 -3.47669 0
M  V30 7878 H 767.156 2.03958 -2.19184 0
M  V30 7879 H 764.702 0.979907 -1.05517 0
M  V30 7880 H 766.655 4.11393 -0.912891 0
M  V30 7881 H 765.379 3.266 -0.00445559 0
M  V30 7882 H 764.038 2.9914 -2.11921 0
M  V30 7883 H 763.686 4.98732 -0.653876 0
M  V30 7884 H 763.386 5.37873 -2.36572 0
M  V30 7885 H 764.91 5.89546 -1.58958 0
M  V30 7886 H 766.324 4.58343 -3.44376 0
M  V30 7887 H 764.721 4.30248 -4.18338 0
M  V30 7888 H 765.791 2.92463 -3.86773 0
M  V30 7889 N 767.134 1.16236 1.06428 0
M  V30 7890 C 768.55 0.906983 1.31324 0
M  V30 7891 C 768.75 -0.440872 1.96618 0
M  V30 7892 O 767.806 -1.1807 2.23194 0
M  V30 7893 C 769.119 2.05501 2.19522 0
M  V30 7894 C 770.667 2.09061 2.32943 0
M  V30 7895 C 771.142 3.23214 3.24495 0
M  V30 7896 N 772.633 3.22922 3.32078 0
M  V30 7897 C 773.368 4.07889 4.03006 0
M  V30 7898 N 772.864 5.02941 4.76469 0
M  V30 7899 N 774.657 3.95881 3.99043 0
M  V30 7900 H 766.808 2.03015 0.624388 0
M  V30 7901 H 769.071 0.88576 0.337835 0
M  V30 7902 H 768.777 3.02847 1.78819 0
M  V30 7903 H 768.651 1.99538 3.201 0
M  V30 7904 H 771.038 1.12308 2.72893 0
M  V30 7905 H 771.119 2.19089 1.32037 0
M  V30 7906 H 770.763 4.20225 2.85261 0
M  V30 7907 H 770.693 3.10423 4.25377 0
M  V30 7908 H 773.184 2.54093 2.79724 0
M  V30 7909 H 773.497 5.64196 5.28112 0
M  V30 7910 H 771.842 5.06922 4.75453 0
M  V30 7911 H 775.033 3.20927 3.40769 0
M  V30 7912 H 775.206 4.62321 4.54052 0
M  V30 7913 N 768.612 -1.24939 0.960631 0
M  V30 7914 C 769.562 -2.23388 0.456266 0
M  V30 7915 C 770.546 -1.54249 -0.45782 0
M  V30 7916 O 771.738 -1.7461 -0.289894 0
M  V30 7917 C 768.867 -3.42321 -0.259024 0
M  V30 7918 C 767.953 -4.18718 0.673478 0
M  V30 7919 N 768.344 -4.72394 1.8077 0
M  V30 7920 C 766.642 -4.43378 0.482859 0
M  V30 7921 C 767.343 -5.30316 2.3904 0
M  V30 7922 N 766.319 -5.17109 1.67629 0
M  V30 7923 H 770.121 -2.62499 1.32179 0
M  V30 7924 H 767.635 -1.40245 0.818851 0
M  V30 7925 H 769.632 -4.11997 -0.637527 0
M  V30 7926 H 768.292 -3.04732 -1.12108 0
M  V30 7927 H 769.303 -4.69345 2.18942 0
M  V30 7928 H 765.98 -4.16147 -0.335821 0
M  V30 7929 H 767.37 -5.82594 3.34715 0
M  V30 7930 N 770.09 -0.729906 -1.39679 0
M  V30 7931 C 771.336 -0.27603 -2.00913 0
M  V30 7932 C 771.669 1.13227 -1.57776 0
M  V30 7933 O 770.944 1.7709 -0.804319 0
M  V30 7934 C 771.227 -0.372157 -3.58172 0
M  V30 7935 C 771.08 -1.81986 -4.11341 0
M  V30 7936 C 772.399 0.248378 -4.39399 0
M  V30 7937 H 769.518 -0.101773 -0.729939 0
M  V30 7938 H 772.16 -0.925104 -1.65957 0
M  V30 7939 H 770.31 0.180459 -3.88081 0
M  V30 7940 H 771.982 -2.42896 -3.92172 0
M  V30 7941 H 770.225 -2.34287 -3.65092 0
M  V30 7942 H 770.896 -1.83842 -5.20486 0
M  V30 7943 H 773.372 -0.222645 -4.15504 0
M  V30 7944 H 772.248 0.150746 -5.48693 0
M  V30 7945 H 772.509 1.33378 -4.21501 0
M  V30 7946 N 771.568 1.50203 -0.477153 0
M  V30 7947 C 772.516 2.30278 0.327826 0
M  V30 7948 C 773.51 1.37831 0.984839 0
M  V30 7949 O 774.716 1.54994 0.915251 0
M  V30 7950 H 771.091 0.741612 0.124564 0
M  V30 7951 H 773.062 2.96124 -0.367853 0
M  V30 7952 C 771.811 3.18548 1.39365 0
M  V30 7953 H 771.134 3.89596 0.897475 0
M  V30 7954 H 772.574 3.77561 1.92934 0
M  V30 7955 C 771.033 2.36548 2.39889 0
M  V30 7956 O 771.563 2.05282 3.45286 0
M  V30 7957 N 769.769 1.99015 2.11758 0
M  V30 7958 H 769.316 2.24641 1.26071 0
M  V30 7959 H 769.274 1.44454 2.7925 0
M  V30 7960 N 773.046 0.209999 1.56195 0
M  V30 7961 C 774.295 -0.425106 1.97169 0
M  V30 7962 C 774.608 -1.61718 1.10031 0
M  V30 7963 O 775.814 -2.32105 1.40853 0
M  V30 7964 C 774.27 -0.80771 3.50719 0
M  V30 7965 C 773.878 0.360902 4.46544 0
M  V30 7966 C 775.622 -1.40906 4.00432 0
M  V30 7967 C 773.529 -0.0434919 5.91384 0
M  V30 7968 H 772.459 -0.162598 0.736259 0
M  V30 7969 H 775.11 0.304382 1.80958 0
M  V30 7970 H 773.492 -1.59429 3.62489 0
M  V30 7971 H 774.666 1.13846 4.46515 0
M  V30 7972 H 772.981 0.874729 4.07109 0
M  V30 7973 H 775.578 -1.72433 5.06133 0
M  V30 7974 H 775.921 -2.32081 3.45607 0
M  V30 7975 H 776.454 -0.686154 3.91838 0
M  V30 7976 H 773.193 0.834448 6.50167 0
M  V30 7977 H 772.713 -0.785598 5.94633 0
M  V30 7978 H 774.392 -0.474176 6.4526 0
M  V30 7979 N 774.524 -1.57472 -0.0634922 0
M  V30 7980 C 775.454 -2.07297 -1.07473 0
M  V30 7981 C 776.435 -0.968162 -1.39859 0
M  V30 7982 O 777.62 -1.24139 -1.49343 0
M  V30 7983 C 774.75 -2.52381 -2.38581 0
M  V30 7984 C 773.704 -3.66813 -2.20526 0
M  V30 7985 C 773.03 -3.97982 -3.57092 0
M  V30 7986 C 774.33 -4.96553 -1.61965 0
M  V30 7987 H 776.024 -2.92033 -0.660092 0
M  V30 7988 H 773.57 -1.40488 -0.316074 0
M  V30 7989 H 775.523 -2.85852 -3.09624 0
M  V30 7990 H 774.247 -1.64684 -2.8204 0
M  V30 7991 H 772.906 -3.33639 -1.51924 0
M  V30 7992 H 772.554 -3.07403 -3.98136 0
M  V30 7993 H 772.254 -4.7504 -3.45848 0
M  V30 7994 H 773.778 -4.33956 -4.29552 0
M  V30 7995 H 775.192 -5.28201 -2.22883 0
M  V30 7996 H 773.589 -5.7799 -1.61394 0
M  V30 7997 H 774.659 -4.81396 -0.581918 0
M  V30 7998 N 776.003 0.335068 -1.53997 0
M  V30 7999 C 776.951 1.43206 -1.83289 0
M  V30 8000 C 777.945 1.54081 -0.703953 0
M  V30 8001 O 779.151 1.56603 -0.887432 0
M  V30 8002 H 775.526 0.477655 -0.580818 0
M  V30 8003 H 777.497 1.15719 -2.75049 0
M  V30 8004 C 776.246 2.79602 -2.06683 0
M  V30 8005 H 775.569 2.72004 -2.93008 0
M  V30 8006 H 777.009 3.55459 -2.31139 0
M  V30 8007 C 775.468 3.25873 -0.854883 0
M  V30 8008 O 775.998 4.01657 -0.0584648 0
M  V30 8009 N 774.204 2.82777 -0.669729 0
M  V30 8010 H 773.751 2.21269 -1.31901 0
M  V30 8011 H 773.709 3.1409 0.13969 0
M  V30 8012 N 777.481 1.45874 0.596531 0
M  V30 8013 C 778.706 1.54247 1.38646 0
M  V30 8014 C 779.131 0.179571 1.87241 0
M  V30 8015 O 778.489 -0.837831 1.6078 0
M  V30 8016 C 778.537 2.54015 2.55946 0
M  V30 8017 O 777.641 2.06561 3.5694 0
M  V30 8018 H 776.982 0.519555 0.413471 0
M  V30 8019 H 779.512 1.91327 0.724936 0
M  V30 8020 H 779.522 2.73179 3.03047 0
M  V30 8021 H 778.197 3.52994 2.19928 0
M  V30 8022 H 776.774 1.97324 3.16414 0
M  V30 8023 N 778.959 -0.83999 1.33349 0
M  V30 8024 C 780.205 -1.59724 1.25936 0
M  V30 8025 C 780.56 -1.91616 -0.173563 0
M  V30 8026 O 779.853 -1.55791 -1.11534 0
M  V30 8027 C 780.047 -2.91571 2.06691 0
M  V30 8028 C 779.876 -2.72556 3.57691 0
M  V30 8029 C 778.646 -2.70174 4.27006 0
M  V30 8030 C 780.844 -2.45272 4.52047 0
M  V30 8031 N 778.826 -2.42525 5.63964 0
M  V30 8032 C 780.197 -2.27163 5.76885 0
M  V30 8033 C 782.252 -2.30859 4.41144 0
M  V30 8034 C 780.955 -1.96105 6.92052 0
M  V30 8035 C 782.981 -2.01194 5.56125 0
M  V30 8036 C 782.343 -1.83897 6.79972 0
M  V30 8037 H 778.442 -0.587568 0.516031 0
M  V30 8038 H 781.026 -0.986169 1.67877 0
M  V30 8039 H 779.197 -3.5063 1.67073 0
M  V30 8040 H 780.929 -3.56762 1.91057 0
M  V30 8041 H 777.684 -2.8364 3.7927 0
M  V30 8042 H 778.108 -2.31588 6.36157 0
M  V30 8043 H 782.75 -2.42946 3.46031 0
M  V30 8044 H 780.468 -1.82756 7.87163 0
M  V30 8045 H 784.054 -1.90799 5.49624 0
M  V30 8046 H 782.934 -1.61271 7.67438 0
M  V30 8047 N 780.437 -1.16799 -1.0581 0
M  V30 8048 C 781.683 -0.953935 -1.78963 0
M  V30 8049 C 782.016 0.516638 -1.87202 0
M  V30 8050 O 781.291 1.38338 -1.36721 0
M  V30 8051 C 781.574 -1.58808 -3.23191 0
M  V30 8052 C 781.427 -3.13032 -3.23003 0
M  V30 8053 C 782.746 -1.2868 -4.20867 0
M  V30 8054 H 779.865 -0.347972 -0.64968 0
M  V30 8055 H 782.507 -1.44204 -1.23715 0
M  V30 8056 H 780.657 -1.17303 -3.70368 0
M  V30 8057 H 782.329 -3.63553 -2.83949 0
M  V30 8058 H 780.572 -3.46108 -2.61518 0
M  V30 8059 H 781.243 -3.52527 -4.24769 0
M  V30 8060 H 783.719 -1.6461 -3.82155 0
M  V30 8061 H 782.595 -1.75645 -5.20038 0
M  V30 8062 H 782.856 -0.206491 -4.41618 0
M  V30 8063 N 781.915 1.24427 -0.967243 0
M  V30 8064 C 783.164 1.91789 -0.624478 0
M  V30 8065 C 783.477 1.76448 0.844129 0
M  V30 8066 O 784.683 2.38495 1.2974 0
M  V30 8067 C 783.139 3.43743 -1.06626 0
M  V30 8068 C 782.747 3.67771 -2.55829 0
M  V30 8069 C 784.491 4.16958 -0.79662 0
M  V30 8070 C 782.398 5.13293 -2.93742 0
M  V30 8071 H 781.328 0.71811 -0.229856 0
M  V30 8072 H 783.979 1.41081 -1.17339 0
M  V30 8073 H 782.361 3.93484 -0.445663 0
M  V30 8074 H 783.535 3.28631 -3.23015 0
M  V30 8075 H 781.85 3.07841 -2.80398 0
M  V30 8076 H 784.447 5.24171 -1.05589 0
M  V30 8077 H 784.79 4.15442 0.267163 0
M  V30 8078 H 785.323 3.73164 -1.37816 0
M  V30 8079 H 782.062 5.19931 -3.9919 0
M  V30 8080 H 781.582 5.53433 -2.3124 0
M  V30 8081 H 783.261 5.81521 -2.83623 0
M  V30 8082 N 783.393 0.737304 1.3929 0
M  V30 8083 C 784.642 0.283129 1.99703 0
M  V30 8084 C 784.955 -1.13677 1.59176 0
M  V30 8085 O 786.161 -1.69058 2.12442 0
M  V30 8086 C 784.617 0.455262 3.57009 0
M  V30 8087 C 784.225 1.88319 4.06497 0
M  V30 8088 C 785.969 0.0629786 4.24453 0
M  V30 8089 C 783.876 2.00475 5.56385 0
M  V30 8090 H 782.806 0.102106 0.747054 0
M  V30 8091 H 785.457 0.911515 1.5926 0
M  V30 8092 H 783.839 -0.242057 3.9526 0
M  V30 8093 H 785.013 2.61265 3.79575 0
M  V30 8094 H 783.328 2.2289 3.51723 0
M  V30 8095 H 785.925 0.132787 5.34535 0
M  V30 8096 H 786.268 -0.982128 4.04549 0
M  V30 8097 H 786.801 0.71154 3.91385 0
M  V30 8098 H 783.54 3.03182 5.81172 0
M  V30 8099 H 783.06 1.31969 5.85102 0
M  V30 8100 H 784.739 1.787 6.21832 0
M  V30 8101 N 784.871 -1.49948 0.485112 0
M  V30 8102 C 786.119 -2.01996 -0.0648775 0
M  V30 8103 C 786.44 -1.36819 -1.38945 0
M  V30 8104 O 785.71 -0.518163 -1.88923 0
M  V30 8105 H 784.29 -0.746513 -0.0269662 0
M  V30 8106 H 786.952 -1.84136 0.638733 0
M  V30 8107 H 786.048 -3.11418 -0.20617 0
M  V30 8108 N 786.349 -0.21828 -1.56081 0
M  V30 8109 C 787.279 0.687922 -2.23136 0
M  V30 8110 C 788.26 1.20357 -1.202 0
M  V30 8111 O 789.445 1.24817 -1.48776 0
M  V30 8112 C 786.575 1.89762 -2.90874 0
M  V30 8113 C 785.529 1.51595 -4.00254 0
M  V30 8114 C 784.855 2.80415 -4.55271 0
M  V30 8115 C 786.155 0.708404 -5.17474 0
M  V30 8116 H 787.849 0.128854 -2.99123 0
M  V30 8117 H 785.395 0.0605354 -1.43873 0
M  V30 8118 H 787.348 2.53699 -3.36474 0
M  V30 8119 H 786.072 2.4816 -2.1233 0
M  V30 8120 H 784.731 0.900058 -3.55379 0
M  V30 8121 H 784.379 3.36951 -3.73461 0
M  V30 8122 H 784.079 2.55613 -5.2909 0
M  V30 8123 H 785.603 3.453 -5.03587 0
M  V30 8124 H 787.017 1.2514 -5.59476 0
M  V30 8125 H 785.414 0.557593 -5.97504 0
M  V30 8126 H 786.484 -0.285679 -4.84058 0
M  V30 8127 N 787.827 1.57504 0.0551401 0
M  V30 8128 C 788.757 2.07864 1.06372 0
M  V30 8129 C 789.738 0.975565 1.39344 0
M  V30 8130 O 790.923 1.24929 1.48682 0
M  V30 8131 C 788.053 2.53643 2.3724 0
M  V30 8132 C 787.007 3.67978 2.18578 0
M  V30 8133 C 786.333 3.9987 3.54976 0
M  V30 8134 C 787.633 4.97405 1.59329 0
M  V30 8135 H 789.327 2.92379 0.644595 0
M  V30 8136 H 786.873 1.40654 0.308619 0
M  V30 8137 H 788.826 2.8749 3.08103 0
M  V30 8138 H 787.55 1.66177 2.81163 0
M  V30 8139 H 786.209 3.3444 1.50152 0
M  V30 8140 H 785.857 3.0951 3.965 0
M  V30 8141 H 785.557 4.76867 3.43324 0
M  V30 8142 H 787.081 4.36228 4.27244 0
M  V30 8143 H 788.495 5.29375 2.20078 0
M  V30 8144 H 786.892 5.78837 1.58327 0
M  V30 8145 H 787.962 4.81697 0.55638 0
M  V30 8146 N 789.305 -0.326896 1.54172 0
M  V30 8147 C 790.554 -1.06274 1.71431 0
M  V30 8148 C 790.867 -1.89282 0.493123 0
M  V30 8149 O 792.073 -2.65933 0.54699 0
M  V30 8150 C 790.529 -1.93892 3.03206 0
M  V30 8151 C 790.137 -1.16011 4.32719 0
M  V30 8152 C 791.881 -2.67232 3.29829 0
M  V30 8153 C 789.788 -2.02755 5.55558 0
M  V30 8154 H 788.718 -0.400475 0.638855 0
M  V30 8155 H 791.369 -0.321184 1.80667 0
M  V30 8156 H 789.751 -2.71933 2.87869 0
M  V30 8157 H 790.925 -0.427643 4.58811 0
M  V30 8158 H 789.24 -0.54367 4.12836 0
M  V30 8159 H 791.837 -3.32434 4.18798 0
M  V30 8160 H 792.18 -3.34692 2.47562 0
M  V30 8161 H 792.713 -1.96255 3.46018 0
M  V30 8162 H 789.452 -1.3981 6.40417 0
M  V30 8163 H 788.972 -2.73745 5.33689 0
M  V30 8164 H 790.651 -2.61419 5.91835 0
M  V30 8165 N 790.784 -1.46188 -0.588786 0
M  V30 8166 C 792.032 -1.50885 -1.34455 0
M  V30 8167 C 792.353 -0.159555 -1.94346 0
M  V30 8168 O 791.623 0.813239 -1.78222 0
M  V30 8169 H 790.203 -0.555707 -0.499198 0
M  V30 8170 H 792.865 -1.82277 -0.690014 0
M  V30 8171 H 791.961 -2.25816 -2.15438 0
M  V30 8172 N 792.262 0.832906 -1.33792 0
M  V30 8173 C 793.225 1.92471 -1.24449 0
M  V30 8174 C 794.225 1.59981 -0.162085 0
M  V30 8175 O 795.415 1.69208 -0.414029 0
M  V30 8176 C 792.547 3.28278 -0.919044 0
M  V30 8177 H 793.74 2.0218 -2.21502 0
M  V30 8178 H 791.293 1.0257 -1.17936 0
M  V30 8179 H 792.028 3.24263 0.048738 0
M  V30 8180 H 791.813 3.53241 -1.70187 0
M  V30 8181 H 793.303 4.08253 -0.878576 0
M  V30 8182 N 793.74 1.17359 1.05189 0
M  V30 8183 C 794.673 0.833768 2.12423 0
M  V30 8184 C 795.651 -0.19945 1.61372 0
M  V30 8185 O 796.835 -0.080979 1.88326 0
M  V30 8186 C 793.962 0.243745 3.37822 0
M  V30 8187 C 793.008 1.25235 4.07699 0
M  V30 8188 S 793.841 2.80368 4.56239 0
M  V30 8189 C 794.997 2.22846 5.84885 0
M  V30 8190 H 795.23 1.74197 2.40921 0
M  V30 8191 H 792.763 0.998242 1.1779 0
M  V30 8192 H 794.721 -0.0901915 4.10401 0
M  V30 8193 H 793.382 -0.642396 3.07461 0
M  V30 8194 H 792.575 0.788168 4.97799 0
M  V30 8195 H 792.177 1.53194 3.41185 0
M  V30 8196 H 794.469 1.60403 6.58238 0
M  V30 8197 H 795.412 3.112 6.3605 0
M  V30 8198 H 795.82 1.66296 5.39449 0
M  V30 8199 N 795.218 -1.23913 0.973828 0
M  V30 8200 C 796.148 -2.27453 0.527969 0
M  V30 8201 C 797.129 -1.6443 -0.435513 0
M  V30 8202 O 798.314 -1.9137 -0.330306 0
M  V30 8203 C 795.444 -3.4685 -0.176757 0
M  V30 8204 C 794.398 -4.22181 0.703352 0
M  V30 8205 C 793.724 -5.34534 -0.133215 0
M  V30 8206 C 795.024 -4.82865 1.99096 0
M  V30 8207 H 796.718 -2.65 1.3934 0
M  V30 8208 H 794.264 -1.27388 0.671446 0
M  V30 8209 H 796.217 -4.18424 -0.499934 0
M  V30 8210 H 794.941 -3.08346 -1.07659 0
M  V30 8211 H 793.6 -3.52416 1.00989 0
M  V30 8212 H 793.248 -4.92271 -1.03338 0
M  V30 8213 H 792.948 -5.85855 0.452494 0
M  V30 8214 H 794.472 -6.08933 -0.450924 0
M  V30 8215 H 795.886 -5.46481 1.73297 0
M  V30 8216 H 794.283 -5.44444 2.52389 0
M  V30 8217 H 795.353 -4.03977 2.68199 0
M  V30 8218 N 796.696 -0.74468 -1.38897 0
M  V30 8219 C 798.107 -0.36568 -1.83084 0
M  V30 8220 C 798.458 1.10436 -1.62168 0
M  V30 8221 O 797.583 1.85281 -1.11804 0
M  V30 8222 C 798.178 -0.656946 -3.3237 0
M  V30 8223 C 796.737 -0.331329 -3.74939 0
M  V30 8224 C 795.884 -0.914661 -2.61781 0
M  V30 8225 H 798.835 -0.941551 -1.27752 0
M  V30 8226 H 798.856 0.0679546 -3.80439 0
M  V30 8227 H 798.368 -1.72693 -3.47561 0
M  V30 8228 H 796.469 0.732426 -3.6533 0
M  V30 8229 H 796.582 -0.820655 -4.72019 0
M  V30 8230 H 794.946 -0.34063 -2.52412 0
M  V30 8231 H 795.729 -1.98949 -2.79775 0
M  V30 8232 N 798.174 1.49689 -0.493057 0
M  V30 8233 C 799.404 2.06536 0.0512397 0
M  V30 8234 C 799.812 1.35459 1.32089 0
M  V30 8235 O 799.155 0.424145 1.78736 0
M  V30 8236 C 799.217 3.57452 0.383231 0
M  V30 8237 C 798.881 4.50163 -0.787555 0
M  V30 8238 C 799.878 4.92151 -1.67582 0
M  V30 8239 C 797.563 4.92565 -0.984109 0
M  V30 8240 C 799.557 5.7527 -2.74487 0
M  V30 8241 C 797.244 5.75463 -2.05634 0
M  V30 8242 C 798.242 6.16719 -2.93507 0
M  V30 8243 O 797.93 6.97961 -3.98881 0
M  V30 8244 H 797.662 0.675862 -0.0136516 0
M  V30 8245 H 800.216 1.9356 -0.687298 0
M  V30 8246 H 798.446 3.68408 1.17526 0
M  V30 8247 H 800.135 3.96572 0.8652 0
M  V30 8248 H 800.901 4.60043 -1.53575 0
M  V30 8249 H 796.78 4.5996 -0.309541 0
M  V30 8250 H 800.324 6.07392 -3.43104 0
M  V30 8251 H 796.221 6.06983 -2.19639 0
M  V30 8252 H 796.989 7.16253 -3.96137 0
M  V30 8253 N 799.652 0.226554 1.55963 0
M  V30 8254 C 800.582 -0.676079 2.23498 0
M  V30 8255 C 801.563 -1.19718 1.20837 0
M  V30 8256 O 802.748 -1.24027 1.49436 0
M  V30 8257 C 799.878 -1.88217 2.91876 0
M  V30 8258 C 798.832 -1.4947 4.01052 0
M  V30 8259 C 798.158 -2.77997 4.56751 0
M  V30 8260 C 799.458 -0.680951 5.17842 0
M  V30 8261 H 801.152 -0.112989 2.99187 0
M  V30 8262 H 798.698 -0.0529046 1.43903 0
M  V30 8263 H 800.651 -2.51911 3.37815 0
M  V30 8264 H 799.375 -2.47031 2.13643 0
M  V30 8265 H 798.034 -0.881199 3.55852 0
M  V30 8266 H 797.682 -3.34966 3.75243 0
M  V30 8267 H 797.382 -2.52803 5.30438 0
M  V30 8268 H 798.906 -3.42625 5.05411 0
M  V30 8269 H 800.32 -1.22171 5.60131 0
M  V30 8270 H 798.717 -0.525898 5.97791 0
M  V30 8271 H 799.787 0.311346 4.83899 0
M  V30 8272 N 801.13 -1.57531 -0.0467866 0
M  V30 8273 C 802.377 -1.88451 -0.74112 0
M  V30 8274 C 802.705 -0.821592 -1.76296 0
M  V30 8275 O 801.96 0.179585 -1.94874 0
M  V30 8276 C 802.259 -3.26091 -1.46285 0
M  V30 8277 C 801.925 -4.47171 -0.578669 0
M  V30 8278 C 800.587 -4.80032 -0.335083 0
M  V30 8279 C 802.939 -5.2119 0.0328809 0
M  V30 8280 C 800.267 -5.84309 0.529121 0
M  V30 8281 C 802.619 -6.26383 0.884684 0
M  V30 8282 C 801.283 -6.57729 1.1379 0
M  V30 8283 H 800.553 -0.68959 -0.271195 0
M  V30 8284 H 803.2 -1.915 -0.00132378 0
M  V30 8285 H 801.505 -3.18948 -2.27551 0
M  V30 8286 H 803.202 -3.47258 -2.00532 0
M  V30 8287 H 799.792 -4.21467 -0.778666 0
M  V30 8288 H 803.976 -4.96096 -0.142375 0
M  V30 8289 H 799.232 -6.06981 0.733794 0
M  V30 8290 H 803.406 -6.82888 1.36516 0
M  V30 8291 H 801.033 -7.38355 1.80929 0
M  V30 8292 N 802.608 0.318715 -1.54344 0
M  V30 8293 C 803.833 1.07987 -1.77069 0
M  V30 8294 C 804.258 1.80766 -0.520117 0
M  V30 8295 O 803.616 1.73424 0.528566 0
M  V30 8296 C 803.664 2.04987 -2.96669 0
M  V30 8297 O 802.768 3.12974 -2.68554 0
M  V30 8298 H 802.109 0.311109 -0.586606 0
M  V30 8299 H 804.639 0.361533 -2.0138 0
M  V30 8300 H 804.649 2.47771 -3.2415 0
M  V30 8301 H 803.324 1.51417 -3.87357 0
M  V30 8302 H 801.901 2.74831 -2.52037 0
M  V30 8303 N 804.086 1.46499 0.581025 0
M  V30 8304 C 805.049 1.5677 1.672 0
M  V30 8305 C 806.049 0.444716 1.54528 0
M  V30 8306 O 807.239 0.709074 1.59116 0
M  V30 8307 C 804.371 1.4896 3.06633 0
M  V30 8308 H 805.564 2.54 1.5945 0
M  V30 8309 H 803.117 1.34334 0.799003 0
M  V30 8310 H 803.852 0.530168 3.19937 0
M  V30 8311 H 803.637 2.30439 3.17239 0
M  V30 8312 H 805.127 1.59237 3.86048 0
M  V30 8313 N 805.565 -0.825799 1.34232 0
M  V30 8314 C 806.495 -1.95151 1.28212 0
M  V30 8315 C 807.476 -1.69345 0.160123 0
M  V30 8316 O 808.661 -1.90983 0.352019 0
M  V30 8317 C 805.791 -3.31554 1.03388 0
M  V30 8318 C 804.745 -3.71793 2.12023 0
M  V30 8319 C 804.071 -5.06147 1.72392 0
M  V30 8320 C 805.371 -3.84193 3.53826 0
M  V30 8321 H 807.065 -2.00445 2.22401 0
M  V30 8322 H 804.611 -0.962996 1.07063 0
M  V30 8323 H 806.564 -4.09889 0.978225 0
M  V30 8324 H 805.288 -3.26551 0.0564142 0
M  V30 8325 H 803.947 -2.95731 2.16654 0
M  V30 8326 H 803.595 -4.97628 0.733137 0
M  V30 8327 H 803.295 -5.34041 2.451 0
M  V30 8328 H 804.819 -5.86943 1.68317 0
M  V30 8329 H 806.233 -4.52806 3.51624 0
M  V30 8330 H 804.63 -4.23538 4.2513 0
M  V30 8331 H 805.7 -2.86272 3.91377 0
M  V30 8332 N 807.043 -1.17915 -1.04565 0
M  V30 8333 C 808.271 -0.99616 -1.8134 0
M  V30 8334 C 808.686 0.455509 -1.83223 0
M  V30 8335 O 808.043 1.31636 -1.26405 0
M  V30 8336 C 808.094 -1.53758 -3.27171 0
M  V30 8337 O 807.815 -2.93241 -3.25486 0
M  V30 8338 C 809.316 -1.40007 -4.2061 0
M  V30 8339 H 806.536 -0.352055 -0.571225 0
M  V30 8340 H 809.08 -1.56349 -1.31815 0
M  V30 8341 H 807.235 -1.01213 -3.73945 0
M  V30 8342 H 807.649 -3.18392 -4.16805 0
M  V30 8343 H 809.123 -1.82695 -5.2089 0
M  V30 8344 H 809.6 -0.348054 -4.37819 0
M  V30 8345 H 810.206 -1.916 -3.79697 0
M  V30 8346 N 808.521 1.23394 -0.980386 0
M  V30 8347 C 809.454 2.23404 -0.465404 0
M  V30 8348 C 810.432 1.55735 0.467471 0
M  V30 8349 O 811.616 1.84295 0.395921 0
M  V30 8350 C 808.743 3.3712 0.32672 0
M  V30 8351 C 807.789 4.22935 -0.550296 0
M  V30 8352 S 808.622 4.96824 -1.99814 0
M  V30 8353 C 809.778 6.13991 -1.21516 0
M  V30 8354 H 810.011 2.6674 -1.31289 0
M  V30 8355 H 807.544 1.32874 -0.78638 0
M  V30 8356 H 809.502 4.03065 0.777738 0
M  V30 8357 H 808.163 2.92317 1.14933 0
M  V30 8358 H 807.356 5.03966 0.0585298 0
M  V30 8359 H 806.958 3.62058 -0.937558 0
M  V30 8360 H 809.25 6.75822 -0.476476 0
M  V30 8361 H 810.193 6.7926 -2.0003 0
M  V30 8362 H 810.601 5.59708 -0.733949 0
M  V30 8363 N 809.999 0.752036 1.385 0
M  V30 8364 C 810.946 0.123288 2.3047 0
M  V30 8365 C 811.916 -0.711326 1.50098 0
M  V30 8366 O 813.101 -0.667775 1.78733 0
M  V30 8367 C 810.241 -0.765085 3.36512 0
M  V30 8368 C 809.354 0.0839885 4.31918 0
M  V30 8369 C 808.489 -0.807243 5.25031 0
M  V30 8370 C 807.528 0.0455583 6.12083 0
M  V30 8371 N 806.665 -0.802547 6.97498 0
M  V30 8372 H 811.505 0.913169 2.83664 0
M  V30 8373 H 809.042 0.46195 1.39658 0
M  V30 8374 H 811 -1.29476 3.966 0
M  V30 8375 H 809.63 -1.52077 2.84732 0
M  V30 8376 H 808.682 0.731276 3.73305 0
M  V30 8377 H 809.994 0.74265 4.9324 0
M  V30 8378 H 809.148 -1.40414 5.90228 0
M  V30 8379 H 807.887 -1.49964 4.64071 0
M  V30 8380 H 806.892 0.655137 5.45883 0
M  V30 8381 H 808.117 0.734994 6.75111 0
M  V30 8382 H 806.063 -1.47992 6.39089 0
M  V30 8383 H 805.98 -0.200747 7.55733 0
M  V30 8384 H 807.248 -1.38447 7.67107 0
M  V30 8385 N 811.477 -1.49425 0.500989 0
M  V30 8386 C 812.702 -2.07356 -0.0425154 0
M  V30 8387 C 813.127 -1.35887 -1.30063 0
M  V30 8388 O 812.485 -0.41561 -1.76472 0
M  V30 8389 C 812.533 -3.59518 -0.279188 0
M  V30 8390 O 811.637 -3.89542 -1.3539 0
M  V30 8391 H 810.978 -0.663482 0.0262207 0
M  V30 8392 H 813.508 -1.92231 0.700607 0
M  V30 8393 H 813.518 -4.04791 -0.5107 0
M  V30 8394 H 812.193 -4.10946 0.640009 0
M  V30 8395 H 810.77 -3.56079 -1.10734 0
M  V30 8396 N 812.955 -0.234822 -1.55841 0
M  V30 8397 C 814.201 0.393843 -1.98939 0
M  V30 8398 C 814.534 1.58466 -1.1226 0
M  V30 8399 O 813.809 1.93635 -0.183242 0
M  V30 8400 C 814.092 0.815492 -3.50745 0
M  V30 8401 C 813.945 -0.379878 -4.48193 0
M  V30 8402 C 815.264 1.66687 -4.07312 0
M  V30 8403 H 812.383 0.141681 -0.723253 0
M  V30 8404 H 815.025 -0.333716 -1.87046 0
M  V30 8405 H 813.175 1.43541 -3.6101 0
M  V30 8406 H 814.847 -1.0182 -4.49923 0
M  V30 8407 H 813.09 -1.02507 -4.21515 0
M  V30 8408 H 813.761 -0.0417069 -5.51984 0
M  V30 8409 H 816.237 1.14369 -4.00074 0
M  V30 8410 H 815.113 1.93078 -5.13821 0
M  V30 8411 H 815.374 2.63468 -3.55017 0
M  V30 8412 N 814.433 1.57553 0.0384317 0
M  V30 8413 C 815.396 2.04927 1.02653 0
M  V30 8414 C 816.396 0.951768 1.29607 0
M  V30 8415 O 817.586 1.21568 1.24768 0
M  V30 8416 C 814.718 2.45828 2.36181 0
M  V30 8417 H 815.911 2.93474 0.617508 0
M  V30 8418 H 813.464 1.53679 0.285031 0
M  V30 8419 H 814.199 1.60408 2.8185 0
M  V30 8420 H 813.984 3.25945 2.1795 0
M  V30 8421 H 815.474 2.82939 3.0714 0
M  V30 8422 N 815.911 -0.310526 1.54511 0
M  V30 8423 C 817.16 -1.0445 1.72549 0
M  V30 8424 C 817.473 -1.88748 0.513172 0
M  V30 8425 O 818.679 -2.65338 0.575165 0
M  V30 8426 C 817.135 -1.90665 3.05246 0
M  V30 8427 C 816.743 -1.11415 4.33925 0
M  V30 8428 C 818.487 -2.63719 3.32645 0
M  V30 8429 C 816.394 -1.96852 5.57677 0
M  V30 8430 H 815.324 -0.393676 0.643067 0
M  V30 8431 H 817.975 -0.302003 1.80998 0
M  V30 8432 H 816.357 -2.68864 2.90737 0
M  V30 8433 H 817.531 -0.378956 4.59239 0
M  V30 8434 H 815.846 -0.499853 4.13389 0
M  V30 8435 H 818.443 -3.27974 4.223 0
M  V30 8436 H 818.786 -3.32047 2.51098 0
M  V30 8437 H 819.319 -1.92574 3.48081 0
M  V30 8438 H 816.058 -1.33009 6.41864 0
M  V30 8439 H 815.578 -2.68069 5.36562 0
M  V30 8440 H 817.257 -2.55127 5.94575 0
M  V30 8441 N 817.389 -1.46805 -0.573248 0
M  V30 8442 C 818.352 -1.57655 -1.66366 0
M  V30 8443 C 819.352 -0.452905 -1.5429 0
M  V30 8444 O 820.542 -0.717502 -1.58737 0
M  V30 8445 C 817.674 -1.50584 -3.05839 0
M  V30 8446 H 818.867 -2.54842 -1.581 0
M  V30 8447 H 816.42 -1.34756 -0.791868 0
M  V30 8448 H 817.155 -0.547127 -3.19651 0
M  V30 8449 H 816.94 -2.32118 -3.16012 0
M  V30 8450 H 818.43 -1.61282 -3.85199 0
M  V30 8451 N 818.867 0.818669 -1.34668 0
M  V30 8452 C 819.83 1.9114 -1.26483 0
M  V30 8453 C 820.83 1.598 -0.179044 0
M  V30 8454 O 822.02 1.6876 -0.431952 0
M  V30 8455 C 819.152 3.27285 -0.95381 0
M  V30 8456 H 820.345 1.9982 -2.23634 0
M  V30 8457 H 817.898 1.01314 -1.19018 0
M  V30 8458 H 818.633 3.24297 0.0143428 0
M  V30 8459 H 818.418 3.51416 -1.73924 0
M  V30 8460 H 819.908 4.07299 -0.921827 0
M  V30 8461 N 820.346 1.18468 1.03938 0
M  V30 8462 C 821.294 0.909286 2.14091 0
M  V30 8463 C 822.288 -0.130928 1.68893 0
M  V30 8464 O 823.494 0.0173403 1.79992 0
M  V30 8465 H 819.869 0.27658 0.699291 0
M  V30 8466 H 821.84 1.84514 2.34515 0
M  V30 8467 C 820.589 0.452922 3.44737 0
M  V30 8468 H 819.912 1.24485 3.79926 0
M  V30 8469 H 821.352 0.299238 4.22943 0
M  V30 8470 C 819.811 -0.831435 3.26479 0
M  V30 8471 O 820.341 -1.89535 3.54174 0
M  V30 8472 N 818.547 -0.784545 2.79809 0
M  V30 8473 H 818.094 0.0814746 2.57471 0
M  V30 8474 H 818.052 -1.64431 2.67973 0
M  V30 8475 N 821.824 -1.22873 0.986916 0
M  V30 8476 C 823.049 -1.96028 0.677341 0
M  V30 8477 C 823.474 -1.72487 -0.750319 0
M  V30 8478 O 822.832 -1.00036 -1.51203 0
M  V30 8479 C 822.88 -3.46983 0.981593 0
M  V30 8480 O 821.984 -4.12328 0.0770729 0
M  V30 8481 H 821.325 -0.613458 0.254096 0
M  V30 8482 H 823.855 -1.56132 1.32227 0
M  V30 8483 H 823.865 -3.9747 0.920969 0
M  V30 8484 H 822.54 -3.63442 2.02194 0
M  V30 8485 H 821.117 -3.72402 0.192666 0
M  V30 8486 N 823.302 -0.75937 -1.38099 0
M  V30 8487 C 824.548 -0.318584 -2.00282 0
M  V30 8488 C 824.881 1.09854 -1.60143 0
M  V30 8489 O 824.156 1.75344 -0.841702 0
M  V30 8490 C 824.439 -0.448047 -3.57302 0
M  V30 8491 C 824.292 -1.9067 -4.07388 0
M  V30 8492 C 825.611 0.155119 -4.39827 0
M  V30 8493 H 822.73 -0.117233 -0.727616 0
M  V30 8494 H 825.372 -0.960097 -1.63958 0
M  V30 8495 H 823.522 0.0981003 -3.88376 0
M  V30 8496 H 825.194 -2.5116 -3.86932 0
M  V30 8497 H 823.437 -2.41979 -3.6004 0
M  V30 8498 H 824.108 -1.94841 -5.1647 0
M  V30 8499 H 826.584 -0.31073 -4.14938 0
M  V30 8500 H 825.46 0.0343264 -5.48889 0
M  V30 8501 H 825.721 1.24407 -4.24235 0
M  V30 8502 N 824.78 1.49157 -0.508906 0
M  V30 8503 C 825.71 2.32109 0.254469 0
M  V30 8504 C 826.691 1.40754 0.955111 0
M  V30 8505 O 827.876 1.69658 0.944983 0
M  V30 8506 C 825.006 3.21458 1.3146 0
M  V30 8507 C 823.96 4.2167 0.733368 0
M  V30 8508 C 823.286 5.00009 1.8946 0
M  V30 8509 C 824.586 5.21544 -0.280875 0
M  V30 8510 H 826.28 2.9618 -0.43795 0
M  V30 8511 H 823.826 1.4243 -0.212062 0
M  V30 8512 H 825.779 3.78305 1.85643 0
M  V30 8513 H 824.503 2.55346 2.03632 0
M  V30 8514 H 823.162 3.65979 0.213231 0
M  V30 8515 H 822.81 4.30338 2.60419 0
M  V30 8516 H 822.51 5.67821 1.51173 0
M  V30 8517 H 824.034 5.59702 2.44061 0
M  V30 8518 H 825.448 5.73039 0.173095 0
M  V30 8519 H 823.845 5.97291 -0.580006 0
M  V30 8520 H 824.915 4.69969 -1.19404 0
M  V30 8521 N 826.258 0.243083 1.55714 0
M  V30 8522 C 827.206 -0.674349 2.2261 0
M  V30 8523 C 828.2 -1.18307 1.21243 0
M  V30 8524 O 829.406 -1.1404 1.39265 0
M  V30 8525 H 825.781 -0.235941 0.714028 0
M  V30 8526 H 827.752 -0.0869446 2.98273 0
M  V30 8527 C 826.501 -1.86206 2.93637 0
M  V30 8528 H 825.824 -1.47975 3.71407 0
M  V30 8529 H 827.264 -2.4813 3.43813 0
M  V30 8530 C 825.723 -2.73084 1.97298 0
M  V30 8531 O 826.253 -3.72497 1.50361 0
M  V30 8532 N 824.459 -2.39571 1.64482 0
M  V30 8533 H 824.006 -1.5878 2.02846 0
M  V30 8534 H 823.964 -2.97976 1.00288 0
M  V30 8535 N 827.736 -1.57571 -0.0300757 0
M  V30 8536 C 828.646 -2.09892 -1.04798 0
M  V30 8537 C 829.662 -1.03732 -1.39698 0
M  V30 8538 O 830.838 -1.35461 -1.49038 0
M  V30 8539 C 827.903 -2.56707 -2.33028 0
M  V30 8540 C 826.964 -3.77345 -2.04718 0
M  V30 8541 C 826.197 -4.21918 -3.26834 0
M  V30 8542 O 826.42 -3.66025 -4.37472 0
M  V30 8543 O 825.354 -5.14362 -3.12594 0
M  V30 8544 H 829.18 -2.97023 -0.633344 0
M  V30 8545 H 826.765 -1.47344 -0.246991 0
M  V30 8546 H 828.647 -2.87154 -3.08417 0
M  V30 8547 H 827.322 -1.72688 -2.73789 0
M  V30 8548 H 826.229 -3.51919 -1.26901 0
M  V30 8549 H 827.562 -4.62345 -1.68813 0
M  V30 8550 N 829.214 0.302327 -1.54673 0
M  V30 8551 C 830.454 1.04568 -1.75627 0
M  V30 8552 C 830.818 1.84535 -0.530175 0
M  V30 8553 O 832.019 2.61613 -0.61743 0
M  V30 8554 C 830.29 1.92873 -3.0089 0
M  V30 8555 S 831.849 2.73872 -3.4284 0
M  V30 8556 H 828.667 0.352682 -0.617362 0
M  V30 8557 H 831.269 0.319239 -1.92876 0
M  V30 8558 H 829.973 1.32998 -3.88252 0
M  V30 8559 H 829.504 2.69887 -2.86225 0
M  V30 8560 H 831.519 3.95386 -2.99807 0
M  V30 8561 N 830.692 1.47107 0.565454 0
M  V30 8562 C 831.622 1.61846 1.68309 0
M  V30 8563 C 832.603 0.468159 1.63531 0
M  V30 8564 O 833.788 0.696504 1.8128 0
M  V30 8565 C 830.918 1.62474 3.06952 0
M  V30 8566 C 829.872 2.76649 3.26572 0
M  V30 8567 C 829.198 2.62345 4.65917 0
M  V30 8568 C 830.498 4.18319 3.12741 0
M  V30 8569 H 832.192 2.55407 1.5623 0
M  V30 8570 H 829.738 1.22916 0.750179 0
M  V30 8571 H 831.691 1.71378 3.84977 0
M  V30 8572 H 830.415 0.654692 3.19971 0
M  V30 8573 H 829.074 2.67242 2.50952 0
M  V30 8574 H 828.722 1.63386 4.75725 0
M  V30 8575 H 828.422 3.38936 4.79996 0
M  V30 8576 H 829.946 2.73165 5.46089 0
M  V30 8577 H 831.36 4.28745 3.80593 0
M  V30 8578 H 829.757 4.95632 3.38333 0
M  V30 8579 H 830.827 4.37263 2.09592 0
M  V30 8580 N 832.17 -0.811516 1.35101 0
M  V30 8581 C 833.08 -1.95475 1.29718 0
M  V30 8582 C 834.096 -1.72813 0.202909 0
M  V30 8583 O 835.272 -1.96725 0.431414 0
M  V30 8584 C 832.337 -3.29975 1.06385 0
M  V30 8585 C 831.398 -3.65566 2.25077 0
M  V30 8586 C 830.631 -4.93648 2.02848 0
M  V30 8587 O 830.854 -5.617 0.992442 0
M  V30 8588 O 829.788 -5.27384 2.90087 0
M  V30 8589 H 833.614 -2.02961 2.25921 0
M  V30 8590 H 831.199 -0.948583 1.15422 0
M  V30 8591 H 833.081 -4.10506 0.951999 0
M  V30 8592 H 831.756 -3.2343 0.132294 0
M  V30 8593 H 830.663 -2.85432 2.41825 0
M  V30 8594 H 831.996 -3.7681 3.16662 0
M  V30 8595 N 833.648 -1.19017 -1.03309 0
M  V30 8596 C 834.58 -0.881847 -2.11556 0
M  V30 8597 C 835.593 0.123711 -1.62329 0
M  V30 8598 O 836.782 -0.105141 -1.7819 0
M  V30 8599 C 833.882 -0.297634 -3.37591 0
M  V30 8600 C 833.055 -1.35072 -4.16022 0
M  V30 8601 C 832.114 -0.780812 -5.20375 0
M  V30 8602 O 831.14 -1.45745 -5.50224 0
M  V30 8603 N 832.342 0.417964 -5.78993 0
M  V30 8604 H 835.107 -1.81359 -2.38598 0
M  V30 8605 H 832.668 -1.0916 -1.19565 0
M  V30 8606 H 834.66 0.097374 -4.04583 0
M  V30 8607 H 833.23 0.538299 -3.0793 0
M  V30 8608 H 832.45 -1.92074 -3.4424 0
M  V30 8609 H 833.738 -2.06044 -4.65213 0
M  V30 8610 H 833.136 0.985281 -5.57054 0
M  V30 8611 H 831.693 0.754802 -6.47415 0
M  V30 8612 N 835.127 1.22348 -0.993418 0
M  V30 8613 C 836.374 1.9111 -0.669568 0
M  V30 8614 C 836.702 1.77357 0.79843 0
M  V30 8615 O 835.957 1.13675 1.593 0
M  V30 8616 C 836.256 3.42477 -1.02197 0
M  V30 8617 C 835.922 3.7642 -2.48232 0
M  V30 8618 C 834.584 3.85395 -2.88139 0
M  V30 8619 C 836.936 3.9253 -3.42884 0
M  V30 8620 C 834.264 4.07918 -4.21687 0
M  V30 8621 C 836.616 4.16557 -4.76091 0
M  V30 8622 C 835.28 4.23757 -5.15739 0
M  V30 8623 H 834.55 0.699321 -0.245012 0
M  V30 8624 H 837.197 1.45102 -1.2497 0
M  V30 8625 H 835.502 3.90143 -0.359921 0
M  V30 8626 H 837.199 3.93935 -0.74942 0
M  V30 8627 H 833.789 3.70017 -2.16299 0
M  V30 8628 H 837.973 3.84974 -3.13224 0
M  V30 8629 H 833.229 4.11719 -4.51993 0
M  V30 8630 H 837.403 4.27966 -5.4938 0
M  V30 8631 H 835.03 4.40962 -6.19239 0
M  V30 8632 N 836.605 0.766683 1.37694 0
M  V30 8633 C 838.016 0.394761 1.82479 0
M  V30 8634 C 838.367 -1.07842 1.63904 0
M  V30 8635 O 837.492 -1.83479 1.14737 0
M  V30 8636 C 838.087 0.70974 3.31283 0
M  V30 8637 C 836.646 0.390936 3.74364 0
M  V30 8638 C 835.793 0.956192 2.60293 0
M  V30 8639 H 838.744 0.961756 1.26238 0
M  V30 8640 H 838.765 -0.00742144 3.80499 0
M  V30 8641 H 838.277 1.782 3.4477 0
M  V30 8642 H 836.378 -0.674213 3.66449 0
M  V30 8643 H 836.491 0.895645 4.70654 0
M  V30 8644 H 834.855 0.380744 2.51838 0
M  V30 8645 H 835.638 2.03375 2.76575 0
M  V30 8646 N 838.083 -1.48885 0.516809 0
M  V30 8647 C 839.013 -2.32241 -0.242157 0
M  V30 8648 C 839.994 -1.41258 -0.947633 0
M  V30 8649 O 841.179 -1.70156 -0.935973 0
M  V30 8650 C 838.309 -3.22151 -1.29754 0
M  V30 8651 C 837.263 -4.22053 -0.710995 0
M  V30 8652 C 836.589 -5.01007 -1.86806 0
M  V30 8653 C 837.889 -5.21388 0.30853 0
M  V30 8654 H 839.583 -2.95943 0.453651 0
M  V30 8655 H 837.129 -1.42316 0.219612 0
M  V30 8656 H 839.082 -3.79284 -1.83634 0
M  V30 8657 H 837.806 -2.56423 -2.02274 0
M  V30 8658 H 836.465 -3.66087 -0.193819 0
M  V30 8659 H 836.113 -4.31713 -2.58133 0
M  V30 8660 H 835.813 -5.68615 -1.48159 0
M  V30 8661 H 837.337 -5.60989 -2.4109 0
M  V30 8662 H 838.751 -5.73122 -0.142703 0
M  V30 8663 H 837.148 -5.96975 0.611673 0
M  V30 8664 H 838.218 -4.69329 1.21894 0
M  V30 8665 N 839.561 -0.251338 -1.55583 0
M  V30 8666 C 840.81 0.372681 -1.98227 0
M  V30 8667 C 841.123 1.58743 -1.1428 0
M  V30 8668 O 842.329 2.28289 -1.46957 0
M  V30 8669 C 840.785 0.714439 -3.52738 0
M  V30 8670 C 840.393 -0.479168 -4.4543 0
M  V30 8671 C 842.137 1.3024 -4.04027 0
M  V30 8672 C 840.044 -0.113318 -5.91291 0
M  V30 8673 H 838.974 0.14302 -0.740312 0
M  V30 8674 H 841.625 -0.352253 -1.80087 0
M  V30 8675 H 840.007 1.49762 -3.66589 0
M  V30 8676 H 841.181 -1.25644 -4.4334 0
M  V30 8677 H 839.496 -0.982359 -4.04646 0
M  V30 8678 H 842.093 1.58953 -5.10527 0
M  V30 8679 H 842.436 2.22837 -3.51638 0
M  V30 8680 H 842.969 0.582024 -3.93519 0
M  V30 8681 H 839.708 -1.00654 -6.47726 0
M  V30 8682 H 839.228 0.627666 -5.96507 0
M  V30 8683 H 840.907 0.30293 -6.4629 0
M  V30 8684 N 841.039 1.57585 0.0217189 0
M  V30 8685 C 841.969 2.10073 1.01939 0
M  V30 8686 C 842.95 1.0049 1.37243 0
M  V30 8687 O 844.135 1.28055 1.45999 0
M  V30 8688 C 841.265 2.58618 2.31806 0
M  V30 8689 C 840.219 3.72531 2.10724 0
M  V30 8690 C 839.545 4.07309 3.46415 0
M  V30 8691 C 840.845 5.00672 1.48743 0
M  V30 8692 H 842.539 2.9368 0.582432 0
M  V30 8693 H 840.085 1.41277 0.278715 0
M  V30 8694 H 842.038 2.9396 3.01936 0
M  V30 8695 H 840.762 1.72104 2.77575 0
M  V30 8696 H 839.421 3.37549 1.43025 0
M  V30 8697 H 839.069 3.17851 3.89846 0
M  V30 8698 H 838.769 4.84042 3.33132 0
M  V30 8699 H 840.293 4.45192 4.17895 0
M  V30 8700 H 841.707 5.33925 2.088 0
M  V30 8701 H 840.104 5.82065 1.46013 0
M  V30 8702 H 841.174 4.82769 0.45408 0
M  V30 8703 N 842.517 -0.29412 1.54831 0
M  V30 8704 C 843.427 -1.3854 1.89325 0
M  V30 8705 C 844.443 -1.55127 0.788133 0
M  V30 8706 O 845.619 -1.6966 1.08524 0
M  V30 8707 C 842.684 -2.72809 2.13954 0
M  V30 8708 C 841.745 -2.65148 3.37631 0
M  V30 8709 C 840.978 -3.93014 3.61076 0
M  V30 8710 O 841.201 -4.927 2.87406 0
M  V30 8711 O 840.135 -3.94491 4.54599 0
M  V30 8712 H 843.961 -1.12289 2.82179 0
M  V30 8713 H 841.546 -0.490793 1.41108 0
M  V30 8714 H 843.428 -3.52238 2.31315 0
M  V30 8715 H 842.103 -2.9889 1.24285 0
M  V30 8716 H 841.01 -1.84168 3.25627 0
M  V30 8717 H 842.343 -2.4402 4.27452 0
M  V30 8718 N 843.995 -1.47404 -0.557645 0
M  V30 8719 C 845.243 -1.53703 -1.31224 0
M  V30 8720 C 845.564 -0.200742 -1.93964 0
M  V30 8721 O 844.834 0.775253 -1.79907 0
M  V30 8722 H 843.414 -0.566171 -0.487299 0
M  V30 8723 H 846.076 -1.83699 -0.651195 0
M  V30 8724 H 845.172 -2.30335 -2.10599 0
M  V30 8725 N 845.473 0.80434 -1.35529 0
M  V30 8726 C 846.42 1.91629 -1.28635 0
M  V30 8727 C 847.39 1.65348 -0.157862 0
M  V30 8728 O 848.575 1.87711 -0.341934 0
M  V30 8729 C 845.715 3.28207 -1.0665 0
M  V30 8730 C 844.828 3.66659 -2.28441 0
M  V30 8731 C 843.963 4.92279 -1.99588 0
M  V30 8732 C 843.002 5.23365 -3.1742 0
M  V30 8733 N 842.139 6.40165 -2.88328 0
M  V30 8734 H 846.979 1.96858 -2.23721 0
M  V30 8735 H 844.516 0.962871 -1.11208 0
M  V30 8736 H 846.474 4.06945 -0.919343 0
M  V30 8737 H 845.104 3.22441 -0.152253 0
M  V30 8738 H 844.156 2.83164 -2.54013 0
M  V30 8739 H 845.468 3.8559 -3.1642 0
M  V30 8740 H 844.622 5.78847 -1.81715 0
M  V30 8741 H 843.361 4.75387 -1.08896 0
M  V30 8742 H 842.366 4.35285 -3.35867 0
M  V30 8743 H 843.591 5.42185 -4.08916 0
M  V30 8744 H 841.537 6.24694 -2.00233 0
M  V30 8745 H 841.454 6.59357 -3.69843 0
M  V30 8746 H 842.722 7.29755 -2.74002 0
M  V30 8747 N 846.951 1.19563 1.02676 0
M  V30 8748 C 847.883 0.893054 2.11086 0
M  V30 8749 C 848.896 -0.115101 1.62393 0
M  V30 8750 O 850.085 0.11459 1.78132 0
M  V30 8751 C 847.185 0.315533 3.37428 0
M  V30 8752 C 846.358 1.37276 4.153 0
M  V30 8753 C 845.417 0.808398 5.19953 0
M  V30 8754 O 844.443 1.48661 5.49444 0
M  V30 8755 N 845.645 -0.387253 5.79207 0
M  V30 8756 H 848.41 1.82622 2.37633 0
M  V30 8757 H 845.971 1.09792 1.18984 0
M  V30 8758 H 847.963 -0.0759166 4.04629 0
M  V30 8759 H 846.533 -0.521961 3.08211 0
M  V30 8760 H 845.753 1.93897 3.43217 0
M  V30 8761 H 847.041 2.08509 4.64114 0
M  V30 8762 H 846.439 -0.955725 5.57568 0
M  V30 8763 H 844.996 -0.720457 6.47806 0
M  V30 8764 N 848.429 -1.21819 0.999893 0
M  V30 8765 C 849.376 -2.24003 0.556005 0
M  V30 8766 C 850.346 -1.60825 -0.415287 0
M  V30 8767 O 851.531 -1.88123 -0.318481 0
M  V30 8768 C 848.671 -3.44904 -0.116289 0
M  V30 8769 C 847.784 -4.22573 0.897574 0
M  V30 8770 C 846.919 -5.30831 0.198073 0
M  V30 8771 C 845.958 -6.00225 1.19983 0
M  V30 8772 N 845.095 -7.00111 0.528157 0
M  V30 8773 H 849.935 -2.61334 1.43208 0
M  V30 8774 H 847.472 -1.28431 0.717205 0
M  V30 8775 H 849.43 -4.13908 -0.523055 0
M  V30 8776 H 848.06 -3.08315 -0.956108 0
M  V30 8777 H 847.112 -3.52797 1.42262 0
M  V30 8778 H 848.424 -4.70363 1.66013 0
M  V30 8779 H 847.578 -6.06121 -0.265065 0
M  V30 8780 H 846.317 -4.84033 -0.596924 0
M  V30 8781 H 845.322 -5.23711 1.67353 0
M  V30 8782 H 846.547 -6.4911 1.99582 0
M  V30 8783 H 844.493 -6.55534 -0.247276 0
M  V30 8784 H 844.41 -7.45943 1.22904 0
M  V30 8785 H 845.678 -7.7945 0.0880543 0
M  V30 8786 N 849.908 -0.773975 -1.37286 0
M  V30 8787 C 851.319 -0.404433 -1.82267 0
M  V30 8788 C 851.67 1.06971 -1.64474 0
M  V30 8789 O 850.795 1.82867 -1.15708 0
M  V30 8790 C 851.39 -0.727298 -3.30902 0
M  V30 8791 C 849.949 -0.410784 -3.74152 0
M  V30 8792 C 849.096 -0.969983 -2.59782 0
M  V30 8793 H 852.047 -0.968437 -1.25726 0
M  V30 8794 H 852.068 -0.0127575 -3.80498 0
M  V30 8795 H 851.58 -1.80026 -3.4382 0
M  V30 8796 H 849.681 0.65477 -3.66802 0
M  V30 8797 H 849.794 -0.920592 -4.70172 0
M  V30 8798 H 848.158 -0.394094 -2.51633 0
M  V30 8799 H 848.941 -2.04839 -2.75492 0
M  V30 8800 N 851.386 1.48609 -0.524698 0
M  V30 8801 C 852.663 1.95454 0.075465 0
M  V30 8802 C 853.043 1.46682 1.51814 0
M  V30 8803 O 852.391 0.690975 2.17802 0
M  V30 8804 C 852.601 3.48981 -0.0363273 0
M  V30 8805 C 853.949 4.24414 0.125624 0
M  V30 8806 O 854.973 3.5618 0.0377239 0
M  V30 8807 O 853.832 5.45625 0.309104 0
M  V30 8808 H 850.926 0.822902 0.0822256 0
M  V30 8809 H 853.472 1.59153 -0.588921 0
M  V30 8810 H 852.244 3.77185 -1.04149 0
M  V30 8811 H 851.867 3.91963 0.667146 0
M  V30 8812 N 852.864 0.259585 1.55447 0
M  V30 8813 C 854.094 -0.364863 2.03353 0
M  V30 8814 C 854.502 -1.5116 1.13786 0
M  V30 8815 O 853.845 -1.83109 0.147283 0
M  V30 8816 C 853.907 -0.922587 3.4746 0
M  V30 8817 C 853.571 0.0935207 4.56904 0
M  V30 8818 C 854.568 0.907571 5.11917 0
M  V30 8819 C 852.253 0.223276 5.01804 0
M  V30 8820 C 854.247 1.83771 6.10333 0
M  V30 8821 C 851.934 1.15691 6.00049 0
M  V30 8822 C 852.932 1.96264 6.54194 0
M  V30 8823 O 852.62 2.88052 7.50521 0
M  V30 8824 H 852.352 -0.0893313 0.670072 0
M  V30 8825 H 854.906 0.384821 2.01763 0
M  V30 8826 H 853.136 -1.72206 3.4624 0
M  V30 8827 H 854.825 -1.45846 3.78792 0
M  V30 8828 H 855.591 0.817979 4.78052 0
M  V30 8829 H 851.47 -0.393834 4.59315 0
M  V30 8830 H 855.014 2.46703 6.52521 0
M  V30 8831 H 850.911 1.24738 6.33333 0
M  V30 8832 H 851.679 2.82557 7.68182 0
M  V30 8833 N 854.342 -1.57594 -0.0133615 0
M  V30 8834 C 855.252 -2.10991 -1.02566 0
M  V30 8835 C 856.268 -1.05208 -1.3859 0
M  V30 8836 O 857.444 -1.37034 -1.47593 0
M  V30 8837 C 854.509 -2.59165 -2.30292 0
M  V30 8838 C 853.57 -3.79495 -2.00704 0
M  V30 8839 C 852.803 -4.25361 -3.22341 0
M  V30 8840 O 853.026 -3.70645 -4.33565 0
M  V30 8841 O 851.96 -5.17649 -3.07121 0
M  V30 8842 H 855.786 -2.97678 -0.601806 0
M  V30 8843 H 853.371 -1.47598 -0.23135 0
M  V30 8844 H 855.253 -2.90409 -3.05354 0
M  V30 8845 H 853.928 -1.75582 -2.71942 0
M  V30 8846 H 852.835 -3.53245 -1.23161 0
M  V30 8847 H 854.168 -4.64109 -1.639 0
M  V30 8848 N 855.82 0.285905 -1.54985 0
M  V30 8849 C 856.767 1.35306 -1.86978 0
M  V30 8850 C 857.737 1.49682 -0.720046 0
M  V30 8851 O 858.922 1.64297 -0.970107 0
M  V30 8852 C 856.062 2.71059 -2.13591 0
M  V30 8853 C 855.175 2.6501 -3.41165 0
M  V30 8854 C 854.31 3.92856 -3.57544 0
M  V30 8855 C 853.349 3.81266 -4.78855 0
M  V30 8856 N 852.486 5.00919 -4.9196 0
M  V30 8857 H 857.326 1.07323 -2.78003 0
M  V30 8858 H 854.863 0.518776 -1.37649 0
M  V30 8859 H 856.821 3.50026 -2.27019 0
M  V30 8860 H 855.451 2.97271 -1.25816 0
M  V30 8861 H 854.503 1.77824 -3.36278 0
M  V30 8862 H 855.815 2.52342 -4.30262 0
M  V30 8863 H 854.969 4.80263 -3.70718 0
M  V30 8864 H 853.708 4.08377 -2.66608 0
M  V30 8865 H 852.713 2.92243 -4.65698 0
M  V30 8866 H 853.938 3.67277 -5.71213 0
M  V30 8867 H 851.884 5.16875 -4.03951 0
M  V30 8868 H 851.801 4.90732 -5.75081 0
M  V30 8869 H 853.069 5.89935 -5.09507 0
M  V30 8870 N 857.298 1.47698 0.54982 0
M  V30 8871 C 858.538 1.56286 1.31735 0
M  V30 8872 C 858.902 0.223042 1.907 0
M  V30 8873 O 860.103 0.183798 2.68171 0
M  V30 8874 C 858.374 2.65522 2.39234 0
M  V30 8875 S 859.933 2.93742 3.25977 0
M  V30 8876 H 856.751 0.551795 0.448378 0
M  V30 8877 H 859.353 1.85118 0.628629 0
M  V30 8878 H 858.057 3.61457 1.94362 0
M  V30 8879 H 857.588 2.38528 3.12838 0
M  V30 8880 H 859.603 2.31522 4.38876 0
M  V30 8881 N 858.776 -0.797141 1.35954 0
M  V30 8882 C 860.025 -1.54983 1.29086 0
M  V30 8883 C 860.338 -1.95167 -0.130003 0
M  V30 8884 O 861.544 -2.69596 -0.32101 0
M  V30 8885 C 860 -2.79738 2.26439 0
M  V30 8886 C 859.608 -2.46753 3.73921 0
M  V30 8887 C 861.352 -3.57733 2.28533 0
M  V30 8888 C 859.259 -3.67858 4.63071 0
M  V30 8889 H 858.189 -0.581766 0.479651 0
M  V30 8890 H 860.84 -0.87541 1.61273 0
M  V30 8891 H 859.222 -3.48939 1.87236 0
M  V30 8892 H 860.396 -1.85499 4.21814 0
M  V30 8893 H 858.711 -1.81985 3.74527 0
M  V30 8894 H 861.308 -4.47699 2.92351 0
M  V30 8895 H 861.651 -3.95754 1.29169 0
M  V30 8896 H 862.184 -2.95504 2.66313 0
M  V30 8897 H 858.923 -3.34939 5.63468 0
M  V30 8898 H 858.443 -4.28305 4.19898 0
M  V30 8899 H 860.122 -4.34977 4.78961 0
M  V30 8900 N 860.254 -1.20106 -1.0204 0
M  V30 8901 C 861.201 -0.946468 -2.10501 0
M  V30 8902 C 862.171 0.121902 -1.65652 0
M  V30 8903 O 863.356 -0.0220244 -1.90787 0
M  V30 8904 C 860.496 -0.500499 -3.41451 0
M  V30 8905 C 859.609 -1.63659 -3.998 0
M  V30 8906 C 858.744 -1.14131 -5.18794 0
M  V30 8907 C 857.783 -2.25074 -5.69217 0
M  V30 8908 N 856.92 -1.76791 -6.79477 0
M  V30 8909 H 861.76 -1.87506 -2.31615 0
M  V30 8910 H 859.297 -0.934693 -1.13587 0
M  V30 8911 H 861.255 -0.223276 -4.16602 0
M  V30 8912 H 859.885 0.391099 -3.20422 0
M  V30 8913 H 858.937 -2.02882 -3.21781 0
M  V30 8914 H 860.249 -2.47213 -4.33229 0
M  V30 8915 H 859.403 -0.819826 -6.01135 0
M  V30 8916 H 858.142 -0.275615 -4.86921 0
M  V30 8917 H 857.147 -2.58043 -4.85483 0
M  V30 8918 H 858.372 -3.12114 -6.03127 0
M  V30 8919 H 856.318 -0.925428 -6.4944 0
M  V30 8920 H 856.235 -2.53928 -7.12079 0
M  V30 8921 H 857.503 -1.47631 -7.65392 0
M  V30 8922 N 861.732 1.21287 -1.00634 0
M  V30 8923 C 862.981 1.89706 -0.685178 0
M  V30 8924 C 863.294 1.79044 0.787566 0
M  V30 8925 O 864.5 2.42502 1.22086 0
M  V30 8926 C 862.956 3.40176 -1.17508 0
M  V30 8927 C 862.564 3.59446 -2.674 0
M  V30 8928 C 864.308 4.14213 -0.928869 0
M  V30 8929 C 862.215 5.03688 -3.09923 0
M  V30 8930 H 861.145 0.710434 -0.252586 0
M  V30 8931 H 863.796 1.37277 -1.21768 0
M  V30 8932 H 862.178 3.91867 -0.570622 0
M  V30 8933 H 863.352 3.18188 -3.33306 0
M  V30 8934 H 861.667 2.98764 -2.9005 0
M  V30 8935 H 864.264 5.20546 -1.22212 0
M  V30 8936 H 864.607 4.16082 0.134859 0
M  V30 8937 H 865.14 3.68591 -1.49619 0
M  V30 8938 H 861.879 5.06968 -4.15529 0
M  V30 8939 H 861.399 5.45796 -2.4873 0
M  V30 8940 H 863.078 5.72204 -3.0198 0
M  V30 8941 N 863.21 0.781244 1.36873 0
M  V30 8942 C 864.435 0.360398 2.04245 0
M  V30 8943 C 864.86 -1.01242 1.58529 0
M  V30 8944 O 864.218 -1.65063 0.749936 0
M  V30 8945 C 864.266 0.42329 3.58107 0
M  V30 8946 O 863.37 -0.572796 4.08403 0
M  V30 8947 H 862.711 0.154386 0.645803 0
M  V30 8948 H 865.241 1.06008 1.74996 0
M  V30 8949 H 865.251 0.283967 4.07011 0
M  V30 8950 H 863.926 1.42477 3.90734 0
M  V30 8951 H 862.503 -0.395809 3.70793 0
M  V30 8952 N 864.689 -1.48329 0.532571 0
M  V30 8953 C 865.917 -2.069 0.00354299 0
M  V30 8954 C 866.332 -1.38876 -1.27902 0
M  V30 8955 O 865.689 -0.477119 -1.76153 0
M  V30 8956 C 865.74 -3.60821 -0.221416 0
M  V30 8957 O 865.461 -4.26291 1.01034 0
M  V30 8958 C 866.962 -4.36194 -0.790531 0
M  V30 8959 H 864.182 -0.670103 0.0346836 0
M  V30 8960 H 866.726 -1.90682 0.738955 0
M  V30 8961 H 864.881 -3.76636 -0.906884 0
M  V30 8962 H 865.295 -5.18475 0.792683 0
M  V30 8963 H 866.769 -5.44657 -0.897347 0
M  V30 8964 H 867.246 -4.00798 -1.79605 0
M  V30 8965 H 867.852 -4.25064 -0.141546 0
M  V30 8966 N 866.167 -0.267825 -1.55308 0
M  V30 8967 C 867.444 0.402449 -1.91415 0
M  V30 8968 C 867.824 1.7428 -1.1912 0
M  V30 8969 O 867.172 2.2631 -0.315609 0
M  V30 8970 C 867.382 0.549926 -3.4464 0
M  V30 8971 C 868.73 0.836188 -4.16285 0
M  V30 8972 O 869.754 0.635009 -3.50494 0
M  V30 8973 O 868.613 1.22051 -5.32697 0
M  V30 8974 H 865.707 0.219177 -0.797427 0
M  V30 8975 H 868.253 -0.313439 -1.6678 0
M  V30 8976 H 867.025 -0.393641 -3.89315 0
M  V30 8977 H 866.648 1.31556 -3.75205 0
M  V30 8978 N 867.645 1.57599 0.00500368 0
M  V30 8979 C 868.608 2.07058 0.982832 0
M  V30 8980 C 869.608 0.979045 1.27559 0
M  V30 8981 O 870.798 1.24187 1.22161 0
M  V30 8982 C 867.93 2.50782 2.30914 0
M  V30 8983 H 869.123 2.94718 0.555119 0
M  V30 8984 H 866.676 1.54249 0.25237 0
M  V30 8985 H 867.411 1.66351 2.78385 0
M  V30 8986 H 867.196 3.30495 2.10987 0
M  V30 8987 H 868.686 2.89391 3.0107 0
M  V30 8988 N 869.123 -0.277682 1.55134 0
M  V30 8989 C 870.348 -1.03254 1.7987 0
M  V30 8990 C 870.773 -1.79324 0.567861 0
M  V30 8991 O 870.131 -1.74764 -0.4824 0
M  V30 8992 C 870.179 -1.9705 3.02 0
M  V30 8993 O 869.283 -3.05744 2.76757 0
M  V30 8994 H 868.624 -0.295447 0.594649 0
M  V30 8995 H 871.154 -0.308013 2.02268 0
M  V30 8996 H 871.164 -2.3909 3.30606 0
M  V30 8997 H 869.839 -1.41094 3.91236 0
M  V30 8998 H 868.416 -2.68052 2.59235 0
M  V30 8999 N 870.601 -1.47988 -0.541979 0
M  V30 9000 C 871.531 -1.64503 -1.65713 0
M  V30 9001 C 872.512 -0.494116 -1.62765 0
M  V30 9002 O 873.697 -0.725256 -1.80149 0
M  V30 9003 C 870.827 -1.67337 -3.04328 0
M  V30 9004 C 869.781 -2.81809 -3.2213 0
M  V30 9005 C 869.107 -2.69724 -4.61685 0
M  V30 9006 C 870.407 -4.23241 -3.06046 0
M  V30 9007 H 872.101 -2.5786 -1.52147 0
M  V30 9008 H 869.647 -1.24094 -0.730529 0
M  V30 9009 H 871.6 -1.77481 -3.82202 0
M  V30 9010 H 870.324 -0.705514 -3.18889 0
M  V30 9011 H 868.983 -2.71201 -2.46669 0
M  V30 9012 H 868.631 -1.70934 -4.73065 0
M  V30 9013 H 868.331 -3.4653 -4.74543 0
M  V30 9014 H 869.855 -2.81818 -5.41674 0
M  V30 9015 H 871.269 -4.34746 -3.73723 0
M  V30 9016 H 869.666 -5.00952 -3.30405 0
M  V30 9017 H 870.736 -4.40543 -2.02609 0
M  V30 9018 N 872.079 0.78992 -1.36375 0
M  V30 9019 C 873.495 1.0879 -1.16777 0
M  V30 9020 C 873.695 2.01498 0.00848236 0
M  V30 9021 O 872.751 2.43338 0.674007 0
M  V30 9022 C 874.064 1.70285 -2.47837 0
M  V30 9023 C 875.612 1.82629 -2.54196 0
M  V30 9024 C 876.087 2.47539 -3.85342 0
M  V30 9025 N 877.578 2.55008 -3.86685 0
M  V30 9026 C 878.313 3.06041 -4.84898 0
M  V30 9027 N 877.809 3.57385 -5.93505 0
M  V30 9028 N 879.602 3.04748 -4.72319 0
M  V30 9029 H 871.753 0.173985 -2.11686 0
M  V30 9030 H 874.016 0.139798 -0.937636 0
M  V30 9031 H 873.722 1.09633 -3.34176 0
M  V30 9032 H 873.596 2.69799 -2.63607 0
M  V30 9033 H 875.983 2.42419 -1.68276 0
M  V30 9034 H 876.064 0.81923 -2.42327 0
M  V30 9035 H 875.708 1.88393 -4.71668 0
M  V30 9036 H 875.638 3.48815 -3.94507 0
M  V30 9037 H 878.129 2.18651 -3.08221 0
M  V30 9038 H 878.442 3.94674 -6.64419 0
M  V30 9039 H 876.787 3.55538 -5.97175 0
M  V30 9040 H 879.978 2.63925 -3.86602 0
M  V30 9041 H 880.151 3.44212 -5.49019 0
M  V30 9042 N 873.557 1.20646 1.01402 0
M  V30 9043 C 874.489 0.915392 2.10127 0
M  V30 9044 C 875.502 -0.0978705 1.62506 0
M  V30 9045 O 876.691 0.133477 1.78 0
M  V30 9046 C 873.791 0.351304 3.37074 0
M  V30 9047 C 872.964 1.41673 4.13821 0
M  V30 9048 C 872.023 0.8635 5.19067 0
M  V30 9049 O 871.049 1.54481 5.47836 0
M  V30 9050 N 872.251 -0.325799 5.79585 0
M  V30 9051 H 875.016 1.85132 2.35682 0
M  V30 9052 H 872.577 1.11048 1.17813 0
M  V30 9053 H 874.569 -0.032996 4.04687 0
M  V30 9054 H 873.139 -0.489242 3.08748 0
M  V30 9055 H 872.359 1.97526 3.41141 0
M  V30 9056 H 873.647 2.1342 4.61876 0
M  V30 9057 H 873.045 -0.896534 5.58551 0
M  V30 9058 H 871.602 -0.651708 6.48534 0
M  V30 9059 N 875.035 -1.20752 1.01276 0
M  V30 9060 C 875.968 -2.22091 0.524472 0
M  V30 9061 C 876.946 -1.5692 -0.426017 0
M  V30 9062 O 878.13 -1.8528 -0.346919 0
M  V30 9063 C 875.257 -3.37868 -0.237224 0
M  V30 9064 C 874.303 -4.21327 0.662236 0
M  V30 9065 S 875.136 -4.91352 2.12916 0
M  V30 9066 C 876.292 -6.10553 1.37752 0
M  V30 9067 H 876.525 -2.63166 1.38315 0
M  V30 9068 H 874.058 -1.30742 0.821332 0
M  V30 9069 H 876.016 -4.04985 -0.670599 0
M  V30 9070 H 874.677 -2.95261 -1.07143 0
M  V30 9071 H 873.87 -5.03944 0.0751085 0
M  V30 9072 H 873.472 -3.59445 1.03322 0
M  V30 9073 H 875.764 -6.74322 0.655491 0
M  V30 9074 H 876.707 -6.73717 2.17969 0
M  V30 9075 H 877.115 -5.57566 0.882088 0
M  V30 9076 N 876.513 -0.788492 -1.36457 0
M  V30 9077 C 877.762 -0.357052 -1.98515 0
M  V30 9078 C 878.075 1.0769 -1.63285 0
M  V30 9079 O 879.281 1.61057 -2.1857 0
M  V30 9080 C 877.737 -0.587449 -3.55073 0
M  V30 9081 C 877.345 -2.03276 -3.99228 0
M  V30 9082 C 879.089 -0.220468 -4.23927 0
M  V30 9083 C 876.996 -2.20987 -5.48561 0
M  V30 9084 H 875.926 -0.129762 -0.74275 0
M  V30 9085 H 878.577 -0.969995 -1.55767 0
M  V30 9086 H 876.959 0.0951918 -3.95886 0
M  V30 9087 H 878.133 -2.75173 -3.69617 0
M  V30 9088 H 876.448 -2.3579 -3.43208 0
M  V30 9089 H 879.045 -0.331085 -5.33674 0
M  V30 9090 H 879.388 0.831306 -4.07915 0
M  V30 9091 H 879.921 -0.856309 -3.88474 0
M  V30 9092 H 876.66 -3.24543 -5.69519 0
M  V30 9093 H 876.18 -1.53594 -5.79801 0
M  V30 9094 H 877.859 -2.01656 -6.14771 0
M  V30 9095 N 877.991 1.48044 -0.54043 0
M  V30 9096 C 879.237 2.02797 -0.0101718 0
M  V30 9097 C 879.57 1.41565 1.32939 0
M  V30 9098 O 878.845 0.565139 1.86109 0
M  V30 9099 C 879.128 3.59959 0.100758 0
M  V30 9100 C 878.981 4.31654 -1.26471 0
M  V30 9101 C 880.3 4.32347 0.822455 0
M  V30 9102 H 877.419 0.736982 -0.00517052 0
M  V30 9103 H 880.061 1.76656 -0.69948 0
M  V30 9104 H 878.211 3.82363 0.687824 0
M  V30 9105 H 879.883 4.20639 -1.89369 0
M  V30 9106 H 878.126 3.92663 -1.84386 0
M  V30 9107 H 878.797 5.401 -1.13998 0
M  V30 9108 H 881.273 4.14835 0.324164 0
M  V30 9109 H 880.149 5.41978 0.868993 0
M  V30 9110 H 880.41 4.00369 1.87501 0
M  V30 9111 N 879.47 0.276058 1.55163 0
M  V30 9112 C 880.881 -0.221516 1.85381 0
M  V30 9113 C 881.232 -1.55372 1.19808 0
M  V30 9114 O 880.357 -2.10855 0.486742 0
M  V30 9115 C 880.952 -0.408706 3.36326 0
M  V30 9116 C 879.511 -0.850512 3.66665 0
M  V30 9117 C 878.658 0.055656 2.77244 0
M  V30 9118 H 881.609 0.497819 1.5069 0
M  V30 9119 H 881.63 -1.24711 3.59482 0
M  V30 9120 H 881.142 0.561052 3.84023 0
M  V30 9121 H 879.243 -1.83171 3.24468 0
M  V30 9122 H 879.356 -0.687181 4.74146 0
M  V30 9123 H 877.72 -0.460819 2.50497 0
M  V30 9124 H 878.503 1.02131 3.27756 0
M  V30 9125 N 880.948 -1.576 0.00335426 0
M  V30 9126 C 882.196 -1.90336 -0.679446 0
M  V30 9127 C 882.517 -0.877777 -1.74127 0
M  V30 9128 O 881.787 0.0843585 -1.95718 0
M  V30 9129 H 880.367 -0.702509 -0.253948 0
M  V30 9130 H 883.029 -1.94848 0.0450731 0
M  V30 9131 H 882.125 -2.90197 -1.14857 0
M  V30 9132 N 882.426 0.269451 -1.5528 0
M  V30 9133 C 883.356 1.33729 -1.91413 0
M  V30 9134 C 884.337 1.51348 -0.776391 0
M  V30 9135 O 885.522 1.64332 -1.03482 0
M  V30 9136 C 882.652 2.69618 -2.18914 0
M  V30 9137 C 881.606 2.66725 -3.34726 0
M  V30 9138 C 880.932 4.06199 -3.47716 0
M  V30 9139 C 882.232 2.25684 -4.71025 0
M  V30 9140 H 883.926 1.03736 -2.80854 0
M  V30 9141 H 881.472 0.497579 -1.3513 0
M  V30 9142 H 883.425 3.44436 -2.42779 0
M  V30 9143 H 882.149 3.01201 -1.26275 0
M  V30 9144 H 880.808 1.94365 -3.10834 0
M  V30 9145 H 880.456 4.3501 -2.52537 0
M  V30 9146 H 880.156 4.05157 -4.25583 0
M  V30 9147 H 881.68 4.8275 -3.73877 0
M  V30 9148 H 883.094 2.90225 -4.94411 0
M  V30 9149 H 881.491 2.35797 -5.51833 0
M  V30 9150 H 882.561 1.20819 -4.69607 0
M  V30 9151 N 883.904 1.48273 0.534124 0
M  V30 9152 C 885.153 1.55334 1.28663 0
M  V30 9153 C 885.466 0.230345 1.94239 0
M  V30 9154 O 886.672 0.179161 2.70908 0
M  V30 9155 C 885.128 2.73927 2.33435 0
M  V30 9156 C 884.736 4.12852 1.73947 0
M  V30 9157 C 886.48 2.90298 3.09722 0
M  V30 9158 C 884.387 5.22711 2.76636 0
M  V30 9159 H 883.317 0.578262 0.483869 0
M  V30 9160 H 885.968 1.74598 0.564602 0
M  V30 9161 H 884.35 2.48089 3.08655 0
M  V30 9162 H 885.524 4.48691 1.04944 0
M  V30 9163 H 883.839 4.01562 1.10167 0
M  V30 9164 H 886.436 3.69542 3.86449 0
M  V30 9165 H 886.779 1.99598 3.6533 0
M  V30 9166 H 887.312 3.16017 2.41616 0
M  V30 9167 H 884.051 6.15362 2.25852 0
M  V30 9168 H 883.571 4.91364 3.43979 0
M  V30 9169 H 885.25 5.50648 3.39699 0
M  V30 9170 N 885.382 -0.782676 1.36792 0
M  V30 9171 C 886.607 -1.57676 1.34733 0
M  V30 9172 C 887.032 -1.87979 -0.0675253 0
M  V30 9173 O 886.39 -1.48404 -1.04144 0
M  V30 9174 C 886.438 -2.87047 2.18257 0
M  V30 9175 O 885.542 -3.80946 1.57969 0
M  V30 9176 H 884.883 -0.478034 0.460846 0
M  V30 9177 H 887.413 -0.969578 1.80168 0
M  V30 9178 H 887.423 -3.36254 2.31079 0
M  V30 9179 H 886.098 -2.64319 3.21104 0
M  V30 9180 H 884.675 -3.39558 1.54126 0
M  V30 9181 N 886.86 -1.21182 -1.00761 0
M  V30 9182 C 888.106 -1.02898 -1.74756 0
M  V30 9183 C 888.439 0.436774 -1.89225 0
M  V30 9184 O 887.714 1.32415 -1.42466 0
M  V30 9185 C 887.997 -1.72372 -3.16164 0
M  V30 9186 C 887.85 -3.2645 -3.09435 0
M  V30 9187 C 889.169 -1.46415 -4.15031 0
M  V30 9188 H 886.288 -0.375214 -0.634337 0
M  V30 9189 H 888.93 -1.49321 -1.17487 0
M  V30 9190 H 887.08 -1.32906 -3.65059 0
M  V30 9191 H 888.752 -3.75269 -2.68274 0
M  V30 9192 H 886.995 -3.56889 -2.46603 0
M  V30 9193 H 887.666 -3.70226 -4.09435 0
M  V30 9194 H 890.142 -1.80671 -3.7483 0
M  V30 9195 H 889.018 -1.97544 -5.12121 0
M  V30 9196 H 889.279 -0.39361 -4.40344 0
M  V30 9197 N 888.338 1.20213 -1.01915 0
M  V30 9198 C 889.585 1.89647 -0.709955 0
M  V30 9199 C 889.913 1.7901 0.760631 0
M  V30 9200 O 889.168 1.17028 1.56853 0
M  V30 9201 C 889.467 3.40232 -1.09438 0
M  V30 9202 C 889.133 3.7107 -2.5616 0
M  V30 9203 C 887.795 3.79196 -2.96249 0
M  V30 9204 C 890.147 3.85169 -3.51133 0
M  V30 9205 C 887.475 3.98882 -4.30244 0
M  V30 9206 C 889.827 4.06365 -4.8482 0
M  V30 9207 C 888.491 4.12722 -5.24611 0
M  V30 9208 H 887.761 0.693967 -0.259791 0
M  V30 9209 H 890.408 1.42419 -1.2802 0
M  V30 9210 H 888.713 3.89292 -0.442596 0
M  V30 9211 H 890.41 3.92257 -0.832811 0
M  V30 9212 H 887 3.65346 -2.24099 0
M  V30 9213 H 891.184 3.78243 -3.21319 0
M  V30 9214 H 886.44 4.02039 -4.60624 0
M  V30 9215 H 890.614 4.16216 -5.58334 0
M  V30 9216 H 888.241 4.27728 -6.28453 0
M  V30 9217 N 889.816 0.795718 1.36037 0
M  V30 9218 C 891.041 0.38204 2.03851 0
M  V30 9219 C 891.466 -0.995553 1.59594 0
M  V30 9220 O 890.824 -1.64258 0.767401 0
M  V30 9221 C 890.872 0.461248 3.57638 0
M  V30 9222 O 889.976 -0.529448 4.08987 0
M  V30 9223 H 889.317 0.161227 0.644129 0
M  V30 9224 H 891.847 1.07858 1.73861 0
M  V30 9225 H 891.857 0.32712 4.06687 0
M  V30 9226 H 890.532 1.46613 3.89201 0
M  V30 9227 H 889.109 -0.35646 3.71192 0
M  V30 9228 N 891.294 -1.47756 0.548274 0
M  V30 9229 C 892.705 -1.8636 0.112547 0
M  V30 9230 C 893.056 -1.45589 -1.31523 0
M  V30 9231 O 892.181 -0.854874 -1.98799 0
M  V30 9232 C 892.776 -3.38224 0.197473 0
M  V30 9233 C 891.335 -3.75954 -0.183163 0
M  V30 9234 C 890.482 -2.7181 0.549059 0
M  V30 9235 H 893.433 -1.394 0.758506 0
M  V30 9236 H 893.454 -3.75957 -0.586217 0
M  V30 9237 H 892.966 -3.67868 1.23673 0
M  V30 9238 H 891.067 -3.51926 -1.22387 0
M  V30 9239 H 891.18 -4.78801 0.169178 0
M  V30 9240 H 889.544 -2.54699 -0.00682862 0
M  V30 9241 H 890.327 -3.04296 1.5893 0
M  V30 9242 N 892.772 -0.284283 -1.55015 0
M  V30 9243 C 893.702 0.592663 -2.25853 0
M  V30 9244 C 894.683 1.15151 -1.25197 0
M  V30 9245 O 895.868 1.18395 -1.53936 0
M  V30 9246 C 892.998 1.77254 -2.98661 0
M  V30 9247 C 891.952 1.34482 -4.06323 0
M  V30 9248 C 891.278 2.60853 -4.66754 0
M  V30 9249 C 892.578 0.488288 -5.20013 0
M  V30 9250 H 894.272 0.00187041 -2.994 0
M  V30 9251 H 891.818 -0.000540402 -1.44 0
M  V30 9252 H 893.771 2.39199 -3.46932 0
M  V30 9253 H 892.495 2.38931 -2.22664 0
M  V30 9254 H 891.154 0.748519 -3.58877 0
M  V30 9255 H 890.802 3.20808 -3.87416 0
M  V30 9256 H 890.502 2.32942 -5.39455 0
M  V30 9257 H 892.026 3.23631 -5.1778 0
M  V30 9258 H 893.44 1.01298 -5.6428 0
M  V30 9259 H 891.837 0.303669 -5.99331 0
M  V30 9260 H 892.907 -0.490727 -4.8241 0
M  V30 9261 N 894.251 1.57596 -0.0117121 0
M  V30 9262 C 895.5 1.9025 0.669921 0
M  V30 9263 C 895.813 0.887986 1.74282 0
M  V30 9264 O 897.019 1.10516 2.47989 0
M  V30 9265 C 895.475 3.37762 1.24277 0
M  V30 9266 C 895.083 4.47535 0.204076 0
M  V30 9267 C 896.827 3.79509 1.90192 0
M  V30 9268 C 894.734 5.86132 0.787577 0
M  V30 9269 H 893.664 0.709935 0.253984 0
M  V30 9270 H 896.315 1.8335 -0.0741718 0
M  V30 9271 H 894.697 3.39537 2.03791 0
M  V30 9272 H 895.871 4.57294 -0.56733 0
M  V30 9273 H 894.186 4.14881 -0.355305 0
M  V30 9274 H 896.783 4.80402 2.34773 0
M  V30 9275 H 897.126 3.13643 2.7374 0
M  V30 9276 H 897.659 3.80084 1.17394 0
M  V30 9277 H 894.398 6.55499 -0.00938418 0
M  V30 9278 H 893.918 5.80014 1.52787 0
M  V30 9279 H 895.597 6.34158 1.28265 0
M  V30 9280 N 895.729 -0.261212 1.5542 0
M  V30 9281 C 896.978 -0.989072 1.75785 0
M  V30 9282 C 897.291 -1.8702 0.572961 0
M  V30 9283 O 898.497 -2.63374 0.659289 0
M  V30 9284 C 896.953 -1.80857 3.11157 0
M  V30 9285 C 896.561 -0.975535 4.3725 0
M  V30 9286 C 898.305 -2.53003 3.40866 0
M  V30 9287 C 896.212 -1.7901 5.63657 0
M  V30 9288 H 895.142 -0.373019 0.655266 0
M  V30 9289 H 897.793 -0.244267 1.81867 0
M  V30 9290 H 896.175 -2.59479 2.99144 0
M  V30 9291 H 897.349 -0.232661 4.60212 0
M  V30 9292 H 895.664 -0.368083 4.1477 0
M  V30 9293 H 898.261 -3.14372 4.32521 0
M  V30 9294 H 898.604 -3.23891 2.61535 0
M  V30 9295 H 899.137 -1.81403 3.54031 0
M  V30 9296 H 895.876 -1.12522 6.4577 0
M  V30 9297 H 895.396 -2.50863 5.44819 0
M  V30 9298 H 897.075 -2.36082 6.0239 0
M  V30 9299 N 897.207 -1.48554 -0.526253 0
M  V30 9300 C 898.455 -1.56452 -1.27935 0
M  V30 9301 C 898.776 -0.24184 -1.93495 0
M  V30 9302 O 898.046 0.736917 -1.81511 0
M  V30 9303 H 896.626 -0.576379 -0.47518 0
M  V30 9304 H 899.288 -1.85039 -0.612083 0
M  V30 9305 H 898.384 -2.34751 -2.05666 0
M  V30 9306 N 898.685 0.775411 -1.37205 0
M  V30 9307 C 899.618 1.8957 -1.27037 0
M  V30 9308 C 900.596 1.61891 -0.151643 0
M  V30 9309 O 901.78 1.85673 -0.325218 0
M  V30 9310 C 898.907 3.24712 -0.963316 0
M  V30 9311 C 897.953 3.71306 -2.09842 0
M  V30 9312 S 898.786 3.8541 -3.71778 0
M  V30 9313 C 899.942 5.23406 -3.43216 0
M  V30 9314 H 900.175 1.97905 -2.21857 0
M  V30 9315 H 897.708 0.936127 -1.22784 0
M  V30 9316 H 899.666 4.02768 -0.792983 0
M  V30 9317 H 898.327 3.14083 -0.0326561 0
M  V30 9318 H 897.52 4.69271 -1.83849 0
M  V30 9319 H 897.122 3.00341 -2.2287 0
M  V30 9320 H 899.414 6.08454 -2.97977 0
M  V30 9321 H 900.357 5.54409 -4.40495 0
M  V30 9322 H 900.765 4.9117 -2.78231 0
M  V30 9323 N 900.163 1.21714 1.00117 0
M  V30 9324 C 901.093 1.00397 2.10815 0
M  V30 9325 C 902.074 -0.0723502 1.69946 0
M  V30 9326 O 903.259 0.0882398 1.93999 0
M  V30 9327 C 900.389 0.572001 3.42557 0
M  V30 9328 C 899.343 1.59331 3.97237 0
M  V30 9329 C 898.669 1.01746 5.2493 0
M  V30 9330 C 899.969 2.98117 4.28863 0
M  V30 9331 H 901.663 1.92983 2.28906 0
M  V30 9332 H 899.209 0.929273 1.10002 0
M  V30 9333 H 901.162 0.410018 4.19401 0
M  V30 9334 H 899.886 -0.38951 3.24269 0
M  V30 9335 H 898.545 1.74293 3.22518 0
M  V30 9336 H 898.193 0.0475491 5.02978 0
M  V30 9337 H 897.893 1.69969 5.62481 0
M  V30 9338 H 899.417 0.866881 6.04415 0
M  V30 9339 H 900.831 2.86578 4.96534 0
M  V30 9340 H 899.228 3.63389 4.77565 0
M  V30 9341 H 900.298 3.48674 3.36979 0
M  V30 9342 N 901.641 -1.19671 1.02551 0
M  V30 9343 C 902.574 -2.21522 0.547998 0
M  V30 9344 C 903.552 -1.57363 -0.409349 0
M  V30 9345 O 904.736 -1.85638 -0.327248 0
M  V30 9346 C 901.863 -3.38101 -0.201375 0
M  V30 9347 C 900.909 -4.20601 0.706886 0
M  V30 9348 S 901.742 -4.89066 2.18116 0
M  V30 9349 C 902.898 -6.09058 1.4422 0
M  V30 9350 H 903.131 -2.61684 1.41099 0
M  V30 9351 H 900.664 -1.29864 0.835153 0
M  V30 9352 H 902.622 -4.05674 -0.627607 0
M  V30 9353 H 901.283 -2.96381 -1.04005 0
M  V30 9354 H 900.476 -5.03836 0.128554 0
M  V30 9355 H 900.078 -3.58329 1.07129 0
M  V30 9356 H 902.37 -6.73588 0.726975 0
M  V30 9357 H 903.313 -6.71368 2.25102 0
M  V30 9358 H 903.721 -5.56599 0.941176 0
M  V30 9359 N 903.119 -0.802921 -1.35613 0
M  V30 9360 C 904.367 -0.380822 -1.9848 0
M  V30 9361 C 904.688 1.05464 -1.6402 0
M  V30 9362 O 903.958 1.72908 -0.920854 0
M  V30 9363 H 902.538 -0.137824 -0.734176 0
M  V30 9364 H 905.2 -1.02795 -1.65587 0
M  V30 9365 H 904.296 -0.483565 -3.08331 0
M  V30 9366 N 904.597 1.47463 -0.556102 0
M  V30 9367 C 905.544 2.29998 0.192213 0
M  V30 9368 C 906.514 1.38993 0.909403 0
M  V30 9369 O 907.699 1.67954 0.905316 0
M  V30 9370 C 904.839 3.22932 1.21692 0
M  V30 9371 C 903.952 4.29027 0.505908 0
M  V30 9372 C 903.087 5.09114 1.51581 0
M  V30 9373 C 902.126 6.06984 0.789714 0
M  V30 9374 N 901.263 6.80033 1.74639 0
M  V30 9375 H 906.103 2.93468 -0.517734 0
M  V30 9376 H 903.64 1.44654 -0.267147 0
M  V30 9377 H 905.598 3.75234 1.8236 0
M  V30 9378 H 904.228 2.61329 1.89491 0
M  V30 9379 H 903.28 3.7979 -0.215276 0
M  V30 9380 H 904.592 4.9876 -0.062958 0
M  V30 9381 H 903.746 5.6556 2.19606 0
M  V30 9382 H 902.485 4.3928 2.11859 0
M  V30 9383 H 901.49 5.49717 0.0955382 0
M  V30 9384 H 902.715 6.78827 0.192688 0
M  V30 9385 H 900.661 6.12931 2.33777 0
M  V30 9386 H 900.578 7.45933 1.22965 0
M  V30 9387 H 901.846 7.41054 2.41782 0
M  V30 9388 N 906.075 0.2925 1.54862 0
M  V30 9389 C 907.305 -0.321646 2.04081 0
M  V30 9390 C 907.713 -1.48712 1.16967 0
M  V30 9391 O 907.056 -1.82755 0.18609 0
M  V30 9392 C 907.118 -0.848678 3.49339 0
M  V30 9393 C 906.782 0.190416 4.56603 0
M  V30 9394 C 907.779 1.01595 5.09877 0
M  V30 9395 C 905.464 0.329666 5.01217 0
M  V30 9396 C 907.458 1.96676 6.06298 0
M  V30 9397 C 905.145 1.28393 5.9746 0
M  V30 9398 C 906.143 2.10097 6.49883 0
M  V30 9399 O 905.831 3.03907 7.44242 0
M  V30 9400 H 905.563 -0.075098 0.671816 0
M  V30 9401 H 908.117 0.427531 2.00901 0
M  V30 9402 H 906.347 -1.64823 3.49815 0
M  V30 9403 H 908.036 -1.37779 3.81801 0
M  V30 9404 H 908.802 0.919197 4.7621 0
M  V30 9405 H 904.681 -0.296317 4.60047 0
M  V30 9406 H 908.225 2.60488 6.47141 0
M  V30 9407 H 904.122 1.38144 6.30545 0
M  V30 9408 H 904.89 2.98787 7.62016 0
M  V30 9409 N 907.553 -1.57587 0.0200696 0
M  V30 9410 C 908.516 -2.08595 -0.949767 0
M  V30 9411 C 909.516 -0.999215 -1.25985 0
M  V30 9412 O 910.706 -1.26115 -1.2017 0
M  V30 9413 C 907.838 -2.54424 -2.26895 0
M  V30 9414 H 909.031 -2.95563 -0.508161 0
M  V30 9415 H 906.584 -1.54631 -0.227798 0
M  V30 9416 H 907.319 -1.70758 -2.75703 0
M  V30 9417 H 907.104 -3.3381 -2.05702 0
M  V30 9418 H 908.594 -2.94144 -2.96427 0
M  V30 9419 N 909.032 0.252966 -1.55557 0
M  V30 9420 C 910.26 0.999565 -1.81153 0
M  V30 9421 C 910.675 1.79181 -0.594955 0
M  V30 9422 O 910.032 1.77208 0.436311 0
M  V30 9423 C 910.083 1.94227 -3.04891 0
M  V30 9424 O 909.804 1.18209 -4.21851 0
M  V30 9425 C 911.305 2.80536 -3.43241 0
M  V30 9426 H 908.525 0.294402 -0.602966 0
M  V30 9427 H 911.069 0.277686 -2.02606 0
M  V30 9428 H 909.224 2.6185 -2.85505 0
M  V30 9429 H 909.638 1.81922 -4.9194 0
M  V30 9430 H 911.112 3.42442 -4.32941 0
M  V30 9431 H 911.589 3.51337 -2.6355 0
M  V30 9432 H 912.195 2.18373 -3.64956 0
M  V30 9433 N 910.51 1.48831 0.518367 0
M  V30 9434 C 911.473 1.63721 1.604 0
M  V30 9435 C 912.473 0.509857 1.52503 0
M  V30 9436 O 913.663 0.775922 1.55965 0
M  V30 9437 C 910.795 1.61831 3.00039 0
M  V30 9438 H 911.988 2.60534 1.48533 0
M  V30 9439 H 909.541 1.37602 0.741309 0
M  V30 9440 H 910.276 0.665387 3.17401 0
M  V30 9441 H 910.061 2.43686 3.0718 0
M  V30 9442 H 911.551 1.75467 3.78947 0
M  V30 9443 N 911.988 -0.768124 1.37614 0
M  V30 9444 C 913.236 -1.52379 1.3276 0
M  V30 9445 C 913.557 -1.94809 -0.0863564 0
M  V30 9446 O 912.827 -1.66568 -1.03112 0
M  V30 9447 H 911.407 -0.565179 0.488448 0
M  V30 9448 H 914.069 -0.913974 1.72141 0
M  V30 9449 H 913.165 -2.4215 1.96901 0
M  V30 9450 N 913.466 -1.22244 -0.994698 0
M  V30 9451 C 914.396 -1.01513 -2.10279 0
M  V30 9452 C 915.377 0.0633365 -1.69982 0
M  V30 9453 O 916.562 -0.0985268 -1.9395 0
M  V30 9454 C 913.692 -0.59016 -3.42249 0
M  V30 9455 C 912.646 -1.61436 -3.96387 0
M  V30 9456 C 911.972 -1.04528 -5.24383 0
M  V30 9457 C 913.272 -3.00388 -4.27276 0
M  V30 9458 H 914.966 -1.94194 -2.2788 0
M  V30 9459 H 912.512 -0.935094 -1.09508 0
M  V30 9460 H 914.465 -0.432254 -4.19177 0
M  V30 9461 H 913.189 0.372308 -3.24471 0
M  V30 9462 H 911.848 -1.76001 -3.21589 0
M  V30 9463 H 911.496 -0.0742225 -5.02945 0
M  V30 9464 H 911.196 -1.72949 -5.61571 0
M  V30 9465 H 912.72 -0.898922 -6.03947 0
M  V30 9466 H 914.134 -2.89207 -4.95007 0
M  V30 9467 H 912.531 -3.65916 -4.75631 0
M  V30 9468 H 913.601 -3.50456 -3.35125 0
M  V30 9469 N 914.944 1.19125 -1.03184 0
M  V30 9470 C 915.874 2.24675 -0.635889 0
M  V30 9471 C 916.855 1.66321 0.356565 0
M  V30 9472 O 918.04 1.92728 0.238625 0
M  V30 9473 C 915.17 3.47298 0.011069 0
M  V30 9474 C 914.124 4.18345 -0.903979 0
M  V30 9475 C 913.45 5.34561 -0.12197 0
M  V30 9476 C 914.75 4.72816 -2.21907 0
M  V30 9477 H 916.444 2.5805 -1.51825 0
M  V30 9478 H 913.99 1.24039 -0.73146 0
M  V30 9479 H 915.943 4.20333 0.299729 0
M  V30 9480 H 914.667 3.13131 0.928245 0
M  V30 9481 H 913.326 3.47196 -1.17688 0
M  V30 9482 H 912.974 4.9664 0.797334 0
M  V30 9483 H 912.674 5.83029 -0.731498 0
M  V30 9484 H 914.198 6.10391 0.159881 0
M  V30 9485 H 915.612 5.3759 -1.99173 0
M  V30 9486 H 914.009 5.31782 -2.78078 0
M  V30 9487 H 915.079 3.9072 -2.87168 0
M  V30 9488 N 916.422 0.810101 1.35185 0
M  V30 9489 C 917.671 0.388589 1.97921 0
M  V30 9490 C 917.984 -1.05079 1.64978 0
M  V30 9491 O 919.19 -1.57559 2.21105 0
M  V30 9492 C 917.646 0.643864 3.54094 0
M  V30 9493 C 917.254 2.09602 3.95943 0
M  V30 9494 C 918.998 0.287883 4.23523 0
M  V30 9495 C 916.905 2.29686 5.44976 0
M  V30 9496 H 915.835 0.141562 0.740592 0
M  V30 9497 H 918.486 0.994653 1.54204 0
M  V30 9498 H 916.868 -0.0321978 3.95987 0
M  V30 9499 H 918.042 2.81018 3.65192 0
M  V30 9500 H 916.357 2.4122 3.39414 0
M  V30 9501 H 918.954 0.415946 5.3308 0
M  V30 9502 H 919.297 -0.766305 4.09186 0
M  V30 9503 H 919.83 0.918004 3.87063 0
M  V30 9504 H 916.569 3.33563 5.64284 0
M  V30 9505 H 916.089 1.62798 5.77284 0
M  V30 9506 H 917.768 2.11411 6.11485 0
M  V30 9507 N 917.9 -1.47166 0.563914 0
M  V30 9508 C 919.148 -2.02056 0.0422873 0
M  V30 9509 C 919.469 -1.43992 -1.31497 0
M  V30 9510 O 918.739 -0.617578 -1.85911 0
M  V30 9511 H 917.319 -0.746893 0.0126427 0
M  V30 9512 H 919.981 -1.80492 0.735441 0
M  V30 9513 H 919.077 -3.12073 -0.0408044 0
M  V30 9514 N 919.378 -0.300708 -1.54705 0
M  V30 9515 C 920.627 0.309428 -1.99312 0
M  V30 9516 C 920.94 1.55027 -1.19272 0
M  V30 9517 O 922.146 2.23498 -1.54146 0
M  V30 9518 C 920.602 0.601856 -3.54832 0
M  V30 9519 C 920.21 -0.620636 -4.4368 0
M  V30 9520 C 921.954 1.1732 -4.07966 0
M  V30 9521 C 919.861 -0.301376 -5.90632 0
M  V30 9522 H 918.791 0.119395 -0.744487 0
M  V30 9523 H 921.442 -0.409368 -1.78875 0
M  V30 9524 H 919.824 1.38024 -3.71168 0
M  V30 9525 H 920.998 -1.39685 -4.39118 0
M  V30 9526 H 919.313 -1.1106 -4.01316 0
M  V30 9527 H 921.91 1.42631 -5.15326 0
M  V30 9528 H 922.253 2.11537 -3.5855 0
M  V30 9529 H 922.786 0.456534 -3.95172 0
M  V30 9530 H 919.525 -1.21209 -6.44196 0
M  V30 9531 H 919.045 0.437574 -5.98202 0
M  V30 9532 H 920.724 0.097164 -6.46927 0
M  V30 9533 N 920.856 1.57574 -0.0284266 0
M  V30 9534 C 922.105 1.9095 0.649704 0
M  V30 9535 C 922.418 0.906421 1.7333 0
M  V30 9536 O 923.624 1.1314 2.46803 0
M  V30 9537 C 922.08 3.39061 1.20687 0
M  V30 9538 C 921.688 4.47726 0.156597 0
M  V30 9539 C 923.432 3.81505 1.86156 0
M  V30 9540 C 921.339 5.86935 0.725365 0
M  V30 9541 H 920.269 0.712589 0.24644 0
M  V30 9542 H 922.92 1.83261 -0.0936143 0
M  V30 9543 H 921.302 3.41679 2.00178 0
M  V30 9544 H 922.476 4.56667 -0.6158 0
M  V30 9545 H 920.791 4.14481 -0.399288 0
M  V30 9546 H 923.388 4.82865 2.29665 0
M  V30 9547 H 923.731 3.16529 2.70398 0
M  V30 9548 H 924.264 3.81307 1.13356 0
M  V30 9549 H 921.003 6.55453 -0.0789081 0
M  V30 9550 H 920.523 5.81602 1.46627 0
M  V30 9551 H 922.202 6.35483 1.21532 0
M  V30 9552 N 922.334 -0.244713 1.55689 0
M  V30 9553 C 923.264 -1.30667 1.93516 0
M  V30 9554 C 924.245 -1.50094 0.800371 0
M  V30 9555 O 925.43 -1.62665 1.06083 0
M  V30 9556 C 922.56 -2.66101 2.23176 0
M  V30 9557 C 921.514 -2.61366 3.38927 0
M  V30 9558 C 920.84 -4.00616 3.54134 0
M  V30 9559 C 922.14 -2.18161 4.74555 0
M  V30 9560 H 923.834 -0.992546 2.82469 0
M  V30 9561 H 921.38 -0.476018 1.35905 0
M  V30 9562 H 923.333 -3.4053 2.48228 0
M  V30 9563 H 922.057 -2.99154 1.31051 0
M  V30 9564 H 920.716 -1.89395 3.13887 0
M  V30 9565 H 920.364 -4.30938 2.59426 0
M  V30 9566 H 920.064 -3.98335 4.31975 0
M  V30 9567 H 921.588 -4.76741 3.8151 0
M  V30 9568 H 923.002 -2.82323 4.98965 0
M  V30 9569 H 921.399 -2.26988 5.55515 0
M  V30 9570 H 922.469 -1.13333 4.7147 0
M  V30 9571 N 923.813 -1.49104 -0.510467 0
M  V30 9572 C 925.038 -1.62068 -1.29417 0
M  V30 9573 C 925.463 -0.288432 -1.85875 0
M  V30 9574 O 924.821 0.742667 -1.65391 0
M  V30 9575 C 924.869 -2.68506 -2.40701 0
M  V30 9576 O 923.973 -2.27021 -3.4429 0
M  V30 9577 H 923.314 -0.542778 -0.382476 0
M  V30 9578 H 925.844 -1.95228 -0.612154 0
M  V30 9579 H 925.854 -2.90383 -2.86604 0
M  V30 9580 H 924.529 -3.65216 -1.98973 0
M  V30 9581 H 923.106 -2.15436 -3.04371 0
M  V30 9582 N 925.291 0.760815 -1.38019 0
M  V30 9583 C 926.539 1.51673 -1.33566 0
M  V30 9584 C 926.86 1.94852 0.076024 0
M  V30 9585 O 926.13 1.67112 1.02227 0
M  V30 9586 H 924.71 0.562581 -0.491438 0
M  V30 9587 H 927.372 0.904832 -1.72623 0
M  V30 9588 H 926.468 2.41102 -1.98182 0
M  V30 9589 N 926.769 1.22769 0.988202 0
M  V30 9590 C 928.018 1.0492 1.72263 0
M  V30 9591 C 928.331 -0.415282 1.91141 0
M  V30 9592 O 929.537 -0.713547 2.61956 0
M  V30 9593 C 927.993 1.82891 3.09966 0
M  V30 9594 C 927.601 3.33618 2.99003 0
M  V30 9595 C 929.345 1.73505 3.87423 0
M  V30 9596 C 927.252 4.04012 4.3189 0
M  V30 9597 H 926.182 0.38899 0.645912 0
M  V30 9598 H 928.833 1.46664 1.10281 0
M  V30 9599 H 927.215 1.33948 3.72658 0
M  V30 9600 H 928.389 3.8999 2.45448 0
M  V30 9601 H 926.704 3.43732 2.35027 0
M  V30 9602 H 929.301 2.23416 4.85787 0
M  V30 9603 H 929.644 0.696344 4.10435 0
M  V30 9604 H 930.177 2.20016 3.31418 0
M  V30 9605 H 926.916 5.08155 4.14075 0
M  V30 9606 H 926.436 3.52428 4.8534 0
M  V30 9607 H 928.115 4.0987 5.00615 0
M  V30 9608 N 928.247 -1.18576 1.03814 0
M  V30 9609 C 929.179 -2.21607 0.585055 0
M  V30 9610 C 930.192 -1.59125 -0.343963 0
M  V30 9611 O 931.381 -1.77959 -0.138882 0
M  V30 9612 C 928.481 -3.38495 -0.165602 0
M  V30 9613 C 927.654 -4.30557 0.770662 0
M  V30 9614 C 926.713 -5.26161 0.0637534 0
M  V30 9615 O 925.739 -5.64961 0.693359 0
M  V30 9616 N 926.941 -5.67882 -1.20377 0
M  V30 9617 H 929.706 -2.61104 1.47121 0
M  V30 9618 H 927.267 -1.33336 0.918316 0
M  V30 9619 H 929.259 -3.99474 -0.648292 0
M  V30 9620 H 927.829 -2.97711 -0.953268 0
M  V30 9621 H 927.049 -3.67221 1.43326 0
M  V30 9622 H 928.337 -4.88969 1.40667 0
M  V30 9623 H 927.735 -5.38409 -1.73586 0
M  V30 9624 H 926.292 -6.31069 -1.63079 0
M  V30 9625 N 929.725 -0.817259 -1.34754 0
M  V30 9626 C 930.655 -0.249769 -2.3216 0
M  V30 9627 C 931.636 0.630663 -1.57977 0
M  V30 9628 O 932.821 0.558719 -1.85989 0
M  V30 9629 C 929.951 0.593825 -3.42186 0
M  V30 9630 C 928.905 -0.188997 -4.27583 0
M  V30 9631 C 928.231 0.776979 -5.29025 0
M  V30 9632 C 929.531 -1.39401 -5.03354 0
M  V30 9633 H 931.225 -1.06359 -2.79872 0
M  V30 9634 H 928.771 -0.512894 -1.34556 0
M  V30 9635 H 930.724 1.00097 -4.09339 0
M  V30 9636 H 929.448 1.44064 -2.93109 0
M  V30 9637 H 928.107 -0.577445 -3.62024 0
M  V30 9638 H 927.755 1.61959 -4.76212 0
M  V30 9639 H 927.455 0.257448 -5.87036 0
M  V30 9640 H 928.979 1.18211 -5.99048 0
M  V30 9641 H 930.393 -1.06117 -5.63393 0
M  V30 9642 H 928.79 -1.84878 -5.70912 0
M  V30 9643 H 929.86 -2.17515 -4.33377 0
M  V30 9644 N 931.203 1.46865 -0.571711 0
M  V30 9645 C 932.166 2.28658 0.157499 0
M  V30 9646 C 933.166 1.37773 0.829172 0
M  V30 9647 O 934.356 1.6026 0.682811 0
M  V30 9648 C 931.488 3.17859 1.23202 0
M  V30 9649 H 932.681 2.94603 -0.561171 0
M  V30 9650 H 930.234 1.52793 -0.329229 0
M  V30 9651 H 930.969 2.56637 1.98262 0
M  V30 9652 H 930.754 3.84762 0.755031 0
M  V30 9653 H 932.244 3.7945 1.74378 0
M  V30 9654 N 932.681 0.308908 1.54543 0
M  V30 9655 C 933.928 -0.298036 2.00295 0
M  V30 9656 C 934.256 -1.53285 1.19724 0
M  V30 9657 O 933.511 -1.93917 0.263551 0
M  V30 9658 C 933.81 -0.691522 3.50646 0
M  V30 9659 C 933.476 0.442454 4.48724 0
M  V30 9660 C 932.138 0.753739 4.7526 0
M  V30 9661 C 934.49 1.20488 5.07082 0
M  V30 9662 C 931.818 1.83044 5.57415 0
M  V30 9663 C 934.17 2.27156 5.90409 0
M  V30 9664 C 932.834 2.58882 6.15253 0
M  V30 9665 H 932.104 -0.109059 0.73293 0
M  V30 9666 H 934.751 0.429647 1.86618 0
M  V30 9667 H 933.056 -1.49941 3.61974 0
M  V30 9668 H 934.753 -1.17244 3.83477 0
M  V30 9669 H 931.343 0.189744 4.2818 0
M  V30 9670 H 935.527 0.977653 4.86575 0
M  V30 9671 H 930.783 2.08088 5.749 0
M  V30 9672 H 934.957 2.86687 6.34652 0
M  V30 9673 H 932.584 3.42443 6.78702 0
M  V30 9674 N 934.159 -1.57557 0.0367827 0
M  V30 9675 C 935.384 -1.96828 -0.653707 0
M  V30 9676 C 935.809 -0.913559 -1.64425 0
M  V30 9677 O 935.167 0.124749 -1.8087 0
M  V30 9678 C 935.215 -3.35189 -1.32969 0
M  V30 9679 O 934.319 -3.32095 -2.44513 0
M  V30 9680 H 933.66 -0.64157 -0.171124 0
M  V30 9681 H 936.19 -2.04351 0.100912 0
M  V30 9682 H 936.2 -3.71593 -1.68472 0
M  V30 9683 H 934.875 -4.11496 -0.603654 0
M  V30 9684 H 933.452 -3.07418 -2.11065 0
M  V30 9685 N 935.637 0.236453 -1.55816 0
M  V30 9686 C 936.862 0.98449 -1.82545 0
M  V30 9687 C 937.287 1.77755 -0.615206 0
M  V30 9688 O 936.645 1.75982 0.435895 0
M  V30 9689 C 936.693 1.88973 -3.07118 0
M  V30 9690 O 935.797 2.98298 -2.84766 0
M  V30 9691 H 935.138 0.279577 -0.602273 0
M  V30 9692 H 937.668 0.254277 -2.03014 0
M  V30 9693 H 937.678 2.3024 -3.36829 0
M  V30 9694 H 936.353 1.30671 -3.94839 0
M  V30 9695 H 934.93 2.61085 -2.6625 0
M  V30 9696 N 937.115 1.49373 0.502552 0
M  V30 9697 C 938.343 1.62488 1.28084 0
M  V30 9698 C 938.758 0.295667 1.86471 0
M  V30 9699 O 938.115 -0.718664 1.67754 0
M  V30 9700 C 938.166 2.69249 2.4122 0
M  V30 9701 O 937.887 3.97014 1.85234 0
M  V30 9702 C 939.388 2.93054 3.32617 0
M  V30 9703 H 936.608 0.547068 0.388533 0
M  V30 9704 H 939.152 1.95394 0.603452 0
M  V30 9705 H 937.307 2.39125 3.04792 0
M  V30 9706 H 937.721 4.55809 2.59496 0
M  V30 9707 H 939.195 3.71493 4.08285 0
M  V30 9708 H 939.672 2.02911 3.89517 0
M  V30 9709 H 940.278 3.24589 2.74813 0
M  V30 9710 N 938.594 -0.753485 1.38421 0
M  V30 9711 C 939.542 -1.8886 1.35774 0
M  V30 9712 C 940.536 -1.67639 0.243608 0
M  V30 9713 O 941.742 -1.75206 0.412649 0
M  V30 9714 H 938.117 -0.62137 0.42356 0
M  V30 9715 H 940.088 -1.88209 2.3156 0
M  V30 9716 C 938.837 -3.26344 1.19979 0
M  V30 9717 H 938.16 -3.43259 2.04971 0
M  V30 9718 H 939.6 -4.06015 1.22181 0
M  V30 9719 C 938.059 -3.36771 -0.0932867 0
M  V30 9720 O 938.589 -3.8718 -1.07027 0
M  V30 9721 N 936.795 -2.90212 -0.150154 0
M  V30 9722 H 936.342 -2.4938 0.645562 0
M  V30 9723 H 936.3 -2.97569 -1.0149 0
M  V30 9724 N 940.072 -1.23292 -0.981677 0
M  V30 9725 C 941.297 -1.09176 -1.76339 0
M  V30 9726 C 941.722 0.352726 -1.84763 0
M  V30 9727 O 941.08 1.25509 -1.30832 0
M  V30 9728 C 941.128 -1.72046 -3.16911 0
M  V30 9729 O 940.232 -0.98174 -4.00544 0
M  V30 9730 H 939.573 -0.382755 -0.542581 0
M  V30 9731 H 942.103 -1.63319 -1.23239 0
M  V30 9732 H 942.113 -1.77232 -3.67495 0
M  V30 9733 H 940.788 -2.77154 -3.10095 0
M  V30 9734 H 939.365 -1.00672 -3.59054 0
M  V30 9735 N 941.55 1.18024 -1.04442 0
M  V30 9736 C 942.798 1.87727 -0.74854 0
M  V30 9737 C 943.119 1.80975 0.726156 0
M  V30 9738 O 942.389 1.23061 1.52423 0
M  V30 9739 H 940.969 0.694974 -0.273897 0
M  V30 9740 H 943.631 1.43213 -1.32197 0
M  V30 9741 H 942.727 2.93665 -1.05674 0
M  V30 9742 N 943.028 0.824394 1.34319 0
M  V30 9743 C 944.276 0.41235 1.97849 0
M  V30 9744 C 944.597 -1.02841 1.65677 0
M  V30 9745 O 943.867 -1.71421 0.948245 0
M  V30 9746 H 942.447 0.149486 0.73189 0
M  V30 9747 H 945.109 1.05416 1.63931 0
M  V30 9748 H 944.205 0.532557 3.07523 0
M  V30 9749 N 944.506 -1.46559 0.579492 0
M  V30 9750 C 945.469 -2.28739 -0.145371 0
M  V30 9751 C 946.469 -1.38211 -0.821854 0
M  V30 9752 O 947.659 -1.6062 -0.674302 0
M  V30 9753 C 944.791 -3.18507 -1.21515 0
M  V30 9754 H 945.984 -2.94301 0.576786 0
M  V30 9755 H 943.537 -1.52616 0.337327 0
M  V30 9756 H 944.272 -2.57685 -1.96899 0
M  V30 9757 H 944.057 -3.85157 -0.734616 0
M  V30 9758 H 945.547 -3.80369 -1.72363 0
M  V30 9759 N 945.984 -0.3171 -1.54377 0
M  V30 9760 C 947.23 0.280631 -2.01455 0
M  V30 9761 C 947.585 1.50282 -1.20138 0
M  V30 9762 O 946.878 1.89634 -0.273785 0
M  V30 9763 C 947.072 0.672917 -3.51008 0
M  V30 9764 C 946.901 -0.509709 -4.46802 0
M  V30 9765 C 945.671 -1.00679 -4.95168 0
M  V30 9766 C 947.869 -1.35984 -4.95997 0
M  V30 9767 N 945.851 -2.1545 -5.74852 0
M  V30 9768 C 947.222 -2.35481 -5.73541 0
M  V30 9769 C 949.277 -1.38836 -4.78152 0
M  V30 9770 C 947.98 -3.37625 -6.35139 0
M  V30 9771 C 950.006 -2.39847 -5.40581 0
M  V30 9772 C 949.368 -3.38071 -6.1797 0
M  V30 9773 H 945.467 0.0667107 -0.779149 0
M  V30 9774 H 948.051 -0.450672 -1.89412 0
M  V30 9775 H 946.222 1.37336 -3.63309 0
M  V30 9776 H 947.954 1.25156 -3.84861 0
M  V30 9777 H 944.709 -0.579125 -4.70046 0
M  V30 9778 H 945.133 -2.73324 -6.19373 0
M  V30 9779 H 949.775 -0.642643 -4.17887 0
M  V30 9780 H 947.493 -4.13106 -6.94528 0
M  V30 9781 H 951.079 -2.42847 -5.28693 0
M  V30 9782 H 949.959 -4.14953 -6.6542 0
M  V30 9783 N 947.462 1.57535 -0.0451378 0
M  V30 9784 C 948.739 1.83785 0.669523 0
M  V30 9785 C 949.119 0.932331 1.89396 0
M  V30 9786 O 948.467 -0.00813229 2.28499 0
M  V30 9787 C 948.677 3.33376 1.03255 0
M  V30 9788 C 950.025 4.00243 1.41741 0
M  V30 9789 O 951.049 3.37965 1.12507 0
M  V30 9790 O 949.908 5.10038 1.96275 0
M  V30 9791 H 947.002 0.758342 0.329919 0
M  V30 9792 H 949.548 1.69538 -0.0740415 0
M  V30 9793 H 948.32 3.90965 0.161777 0
M  V30 9794 H 947.943 3.52787 1.83376 0
M  V30 9795 N 948.94 -0.228186 1.55939 0
M  V30 9796 C 949.888 -1.30239 1.92719 0
M  V30 9797 C 950.882 -1.48865 0.808424 0
M  V30 9798 O 952.088 -1.50118 0.993204 0
M  V30 9799 H 948.463 -0.436509 0.612343 0
M  V30 9800 H 950.434 -0.964965 2.82367 0
M  V30 9801 C 949.183 -2.647 2.25453 0
M  V30 9802 H 948.506 -2.51173 3.1105 0
M  V30 9803 H 949.946 -3.38691 2.55077 0
M  V30 9804 C 948.405 -3.1921 1.07734 0
M  V30 9805 O 948.935 -4.00301 0.335019 0
M  V30 9806 N 947.141 -2.77492 0.862938 0
M  V30 9807 H 946.688 -2.11657 1.4683 0
M  V30 9808 H 946.646 -3.14306 0.0770119 0
M  V30 9809 N 950.418 -1.49637 -0.494624 0
M  V30 9810 C 951.381 -1.66252 -1.57775 0
M  V30 9811 C 952.381 -0.534054 -1.51672 0
M  V30 9812 O 953.571 -0.800637 -1.54711 0
M  V30 9813 C 950.703 -1.66584 -2.97426 0
M  V30 9814 H 951.896 -2.62864 -1.4437 0
M  V30 9815 H 949.449 -1.38764 -0.719323 0
M  V30 9816 H 950.184 -0.715798 -3.16302 0
M  V30 9817 H 949.969 -2.48543 -3.03264 0
M  V30 9818 H 951.459 -1.81474 -3.76108 0
M  V30 9819 N 951.896 0.746133 -1.38819 0
M  V30 9820 C 952.843 1.86001 -1.36647 0
M  V30 9821 C 953.813 1.6453 -0.227849 0
M  V30 9822 O 954.998 1.86092 -0.421241 0
M  V30 9823 C 952.138 3.23388 -1.20474 0
M  V30 9824 C 951.251 3.5664 -2.43786 0
M  V30 9825 C 950.386 4.8337 -2.20287 0
M  V30 9826 C 949.425 5.09431 -3.39332 0
M  V30 9827 N 948.562 6.2736 -3.1522 0
M  V30 9828 H 953.402 1.87192 -2.31869 0
M  V30 9829 H 950.939 0.914838 -1.15192 0
M  V30 9830 H 952.897 4.02679 -1.09112 0
M  V30 9831 H 951.527 3.21505 -0.288874 0
M  V30 9832 H 950.579 2.72135 -2.65794 0
M  V30 9833 H 951.891 3.71823 -3.3249 0
M  V30 9834 H 951.045 5.70619 -2.06103 0
M  V30 9835 H 949.784 4.70341 -1.28961 0
M  V30 9836 H 948.789 4.20648 -3.54027 0
M  V30 9837 H 950.014 5.24354 -4.31544 0
M  V30 9838 H 947.96 6.15639 -2.26549 0
M  V30 9839 H 947.877 6.43078 -3.97476 0
M  V30 9840 H 949.145 7.17477 -3.04707 0
M  V30 9841 N 953.375 1.23811 0.975125 0
M  V30 9842 C 954.322 1.02394 2.06843 0
M  V30 9843 C 955.292 -0.060337 1.6599 0
M  V30 9844 O 956.477 0.0928187 1.90574 0
M  V30 9845 C 953.617 0.626882 3.39359 0
M  V30 9846 C 952.73 1.78385 3.9345 0
M  V30 9847 C 951.865 1.33307 5.14201 0
M  V30 9848 C 950.904 2.46045 5.60471 0
M  V30 9849 N 950.041 2.01888 6.72448 0
M  V30 9850 H 954.881 1.95973 2.24496 0
M  V30 9851 H 952.418 0.976206 1.10039 0
M  V30 9852 H 954.376 0.377742 4.15486 0
M  V30 9853 H 953.006 -0.271907 3.21653 0
M  V30 9854 H 952.058 2.14685 3.14029 0
M  V30 9855 H 953.37 2.63122 4.23755 0
M  V30 9856 H 952.524 1.04237 5.97678 0
M  V30 9857 H 951.263 0.456143 4.85562 0
M  V30 9858 H 950.268 2.75884 4.75571 0
M  V30 9859 H 951.493 3.34283 5.91127 0
M  V30 9860 H 949.439 1.16583 6.45558 0
M  V30 9861 H 949.356 2.80182 7.02164 0
M  V30 9862 H 950.624 1.75937 7.59386 0
M  V30 9863 N 954.853 -1.17469 1.05066 0
M  V30 9864 C 956.083 -1.91343 0.779202 0
M  V30 9865 C 956.491 -1.76986 -0.668764 0
M  V30 9866 O 955.834 -1.1037 -1.46848 0
M  V30 9867 C 955.896 -3.42938 1.0786 0
M  V30 9868 C 955.56 -3.81076 2.52249 0
M  V30 9869 C 956.557 -3.84027 3.50456 0
M  V30 9870 C 954.242 -4.12076 2.87225 0
M  V30 9871 C 956.236 -4.17445 4.81683 0
M  V30 9872 C 953.923 -4.45163 4.18656 0
M  V30 9873 C 954.921 -4.47825 5.15696 0
M  V30 9874 O 954.609 -4.80133 6.44769 0
M  V30 9875 H 954.341 -0.613974 0.282863 0
M  V30 9876 H 956.895 -1.49907 1.40417 0
M  V30 9877 H 955.125 -3.84662 0.39653 0
M  V30 9878 H 956.814 -3.98071 0.793357 0
M  V30 9879 H 957.58 -3.60203 3.24775 0
M  V30 9880 H 953.459 -4.09176 2.12358 0
M  V30 9881 H 957.003 -4.19437 5.57421 0
M  V30 9882 H 952.9 -4.68449 4.44101 0
M  V30 9883 H 953.668 -4.97995 6.49571 0
M  V30 9884 N 956.331 -0.831506 -1.3388 0
M  V30 9885 C 957.58 -0.420028 -1.97278 0
M  V30 9886 C 957.893 1.02441 -1.66629 0
M  V30 9887 O 959.099 1.54021 -2.23584 0
M  V30 9888 C 957.555 -0.700116 -3.53025 0
M  V30 9889 C 957.163 -2.15874 -3.92559 0
M  V30 9890 C 958.907 -0.355226 -4.23011 0
M  V30 9891 C 956.814 -2.38327 -5.41252 0
M  V30 9892 H 955.744 -0.153326 -0.738246 0
M  V30 9893 H 958.395 -1.01906 -1.52602 0
M  V30 9894 H 956.777 -0.0308044 -3.95988 0
M  V30 9895 H 957.951 -2.86792 -3.60675 0
M  V30 9896 H 956.266 -2.4659 -3.35533 0
M  V30 9897 H 958.863 -0.500701 -5.32351 0
M  V30 9898 H 959.206 0.70111 -4.10354 0
M  V30 9899 H 959.739 -0.979466 -3.85553 0
M  V30 9900 H 956.478 -3.42498 -5.58906 0
M  V30 9901 H 955.998 -1.71962 -5.74621 0
M  V30 9902 H 957.677 -2.21113 -6.08045 0
M  V30 9903 N 957.809 1.4625 -0.587256 0
M  V30 9904 C 958.719 2.34147 0.145744 0
M  V30 9905 C 959.735 1.50026 0.881376 0
M  V30 9906 O 960.911 1.82884 0.843539 0
M  V30 9907 C 957.976 3.27294 1.14366 0
M  V30 9908 C 957.037 4.27317 0.412199 0
M  V30 9909 C 956.27 5.16013 1.36257 0
M  V30 9910 O 956.493 5.0773 2.59934 0
M  V30 9911 O 955.427 5.95569 0.870681 0
M  V30 9912 H 959.253 2.98187 -0.576055 0
M  V30 9913 H 956.838 1.45299 -0.347628 0
M  V30 9914 H 958.72 3.84747 1.71894 0
M  V30 9915 H 957.395 2.65845 1.84684 0
M  V30 9916 H 956.302 3.73538 -0.205036 0
M  V30 9917 H 957.635 4.91564 -0.250104 0
M  V30 9918 N 959.287 0.325282 1.54207 0
M  V30 9919 C 960.512 -0.281418 2.05482 0
M  V30 9920 C 960.937 -1.44869 1.19977 0
M  V30 9921 O 960.295 -1.80088 0.209275 0
M  V30 9922 C 960.343 -0.692029 3.53897 0
M  V30 9923 O 959.447 -1.7942 3.71325 0
M  V30 9924 H 958.788 -0.0504872 0.662078 0
M  V30 9925 H 961.318 0.474191 1.99029 0
M  V30 9926 H 961.328 -0.974219 3.96198 0
M  V30 9927 H 960.003 0.161709 4.15586 0
M  V30 9928 H 958.58 -1.51069 3.40929 0
M  V30 9929 N 960.765 -1.57509 0.0534917 0
M  V30 9930 C 962.013 -1.92402 -0.618548 0
M  V30 9931 C 962.334 -0.93273 -1.71246 0
M  V30 9932 O 961.604 0.0220495 -1.95888 0
M  V30 9933 H 960.184 -0.710233 -0.23147 0
M  V30 9934 H 962.846 -1.94606 0.10704 0
M  V30 9935 H 961.942 -2.93704 -1.05566 0
M  V30 9936 N 962.243 0.219913 -1.56058 0
M  V30 9937 C 963.206 1.25606 -1.91718 0
M  V30 9938 C 964.206 1.39721 -0.795912 0
M  V30 9939 O 965.396 1.37958 -1.06364 0
M  V30 9940 C 962.528 2.62961 -2.16943 0
M  V30 9941 H 963.721 0.951909 -2.84392 0
M  V30 9942 H 961.274 0.460398 -1.49365 0
M  V30 9943 H 962.009 2.98472 -1.26826 0
M  V30 9944 H 961.794 2.54093 -2.98629 0
M  V30 9945 H 963.284 3.37727 -2.45622 0
M  V30 9946 N 963.721 1.49897 0.486681 0
M  V30 9947 C 964.651 1.7054 1.59494 0
M  V30 9948 C 965.632 0.554184 1.60819 0
M  V30 9949 O 966.817 0.791617 1.77333 0
M  V30 9950 C 963.947 1.78517 2.97908 0
M  V30 9951 C 962.901 2.93571 3.11449 0
M  V30 9952 C 962.227 2.86674 4.51356 0
M  V30 9953 C 963.527 4.34308 2.90127 0
M  V30 9954 H 965.221 2.63329 1.42472 0
M  V30 9955 H 962.767 1.2672 0.683969 0
M  V30 9956 H 964.72 1.91544 3.75352 0
M  V30 9957 H 963.444 0.823381 3.16051 0
M  V30 9958 H 962.103 2.80169 2.36433 0
M  V30 9959 H 961.751 1.88373 4.66395 0
M  V30 9960 H 961.451 3.63903 4.61355 0
M  V30 9961 H 962.975 3.01728 5.30841 0
M  V30 9962 H 964.389 4.48317 3.57331 0
M  V30 9963 H 962.786 5.12869 3.11585 0
M  V30 9964 H 963.856 4.47759 1.86119 0
M  V30 9965 N 965.199 -0.738761 1.39212 0
M  V30 9966 C 966.447 -1.49529 1.35962 0
M  V30 9967 C 966.768 -1.94948 -0.0450152 0
M  V30 9968 O 966.038 -1.68717 -0.995552 0
M  V30 9969 H 964.618 -0.554692 0.500326 0
M  V30 9970 H 967.28 -0.877255 1.74041 0
M  V30 9971 H 966.376 -2.37919 2.01993 0
M  V30 9972 N 966.677 -1.24326 -0.968545 0
M  V30 9973 C 967.624 -1.0349 -2.06297 0
M  V30 9974 C 968.594 0.0515333 -1.6602 0
M  V30 9975 O 969.779 -0.102924 -1.90522 0
M  V30 9976 C 966.919 -0.64487 -3.39021 0
M  V30 9977 C 966.032 -1.80469 -3.92498 0
M  V30 9978 C 965.167 -1.36032 -5.13487 0
M  V30 9979 C 964.206 -2.49014 -5.59159 0
M  V30 9980 N 963.343 -2.05451 -6.71367 0
M  V30 9981 H 968.183 -1.97161 -2.23454 0
M  V30 9982 H 965.72 -0.982028 -1.0952 0
M  V30 9983 H 967.678 -0.399771 -4.1528 0
M  V30 9984 H 966.308 0.254845 -3.21792 0
M  V30 9985 H 965.36 -2.16348 -3.12886 0
M  V30 9986 H 966.672 -2.65365 -4.22354 0
M  V30 9987 H 965.826 -1.07405 -5.97117 0
M  V30 9988 H 964.565 -0.481887 -4.85313 0
M  V30 9989 H 963.57 -2.78402 -4.74102 0
M  V30 9990 H 964.795 -3.37413 -5.89346 0
M  V30 9991 H 962.741 -1.20004 -6.4493 0
M  V30 9992 H 962.658 -2.83901 -7.00668 0
M  V30 9993 H 963.926 -1.79962 -7.58442 0
M  V30 9994 N 968.156 1.1691 -1.05688 0
M  V30 9995 C 969.066 2.24735 -0.67315 0
M  V30 9996 C 970.082 1.71252 0.308043 0
M  V30 9997 O 971.258 2.00772 0.158889 0
M  V30 9998 C 968.323 3.4665 -0.059026 0
M  V30 9999 C 967.384 4.15198 -1.0913 0
M  V30 10000 C 966.617 5.31292 -0.50639 0
M  V30 10001 O 966.84 5.663 0.682692 0
M  V30 10002 O 965.774 5.88923 -1.2431 0
M  V30 10003 H 969.6 2.59855 -1.57191 0
M  V30 10004 H 967.185 1.24306 -0.828751 0
M  V30 10005 H 969.067 4.20455 0.282018 0
M  V30 10006 H 967.742 3.13316 0.813304 0
M  V30 10007 H 966.649 3.43389 -1.48442 0
M  V30 10008 H 967.982 4.52571 -1.93495 0
M  V30 10009 N 969.634 0.838594 1.33437 0
M  V30 10010 C 970.584 0.243681 2.26694 0
M  V30 10011 C 971.568 -0.601168 1.49247 0
M  V30 10012 O 972.76 -0.453181 1.711 0
M  V30 10013 C 969.889 -0.580525 3.38356 0
M  V30 10014 C 968.975 0.275819 4.23202 0
M  V30 10015 N 969.366 1.3544 4.87329 0
M  V30 10016 C 967.664 0.0628047 4.45956 0
M  V30 10017 C 968.365 1.87991 5.50486 0
M  V30 10018 N 967.341 1.18143 5.30607 0
M  V30 10019 H 971.143 1.06849 2.73789 0
M  V30 10020 H 968.657 0.683019 1.47338 0
M  V30 10021 H 970.654 -1.02301 4.04153 0
M  V30 10022 H 969.314 -1.40331 2.92809 0
M  V30 10023 H 970.325 1.73729 4.87892 0
M  V30 10024 H 967.002 -0.726563 4.11129 0
M  V30 10025 H 968.392 2.78312 6.11549 0
M  V30 10026 N 971.112 -1.45937 0.595003 0
M  V30 10027 C 972.352 -2.0421 0.0881479 0
M  V30 10028 C 972.716 -1.45498 -1.25277 0
M  V30 10029 O 973.917 -1.95047 -1.8496 0
M  V30 10030 C 972.188 -3.57382 0.0362346 0
M  V30 10031 S 973.747 -4.36869 -0.41126 0
M  V30 10032 H 970.565 -0.709672 0.0434424 0
M  V30 10033 H 973.167 -1.78815 0.790273 0
M  V30 10034 H 971.871 -3.97628 1.0159 0
M  V30 10035 H 971.402 -3.87332 -0.688278 0
M  V30 10036 H 973.417 -4.67486 -1.66347 0
M  V30 10037 N 972.59 -0.333456 -1.54032 0
M  V30 10038 C 973.537 0.527981 -2.2468 0
M  V30 10039 C 974.507 1.10371 -1.24127 0
M  V30 10040 O 975.692 1.14221 -1.52834 0
M  V30 10041 C 972.832 1.67808 -3.01553 0
M  V30 10042 C 971.945 1.13064 -4.16942 0
M  V30 10043 C 971.08 2.24722 -4.81325 0
M  V30 10044 C 970.119 1.67277 -5.88799 0
M  V30 10045 N 969.256 2.72638 -6.47003 0
M  V30 10046 H 974.096 -0.0810308 -2.9789 0
M  V30 10047 H 971.633 -0.051761 -1.47009 0
M  V30 10048 H 973.591 2.35502 -3.44376 0
M  V30 10049 H 972.221 2.25823 -2.30659 0
M  V30 10050 H 971.273 0.344948 -3.78833 0
M  V30 10051 H 972.585 0.670373 -4.94275 0
M  V30 10052 H 971.739 3.00301 -5.27166 0
M  V30 10053 H 970.478 2.74089 -4.03394 0
M  V30 10054 H 969.483 0.902002 -5.4235 0
M  V30 10055 H 970.708 1.18775 -6.68632 0
M  V30 10056 H 968.654 3.21277 -5.71941 0
M  V30 10057 H 968.571 2.31204 -7.19778 0
M  V30 10058 H 969.839 3.48015 -6.97499 0
M  V30 10059 N 974.068 1.57479 -0.061844 0
M  V30 10060 C 975.316 1.92727 0.608336 0
M  V30 10061 C 975.637 0.941799 1.70749 0
M  V30 10062 O 974.907 -0.0116608 1.95897 0
M  V30 10063 H 973.487 0.71145 0.2277 0
M  V30 10064 H 976.149 1.94546 -0.117359 0
M  V30 10065 H 975.245 2.9426 1.04007 0
M  V30 10066 N 975.546 -0.211634 1.56173 0
M  V30 10067 C 976.771 -0.955324 1.84088 0
M  V30 10068 C 977.196 -1.76754 0.643407 0
M  V30 10069 O 976.554 -1.76653 -0.407842 0
M  V30 10070 C 976.602 -1.84063 3.10085 0
M  V30 10071 O 975.706 -2.9373 2.89476 0
M  V30 10072 H 975.047 -0.26996 0.606645 0
M  V30 10073 H 977.577 -0.221947 2.03393 0
M  V30 10074 H 977.587 -2.24852 3.40449 0
M  V30 10075 H 976.262 -1.24373 3.96868 0
M  V30 10076 H 974.839 -2.56816 2.7037 0
M  V30 10077 N 977.024 -1.50153 -0.478725 0
M  V30 10078 C 977.972 -1.68975 -1.59844 0
M  V30 10079 C 978.966 -0.555591 -1.6003 0
M  V30 10080 O 980.172 -0.735875 -1.64271 0
M  V30 10081 H 976.547 -0.533211 -0.530274 0
M  V30 10082 H 978.518 -2.62917 -1.41128 0
M  V30 10083 C 977.267 -1.79409 -2.97838 0
M  V30 10084 H 976.59 -2.66066 -2.98411 0
M  V30 10085 H 978.03 -1.96606 -3.75662 0
M  V30 10086 C 976.489 -0.543927 -3.3248 0
M  V30 10087 O 977.019 0.320376 -4.0042 0
M  V30 10088 N 975.225 -0.400217 -2.87831 0
M  V30 10089 H 974.772 -1.10458 -2.32716 0
M  V30 10090 H 974.73 0.435111 -3.11375 0
M  V30 10091 N 978.502 0.731368 -1.39602 0
M  V30 10092 C 979.465 1.8271 -1.38383 0
M  V30 10093 C 980.465 1.58338 -0.280309 0
M  V30 10094 O 981.655 1.65671 -0.538402 0
M  V30 10095 C 978.787 3.20556 -1.16002 0
M  V30 10096 H 979.98 1.85193 -2.35889 0
M  V30 10097 H 977.533 0.935396 -1.2522 0
M  V30 10098 H 978.268 3.23732 -0.191927 0
M  V30 10099 H 978.053 3.39643 -1.9592 0
M  V30 10100 H 979.543 4.00612 -1.17899 0
M  V30 10101 N 979.98 1.24838 0.961938 0
M  V30 10102 C 980.93 1.01276 2.04272 0
M  V30 10103 C 981.914 -0.0478239 1.60829 0
M  V30 10104 O 983.106 0.166616 1.76214 0
M  V30 10105 C 980.235 0.625659 3.37551 0
M  V30 10106 C 979.321 1.72262 3.87539 0
M  V30 10107 N 979.712 2.95644 4.104 0
M  V30 10108 C 978.01 1.60146 4.16256 0
M  V30 10109 C 978.711 3.66796 4.51482 0
M  V30 10110 N 977.687 2.94383 4.56989 0
M  V30 10111 H 981.489 1.94956 2.19931 0
M  V30 10112 H 979.003 1.15049 1.14619 0
M  V30 10113 H 981 0.438072 4.14592 0
M  V30 10114 H 979.66 -0.303887 3.23275 0
M  V30 10115 H 980.671 3.31764 3.97685 0
M  V30 10116 H 977.348 0.740353 4.10883 0
M  V30 10117 H 978.738 4.72664 4.77534 0
M  V30 10118 N 981.458 -1.16348 1.06306 0
M  V30 10119 C 982.405 -2.20741 0.673962 0
M  V30 10120 C 983.375 -1.628 -0.329454 0
M  V30 10121 O 984.56 -1.89547 -0.218313 0
M  V30 10122 C 981.7 -3.45036 0.0667008 0
M  V30 10123 C 980.813 -4.17221 1.12031 0
M  V30 10124 C 979.948 -5.29034 0.479176 0
M  V30 10125 C 978.987 -5.93021 1.51631 0
M  V30 10126 N 978.124 -6.96327 0.898528 0
M  V30 10127 H 982.964 -2.53376 1.56859 0
M  V30 10128 H 980.501 -1.24449 0.784276 0
M  V30 10129 H 982.459 -4.16099 -0.302916 0
M  V30 10130 H 981.089 -3.1295 -0.791333 0
M  V30 10131 H 980.141 -3.4476 1.60763 0
M  V30 10132 H 981.453 -4.60902 1.90712 0
M  V30 10133 H 980.607 -6.06674 0.0565993 0
M  V30 10134 H 979.346 -4.86517 -0.33951 0
M  V30 10135 H 978.351 -5.14104 1.94878 0
M  V30 10136 H 979.576 -6.37618 2.3371 0
M  V30 10137 H 977.522 -6.55923 0.100555 0
M  V30 10138 H 977.439 -7.38379 1.62272 0
M  V30 10139 H 978.707 -7.77888 0.5011 0
M  V30 10140 N 982.937 -0.845659 -1.3299 0
M  V30 10141 C 983.885 -0.272412 -2.30999 0
M  V30 10142 C 984.879 0.599311 -1.58444 0
M  V30 10143 O 986.085 0.488117 -1.73255 0
M  V30 10144 H 982.46 -0.0693751 -0.748793 0
M  V30 10145 H 984.431 -1.11343 -2.76849 0
M  V30 10146 C 983.18 0.532019 -3.43606 0
M  V30 10147 H 982.503 -0.129455 -3.9959 0
M  V30 10148 H 983.943 0.898853 -4.14363 0
M  V30 10149 C 982.402 1.71364 -2.90062 0
M  V30 10150 O 982.932 2.81252 -2.8681 0
M  V30 10151 N 981.138 1.53775 -2.4658 0
M  V30 10152 H 980.685 0.643836 -2.49424 0
M  V30 10153 H 980.643 2.32982 -2.11108 0
M  V30 10154 N 984.415 1.45619 -0.602734 0
M  V30 10155 C 985.64 2.07157 -0.100429 0
M  V30 10156 C 986.065 1.44524 1.20393 0
M  V30 10157 O 985.423 0.536191 1.7319 0
M  V30 10158 C 985.471 3.60587 0.0308604 0
M  V30 10159 O 984.575 3.97944 1.08234 0
M  V30 10160 H 983.916 0.6601 -0.0718643 0
M  V30 10161 H 986.446 1.86948 -0.831366 0
M  V30 10162 H 986.456 4.07348 0.230634 0
M  V30 10163 H 985.131 4.05561 -0.921581 0
M  V30 10164 H 983.708 3.62862 0.859414 0
M  V30 10165 N 985.893 0.34162 1.53853 0
M  V30 10166 C 987.139 -0.255862 2.01179 0
M  V30 10167 C 987.472 -1.50356 1.22909 0
M  V30 10168 O 986.747 -1.91913 0.316198 0
M  V30 10169 C 987.03 -0.571934 3.55529 0
M  V30 10170 C 986.883 0.687727 4.44511 0
M  V30 10171 C 988.202 -1.38233 4.17827 0
M  V30 10172 H 985.321 -0.091521 0.731295 0
M  V30 10173 H 987.963 0.461775 1.84303 0
M  V30 10174 H 986.113 -1.18331 3.70041 0
M  V30 10175 H 987.785 1.32572 4.4184 0
M  V30 10176 H 986.028 1.313 4.13452 0
M  V30 10177 H 986.699 0.421858 5.50386 0
M  V30 10178 H 989.175 -0.865374 4.07002 0
M  V30 10179 H 988.051 -1.57223 5.25901 0
M  V30 10180 H 988.312 -2.38386 3.72323 0
M  V30 10181 N 987.371 -1.57444 0.0701946 0
M  V30 10182 C 988.62 -1.92605 -0.598849 0
M  V30 10183 C 988.933 -0.952058 -1.70866 0
M  V30 10184 O 990.139 -1.19643 -2.43716 0
M  V30 10185 C 988.595 -3.42142 -1.11655 0
M  V30 10186 C 988.203 -4.47984 -0.0378355 0
M  V30 10187 C 989.947 -3.86307 -1.75975 0
M  V30 10188 C 987.854 -5.88652 -0.569495 0
M  V30 10189 H 986.784 -0.718873 -0.22746 0
M  V30 10190 H 989.435 -1.82948 0.14217 0
M  V30 10191 H 987.817 -3.46866 -1.91049 0
M  V30 10192 H 988.991 -4.54874 0.736661 0
M  V30 10193 H 987.306 -4.13277 0.50904 0
M  V30 10194 H 989.903 -4.88784 -2.16782 0
M  V30 10195 H 990.246 -3.23587 -2.61911 0
M  V30 10196 H 990.779 -3.84179 -1.03206 0
M  V30 10197 H 987.518 -6.55013 0.252662 0
M  V30 10198 H 987.038 -5.85285 -1.31155 0
M  V30 10199 H 988.717 -6.38482 -1.04641 0
M  V30 10200 N 988.849 0.203349 -1.56283 0
M  V30 10201 C 990.097 0.923183 -1.79782 0
M  V30 10202 C 990.418 1.84134 -0.64185 0
M  V30 10203 O 989.688 1.92922 0.340292 0
M  V30 10204 H 988.268 0.343881 -0.66314 0
M  V30 10205 H 990.93 0.210837 -1.93756 0
M  V30 10206 H 990.026 1.51921 -2.72629 0
M  V30 10207 N 990.327 1.50405 0.470755 0
M  V30 10208 C 991.604 1.51929 1.23195 0
M  V30 10209 C 991.984 0.264159 2.09441 0
M  V30 10210 O 991.332 -0.752395 2.15757 0
M  V30 10211 C 991.542 2.81521 2.06269 0
M  V30 10212 C 992.89 3.32195 2.64446 0
M  V30 10213 O 993.914 2.82845 2.16511 0
M  V30 10214 O 992.773 4.18221 3.51786 0
M  V30 10215 H 989.867 0.609411 0.559059 0
M  V30 10216 H 992.413 1.62695 0.482549 0
M  V30 10217 H 991.185 3.64346 1.42715 0
M  V30 10218 H 990.808 2.7376 2.88342 0
M  V30 10219 N 991.805 -0.723954 1.39988 0
M  V30 10220 C 993.033 -1.51313 1.4111 0
M  V30 10221 C 993.448 -1.88798 0.00853333 0
M  V30 10222 O 992.805 -1.54868 -0.965516 0
M  V30 10223 C 992.856 -2.79375 2.29416 0
M  V30 10224 O 992.577 -2.43478 3.64211 0
M  V30 10225 C 994.078 -3.7333 2.3904 0
M  V30 10226 H 991.298 -0.46724 0.481589 0
M  V30 10227 H 993.842 -0.893694 1.83938 0
M  V30 10228 H 991.997 -3.37624 1.89971 0
M  V30 10229 H 992.411 -3.25821 4.11024 0
M  V30 10230 H 993.885 -4.60051 3.05053 0
M  V30 10231 H 994.362 -4.15854 1.41289 0
M  V30 10232 H 994.968 -3.20996 2.79001 0
M  V30 10233 N 993.283 -1.25346 -0.955304 0
M  V30 10234 C 994.529 -1.10218 -1.70235 0
M  V30 10235 C 994.862 0.356124 -1.90907 0
M  V30 10236 O 994.137 1.26253 -1.47954 0
M  V30 10237 C 994.42 -1.85627 -3.08569 0
M  V30 10238 C 994.273 -3.39281 -2.95311 0
M  V30 10239 C 995.592 -1.63886 -4.08448 0
M  V30 10240 H 992.711 -0.401781 -0.617852 0
M  V30 10241 H 995.353 -1.5417 -1.11048 0
M  V30 10242 H 993.503 -1.48269 -3.59094 0
M  V30 10243 H 995.175 -3.8631 -2.52116 0
M  V30 10244 H 993.418 -3.67027 -2.31244 0
M  V30 10245 H 994.089 -3.87258 -3.93364 0
M  V30 10246 H 996.565 -1.96406 -3.6683 0
M  V30 10247 H 995.441 -2.19087 -5.03281 0
M  V30 10248 H 995.702 -0.580021 -4.38279 0
M  V30 10249 N 994.761 1.15782 -1.06922 0
M  V30 10250 C 996.009 1.86097 -0.788192 0
M  V30 10251 C 996.33 1.82475 0.687606 0
M  V30 10252 O 995.6 1.26266 1.49778 0
M  V30 10253 H 994.18 0.689008 -0.288577 0
M  V30 10254 H 996.842 1.40377 -1.35205 0
M  V30 10255 H 995.938 2.91358 -1.1188 0
M  V30 10256 N 996.239 0.8527 1.3254 0
M  V30 10257 C 997.516 0.376491 1.91942 0
M  V30 10258 C 997.896 -1.13972 1.7769 0
M  V30 10259 O 997.244 -1.96047 1.17379 0
M  V30 10260 C 997.454 0.838694 3.38773 0
M  V30 10261 C 998.802 0.854736 4.15908 0
M  V30 10262 O 999.826 0.783203 3.47483 0
M  V30 10263 O 998.685 0.955207 5.38087 0
M  V30 10264 H 995.779 0.109412 0.81973 0
M  V30 10265 H 998.325 0.93947 1.41322 0
M  V30 10266 H 997.097 1.88179 3.43081 0
M  V30 10267 H 996.72 0.253055 3.96794 0
M  V30 10268 N 997.718 -1.45297 0.610449 0
M  V30 10269 C 999.129 -1.85715 0.191488 0
M  V30 10270 C 999.48 -1.51036 -1.25229 0
M  V30 10271 O 998.605 -0.938422 -1.94994 0
M  V30 10272 C 999.2 -3.37082 0.340747 0
M  V30 10273 C 997.759 -3.76393 -0.0235433 0
M  V30 10274 C 996.906 -2.69237 0.663849 0
M  V30 10275 H 999.857 -1.36058 0.816948 0
M  V30 10276 H 999.878 -3.78105 -0.426233 0
M  V30 10277 H 999.39 -3.62291 1.39164 0
M  V30 10278 H 997.491 -3.56801 -1.07351 0
M  V30 10279 H 997.604 -4.77653 0.372102 0
M  V30 10280 H 995.968 -2.54499 0.101204 0
M  V30 10281 H 996.751 -2.97281 1.71694 0
M  V30 10282 N 999.196 -0.349774 -1.5367 0
M  V30 10283 C 1000.13 0.496338 -2.28164 0
M  V30 10284 C 1001.11 1.09737 -1.29968 0
M  V30 10285 O 1002.29 1.11759 -1.58819 0
M  V30 10286 C 999.422 1.64428 -3.0591 0
M  V30 10287 C 998.376 1.17127 -4.11661 0
M  V30 10288 C 997.702 2.40822 -4.77398 0
M  V30 10289 C 999.002 0.267293 -5.21616 0
M  V30 10290 H 1000.7 -0.125117 -2.99138 0
M  V30 10291 H 998.242 -0.0616152 -1.43868 0
M  V30 10292 H 1000.19 2.2427 -3.56765 0
M  V30 10293 H 998.919 2.29272 -2.32598 0
M  V30 10294 H 997.578 0.595634 -3.61729 0
M  V30 10295 H 997.226 3.04088 -4.00674 0
M  V30 10296 H 996.926 2.09852 -5.48849 0
M  V30 10297 H 998.45 3.01378 -5.3104 0
M  V30 10298 H 999.864 0.772734 -5.68068 0
M  V30 10299 H 998.261 0.0491991 -6.0008 0
M  V30 10300 H 999.331 -0.694892 -4.79895 0
M  V30 10301 N 1000.67 1.57404 -0.0785433 0
M  V30 10302 C 1001.62 2.13104 0.88631 0
M  V30 10303 C 1002.59 1.04527 1.29086 0
M  V30 10304 O 1003.78 1.32226 1.37553 0
M  V30 10305 C 1000.92 2.70252 2.14611 0
M  V30 10306 C 1000.03 3.93007 1.79358 0
M  V30 10307 C 999.164 4.38376 3 0
M  V30 10308 C 998.203 5.53761 2.60796 0
M  V30 10309 N 997.34 5.94058 3.74219 0
M  V30 10310 H 1002.18 2.95243 0.404452 0
M  V30 10311 H 999.717 1.45894 0.187982 0
M  V30 10312 H 1001.67 3.01497 2.88367 0
M  V30 10313 H 1000.3 1.90868 2.60326 0
M  V30 10314 H 999.357 3.68181 0.956384 0
M  V30 10315 H 1000.67 4.76795 1.4652 0
M  V30 10316 H 999.823 4.71317 3.82027 0
M  V30 10317 H 998.562 3.53455 3.36037 0
M  V30 10318 H 997.567 5.20464 1.77192 0
M  V30 10319 H 998.792 6.40419 2.25922 0
M  V30 10320 H 996.738 5.12085 4.10005 0
M  V30 10321 H 996.655 6.72602 3.45171 0
M  V30 10322 H 997.923 6.31624 4.56805 0
M  V30 10323 N 1002.15 -0.195058 1.56388 0
M  V30 10324 C 1003.43 -0.941335 1.71459 0
M  V30 10325 C 1003.81 -2.01375 0.633336 0
M  V30 10326 O 1003.16 -2.25715 -0.35567 0
M  V30 10327 C 1003.37 -1.52772 3.13786 0
M  V30 10328 C 1004.71 -2.00983 3.7402 0
M  V30 10329 O 1005.74 -1.62614 3.16915 0
M  V30 10330 O 1004.6 -2.71586 4.7424 0
M  V30 10331 H 1001.69 -0.441451 0.699321 0
M  V30 10332 H 1004.24 -0.184752 1.68691 0
M  V30 10333 H 1003.01 -0.754699 3.83953 0
M  V30 10334 H 1002.63 -2.34914 3.20782 0
M  V30 10335 N 1003.63 -1.50653 -0.462772 0
M  V30 10336 C 1004.86 -1.65826 -1.23731 0
M  V30 10337 C 1005.27 -0.345002 -1.85621 0
M  V30 10338 O 1004.63 0.673935 -1.69601 0
M  V30 10339 C 1004.68 -2.7555 -2.33997 0
M  V30 10340 O 1004.4 -4.01785 -1.74643 0
M  V30 10341 C 1005.9 -3.0177 -3.2473 0
M  V30 10342 H 1003.12 -0.557177 -0.373892 0
M  V30 10343 H 1005.67 -1.96925 -0.551434 0
M  V30 10344 H 1003.82 -2.47122 -2.98345 0
M  V30 10345 H 1004.24 -4.62529 -2.4732 0
M  V30 10346 H 1005.71 -3.82188 -3.98292 0
M  V30 10347 H 1006.19 -2.13167 -3.84001 0
M  V30 10348 H 1006.79 -3.31761 -2.66111 0
M  V30 10349 N 1005.11 0.71652 -1.4037 0
M  V30 10350 C 1006.33 1.51069 -1.42102 0
M  V30 10351 C 1006.76 1.88087 -0.0222387 0
M  V30 10352 O 1006.12 1.53204 0.969448 0
M  V30 10353 C 1006.16 2.76307 -2.31704 0
M  V30 10354 O 1005.27 3.72975 -1.75964 0
M  V30 10355 H 1004.61 0.455502 -0.483129 0
M  V30 10356 H 1007.14 0.882514 -1.84588 0
M  V30 10357 H 1007.15 3.24846 -2.46859 0
M  V30 10358 H 1005.82 2.48698 -3.3335 0
M  V30 10359 H 1004.4 3.31818 -1.70151 0
M  V30 10360 N 1006.59 1.25851 0.948643 0
M  V30 10361 C 1007.83 1.10735 1.69062 0
M  V30 10362 C 1008.16 -0.351257 1.9181 0
M  V30 10363 O 1007.43 -1.24867 1.50947 0
M  V30 10364 H 1006.01 0.406796 0.626519 0
M  V30 10365 H 1008.67 1.58066 1.14022 0
M  V30 10366 H 1007.76 1.62033 2.66743 0
M  V30 10367 N 1008.06 -1.15214 1.07534 0
M  V30 10368 C 1009.48 -1.67628 0.822045 0
M  V30 10369 C 1009.83 -1.8503 -0.652571 0
M  V30 10370 O 1008.95 -1.55497 -1.50498 0
M  V30 10371 C 1009.55 -3.04489 1.48566 0
M  V30 10372 C 1008.11 -3.53974 1.27983 0
M  V30 10373 C 1007.25 -2.29656 1.55414 0
M  V30 10374 H 1010.2 -0.994016 1.23713 0
M  V30 10375 H 1010.22 -3.69509 0.907916 0
M  V30 10376 H 1009.74 -2.91792 2.55888 0
M  V30 10377 H 1007.84 -3.71908 0.226906 0
M  V30 10378 H 1007.95 -4.35298 2.0013 0
M  V30 10379 H 1006.31 -2.35289 0.975251 0
M  V30 10380 H 1007.1 -2.19544 2.63923 0
M  V30 10381 N 1009.54 -0.859717 -1.32086 0
M  V30 10382 C 1010.77 -0.478865 -2.01796 0
M  V30 10383 C 1011.19 0.918274 -1.64163 0
M  V30 10384 O 1010.55 1.60409 -0.844896 0
M  V30 10385 C 1010.6 -0.631356 -3.5503 0
M  V30 10386 O 1009.7 0.333712 -4.11048 0
M  V30 10387 H 1009.04 -0.191775 -0.635703 0
M  V30 10388 H 1011.57 -1.16031 -1.68517 0
M  V30 10389 H 1011.58 -0.520783 -4.04663 0
M  V30 10390 H 1010.26 -1.65015 -3.81763 0
M  V30 10391 H 1008.84 0.178953 -3.7247 0
M  V30 10392 N 1011.02 1.44971 -0.618145 0
M  V30 10393 C 1011.95 2.33357 0.0815955 0
M  V30 10394 C 1012.93 1.47451 0.848072 0
M  V30 10395 O 1014.12 1.762 0.816532 0
M  V30 10396 C 1011.25 3.30324 1.07253 0
M  V30 10397 C 1010.2 4.25948 0.418563 0
M  V30 10398 C 1009.53 5.12685 1.51849 0
M  V30 10399 C 1010.83 5.18024 -0.66697 0
M  V30 10400 H 1012.52 2.92115 -0.656442 0
M  V30 10401 H 1010.07 1.40465 -0.317129 0
M  V30 10402 H 1012.02 3.91033 1.57069 0
M  V30 10403 H 1010.74 2.69748 1.8413 0
M  V30 10404 H 1009.4 3.66553 -0.0588308 0
M  V30 10405 H 1009.05 4.4847 2.2778 0
M  V30 10406 H 1008.75 5.7747 1.08637 0
M  V30 10407 H 1010.27 5.76264 2.01871 0
M  V30 10408 H 1011.69 5.72744 -0.252448 0
M  V30 10409 H 1010.09 5.91343 -1.02146 0
M  V30 10410 H 1011.16 4.59817 -1.53936 0
M  V30 10411 N 1012.5 0.357919 1.53482 0
M  V30 10412 C 1013.45 -0.507364 2.26999 0
M  V30 10413 C 1014.44 -1.08987 1.29685 0
M  V30 10414 O 1015.65 -1.03396 1.47341 0
M  V30 10415 H 1012.02 -0.182326 0.729562 0
M  V30 10416 H 1013.99 0.134547 2.98097 0
M  V30 10417 C 1012.74 -1.63911 3.06641 0
M  V30 10418 H 1012.06 -1.20017 3.81361 0
M  V30 10419 H 1013.5 -2.21943 3.61272 0
M  V30 10420 C 1011.96 -2.57697 2.17011 0
M  V30 10421 O 1012.49 -3.60318 1.77578 0
M  V30 10422 N 1010.7 -2.2671 1.818 0
M  V30 10423 H 1010.25 -1.43296 2.14065 0
M  V30 10424 H 1010.2 -2.89716 1.22115 0
M  V30 10425 N 1013.98 -1.5736 0.0868897 0
M  V30 10426 C 1015.23 -1.93229 -0.578387 0
M  V30 10427 C 1015.54 -0.970127 -1.69847 0
M  V30 10428 O 1016.74 -1.22222 -2.42434 0
M  V30 10429 C 1015.2 -3.43307 -1.0802 0
M  V30 10430 C 1014.81 -4.47999 0.00968135 0
M  V30 10431 C 1016.55 -3.88151 -1.71868 0
M  V30 10432 C 1014.46 -5.89223 -0.507029 0
M  V30 10433 H 1013.39 -0.721245 -0.219823 0
M  V30 10434 H 1016.04 -1.82787 0.161566 0
M  V30 10435 H 1014.42 -3.48873 -1.87359 0
M  V30 10436 H 1015.6 -4.54067 0.784865 0
M  V30 10437 H 1013.91 -4.12714 0.552845 0
M  V30 10438 H 1016.51 -4.91056 -2.11585 0
M  V30 10439 H 1016.85 -3.26347 -2.58464 0
M  V30 10440 H 1017.38 -3.85252 -0.991259 0
M  V30 10441 H 1014.12 -6.54708 0.322121 0
M  V30 10442 H 1013.64 -5.86643 -1.2494 0
M  V30 10443 H 1015.32 -6.39556 -0.978628 0
M  V30 10444 N 1015.45 0.186762 -1.56489 0
M  V30 10445 C 1016.38 1.23395 -1.98232 0
M  V30 10446 C 1017.37 1.4702 -0.855526 0
M  V30 10447 O 1018.55 1.58616 -1.12048 0
M  V30 10448 C 1015.68 2.57635 -2.32898 0
M  V30 10449 C 1014.63 2.48607 -3.48394 0
M  V30 10450 C 1013.96 3.87196 -3.68759 0
M  V30 10451 C 1015.26 2.00398 -4.82325 0
M  V30 10452 H 1016.95 0.887026 -2.85958 0
M  V30 10453 H 1014.5 0.42525 -1.37578 0
M  V30 10454 H 1016.45 3.31082 -2.60696 0
M  V30 10455 H 1015.18 2.94084 -1.42064 0
M  V30 10456 H 1013.84 1.77615 -3.207 0
M  V30 10457 H 1013.48 4.21012 -2.75241 0
M  V30 10458 H 1013.18 3.82029 -4.46462 0
M  V30 10459 H 1014.71 4.62253 -3.98941 0
M  V30 10460 H 1016.12 2.6361 -5.091 0
M  V30 10461 H 1014.52 2.06214 -5.63556 0
M  V30 10462 H 1015.59 0.957562 -4.75351 0
M  V30 10463 N 1016.93 1.50896 0.454776 0
M  V30 10464 C 1018.18 1.61936 1.20248 0
M  V30 10465 C 1018.49 0.332983 1.92745 0
M  V30 10466 O 1019.7 0.322512 2.69578 0
M  V30 10467 C 1018.16 2.85916 2.18587 0
M  V30 10468 C 1017.76 4.21492 1.51818 0
M  V30 10469 C 1019.51 3.06307 2.93898 0
M  V30 10470 C 1017.42 5.3664 2.48539 0
M  V30 10471 H 1016.35 0.603098 0.452536 0
M  V30 10472 H 1019 1.77345 0.471257 0
M  V30 10473 H 1017.38 2.64101 2.95071 0
M  V30 10474 H 1018.55 4.53623 0.810123 0
M  V30 10475 H 1016.87 4.06837 0.887265 0
M  V30 10476 H 1019.46 3.89507 3.66317 0
M  V30 10477 H 1019.81 2.18683 3.54236 0
M  V30 10478 H 1020.34 3.2838 2.24525 0
M  V30 10479 H 1017.08 6.26469 1.92916 0
M  V30 10480 H 1016.6 5.08907 3.17449 0
M  V30 10481 H 1018.28 5.67881 3.10033 0
M  V30 10482 N 1018.41 -0.709066 1.40748 0
M  V30 10483 C 1019.36 -1.82312 1.4153 0
M  V30 10484 C 1020.33 -1.63868 0.271392 0
M  V30 10485 O 1021.51 -1.8491 0.470431 0
M  V30 10486 C 1018.65 -3.2008 1.29006 0
M  V30 10487 C 1017.77 -3.50051 2.53156 0
M  V30 10488 C 1016.9 -4.7736 2.33025 0
M  V30 10489 C 1015.94 -5.00255 3.52719 0
M  V30 10490 N 1015.08 -6.18782 3.31743 0
M  V30 10491 H 1019.92 -1.80978 2.36751 0
M  V30 10492 H 1017.45 -0.883975 1.17577 0
M  V30 10493 H 1019.41 -3.99645 1.19749 0
M  V30 10494 H 1018.04 -3.20626 0.374014 0
M  V30 10495 H 1017.09 -2.64993 2.72916 0
M  V30 10496 H 1018.41 -3.62877 3.42231 0
M  V30 10497 H 1017.56 -5.64954 2.21159 0
M  V30 10498 H 1016.3 -4.66756 1.41386 0
M  V30 10499 H 1015.3 -4.11114 3.65055 0
M  V30 10500 H 1016.53 -5.12728 4.45295 0
M  V30 10501 H 1014.47 -6.09416 2.42791 0
M  V30 10502 H 1014.39 -6.32313 4.14386 0
M  V30 10503 H 1015.66 -7.09146 3.23623 0
M  V30 10504 N 1019.89 -1.26353 -0.941956 0
M  V30 10505 C 1020.82 -1.10341 -2.05784 0
M  V30 10506 C 1021.8 -0.00881565 -1.70098 0
M  V30 10507 O 1022.99 -0.180699 -1.93357 0
M  V30 10508 C 1020.12 -0.734788 -3.39438 0
M  V30 10509 C 1019.07 -1.78103 -3.89183 0
M  V30 10510 C 1018.4 -1.26675 -5.19478 0
M  V30 10511 C 1019.7 -3.1824 -4.14151 0
M  V30 10512 H 1021.39 -2.03684 -2.19438 0
M  V30 10513 H 1018.94 -0.980698 -1.05443 0
M  V30 10514 H 1020.89 -0.609653 -4.16967 0
M  V30 10515 H 1019.61 0.234354 -3.25758 0
M  V30 10516 H 1018.27 -1.89482 -3.13835 0
M  V30 10517 H 1017.92 -0.287472 -5.02178 0
M  V30 10518 H 1017.62 -1.96612 -5.53731 0
M  V30 10519 H 1019.14 -1.15427 -5.99591 0
M  V30 10520 H 1020.56 -3.09942 -4.82296 0
M  V30 10521 H 1018.95 -3.8576 -4.59684 0
M  V30 10522 H 1020.02 -3.64354 -3.19959 0
M  V30 10523 N 1021.37 1.14642 -1.08144 0
M  V30 10524 C 1022.59 1.90025 -0.830972 0
M  V30 10525 C 1023.02 1.77904 0.610879 0
M  V30 10526 O 1022.38 1.11735 1.42776 0
M  V30 10527 C 1022.42 3.38085 -1.25422 0
M  V30 10528 O 1021.53 4.10412 -0.404486 0
M  V30 10529 H 1020.87 0.591327 -0.302041 0
M  V30 10530 H 1023.4 1.4513 -1.44216 0
M  V30 10531 H 1023.41 3.88894 -1.23391 0
M  V30 10532 H 1022.08 3.46226 -2.30435 0
M  V30 10533 H 1020.66 3.69693 -0.487987 0
M  V30 10534 N 1022.85 0.866709 1.31628 0
M  V30 10535 C 1023.81 0.325041 2.26883 0
M  V30 10536 C 1024.81 -0.522133 1.52087 0
M  V30 10537 O 1026 -0.331908 1.71009 0
M  V30 10538 C 1023.13 -0.538756 3.36616 0
M  V30 10539 H 1024.32 1.16592 2.76308 0
M  V30 10540 H 1021.88 0.642029 1.42505 0
M  V30 10541 H 1022.61 -1.40096 2.92478 0
M  V30 10542 H 1022.4 0.0678115 3.92041 0
M  V30 10543 H 1023.89 -0.910123 4.07562 0
M  V30 10544 N 1024.32 -1.44642 0.625825 0
M  V30 10545 C 1025.57 -2.01308 0.125682 0
M  V30 10546 C 1025.89 -1.49773 -1.25807 0
M  V30 10547 O 1027.09 -1.98533 -1.85194 0
M  V30 10548 C 1025.55 -3.59479 0.17395 0
M  V30 10549 C 1025.16 -4.20011 1.55868 0
M  V30 10550 C 1026.9 -4.2364 -0.270005 0
M  V30 10551 C 1024.81 -5.7039 1.56235 0
M  V30 10552 H 1023.74 -0.75276 0.0432194 0
M  V30 10553 H 1026.39 -1.65916 0.783842 0
M  V30 10554 H 1024.77 -3.92145 -0.551212 0
M  V30 10555 H 1025.94 -3.98891 2.307 0
M  V30 10556 H 1024.26 -3.68116 1.94627 0
M  V30 10557 H 1026.86 -5.33931 -0.28672 0
M  V30 10558 H 1027.2 -3.95603 -1.29629 0
M  V30 10559 H 1027.73 -3.95759 0.402487 0
M  V30 10560 H 1024.47 -6.03154 2.56683 0
M  V30 10561 H 1023.99 -5.93648 0.856881 0
M  V30 10562 H 1025.67 -6.33929 1.29396 0
M  V30 10563 N 1025.8 -0.366053 -1.5329 0
M  V30 10564 C 1027.03 0.224236 -2.05681 0
M  V30 10565 C 1027.44 1.42412 -1.23952 0
M  V30 10566 O 1026.8 1.80334 -0.280309 0
M  V30 10567 C 1026.85 0.617266 -3.56191 0
M  V30 10568 O 1026.57 -0.534931 -4.34822 0
M  V30 10569 C 1028.07 1.26589 -4.24841 0
M  V30 10570 H 1025.29 0.0392928 -0.669849 0
M  V30 10571 H 1027.84 -0.52456 -1.97658 0
M  V30 10572 H 1025.99 1.31598 -3.64364 0
M  V30 10573 H 1026.41 -0.217123 -5.2405 0
M  V30 10574 H 1027.88 1.49146 -5.31469 0
M  V30 10575 H 1028.36 2.22633 -3.78591 0
M  V30 10576 H 1028.96 0.6086 -4.20923 0
M  V30 10577 N 1027.28 1.57312 -0.0952337 0
M  V30 10578 C 1028.5 1.99119 0.580206 0
M  V30 10579 C 1028.93 0.973955 1.60922 0
M  V30 10580 O 1028.29 -0.0575338 1.81209 0
M  V30 10581 C 1028.34 3.39893 1.20438 0
M  V30 10582 O 1027.44 3.40941 2.32019 0
M  V30 10583 H 1026.78 0.64748 0.147195 0
M  V30 10584 H 1029.31 2.03836 -0.176686 0
M  V30 10585 H 1029.32 3.7759 1.54564 0
M  V30 10586 H 1028 4.13453 0.450514 0
M  V30 10587 H 1026.57 3.1504 1.9951 0
M  V30 10588 N 1028.76 -0.17846 1.56586 0
M  V30 10589 C 1029.69 -1.22342 1.98884 0
M  V30 10590 C 1030.67 -1.46564 0.86331 0
M  V30 10591 O 1031.85 -1.58019 1.12887 0
M  V30 10592 C 1028.98 -2.56396 2.34261 0
M  V30 10593 C 1027.94 -2.46756 3.49708 0
M  V30 10594 C 1027.26 -3.85235 3.70807 0
M  V30 10595 C 1028.56 -1.97838 4.83381 0
M  V30 10596 H 1030.26 -0.871848 2.86425 0
M  V30 10597 H 1027.8 -0.417948 1.37801 0
M  V30 10598 H 1029.76 -3.29695 2.62448 0
M  V30 10599 H 1028.48 -2.93327 1.43621 0
M  V30 10600 H 1027.14 -1.75912 3.21637 0
M  V30 10601 H 1026.79 -4.19547 2.7747 0
M  V30 10602 H 1026.49 -3.79655 4.48481 0
M  V30 10603 H 1028.01 -4.60131 4.01387 0
M  V30 10604 H 1029.43 -2.60906 5.10491 0
M  V30 10605 H 1027.82 -2.03223 5.64642 0
M  V30 10606 H 1028.89 -0.932339 4.75852 0
M  V30 10607 N 1030.24 -1.51135 -0.446768 0
M  V30 10608 C 1031.48 -1.63578 -1.19875 0
M  V30 10609 C 1031.81 -0.346478 -1.91084 0
M  V30 10610 O 1031.09 0.653447 -1.83195 0
M  V30 10611 C 1031.37 -2.83275 -2.22323 0
M  V30 10612 C 1031.23 -4.22155 -1.55259 0
M  V30 10613 C 1032.54 -2.98496 -3.23401 0
M  V30 10614 H 1029.66 -0.595333 -0.434452 0
M  V30 10615 H 1032.31 -1.83593 -0.48923 0
M  V30 10616 H 1030.46 -2.6634 -2.82834 0
M  V30 10617 H 1032.13 -4.50736 -0.981571 0
M  V30 10618 H 1030.37 -4.25288 -0.855122 0
M  V30 10619 H 1031.04 -5.01882 -2.29823 0
M  V30 10620 H 1033.52 -3.14079 -2.72935 0
M  V30 10621 H 1032.39 -3.83828 -3.92386 0
M  V30 10622 H 1032.65 -2.10157 -3.88956 0
M  V30 10623 N 1031.71 0.701592 -1.41122 0
M  V30 10624 C 1032.96 1.4616 -1.40155 0
M  V30 10625 C 1033.29 1.94498 -0.00861553 0
M  V30 10626 O 1032.54 1.69484 0.978452 0
M  V30 10627 C 1032.84 2.693 -2.34973 0
M  V30 10628 C 1032.51 2.39652 -3.81939 0
M  V30 10629 C 1031.17 2.31277 -4.21977 0
M  V30 10630 C 1033.52 2.15076 -4.74755 0
M  V30 10631 C 1030.85 1.96413 -5.52846 0
M  V30 10632 C 1033.2 1.81722 -6.05937 0
M  V30 10633 C 1031.87 1.71838 -6.45002 0
M  V30 10634 H 1031.14 0.534837 -0.512865 0
M  V30 10635 H 1033.78 0.802425 -1.73878 0
M  V30 10636 H 1032.09 3.40123 -1.94484 0
M  V30 10637 H 1033.79 3.27427 -2.31501 0
M  V30 10638 H 1030.38 2.47063 -3.50226 0
M  V30 10639 H 1034.56 2.20495 -4.4463 0
M  V30 10640 H 1029.82 1.87308 -5.82001 0
M  V30 10641 H 1033.99 1.61723 -6.77362 0
M  V30 10642 H 1031.62 1.44591 -7.46323 0
M  V30 10643 N 1033.19 1.2685 0.935242 0
M  V30 10644 C 1034.15 1.08975 2.01636 0
M  V30 10645 C 1035.15 0.0361543 1.60759 0
M  V30 10646 O 1036.34 0.280087 1.71934 0
M  V30 10647 C 1033.48 0.658831 3.34473 0
M  V30 10648 H 1034.67 2.04968 2.18925 0
M  V30 10649 H 1032.22 1.09531 1.11501 0
M  V30 10650 H 1032.96 -0.302824 3.22883 0
M  V30 10651 H 1032.74 1.41967 3.65497 0
M  V30 10652 H 1034.23 0.555783 4.13885 0
M  V30 10653 N 1034.67 -1.14067 1.0875 0
M  V30 10654 C 1035.62 -2.21332 0.715195 0
M  V30 10655 C 1036.61 -1.67059 -0.280679 0
M  V30 10656 O 1037.82 -1.79432 -0.142874 0
M  V30 10657 H 1034.19 -0.721126 0.213264 0
M  V30 10658 H 1036.16 -2.50002 1.62916 0
M  V30 10659 C 1034.91 -3.474 0.144401 0
M  V30 10660 H 1034.24 -3.89495 0.901884 0
M  V30 10661 H 1035.68 -4.23928 -0.0782564 0
M  V30 10662 C 1034.14 -3.17787 -1.11862 0
M  V30 10663 O 1034.67 -3.35906 -2.20295 0
M  V30 10664 N 1032.87 -2.71719 -1.03039 0
M  V30 10665 H 1032.42 -2.57175 -0.14793 0
M  V30 10666 H 1032.38 -2.52281 -1.87621 0
M  V30 10667 N 1036.15 -0.873678 -1.31166 0
M  V30 10668 C 1037.39 -0.487178 -1.96861 0
M  V30 10669 C 1037.73 0.95887 -1.68877 0
M  V30 10670 O 1037 1.6758 -0.987279 0
M  V30 10671 C 1037.29 -0.74925 -3.52219 0
M  V30 10672 C 1037.14 -2.2451 -3.89763 0
M  V30 10673 C 1038.46 -0.218194 -4.39559 0
M  V30 10674 H 1035.58 -0.178477 -0.715063 0
M  V30 10675 H 1038.22 -1.0956 -1.55231 0
M  V30 10676 H 1036.37 -0.231403 -3.8781 0
M  V30 10677 H 1038.04 -2.83049 -3.64254 0
M  V30 10678 H 1036.28 -2.71621 -3.38237 0
M  V30 10679 H 1036.95 -2.37911 -4.98099 0
M  V30 10680 H 1039.43 -0.661274 -4.10812 0
M  V30 10681 H 1038.31 -0.430983 -5.47205 0
M  V30 10682 H 1038.57 0.880056 -4.33252 0
M  V30 10683 N 1037.63 1.44308 -0.633487 0
M  V30 10684 C 1038.88 2.01239 -0.136356 0
M  V30 10685 C 1039.19 1.50438 1.25011 0
M  V30 10686 O 1040.39 1.99513 1.84138 0
M  V30 10687 C 1038.85 3.59382 -0.193011 0
M  V30 10688 C 1038.46 4.19178 -1.58093 0
M  V30 10689 C 1040.2 4.23778 0.247534 0
M  V30 10690 C 1038.11 5.69553 -1.59258 0
M  V30 10691 H 1037.04 0.752521 -0.0472109 0
M  V30 10692 H 1039.69 1.65498 -0.79263 0
M  V30 10693 H 1038.07 3.92432 0.530408 0
M  V30 10694 H 1039.25 3.97662 -2.32813 0
M  V30 10695 H 1037.56 3.67079 -1.96576 0
M  V30 10696 H 1040.16 5.34075 0.258401 0
M  V30 10697 H 1040.5 3.96285 1.27529 0
M  V30 10698 H 1041.03 3.9554 -0.423469 0
M  V30 10699 H 1037.77 6.01784 -2.59878 0
M  V30 10700 H 1037.29 5.93185 -0.888352 0
M  V30 10701 H 1038.97 6.33234 -1.32756 0
M  V30 10702 N 1039.1 0.374177 1.53094 0
M  V30 10703 C 1040.07 -0.455999 2.24618 0
M  V30 10704 C 1041.07 -1.00269 1.25709 0
M  V30 10705 O 1042.26 -0.887077 1.49922 0
M  V30 10706 C 1039.39 -1.63822 2.98957 0
M  V30 10707 H 1040.58 0.169986 2.99418 0
M  V30 10708 H 1038.14 0.126015 1.55791 0
M  V30 10709 H 1038.87 -2.30205 2.28421 0
M  V30 10710 H 1038.66 -1.25308 3.71538 0
M  V30 10711 H 1040.15 -2.22633 3.53305 0
M  V30 10712 N 1040.58 -1.57259 0.103575 0
M  V30 10713 C 1041.81 -1.99 -0.566275 0
M  V30 10714 C 1042.23 -0.982909 -1.61197 0
M  V30 10715 O 1041.58 0.026345 -1.82481 0
M  V30 10716 C 1041.63 -3.40778 -1.20635 0
M  V30 10717 O 1041.35 -4.37632 -0.202472 0
M  V30 10718 C 1042.86 -3.97567 -1.961 0
M  V30 10719 H 1040.08 -0.653751 -0.151164 0
M  V30 10720 H 1042.62 -2.03658 0.185365 0
M  V30 10721 H 1040.77 -3.37107 -1.90886 0
M  V30 10722 H 1041.19 -5.2026 -0.665535 0
M  V30 10723 H 1042.66 -4.98897 -2.36233 0
M  V30 10724 H 1043.14 -3.35853 -2.83018 0
M  V30 10725 H 1043.75 -4.04737 -1.30645 0
M  V30 10726 N 1042.06 0.170153 -1.56679 0
M  V30 10727 C 1043.01 1.21064 -1.965 0
M  V30 10728 C 1043.98 1.43928 -0.829092 0
M  V30 10729 O 1045.16 1.56649 -1.08931 0
M  V30 10730 C 1042.3 2.54468 -2.33109 0
M  V30 10731 C 1041.42 2.38974 -3.59883 0
M  V30 10732 C 1040.55 3.65252 -3.857 0
M  V30 10733 C 1039.59 3.44696 -5.05817 0
M  V30 10734 N 1038.73 4.63047 -5.27761 0
M  V30 10735 H 1043.57 0.864055 -2.85198 0
M  V30 10736 H 1041.1 0.415243 -1.41117 0
M  V30 10737 H 1043.06 3.32222 -2.52358 0
M  V30 10738 H 1041.69 2.8712 -1.4752 0
M  V30 10739 H 1040.74 1.5239 -3.48542 0
M  V30 10740 H 1042.06 2.19731 -4.47794 0
M  V30 10741 H 1041.21 4.51441 -4.05322 0
M  V30 10742 H 1039.95 3.87475 -2.96166 0
M  V30 10743 H 1038.95 2.56893 -4.86092 0
M  V30 10744 H 1040.18 3.23894 -5.96883 0
M  V30 10745 H 1038.12 4.85487 -4.41179 0
M  V30 10746 H 1038.04 4.46722 -6.09898 0
M  V30 10747 H 1039.31 5.50516 -5.51863 0
M  V30 10748 N 1043.54 1.5137 0.438746 0
M  V30 10749 C 1044.79 1.63969 1.1883 0
M  V30 10750 C 1045.11 0.355245 1.91228 0
M  V30 10751 O 1044.37 -0.660605 1.84213 0
M  V30 10752 C 1044.67 2.79221 2.23093 0
M  V30 10753 C 1044.33 4.18547 1.67717 0
M  V30 10754 C 1043 4.5645 1.52337 0
M  V30 10755 C 1045.35 5.05494 1.26986 0
M  V30 10756 C 1042.68 5.79007 0.946996 0
M  V30 10757 C 1045.03 6.28628 0.707785 0
M  V30 10758 C 1043.69 6.65305 0.540881 0
M  V30 10759 H 1042.96 0.600003 0.43483 0
M  V30 10760 H 1045.61 1.85398 0.479565 0
M  V30 10761 H 1043.91 2.52008 2.99999 0
M  V30 10762 H 1045.61 2.86168 2.80907 0
M  V30 10763 H 1042.2 3.88663 1.80663 0
M  V30 10764 H 1046.38 4.76818 1.37689 0
M  V30 10765 H 1041.64 6.06072 0.805432 0
M  V30 10766 H 1045.81 6.95342 0.38366 0
M  V30 10767 H 1043.44 7.60144 0.0921324 0
M  V30 10768 N 1045.02 -0.694098 1.41492 0
M  V30 10769 C 1046.24 -1.48286 1.44288 0
M  V30 10770 C 1046.66 -1.88737 0.0485783 0
M  V30 10771 O 1046.02 -1.56881 -0.932449 0
M  V30 10772 C 1046.07 -2.74446 2.3529 0
M  V30 10773 O 1045.79 -2.35698 3.69294 0
M  V30 10774 C 1047.29 -3.68175 2.46905 0
M  V30 10775 H 1044.51 -0.45692 0.491391 0
M  V30 10776 H 1047.05 -0.854477 1.85793 0
M  V30 10777 H 1045.21 -3.33518 1.9709 0
M  V30 10778 H 1045.62 -3.17029 4.17843 0
M  V30 10779 H 1047.1 -4.53476 3.14743 0
M  V30 10780 H 1047.57 -4.12763 1.50078 0
M  V30 10781 H 1048.18 -3.15006 2.85747 0
M  V30 10782 N 1046.49 -1.27344 -0.928501 0
M  V30 10783 C 1047.72 -1.16557 -1.7155 0
M  V30 10784 C 1048.14 0.274044 -1.86093 0
M  V30 10785 O 1047.5 1.19847 -1.36038 0
M  V30 10786 C 1047.55 -1.85332 -3.09329 0
M  V30 10787 O 1046.65 -1.15074 -3.9602 0
M  V30 10788 H 1046 -0.405423 -0.525859 0
M  V30 10789 H 1048.53 -1.68399 -1.16202 0
M  V30 10790 H 1048.54 -1.92659 -3.59648 0
M  V30 10791 H 1047.21 -2.90056 -2.98061 0
M  V30 10792 H 1045.79 -1.1581 -3.54461 0
M  V30 10793 N 1047.97 1.13488 -1.09353 0
M  V30 10794 C 1049.2 1.88592 -0.850915 0
M  V30 10795 C 1049.62 1.79087 0.597761 0
M  V30 10796 O 1048.97 1.15695 1.41142 0
M  V30 10797 C 1049.02 3.38219 -1.27633 0
M  V30 10798 O 1048.74 3.47476 -2.66819 0
M  V30 10799 C 1050.25 4.30293 -1.06598 0
M  V30 10800 H 1047.47 0.597069 -0.306185 0
M  V30 10801 H 1050.01 1.43668 -1.45533 0
M  V30 10802 H 1048.16 3.80729 -0.715828 0
M  V30 10803 H 1048.58 4.40485 -2.84733 0
M  V30 10804 H 1050.05 5.33611 -1.41293 0
M  V30 10805 H 1050.53 4.392 -0.0037135 0
M  V30 10806 H 1051.14 3.9355 -1.6124 0
M  V30 10807 N 1049.45 0.880621 1.30701 0
M  V30 10808 C 1050.87 0.574015 1.4892 0
M  V30 10809 C 1051.07 -0.889312 1.80813 0
M  V30 10810 O 1050.12 -1.67082 1.89314 0
M  V30 10811 C 1051.44 1.48341 2.61563 0
M  V30 10812 C 1052.98 1.48658 2.75445 0
M  V30 10813 C 1053.46 2.3818 3.91196 0
M  V30 10814 N 1054.95 2.36119 3.985 0
M  V30 10815 C 1055.69 3.02101 4.87363 0
M  V30 10816 N 1055.18 3.77293 5.81052 0
M  V30 10817 N 1056.97 2.91356 4.80696 0
M  V30 10818 H 1049.13 1.82732 1.08271 0
M  V30 10819 H 1051.39 0.781939 0.535981 0
M  V30 10820 H 1051.09 2.52515 2.44804 0
M  V30 10821 H 1050.97 1.18977 3.57944 0
M  V30 10822 H 1053.36 0.452374 2.91612 0
M  V30 10823 H 1053.44 1.8205 1.79698 0
M  V30 10824 H 1053.08 3.41683 3.75786 0
M  V30 10825 H 1053.01 2.02106 4.86272 0
M  V30 10826 H 1055.5 1.81474 3.31475 0
M  V30 10827 H 1055.81 4.24742 6.45612 0
M  V30 10828 H 1054.16 3.81401 5.80998 0
M  V30 10829 H 1057.35 2.32143 4.06481 0
M  V30 10830 H 1057.52 3.43056 5.49742 0
M  V30 10831 N 1050.93 -1.4397 0.641131 0
M  V30 10832 C 1052.18 -2.01548 0.149333 0
M  V30 10833 C 1052.5 -1.50759 -1.23679 0
M  V30 10834 O 1051.77 -0.715257 -1.82376 0
M  V30 10835 H 1050.35 -0.745173 0.0522161 0
M  V30 10836 H 1053.01 -1.7634 0.830082 0
M  V30 10837 H 1052.11 -3.11851 0.124676 0
M  V30 10838 N 1052.41 -0.382291 -1.52893 0
M  V30 10839 C 1053.66 0.201734 -2.01091 0
M  V30 10840 C 1053.98 1.47905 -1.2708 0
M  V30 10841 O 1053.25 1.92002 -0.38883 0
M  V30 10842 H 1051.83 0.0775373 -0.742965 0
M  V30 10843 H 1054.49 -0.512369 -1.88045 0
M  V30 10844 H 1053.58 0.416919 -3.09303 0
M  V30 10845 N 1053.89 1.57202 -0.111913 0
M  V30 10846 C 1055.3 1.82039 0.414591 0
M  V30 10847 C 1055.65 1.02863 1.67074 0
M  V30 10848 O 1054.77 0.263068 2.14795 0
M  V30 10849 C 1055.37 3.3019 0.758953 0
M  V30 10850 C 1053.93 3.55732 1.23012 0
M  V30 10851 C 1053.07 2.76301 0.235226 0
M  V30 10852 H 1056.02 1.55078 -0.337142 0
M  V30 10853 H 1056.05 3.44431 1.61701 0
M  V30 10854 H 1055.56 3.87788 -0.155473 0
M  V30 10855 H 1053.66 3.03483 2.16169 0
M  V30 10856 H 1053.77 4.64333 1.18034 0
M  V30 10857 H 1052.14 2.44287 0.720822 0
M  V30 10858 H 1052.92 3.36655 -0.672173 0
M  V30 10859 N 1055.36 -0.161842 1.56767 0
M  V30 10860 C 1056.61 -0.875278 1.81719 0
M  V30 10861 C 1056.93 -1.82998 0.690739 0
M  V30 10862 O 1058.13 -2.58648 0.82545 0
M  V30 10863 C 1056.59 -1.60703 3.22029 0
M  V30 10864 C 1056.2 -0.695486 4.42569 0
M  V30 10865 C 1057.94 -2.30813 3.56266 0
M  V30 10866 C 1055.85 -1.42801 5.73901 0
M  V30 10867 H 1054.78 -0.330591 0.677662 0
M  V30 10868 H 1057.43 -0.128112 1.83052 0
M  V30 10869 H 1055.81 -2.39929 3.1504 0
M  V30 10870 H 1056.98 0.0604882 4.6076 0
M  V30 10871 H 1055.3 -0.10356 4.16271 0
M  V30 10872 H 1057.9 -2.86229 4.51638 0
M  V30 10873 H 1058.24 -3.06603 2.81604 0
M  V30 10874 H 1058.77 -1.5852 3.64851 0
M  V30 10875 H 1055.51 -0.712253 6.51619 0
M  V30 10876 H 1055.03 -2.15707 5.5967 0
M  V30 10877 H 1056.71 -1.97295 6.16185 0
M  V30 10878 N 1056.84 -1.516 -0.430713 0
M  V30 10879 C 1058.09 -1.65801 -1.17821 0
M  V30 10880 C 1058.44 -0.372769 -1.88754 0
M  V30 10881 O 1057.74 0.631767 -1.80885 0
M  V30 10882 C 1057.93 -2.804 -2.21609 0
M  V30 10883 C 1057.76 -4.19944 -1.60863 0
M  V30 10884 C 1056.53 -4.85786 -1.39068 0
M  V30 10885 C 1058.73 -5.02806 -1.08124 0
M  V30 10886 N 1056.71 -6.09425 -0.73989 0
M  V30 10887 C 1058.08 -6.17501 -0.556114 0
M  V30 10888 C 1060.13 -4.88288 -0.973635 0
M  V30 10889 C 1058.84 -7.1927 0.0660558 0
M  V30 10890 C 1060.86 -5.9027 -0.36535 0
M  V30 10891 C 1060.23 -7.04242 0.149205 0
M  V30 10892 H 1056.32 -0.660545 -0.418574 0
M  V30 10893 H 1058.91 -1.88847 -0.473799 0
M  V30 10894 H 1057.08 -2.59006 -2.89431 0
M  V30 10895 H 1058.81 -2.83747 -2.88565 0
M  V30 10896 H 1055.57 -4.4377 -1.65425 0
M  V30 10897 H 1055.99 -6.75622 -0.431745 0
M  V30 10898 H 1060.63 -4.00421 -1.35731 0
M  V30 10899 H 1058.35 -8.06779 0.461848 0
M  V30 10900 H 1061.94 -5.81107 -0.283902 0
M  V30 10901 H 1060.82 -7.81804 0.61249 0
M  V30 10902 N 1058.32 0.686584 -1.41858 0
M  V30 10903 C 1059.25 1.81264 -1.47193 0
M  V30 10904 C 1060.23 1.66875 -0.329657 0
M  V30 10905 O 1061.42 1.86473 -0.542347 0
M  V30 10906 C 1058.55 3.19472 -1.36216 0
M  V30 10907 C 1057.5 3.4858 -2.48347 0
M  V30 10908 C 1056.83 4.86239 -2.22432 0
M  V30 10909 C 1058.13 3.46653 -3.90678 0
M  V30 10910 H 1059.82 1.77057 -2.41436 0
M  V30 10911 H 1057.37 0.850415 -1.16206 0
M  V30 10912 H 1059.32 3.97969 -1.38558 0
M  V30 10913 H 1058.04 3.24327 -0.384611 0
M  V30 10914 H 1056.7 2.72437 -2.45303 0
M  V30 10915 H 1056.35 4.8773 -1.22999 0
M  V30 10916 H 1056.05 5.06677 -2.97577 0
M  V30 10917 H 1057.57 5.67034 -2.26505 0
M  V30 10918 H 1058.99 4.15139 -3.95389 0
M  V30 10919 H 1057.38 3.78625 -4.65578 0
M  V30 10920 H 1058.45 2.45451 -4.18189 0
M  V30 10921 O 1059.84 1.38606 0.828894 0
M  V30 10922 H 1060.53 1.25942 1.47168 0
M  V30 END ATOM
M  V30 BEGIN BOND
M  V30 END BOND
M  V30 END CTAB
M  END
$$$$
