drugbank_target|Q9PM68 Bifunctional enzyme IspD/IspF (DB02552; DB03403)
 OpenBabel12092119593D

  0  0  0     0  0            999 V3000
M  V30 BEGIN CTAB
M  V30 COUNTS 5923 5972 0 0 0
M  V30 BEGIN ATOM
M  V30 1 H -0.908 1.98254 -0.117106 0
M  V30 2 N 0 1.576 0 0
M  V30 3 C 0.933 2.03868 1.02534 0
M  V30 4 C 1.911 0.928543 1.3348 0
M  V30 5 O 3.095 1.19667 1.45644 0
M  V30 6 C 0.222 2.43627 2.35294 0
M  V30 7 C -0.732 3.65373 2.2001 0
M  V30 8 S 0.101 5.13292 1.52614 0
M  V30 9 C 1.257 5.56322 2.86805 0
M  V30 10 H 1.49 2.90518 0.631377 0
M  V30 11 H -0.977 1.52953 0.210867 0
M  V30 12 H 0.981 2.67203 3.11629 0
M  V30 13 H -0.358 1.57376 2.7183 0
M  V30 14 H -1.165 3.90944 3.18086 0
M  V30 15 H -1.563 3.418 1.51819 0
M  V30 16 H 0.729 5.58782 3.83104 0
M  V30 17 H 1.672 6.56266 2.65933 0
M  V30 18 H 2.08 4.83886 2.90714 0
M  V30 19 N 1.4781 -0.272755 1.55222 0
M  V30 20 C 2.7031 -1.02683 1.80197 0
M  V30 21 C 3.1281 -1.79142 0.573551 0
M  V30 22 O 2.4861 -1.74917 -0.476849 0
M  V30 23 C 2.5341 -1.9609 3.02624 0
M  V30 24 O 1.6381 -3.04863 2.77727 0
M  V30 25 H 0.9791 -0.293557 0.595584 0
M  V30 26 H 3.5091 -0.30159 2.02365 0
M  V30 27 H 3.5191 -2.38039 3.31363 0
M  V30 28 H 2.1941 -1.39851 3.91682 0
M  V30 29 H 0.7711 -2.67228 2.60084 0
M  V30 30 N 2.9562 -1.48159 -0.537278 0
M  V30 31 C 3.8662 -1.64807 -1.6696 0
M  V30 32 C 4.8822 -0.530651 -1.65711 0
M  V30 33 O 6.0582 -0.800784 -1.84796 0
M  V30 34 C 3.1232 -1.67708 -3.03438 0
M  V30 35 C 2.1842 -2.91025 -3.156 0
M  V30 36 C 1.4172 -2.93778 -4.45567 0
M  V30 37 O 1.6402 -2.05153 -5.3223 0
M  V30 38 O 0.5742 -3.85868 -4.61941 0
M  V30 39 H 4.4002 -2.6066 -1.55853 0
M  V30 40 H 1.9852 -1.31475 -0.709549 0
M  V30 41 H 3.8672 -1.7218 -3.84619 0
M  V30 42 H 2.5422 -0.750278 -3.14885 0
M  V30 43 H 1.4492 -2.92089 -2.33741 0
M  V30 44 H 2.7822 -3.83065 -3.09066 0
M  V30 45 N 4.4343 0.785586 -1.36625 0
M  V30 46 C 5.3673 1.90509 -1.25625 0
M  V30 47 C 6.3453 1.62 -0.139607 0
M  V30 48 O 7.5293 1.8591 -0.31141 0
M  V30 49 C 4.6563 3.25419 -0.939158 0
M  V30 50 C 3.7023 3.72856 -2.07077 0
M  V30 51 S 4.5353 3.88162 -3.68904 0
M  V30 52 C 5.6913 5.25942 -3.39317 0
M  V30 53 H 5.9243 1.99549 -2.20381 0
M  V30 54 H 3.4573 0.945226 -1.22085 0
M  V30 55 H 5.4153 4.03346 -0.763029 0
M  V30 56 H 4.0763 3.14099 -0.00931402 0
M  V30 57 H 3.2693 4.70624 -1.80357 0
M  V30 58 H 2.8713 3.01989 -2.20632 0
M  V30 59 H 5.1633 6.10651 -2.93447 0
M  V30 60 H 6.1063 5.57668 -4.36363 0
M  V30 61 H 6.5143 4.93224 -2.74573 0
M  V30 62 N 5.9124 1.20967 1.01018 0
M  V30 63 C 7.1374 1.0503 1.78839 0
M  V30 64 C 7.5624 -0.395752 1.8389 0
M  V30 65 O 6.9204 -1.28529 1.27867 0
M  V30 66 C 6.9684 1.64602 3.2084 0
M  V30 67 O 6.0724 0.887988 4.02726 0
M  V30 68 H 5.4134 0.369987 0.551367 0
M  V30 69 H 7.9434 1.60399 1.27018 0
M  V30 70 H 7.9534 1.68607 3.71532 0
M  V30 71 H 6.6284 2.69841 3.16479 0
M  V30 72 H 5.2054 0.922648 3.61305 0
M  V30 73 N 7.3905 -1.2043 1.01659 0
M  V30 74 C 8.3205 -2.25466 0.607226 0
M  V30 75 C 9.3015 -1.65853 -0.377716 0
M  V30 76 O 10.4865 -1.92409 -0.263149 0
M  V30 77 C 7.6165 -3.47256 -0.0552949 0
M  V30 78 C 6.5705 -4.19462 0.850632 0
M  V30 79 C 5.8965 -5.34673 0.0538859 0
M  V30 80 C 7.1965 -4.75603 2.15868 0
M  V30 81 H 8.8905 -2.59962 1.48526 0
M  V30 82 H 6.4365 -1.2496 0.715605 0
M  V30 83 H 8.3895 -4.19917 -0.353233 0
M  V30 84 H 7.1135 -3.11924 -0.968045 0
M  V30 85 H 5.7725 -3.48667 1.13257 0
M  V30 86 H 5.4205 -4.95585 -0.860514 0
M  V30 87 H 5.1205 -5.83913 0.657192 0
M  V30 88 H 6.6445 -6.10138 -0.237598 0
M  V30 89 H 8.0585 -5.40083 1.92311 0
M  V30 90 H 6.4555 -5.3528 2.71284 0
M  V30 91 H 7.5255 -3.94346 2.82169 0
M  V30 92 N 8.8686 -0.792821 -1.36206 0
M  V30 93 C 10.1176 -0.363353 -1.984 0
M  V30 94 C 10.4306 1.07172 -1.63626 0
M  V30 95 O 11.6366 1.60362 -2.19081 0
M  V30 96 C 10.0926 -0.59872 -3.54885 0
M  V30 97 C 9.7006 -2.04543 -3.9858 0
M  V30 98 C 11.4446 -0.233926 -4.23855 0
M  V30 99 C 9.3516 -2.22727 -5.47856 0
M  V30 100 H 8.2816 -0.13212 -0.742334 0
M  V30 101 H 10.9326 -0.974935 -1.55458 0
M  V30 102 H 9.3146 0.0826222 -3.95914 0
M  V30 103 H 10.4886 -2.76345 -3.68741 0
M  V30 104 H 8.8036 -2.36879 -3.42458 0
M  V30 105 H 11.4006 -0.348027 -5.33566 0
M  V30 106 H 11.7436 0.818351 -4.08177 0
M  V30 107 H 12.2766 -0.868639 -3.882 0
M  V30 108 H 9.0156 -3.2635 -5.68486 0
M  V30 109 H 8.5356 -1.55434 -5.7931 0
M  V30 110 H 10.2146 -2.03607 -6.14128 0
M  V30 111 N 10.3467 1.47872 -0.545128 0
M  V30 112 C 11.2797 2.2675 0.256885 0
M  V30 113 C 12.2577 1.33293 0.931228 0
M  V30 114 O 13.4417 1.62657 0.95262 0
M  V30 115 C 10.5687 3.09976 1.36501 0
M  V30 116 C 9.6147 4.1892 0.800496 0
M  V30 117 S 10.4477 5.34397 -0.343505 0
M  V30 118 C 11.6037 6.21186 0.766733 0
M  V30 119 H 11.8367 2.94425 -0.412479 0
M  V30 120 H 9.3697 1.50806 -0.331204 0
M  V30 121 H 11.3277 3.585 1.9997 0
M  V30 122 H 9.9887 2.41686 2.00616 0
M  V30 123 H 9.1817 4.76836 1.63227 0
M  V30 124 H 8.7837 3.73215 0.242217 0
M  V30 125 H 11.0757 6.56804 1.66178 0
M  V30 126 H 12.0187 7.07742 0.225204 0
M  V30 127 H 12.4267 5.54574 1.05396 0
M  V30 128 N 11.8248 0.280983 1.55075 0
M  V30 129 C 12.7548 -0.597469 2.25727 0
M  V30 130 C 13.7358 -1.15417 1.24952 0
M  V30 131 O 14.9208 -1.18722 1.53684 0
M  V30 132 C 12.0508 -1.7789 2.98283 0
M  V30 133 C 11.0048 -1.35347 4.06036 0
M  V30 134 C 10.3308 -2.61846 4.66198 0
M  V30 135 C 11.6308 -0.499354 5.19907 0
M  V30 136 H 13.3248 -0.00824265 2.99399 0
M  V30 137 H 10.8708 -0.0025244 1.44 0
M  V30 138 H 12.8238 -2.39937 3.46422 0
M  V30 139 H 11.5478 -2.39405 2.22155 0
M  V30 140 H 10.2068 -0.756156 3.58717 0
M  V30 141 H 9.8548 -3.21632 3.86732 0
M  V30 142 H 9.5548 -2.3409 5.38958 0
M  V30 143 H 11.0788 -3.24732 5.1709 0
M  V30 144 H 12.4928 -1.02498 5.64063 0
M  V30 145 H 10.8898 -0.316424 5.99265 0
M  V30 146 H 11.9598 0.480459 4.82514 0
M  V30 147 N 13.3029 -1.57598 0.00835791 0
M  V30 148 C 14.2659 -2.07884 -0.965242 0
M  V30 149 C 15.2659 -0.989825 -1.26725 0
M  V30 150 O 16.4559 -1.25218 -1.21104 0
M  V30 151 C 13.5879 -2.52731 -2.28779 0
M  V30 152 H 14.7809 -2.95178 -0.530112 0
M  V30 153 H 12.3339 -1.54458 -0.239283 0
M  V30 154 H 13.0689 -1.68705 -2.76964 0
M  V30 155 H 12.8539 -3.32272 -2.08177 0
M  V30 156 H 14.3439 -2.91933 -2.98605 0
M  V30 157 N 14.781 0.264519 -1.55364 0
M  V30 158 C 15.744 1.31046 -1.88042 0
M  V30 159 C 16.744 1.41943 -0.755569 0
M  V30 160 O 17.934 1.40947 -1.02369 0
M  V30 161 C 15.066 2.69067 -2.09323 0
M  V30 162 H 16.259 1.03297 -2.81549 0
M  V30 163 H 13.812 0.502989 -1.47986 0
M  V30 164 H 14.547 3.01982 -1.18226 0
M  V30 165 H 14.332 2.62542 -2.91229 0
M  V30 166 H 15.822 3.44623 -2.35848 0
M  V30 167 N 16.2591 1.48442 0.529413 0
M  V30 168 C 17.5071 1.56179 1.28267 0
M  V30 169 C 17.8281 0.237721 1.93546 0
M  V30 170 O 17.0981 -0.740779 1.81354 0
M  V30 171 H 15.6781 0.575367 0.476405 0
M  V30 172 H 18.3401 1.84909 0.61602 0
M  V30 173 H 17.4361 2.34312 2.06165 0
M  V30 174 N 17.7372 -0.778329 1.37039 0
M  V30 175 C 18.6852 -1.91278 1.32345 0
M  V30 176 C 19.6792 -1.68051 0.213331 0
M  V30 177 O 20.8852 -1.75922 0.38098 0
M  V30 178 H 17.2602 -0.628909 0.412283 0
M  V30 179 H 19.2312 -1.92355 2.28127 0
M  V30 180 C 17.9802 -3.28455 1.14073 0
M  V30 181 H 17.3032 -3.46901 1.98746 0
M  V30 182 H 18.7432 -4.08152 1.14837 0
M  V30 183 C 17.2022 -3.36548 -0.154015 0
M  V30 184 O 17.7322 -3.85186 -1.13993 0
M  V30 185 N 15.9382 -2.89894 -0.202475 0
M  V30 186 H 15.4852 -2.50504 0.600476 0
M  V30 187 H 15.4432 -2.9569 -1.06841 0
M  V30 188 N 19.2153 -1.21501 -1.00376 0
M  V30 189 C 20.4403 -1.05977 -1.78279 0
M  V30 190 C 20.8653 0.385994 -1.84097 0
M  V30 191 O 20.2233 1.27849 -1.28547 0
M  V30 192 C 20.2713 -1.66302 -3.19963 0
M  V30 193 O 19.3753 -0.909333 -4.0225 0
M  V30 194 H 18.7163 -0.372906 -0.549397 0
M  V30 195 H 21.2463 -1.6107 -1.26165 0
M  V30 196 H 21.2563 -1.70574 -3.70632 0
M  V30 197 H 19.9313 -2.71515 -3.15043 0
M  V30 198 H 18.5083 -0.941795 -3.60811 0
M  V30 199 N 20.6934 1.19889 -1.02296 0
M  V30 200 C 21.9214 1.9339 -0.735399 0
M  V30 201 C 22.3364 1.75148 0.704887 0
M  V30 202 O 21.6934 1.06954 1.47875 0
M  V30 203 C 21.7444 3.45313 -1.06962 0
M  V30 204 O 21.4654 3.62964 -2.45334 0
M  V30 205 C 22.9664 4.35948 -0.804021 0
M  V30 206 H 20.1864 0.61448 -0.269546 0
M  V30 207 H 22.7304 1.522 -1.36585 0
M  V30 208 H 20.8854 3.84359 -0.484455 0
M  V30 209 H 21.2994 4.56886 -2.57595 0
M  V30 210 H 22.7734 5.41174 -1.0879 0
M  V30 211 H 23.2504 4.3842 0.261691 0
M  V30 212 H 23.8564 4.02574 -1.37164 0
M  V30 213 N 22.1715 0.800033 1.35784 0
M  V30 214 C 23.5875 0.482977 1.52117 0
M  V30 215 C 23.7875 -0.996948 1.75109 0
M  V30 216 O 22.8435 -1.78216 1.78872 0
M  V30 217 C 24.1565 1.32264 2.70049 0
M  V30 218 C 25.7045 1.31742 2.83924 0
M  V30 219 C 26.1795 2.14106 4.04874 0
M  V30 220 N 27.6705 2.11607 4.12039 0
M  V30 221 C 28.4055 2.72099 5.04727 0
M  V30 222 N 27.9015 3.41492 6.02789 0
M  V30 223 N 29.6945 2.61776 4.97423 0
M  V30 224 H 21.8455 1.75856 1.19115 0
M  V30 225 H 24.1085 0.748122 0.582252 0
M  V30 226 H 23.8145 2.37261 2.59616 0
M  V30 227 H 23.6885 0.971303 3.6448 0
M  V30 228 H 26.0755 0.275333 2.93813 0
M  V30 229 H 26.1565 1.70859 1.9037 0
M  V30 230 H 25.8005 3.18351 3.95746 0
M  V30 231 H 25.7305 1.72353 4.97596 0
M  V30 232 H 28.2215 1.61112 3.41835 0
M  V30 233 H 28.5345 3.84953 6.70098 0
M  V30 234 H 26.8795 3.45596 6.02983 0
M  V30 235 H 30.0705 2.07157 4.19766 0
M  V30 236 H 30.2435 3.0921 5.69468 0
M  V30 237 N 23.6496 -1.47581 0.552962 0
M  V30 238 C 24.8966 -2.02482 0.0273243 0
M  V30 239 C 25.2246 -1.42776 -1.32081 0
M  V30 240 O 24.4796 -0.571393 -1.87173 0
M  V30 241 C 24.7786 -3.57199 -0.119728 0
M  V30 242 C 24.4446 -4.35804 1.15697 0
M  V30 243 C 23.1066 -4.57 1.50681 0
M  V30 244 C 25.4586 -4.81167 2.00319 0
M  V30 245 C 22.7866 -5.20807 2.70142 0
M  V30 246 C 25.1386 -5.46293 3.18978 0
M  V30 247 C 23.8026 -5.65722 3.54281 0
M  V30 248 H 23.0726 -0.740933 0.00999866 0
M  V30 249 H 25.7196 -1.77302 0.72362 0
M  V30 250 H 24.0246 -3.81348 -0.89896 0
M  V30 251 H 25.7216 -3.97324 -0.541718 0
M  V30 252 H 22.3116 -4.19582 0.874561 0
M  V30 253 H 26.4956 -4.64574 1.74599 0
M  V30 254 H 21.7516 -5.34045 2.97668 0
M  V30 255 H 25.9256 -5.80407 3.84838 0
M  V30 256 H 23.5526 -6.14936 4.46942 0
M  V30 257 N 25.1277 -0.289203 -1.54924 0
M  V30 258 C 26.0757 0.607966 -2.24514 0
M  V30 259 C 27.0697 1.14655 -1.24702 0
M  V30 260 O 28.2757 1.09856 -1.4259 0
M  V30 261 H 24.6507 0.21464 -0.720718 0
M  V30 262 H 26.6217 -0.00164182 -2.984 0
M  V30 263 C 25.3707 1.77406 -2.99036 0
M  V30 264 H 24.6937 1.36884 -3.75637 0
M  V30 265 H 26.1337 2.37814 -3.51028 0
M  V30 266 C 24.5927 2.67107 -2.05318 0
M  V30 267 O 25.1227 3.6787 -1.61353 0
M  V30 268 N 23.3287 2.34582 -1.71521 0
M  V30 269 H 22.8757 1.52688 -2.07471 0
M  V30 270 H 22.8337 2.94867 -1.0909 0
M  V30 271 N 26.6058 1.57591 -0.0167156 0
M  V30 272 C 27.8338 1.95575 0.675128 0
M  V30 273 C 28.2488 0.892542 1.6637 0
M  V30 274 O 27.6058 -0.126912 1.82058 0
M  V30 275 C 27.6568 3.33608 1.39239 0
M  V30 276 O 27.3778 4.3585 0.443444 0
M  V30 277 C 28.8788 3.86151 2.17721 0
M  V30 278 H 26.0988 0.644423 0.186978 0
M  V30 279 H 28.6428 2.0437 -0.0728 0
M  V30 280 H 26.7978 3.2607 2.09182 0
M  V30 281 H 27.2118 5.158 0.951358 0
M  V30 282 H 28.6858 4.85114 2.63379 0
M  V30 283 H 29.1628 3.19738 3.01105 0
M  V30 284 H 29.7688 3.96918 1.52761 0
M  V30 285 N 28.0839 -0.256276 1.55502 0
M  V30 286 C 29.0309 -1.31714 1.89526 0
M  V30 287 C 30.0009 -1.4828 0.748479 0
M  V30 288 O 31.1859 -1.62416 1.00128 0
M  V30 289 C 28.3259 -2.66933 2.18725 0
M  V30 290 C 27.4389 -2.58452 3.4616 0
M  V30 291 C 26.5739 -3.85961 3.64976 0
M  V30 292 C 25.6129 -3.72059 4.86044 0
M  V30 293 N 24.7499 -4.9144 5.01429 0
M  V30 294 H 29.5899 -1.01998 2.80001 0
M  V30 295 H 27.1269 -0.492413 1.38613 0
M  V30 296 H 29.0849 -3.4563 2.33657 0
M  V30 297 H 27.7149 -2.94816 1.31466 0
M  V30 298 H 26.7669 -1.71374 3.3961 0
M  V30 299 H 28.0789 -2.44085 4.34999 0
M  V30 300 H 27.2329 -4.73101 3.79816 0
M  V30 301 H 25.9719 -4.03215 2.74353 0
M  V30 302 H 24.9769 -2.83302 4.7119 0
M  V30 303 H 26.2019 -3.56309 5.78118 0
M  V30 304 H 24.1479 -5.09072 4.13741 0
M  V30 305 H 24.0649 -4.79668 5.84341 0
M  V30 306 H 25.3329 -5.80104 5.20672 0
M  V30 307 N 29.562 -1.4872 -0.521534 0
M  V30 308 C 30.808 -1.574 -1.27879 0
M  V30 309 C 31.141 -0.250817 -1.92573 0
M  V30 310 O 30.416 0.743934 -1.79711 0
M  V30 311 C 30.699 -2.71843 -2.36164 0
M  V30 312 C 30.552 -4.13893 -1.76105 0
M  V30 313 C 31.871 -2.82008 -3.37875 0
M  V30 314 H 28.99 -0.572941 -0.463581 0
M  V30 315 H 31.632 -1.80927 -0.580119 0
M  V30 316 H 29.782 -2.51914 -2.95756 0
M  V30 317 H 31.454 -4.45284 -1.20499 0
M  V30 318 H 29.697 -4.20498 -1.06601 0
M  V30 319 H 30.368 -4.89804 -2.5455 0
M  V30 320 H 32.844 -3.00086 -2.88249 0
M  V30 321 H 31.72 -3.63796 -4.11028 0
M  V30 322 H 31.981 -1.90511 -3.98946 0
M  V30 323 N 31.0401 0.771051 -1.3745 0
M  V30 324 C 31.9871 1.88435 -1.3327 0
M  V30 325 C 32.9571 1.64914 -0.198136 0
M  V30 326 O 34.1421 1.86821 -0.387606 0
M  V30 327 C 31.2821 3.25509 -1.14622 0
M  V30 328 C 30.3951 3.60979 -2.37314 0
M  V30 329 C 29.5301 4.87265 -2.11533 0
M  V30 330 C 28.5691 5.15469 -3.30088 0
M  V30 331 N 27.7061 6.32944 -3.03853 0
M  V30 332 H 32.5461 1.91344 -2.28455 0
M  V30 333 H 30.0831 0.935466 -1.13523 0
M  V30 334 H 32.0411 4.04582 -1.01831 0
M  V30 335 H 30.6711 3.21974 -0.230837 0
M  V30 336 H 29.7231 2.76885 -2.60842 0
M  V30 337 H 31.0351 3.77759 -3.25729 0
M  V30 338 H 30.1891 5.74244 -1.95777 0
M  V30 339 H 28.9281 4.7259 -1.20457 0
M  V30 340 H 27.9331 4.26966 -3.46382 0
M  V30 341 H 29.1581 5.32052 -4.22016 0
M  V30 342 H 27.1041 6.19625 -2.15407 0
M  V30 343 H 27.0211 6.50143 -3.85812 0
M  V30 344 H 28.2891 7.22857 -2.91716 0
M  V30 345 N 32.5182 1.22032 0.997298 0
M  V30 346 C 33.4652 0.986467 2.08656 0
M  V30 347 C 34.4352 -0.0902671 1.65855 0
M  V30 348 O 35.6202 0.0584294 1.90711 0
M  V30 349 C 32.7602 0.565569 3.40434 0
M  V30 350 C 31.8732 1.71259 3.96604 0
M  V30 351 C 31.0082 1.24011 5.16522 0
M  V30 352 C 30.0472 2.35896 5.64818 0
M  V30 353 N 29.1842 1.89726 6.7598 0
M  V30 354 H 34.0242 1.91892 2.27994 0
M  V30 355 H 31.5612 0.956199 1.11782 0
M  V30 356 H 33.5192 0.302738 4.161 0
M  V30 357 H 32.1492 -0.329879 3.2111 0
M  V30 358 H 31.2012 2.08986 3.17851 0
M  V30 359 H 32.5132 2.55436 4.28432 0
M  V30 360 H 31.6672 0.934395 5.99461 0
M  V30 361 H 30.4062 0.368487 4.86306 0
M  V30 362 H 29.4112 2.67261 4.8047 0
M  V30 363 H 30.6362 3.23567 5.97061 0
M  V30 364 H 28.5822 1.0492 6.47555 0
M  V30 365 H 28.4992 2.67471 7.07103 0
M  V30 366 H 29.7672 1.62211 7.62435 0
M  V30 367 N 33.9963 -1.19345 1.0293 0
M  V30 368 C 34.9283 -2.22036 0.56857 0
M  V30 369 C 35.9413 -1.58865 -0.355779 0
M  V30 370 O 37.1303 -1.77851 -0.152103 0
M  V30 371 C 34.2303 -3.38363 -0.190752 0
M  V30 372 C 33.4033 -4.31118 0.738643 0
M  V30 373 C 32.4623 -5.26194 0.0246497 0
M  V30 374 O 31.4883 -5.65461 0.651354 0
M  V30 375 N 32.6903 -5.66971 -1.24594 0
M  V30 376 H 35.4553 -2.6219 1.45177 0
M  V30 377 H 33.0163 -1.34015 0.908381 0
M  V30 378 H 35.0083 -3.98981 -0.677961 0
M  V30 379 H 33.5783 -2.96994 -0.975366 0
M  V30 380 H 32.7983 -3.68276 1.40593 0
M  V30 381 H 34.0863 -4.90001 1.37029 0
M  V30 382 H 33.4843 -5.37104 -1.77583 0
M  V30 383 H 32.0413 -6.2984 -1.67764 0
M  V30 384 N 35.4744 -0.807222 -1.35358 0
M  V30 385 C 36.7214 -0.387888 -1.9875 0
M  V30 386 C 37.0494 1.04509 -1.64037 0
M  V30 387 O 36.3044 1.73986 -0.895946 0
M  V30 388 C 36.6034 -0.519036 -3.53611 0
M  V30 389 C 36.2694 -1.91542 -4.08194 0
M  V30 390 C 34.9314 -2.29745 -4.22813 0
M  V30 391 C 37.2834 -2.82896 -4.37744 0
M  V30 392 C 34.6114 -3.58668 -4.643 0
M  V30 393 C 36.9634 -4.11265 -4.8067 0
M  V30 394 C 35.6274 -4.49466 -4.93494 0
M  V30 395 H 34.8974 -0.141938 -0.727279 0
M  V30 396 H 37.5444 -1.02814 -1.6156 0
M  V30 397 H 35.8494 0.204658 -3.91265 0
M  V30 398 H 37.5464 -0.175345 -4.00616 0
M  V30 399 H 34.1364 -1.60862 -3.97268 0
M  V30 400 H 38.3204 -2.54629 -4.26002 0
M  V30 401 H 33.5764 -3.88113 -4.72418 0
M  V30 402 H 37.7504 -4.82153 -5.02496 0
M  V30 403 H 35.3774 -5.49418 -5.25399 0
M  V30 404 N 36.9525 1.47285 -0.560781 0
M  V30 405 C 37.8825 2.32857 0.173105 0
M  V30 406 C 38.8635 1.44009 0.905281 0
M  V30 407 O 40.0485 1.7286 0.885046 0
M  V30 408 C 37.1785 3.25861 1.20133 0
M  V30 409 C 36.1325 4.23978 0.585388 0
M  V30 410 C 35.4585 5.06332 1.7185 0
M  V30 411 C 36.7585 5.20242 -0.463178 0
M  V30 412 H 38.4525 2.94466 -0.541307 0
M  V30 413 H 35.9985 1.41601 -0.261764 0
M  V30 414 H 37.9515 3.84569 1.72293 0
M  V30 415 H 36.6755 2.62315 1.94573 0
M  V30 416 H 35.3345 3.66501 0.085054 0
M  V30 417 H 34.9825 4.39186 2.45203 0
M  V30 418 H 34.6825 5.72762 1.31213 0
M  V30 419 H 36.2065 5.67899 2.24329 0
M  V30 420 H 37.6205 5.73293 -0.027502 0
M  V30 421 H 36.0175 5.94896 -0.788627 0
M  V30 422 H 37.0875 4.65504 -1.35773 0
M  V30 423 N 38.4306 0.297415 1.54768 0
M  V30 424 C 39.8466 -0.0560823 1.59501 0
M  V30 425 C 40.0466 -1.52725 1.31444 0
M  V30 426 O 39.1026 -2.27947 1.08611 0
M  V30 427 C 40.4156 0.338631 2.98787 0
M  V30 428 C 41.9636 0.287097 3.11681 0
M  V30 429 C 42.4386 0.656579 4.53269 0
M  V30 430 N 43.9296 0.608977 4.59179 0
M  V30 431 C 44.6646 0.867385 5.66802 0
M  V30 432 N 44.1606 1.19157 6.82476 0
M  V30 433 N 45.9536 0.794687 5.56454 0
M  V30 434 H 38.1046 1.25624 1.71267 0
M  V30 435 H 40.3676 0.509057 0.799728 0
M  V30 436 H 40.0736 1.36263 3.2423 0
M  V30 437 H 39.9476 -0.309508 3.75928 0
M  V30 438 H 42.3346 -0.727649 2.85988 0
M  V30 439 H 42.4156 0.969809 2.36703 0
M  V30 440 H 42.0596 1.66912 4.7969 0
M  V30 441 H 41.9896 -0.0481649 5.26578 0
M  V30 442 H 44.4806 0.369198 3.76092 0
M  V30 443 H 44.7936 1.37482 7.60473 0
M  V30 444 H 43.1386 1.22958 6.84037 0
M  V30 445 H 46.3296 0.541098 4.64962 0
M  V30 446 H 46.5026 0.999445 6.40246 0
M  V30 447 N 39.9087 -1.5758 0.0250728 0
M  V30 448 C 40.8387 -2.13007 -0.956575 0
M  V30 449 C 41.8197 -1.0452 -1.342 0
M  V30 450 O 43.0047 -1.32332 -1.42133 0
M  V30 451 C 40.1347 -2.65386 -2.24026 0
M  V30 452 C 39.0887 -3.78623 -1.99571 0
M  V30 453 C 38.4147 -4.17414 -3.3417 0
M  V30 454 C 39.7147 -5.04867 -1.33814 0
M  V30 455 H 41.4087 -2.9528 -0.494991 0
M  V30 456 H 38.9547 -1.42042 -0.236651 0
M  V30 457 H 40.9077 -3.02794 -2.93076 0
M  V30 458 H 39.6317 -1.80268 -2.72343 0
M  V30 459 H 38.2907 -3.41646 -1.32941 0
M  V30 460 H 37.9387 -3.29284 -3.80238 0
M  V30 461 H 37.6387 -4.93719 -3.18615 0
M  V30 462 H 39.1627 -4.57402 -4.04495 0
M  V30 463 H 40.5767 -5.39888 -1.92857 0
M  V30 464 H 38.9737 -5.86144 -1.28669 0
M  V30 465 H 40.0437 -4.83904 -0.310561 0
M  V30 466 N 41.3868 0.248026 -1.55636 0
M  V30 467 C 42.6348 0.974295 -1.77065 0
M  V30 468 C 42.9558 1.85897 -0.588849 0
M  V30 469 O 42.2258 1.91868 0.395407 0
M  V30 470 H 40.8058 0.362733 -0.653019 0
M  V30 471 H 43.4678 0.266244 -1.93073 0
M  V30 472 H 42.5638 1.59667 -2.68166 0
M  V30 473 N 42.8649 1.48995 0.513639 0
M  V30 474 C 43.8129 1.65199 1.63744 0
M  V30 475 C 44.8069 0.51809 1.61283 0
M  V30 476 O 46.0129 0.697335 1.65943 0
M  V30 477 H 42.3879 0.52069 0.542574 0
M  V30 478 H 44.3589 2.59552 1.47226 0
M  V30 479 C 43.1079 1.72409 3.01945 0
M  V30 480 H 42.4309 2.59029 3.04539 0
M  V30 481 H 43.8709 1.87785 3.80148 0
M  V30 482 C 42.3299 0.46618 3.33659 0
M  V30 483 O 42.8599 -0.413744 3.99564 0
M  V30 484 N 41.0659 0.332931 2.88687 0
M  V30 485 H 40.6129 1.04996 2.35231 0
M  V30 486 H 40.5709 -0.507665 3.10274 0
M  V30 487 N 44.343 -0.763751 1.37857 0
M  V30 488 C 45.62 -1.51244 1.24035 0
M  V30 489 C 46 -2.10472 -0.162649 0
M  V30 490 O 45.348 -1.96206 -1.17112 0
M  V30 491 C 45.558 -2.58694 2.34261 0
M  V30 492 C 46.906 -3.25878 2.72193 0
M  V30 493 O 47.93 -2.68993 2.33497 0
M  V30 494 O 46.789 -4.2874 3.38887 0
M  V30 495 H 43.883 -0.670243 0.484462 0
M  V30 496 H 46.429 -0.800031 1.49658 0
M  V30 497 H 45.201 -2.13105 3.2818 0
M  V30 498 H 44.824 -3.37527 2.10146 0
M  V30 499 N 45.8211 -1.22559 -0.990812 0
M  V30 500 C 47.2321 -1.04791 -1.54518 0
M  V30 501 C 47.5831 0.387998 -1.92325 0
M  V30 502 O 46.7081 1.27328 -1.74976 0
M  V30 503 C 47.3031 -1.896 -2.80779 0
M  V30 504 C 45.8621 -1.76124 -3.32652 0
M  V30 505 C 45.0091 -1.8594 -2.05722 0
M  V30 506 H 47.9601 -1.36374 -0.811662 0
M  V30 507 H 47.9811 -1.41464 -3.53225 0
M  V30 508 H 47.4931 -2.94101 -2.53231 0
M  V30 509 H 45.5941 -0.743643 -3.65104 0
M  V30 510 H 45.7071 -2.58913 -4.03114 0
M  V30 511 H 44.0711 -1.29403 -2.19379 0
M  V30 512 H 44.8541 -2.91976 -1.80568 0
M  V30 513 N 47.2992 1.18797 -1.03562 0
M  V30 514 C 48.2292 2.24472 -0.643019 0
M  V30 515 C 49.2102 1.66433 0.351283 0
M  V30 516 O 50.3952 1.92803 0.232505 0
M  V30 517 C 47.5252 3.473 4.24935e-05 0
M  V30 518 C 46.4792 4.18055 -0.917257 0
M  V30 519 C 45.8052 5.34519 -0.138941 0
M  V30 520 C 47.1052 4.72109 -2.23407 0
M  V30 521 H 48.7992 2.57566 -1.52643 0
M  V30 522 H 46.3452 1.23806 -0.735394 0
M  V30 523 H 48.2982 4.20426 0.286383 0
M  V30 524 H 47.0222 3.13424 0.918299 0
M  V30 525 H 45.6812 3.46821 -1.1879 0
M  V30 526 H 45.3292 4.96891 0.781562 0
M  V30 527 H 45.0292 5.82794 -0.750005 0
M  V30 528 H 46.5532 6.10438 0.1405 0
M  V30 529 H 47.9672 5.36955 -2.00879 0
M  V30 530 H 46.3642 5.30897 -2.79765 0
M  V30 531 H 47.4342 3.89807 -2.88407 0
M  V30 532 N 48.7773 0.814389 1.34928 0
M  V30 533 C 50.0233 0.408167 1.99263 0
M  V30 534 C 50.3783 -1.0154 1.63424 0
M  V30 535 O 49.6713 -1.69607 0.891289 0
M  V30 536 C 49.8653 0.537781 3.53331 0
M  V30 537 C 49.6943 1.9724 4.04137 0
M  V30 538 C 48.4643 2.60245 4.33129 0
M  V30 539 C 50.6623 2.93801 4.2212 0
M  V30 540 N 48.6443 3.95036 4.69914 0
M  V30 541 C 50.0153 4.1348 4.6199 0
M  V30 542 C 52.0703 2.9053 4.04348 0
M  V30 543 C 50.7733 5.3033 4.85945 0
M  V30 544 C 52.7993 4.06589 4.29464 0
M  V30 545 C 52.1613 5.25017 4.69613 0
M  V30 546 H 48.2603 0.197289 0.756704 0
M  V30 547 H 50.8443 1.05728 1.63492 0
M  V30 548 H 49.0153 -0.0813868 3.88315 0
M  V30 549 H 50.7473 0.105389 4.04563 0
M  V30 550 H 47.5023 2.11545 4.23728 0
M  V30 551 H 47.9263 4.64455 4.92555 0
M  V30 552 H 52.5683 2.00115 3.72443 0
M  V30 553 H 50.2863 6.21309 5.16721 0
M  V30 554 H 53.8723 4.05447 4.17257 0
M  V30 555 H 52.7523 6.1333 4.88667 0
M  V30 556 N 50.2554 -1.46986 0.568584 0
M  V30 557 C 51.1854 -2.32946 -0.160753 0
M  V30 558 C 52.1664 -1.44487 -0.897631 0
M  V30 559 O 53.3514 -1.73327 -0.875867 0
M  V30 560 C 50.4814 -3.26494 -1.18403 0
M  V30 561 C 49.4354 -4.24282 -0.562895 0
M  V30 562 C 48.7614 -5.07236 -1.69163 0
M  V30 563 C 50.0614 -5.19989 0.490761 0
M  V30 564 H 51.7554 -2.94175 0.556916 0
M  V30 565 H 49.3014 -1.4146 0.26927 0
M  V30 566 H 51.2544 -3.85477 -1.70251 0
M  V30 567 H 49.9784 -2.63343 -1.93179 0
M  V30 568 H 48.6374 -3.66541 -0.0656164 0
M  V30 569 H 48.2854 -4.4048 -2.42871 0
M  V30 570 H 47.9854 -5.7345 -1.28174 0
M  V30 571 H 49.5094 -5.6908 -2.21314 0
M  V30 572 H 50.9234 -5.73271 0.0579047 0
M  V30 573 H 49.3204 -5.94469 0.820165 0
M  V30 574 H 50.3904 -4.64777 1.3824 0
M  V30 575 N 51.7335 -0.305618 -1.54608 0
M  V30 576 C 52.9635 0.304333 -2.04346 0
M  V30 577 C 53.3715 1.47715 -1.18224 0
M  V30 578 O 52.7145 1.82591 -0.201577 0
M  V30 579 C 52.7765 0.819031 -3.50046 0
M  V30 580 C 52.4405 -0.22912 -4.56425 0
M  V30 581 C 53.4375 -1.05914 -5.08997 0
M  V30 582 C 51.1225 -0.372148 -5.0092 0
M  V30 583 C 53.1165 -2.01809 -6.04609 0
M  V30 584 C 50.8035 -1.33454 -5.9635 0
M  V30 585 C 51.8015 -2.15599 -6.48079 0
M  V30 586 O 51.4895 -3.10205 -7.41639 0
M  V30 587 H 51.2215 0.0693996 -0.672428 0
M  V30 588 H 53.7755 -0.444548 -2.00532 0
M  V30 589 H 52.0055 1.61852 -3.51199 0
M  V30 590 H 53.6945 1.34537 -3.82955 0
M  V30 591 H 54.4605 -0.959538 -4.75413 0
M  V30 592 H 50.3395 0.257304 -4.60281 0
M  V30 593 H 53.8835 -2.65966 -6.44909 0
M  V30 594 H 49.7805 -1.43485 -6.29351 0
M  V30 595 H 50.5485 -3.05237 -7.59455 0
M  V30 596 N 53.2116 1.57565 -0.0334293 0
M  V30 597 C 54.1746 2.09393 0.932048 0
M  V30 598 C 55.1746 1.00986 1.25134 0
M  V30 599 O 56.3646 1.27129 1.19096 0
M  V30 600 C 53.4966 2.56338 2.2473 0
M  V30 601 H 54.6896 2.95984 0.483085 0
M  V30 602 H 52.2426 1.54819 0.21468 0
M  V30 603 H 52.9776 1.7309 2.74245 0
M  V30 604 H 52.7626 3.35542 2.02865 0
M  V30 605 H 54.2526 2.96646 2.93923 0
M  V30 606 N 54.6897 -0.239769 1.55765 0
M  V30 607 C 55.9177 -0.98417 1.81994 0
M  V30 608 C 56.3327 -1.7867 0.610124 0
M  V30 609 O 55.6897 -1.77571 -0.421271 0
M  V30 610 C 55.7407 -1.91635 3.06526 0
M  V30 611 O 55.4617 -1.14629 4.22838 0
M  V30 612 C 56.9627 -2.77616 3.45607 0
M  V30 613 H 54.1827 -0.28928 0.605441 0
M  V30 614 H 56.7267 -0.260499 2.02834 0
M  V30 615 H 54.8817 -2.5942 2.87715 0
M  V30 616 H 55.2957 -1.77745 4.93464 0
M  V30 617 H 56.7697 -3.38759 4.35828 0
M  V30 618 H 57.2467 -3.4909 2.6652 0
M  V30 619 H 57.8527 -2.15271 3.66795 0
M  V30 620 N 56.1678 -1.49265 -0.50573 0
M  V30 621 C 57.1148 -1.65585 -1.6078 0
M  V30 622 C 58.0848 -0.497396 -1.58478 0
M  V30 623 O 59.2698 -0.72385 -1.76536 0
M  V30 624 C 56.4098 -1.72408 -2.98948 0
M  V30 625 C 55.5228 -2.99525 -3.11301 0
M  V30 626 C 54.6578 -2.97356 -4.40174 0
M  V30 627 C 53.6968 -4.19074 -4.46143 0
M  V30 628 N 52.8338 -4.14841 -5.66437 0
M  V30 629 H 57.6738 -2.59688 -1.46172 0
M  V30 630 H 55.2108 -1.28761 -0.711261 0
M  V30 631 H 57.1688 -1.74344 -3.79025 0
M  V30 632 H 55.7988 -0.817753 -3.1227 0
M  V30 633 H 54.8508 -3.07222 -2.24318 0
M  V30 634 H 56.1628 -3.89518 -3.11572 0
M  V30 635 H 55.3168 -2.97829 -5.28567 0
M  V30 636 H 54.0558 -2.05133 -4.42461 0
M  V30 637 H 53.0608 -4.1885 -3.56153 0
M  V30 638 H 54.2858 -5.12483 -4.45575 0
M  V30 639 H 52.2318 -3.25453 -5.69575 0
M  V30 640 H 52.1488 -4.98564 -5.68304 0
M  V30 641 H 53.4168 -4.1941 -6.57051 0
M  V30 642 N 57.6459 0.756429 -1.3826 0
M  V30 643 C 58.5939 1.89149 -1.35372 0
M  V30 644 C 59.5879 1.67691 -0.24004 0
M  V30 645 O 60.7939 1.75294 -0.408919 0
M  V30 646 H 57.1689 0.622271 -0.422236 0
M  V30 647 H 59.1399 1.88701 -2.31159 0
M  V30 648 C 57.8889 3.26599 -1.19284 0
M  V30 649 H 57.2119 3.43695 -2.0424 0
M  V30 650 H 58.6519 4.06274 -1.21316 0
M  V30 651 C 57.1109 3.3675 0.100454 0
M  V30 652 O 57.6409 3.86951 1.07851 0
M  V30 653 N 55.8469 2.90179 0.15633 0
M  V30 654 H 55.3939 2.49517 -0.640253 0
M  V30 655 H 55.3519 2.97352 1.02123 0
M  V30 656 N 59.124 1.23083 0.984299 0
M  V30 657 C 60.054 1.03292 2.09411 0
M  V30 658 C 61.035 -0.048923 1.7003 0
M  V30 659 O 62.22 0.114967 1.93859 0
M  V30 660 C 59.35 0.619155 3.41736 0
M  V30 661 C 58.304 1.64791 3.95004 0
M  V30 662 C 57.63 1.0897 5.23478 0
M  V30 663 C 58.93 3.03999 4.24714 0
M  V30 664 H 60.624 1.96119 2.26225 0
M  V30 665 H 58.17 0.944344 1.08711 0
M  V30 666 H 60.123 0.467777 4.18796 0
M  V30 667 H 58.847 -0.344786 3.24775 0
M  V30 668 H 57.506 1.78721 3.20085 0
M  V30 669 H 57.154 0.11686 5.02864 0
M  V30 670 H 56.854 1.77704 5.60085 0
M  V30 671 H 58.378 0.950093 6.03163 0
M  V30 672 H 59.792 2.93393 4.92538 0
M  V30 673 H 58.189 3.69936 4.72512 0
M  V30 674 H 59.259 3.53285 3.32142 0
M  V30 675 N 60.6021 -1.18246 1.0419 0
M  V30 676 C 61.8271 -1.92736 0.765996 0
M  V30 677 C 62.2521 -1.75728 -0.67091 0
M  V30 678 O 61.6101 -1.06825 -1.46486 0
M  V30 679 C 61.6581 -3.42148 1.13875 0
M  V30 680 O 60.7621 -4.11548 0.264954 0
M  V30 681 H 60.1031 -0.601238 0.281797 0
M  V30 682 H 62.6331 -1.49942 1.39207 0
M  V30 683 H 62.6431 -3.92858 1.1012 0
M  V30 684 H 61.3181 -3.53848 2.18551 0
M  V30 685 H 59.8951 -3.71137 0.362226 0
M  V30 686 N 62.0802 -0.821533 -1.34494 0
M  V30 687 C 63.3052 -0.420873 -2.03085 0
M  V30 688 C 63.7302 0.964915 -1.61465 0
M  V30 689 O 63.0882 1.62763 -0.798607 0
M  V30 690 C 63.1362 -0.529414 -3.56693 0
M  V30 691 O 62.2402 0.451302 -4.09923 0
M  V30 692 H 61.5812 -0.173489 -0.640935 0
M  V30 693 H 64.1112 -1.11157 -1.71771 0
M  V30 694 H 64.1212 -0.404671 -4.05988 0
M  V30 695 H 62.7962 -1.54014 -3.86332 0
M  V30 696 H 61.3732 0.285558 -3.71805 0
M  V30 697 N 63.5583 1.46682 -0.576371 0
M  V30 698 C 64.8053 2.02412 -0.0595339 0
M  V30 699 C 65.1333 1.44859 1.29793 0
M  V30 700 O 64.3883 0.601099 1.8624 0
M  V30 701 C 64.6873 3.57345 0.062886 0
M  V30 702 C 64.3533 4.33908 -1.22616 0
M  V30 703 C 63.0153 4.54544 -1.57933 0
M  V30 704 C 65.3673 4.77919 -2.07948 0
M  V30 705 C 62.6953 5.16444 -2.78393 0
M  V30 706 C 65.0473 5.41149 -3.27629 0
M  V30 707 C 63.7113 5.60014 -3.63236 0
M  V30 708 H 62.9813 0.74068 -0.021785 0
M  V30 709 H 65.6283 1.76128 -0.751735 0
M  V30 710 H 63.9333 3.82729 0.838178 0
M  V30 711 H 65.6303 3.98136 0.478439 0
M  V30 712 H 62.2203 4.18138 -0.941202 0
M  V30 713 H 66.4043 4.61738 -1.81967 0
M  V30 714 H 61.6603 5.29242 -3.06126 0
M  V30 715 H 65.8343 5.74211 -3.94023 0
M  V30 716 H 63.4613 6.07748 -4.56669 0
M  V30 717 N 65.0364 0.313813 1.54444 0
M  V30 718 C 66.2664 -0.293491 2.04505 0
M  V30 719 C 66.6744 -1.47086 1.19005 0
M  V30 720 O 66.0174 -1.82481 0.211257 0
M  V30 721 C 66.0794 -0.800455 3.50475 0
M  V30 722 C 65.7434 0.253322 4.56297 0
M  V30 723 C 66.7404 1.08612 5.08428 0
M  V30 724 C 64.4254 0.398708 5.00715 0
M  V30 725 C 66.4194 2.05013 6.0353 0
M  V30 726 C 64.1064 1.36614 5.95634 0
M  V30 727 C 65.1044 2.19033 6.46926 0
M  V30 728 O 64.7924 3.14134 7.39983 0
M  V30 729 H 64.5244 -0.0658325 0.672787 0
M  V30 730 H 67.0784 0.455177 2.00293 0
M  V30 731 H 65.3084 -1.59987 3.52053 0
M  V30 732 H 66.9974 -1.32504 3.83663 0
M  V30 733 H 67.7634 0.984736 4.74898 0
M  V30 734 H 63.6424 -0.23289 4.60411 0
M  V30 735 H 67.1864 2.69382 6.4349 0
M  V30 736 H 63.0834 1.4682 6.28581 0
M  V30 737 H 63.8514 3.0926 7.57826 0
M  V30 738 N 66.5145 -1.57545 0.0417849 0
M  V30 739 C 67.9255 -1.80011 -0.495259 0
M  V30 740 C 68.2765 -0.953199 -1.71489 0
M  V30 741 O 67.4015 -0.167138 -2.15754 0
M  V30 742 C 67.9965 -3.26482 -0.905265 0
M  V30 743 C 66.5555 -3.499 -1.38734 0
M  V30 744 C 65.7025 -2.74979 -0.358056 0
M  V30 745 H 68.6535 -1.56425 0.267736 0
M  V30 746 H 68.6745 -3.36887 -1.76882 0
M  V30 747 H 68.1865 -3.88096 -0.017401 0
M  V30 748 H 66.2875 -2.93553 -2.29471 0
M  V30 749 H 66.4005 -4.58615 -1.38598 0
M  V30 750 H 64.7645 -2.40834 -0.828912 0
M  V30 751 H 65.5475 -3.39315 0.521561 0
M  V30 752 N 67.9926 0.231505 -1.5589 0
M  V30 753 C 69.2396 0.957352 -1.78441 0
M  V30 754 C 69.5676 1.84726 -0.60882 0
M  V30 755 O 68.8226 1.91416 0.40725 0
M  V30 756 C 69.1216 1.83577 -3.0665 0
M  V30 757 C 68.7876 1.09993 -4.37278 0
M  V30 758 C 67.4496 0.896629 -4.72773 0
M  V30 759 C 69.8016 0.579558 -5.17968 0
M  V30 760 C 67.1296 0.160896 -5.86479 0
M  V30 761 C 69.4816 -0.142783 -6.32439 0
M  V30 762 C 68.1456 -0.357427 -6.66542 0
M  V30 763 H 67.4156 0.35032 -0.65296 0
M  V30 764 H 70.0626 0.226259 -1.90159 0
M  V30 765 H 68.3676 2.63441 -2.90011 0
M  V30 766 H 70.0646 2.39934 -3.21298 0
M  V30 767 H 66.6546 1.26835 -4.09403 0
M  V30 768 H 70.8386 0.724125 -4.90989 0
M  V30 769 H 66.0946 -0.0157293 -6.11398 0
M  V30 770 H 70.2686 -0.553559 -6.94196 0
M  V30 771 H 67.8956 -0.929466 -7.54497 0
M  V30 772 N 69.4707 1.49531 0.497807 0
M  V30 773 C 70.4177 1.66436 1.59899 0
M  V30 774 C 71.3877 0.505793 1.58212 0
M  V30 775 O 72.5727 0.733202 1.7615 0
M  V30 776 C 69.7127 1.7399 2.98029 0
M  V30 777 C 68.8257 3.01172 3.09708 0
M  V30 778 C 67.9607 2.99686 4.38591 0
M  V30 779 C 66.9997 4.21434 4.43914 0
M  V30 780 N 66.1367 4.1784 5.64229 0
M  V30 781 H 70.9767 2.60459 1.44793 0
M  V30 782 H 68.5137 1.29137 0.704423 0
M  V30 783 H 70.4717 1.76352 3.78095 0
M  V30 784 H 69.1017 0.834301 3.11832 0
M  V30 785 H 68.1537 3.08408 2.22685 0
M  V30 786 H 69.4657 3.91165 3.09502 0
M  V30 787 H 68.6197 3.00628 5.2698 0
M  V30 788 H 67.3587 2.07477 4.41367 0
M  V30 789 H 66.3637 4.20733 3.53926 0
M  V30 790 H 67.5887 5.14839 4.42851 0
M  V30 791 H 65.5347 3.28469 5.67841 0
M  V30 792 H 65.4517 5.01571 5.65652 0
M  V30 793 H 66.7197 4.22889 6.54817 0
M  V30 794 N 70.9488 -0.749086 1.3866 0
M  V30 795 C 71.8958 -1.86291 1.36251 0
M  V30 796 C 72.8658 -1.64578 0.224347 0
M  V30 797 O 74.0508 -1.86181 0.417279 0
M  V30 798 C 71.1908 -3.23644 1.19786 0
M  V30 799 C 70.3038 -3.57158 2.43027 0
M  V30 800 C 69.4388 -4.83838 2.19258 0
M  V30 801 C 68.4778 -5.10152 3.38247 0
M  V30 802 N 67.6148 -6.28029 3.13884 0
M  V30 803 H 72.4548 -1.87685 2.3147 0
M  V30 804 H 69.9918 -0.917287 1.14997 0
M  V30 805 H 71.9498 -4.0291 1.08254 0
M  V30 806 H 70.5798 -3.21566 0.282031 0
M  V30 807 H 69.6318 -2.72701 2.65214 0
M  V30 808 H 70.9438 -3.7253 3.31697 0
M  V30 809 H 70.0978 -5.71057 2.04888 0
M  V30 810 H 68.8368 -4.70614 1.2796 0
M  V30 811 H 67.8418 -4.21401 3.53131 0
M  V30 812 H 69.0668 -5.25271 4.30427 0
M  V30 813 H 67.0128 -6.1612 2.25238 0
M  V30 814 H 66.9298 -6.43922 3.96106 0
M  V30 815 H 68.1978 -7.18124 3.03179 0
M  V30 816 N 72.4269 -1.23603 -0.977757 0
M  V30 817 C 73.6759 -1.06377 -1.71368 0
M  V30 818 C 73.9889 0.399062 -1.91486 0
M  V30 819 O 75.1949 0.691312 -2.62551 0
M  V30 820 C 73.6509 -1.85512 -3.08404 0
M  V30 821 C 73.2589 -3.36141 -2.96164 0
M  V30 822 C 75.0029 -1.76783 -3.85938 0
M  V30 823 C 72.9099 -4.07659 -4.28449 0
M  V30 824 H 71.8399 -0.394452 -0.642591 0
M  V30 825 H 74.4909 -1.47594 -1.09034 0
M  V30 826 H 72.8729 -1.37103 -3.71509 0
M  V30 827 H 74.0469 -3.92056 -2.42133 0
M  V30 828 H 72.3619 -3.45712 -2.32104 0
M  V30 829 H 74.9589 -2.27526 -4.83876 0
M  V30 830 H 75.3019 -0.731116 -4.0983 0
M  V30 831 H 75.8349 -2.22818 -3.2954 0
M  V30 832 H 72.5739 -5.11648 -4.09752 0
M  V30 833 H 72.0939 -3.5653 -4.82334 0
M  V30 834 H 73.7729 -4.141 -4.97122 0
M  V30 835 N 73.905 1.17692 -1.04816 0
M  V30 836 C 75.151 1.88137 -0.75711 0
M  V30 837 C 75.484 1.80604 0.713841 0
M  V30 838 O 74.759 1.21146 1.52164 0
M  V30 839 C 75.042 3.38318 -1.2334 0
M  V30 840 C 74.895 3.54622 -2.76701 0
M  V30 841 C 76.214 4.32214 -0.829415 0
M  V30 842 H 73.333 0.683163 -0.27651 0
M  V30 843 H 75.975 1.38424 -1.30149 0
M  V30 844 H 74.125 3.80787 -0.770286 0
M  V30 845 H 75.797 3.21194 -3.31107 0
M  V30 846 H 74.04 2.97026 -3.16161 0
M  V30 847 H 74.711 4.60028 -3.05088 0
M  V30 848 H 77.187 3.97565 -1.22805 0
M  V30 849 H 76.063 5.35838 -1.19033 0
M  V30 850 H 76.324 4.41294 0.266891 0
M  V30 851 N 75.3831 0.828654 1.34056 0
M  V30 852 C 76.6291 0.42008 1.98402 0
M  V30 853 C 76.9621 -1.01564 1.65525 0
M  V30 854 O 76.2371 -1.70834 0.929831 0
M  V30 855 C 76.5201 0.62927 3.54559 0
M  V30 856 C 76.3731 2.11152 3.97159 0
M  V30 857 C 77.6921 0.0688756 4.40046 0
M  V30 858 H 74.8111 0.154104 0.720709 0
M  V30 859 H 77.4531 1.04228 1.5886 0
M  V30 860 H 75.6031 0.0996418 3.88372 0
M  V30 861 H 77.2751 2.70522 3.73651 0
M  V30 862 H 75.5181 2.59985 3.47261 0
M  V30 863 H 76.1891 2.20868 5.05887 0
M  V30 864 H 78.6651 0.521458 4.1282 0
M  V30 865 H 77.5411 0.245006 5.48353 0
M  V30 866 H 77.8021 -1.0266 4.30015 0
M  V30 867 N 76.8612 -1.46375 0.584142 0
M  V30 868 C 78.0892 -2.06761 0.0759296 0
M  V30 869 C 78.5042 -1.43266 -1.22965 0
M  V30 870 O 77.8612 -0.538458 -1.74376 0
M  V30 871 C 77.9122 -3.61375 -0.0950384 0
M  V30 872 O 77.6332 -4.22495 1.15887 0
M  V30 873 C 79.1342 -4.38693 -0.637434 0
M  V30 874 H 76.3542 -0.668479 0.0581075 0
M  V30 875 H 78.8982 -1.8798 0.805218 0
M  V30 876 H 77.0532 -3.79578 -0.774554 0
M  V30 877 H 77.4672 -5.15385 0.973598 0
M  V30 878 H 78.9412 -5.47464 -0.706237 0
M  V30 879 H 79.4182 -4.06836 -1.65472 0
M  V30 880 H 80.0242 -4.25299 0.00725967 0
M  V30 881 N 78.3393 -0.321999 -1.54275 0
M  V30 882 C 79.5643 0.285791 -2.05422 0
M  V30 883 C 79.9893 1.45124 -1.19669 0
M  V30 884 O 79.3473 1.80132 -0.205441 0
M  V30 885 C 79.3953 0.69956 -3.53749 0
M  V30 886 O 78.4993 1.8021 -3.70942 0
M  V30 887 H 77.8403 0.0518962 -0.661969 0
M  V30 888 H 80.3703 -0.469954 -1.9913 0
M  V30 889 H 80.3803 0.982649 -3.9599 0
M  V30 890 H 79.0553 -0.152864 -4.15619 0
M  V30 891 H 77.6323 1.51794 -3.40607 0
M  V30 892 N 79.8174 1.5752 -0.0501392 0
M  V30 893 C 81.0424 1.97376 0.636997 0
M  V30 894 C 81.4674 0.927466 1.63645 0
M  V30 895 O 80.8254 -0.10941 1.8097 0
M  V30 896 C 80.8734 3.36304 1.30123 0
M  V30 897 O 79.9774 3.34156 2.41689 0
M  V30 898 H 79.3184 0.642998 0.165679 0
M  V30 899 H 81.8484 2.04258 -0.118233 0
M  V30 900 H 81.8584 3.73008 1.65315 0
M  V30 901 H 80.5334 4.11993 0.568746 0
M  V30 902 H 79.1104 3.09196 2.08451 0
M  V30 903 N 81.2955 -0.223234 1.56011 0
M  V30 904 C 82.2435 -1.29627 1.93131 0
M  V30 905 C 83.2375 -1.48608 0.813146 0
M  V30 906 O 84.4435 -1.49802 0.997966 0
M  V30 907 H 80.8185 -0.434563 0.613726 0
M  V30 908 H 82.7895 -0.955995 2.82672 0
M  V30 909 C 81.5385 -2.63983 2.26292 0
M  V30 910 H 80.8615 -2.50185 3.11846 0
M  V30 911 H 82.3015 -3.3788 2.56151 0
M  V30 912 C 80.7605 -3.18866 1.08747 0
M  V30 913 O 81.2905 -4.00192 0.347727 0
M  V30 914 N 79.4965 -2.77217 0.871743 0
M  V30 915 H 79.0435 -2.1119 1.47501 0
M  V30 916 H 79.0015 -3.1428 0.0869905 0
M  V30 917 N 82.7736 -1.49793 -0.48987 0
M  V30 918 C 84.0226 -1.59085 -1.23995 0
M  V30 919 C 84.3356 -0.287907 -1.9347 0
M  V30 920 O 85.5416 -0.259506 -2.70257 0
M  V30 921 C 83.9976 -2.80736 -2.252 0
M  V30 922 C 83.6056 -4.17833 -1.61614 0
M  V30 923 C 85.3496 -2.99364 -3.00967 0
M  V30 924 C 83.2566 -5.30693 -2.60996 0
M  V30 925 H 82.1866 -0.592372 -0.466488 0
M  V30 926 H 84.8376 -1.76197 -0.51252 0
M  V30 927 H 83.2196 -2.57142 -3.01154 0
M  V30 928 H 84.3936 -4.51608 -0.915774 0
M  V30 929 H 82.7086 -4.04656 -0.981977 0
M  V30 930 H 85.3056 -3.80851 -3.75308 0
M  V30 931 H 85.6486 -2.10356 -3.59244 0
M  V30 932 H 86.1816 -3.2305 -2.32128 0
M  V30 933 H 82.9206 -6.21796 -2.07485 0
M  V30 934 H 82.4406 -5.01359 -3.2924 0
M  V30 935 H 84.1196 -5.6049 -3.23202 0
M  V30 936 N 84.2517 0.741722 -1.39055 0
M  V30 937 C 85.4797 1.53098 -1.39171 0
M  V30 938 C 85.8947 1.88794 0.0155099 0
M  V30 939 O 85.2517 1.53626 0.985159 0
M  V30 940 C 85.3027 2.82274 -2.2584 0
M  V30 941 O 85.0237 2.48097 -3.61081 0
M  V30 942 C 86.5247 3.76343 -2.34266 0
M  V30 943 H 83.7447 0.473335 -0.4756 0
M  V30 944 H 86.2887 0.917045 -1.82785 0
M  V30 945 H 84.4437 3.40015 -1.85656 0
M  V30 946 H 84.8577 3.31029 -4.06842 0
M  V30 947 H 86.3317 4.63898 -2.9917 0
M  V30 948 H 86.8087 4.17619 -1.35982 0
M  V30 949 H 87.4147 3.24523 -2.74891 0
M  V30 950 N 85.7298 1.2412 0.971189 0
M  V30 951 C 86.9598 1.10415 1.7462 0
M  V30 952 C 87.3678 -0.346462 1.86001 0
M  V30 953 O 86.7108 -1.25104 1.34517 0
M  V30 954 C 86.7728 1.66596 3.18568 0
M  V30 955 C 86.4368 3.15446 3.3067 0
M  V30 956 C 87.4338 4.12636 3.16271 0
M  V30 957 C 85.1188 3.55337 3.55022 0
M  V30 958 C 87.1128 5.47699 3.26044 0
M  V30 959 C 84.7998 4.90542 3.64434 0
M  V30 960 C 85.7978 5.86532 3.49956 0
M  V30 961 O 85.4858 7.19279 3.59017 0
M  V30 962 H 85.2178 0.386616 0.55453 0
M  V30 963 H 87.7718 1.64633 1.22821 0
M  V30 964 H 86.0018 1.06808 3.71657 0
M  V30 965 H 87.6908 1.48232 3.77865 0
M  V30 966 H 88.4568 3.8316 2.97344 0
M  V30 967 H 84.3358 2.8113 3.65359 0
M  V30 968 H 87.8798 6.22603 3.14661 0
M  V30 969 H 83.7768 5.19691 3.82873 0
M  V30 970 H 84.5448 7.27153 3.75754 0
M  V30 971 N 87.2079 -1.17134 1.05439 0
M  V30 972 C 88.1409 -2.2012 0.601855 0
M  V30 973 C 89.1189 -1.58314 -0.370854 0
M  V30 974 O 90.3029 -1.8638 -0.281882 0
M  V30 975 C 87.4299 -3.38491 -0.118868 0
M  V30 976 C 86.4759 -4.18752 0.809242 0
M  V30 977 S 87.3089 -4.83602 2.29977 0
M  V30 978 C 88.4649 -6.0536 1.59029 0
M  V30 979 H 88.6979 -2.58165 1.47438 0
M  V30 980 H 86.2309 -1.27788 0.866573 0
M  V30 981 H 88.1889 -4.07084 -0.528495 0
M  V30 982 H 86.8499 -2.98829 -0.967465 0
M  V30 983 H 86.0429 -5.03373 0.251379 0
M  V30 984 H 85.6449 -3.5561 1.15835 0
M  V30 985 H 87.9369 -6.71615 0.891017 0
M  V30 986 H 88.8799 -6.65679 2.41407 0
M  V30 987 H 89.2879 -5.54138 1.07663 0
M  V30 988 N 88.686 -0.835752 -1.33615 0
M  V30 989 C 89.633 -0.26473 -2.29277 0
M  V30 990 C 90.603 0.617712 -1.54187 0
M  V30 991 O 91.788 0.556641 -1.825 0
M  V30 992 C 88.928 0.556777 -3.40579 0
M  V30 993 C 88.041 -0.349339 -4.30585 0
M  V30 994 C 87.176 0.482969 -5.29 0
M  V30 995 C 86.215 -0.421732 -6.10645 0
M  V30 996 N 85.352 0.372262 -7.01112 0
M  V30 997 H 90.192 -1.08582 -2.77514 0
M  V30 998 H 87.729 -0.546927 -1.36554 0
M  V30 999 H 89.687 1.04852 -4.03809 0
M  V30 1000 H 88.317 1.34286 -2.93542 0
M  V30 1001 H 87.369 -0.959372 -3.68104 0
M  V30 1002 H 88.681 -1.04445 -4.87742 0
M  V30 1003 H 87.835 1.03866 -5.97743 0
M  V30 1004 H 86.574 1.21153 -4.72412 0
M  V30 1005 H 85.579 -0.989464 -5.40823 0
M  V30 1006 H 86.804 -1.14861 -6.69316 0
M  V30 1007 H 84.75 1.08426 -6.46977 0
M  V30 1008 H 84.667 -0.264198 -7.55538 0
M  V30 1009 H 85.935 0.910293 -7.74167 0
M  V30 1010 N 90.1641 1.46063 -0.591896 0
M  V30 1011 C 91.1111 2.30399 0.136069 0
M  V30 1012 C 92.0811 1.41169 0.875238 0
M  V30 1013 O 93.2661 1.70112 0.86409 0
M  V30 1014 C 90.4061 3.25804 1.13781 0
M  V30 1015 C 89.5191 4.30134 0.401137 0
M  V30 1016 C 88.6541 5.12659 1.39121 0
M  V30 1017 C 87.6931 6.0873 0.641462 0
M  V30 1018 N 86.8301 6.8409 1.58004 0
M  V30 1019 H 91.6701 2.92118 -0.589144 0
M  V30 1020 H 89.2071 1.43959 -0.302342 0
M  V30 1021 H 91.1651 3.79569 1.73156 0
M  V30 1022 H 89.7951 2.65872 1.83062 0
M  V30 1023 H 88.8471 3.79152 -0.307826 0
M  V30 1024 H 90.1591 4.98458 -0.184565 0
M  V30 1025 H 89.3131 5.70747 2.05749 0
M  V30 1026 H 88.0521 4.44316 2.01084 0
M  V30 1027 H 87.0571 5.49786 -0.0385419 0
M  V30 1028 H 88.2821 6.79095 0.0270945 0
M  V30 1029 H 86.2281 6.18449 2.18761 0
M  V30 1030 H 86.1451 7.48709 1.04738 0
M  V30 1031 H 87.4131 7.4673 2.23639 0
M  V30 1032 N 91.6422 0.330177 1.54103 0
M  V30 1033 C 92.8892 -0.270405 2.00686 0
M  V30 1034 C 93.2172 -1.51621 1.21825 0
M  V30 1035 O 92.4722 -1.93536 0.29025 0
M  V30 1036 C 92.7712 -0.643134 3.51566 0
M  V30 1037 C 92.4372 0.504251 4.48072 0
M  V30 1038 C 91.0992 0.819163 4.74176 0
M  V30 1039 C 93.4512 1.27465 5.05373 0
M  V30 1040 C 90.7792 1.90708 5.5484 0
M  V30 1041 C 93.1312 2.35271 5.87223 0
M  V30 1042 C 91.7952 2.67336 6.11627 0
M  V30 1043 H 91.0652 -0.0989482 0.734364 0
M  V30 1044 H 93.7122 0.455324 1.86008 0
M  V30 1045 H 92.0172 -1.44938 3.64006 0
M  V30 1046 H 93.7142 -1.11949 3.85056 0
M  V30 1047 H 90.3042 0.248733 4.27878 0
M  V30 1048 H 94.4882 1.04462 4.85182 0
M  V30 1049 H 89.7442 2.15991 5.71977 0
M  V30 1050 H 93.9182 2.95405 6.30641 0
M  V30 1051 H 91.5452 3.51763 6.73919 0
M  V30 1052 N 93.1203 -1.57491 0.0584922 0
M  V30 1053 C 94.3483 -1.97296 -0.623037 0
M  V30 1054 C 94.7633 -0.936338 -1.63946 0
M  V30 1055 O 94.1203 0.0785981 -1.82331 0
M  V30 1056 C 94.1713 -3.37183 -1.30345 0
M  V30 1057 O 93.8923 -4.36872 -0.32773 0
M  V30 1058 C 95.3933 -3.91788 -2.07406 0
M  V30 1059 H 92.6133 -0.649153 -0.169826 0
M  V30 1060 H 95.1573 -2.04106 0.12696 0
M  V30 1061 H 93.3123 -3.31502 -2.00463 0
M  V30 1062 H 93.7263 -5.18141 -0.814269 0
M  V30 1063 H 95.2003 -4.91926 -2.50425 0
M  V30 1064 H 95.6773 -3.27609 -2.92521 0
M  V30 1065 H 96.2833 -4.00829 -1.42184 0
M  V30 1066 N 94.5984 0.214957 -1.56127 0
M  V30 1067 C 95.5454 1.26642 -1.92952 0
M  V30 1068 C 96.5154 1.46244 -0.78753 0
M  V30 1069 O 97.7004 1.59704 -1.04399 0
M  V30 1070 C 94.8404 2.6104 -2.25726 0
M  V30 1071 C 93.9534 2.49183 -3.52891 0
M  V30 1072 C 93.0884 3.76149 -3.7508 0
M  V30 1073 C 92.1274 3.59041 -4.95738 0
M  V30 1074 N 91.2644 4.77972 -5.14283 0
M  V30 1075 H 96.1044 0.945384 -2.82607 0
M  V30 1076 H 93.6414 0.455489 -1.3987 0
M  V30 1077 H 95.5994 3.39313 -2.42739 0
M  V30 1078 H 94.2294 2.91227 -1.39236 0
M  V30 1079 H 93.2814 1.6231 -3.44034 0
M  V30 1080 H 94.5934 2.32466 -4.41318 0
M  V30 1081 H 93.7474 4.62865 -3.92226 0
M  V30 1082 H 92.4864 3.95799 -2.84947 0
M  V30 1083 H 91.4914 2.7071 -4.78535 0
M  V30 1084 H 92.7164 3.40856 -5.87362 0
M  V30 1085 H 90.6624 4.97923 -4.27093 0
M  V30 1086 H 90.5794 4.64006 -5.96853 0
M  V30 1087 H 91.8474 5.66096 -5.35869 0
M  V30 1088 N 96.0765 1.50051 0.48192 0
M  V30 1089 C 97.0245 1.68635 1.60203 0
M  V30 1090 C 98.0185 0.552184 1.60148 0
M  V30 1091 O 99.2245 0.732377 1.64427 0
M  V30 1092 H 95.5995 0.532081 0.531407 0
M  V30 1093 H 97.5705 2.62616 1.41688 0
M  V30 1094 C 96.3195 1.78775 2.9822 0
M  V30 1095 H 95.6425 2.6543 2.98976 0
M  V30 1096 H 97.0825 1.95806 3.7608 0
M  V30 1097 C 95.5415 0.536849 3.32595 0
M  V30 1098 O 96.0715 -0.328897 4.00351 0
M  V30 1099 N 94.2775 0.394091 2.87915 0
M  V30 1100 H 93.8245 1.09962 2.32951 0
M  V30 1101 H 93.7825 -0.441737 3.11281 0
M  V30 1102 N 97.5546 -0.734337 1.39446 0
M  V30 1103 C 98.7846 -1.52137 1.39778 0
M  V30 1104 C 99.1926 -1.89198 -0.00929312 0
M  V30 1105 O 98.5356 -1.54666 -0.991168 0
M  V30 1106 C 98.5976 -2.83762 2.20724 0
M  V30 1107 C 98.2616 -2.69131 3.69347 0
M  V30 1108 C 99.2586 -2.37635 4.62413 0
M  V30 1109 C 96.9436 -2.85982 4.1294 0
M  V30 1110 C 98.9376 -2.23172 5.97054 0
M  V30 1111 C 96.6246 -2.71137 5.47657 0
M  V30 1112 C 97.6226 -2.39777 6.39528 0
M  V30 1113 O 97.3106 -2.25026 7.71763 0
M  V30 1114 H 97.0426 -0.476717 0.479288 0
M  V30 1115 H 99.5966 -0.915012 1.83893 0
M  V30 1116 H 97.8266 -3.4666 1.71359 0
M  V30 1117 H 99.5156 -3.45383 2.13226 0
M  V30 1118 H 100.282 -2.24267 4.30034 0
M  V30 1119 H 96.1606 -3.09383 3.41765 0
M  V30 1120 H 99.7046 -1.98617 6.68728 0
M  V30 1121 H 95.6016 -2.84083 5.79626 0
M  V30 1122 H 96.3696 -2.40091 7.82495 0
M  V30 1123 N 99.0327 -1.24633 -0.964593 0
M  V30 1124 C 99.9427 -1.05859 -2.09359 0
M  V30 1125 C 100.959 0.00148855 -1.74 0
M  V30 1126 O 102.135 -0.197346 -2.00431 0
M  V30 1127 C 99.1997 -0.668879 -3.40187 0
M  V30 1128 C 98.2607 -1.80578 -3.89474 0
M  V30 1129 C 97.4937 -1.43457 -5.14058 0
M  V30 1130 O 97.7167 -0.325775 -5.69469 0
M  V30 1131 O 96.6507 -2.2613 -5.57807 0
M  V30 1132 H 100.477 -2.00516 -2.28094 0
M  V30 1133 H 98.0617 -1.03481 -1.0776 0
M  V30 1134 H 99.9437 -0.463211 -4.18846 0
M  V30 1135 H 98.6187 0.248536 -3.22744 0
M  V30 1136 H 97.5257 -2.06623 -3.11862 0
M  V30 1137 H 98.8587 -2.70208 -4.11398 0
M  V30 1138 N 100.511 1.16574 -1.06058 0
M  V30 1139 C 101.758 1.87047 -0.775873 0
M  V30 1140 C 102.086 1.81562 0.697534 0
M  V30 1141 O 101.341 1.22445 1.52662 0
M  V30 1142 C 101.64 3.36195 -1.21275 0
M  V30 1143 C 101.306 3.6188 -2.68986 0
M  V30 1144 C 99.9678 3.68599 -3.09335 0
M  V30 1145 C 102.32 3.72648 -3.64394 0
M  V30 1146 C 99.6478 3.83584 -4.43937 0
M  V30 1147 C 102 3.89154 -4.98741 0
M  V30 1148 C 100.664 3.94114 -5.3873 0
M  V30 1149 H 99.9338 0.684452 -0.283912 0
M  V30 1150 H 102.581 1.37853 -1.32925 0
M  V30 1151 H 100.886 3.87505 -0.578528 0
M  V30 1152 H 102.583 3.89103 -0.969542 0
M  V30 1153 H 99.1728 3.57281 -2.36744 0
M  V30 1154 H 103.357 3.66769 -3.34356 0
M  V30 1155 H 98.6128 3.85677 -4.74409 0
M  V30 1156 H 102.787 3.96427 -5.72554 0
M  V30 1157 H 100.414 4.05478 -6.43033 0
M  V30 1158 N 101.989 0.842826 1.3317 0
M  V30 1159 C 103.238 0.436738 1.96915 0
M  V30 1160 C 103.551 -1.01025 1.67491 0
M  V30 1161 O 104.757 -1.5212 2.24881 0
M  V30 1162 C 103.213 0.730021 3.52418 0
M  V30 1163 C 102.821 2.19195 3.90714 0
M  V30 1164 C 104.565 0.391076 4.22695 0
M  V30 1165 C 102.472 2.42907 5.39212 0
M  V30 1166 H 101.402 0.15958 0.736919 0
M  V30 1167 H 104.053 1.03196 1.51733 0
M  V30 1168 H 102.435 0.0643755 3.95948 0
M  V30 1169 H 103.609 2.8984 3.58231 0
M  V30 1170 H 101.924 2.49425 3.33431 0
M  V30 1171 H 104.521 0.545817 5.31907 0
M  V30 1172 H 104.864 -0.666294 4.10933 0
M  V30 1173 H 105.397 1.01212 3.84709 0
M  V30 1174 H 102.136 3.47224 5.55982 0
M  V30 1175 H 101.656 1.76827 5.73142 0
M  V30 1176 H 103.335 2.2626 6.06148 0
M  V30 1177 N 103.467 -1.45747 0.599634 0
M  V30 1178 C 104.377 -2.34262 -0.125888 0
M  V30 1179 C 105.393 -1.50768 -0.868625 0
M  V30 1180 O 106.569 -1.83592 -0.828003 0
M  V30 1181 C 103.634 -3.28252 -1.11587 0
M  V30 1182 C 102.695 -4.27651 -0.375956 0
M  V30 1183 C 101.928 -5.1715 -1.31877 0
M  V30 1184 O 102.151 -5.09916 -2.55621 0
M  V30 1185 O 101.085 -5.96286 -0.820157 0
M  V30 1186 H 104.911 -2.97688 0.601315 0
M  V30 1187 H 102.496 -1.44999 0.359934 0
M  V30 1188 H 104.378 -3.86191 -1.68626 0
M  V30 1189 H 103.053 -2.67401 -1.82424 0
M  V30 1190 H 101.96 -3.7335 0.236698 0
M  V30 1191 H 103.293 -4.91334 0.29177 0
M  V30 1192 N 104.945 -0.338344 -1.53925 0
M  V30 1193 C 106.193 0.259245 -2.0043 0
M  V30 1194 C 106.514 1.51484 -1.22791 0
M  V30 1195 O 105.784 1.93037 -0.33368 0
M  V30 1196 H 104.364 0.0987845 -0.740439 0
M  V30 1197 H 107.026 -0.458302 -1.89435 0
M  V30 1198 H 106.122 0.505334 -3.07982 0
M  V30 1199 N 106.423 1.57458 -0.0668435 0
M  V30 1200 C 107.671 1.92919 0.602214 0
M  V30 1201 C 107.992 0.947215 1.70449 0
M  V30 1202 O 107.262 -0.00544117 1.95899 0
M  V30 1203 H 105.842 0.71217 0.22544 0
M  V30 1204 H 108.504 1.94508 -0.123535 0
M  V30 1205 H 107.6 2.94589 1.03073 0
M  V30 1206 N 107.901 -0.206675 1.56239 0
M  V30 1207 C 109.178 -0.954051 1.70755 0
M  V30 1208 C 109.558 -2.01841 0.618353 0
M  V30 1209 O 108.906 -2.25444 -0.372434 0
M  V30 1210 C 109.116 -1.551 3.12642 0
M  V30 1211 C 110.464 -2.03757 3.72516 0
M  V30 1212 O 111.488 -1.64965 3.15698 0
M  V30 1213 O 110.347 -2.75103 4.72208 0
M  V30 1214 H 107.441 -0.446636 0.696021 0
M  V30 1215 H 109.987 -0.197283 1.68549 0
M  V30 1216 H 108.759 -0.783212 3.83382 0
M  V30 1217 H 108.382 -2.37291 3.19028 0
M  V30 1218 N 109.379 -1.50304 -0.473955 0
M  V30 1219 C 110.607 -1.64902 -1.24959 0
M  V30 1220 C 111.022 -0.331198 -1.85872 0
M  V30 1221 O 110.379 0.68652 -1.69095 0
M  V30 1222 C 110.43 -2.73803 -2.36038 0
M  V30 1223 O 110.151 -4.00477 -1.77624 0
M  V30 1224 C 111.652 -2.99349 -3.26964 0
M  V30 1225 H 108.872 -0.554383 -0.378022 0
M  V30 1226 H 111.416 -1.9651 -0.566054 0
M  V30 1227 H 109.571 -2.44898 -3.00173 0
M  V30 1228 H 109.985 -4.60678 -2.5075 0
M  V30 1229 H 111.459 -3.79217 -4.01121 0
M  V30 1230 H 111.936 -2.10307 -3.85574 0
M  V30 1231 H 112.542 -3.29774 -2.68569 0
M  V30 1232 N 110.857 0.726932 -1.39834 0
M  V30 1233 C 112.273 1.03354 -1.21615 0
M  V30 1234 C 112.473 2.01327 -0.08338 0
M  V30 1235 O 111.529 2.46158 0.56238 0
M  V30 1236 C 112.842 1.58811 -2.55342 0
M  V30 1237 C 114.39 1.70851 -2.62257 0
M  V30 1238 C 114.865 2.29716 -3.96225 0
M  V30 1239 N 116.356 2.37116 -3.97907 0
M  V30 1240 C 117.091 2.83619 -4.98345 0
M  V30 1241 N 116.587 3.29958 -6.09179 0
M  V30 1242 N 118.38 2.82901 -4.8572 0
M  V30 1243 H 110.531 0.0773069 -2.12259 0
M  V30 1244 H 112.794 0.0969102 -0.943034 0
M  V30 1245 H 112.5 0.942855 -3.38826 0
M  V30 1246 H 112.374 2.57502 -2.75632 0
M  V30 1247 H 114.761 2.34497 -1.79152 0
M  V30 1248 H 114.842 0.707913 -2.45809 0
M  V30 1249 H 114.486 1.66696 -4.79765 0
M  V30 1250 H 114.416 3.30469 -4.09997 0
M  V30 1251 H 116.907 2.04374 -3.17868 0
M  V30 1252 H 117.22 3.63976 -6.8172 0
M  V30 1253 H 115.565 3.27946 -6.12761 0
M  V30 1254 H 118.756 2.46027 -3.98231 0
M  V30 1255 H 118.929 3.18827 -5.6414 0
M  V30 1256 N 112.336 1.25143 0.95797 0
M  V30 1257 C 113.299 1.05321 2.03569 0
M  V30 1258 C 114.299 0.007152 1.60798 0
M  V30 1259 O 115.489 0.24903 1.72411 0
M  V30 1260 C 112.621 0.598394 3.35607 0
M  V30 1261 H 113.814 2.00986 2.22586 0
M  V30 1262 H 111.367 1.07502 1.13459 0
M  V30 1263 H 112.102 -0.361014 3.22284 0
M  V30 1264 H 111.887 1.35351 3.67998 0
M  V30 1265 H 113.377 0.48104 4.1482 0
M  V30 1266 N 113.814 -1.1601 1.06675 0
M  V30 1267 C 114.724 -2.24156 0.692179 0
M  V30 1268 C 115.74 -1.71507 -0.293513 0
M  V30 1269 O 116.916 -2.009 -0.141861 0
M  V30 1270 C 113.981 -3.46587 0.0884131 0
M  V30 1271 C 113.042 -4.14257 1.12646 0
M  V30 1272 C 112.275 -5.30844 0.551416 0
M  V30 1273 O 112.498 -5.66858 -0.634656 0
M  V30 1274 O 111.432 -5.87848 1.29298 0
M  V30 1275 H 115.258 -2.58513 1.59388 0
M  V30 1276 H 112.843 -1.23599 0.83926 0
M  V30 1277 H 114.725 -4.20679 -0.246361 0
M  V30 1278 H 113.4 -3.13994 -0.786712 0
M  V30 1279 H 112.307 -3.42118 1.51348 0
M  V30 1280 H 113.64 -4.50914 1.97325 0
M  V30 1281 N 115.292 -0.849877 -1.32721 0
M  V30 1282 C 116.517 -0.463856 -2.02146 0
M  V30 1283 C 116.942 0.930449 -1.63476 0
M  V30 1284 O 116.3 1.61033 -0.832952 0
M  V30 1285 C 116.348 -0.604955 -3.55489 0
M  V30 1286 O 115.452 0.36425 -4.10788 0
M  V30 1287 H 114.793 -0.187046 -0.637111 0
M  V30 1288 H 117.323 -1.14775 -1.69375 0
M  V30 1289 H 117.333 -0.490696 -4.05038 0
M  V30 1290 H 116.008 -1.62174 -3.82978 0
M  V30 1291 H 114.585 0.206628 -3.72327 0
M  V30 1292 N 116.77 1.45427 -0.607355 0
M  V30 1293 C 117.7 2.3329 0.0989352 0
M  V30 1294 C 118.681 1.46816 0.859007 0
M  V30 1295 O 119.866 1.75588 0.829604 0
M  V30 1296 C 116.996 3.29518 1.09705 0
M  V30 1297 C 115.95 4.25626 0.450206 0
M  V30 1298 C 115.276 5.11542 1.55655 0
M  V30 1299 C 116.576 5.18505 -0.628455 0
M  V30 1300 H 118.27 2.92595 -0.634716 0
M  V30 1301 H 115.816 1.40696 -0.306681 0
M  V30 1302 H 117.769 3.89855 1.59971 0
M  V30 1303 H 116.493 2.68372 1.86129 0
M  V30 1304 H 115.152 3.66586 -0.0315886 0
M  V30 1305 H 114.8 4.46765 2.31107 0
M  V30 1306 H 114.5 5.76647 1.12925 0
M  V30 1307 H 116.024 5.74748 2.06148 0
M  V30 1308 H 117.438 5.72916 -0.209877 0
M  V30 1309 H 115.835 5.92085 -0.977489 0
M  V30 1310 H 116.905 4.60948 -1.50514 0
M  V30 1311 N 118.248 0.346503 1.53744 0
M  V30 1312 C 119.195 -0.508914 2.25119 0
M  V30 1313 C 120.165 -1.09315 1.25058 0
M  V30 1314 O 121.35 -1.12921 1.53797 0
M  V30 1315 C 118.49 -1.65246 3.02965 0
M  V30 1316 C 117.603 -1.09525 4.17886 0
M  V30 1317 C 116.738 -2.20634 4.83212 0
M  V30 1318 C 115.777 -1.62279 5.90196 0
M  V30 1319 N 114.914 -2.67143 6.49291 0
M  V30 1320 H 119.754 0.106283 2.9781 0
M  V30 1321 H 117.291 0.0642227 1.4696 0
M  V30 1322 H 119.249 -2.32574 3.4636 0
M  V30 1323 H 117.879 -2.2386 2.32565 0
M  V30 1324 H 116.931 -0.312818 3.79112 0
M  V30 1325 H 118.243 -0.628444 4.94825 0
M  V30 1326 H 117.397 -2.95821 5.29693 0
M  V30 1327 H 116.136 -2.70659 4.05703 0
M  V30 1328 H 115.141 -0.855989 5.43096 0
M  V30 1329 H 116.366 -1.13102 6.69615 0
M  V30 1330 H 114.312 -3.16417 5.74645 0
M  V30 1331 H 114.229 -2.25093 7.21713 0
M  V30 1332 H 115.497 -3.4209 7.00425 0
M  V30 1333 N 119.726 -1.57421 0.075193 0
M  V30 1334 C 120.673 -2.12915 -0.890843 0
M  V30 1335 C 121.643 -1.04252 -1.29309 0
M  V30 1336 O 122.828 -1.31933 -1.37834 0
M  V30 1337 C 119.968 -2.69795 -2.15186 0
M  V30 1338 C 119.081 -3.92624 -1.80194 0
M  V30 1339 C 118.216 -4.37736 -3.00933 0
M  V30 1340 C 117.255 -5.53205 -2.61974 0
M  V30 1341 N 116.392 -5.9326 -3.75483 0
M  V30 1342 H 121.232 -2.95156 -0.410735 0
M  V30 1343 H 118.769 -1.45854 -0.191086 0
M  V30 1344 H 120.727 -3.00883 -2.89008 0
M  V30 1345 H 119.357 -1.90313 -2.60731 0
M  V30 1346 H 118.409 -3.67977 -0.964218 0
M  V30 1347 H 119.721 -4.76482 -1.47534 0
M  V30 1348 H 118.875 -4.70503 -3.8303 0
M  V30 1349 H 117.614 -3.52739 -3.36789 0
M  V30 1350 H 116.619 -5.20086 -1.783 0
M  V30 1351 H 117.844 -6.39936 -2.27284 0
M  V30 1352 H 115.79 -5.11212 -4.11094 0
M  V30 1353 H 115.707 -6.71865 -3.46602 0
M  V30 1354 H 116.975 -6.30651 -4.58148 0
M  V30 1355 N 121.204 0.198386 -1.56346 0
M  V30 1356 C 122.167 1.22952 -1.93431 0
M  V30 1357 C 123.167 1.38611 -0.815092 0
M  V30 1358 O 124.357 1.36479 -1.08255 0
M  V30 1359 C 121.489 2.59946 -2.20546 0
M  V30 1360 H 122.682 0.912626 -2.85677 0
M  V30 1361 H 120.235 0.43977 -1.49986 0
M  V30 1362 H 120.97 2.96696 -1.30927 0
M  V30 1363 H 120.755 2.49953 -3.02102 0
M  V30 1364 H 122.245 3.3431 -2.50253 0
M  V30 1365 N 122.682 1.50554 0.465978 0
M  V30 1366 C 123.612 1.72722 1.57128 0
M  V30 1367 C 124.593 0.576294 1.6004 0
M  V30 1368 O 125.778 0.81598 1.76225 0
M  V30 1369 C 122.908 1.82605 2.95419 0
M  V30 1370 C 121.862 2.97835 3.07373 0
M  V30 1371 C 121.188 2.92867 4.47363 0
M  V30 1372 C 122.488 4.38265 2.84114 0
M  V30 1373 H 124.182 2.65267 1.38829 0
M  V30 1374 H 121.728 1.2765 0.666441 0
M  V30 1375 H 123.681 1.96698 3.72677 0
M  V30 1376 H 122.405 0.866858 3.14886 0
M  V30 1377 H 121.064 2.83401 2.3255 0
M  V30 1378 H 120.712 1.94783 4.63755 0
M  V30 1379 H 120.412 3.70227 4.56296 0
M  V30 1380 H 121.936 3.09015 5.26633 0
M  V30 1381 H 123.35 4.53198 3.51118 0
M  V30 1382 H 121.747 5.17115 3.04487 0
M  V30 1383 H 122.817 4.50281 1.7993 0
M  V30 1384 N 124.16 -0.719506 1.40217 0
M  V30 1385 C 125.07 -1.86378 1.42479 0
M  V30 1386 C 126.086 -1.71073 0.317834 0
M  V30 1387 O 127.262 -1.93406 0.561794 0
M  V30 1388 C 124.327 -3.22136 1.28178 0
M  V30 1389 C 123.388 -3.49723 2.48982 0
M  V30 1390 C 122.621 -4.79004 2.35353 0
M  V30 1391 O 122.844 -5.53821 1.36524 0
M  V30 1392 O 121.778 -5.06839 3.2465 0
M  V30 1393 H 125.604 -1.87425 2.38968 0
M  V30 1394 H 123.189 -0.869405 1.21498 0
M  V30 1395 H 125.071 -4.03234 1.22395 0
M  V30 1396 H 123.746 -3.21825 0.347934 0
M  V30 1397 H 122.653 -2.6865 2.60342 0
M  V30 1398 H 123.986 -3.54828 3.41113 0
M  V30 1399 N 125.638 -1.25649 -0.95132 0
M  V30 1400 C 126.568 -1.08808 -2.06599 0
M  V30 1401 C 127.549 0.00382547 -1.701 0
M  V30 1402 O 128.734 -0.166325 -1.93486 0
M  V30 1403 C 125.864 -0.709542 -3.39975 0
M  V30 1404 C 124.818 -1.75206 -3.90496 0
M  V30 1405 C 124.144 -1.22811 -5.20405 0
M  V30 1406 C 125.444 -3.15153 -4.16504 0
M  V30 1407 H 127.138 -2.02048 -2.20946 0
M  V30 1408 H 124.684 -0.972835 -1.06169 0
M  V30 1409 H 126.637 -0.578649 -4.17408 0
M  V30 1410 H 125.361 0.258556 -3.25575 0
M  V30 1411 H 124.02 -1.87145 -3.15234 0
M  V30 1412 H 123.668 -0.250145 -5.02378 0
M  V30 1413 H 123.368 -1.92492 -5.55176 0
M  V30 1414 H 124.892 -1.10968 -6.00432 0
M  V30 1415 H 126.306 -3.06349 -4.84586 0
M  V30 1416 H 124.703 -3.82333 -4.62538 0
M  V30 1417 H 125.773 -3.61966 -3.22658 0
M  V30 1418 N 127.117 1.15442 -1.07289 0
M  V30 1419 C 128.366 1.85557 -0.790669 0
M  V30 1420 C 128.679 1.83186 0.685739 0
M  V30 1421 O 129.885 2.48977 1.0827 0
M  V30 1422 C 128.341 3.33038 -1.36433 0
M  V30 1423 C 127.949 3.43856 -2.8717 0
M  V30 1424 C 129.693 4.0834 -1.1601 0
M  V30 1425 C 127.6 4.85482 -3.3773 0
M  V30 1426 H 126.53 0.695122 -0.292098 0
M  V30 1427 H 129.181 1.30219 -1.29287 0
M  V30 1428 H 127.563 3.88043 -0.789864 0
M  V30 1429 H 128.737 2.98961 -3.50655 0
M  V30 1430 H 127.052 2.81998 -3.06376 0
M  V30 1431 H 129.649 5.12859 -1.51262 0
M  V30 1432 H 129.992 4.16182 -0.0991007 0
M  V30 1433 H 130.525 3.59603 -1.70089 0
M  V30 1434 H 127.264 4.82823 -4.43353 0
M  V30 1435 H 126.784 5.30961 -2.78999 0
M  V30 1436 H 128.463 5.54335 -3.33648 0
M  V30 1437 N 128.595 0.856903 1.32268 0
M  V30 1438 C 129.872 0.382583 1.91822 0
M  V30 1439 C 130.252 -1.13407 1.78051 0
M  V30 1440 O 129.6 -1.95673 1.18001 0
M  V30 1441 C 129.81 0.849446 3.38505 0
M  V30 1442 C 131.158 0.867936 4.15634 0
M  V30 1443 O 132.182 0.794232 3.47232 0
M  V30 1444 O 131.041 0.972286 5.37781 0
M  V30 1445 H 128.135 0.112014 0.819379 0
M  V30 1446 H 130.681 0.943952 1.41024 0
M  V30 1447 H 129.453 1.89267 3.42482 0
M  V30 1448 H 129.076 0.265652 3.96712 0
M  V30 1449 N 130.073 -1.45103 0.615059 0
M  V30 1450 C 131.298 -2.07064 0.117988 0
M  V30 1451 C 131.723 -1.4554 -1.19163 0
M  V30 1452 O 131.081 -0.550855 -1.72729 0
M  V30 1453 C 131.129 -3.606 -0.000288387 0
M  V30 1454 O 130.233 -3.98847 -1.04856 0
M  V30 1455 H 129.574 -0.659467 0.0774581 0
M  V30 1456 H 132.104 -1.86236 0.847186 0
M  V30 1457 H 132.114 -4.07529 -0.196091 0
M  V30 1458 H 130.789 -4.04765 0.955932 0
M  V30 1459 H 129.366 -3.63577 -0.828619 0
M  V30 1460 N 131.551 -0.354651 -1.53558 0
M  V30 1461 C 132.461 0.50515 -2.29097 0
M  V30 1462 C 133.477 1.10223 -1.34636 0
M  V30 1463 O 134.653 1.11553 -1.67684 0
M  V30 1464 C 131.718 1.63479 -3.05738 0
M  V30 1465 C 130.779 1.06636 -4.15845 0
M  V30 1466 C 130.012 2.14217 -4.88822 0
M  V30 1467 O 130.235 3.35137 -4.61562 0
M  V30 1468 O 129.169 1.77887 -5.75013 0
M  V30 1469 H 132.995 -0.109237 -3.03503 0
M  V30 1470 H 130.58 -0.119357 -1.48922 0
M  V30 1471 H 132.462 2.2918 -3.5363 0
M  V30 1472 H 131.137 2.23478 -2.34178 0
M  V30 1473 H 130.044 0.373565 -3.7223 0
M  V30 1474 H 131.377 0.511081 -4.89539 0
M  V30 1475 N 133.029 1.57378 -0.0835403 0
M  V30 1476 C 134.276 1.9393 0.58287 0
M  V30 1477 C 134.604 0.964455 1.68904 0
M  V30 1478 O 133.859 -0.0179474 1.95692 0
M  V30 1479 C 134.158 3.37063 1.1884 0
M  V30 1480 C 133.824 4.50424 0.207194 0
M  V30 1481 C 132.486 4.81159 -0.0627115 0
M  V30 1482 C 134.838 5.19136 -0.463426 0
M  V30 1483 C 132.166 5.77939 -1.01012 0
M  V30 1484 C 134.518 6.16931 -1.39924 0
M  V30 1485 C 133.182 6.46078 -1.67749 0
M  V30 1486 H 132.452 0.70964 0.213287 0
M  V30 1487 H 135.099 1.90856 -0.156916 0
M  V30 1488 H 133.404 3.3666 2.00418 0
M  V30 1489 H 135.101 3.6264 1.71153 0
M  V30 1490 H 131.691 4.2646 0.427747 0
M  V30 1491 H 135.875 4.95576 -0.268034 0
M  V30 1492 H 131.131 5.98842 -1.23283 0
M  V30 1493 H 135.305 6.69273 -1.92476 0
M  V30 1494 H 132.932 7.2088 -2.41321 0
M  V30 1495 N 134.507 -0.190092 1.56449 0
M  V30 1496 C 135.753 -0.911052 1.81184 0
M  V30 1497 C 136.086 -1.82699 0.658396 0
M  V30 1498 O 135.361 -1.91491 -0.340775 0
M  V30 1499 C 135.644 -1.72297 3.16205 0
M  V30 1500 C 135.497 -0.831419 4.42049 0
M  V30 1501 C 136.816 -2.69454 3.47969 0
M  V30 1502 H 133.935 -0.32977 0.659106 0
M  V30 1503 H 136.577 -0.178169 1.89163 0
M  V30 1504 H 134.727 -2.34778 3.09534 0
M  V30 1505 H 136.399 -0.220929 4.60771 0
M  V30 1506 H 134.642 -0.138406 4.33579 0
M  V30 1507 H 135.313 -1.43461 5.33032 0
M  V30 1508 H 137.789 -2.17104 3.54972 0
M  V30 1509 H 136.665 -3.23342 4.43555 0
M  V30 1510 H 136.926 -3.48744 2.71717 0
M  V30 1511 N 135.985 -1.50799 -0.457987 0
M  V30 1512 C 136.918 -1.65273 -1.57353 0
M  V30 1513 C 137.896 -0.500578 -1.54703 0
M  V30 1514 O 139.08 -0.721781 -1.74134 0
M  V30 1515 C 136.207 -1.64737 -2.95938 0
M  V30 1516 C 135.253 -2.8567 -3.16693 0
M  V30 1517 S 136.086 -4.46791 -2.95191 0
M  V30 1518 C 137.242 -4.48968 -4.36095 0
M  V30 1519 H 137.475 -2.59633 -1.44838 0
M  V30 1520 H 135.008 -1.40225 -0.64625 0
M  V30 1521 H 136.966 -1.65112 -3.7583 0
M  V30 1522 H 135.627 -0.715899 -3.05833 0
M  V30 1523 H 134.82 -2.81637 -4.17967 0
M  V30 1524 H 134.422 -2.8293 -2.44594 0
M  V30 1525 H 136.714 -4.23337 -5.28954 0
M  V30 1526 H 137.657 -5.50664 -4.45168 0
M  V30 1527 H 138.065 -3.78522 -4.18786 0
M  V30 1528 N 137.463 0.71206 -1.40597 0
M  V30 1529 C 138.709 1.47416 -1.39271 0
M  V30 1530 C 139.042 1.942 0.00388791 0
M  V30 1531 O 138.317 1.68403 0.973179 0
M  V30 1532 C 138.6 2.69774 -2.38525 0
M  V30 1533 C 138.453 2.28861 -3.87224 0
M  V30 1534 C 139.772 3.71939 -2.35264 0
M  V30 1535 H 136.891 0.534713 -0.5072 0
M  V30 1536 H 139.533 0.812375 -1.71757 0
M  V30 1537 H 137.683 3.26238 -2.10953 0
M  V30 1538 H 139.355 1.77852 -4.25636 0
M  V30 1539 H 137.598 1.60824 -4.02887 0
M  V30 1540 H 138.269 3.16584 -4.52193 0
M  V30 1541 H 140.745 3.25113 -2.59694 0
M  V30 1542 H 139.621 4.55186 -3.06753 0
M  V30 1543 H 139.882 4.20484 -1.36549 0
M  V30 1544 N 138.941 1.26152 0.944643 0
M  V30 1545 C 140.166 1.14363 1.7302 0
M  V30 1546 C 140.591 -0.29772 1.85729 0
M  V30 1547 O 139.949 -1.2157 1.34501 0
M  V30 1548 C 139.997 1.81378 3.11664 0
M  V30 1549 O 139.101 1.10022 3.97453 0
M  V30 1550 H 138.442 0.398694 0.53098 0
M  V30 1551 H 140.972 1.66906 1.18337 0
M  V30 1552 H 140.982 1.88064 3.62072 0
M  V30 1553 H 139.657 2.86237 3.0173 0
M  V30 1554 H 138.234 1.11287 3.55907 0
M  V30 1555 N 140.419 -1.14872 1.07899 0
M  V30 1556 C 141.696 -1.81928 0.71845 0
M  V30 1557 C 142.076 -1.95417 -0.798455 0
M  V30 1558 O 141.424 -1.50997 -1.715 0
M  V30 1559 C 141.634 -3.17937 1.43935 0
M  V30 1560 C 142.982 -3.93501 1.59506 0
M  V30 1561 O 144.006 -3.27509 1.40058 0
M  V30 1562 O 142.865 -5.1183 1.91551 0
M  V30 1563 H 139.959 -0.78628 0.256305 0
M  V30 1564 H 142.505 -1.21934 1.18026 0
M  V30 1565 H 141.277 -3.0325 2.47295 0
M  V30 1566 H 140.9 -3.85619 0.968687 0
M  V30 1567 N 141.898 -0.863906 -1.31812 0
M  V30 1568 C 143.144 -0.472535 -1.97218 0
M  V30 1569 C 143.477 0.971394 -1.68159 0
M  V30 1570 O 142.752 1.68309 -0.974798 0
M  V30 1571 C 143.035 -0.723054 -3.52766 0
M  V30 1572 C 142.888 -2.21608 -3.91421 0
M  V30 1573 C 144.207 -0.185522 -4.39709 0
M  V30 1574 H 141.326 -0.173158 -0.71637 0
M  V30 1575 H 143.968 -1.08403 -1.56041 0
M  V30 1576 H 142.118 -0.202577 -3.87971 0
M  V30 1577 H 143.79 -2.80334 -3.66347 0
M  V30 1578 H 142.033 -2.691 -3.40246 0
M  V30 1579 H 142.704 -2.34203 -4.99853 0
M  V30 1580 H 145.18 -0.630726 -4.11292 0
M  V30 1581 H 144.056 -0.390306 -5.47511 0
M  V30 1582 H 144.317 0.912229 -4.32586 0
M  V30 1583 N 143.376 1.44774 -0.622745 0
M  V30 1584 C 144.339 2.29069 0.0774015 0
M  V30 1585 C 145.339 1.4059 0.780461 0
M  V30 1586 O 146.529 1.62551 0.626322 0
M  V30 1587 C 143.661 3.21974 1.12006 0
M  V30 1588 H 144.854 2.92459 -0.663901 0
M  V30 1589 H 142.407 1.51548 -0.382486 0
M  V30 1590 H 143.142 2.63417 1.89162 0
M  V30 1591 H 142.927 3.87168 0.619951 0
M  V30 1592 H 144.417 3.85318 1.60995 0
M  V30 1593 N 144.854 0.36279 1.53368 0
M  V30 1594 C 146.27 0.0116182 1.59596 0
M  V30 1595 C 146.47 -1.47012 1.37803 0
M  V30 1596 O 145.526 -2.23136 1.18181 0
M  V30 1597 C 146.839 0.465052 2.97082 0
M  V30 1598 C 148.387 0.419033 3.10182 0
M  V30 1599 C 148.862 0.848235 4.50077 0
M  V30 1600 N 150.353 0.803183 4.56183 0
M  V30 1601 C 151.088 1.107 5.62613 0
M  V30 1602 N 150.584 1.47996 6.76808 0
M  V30 1603 N 152.377 1.02998 5.52583 0
M  V30 1604 H 144.528 1.32775 1.65785 0
M  V30 1605 H 146.791 0.542518 0.777417 0
M  V30 1606 H 146.497 1.49892 3.18159 0
M  V30 1607 H 146.371 -0.149786 3.76902 0
M  V30 1608 H 148.758 -0.605696 2.88817 0
M  V30 1609 H 148.839 1.06933 2.32377 0
M  V30 1610 H 148.483 1.87107 4.7218 0
M  V30 1611 H 148.413 0.175218 5.26308 0
M  V30 1612 H 150.904 0.52838 3.74188 0
M  V30 1613 H 151.217 1.69613 7.53957 0
M  V30 1614 H 149.562 1.51859 6.78206 0
M  V30 1615 H 152.753 0.737817 4.62249 0
M  V30 1616 H 152.926 1.2701 6.35431 0
M  V30 1617 N 146.332 -1.57332 0.0918853 0
M  V30 1618 C 147.578 -1.94524 -0.573425 0
M  V30 1619 C 147.911 -0.973578 -1.68033 0
M  V30 1620 O 147.186 -0.00609226 -1.94499 0
M  V30 1621 C 147.469 -3.41858 -1.13161 0
M  V30 1622 C 147.322 -4.4979 -0.0299747 0
M  V30 1623 C 148.641 -3.90435 -2.03098 0
M  V30 1624 H 145.76 -0.70734 -0.206975 0
M  V30 1625 H 148.402 -1.89309 0.161942 0
M  V30 1626 H 146.552 -3.46433 -1.7583 0
M  V30 1627 H 148.224 -4.57327 0.604112 0
M  V30 1628 H 146.467 -4.291 0.636833 0
M  V30 1629 H 147.138 -5.50069 -0.461287 0
M  V30 1630 H 149.614 -3.87992 -1.50338 0
M  V30 1631 H 148.49 -4.94097 -2.39081 0
M  V30 1632 H 148.751 -3.29541 -2.94712 0
M  V30 1633 N 147.81 0.181792 -1.56548 0
M  V30 1634 C 148.74 1.22765 -1.98623 0
M  V30 1635 C 149.721 1.46747 -0.860189 0
M  V30 1636 O 150.906 1.58259 -1.12551 0
M  V30 1637 C 148.036 2.56894 -2.33715 0
M  V30 1638 C 146.99 2.475 -3.49182 0
M  V30 1639 C 146.316 3.86023 -3.69986 0
M  V30 1640 C 147.616 1.98866 -4.82959 0
M  V30 1641 H 149.31 0.877942 -2.86239 0
M  V30 1642 H 146.856 0.42088 -1.37712 0
M  V30 1643 H 148.809 3.30253 -2.61746 0
M  V30 1644 H 147.533 2.93632 -1.42997 0
M  V30 1645 H 146.192 1.76596 -3.21262 0
M  V30 1646 H 145.84 4.20136 -2.76576 0
M  V30 1647 H 145.54 3.80609 -4.47672 0
M  V30 1648 H 147.064 4.60984 -4.00407 0
M  V30 1649 H 148.478 2.61992 -5.09934 0
M  V30 1650 H 146.875 2.04424 -5.64208 0
M  V30 1651 H 147.945 0.942465 -4.75653 0
M  V30 1652 N 149.288 1.51039 0.449983 0
M  V30 1653 C 150.534 1.63322 1.20223 0
M  V30 1654 C 150.867 0.34241 1.91158 0
M  V30 1655 O 150.142 -0.657344 1.83055 0
M  V30 1656 C 150.425 2.82801 2.22925 0
M  V30 1657 C 150.278 4.21823 1.56157 0
M  V30 1658 C 151.597 2.97807 3.24035 0
M  V30 1659 H 148.716 0.594407 0.435718 0
M  V30 1660 H 151.358 1.83489 0.493136 0
M  V30 1661 H 149.508 2.65738 2.834 0
M  V30 1662 H 151.18 4.50526 0.991162 0
M  V30 1663 H 149.423 4.25105 0.864172 0
M  V30 1664 H 150.094 5.01391 2.30891 0
M  V30 1665 H 152.57 3.13497 2.73603 0
M  V30 1666 H 151.446 3.82992 3.93202 0
M  V30 1667 H 151.707 2.09328 3.89402 0
M  V30 1668 N 150.766 -0.704594 1.40972 0
M  V30 1669 C 151.991 -1.49858 1.43378 0
M  V30 1670 C 152.416 -1.88061 0.038184 0
M  V30 1671 O 151.774 -1.5402 -0.956425 0
M  V30 1672 C 151.822 -2.74333 2.34038 0
M  V30 1673 O 150.926 -3.7147 1.7912 0
M  V30 1674 H 150.267 -0.45139 0.486974 0
M  V30 1675 H 152.797 -0.866832 1.8533 0
M  V30 1676 H 152.807 -3.22741 2.49604 0
M  V30 1677 H 151.482 -2.45863 3.35446 0
M  V30 1678 H 150.059 -3.30363 1.72958 0
M  V30 1679 N 152.244 -1.26651 -0.937939 0
M  V30 1680 C 153.191 -1.0849 -2.03712 0
M  V30 1681 C 154.161 0.011033 -1.66096 0
M  V30 1682 O 155.346 -0.149353 -1.90215 0
M  V30 1683 C 152.486 -0.72735 -3.37348 0
M  V30 1684 C 151.599 -1.89986 -3.87981 0
M  V30 1685 C 150.734 -1.48513 -5.10017 0
M  V30 1686 C 149.773 -2.62575 -5.5292 0
M  V30 1687 N 148.91 -2.21762 -6.66158 0
M  V30 1688 H 153.75 -2.02551 -2.18579 0
M  V30 1689 H 151.287 -1.00844 -1.07093 0
M  V30 1690 H 153.245 -0.50092 -4.14182 0
M  V30 1691 H 151.875 0.176298 -3.22318 0
M  V30 1692 H 150.927 -2.23913 -3.07518 0
M  V30 1693 H 152.239 -2.75586 -4.15757 0
M  V30 1694 H 151.393 -1.21934 -5.94321 0
M  V30 1695 H 150.132 -0.60009 -4.83994 0
M  V30 1696 H 149.137 -2.8988 -4.67172 0
M  V30 1697 H 150.362 -3.51685 -5.80943 0
M  V30 1698 H 148.308 -1.35696 -6.41812 0
M  V30 1699 H 148.225 -3.00903 -6.93537 0
M  V30 1700 H 149.493 -1.98403 -7.53828 0
M  V30 1701 N 153.722 1.14298 -1.08507 0
M  V30 1702 C 154.67 2.21483 -0.710483 0
M  V30 1703 C 155.664 1.66998 0.284234 0
M  V30 1704 O 156.87 1.79401 0.146692 0
M  V30 1705 H 153.245 0.721578 -0.211729 0
M  V30 1706 H 155.216 2.50348 -1.62384 0
M  V30 1707 C 153.965 3.4743 -0.137007 0
M  V30 1708 H 153.288 3.89686 -0.893592 0
M  V30 1709 H 154.728 4.2391 0.0872789 0
M  V30 1710 C 153.187 3.17548 1.12538 0
M  V30 1711 O 153.717 3.35437 2.21009 0
M  V30 1712 N 151.923 2.71499 1.03617 0
M  V30 1713 H 151.47 2.57143 0.153403 0
M  V30 1714 H 151.428 2.51881 1.88158 0
M  V30 1715 N 155.201 0.870884 1.31352 0
M  V30 1716 C 156.131 0.343096 2.30966 0
M  V30 1717 C 157.112 -0.566507 1.60389 0
M  V30 1718 O 158.297 -0.483336 1.88089 0
M  V30 1719 C 155.427 -0.455487 3.443 0
M  V30 1720 C 154.381 0.361103 4.26474 0
M  V30 1721 C 153.707 -0.563221 5.31725 0
M  V30 1722 C 155.007 1.59566 4.97329 0
M  V30 1723 H 156.701 1.17548 2.75359 0
M  V30 1724 H 154.247 0.566686 1.32381 0
M  V30 1725 H 156.2 -0.83525 4.13039 0
M  V30 1726 H 154.924 -1.32139 2.98675 0
M  V30 1727 H 153.583 0.722825 3.59403 0
M  V30 1728 H 153.231 -1.42643 4.82351 0
M  V30 1729 H 152.931 -0.0207409 5.87596 0
M  V30 1730 H 154.455 -0.939808 6.03324 0
M  V30 1731 H 155.869 1.28728 5.58661 0
M  V30 1732 H 154.266 2.07728 5.63 0
M  V30 1733 H 155.336 2.34798 4.24262 0
M  V30 1734 N 156.679 -1.44442 0.630414 0
M  V30 1735 C 157.926 -2.02052 0.134617 0
M  V30 1736 C 158.254 -1.49576 -1.24327 0
M  V30 1737 O 157.509 -0.669806 -1.83881 0
M  V30 1738 C 157.808 -3.57332 0.0697835 0
M  V30 1739 C 157.474 -4.29058 1.38635 0
M  V30 1740 C 156.136 -4.4837 1.74694 0
M  V30 1741 C 158.488 -4.69872 2.25543 0
M  V30 1742 C 155.816 -5.05756 2.97369 0
M  V30 1743 C 158.168 -5.28616 3.47487 0
M  V30 1744 C 156.832 -5.46147 3.8377 0
M  V30 1745 H 156.102 -0.739361 0.0492598 0
M  V30 1746 H 158.749 -1.73217 0.816586 0
M  V30 1747 H 157.054 -3.85577 -0.695553 0
M  V30 1748 H 158.751 -3.99637 -0.330344 0
M  V30 1749 H 155.341 -4.14357 1.09574 0
M  V30 1750 H 159.525 -4.54666 1.98979 0
M  V30 1751 H 154.781 -5.17515 3.25558 0
M  V30 1752 H 158.955 -5.59192 4.15063 0
M  V30 1753 H 156.582 -5.9038 4.7891 0
M  V30 1754 N 158.157 -0.370918 -1.53173 0
M  V30 1755 C 159.434 0.273754 -1.93675 0
M  V30 1756 C 159.814 1.65938 -1.3049 0
M  V30 1757 O 159.162 2.23698 -0.465999 0
M  V30 1758 C 159.372 0.318602 -3.47543 0
M  V30 1759 C 160.72 0.556392 -4.20939 0
M  V30 1760 O 161.744 0.399587 -3.53952 0
M  V30 1761 O 160.603 0.862133 -5.39657 0
M  V30 1762 H 157.697 0.165448 -0.810281 0
M  V30 1763 H 160.243 -0.42409 -1.64315 0
M  V30 1764 H 159.015 -0.652687 -3.85818 0
M  V30 1765 H 158.638 1.06212 -3.83151 0
M  V30 1766 N 159.635 1.57281 -0.100228 0
M  V30 1767 C 161.051 1.57527 0.256416 0
M  V30 1768 C 161.251 1.11173 1.68056 0
M  V30 1769 O 160.307 0.79053 2.39806 0
M  V30 1770 C 161.62 3.00673 0.0401747 0
M  V30 1771 C 163.168 3.12815 0.107528 0
M  V30 1772 C 163.643 4.57929 -0.0807834 0
M  V30 1773 N 165.134 4.63193 -0.0261207 0
M  V30 1774 C 165.869 5.73212 -0.146999 0
M  V30 1775 N 165.365 6.92047 -0.322999 0
M  V30 1776 N 167.158 5.62031 -0.0879044 0
M  V30 1777 H 159.309 1.85718 -1.03065 0
M  V30 1778 H 161.572 0.857446 -0.404339 0
M  V30 1779 H 161.278 3.38804 -0.943649 0
M  V30 1780 H 161.152 3.69042 0.780262 0
M  V30 1781 H 163.539 2.74554 1.08186 0
M  V30 1782 H 163.62 2.47028 -0.664134 0
M  V30 1783 H 163.264 4.96886 -1.05201 0
M  V30 1784 H 163.194 5.21783 0.710635 0
M  V30 1785 H 165.685 3.77748 0.107161 0
M  V30 1786 H 165.998 7.7173 -0.406608 0
M  V30 1787 H 164.343 6.94074 -0.358733 0
M  V30 1788 H 167.534 4.68075 0.048498 0
M  V30 1789 H 167.707 6.47734 -0.185557 0
M  V30 1790 N 161.113 -0.173488 1.56642 0
M  V30 1791 C 162.043 -1.2171 1.99271 0
M  V30 1792 C 163.024 -1.46289 0.867959 0
M  V30 1793 O 164.209 -1.5766 1.13388 0
M  V30 1794 C 161.339 -2.55651 2.35074 0
M  V30 1795 C 160.293 -2.45645 3.50489 0
M  V30 1796 C 159.619 -3.84056 3.72028 0
M  V30 1797 C 160.919 -1.96302 4.84007 0
M  V30 1798 H 162.613 -0.86275 2.867 0
M  V30 1799 H 160.159 -0.413571 1.37933 0
M  V30 1800 H 162.112 -3.2886 2.63494 0
M  V30 1801 H 160.836 -2.92869 1.44552 0
M  V30 1802 H 159.495 -1.7489 3.22194 0
M  V30 1803 H 159.143 -4.18664 2.788 0
M  V30 1804 H 158.843 -3.7823 4.49684 0
M  V30 1805 H 160.367 -4.58854 4.02846 0
M  V30 1806 H 161.781 -2.59284 5.11317 0
M  V30 1807 H 160.178 -2.01429 5.65284 0
M  V30 1808 H 161.248 -0.917226 4.76146 0
M  V30 1809 N 162.591 -1.51276 -0.441967 0
M  V30 1810 C 163.84 -1.6295 -1.18871 0
M  V30 1811 C 164.153 -0.349312 -1.92456 0
M  V30 1812 O 165.359 -0.345355 -2.69295 0
M  V30 1813 C 163.815 -2.87759 -2.16155 0
M  V30 1814 C 163.423 -4.22764 -1.48239 0
M  V30 1815 C 165.167 -3.08788 -2.91291 0
M  V30 1816 C 163.074 -5.38728 -2.4398 0
M  V30 1817 H 162.004 -0.606913 -0.447406 0
M  V30 1818 H 164.655 -1.77739 -0.456205 0
M  V30 1819 H 163.037 -2.66593 -2.92821 0
M  V30 1820 H 164.211 -4.54293 -0.771635 0
M  V30 1821 H 162.526 -4.07575 -0.852741 0
M  V30 1822 H 165.123 -3.92599 -3.63002 0
M  V30 1823 H 165.466 -2.21679 -3.5237 0
M  V30 1824 H 165.999 -3.30272 -2.21733 0
M  V30 1825 H 162.738 -6.28082 -1.87598 0
M  V30 1826 H 162.258 -5.1158 -3.13123 0
M  V30 1827 H 163.937 -5.70489 -3.05207 0
M  V30 1828 N 164.069 0.697108 -1.41344 0
M  V30 1829 C 164.979 1.84088 -1.45427 0
M  V30 1830 C 165.995 1.70545 -0.34501 0
M  V30 1831 O 167.171 1.92488 -0.592492 0
M  V30 1832 C 164.236 3.20056 -1.33286 0
M  V30 1833 C 163.297 3.45718 -2.54514 0
M  V30 1834 C 162.53 4.75199 -2.42944 0
M  V30 1835 O 162.753 5.51579 -1.45318 0
M  V30 1836 O 161.687 5.0161 -3.32672 0
M  V30 1837 H 165.513 1.836 -2.41919 0
M  V30 1838 H 163.098 0.849966 -1.22866 0
M  V30 1839 H 164.98 4.01236 -1.28794 0
M  V30 1840 H 163.655 3.2123 -0.39909 0
M  V30 1841 H 162.562 2.64474 -2.64583 0
M  V30 1842 H 163.895 3.49356 -3.46715 0
M  V30 1843 N 165.547 1.27147 0.931209 0
M  V30 1844 C 166.495 1.09398 2.05268 0
M  V30 1845 C 167.489 0.0180591 1.6939 0
M  V30 1846 O 168.695 0.17551 1.79142 0
M  V30 1847 H 165.07 0.336986 0.672268 0
M  V30 1848 H 167.041 2.04416 2.17386 0
M  V30 1849 C 165.79 0.75424 3.39421 0
M  V30 1850 H 165.113 1.57404 3.67511 0
M  V30 1851 H 166.553 0.669903 4.18674 0
M  V30 1852 C 165.012 -0.541197 3.32525 0
M  V30 1853 O 165.542 -1.57664 3.69466 0
M  V30 1854 N 163.748 -0.535517 2.85623 0
M  V30 1855 H 163.295 0.307511 2.55758 0
M  V30 1856 H 163.253 -1.40236 2.81392 0
M  V30 1857 N 167.025 -1.13721 1.09112 0
M  V30 1858 C 167.955 -2.21148 0.749385 0
M  V30 1859 C 168.936 -1.6792 -0.271475 0
M  V30 1860 O 170.121 -1.93693 -0.140251 0
M  V30 1861 C 167.251 -3.46905 0.165659 0
M  V30 1862 C 166.205 -4.13203 1.11567 0
M  V30 1863 C 165.531 -5.33248 0.393809 0
M  V30 1864 C 166.831 -4.60912 2.45678 0
M  V30 1865 H 168.525 -2.4999 1.64758 0
M  V30 1866 H 166.071 -1.20156 0.793626 0
M  V30 1867 H 168.024 -4.21313 -0.085466 0
M  V30 1868 H 166.748 -3.17449 -0.767714 0
M  V30 1869 H 165.407 -3.40758 1.35202 0
M  V30 1870 H 165.055 -5.00054 -0.543599 0
M  V30 1871 H 164.755 -5.78552 1.02721 0
M  V30 1872 H 166.279 -6.10413 0.150908 0
M  V30 1873 H 167.693 -5.26759 2.26269 0
M  V30 1874 H 166.09 -5.16944 3.04776 0
M  V30 1875 H 167.16 -3.75603 3.06677 0
M  V30 1876 N 168.503 -0.877838 -1.30888 0
M  V30 1877 C 169.78 -0.413052 -1.91189 0
M  V30 1878 C 170.16 1.1056 -1.79832 0
M  V30 1879 O 169.508 1.93771 -1.21099 0
M  V30 1880 C 169.718 -0.903191 -3.3711 0
M  V30 1881 C 171.066 -0.93395 -4.14201 0
M  V30 1882 O 172.09 -0.849373 -3.45925 0
M  V30 1883 O 170.949 -1.05772 -5.36167 0
M  V30 1884 H 168.043 -0.125035 -0.817493 0
M  V30 1885 H 170.589 -0.966269 -1.39504 0
M  V30 1886 H 169.361 -1.94692 -3.39427 0
M  V30 1887 H 168.984 -0.328732 -3.96239 0
M  V30 1888 N 169.982 1.44106 -0.638065 0
M  V30 1889 C 170.929 2.30715 0.062701 0
M  V30 1890 C 171.899 1.43882 0.829883 0
M  V30 1891 O 173.084 1.72775 0.809532 0
M  V30 1892 C 170.224 3.29258 1.03358 0
M  V30 1893 C 169.337 4.31192 0.26409 0
M  V30 1894 C 168.472 5.16825 1.22741 0
M  V30 1895 C 167.511 6.10462 0.447475 0
M  V30 1896 N 166.648 6.8877 1.36161 0
M  V30 1897 H 171.488 2.90096 -0.681781 0
M  V30 1898 H 169.025 1.42925 -0.347988 0
M  V30 1899 H 170.983 3.84886 1.60992 0
M  V30 1900 H 169.613 2.71562 1.74511 0
M  V30 1901 H 168.665 3.77981 -0.428295 0
M  V30 1902 H 169.977 4.97619 -0.343052 0
M  V30 1903 H 169.131 5.77004 1.87487 0
M  V30 1904 H 167.87 4.50488 1.86847 0
M  V30 1905 H 166.875 5.49386 -0.213433 0
M  V30 1906 H 168.1 6.78837 -0.188968 0
M  V30 1907 H 166.046 6.25096 1.98975 0
M  V30 1908 H 165.963 7.51663 0.808656 0
M  V30 1909 H 167.231 7.53467 1.99769 0
M  V30 1910 N 171.46 0.379036 1.52974 0
M  V30 1911 C 172.423 -0.448865 2.24762 0
M  V30 1912 C 173.423 -0.998689 1.26027 0
M  V30 1913 O 174.613 -0.882313 1.50203 0
M  V30 1914 C 171.745 -1.62872 2.99476 0
M  V30 1915 H 172.938 0.179491 2.99362 0
M  V30 1916 H 170.491 0.13096 1.5575 0
M  V30 1917 H 171.226 -2.29479 2.29151 0
M  V30 1918 H 171.011 -1.24128 3.71934 0
M  V30 1919 H 172.501 -2.2151 3.5401 0
M  V30 1920 N 172.938 -1.57226 0.108567 0
M  V30 1921 C 174.215 -1.86333 -0.594939 0
M  V30 1922 C 174.595 -1.00788 -1.85486 0
M  V30 1923 O 173.943 -0.0839293 -2.28346 0
M  V30 1924 C 174.153 -3.37265 -0.897405 0
M  V30 1925 C 175.501 -4.05629 -1.25501 0
M  V30 1926 O 176.525 -3.42224 -0.987998 0
M  V30 1927 O 175.384 -5.17531 -1.75567 0
M  V30 1928 H 172.478 -0.771018 -0.2991 0
M  V30 1929 H 175.024 -1.69102 0.142283 0
M  V30 1930 H 173.796 -3.913 -0.00413806 0
M  V30 1931 H 173.419 -3.59889 -1.69014 0
M  V30 1932 N 174.416 0.165178 -1.56732 0
M  V30 1933 C 175.656 0.887231 -1.8414 0
M  V30 1934 C 176.02 1.79159 -0.690353 0
M  V30 1935 O 177.221 2.55172 -0.845032 0
M  V30 1936 C 175.492 1.65674 -3.16681 0
M  V30 1937 S 177.051 2.42671 -3.6559 0
M  V30 1938 H 173.869 0.297042 -0.645978 0
M  V30 1939 H 176.471 0.148439 -1.94936 0
M  V30 1940 H 175.175 0.983507 -3.98441 0
M  V30 1941 H 174.706 2.43679 -3.08843 0
M  V30 1942 H 176.721 3.67499 -3.33406 0
M  V30 1943 N 175.894 1.51508 0.433938 0
M  V30 1944 C 177.143 1.63578 1.18005 0
M  V30 1945 C 177.456 0.359514 1.92268 0
M  V30 1946 O 178.662 0.359632 2.69108 0
M  V30 1947 C 177.118 2.88901 2.14626 0
M  V30 1948 C 176.726 4.23544 1.45995 0
M  V30 1949 C 178.47 3.10328 2.89649 0
M  V30 1950 C 176.377 5.40014 2.4112 0
M  V30 1951 H 175.307 0.609277 0.444182 0
M  V30 1952 H 177.958 1.77978 0.446773 0
M  V30 1953 H 176.34 2.68142 2.91403 0
M  V30 1954 H 177.514 4.54696 0.747532 0
M  V30 1955 H 175.829 4.08021 0.831115 0
M  V30 1956 H 178.426 3.94518 3.60915 0
M  V30 1957 H 178.769 2.23544 3.51189 0
M  V30 1958 H 179.302 3.31443 2.19978 0
M  V30 1959 H 176.041 6.29068 1.84264 0
M  V30 1960 H 175.561 5.13233 3.10406 0
M  V30 1961 H 177.24 5.72099 3.02177 0
M  V30 1962 N 177.372 -0.689602 1.41712 0
M  V30 1963 C 178.6 -1.47827 1.44758 0
M  V30 1964 C 179.015 -1.88721 0.0545703 0
M  V30 1965 O 178.372 -1.57176 -0.927463 0
M  V30 1966 C 178.423 -2.73698 2.3616 0
M  V30 1967 O 178.144 -2.34524 3.7004 0
M  V30 1968 C 179.645 -3.67389 2.48072 0
M  V30 1969 H 176.865 -0.455357 0.49284 0
M  V30 1970 H 179.409 -0.848574 1.86063 0
M  V30 1971 H 177.564 -3.32891 1.98148 0
M  V30 1972 H 177.978 -3.15701 4.18847 0
M  V30 1973 H 179.452 -4.52475 3.16181 0
M  V30 1974 H 179.929 -4.12284 1.51388 0
M  V30 1975 H 180.535 -3.14097 2.86746 0
M  V30 1976 N 178.85 -1.27639 -0.924453 0
M  V30 1977 C 180.261 -1.12834 -1.48746 0
M  V30 1978 C 180.612 0.285505 -1.94112 0
M  V30 1979 O 179.737 1.17874 -1.81479 0
M  V30 1980 C 180.332 -2.04217 -2.70334 0
M  V30 1981 C 178.891 -1.93509 -3.22848 0
M  V30 1982 C 178.038 -1.96583 -1.95577 0
M  V30 1983 H 180.989 -1.40484 -0.738233 0
M  V30 1984 H 181.01 -1.59989 -3.4523 0
M  V30 1985 H 180.522 -3.07111 -2.37285 0
M  V30 1986 H 178.623 -0.936131 -3.60649 0
M  V30 1987 H 178.736 -2.79917 -3.88823 0
M  V30 1988 H 177.1 -1.4085 -2.12211 0
M  V30 1989 H 177.883 -3.01137 -1.64837 0
M  V30 1990 N 180.328 1.1314 -1.09713 0
M  V30 1991 C 181.291 2.16831 -0.742751 0
M  V30 1992 C 182.291 1.59159 0.229129 0
M  V30 1993 O 183.481 1.74199 0.00693237 0
M  V30 1994 C 180.613 3.40756 -0.0989168 0
M  V30 1995 H 181.806 2.49695 -1.66109 0
M  V30 1996 H 179.359 1.2802 -0.896699 0
M  V30 1997 H 180.094 3.13485 0.830514 0
M  V30 1998 H 179.879 3.83888 -0.798265 0
M  V30 1999 H 181.369 4.17386 0.133524 0
M  V30 2000 N 181.806 0.884767 1.30421 0
M  V30 2001 C 182.736 0.367574 2.30589 0
M  V30 2002 C 183.717 -0.549464 1.60981 0
M  V30 2003 O 184.902 -0.46336 1.88591 0
M  V30 2004 C 182.032 -0.418944 3.44764 0
M  V30 2005 C 180.986 0.406316 4.26067 0
M  V30 2006 C 180.312 -0.506793 5.32293 0
M  V30 2007 C 181.612 1.64832 4.95608 0
M  V30 2008 H 183.306 1.20462 2.74097 0
M  V30 2009 H 180.852 0.580695 1.31772 0
M  V30 2010 H 182.805 -0.791395 4.13902 0
M  V30 2011 H 181.529 -1.28964 3.0006 0
M  V30 2012 H 180.188 0.760903 3.58617 0
M  V30 2013 H 179.836 -1.37519 4.83836 0
M  V30 2014 H 179.536 0.0415828 5.87585 0
M  V30 2015 H 181.06 -0.875764 6.04287 0
M  V30 2016 H 182.474 1.34646 5.57264 0
M  V30 2017 H 180.871 2.13688 5.60765 0
M  V30 2018 H 181.941 2.39284 4.21748 0
M  V30 2019 N 183.284 -1.43765 0.645699 0
M  V30 2020 C 184.231 -2.30745 -0.0504648 0
M  V30 2021 C 185.201 -1.4432 -0.822241 0
M  V30 2022 O 186.386 -1.73202 -0.800358 0
M  V30 2023 C 183.526 -3.29802 -1.0161 0
M  V30 2024 C 182.639 -4.31326 -0.241219 0
M  V30 2025 C 181.774 -5.17469 -1.19998 0
M  V30 2026 C 180.813 -6.10691 -0.415094 0
M  V30 2027 N 179.95 -6.89483 -1.32506 0
M  V30 2028 H 184.79 -2.8973 0.697155 0
M  V30 2029 H 182.327 -1.42738 0.355563 0
M  V30 2030 H 184.285 -3.85734 -1.58949 0
M  V30 2031 H 182.915 -2.72483 -1.73069 0
M  V30 2032 H 181.967 -3.77749 0.448334 0
M  V30 2033 H 183.279 -4.9743 0.369437 0
M  V30 2034 H 182.433 -5.7799 -1.84424 0
M  V30 2035 H 181.172 -4.51473 -1.84455 0
M  V30 2036 H 180.177 -5.49265 0.242565 0
M  V30 2037 H 181.402 -6.78727 0.224966 0
M  V30 2038 H 179.348 -6.26142 -1.95657 0
M  V30 2039 H 179.265 -7.52081 -0.768783 0
M  V30 2040 H 180.533 -7.54516 -1.9577 0
M  V30 2041 N 184.763 -0.387143 -1.52771 0
M  V30 2042 C 186.009 0.196025 -2.0185 0
M  V30 2043 C 186.342 1.46641 -1.27319 0
M  V30 2044 O 185.617 1.90889 -0.373032 0
M  V30 2045 C 185.9 0.466136 -3.5707 0
M  V30 2046 C 185.753 -0.819385 -4.42274 0
M  V30 2047 C 187.072 1.25768 -4.21747 0
M  V30 2048 H 184.191 0.0697708 -0.73369 0
M  V30 2049 H 186.833 -0.516286 -1.82851 0
M  V30 2050 H 184.983 1.07293 -3.7339 0
M  V30 2051 H 186.655 -1.4563 -4.37709 0
M  V30 2052 H 184.898 -1.43517 -4.09372 0
M  V30 2053 H 185.569 -0.585065 -5.48891 0
M  V30 2054 H 188.045 0.744167 -4.09391 0
M  V30 2055 H 186.921 1.41541 -5.30337 0
M  V30 2056 H 187.182 2.27228 -3.79236 0
M  V30 2057 N 186.241 1.57166 -0.116904 0
M  V30 2058 C 187.204 2.14039 0.819742 0
M  V30 2059 C 188.204 1.07477 1.19605 0
M  V30 2060 O 189.394 1.33263 1.1219 0
M  V30 2061 C 186.526 2.67891 2.10826 0
M  V30 2062 H 187.719 2.98128 0.325511 0
M  V30 2063 H 185.272 1.55739 0.132312 0
M  V30 2064 H 186.007 1.87384 2.64685 0
M  V30 2065 H 185.792 3.45823 1.84793 0
M  V30 2066 H 187.282 3.11809 2.77785 0
M  V30 2067 N 187.719 -0.156864 1.56817 0
M  V30 2068 C 188.996 -0.899244 1.73704 0
M  V30 2069 C 189.376 -1.99771 0.682254 0
M  V30 2070 O 188.724 -2.26515 -0.300522 0
M  V30 2071 C 188.934 -1.45075 3.17418 0
M  V30 2072 C 190.282 -1.91802 3.7881 0
M  V30 2073 O 191.306 -1.54838 3.20786 0
M  V30 2074 O 190.165 -2.5994 4.80722 0
M  V30 2075 H 187.259 -0.424267 0.709878 0
M  V30 2076 H 189.805 -0.143561 1.69092 0
M  V30 2077 H 188.577 -0.660846 3.85679 0
M  V30 2078 H 188.2 -2.27021 3.26416 0
M  V30 2079 N 189.197 -1.51736 -0.425897 0
M  V30 2080 C 190.425 -1.68794 -1.1965 0
M  V30 2081 C 190.84 -0.390164 -1.84725 0
M  V30 2082 O 190.197 0.632376 -1.71194 0
M  V30 2083 C 190.248 -2.81174 -2.27208 0
M  V30 2084 O 189.969 -4.05925 -1.64793 0
M  V30 2085 C 191.47 -3.09599 -3.17275 0
M  V30 2086 H 188.69 -0.566128 -0.360194 0
M  V30 2087 H 191.234 -1.98211 -0.503249 0
M  V30 2088 H 189.389 -2.54324 -2.9223 0
M  V30 2089 H 189.803 -4.68423 -2.35967 0
M  V30 2090 H 191.277 -3.91786 -3.88854 0
M  V30 2091 H 191.754 -2.22468 -3.78688 0
M  V30 2092 H 192.36 -3.38151 -2.57941 0
M  V30 2093 N 190.675 0.682077 -1.42076 0
M  V30 2094 C 191.903 1.47057 -1.4554 0
M  V30 2095 C 192.318 1.8869 -0.0645779 0
M  V30 2096 O 191.675 1.57666 0.919115 0
M  V30 2097 C 191.726 2.72442 -2.37609 0
M  V30 2098 O 191.447 2.32559 -3.71279 0
M  V30 2099 C 192.948 3.66069 -2.50017 0
M  V30 2100 H 190.168 0.452737 -0.495248 0
M  V30 2101 H 192.712 0.838695 -1.8651 0
M  V30 2102 H 190.867 3.31835 -1.9991 0
M  V30 2103 H 191.281 3.13475 -4.20516 0
M  V30 2104 H 192.755 4.50792 -3.18576 0
M  V30 2105 H 193.232 4.11476 -1.53572 0
M  V30 2106 H 193.838 3.12572 -2.88407 0
M  V30 2107 N 192.153 1.28127 0.917671 0
M  V30 2108 C 193.083 1.14248 2.03641 0
M  V30 2109 C 194.064 0.0412748 1.7005 0
M  V30 2110 O 195.249 0.217566 1.92977 0
M  V30 2111 C 192.379 0.799431 3.37974 0
M  V30 2112 C 191.333 1.85497 3.85713 0
M  V30 2113 C 190.659 1.36565 5.16966 0
M  V30 2114 C 191.959 3.26085 4.08002 0
M  V30 2115 H 193.653 2.07835 2.15511 0
M  V30 2116 H 191.199 1.00064 1.03553 0
M  V30 2117 H 193.152 0.689114 4.15727 0
M  V30 2118 H 191.876 -0.172145 3.26146 0
M  V30 2119 H 190.535 1.95437 3.10161 0
M  V30 2120 H 190.183 0.383253 5.01538 0
M  V30 2121 H 189.883 2.07143 5.49878 0
M  V30 2122 H 191.407 1.26848 5.97279 0
M  V30 2123 H 192.821 3.19089 4.76293 0
M  V30 2124 H 191.218 3.94462 4.52238 0
M  V30 2125 H 192.288 3.70394 3.12948 0
M  V30 2126 N 193.631 -1.12557 1.10312 0
M  V30 2127 C 194.878 -1.84038 0.844759 0
M  V30 2128 C 195.206 -1.84026 -0.629668 0
M  V30 2129 O 194.461 -1.28026 -1.48013 0
M  V30 2130 C 194.76 -3.31462 1.33669 0
M  V30 2131 C 194.426 -3.51647 2.82232 0
M  V30 2132 C 193.088 -3.56864 3.22802 0
M  V30 2133 C 195.44 -3.58867 3.77974 0
M  V30 2134 C 192.768 -3.66844 4.57867 0
M  V30 2135 C 195.12 -3.70375 5.1284 0
M  V30 2136 C 193.784 -3.73848 5.52986 0
M  V30 2137 H 193.054 -0.673444 0.309119 0
M  V30 2138 H 195.701 -1.32824 1.37949 0
M  V30 2139 H 194.006 -3.85091 0.721949 0
M  V30 2140 H 195.703 -3.85236 1.11329 0
M  V30 2141 H 192.293 -3.48249 2.49842 0
M  V30 2142 H 196.477 -3.54107 3.47738 0
M  V30 2143 H 191.733 -3.67804 4.88396 0
M  V30 2144 H 195.907 -3.74904 5.86873 0
M  V30 2145 H 193.534 -3.81333 6.57639 0
M  V30 2146 N 195.109 -0.891671 -1.2995 0
M  V30 2147 C 196.386 -0.433307 -1.9074 0
M  V30 2148 C 196.766 1.08646 -1.80995 0
M  V30 2149 O 196.114 1.92476 -1.23147 0
M  V30 2150 C 196.324 -0.938895 -3.36134 0
M  V30 2151 C 197.672 -0.977829 -4.13187 0
M  V30 2152 O 198.696 -0.886015 -3.45005 0
M  V30 2153 O 197.555 -1.11453 -5.35015 0
M  V30 2154 H 194.649 -0.133699 -0.816121 0
M  V30 2155 H 197.195 -0.981011 -1.38471 0
M  V30 2156 H 195.967 -1.98281 -3.37343 0
M  V30 2157 H 195.59 -0.37074 -3.95868 0
M  V30 2158 N 196.587 1.43421 -0.653314 0
M  V30 2159 C 197.535 2.32546 0.0501531 0
M  V30 2160 C 198.529 1.48617 0.812985 0
M  V30 2161 O 199.735 1.64825 0.723375 0
M  V30 2162 H 196.11 0.751185 0.0350032 0
M  V30 2163 H 198.081 2.89602 -0.719261 0
M  V30 2164 C 196.83 3.32925 1.00279 0
M  V30 2165 H 196.153 3.97532 0.425236 0
M  V30 2166 H 197.593 3.9792 1.46409 0
M  V30 2167 C 196.052 2.63532 2.09886 0
M  V30 2168 O 196.582 2.45092 3.18265 0
M  V30 2169 N 194.788 2.22905 1.86445 0
M  V30 2170 H 194.335 2.38103 0.98309 0
M  V30 2171 H 194.293 1.76805 2.59976 0
M  V30 2172 N 198.065 0.39524 1.52563 0
M  V30 2173 C 198.975 -0.444232 2.30356 0
M  V30 2174 C 199.991 -1.06615 1.37511 0
M  V30 2175 O 201.167 -1.07067 1.70583 0
M  V30 2176 C 198.232 -1.55315 3.09964 0
M  V30 2177 C 197.293 -0.955734 4.18526 0
M  V30 2178 C 196.526 -2.01181 4.9433 0
M  V30 2179 O 196.749 -3.22781 4.70285 0
M  V30 2180 O 195.683 -1.62579 5.79527 0
M  V30 2181 H 199.509 0.189667 3.03107 0
M  V30 2182 H 197.094 0.1588 1.48554 0
M  V30 2183 H 198.976 -2.19724 3.59582 0
M  V30 2184 H 197.651 -2.17191 2.4002 0
M  V30 2185 H 196.558 -0.274743 3.7309 0
M  V30 2186 H 197.891 -0.381109 4.90722 0
M  V30 2187 N 199.544 -1.57102 0.125237 0
M  V30 2188 C 200.507 -2.14471 -0.80838 0
M  V30 2189 C 201.507 -1.0811 -1.19033 0
M  V30 2190 O 202.697 -1.33856 -1.11482 0
M  V30 2191 C 199.829 -2.69005 -2.09402 0
M  V30 2192 H 201.022 -2.98297 -0.309696 0
M  V30 2193 H 198.575 -1.55807 -0.124051 0
M  V30 2194 H 199.31 -1.88785 -2.63687 0
M  V30 2195 H 199.095 -3.46799 -1.82957 0
M  V30 2196 H 200.585 -3.13278 -2.76128 0
M  V30 2197 N 201.022 0.148545 -1.56898 0
M  V30 2198 C 201.952 1.18524 -2.01182 0
M  V30 2199 C 202.933 1.4489 -0.891123 0
M  V30 2200 O 204.118 1.55836 -1.15882 0
M  V30 2201 C 201.248 2.51879 -2.39112 0
M  V30 2202 C 200.202 2.40038 -3.54353 0
M  V30 2203 C 199.528 3.78089 -3.78091 0
M  V30 2204 C 200.828 1.88577 -4.87069 0
M  V30 2205 H 202.522 0.817029 -2.88036 0
M  V30 2206 H 200.068 0.391575 -1.38574 0
M  V30 2207 H 202.021 3.24627 -2.68692 0
M  V30 2208 H 200.745 2.90532 -1.49193 0
M  V30 2209 H 199.404 1.69742 -3.24936 0
M  V30 2210 H 199.052 4.14175 -2.85426 0
M  V30 2211 H 198.752 3.71028 -4.55645 0
M  V30 2212 H 200.276 4.52387 -4.10095 0
M  V30 2213 H 201.69 2.51117 -5.15377 0
M  V30 2214 H 200.087 1.9241 -5.68417 0
M  V30 2215 H 201.157 0.84136 -4.77545 0
M  V30 2216 N 202.5 1.5196 0.417844 0
M  V30 2217 C 203.432 1.70895 1.52733 0
M  V30 2218 C 204.445 0.589405 1.51756 0
M  V30 2219 O 205.634 0.864312 1.56179 0
M  V30 2220 C 202.734 1.72627 2.91639 0
M  V30 2221 C 201.907 3.01479 3.16905 0
M  V30 2222 C 200.966 2.95139 4.35637 0
M  V30 2223 O 199.992 3.69059 4.3334 0
M  V30 2224 N 201.194 2.12328 5.40275 0
M  V30 2225 H 203.959 2.66612 1.36888 0
M  V30 2226 H 201.52 1.50089 0.607037 0
M  V30 2227 H 203.512 1.65928 3.6912 0
M  V30 2228 H 202.082 0.844216 3.00985 0
M  V30 2229 H 201.302 3.21895 2.27546 0
M  V30 2230 H 202.59 3.86736 3.30625 0
M  V30 2231 H 201.988 1.51685 5.44985 0
M  V30 2232 H 200.545 2.11494 6.16534 0
M  V30 2233 N 203.978 -0.674533 1.42435 0
M  V30 2234 C 205.394 -0.98769 1.25367 0
M  V30 2235 C 205.594 -2.00879 0.158044 0
M  V30 2236 O 204.65 -2.48075 -0.470633 0
M  V30 2237 C 205.963 -1.49224 2.6106 0
M  V30 2238 C 207.511 -1.61 2.68417 0
M  V30 2239 C 207.986 -2.14852 4.04478 0
M  V30 2240 N 209.477 -2.22185 4.06434 0
M  V30 2241 C 210.212 -2.64928 5.08528 0
M  V30 2242 N 209.708 -3.07121 6.21006 0
M  V30 2243 N 211.501 -2.64679 4.95885 0
M  V30 2244 H 203.652 0.00152503 2.124 0
M  V30 2245 H 205.915 -0.0618434 0.945981 0
M  V30 2246 H 205.621 -0.816453 3.42092 0
M  V30 2247 H 205.495 -2.47094 2.84999 0
M  V30 2248 H 207.882 -2.27686 1.87732 0
M  V30 2249 H 207.963 -0.616195 2.48267 0
M  V30 2250 H 207.607 -1.48775 4.85622 0
M  V30 2251 H 207.537 -3.15024 4.2198 0
M  V30 2252 H 210.028 -1.92435 3.25234 0
M  V30 2253 H 210.341 -3.38423 6.94759 0
M  V30 2254 H 208.686 -3.04978 6.24511 0
M  V30 2255 H 211.877 -2.31078 4.07088 0
M  V30 2256 H 212.05 -2.9767 5.75584 0
M  V30 2257 N 205.456 -1.28612 -0.910864 0
M  V30 2258 C 206.366 -1.14643 -2.0468 0
M  V30 2259 C 207.382 -0.0723121 -1.7385 0
M  V30 2260 O 208.558 -0.282178 -1.99413 0
M  V30 2261 C 205.623 -0.812561 -3.37044 0
M  V30 2262 C 204.684 -1.96935 -3.81465 0
M  V30 2263 C 203.917 -1.65131 -5.07511 0
M  V30 2264 O 204.14 -0.567013 -5.67575 0
M  V30 2265 O 203.074 -2.49585 -5.47714 0
M  V30 2266 H 206.9 -2.1001 -2.19384 0
M  V30 2267 H 204.485 -1.07958 -1.03274 0
M  V30 2268 H 206.367 -0.640441 -4.16505 0
M  V30 2269 H 205.042 0.111426 -3.23508 0
M  V30 2270 H 203.949 -2.19664 -3.02818 0
M  V30 2271 H 205.282 -2.87414 -3.99567 0
M  V30 2272 N 206.934 1.1197 -1.10907 0
M  V30 2273 C 207.881 2.17846 -0.762345 0
M  V30 2274 C 208.851 1.63995 0.263599 0
M  V30 2275 O 210.036 1.90273 0.141773 0
M  V30 2276 C 207.176 3.44487 -0.205651 0
M  V30 2277 C 206.289 4.12369 -1.28748 0
M  V30 2278 C 205.424 5.26674 -0.691919 0
M  V30 2279 C 204.463 5.86431 -1.75399 0
M  V30 2280 N 203.6 6.92142 -1.17833 0
M  V30 2281 H 208.44 2.46851 -1.6694 0
M  V30 2282 H 205.977 1.21188 -0.833776 0
M  V30 2283 H 207.935 4.16981 0.135037 0
M  V30 2284 H 206.565 3.15884 0.664613 0
M  V30 2285 H 205.617 3.38003 -1.74522 0
M  V30 2286 H 206.929 4.52844 -2.09125 0
M  V30 2287 H 206.083 6.05953 -0.300963 0
M  V30 2288 H 204.822 4.8749 0.143232 0
M  V30 2289 H 203.827 5.05835 -2.15432 0
M  V30 2290 H 205.052 6.27685 -2.59208 0
M  V30 2291 H 202.998 6.54985 -0.364725 0
M  V30 2292 H 202.915 7.31242 -1.91887 0
M  V30 2293 H 204.183 7.75237 -0.81408 0
M  V30 2294 N 208.412 0.89855 1.29475 0
M  V30 2295 C 209.661 0.519863 1.94885 0
M  V30 2296 C 209.974 -0.9383 1.71625 0
M  V30 2297 O 211.18 -1.42445 2.31131 0
M  V30 2298 C 209.636 0.878836 3.49005 0
M  V30 2299 C 209.244 2.35569 3.81066 0
M  V30 2300 C 210.988 0.570004 4.20656 0
M  V30 2301 C 208.895 2.65558 5.28425 0
M  V30 2302 H 207.825 0.190692 0.729488 0
M  V30 2303 H 210.476 1.09539 1.47219 0
M  V30 2304 H 208.858 0.232253 3.95318 0
M  V30 2305 H 210.032 3.04773 3.45616 0
M  V30 2306 H 208.347 2.63343 3.22552 0
M  V30 2307 H 210.944 0.770925 5.29113 0
M  V30 2308 H 211.287 -0.491404 4.1339 0
M  V30 2309 H 211.82 1.17438 3.8007 0
M  V30 2310 H 208.559 3.70493 5.40754 0
M  V30 2311 H 208.079 2.00977 5.65127 0
M  V30 2312 H 209.758 2.51765 5.96006 0
M  V30 2313 N 209.89 -1.43072 0.660911 0
M  V30 2314 C 210.837 -2.30785 -0.0259884 0
M  V30 2315 C 211.807 -1.45184 -0.806888 0
M  V30 2316 O 212.992 -1.74041 -0.781943 0
M  V30 2317 C 210.132 -3.30861 -0.981067 0
M  V30 2318 C 209.245 -4.31558 -0.195458 0
M  V30 2319 C 208.38 -5.18712 -1.14503 0
M  V30 2320 C 207.419 -6.11097 -0.350299 0
M  V30 2321 N 206.556 -6.90849 -1.25186 0
M  V30 2322 H 211.396 -2.88975 0.727846 0
M  V30 2323 H 208.933 -1.42353 0.370682 0
M  V30 2324 H 210.891 -3.87399 -1.54849 0
M  V30 2325 H 209.521 -2.74304 -1.70169 0
M  V30 2326 H 208.573 -3.77252 0.488374 0
M  V30 2327 H 209.885 -4.9701 0.422176 0
M  V30 2328 H 209.039 -5.79914 -1.78284 0
M  V30 2329 H 207.778 -4.53404 -1.79656 0
M  V30 2330 H 206.783 -5.48976 0.300808 0
M  V30 2331 H 208.008 -6.7845 0.296941 0
M  V30 2332 H 205.954 -6.28182 -1.89005 0
M  V30 2333 H 205.871 -7.52854 -0.688971 0
M  V30 2334 H 207.139 -7.5655 -1.87757 0
M  V30 2335 N 211.368 -0.403325 -1.52352 0
M  V30 2336 C 212.298 0.416205 -2.29761 0
M  V30 2337 C 213.279 1.05123 -1.33728 0
M  V30 2338 O 214.464 1.06134 -1.62632 0
M  V30 2339 C 211.594 1.53624 -3.11475 0
M  V30 2340 C 210.548 1.02653 -4.15507 0
M  V30 2341 C 209.874 2.23971 -4.85532 0
M  V30 2342 C 211.174 0.08463 -5.22231 0
M  V30 2343 H 212.868 -0.229701 -2.98518 0
M  V30 2344 H 210.414 -0.111913 -1.43564 0
M  V30 2345 H 212.367 2.1165 -3.64393 0
M  V30 2346 H 211.091 2.20994 -2.40477 0
M  V30 2347 H 209.75 0.46871 -3.63591 0
M  V30 2348 H 209.398 2.89883 -4.11068 0
M  V30 2349 H 209.098 1.90521 -5.55856 0
M  V30 2350 H 210.622 2.82614 -5.41259 0
M  V30 2351 H 212.036 0.573509 -5.70424 0
M  V30 2352 H 210.433 -0.160783 -5.99885 0
M  V30 2353 H 211.503 -0.86237 -4.7717 0
M  V30 2354 N 212.846 1.57033 -0.133567 0
M  V30 2355 C 214.095 1.94861 0.520768 0
M  V30 2356 C 214.408 1.02012 1.66892 0
M  V30 2357 O 215.614 1.29365 2.38699 0
M  V30 2358 C 214.07 3.46362 0.977809 0
M  V30 2359 C 213.678 4.47773 -0.142674 0
M  V30 2360 C 215.422 3.93083 1.60269 0
M  V30 2361 C 213.329 5.90468 0.331883 0
M  V30 2362 H 212.259 0.727453 0.198315 0
M  V30 2363 H 214.91 1.82227 -0.215759 0
M  V30 2364 H 213.292 3.54282 1.7692 0
M  V30 2365 H 214.466 4.51536 -0.919317 0
M  V30 2366 H 212.781 4.10891 -0.675124 0
M  V30 2367 H 215.378 4.97121 1.96914 0
M  V30 2368 H 215.721 3.33876 2.48662 0
M  V30 2369 H 216.254 3.88025 0.876453 0
M  V30 2370 H 212.993 6.53463 -0.516341 0
M  V30 2371 H 212.513 5.90094 1.07469 0
M  V30 2372 H 214.192 6.42179 0.788332 0
M  V30 2373 N 214.325 -0.140222 1.56975 0
M  V30 2374 C 215.257 -1.19818 1.95388 0
M  V30 2375 C 216.27 -1.38816 0.850525 0
M  V30 2376 O 217.459 -1.38267 1.12891 0
M  V30 2377 C 214.559 -2.56189 2.21857 0
M  V30 2378 C 213.732 -2.58077 3.5315 0
M  V30 2379 C 212.791 -3.76037 3.6808 0
M  V30 2380 O 211.817 -3.60598 4.40406 0
M  V30 2381 N 213.019 -4.93763 3.05251 0
M  V30 2382 H 215.784 -0.871609 2.86746 0
M  V30 2383 H 213.345 -0.32972 1.58507 0
M  V30 2384 H 215.337 -3.33623 2.2908 0
M  V30 2385 H 213.907 -2.81111 1.36731 0
M  V30 2386 H 213.127 -1.6651 3.57307 0
M  V30 2387 H 214.415 -2.56377 4.39486 0
M  V30 2388 H 213.813 -5.09209 2.46419 0
M  V30 2389 H 212.37 -5.68949 3.18026 0
M  V30 2390 N 215.803 -1.52179 -0.40978 0
M  V30 2391 C 217.031 -1.70054 -1.17853 0
M  V30 2392 C 217.446 -0.409735 -1.843 0
M  V30 2393 O 216.803 0.614183 -1.71855 0
M  V30 2394 C 216.854 -2.83568 -2.24213 0
M  V30 2395 O 216.575 -4.0765 -1.60478 0
M  V30 2396 C 218.076 -3.12947 -3.13973 0
M  V30 2397 H 215.296 -0.569917 -0.354169 0
M  V30 2398 H 217.84 -1.98734 -0.482198 0
M  V30 2399 H 215.995 -2.57409 -2.89516 0
M  V30 2400 H 216.409 -4.70899 -2.30986 0
M  V30 2401 H 217.883 -3.95889 -3.84677 0
M  V30 2402 H 218.36 -2.26472 -3.76307 0
M  V30 2403 H 218.966 -3.40868 -2.5434 0
M  V30 2404 N 217.281 0.66697 -1.42791 0
M  V30 2405 C 218.692 1.2478 -1.38877 0
M  V30 2406 C 219.043 1.96012 -0.0859426 0
M  V30 2407 O 218.168 2.00463 0.815081 0
M  V30 2408 C 218.763 2.26938 -2.51564 0
M  V30 2409 C 217.322 2.80529 -2.50959 0
M  V30 2410 C 216.469 1.54965 -2.29959 0
M  V30 2411 H 219.42 0.459853 -1.51892 0
M  V30 2412 H 219.441 3.08834 -2.22265 0
M  V30 2413 H 218.953 1.75065 -3.46372 0
M  V30 2414 H 217.054 3.36502 -1.59991 0
M  V30 2415 H 217.167 3.29012 -3.48265 0
M  V30 2416 H 215.531 1.81817 -1.78366 0
M  V30 2417 H 216.314 1.05047 -3.26833 0
M  V30 2418 N 218.759 1.29093 0.90403 0
M  V30 2419 C 219.691 1.09658 2.01266 0
M  V30 2420 C 220.704 0.0453729 1.62737 0
M  V30 2421 O 221.893 0.289446 1.76138 0
M  V30 2422 C 218.993 0.646278 3.32681 0
M  V30 2423 C 218.166 1.77505 3.99763 0
M  V30 2424 C 217.225 1.31649 5.09465 0
M  V30 2425 O 216.251 2.02045 5.32134 0
M  V30 2426 N 217.453 0.184997 5.80205 0
M  V30 2427 H 220.218 2.05135 2.18494 0
M  V30 2428 H 217.779 1.20975 1.07594 0
M  V30 2429 H 219.771 0.322906 4.0341 0
M  V30 2430 H 218.341 -0.215916 3.11853 0
M  V30 2431 H 217.561 2.26752 3.22455 0
M  V30 2432 H 218.849 2.53198 4.41325 0
M  V30 2433 H 218.247 -0.402021 5.6427 0
M  V30 2434 H 216.804 -0.0790358 6.51752 0
M  V30 2435 N 220.237 -1.11381 1.11499 0
M  V30 2436 C 221.486 -1.82494 0.858993 0
M  V30 2437 C 221.799 -1.85605 -0.617278 0
M  V30 2438 O 223.005 -2.52824 -0.989552 0
M  V30 2439 C 221.461 -3.27745 1.48699 0
M  V30 2440 C 221.069 -3.32961 2.99735 0
M  V30 2441 C 222.813 -4.03754 1.31085 0
M  V30 2442 C 220.72 -4.72612 3.55516 0
M  V30 2443 H 219.65 -0.683802 0.317696 0
M  V30 2444 H 222.301 -1.25331 1.34031 0
M  V30 2445 H 220.683 -3.84844 0.933339 0
M  V30 2446 H 221.857 -2.85741 3.61509 0
M  V30 2447 H 220.172 -2.70433 3.16631 0
M  V30 2448 H 222.769 -5.06891 1.70192 0
M  V30 2449 H 223.112 -4.15527 0.253496 0
M  V30 2450 H 223.645 -3.53043 1.83318 0
M  V30 2451 H 220.384 -4.66036 4.60967 0
M  V30 2452 H 219.904 -5.2024 2.98513 0
M  V30 2453 H 221.583 -5.4157 3.53992 0
M  V30 2454 N 221.715 -0.905404 -1.28997 0
M  V30 2455 C 222.94 -0.549175 -1.99997 0
M  V30 2456 C 223.365 0.860276 -1.67275 0
M  V30 2457 O 222.723 1.57355 -0.900502 0
M  V30 2458 C 222.771 -0.755185 -3.52604 0
M  V30 2459 O 221.875 0.189692 -4.11964 0
M  V30 2460 H 221.216 -0.213899 -0.628604 0
M  V30 2461 H 223.746 -1.21856 -1.64354 0
M  V30 2462 H 223.756 -0.662045 -4.02593 0
M  V30 2463 H 222.431 -1.78271 -3.75755 0
M  V30 2464 H 221.008 0.0485257 -3.72868 0
M  V30 2465 N 223.193 1.4272 -0.668489 0
M  V30 2466 C 224.14 2.30796 0.0137489 0
M  V30 2467 C 225.11 1.4561 0.799177 0
M  V30 2468 O 226.295 1.74453 0.772702 0
M  V30 2469 C 223.435 3.31377 0.963507 0
M  V30 2470 C 222.548 4.31655 0.172569 0
M  V30 2471 C 221.683 5.19312 1.1175 0
M  V30 2472 C 220.722 6.11274 0.317886 0
M  V30 2473 N 219.859 6.91504 1.2152 0
M  V30 2474 H 224.699 2.88585 -0.743161 0
M  V30 2475 H 222.236 1.42154 -0.378226 0
M  V30 2476 H 224.194 3.88214 1.52792 0
M  V30 2477 H 222.824 2.75202 1.68712 0
M  V30 2478 H 221.876 3.76988 -0.508374 0
M  V30 2479 H 223.188 4.96779 -0.448527 0
M  V30 2480 H 222.342 5.80851 1.75206 0
M  V30 2481 H 221.081 4.5435 1.77249 0
M  V30 2482 H 220.086 5.48809 -0.329918 0
M  V30 2483 H 221.311 6.78283 -0.332917 0
M  V30 2484 H 219.257 6.29176 1.85671 0
M  V30 2485 H 219.174 7.53209 0.649036 0
M  V30 2486 H 220.442 7.57535 1.83742 0
M  V30 2487 N 224.671 0.411399 1.52136 0
M  V30 2488 C 225.899 -0.163076 2.06256 0
M  V30 2489 C 226.314 -1.3867 1.28125 0
M  V30 2490 O 225.671 -1.79423 0.333721 0
M  V30 2491 C 225.722 -0.511252 3.57867 0
M  V30 2492 O 225.443 0.66378 4.33042 0
M  V30 2493 C 226.944 -1.13921 4.28412 0
M  V30 2494 H 224.164 -0.0193897 0.67072 0
M  V30 2495 H 226.708 0.583007 1.96013 0
M  V30 2496 H 224.863 -1.20723 3.6811 0
M  V30 2497 H 225.277 0.372601 5.23175 0
M  V30 2498 H 226.751 -1.33302 5.35663 0
M  V30 2499 H 227.228 -2.11296 3.85033 0
M  V30 2500 H 227.834 -0.483373 4.22544 0
M  V30 2501 N 226.149 -1.5696 0.141893 0
M  V30 2502 C 227.096 -2.16501 -0.799737 0
M  V30 2503 C 228.066 -1.09643 -1.24771 0
M  V30 2504 O 229.251 -1.3766 -1.32115 0
M  V30 2505 C 226.391 -2.78679 -2.03549 0
M  V30 2506 C 225.504 -3.99914 -1.6338 0
M  V30 2507 C 224.639 -4.50106 -2.82096 0
M  V30 2508 C 223.678 -5.63819 -2.38275 0
M  V30 2509 N 222.815 -6.08651 -3.49983 0
M  V30 2510 H 227.655 -2.96632 -0.285179 0
M  V30 2511 H 225.192 -1.46533 -0.129053 0
M  V30 2512 H 227.15 -3.1287 -2.75986 0
M  V30 2513 H 225.78 -2.012 -2.52425 0
M  V30 2514 H 224.832 -3.71735 -0.807279 0
M  V30 2515 H 226.144 -4.82311 -1.27192 0
M  V30 2516 H 225.298 -4.86325 -3.62729 0
M  V30 2517 H 224.037 -3.66706 -3.21525 0
M  V30 2518 H 223.042 -5.2718 -1.56081 0
M  V30 2519 H 224.267 -6.49 -1.99938 0
M  V30 2520 H 222.213 -5.28188 -3.89042 0
M  V30 2521 H 222.13 -6.85961 -3.17794 0
M  V30 2522 H 223.398 -6.49515 -4.30988 0
M  V30 2523 N 227.627 0.131896 -1.57047 0
M  V30 2524 C 228.557 1.16384 -2.02428 0
M  V30 2525 C 229.538 1.43936 -0.90644 0
M  V30 2526 O 230.723 1.54599 -1.17528 0
M  V30 2527 C 227.853 2.49328 -2.4177 0
M  V30 2528 C 226.807 2.36266 -3.56879 0
M  V30 2529 C 226.133 3.74057 -3.8208 0
M  V30 2530 C 227.433 1.834 -4.89042 0
M  V30 2531 H 229.127 0.786433 -2.88887 0
M  V30 2532 H 226.673 0.376855 -1.38981 0
M  V30 2533 H 228.626 3.21759 -2.7212 0
M  V30 2534 H 227.35 2.88934 -1.52266 0
M  V30 2535 H 226.009 1.66286 -3.26718 0
M  V30 2536 H 225.657 4.11125 -2.89803 0
M  V30 2537 H 225.357 3.66174 -4.59554 0
M  V30 2538 H 226.881 4.48012 -4.1487 0
M  V30 2539 H 228.295 2.45636 -5.18011 0
M  V30 2540 H 226.692 1.8637 -5.70426 0
M  V30 2541 H 227.762 0.790662 -4.7841 0
M  V30 2542 N 229.106 1.52395 0.401703 0
M  V30 2543 C 230.036 1.79231 1.49661 0
M  V30 2544 C 231.017 0.643654 1.57452 0
M  V30 2545 O 232.202 0.889989 1.72606 0
M  V30 2546 C 229.332 1.94971 2.87409 0
M  V30 2547 C 228.286 3.10604 2.94465 0
M  V30 2548 C 227.612 3.11577 4.34538 0
M  V30 2549 C 228.912 4.49921 2.6527 0
M  V30 2550 H 230.606 2.70917 1.27454 0
M  V30 2551 H 228.152 1.30362 0.6117 0
M  V30 2552 H 230.105 2.12328 3.63999 0
M  V30 2553 H 228.829 0.999632 3.10926 0
M  V30 2554 H 227.488 2.93009 2.20321 0
M  V30 2555 H 227.136 2.14277 4.55076 0
M  V30 2556 H 226.836 3.89247 4.40183 0
M  V30 2557 H 228.36 3.31073 5.13053 0
M  V30 2558 H 229.774 4.67683 3.31581 0
M  V30 2559 H 228.171 5.29564 2.82281 0
M  V30 2560 H 229.241 4.57507 1.60671 0
M  V30 2561 N 230.584 -0.659388 1.43143 0
M  V30 2562 C 231.531 -1.77249 1.47822 0
M  V30 2563 C 232.501 -1.62818 0.328558 0
M  V30 2564 O 233.686 -1.83151 0.534838 0
M  V30 2565 C 230.826 -3.15371 1.40126 0
M  V30 2566 C 229.939 -3.4098 2.65249 0
M  V30 2567 C 229.074 -4.68915 2.49584 0
M  V30 2568 C 228.113 -4.87608 3.70006 0
M  V30 2569 N 227.25 -6.06796 3.53189 0
M  V30 2570 H 232.09 -1.72584 2.42938 0
M  V30 2571 H 229.627 -0.842297 1.20598 0
M  V30 2572 H 231.585 -3.9521 1.33659 0
M  V30 2573 H 230.215 -3.19121 0.485964 0
M  V30 2574 H 229.267 -2.55282 2.8202 0
M  V30 2575 H 230.579 -3.50681 3.54717 0
M  V30 2576 H 229.733 -5.56871 2.4079 0
M  V30 2577 H 228.472 -4.61524 1.5763 0
M  V30 2578 H 227.477 -3.9809 3.79215 0
M  V30 2579 H 228.702 -4.96834 4.62961 0
M  V30 2580 H 226.648 -6.00549 2.63965 0
M  V30 2581 H 226.565 -6.17428 4.36255 0
M  V30 2582 H 227.833 -6.9739 3.48236 0
M  V30 2583 N 232.062 -1.29571 -0.897171 0
M  V30 2584 C 233.009 -1.14916 -2.00158 0
M  V30 2585 C 233.979 -0.0418149 -1.66047 0
M  V30 2586 O 235.164 -0.209793 -1.89643 0
M  V30 2587 C 232.304 -0.834307 -3.34863 0
M  V30 2588 C 231.417 -2.02234 -3.8174 0
M  V30 2589 C 230.552 -1.64664 -5.05034 0
M  V30 2590 C 229.591 -2.80033 -5.44286 0
M  V30 2591 N 228.728 -2.42843 -6.58765 0
M  V30 2592 H 233.568 -2.09403 -2.12025 0
M  V30 2593 H 231.105 -1.042 -1.0383 0
M  V30 2594 H 233.063 -0.632436 -4.12379 0
M  V30 2595 H 231.693 0.0736656 -3.22716 0
M  V30 2596 H 230.745 -2.33583 -3.00238 0
M  V30 2597 H 232.057 -2.88673 -4.06779 0
M  V30 2598 H 231.211 -1.4078 -5.9014 0
M  V30 2599 H 229.95 -0.753766 -4.8184 0
M  V30 2600 H 228.955 -3.04596 -4.57713 0
M  V30 2601 H 230.18 -3.69989 -5.6946 0
M  V30 2602 H 228.126 -1.56046 -6.3717 0
M  V30 2603 H 228.043 -3.22815 -6.83613 0
M  V30 2604 H 229.311 -2.22285 -7.47134 0
M  V30 2605 N 233.54 1.10788 -1.12088 0
M  V30 2606 C 234.503 2.15207 -0.788577 0
M  V30 2607 C 235.503 1.59609 0.195317 0
M  V30 2608 O 236.693 1.74174 -0.0300193 0
M  V30 2609 C 233.825 3.4047 -0.171174 0
M  V30 2610 H 235.018 2.46116 -1.71368 0
M  V30 2611 H 232.571 1.26089 -0.923652 0
M  V30 2612 H 233.306 3.15176 0.763832 0
M  V30 2613 H 233.091 3.82109 -0.879514 0
M  V30 2614 H 234.581 4.17576 0.04496 0
M  V30 2615 N 235.018 0.912232 1.28515 0
M  V30 2616 C 235.948 0.416403 2.29757 0
M  V30 2617 C 236.929 -0.515194 1.6211 0
M  V30 2618 O 238.114 -0.423253 1.89532 0
M  V30 2619 C 235.244 -0.34572 3.45575 0
M  V30 2620 C 234.198 0.496599 4.25109 0
M  V30 2621 C 233.524 -0.393771 5.33248 0
M  V30 2622 C 234.824 1.75307 4.92001 0
M  V30 2623 H 236.518 1.26249 2.7148 0
M  V30 2624 H 234.064 0.608515 1.30511 0
M  V30 2625 H 236.017 -0.703422 4.15488 0
M  V30 2626 H 234.741 -1.2257 3.02728 0
M  V30 2627 H 233.4 0.8368 3.56922 0
M  V30 2628 H 233.048 -1.27225 4.86644 0
M  V30 2629 H 232.748 0.166209 5.87365 0
M  V30 2630 H 234.272 -0.747389 6.06009 0
M  V30 2631 H 235.686 1.46437 5.54283 0
M  V30 2632 H 234.083 2.25534 5.56106 0
M  V30 2633 H 235.153 2.48176 4.16577 0
M  V30 2634 N 236.496 -1.42363 0.676048 0
M  V30 2635 C 237.773 -1.95183 0.127726 0
M  V30 2636 C 238.153 -1.61641 -1.35777 0
M  V30 2637 O 237.501 -0.913216 -2.09458 0
M  V30 2638 C 237.711 -3.46721 0.398199 0
M  V30 2639 C 239.059 -4.23427 0.315383 0
M  V30 2640 O 240.083 -3.54649 0.332016 0
M  V30 2641 O 238.942 -5.45888 0.25865 0
M  V30 2642 H 236.036 -0.826992 0.00359427 0
M  V30 2643 H 238.582 -1.52184 0.750864 0
M  V30 2644 H 237.354 -3.64344 1.4272 0
M  V30 2645 H 236.977 -3.96769 -0.256885 0
M  V30 2646 N 237.974 -0.419461 -1.51915 0
M  V30 2647 C 238.906 0.43646 -2.25006 0
M  V30 2648 C 239.919 1.00149 -1.28351 0
M  V30 2649 O 241.108 0.898674 -1.54227 0
M  V30 2650 C 238.208 1.6206 -2.9764 0
M  V30 2651 C 237.381 1.17763 -4.21249 0
M  V30 2652 C 236.44 2.22985 -4.76617 0
M  V30 2653 O 235.466 1.83151 -5.38929 0
M  V30 2654 N 236.668 3.55271 -4.59089 0
M  V30 2655 H 239.433 -0.18989 -2.99098 0
M  V30 2656 H 236.994 -0.247386 -1.59999 0
M  V30 2657 H 238.986 2.32038 -3.31573 0
M  V30 2658 H 237.556 2.15266 -2.2667 0
M  V30 2659 H 236.776 0.305582 -3.93014 0
M  V30 2660 H 238.064 0.858781 -5.015 0
M  V30 2661 H 237.462 3.90377 -4.09417 0
M  V30 2662 H 236.019 4.21195 -4.97432 0
M  V30 2663 N 239.452 1.56882 -0.150215 0
M  V30 2664 C 240.4 2.18214 0.805313 0
M  V30 2665 C 241.394 1.14006 1.25296 0
M  V30 2666 O 242.6 1.3225 1.22107 0
M  V30 2667 H 238.975 0.698762 0.277913 0
M  V30 2668 H 240.946 2.97231 0.263862 0
M  V30 2669 C 239.695 2.82065 2.03309 0
M  V30 2670 H 239.018 3.61968 1.69763 0
M  V30 2671 H 240.458 3.28477 2.68103 0
M  V30 2672 C 238.917 1.80739 2.84315 0
M  V30 2673 O 239.447 1.27983 3.80767 0
M  V30 2674 N 237.653 1.4997 2.48913 0
M  V30 2675 H 237.2 1.93062 1.70542 0
M  V30 2676 H 237.158 0.824217 3.03404 0
M  V30 2677 N 240.93 -0.123565 1.57115 0
M  V30 2678 C 241.86 -1.15309 2.03042 0
M  V30 2679 C 242.841 -1.43454 0.914061 0
M  V30 2680 O 244.026 -1.53973 1.18347 0
M  V30 2681 C 241.156 -2.48043 2.43089 0
M  V30 2682 C 240.11 -2.3437 3.58127 0
M  V30 2683 C 239.436 -3.72026 3.84059 0
M  V30 2684 C 240.736 -1.80804 4.90007 0
M  V30 2685 H 242.43 -0.771102 2.893 0
M  V30 2686 H 239.976 -0.369479 1.39179 0
M  V30 2687 H 241.929 -3.20311 2.73823 0
M  V30 2688 H 240.653 -2.88122 1.53796 0
M  V30 2689 H 239.312 -1.64551 3.27595 0
M  V30 2690 H 238.96 -4.09582 2.91979 0
M  V30 2691 H 238.66 -3.63732 4.6149 0
M  V30 2692 H 240.184 -4.45806 4.1724 0
M  V30 2693 H 241.598 -2.42886 5.19307 0
M  V30 2694 H 239.995 -1.83343 5.71407 0
M  V30 2695 H 241.065 -0.76528 4.78823 0
M  V30 2696 N 242.408 -1.52605 -0.393616 0
M  V30 2697 C 243.318 -1.79971 -1.50492 0
M  V30 2698 C 244.334 -0.686181 -1.59899 0
M  V30 2699 O 245.51 -0.973274 -1.76322 0
M  V30 2700 C 242.575 -1.95867 -2.86072 0
M  V30 2701 C 241.636 -3.19781 -2.86424 0
M  V30 2702 C 240.869 -3.34909 -4.15538 0
M  V30 2703 O 241.092 -2.54948 -5.10253 0
M  V30 2704 O 240.026 -4.28141 -4.23059 0
M  V30 2705 H 243.852 -2.74328 -1.30299 0
M  V30 2706 H 241.437 -1.3764 -0.581005 0
M  V30 2707 H 243.319 -2.08056 -3.66457 0
M  V30 2708 H 241.994 -1.04699 -3.063 0
M  V30 2709 H 240.901 -3.13038 -2.04837 0
M  V30 2710 H 242.234 -4.1078 -2.71147 0
M  V30 2711 N 243.887 0.651787 -1.4349 0
M  V30 2712 C 245.134 1.41167 -1.45183 0
M  V30 2713 C 245.462 1.94349 -0.0766601 0
M  V30 2714 O 244.717 1.72804 0.918555 0
M  V30 2715 C 245.016 2.60914 -2.44251 0
M  V30 2716 C 244.682 2.26142 -3.9009 0
M  V30 2717 C 243.344 2.16371 -4.2981 0
M  V30 2718 C 245.696 1.98334 -4.81989 0
M  V30 2719 C 243.024 1.7695 -5.5938 0
M  V30 2720 C 245.376 1.6041 -6.11924 0
M  V30 2721 C 244.04 1.49166 -6.5062 0
M  V30 2722 H 243.31 0.516566 -0.531263 0
M  V30 2723 H 245.957 0.741099 -1.76579 0
M  V30 2724 H 244.262 3.3311 -2.06265 0
M  V30 2725 H 245.959 3.19127 -2.42815 0
M  V30 2726 H 242.549 2.34658 -3.58655 0
M  V30 2727 H 246.733 2.04803 -4.52072 0
M  V30 2728 H 241.989 1.66831 -5.88198 0
M  V30 2729 H 246.163 1.37925 -6.82605 0
M  V30 2730 H 243.79 1.1839 -7.50925 0
M  V30 2731 N 245.365 1.30045 0.890287 0
M  V30 2732 C 246.593 1.21472 1.67487 0
M  V30 2733 C 247.008 -0.223241 1.87476 0
M  V30 2734 O 246.365 -1.14828 1.41847 0
M  V30 2735 C 246.416 1.93394 3.05419 0
M  V30 2736 O 246.137 3.31576 2.86337 0
M  V30 2737 C 247.638 1.91414 3.99844 0
M  V30 2738 H 244.858 0.420604 0.522813 0
M  V30 2739 H 247.402 1.7158 1.11268 0
M  V30 2740 H 245.557 1.47099 3.58386 0
M  V30 2741 H 245.971 3.67929 3.73802 0
M  V30 2742 H 247.445 2.46285 4.94012 0
M  V30 2743 H 247.922 0.891833 4.3005 0
M  V30 2744 H 248.528 2.37496 3.52811 0
M  V30 2745 N 246.843 -1.10192 1.12674 0
M  V30 2746 C 248.12 -1.78717 0.794965 0
M  V30 2747 C 248.5 -1.98628 -0.714853 0
M  V30 2748 O 247.848 -1.58135 -1.64941 0
M  V30 2749 C 248.058 -3.11546 1.5729 0
M  V30 2750 C 249.406 -3.86382 1.76052 0
M  V30 2751 O 250.43 -3.21274 1.53823 0
M  V30 2752 O 249.289 -5.03246 2.13087 0
M  V30 2753 H 246.383 -0.774702 0.289423 0
M  V30 2754 H 248.929 -1.16819 1.23091 0
M  V30 2755 H 247.701 -2.92489 2.59935 0
M  V30 2756 H 247.324 -3.81164 1.13137 0
M  V30 2757 N 248.321 -0.919034 -1.28029 0
M  V30 2758 C 249.598 -0.473668 -1.89778 0
M  V30 2759 C 249.978 1.04783 -1.83259 0
M  V30 2760 O 249.326 1.8982 -1.27202 0
M  V30 2761 C 249.536 -1.00998 -3.34066 0
M  V30 2762 C 250.884 -1.06525 -4.1102 0
M  V30 2763 O 251.908 -0.958996 -3.43048 0
M  V30 2764 O 250.767 -1.22776 -5.3253 0
M  V30 2765 H 247.861 -0.15098 -0.813101 0
M  V30 2766 H 250.407 -1.01016 -1.36359 0
M  V30 2767 H 249.179 -2.05392 -3.33061 0
M  V30 2768 H 248.802 -0.454626 -3.94992 0
M  V30 2769 N 249.799 1.42003 -0.683588 0
M  V30 2770 C 251.024 2.06265 -0.216647 0
M  V30 2771 C 251.449 1.51059 1.12083 0
M  V30 2772 O 250.807 0.632638 1.69904 0
M  V30 2773 C 250.855 3.60191 -0.171759 0
M  V30 2774 O 249.959 4.03396 0.857069 0
M  V30 2775 H 249.3 0.65502 -0.108834 0
M  V30 2776 H 251.83 1.81982 -0.935077 0
M  V30 2777 H 251.84 4.08 0.0014303 0
M  V30 2778 H 250.515 3.99743 -1.14796 0
M  V30 2779 H 249.092 3.67117 0.654208 0
M  V30 2780 N 251.277 0.427512 1.51691 0
M  V30 2781 C 252.505 -0.141191 2.06418 0
M  V30 2782 C 252.92 -1.37303 1.29589 0
M  V30 2783 O 252.277 -1.79059 0.352732 0
M  V30 2784 C 252.328 -0.473266 3.58389 0
M  V30 2785 O 252.049 0.709673 4.32314 0
M  V30 2786 C 253.55 -1.09371 4.29596 0
M  V30 2787 H 250.77 -0.0122747 0.670888 0
M  V30 2788 H 253.314 0.603764 1.95384 0
M  V30 2789 H 251.469 -1.16812 3.69369 0
M  V30 2790 H 251.883 0.42807 5.2275 0
M  V30 2791 H 253.357 -1.27613 5.37046 0
M  V30 2792 H 253.834 -2.072 3.87253 0
M  V30 2793 H 254.44 -0.43853 4.23033 0
M  V30 2794 N 252.755 -1.56801 0.158532 0
M  V30 2795 C 253.718 -2.16138 -0.762705 0
M  V30 2796 C 254.718 -1.1061 -1.16713 0
M  V30 2797 O 255.908 -1.36191 -1.08617 0
M  V30 2798 C 253.04 -2.73386 -2.03649 0
M  V30 2799 H 254.233 -2.98886 -0.246354 0
M  V30 2800 H 251.786 -1.56035 -0.0909744 0
M  V30 2801 H 252.521 -1.94335 -2.59623 0
M  V30 2802 H 252.306 -3.50601 -1.75559 0
M  V30 2803 H 253.796 -3.19065 -2.6942 0
M  V30 2804 N 254.233 0.115231 -1.57178 0
M  V30 2805 C 255.482 0.820945 -1.84237 0
M  V30 2806 C 255.795 1.80866 -0.744761 0
M  V30 2807 O 257.001 2.56083 -0.901871 0
M  V30 2808 C 255.457 1.51072 -3.26658 0
M  V30 2809 C 255.065 0.563795 -4.44438 0
M  V30 2810 C 256.809 2.20134 -3.62962 0
M  V30 2811 C 254.716 1.25701 -5.77887 0
M  V30 2812 H 253.646 0.310328 -0.687177 0
M  V30 2813 H 256.297 0.0737134 -1.83352 0
M  V30 2814 H 254.679 2.30471 -3.22024 0
M  V30 2815 H 255.853 -0.197247 -4.60378 0
M  V30 2816 H 254.168 -0.0200638 -4.16395 0
M  V30 2817 H 256.765 2.72696 -4.59936 0
M  V30 2818 H 257.108 2.98107 -2.90582 0
M  V30 2819 H 257.641 1.47619 -3.69396 0
M  V30 2820 H 254.38 0.518493 -6.53446 0
M  V30 2821 H 253.9 1.98997 -5.65827 0
M  V30 2822 H 255.579 1.78915 -6.2177 0
M  V30 2823 N 255.711 1.52812 0.385517 0
M  V30 2824 C 256.674 1.77188 1.45386 0
M  V30 2825 C 257.674 0.641953 1.4743 0
M  V30 2826 O 258.864 0.910033 1.4854 0
M  V30 2827 C 255.996 1.87582 2.8465 0
M  V30 2828 H 257.189 2.72583 1.25054 0
M  V30 2829 H 254.742 1.43586 0.617467 0
M  V30 2830 H 255.477 0.941849 3.10322 0
M  V30 2831 H 255.262 2.69748 2.84567 0
M  V30 2832 H 256.752 2.08102 3.62054 0
M  V30 2833 N 257.189 -0.644168 1.43834 0
M  V30 2834 C 258.152 -1.73857 1.49353 0
M  V30 2835 C 259.152 -1.56315 0.377112 0
M  V30 2836 O 260.342 -1.62048 0.639226 0
M  V30 2837 C 257.474 -3.12819 1.35488 0
M  V30 2838 H 258.667 -1.70342 2.46827 0
M  V30 2839 H 256.22 -0.856652 1.30733 0
M  V30 2840 H 256.955 -3.2194 0.390569 0
M  V30 2841 H 256.74 -3.26958 2.16428 0
M  V30 2842 H 258.23 -3.92606 1.42302 0
M  V30 2843 N 258.668 -1.30515 -0.883378 0
M  V30 2844 C 259.601 -1.11359 -1.99184 0
M  V30 2845 C 260.579 -0.0207858 -1.62587 0
M  V30 2846 O 261.763 -0.174646 -1.87689 0
M  V30 2847 C 258.89 -0.69871 -3.31415 0
M  V30 2848 C 257.936 -1.79261 -3.86998 0
M  V30 2849 S 258.769 -3.39536 -4.14096 0
M  V30 2850 C 259.925 -2.99954 -5.49344 0
M  V30 2851 H 260.158 -2.052 -2.15128 0
M  V30 2852 H 257.691 -1.14847 -1.03196 0
M  V30 2853 H 259.649 -0.466075 -4.07846 0
M  V30 2854 H 258.31 0.220368 -3.13326 0
M  V30 2855 H 257.503 -1.45464 -4.82552 0
M  V30 2856 H 257.105 -1.97961 -3.17313 0
M  V30 2857 H 259.397 -2.48013 -6.30473 0
M  V30 2858 H 260.34 -3.9442 -5.8808 0
M  V30 2859 H 260.748 -2.37775 -5.1198 0
M  V30 2860 N 260.146 1.09593 -1.13257 0
M  V30 2861 C 261.394 1.81375 -0.891492 0
M  V30 2862 C 261.715 1.86049 0.584009 0
M  V30 2863 O 260.985 1.34481 1.42449 0
M  V30 2864 H 259.565 0.671708 -0.326828 0
M  V30 2865 H 262.227 1.3256 -1.42877 0
M  V30 2866 H 261.323 2.84612 -1.28071 0
M  V30 2867 N 261.624 0.925811 1.2754 0
M  V30 2868 C 262.872 0.564138 1.94067 0
M  V30 2869 C 263.193 -0.897188 1.73134 0
M  V30 2870 O 262.463 -1.63573 1.07799 0
M  V30 2871 H 261.043 0.205645 0.718136 0
M  V30 2872 H 263.705 1.1778 1.55287 0
M  V30 2873 H 262.801 0.76881 3.02483 0
M  V30 2874 N 263.102 -1.41638 0.69111 0
M  V30 2875 C 264.049 -2.30789 0.0229705 0
M  V30 2876 C 265.019 -1.46863 -0.775911 0
M  V30 2877 O 266.204 -1.75661 -0.74485 0
M  V30 2878 C 263.344 -3.32868 -0.910666 0
M  V30 2879 C 262.457 -4.31875 -0.103874 0
M  V30 2880 C 261.592 -5.21024 -1.03475 0
M  V30 2881 C 260.631 -6.11702 -0.220598 0
M  V30 2882 N 259.768 -6.93349 -1.10504 0
M  V30 2883 H 264.608 -2.87366 0.788978 0
M  V30 2884 H 262.145 -1.41535 0.400794 0
M  V30 2885 H 264.103 -3.90596 -1.46597 0
M  V30 2886 H 262.733 -2.77851 -1.64312 0
M  V30 2887 H 261.785 -3.76131 0.568285 0
M  V30 2888 H 263.097 -4.96003 0.527504 0
M  V30 2889 H 262.251 -5.83565 -1.65943 0
M  V30 2890 H 260.99 -4.57112 -1.69999 0
M  V30 2891 H 259.995 -5.48215 0.417187 0
M  V30 2892 H 261.22 -6.77668 0.440784 0
M  V30 2893 H 259.166 -6.3205 -1.75638 0
M  V30 2894 H 259.083 -7.54146 -0.529125 0
M  V30 2895 H 260.351 -7.60362 -1.71667 0
M  V30 2896 N 264.58 -0.43555 -1.51462 0
M  V30 2897 C 265.829 0.133007 -2.01261 0
M  V30 2898 C 266.142 1.43942 -1.32439 0
M  V30 2899 O 267.348 2.09081 -1.73198 0
M  V30 2900 C 265.804 0.287581 -3.58749 0
M  V30 2901 C 265.412 -1.00829 -4.36506 0
M  V30 2902 C 267.156 0.810004 -4.167 0
M  V30 2903 C 265.063 -0.819454 -5.85695 0
M  V30 2904 H 263.993 0.0534822 -0.752101 0
M  V30 2905 H 266.644 -0.565038 -1.74584 0
M  V30 2906 H 265.026 1.04859 -3.81865 0
M  V30 2907 H 266.2 -1.77749 -4.25138 0
M  V30 2908 H 264.515 -1.45911 -3.89999 0
M  V30 2909 H 267.112 0.967743 -5.2587 0
M  V30 2910 H 267.455 1.79196 -3.75758 0
M  V30 2911 H 267.988 0.107357 -3.97655 0
M  V30 2912 H 264.727 -1.77374 -6.31046 0
M  V30 2913 H 264.247 -0.0900208 -5.99732 0
M  V30 2914 H 265.926 -0.471949 -6.45276 0
M  V30 2915 N 266.058 1.56714 -0.166846 0
M  V30 2916 C 267.304 1.97813 0.473473 0
M  V30 2917 C 267.659 1.05095 1.61161 0
M  V30 2918 O 266.952 0.0897541 1.9139 0
M  V30 2919 C 267.146 3.42889 1.00806 0
M  V30 2920 C 266.975 4.49635 -0.0767392 0
M  V30 2921 C 265.745 5.02566 -0.524894 0
M  V30 2922 C 267.943 5.06793 -0.875504 0
M  V30 2923 N 265.925 5.9294 -1.59047 0
M  V30 2924 C 267.296 5.93565 -1.79111 0
M  V30 2925 C 269.351 4.89306 -0.921083 0
M  V30 2926 C 268.054 6.64721 -2.74843 0
M  V30 2927 C 270.08 5.61179 -1.86633 0
M  V30 2928 C 269.442 6.47675 -2.76942 0
M  V30 2929 H 265.541 0.769093 0.141489 0
M  V30 2930 H 268.125 1.92874 -0.266031 0
M  V30 2931 H 266.296 3.48382 1.7171 0
M  V30 2932 H 268.028 3.71008 1.61664 0
M  V30 2933 H 264.783 4.73439 -0.123432 0
M  V30 2934 H 265.207 6.42831 -2.12361 0
M  V30 2935 H 269.849 4.22136 -0.23692 0
M  V30 2936 H 267.567 7.31107 -3.44249 0
M  V30 2937 H 271.153 5.49636 -1.90764 0
M  V30 2938 H 270.033 7.02313 -3.48893 0
M  V30 2939 N 267.536 -0.106894 1.57237 0
M  V30 2940 C 268.783 -0.812526 1.85484 0
M  V30 2941 C 269.111 -1.79304 0.753687 0
M  V30 2942 O 268.366 -1.94047 -0.253853 0
M  V30 2943 C 268.665 -1.58628 3.20268 0
M  V30 2944 C 268.331 -0.748967 4.44636 0
M  V30 2945 C 266.993 -0.518104 4.78403 0
M  V30 2946 C 269.345 -0.166122 5.20935 0
M  V30 2947 C 266.673 0.305659 5.85903 0
M  V30 2948 C 269.025 0.644899 6.29304 0
M  V30 2949 C 267.689 0.885965 6.61594 0
M  V30 2950 H 266.959 -0.297324 0.678734 0
M  V30 2951 H 269.606 -0.0744332 1.91355 0
M  V30 2952 H 267.911 -2.39562 3.10028 0
M  V30 2953 H 269.608 -2.13643 3.39349 0
M  V30 2954 H 266.198 -0.939006 4.18187 0
M  V30 2955 H 270.382 -0.33167 4.95191 0
M  V30 2956 H 265.638 0.501528 6.0934 0
M  V30 2957 H 269.812 1.10345 6.87602 0
M  V30 2958 H 267.439 1.52609 7.44725 0
M  V30 2959 N 269.014 -1.53014 -0.377408 0
M  V30 2960 C 270.26 -1.68872 -1.12294 0
M  V30 2961 C 270.593 -0.433224 -1.89306 0
M  V30 2962 O 269.868 0.569258 -1.85983 0
M  V30 2963 C 270.151 -2.93115 -2.09179 0
M  V30 2964 C 270.004 -4.28794 -1.35853 0
M  V30 2965 C 271.323 -3.12928 -3.09458 0
M  V30 2966 H 268.442 -0.614518 -0.406862 0
M  V30 2967 H 271.084 -1.85633 -0.40503 0
M  V30 2968 H 269.234 -2.78956 -2.70399 0
M  V30 2969 H 270.906 -4.54742 -0.775082 0
M  V30 2970 H 269.149 -4.28744 -0.660364 0
M  V30 2971 H 269.82 -5.11837 -2.06706 0
M  V30 2972 H 272.296 -3.26194 -2.58334 0
M  V30 2973 H 271.172 -4.01316 -3.74482 0
M  V30 2974 H 271.433 -2.27669 -3.78971 0
M  V30 2975 N 270.492 0.636531 -1.44174 0
M  V30 2976 C 271.402 1.77754 -1.53103 0
M  V30 2977 C 272.418 1.68928 -0.417034 0
M  V30 2978 O 273.594 1.89801 -0.6736 0
M  V30 2979 C 270.659 3.14115 -1.46741 0
M  V30 2980 C 269.72 3.34612 -2.68948 0
M  V30 2981 C 268.953 4.64467 -2.6288 0
M  V30 2982 O 269.176 5.44919 -1.68581 0
M  V30 2983 O 268.11 4.87049 -3.53648 0
M  V30 2984 H 271.936 1.73174 -2.49489 0
M  V30 2985 H 269.521 0.79709 -1.2636 0
M  V30 2986 H 271.403 3.95412 -1.45696 0
M  V30 2987 H 270.078 3.19249 -0.534975 0
M  V30 2988 H 268.985 2.53014 -2.75562 0
M  V30 2989 H 270.318 3.34336 -3.61221 0
M  V30 2990 N 271.97 1.30982 0.876444 0
M  V30 2991 C 273.218 1.20058 1.62575 0
M  V30 2992 C 273.539 -0.242947 1.93481 0
M  V30 2993 O 272.809 -1.1619 1.57724 0
M  V30 2994 H 271.389 0.44135 0.602677 0
M  V30 2995 H 274.051 1.64222 1.04962 0
M  V30 2996 H 273.147 1.76762 2.57219 0
M  V30 2997 N 273.449 -1.08991 1.13837 0
M  V30 2998 C 274.359 -2.19301 0.833333 0
M  V30 2999 C 275.375 -1.73026 -0.183847 0
M  V30 3000 O 276.551 -2.01395 -0.0138092 0
M  V30 3001 C 273.616 -3.45323 0.308651 0
M  V30 3002 C 272.677 -4.06255 1.38764 0
M  V30 3003 C 271.91 -5.26262 0.887896 0
M  V30 3004 O 272.133 -5.69747 -0.27287 0
M  V30 3005 O 271.067 -5.78435 1.66421 0
M  V30 3006 H 274.893 -2.47854 1.75506 0
M  V30 3007 H 272.478 -1.18012 0.916166 0
M  V30 3008 H 274.36 -4.21394 0.0216739 0
M  V30 3009 H 273.035 -3.18362 -0.585431 0
M  V30 3010 H 271.942 -3.318 1.72799 0
M  V30 3011 H 273.275 -4.37452 2.25602 0
M  V30 3012 N 274.927 -0.932562 -1.27047 0
M  V30 3013 C 275.837 -0.441219 -2.30414 0
M  V30 3014 C 276.853 0.480525 -1.67233 0
M  V30 3015 O 278.029 0.362151 -1.98117 0
M  V30 3016 C 275.094 0.293651 -3.45454 0
M  V30 3017 C 274.155 -0.663601 -4.2414 0
M  V30 3018 C 273.388 0.0362932 -5.33688 0
M  V30 3019 O 273.611 1.2548 -5.56427 0
M  V30 3020 O 272.545 -0.638015 -5.98509 0
M  V30 3021 H 276.371 -1.29962 -2.74488 0
M  V30 3022 H 273.956 -0.6981 -1.32087 0
M  V30 3023 H 275.838 0.707951 -4.15411 0
M  V30 3024 H 274.513 1.12758 -3.03426 0
M  V30 3025 H 273.42 -1.12768 -3.56699 0
M  V30 3026 H 274.753 -1.46489 -4.69896 0
M  V30 3027 N 276.405 1.4127 -0.698611 0
M  V30 3028 C 277.353 2.32588 -0.023855 0
M  V30 3029 C 278.347 1.51128 0.765292 0
M  V30 3030 O 279.553 1.67043 0.670571 0
M  V30 3031 H 275.928 0.751918 0.0110871 0
M  V30 3032 H 277.899 2.87167 -0.811031 0
M  V30 3033 C 276.648 3.35947 0.896369 0
M  V30 3034 H 275.971 3.98684 0.298548 0
M  V30 3035 H 277.411 4.02376 1.33676 0
M  V30 3036 C 275.87 2.70076 2.01396 0
M  V30 3037 O 276.4 2.55093 3.10307 0
M  V30 3038 N 274.606 2.28724 1.79259 0
M  V30 3039 H 274.153 2.4111 0.906841 0
M  V30 3040 H 274.111 1.84986 2.54219 0
M  V30 3041 N 277.883 0.443576 1.51229 0
M  V30 3042 C 278.846 -0.353132 2.26463 0
M  V30 3043 C 279.846 -0.944338 1.3015 0
M  V30 3044 O 281.036 -0.817813 1.5381 0
M  V30 3045 C 278.168 -1.50023 3.06114 0
M  V30 3046 H 279.361 0.3063 2.98332 0
M  V30 3047 H 276.914 0.196902 1.55055 0
M  V30 3048 H 277.649 -2.19553 2.38677 0
M  V30 3049 H 277.434 -1.08241 3.76864 0
M  V30 3050 H 278.924 -2.06296 3.63087 0
M  V30 3051 N 279.361 -1.56624 0.175154 0
M  V30 3052 C 280.777 -1.58571 -0.180966 0
M  V30 3053 C 280.977 -1.19065 -1.6256 0
M  V30 3054 O 280.033 -0.904044 -2.35761 0
M  V30 3055 C 281.346 -3.00522 0.103326 0
M  V30 3056 C 282.894 -3.12972 0.0418426 0
M  V30 3057 C 283.369 -4.57022 0.299175 0
M  V30 3058 N 284.86 -4.62541 0.247086 0
M  V30 3059 C 285.595 -5.71857 0.420318 0
M  V30 3060 N 285.091 -6.89717 0.652816 0
M  V30 3061 N 286.884 -5.60972 0.355957 0
M  V30 3062 H 279.035 -1.80589 1.11809 0
M  V30 3063 H 281.298 -0.837178 0.444788 0
M  V30 3064 H 281.004 -3.33916 1.10422 0
M  V30 3065 H 280.878 -3.72344 -0.603299 0
M  V30 3066 H 283.265 -2.79403 -0.949636 0
M  V30 3067 H 283.346 -2.43578 0.781238 0
M  V30 3068 H 282.99 -4.913 1.28788 0
M  V30 3069 H 282.92 -5.24579 -0.460876 0
M  V30 3070 H 285.411 -3.77829 0.0731895 0
M  V30 3071 H 285.724 -7.68911 0.774347 0
M  V30 3072 H 284.069 -6.91572 0.689476 0
M  V30 3073 H 287.26 -4.67773 0.174882 0
M  V30 3074 H 287.433 -6.46111 0.494388 0
M  V30 3075 N 280.839 0.0985539 -1.57292 0
M  V30 3076 C 281.786 1.11981 -2.01814 0
M  V30 3077 C 282.756 1.39999 -0.89384 0
M  V30 3078 O 283.941 1.5152 -1.15958 0
M  V30 3079 C 281.081 2.43577 -2.44467 0
M  V30 3080 C 280.194 2.2232 -3.70402 0
M  V30 3081 C 279.329 3.4729 -4.01949 0
M  V30 3082 C 278.368 3.2128 -5.21005 0
M  V30 3083 N 277.505 4.38507 -5.48321 0
M  V30 3084 H 282.345 0.733149 -2.88841 0
M  V30 3085 H 279.882 0.350482 -1.42864 0
M  V30 3086 H 281.84 3.20373 -2.6724 0
M  V30 3087 H 280.47 2.80097 -1.60455 0
M  V30 3088 H 279.522 1.36343 -3.55126 0
M  V30 3089 H 280.834 1.99089 -4.57345 0
M  V30 3090 H 279.988 4.32495 -4.25479 0
M  V30 3091 H 278.727 3.73572 -3.13521 0
M  V30 3092 H 277.732 2.34468 -4.97298 0
M  V30 3093 H 278.957 2.96348 -6.11028 0
M  V30 3094 H 276.903 4.64871 -4.62851 0
M  V30 3095 H 276.82 4.18455 -6.29628 0
M  V30 3096 H 278.088 5.24787 -5.76385 0
M  V30 3097 N 282.317 1.53212 0.369288 0
M  V30 3098 C 283.247 1.82365 1.45826 0
M  V30 3099 C 284.228 0.676907 1.56051 0
M  V30 3100 O 285.413 0.926401 1.70679 0
M  V30 3101 C 282.543 2.01023 2.83208 0
M  V30 3102 C 281.497 3.1678 2.8781 0
M  V30 3103 C 280.823 3.20724 4.27832 0
M  V30 3104 C 282.123 4.55447 2.55667 0
M  V30 3105 H 283.817 2.73559 1.21678 0
M  V30 3106 H 281.363 1.3163 0.583911 0
M  V30 3107 H 283.316 2.20001 3.59413 0
M  V30 3108 H 282.04 1.06536 3.08736 0
M  V30 3109 H 280.699 2.97616 2.14056 0
M  V30 3110 H 280.347 2.23882 4.50429 0
M  V30 3111 H 280.047 3.98496 4.31827 0
M  V30 3112 H 281.571 3.41881 5.05915 0
M  V30 3113 H 282.985 4.74611 3.21586 0
M  V30 3114 H 281.382 5.35432 2.70984 0
M  V30 3115 H 282.452 4.60812 1.5093 0
M  V30 3116 N 283.795 -0.628877 1.44509 0
M  V30 3117 C 285.023 -1.41554 1.50897 0
M  V30 3118 C 285.438 -1.8832 0.134564 0
M  V30 3119 O 284.795 -1.60969 -0.859965 0
M  V30 3120 C 284.846 -2.63435 2.47556 0
M  V30 3121 O 284.567 -2.18619 3.79654 0
M  V30 3122 C 286.068 -3.56537 2.63431 0
M  V30 3123 H 283.288 -0.434044 0.511709 0
M  V30 3124 H 285.832 -0.768895 1.89495 0
M  V30 3125 H 283.987 -3.24187 2.12089 0
M  V30 3126 H 284.401 -2.97652 4.31861 0
M  V30 3127 H 285.875 -4.38657 3.35088 0
M  V30 3128 H 286.352 -4.05493 1.68738 0
M  V30 3129 H 286.958 -3.01653 2.9981 0
M  V30 3130 N 285.273 -1.31445 -0.869486 0
M  V30 3131 C 286.52 -1.21158 -1.62256 0
M  V30 3132 C 286.848 0.230155 -1.93133 0
M  V30 3133 O 286.103 1.17906 -1.56194 0
M  V30 3134 C 286.402 -2.00145 -2.96102 0
M  V30 3135 C 286.068 -3.4964 -2.84715 0
M  V30 3136 C 284.73 -3.90403 -2.81317 0
M  V30 3137 C 287.082 -4.44769 -2.71716 0
M  V30 3138 C 284.41 -5.24561 -2.62778 0
M  V30 3139 C 286.762 -5.79054 -2.54714 0
M  V30 3140 C 285.426 -6.19037 -2.49699 0
M  V30 3141 H 284.696 -0.443348 -0.593737 0
M  V30 3142 H 287.343 -1.62715 -1.00976 0
M  V30 3143 H 285.648 -1.5127 -3.6142 0
M  V30 3144 H 287.345 -1.89566 -3.53363 0
M  V30 3145 H 283.935 -3.17256 -2.88178 0
M  V30 3146 H 288.119 -4.14208 -2.73397 0
M  V30 3147 H 283.375 -5.54613 -2.57321 0
M  V30 3148 H 287.549 -6.52393 -2.43632 0
M  V30 3149 H 285.176 -7.22935 -2.35093 0
M  V30 3150 N 286.751 1.08385 -1.14413 0
M  V30 3151 C 287.698 2.15311 -0.831265 0
M  V30 3152 C 288.668 1.64751 0.211292 0
M  V30 3153 O 289.853 1.90627 0.0811674 0
M  V30 3154 C 286.993 3.43658 -0.315143 0
M  V30 3155 C 286.106 4.08064 -1.41802 0
M  V30 3156 C 285.241 5.24207 -0.859126 0
M  V30 3157 C 284.28 5.80554 -1.93967 0
M  V30 3158 N 283.417 6.88042 -1.39793 0
M  V30 3159 H 288.257 2.41415 -1.74708 0
M  V30 3160 H 285.794 1.18474 -0.871909 0
M  V30 3161 H 287.752 4.172 0.00230884 0
M  V30 3162 H 286.382 3.17839 0.56378 0
M  V30 3163 H 285.434 3.3228 -1.85187 0
M  V30 3164 H 286.746 4.45962 -2.23427 0
M  V30 3165 H 285.9 6.04689 -0.49359 0
M  V30 3166 H 284.639 4.87699 -0.011932 0
M  V30 3167 H 283.644 4.98725 -2.31415 0
M  V30 3168 H 284.869 6.19121 -2.79046 0
M  V30 3169 H 282.815 6.53493 -0.572919 0
M  V30 3170 H 282.732 7.24767 -2.15054 0
M  V30 3171 H 284 7.72255 -1.0603 0
M  V30 3172 N 288.23 0.939286 1.26551 0
M  V30 3173 C 289.14 0.453432 2.30176 0
M  V30 3174 C 290.156 -0.471649 1.67486 0
M  V30 3175 O 291.332 -0.35164 1.98306 0
M  V30 3176 C 288.397 -0.275326 3.45605 0
M  V30 3177 C 287.458 0.686084 4.23782 0
M  V30 3178 C 286.691 -0.00798994 5.33699 0
M  V30 3179 O 286.914 -1.22528 5.57085 0
M  V30 3180 O 285.848 0.669746 5.98162 0
M  V30 3181 H 289.674 1.31416 2.73795 0
M  V30 3182 H 287.259 0.705095 1.31715 0
M  V30 3183 H 289.141 -0.685911 4.1578 0
M  V30 3184 H 287.816 -1.11147 3.0402 0
M  V30 3185 H 286.723 1.14658 3.56096 0
M  V30 3186 H 288.056 1.48979 4.69112 0
M  V30 3187 N 289.708 -1.40897 0.706093 0
M  V30 3188 C 290.985 -1.94868 0.169099 0
M  V30 3189 C 291.365 -1.64485 -1.32318 0
M  V30 3190 O 290.713 -0.95744 -2.07474 0
M  V30 3191 C 290.923 -3.45798 0.471654 0
M  V30 3192 C 292.271 -4.22663 0.405127 0
M  V30 3193 O 293.295 -3.53865 0.407168 0
M  V30 3194 O 292.154 -5.45216 0.374383 0
M  V30 3195 H 289.248 -0.82673 0.0211352 0
M  V30 3196 H 291.794 -1.50558 0.782976 0
M  V30 3197 H 290.566 -3.61235 1.50416 0
M  V30 3198 H 290.189 -3.97225 -0.172666 0
M  V30 3199 N 291.186 -0.45159 -1.50991 0
M  V30 3200 C 292.116 0.342898 -2.30969 0
M  V30 3201 C 293.097 1.00815 -1.37005 0
M  V30 3202 O 294.282 1.00907 -1.65926 0
M  V30 3203 C 291.412 1.43637 -3.16205 0
M  V30 3204 C 290.366 0.893818 -4.18563 0
M  V30 3205 C 289.692 2.08411 -4.92411 0
M  V30 3206 C 290.992 -0.0815568 -5.22236 0
M  V30 3207 H 292.686 -0.324556 -2.97636 0
M  V30 3208 H 290.232 -0.157531 -1.43136 0
M  V30 3209 H 292.185 1.9995 -3.70942 0
M  V30 3210 H 290.909 2.13232 -2.47386 0
M  V30 3211 H 289.568 0.352798 -3.64898 0
M  V30 3212 H 289.216 2.76658 -4.20082 0
M  V30 3213 H 288.916 1.72741 -5.61636 0
M  V30 3214 H 290.44 2.65251 -5.49976 0
M  V30 3215 H 291.854 0.391742 -5.7196 0
M  V30 3216 H 290.251 -0.351551 -5.99069 0
M  V30 3217 H 291.321 -1.01374 -4.74185 0
M  V30 3218 N 292.664 1.56529 -0.183458 0
M  V30 3219 C 293.611 2.18546 0.742055 0
M  V30 3220 C 294.581 1.12912 1.2182 0
M  V30 3221 O 295.766 1.41115 1.28418 0
M  V30 3222 C 292.906 2.83977 1.96089 0
M  V30 3223 C 292.019 4.04105 1.52719 0
M  V30 3224 C 291.154 4.57427 2.70063 0
M  V30 3225 C 290.193 5.69938 2.23243 0
M  V30 3226 N 289.33 6.17717 3.33722 0
M  V30 3227 H 294.17 2.97284 0.206432 0
M  V30 3228 H 291.707 1.46823 0.0901571 0
M  V30 3229 H 293.665 3.20077 2.67594 0
M  V30 3230 H 292.295 2.07822 2.47002 0
M  V30 3231 H 291.347 3.73745 0.708436 0
M  V30 3232 H 292.659 4.85513 1.1436 0
M  V30 3233 H 291.813 4.95772 3.49708 0
M  V30 3234 H 290.552 3.75101 3.11689 0
M  V30 3235 H 289.557 5.31133 1.42048 0
M  V30 3236 H 290.782 6.54073 1.82661 0
M  V30 3237 H 288.728 5.38317 3.74902 0
M  V30 3238 H 288.645 6.94146 2.99495 0
M  V30 3239 H 289.913 6.60713 4.13616 0
M  V30 3240 N 294.142 -0.090211 1.57342 0
M  V30 3241 C 295.089 -1.10909 2.02405 0
M  V30 3242 C 296.059 -1.39523 0.901252 0
M  V30 3243 O 297.244 -1.50903 1.1676 0
M  V30 3244 C 294.384 -2.42277 2.45755 0
M  V30 3245 C 293.497 -2.20352 3.71576 0
M  V30 3246 C 292.632 -3.45154 4.03785 0
M  V30 3247 C 291.671 -3.18512 5.22701 0
M  V30 3248 N 290.808 -4.35593 5.50639 0
M  V30 3249 H 295.648 -0.71782 2.89225 0
M  V30 3250 H 293.185 -0.342901 1.43048 0
M  V30 3251 H 295.143 -3.18951 2.68935 0
M  V30 3252 H 293.773 -2.79242 1.61938 0
M  V30 3253 H 292.825 -1.34458 3.55844 0
M  V30 3254 H 294.137 -1.96661 4.58395 0
M  V30 3255 H 293.291 -4.30233 4.27767 0
M  V30 3256 H 292.03 -3.71904 3.15498 0
M  V30 3257 H 291.035 -2.31827 4.98534 0
M  V30 3258 H 292.26 -2.93103 6.12591 0
M  V30 3259 H 290.206 -4.6241 4.6531 0
M  V30 3260 H 290.123 -4.1511 6.31838 0
M  V30 3261 H 291.391 -5.21723 5.7916 0
M  V30 3262 N 295.62 -1.53406 -0.361157 0
M  V30 3263 C 296.55 -1.83136 -1.44857 0
M  V30 3264 C 297.531 -0.685174 -1.5569 0
M  V30 3265 O 298.716 -0.93544 -1.70186 0
M  V30 3266 C 295.846 -2.02522 -2.82138 0
M  V30 3267 C 294.8 -3.18302 -2.86126 0
M  V30 3268 C 294.126 -3.22989 -4.26125 0
M  V30 3269 C 295.426 -4.56796 -2.53248 0
M  V30 3270 H 297.12 -2.74201 -1.20226 0
M  V30 3271 H 294.666 -1.31938 -0.576922 0
M  V30 3272 H 296.619 -2.21904 -3.58241 0
M  V30 3273 H 295.343 -1.08172 -3.08166 0
M  V30 3274 H 294.002 -2.98747 -2.12475 0
M  V30 3275 H 293.65 -2.26267 -4.49235 0
M  V30 3276 H 293.35 -4.00781 -4.29708 0
M  V30 3277 H 294.874 -3.44559 -5.04094 0
M  V30 3278 H 296.288 -4.7631 -3.19064 0
M  V30 3279 H 294.685 -5.36862 -2.68141 0
M  V30 3280 H 295.755 -4.61606 -1.48484 0
M  V30 3281 N 297.098 0.621204 -1.44841 0
M  V30 3282 C 298.375 1.38 -1.38619 0
M  V30 3283 C 298.755 2.11041 -0.0498935 0
M  V30 3284 O 298.103 2.06992 0.967816 0
M  V30 3285 C 298.313 2.33817 -2.59096 0
M  V30 3286 C 299.661 2.96844 -3.03593 0
M  V30 3287 O 300.685 2.44141 -2.59371 0
M  V30 3288 O 299.544 3.92476 -3.80296 0
M  V30 3289 H 296.638 0.61811 -0.549426 0
M  V30 3290 H 299.184 0.645429 -1.56947 0
M  V30 3291 H 297.956 1.79012 -3.47952 0
M  V30 3292 H 297.579 3.14676 -2.43032 0
M  V30 3293 N 298.576 1.31904 0.862503 0
M  V30 3294 C 299.506 1.22782 1.98612 0
M  V30 3295 C 300.487 0.113362 1.69722 0
M  V30 3296 O 301.672 0.299218 1.91881 0
M  V30 3297 C 298.802 0.942058 3.34279 0
M  V30 3298 C 297.756 2.0169 3.77499 0
M  V30 3299 C 297.082 1.58369 5.10709 0
M  V30 3300 C 298.382 3.43096 3.93805 0
M  V30 3301 H 300.076 2.16788 2.06502 0
M  V30 3302 H 297.622 1.04366 0.992154 0
M  V30 3303 H 299.575 0.864818 4.1243 0
M  V30 3304 H 298.299 -0.0336603 3.26583 0
M  V30 3305 H 296.958 2.08416 3.01593 0
M  V30 3306 H 296.606 0.595628 4.99461 0
M  V30 3307 H 296.306 2.30279 5.40597 0
M  V30 3308 H 297.83 1.52067 5.91361 0
M  V30 3309 H 299.244 3.39003 4.62331 0
M  V30 3310 H 297.641 4.13288 4.35101 0
M  V30 3311 H 298.711 3.83334 2.96957 0
M  V30 3312 N 300.054 -1.07777 1.14986 0
M  V30 3313 C 301.465 -1.61766 0.932127 0
M  V30 3314 C 301.816 -1.88974 -0.527581 0
M  V30 3315 O 300.941 -1.65198 -1.39781 0
M  V30 3316 C 301.536 -2.93891 1.68563 0
M  V30 3317 C 300.095 -3.44639 1.5133 0
M  V30 3318 C 299.242 -2.18767 1.704 0
M  V30 3319 H 302.193 -0.909201 1.30074 0
M  V30 3320 H 302.214 -3.62623 1.15259 0
M  V30 3321 H 301.726 -2.74057 2.74799 0
M  V30 3322 H 299.827 -3.69564 0.474702 0
M  V30 3323 H 299.94 -4.20966 2.28746 0
M  V30 3324 H 298.304 -2.28253 1.13016 0
M  V30 3325 H 299.087 -2.01433 2.77992 0
M  V30 3326 N 301.532 -0.945985 -1.26051 0
M  V30 3327 C 302.76 -0.613025 -1.9761 0
M  V30 3328 C 303.175 0.813035 -1.70397 0
M  V30 3329 O 302.532 1.54274 -0.974979 0
M  V30 3330 C 302.583 -0.85159 -3.51326 0
M  V30 3331 O 302.304 -2.22157 -3.77595 0
M  V30 3332 C 303.805 -0.529831 -4.40122 0
M  V30 3333 H 301.025 -0.230593 -0.630133 0
M  V30 3334 H 303.569 -1.268 -1.60443 0
M  V30 3335 H 301.724 -0.243151 -3.86636 0
M  V30 3336 H 302.138 -2.2852 -4.721 0
M  V30 3337 H 303.612 -0.747348 -5.46917 0
M  V30 3338 H 304.089 0.535341 -4.35925 0
M  V30 3339 H 304.695 -1.11721 -4.10364 0
M  V30 3340 N 303.011 1.40521 -0.713556 0
M  V30 3341 C 304.422 1.83853 -0.324807 0
M  V30 3342 C 304.773 1.59667 1.14021 0
M  V30 3343 O 303.898 1.07649 1.87725 0
M  V30 3344 C 304.493 3.33751 -0.582746 0
M  V30 3345 C 303.052 3.75584 -0.247727 0
M  V30 3346 C 302.199 2.63753 -0.856121 0
M  V30 3347 H 305.15 1.29817 -0.91286 0
M  V30 3348 H 305.171 3.80194 0.152682 0
M  V30 3349 H 304.683 3.51322 -1.64908 0
M  V30 3350 H 302.784 3.63608 0.813624 0
M  V30 3351 H 302.897 4.7373 -0.715307 0
M  V30 3352 H 301.261 2.53108 -0.28432 0
M  V30 3353 H 302.044 2.84137 -1.92668 0
M  V30 3354 N 304.489 0.459591 1.5075 0
M  V30 3355 C 305.714 -0.0996819 2.0716 0
M  V30 3356 C 306.139 -1.33761 1.32249 0
M  V30 3357 O 305.497 -1.77551 0.366786 0
M  V30 3358 C 305.545 -0.378226 3.58611 0
M  V30 3359 O 304.649 -1.46081 3.85661 0
M  V30 3360 H 303.99 0.00791392 0.663953 0
M  V30 3361 H 306.52 0.647329 1.9409 0
M  V30 3362 H 306.53 -0.622135 4.03229 0
M  V30 3363 H 305.205 0.526439 4.12555 0
M  V30 3364 H 303.782 -1.20511 3.5289 0
M  V30 3365 N 305.967 -1.56429 0.191757 0
M  V30 3366 C 307.214 -1.97485 -0.447891 0
M  V30 3367 C 307.542 -1.07852 -1.61859 0
M  V30 3368 O 306.797 -0.116903 -1.95351 0
M  V30 3369 C 307.096 -3.44449 -0.953384 0
M  V30 3370 C 306.762 -4.50781 0.103586 0
M  V30 3371 C 305.424 -4.79584 0.394023 0
M  V30 3372 C 307.776 -5.1471 0.819946 0
M  V30 3373 C 305.104 -5.69607 1.40585 0
M  V30 3374 C 307.456 -6.05827 1.8209 0
M  V30 3375 C 306.12 -6.32987 2.11857 0
M  V30 3376 H 305.39 -0.722648 -0.163895 0
M  V30 3377 H 308.037 -1.89322 0.28802 0
M  V30 3378 H 306.342 -3.49666 -1.76751 0
M  V30 3379 H 308.039 -3.73569 -1.45765 0
M  V30 3380 H 304.629 -4.28394 -0.132951 0
M  V30 3381 H 308.813 -4.92552 0.608789 0
M  V30 3382 H 304.069 -5.88926 1.64243 0
M  V30 3383 H 308.243 -6.54424 2.38123 0
M  V30 3384 H 305.87 -7.02544 2.90407 0
M  V30 3385 N 307.445 0.0818655 -1.57387 0
M  V30 3386 C 308.355 1.11642 -2.06333 0
M  V30 3387 C 309.371 1.43033 -0.99083 0
M  V30 3388 O 310.547 1.53411 -1.30488 0
M  V30 3389 C 307.612 2.41342 -2.48907 0
M  V30 3390 C 306.673 2.17014 -3.7041 0
M  V30 3391 C 305.906 3.4053 -4.10944 0
M  V30 3392 O 306.129 4.4927 -3.51444 0
M  V30 3393 O 305.063 3.29336 -5.03807 0
M  V30 3394 H 308.889 0.730657 -2.9478 0
M  V30 3395 H 306.474 0.295301 -1.46452 0
M  V30 3396 H 308.356 3.17691 -2.76858 0
M  V30 3397 H 307.031 2.79319 -1.63593 0
M  V30 3398 H 305.938 1.38403 -3.47556 0
M  V30 3399 H 307.271 1.83923 -4.56545 0
M  V30 3400 N 308.923 1.53595 0.353017 0
M  V30 3401 C 310.172 1.69603 1.09168 0
M  V30 3402 C 310.485 0.460925 1.90092 0
M  V30 3403 O 311.691 0.501774 2.66823 0
M  V30 3404 C 310.147 2.99872 1.9901 0
M  V30 3405 C 309.755 4.30687 1.23339 0
M  V30 3406 C 311.499 3.25246 2.72792 0
M  V30 3407 C 309.406 5.52036 2.12156 0
M  V30 3408 H 308.336 0.631966 0.411261 0
M  V30 3409 H 310.987 1.80096 0.351802 0
M  V30 3410 H 309.369 2.83212 2.7678 0
M  V30 3411 H 310.543 4.58019 0.505456 0
M  V30 3412 H 308.858 4.11853 0.613663 0
M  V30 3413 H 311.455 4.13095 3.39495 0
M  V30 3414 H 311.798 2.41846 3.38846 0
M  V30 3415 H 312.331 3.42638 2.021 0
M  V30 3416 H 309.07 6.37951 1.50659 0
M  V30 3417 H 308.59 5.28966 2.82764 0
M  V30 3418 H 310.269 5.87313 2.71427 0
M  V30 3419 N 310.401 -0.613514 1.45168 0
M  V30 3420 C 311.648 -1.37268 1.48875 0
M  V30 3421 C 311.976 -1.94077 0.128161 0
M  V30 3422 O 311.231 -1.75178 -0.872416 0
M  V30 3423 C 311.53 -2.54347 2.51083 0
M  V30 3424 C 311.196 -2.1572 3.95949 0
M  V30 3425 C 309.858 -2.04899 4.35396 0
M  V30 3426 C 312.21 -1.85485 4.87078 0
M  V30 3427 C 309.538 -1.62057 5.63875 0
M  V30 3428 C 311.89 -1.4413 6.15962 0
M  V30 3429 C 310.554 -1.31863 6.54346 0
M  V30 3430 H 309.824 -0.502299 0.544773 0
M  V30 3431 H 312.471 -0.694021 1.78481 0
M  V30 3432 H 310.776 -3.27524 2.15024 0
M  V30 3433 H 312.473 -3.12577 2.51191 0
M  V30 3434 H 309.063 -2.25066 3.64751 0
M  V30 3435 H 313.247 -1.92745 4.57343 0
M  V30 3436 H 308.503 -1.51177 5.92415 0
M  V30 3437 H 312.677 -1.19778 6.86022 0
M  V30 3438 H 310.304 -0.984392 7.538 0
M  V30 3439 N 311.879 -1.3236 -0.855495 0
M  V30 3440 C 313.107 -1.2587 -1.64208 0
M  V30 3441 C 313.522 0.173457 -1.88002 0
M  V30 3442 O 312.879 1.11027 -1.44842 0
M  V30 3443 C 312.93 -2.01424 -3.00184 0
M  V30 3444 O 312.651 -3.39051 -2.77445 0
M  V30 3445 C 314.152 -2.01948 -3.94629 0
M  V30 3446 H 311.372 -0.434318 -0.511477 0
M  V30 3447 H 313.916 -1.74469 -1.0668 0
M  V30 3448 H 312.071 -1.56549 -3.5436 0
M  V30 3449 H 312.485 -3.77711 -3.63916 0
M  V30 3450 H 313.959 -2.59297 -4.87308 0
M  V30 3451 H 314.436 -1.00554 -4.27534 0
M  V30 3452 H 315.042 -2.46767 -3.4639 0
M  V30 3453 N 313.357 1.07166 -1.15556 0
M  V30 3454 C 314.605 1.79443 -0.929764 0
M  V30 3455 C 314.926 1.87246 0.544414 0
M  V30 3456 O 314.196 1.37473 1.39564 0
M  V30 3457 H 312.776 0.664625 -0.341003 0
M  V30 3458 H 315.438 1.29499 -1.45657 0
M  V30 3459 H 314.534 2.81832 -1.34079 0
M  V30 3460 N 314.835 0.952656 1.25548 0
M  V30 3461 C 315.783 0.462354 2.27958 0
M  V30 3462 C 316.777 -0.46634 1.62855 0
M  V30 3463 O 317.983 -0.343287 1.76696 0
M  V30 3464 H 314.358 0.13101 0.7405 0
M  V30 3465 H 316.329 1.33839 2.66702 0
M  V30 3466 C 315.078 -0.24628 3.46827 0
M  V30 3467 H 314.401 0.459192 3.97154 0
M  V30 3468 H 315.841 -0.553393 4.20373 0
M  V30 3469 C 314.3 -1.4681 3.0323 0
M  V30 3470 O 314.83 -2.56591 3.09069 0
M  V30 3471 N 313.036 -1.32874 2.58443 0
M  V30 3472 H 312.583 -0.435536 2.53891 0
M  V30 3473 H 312.541 -2.14742 2.29637 0
M  V30 3474 N 316.313 -1.40141 0.720998 0
M  V30 3475 C 317.561 -2.0039 0.262323 0
M  V30 3476 C 317.882 -1.57469 -1.15015 0
M  V30 3477 O 317.152 -0.816582 -1.78069 0
M  V30 3478 H 315.732 -0.741063 0.093996 0
M  V30 3479 H 318.394 -1.71398 0.927835 0
M  V30 3480 H 317.49 -3.10658 0.299671 0
M  V30 3481 N 317.792 -0.46758 -1.50504 0
M  V30 3482 C 319.039 0.0886219 -2.02306 0
M  V30 3483 C 319.367 1.40037 -1.34981 0
M  V30 3484 O 318.622 1.90136 -0.463318 0
M  V30 3485 C 318.921 0.323995 -3.55928 0
M  V30 3486 C 318.587 -0.905618 -4.41712 0
M  V30 3487 C 317.249 -1.24275 -4.64875 0
M  V30 3488 C 319.601 -1.72448 -4.91845 0
M  V30 3489 C 316.929 -2.39888 -5.35417 0
M  V30 3490 C 319.281 -2.87185 -5.63656 0
M  V30 3491 C 317.945 -3.21317 -5.85074 0
M  V30 3492 H 317.215 0.0324291 -0.74029 0
M  V30 3493 H 319.862 -0.620945 -1.81153 0
M  V30 3494 H 318.167 1.11577 -3.75577 0
M  V30 3495 H 319.864 0.76826 -3.93572 0
M  V30 3496 H 316.454 -0.632956 -4.239 0
M  V30 3497 H 320.638 -1.4772 -4.73806 0
M  V30 3498 H 315.894 -2.66611 -5.50208 0
M  V30 3499 H 320.068 -3.50985 -6.01484 0
M  V30 3500 H 317.695 -4.1101 -6.39511 0
M  V30 3501 N 319.27 1.56325 -0.20005 0
M  V30 3502 C 320.547 1.89484 0.48529 0
M  V30 3503 C 320.927 1.1143 1.79294 0
M  V30 3504 O 320.275 0.216919 2.27468 0
M  V30 3505 C 320.485 3.41923 0.699243 0
M  V30 3506 C 321.833 4.12256 1.01638 0
M  V30 3507 O 322.857 3.47402 0.786792 0
M  V30 3508 O 321.716 5.26887 1.45095 0
M  V30 3509 H 318.81 0.787144 0.253639 0
M  V30 3510 H 321.356 1.67985 -0.240633 0
M  V30 3511 H 320.128 3.90658 -0.224008 0
M  V30 3512 H 319.751 3.69131 1.47744 0
M  V30 3513 N 320.748 -0.0735177 1.57428 0
M  V30 3514 C 321.994 -0.774145 1.87443 0
M  V30 3515 C 322.327 -1.77311 0.792103 0
M  V30 3516 O 321.602 -1.93492 -0.197793 0
M  V30 3517 C 321.885 -1.48367 3.28115 0
M  V30 3518 C 321.738 -0.501227 4.46999 0
M  V30 3519 C 323.057 -2.429 3.66998 0
M  V30 3520 H 320.176 -0.279971 0.681752 0
M  V30 3521 H 322.818 -0.0373616 1.89963 0
M  V30 3522 H 320.968 -2.11171 3.26097 0
M  V30 3523 H 322.64 0.121468 4.6114 0
M  V30 3524 H 320.883 0.183593 4.33411 0
M  V30 3525 H 321.554 -1.03526 5.42205 0
M  V30 3526 H 324.03 -1.90175 3.70098 0
M  V30 3527 H 322.906 -2.89549 4.66318 0
M  V30 3528 H 323.167 -3.27628 2.96837 0
M  V30 3529 N 322.226 -1.5378 -0.344866 0
M  V30 3530 C 323.176 -1.78057 -1.42407 0
M  V30 3531 C 324.16 -0.635732 -1.47808 0
M  V30 3532 O 325.352 -0.89508 -1.527 0
M  V30 3533 C 322.481 -1.99242 -2.79566 0
M  V30 3534 C 321.567 -3.19787 -2.78562 0
M  V30 3535 N 321.958 -4.41284 -2.47189 0
M  V30 3536 C 320.256 -3.2093 -3.0971 0
M  V30 3537 C 320.957 -5.23128 -2.54385 0
M  V30 3538 N 319.933 -4.59813 -2.89953 0
M  V30 3539 H 323.735 -2.69588 -1.17046 0
M  V30 3540 H 321.249 -1.52687 -0.553217 0
M  V30 3541 H 323.246 -2.14768 -3.57324 0
M  V30 3542 H 321.906 -1.08953 -3.05875 0
M  V30 3543 H 322.917 -4.68657 -2.20411 0
M  V30 3544 H 319.594 -2.40603 -3.41199 0
M  V30 3545 H 320.984 -6.30096 -2.333 0
M  V30 3546 N 323.704 0.605807 -1.45491 0
M  V30 3547 C 324.614 1.74466 -1.56839 0
M  V30 3548 C 325.63 1.68006 -0.452772 0
M  V30 3549 O 326.806 1.8833 -0.713708 0
M  V30 3550 C 323.871 3.10931 -1.53371 0
M  V30 3551 C 322.932 3.28832 -2.75986 0
M  V30 3552 C 322.165 4.58787 -2.72673 0
M  V30 3553 O 322.388 5.4122 -1.80102 0
M  V30 3554 O 321.322 4.79438 -3.63899 0
M  V30 3555 H 325.148 1.67843 -2.53106 0
M  V30 3556 H 322.733 0.770108 -1.28022 0
M  V30 3557 H 324.615 3.92233 -1.54051 0
M  V30 3558 H 323.29 3.18042 -0.602572 0
M  V30 3559 H 322.197 2.47112 -2.80867 0
M  V30 3560 H 323.53 3.26599 -3.68231 0
M  V30 3561 N 325.182 1.32811 0.848464 0
M  V30 3562 C 326.429 1.23724 1.60308 0
M  V30 3563 C 326.757 -0.1994 1.93475 0
M  V30 3564 O 326.012 -1.15406 1.5805 0
M  V30 3565 C 326.311 2.04831 2.92881 0
M  V30 3566 C 325.977 3.54125 2.79117 0
M  V30 3567 C 324.639 3.94829 2.7507 0
M  V30 3568 C 326.991 4.49036 2.64606 0
M  V30 3569 C 324.319 5.28675 2.544 0
M  V30 3570 C 326.671 5.83033 2.4547 0
M  V30 3571 C 325.335 6.22931 2.39819 0
M  V30 3572 H 324.605 0.452737 0.586609 0
M  V30 3573 H 327.252 1.64301 0.983743 0
M  V30 3574 H 325.557 1.57001 3.58968 0
M  V30 3575 H 327.254 1.95164 3.50303 0
M  V30 3576 H 323.844 3.21801 2.83094 0
M  V30 3577 H 328.028 4.18505 2.66772 0
M  V30 3578 H 323.284 5.58637 2.48465 0
M  V30 3579 H 327.458 6.56186 2.33222 0
M  V30 3580 H 325.085 7.26584 2.23562 0
M  V30 3581 N 326.66 -1.06551 1.16123 0
M  V30 3582 C 327.908 -1.78947 0.939267 0
M  V30 3583 C 328.229 -1.87532 -0.534476 0
M  V30 3584 O 327.499 -1.38211 -1.38833 0
M  V30 3585 H 326.079 -0.662807 0.344523 0
M  V30 3586 H 328.741 -1.28725 1.46342 0
M  V30 3587 H 327.837 -2.81117 1.35572 0
M  V30 3588 N 328.138 -0.959301 -1.25041 0
M  V30 3589 C 329.048 -0.489994 -2.29426 0
M  V30 3590 C 330.064 0.444944 -1.68215 0
M  V30 3591 O 331.24 0.320046 -1.98841 0
M  V30 3592 C 328.305 0.220309 -3.45999 0
M  V30 3593 C 327.366 -0.753418 -4.22637 0
M  V30 3594 C 326.599 -0.076918 -5.33645 0
M  V30 3595 O 326.822 1.13649 -5.58963 0
M  V30 3596 O 325.756 -0.764824 -5.97021 0
M  V30 3597 H 329.582 -1.35755 -2.71669 0
M  V30 3598 H 327.167 -0.725961 -1.30576 0
M  V30 3599 H 329.049 0.619677 -4.16819 0
M  V30 3600 H 327.724 1.06296 -3.0575 0
M  V30 3601 H 326.631 -1.20308 -3.54227 0
M  V30 3602 H 327.964 -1.56423 -4.66683 0
M  V30 3603 N 329.616 1.39756 -0.72842 0
M  V30 3604 C 330.564 2.32485 -0.0731849 0
M  V30 3605 C 331.558 1.52717 0.733063 0
M  V30 3606 O 332.764 1.68428 0.634988 0
M  V30 3607 H 329.139 0.751984 -0.00486469 0
M  V30 3608 H 331.11 2.85382 -0.871761 0
M  V30 3609 C 329.859 3.37773 0.824908 0
M  V30 3610 H 329.182 3.99227 0.213915 0
M  V30 3611 H 330.622 4.05121 1.25111 0
M  V30 3612 C 329.081 2.74287 1.95622 0
M  V30 3613 O 329.611 2.61618 3.04826 0
M  V30 3614 N 327.817 2.32475 1.74367 0
M  V30 3615 H 327.364 2.4298 0.855494 0
M  V30 3616 H 327.322 1.90337 2.50238 0
M  V30 3617 N 331.094 0.475555 1.50254 0
M  V30 3618 C 332.51 0.12997 1.5907 0
M  V30 3619 C 332.71 -1.36385 1.48328 0
M  V30 3620 O 331.766 -2.13754 1.34407 0
M  V30 3621 C 333.079 0.684139 2.92814 0
M  V30 3622 C 334.627 0.647965 3.0622 0
M  V30 3623 C 335.102 1.17975 4.42545 0
M  V30 3624 N 336.593 1.13936 4.48969 0
M  V30 3625 C 337.328 1.52129 5.52851 0
M  V30 3626 N 336.824 1.97793 6.63965 0
M  V30 3627 N 338.617 1.43704 5.4342 0
M  V30 3628 H 330.768 1.44706 1.55479 0
M  V30 3629 H 333.031 0.598691 0.735033 0
M  V30 3630 H 332.737 1.73079 3.06164 0
M  V30 3631 H 332.611 0.130204 3.76975 0
M  V30 3632 H 334.998 -0.38979 2.92514 0
M  V30 3633 H 335.079 1.23876 2.23805 0
M  V30 3634 H 334.723 2.21616 4.57 0
M  V30 3635 H 334.653 0.565138 5.23559 0
M  V30 3636 H 337.144 0.804488 3.69238 0
M  V30 3637 H 337.457 2.25072 7.39299 0
M  V30 3638 H 335.802 2.01749 6.65073 0
M  V30 3639 H 338.993 1.07867 4.55502 0
M  V30 3640 H 339.166 1.73794 6.24259 0
M  V30 3641 N 332.573 -1.56217 0.208337 0
M  V30 3642 C 333.984 -1.84243 -0.301904 0
M  V30 3643 C 334.335 -1.12939 -1.60434 0
M  V30 3644 O 333.46 -0.39461 -2.12772 0
M  V30 3645 C 334.055 -3.34231 -0.554543 0
M  V30 3646 C 332.614 -3.62621 -1.00912 0
M  V30 3647 C 331.761 -2.77224 -0.064933 0
M  V30 3648 H 334.712 -1.52712 0.431833 0
M  V30 3649 H 334.733 -3.5372 -1.40223 0
M  V30 3650 H 334.245 -3.86099 0.393561 0
M  V30 3651 H 332.346 -3.16197 -1.97104 0
M  V30 3652 H 332.459 -4.7071 -0.892674 0
M  V30 3653 H 330.823 -2.48256 -0.56929 0
M  V30 3654 H 331.606 -3.31887 0.877851 0
M  V30 3655 N 334.051 0.0651679 -1.57465 0
M  V30 3656 C 334.981 1.07693 -2.07182 0
M  V30 3657 C 335.962 1.39962 -0.966673 0
M  V30 3658 O 337.147 1.49475 -1.2398 0
M  V30 3659 C 334.277 2.3885 -2.52127 0
M  V30 3660 C 333.231 2.20917 -3.66579 0
M  V30 3661 C 332.557 3.57515 -3.97601 0
M  V30 3662 C 333.857 1.62493 -4.9638 0
M  V30 3663 H 335.551 0.663199 -2.91962 0
M  V30 3664 H 333.097 0.317569 -1.40455 0
M  V30 3665 H 335.05 3.09928 -2.85522 0
M  V30 3666 H 333.774 2.82215 -1.64384 0
M  V30 3667 H 332.433 1.52279 -3.33477 0
M  V30 3668 H 332.081 3.98463 -3.06979 0
M  V30 3669 H 331.781 3.46353 -4.74672 0
M  V30 3670 H 333.305 4.30013 -4.33499 0
M  V30 3671 H 334.719 2.23445 -5.27963 0
M  V30 3672 H 333.116 1.62009 -5.77818 0
M  V30 3673 H 334.186 0.587041 -4.81333 0
M  V30 3674 N 335.529 1.53961 0.336706 0
M  V30 3675 C 336.459 1.85417 1.41925 0
M  V30 3676 C 337.44 0.709856 1.5458 0
M  V30 3677 O 338.625 0.962396 1.68676 0
M  V30 3678 C 335.755 2.06985 2.78881 0
M  V30 3679 C 334.709 3.22813 2.81026 0
M  V30 3680 C 334.035 3.29727 4.20932 0
M  V30 3681 C 335.335 4.60767 2.45949 0
M  V30 3682 H 337.029 2.76079 1.15848 0
M  V30 3683 H 334.575 1.32839 0.555859 0
M  V30 3684 H 336.528 2.27575 3.54665 0
M  V30 3685 H 335.252 1.13061 3.06406 0
M  V30 3686 H 333.911 3.0209 2.07695 0
M  V30 3687 H 333.559 2.33385 4.45579 0
M  V30 3688 H 333.259 4.07566 4.23277 0
M  V30 3689 H 334.783 3.52536 4.98549 0
M  V30 3690 H 336.197 4.81325 3.11446 0
M  V30 3691 H 334.594 5.4106 2.59566 0
M  V30 3692 H 335.664 4.6391 1.41122 0
M  V30 3693 N 337.007 -0.598083 1.45811 0
M  V30 3694 C 337.937 -1.71873 1.58057 0
M  V30 3695 C 338.918 -1.64533 0.431615 0
M  V30 3696 O 340.103 -1.82787 0.65595 0
M  V30 3697 C 337.233 -3.10495 1.55597 0
M  V30 3698 C 336.187 -3.32654 2.69305 0
M  V30 3699 C 335.513 -4.71646 2.51902 0
M  V30 3700 C 336.813 -3.21981 4.11248 0
M  V30 3701 H 338.507 -1.61881 2.51863 0
M  V30 3702 H 336.053 -0.777372 1.21214 0
M  V30 3703 H 338.006 -3.88699 1.6276 0
M  V30 3704 H 336.73 -3.2135 0.583255 0
M  V30 3705 H 335.389 -2.56843 2.61586 0
M  V30 3706 H 335.037 -4.79246 1.52748 0
M  V30 3707 H 334.737 -4.87426 3.2816 0
M  V30 3708 H 336.261 -5.52038 2.60933 0
M  V30 3709 H 337.675 -3.90049 4.20161 0
M  V30 3710 H 336.072 -3.49289 4.87972 0
M  V30 3711 H 337.142 -2.1928 4.32486 0
M  V30 3712 N 338.485 -1.33259 -0.841409 0
M  V30 3713 C 339.448 -1.23221 -1.9326 0
M  V30 3714 C 340.448 -0.151895 -1.60081 0
M  V30 3715 O 341.638 -0.403246 -1.69468 0
M  V30 3716 C 338.77 -0.898123 -3.28856 0
M  V30 3717 H 339.963 -2.2021 -2.03587 0
M  V30 3718 H 337.516 -1.17281 -1.03319 0
M  V30 3719 H 338.251 0.0693841 -3.24226 0
M  V30 3720 H 338.036 -1.67934 -3.54317 0
M  V30 3721 H 339.526 -0.852563 -4.08805 0
M  V30 3722 N 339.963 1.05934 -1.16686 0
M  V30 3723 C 341.211 1.78447 -0.948744 0
M  V30 3724 C 341.532 1.87813 0.524523 0
M  V30 3725 O 340.802 1.38945 1.38098 0
M  V30 3726 H 339.382 0.660971 -0.348033 0
M  V30 3727 H 342.044 1.27947 -1.47022 0
M  V30 3728 H 341.14 2.80394 -1.37061 0
M  V30 3729 N 341.441 0.965919 1.2453 0
M  V30 3730 C 342.687 0.62776 1.92839 0
M  V30 3731 C 343.02 -0.834694 1.75347 0
M  V30 3732 O 342.295 -1.60031 1.10546 0
M  V30 3733 C 342.578 1.00109 3.45905 0
M  V30 3734 C 342.431 2.52011 3.72573 0
M  V30 3735 C 343.75 0.53435 4.36844 0
M  V30 3736 H 340.869 0.229537 0.700344 0
M  V30 3737 H 343.511 1.2046 1.46933 0
M  V30 3738 H 341.661 0.510238 3.85135 0
M  V30 3739 H 343.333 3.08559 3.42912 0
M  V30 3740 H 341.576 2.95287 3.17786 0
M  V30 3741 H 342.247 2.73183 4.79661 0
M  V30 3742 H 344.723 0.955565 4.04979 0
M  V30 3743 H 343.599 0.824152 5.42678 0
M  V30 3744 H 343.86 -0.565589 4.38467 0
M  V30 3745 N 342.919 -1.39368 0.735821 0
M  V30 3746 C 343.851 -2.2913 0.0567723 0
M  V30 3747 C 344.864 -1.46859 -0.702589 0
M  V30 3748 O 346.053 -1.69925 -0.546616 0
M  V30 3749 C 343.153 -3.25492 -0.943823 0
M  V30 3750 C 342.326 -4.36709 -0.24581 0
M  V30 3751 C 341.385 -5.13376 -1.15463 0
M  V30 3752 O 340.411 -5.65683 -0.631803 0
M  V30 3753 N 341.613 -5.24656 -2.48427 0
M  V30 3754 H 344.378 -2.88047 0.827582 0
M  V30 3755 H 341.939 -1.50957 0.585112 0
M  V30 3756 H 343.931 -3.73657 -1.55443 0
M  V30 3757 H 342.501 -2.676 -1.61583 0
M  V30 3758 H 341.721 -3.9041 0.545286 0
M  V30 3759 H 343.009 -5.08244 0.237891 0
M  V30 3760 H 342.407 -4.83679 -2.93379 0
M  V30 3761 H 340.964 -5.76258 -3.04582 0
M  V30 3762 N 344.397 -0.483516 -1.5 0
M  V30 3763 C 345.646 0.0689102 -2.01582 0
M  V30 3764 C 345.959 1.39655 -1.36952 0
M  V30 3765 O 347.165 2.03465 -1.79762 0
M  V30 3766 C 345.621 0.173302 -3.59483 0
M  V30 3767 C 345.229 -1.14665 -4.33077 0
M  V30 3768 C 346.973 0.677024 -4.19066 0
M  V30 3769 C 344.88 -1.00537 -5.82792 0
M  V30 3770 H 343.81 0.0295277 -0.753422 0
M  V30 3771 H 346.461 -0.620295 -1.72698 0
M  V30 3772 H 344.843 0.926569 -3.85007 0
M  V30 3773 H 346.017 -1.91184 -4.19268 0
M  V30 3774 H 344.332 -1.58244 -3.85159 0
M  V30 3775 H 346.929 0.799952 -5.28682 0
M  V30 3776 H 347.272 1.67151 -3.81269 0
M  V30 3777 H 347.805 -0.0192083 -3.97795 0
M  V30 3778 H 344.544 -1.9736 -6.25083 0
M  V30 3779 H 344.064 -0.280776 -5.99142 0
M  V30 3780 H 345.743 -0.677 -6.43448 0
M  V30 3781 N 345.875 1.56104 -0.216619 0
M  V30 3782 C 346.825 2.16703 0.708798 0
M  V30 3783 C 347.809 1.11392 1.16106 0
M  V30 3784 O 349.001 1.37395 1.11587 0
M  V30 3785 C 346.13 2.84666 1.91886 0
M  V30 3786 C 345.216 3.97195 1.48651 0
M  V30 3787 N 345.607 4.99959 0.766434 0
M  V30 3788 C 343.905 4.09193 1.77418 0
M  V30 3789 C 344.606 5.79126 0.546659 0
M  V30 3790 N 343.582 5.32315 1.10188 0
M  V30 3791 H 347.384 2.93516 0.150162 0
M  V30 3792 H 344.898 1.6239 -0.0176768 0
M  V30 3793 H 346.895 3.26486 2.59253 0
M  V30 3794 H 345.555 2.09347 2.48202 0
M  V30 3795 H 346.566 5.16197 0.419634 0
M  V30 3796 H 343.243 3.45021 2.35088 0
M  V30 3797 H 344.633 6.71895 -0.026103 0
M  V30 3798 N 347.353 -0.0568162 1.57498 0
M  V30 3799 C 348.764 -0.606858 1.76562 0
M  V30 3800 C 349.115 -1.77114 0.844094 0
M  V30 3801 O 348.24 -2.16376 0.0318911 0
M  V30 3802 C 348.835 -1.10766 3.20182 0
M  V30 3803 C 347.394 -1.60344 3.40539 0
M  V30 3804 C 346.541 -0.529311 2.72201 0
M  V30 3805 H 349.492 0.169393 1.57793 0
M  V30 3806 H 349.513 -1.97602 3.25167 0
M  V30 3807 H 349.025 -0.26006 3.87228 0
M  V30 3808 H 347.126 -2.47379 2.78629 0
M  V30 3809 H 347.239 -1.67006 4.4905 0
M  V30 3810 H 345.603 -0.977893 2.35179 0
M  V30 3811 H 346.386 0.308352 3.41912 0
M  V30 3812 N 348.832 -1.54138 -0.328536 0
M  V30 3813 C 350.06 -1.76062 -1.08673 0
M  V30 3814 C 350.475 -0.506852 -1.81869 0
M  V30 3815 O 349.832 0.522223 -1.74869 0
M  V30 3816 C 349.883 -2.95054 -2.08866 0
M  V30 3817 O 349.604 -4.15583 -1.38644 0
M  V30 3818 C 351.105 -3.2915 -2.96943 0
M  V30 3819 H 348.325 -0.587889 -0.323461 0
M  V30 3820 H 350.869 -2.0101 -0.376175 0
M  V30 3821 H 349.024 -2.72394 -2.75464 0
M  V30 3822 H 349.438 -4.82481 -2.05699 0
M  V30 3823 H 350.912 -4.15723 -3.63151 0
M  V30 3824 H 351.389 -2.461 -3.63774 0
M  V30 3825 H 351.995 -3.53871 -2.35914 0
M  V30 3826 N 350.31 0.590341 -1.46126 0
M  V30 3827 C 351.243 1.71434 -1.50617 0
M  V30 3828 C 352.221 1.58543 -0.360948 0
M  V30 3829 O 353.405 1.79865 -0.563985 0
M  V30 3830 C 350.532 3.09422 -1.37753 0
M  V30 3831 C 349.578 3.40854 -2.5636 0
M  V30 3832 S 350.411 3.33773 -4.18755 0
M  V30 3833 C 351.567 4.74312 -4.08386 0
M  V30 3834 H 351.8 1.67364 -2.45717 0
M  V30 3835 H 349.333 0.76845 -1.33919 0
M  V30 3836 H 351.291 3.8903 -1.31018 0
M  V30 3837 H 349.952 3.10989 -0.440949 0
M  V30 3838 H 349.145 4.41368 -2.43332 0
M  V30 3839 H 348.747 2.68798 -2.60046 0
M  V30 3840 H 351.039 5.64522 -3.74595 0
M  V30 3841 H 351.982 4.92397 -5.08872 0
M  V30 3842 H 352.39 4.50803 -3.3976 0
M  V30 3843 N 351.788 1.33704 0.83433 0
M  V30 3844 C 353.036 1.25169 1.58673 0
M  V30 3845 C 353.357 -0.18127 1.94156 0
M  V30 3846 O 352.627 -1.11113 1.6134 0
M  V30 3847 H 351.207 0.4603 0.58833 0
M  V30 3848 H 353.869 1.67478 0.996847 0
M  V30 3849 H 352.965 1.84856 2.51465 0
M  V30 3850 N 353.266 -1.05314 1.17247 0
M  V30 3851 C 354.196 -2.1498 0.911362 0
M  V30 3852 C 355.177 -1.69471 -0.146169 0
M  V30 3853 O 356.362 -1.942 0.003812 0
M  V30 3854 C 353.492 -3.4472 0.422528 0
M  V30 3855 C 352.446 -4.03789 1.4191 0
M  V30 3856 C 351.772 -5.28858 0.788274 0
M  V30 3857 C 353.072 -4.41418 2.7919 0
M  V30 3858 H 354.766 -2.3708 1.82848 0
M  V30 3859 H 352.312 -1.13938 0.880569 0
M  V30 3860 H 354.265 -4.20787 0.227289 0
M  V30 3861 H 352.989 -3.22269 -0.530123 0
M  V30 3862 H 351.648 -3.2979 1.60106 0
M  V30 3863 H 351.296 -5.02709 -0.171173 0
M  V30 3864 H 350.996 -5.69338 1.45353 0
M  V30 3865 H 352.52 -6.07612 0.603282 0
M  V30 3866 H 353.934 -5.08524 2.64719 0
M  V30 3867 H 352.331 -4.92913 3.42282 0
M  V30 3868 H 353.401 -3.51819 3.33693 0
M  V30 3869 N 354.744 -0.972509 -1.24016 0
M  V30 3870 C 355.691 -0.505969 -2.25186 0
M  V30 3871 C 356.661 0.451009 -1.5986 0
M  V30 3872 O 357.846 0.360307 -1.87367 0
M  V30 3873 C 354.986 0.193089 -3.44559 0
M  V30 3874 C 354.099 -0.803222 -4.24467 0
M  V30 3875 C 353.234 -0.0797793 -5.3114 0
M  V30 3876 C 352.273 -1.06583 -6.02749 0
M  V30 3877 N 351.41 -0.372074 -7.01113 0
M  V30 3878 H 356.25 -1.37351 -2.64459 0
M  V30 3879 H 353.787 -0.688419 -1.29997 0
M  V30 3880 H 355.745 0.615125 -4.1264 0
M  V30 3881 H 354.375 1.02455 -3.06109 0
M  V30 3882 H 353.427 -1.34368 -3.55878 0
M  V30 3883 H 354.739 -1.55494 -4.73944 0
M  V30 3884 H 353.893 0.400015 -6.0538 0
M  V30 3885 H 352.632 0.704597 -4.82583 0
M  V30 3886 H 351.637 -1.55645 -5.27309 0
M  V30 3887 H 352.862 -1.85074 -6.53395 0
M  V30 3888 H 350.808 0.393238 -6.5482 0
M  V30 3889 H 350.725 -1.06258 -7.48495 0
M  V30 3890 H 351.993 0.0855932 -7.79453 0
M  V30 3891 N 356.222 1.38976 -0.743202 0
M  V30 3892 C 357.185 2.28901 -0.117014 0
M  V30 3893 C 358.185 1.46698 0.658503 0
M  V30 3894 O 359.375 1.67274 0.486305 0
M  V30 3895 C 356.507 3.30309 0.84315 0
M  V30 3896 H 357.7 2.8578 -0.909373 0
M  V30 3897 H 355.253 1.47761 -0.509547 0
M  V30 3898 H 355.988 2.785 1.66157 0
M  V30 3899 H 355.773 3.91029 0.289594 0
M  V30 3900 H 357.263 3.97577 1.2776 0
M  V30 3901 N 357.7 0.491464 1.49741 0
M  V30 3902 C 358.65 -0.311086 2.25868 0
M  V30 3903 C 359.634 -0.943857 1.30308 0
M  V30 3904 O 360.826 -0.853035 1.55088 0
M  V30 3905 C 357.955 -1.38059 3.14316 0
M  V30 3906 C 357.041 -0.754541 4.17334 0
M  V30 3907 N 357.432 0.137216 5.05614 0
M  V30 3908 C 355.73 -1.01621 4.34269 0
M  V30 3909 C 356.431 0.494614 5.79593 0
M  V30 3910 N 355.407 -0.135169 5.43432 0
M  V30 3911 H 359.209 0.37555 2.91491 0
M  V30 3912 H 356.723 0.306917 1.59473 0
M  V30 3913 H 358.72 -1.96891 3.67477 0
M  V30 3914 H 357.38 -2.06901 2.50244 0
M  V30 3915 H 358.391 0.50741 5.15408 0
M  V30 3916 H 355.068 -1.69808 3.81407 0
M  V30 3917 H 356.458 1.2236 6.60665 0
M  V30 3918 N 359.178 -1.55987 0.224894 0
M  V30 3919 C 360.403 -2.03232 -0.41369 0
M  V30 3920 C 360.828 -1.10359 -1.52323 0
M  V30 3921 O 360.186 -0.092395 -1.81064 0
M  V30 3922 C 360.234 -3.48682 -0.919405 0
M  V30 3923 O 359.338 -3.58947 -2.03054 0
M  V30 3924 H 358.679 -0.657428 -0.0931903 0
M  V30 3925 H 361.209 -2.01679 0.34451 0
M  V30 3926 H 361.219 -3.8907 -1.22835 0
M  V30 3927 H 359.894 -4.15761 -0.107339 0
M  V30 3928 H 358.471 -3.30448 -1.72796 0
M  V30 3929 N 360.656 0.0484629 -1.57525 0
M  V30 3930 C 361.933 0.777447 -1.79486 0
M  V30 3931 C 362.313 1.94597 -0.818251 0
M  V30 3932 O 361.661 2.28047 0.143767 0
M  V30 3933 C 361.871 1.22864 -3.26658 0
M  V30 3934 C 363.219 1.65251 -3.91123 0
M  V30 3935 O 364.243 1.32372 -3.3069 0
M  V30 3936 O 363.102 2.26207 -4.97486 0
M  V30 3937 H 360.196 0.374357 -0.737419 0
M  V30 3938 H 362.742 0.0267359 -1.69679 0
M  V30 3939 H 361.514 0.393589 -3.89316 0
M  V30 3940 H 361.137 2.03996 -3.41279 0
M  V30 3941 N 362.134 1.5431 0.320358 0
M  V30 3942 C 363.382 1.72327 1.05583 0
M  V30 3943 C 363.703 0.50149 1.88441 0
M  V30 3944 O 362.973 -0.48448 1.89815 0
M  V30 3945 H 361.553 0.635387 0.3928 0
M  V30 3946 H 364.215 1.91621 0.356019 0
M  V30 3947 H 363.311 2.60426 1.72003 0
M  V30 3948 N 363.613 -0.582584 1.46437 0
M  V30 3949 C 364.89 -1.34276 1.4223 0
M  V30 3950 C 365.27 -2.10835 0.10583 0
M  V30 3951 O 364.618 -2.09485 -0.912596 0
M  V30 3952 C 364.828 -2.26865 2.65204 0
M  V30 3953 C 366.176 -2.88691 3.11356 0
M  V30 3954 O 367.2 -2.37178 2.65753 0
M  V30 3955 O 366.059 -3.82255 3.90568 0
M  V30 3956 H 363.153 -0.603326 0.565621 0
M  V30 3957 H 365.699 -0.603591 1.58603 0
M  V30 3958 H 364.471 -1.69724 3.52576 0
M  V30 3959 H 364.094 -3.08122 2.5129 0
M  V30 3960 N 365.091 -1.34144 -0.827227 0
M  V30 3961 C 366.337 -1.26446 -1.58554 0
M  V30 3962 C 366.67 0.1664 -1.93486 0
M  V30 3963 O 365.945 1.1107 -1.59667 0
M  V30 3964 C 366.228 -2.15111 -2.8879 0
M  V30 3965 C 366.081 -3.66712 -2.60465 0
M  V30 3966 C 367.4 -2.03311 -3.90324 0
M  V30 3967 H 364.519 -0.46067 -0.575284 0
M  V30 3968 H 367.161 -1.64356 -0.953269 0
M  V30 3969 H 365.311 -1.8291 -3.42748 0
M  V30 3970 H 366.983 -4.09259 -2.1285 0
M  V30 3971 H 365.226 -3.88014 -1.93978 0
M  V30 3972 H 365.897 -4.24112 -3.53317 0
M  V30 3973 H 368.373 -2.31574 -3.45706 0
M  V30 3974 H 367.249 -2.67582 -4.79261 0
M  V30 3975 H 367.51 -1.00879 -4.30437 0
M  V30 3976 N 366.569 1.04691 -1.17803 0
M  V30 3977 C 367.499 2.14494 -0.92275 0
M  V30 3978 C 368.48 1.69546 0.137179 0
M  V30 3979 O 369.665 1.94195 -0.0141108 0
M  V30 3980 C 366.795 3.44491 -0.440803 0
M  V30 3981 C 365.749 4.03031 -1.4405 0
M  V30 3982 C 365.075 5.28432 -0.81631 0
M  V30 3983 C 366.375 4.39932 -2.81527 0
M  V30 3984 H 368.069 2.36107 -1.84103 0
M  V30 3985 H 365.615 1.1347 -0.886599 0
M  V30 3986 H 367.568 4.2066 -0.249602 0
M  V30 3987 H 366.292 3.22546 0.513025 0
M  V30 3988 H 364.951 3.28937 -1.61853 0
M  V30 3989 H 364.599 5.02792 0.144511 0
M  V30 3990 H 364.299 5.68559 -1.48371 0
M  V30 3991 H 365.823 6.07284 -0.635496 0
M  V30 3992 H 367.237 5.07113 -2.67412 0
M  V30 3993 H 365.634 4.9109 -3.44892 0
M  V30 3994 H 366.704 3.50045 -3.35554 0
M  V30 3995 N 368.047 0.979072 1.23499 0
M  V30 3996 C 369.01 0.523244 2.23147 0
M  V30 3997 C 370.01 -0.386406 1.56088 0
M  V30 3998 O 371.2 -0.180283 1.73265 0
M  V30 3999 C 368.332 -0.240739 3.40049 0
M  V30 4000 H 369.525 1.40432 2.64989 0
M  V30 4001 H 367.078 0.764824 1.36309 0
M  V30 4002 H 367.813 -1.13841 3.03662 0
M  V30 4003 H 367.598 0.412207 3.89927 0
M  V30 4004 H 369.088 -0.548297 4.13985 0
M  V30 4005 N 369.525 -1.3858 0.750561 0
M  V30 4006 C 370.475 -2.27795 0.0965949 0
M  V30 4007 C 371.459 -1.45048 -0.696411 0
M  V30 4008 O 372.651 -1.67812 -0.562863 0
M  V30 4009 C 369.78 -3.33894 -0.798085 0
M  V30 4010 C 368.866 -4.241 0.0016067 0
M  V30 4011 N 369.257 -4.95067 1.03647 0
M  V30 4012 C 367.555 -4.45429 -0.225674 0
M  V30 4013 C 368.256 -5.61489 1.52004 0
M  V30 4014 N 367.232 -5.37135 0.835874 0
M  V30 4015 H 371.034 -2.80125 0.889228 0
M  V30 4016 H 368.548 -1.51446 0.586323 0
M  V30 4017 H 370.545 -3.96693 -1.28219 0
M  V30 4018 H 369.205 -2.83123 -1.5897 0
M  V30 4019 H 370.216 -4.98104 1.41819 0
M  V30 4020 H 366.893 -4.05571 -0.990872 0
M  V30 4021 H 368.283 -6.28264 2.38188 0
M  V30 4022 N 371.003 -0.499398 -1.49478 0
M  V30 4023 C 372.228 0.044722 -2.07352 0
M  V30 4024 C 372.653 1.30207 -1.35749 0
M  V30 4025 O 372.011 1.76516 -0.413732 0
M  V30 4026 C 372.059 0.283013 -3.59488 0
M  V30 4027 O 371.163 1.35804 -3.89398 0
M  V30 4028 H 370.504 -0.0255147 -0.66351 0
M  V30 4029 H 373.034 -0.698561 -1.92305 0
M  V30 4030 H 373.044 0.515007 -4.04737 0
M  V30 4031 H 371.719 -0.635636 -4.11014 0
M  V30 4032 H 370.296 1.11113 -3.55961 0
M  V30 4033 N 372.481 1.55866 -0.233164 0
M  V30 4034 C 373.411 2.23783 0.666599 0
M  V30 4035 C 374.392 1.21343 1.19205 0
M  V30 4036 O 375.577 1.4996 1.23392 0
M  V30 4037 C 372.707 2.92671 1.86978 0
M  V30 4038 C 371.661 4.01682 1.47768 0
M  V30 4039 C 370.987 4.57926 2.76058 0
M  V30 4040 C 372.287 5.18126 0.658993 0
M  V30 4041 H 373.981 2.99232 0.100306 0
M  V30 4042 H 371.527 1.43924 0.046804 0
M  V30 4043 H 373.48 3.3888 2.50476 0
M  V30 4044 H 372.204 2.14688 2.46123 0
M  V30 4045 H 370.863 3.56222 0.866106 0
M  V30 4046 H 370.511 3.76659 3.33372 0
M  V30 4047 H 370.211 5.31505 2.50552 0
M  V30 4048 H 371.735 5.06859 3.40479 0
M  V30 4049 H 373.149 5.60644 1.19795 0
M  V30 4050 H 371.546 5.98009 0.500552 0
M  V30 4051 H 372.616 4.83763 -0.331856 0
M  V30 4052 N 373.959 -0.0401083 1.57549 0
M  V30 4053 C 375.187 -0.745196 1.93014 0
M  V30 4054 C 375.602 -1.6948 0.831984 0
M  V30 4055 O 374.959 -1.81482 -0.192463 0
M  V30 4056 C 375.01 -1.51176 3.28372 0
M  V30 4057 O 374.731 -0.600284 4.33968 0
M  V30 4058 C 376.232 -2.315 3.78051 0
M  V30 4059 H 373.452 -0.210088 0.637263 0
M  V30 4060 H 375.996 -0.000924689 2.045 0
M  V30 4061 H 374.151 -2.20801 3.18317 0
M  V30 4062 H 374.565 -1.13669 5.12035 0
M  V30 4063 H 376.039 -2.80697 4.75303 0
M  V30 4064 H 376.516 -3.12436 3.08675 0
M  V30 4065 H 377.122 -1.66971 3.91153 0
M  V30 4066 N 375.437 -1.54477 -0.31217 0
M  V30 4067 C 376.714 -1.63891 -1.06767 0
M  V30 4068 C 377.094 -0.480028 -2.0557 0
M  V30 4069 O 376.442 0.524487 -2.22399 0
M  V30 4070 C 376.652 -3.01402 -1.75948 0
M  V30 4071 C 378 -3.57838 -2.28554 0
M  V30 4072 O 379.024 -3.03782 -1.85998 0
M  V30 4073 O 377.883 -4.52462 -3.06497 0
M  V30 4074 H 374.977 -0.664125 -0.492816 0
M  V30 4075 H 377.523 -1.66823 -0.311149 0
M  V30 4076 H 376.295 -3.77187 -1.04144 0
M  V30 4077 H 375.918 -3.02199 -2.58383 0
M  V30 4078 N 376.915 0.57481 -1.46744 0
M  V30 4079 C 377.878 1.66533 -1.57478 0
M  V30 4080 C 378.878 1.54338 -0.451263 0
M  V30 4081 O 380.068 1.58814 -0.715813 0
M  V30 4082 C 377.2 3.05999 -1.50259 0
M  V30 4083 H 378.393 1.58372 -2.54673 0
M  V30 4084 H 375.946 0.793301 -1.34672 0
M  V30 4085 H 376.681 3.19709 -0.543725 0
M  V30 4086 H 376.466 3.16259 -2.31781 0
M  V30 4087 H 377.956 3.8537 -1.60872 0
M  V30 4088 N 378.394 1.34581 0.820102 0
M  V30 4089 C 379.643 1.26437 1.57151 0
M  V30 4090 C 379.956 -0.163111 1.94919 0
M  V30 4091 O 381.162 -0.366722 2.69012 0
M  V30 4092 C 379.618 2.21658 2.83541 0
M  V30 4093 C 379.226 3.69679 2.53065 0
M  V30 4094 C 380.97 2.22428 3.61561 0
M  V30 4095 C 378.877 4.56761 3.75664 0
M  V30 4096 H 377.807 0.469707 0.589823 0
M  V30 4097 H 380.458 1.59763 0.902656 0
M  V30 4098 H 378.84 1.81287 3.52067 0
M  V30 4099 H 380.014 4.18605 1.92631 0
M  V30 4100 H 378.329 3.71384 1.88316 0
M  V30 4101 H 380.926 2.8471 4.52597 0
M  V30 4102 H 381.269 1.22434 3.97889 0
M  V30 4103 H 381.802 2.61259 2.99981 0
M  V30 4104 H 378.541 5.57702 3.44454 0
M  V30 4105 H 378.061 4.12568 4.35371 0
M  V30 4106 H 379.74 4.71509 4.43044 0
M  V30 4107 N 379.872 -1.04064 1.18357 0
M  V30 4108 C 380.802 -2.14001 0.934113 0
M  V30 4109 C 381.783 -1.69616 -0.128186 0
M  V30 4110 O 382.968 -1.94185 0.0244093 0
M  V30 4111 C 380.098 -3.44253 0.459066 0
M  V30 4112 C 379.052 -4.02261 1.46185 0
M  V30 4113 C 378.378 -5.27992 0.844322 0
M  V30 4114 C 379.678 -4.38432 2.83856 0
M  V30 4115 H 381.372 -2.35127 1.85352 0
M  V30 4116 H 378.918 -1.12998 0.892604 0
M  V30 4117 H 380.871 -4.20522 0.271907 0
M  V30 4118 H 379.595 -3.22813 -0.495912 0
M  V30 4119 H 378.254 -3.28074 1.63595 0
M  V30 4120 H 377.902 -5.02862 -0.117845 0
M  V30 4121 H 377.602 -5.67765 1.51384 0
M  V30 4122 H 379.126 -6.06938 0.667693 0
M  V30 4123 H 380.54 -5.05688 2.70098 0
M  V30 4124 H 378.937 -4.89254 3.47491 0
M  V30 4125 H 380.007 -3.4826 3.37406 0
M  V30 4126 N 381.35 -0.985608 -1.22978 0
M  V30 4127 C 382.598 -0.656087 -1.91154 0
M  V30 4128 C 382.919 0.813561 -1.77218 0
M  V30 4129 O 382.189 1.58244 -1.1548 0
M  V30 4130 H 380.769 -0.239674 -0.707506 0
M  V30 4131 H 383.431 -1.25054 -1.49491 0
M  V30 4132 H 382.527 -0.912253 -2.9847 0
M  V30 4133 N 382.828 1.3818 -0.7579 0
M  V30 4134 C 383.791 2.28764 -0.141286 0
M  V30 4135 C 384.791 1.47388 0.642907 0
M  V30 4136 O 385.981 1.67781 0.468536 0
M  V30 4137 C 383.113 3.31184 0.808069 0
M  V30 4138 H 384.306 2.848 -0.939633 0
M  V30 4139 H 381.859 1.47212 -0.525191 0
M  V30 4140 H 382.594 2.80247 1.63193 0
M  V30 4141 H 382.379 3.91314 0.248104 0
M  V30 4142 H 383.869 3.98909 1.23536 0
M  V30 4143 N 384.306 0.507319 1.49211 0
M  V30 4144 C 385.269 -0.256763 2.27757 0
M  V30 4145 C 386.269 -0.888287 1.34038 0
M  V30 4146 O 387.459 -0.751841 1.5714 0
M  V30 4147 C 384.591 -1.36905 3.12202 0
M  V30 4148 H 385.784 0.432557 2.96764 0
M  V30 4149 H 383.337 0.262488 1.5408 0
M  V30 4150 H 384.072 -2.09233 2.47775 0
M  V30 4151 H 383.857 -0.921599 3.81115 0
M  V30 4152 H 385.347 -1.9071 3.7151 0
M  V30 4153 N 385.784 -1.5574 0.241426 0
M  V30 4154 C 387.032 -1.98417 -0.384075 0
M  V30 4155 C 387.353 -1.13078 -1.58866 0
M  V30 4156 O 386.623 -0.212312 -1.94746 0
M  V30 4157 H 385.203 -0.732813 -0.144894 0
M  V30 4158 H 387.865 -1.9193 0.338943 0
M  V30 4159 H 386.961 -3.04219 -0.696939 0
M  V30 4160 N 387.262 0.0317525 -1.57568 0
M  V30 4161 C 388.192 1.03274 -2.0942 0
M  V30 4162 C 389.173 1.3788 -0.996143 0
M  V30 4163 O 390.358 1.46811 -1.27122 0
M  V30 4164 C 387.488 2.33448 -2.57137 0
M  V30 4165 C 386.442 2.13091 -3.71182 0
M  V30 4166 C 385.768 3.49001 -4.05095 0
M  V30 4167 C 387.068 1.51928 -4.99715 0
M  V30 4168 H 388.762 0.60112 -2.93303 0
M  V30 4169 H 386.308 0.287705 -1.41097 0
M  V30 4170 H 388.261 3.03802 -2.92032 0
M  V30 4171 H 386.985 2.78665 -1.70333 0
M  V30 4172 H 385.644 1.45171 -3.36632 0
M  V30 4173 H 385.292 3.91862 -3.15362 0
M  V30 4174 H 384.992 3.36207 -4.81911 0
M  V30 4175 H 386.516 4.20721 -4.42522 0
M  V30 4176 H 387.93 2.12196 -5.32584 0
M  V30 4177 H 386.327 1.49716 -5.81124 0
M  V30 4178 H 387.397 0.484811 -4.8247 0
M  V30 4179 N 388.74 1.54641 0.303973 0
M  V30 4180 C 389.988 1.73437 1.0375 0
M  V30 4181 C 390.309 0.521449 1.87899 0
M  V30 4182 O 389.579 -0.46432 1.90318 0
M  V30 4183 H 388.159 0.639518 0.386039 0
M  V30 4184 H 390.821 1.91988 0.335675 0
M  V30 4185 H 389.917 2.62235 1.69231 0
M  V30 4186 N 390.218 -0.567019 1.47046 0
M  V30 4187 C 391.495 -1.3276 1.43646 0
M  V30 4188 C 391.875 -2.1071 0.128186 0
M  V30 4189 O 391.223 -2.10441 -0.890326 0
M  V30 4190 C 391.433 -2.2404 2.67595 0
M  V30 4191 C 392.781 -2.85372 3.14401 0
M  V30 4192 O 393.805 -2.34346 2.68254 0
M  V30 4193 O 392.664 -3.78091 3.946 0
M  V30 4194 H 389.758 -0.597293 0.571988 0
M  V30 4195 H 392.304 -0.586735 1.59234 0
M  V30 4196 H 391.076 -1.65975 3.54356 0
M  V30 4197 H 390.699 -3.05439 2.54544 0
M  V30 4198 N 391.696 -1.35014 -0.812953 0
M  V30 4199 C 392.945 -1.27269 -1.56479 0
M  V30 4200 C 393.258 0.152771 -1.95002 0
M  V30 4201 O 394.464 0.352451 -2.69203 0
M  V30 4202 C 392.92 -2.23159 -2.82362 0
M  V30 4203 C 392.528 -3.71016 -2.511 0
M  V30 4204 C 394.272 -2.24342 -3.60376 0
M  V30 4205 C 392.179 -4.58746 -3.73237 0
M  V30 4206 H 391.109 -0.472829 -0.587324 0
M  V30 4207 H 393.76 -1.6024 -0.894171 0
M  V30 4208 H 392.142 -1.83151 -3.51101 0
M  V30 4209 H 393.316 -4.1962 -1.90409 0
M  V30 4210 H 391.631 -3.72378 -1.86343 0
M  V30 4211 H 394.228 -2.87107 -4.51081 0
M  V30 4212 H 394.571 -1.24542 -3.97234 0
M  V30 4213 H 395.104 -2.62846 -2.98591 0
M  V30 4214 H 391.843 -5.59521 -3.41492 0
M  V30 4215 H 391.363 -4.14871 -4.33176 0
M  V30 4216 H 393.042 -4.73852 -4.40537 0
M  V30 4217 N 393.175 1.03435 -1.18907 0
M  V30 4218 C 394.423 1.76394 -0.986382 0
M  V30 4219 C 394.744 1.88883 0.484567 0
M  V30 4220 O 394.014 1.41843 1.3512 0
M  V30 4221 H 392.594 0.65344 -0.361975 0
M  V30 4222 H 395.256 1.248 -1.49703 0
M  V30 4223 H 394.352 2.77424 -1.42978 0
M  V30 4224 N 394.653 0.992116 1.22453 0
M  V30 4225 C 395.563 0.55065 2.28046 0
M  V30 4226 C 396.579 -0.400189 1.69335 0
M  V30 4227 O 397.755 -0.267215 1.99619 0
M  V30 4228 C 394.82 -0.128496 3.46462 0
M  V30 4229 C 393.881 0.865208 4.20491 0
M  V30 4230 C 393.114 0.218377 5.33253 0
M  V30 4231 O 393.337 -0.987894 5.6178 0
M  V30 4232 O 392.271 0.922845 5.94783 0
M  V30 4233 H 396.097 1.4291 2.67975 0
M  V30 4234 H 393.682 0.760326 1.28606 0
M  V30 4235 H 395.564 -0.508947 4.18315 0
M  V30 4236 H 394.239 -0.981526 3.0846 0
M  V30 4237 H 393.146 1.29658 3.50913 0
M  V30 4238 H 394.479 1.68741 4.62371 0
M  V30 4239 N 396.131 -1.37776 0.765217 0
M  V30 4240 C 397.061 -2.32945 0.160953 0
M  V30 4241 C 398.042 -1.55454 -0.690516 0
M  V30 4242 O 399.227 -1.83721 -0.629318 0
M  V30 4243 C 396.357 -3.39669 -0.724031 0
M  V30 4244 C 395.311 -4.27992 0.0256173 0
M  V30 4245 C 394.637 -5.25673 -0.978383 0
M  V30 4246 C 395.937 -5.08309 1.20082 0
M  V30 4247 H 397.631 -2.83728 0.955969 0
M  V30 4248 H 395.177 -1.36416 0.461149 0
M  V30 4249 H 397.13 -4.05219 -1.15652 0
M  V30 4250 H 395.854 -2.87396 -1.5515 0
M  V30 4251 H 394.513 -3.63964 0.438812 0
M  V30 4252 H 394.161 -4.69682 -1.80022 0
M  V30 4253 H 393.861 -5.85625 -0.481378 0
M  V30 4254 H 395.385 -5.94098 -1.40995 0
M  V30 4255 H 396.799 -5.67034 0.845307 0
M  V30 4256 H 395.196 -5.77554 1.62947 0
M  V30 4257 H 396.266 -4.41365 2.00811 0
M  V30 4258 N 397.609 -0.515225 -1.4894 0
M  V30 4259 C 398.839 0.0205735 -2.0659 0
M  V30 4260 C 399.247 1.30064 -1.37405 0
M  V30 4261 O 398.59 1.78087 -0.450632 0
M  V30 4262 C 398.652 0.330124 -3.57981 0
M  V30 4263 C 398.316 -0.854295 -4.48944 0
M  V30 4264 C 399.313 -1.7487 -4.89609 0
M  V30 4265 C 396.998 -1.05712 -4.9105 0
M  V30 4266 C 398.992 -2.82996 -5.71132 0
M  V30 4267 C 396.679 -2.14154 -5.72347 0
M  V30 4268 C 397.677 -3.0263 -6.12294 0
M  V30 4269 O 397.365 -4.09198 -6.91962 0
M  V30 4270 H 397.097 -0.0236833 -0.675585 0
M  V30 4271 H 399.651 -0.715956 -1.92518 0
M  V30 4272 H 397.881 1.12044 -3.70112 0
M  V30 4273 H 399.57 0.806233 -3.97812 0
M  V30 4274 H 400.336 -1.60388 -4.57712 0
M  V30 4275 H 396.215 -0.377788 -4.59449 0
M  V30 4276 H 399.759 -3.52083 -6.02232 0
M  V30 4277 H 395.656 -2.28626 -6.03656 0
M  V30 4278 H 396.424 -4.06726 -7.10293 0
M  V30 4279 N 399.087 1.5561 -0.249682 0
M  V30 4280 C 400.498 1.84979 0.252949 0
M  V30 4281 C 400.849 1.17153 1.57384 0
M  V30 4282 O 399.974 0.450884 2.11651 0
M  V30 4283 C 400.569 3.35584 0.465732 0
M  V30 4284 C 399.128 3.65169 0.912624 0
M  V30 4285 C 398.275 2.77299 -0.00859085 0
M  V30 4286 H 401.226 1.51513 -0.47217 0
M  V30 4287 H 401.247 3.57313 1.30795 0
M  V30 4288 H 400.759 3.8492 -0.49579 0
M  V30 4289 H 398.86 3.21312 1.88652 0
M  V30 4290 H 398.973 4.72912 0.767559 0
M  V30 4291 H 397.337 2.49678 0.50327 0
M  V30 4292 H 398.12 3.29442 -0.965537 0
M  V30 4293 N 400.565 -0.0233959 1.57583 0
M  V30 4294 C 401.842 -0.748794 1.807 0
M  V30 4295 C 402.222 -1.9327 0.849106 0
M  V30 4296 O 401.57 -2.28247 -0.107468 0
M  V30 4297 C 401.78 -1.17651 3.28571 0
M  V30 4298 C 403.128 -1.59008 3.93702 0
M  V30 4299 O 404.152 -1.27094 3.32755 0
M  V30 4300 O 403.011 -2.18264 5.01022 0
M  V30 4301 H 400.105 -0.362578 0.743281 0
M  V30 4302 H 402.651 0.000261958 1.697 0
M  V30 4303 H 401.423 -0.331603 3.89892 0
M  V30 4304 H 401.046 -1.98541 3.44481 0
M  V30 4305 N 402.043 -1.548 -0.295768 0
M  V30 4306 C 403.271 -1.78327 -1.04914 0
M  V30 4307 C 403.686 -0.545316 -1.80753 0
M  V30 4308 O 403.043 0.485013 -1.75937 0
M  V30 4309 C 403.094 -2.99418 -2.02561 0
M  V30 4310 O 402.815 -4.18431 -1.29798 0
M  V30 4311 C 404.316 -3.35375 -2.89895 0
M  V30 4312 H 401.536 -0.594618 -0.310918 0
M  V30 4313 H 404.08 -2.01763 -0.333454 0
M  V30 4314 H 402.235 -2.78175 -2.69624 0
M  V30 4315 H 402.649 -4.86736 -1.95419 0
M  V30 4316 H 404.123 -4.23332 -3.54251 0
M  V30 4317 H 404.6 -2.53761 -3.58472 0
M  V30 4318 H 405.206 -3.58796 -2.28355 0
M  V30 4319 N 403.521 0.559213 -1.47345 0
M  V30 4320 C 404.798 1.31997 -1.44348 0
M  V30 4321 C 405.178 2.1064 -0.139358 0
M  V30 4322 O 404.526 2.1091 0.879153 0
M  V30 4323 C 404.736 2.22618 -2.68779 0
M  V30 4324 C 406.084 2.83701 -3.1591 0
M  V30 4325 O 407.108 2.32921 -2.69493 0
M  V30 4326 O 405.967 3.75993 -3.966 0
M  V30 4327 H 403.061 0.594251 -0.575147 0
M  V30 4328 H 405.607 0.578282 -1.59543 0
M  V30 4329 H 404.379 1.64093 -3.55231 0
M  V30 4330 H 404.002 3.04085 -2.5616 0
M  V30 4331 N 404.999 1.35443 0.805782 0
M  V30 4332 C 405.932 1.22783 1.92353 0
M  V30 4333 C 406.91 0.115543 1.62189 0
M  V30 4334 O 408.094 0.283778 1.86352 0
M  V30 4335 C 405.221 0.890746 3.26777 0
M  V30 4336 C 404.267 2.01519 3.75889 0
M  V30 4337 S 405.1 3.63101 3.93596 0
M  V30 4338 C 406.256 3.31472 5.30921 0
M  V30 4339 H 406.489 2.17394 2.02798 0
M  V30 4340 H 404.022 1.20669 0.963245 0
M  V30 4341 H 405.98 0.703068 4.04434 0
M  V30 4342 H 404.641 -0.0373152 3.14078 0
M  V30 4343 H 403.834 1.7335 4.7325 0
M  V30 4344 H 403.436 2.16124 3.05231 0
M  V30 4345 H 405.728 2.8435 6.1494 0
M  V30 4346 H 406.671 4.28036 5.64084 0
M  V30 4347 H 407.079 2.67221 4.97246 0
M  V30 4348 N 406.477 -1.02803 1.19454 0
M  V30 4349 C 407.424 -2.11099 0.933046 0
M  V30 4350 C 408.394 -1.65571 -0.132447 0
M  V30 4351 O 409.579 -1.90797 0.00987576 0
M  V30 4352 C 406.719 -3.41763 0.478747 0
M  V30 4353 C 405.832 -4.00833 1.6111 0
M  V30 4354 C 404.967 -5.19511 1.10825 0
M  V30 4355 C 404.006 -5.70639 2.21445 0
M  V30 4356 N 403.143 -6.80589 1.72461 0
M  V30 4357 H 407.983 -2.32804 1.86028 0
M  V30 4358 H 405.52 -1.14179 0.927441 0
M  V30 4359 H 407.478 -4.16736 0.196745 0
M  V30 4360 H 406.108 -3.20166 -0.411493 0
M  V30 4361 H 405.16 -3.23066 2.00829 0
M  V30 4362 H 406.472 -4.34794 2.4445 0
M  V30 4363 H 405.626 -6.01645 0.781533 0
M  V30 4364 H 404.365 -4.87086 0.244606 0
M  V30 4365 H 403.37 -4.87116 2.54947 0
M  V30 4366 H 404.595 -6.05102 3.08267 0
M  V30 4367 H 402.541 -6.50016 0.884056 0
M  V30 4368 H 402.458 -7.13681 2.49389 0
M  V30 4369 H 403.726 -7.66317 1.42755 0
M  V30 4370 N 407.956 -0.998596 -1.21925 0
M  V30 4371 C 409.203 -0.677663 -1.90824 0
M  V30 4372 C 409.531 0.790905 -1.77693 0
M  V30 4373 O 408.786 1.58817 -1.14349 0
M  V30 4374 C 409.085 -1.03648 -3.42041 0
M  V30 4375 C 408.751 -2.49825 -3.75364 0
M  V30 4376 C 407.413 -2.8977 -3.8417 0
M  V30 4377 C 409.765 -3.44545 -3.91073 0
M  V30 4378 C 407.093 -4.23412 -4.06127 0
M  V30 4379 C 409.445 -4.77853 -4.14535 0
M  V30 4380 C 408.109 -5.17531 -4.21566 0
M  V30 4381 H 407.379 -0.247975 -0.698276 0
M  V30 4382 H 410.026 -1.25584 -1.44571 0
M  V30 4383 H 408.331 -0.376457 -3.89987 0
M  V30 4384 H 410.028 -0.766113 -3.93614 0
M  V30 4385 H 406.618 -2.17866 -3.69097 0
M  V30 4386 H 410.802 -3.14853 -3.83642 0
M  V30 4387 H 406.058 -4.53734 -4.09799 0
M  V30 4388 H 410.232 -5.51189 -4.25633 0
M  V30 4389 H 407.859 -6.21102 -4.38333 0
M  V30 4390 N 409.434 1.37368 -0.772513 0
M  V30 4391 C 410.381 2.30262 -0.157488 0
M  V30 4392 C 411.351 1.51137 0.688965 0
M  V30 4393 O 412.536 1.79704 0.641168 0
M  V30 4394 C 409.676 3.37611 0.715045 0
M  V30 4395 C 408.789 4.31746 -0.148098 0
M  V30 4396 C 407.924 5.26171 0.729213 0
M  V30 4397 C 406.963 6.11948 -0.136418 0
M  V30 4398 N 406.1 6.98613 0.698914 0
M  V30 4399 H 410.94 2.82277 -0.955179 0
M  V30 4400 H 408.477 1.38957 -0.482631 0
M  V30 4401 H 410.435 3.98479 1.23575 0
M  V30 4402 H 409.065 2.86959 1.47833 0
M  V30 4403 H 408.117 3.72178 -0.786613 0
M  V30 4404 H 409.429 4.92084 -0.81579 0
M  V30 4405 H 408.583 5.92247 1.31637 0
M  V30 4406 H 407.322 4.66246 1.43059 0
M  V30 4407 H 406.327 5.4485 -0.736102 0
M  V30 4408 H 407.552 6.73945 -0.835134 0
M  V30 4409 H 405.498 6.41215 1.38489 0
M  V30 4410 H 405.415 7.55948 0.0885358 0
M  V30 4411 H 406.683 7.69077 1.27044 0
M  V30 4412 N 410.912 0.523116 1.48665 0
M  V30 4413 C 411.86 -0.256859 2.31177 0
M  V30 4414 C 412.854 -0.94199 1.40794 0
M  V30 4415 O 414.06 -0.867157 1.57735 0
M  V30 4416 H 410.435 -0.1017 0.745091 0
M  V30 4417 H 412.406 0.458739 2.94853 0
M  V30 4418 C 411.155 -1.29503 3.22683 0
M  V30 4419 H 410.478 -0.777248 3.92172 0
M  V30 4420 H 411.918 -1.81233 3.83315 0
M  V30 4421 C 410.377 -2.32501 2.43813 0
M  V30 4422 O 410.907 -3.3881 2.15803 0
M  V30 4423 N 409.113 -2.05538 2.05432 0
M  V30 4424 H 408.66 -1.19104 2.28412 0
M  V30 4425 H 408.618 -2.74676 1.52973 0
M  V30 4426 N 412.39 -1.55475 0.257931 0
M  V30 4427 C 413.353 -2.20551 -0.623706 0
M  V30 4428 C 414.353 -1.17809 -1.09443 0
M  V30 4429 O 415.543 -1.42823 -0.997362 0
M  V30 4430 C 412.675 -2.85784 -1.8585 0
M  V30 4431 H 413.868 -2.99848 -0.0557743 0
M  V30 4432 H 411.421 -1.56298 0.0084422 0
M  V30 4433 H 412.156 -2.10453 -2.46739 0
M  V30 4434 H 411.941 -3.61057 -1.52907 0
M  V30 4435 H 413.431 -3.35553 -2.48584 0
M  V30 4436 N 413.868 0.0150385 -1.57593 0
M  V30 4437 C 414.816 1.02958 -2.08572 0
M  V30 4438 C 415.81 1.36554 -1.00246 0
M  V30 4439 O 417.016 1.35295 -1.18724 0
M  V30 4440 H 413.391 0.349619 -0.665786 0
M  V30 4441 H 415.362 0.573932 -2.92829 0
M  V30 4442 C 414.111 2.31752 -2.59203 0
M  V30 4443 H 413.434 2.06765 -3.42182 0
M  V30 4444 H 414.874 3.01053 -2.98568 0
M  V30 4445 C 413.333 3.01692 -1.49945 0
M  V30 4446 O 413.863 3.92083 -0.873704 0
M  V30 4447 N 412.069 2.6326 -1.23056 0
M  V30 4448 H 411.616 1.89838 -1.74125 0
M  V30 4449 H 411.574 3.10372 -0.501685 0
M  V30 4450 N 415.346 1.54954 0.287554 0
M  V30 4451 C 416.571 1.79209 1.04397 0
M  V30 4452 C 416.996 0.556431 1.79682 0
M  V30 4453 O 416.354 -0.493518 1.74454 0
M  V30 4454 C 416.402 3.00739 1.98969 0
M  V30 4455 O 415.506 2.74805 3.075 0
M  V30 4456 H 414.847 0.592755 0.299227 0
M  V30 4457 H 417.377 2.02068 0.320886 0
M  V30 4458 H 417.387 3.29077 2.4119 0
M  V30 4459 H 416.062 3.90329 1.43582 0
M  V30 4460 H 414.639 2.57523 2.69697 0
M  V30 4461 N 416.824 -0.551391 1.4764 0
M  V30 4462 C 417.757 -1.6738 1.5511 0
M  V30 4463 C 418.735 -1.5753 0.402856 0
M  V30 4464 O 419.919 -1.78307 0.611475 0
M  V30 4465 C 417.046 -3.05661 1.45908 0
M  V30 4466 C 416.092 -3.33938 2.65307 0
M  V30 4467 S 416.925 -3.22553 4.27457 0
M  V30 4468 C 418.081 -4.63317 4.20818 0
M  V30 4469 H 418.314 -1.6079 2.50068 0
M  V30 4470 H 415.847 -0.732674 1.35909 0
M  V30 4471 H 417.805 -3.8542 1.41286 0
M  V30 4472 H 416.466 -3.09711 0.523248 0
M  V30 4473 H 415.659 -4.34761 2.54948 0
M  V30 4474 H 415.261 -2.61809 2.67081 0
M  V30 4475 H 417.553 -5.54391 3.89431 0
M  V30 4476 H 418.496 -4.78732 5.21748 0
M  V30 4477 H 418.904 -4.41636 3.51593 0
M  V30 4478 N 418.302 -1.35869 -0.798587 0
M  V30 4479 C 419.212 -1.31578 -1.94228 0
M  V30 4480 C 420.228 -0.21939 -1.72611 0
M  V30 4481 O 421.404 -0.450167 -1.96305 0
M  V30 4482 C 418.469 -1.09528 -3.28944 0
M  V30 4483 C 417.53 -2.28556 -3.63402 0
M  V30 4484 C 416.763 -2.07549 -4.9169 0
M  V30 4485 O 416.986 -1.046 -5.60727 0
M  V30 4486 O 415.92 -2.95106 -5.24591 0
M  V30 4487 H 419.746 -2.27847 -2.00796 0
M  V30 4488 H 417.331 -1.16322 -0.937526 0
M  V30 4489 H 419.213 -0.991127 -4.09579 0
M  V30 4490 H 417.888 -0.16315 -3.23289 0
M  V30 4491 H 416.795 -2.44538 -2.83112 0
M  V30 4492 H 418.128 -3.20244 -3.73771 0
M  V30 4493 N 419.78 1.02168 -1.19998 0
M  V30 4494 C 420.71 2.12488 -0.96804 0
M  V30 4495 C 421.691 1.69799 0.101185 0
M  V30 4496 O 422.876 1.94121 -0.0552993 0
M  V30 4497 C 420.006 3.43479 -0.513776 0
M  V30 4498 C 418.96 3.99884 -1.52566 0
M  V30 4499 C 418.286 5.26582 -0.928214 0
M  V30 4500 C 419.586 4.33861 -2.90795 0
M  V30 4501 H 421.28 2.32149 -1.89069 0
M  V30 4502 H 418.826 1.11564 -0.910468 0
M  V30 4503 H 420.779 4.20036 -0.338774 0
M  V30 4504 H 419.503 3.23561 0.444493 0
M  V30 4505 H 418.162 3.25429 -1.68794 0
M  V30 4506 H 417.81 5.02986 0.0378289 0
M  V30 4507 H 417.51 5.65284 -1.60397 0
M  V30 4508 H 419.034 6.05799 -0.764167 0
M  V30 4509 H 420.448 5.01327 -2.78109 0
M  V30 4510 H 418.845 4.83664 -3.55231 0
M  V30 4511 H 419.915 3.42848 -3.42904 0
M  V30 4512 N 421.258 1.00505 1.21394 0
M  V30 4513 C 422.188 0.585684 2.26035 0
M  V30 4514 C 423.169 -0.393525 1.65485 0
M  V30 4515 O 424.354 -0.281497 1.92149 0
M  V30 4516 C 421.484 -0.0884283 3.47187 0
M  V30 4517 C 420.438 0.810567 4.20254 0
M  V30 4518 C 419.764 0.00286382 5.347 0
M  V30 4519 C 421.064 2.1132 4.77641 0
M  V30 4520 H 422.758 1.46039 2.61368 0
M  V30 4521 H 420.304 0.703648 1.25638 0
M  V30 4522 H 422.257 -0.393286 4.19561 0
M  V30 4523 H 420.981 -0.997766 3.10986 0
M  V30 4524 H 419.64 1.09925 3.49731 0
M  V30 4525 H 419.288 -0.907765 4.94741 0
M  V30 4526 H 418.988 0.601444 5.84514 0
M  V30 4527 H 420.512 -0.295808 6.09883 0
M  V30 4528 H 421.926 1.87148 5.41893 0
M  V30 4529 H 420.323 2.66164 5.37845 0
M  V30 4530 H 421.393 2.78393 3.9702 0
M  V30 4531 N 422.737 -1.36956 0.779787 0
M  V30 4532 C 423.684 -2.30175 0.169697 0
M  V30 4533 C 424.654 -1.51501 -0.68094 0
M  V30 4534 O 425.839 -1.80042 -0.631629 0
M  V30 4535 C 422.979 -3.37985 -0.697131 0
M  V30 4536 C 422.092 -4.31661 0.170992 0
M  V30 4537 C 421.227 -5.2655 -0.701298 0
M  V30 4538 C 420.266 -6.11867 0.168869 0
M  V30 4539 N 419.403 -6.98973 -0.661855 0
M  V30 4540 H 424.243 -2.81767 0.970135 0
M  V30 4541 H 421.78 -1.38699 0.489994 0
M  V30 4542 H 423.738 -3.99128 -1.2146 0
M  V30 4543 H 422.368 -2.87739 -1.46309 0
M  V30 4544 H 421.42 -3.71756 0.80634 0
M  V30 4545 H 422.732 -4.91644 0.841875 0
M  V30 4546 H 421.886 -5.92937 -1.28494 0
M  V30 4547 H 420.625 -4.66998 -1.40584 0
M  V30 4548 H 419.63 -5.44452 0.764986 0
M  V30 4549 H 420.855 -6.73493 0.870863 0
M  V30 4550 H 418.801 -6.41941 -1.35086 0
M  V30 4551 H 418.718 -7.55984 -0.0484447 0
M  V30 4552 H 419.986 -7.6974 -1.22963 0
M  V30 4553 N 424.215 -0.530993 -1.48385 0
M  V30 4554 C 425.147 0.268353 -2.27624 0
M  V30 4555 C 426.16 0.903525 -1.35426 0
M  V30 4556 O 427.349 0.781796 -1.60469 0
M  V30 4557 C 424.449 1.39535 -3.08842 0
M  V30 4558 C 423.622 0.861913 -4.28824 0
M  V30 4559 C 422.681 1.87016 -4.91845 0
M  V30 4560 O 421.707 1.4267 -5.5103 0
M  V30 4561 N 422.909 3.20238 -4.84178 0
M  V30 4562 H 425.674 -0.41123 -2.96865 0
M  V30 4563 H 423.235 -0.365387 -1.57723 0
M  V30 4564 H 425.227 2.06803 -3.47871 0
M  V30 4565 H 423.797 1.97859 -2.42014 0
M  V30 4566 H 423.017 0.0132126 -3.94198 0
M  V30 4567 H 424.305 0.484415 -5.06489 0
M  V30 4568 H 423.703 3.58932 -4.37246 0
M  V30 4569 H 422.26 3.83136 -5.27305 0
M  V30 4570 N 425.693 1.55336 -0.266172 0
M  V30 4571 C 426.656 2.20878 0.612001 0
M  V30 4572 C 427.656 1.18388 1.08816 0
M  V30 4573 O 428.846 1.4335 0.989774 0
M  V30 4574 C 425.978 2.86765 1.84332 0
M  V30 4575 H 427.171 2.99873 0.0398718 0
M  V30 4576 H 424.724 1.56291 -0.0167309 0
M  V30 4577 H 425.459 2.11759 2.45619 0
M  V30 4578 H 425.244 3.61862 1.5099 0
M  V30 4579 H 426.734 3.36867 2.46801 0
M  V30 4580 N 427.171 -0.0066808 1.57599 0
M  V30 4581 C 428.401 -0.703066 1.94269 0
M  V30 4582 C 428.809 -1.68206 0.866222 0
M  V30 4583 O 428.152 -1.82966 -0.164087 0
M  V30 4584 C 428.214 -1.49616 3.26887 0
M  V30 4585 C 427.878 -0.679494 4.5192 0
M  V30 4586 C 428.875 0.0299508 5.19891 0
M  V30 4587 C 426.56 -0.627433 4.98366 0
M  V30 4588 C 428.554 0.780514 6.32603 0
M  V30 4589 C 426.241 0.126861 6.10968 0
M  V30 4590 C 427.239 0.829574 6.77943 0
M  V30 4591 O 426.927 1.57157 7.88389 0
M  V30 4592 H 426.659 -0.201217 0.645359 0
M  V30 4593 H 429.213 0.0385326 2.05364 0
M  V30 4594 H 427.443 -2.28209 3.12182 0
M  V30 4595 H 429.132 -2.07726 3.48719 0
M  V30 4596 H 429.898 -0.00115963 4.85 0
M  V30 4597 H 425.777 -1.16392 4.46065 0
M  V30 4598 H 429.321 1.32954 6.84813 0
M  V30 4599 H 425.218 0.159815 6.45302 0
M  V30 4600 H 425.986 1.48758 8.04868 0
M  V30 4601 N 428.649 -1.55105 -0.279332 0
M  V30 4602 C 429.926 -1.66119 -1.03267 0
M  V30 4603 C 430.306 -0.523525 -2.04505 0
M  V30 4604 O 429.654 0.477194 -2.23462 0
M  V30 4605 C 429.864 -3.05067 -1.69515 0
M  V30 4606 C 431.212 -3.62606 -2.20912 0
M  V30 4607 O 432.236 -3.07659 -1.79512 0
M  V30 4608 O 431.095 -4.58861 -2.96831 0
M  V30 4609 H 428.189 -0.674429 -0.478618 0
M  V30 4610 H 430.735 -1.67446 -0.275694 0
M  V30 4611 H 429.507 -3.79311 -0.9612 0
M  V30 4612 H 429.13 -3.07611 -2.51915 0
M  V30 4613 N 430.127 0.543554 -1.4793 0
M  V30 4614 C 431.074 1.64942 -1.6144 0
M  V30 4615 C 432.044 1.59692 -0.456903 0
M  V30 4616 O 433.229 1.78321 -0.678688 0
M  V30 4617 C 430.369 3.03238 -1.64744 0
M  V30 4618 C 429.482 3.18823 -2.91506 0
M  V30 4619 C 428.617 4.47599 -2.86057 0
M  V30 4620 C 427.656 4.56664 -4.07584 0
M  V30 4621 N 426.793 5.76811 -4.00292 0
M  V30 4622 H 431.633 1.52733 -2.55884 0
M  V30 4623 H 429.17 0.7438 -1.2691 0
M  V30 4624 H 431.128 3.83339 -1.64641 0
M  V30 4625 H 429.758 3.1425 -0.738017 0
M  V30 4626 H 428.81 2.32064 -3.01414 0
M  V30 4627 H 430.122 3.21384 -3.81463 0
M  V30 4628 H 429.276 5.35975 -2.84281 0
M  V30 4629 H 428.015 4.47538 -1.93807 0
M  V30 4630 H 427.02 3.66697 -4.09651 0
M  V30 4631 H 428.245 4.58474 -5.00978 0
M  V30 4632 H 426.191 5.77673 -3.10853 0
M  V30 4633 H 426.108 5.80808 -4.8394 0
M  V30 4634 H 427.376 6.67512 -4.02553 0
M  V30 4635 N 431.605 1.3629 0.791371 0
M  V30 4636 C 432.851 1.30605 1.55146 0
M  V30 4637 C 433.184 -0.115042 1.93859 0
M  V30 4638 O 432.459 -1.06798 1.62556 0
M  V30 4639 C 432.742 2.22692 2.82985 0
M  V30 4640 C 432.595 3.73489 2.50651 0
M  V30 4641 C 433.914 2.13588 3.84796 0
M  V30 4642 H 431.033 0.475761 0.562868 0
M  V30 4643 H 433.675 1.66825 0.909358 0
M  V30 4644 H 431.825 1.91933 3.37778 0
M  V30 4645 H 433.497 4.14758 2.01924 0
M  V30 4646 H 431.74 3.93021 1.83622 0
M  V30 4647 H 432.411 4.3333 3.41949 0
M  V30 4648 H 434.887 2.40659 3.39445 0
M  V30 4649 H 433.763 2.80195 4.71998 0
M  V30 4650 H 434.024 1.12256 4.27611 0
M  V30 4651 N 433.083 -1.0153 1.20538 0
M  V30 4652 C 434.499 -1.27461 0.96051 0
M  V30 4653 C 434.699 -1.98273 -0.359193 0
M  V30 4654 O 433.755 -2.27886 -1.0874 0
M  V30 4655 C 435.068 -2.10837 2.14402 0
M  V30 4656 C 436.616 -2.24099 2.18515 0
M  V30 4657 C 437.091 -3.10852 3.36355 0
M  V30 4658 N 438.582 -3.18441 3.36377 0
M  V30 4659 C 439.317 -3.85795 4.24205 0
M  V30 4660 N 438.813 -4.55264 5.22213 0
M  V30 4661 N 440.606 -3.82331 4.12043 0
M  V30 4662 H 432.757 -0.539907 2.05423 0
M  V30 4663 H 435.02 -0.30092 0.898972 0
M  V30 4664 H 434.726 -1.66144 3.09983 0
M  V30 4665 H 434.6 -3.11576 2.12604 0
M  V30 4666 H 436.987 -2.68016 1.23497 0
M  V30 4667 H 437.068 -1.22865 2.24361 0
M  V30 4668 H 436.712 -2.6764 4.31661 0
M  V30 4669 H 436.642 -4.12177 3.27746 0
M  V30 4670 H 439.133 -2.68978 2.65442 0
M  V30 4671 H 439.446 -5.04331 5.85551 0
M  V30 4672 H 437.791 -4.54085 5.26148 0
M  V30 4673 H 440.982 -3.27207 3.34743 0
M  V30 4674 H 441.155 -4.34547 4.807 0
M  V30 4675 N 434.561 -1.01147 -1.20859 0
M  V30 4676 C 435.471 -0.58686 -2.27141 0
M  V30 4677 C 436.487 0.373198 -1.69951 0
M  V30 4678 O 437.663 0.235423 -2.00019 0
M  V30 4679 C 434.728 0.0733602 -3.46622 0
M  V30 4680 C 433.789 -0.931995 -4.19061 0
M  V30 4681 C 433.022 -0.303186 -5.32838 0
M  V30 4682 O 433.245 0.898395 -5.63281 0
M  V30 4683 O 432.179 -1.01735 -5.9324 0
M  V30 4684 H 436.005 -1.47155 -2.65667 0
M  V30 4685 H 433.59 -0.780689 -1.2738 0
M  V30 4686 H 435.472 0.442333 -4.19072 0
M  V30 4687 H 434.147 0.932329 -3.09983 0
M  V30 4688 H 433.054 -1.35224 -3.48805 0
M  V30 4689 H 434.387 -1.76076 -4.59628 0
M  V30 4690 N 436.039 1.36541 -0.78704 0
M  V30 4691 C 437.288 1.98552 -0.35494 0
M  V30 4692 C 437.601 1.63171 1.07864 0
M  V30 4693 O 438.807 2.18399 1.61289 0
M  V30 4694 C 437.263 3.55136 -0.583671 0
M  V30 4695 C 436.871 3.99444 -2.02851 0
M  V30 4696 C 438.615 4.2395 -0.215957 0
M  V30 4697 C 436.522 5.48796 -2.20403 0
M  V30 4698 H 435.452 0.742888 -0.128972 0
M  V30 4699 H 438.103 1.5587 -0.968337 0
M  V30 4700 H 436.485 3.95875 0.0994046 0
M  V30 4701 H 437.659 3.6991 -2.74779 0
M  V30 4702 H 435.974 3.43459 -2.35425 0
M  V30 4703 H 438.571 5.33709 -0.325405 0
M  V30 4704 H 438.914 4.07827 0.835646 0
M  V30 4705 H 439.447 3.88565 -0.852175 0
M  V30 4706 H 436.186 5.69864 -3.23937 0
M  V30 4707 H 435.706 5.79964 -1.52977 0
M  V30 4708 H 437.385 6.14986 -2.01002 0
M  V30 4709 N 437.518 0.538854 1.48102 0
M  V30 4710 C 438.766 0.00798599 2.02098 0
M  V30 4711 C 439.087 -1.33922 1.41739 0
M  V30 4712 O 438.357 -1.86932 0.585934 0
M  V30 4713 H 436.937 -3.62179e-05 0.747 0
M  V30 4714 H 439.599 0.7047 1.81714 0
M  V30 4715 H 438.695 -0.0937672 3.11959 0
M  V30 4716 N 438.996 -1.55193 0.274407 0
M  V30 4717 C 440.243 -1.99581 -0.342579 0
M  V30 4718 C 440.571 -1.1628 -1.55914 0
M  V30 4719 O 439.826 -0.22029 -1.94456 0
M  V30 4720 C 440.125 -3.49019 -0.769458 0
M  V30 4721 C 439.791 -4.49598 0.342389 0
M  V30 4722 C 438.453 -4.76821 0.647686 0
M  V30 4723 C 440.805 -5.0964 1.09163 0
M  V30 4724 C 438.133 -5.61354 1.70581 0
M  V30 4725 C 440.485 -5.95323 2.13948 0
M  V30 4726 C 439.149 -6.20867 2.45113 0
M  V30 4727 H 438.419 -0.730319 -0.125358 0
M  V30 4728 H 441.066 -1.87529 0.387971 0
M  V30 4729 H 439.371 -3.58544 -1.57967 0
M  V30 4730 H 441.068 -3.8077 -1.25757 0
M  V30 4731 H 437.658 -4.28496 0.094318 0
M  V30 4732 H 441.842 -4.88632 0.869024 0
M  V30 4733 H 437.098 -5.79392 1.9523 0
M  V30 4734 H 441.272 -6.40881 2.72478 0
M  V30 4735 H 438.899 -6.86162 3.27239 0
M  V30 4736 N 440.474 -0.00167713 -1.576 0
M  V30 4737 C 441.384 1.00548 -2.1196 0
M  V30 4738 C 442.4 1.3758 -1.06526 0
M  V30 4739 O 443.576 1.46278 -1.38436 0
M  V30 4740 C 440.641 2.27809 -2.6135 0
M  V30 4741 C 439.702 1.97074 -3.81393 0
M  V30 4742 C 438.935 3.18267 -4.28417 0
M  V30 4743 O 439.158 4.30009 -3.74765 0
M  V30 4744 O 438.092 3.02167 -5.20556 0
M  V30 4745 H 441.918 0.573373 -2.98238 0
M  V30 4746 H 439.503 0.217255 -1.47812 0
M  V30 4747 H 441.385 3.02568 -2.93309 0
M  V30 4748 H 440.06 2.70254 -1.78169 0
M  V30 4749 H 438.967 1.19785 -3.54404 0
M  V30 4750 H 440.3 1.59464 -4.65652 0
M  V30 4751 N 441.952 1.55251 0.271103 0
M  V30 4752 C 442.882 1.9127 1.33933 0
M  V30 4753 C 443.863 0.77478 1.5143 0
M  V30 4754 O 445.048 1.03307 1.64442 0
M  V30 4755 C 442.178 2.18627 2.69851 0
M  V30 4756 C 441.132 3.34442 2.67081 0
M  V30 4757 C 440.458 3.47284 4.06569 0
M  V30 4758 C 441.758 4.70784 2.26185 0
M  V30 4759 H 443.452 2.80744 1.04035 0
M  V30 4760 H 440.998 1.35077 0.499017 0
M  V30 4761 H 442.951 2.42413 3.44694 0
M  V30 4762 H 441.675 1.25955 3.01335 0
M  V30 4763 H 440.334 3.10627 1.94695 0
M  V30 4764 H 439.982 2.52074 4.35279 0
M  V30 4765 H 439.682 4.25152 4.0561 0
M  V30 4766 H 441.206 3.73363 4.83148 0
M  V30 4767 H 442.62 4.94102 2.90751 0
M  V30 4768 H 441.017 5.51582 2.36384 0
M  V30 4769 H 442.087 4.69478 1.21319 0
M  V30 4770 N 443.43 -0.535701 1.48216 0
M  V30 4771 C 444.679 -1.28828 1.55197 0
M  V30 4772 C 444.992 -1.94263 0.228278 0
M  V30 4773 O 446.198 -2.70927 0.176278 0
M  V30 4774 C 444.654 -2.33727 2.73678 0
M  V30 4775 C 444.262 -1.74386 4.12666 0
M  V30 4776 C 446.006 -3.1003 2.89968 0
M  V30 4777 C 443.913 -2.77192 5.22416 0
M  V30 4778 H 442.843 -0.484484 0.577747 0
M  V30 4779 H 445.494 -0.56646 1.74538 0
M  V30 4780 H 443.876 -3.08919 2.4776 0
M  V30 4781 H 445.05 -1.05421 4.48579 0
M  V30 4782 H 443.365 -1.10595 4.01445 0
M  V30 4783 H 445.962 -3.86842 3.6913 0
M  V30 4784 H 446.305 -3.65542 1.9921 0
M  V30 4785 H 446.838 -2.41952 3.15759 0
M  V30 4786 H 443.577 -2.26507 6.15122 0
M  V30 4787 H 443.097 -3.44502 4.90998 0
M  V30 4788 H 444.776 -3.40285 5.50286 0
M  V30 4789 N 444.908 -1.36708 -0.784132 0
M  V30 4790 C 445.856 -1.31533 -1.91838 0
M  V30 4791 C 446.85 -0.206205 -1.6814 0
M  V30 4792 O 448.056 -0.373519 -1.76082 0
M  V30 4793 H 444.431 -0.409613 -0.630651 0
M  V30 4794 H 446.402 -2.2731 -1.9332 0
M  V30 4795 C 445.151 -1.12679 -3.28936 0
M  V30 4796 H 444.474 -1.97274 -3.4774 0
M  V30 4797 H 445.914 -1.13106 -4.08636 0
M  V30 4798 C 444.373 0.168281 -3.36479 0
M  V30 4799 O 444.903 1.15625 -3.84699 0
M  V30 4800 N 443.109 0.214762 -2.89805 0
M  V30 4801 H 442.656 -0.589852 -2.50756 0
M  V30 4802 H 442.614 1.08094 -2.95234 0
M  V30 4803 N 446.386 1.0089 -1.21074 0
M  V30 4804 C 447.635 1.74019 -1.01981 0
M  V30 4805 C 447.948 1.90408 0.447665 0
M  V30 4806 O 449.154 2.60707 0.757906 0
M  V30 4807 C 447.61 3.13026 -1.77603 0
M  V30 4808 C 447.218 3.04623 -3.28495 0
M  V30 4809 C 448.962 3.90312 -1.66904 0
M  V30 4810 C 446.869 4.38685 -3.96623 0
M  V30 4811 H 445.799 0.652422 -0.377971 0
M  V30 4812 H 448.45 1.12755 -1.44771 0
M  V30 4813 H 446.832 3.74878 -1.27604 0
M  V30 4814 H 448.006 2.52032 -3.85767 0
M  V30 4815 H 446.321 2.40827 -3.39693 0
M  V30 4816 H 448.918 4.8951 -2.15138 0
M  V30 4817 H 449.261 4.11558 -0.62658 0
M  V30 4818 H 449.794 3.35104 -2.14359 0
M  V30 4819 H 446.533 4.22641 -5.01054 0
M  V30 4820 H 446.053 4.91252 -3.4414 0
M  V30 4821 H 447.732 5.075 -4.01314 0
M  V30 4822 N 447.864 1.01787 1.20321 0
M  V30 4823 C 449.141 0.622978 1.85414 0
M  V30 4824 C 449.521 -0.898887 1.91006 0
M  V30 4825 O 448.869 -1.79112 1.41884 0
M  V30 4826 C 449.079 1.27226 3.24984 0
M  V30 4827 C 450.427 1.3885 4.01255 0
M  V30 4828 O 451.451 1.22857 3.34342 0
M  V30 4829 O 450.31 1.64705 5.2109 0
M  V30 4830 H 447.404 0.215116 0.798533 0
M  V30 4831 H 449.95 1.11533 1.27901 0
M  V30 4832 H 448.722 2.31209 3.15687 0
M  V30 4833 H 448.345 0.767069 3.90131 0
M  V30 4834 N 449.342 -1.36122 0.79427 0
M  V30 4835 C 450.591 -1.98361 0.365464 0
M  V30 4836 C 450.904 -1.6374 -1.06997 0
M  V30 4837 O 452.11 -2.19251 -1.60129 0
M  V30 4838 C 450.566 -3.54821 0.602496 0
M  V30 4839 C 450.174 -3.98362 2.04967 0
M  V30 4840 C 451.918 -4.2383 0.238437 0
M  V30 4841 C 449.825 -5.47619 2.2331 0
M  V30 4842 H 448.755 -0.742193 0.13291 0
M  V30 4843 H 451.406 -1.55354 0.976589 0
M  V30 4844 H 449.788 -3.95922 -0.078409 0
M  V30 4845 H 450.962 -3.68447 2.76737 0
M  V30 4846 H 449.277 -3.42206 2.37243 0
M  V30 4847 H 451.874 -5.33529 0.353705 0
M  V30 4848 H 452.217 -4.08264 -0.814006 0
M  V30 4849 H 452.75 -3.88108 0.872769 0
M  V30 4850 H 449.489 -5.68138 3.26955 0
M  V30 4851 H 449.009 -5.79145 1.5605 0
M  V30 4852 H 450.688 -6.13911 2.0426 0
M  V30 4853 N 450.82 -0.546701 -1.47814 0
M  V30 4854 C 452.06 -0.0209604 -2.04389 0
M  V30 4855 C 452.424 1.29993 -1.413 0
M  V30 4856 O 453.625 1.91273 -1.8886 0
M  V30 4857 C 451.896 0.0812844 -3.57308 0
M  V30 4858 S 453.455 0.55467 -4.3528 0
M  V30 4859 H 450.273 -0.0200865 -0.710716 0
M  V30 4860 H 452.875 -0.731055 -1.81317 0
M  V30 4861 H 451.579 -0.884616 -4.00753 0
M  V30 4862 H 451.11 0.815253 -3.8486 0
M  V30 4863 H 453.125 1.81627 -4.61764 0
M  V30 4864 N 452.299 1.55045 -0.282633 0
M  V30 4865 C 453.545 2.00056 0.332481 0
M  V30 4866 C 453.878 1.1708 1.54939 0
M  V30 4867 O 453.153 0.2427 1.9298 0
M  V30 4868 C 453.436 3.53086 0.70725 0
M  V30 4869 C 453.289 4.46813 -0.517521 0
M  V30 4870 C 454.608 4.12245 1.54084 0
M  V30 4871 H 451.727 0.727268 0.119373 0
M  V30 4872 H 454.369 1.85932 -0.391076 0
M  V30 4873 H 452.519 3.65253 1.32372 0
M  V30 4874 H 454.191 4.46579 -1.15607 0
M  V30 4875 H 452.434 4.18163 -1.1542 0
M  V30 4876 H 453.105 5.51595 -0.211426 0
M  V30 4877 H 455.581 4.03401 1.02013 0
M  V30 4878 H 454.457 5.19515 1.77186 0
M  V30 4879 H 454.718 3.62951 2.52427 0
M  V30 4880 N 453.777 0.010035 1.57597 0
M  V30 4881 C 454.71 -1.01234 2.04516 0
M  V30 4882 C 455.688 -1.32886 0.937024 0
M  V30 4883 O 456.872 -1.44879 1.20592 0
M  V30 4884 C 453.999 -2.33738 2.45121 0
M  V30 4885 C 453.045 -2.17679 3.66767 0
M  V30 4886 S 453.878 -1.49343 5.14254 0
M  V30 4887 C 455.034 -2.83256 5.58137 0
M  V30 4888 H 455.267 -0.612866 2.90914 0
M  V30 4889 H 452.8 -0.201124 1.53084 0
M  V30 4890 H 454.758 -3.09922 2.69182 0
M  V30 4891 H 453.419 -2.70823 1.59103 0
M  V30 4892 H 452.612 -3.1559 3.92962 0
M  V30 4893 H 452.214 -1.4964 3.42759 0
M  V30 4894 H 454.506 -3.79538 5.6121 0
M  V30 4895 H 455.449 -2.61749 6.57946 0
M  V30 4896 H 455.857 -2.87627 4.85727 0
M  V30 4897 N 455.255 -1.55392 -0.262866 0
M  V30 4898 C 456.218 -1.88181 -1.30846 0
M  V30 4899 C 457.218 -0.757079 -1.41862 0
M  V30 4900 O 458.408 -1.02519 -1.40838 0
M  V30 4901 C 455.54 -2.09609 -2.68844 0
M  V30 4902 H 456.733 -2.81659 -1.02997 0
M  V30 4903 H 454.286 -1.48039 -0.501414 0
M  V30 4904 H 455.021 -1.18547 -3.01856 0
M  V30 4905 H 454.806 -2.91508 -2.62231 0
M  V30 4906 H 456.296 -2.36215 -3.44372 0
M  V30 4907 N 456.733 0.527833 -1.48498 0
M  V30 4908 C 457.665 1.6482 -1.5927 0
M  V30 4909 C 458.678 1.55659 -0.476869 0
M  V30 4910 O 459.867 1.62081 -0.747806 0
M  V30 4911 C 456.967 3.0348 -1.50842 0
M  V30 4912 C 456.14 3.381 -2.77502 0
M  V30 4913 C 455.199 4.5605 -2.62497 0
M  V30 4914 O 454.225 4.59165 -3.36387 0
M  V30 4915 N 455.427 5.54353 -1.72257 0
M  V30 4916 H 458.192 1.56015 -2.55889 0
M  V30 4917 H 455.753 0.715152 -1.45249 0
M  V30 4918 H 457.745 3.80264 -1.38496 0
M  V30 4919 H 456.315 3.06352 -0.621887 0
M  V30 4920 H 455.535 2.50473 -3.04396 0
M  V30 4921 H 456.823 3.58017 -3.61527 0
M  V30 4922 H 456.221 5.54617 -1.11431 0
M  V30 4923 H 454.778 6.30347 -1.65849 0
M  V30 4924 N 458.211 1.37122 0.776871 0
M  V30 4925 C 459.436 1.354 1.57104 0
M  V30 4926 C 459.861 -0.0595562 1.88006 0
M  V30 4927 O 459.219 -1.03514 1.48844 0
M  V30 4928 C 459.267 2.19472 2.8612 0
M  V30 4929 O 458.371 1.59582 3.80273 0
M  V30 4930 H 457.712 0.462869 0.476076 0
M  V30 4931 H 460.242 1.80577 0.961932 0
M  V30 4932 H 460.252 2.32502 3.35271 0
M  V30 4933 H 458.927 3.22222 2.62956 0
M  V30 4934 H 457.504 1.55564 3.38902 0
M  V30 4935 N 459.689 -1.00246 1.21608 0
M  V30 4936 C 461.1 -1.55511 1.03312 0
M  V30 4937 C 461.451 -1.91946 -0.406332 0
M  V30 4938 O 460.576 -1.73753 -1.28992 0
M  V30 4939 C 461.171 -2.82576 1.86913 0
M  V30 4940 C 459.73 -3.34318 1.72941 0
M  V30 4941 C 458.877 -2.07487 1.83968 0
M  V30 4942 H 461.828 -0.824638 1.35593 0
M  V30 4943 H 461.849 -3.54559 1.38087 0
M  V30 4944 H 461.361 -2.56026 2.91672 0
M  V30 4945 H 459.462 -3.65797 0.70877 0
M  V30 4946 H 459.575 -4.05566 2.55055 0
M  V30 4947 H 457.939 -2.20603 1.27304 0
M  V30 4948 H 458.722 -1.83346 2.9024 0
M  V30 4949 N 461.167 -1.02423 -1.1978 0
M  V30 4950 C 462.114 -0.601023 -2.22837 0
M  V30 4951 C 463.084 0.382801 -1.61629 0
M  V30 4952 O 464.269 0.280514 -1.88727 0
M  V30 4953 C 461.409 0.0467755 -3.45068 0
M  V30 4954 C 460.522 -0.98253 -4.20678 0
M  V30 4955 C 459.657 -0.304982 -5.30324 0
M  V30 4956 C 458.696 -1.32052 -5.97686 0
M  V30 4957 N 457.833 -0.669105 -6.98904 0
M  V30 4958 H 462.673 -1.48444 -2.58396 0
M  V30 4959 H 460.21 -0.742936 -1.2696 0
M  V30 4960 H 462.168 0.439556 -4.14878 0
M  V30 4961 H 460.798 0.893796 -3.10179 0
M  V30 4962 H 459.85 -1.49341 -3.49859 0
M  V30 4963 H 461.162 -1.75455 -4.66923 0
M  V30 4964 H 460.316 0.142893 -6.06532 0
M  V30 4965 H 459.055 0.499283 -4.85138 0
M  V30 4966 H 458.06 -1.7787 -5.20233 0
M  V30 4967 H 459.285 -2.1262 -6.44957 0
M  V30 4968 H 457.231 0.115152 -6.55899 0
M  V30 4969 H 457.148 -1.37908 -7.43315 0
M  V30 4970 H 458.416 -0.245076 -7.79115 0
M  V30 4971 N 462.645 1.35699 -0.801477 0
M  V30 4972 C 463.575 2.32436 -0.222658 0
M  V30 4973 C 464.556 1.5723 0.649057 0
M  V30 4974 O 465.741 1.85324 0.580387 0
M  V30 4975 C 462.871 3.41469 0.633719 0
M  V30 4976 C 461.825 4.27774 -0.139083 0
M  V30 4977 C 461.151 5.28082 0.838666 0
M  V30 4978 C 462.451 5.04946 -1.33517 0
M  V30 4979 H 464.145 2.81094 -1.03086 0
M  V30 4980 H 461.691 1.35146 -0.497155 0
M  V30 4981 H 463.644 4.08143 1.04868 0
M  V30 4982 H 462.368 2.91408 1.47475 0
M  V30 4983 H 461.027 3.62673 -0.535156 0
M  V30 4984 H 460.675 4.7429 1.67506 0
M  V30 4985 H 460.375 5.86695 0.32594 0
M  V30 4986 H 461.899 5.97628 1.25194 0
M  V30 4987 H 463.313 5.64593 -0.995349 0
M  V30 4988 H 461.71 5.7303 -1.78202 0
M  V30 4989 H 462.78 4.35886 -2.12442 0
M  V30 4990 N 464.123 0.554532 1.47522 0
M  V30 4991 C 465.07 -0.19466 2.29978 0
M  V30 4992 C 466.04 -0.910882 1.38896 0
M  V30 4993 O 467.225 -0.907102 1.67858 0
M  V30 4994 C 464.365 -1.22035 3.22802 0
M  V30 4995 C 463.478 -0.510474 4.28973 0
M  V30 4996 C 462.613 -1.52123 5.08952 0
M  V30 4997 C 461.652 -0.796173 6.069 0
M  V30 4998 N 460.789 -1.75363 6.79847 0
M  V30 4999 H 465.629 0.51461 2.93523 0
M  V30 5000 H 463.166 0.265607 1.44682 0
M  V30 5001 H 465.124 -1.8276 3.7504 0
M  V30 5002 H 463.754 -1.89769 2.61127 0
M  V30 5003 H 462.806 0.211234 3.79813 0
M  V30 5004 H 464.118 0.0576503 4.98767 0
M  V30 5005 H 463.272 -2.20207 5.65326 0
M  V30 5006 H 462.011 -2.12327 4.39054 0
M  V30 5007 H 461.016 -0.101388 5.49707 0
M  V30 5008 H 462.241 -0.199911 6.78806 0
M  V30 5009 H 460.187 -2.3443 6.12682 0
M  V30 5010 H 460.104 -1.23759 7.45801 0
M  V30 5011 H 461.372 -2.4257 7.40797 0
M  V30 5012 N 465.601 -1.54893 0.290851 0
M  V30 5013 C 466.878 -1.91991 -0.373989 0
M  V30 5014 C 467.258 -1.21694 -1.72493 0
M  V30 5015 O 466.606 -0.34917 -2.25816 0
M  V30 5016 C 466.816 -3.45419 -0.498703 0
M  V30 5017 C 468.164 -4.1748 -0.774298 0
M  V30 5018 O 469.188 -3.51398 -0.582908 0
M  V30 5019 O 468.047 -5.3445 -1.14129 0
M  V30 5020 H 465.141 -0.800593 -0.207315 0
M  V30 5021 H 467.687 -1.66297 0.338164 0
M  V30 5022 H 466.459 -3.88688 0.451392 0
M  V30 5023 H 466.082 -3.77117 -1.25972 0
M  V30 5024 N 467.08 -0.0183926 -1.57589 0
M  V30 5025 C 468.327 0.662562 -1.91354 0
M  V30 5026 C 468.655 1.72747 -0.893788 0
M  V30 5027 O 467.91 1.9545 0.0988509 0
M  V30 5028 C 468.209 1.32676 -3.31861 0
M  V30 5029 C 467.875 0.393267 -4.49182 0
M  V30 5030 C 466.537 0.136302 -4.81007 0
M  V30 5031 C 468.889 -0.248366 -5.20608 0
M  V30 5032 C 466.217 -0.770282 -5.81621 0
M  V30 5033 C 468.569 -1.14294 -6.22189 0
M  V30 5034 C 467.233 -1.4089 -6.52462 0
M  V30 5035 H 466.503 0.242448 -0.700214 0
M  V30 5036 H 469.15 -0.0778629 -1.91342 0
M  V30 5037 H 467.455 2.14168 -3.28084 0
M  V30 5038 H 469.152 1.86001 -3.55253 0
M  V30 5039 H 465.742 0.603723 -4.24327 0
M  V30 5040 H 469.926 -0.062883 -4.9626 0
M  V30 5041 H 465.182 -0.984154 -6.03427 0
M  V30 5042 H 469.356 -1.64637 -6.76659 0
M  V30 5043 H 466.983 -2.11306 -7.30242 0
M  V30 5044 N 468.558 1.5553 0.254621 0
M  V30 5045 C 469.505 1.89666 1.31512 0
M  V30 5046 C 470.475 0.750057 1.482 0
M  V30 5047 O 471.66 1.00301 1.62309 0
M  V30 5048 C 468.8 2.19009 2.667 0
M  V30 5049 C 467.913 3.46435 2.58083 0
M  V30 5050 C 467.048 3.65386 3.85573 0
M  V30 5051 C 466.087 4.8644 3.71541 0
M  V30 5052 N 465.224 5.01952 4.90906 0
M  V30 5053 H 470.064 2.80109 1.017 0
M  V30 5054 H 467.601 1.38666 0.490938 0
M  V30 5055 H 469.559 2.34025 3.45381 0
M  V30 5056 H 468.189 1.31779 2.94676 0
M  V30 5057 H 467.241 3.39792 1.71013 0
M  V30 5058 H 468.553 4.35258 2.43622 0
M  V30 5059 H 467.707 3.80319 4.72697 0
M  V30 5060 H 466.446 2.74781 4.02922 0
M  V30 5061 H 465.451 4.71491 2.82801 0
M  V30 5062 H 466.676 5.78497 3.55694 0
M  V30 5063 H 464.622 4.14283 5.08631 0
M  V30 5064 H 464.539 5.84851 4.79046 0
M  V30 5065 H 465.807 5.21289 5.7955 0
M  V30 5066 N 470.036 -0.519951 1.48776 0
M  V30 5067 C 470.968 -1.63973 1.60142 0
M  V30 5068 C 471.981 -1.55404 0.485117 0
M  V30 5069 O 473.17 -1.61682 0.756391 0
M  V30 5070 C 470.27 -3.02676 1.52449 0
M  V30 5071 C 469.443 -3.36624 2.79291 0
M  V30 5072 C 468.502 -4.54652 2.64912 0
M  V30 5073 O 467.528 -4.57374 3.38818 0
M  V30 5074 N 468.73 -5.53432 1.75195 0
M  V30 5075 H 471.495 -1.54656 2.56713 0
M  V30 5076 H 469.056 -0.707439 1.45626 0
M  V30 5077 H 471.048 -3.79525 1.4051 0
M  V30 5078 H 469.618 -3.06018 0.638125 0
M  V30 5079 H 468.838 -2.48855 3.0572 0
M  V30 5080 H 470.126 -3.56094 3.6342 0
M  V30 5081 H 469.524 -5.54018 1.14371 0
M  V30 5082 H 468.081 -6.29459 1.69189 0
M  V30 5083 N 471.514 -1.37532 -0.769588 0
M  V30 5084 C 472.477 -1.33292 -1.86456 0
M  V30 5085 C 473.477 -0.236537 -1.59051 0
M  V30 5086 O 474.667 -0.492511 -1.67093 0
M  V30 5087 C 471.799 -1.07118 -3.23633 0
M  V30 5088 H 472.992 -2.30692 -1.91628 0
M  V30 5089 H 470.545 -1.22593 -0.969572 0
M  V30 5090 H 471.28 -0.102578 -3.24138 0
M  V30 5091 H 471.065 -1.86479 -3.44917 0
M  V30 5092 H 472.555 -1.06806 -4.03711 0
M  V30 5093 N 472.992 0.995999 -1.22138 0
M  V30 5094 C 473.925 2.08302 -0.931952 0
M  V30 5095 C 474.903 1.62127 0.123956 0
M  V30 5096 O 476.087 1.88499 -0.00696004 0
M  V30 5097 C 473.214 3.36317 -0.401068 0
M  V30 5098 C 472.26 4.01413 -1.44117 0
M  V30 5099 S 473.093 4.42664 -3.01345 0
M  V30 5100 C 474.249 5.73853 -2.49887 0
M  V30 5101 H 474.482 2.32532 -1.85246 0
M  V30 5102 H 472.015 1.13005 -1.0521 0
M  V30 5103 H 473.973 4.10375 -0.101352 0
M  V30 5104 H 472.634 3.10123 0.498272 0
M  V30 5105 H 471.827 4.9358 -1.01952 0
M  V30 5106 H 471.429 3.33668 -1.68943 0
M  V30 5107 H 473.721 6.50039 -1.90934 0
M  V30 5108 H 474.664 6.20841 -3.40532 0
M  V30 5109 H 475.072 5.31105 -1.9128 0
M  V30 5110 N 474.47 1.03057 1.19235 0
M  V30 5111 C 475.402 0.570932 2.21975 0
M  V30 5112 C 476.415 -0.354088 1.58903 0
M  V30 5113 O 477.604 -0.150211 1.77867 0
M  V30 5114 C 474.704 -0.187152 3.38383 0
M  V30 5115 C 473.877 0.743231 4.31039 0
M  V30 5116 C 472.936 0.0302493 5.26191 0
M  V30 5117 O 471.962 0.657371 5.65391 0
M  V30 5118 N 473.164 -1.23991 5.67104 0
M  V30 5119 H 475.929 1.45456 2.62036 0
M  V30 5120 H 473.49 0.909807 1.33918 0
M  V30 5121 H 475.482 -0.673715 3.99053 0
M  V30 5122 H 474.052 -0.972205 2.97098 0
M  V30 5123 H 473.272 1.40985 3.68126 0
M  V30 5124 H 474.56 1.3755 4.89854 0
M  V30 5125 H 473.958 -1.77011 5.37293 0
M  V30 5126 H 472.515 -1.67093 6.30018 0
M  V30 5127 N 475.948 -1.35272 0.808662 0
M  V30 5128 C 477.173 -2.03477 0.401475 0
M  V30 5129 C 477.598 -1.60537 -0.980279 0
M  V30 5130 O 476.956 -0.78304 -1.63518 0
M  V30 5131 C 477.004 -3.57181 0.495354 0
M  V30 5132 O 476.108 -4.09474 -0.490397 0
M  V30 5133 H 475.449 -0.642561 0.167366 0
M  V30 5134 H 477.979 -1.72824 1.09512 0
M  V30 5135 H 477.989 -4.06356 0.365912 0
M  V30 5136 H 476.664 -3.87784 1.5032 0
M  V30 5137 H 475.241 -3.71516 -0.321023 0
M  V30 5138 N 477.426 -0.562348 -1.47226 0
M  V30 5139 C 478.374 0.195476 -2.31777 0
M  V30 5140 C 479.368 0.90433 -1.43242 0
M  V30 5141 O 480.574 0.825031 -1.59979 0
M  V30 5142 H 476.949 0.0819095 -0.747526 0
M  V30 5143 H 478.92 -0.536753 -2.93533 0
M  V30 5144 C 477.669 1.20902 -3.26003 0
M  V30 5145 H 476.992 0.672997 -3.94095 0
M  V30 5146 H 478.432 1.71006 -3.87986 0
M  V30 5147 C 476.891 2.25955 -2.49891 0
M  V30 5148 O 477.421 3.32969 -2.2471 0
M  V30 5149 N 475.627 2.00019 -2.1081 0
M  V30 5150 H 475.174 1.13006 -2.31489 0
M  V30 5151 H 475.132 2.70523 -1.60201 0
M  V30 5152 N 478.904 1.54736 -0.299062 0
M  V30 5153 C 480.153 1.99279 0.311549 0
M  V30 5154 C 480.466 1.19107 1.55154 0
M  V30 5155 O 481.672 1.53908 2.23662 0
M  V30 5156 C 480.128 3.54768 0.605632 0
M  V30 5157 C 479.736 4.43746 -0.615914 0
M  V30 5158 C 481.48 4.07841 1.17754 0
M  V30 5159 C 479.387 5.90663 -0.29509 0
M  V30 5160 H 478.317 0.744359 0.120187 0
M  V30 5161 H 480.968 1.78919 -0.407464 0
M  V30 5162 H 479.35 3.71021 1.38419 0
M  V30 5163 H 480.524 4.39267 -1.39218 0
M  V30 5164 H 478.839 4.01434 -1.10633 0
M  V30 5165 H 481.436 5.15174 1.43179 0
M  V30 5166 H 481.779 3.58324 2.11918 0
M  V30 5167 H 482.312 3.95123 0.460739 0
M  V30 5168 H 479.051 6.44325 -1.20524 0
M  V30 5169 H 478.571 5.98155 0.44394 0
M  V30 5170 H 480.25 6.46916 0.104048 0
M  V30 5171 N 480.382 0.0267497 1.57577 0
M  V30 5172 C 481.345 -0.940916 2.08996 0
M  V30 5173 C 482.345 -1.25561 1.00455 0
M  V30 5174 O 483.535 -1.19634 1.26623 0
M  V30 5175 C 480.667 -2.25814 2.55384 0
M  V30 5176 H 481.86 -0.495628 2.95776 0
M  V30 5177 H 479.413 -0.221241 1.54726 0
M  V30 5178 H 480.148 -2.74976 1.71926 0
M  V30 5179 H 479.933 -2.04285 3.34679 0
M  V30 5180 H 481.423 -2.95178 2.95398 0
M  V30 5181 N 481.861 -1.55662 -0.24637 0
M  V30 5182 C 482.811 -1.86753 -1.30795 0
M  V30 5183 C 483.795 -0.728445 -1.43466 0
M  V30 5184 O 484.987 -0.99038 -1.46699 0
M  V30 5185 C 482.116 -2.16618 -2.66329 0
M  V30 5186 C 481.202 -3.36855 -2.57661 0
M  V30 5187 N 481.593 -4.56111 -2.18624 0
M  V30 5188 C 479.891 -3.39976 -2.88673 0
M  V30 5189 C 480.592 -5.38247 -2.20601 0
M  V30 5190 N 479.568 -4.77322 -2.60124 0
M  V30 5191 H 483.37 -2.76486 -0.996642 0
M  V30 5192 H 480.884 -1.55896 -0.454994 0
M  V30 5193 H 482.881 -2.37057 -3.42942 0
M  V30 5194 H 481.541 -1.28185 -2.98327 0
M  V30 5195 H 482.552 -4.81726 -1.9016 0
M  V30 5196 H 479.229 -2.61815 -3.25206 0
M  V30 5197 H 480.619 -6.43657 -1.92756 0
M  V30 5198 N 483.339 0.512053 -1.4905 0
M  V30 5199 C 484.567 1.29116 -1.61669 0
M  V30 5200 C 484.982 1.86655 -0.283787 0
M  V30 5201 O 484.339 1.67293 0.729331 0
M  V30 5202 C 484.39 2.4293 -2.67707 0
M  V30 5203 O 484.111 1.87758 -3.95826 0
M  V30 5204 C 485.612 3.34476 -2.90931 0
M  V30 5205 H 482.832 0.392009 -0.544583 0
M  V30 5206 H 485.376 0.615881 -1.95006 0
M  V30 5207 H 483.531 3.06308 -2.37179 0
M  V30 5208 H 483.945 2.62393 -4.54148 0
M  V30 5209 H 485.419 4.10642 -3.68886 0
M  V30 5210 H 485.896 3.90801 -2.00427 0
M  V30 5211 H 486.502 2.76874 -3.22832 0
M  V30 5212 N 484.817 1.37938 0.762283 0
M  V30 5213 C 485.747 1.37176 1.88958 0
M  V30 5214 C 486.728 0.238945 1.68413 0
M  V30 5215 O 487.913 0.440726 1.89133 0
M  V30 5216 C 485.043 1.18742 3.2637 0
M  V30 5217 C 483.997 2.29136 3.61498 0
M  V30 5218 C 483.323 1.95816 4.97554 0
M  V30 5219 C 484.623 3.71363 3.6727 0
M  V30 5220 H 486.317 2.31509 1.89853 0
M  V30 5221 H 483.863 1.11438 0.912005 0
M  V30 5222 H 485.816 1.16837 4.04879 0
M  V30 5223 H 484.54 0.208683 3.25933 0
M  V30 5224 H 483.199 2.30213 2.85303 0
M  V30 5225 H 482.847 0.964475 4.93667 0
M  V30 5226 H 482.547 2.69745 5.22026 0
M  V30 5227 H 484.071 1.95513 5.78452 0
M  V30 5228 H 485.485 3.72364 4.35911 0
M  V30 5229 H 483.882 4.44425 4.03245 0
M  V30 5230 H 484.952 4.04305 2.67704 0
M  V30 5231 N 486.295 -0.989507 1.22664 0
M  V30 5232 C 487.572 -1.70326 0.961688 0
M  V30 5233 C 487.952 -2.04537 -0.522279 0
M  V30 5234 O 487.3 -1.73136 -1.49118 0
M  V30 5235 C 487.51 -2.95135 1.86269 0
M  V30 5236 C 488.858 -3.67842 2.12078 0
M  V30 5237 O 489.882 -3.0515 1.83745 0
M  V30 5238 O 488.741 -4.80644 2.60083 0
M  V30 5239 H 485.835 -0.743589 0.361946 0
M  V30 5240 H 488.381 -1.04555 1.33665 0
M  V30 5241 H 487.153 -2.66382 2.8663 0
M  V30 5242 H 486.776 -3.68645 1.48952 0
M  V30 5243 N 487.773 -1.03688 -1.18687 0
M  V30 5244 C 488.703 -0.645407 -2.24403 0
M  V30 5245 C 489.684 0.349511 -1.66471 0
M  V30 5246 O 490.869 0.230453 -1.92828 0
M  V30 5247 C 487.999 -0.00365337 -3.473 0
M  V30 5248 C 486.953 -0.921705 -4.17958 0
M  V30 5249 C 486.279 -0.144629 -5.34504 0
M  V30 5250 C 487.579 -2.23909 -4.71871 0
M  V30 5251 H 489.273 -1.52917 -2.57404 0
M  V30 5252 H 486.819 -0.736711 -1.23728 0
M  V30 5253 H 488.772 0.281908 -4.20456 0
M  V30 5254 H 487.496 0.914963 -3.13522 0
M  V30 5255 H 486.155 -1.19159 -3.46694 0
M  V30 5256 H 485.803 0.776274 -4.96974 0
M  V30 5257 H 485.503 -0.756206 -5.82714 0
M  V30 5258 H 487.027 0.134004 -6.10453 0
M  V30 5259 H 488.441 -2.0145 -5.36741 0
M  V30 5260 H 486.838 -2.8033 -5.30599 0
M  V30 5261 H 487.908 -2.88822 -3.895 0
M  V30 5262 N 489.251 1.34841 -0.815825 0
M  V30 5263 C 490.528 1.92908 -0.323416 0
M  V30 5264 C 490.908 1.74479 1.18828 0
M  V30 5265 O 490.256 1.11928 1.99209 0
M  V30 5266 C 490.466 3.40957 -0.744952 0
M  V30 5267 C 491.814 4.18107 -0.739716 0
M  V30 5268 O 492.838 3.49511 -0.68708 0
M  V30 5269 O 491.697 5.40517 -0.806456 0
M  V30 5270 H 488.791 0.822436 -0.0867646 0
M  V30 5271 H 491.337 1.4386 -0.90014 0
M  V30 5272 H 490.109 3.4814 -1.78646 0
M  V30 5273 H 489.732 3.97341 -0.143535 0
M  V30 5274 N 490.729 0.570148 1.46925 0
M  V30 5275 C 491.639 -0.173061 2.33961 0
M  V30 5276 C 492.655 -0.898825 1.48987 0
M  V30 5277 O 493.831 -0.864825 1.81887 0
M  V30 5278 C 490.896 -1.18177 3.25937 0
M  V30 5279 C 489.957 -0.462041 4.26806 0
M  V30 5280 C 489.19 -1.4227 5.14388 0
M  V30 5281 O 489.413 -2.65842 5.04662 0
M  V30 5282 O 488.347 -0.940127 5.94513 0
M  V30 5283 H 492.173 0.541216 2.98839 0
M  V30 5284 H 489.758 0.330647 1.45695 0
M  V30 5285 H 491.64 -1.76372 3.82715 0
M  V30 5286 H 490.315 -1.87774 2.63671 0
M  V30 5287 H 489.222 0.161429 3.73752 0
M  V30 5288 H 490.555 0.192719 4.91823 0
M  V30 5289 N 492.207 -1.54576 0.307264 0
M  V30 5290 C 493.454 -2.00263 -0.300167 0
M  V30 5291 C 493.782 -1.19561 -1.53413 0
M  V30 5292 O 493.037 -0.261487 -1.93945 0
M  V30 5293 C 493.336 -3.50572 -0.695253 0
M  V30 5294 C 493.002 -4.48771 0.437679 0
M  V30 5295 C 491.664 -4.7534 0.748681 0
M  V30 5296 C 494.016 -5.0721 1.19949 0
M  V30 5297 C 491.344 -5.5761 1.8245 0
M  V30 5298 C 493.696 -5.90651 2.26527 0
M  V30 5299 C 492.36 -6.15528 2.58227 0
M  V30 5300 H 491.63 -0.732814 -0.109839 0
M  V30 5301 H 494.277 -1.86664 0.427661 0
M  V30 5302 H 492.582 -3.61814 -1.50326 0
M  V30 5303 H 494.279 -3.83352 -1.17653 0
M  V30 5304 H 490.869 -4.282 0.185187 0
M  V30 5305 H 495.053 -4.86679 0.972474 0
M  V30 5306 H 490.309 -5.75121 2.07476 0
M  V30 5307 H 494.483 -6.34957 2.86011 0
M  V30 5308 H 492.11 -6.79066 3.4172 0
M  V30 5309 N 493.685 -0.035106 -1.57561 0
M  V30 5310 C 495.101 0.321334 -1.56332 0
M  V30 5311 C 495.301 1.72509 -1.04129 0
M  V30 5312 O 494.357 2.4287 -0.690694 0
M  V30 5313 C 495.67 0.164469 -3.0025 0
M  V30 5314 C 497.218 0.236786 -3.12103 0
M  V30 5315 C 497.693 0.10864 -4.57871 0
M  V30 5316 N 499.184 0.165433 -4.62904 0
M  V30 5317 C 499.919 0.0901506 -5.73329 0
M  V30 5318 N 499.415 -0.0365606 -6.9279 0
M  V30 5319 N 501.208 0.144572 -5.61914 0
M  V30 5320 H 493.359 -0.952976 -1.89821 0
M  V30 5321 H 495.622 -0.368537 -0.873432 0
M  V30 5322 H 495.328 -0.802746 -3.42416 0
M  V30 5323 H 495.202 0.932194 -3.655 0
M  V30 5324 H 497.589 1.19446 -2.69845 0
M  V30 5325 H 497.67 -0.561419 -2.49563 0
M  V30 5326 H 497.314 -0.845644 -5.00811 0
M  V30 5327 H 497.244 0.925786 -5.18398 0
M  V30 5328 H 499.735 0.263269 -3.76982 0
M  V30 5329 H 500.048 -0.0871487 -7.72751 0
M  V30 5330 H 498.393 -0.0714256 -6.94963 0
M  V30 5331 H 501.584 0.242006 -4.67474 0
M  V30 5332 H 501.757 0.0824413 -6.47948 0
M  V30 5333 N 495.163 1.55791 0.238111 0
M  V30 5334 C 496.412 1.77234 0.962868 0
M  V30 5335 C 496.725 0.600661 1.86149 0
M  V30 5336 O 497.931 0.698315 2.62366 0
M  V30 5337 C 496.387 3.13808 1.76218 0
M  V30 5338 C 495.995 4.3865 0.910518 0
M  V30 5339 C 497.739 3.44585 2.47914 0
M  V30 5340 C 495.646 5.66252 1.70623 0
M  V30 5341 H 494.576 0.660731 0.36325 0
M  V30 5342 H 497.227 1.8221 0.217242 0
M  V30 5343 H 495.609 3.02963 2.55009 0
M  V30 5344 H 496.783 4.60507 0.164316 0
M  V30 5345 H 495.098 4.15271 0.30647 0
M  V30 5346 H 497.695 4.3714 3.07917 0
M  V30 5347 H 498.038 2.66314 3.19973 0
M  V30 5348 H 498.571 3.56685 1.76127 0
M  V30 5349 H 495.31 6.47369 1.02923 0
M  V30 5350 H 494.83 5.48483 2.42748 0
M  V30 5351 H 496.509 6.05829 2.27114 0
M  V30 5352 N 496.642 -0.504142 1.49319 0
M  V30 5353 C 497.59 -1.62689 1.66238 0
M  V30 5354 C 498.584 -1.6095 0.528349 0
M  V30 5355 O 499.79 -1.65496 0.707887 0
M  V30 5356 H 496.165 -0.539247 0.524134 0
M  V30 5357 H 498.136 -1.45571 2.60484 0
M  V30 5358 C 496.885 -3.00841 1.74328 0
M  V30 5359 H 496.208 -3.02884 2.60963 0
M  V30 5360 H 497.648 -3.78945 1.90202 0
M  V30 5361 C 496.107 -3.33355 0.487416 0
M  V30 5362 O 496.637 -3.99819 -0.388294 0
M  V30 5363 N 494.843 -2.88469 0.351306 0
M  V30 5364 H 494.39 -2.34557 1.06492 0
M  V30 5365 H 494.348 -3.10591 -0.487899 0
M  V30 5366 N 498.12 -1.38341 -0.754957 0
M  V30 5367 C 499.366 -1.34672 -1.51628 0
M  V30 5368 C 499.699 0.0636036 -1.94096 0
M  V30 5369 O 498.974 1.0245 -1.6533 0
M  V30 5370 C 499.257 -2.30116 -2.76981 0
M  V30 5371 C 499.11 -3.80003 -2.4066 0
M  V30 5372 C 500.429 -2.23715 -3.78998 0
M  V30 5373 H 497.548 -0.490517 -0.550056 0
M  V30 5374 H 500.19 -1.69178 -0.864807 0
M  V30 5375 H 498.34 -2.00821 -3.3257 0
M  V30 5376 H 500.012 -4.19966 -1.90856 0
M  V30 5377 H 498.255 -3.97751 -1.73137 0
M  V30 5378 H 498.926 -4.42244 -3.30339 0
M  V30 5379 H 501.402 -2.49574 -3.32945 0
M  V30 5380 H 500.278 -2.9261 -4.64403 0
M  V30 5381 H 500.539 -1.23554 -4.24484 0
M  V30 5382 N 499.598 0.982988 -1.23187 0
M  V30 5383 C 500.545 2.07491 -1.01075 0
M  V30 5384 C 501.515 1.65949 0.070905 0
M  V30 5385 O 502.7 1.90629 -0.0806822 0
M  V30 5386 C 499.84 3.39751 -0.605261 0
M  V30 5387 C 498.953 3.94578 -1.75876 0
M  V30 5388 C 498.088 5.15039 -1.3003 0
M  V30 5389 C 497.127 5.62027 -2.42472 0
M  V30 5390 N 496.264 6.73719 -1.97602 0
M  V30 5391 H 501.104 2.25739 -1.9454 0
M  V30 5392 H 498.641 1.10659 -0.969179 0
M  V30 5393 H 500.599 4.15719 -0.351279 0
M  V30 5394 H 499.229 3.21473 0.292382 0
M  V30 5395 H 498.281 3.1539 -2.12681 0
M  V30 5396 H 499.593 4.25422 -2.60418 0
M  V30 5397 H 498.747 5.9833 -1.00429 0
M  V30 5398 H 497.486 4.85843 -0.425216 0
M  V30 5399 H 496.491 4.77318 -2.7285 0
M  V30 5400 H 497.716 5.93244 -3.30512 0
M  V30 5401 H 495.662 6.46287 -1.1247 0
M  V30 5402 H 495.579 7.03934 -2.75705 0
M  V30 5403 H 496.847 7.6049 -1.71098 0
M  V30 5404 N 501.076 1.04316 1.18135 0
M  V30 5405 C 502.039 0.640794 2.2006 0
M  V30 5406 C 503.039 -0.303124 1.57917 0
M  V30 5407 O 504.229 -0.0881855 1.73977 0
M  V30 5408 C 501.361 -0.060148 3.40847 0
M  V30 5409 H 502.554 1.54281 2.57172 0
M  V30 5410 H 500.107 0.836004 1.32063 0
M  V30 5411 H 500.842 -0.975845 3.0927 0
M  V30 5412 H 500.627 0.618319 3.87194 0
M  V30 5413 H 502.117 -0.328082 4.16309 0
M  V30 5414 N 502.554 -1.34406 0.822964 0
M  V30 5415 C 503.782 -2.02508 0.424039 0
M  V30 5416 C 504.197 -1.61975 -0.970022 0
M  V30 5417 O 503.554 -0.825228 -1.62777 0
M  V30 5418 C 503.605 -3.57789 0.516657 0
M  V30 5419 O 503.326 -3.96853 1.85577 0
M  V30 5420 C 504.827 -4.43157 0.112637 0
M  V30 5421 H 502.047 -0.649063 0.170173 0
M  V30 5422 H 504.591 -1.7168 1.11113 0
M  V30 5423 H 502.746 -3.87207 -0.122353 0
M  V30 5424 H 503.16 -4.91538 1.83005 0
M  V30 5425 H 504.634 -5.51527 0.228526 0
M  V30 5426 H 505.111 -4.28939 -0.943837 0
M  V30 5427 H 505.717 -4.19067 0.725449 0
M  V30 5428 N 504.032 -0.577932 -1.46621 0
M  V30 5429 C 505.26 -0.0671642 -2.06791 0
M  V30 5430 C 505.675 1.23571 -1.42743 0
M  V30 5431 O 505.032 1.74602 -0.531062 0
M  V30 5432 C 505.083 0.110357 -3.61332 0
M  V30 5433 O 504.804 -1.14095 -4.22982 0
M  V30 5434 C 506.305 0.656025 -4.38419 0
M  V30 5435 H 503.525 -0.0552732 -0.66872 0
M  V30 5436 H 506.069 -0.797242 -1.8832 0
M  V30 5437 H 504.224 0.790637 -3.79246 0
M  V30 5438 H 504.638 -0.951742 -5.15793 0
M  V30 5439 H 506.112 0.729438 -5.47159 0
M  V30 5440 H 506.589 1.67195 -4.06131 0
M  V30 5441 H 507.195 0.0107692 -4.25299 0
M  V30 5442 N 505.51 1.54411 -0.315457 0
M  V30 5443 C 506.738 2.04833 0.291738 0
M  V30 5444 C 507.153 1.19203 1.46411 0
M  V30 5445 O 506.51 0.220867 1.81159 0
M  V30 5446 C 506.561 3.53969 0.73404 0
M  V30 5447 O 506.282 4.36346 -0.391682 0
M  V30 5448 C 507.783 4.2045 1.40489 0
M  V30 5449 H 505.003 0.668195 0.0612947 0
M  V30 5450 H 507.547 1.99276 -0.45929 0
M  V30 5451 H 505.702 3.5984 1.43506 0
M  V30 5452 H 506.116 5.24481 -0.0447088 0
M  V30 5453 H 507.59 5.26278 1.66539 0
M  V30 5454 H 508.067 3.71067 2.3496 0
M  V30 5455 H 508.673 4.18694 0.746662 0
M  V30 5456 N 506.988 0.0434614 1.5754 0
M  V30 5457 C 507.898 -0.94893 2.14552 0
M  V30 5458 C 508.914 -1.34707 1.10136 0
M  V30 5459 O 510.09 -1.42557 1.42266 0
M  V30 5460 C 507.155 -2.208 2.67298 0
M  V30 5461 C 506.216 -1.86893 3.86484 0
M  V30 5462 C 505.449 -3.06797 4.36705 0
M  V30 5463 O 505.672 -4.19921 3.86034 0
M  V30 5464 O 504.606 -2.8826 5.28384 0
M  V30 5465 H 508.432 -0.494099 2.99654 0
M  V30 5466 H 506.017 -0.177989 1.48336 0
M  V30 5467 H 507.899 -2.94686 3.01228 0
M  V30 5468 H 506.574 -2.65436 1.85272 0
M  V30 5469 H 505.481 -1.10347 3.57455 0
M  V30 5470 H 506.814 -1.47062 4.69716 0
M  V30 5471 N 508.466 -1.55915 -0.229846 0
M  V30 5472 C 509.413 -1.91734 -1.28478 0
M  V30 5473 C 510.383 -0.773539 -1.46988 0
M  V30 5474 O 511.568 -1.02871 -1.60693 0
M  V30 5475 C 508.708 -2.23224 -2.63182 0
M  V30 5476 C 507.821 -3.50497 -2.52539 0
M  V30 5477 C 506.956 -3.71474 -3.79711 0
M  V30 5478 C 505.995 -4.92289 -3.63755 0
M  V30 5479 N 505.132 -5.09698 -4.82858 0
M  V30 5480 H 509.972 -2.81692 -0.972308 0
M  V30 5481 H 507.509 -1.39429 -0.468815 0
M  V30 5482 H 509.467 -2.3949 -3.41614 0
M  V30 5483 H 508.097 -1.36451 -2.92542 0
M  V30 5484 H 507.149 -3.4247 -1.65585 0
M  V30 5485 H 508.461 -4.39079 -2.36666 0
M  V30 5486 H 507.615 -3.87791 -4.66586 0
M  V30 5487 H 506.354 -2.81157 -3.985 0
M  V30 5488 H 505.359 -4.7593 -2.75264 0
M  V30 5489 H 506.584 -5.84083 -3.46445 0
M  V30 5490 H 504.53 -4.22322 -5.01976 0
M  V30 5491 H 504.447 -5.92399 -4.69681 0
M  V30 5492 H 505.715 -5.30443 -5.71183 0
M  V30 5493 N 509.944 0.496216 -1.49584 0
M  V30 5494 C 510.874 1.60576 -1.69521 0
M  V30 5495 C 511.855 1.61169 -0.543933 0
M  V30 5496 O 513.04 1.77834 -0.78031 0
M  V30 5497 C 510.17 2.99038 -1.76616 0
M  V30 5498 C 509.124 3.13312 -2.91581 0
M  V30 5499 C 508.45 4.53172 -2.83794 0
M  V30 5500 C 509.75 2.92886 -4.32452 0
M  V30 5501 H 511.444 1.44146 -2.62416 0
M  V30 5502 H 508.99 0.692024 -1.26282 0
M  V30 5503 H 510.943 3.76564 -1.8915 0
M  V30 5504 H 509.667 3.16568 -0.80324 0
M  V30 5505 H 508.326 2.38213 -2.78658 0
M  V30 5506 H 507.974 4.67585 -1.854 0
M  V30 5507 H 507.674 4.63662 -3.60958 0
M  V30 5508 H 509.198 5.32752 -2.98342 0
M  V30 5509 H 510.612 3.60178 -4.46032 0
M  V30 5510 H 509.009 3.14844 -5.10875 0
M  V30 5511 H 510.079 1.88966 -4.46565 0
M  V30 5512 N 511.423 1.38739 0.74761 0
M  V30 5513 C 512.671 1.35007 1.50391 0
M  V30 5514 C 512.992 -0.0574274 1.94915 0
M  V30 5515 O 512.262 -1.00628 1.6808 0
M  V30 5516 H 510.842 0.496784 0.557866 0
M  V30 5517 H 513.504 1.73479 0.888319 0
M  V30 5518 H 512.6 2.00474 2.392 0
M  V30 5519 N 512.901 -0.976442 1.23707 0
M  V30 5520 C 514.148 -1.71827 1.07153 0
M  V30 5521 C 514.476 -1.9053 -0.390982 0
M  V30 5522 O 513.731 -1.45779 -1.30564 0
M  V30 5523 C 514.03 -3.11814 1.74662 0
M  V30 5524 C 513.696 -3.12978 3.24585 0
M  V30 5525 C 512.358 -3.13003 3.6549 0
M  V30 5526 C 514.71 -3.07986 4.20469 0
M  V30 5527 C 512.038 -3.05757 5.00729 0
M  V30 5528 C 514.39 -3.02282 5.55705 0
M  V30 5529 C 513.054 -3.00631 5.95968 0
M  V30 5530 H 512.324 -0.628758 0.392102 0
M  V30 5531 H 514.971 -1.14239 1.53693 0
M  V30 5532 H 513.276 -3.72812 1.20492 0
M  V30 5533 H 514.973 -3.67989 1.59328 0
M  V30 5534 H 511.563 -3.13718 2.92026 0
M  V30 5535 H 515.747 -3.07103 3.89874 0
M  V30 5536 H 511.003 -3.02834 5.31132 0
M  V30 5537 H 515.177 -2.97376 6.29714 0
M  V30 5538 H 512.804 -2.94771 7.00724 0
M  V30 5539 N 514.379 -1.04941 -1.1758 0
M  V30 5540 C 515.628 -0.753124 -1.87112 0
M  V30 5541 C 515.941 0.722507 -1.81767 0
M  V30 5542 O 517.147 1.13265 -2.46746 0
M  V30 5543 C 515.603 -1.29695 -3.35719 0
M  V30 5544 C 515.211 -2.80184 -3.49572 0
M  V30 5545 C 516.955 -1.07759 -4.10595 0
M  V30 5546 C 514.862 -3.2788 -4.92187 0
M  V30 5547 H 513.792 -0.278034 -0.700866 0
M  V30 5548 H 516.443 -1.26637 -1.32798 0
M  V30 5549 H 514.825 -0.711522 -3.89555 0
M  V30 5550 H 515.999 -3.44561 -3.05965 0
M  V30 5551 H 514.314 -3.00632 -2.88113 0
M  V30 5552 H 516.911 -1.40899 -5.15802 0
M  V30 5553 H 517.254 -0.0152302 -4.16297 0
M  V30 5554 H 517.787 -1.62809 -3.62957 0
M  V30 5555 H 514.526 -4.33535 -4.91658 0
M  V30 5556 H 514.046 -2.68245 -5.36475 0
M  V30 5557 H 515.725 -3.22412 -5.60945 0
M  V30 5558 N 515.857 1.33968 -0.830081 0
M  V30 5559 C 517.105 1.97672 -0.420734 0
M  V30 5560 C 517.426 1.66111 1.02138 0
M  V30 5561 O 516.696 0.955503 1.71017 0
M  V30 5562 H 515.276 0.73125 -0.152587 0
M  V30 5563 H 517.938 1.63483 -1.0611 0
M  V30 5564 H 517.034 3.07294 -0.545588 0
M  V30 5565 N 517.335 0.585699 1.46312 0
M  V30 5566 C 518.751 0.247607 1.57668 0
M  V30 5567 C 518.951 -1.25007 1.58037 0
M  V30 5568 O 518.007 -2.03196 1.49893 0
M  V30 5569 C 519.32 0.899456 2.86933 0
M  V30 5570 C 520.868 0.873326 3.00569 0
M  V30 5571 C 521.343 1.50477 4.32574 0
M  V30 5572 N 522.834 1.46925 4.3928 0
M  V30 5573 C 523.569 1.92719 5.40044 0
M  V30 5574 N 523.065 2.46499 6.47464 0
M  V30 5575 N 524.858 1.83617 5.31264 0
M  V30 5576 H 517.009 1.55841 1.44317 0
M  V30 5577 H 519.272 0.651564 0.688599 0
M  V30 5578 H 518.978 1.95313 2.92482 0
M  V30 5579 H 518.852 0.409476 3.74971 0
M  V30 5580 H 521.239 -0.171736 2.946 0
M  V30 5581 H 521.32 1.40136 2.13999 0
M  V30 5582 H 520.964 2.54905 4.39302 0
M  V30 5583 H 520.894 0.951944 5.17924 0
M  V30 5584 H 523.385 1.07616 3.62253 0
M  V30 5585 H 523.698 2.79291 7.20567 0
M  V30 5586 H 522.043 2.50526 6.48276 0
M  V30 5587 H 525.234 1.41358 4.46246 0
M  V30 5588 H 525.407 2.19622 6.09648 0
M  V30 5589 N 518.813 -1.54241 0.323641 0
M  V30 5590 C 519.76 -2.24339 -0.542277 0
M  V30 5591 C 520.73 -1.23421 -1.11159 0
M  V30 5592 O 521.915 -1.52104 -1.15192 0
M  V30 5593 C 519.055 -3.00479 -1.69725 0
M  V30 5594 C 518.168 -4.16214 -1.15716 0
M  V30 5595 C 517.303 -4.79884 -2.27783 0
M  V30 5596 C 516.342 -5.87722 -1.71023 0
M  V30 5597 N 515.479 -6.45254 -2.76752 0
M  V30 5598 H 520.319 -2.97935 0.0620613 0
M  V30 5599 H 517.856 -1.47039 0.0423993 0
M  V30 5600 H 519.814 -3.42869 -2.3769 0
M  V30 5601 H 518.444 -2.29217 -2.27288 0
M  V30 5602 H 517.496 -3.78605 -0.369063 0
M  V30 5603 H 518.808 -4.93838 -0.701832 0
M  V30 5604 H 517.962 -5.25243 -3.03651 0
M  V30 5605 H 516.701 -4.01641 -2.76652 0
M  V30 5606 H 515.706 -5.41765 -0.936518 0
M  V30 5607 H 516.931 -6.67863 -1.2303 0
M  V30 5608 H 514.877 -5.69884 -3.24912 0
M  V30 5609 H 514.794 -7.18292 -2.35782 0
M  V30 5610 H 516.062 -6.95269 -3.5245 0
M  V30 5611 N 520.291 -0.0518155 -1.57515 0
M  V30 5612 C 521.201 0.937539 -2.15052 0
M  V30 5613 C 522.217 1.34121 -1.10849 0
M  V30 5614 O 523.393 1.418 -1.4302 0
M  V30 5615 C 520.458 2.19379 -2.68466 0
M  V30 5616 C 519.519 1.84841 -3.87469 0
M  V30 5617 C 518.752 3.04477 -4.38326 0
M  V30 5618 O 518.975 4.17868 -3.88256 0
M  V30 5619 O 517.909 2.85453 -5.29906 0
M  V30 5620 H 521.735 0.478201 -2.99912 0
M  V30 5621 H 519.32 0.17012 -1.48428 0
M  V30 5622 H 521.202 2.93084 -3.02787 0
M  V30 5623 H 519.877 2.64449 -1.86677 0
M  V30 5624 H 518.784 1.08449 -3.58036 0
M  V30 5625 H 520.117 1.44569 -4.7049 0
M  V30 5626 N 521.769 1.56035 0.221574 0
M  V30 5627 C 523.017 1.78693 0.944102 0
M  V30 5628 C 523.338 0.620317 1.8487 0
M  V30 5629 O 522.608 -0.362784 1.92512 0
M  V30 5630 H 521.188 0.659082 0.351597 0
M  V30 5631 H 523.85 1.93497 0.233435 0
M  V30 5632 H 522.946 2.70837 1.55093 0
M  V30 5633 N 523.247 -0.488276 1.49845 0
M  V30 5634 C 524.18 -1.60651 1.62069 0
M  V30 5635 C 525.158 -1.5568 0.469308 0
M  V30 5636 O 526.342 -1.75553 0.686551 0
M  V30 5637 C 523.469 -2.99197 1.58741 0
M  V30 5638 C 522.515 -3.22385 2.79232 0
M  V30 5639 S 523.348 -3.04133 4.40753 0
M  V30 5640 C 524.504 -4.45052 4.4009 0
M  V30 5641 H 524.737 -1.50039 2.56662 0
M  V30 5642 H 522.27 -0.674371 1.38894 0
M  V30 5643 H 524.228 -3.79081 1.57506 0
M  V30 5644 H 522.889 -3.07213 0.654136 0
M  V30 5645 H 522.082 -4.23557 2.73159 0
M  V30 5646 H 521.684 -2.50245 2.77945 0
M  V30 5647 H 523.976 -5.37375 4.12594 0
M  V30 5648 H 524.919 -4.56172 5.41583 0
M  V30 5649 H 525.327 -4.26327 3.70008 0
M  V30 5650 N 524.725 -1.39134 -0.740242 0
M  V30 5651 C 525.688 -1.37217 -1.83587 0
M  V30 5652 C 526.688 -0.270221 -1.58513 0
M  V30 5653 O 527.878 -0.527843 -1.6601 0
M  V30 5654 C 525.01 -1.13959 -3.21288 0
M  V30 5655 H 526.203 -2.34705 -1.86691 0
M  V30 5656 H 523.756 -1.24622 -0.94335 0
M  V30 5657 H 524.491 -0.17131 -3.23847 0
M  V30 5658 H 524.276 -1.93754 -3.40884 0
M  V30 5659 H 525.766 -1.15346 -4.01354 0
M  V30 5660 N 526.204 0.969867 -1.24223 0
M  V30 5661 C 527.45 1.7151 -1.08223 0
M  V30 5662 C 527.783 1.90478 0.37838 0
M  V30 5663 O 527.058 1.4647 1.27971 0
M  V30 5664 C 527.341 3.10714 -1.82013 0
M  V30 5665 C 527.194 2.9925 -3.35811 0
M  V30 5666 C 528.513 4.10332 -1.59108 0
M  V30 5667 H 525.632 0.622499 -0.394543 0
M  V30 5668 H 528.274 1.1284 -1.52863 0
M  V30 5669 H 526.424 3.608 -1.44068 0
M  V30 5670 H 528.096 2.56608 -3.83341 0
M  V30 5671 H 526.339 2.35512 -3.64303 0
M  V30 5672 H 527.01 3.97857 -3.82641 0
M  V30 5673 H 529.486 3.69097 -1.92111 0
M  V30 5674 H 528.362 5.05804 -2.13198 0
M  V30 5675 H 528.623 4.38926 -0.528832 0
M  V30 5676 N 527.682 1.05563 1.17022 0
M  V30 5677 C 528.612 0.681026 2.23348 0
M  V30 5678 C 529.593 -0.322983 1.67005 0
M  V30 5679 O 530.778 -0.199746 1.9317 0
M  V30 5680 C 527.908 0.0589053 3.4725 0
M  V30 5681 C 526.862 0.988082 4.16438 0
M  V30 5682 C 526.188 0.229646 5.34207 0
M  V30 5683 C 527.488 2.31388 4.68249 0
M  V30 5684 H 529.182 1.56993 2.54938 0
M  V30 5685 H 526.728 0.756302 1.2254 0
M  V30 5686 H 528.681 -0.214982 4.20851 0
M  V30 5687 H 527.405 -0.864968 3.14938 0
M  V30 5688 H 526.064 1.24659 3.44754 0
M  V30 5689 H 525.712 -0.697111 4.98146 0
M  V30 5690 H 525.412 0.848815 5.81437 0
M  V30 5691 H 526.936 -0.0368694 6.10589 0
M  V30 5692 H 528.35 2.09964 5.33468 0
M  V30 5693 H 526.747 2.88736 5.26072 0
M  V30 5694 H 527.817 2.94982 3.84855 0
M  V30 5695 N 529.16 -1.33526 0.837174 0
M  V30 5696 C 530.385 -2.0258 0.444545 0
M  V30 5697 C 530.81 -1.6258 -0.946006 0
M  V30 5698 O 530.168 -0.817548 -1.6182 0
M  V30 5699 C 530.216 -3.5605 0.571006 0
M  V30 5700 O 529.32 -4.10422 -0.403431 0
M  V30 5701 H 528.661 -0.638866 0.180958 0
M  V30 5702 H 531.191 -1.70462 1.13154 0
M  V30 5703 H 531.201 -4.05488 0.452024 0
M  V30 5704 H 529.876 -3.84509 1.58512 0
M  V30 5705 H 528.453 -3.72113 -0.242147 0
M  V30 5706 N 530.638 -0.59345 -1.46 0
M  V30 5707 C 531.863 -0.0872365 -2.07216 0
M  V30 5708 C 532.288 1.2131 -1.43755 0
M  V30 5709 O 531.646 1.73528 -0.525152 0
M  V30 5710 C 531.694 0.0538197 -3.6056 0
M  V30 5711 O 530.798 1.10765 -3.97247 0
M  V30 5712 H 530.139 -0.0676598 -0.660544 0
M  V30 5713 H 532.669 -0.819445 -1.87473 0
M  V30 5714 H 532.679 0.256567 -4.07193 0
M  V30 5715 H 531.354 -0.895739 -4.0614 0
M  V30 5716 H 529.931 0.882501 -3.62307 0
M  V30 5717 N 532.116 1.54067 -0.331816 0
M  V30 5718 C 533.362 2.01012 0.268667 0
M  V30 5719 C 533.695 1.2195 1.51136 0
M  V30 5720 O 532.97 0.303972 1.9211 0
M  V30 5721 C 533.253 3.55158 0.59456 0
M  V30 5722 C 533.106 4.4494 -0.659409 0
M  V30 5723 C 534.425 4.16939 1.4089 0
M  V30 5724 H 531.544 0.730698 0.0961756 0
M  V30 5725 H 534.186 1.84593 -0.450031 0
M  V30 5726 H 532.336 3.6928 1.20685 0
M  V30 5727 H 534.008 4.42675 -1.29756 0
M  V30 5728 H 532.251 4.1428 -1.28665 0
M  V30 5729 H 532.922 5.50643 -0.386804 0
M  V30 5730 H 535.398 4.06443 0.891272 0
M  V30 5731 H 534.274 5.24889 1.60569 0
M  V30 5732 H 534.535 3.70798 2.40752 0
M  V30 5733 N 533.594 0.0601682 1.57485 0
M  V30 5734 C 534.542 -0.928899 2.13247 0
M  V30 5735 C 535.536 -1.31616 1.06647 0
M  V30 5736 O 536.742 -1.29476 1.25043 0
M  V30 5737 H 533.117 -0.317455 0.681708 0
M  V30 5738 H 535.088 -0.433566 2.95233 0
M  V30 5739 C 533.837 -2.19121 2.69965 0
M  V30 5740 H 533.16 -1.90204 3.51657 0
M  V30 5741 H 534.6 -2.86465 3.12592 0
M  V30 5742 C 533.059 -2.94195 1.64168 0
M  V30 5743 O 533.589 -3.87468 1.05978 0
M  V30 5744 N 531.795 -2.57089 1.35476 0
M  V30 5745 H 531.342 -1.81314 1.82984 0
M  V30 5746 H 531.3 -3.07624 0.649196 0
M  V30 5747 N 535.072 -1.5615 -0.213296 0
M  V30 5748 C 536.002 -1.96109 -1.26742 0
M  V30 5749 C 536.983 -0.830448 -1.48451 0
M  V30 5750 O 538.168 -1.09339 -1.60495 0
M  V30 5751 C 535.298 -2.28492 -2.61551 0
M  V30 5752 C 534.252 -3.44124 -2.54485 0
M  V30 5753 C 533.578 -3.62134 -3.93399 0
M  V30 5754 C 534.878 -4.78855 -2.08556 0
M  V30 5755 H 536.572 -2.84412 -0.935434 0
M  V30 5756 H 534.118 -1.36836 -0.44854 0
M  V30 5757 H 536.071 -2.55039 -3.3546 0
M  V30 5758 H 534.795 -1.37052 -2.96453 0
M  V30 5759 H 533.454 -3.17639 -1.83033 0
M  V30 5760 H 533.102 -2.68055 -4.25623 0
M  V30 5761 H 532.802 -4.39913 -3.89551 0
M  V30 5762 H 534.326 -3.91038 -4.68958 0
M  V30 5763 H 535.74 -5.04552 -2.72213 0
M  V30 5764 H 534.137 -5.59975 -2.1575 0
M  V30 5765 H 535.207 -4.73657 -1.03811 0
M  V30 5766 N 536.55 0.480323 -1.50102 0
M  V30 5767 C 537.497 1.57946 -1.6829 0
M  V30 5768 C 538.467 1.57611 -0.524223 0
M  V30 5769 O 539.652 1.75282 -0.753709 0
M  V30 5770 C 536.792 2.95978 -1.77457 0
M  V30 5771 C 535.905 3.06173 -3.04766 0
M  V30 5772 C 535.04 4.35063 -3.04784 0
M  V30 5773 C 534.079 4.38966 -4.26586 0
M  V30 5774 N 533.216 5.59314 -4.24396 0
M  V30 5775 H 538.056 1.41743 -2.62131 0
M  V30 5776 H 535.593 0.689304 -1.2995 0
M  V30 5777 H 537.551 3.76011 -1.80752 0
M  V30 5778 H 536.181 3.10837 -0.870637 0
M  V30 5779 H 535.233 2.19071 -3.10986 0
M  V30 5780 H 536.545 3.04916 -3.9475 0
M  V30 5781 H 535.699 5.23436 -3.06757 0
M  V30 5782 H 534.438 4.38915 -2.12614 0
M  V30 5783 H 533.443 3.48992 -4.24835 0
M  V30 5784 H 534.668 4.36813 -5.19972 0
M  V30 5785 H 532.614 5.63969 -3.35074 0
M  V30 5786 H 532.531 5.5976 -5.08138 0
M  V30 5787 H 533.799 6.49837 -4.30502 0
M  V30 5788 N 538.028 1.39524 0.732853 0
M  V30 5789 C 539.258 1.3994 1.51988 0
M  V30 5790 C 539.666 -0.00727973 1.89199 0
M  V30 5791 O 539.009 -0.989521 1.54771 0
M  V30 5792 C 539.071 2.21026 2.83527 0
M  V30 5793 C 538.735 3.69633 2.68738 0
M  V30 5794 C 539.732 4.62665 2.37143 0
M  V30 5795 C 537.417 4.13244 2.85542 0
M  V30 5796 C 539.411 5.97291 2.22536 0
M  V30 5797 C 537.098 5.47945 2.70554 0
M  V30 5798 C 538.096 6.39783 2.39097 0
M  V30 5799 O 537.784 7.72002 2.24204 0
M  V30 5800 H 537.516 0.479795 0.476206 0
M  V30 5801 H 540.07 1.8399 0.913054 0
M  V30 5802 H 538.3 1.71728 3.46477 0
M  V30 5803 H 539.989 2.13594 3.45156 0
M  V30 5804 H 540.755 4.30272 2.2381 0
M  V30 5805 H 536.634 3.42094 3.09019 0
M  V30 5806 H 540.178 6.68939 1.97905 0
M  V30 5807 H 536.075 5.79928 2.83466 0
M  V30 5808 H 536.843 7.8275 2.39258 0
M  V30 5809 N 539.506 -0.963266 1.24736 0
M  V30 5810 C 540.753 -1.7068 1.0897 0
M  V30 5811 C 541.081 -1.90934 -0.370751 0
M  V30 5812 O 540.336 -1.47155 -1.29011 0
M  V30 5813 C 540.635 -3.09944 1.7796 0
M  V30 5814 C 540.301 -3.09518 3.27887 0
M  V30 5815 C 538.963 -3.09109 3.68789 0
M  V30 5816 C 541.315 -3.03509 4.23712 0
M  V30 5817 C 538.643 -3.00429 5.03944 0
M  V30 5818 C 540.995 -2.96371 5.5888 0
M  V30 5819 C 539.659 -2.94293 5.99123 0
M  V30 5820 H 538.929 -0.624564 0.398749 0
M  V30 5821 H 541.576 -1.12603 1.54896 0
M  V30 5822 H 539.881 -3.71513 1.2444 0
M  V30 5823 H 541.578 -3.66278 1.63222 0
M  V30 5824 H 538.168 -3.10603 2.95337 0
M  V30 5825 H 542.352 -3.0295 3.93109 0
M  V30 5826 H 537.608 -2.97183 5.34314 0
M  V30 5827 H 541.782 -2.90681 6.32833 0
M  V30 5828 H 539.409 -2.87322 7.03811 0
M  V30 5829 N 540.985 -1.06182 -1.16461 0
M  V30 5830 C 542.262 -0.691364 -1.82974 0
M  V30 5831 C 542.642 0.827377 -1.9421 0
M  V30 5832 O 541.99 1.73723 -1.48434 0
M  V30 5833 C 542.2 -1.39199 -3.20038 0
M  V30 5834 C 543.548 -1.53647 -3.95825 0
M  V30 5835 O 544.572 -1.35181 -3.29552 0
M  V30 5836 O 543.431 -1.83932 -5.14618 0
M  V30 5837 H 540.525 -0.244605 -0.789998 0
M  V30 5838 H 543.071 -1.16203 -1.23673 0
M  V30 5839 H 541.843 -2.42766 -3.06888 0
M  V30 5840 H 541.466 -0.911335 -3.87015 0
M  V30 5841 N 542.463 1.3308 -0.844243 0
M  V30 5842 C 543.709 1.98304 -0.452453 0
M  V30 5843 C 544.064 1.65645 0.978746 0
M  V30 5844 O 543.357 0.928849 1.6758 0
M  V30 5845 C 543.551 3.52045 -0.616354 0
M  V30 5846 C 543.38 3.99643 -2.06193 0
M  V30 5847 C 542.15 4.27224 -2.69829 0
M  V30 5848 C 544.348 4.15471 -3.03131 0
M  V30 5849 N 542.33 4.60998 -4.05406 0
M  V30 5850 C 543.701 4.52665 -4.23668 0
M  V30 5851 C 545.756 3.97776 -2.99465 0
M  V30 5852 C 544.459 4.74011 -5.41023 0
M  V30 5853 C 546.485 4.20301 -4.16055 0
M  V30 5854 C 545.847 4.57801 -5.35348 0
M  V30 5855 H 541.946 0.752122 -0.214096 0
M  V30 5856 H 544.53 1.61096 -1.09344 0
M  V30 5857 H 542.701 3.884 -0.00513205 0
M  V30 5858 H 544.433 4.04228 -0.19548 0
M  V30 5859 H 541.188 4.18911 -2.20931 0
M  V30 5860 H 541.612 4.82087 -4.75312 0
M  V30 5861 H 546.254 3.67893 -2.08362 0
M  V30 5862 H 543.972 5.02753 -6.32665 0
M  V30 5863 H 547.558 4.08122 -4.14641 0
M  V30 5864 H 546.438 4.74884 -6.24063 0
M  V30 5865 N 543.941 0.601185 1.45683 0
M  V30 5866 C 545.169 0.100054 2.06658 0
M  V30 5867 C 545.584 -1.21285 1.44691 0
M  V30 5868 O 544.941 -1.73735 0.558772 0
M  V30 5869 C 544.992 -0.0528579 3.61461 0
M  V30 5870 O 544.713 1.20809 4.21114 0
M  V30 5871 C 546.214 -0.586193 4.39407 0
M  V30 5872 H 543.434 0.065905 0.667756 0
M  V30 5873 H 545.978 0.827101 1.87028 0
M  V30 5874 H 544.133 -0.730203 3.80456 0
M  V30 5875 H 544.547 1.03368 5.14213 0
M  V30 5876 H 546.021 -0.642297 5.4825 0
M  V30 5877 H 546.498 -1.60713 4.0874 0
M  V30 5878 H 547.104 0.0568935 4.25262 0
M  V30 5879 N 545.419 -1.53889 0.339982 0
M  V30 5880 C 546.835 -1.59595 -0.0120752 0
M  V30 5881 C 547.035 -1.35605 -1.49042 0
M  V30 5882 O 546.091 -1.14856 -2.24865 0
M  V30 5883 C 547.404 -2.9774 0.420898 0
M  V30 5884 C 548.952 -3.1077 0.37294 0
M  V30 5885 C 549.427 -4.51286 0.781327 0
M  V30 5886 N 550.918 -4.57325 0.735374 0
M  V30 5887 C 551.653 -5.64194 1.02336 0
M  V30 5888 N 551.149 -6.7893 1.37933 0
M  V30 5889 N 552.942 -5.54051 0.947838 0
M  V30 5890 H 545.093 -1.67738 1.30299 0
M  V30 5891 H 547.356 -0.785385 0.530918 0
M  V30 5892 H 547.062 -3.20349 1.45152 0
M  V30 5893 H 546.936 -3.76639 -0.205721 0
M  V30 5894 H 549.323 -2.87886 -0.648505 0
M  V30 5895 H 549.404 -2.33939 1.03472 0
M  V30 5896 H 549.048 -4.74905 1.80077 0
M  V30 5897 H 548.978 -5.26511 0.0970679 0
M  V30 5898 H 551.469 -3.74931 0.472773 0
M  V30 5899 H 551.782 -7.56392 1.58402 0
M  V30 5900 H 550.127 -6.80386 1.41774 0
M  V30 5901 H 553.318 -4.63293 0.669115 0
M  V30 5902 H 553.491 -6.37246 1.17563 0
M  V30 5903 N 546.897 -0.0685191 -1.57451 0
M  V30 5904 C 547.827 0.89747 -2.15564 0
M  V30 5905 C 548.808 1.31266 -1.08181 0
M  V30 5906 O 549.993 1.38429 -1.36202 0
M  V30 5907 C 547.123 2.16623 -2.71463 0
M  V30 5908 C 546.077 1.89054 -3.83982 0
M  V30 5909 C 545.403 3.22532 -4.26471 0
M  V30 5910 C 546.703 1.1984 -5.08366 0
M  V30 5911 H 548.397 0.413373 -2.96533 0
M  V30 5912 H 545.943 0.197391 -1.42641 0
M  V30 5913 H 547.896 2.84614 -3.10761 0
M  V30 5914 H 546.62 2.67269 -1.8771 0
M  V30 5915 H 545.279 1.23469 -3.45183 0
M  V30 5916 H 544.927 3.71013 -3.39644 0
M  V30 5917 H 544.627 3.04879 -5.02317 0
M  V30 5918 H 546.151 3.91727 -4.68383 0
M  V30 5919 H 547.565 1.77896 -5.45001 0
M  V30 5920 H 545.962 1.12456 -5.89469 0
M  V30 5921 H 547.032 0.176996 -4.84577 0
M  V30 5922 O 548.414 1.61339 0.072188 0
M  V30 5923 H 549.105 1.80682 0.698125 0
M  V30 END ATOM
M  V30 BEGIN BOND
M  V30 END BOND
M  V30 END CTAB
M  END
$$$$
