drugbank_target|P02746 Complement C1q subcomponent subunit B (DB00002; DB00110; DB00111; DB00112; DB01593; DB14487; DB14533; DB14548)
 OpenBabel12092120043D

  0  0  0     0  0            999 V3000
M  V30 BEGIN CTAB
M  V30 COUNTS 3752 3800 0 0 0
M  V30 BEGIN ATOM
M  V30 1 H -0.908 1.98254 -0.117106 0
M  V30 2 N 0 1.576 0 0
M  V30 3 C 0.933 2.03868 1.02534 0
M  V30 4 C 1.911 0.928543 1.3348 0
M  V30 5 O 3.095 1.19667 1.45644 0
M  V30 6 C 0.222 2.43627 2.35294 0
M  V30 7 C -0.732 3.65373 2.2001 0
M  V30 8 S 0.101 5.13292 1.52614 0
M  V30 9 C 1.257 5.56322 2.86805 0
M  V30 10 H 1.49 2.90518 0.631377 0
M  V30 11 H -0.977 1.52953 0.210867 0
M  V30 12 H 0.981 2.67203 3.11629 0
M  V30 13 H -0.358 1.57376 2.7183 0
M  V30 14 H -1.165 3.90944 3.18086 0
M  V30 15 H -1.563 3.418 1.51819 0
M  V30 16 H 0.729 5.58782 3.83104 0
M  V30 17 H 1.672 6.56266 2.65933 0
M  V30 18 H 2.08 4.83886 2.90714 0
M  V30 19 N 1.4781 -0.272755 1.55222 0
M  V30 20 C 2.4111 -1.3627 1.83046 0
M  V30 21 C 3.3891 -1.47536 0.683521 0
M  V30 22 O 4.5731 -1.64157 0.926545 0
M  V30 23 C 1.7001 -2.73908 1.99229 0
M  V30 24 C 0.7461 -2.79925 3.21783 0
M  V30 25 S 1.5791 -2.39146 4.79134 0
M  V30 26 C 2.7351 -3.78758 4.9829 0
M  V30 27 H 2.9681 -1.12464 2.75207 0
M  V30 28 H 0.5011 -0.472398 1.46996 0
M  V30 29 H 2.4591 -3.53171 2.09238 0
M  V30 30 H 1.1201 -2.94965 1.07956 0
M  V30 31 H 0.3131 -3.80946 3.29994 0
M  V30 32 H -0.0849 -2.08683 3.10367 0
M  V30 33 H 2.2071 -4.7403 4.84047 0
M  V30 34 H 3.1501 -3.75499 6.00338 0
M  V30 35 H 3.5581 -3.70072 4.26271 0
M  V30 36 N 2.9562 -1.48159 -0.537278 0
M  V30 37 C 3.8892 -1.567 -1.65893 0
M  V30 38 C 4.8672 -0.41787 -1.57139 0
M  V30 39 O 6.0512 -0.628461 -1.77715 0
M  V30 40 C 3.1782 -1.48818 -3.04255 0
M  V30 41 C 2.2242 -2.68482 -3.31391 0
M  V30 42 S 3.0572 -4.30516 -3.1846 0
M  V30 43 C 4.2132 -4.2522 -4.59281 0
M  V30 44 H 4.4462 -2.5159 -1.58397 0
M  V30 45 H 1.9792 -1.36602 -0.719672 0
M  V30 46 H 3.9372 -1.44958 -3.84054 0
M  V30 47 H 2.5982 -0.552777 -3.09198 0
M  V30 48 H 1.7912 -2.59085 -4.32309 0
M  V30 49 H 1.3932 -2.69567 -2.59248 0
M  V30 50 H 3.6852 -3.94703 -5.5065 0
M  V30 51 H 4.6282 -5.26292 -4.73732 0
M  V30 52 H 5.0362 -3.55791 -4.38261 0
M  V30 53 N 4.4343 0.785586 -1.36625 0
M  V30 54 C 5.3813 1.89838 -1.31264 0
M  V30 55 C 6.3513 1.65115 -0.180633 0
M  V30 56 O 7.5363 1.87222 -0.36777 0
M  V30 57 C 4.6763 3.26706 -1.11163 0
M  V30 58 C 3.7893 3.63476 -2.33472 0
M  V30 59 C 2.9243 4.89481 -2.06353 0
M  V30 60 C 1.9633 5.18941 -3.24602 0
M  V30 61 N 1.1003 6.36131 -2.97123 0
M  V30 62 H 5.9403 1.93756 -2.26413 0
M  V30 63 H 3.4773 0.947454 -1.12524 0
M  V30 64 H 5.4353 4.05639 -0.975337 0
M  V30 65 H 4.0653 3.222 -0.196674 0
M  V30 66 H 3.1173 2.79636 -2.57891 0
M  V30 67 H 4.4293 3.81193 -3.21704 0
M  V30 68 H 3.5833 5.76288 -1.89675 0
M  V30 69 H 2.3223 4.73841 -1.15437 0
M  V30 70 H 1.3273 4.30615 -3.41834 0
M  V30 71 H 2.5523 5.36498 -4.16349 0
M  V30 72 H 0.4983 6.21875 -2.08823 0
M  V30 73 H 0.4153 6.54198 -3.78894 0
M  V30 74 H 1.6833 7.2591 -2.84033 0
M  V30 75 N 5.9124 1.20967 1.01018 0
M  V30 76 C 7.1614 1.01796 1.74128 0
M  V30 77 C 7.4744 -0.449691 1.90361 0
M  V30 78 O 8.6804 -0.76068 2.60626 0
M  V30 79 C 7.1364 1.7727 3.13215 0
M  V30 80 C 6.7444 3.28171 3.04972 0
M  V30 81 C 8.4884 1.66489 3.90489 0
M  V30 82 C 6.3954 3.96156 4.39107 0
M  V30 83 H 5.3254 0.377276 0.652824 0
M  V30 84 H 7.9764 1.44651 1.12909 0
M  V30 85 H 6.3584 1.27205 3.75013 0
M  V30 86 H 7.5324 3.85499 2.52443 0
M  V30 87 H 5.8474 3.39437 2.41188 0
M  V30 88 H 8.4444 2.14617 4.89738 0
M  V30 89 H 8.7874 0.6222 4.11624 0
M  V30 90 H 9.3204 2.14003 3.35332 0
M  V30 91 H 6.0594 5.00604 4.23174 0
M  V30 92 H 5.5794 3.43617 4.91617 0
M  V30 93 H 7.2584 4.00774 5.07926 0
M  V30 94 N 7.3905 -1.2043 1.01659 0
M  V30 95 C 8.8015 -1.71517 0.737482 0
M  V30 96 C 9.1525 -1.81547 -0.743973 0
M  V30 97 O 8.2775 -1.47803 -1.58061 0
M  V30 98 C 8.8725 -3.11515 1.33206 0
M  V30 99 C 7.4315 -3.59912 1.10183 0
M  V30 100 C 6.5785 -2.37116 1.43776 0
M  V30 101 H 9.5295 -1.05444 1.18606 0
M  V30 102 H 9.5505 -3.73575 0.722636 0
M  V30 103 H 9.0625 -3.04182 2.41028 0
M  V30 104 H 7.1635 -3.72577 0.0412756 0
M  V30 105 H 7.2765 -4.44731 1.78188 0
M  V30 106 H 5.6405 -2.39857 0.856778 0
M  V30 107 H 6.4235 -2.32424 2.52654 0
M  V30 108 N 8.8686 -0.792821 -1.36206 0
M  V30 109 C 10.1146 -0.376415 -1.99887 0
M  V30 110 C 10.4696 1.04127 -1.61788 0
M  V30 111 O 9.7626 1.71004 -0.864193 0
M  V30 112 C 9.9566 -0.481501 -3.54142 0
M  V30 113 C 9.7856 -1.90786 -4.07223 0
M  V30 114 C 8.5556 -2.53322 -4.37214 0
M  V30 115 C 10.7536 -2.87048 -4.26741 0
M  V30 116 N 8.7356 -3.8751 -4.7614 0
M  V30 117 C 10.1066 -4.06077 -4.6851 0
M  V30 118 C 12.1616 -2.8406 -4.08918 0
M  V30 119 C 10.8646 -5.22532 -4.94321 0
M  V30 120 C 12.8906 -3.99705 -4.35878 0
M  V30 121 C 12.2526 -5.1748 -4.77906 0
M  V30 122 H 8.3516 -0.185226 -0.759747 0
M  V30 123 H 10.9356 -1.03114 -1.65153 0
M  V30 124 H 9.1066 0.143154 -3.88136 0
M  V30 125 H 10.8386 -0.0410128 -4.04679 0
M  V30 126 H 7.5936 -2.04777 -4.2704 0
M  V30 127 H 8.0176 -4.5656 -4.99882 0
M  V30 128 H 12.6596 -1.94165 -3.75579 0
M  V30 129 H 10.3776 -6.1301 -5.2654 0
M  V30 130 H 13.9636 -3.98758 -4.23655 0
M  V30 131 H 12.8436 -6.05478 -4.98363 0
M  V30 132 N 10.3467 1.47872 -0.545128 0
M  V30 133 C 11.5947 2.02093 -0.016553 0
M  V30 134 C 11.9157 1.42305 1.3332 0
M  V30 135 O 11.1857 0.593853 1.86682 0
M  V30 136 H 9.7657 0.746993 -0.00313038 0
M  V30 137 H 12.4277 1.81414 -0.712397 0
M  V30 138 H 11.5237 3.11996 0.0805422 0
M  V30 139 N 11.8248 0.280983 1.55075 0
M  V30 140 C 13.0498 -0.340154 2.04592 0
M  V30 141 C 13.4748 -1.48246 1.15779 0
M  V30 142 O 12.8328 -1.80614 0.15761 0
M  V30 143 C 12.8808 -0.793104 3.5177 0
M  V30 144 O 11.9848 -1.89981 3.66034 0
M  V30 145 H 11.3258 -0.0694289 0.66036 0
M  V30 146 H 13.8558 0.416993 2.00306 0
M  V30 147 H 13.8658 -1.08729 3.93245 0
M  V30 148 H 12.5408 0.0426163 4.15878 0
M  V30 149 H 11.1178 -1.60771 3.36463 0
M  V30 150 N 13.3029 -1.57598 0.00835791 0
M  V30 151 C 14.5519 -1.90107 -0.673968 0
M  V30 152 C 14.8649 -0.884275 -1.7447 0
M  V30 153 O 16.0709 -1.09987 -2.48224 0
M  V30 154 C 14.5269 -3.37497 -1.24995 0
M  V30 155 C 14.1349 -4.47491 -0.2136 0
M  V30 156 C 15.8789 -3.79104 -1.90999 0
M  V30 157 C 13.7859 -5.85963 -0.80005 0
M  V30 158 H 12.7159 -0.709393 -0.255495 0
M  V30 159 H 15.3669 -1.83365 0.0702693 0
M  V30 160 H 13.7489 -3.39102 -2.04513 0
M  V30 161 H 14.9229 -4.57414 0.557596 0
M  V30 162 H 13.2379 -4.14956 0.346474 0
M  V30 163 H 15.8349 -4.79901 -2.35795 0
M  V30 164 H 16.1779 -3.1306 -2.74407 0
M  V30 165 H 16.7109 -3.79833 -1.18203 0
M  V30 166 H 13.4499 -6.555 -0.00456708 0
M  V30 167 H 12.9699 -5.79687 -1.54021 0
M  V30 168 H 14.6489 -6.33884 -1.29615 0
M  V30 169 N 14.781 0.264519 -1.55364 0
M  V30 170 C 16.192 0.834936 -1.6699 0
M  V30 171 C 16.543 1.86718 -0.602552 0
M  V30 172 O 15.668 2.14899 0.254425 0
M  V30 173 C 16.263 1.5212 -3.02729 0
M  V30 174 C 14.822 2.03954 -3.16354 0
M  V30 175 C 13.969 0.884498 -2.62815 0
M  V30 176 H 16.92 0.0406869 -1.58648 0
M  V30 177 H 16.941 2.38853 -2.96191 0
M  V30 178 H 16.453 0.769668 -3.80392 0
M  V30 179 H 14.554 2.82041 -2.43482 0
M  V30 180 H 14.667 2.24902 -4.23032 0
M  V30 181 H 13.031 1.2802 -2.20188 0
M  V30 182 H 13.814 0.14634 -3.42988 0
M  V30 183 N 16.2591 1.48442 0.529413 0
M  V30 184 C 17.5051 1.5672 1.28711 0
M  V30 185 C 17.8381 0.2406 1.92704 0
M  V30 186 O 17.1131 -0.753454 1.79313 0
M  V30 187 C 17.3961 2.70587 2.37603 0
M  V30 188 C 17.2491 4.12953 1.78297 0
M  V30 189 C 18.5681 2.80212 3.39366 0
M  V30 190 H 15.6871 0.570474 0.466613 0
M  V30 191 H 18.3291 1.80617 0.589706 0
M  V30 192 H 16.4791 2.50342 2.97088 0
M  V30 193 H 18.1511 4.44639 1.22858 0
M  V30 194 H 16.3941 4.19927 1.0883 0
M  V30 195 H 17.0651 4.88448 2.57144 0
M  V30 196 H 19.5411 2.98553 2.89836 0
M  V30 197 H 18.4171 3.61611 4.12951 0
M  V30 198 H 18.6781 1.88393 3.99951 0
M  V30 199 N 17.7372 -0.778329 1.37039 0
M  V30 200 C 18.6672 -1.90546 1.34962 0
M  V30 201 C 19.6482 -1.68681 0.219274 0
M  V30 202 O 20.8332 -1.89634 0.418624 0
M  V30 203 C 17.9632 -3.27734 1.14925 0
M  V30 204 C 16.9172 -3.64147 2.24902 0
M  V30 205 C 16.2432 -4.99806 1.89996 0
M  V30 206 C 17.5432 -3.71579 3.67051 0
M  V30 207 H 19.2372 -1.92541 2.29277 0
M  V30 208 H 16.7832 -0.924948 1.10366 0
M  V30 209 H 18.7362 -4.06215 1.12104 0
M  V30 210 H 17.4602 -3.26154 0.170631 0
M  V30 211 H 16.1192 -2.8797 2.26868 0
M  V30 212 H 15.7672 -4.94759 0.906796 0
M  V30 213 H 15.4672 -5.25139 2.63634 0
M  V30 214 H 16.9912 -5.80694 1.88749 0
M  V30 215 H 18.4052 -4.40227 3.67251 0
M  V30 216 H 16.8022 -4.08405 4.39688 0
M  V30 217 H 17.8722 -2.72404 4.01154 0
M  V30 218 N 19.2153 -1.21501 -1.00376 0
M  V30 219 C 20.1483 -0.918669 -2.08892 0
M  V30 220 C 21.1263 0.134277 -1.62045 0
M  V30 221 O 22.3103 0.00504255 -1.88499 0
M  V30 222 C 19.4373 -0.379645 -3.36566 0
M  V30 223 C 18.4833 -1.41559 -4.02323 0
M  V30 224 S 19.3163 -2.98521 -4.44574 0
M  V30 225 C 20.4723 -2.46228 -5.75433 0
M  V30 226 H 20.7053 -1.83761 -2.33707 0
M  V30 227 H 18.2383 -1.04489 -1.13673 0
M  V30 228 H 20.1963 -0.0752195 -4.10431 0
M  V30 229 H 18.8573 0.518008 -3.09799 0
M  V30 230 H 18.0503 -0.988076 -4.9422 0
M  V30 231 H 17.6523 -1.66815 -3.34737 0
M  V30 232 H 19.9443 -1.86791 -6.51241 0
M  V30 233 H 20.8873 -3.36572 -6.22997 0
M  V30 234 H 21.2953 -1.87894 -5.32312 0
M  V30 235 N 20.6934 1.19889 -1.02296 0
M  V30 236 C 21.6234 2.25141 -0.619174 0
M  V30 237 C 22.6044 1.66051 0.368915 0
M  V30 238 O 23.7894 1.92546 0.252941 0
M  V30 239 C 20.9194 3.4728 0.0368783 0
M  V30 240 C 19.8734 4.19005 -0.872865 0
M  V30 241 C 19.1994 5.34637 -0.0822402 0
M  V30 242 C 20.4994 4.74452 -2.18387 0
M  V30 243 H 22.1934 2.59171 -1.49903 0
M  V30 244 H 19.7394 1.24579 -0.722222 0
M  V30 245 H 21.6924 4.20098 0.330958 0
M  V30 246 H 20.4164 3.12433 0.95149 0
M  V30 247 H 19.0754 3.48061 -1.15105 0
M  V30 248 H 18.7234 4.96034 0.83422 0
M  V30 249 H 18.4234 5.83557 -0.688149 0
M  V30 250 H 19.9474 6.10255 0.205238 0
M  V30 251 H 21.3614 5.39055 -1.95172 0
M  V30 252 H 19.7584 5.33834 -2.74119 0
M  V30 253 H 20.8284 3.92844 -2.84257 0
M  V30 254 N 22.1715 0.800033 1.35784 0
M  V30 255 C 23.1015 0.220184 2.3246 0
M  V30 256 C 24.0825 -0.65073 1.57161 0
M  V30 257 O 25.2675 -0.582359 1.85263 0
M  V30 258 C 22.3975 -0.637353 3.41402 0
M  V30 259 C 21.3515 0.134531 4.27789 0
M  V30 260 C 20.6775 -0.844285 5.27992 0
M  V30 261 C 21.9775 1.32979 5.05088 0
M  V30 262 H 23.6715 1.02787 2.81203 0
M  V30 263 H 21.2175 0.495717 1.35199 0
M  V30 264 H 23.1705 -1.05302 4.08031 0
M  V30 265 H 21.8945 -1.47785 2.91251 0
M  V30 266 H 20.5535 0.531296 3.6273 0
M  V30 267 H 20.2015 -1.68011 4.74111 0
M  V30 268 H 19.9015 -0.332184 5.8666 0
M  V30 269 H 21.4255 -1.2583 5.97494 0
M  V30 270 H 22.8395 0.98934 5.64699 0
M  V30 271 H 21.2365 1.77593 5.7322 0
M  V30 272 H 22.3065 2.11978 4.36111 0
M  V30 273 N 23.6496 -1.47581 0.552962 0
M  V30 274 C 24.5796 -2.32762 -0.185451 0
M  V30 275 C 25.5606 -1.43527 -0.912905 0
M  V30 276 O 26.7456 -1.72388 -0.894201 0
M  V30 277 C 23.8756 -3.25219 -1.21859 0
M  V30 278 C 22.8296 -4.23661 -0.607864 0
M  V30 279 C 22.1556 -5.05413 -1.74533 0
M  V30 280 C 23.4556 -5.20481 0.435582 0
M  V30 281 H 25.1496 -2.94749 0.525684 0
M  V30 282 H 22.6956 -1.41738 0.254251 0
M  V30 283 H 24.6486 -3.8365 -1.7433 0
M  V30 284 H 23.3726 -2.61279 -1.95961 0
M  V30 285 H 22.0316 -3.66451 -0.104489 0
M  V30 286 H 21.6796 -4.3788 -2.47529 0
M  V30 287 H 21.3796 -5.72059 -1.34249 0
M  V30 288 H 22.9036 -5.66701 -2.27338 0
M  V30 289 H 24.3176 -5.733 -0.00290157 0
M  V30 290 H 22.7146 -5.95305 0.757067 0
M  V30 291 H 23.7846 -4.66217 1.33303 0
M  V30 292 N 25.1277 -0.289203 -1.54924 0
M  V30 293 C 26.0577 0.58549 -2.2604 0
M  V30 294 C 27.0387 1.14753 -1.25562 0
M  V30 295 O 28.2237 1.17906 -1.54311 0
M  V30 296 C 25.3537 1.76305 -2.99222 0
M  V30 297 C 24.3077 1.33191 -4.06748 0
M  V30 298 C 23.6337 2.5937 -4.6758 0
M  V30 299 C 24.9337 0.471775 -5.20165 0
M  V30 300 H 26.6277 -0.00763532 -2.99399 0
M  V30 301 H 24.1737 -0.00511229 -1.43999 0
M  V30 302 H 26.1267 2.38097 -3.47689 0
M  V30 303 H 24.8507 2.38223 -2.23422 0
M  V30 304 H 23.5097 0.737121 -3.59113 0
M  V30 305 H 23.1577 3.19576 -3.88433 0
M  V30 306 H 22.8577 2.31228 -5.40192 0
M  V30 307 H 24.3817 3.21985 -5.18804 0
M  V30 308 H 25.7957 0.995056 -5.64599 0
M  V30 309 H 24.1927 0.284639 -5.99425 0
M  V30 310 H 25.2627 -0.506041 -4.82252 0
M  V30 311 N 26.6058 1.57591 -0.0167156 0
M  V30 312 C 27.5358 2.12496 0.967858 0
M  V30 313 C 28.5168 1.03807 1.34752 0
M  V30 314 O 29.7018 1.31577 1.42833 0
M  V30 315 C 26.8318 2.64194 2.25431 0
M  V30 316 C 25.7858 3.77559 2.01576 0
M  V30 317 C 25.1118 4.15636 3.36379 0
M  V30 318 C 26.4118 5.04151 1.36489 0
M  V30 319 H 28.1058 2.95013 0.510643 0
M  V30 320 H 25.6518 1.41915 0.244181 0
M  V30 321 H 27.6048 3.01236 2.94678 0
M  V30 322 H 26.3288 1.78821 2.73296 0
M  V30 323 H 24.9878 3.40937 1.34751 0
M  V30 324 H 24.6358 3.27263 3.81979 0
M  V30 325 H 24.3358 4.92022 3.21229 0
M  V30 326 H 25.8598 4.5525 4.06915 0
M  V30 327 H 27.2738 5.38857 1.95718 0
M  V30 328 H 25.6708 5.85453 1.31776 0
M  V30 329 H 26.7408 4.83733 0.336219 0
M  V30 330 N 28.0839 -0.256276 1.55502 0
M  V30 331 C 29.3319 -0.983672 1.76545 0
M  V30 332 C 29.6529 -1.86206 0.578982 0
M  V30 333 O 28.9229 -1.91656 -0.405577 0
M  V30 334 H 27.5029 -0.366191 0.651086 0
M  V30 335 H 30.1649 -0.276479 1.92929 0
M  V30 336 H 29.2609 -1.61087 2.67315 0
M  V30 337 N 29.562 -1.4872 -0.521534 0
M  V30 338 C 30.492 -1.66771 -1.63431 0
M  V30 339 C 31.473 -0.516499 -1.62069 0
M  V30 340 O 32.658 -0.750013 -1.79132 0
M  V30 341 C 29.788 -1.71515 -3.01993 0
M  V30 342 C 28.742 -2.86222 -3.18216 0
M  V30 343 C 28.068 -2.76061 -4.57924 0
M  V30 344 C 29.368 -4.27419 -3.00184 0
M  V30 345 H 31.062 -2.59932 -1.48579 0
M  V30 346 H 28.608 -1.25089 -0.713358 0
M  V30 347 H 30.561 -1.82731 -3.7972 0
M  V30 348 H 29.285 -0.749393 -3.17886 0
M  V30 349 H 27.944 -2.74575 -2.42908 0
M  V30 350 H 27.592 -1.77437 -4.70665 0
M  V30 351 H 27.292 -3.53037 -4.69722 0
M  V30 352 H 28.816 -2.89256 -5.37739 0
M  V30 353 H 30.23 -4.39855 -3.67697 0
M  V30 354 H 28.627 -5.05458 -3.2347 0
M  V30 355 H 29.697 -4.43293 -1.96518 0
M  V30 356 N 31.0401 0.771051 -1.3745 0
M  V30 357 C 32.2891 1.52491 -1.3202 0
M  V30 358 C 32.6021 1.9538 0.0927347 0
M  V30 359 O 33.8081 2.70159 0.269503 0
M  V30 360 C 32.2641 2.75366 -2.31736 0
M  V30 361 C 31.8721 2.39573 -3.78562 0
M  V30 362 C 33.6161 3.53307 -2.35318 0
M  V30 363 C 31.5231 3.58954 -4.70007 0
M  V30 364 H 30.4531 0.572506 -0.490666 0
M  V30 365 H 33.1041 0.844474 -1.62914 0
M  V30 366 H 31.4861 3.45303 -1.93861 0
M  V30 367 H 32.6601 1.77415 -4.25277 0
M  V30 368 H 30.9751 1.74805 -3.77932 0
M  V30 369 H 33.5721 4.42039 -3.00842 0
M  V30 370 H 33.9151 3.93217 -1.36698 0
M  V30 371 H 34.4481 2.90367 -2.71904 0
M  V30 372 H 31.1871 3.24125 -5.69757 0
M  V30 373 H 30.7071 4.20214 -4.27996 0
M  V30 374 H 32.3861 4.25758 -4.87175 0
M  V30 375 N 32.5182 1.22032 0.997298 0
M  V30 376 C 33.7952 0.950823 1.70935 0
M  V30 377 C 34.1752 -0.535292 2.042 0
M  V30 378 O 33.5232 -1.50217 1.72183 0
M  V30 379 C 33.7332 1.84386 2.96315 0
M  V30 380 C 35.0812 2.09732 3.69185 0
M  V30 381 O 36.1052 1.81798 3.06314 0
M  V30 382 O 34.9642 2.57018 4.82291 0
M  V30 383 H 32.0582 0.357204 0.745878 0
M  V30 384 H 34.6042 1.32997 1.05404 0
M  V30 385 H 33.3762 2.84928 2.68201 0
M  V30 386 H 32.9992 1.46602 3.69586 0
M  V30 387 N 33.9963 -1.19345 1.0293 0
M  V30 388 C 35.2453 -1.88363 0.721256 0
M  V30 389 C 35.5583 -1.80514 -0.753254 0
M  V30 390 O 36.7643 -2.44788 -1.17436 0
M  V30 391 C 35.2203 -3.37872 1.23978 0
M  V30 392 C 34.8283 -3.54278 2.74211 0
M  V30 393 C 36.5723 -4.12365 1.00775 0
M  V30 394 C 34.4793 -4.97682 3.19479 0
M  V30 395 H 33.4093 -0.705484 0.266098 0
M  V30 396 H 36.0603 -1.34928 1.24365 0
M  V30 397 H 34.4423 -3.90707 0.6453 0
M  V30 398 H 35.6163 -3.11769 3.39318 0
M  V30 399 H 33.9313 -2.93174 2.95699 0
M  V30 400 H 36.5283 -5.18119 1.32123 0
M  V30 401 H 36.8713 -4.16263 -0.0554308 0
M  V30 402 H 37.4043 -3.65668 1.56625 0
M  V30 403 H 34.1433 -4.98945 4.25128 0
M  V30 404 H 33.6633 -5.4095 2.591 0
M  V30 405 H 35.3423 -5.66337 3.12845 0
M  V30 406 N 35.4744 -0.807222 -1.35358 0
M  V30 407 C 36.6994 -0.399309 -2.0352 0
M  V30 408 C 37.1244 0.981986 -1.60433 0
M  V30 409 O 36.4824 1.63601 -0.781299 0
M  V30 410 C 36.5304 -0.491552 -3.57234 0
M  V30 411 O 35.6344 0.494754 -4.09421 0
M  V30 412 H 34.9754 -0.166682 -0.642739 0
M  V30 413 H 37.5054 -1.09328 -1.72941 0
M  V30 414 H 37.5154 -0.361588 -4.06395 0
M  V30 415 H 36.1904 -1.49907 -3.87944 0
M  V30 416 H 34.7674 0.324977 -3.71481 0
M  V30 417 N 36.9525 1.47285 -0.560781 0
M  V30 418 C 37.8845 2.28118 0.222438 0
M  V30 419 C 38.8975 1.37219 0.876056 0
M  V30 420 O 40.0865 1.62011 0.749307 0
M  V30 421 C 37.1865 3.1159 1.33285 0
M  V30 422 C 36.3595 4.30473 0.77534 0
M  V30 423 C 35.4185 4.95513 1.77069 0
M  V30 424 O 34.4445 5.53792 1.31539 0
M  V30 425 N 35.6465 4.90531 3.10418 0
M  V30 426 H 38.4115 2.95976 -0.470958 0
M  V30 427 H 35.9725 1.56955 -0.39709 0
M  V30 428 H 37.9645 3.51967 1.99752 0
M  V30 429 H 36.5345 2.45951 1.92943 0
M  V30 430 H 35.7545 3.94144 -0.0662113 0
M  V30 431 H 37.0425 5.07362 0.382272 0
M  V30 432 H 36.4405 4.44389 3.5005 0
M  V30 433 H 34.9975 5.34917 3.72434 0
M  V30 434 N 38.4306 0.297415 1.54768 0
M  V30 435 C 39.3936 -0.567375 2.22066 0
M  V30 436 C 40.3936 -1.06409 1.20556 0
M  V30 437 O 41.5836 -0.960691 1.45315 0
M  V30 438 C 38.7156 -1.78517 2.90421 0
M  V30 439 H 39.9086 0.0205534 2.99893 0
M  V30 440 H 37.4616 0.0482163 1.56226 0
M  V30 441 H 38.1966 -2.41303 2.16664 0
M  V30 442 H 37.9816 -1.43669 3.64831 0
M  V30 443 H 39.4716 -2.39964 3.41771 0
M  V30 444 N 39.9087 -1.5758 0.0250728 0
M  V30 445 C 40.8407 -2.06869 -0.986796 0
M  V30 446 C 41.8537 -0.991332 -1.29137 0
M  V30 447 O 43.0427 -1.26761 -1.25674 0
M  V30 448 C 40.1427 -2.47486 -2.31525 0
M  V30 449 C 39.3157 -3.78253 -2.19643 0
M  V30 450 C 38.3747 -4.05464 -3.35388 0
M  V30 451 O 37.4007 -4.75774 -3.12454 0
M  V30 452 N 38.6027 -3.55321 -4.59051 0
M  V30 453 H 41.3677 -2.94302 -0.566276 0
M  V30 454 H 38.9287 -1.6109 -0.161776 0
M  V30 455 H 40.9207 -2.62785 -3.07776 0
M  V30 456 H 39.4907 -1.65441 -2.65232 0
M  V30 457 H 38.7107 -3.7279 -1.28144 0
M  V30 458 H 39.9987 -4.63936 -2.08903 0
M  V30 459 H 39.3967 -2.98431 -4.80578 0
M  V30 460 H 37.9537 -3.75905 -5.32483 0
M  V30 461 N 41.3868 0.248026 -1.55636 0
M  V30 462 C 42.3168 1.31079 -1.93237 0
M  V30 463 C 43.2978 1.50264 -0.797174 0
M  V30 464 O 44.4828 1.62891 -1.05737 0
M  V30 465 C 41.6128 2.66575 -2.22609 0
M  V30 466 C 40.5668 2.62087 -3.3837 0
M  V30 467 C 39.8928 4.01369 -3.53281 0
M  V30 468 C 41.1928 2.19171 -4.7409 0
M  V30 469 H 42.8868 0.998556 -2.82257 0
M  V30 470 H 40.4328 0.47891 -1.35803 0
M  V30 471 H 42.3858 3.41057 -2.47503 0
M  V30 472 H 41.1098 2.99432 -1.30414 0
M  V30 473 H 39.7688 1.90063 -3.13483 0
M  V30 474 H 39.4168 4.31489 -2.58508 0
M  V30 475 H 39.1168 3.99254 -4.31127 0
M  V30 476 H 40.6408 4.77552 -3.80495 0
M  V30 477 H 42.0548 2.83384 -4.98363 0
M  V30 478 H 40.4518 2.2817 -5.5503 0
M  V30 479 H 41.5218 1.14336 -4.71227 0
M  V30 480 N 42.8649 1.48995 0.513639 0
M  V30 481 C 44.0899 1.61792 1.29762 0
M  V30 482 C 44.5149 0.284475 1.85936 0
M  V30 483 O 43.8729 -0.746185 1.65232 0
M  V30 484 C 43.9209 2.67993 2.41272 0
M  V30 485 O 43.0249 2.26287 3.44772 0
M  V30 486 H 42.3659 0.541963 0.38363 0
M  V30 487 H 44.8959 1.95097 0.616307 0
M  V30 488 H 44.9059 2.89772 2.87221 0
M  V30 489 H 43.5809 3.64791 1.9975 0
M  V30 490 H 42.1579 2.14788 3.04829 0
M  V30 491 N 44.343 -0.763751 1.37857 0
M  V30 492 C 45.583 -1.53551 1.34913 0
M  V30 493 C 45.947 -1.91895 -0.0635882 0
M  V30 494 O 47.148 -2.67916 -0.217825 0
M  V30 495 C 45.419 -2.76126 2.26912 0
M  V30 496 S 46.978 -3.66105 2.41893 0
M  V30 497 H 43.796 -0.52559 0.478828 0
M  V30 498 H 46.398 -0.897435 1.73685 0
M  V30 499 H 45.102 -2.4605 3.28463 0
M  V30 500 H 44.633 -3.44887 1.89253 0
M  V30 501 H 46.648 -4.68473 1.63545 0
M  V30 502 N 45.8211 -1.22559 -0.990812 0
M  V30 503 C 47.0491 -1.07779 -1.76611 0
M  V30 504 C 47.4641 0.371513 -1.85109 0
M  V30 505 O 46.8211 1.25737 -1.32274 0
M  V30 506 C 46.8721 -1.68512 -3.19822 0
M  V30 507 O 46.5931 -3.07774 -3.1178 0
M  V30 508 C 48.0941 -1.59035 -4.13791 0
M  V30 509 H 45.3141 -0.377729 -0.554583 0
M  V30 510 H 47.8581 -1.62195 -1.24551 0
M  V30 511 H 46.0131 -1.18154 -3.68942 0
M  V30 512 H 46.4271 -3.37062 -4.01858 0
M  V30 513 H 47.9011 -2.0625 -5.1202 0
M  V30 514 H 48.3781 -0.547273 -4.35777 0
M  V30 515 H 48.9841 -2.08709 -3.70568 0
M  V30 516 N 47.2992 1.18797 -1.03562 0
M  V30 517 C 48.5472 1.88278 -0.734569 0
M  V30 518 C 48.8682 1.8043 0.739586 0
M  V30 519 O 48.1382 1.21925 1.53333 0
M  V30 520 H 46.7182 0.696991 -0.268725 0
M  V30 521 H 49.3802 1.44192 -1.31129 0
M  V30 522 H 48.4762 2.94443 -1.03489 0
M  V30 523 N 48.7773 0.814389 1.34928 0
M  V30 524 C 50.1883 0.458364 1.80986 0
M  V30 525 C 50.5393 -1.02042 1.67577 0
M  V30 526 O 49.6643 -1.79352 1.21086 0
M  V30 527 C 50.2593 0.825212 3.28597 0
M  V30 528 C 48.8183 0.521677 3.72767 0
M  V30 529 C 47.9653 1.04668 2.56788 0
M  V30 530 H 50.9163 1.00533 1.22795 0
M  V30 531 H 50.9373 0.12571 3.80292 0
M  V30 532 H 50.4493 1.90154 3.38324 0
M  V30 533 H 48.5503 -0.545589 3.68584 0
M  V30 534 H 48.6633 1.05977 4.67232 0
M  V30 535 H 47.0273 0.468622 2.50352 0
M  V30 536 H 47.8103 2.12927 2.6929 0
M  V30 537 N 50.2554 -1.46986 0.568584 0
M  V30 538 C 51.6664 -1.86188 0.138219 0
M  V30 539 C 52.0174 -1.47388 -1.29504 0
M  V30 540 O 51.1424 -0.88219 -1.97602 0
M  V30 541 C 51.7374 -3.3792 0.244065 0
M  V30 542 C 50.2964 -3.76171 -0.131335 0
M  V30 543 C 49.4434 -2.71027 0.586465 0
M  V30 544 H 52.3944 -1.38342 0.777645 0
M  V30 545 H 52.4154 -3.76729 -0.534351 0
M  V30 546 H 51.9274 -3.66128 1.28731 0
M  V30 547 H 50.0284 -3.5358 -1.17526 0
M  V30 548 H 50.1414 -4.78523 0.235146 0
M  V30 549 H 48.5054 -2.54684 0.0282722 0
M  V30 550 H 49.2884 -3.02077 1.63109 0
M  V30 551 N 51.7335 -0.305618 -1.54608 0
M  V30 552 C 52.6965 0.555591 -2.22364 0
M  V30 553 C 53.6965 1.05768 -1.21119 0
M  V30 554 O 54.8865 0.952972 -1.45822 0
M  V30 555 C 52.0185 1.76974 -2.91364 0
M  V30 556 H 53.2115 -0.0364572 -2.99878 0
M  V30 557 H 50.7645 -0.0565007 -1.56198 0
M  V30 558 H 51.4995 2.40151 -2.17941 0
M  V30 559 H 51.2845 1.41732 -3.65588 0
M  V30 560 H 52.7745 2.38148 -3.43038 0
M  V30 561 N 53.2116 1.57565 -0.0334293 0
M  V30 562 C 54.4606 1.91155 0.643639 0
M  V30 563 C 54.7736 0.91192 1.73042 0
M  V30 564 O 55.9796 1.13923 2.46442 0
M  V30 565 C 54.4356 3.39443 1.1961 0
M  V30 566 C 54.0436 4.47774 0.142381 0
M  V30 567 C 55.7876 3.82094 1.84944 0
M  V30 568 C 53.6946 5.87162 0.706727 0
M  V30 569 H 52.6246 0.713368 0.244176 0
M  V30 570 H 55.2756 1.8323 -0.0994323 0
M  V30 571 H 53.6576 3.42313 1.99092 0
M  V30 572 H 54.8316 4.56469 -0.630296 0
M  V30 573 H 53.1466 4.14352 -0.412446 0
M  V30 574 H 55.7436 4.83591 2.2813 0
M  V30 575 H 56.0866 3.17386 2.69392 0
M  V30 576 H 56.6196 3.81665 1.12145 0
M  V30 577 H 53.3586 6.55424 -0.0997178 0
M  V30 578 H 52.8786 5.82064 1.44779 0
M  V30 579 H 54.5576 6.35866 1.19514 0
M  V30 580 N 54.6897 -0.239769 1.55765 0
M  V30 581 C 56.1007 -0.808263 1.68297 0
M  V30 582 C 56.4517 -1.85736 0.632181 0
M  V30 583 O 55.5767 -2.15277 -0.220204 0
M  V30 584 C 56.1717 -1.47284 3.05111 0
M  V30 585 C 54.7307 -1.98895 3.19559 0
M  V30 586 C 53.8777 -0.842575 2.64189 0
M  V30 587 H 56.8287 -0.0154422 1.58692 0
M  V30 588 H 56.8497 -2.34111 2.99954 0
M  V30 589 H 56.3617 -0.709053 3.81568 0
M  V30 590 H 54.4627 -2.78132 2.47938 0
M  V30 591 H 54.5757 -2.18143 4.26556 0
M  V30 592 H 52.9397 -1.24501 2.22197 0
M  V30 593 H 53.7227 -0.0917552 3.43177 0
M  V30 594 N 56.1678 -1.49265 -0.50573 0
M  V30 595 C 57.4158 -1.582 -1.25766 0
M  V30 596 C 57.7368 -0.268482 -1.93143 0
M  V30 597 O 57.0068 0.711833 -1.8251 0
M  V30 598 H 55.5868 -0.582873 -0.467191 0
M  V30 599 H 58.2488 -1.85865 -0.586525 0
M  V30 600 H 57.3448 -2.37563 -2.02412 0
M  V30 601 N 57.6459 0.756429 -1.3826 0
M  V30 602 C 58.8949 1.51082 -1.3363 0
M  V30 603 C 59.2079 1.95467 0.0720068 0
M  V30 604 O 60.4139 2.7043 0.240834 0
M  V30 605 C 58.8699 2.72893 -2.34644 0
M  V30 606 C 58.4779 2.35544 -3.81081 0
M  V30 607 C 60.2219 3.50791 -2.39052 0
M  V30 608 C 58.1289 3.53948 -4.73787 0
M  V30 609 H 57.0589 0.56727 -0.49671 0
M  V30 610 H 59.7099 0.827147 -1.638 0
M  V30 611 H 58.0919 3.43227 -1.97513 0
M  V30 612 H 59.2659 1.72894 -4.27135 0
M  V30 613 H 57.5809 1.70786 -3.79764 0
M  V30 614 H 60.1779 4.38823 -3.05513 0
M  V30 615 H 60.5209 3.91745 -1.40861 0
M  V30 616 H 61.0539 2.87467 -2.74968 0
M  V30 617 H 57.7929 3.18064 -5.73163 0
M  V30 618 H 57.3129 4.15651 -4.32428 0
M  V30 619 H 58.9919 4.20566 -4.91663 0
M  V30 620 N 59.124 1.23083 0.984299 0
M  V30 621 C 60.535 1.05609 1.5396 0
M  V30 622 C 60.886 -0.377793 1.92528 0
M  V30 623 O 60.011 -1.26398 1.75649 0
M  V30 624 C 60.606 1.91087 2.7977 0
M  V30 625 C 59.165 1.77885 3.31713 0
M  V30 626 C 58.312 1.87028 2.04733 0
M  V30 627 H 61.263 1.36802 0.804419 0
M  V30 628 H 61.284 1.43336 3.5247 0
M  V30 629 H 60.796 2.9544 2.51668 0
M  V30 630 H 58.897 0.762995 3.64704 0
M  V30 631 H 59.01 2.61047 4.01735 0
M  V30 632 H 57.374 1.30565 2.18689 0
M  V30 633 H 58.157 2.92929 1.79017 0
M  V30 634 N 60.6021 -1.18246 1.0419 0
M  V30 635 C 61.8501 -1.87886 0.744543 0
M  V30 636 C 62.1711 -1.8082 -0.730006 0
M  V30 637 O 61.4411 -1.22736 -1.52685 0
M  V30 638 H 60.0211 -0.695556 0.272417 0
M  V30 639 H 62.6831 -1.43494 1.31892 0
M  V30 640 H 61.7791 -2.9389 1.05049 0
M  V30 641 N 62.0802 -0.821533 -1.34494 0
M  V30 642 C 63.3292 -0.405355 -1.97585 0
M  V30 643 C 63.6422 1.03677 -1.65863 0
M  V30 644 O 64.8482 1.55679 -2.22433 0
M  V30 645 C 63.3042 -0.673861 -3.53535 0
M  V30 646 C 62.9122 -2.12951 -3.94152 0
M  V30 647 C 64.6562 -0.32378 -4.23263 0
M  V30 648 C 62.5632 -2.34298 -5.43009 0
M  V30 649 H 61.4932 -0.147836 -0.739365 0
M  V30 650 H 64.1442 -1.00769 -1.53355 0
M  V30 651 H 62.5262 -0.00137554 -3.96 0
M  V30 652 H 63.7002 -2.84104 -3.62797 0
M  V30 653 H 62.0152 -2.44089 -3.37356 0
M  V30 654 H 64.6122 -0.461126 -5.32708 0
M  V30 655 H 64.9552 0.731586 -4.09821 0
M  V30 656 H 65.4882 -0.950786 -3.8627 0
M  V30 657 H 62.2272 -3.38335 -5.61435 0
M  V30 658 H 61.7472 -1.67687 -5.75883 0
M  V30 659 H 63.4262 -2.16588 -6.09671 0
M  V30 660 N 63.5583 1.46682 -0.576371 0
M  V30 661 C 64.9693 1.86112 -0.148091 0
M  V30 662 C 65.3203 1.48073 1.2872 0
M  V30 663 O 64.4453 0.892656 1.97131 0
M  V30 664 C 65.0403 3.37786 -0.261982 0
M  V30 665 C 63.5993 3.76235 0.111384 0
M  V30 666 C 62.7463 2.70713 -0.60083 0
M  V30 667 H 65.6973 1.37927 -0.78497 0
M  V30 668 H 65.7183 3.77007 0.514364 0
M  V30 669 H 65.2303 3.6544 -1.30671 0
M  V30 670 H 63.3313 3.54198 1.15649 0
M  V30 671 H 63.4443 4.78391 -0.26052 0
M  V30 672 H 61.8083 2.54666 -0.0417783 0
M  V30 673 H 62.5913 3.01208 -1.64708 0
M  V30 674 N 65.0364 0.313813 1.54444 0
M  V30 675 C 66.2844 -0.291099 1.99993 0
M  V30 676 C 66.6054 -1.53418 1.20366 0
M  V30 677 O 65.8754 -1.93544 0.302927 0
M  V30 678 H 64.4554 -0.110552 0.738774 0
M  V30 679 H 67.1174 0.428106 1.9014 0
M  V30 680 H 66.2134 -0.554268 3.07139 0
M  V30 681 N 66.5145 -1.57545 0.0417849 0
M  V30 682 C 67.7425 -1.96624 -0.643928 0
M  V30 683 C 68.1575 -0.918897 -1.64929 0
M  V30 684 O 67.5145 0.0979323 -1.82237 0
M  V30 685 C 67.5655 -3.35781 -1.33914 0
M  V30 686 O 67.2865 -4.365 -0.374048 0
M  V30 687 C 68.7875 -3.89566 -2.1155 0
M  V30 688 H 66.0075 -0.647316 -0.176702 0
M  V30 689 H 68.5515 -2.04229 0.105304 0
M  V30 690 H 66.7065 -3.29357 -2.03968 0
M  V30 691 H 67.1205 -5.17248 -0.869179 0
M  V30 692 H 68.5945 -4.89242 -2.55628 0
M  V30 693 H 69.0715 -3.24488 -2.9598 0
M  V30 694 H 69.6775 -3.99298 -1.46427 0
M  V30 695 N 67.9926 0.231505 -1.5589 0
M  V30 696 C 69.4036 0.799327 -1.68724 0
M  V30 697 C 69.7546 1.85398 -0.642022 0
M  V30 698 O 68.8796 2.1539 0.208784 0
M  V30 699 C 69.4746 1.45664 -3.05888 0
M  V30 700 C 68.0336 1.97197 -3.20609 0
M  V30 701 C 67.1806 0.828552 -2.64632 0
M  V30 702 H 70.1316 0.00702616 -1.58698 0
M  V30 703 H 70.1526 2.32517 -3.01191 0
M  V30 704 H 69.6646 0.688808 -3.81939 0
M  V30 705 H 67.7656 2.76813 -2.4941 0
M  V30 706 H 67.8786 2.15878 -4.27707 0
M  V30 707 H 66.2426 1.23321 -2.22854 0
M  V30 708 H 67.0256 0.0735544 -3.43221 0
M  V30 709 N 69.4707 1.49531 0.497807 0
M  V30 710 C 70.7187 1.58865 1.24926 0
M  V30 711 C 71.0397 0.278721 1.92998 0
M  V30 712 O 70.3097 -0.702144 1.82885 0
M  V30 713 H 68.8897 0.585343 0.464094 0
M  V30 714 H 71.5517 1.86174 0.57666 0
M  V30 715 H 70.6477 2.38633 2.01149 0
M  V30 716 N 70.9488 -0.749086 1.3866 0
M  V30 717 C 72.3598 -1.32664 1.31366 0
M  V30 718 C 72.7108 -1.96179 -0.028484 0
M  V30 719 O 71.8358 -1.9537 -0.93057 0
M  V30 720 C 72.4308 -2.41219 2.37905 0
M  V30 721 C 70.9898 -2.94684 2.34176 0
M  V30 722 C 70.1368 -1.68108 2.20533 0
M  V30 723 H 73.0878 -0.547628 1.48952 0
M  V30 724 H 73.1088 -3.21268 2.0388 0
M  V30 725 H 72.6208 -1.94962 3.35576 0
M  V30 726 H 70.7218 -3.45258 1.401 0
M  V30 727 H 70.8348 -3.48757 3.2849 0
M  V30 728 H 69.1988 -1.91907 1.67463 0
M  V30 729 H 69.9818 -1.23923 3.20153 0
M  V30 730 N 72.4269 -1.23603 -0.977757 0
M  V30 731 C 73.7039 -0.977897 -1.69401 0
M  V30 732 C 74.0839 0.502738 -2.05026 0
M  V30 733 O 73.4319 1.47459 -1.74551 0
M  V30 734 C 73.6419 -1.89077 -2.93345 0
M  V30 735 C 74.9899 -2.15579 -3.65802 0
M  V30 736 O 76.0139 -1.86648 -3.03383 0
M  V30 737 O 74.8729 -2.64658 -4.78141 0
M  V30 738 H 71.9669 -0.369025 -0.740101 0
M  V30 739 H 74.5129 -1.34657 -1.03274 0
M  V30 740 H 73.2849 -2.89158 -2.63634 0
M  V30 741 H 72.9079 -1.52463 -3.67207 0
M  V30 742 N 73.905 1.17692 -1.04816 0
M  V30 743 C 75.153 1.87488 -0.754497 0
M  V30 744 C 75.474 1.81205 0.720407 0
M  V30 745 O 74.744 1.23544 1.52032 0
M  V30 746 H 73.324 0.694101 -0.276102 0
M  V30 747 H 75.986 1.42793 -1.32651 0
M  V30 748 H 75.082 2.93328 -1.06606 0
M  V30 749 N 75.3831 0.828654 1.34056 0
M  V30 750 C 76.3151 0.212052 2.28217 0
M  V30 751 C 77.3281 -0.601362 1.51286 0
M  V30 752 O 78.5171 -0.430104 1.73241 0
M  V30 753 C 75.6171 -0.72088 3.31144 0
M  V30 754 C 74.7901 0.0509587 4.3737 0
M  V30 755 C 73.8491 -0.803766 5.20025 0
M  V30 756 O 72.8751 -0.246667 5.68665 0
M  V30 757 N 74.0771 -2.1227 5.40298 0
M  V30 758 H 76.8421 1.02105 2.81771 0
M  V30 759 H 74.4031 0.686153 1.46641 0
M  V30 760 H 76.3951 -1.29742 3.8334 0
M  V30 761 H 74.9651 -1.43061 2.77943 0
M  V30 762 H 74.1851 0.808831 3.85813 0
M  V30 763 H 75.4731 0.582065 5.0546 0
M  V30 764 H 74.8711 -2.59898 5.02464 0
M  V30 765 H 73.4281 -2.64796 5.95589 0
M  V30 766 N 76.8612 -1.46375 0.584142 0
M  V30 767 C 78.2722 -1.86031 0.157959 0
M  V30 768 C 78.6232 -1.48753 -1.27933 0
M  V30 769 O 77.7482 -0.903098 -1.96655 0
M  V30 770 C 78.3432 -3.37642 0.279892 0
M  V30 771 C 76.9022 -3.76289 -0.09143 0
M  V30 772 C 76.0492 -2.7039 0.615178 0
M  V30 773 H 79.0002 -1.37509 0.792274 0
M  V30 774 H 79.0212 -3.77275 -0.494364 0
M  V30 775 H 78.5332 -3.64742 1.32607 0
M  V30 776 H 76.6342 -3.54806 -1.13769 0
M  V30 777 H 76.7472 -4.78246 0.285886 0
M  V30 778 H 75.1112 -2.5464 0.0552833 0
M  V30 779 H 75.8942 -3.0033 1.66303 0
M  V30 780 N 78.3393 -0.321999 -1.54275 0
M  V30 781 C 79.5873 0.280489 -2.00144 0
M  V30 782 C 79.9083 1.52777 -1.21178 0
M  V30 783 O 79.1783 1.9338 -0.313187 0
M  V30 784 H 77.7583 0.106632 -0.73935 0
M  V30 785 H 80.4203 -0.438184 -1.8991 0
M  V30 786 H 79.5163 0.537972 -3.07428 0
M  V30 787 N 79.8174 1.5752 -0.0501392 0
M  V30 788 C 81.0454 1.96963 0.633492 0
M  V30 789 C 81.4604 0.927631 1.6444 0
M  V30 790 O 80.8174 -0.0882665 1.82286 0
M  V30 791 C 80.8684 3.36487 1.32132 0
M  V30 792 O 80.5894 4.36693 0.350894 0
M  V30 793 C 82.0904 3.90682 2.09481 0
M  V30 794 H 79.3104 0.648244 0.173266 0
M  V30 795 H 81.8544 2.0417 -0.116134 0
M  V30 796 H 80.0094 3.30434 2.02218 0
M  V30 797 H 80.4234 5.17702 0.841735 0
M  V30 798 H 81.8974 4.90591 2.5303 0
M  V30 799 H 82.3744 3.26053 2.94255 0
M  V30 800 H 82.9804 4.00069 1.44307 0
M  V30 801 N 81.2955 -0.223234 1.56011 0
M  V30 802 C 82.7065 -0.790368 1.69145 0
M  V30 803 C 83.0575 -1.85055 0.651845 0
M  V30 804 O 82.1825 -2.15498 -0.197359 0
M  V30 805 C 82.7775 -1.4404 3.06656 0
M  V30 806 C 81.3365 -1.95494 3.2165 0
M  V30 807 C 80.4835 -0.814506 2.65068 0
M  V30 808 H 83.4345 0.00139011 1.587 0
M  V30 809 H 83.4555 -2.30916 3.0242 0
M  V30 810 H 82.9675 -0.668543 3.82298 0
M  V30 811 H 81.0685 -2.75487 2.50874 0
M  V30 812 H 81.1815 -2.13607 4.28846 0
M  V30 813 H 79.5455 -1.22137 2.23505 0
M  V30 814 H 80.3285 -0.0553515 3.43255 0
M  V30 815 N 82.7736 -1.49793 -0.48987 0
M  V30 816 C 84.0216 -1.59525 -1.24081 0
M  V30 817 C 84.3426 -0.288953 -1.92847 0
M  V30 818 O 83.6126 0.692436 -1.83254 0
M  V30 819 H 82.1926 -0.587796 -0.460983 0
M  V30 820 H 84.8546 -1.86477 -0.566778 0
M  V30 821 H 83.9506 -2.39696 -1.99881 0
M  V30 822 N 84.2517 0.741722 -1.39055 0
M  V30 823 C 85.5007 1.49656 -1.35225 0
M  V30 824 C 85.8137 1.95533 0.0512708 0
M  V30 825 O 87.0197 2.7067 0.212138 0
M  V30 826 C 85.4757 2.70389 -2.37525 0
M  V30 827 C 85.0837 2.31489 -3.83558 0
M  V30 828 C 86.8277 3.48236 -2.42759 0
M  V30 829 C 84.7347 3.48903 -4.77515 0
M  V30 830 H 83.6647 0.56197 -0.502699 0
M  V30 831 H 86.3157 0.809727 -1.64668 0
M  V30 832 H 84.6977 3.41113 -2.01142 0
M  V30 833 H 85.8717 1.68354 -4.28945 0
M  V30 834 H 84.1867 1.66749 -3.81554 0
M  V30 835 H 86.7837 4.35558 -3.1015 0
M  V30 836 H 87.1267 3.90229 -1.45008 0
M  V30 837 H 87.6597 2.84535 -2.78002 0
M  V30 838 H 84.3987 3.11966 -5.76504 0
M  V30 839 H 83.9187 4.11041 -4.36813 0
M  V30 840 H 85.5977 4.15328 -4.96096 0
M  V30 841 N 85.7298 1.2412 0.971189 0
M  V30 842 C 86.6768 1.0305 2.06517 0
M  V30 843 C 87.6468 -0.0550666 1.66009 0
M  V30 844 O 88.8318 0.0988688 1.90544 0
M  V30 845 C 85.9718 0.637653 3.39158 0
M  V30 846 C 85.0848 1.79633 3.92882 0
M  V30 847 C 84.2198 1.34939 5.13775 0
M  V30 848 C 83.2588 2.47823 5.59687 0
M  V30 849 N 82.3958 2.04022 6.71803 0
M  V30 850 H 87.2358 1.96685 2.23873 0
M  V30 851 H 84.7728 0.979694 1.09729 0
M  V30 852 H 86.7308 0.390931 4.15364 0
M  V30 853 H 85.3608 -0.261693 3.21737 0
M  V30 854 H 84.4128 2.15681 3.13346 0
M  V30 855 H 85.7248 2.64466 4.22918 0
M  V30 856 H 84.8788 1.06134 5.97345 0
M  V30 857 H 83.6178 0.471557 4.85415 0
M  V30 858 H 82.6228 2.77392 4.74693 0
M  V30 859 H 83.8478 3.36158 5.90063 0
M  V30 860 H 81.7938 1.18632 6.45184 0
M  V30 861 H 81.7108 2.82409 7.01271 0
M  V30 862 H 82.9788 1.78347 7.58823 0
M  V30 863 N 87.2079 -1.17134 1.05439 0
M  V30 864 C 88.4559 -1.87085 0.764429 0
M  V30 865 C 88.7769 -1.81584 -0.710787 0
M  V30 866 O 88.0469 -1.24349 -1.51374 0
M  V30 867 H 86.6269 -0.692627 0.279779 0
M  V30 868 H 89.2889 -1.42087 1.33406 0
M  V30 869 H 88.3849 -2.92759 1.0816 0
M  V30 870 N 88.686 -0.835752 -1.33615 0
M  V30 871 C 89.596 -0.269088 -2.33052 0
M  V30 872 C 90.612 0.603251 -1.63208 0
M  V30 873 O 91.788 0.508112 -1.94885 0
M  V30 874 C 88.853 0.549091 -3.42324 0
M  V30 875 C 87.914 -0.347156 -4.27894 0
M  V30 876 C 87.147 0.43207 -5.31948 0
M  V30 877 O 87.37 1.66409 -5.45586 0
M  V30 878 O 86.304 -0.192298 -6.01593 0
M  V30 879 H 90.13 -1.09243 -2.83372 0
M  V30 880 H 87.715 -0.598198 -1.36901 0
M  V30 881 H 89.597 1.01414 -4.09015 0
M  V30 882 H 88.272 1.34955 -2.94226 0
M  V30 883 H 87.179 -0.859979 -3.64081 0
M  V30 884 H 88.512 -1.1123 -4.79467 0
M  V30 885 N 90.1641 1.46063 -0.591896 0
M  V30 886 C 91.1111 2.30399 0.136069 0
M  V30 887 C 92.0811 1.41169 0.875238 0
M  V30 888 O 93.2661 1.70112 0.86409 0
M  V30 889 C 90.4061 3.25804 1.13781 0
M  V30 890 C 89.5191 4.30134 0.401137 0
M  V30 891 C 88.6541 5.12659 1.39121 0
M  V30 892 C 87.6931 6.0873 0.641462 0
M  V30 893 N 86.8301 6.8409 1.58004 0
M  V30 894 H 91.6701 2.92118 -0.589144 0
M  V30 895 H 89.2071 1.43959 -0.302342 0
M  V30 896 H 91.1651 3.79569 1.73156 0
M  V30 897 H 89.7951 2.65872 1.83062 0
M  V30 898 H 88.8471 3.79152 -0.307826 0
M  V30 899 H 90.1591 4.98458 -0.184565 0
M  V30 900 H 89.3131 5.70747 2.05749 0
M  V30 901 H 88.0521 4.44316 2.01084 0
M  V30 902 H 87.0571 5.49786 -0.0385419 0
M  V30 903 H 88.2821 6.79095 0.0270945 0
M  V30 904 H 86.2281 6.18449 2.18761 0
M  V30 905 H 86.1451 7.48709 1.04738 0
M  V30 906 H 87.4131 7.4673 2.23639 0
M  V30 907 N 91.6422 0.330177 1.54103 0
M  V30 908 C 92.8902 -0.269871 2.0029 0
M  V30 909 C 93.2112 -1.52133 1.21986 0
M  V30 910 O 92.4812 -1.93212 0.323438 0
M  V30 911 H 91.0612 -0.10271 0.739905 0
M  V30 912 H 93.7232 0.448249 1.89675 0
M  V30 913 H 92.8192 -0.52166 3.07709 0
M  V30 914 N 93.1203 -1.57491 0.0584922 0
M  V30 915 C 94.0503 -2.14988 -0.911178 0
M  V30 916 C 95.0313 -1.07343 -1.31952 0
M  V30 917 O 96.2163 -1.35318 -1.39294 0
M  V30 918 C 93.3463 -2.70078 -2.18347 0
M  V30 919 C 92.3003 -3.82771 -1.91495 0
M  V30 920 C 91.6263 -4.24408 -3.25241 0
M  V30 921 C 92.9263 -5.07592 -1.23075 0
M  V30 922 H 94.6203 -2.96263 -0.432246 0
M  V30 923 H 92.1663 -1.42512 -0.206469 0
M  V30 924 H 94.1193 -3.08943 -2.86587 0
M  V30 925 H 92.8433 -1.86005 -2.68458 0
M  V30 926 H 91.5023 -3.44389 -1.25664 0
M  V30 927 H 91.1503 -3.37275 -3.73168 0
M  V30 928 H 90.8503 -5.00366 -3.08071 0
M  V30 929 H 92.3743 -4.65879 -3.94701 0
M  V30 930 H 93.7883 -5.43857 -1.81362 0
M  V30 931 H 92.1853 -5.88741 -1.16207 0
M  V30 932 H 93.2553 -4.84454 -0.207847 0
M  V30 933 N 94.5984 0.214957 -1.56127 0
M  V30 934 C 96.0094 0.781386 -1.69562 0
M  V30 935 C 96.3604 1.84707 -0.66165 0
M  V30 936 O 95.4854 2.156 0.185927 0
M  V30 937 C 96.0804 1.42411 -3.07416 0
M  V30 938 C 94.6394 1.93786 -3.22683 0
M  V30 939 C 93.7864 0.800438 -2.65496 0
M  V30 940 H 96.7374 -0.00980633 -1.58697 0
M  V30 941 H 96.7584 2.29309 -3.0364 0
M  V30 942 H 96.2704 0.64826 -3.82648 0
M  V30 943 H 94.3714 2.74152 -2.52332 0
M  V30 944 H 94.4844 2.1133 -4.29973 0
M  V30 945 H 92.8484 1.2095 -2.2415 0
M  V30 946 H 93.6314 0.0371471 -3.4328 0
M  V30 947 N 96.0765 1.50051 0.48192 0
M  V30 948 C 97.3245 1.60181 1.23234 0
M  V30 949 C 97.6455 0.299176 1.92691 0
M  V30 950 O 96.9155 -0.682708 1.83619 0
M  V30 951 H 95.4955 0.590232 0.457859 0
M  V30 952 H 98.1575 1.86775 0.556881 0
M  V30 953 H 97.2535 2.40753 1.98607 0
M  V30 954 N 97.5546 -0.734337 1.39446 0
M  V30 955 C 98.4846 -1.86155 1.40955 0
M  V30 956 C 99.4656 -1.67898 0.272827 0
M  V30 957 O 100.651 -1.88207 0.478743 0
M  V30 958 C 97.7806 -3.23912 1.25294 0
M  V30 959 C 96.7346 -3.56808 2.36373 0
M  V30 960 C 96.0606 -4.93508 2.058 0
M  V30 961 C 97.3606 -3.59713 3.78687 0
M  V30 962 H 99.0546 -1.8515 2.35287 0
M  V30 963 H 96.6006 -0.889367 1.13253 0
M  V30 964 H 98.5536 -4.02443 1.2497 0
M  V30 965 H 97.2776 -3.25446 0.274308 0
M  V30 966 H 95.9366 -2.80606 2.35914 0
M  V30 967 H 95.5846 -4.91623 1.06374 0
M  V30 968 H 95.2846 -5.16486 2.80208 0
M  V30 969 H 96.8086 -5.74396 2.07128 0
M  V30 970 H 98.2226 -4.2832 3.81071 0
M  V30 971 H 96.6196 -3.94209 4.52459 0
M  V30 972 H 97.6896 -2.59504 4.09617 0
M  V30 973 N 99.0327 -1.24633 -0.964593 0
M  V30 974 C 99.9957 -1.0424 -2.04124 0
M  V30 975 C 100.996 0.00137563 -1.608 0
M  V30 976 O 102.186 -0.239883 -1.7254 0
M  V30 977 C 99.3177 -0.580588 -3.3592 0
M  V30 978 H 100.511 -1.99803 -2.23649 0
M  V30 979 H 98.0637 -1.06899 -1.14027 0
M  V30 980 H 98.7987 0.3781 -3.22088 0
M  V30 981 H 98.5837 -1.33398 -3.6871 0
M  V30 982 H 100.074 -0.459034 -4.15069 0
M  V30 983 N 100.511 1.16574 -1.06058 0
M  V30 984 C 101.759 1.86677 -0.77434 0
M  V30 985 C 102.08 1.81959 0.701147 0
M  V30 986 O 101.35 1.2515 1.50713 0
M  V30 987 H 99.9298 0.691134 -0.283449 0
M  V30 988 H 102.592 1.41378 -1.34158 0
M  V30 989 H 101.688 2.92181 -1.09711 0
M  V30 990 N 101.989 0.842826 1.3317 0
M  V30 991 C 103.266 0.362216 1.92217 0
M  V30 992 C 103.646 -1.15289 1.76838 0
M  V30 993 O 102.994 -1.96914 1.15919 0
M  V30 994 C 103.204 0.813495 3.39387 0
M  V30 995 C 104.552 0.823804 4.16532 0
M  V30 996 O 105.576 0.757358 3.48055 0
M  V30 997 O 104.435 0.915193 5.38782 0
M  V30 998 H 101.529 0.103317 0.820521 0
M  V30 999 H 104.075 0.928942 1.42017 0
M  V30 1000 H 102.847 1.85624 3.4447 0
M  V30 1001 H 102.47 0.223561 3.96971 0
M  V30 1002 N 103.467 -1.45747 0.599634 0
M  V30 1003 C 104.417 -2.27538 -0.145107 0
M  V30 1004 C 105.401 -1.3686 -0.846055 0
M  V30 1005 O 106.593 -1.6091 -0.737357 0
M  V30 1006 C 103.722 -3.23569 -1.14708 0
M  V30 1007 C 102.808 -4.21734 -0.447383 0
M  V30 1008 N 103.199 -5.03257 0.506535 0
M  V30 1009 C 101.497 -4.40536 -0.695966 0
M  V30 1010 C 102.198 -5.74426 0.917068 0
M  V30 1011 N 101.174 -5.42966 0.26253 0
M  V30 1012 H 104.976 -2.87965 0.587672 0
M  V30 1013 H 102.49 -1.56803 0.422697 0
M  V30 1014 H 104.487 -3.8089 -1.69495 0
M  V30 1015 H 103.147 -2.64702 -1.8805 0
M  V30 1016 H 104.158 -5.10319 0.882899 0
M  V30 1017 H 100.835 -3.92802 -1.41467 0
M  V30 1018 H 102.225 -6.4995 1.70338 0
M  V30 1019 N 104.945 -0.338344 -1.53925 0
M  V30 1020 C 106.193 0.259245 -2.0043 0
M  V30 1021 C 106.514 1.51484 -1.22791 0
M  V30 1022 O 105.784 1.93037 -0.33368 0
M  V30 1023 H 104.364 0.0987845 -0.740439 0
M  V30 1024 H 107.026 -0.458302 -1.89435 0
M  V30 1025 H 106.122 0.505334 -3.07982 0
M  V30 1026 N 106.423 1.57458 -0.0668435 0
M  V30 1027 C 107.333 2.15937 0.916975 0
M  V30 1028 C 108.349 1.12123 1.33058 0
M  V30 1029 O 109.525 1.44366 1.40429 0
M  V30 1030 C 106.59 2.70547 2.16807 0
M  V30 1031 C 105.651 3.89215 1.81135 0
M  V30 1032 C 104.884 4.41211 3.0028 0
M  V30 1033 O 105.107 3.92225 4.14144 0
M  V30 1034 O 104.041 5.32605 2.80384 0
M  V30 1035 H 107.867 3.00354 0.449561 0
M  V30 1036 H 105.452 1.48584 0.155949 0
M  V30 1037 H 107.334 3.0557 2.90181 0
M  V30 1038 H 106.009 1.89192 2.62656 0
M  V30 1039 H 104.916 3.59054 1.05028 0
M  V30 1040 H 106.249 4.71848 1.40073 0
M  V30 1041 N 107.901 -0.206675 1.56239 0
M  V30 1042 C 109.148 -0.928842 1.79941 0
M  V30 1043 C 109.476 -1.83734 0.638131 0
M  V30 1044 O 108.731 -1.92039 -0.376746 0
M  V30 1045 C 109.03 -1.78675 3.09532 0
M  V30 1046 C 108.696 -1.03022 4.38973 0
M  V30 1047 C 107.358 -0.821302 4.74139 0
M  V30 1048 C 109.71 -0.497081 5.18824 0
M  V30 1049 C 107.038 -0.0675719 5.86661 0
M  V30 1050 C 109.39 0.24338 6.32132 0
M  V30 1051 C 108.054 0.463422 6.65889 0
M  V30 1052 H 107.324 -0.339887 0.658451 0
M  V30 1053 H 109.971 -0.195977 1.90495 0
M  V30 1054 H 108.276 -2.58794 2.94165 0
M  V30 1055 H 109.973 -2.34792 3.25075 0
M  V30 1056 H 106.563 -1.20306 4.11369 0
M  V30 1057 H 110.747 -0.645921 4.92079 0
M  V30 1058 H 106.003 0.112995 6.11296 0
M  V30 1059 H 110.177 0.66393 6.93228 0
M  V30 1060 H 107.804 1.04938 7.52922 0
M  V30 1061 N 109.379 -1.50304 -0.473955 0
M  V30 1062 C 110.627 -1.60832 -1.22382 0
M  V30 1063 C 110.948 -0.30939 -1.9253 0
M  V30 1064 O 110.218 0.67296 -1.83978 0
M  V30 1065 H 108.798 -0.592652 -0.454723 0
M  V30 1066 H 111.46 -1.87068 -0.546968 0
M  V30 1067 H 110.556 -2.41803 -1.97327 0
M  V30 1068 N 110.857 0.726932 -1.39834 0
M  V30 1069 C 111.767 1.87131 -1.41489 0
M  V30 1070 C 112.783 1.71239 -0.308757 0
M  V30 1071 O 113.959 1.93701 -0.551529 0
M  V30 1072 C 111.024 3.22811 -1.26468 0
M  V30 1073 C 110.085 3.51039 -2.47124 0
M  V30 1074 C 109.318 4.80245 -2.3281 0
M  V30 1075 O 109.541 5.54537 -1.33585 0
M  V30 1076 O 108.475 5.08554 -3.21957 0
M  V30 1077 H 112.301 1.8869 -2.3797 0
M  V30 1078 H 109.886 0.875837 -1.21035 0
M  V30 1079 H 111.768 4.03877 -1.20255 0
M  V30 1080 H 110.443 3.22005 -0.330862 0
M  V30 1081 H 109.35 2.70027 -2.58914 0
M  V30 1082 H 110.683 3.56632 -3.39227 0
M  V30 1083 N 112.336 1.25143 0.95797 0
M  V30 1084 C 113.283 1.05235 2.05412 0
M  V30 1085 C 114.253 -0.0374561 1.66058 0
M  V30 1086 O 115.438 0.119073 1.90428 0
M  V30 1087 C 112.578 0.673589 3.38462 0
M  V30 1088 C 111.691 1.8379 3.90954 0
M  V30 1089 C 110.826 1.40381 5.12315 0
M  V30 1090 C 109.865 2.53746 5.57027 0
M  V30 1091 N 109.002 2.11136 6.69601 0
M  V30 1092 H 113.842 1.99048 2.21774 0
M  V30 1093 H 111.379 0.991277 1.08683 0
M  V30 1094 H 113.337 0.434964 4.14926 0
M  V30 1095 H 111.967 -0.227554 3.21997 0
M  V30 1096 H 111.019 2.18992 3.11041 0
M  V30 1097 H 112.331 2.68937 4.20089 0
M  V30 1098 H 111.485 1.12464 5.96185 0
M  V30 1099 H 110.224 0.523015 4.84887 0
M  V30 1100 H 109.229 2.82412 4.71724 0
M  V30 1101 H 110.454 3.42398 5.86464 0
M  V30 1102 H 108.4 1.25468 6.4389 0
M  V30 1103 H 108.317 2.89832 6.98236 0
M  V30 1104 H 109.585 1.86385 7.56889 0
M  V30 1105 N 113.814 -1.1601 1.06675 0
M  V30 1106 C 115.062 -1.86264 0.784229 0
M  V30 1107 C 115.383 -1.82328 -0.691488 0
M  V30 1108 O 114.653 -1.25947 -1.50047 0
M  V30 1109 H 113.233 -0.689621 0.28711 0
M  V30 1110 H 115.895 -1.40664 1.34906 0
M  V30 1111 H 114.991 -2.91595 1.11259 0
M  V30 1112 N 115.292 -0.849877 -1.32721 0
M  V30 1113 C 116.569 -0.372405 -1.92022 0
M  V30 1114 C 116.949 1.1435 -1.77447 0
M  V30 1115 O 116.297 1.96296 -1.16962 0
M  V30 1116 C 116.507 -0.831482 -3.3895 0
M  V30 1117 C 117.855 -0.845882 -4.16089 0
M  V30 1118 O 118.879 -0.775806 -3.47649 0
M  V30 1119 O 117.738 -0.943753 -5.38289 0
M  V30 1120 H 114.832 -0.107667 -0.819961 0
M  V30 1121 H 117.378 -0.93646 -1.41522 0
M  V30 1122 H 116.15 -1.87448 -3.4348 0
M  V30 1123 H 115.773 -0.24461 -3.96847 0
M  V30 1124 N 116.77 1.45427 -0.607355 0
M  V30 1125 C 118.181 1.85756 -0.187535 0
M  V30 1126 C 118.532 1.5077 1.25551 0
M  V30 1127 O 117.657 0.93427 1.95193 0
M  V30 1128 C 118.252 3.37154 -0.333572 0
M  V30 1129 C 116.811 3.76387 0.0315542 0
M  V30 1130 C 115.958 2.69377 -0.658117 0
M  V30 1131 H 118.909 1.36231 -0.81405 0
M  V30 1132 H 118.93 3.78014 0.43428 0
M  V30 1133 H 118.442 3.62586 -1.38393 0
M  V30 1134 H 116.543 3.56571 1.0811 0
M  V30 1135 H 116.656 4.77731 -0.361935 0
M  V30 1136 H 115.02 2.5452 -0.0957873 0
M  V30 1137 H 115.803 2.97646 -1.7106 0
M  V30 1138 N 118.248 0.346503 1.53744 0
M  V30 1139 C 119.496 -0.248612 2.00565 0
M  V30 1140 C 119.817 -1.5083 1.23593 0
M  V30 1141 O 119.087 -1.92858 0.343912 0
M  V30 1142 H 117.667 -0.0948564 0.740953 0
M  V30 1143 H 120.329 0.468341 1.89189 0
M  V30 1144 H 119.425 -0.488994 3.08245 0
M  V30 1145 N 119.726 -1.57421 0.075193 0
M  V30 1146 C 120.975 -1.92794 -0.592731 0
M  V30 1147 C 121.288 -0.957478 -1.70563 0
M  V30 1148 O 122.494 -1.20417 -2.43335 0
M  V30 1149 C 120.95 -3.42495 -1.10569 0
M  V30 1150 C 120.558 -4.47994 -0.0236121 0
M  V30 1151 C 122.302 -3.86864 -1.74748 0
M  V30 1152 C 120.209 -5.88829 -0.550803 0
M  V30 1153 H 119.139 -0.719591 -0.225177 0
M  V30 1154 H 121.79 -1.82902 0.147978 0
M  V30 1155 H 120.172 -3.47471 -1.89947 0
M  V30 1156 H 121.346 -4.54637 0.751099 0
M  V30 1157 H 119.661 -4.13113 0.522159 0
M  V30 1158 H 122.258 -4.8947 -2.15229 0
M  V30 1159 H 122.601 -3.24417 -2.60882 0
M  V30 1160 H 123.134 -3.84504 -1.01986 0
M  V30 1161 H 119.873 -6.54929 0.273457 0
M  V30 1162 H 119.393 -5.85698 -1.29296 0
M  V30 1163 H 121.072 -6.38811 -1.02613 0
M  V30 1164 N 121.204 0.198386 -1.56346 0
M  V30 1165 C 122.615 0.763358 -1.70381 0
M  V30 1166 C 122.966 1.83995 -0.681203 0
M  V30 1167 O 122.091 2.15785 0.16305 0
M  V30 1168 C 122.686 1.39143 -3.08909 0
M  V30 1169 C 121.245 1.90352 -3.2472 0
M  V30 1170 C 120.392 0.772233 -2.6633 0
M  V30 1171 H 123.343 -0.0266377 -1.58678 0
M  V30 1172 H 123.364 2.26076 -3.06055 0
M  V30 1173 H 122.876 0.607638 -3.83314 0
M  V30 1174 H 120.977 2.71461 -2.55225 0
M  V30 1175 H 121.09 2.06757 -4.3219 0
M  V30 1176 H 119.454 1.18566 -2.2542 0
M  V30 1177 H 120.237 0.00073556 -3.433 0
M  V30 1178 N 122.682 1.50554 0.465978 0
M  V30 1179 C 123.93 1.61479 1.21528 0
M  V30 1180 C 124.251 0.319596 1.92363 0
M  V30 1181 O 123.521 -0.663194 1.84333 0
M  V30 1182 H 122.101 0.595055 0.451573 0
M  V30 1183 H 124.763 1.87355 0.53704 0
M  V30 1184 H 123.859 2.42846 1.96042 0
M  V30 1185 N 124.16 -0.719506 1.40217 0
M  V30 1186 C 125.108 -1.85493 1.40339 0
M  V30 1187 C 126.102 -1.66995 0.284415 0
M  V30 1188 O 127.308 -1.74148 0.455252 0
M  V30 1189 H 123.683 -0.610857 0.438586 0
M  V30 1190 H 125.654 -1.82506 2.36081 0
M  V30 1191 C 124.403 -3.23321 1.27901 0
M  V30 1192 H 123.726 -3.38159 2.1328 0
M  V30 1193 H 125.166 -4.02914 1.32045 0
M  V30 1194 C 123.625 -3.36898 -0.0111355 0
M  V30 1195 O 124.155 -3.89674 -0.975538 0
M  V30 1196 N 122.361 -2.90492 -0.0793393 0
M  V30 1197 H 121.908 -2.47731 0.706183 0
M  V30 1198 H 121.866 -2.99955 -0.942038 0
M  V30 1199 N 125.638 -1.25649 -0.95132 0
M  V30 1200 C 127.049 -1.09654 -1.51106 0
M  V30 1201 C 127.4 0.326615 -1.93462 0
M  V30 1202 O 126.525 1.21697 -1.78938 0
M  V30 1203 C 127.12 -1.98437 -2.74605 0
M  V30 1204 C 125.679 -1.86618 -3.2688 0
M  V30 1205 C 124.826 -1.9239 -1.99703 0
M  V30 1206 H 127.777 -1.38887 -0.767865 0
M  V30 1207 H 127.798 -1.5263 -3.48546 0
M  V30 1208 H 127.31 -3.02009 -2.43746 0
M  V30 1209 H 125.411 -0.859421 -3.62553 0
M  V30 1210 H 125.524 -2.71607 -3.94673 0
M  V30 1211 H 123.888 -1.36317 -2.15151 0
M  V30 1212 H 124.671 -2.97573 -1.71188 0
M  V30 1213 N 127.117 1.15442 -1.07289 0
M  V30 1214 C 128.365 1.85845 -0.794096 0
M  V30 1215 C 128.686 1.82692 0.681809 0
M  V30 1216 O 127.956 1.26741 1.49377 0
M  V30 1217 H 126.536 0.688089 -0.290763 0
M  V30 1218 H 129.198 1.39947 -1.3565 0
M  V30 1219 H 128.294 2.91001 -1.12804 0
M  V30 1220 N 128.595 0.856903 1.32268 0
M  V30 1221 C 129.542 0.301172 2.28827 0
M  V30 1222 C 130.512 -0.593104 1.5515 0
M  V30 1223 O 131.697 -0.527537 1.83362 0
M  V30 1224 C 128.837 -0.502523 3.41422 0
M  V30 1225 C 127.95 0.417797 4.29975 0
M  V30 1226 C 127.085 -0.398749 5.29701 0
M  V30 1227 C 126.124 0.518827 6.09897 0
M  V30 1228 N 125.261 -0.260674 7.01616 0
M  V30 1229 H 130.101 1.12983 2.75751 0
M  V30 1230 H 127.638 0.568582 1.35667 0
M  V30 1231 H 129.596 -0.984141 4.05426 0
M  V30 1232 H 128.226 -1.29599 2.95642 0
M  V30 1233 H 127.278 1.01781 3.66531 0
M  V30 1234 H 128.59 1.12191 4.86019 0
M  V30 1235 H 127.744 -0.943435 5.9932 0
M  V30 1236 H 126.483 -1.13622 4.7428 0
M  V30 1237 H 125.488 1.07538 5.39181 0
M  V30 1238 H 126.713 1.25495 6.67404 0
M  V30 1239 H 124.659 -0.981198 6.4862 0
M  V30 1240 H 124.576 0.384364 7.55022 0
M  V30 1241 H 125.844 -0.787014 7.75517 0
M  V30 1242 N 130.073 -1.45103 0.615059 0
M  V30 1243 C 131.319 -2.02483 0.113347 0
M  V30 1244 C 131.652 -1.48146 -1.25564 0
M  V30 1245 O 130.927 -0.659104 -1.82992 0
M  V30 1246 C 131.21 -3.60005 0.0825278 0
M  V30 1247 C 131.063 -4.2466 1.48271 0
M  V30 1248 C 132.382 -4.35972 -0.601401 0
M  V30 1249 H 129.501 -0.735764 0.0426632 0
M  V30 1250 H 132.143 -1.72868 0.788461 0
M  V30 1251 H 130.293 -3.85367 -0.492378 0
M  V30 1252 H 131.965 -4.10458 2.10527 0
M  V30 1253 H 130.208 -3.82772 2.04127 0
M  V30 1254 H 130.879 -5.336 1.41332 0
M  V30 1255 H 133.355 -4.15947 -0.112666 0
M  V30 1256 H 132.231 -5.45697 -0.592097 0
M  V30 1257 H 132.492 -4.09391 -1.66887 0
M  V30 1258 N 131.551 -0.354651 -1.53558 0
M  V30 1259 C 132.799 0.237972 -2.00694 0
M  V30 1260 C 133.12 1.50173 -1.24391 0
M  V30 1261 O 132.39 1.92673 -0.354135 0
M  V30 1262 H 130.97 0.0909256 -0.741446 0
M  V30 1263 H 133.632 -0.478368 -1.88938 0
M  V30 1264 H 132.728 0.47264 -3.085 0
M  V30 1265 N 133.029 1.57378 -0.0835403 0
M  V30 1266 C 134.44 1.81261 0.447358 0
M  V30 1267 C 134.791 0.998331 1.68902 0
M  V30 1268 O 133.916 0.224282 2.15235 0
M  V30 1269 C 134.511 3.28767 0.818386 0
M  V30 1270 C 133.07 3.53455 1.29409 0
M  V30 1271 C 132.217 2.75831 0.285024 0
M  V30 1272 H 135.168 1.5566 -0.309115 0
M  V30 1273 H 135.189 3.41459 1.67887 0
M  V30 1274 H 134.701 3.88006 -0.0855019 0
M  V30 1275 H 132.802 2.99534 2.21608 0
M  V30 1276 H 132.915 4.62128 1.2639 0
M  V30 1277 H 131.279 2.42947 0.764767 0
M  V30 1278 H 132.062 3.37813 -0.611341 0
M  V30 1279 N 134.507 -0.190092 1.56449 0
M  V30 1280 C 135.454 -1.23557 1.94942 0
M  V30 1281 C 136.424 -1.44972 0.810696 0
M  V30 1282 O 137.609 -1.58023 1.06927 0
M  V30 1283 C 134.749 -2.57416 2.2985 0
M  V30 1284 C 133.862 -2.43537 3.5681 0
M  V30 1285 C 132.997 -3.70134 3.81017 0
M  V30 1286 C 132.036 -3.51109 5.01387 0
M  V30 1287 N 131.173 -4.6973 5.21822 0
M  V30 1288 H 136.013 -0.900304 2.84075 0
M  V30 1289 H 133.55 -0.43318 1.40577 0
M  V30 1290 H 135.508 -3.35409 2.48106 0
M  V30 1291 H 134.138 -2.88975 1.43852 0
M  V30 1292 H 133.19 -1.56816 3.46573 0
M  V30 1293 H 134.502 -2.25415 4.4496 0
M  V30 1294 H 133.656 -4.56566 3.9954 0
M  V30 1295 H 132.395 -3.91215 2.91207 0
M  V30 1296 H 131.4 -2.63063 4.82782 0
M  V30 1297 H 132.625 -3.31468 5.9271 0
M  V30 1298 H 130.571 -4.91065 4.34961 0
M  V30 1299 H 130.488 -4.54452 6.0416 0
M  V30 1300 H 131.756 -5.57499 5.44808 0
M  V30 1301 N 135.985 -1.50799 -0.457987 0
M  V30 1302 C 137.233 -1.62121 -1.2067 0
M  V30 1303 C 137.554 -0.329793 -1.92191 0
M  V30 1304 O 136.824 0.653409 -1.84682 0
M  V30 1305 H 135.404 -0.597441 -0.448411 0
M  V30 1306 H 138.066 -1.87637 -0.527096 0
M  V30 1307 H 137.162 -2.43882 -1.94751 0
M  V30 1308 N 137.463 0.71206 -1.40597 0
M  V30 1309 C 138.874 1.29135 -1.34837 0
M  V30 1310 C 139.225 1.96186 -0.0235395 0
M  V30 1311 O 138.35 1.97768 0.878444 0
M  V30 1312 C 138.945 2.34827 -2.44217 0
M  V30 1313 C 137.504 2.88371 -2.41907 0
M  V30 1314 C 136.651 1.62202 -2.24913 0
M  V30 1315 H 139.602 0.507944 -1.50352 0
M  V30 1316 H 139.623 3.15749 -2.12327 0
M  V30 1317 H 139.135 1.85996 -3.40627 0
M  V30 1318 H 137.236 3.41422 -1.49204 0
M  V30 1319 H 137.349 3.39925 -3.37621 0
M  V30 1320 H 135.713 1.874 -1.72492 0
M  V30 1321 H 136.496 1.15391 -3.23326 0
M  V30 1322 N 138.941 1.26152 0.944643 0
M  V30 1323 C 139.874 1.01729 2.04271 0
M  V30 1324 C 140.852 -0.0568101 1.62501 0
M  V30 1325 O 142.036 0.0848987 1.88309 0
M  V30 1326 C 139.163 0.539792 3.34371 0
M  V30 1327 C 138.209 1.60593 3.9511 0
M  V30 1328 S 139.042 3.19392 4.29825 0
M  V30 1329 C 140.198 2.73402 5.63029 0
M  V30 1330 H 140.431 1.94703 2.24673 0
M  V30 1331 H 137.964 1.09793 1.08558 0
M  V30 1332 H 139.922 0.270956 4.09605 0
M  V30 1333 H 138.583 -0.369609 3.11918 0
M  V30 1334 H 137.776 1.22275 4.88943 0
M  V30 1335 H 137.378 1.82596 3.26397 0
M  V30 1336 H 139.67 2.1765 6.41588 0
M  V30 1337 H 140.613 3.65913 6.06229 0
M  V30 1338 H 141.021 2.13077 5.22741 0
M  V30 1339 N 140.419 -1.14872 1.07899 0
M  V30 1340 C 141.667 -1.85422 0.803941 0
M  V30 1341 C 141.988 -1.83051 -0.67211 0
M  V30 1342 O 141.258 -1.27532 -1.48703 0
M  V30 1343 H 139.838 -0.686537 0.294408 0
M  V30 1344 H 142.5 -1.39226 1.3639 0
M  V30 1345 H 141.596 -2.90399 1.14346 0
M  V30 1346 N 141.898 -0.863906 -1.31812 0
M  V30 1347 C 143.309 -0.52522 -1.7916 0
M  V30 1348 C 143.66 0.957518 -1.71248 0
M  V30 1349 O 142.785 1.74734 -1.27659 0
M  V30 1350 C 143.38 -0.9466 -3.25307 0
M  V30 1351 C 141.939 -0.659668 -3.70574 0
M  V30 1352 C 141.086 -1.14126 -2.52726 0
M  V30 1353 H 144.037 -1.05022 -1.1898 0
M  V30 1354 H 144.058 -0.266766 -3.79564 0
M  V30 1355 H 143.57 -2.02579 -3.31034 0
M  V30 1356 H 141.671 0.408416 -3.70355 0
M  V30 1357 H 141.784 -1.23245 -4.62977 0
M  V30 1358 H 140.148 -0.561216 -2.4844 0
M  V30 1359 H 140.931 -2.22775 -2.61201 0
M  V30 1360 N 143.376 1.44774 -0.622745 0
M  V30 1361 C 144.323 2.30635 0.0871679 0
M  V30 1362 C 145.293 1.42994 0.845097 0
M  V30 1363 O 146.478 1.71907 0.827812 0
M  V30 1364 C 143.618 3.28144 1.06844 0
M  V30 1365 C 142.731 4.30888 0.309809 0
M  V30 1366 C 141.866 5.15494 1.28215 0
M  V30 1367 C 140.905 6.09953 0.512198 0
M  V30 1368 N 140.042 6.87287 1.43458 0
M  V30 1369 H 144.882 2.90803 -0.650974 0
M  V30 1370 H 142.419 1.43286 -0.33281 0
M  V30 1371 H 144.377 3.83157 1.65066 0
M  V30 1372 H 143.007 2.69695 1.77382 0
M  V30 1373 H 142.059 3.78414 -0.388181 0
M  V30 1374 H 143.371 4.97955 -0.290254 0
M  V30 1375 H 142.525 5.74983 1.93596 0
M  V30 1376 H 141.264 4.48481 1.91614 0
M  V30 1377 H 140.269 5.49581 -0.155151 0
M  V30 1378 H 141.494 6.78999 -0.116958 0
M  V30 1379 H 139.44 6.2295 2.05594 0
M  V30 1380 H 139.357 7.50763 0.888335 0
M  V30 1381 H 140.625 7.51306 2.07749 0
M  V30 1382 N 144.854 0.36279 1.53368 0
M  V30 1383 C 146.102 -0.227326 2.00817 0
M  V30 1384 C 146.423 -1.49511 1.25186 0
M  V30 1385 O 145.693 -1.92482 0.364348 0
M  V30 1386 H 144.273 -0.0869923 0.741917 0
M  V30 1387 H 146.935 0.488381 1.88682 0
M  V30 1388 H 146.031 -0.456273 3.08747 0
M  V30 1389 N 146.332 -1.57332 0.0918853 0
M  V30 1390 C 147.58 -1.93853 -0.571446 0
M  V30 1391 C 147.901 -0.974212 -1.6892 0
M  V30 1392 O 147.171 -0.0257254 -1.95883 0
M  V30 1393 H 145.751 -0.715666 -0.214082 0
M  V30 1394 H 148.413 -1.94287 0.154464 0
M  V30 1395 H 147.509 -2.96191 -0.983729 0
M  V30 1396 N 147.81 0.181792 -1.56548 0
M  V30 1397 C 149.221 0.745244 -1.71181 0
M  V30 1398 C 149.572 1.83262 -0.70068 0
M  V30 1399 O 148.697 2.15946 0.140154 0
M  V30 1400 C 149.292 1.35859 -3.10367 0
M  V30 1401 C 147.851 1.86898 -3.2672 0
M  V30 1402 C 146.998 0.743942 -2.67134 0
M  V30 1403 H 149.949 -0.0434661 -1.5864 0
M  V30 1404 H 149.97 2.22817 -3.08436 0
M  V30 1405 H 149.482 0.566948 -3.83937 0
M  V30 1406 H 147.583 2.68738 -2.5809 0
M  V30 1407 H 147.696 2.02162 -4.34359 0
M  V30 1408 H 146.06 1.16169 -2.26665 0
M  V30 1409 H 146.843 -0.035676 -3.43281 0
M  V30 1410 N 149.288 1.51039 0.449983 0
M  V30 1411 C 150.536 1.62759 1.19808 0
M  V30 1412 C 150.857 0.339981 1.92013 0
M  V30 1413 O 150.127 -0.643606 1.85026 0
M  V30 1414 H 148.707 0.599811 0.445237 0
M  V30 1415 H 151.369 1.87914 0.517138 0
M  V30 1416 H 150.465 2.44911 1.93455 0
M  V30 1417 N 150.766 -0.704594 1.40972 0
M  V30 1418 C 151.729 -1.80035 1.41845 0
M  V30 1419 C 152.729 -1.57774 0.310474 0
M  V30 1420 O 153.919 -1.64613 0.56992 0
M  V30 1421 C 151.051 -3.18284 1.22098 0
M  V30 1422 H 152.244 -1.80658 2.3938 0
M  V30 1423 H 149.797 -0.911329 1.26982 0
M  V30 1424 H 150.532 -3.23306 0.253672 0
M  V30 1425 H 150.317 -3.35843 2.02366 0
M  V30 1426 H 151.807 -3.98289 1.25522 0
M  V30 1427 N 152.244 -1.26651 -0.937939 0
M  V30 1428 C 153.655 -1.1125 -1.49934 0
M  V30 1429 C 154.006 0.306077 -1.93798 0
M  V30 1430 O 153.131 1.19792 -1.80219 0
M  V30 1431 C 153.726 -2.01339 -2.72485 0
M  V30 1432 C 152.285 -1.90074 -3.24883 0
M  V30 1433 C 151.432 -1.94498 -1.97651 0
M  V30 1434 H 154.383 -1.39693 -0.753091 0
M  V30 1435 H 154.404 -1.56319 -3.46907 0
M  V30 1436 H 153.916 -3.04577 -2.40529 0
M  V30 1437 H 152.017 -0.897827 -3.61621 0
M  V30 1438 H 152.13 -2.75778 -3.9177 0
M  V30 1439 H 150.494 -1.38591 -2.13693 0
M  V30 1440 H 151.277 -2.99372 -1.68022 0
M  V30 1441 N 153.722 1.14298 -1.08507 0
M  V30 1442 C 154.97 1.84993 -0.813763 0
M  V30 1443 C 155.291 1.83405 0.662393 0
M  V30 1444 O 154.561 1.28319 1.48024 0
M  V30 1445 H 153.141 0.684966 -0.298045 0
M  V30 1446 H 155.803 1.385 -1.37126 0
M  V30 1447 H 154.899 2.89788 -1.15884 0
M  V30 1448 N 155.201 0.870884 1.31352 0
M  V30 1449 C 156.164 0.332243 2.26779 0
M  V30 1450 C 157.164 -0.517302 1.52252 0
M  V30 1451 O 158.354 -0.326477 1.71113 0
M  V30 1452 C 155.486 -0.528066 3.36785 0
M  V30 1453 H 156.679 1.17469 2.75937 0
M  V30 1454 H 154.232 0.64655 1.423 0
M  V30 1455 H 154.967 -1.39167 2.92922 0
M  V30 1456 H 154.752 0.0802582 3.92018 0
M  V30 1457 H 156.242 -0.897179 4.07849 0
M  V30 1458 N 156.679 -1.44442 0.630414 0
M  V30 1459 C 158.09 -1.85434 0.217063 0
M  V30 1460 C 158.441 -1.52748 -1.23136 0
M  V30 1461 O 157.566 -0.965205 -1.93682 0
M  V30 1462 C 158.161 -3.36581 0.387168 0
M  V30 1463 C 156.72 -3.76389 0.0283297 0
M  V30 1464 C 155.867 -2.68296 0.700889 0
M  V30 1465 H 158.818 -1.34919 0.83562 0
M  V30 1466 H 158.839 -3.78657 -0.374086 0
M  V30 1467 H 158.351 -3.60339 1.44144 0
M  V30 1468 H 156.452 -3.58246 -1.02423 0
M  V30 1469 H 156.565 -4.77095 0.437892 0
M  V30 1470 H 154.929 -2.54335 0.136267 0
M  V30 1471 H 155.712 -2.94887 1.75774 0
M  V30 1472 N 158.157 -0.370918 -1.53173 0
M  V30 1473 C 159.405 0.216673 -2.00935 0
M  V30 1474 C 159.726 1.48845 -1.25977 0
M  V30 1475 O 158.996 1.92286 -0.374551 0
M  V30 1476 H 157.576 0.0830565 -0.742368 0
M  V30 1477 H 160.238 -0.49838 -1.8842 0
M  V30 1478 H 159.334 0.439893 -3.08984 0
M  V30 1479 N 159.635 1.57281 -0.100228 0
M  V30 1480 C 161.046 1.81725 0.428107 0
M  V30 1481 C 161.397 1.01619 1.67833 0
M  V30 1482 O 160.522 0.247098 2.14985 0
M  V30 1483 C 161.117 3.29617 0.78347 0
M  V30 1484 C 159.676 3.54808 1.25653 0
M  V30 1485 C 158.823 2.76118 0.255752 0
M  V30 1486 H 161.774 1.55324 -0.325608 0
M  V30 1487 H 161.795 3.4322 1.64256 0
M  V30 1488 H 161.307 3.87893 -0.12665 0
M  V30 1489 H 159.408 3.01868 2.18418 0
M  V30 1490 H 159.521 4.63443 1.21482 0
M  V30 1491 H 157.885 2.43745 0.738956 0
M  V30 1492 H 158.668 3.37145 -0.647136 0
M  V30 1493 N 161.113 -0.173488 1.56642 0
M  V30 1494 C 162.06 -1.21482 1.96242 0
M  V30 1495 C 163.03 -1.44104 0.826027 0
M  V30 1496 O 164.215 -1.5688 1.08597 0
M  V30 1497 C 161.355 -2.54964 2.32567 0
M  V30 1498 C 160.468 -2.39739 3.59373 0
M  V30 1499 C 159.603 -3.66072 3.84921 0
M  V30 1500 C 158.642 -3.45771 5.05083 0
M  V30 1501 N 157.779 -4.64169 5.26775 0
M  V30 1502 H 162.619 -0.870123 2.85014 0
M  V30 1503 H 160.156 -0.418245 1.41029 0
M  V30 1504 H 162.114 -3.32758 2.5165 0
M  V30 1505 H 160.744 -2.87433 1.46908 0
M  V30 1506 H 159.796 -1.53131 3.48217 0
M  V30 1507 H 161.108 -2.20683 4.47326 0
M  V30 1508 H 160.262 -4.52303 4.0436 0
M  V30 1509 H 159.001 -3.88105 2.9534 0
M  V30 1510 H 158.006 -2.57927 4.85545 0
M  V30 1511 H 159.231 -3.25163 5.96193 0
M  V30 1512 H 157.177 -4.86425 4.40144 0
M  V30 1513 H 157.094 -4.48019 6.08946 0
M  V30 1514 H 158.362 -5.51689 5.5069 0
M  V30 1515 N 162.591 -1.51276 -0.441967 0
M  V30 1516 C 163.839 -1.63392 -1.18943 0
M  V30 1517 C 164.16 -0.350159 -1.9183 0
M  V30 1518 O 163.43 0.633784 -1.85364 0
M  V30 1519 H 162.01 -0.602164 -0.442049 0
M  V30 1520 H 164.672 -1.88186 -0.507165 0
M  V30 1521 H 163.768 -2.45934 -1.92154 0
M  V30 1522 N 164.069 0.697108 -1.41344 0
M  V30 1523 C 164.979 1.84088 -1.45427 0
M  V30 1524 C 165.995 1.70545 -0.34501 0
M  V30 1525 O 167.171 1.92488 -0.592492 0
M  V30 1526 C 164.236 3.20056 -1.33286 0
M  V30 1527 C 163.297 3.45718 -2.54514 0
M  V30 1528 C 162.53 4.75199 -2.42944 0
M  V30 1529 O 162.753 5.51579 -1.45318 0
M  V30 1530 O 161.687 5.0161 -3.32672 0
M  V30 1531 H 165.513 1.836 -2.41919 0
M  V30 1532 H 163.098 0.849966 -1.22866 0
M  V30 1533 H 164.98 4.01236 -1.28794 0
M  V30 1534 H 163.655 3.2123 -0.39909 0
M  V30 1535 H 162.562 2.64474 -2.64583 0
M  V30 1536 H 163.895 3.49356 -3.46715 0
M  V30 1537 N 165.547 1.27147 0.931209 0
M  V30 1538 C 166.772 1.16191 1.71797 0
M  V30 1539 C 167.197 -0.278004 1.86034 0
M  V30 1540 O 166.555 -1.20137 1.35782 0
M  V30 1541 C 166.603 1.84673 3.09723 0
M  V30 1542 O 165.707 1.14231 3.96264 0
M  V30 1543 H 165.048 0.404303 0.526721 0
M  V30 1544 H 167.578 1.68152 1.1656 0
M  V30 1545 H 167.588 1.91893 3.60057 0
M  V30 1546 H 166.263 2.89421 2.98677 0
M  V30 1547 H 164.84 1.15056 3.54706 0
M  V30 1548 N 167.025 -1.13721 1.09112 0
M  V30 1549 C 168.273 -1.84559 0.823562 0
M  V30 1550 C 168.594 -1.83754 -0.652658 0
M  V30 1551 O 167.864 -1.29102 -1.47342 0
M  V30 1552 H 166.444 -0.683376 0.301673 0
M  V30 1553 H 169.106 -1.37771 1.37859 0
M  V30 1554 H 168.202 -2.8917 1.17419 0
M  V30 1555 N 168.503 -0.877838 -1.30888 0
M  V30 1556 C 169.78 -0.413052 -1.91189 0
M  V30 1557 C 170.16 1.1056 -1.79832 0
M  V30 1558 O 169.508 1.93771 -1.21099 0
M  V30 1559 C 169.718 -0.903191 -3.3711 0
M  V30 1560 C 171.066 -0.93395 -4.14201 0
M  V30 1561 O 172.09 -0.849373 -3.45925 0
M  V30 1562 O 170.949 -1.05772 -5.36167 0
M  V30 1563 H 168.043 -0.125035 -0.817493 0
M  V30 1564 H 170.589 -0.966269 -1.39504 0
M  V30 1565 H 169.361 -1.94692 -3.39427 0
M  V30 1566 H 168.984 -0.328732 -3.96239 0
M  V30 1567 N 169.982 1.44106 -0.638065 0
M  V30 1568 C 171.212 2.06037 -0.152394 0
M  V30 1569 C 171.62 1.47808 1.18108 0
M  V30 1570 O 170.963 0.598092 1.73691 0
M  V30 1571 C 171.025 3.59488 0.0293714 0
M  V30 1572 C 170.689 4.4022 -1.22702 0
M  V30 1573 C 171.686 4.73256 -2.15232 0
M  V30 1574 C 169.371 4.8048 -1.46437 0
M  V30 1575 C 171.365 5.45444 -3.29802 0
M  V30 1576 C 169.052 5.52417 -2.61303 0
M  V30 1577 C 170.05 5.84819 -3.52811 0
M  V30 1578 O 169.738 6.55289 -4.65673 0
M  V30 1579 H 169.47 0.671233 -0.0801401 0
M  V30 1580 H 172.024 1.85851 -0.874563 0
M  V30 1581 H 170.254 3.78191 0.806758 0
M  V30 1582 H 171.943 4.03164 0.470475 0
M  V30 1583 H 172.709 4.42684 -1.98131 0
M  V30 1584 H 168.588 4.54676 -0.760977 0
M  V30 1585 H 172.132 5.70653 -4.01249 0
M  V30 1586 H 168.029 5.82404 -2.78344 0
M  V30 1587 H 168.797 6.73762 -4.64744 0
M  V30 1588 N 171.46 0.379036 1.52974 0
M  V30 1589 C 172.407 -0.461048 2.26148 0
M  V30 1590 C 173.377 -1.06637 1.27349 0
M  V30 1591 O 174.562 -1.09633 1.56157 0
M  V30 1592 C 171.702 -1.58782 3.06402 0
M  V30 1593 C 170.815 -1.00636 4.20115 0
M  V30 1594 C 169.95 -2.10334 4.87784 0
M  V30 1595 C 168.989 -1.49724 5.93506 0
M  V30 1596 N 168.126 -2.5331 6.54812 0
M  V30 1597 H 172.966 0.169429 2.97518 0
M  V30 1598 H 170.503 0.0953806 1.4679 0
M  V30 1599 H 172.461 -2.25174 3.51215 0
M  V30 1600 H 171.091 -2.18876 2.37261 0
M  V30 1601 H 170.143 -0.232332 3.7969 0
M  V30 1602 H 171.455 -0.523343 4.96047 0
M  V30 1603 H 170.609 -2.84519 5.35849 0
M  V30 1604 H 169.348 -2.61992 4.11353 0
M  V30 1605 H 168.353 -0.740598 5.44789 0
M  V30 1606 H 169.578 -0.988732 6.71864 0
M  V30 1607 H 167.524 -3.04156 5.81227 0
M  V30 1608 H 167.441 -2.09734 7.26325 0
M  V30 1609 H 168.709 -3.27155 7.07524 0
M  V30 1610 N 172.938 -1.57226 0.108567 0
M  V30 1611 C 173.901 -2.13602 -0.831082 0
M  V30 1612 C 174.901 -1.06841 -1.20173 0
M  V30 1613 O 176.091 -1.32666 -1.12895 0
M  V30 1614 C 173.223 -2.66769 -2.12243 0
M  V30 1615 H 174.416 -2.97951 -0.341317 0
M  V30 1616 H 171.969 -1.55667 -0.14057 0
M  V30 1617 H 172.704 -1.85977 -2.65675 0
M  V30 1618 H 172.489 -3.44839 -1.86625 0
M  V30 1619 H 173.979 -3.10332 -2.79435 0
M  V30 1620 N 174.416 0.165178 -1.56732 0
M  V30 1621 C 175.644 0.896218 -1.86482 0
M  V30 1622 C 176.059 1.75555 -0.694675 0
M  V30 1623 O 175.416 1.79379 0.33607 0
M  V30 1624 C 175.467 1.76792 -3.1532 0
M  V30 1625 O 175.188 0.943239 -4.27825 0
M  V30 1626 C 176.689 2.6081 -3.58459 0
M  V30 1627 H 173.909 0.260064 -0.618553 0
M  V30 1628 H 176.453 0.163428 -2.03846 0
M  V30 1629 H 174.608 2.45398 -2.99764 0
M  V30 1630 H 175.022 1.53998 -5.01383 0
M  V30 1631 H 176.496 3.17579 -4.51495 0
M  V30 1632 H 176.973 3.35977 -2.82872 0
M  V30 1633 H 177.579 1.97526 -3.76648 0
M  V30 1634 N 175.894 1.51508 0.433938 0
M  V30 1635 C 176.826 1.69266 1.54537 0
M  V30 1636 C 177.839 0.573276 1.52373 0
M  V30 1637 O 179.028 0.847698 1.57087 0
M  V30 1638 C 176.128 1.69524 2.93453 0
M  V30 1639 C 175.301 2.98101 3.20085 0
M  V30 1640 C 174.36 2.90502 4.38742 0
M  V30 1641 O 173.386 3.64442 4.3723 0
M  V30 1642 N 174.588 2.06586 5.42496 0
M  V30 1643 H 177.353 2.65145 1.39708 0
M  V30 1644 H 174.914 1.49437 0.622922 0
M  V30 1645 H 176.906 1.62004 3.70859 0
M  V30 1646 H 175.476 0.812245 3.01863 0
M  V30 1647 H 174.696 3.19464 2.30947 0
M  V30 1648 H 175.984 3.83207 3.34708 0
M  V30 1649 H 175.382 1.45896 5.46563 0
M  V30 1650 H 173.939 2.04943 6.18742 0
M  V30 1651 N 177.372 -0.689602 1.41712 0
M  V30 1652 C 178.319 -1.80345 1.44029 0
M  V30 1653 C 179.289 -1.63478 0.293948 0
M  V30 1654 O 180.474 -1.84244 0.495869 0
M  V30 1655 C 177.614 -3.18272 1.33405 0
M  V30 1656 C 176.727 -3.46529 2.57956 0
M  V30 1657 C 175.862 -4.74103 2.39582 0
M  V30 1658 C 174.901 -4.95347 3.5958 0
M  V30 1659 N 174.038 -6.14151 3.40239 0
M  V30 1660 H 178.878 -1.77698 2.39222 0
M  V30 1661 H 176.415 -0.867688 1.18784 0
M  V30 1662 H 178.373 -3.97956 1.25246 0
M  V30 1663 H 177.003 -3.2008 0.418164 0
M  V30 1664 H 176.055 -2.61207 2.76542 0
M  V30 1665 H 177.367 -3.58126 3.47199 0
M  V30 1666 H 176.521 -5.61853 2.28924 0
M  V30 1667 H 175.26 -4.64763 1.47805 0
M  V30 1668 H 174.265 -4.06044 3.70686 0
M  V30 1669 H 175.49 -5.06542 4.52318 0
M  V30 1670 H 173.436 -6.06013 2.51167 0
M  V30 1671 H 173.353 -6.26543 4.23061 0
M  V30 1672 H 174.621 -7.04619 3.33365 0
M  V30 1673 N 178.85 -1.27639 -0.924453 0
M  V30 1674 C 180.099 -1.13549 -1.66702 0
M  V30 1675 C 180.412 0.317487 -1.93006 0
M  V30 1676 O 181.618 0.579333 -2.65247 0
M  V30 1677 C 180.074 -1.98426 -3.00259 0
M  V30 1678 C 179.682 -3.484 -2.81641 0
M  V30 1679 C 181.426 -1.92993 -3.78092 0
M  V30 1680 C 179.333 -4.25464 -4.10773 0
M  V30 1681 H 178.263 -0.421351 -0.625283 0
M  V30 1682 H 180.914 -1.52085 -1.02676 0
M  V30 1683 H 179.296 -1.52736 -3.6536 0
M  V30 1684 H 180.47 -4.01973 -2.25287 0
M  V30 1685 H 178.785 -3.55245 -2.17232 0
M  V30 1686 H 181.382 -2.47844 -4.7379 0
M  V30 1687 H 181.725 -0.904281 -4.0636 0
M  V30 1688 H 182.258 -2.36595 -3.19793 0
M  V30 1689 H 178.997 -5.28566 -3.87683 0
M  V30 1690 H 178.517 -3.76667 -4.66779 0
M  V30 1691 H 180.196 -4.34812 -4.79111 0
M  V30 1692 N 180.328 1.1314 -1.09713 0
M  V30 1693 C 181.291 2.16831 -0.742751 0
M  V30 1694 C 182.291 1.59159 0.229129 0
M  V30 1695 O 183.481 1.74199 0.00693237 0
M  V30 1696 C 180.613 3.40756 -0.0989168 0
M  V30 1697 H 181.806 2.49695 -1.66109 0
M  V30 1698 H 179.359 1.2802 -0.896699 0
M  V30 1699 H 180.094 3.13485 0.830514 0
M  V30 1700 H 179.879 3.83888 -0.798265 0
M  V30 1701 H 181.369 4.17386 0.133524 0
M  V30 1702 N 181.806 0.884767 1.30421 0
M  V30 1703 C 183.053 0.503105 1.96151 0
M  V30 1704 C 183.381 -0.947676 1.69851 0
M  V30 1705 O 182.636 -1.68467 0.995861 0
M  V30 1706 C 182.935 0.724318 3.49983 0
M  V30 1707 C 182.601 2.15015 3.96332 0
M  V30 1708 C 181.263 2.54005 4.08699 0
M  V30 1709 C 183.615 3.07936 4.20505 0
M  V30 1710 C 180.943 3.85128 4.42599 0
M  V30 1711 C 183.295 4.3859 4.55874 0
M  V30 1712 C 181.959 4.77474 4.66449 0
M  V30 1713 H 181.229 0.184099 0.717766 0
M  V30 1714 H 183.876 1.12058 1.55291 0
M  V30 1715 H 182.181 0.0238086 3.91793 0
M  V30 1716 H 183.878 0.408617 3.98913 0
M  V30 1717 H 180.468 1.8375 3.87213 0
M  V30 1718 H 184.652 2.79033 4.10431 0
M  V30 1719 H 179.908 4.14996 4.48986 0
M  V30 1720 H 184.082 5.10629 4.7353 0
M  V30 1721 H 181.709 5.79115 4.92473 0
M  V30 1722 N 183.284 -1.43765 0.645699 0
M  V30 1723 C 184.509 -2.06767 0.161883 0
M  V30 1724 C 184.934 -1.48034 -1.16049 0
M  V30 1725 O 184.292 -0.587369 -1.71522 0
M  V30 1726 C 184.34 -3.60519 0.0762003 0
M  V30 1727 O 183.444 -4.00982 -0.963721 0
M  V30 1728 H 182.785 -0.657675 0.091429 0
M  V30 1729 H 185.315 -1.84397 0.886499 0
M  V30 1730 H 185.325 -4.07853 -0.109604 0
M  V30 1731 H 184 -4.02646 1.04157 0
M  V30 1732 H 182.577 -3.65253 -0.751312 0
M  V30 1733 N 184.763 -0.387143 -1.52771 0
M  V30 1734 C 185.726 0.436939 -2.24997 0
M  V30 1735 C 186.726 0.991991 -1.26555 0
M  V30 1736 O 187.916 0.874335 -1.50669 0
M  V30 1737 C 185.048 1.61281 -3.00335 0
M  V30 1738 H 186.241 -0.195365 -2.99263 0
M  V30 1739 H 183.794 -0.139218 -1.55679 0
M  V30 1740 H 184.529 2.2826 -2.30364 0
M  V30 1741 H 184.314 1.22154 -3.72587 0
M  V30 1742 H 185.804 2.19629 -3.5518 0
M  V30 1743 N 186.241 1.57166 -0.116904 0
M  V30 1744 C 187.469 1.99473 0.549383 0
M  V30 1745 C 187.884 0.996541 1.60357 0
M  V30 1746 O 187.241 -0.0108731 1.82497 0
M  V30 1747 C 187.292 3.41788 1.17741 0
M  V30 1748 O 187.013 4.37788 0.165362 0
M  V30 1749 C 188.514 3.99216 1.92722 0
M  V30 1750 H 185.734 0.655009 0.145616 0
M  V30 1751 H 188.278 2.03494 -0.202625 0
M  V30 1752 H 186.433 3.38713 1.88021 0
M  V30 1753 H 186.847 5.20806 0.621403 0
M  V30 1754 H 188.321 5.00882 2.31995 0
M  V30 1755 H 188.798 3.3824 2.80161 0
M  V30 1756 H 189.404 4.0583 1.27209 0
M  V30 1757 N 187.719 -0.156864 1.56817 0
M  V30 1758 C 189.135 -0.50916 1.5126 0
M  V30 1759 C 189.335 -1.83897 0.823658 0
M  V30 1760 O 188.391 -2.49469 0.390055 0
M  V30 1761 C 189.704 -0.52857 2.96018 0
M  V30 1762 C 191.252 -0.614771 3.06903 0
M  V30 1763 C 191.727 -0.664938 4.53147 0
M  V30 1764 N 193.218 -0.727433 4.57452 0
M  V30 1765 C 193.953 -0.787067 5.67973 0
M  V30 1766 N 193.449 -0.806649 6.88088 0
M  V30 1767 N 195.242 -0.827195 5.5598 0
M  V30 1768 H 187.393 0.714935 2.00006 0
M  V30 1769 H 189.656 0.259526 0.911784 0
M  V30 1770 H 189.362 0.380154 3.49639 0
M  V30 1771 H 189.236 -1.36998 3.51442 0
M  V30 1772 H 191.623 -1.51392 2.53307 0
M  V30 1773 H 191.704 0.253597 2.5454 0
M  V30 1774 H 191.348 0.230011 5.07379 0
M  V30 1775 H 191.278 -1.54966 5.03282 0
M  V30 1776 H 193.769 -0.719998 3.70978 0
M  V30 1777 H 194.082 -0.853727 7.6807 0
M  V30 1778 H 192.427 -0.774687 6.90669 0
M  V30 1779 H 195.618 -0.808998 4.61056 0
M  V30 1780 H 195.791 -0.870206 6.4213 0
M  V30 1781 N 189.197 -1.51736 -0.425897 0
M  V30 1782 C 190.425 -1.68794 -1.1965 0
M  V30 1783 C 190.84 -0.390164 -1.84725 0
M  V30 1784 O 190.197 0.632376 -1.71194 0
M  V30 1785 C 190.248 -2.81174 -2.27208 0
M  V30 1786 O 189.969 -4.05925 -1.64793 0
M  V30 1787 C 191.47 -3.09599 -3.17275 0
M  V30 1788 H 188.69 -0.566128 -0.360194 0
M  V30 1789 H 191.234 -1.98211 -0.503249 0
M  V30 1790 H 189.389 -2.54324 -2.9223 0
M  V30 1791 H 189.803 -4.68423 -2.35967 0
M  V30 1792 H 191.277 -3.91786 -3.88854 0
M  V30 1793 H 191.754 -2.22468 -3.78688 0
M  V30 1794 H 192.36 -3.38151 -2.57941 0
M  V30 1795 N 190.675 0.682077 -1.42076 0
M  V30 1796 C 191.924 1.43786 -1.41451 0
M  V30 1797 C 192.237 1.95574 -0.0317074 0
M  V30 1798 O 193.443 2.71326 0.0971462 0
M  V30 1799 C 191.899 2.60071 -2.48779 0
M  V30 1800 C 191.507 2.15013 -3.93031 0
M  V30 1801 C 193.251 3.37626 -2.57311 0
M  V30 1802 C 191.158 3.28336 -4.91883 0
M  V30 1803 H 190.088 0.540143 -0.526082 0
M  V30 1804 H 192.739 0.739157 -1.67955 0
M  V30 1805 H 191.121 3.32275 -2.15429 0
M  V30 1806 H 192.295 1.5001 -4.35699 0
M  V30 1807 H 190.61 1.50416 -3.88284 0
M  V30 1808 H 193.207 4.22012 -3.28345 0
M  V30 1809 H 193.55 3.83727 -1.61429 0
M  V30 1810 H 194.083 2.72488 -2.89819 0
M  V30 1811 H 190.822 2.87234 -5.89217 0
M  V30 1812 H 190.342 3.92145 -4.53853 0
M  V30 1813 H 192.021 3.93913 -5.13265 0
M  V30 1814 N 192.153 1.28127 0.917671 0
M  V30 1815 C 193.101 1.11569 2.04096 0
M  V30 1816 C 194.095 0.0360242 1.69362 0
M  V30 1817 O 195.301 0.194501 1.78946 0
M  V30 1818 H 191.676 0.344097 0.668656 0
M  V30 1819 H 193.647 2.06711 2.15205 0
M  V30 1820 C 192.396 0.790197 3.38602 0
M  V30 1821 H 191.719 1.61293 3.6582 0
M  V30 1822 H 193.159 0.714271 4.1794 0
M  V30 1823 C 191.618 -0.505897 3.3308 0
M  V30 1824 O 192.148 -1.53736 3.71117 0
M  V30 1825 N 190.354 -0.505193 2.86175 0
M  V30 1826 H 189.901 0.334621 2.55417 0
M  V30 1827 H 189.859 -1.37243 2.82863 0
M  V30 1828 N 193.631 -1.12557 1.10312 0
M  V30 1829 C 194.877 -1.84311 0.846011 0
M  V30 1830 C 195.21 -1.83805 -0.626859 0
M  V30 1831 O 194.485 -1.28268 -1.46211 0
M  V30 1832 C 194.768 -3.32048 1.39341 0
M  V30 1833 C 194.621 -3.41016 2.93305 0
M  V30 1834 C 195.94 -4.27764 1.03468 0
M  V30 1835 H 193.059 -0.669192 0.30879 0
M  V30 1836 H 195.701 -1.32057 1.36605 0
M  V30 1837 H 193.851 -3.76678 0.951087 0
M  V30 1838 H 195.523 -3.05031 3.46055 0
M  V30 1839 H 193.766 -2.81603 3.29973 0
M  V30 1840 H 194.437 -4.44948 3.26689 0
M  V30 1841 H 196.913 -3.91253 1.41633 0
M  V30 1842 H 195.789 -5.29549 1.44463 0
M  V30 1843 H 196.05 -4.42064 -0.0560404 0
M  V30 1844 N 195.109 -0.891671 -1.2995 0
M  V30 1845 C 196.52 -0.563104 -1.78006 0
M  V30 1846 C 196.871 0.920978 -1.73241 0
M  V30 1847 O 195.996 1.71987 -1.31337 0
M  V30 1848 C 196.591 -1.01539 -3.23226 0
M  V30 1849 C 195.15 -0.738124 -3.69092 0
M  V30 1850 C 194.297 -1.19461 -2.50249 0
M  V30 1851 H 197.248 -1.07522 -1.16725 0
M  V30 1852 H 197.269 -0.347217 -3.78912 0
M  V30 1853 H 196.781 -2.09555 -3.26662 0
M  V30 1854 H 194.882 0.329766 -3.71138 0
M  V30 1855 H 194.995 -1.33037 -4.60259 0
M  V30 1856 H 193.359 -0.613787 -2.47194 0
M  V30 1857 H 194.142 -2.28265 -2.56417 0
M  V30 1858 N 196.587 1.43421 -0.653314 0
M  V30 1859 C 197.517 2.33487 0.0246656 0
M  V30 1860 C 198.498 1.49475 0.811863 0
M  V30 1861 O 199.683 1.78139 0.773322 0
M  V30 1862 C 196.813 3.32841 0.99166 0
M  V30 1863 C 195.767 4.26842 0.314568 0
M  V30 1864 C 195.093 5.16236 1.39302 0
M  V30 1865 C 196.393 5.16243 -0.793095 0
M  V30 1866 H 198.087 2.90427 -0.727481 0
M  V30 1867 H 195.633 1.39649 -0.351287 0
M  V30 1868 H 197.586 3.94747 1.47487 0
M  V30 1869 H 196.31 2.74158 1.77497 0
M  V30 1870 H 194.969 3.663 -0.148199 0
M  V30 1871 H 194.617 4.53891 2.16776 0
M  V30 1872 H 194.317 5.79948 0.945223 0
M  V30 1873 H 195.841 5.81015 1.87759 0
M  V30 1874 H 197.255 5.71958 -0.392039 0
M  V30 1875 H 195.652 5.88676 -1.16536 0
M  V30 1876 H 196.722 4.55927 -1.65103 0
M  V30 1877 N 198.065 0.39524 1.52563 0
M  V30 1878 C 199.481 0.0454682 1.59535 0
M  V30 1879 C 199.681 -1.44056 1.4089 0
M  V30 1880 O 198.737 -2.20579 1.22888 0
M  V30 1881 C 200.05 0.527963 2.96029 0
M  V30 1882 C 201.598 0.484733 3.09224 0
M  V30 1883 C 202.073 0.943512 4.48176 0
M  V30 1884 N 203.564 0.899765 4.54377 0
M  V30 1885 C 204.299 1.22609 5.60138 0
M  V30 1886 N 203.795 1.62319 6.73516 0
M  V30 1887 N 205.588 1.14696 5.50274 0
M  V30 1888 H 197.739 1.36261 1.62931 0
M  V30 1889 H 200.002 0.558887 0.765735 0
M  V30 1890 H 199.708 1.56607 3.14908 0
M  V30 1891 H 199.582 -0.0698056 3.77135 0
M  V30 1892 H 201.969 -0.544298 2.90037 0
M  V30 1893 H 202.05 1.11838 2.30056 0
M  V30 1894 H 201.694 1.9708 4.68104 0
M  V30 1895 H 201.624 0.286817 5.25818 0
M  V30 1896 H 204.115 0.607632 3.72983 0
M  V30 1897 H 204.428 1.85567 7.5019 0
M  V30 1898 H 202.773 1.66211 6.74833 0
M  V30 1899 H 205.964 0.835701 4.6058 0
M  V30 1900 H 206.137 1.40459 6.32594 0
M  V30 1901 N 199.544 -1.57102 0.125237 0
M  V30 1902 C 200.96 -1.57915 -0.231322 0
M  V30 1903 C 201.16 -1.13833 -1.66266 0
M  V30 1904 O 200.216 -0.828581 -2.38518 0
M  V30 1905 C 201.529 -3.00699 0.00766489 0
M  V30 1906 C 203.077 -3.12947 -0.0577483 0
M  V30 1907 C 203.552 -4.57742 0.153626 0
M  V30 1908 N 205.043 -4.63092 0.0998073 0
M  V30 1909 C 205.778 -5.72905 0.238174 0
M  V30 1910 N 205.274 -6.91445 0.433057 0
M  V30 1911 N 207.067 -5.6182 0.177308 0
M  V30 1912 H 199.218 -1.84055 1.06007 0
M  V30 1913 H 201.481 -0.850905 0.417929 0
M  V30 1914 H 201.187 -3.3726 0.997431 0
M  V30 1915 H 201.061 -3.70236 -0.721452 0
M  V30 1916 H 203.448 -2.7624 -1.03804 0
M  V30 1917 H 203.529 -2.4594 0.70335 0
M  V30 1918 H 203.173 -4.95149 1.13092 0
M  V30 1919 H 203.103 -5.22848 -0.627534 0
M  V30 1920 H 205.594 -3.77871 -0.047051 0
M  V30 1921 H 205.907 -7.70985 0.529332 0
M  V30 1922 H 204.252 -6.93415 0.469109 0
M  V30 1923 H 207.443 -4.68093 0.0259748 0
M  V30 1924 H 207.616 -6.47357 0.288582 0
M  V30 1925 N 201.022 0.148545 -1.56898 0
M  V30 1926 C 202.299 0.890019 -1.74178 0
M  V30 1927 C 202.679 1.99407 -0.692839 0
M  V30 1928 O 202.027 2.26671 0.288505 0
M  V30 1929 C 202.237 1.43389 -3.18183 0
M  V30 1930 C 203.585 1.89791 -3.79822 0
M  V30 1931 O 204.609 1.53134 -3.21603 0
M  V30 1932 O 203.468 2.57387 -4.82093 0
M  V30 1933 H 200.562 0.420496 -0.712118 0
M  V30 1934 H 203.108 0.134591 -1.69165 0
M  V30 1935 H 201.88 0.640383 -3.86024 0
M  V30 1936 H 201.503 2.25287 -3.27615 0
M  V30 1937 N 202.5 1.5196 0.417844 0
M  V30 1938 C 203.432 1.70895 1.52733 0
M  V30 1939 C 204.445 0.589405 1.51756 0
M  V30 1940 O 205.634 0.864312 1.56179 0
M  V30 1941 C 202.734 1.72627 2.91639 0
M  V30 1942 C 201.907 3.01479 3.16905 0
M  V30 1943 C 200.966 2.95139 4.35637 0
M  V30 1944 O 199.992 3.69059 4.3334 0
M  V30 1945 N 201.194 2.12328 5.40275 0
M  V30 1946 H 203.959 2.66612 1.36888 0
M  V30 1947 H 201.52 1.50089 0.607037 0
M  V30 1948 H 203.512 1.65928 3.6912 0
M  V30 1949 H 202.082 0.844216 3.00985 0
M  V30 1950 H 201.302 3.21895 2.27546 0
M  V30 1951 H 202.59 3.86736 3.30625 0
M  V30 1952 H 201.988 1.51685 5.44985 0
M  V30 1953 H 200.545 2.11494 6.16534 0
M  V30 1954 N 203.978 -0.674533 1.42435 0
M  V30 1955 C 205.206 -1.46283 1.46317 0
M  V30 1956 C 205.621 -1.88653 0.0745836 0
M  V30 1957 O 204.978 -1.58151 -0.91074 0
M  V30 1958 C 205.029 -2.71178 2.3905 0
M  V30 1959 O 204.75 -2.30586 3.72507 0
M  V30 1960 C 206.251 -3.64738 2.51955 0
M  V30 1961 H 203.471 -0.450104 0.497642 0
M  V30 1962 H 206.015 -0.828792 1.86953 0
M  V30 1963 H 204.17 -3.3077 2.01667 0
M  V30 1964 H 204.584 -3.11241 4.22172 0
M  V30 1965 H 206.058 -4.49096 3.20962 0
M  V30 1966 H 206.535 -4.10656 1.55752 0
M  V30 1967 H 207.141 -3.11038 2.90061 0
M  V30 1968 N 205.456 -1.28612 -0.910864 0
M  V30 1969 C 206.705 -1.15311 -1.65488 0
M  V30 1970 C 207.018 0.296999 -1.93332 0
M  V30 1971 O 208.224 0.551168 -2.65847 0
M  V30 1972 C 206.68 -2.01599 -2.98137 0
M  V30 1973 C 206.288 -3.51367 -2.7793 0
M  V30 1974 C 208.032 -1.96993 -3.76024 0
M  V30 1975 C 205.939 -4.29797 -4.06237 0
M  V30 1976 H 204.869 -0.42796 -0.620779 0
M  V30 1977 H 207.52 -1.53166 -1.01057 0
M  V30 1978 H 205.902 -1.56603 -3.63719 0
M  V30 1979 H 207.076 -4.0434 -2.21011 0
M  V30 1980 H 205.391 -3.57529 -2.13452 0
M  V30 1981 H 207.988 -2.52856 -4.71135 0
M  V30 1982 H 208.331 -0.94733 -4.05378 0
M  V30 1983 H 208.864 -2.39973 -3.17266 0
M  V30 1984 H 205.603 -5.32648 -3.82055 0
M  V30 1985 H 205.123 -3.81596 -4.62757 0
M  V30 1986 H 206.802 -4.39869 -4.74473 0
M  V30 1987 N 206.934 1.1197 -1.10907 0
M  V30 1988 C 208.35 1.35591 -0.841852 0
M  V30 1989 C 208.55 1.94233 0.536246 0
M  V30 1990 O 207.606 2.1717 1.28816 0
M  V30 1991 C 208.919 2.29284 -1.94549 0
M  V30 1992 C 210.467 2.42862 -1.97451 0
M  V30 1993 C 210.942 3.39873 -3.07002 0
M  V30 1994 N 212.433 3.47433 -3.06341 0
M  V30 1995 C 213.168 4.22421 -3.87748 0
M  V30 1996 N 212.664 5.00432 -4.79103 0
M  V30 1997 N 214.457 4.17876 -3.75946 0
M  V30 1998 H 206.608 0.722664 -1.99728 0
M  V30 1999 H 208.871 0.380635 -0.868229 0
M  V30 2000 H 208.577 1.93378 -2.93765 0
M  V30 2001 H 208.451 3.29452 -1.83688 0
M  V30 2002 H 210.838 2.78046 -0.988645 0
M  V30 2003 H 210.919 1.42566 -2.12388 0
M  V30 2004 H 210.563 3.05417 -4.05811 0
M  V30 2005 H 210.493 4.40011 -2.89306 0
M  V30 2006 H 212.984 2.91784 -2.40147 0
M  V30 2007 H 213.297 5.55002 -5.37766 0
M  V30 2008 H 211.642 4.99612 -4.83128 0
M  V30 2009 H 214.833 3.56016 -3.03924 0
M  V30 2010 H 215.006 4.76061 -4.39624 0
M  V30 2011 N 208.412 0.89855 1.29475 0
M  V30 2012 C 209.659 0.523882 1.95606 0
M  V30 2013 C 209.987 -0.929608 1.70847 0
M  V30 2014 O 209.242 -1.67401 1.01367 0
M  V30 2015 C 209.541 0.761398 3.49195 0
M  V30 2016 C 209.207 2.19207 3.94029 0
M  V30 2017 C 207.869 2.58326 4.05982 0
M  V30 2018 C 210.221 3.12379 4.17216 0
M  V30 2019 C 207.549 3.898 4.38489 0
M  V30 2020 C 209.901 4.43401 4.51197 0
M  V30 2021 C 208.565 4.82394 4.61359 0
M  V30 2022 H 207.835 0.191702 0.715773 0
M  V30 2023 H 210.482 1.13699 1.54094 0
M  V30 2024 H 208.787 0.0653622 3.91745 0
M  V30 2025 H 210.484 0.450904 3.98457 0
M  V30 2026 H 207.074 1.87846 3.85242 0
M  V30 2027 H 211.258 2.83371 4.07449 0
M  V30 2028 H 206.514 4.19734 4.44559 0
M  V30 2029 H 210.688 5.15623 4.68087 0
M  V30 2030 H 208.315 5.84306 4.86303 0
M  V30 2031 N 209.89 -1.43072 0.660911 0
M  V30 2032 C 211.167 -1.95307 0.107017 0
M  V30 2033 C 211.547 -1.60192 -1.37484 0
M  V30 2034 O 210.895 -0.890949 -2.10415 0
M  V30 2035 C 211.105 -3.47124 0.361402 0
M  V30 2036 C 212.453 -4.23738 0.270455 0
M  V30 2037 O 213.477 -3.54981 0.294382 0
M  V30 2038 O 212.336 -5.46131 0.200737 0
M  V30 2039 H 209.43 -0.826984 -0.00517729 0
M  V30 2040 H 211.976 -1.52972 0.734681 0
M  V30 2041 H 210.748 -3.65837 1.38848 0
M  V30 2042 H 210.371 -3.96475 -0.298953 0
M  V30 2043 N 211.368 -0.403325 -1.52352 0
M  V30 2044 C 212.318 0.442244 -2.2367 0
M  V30 2045 C 213.302 1.01823 -1.24583 0
M  V30 2046 O 214.494 0.942005 -1.49851 0
M  V30 2047 C 211.623 1.5615 -3.05732 0
M  V30 2048 C 210.709 0.996575 -4.12225 0
M  V30 2049 N 211.1 0.157804 -5.05554 0
M  V30 2050 C 209.398 1.26767 -4.27605 0
M  V30 2051 C 210.099 -0.155853 -5.81491 0
M  V30 2052 N 209.075 0.451775 -5.41719 0
M  V30 2053 H 212.877 -0.204964 -2.93184 0
M  V30 2054 H 210.391 -0.213418 -1.60992 0
M  V30 2055 H 212.388 2.17981 -3.55373 0
M  V30 2056 H 211.048 2.21139 -2.37755 0
M  V30 2057 H 212.059 -0.206049 -5.1749 0
M  V30 2058 H 208.736 1.91757 -3.70858 0
M  V30 2059 H 210.126 -0.836329 -6.66675 0
M  V30 2060 N 212.846 1.57033 -0.133567 0
M  V30 2061 C 214.092 1.95976 0.521649 0
M  V30 2062 C 214.425 1.01779 1.65393 0
M  V30 2063 O 213.7 0.0576581 1.94415 0
M  V30 2064 C 213.983 3.44738 1.04057 0
M  V30 2065 C 213.836 4.49711 -0.0892897 0
M  V30 2066 C 215.155 3.95682 1.92675 0
M  V30 2067 H 212.274 0.712579 0.188149 0
M  V30 2068 H 214.916 1.88813 -0.212076 0
M  V30 2069 H 213.066 3.50973 1.66583 0
M  V30 2070 H 214.738 4.55565 -0.725152 0
M  V30 2071 H 212.981 4.27261 -0.750378 0
M  V30 2072 H 213.652 5.51099 0.315284 0
M  V30 2073 H 216.128 3.91841 1.39998 0
M  V30 2074 H 215.004 5.00262 2.25897 0
M  V30 2075 H 215.265 3.37239 2.85872 0
M  V30 2076 N 214.325 -0.140222 1.56975 0
M  V30 2077 C 215.574 -0.850152 1.82908 0
M  V30 2078 C 215.887 -1.82028 0.715892 0
M  V30 2079 O 217.093 -2.57485 0.861016 0
M  V30 2080 C 215.549 -1.5625 3.24213 0
M  V30 2081 C 215.157 -0.63443 4.43485 0
M  V30 2082 C 216.901 -2.25881 3.59413 0
M  V30 2083 C 214.808 -1.34879 5.75814 0
M  V30 2084 H 213.738 -0.321221 0.682153 0
M  V30 2085 H 216.389 -0.102874 1.83211 0
M  V30 2086 H 214.771 -2.35565 3.18316 0
M  V30 2087 H 215.945 0.12398 4.60633 0
M  V30 2088 H 214.26 -0.0461836 4.16374 0
M  V30 2089 H 216.857 -2.79978 4.5554 0
M  V30 2090 H 217.2 -3.02693 2.85802 0
M  V30 2091 H 217.733 -1.53477 3.67001 0
M  V30 2092 H 214.472 -0.622385 6.52539 0
M  V30 2093 H 213.992 -2.07974 5.6259 0
M  V30 2094 H 215.671 -1.88784 6.18845 0
M  V30 2095 N 215.803 -1.52179 -0.40978 0
M  V30 2096 C 217.031 -1.70054 -1.17853 0
M  V30 2097 C 217.446 -0.409735 -1.843 0
M  V30 2098 O 216.803 0.614183 -1.71855 0
M  V30 2099 C 216.854 -2.83568 -2.24213 0
M  V30 2100 O 216.575 -4.0765 -1.60478 0
M  V30 2101 C 218.076 -3.12947 -3.13973 0
M  V30 2102 H 215.296 -0.569917 -0.354169 0
M  V30 2103 H 217.84 -1.98734 -0.482198 0
M  V30 2104 H 215.995 -2.57409 -2.89516 0
M  V30 2105 H 216.409 -4.70899 -2.30986 0
M  V30 2106 H 217.883 -3.95889 -3.84677 0
M  V30 2107 H 218.36 -2.26472 -3.76307 0
M  V30 2108 H 218.966 -3.40868 -2.5434 0
M  V30 2109 N 217.281 0.66697 -1.42791 0
M  V30 2110 C 218.229 1.80157 -1.47127 0
M  V30 2111 C 219.223 1.65825 -0.346199 0
M  V30 2112 O 220.429 1.72338 -0.519572 0
M  V30 2113 H 216.804 0.594158 -0.460956 0
M  V30 2114 H 218.775 1.73619 -2.42692 0
M  V30 2115 C 217.524 3.18351 -1.39813 0
M  V30 2116 H 216.847 3.3001 -2.25684 0
M  V30 2117 H 218.287 3.97736 -1.46908 0
M  V30 2118 C 216.746 3.36707 -0.11391 0
M  V30 2119 O 217.276 3.93027 0.830241 0
M  V30 2120 N 215.482 2.90586 -0.0285295 0
M  V30 2121 H 215.029 2.4494 -0.79764 0
M  V30 2122 H 214.987 3.03245 0.830063 0
M  V30 2123 N 218.759 1.29093 0.90403 0
M  V30 2124 C 219.692 1.08176 2.00931 0
M  V30 2125 C 220.67 -0.005083 1.62599 0
M  V30 2126 O 221.854 0.144765 1.87943 0
M  V30 2127 C 218.981 0.645897 3.32484 0
M  V30 2128 C 218.027 1.73081 3.89801 0
M  V30 2129 S 218.86 3.32905 4.19446 0
M  V30 2130 C 220.016 2.91176 5.54046 0
M  V30 2131 H 220.249 2.01752 2.18365 0
M  V30 2132 H 217.782 1.13191 1.0501 0
M  V30 2133 H 219.74 0.401131 4.08535 0
M  V30 2134 H 218.401 -0.270188 3.12936 0
M  V30 2135 H 217.594 1.37768 4.84805 0
M  V30 2136 H 217.196 1.92888 3.20422 0
M  V30 2137 H 219.488 2.37952 6.34338 0
M  V30 2138 H 220.431 3.85014 5.94281 0
M  V30 2139 H 220.839 2.296 5.15698 0
M  V30 2140 N 220.237 -1.11381 1.11499 0
M  V30 2141 C 221.185 -2.19522 0.768956 0
M  V30 2142 C 222.179 -1.67693 -0.239857 0
M  V30 2143 O 223.385 -1.79727 -0.0990755 0
M  V30 2144 H 219.76 -0.715711 0.230786 0
M  V30 2145 H 221.731 -2.45954 1.68964 0
M  V30 2146 C 220.48 -3.46945 0.229073 0
M  V30 2147 H 219.803 -3.8718 0.996596 0
M  V30 2148 H 221.243 -4.23993 0.0251441 0
M  V30 2149 C 219.702 -3.2042 -1.04079 0
M  V30 2150 O 220.232 -3.41178 -2.12038 0
M  V30 2151 N 218.438 -2.74151 -0.963823 0
M  V30 2152 H 217.985 -2.57459 -0.0851722 0
M  V30 2153 H 217.943 -2.56781 -1.81414 0
M  V30 2154 N 221.715 -0.905404 -1.28997 0
M  V30 2155 C 222.663 -0.377431 -2.29517 0
M  V30 2156 C 223.657 0.526461 -1.61012 0
M  V30 2157 O 224.863 0.40863 -1.753 0
M  V30 2158 H 221.238 -0.103437 -0.744852 0
M  V30 2159 H 223.209 -1.23848 -2.71485 0
M  V30 2160 C 221.958 0.374833 -3.45674 0
M  V30 2161 H 221.281 -0.311474 -3.98585 0
M  V30 2162 H 222.721 0.70903 -4.1803 0
M  V30 2163 C 221.18 1.57963 -2.97572 0
M  V30 2164 O 221.71 2.67886 -2.99333 0
M  V30 2165 N 219.916 1.42375 -2.53333 0
M  V30 2166 H 219.463 0.529466 -2.521 0
M  V30 2167 H 219.421 2.23117 -2.21509 0
M  V30 2168 N 223.193 1.4272 -0.668489 0
M  V30 2169 C 224.141 2.32586 0.0254857 0
M  V30 2170 C 225.135 1.49471 0.797176 0
M  V30 2171 O 226.341 1.65583 0.705853 0
M  V30 2172 H 222.716 0.751514 0.0270339 0
M  V30 2173 H 224.687 2.88823 -0.749936 0
M  V30 2174 C 223.436 3.3397 0.967427 0
M  V30 2175 H 222.759 3.97961 0.383048 0
M  V30 2176 H 224.199 3.9945 1.42181 0
M  V30 2177 C 222.658 2.65744 2.0708 0
M  V30 2178 O 223.188 2.48454 3.15648 0
M  V30 2179 N 221.394 2.2487 1.8407 0
M  V30 2180 H 220.941 2.39132 0.95778 0
M  V30 2181 H 220.899 1.79552 2.58086 0
M  V30 2182 N 224.671 0.411399 1.52136 0
M  V30 2183 C 225.901 -0.16284 2.05957 0
M  V30 2184 C 226.309 -1.3922 1.28119 0
M  V30 2185 O 225.652 -1.80768 0.326881 0
M  V30 2186 C 225.714 -0.575946 3.54856 0
M  V30 2187 C 225.378 0.542998 4.53763 0
M  V30 2188 C 226.375 1.40726 5.00492 0
M  V30 2189 C 224.06 0.716337 4.97166 0
M  V30 2190 C 226.054 2.4298 5.8927 0
M  V30 2191 C 223.741 1.74218 5.8574 0
M  V30 2192 C 224.739 2.59731 6.31687 0
M  V30 2193 O 224.427 3.60558 7.18507 0
M  V30 2194 H 224.159 -0.0229125 0.675612 0
M  V30 2195 H 226.713 0.581634 1.96993 0
M  V30 2196 H 224.943 -1.37274 3.61515 0
M  V30 2197 H 226.632 -1.07836 3.91313 0
M  V30 2198 H 227.398 1.28476 4.67674 0
M  V30 2199 H 223.277 0.0603857 4.6096 0
M  V30 2200 H 226.821 3.0976 6.25055 0
M  V30 2201 H 222.718 1.86498 6.17971 0
M  V30 2202 H 223.486 3.56829 7.36624 0
M  V30 2203 N 226.149 -1.5696 0.141893 0
M  V30 2204 C 227.059 -2.20066 -0.812905 0
M  V30 2205 C 228.075 -1.18344 -1.27557 0
M  V30 2206 O 229.251 -1.50902 -1.33381 0
M  V30 2207 C 226.316 -2.80583 -2.03652 0
M  V30 2208 C 225.377 -3.97414 -1.62359 0
M  V30 2209 C 224.61 -4.55036 -2.78887 0
M  V30 2210 O 224.833 -4.11538 -3.94959 0
M  V30 2211 O 223.767 -5.45376 -2.54653 0
M  V30 2212 H 227.593 -3.02157 -0.305746 0
M  V30 2213 H 225.178 -1.49159 -0.0848799 0
M  V30 2214 H 227.06 -3.19067 -2.75272 0
M  V30 2215 H 225.735 -2.01508 -2.5333 0
M  V30 2216 H 224.642 -3.63656 -0.877775 0
M  V30 2217 H 225.975 -4.77994 -1.17401 0
M  V30 2218 N 227.627 0.131896 -1.57047 0
M  V30 2219 C 229.038 0.690407 -1.73465 0
M  V30 2220 C 229.389 1.8094 -0.758629 0
M  V30 2221 O 228.514 2.16282 0.0713813 0
M  V30 2222 C 229.109 1.25916 -3.14532 0
M  V30 2223 C 227.668 1.76409 -3.32501 0
M  V30 2224 C 226.815 0.658579 -2.69366 0
M  V30 2225 H 229.766 -0.0939144 -1.58422 0
M  V30 2226 H 229.787 2.12892 -3.15369 0
M  V30 2227 H 229.299 0.444515 -3.85546 0
M  V30 2228 H 227.4 2.60391 -2.66509 0
M  V30 2229 H 227.513 1.88241 -4.4057 0
M  V30 2230 H 225.877 1.08899 -2.30246 0
M  V30 2231 H 226.66 -0.14487 -3.42994 0
M  V30 2232 N 229.106 1.52395 0.401703 0
M  V30 2233 C 230.522 1.41363 0.740864 0
M  V30 2234 C 230.722 0.523982 1.94568 0
M  V30 2235 O 229.778 -0.00741204 2.52499 0
M  V30 2236 C 231.091 2.84011 0.987847 0
M  V30 2237 C 232.639 2.93404 1.09011 0
M  V30 2238 C 233.114 4.37036 1.3698 0
M  V30 2239 N 234.605 4.40304 1.43829 0
M  V30 2240 C 235.34 5.48508 1.67112 0
M  V30 2241 N 234.836 6.66819 1.87949 0
M  V30 2242 N 236.629 5.36034 1.69187 0
M  V30 2243 H 228.78 2.08765 -0.391262 0
M  V30 2244 H 231.043 0.941265 -0.112798 0
M  V30 2245 H 230.749 3.51265 0.174835 0
M  V30 2246 H 230.623 3.25502 1.906 0
M  V30 2247 H 233.01 2.26325 1.8937 0
M  V30 2248 H 233.091 2.55359 0.15015 0
M  V30 2249 H 232.735 5.04676 0.571353 0
M  V30 2250 H 232.665 4.72623 2.3224 0
M  V30 2251 H 235.156 3.55024 1.29486 0
M  V30 2252 H 235.469 7.45063 2.05185 0
M  V30 2253 H 233.814 6.6987 1.85199 0
M  V30 2254 H 237.005 4.42579 1.52451 0
M  V30 2255 H 237.178 6.20434 1.86993 0
M  V30 2256 N 230.584 -0.659388 1.43143 0
M  V30 2257 C 231.809 -1.45221 1.48073 0
M  V30 2258 C 232.234 -1.87845 0.097995 0
M  V30 2259 O 231.592 -1.56985 -0.90694 0
M  V30 2260 C 231.64 -2.66748 2.42647 0
M  V30 2261 O 230.744 -3.65583 1.90848 0
M  V30 2262 H 230.085 -0.435669 0.501088 0
M  V30 2263 H 232.615 -0.807432 1.87994 0
M  V30 2264 H 232.625 -3.14637 2.59745 0
M  V30 2265 H 231.3 -2.35067 3.43098 0
M  V30 2266 H 229.877 -3.24693 1.83381 0
M  V30 2267 N 232.062 -1.29571 -0.897171 0
M  V30 2268 C 233.31 -1.17456 -1.64464 0
M  V30 2269 C 233.631 0.273698 -1.9307 0
M  V30 2270 O 232.901 1.18684 -1.55855 0
M  V30 2271 H 231.481 -0.431706 -0.609622 0
M  V30 2272 H 234.143 -1.62531 -1.07562 0
M  V30 2273 H 233.239 -1.72648 -2.59998 0
M  V30 2274 N 233.54 1.10788 -1.12088 0
M  V30 2275 C 234.487 2.17025 -0.785407 0
M  V30 2276 C 235.457 1.64265 0.246191 0
M  V30 2277 O 236.642 1.90412 0.121584 0
M  V30 2278 C 233.782 3.44249 -0.242177 0
M  V30 2279 C 232.895 4.1098 -1.33115 0
M  V30 2280 C 232.03 5.25911 -0.747741 0
M  V30 2281 C 231.069 5.84538 -1.81609 0
M  V30 2282 N 230.206 6.90853 -1.25167 0
M  V30 2283 H 235.046 2.45066 -1.69548 0
M  V30 2284 H 232.583 1.20297 -0.846582 0
M  V30 2285 H 234.541 4.17101 0.0908026 0
M  V30 2286 H 233.171 3.16571 0.631072 0
M  V30 2287 H 232.223 3.36133 -1.78097 0
M  V30 2288 H 233.535 4.50601 -2.13917 0
M  V30 2289 H 232.689 6.056 -0.365216 0
M  V30 2290 H 231.428 4.87614 0.0915188 0
M  V30 2291 H 230.433 5.03522 -2.20785 0
M  V30 2292 H 231.658 6.249 -2.6585 0
M  V30 2293 H 229.604 6.54562 -0.434174 0
M  V30 2294 H 229.521 7.29166 -1.99633 0
M  V30 2295 H 230.789 7.7433 -0.896259 0
M  V30 2296 N 235.018 0.912232 1.28515 0
M  V30 2297 C 236.265 0.544599 1.95039 0
M  V30 2298 C 236.593 -0.911435 1.71823 0
M  V30 2299 O 235.848 -1.66317 1.03137 0
M  V30 2300 C 236.147 0.798392 3.48368 0
M  V30 2301 C 235.813 2.23374 3.91682 0
M  V30 2302 C 234.475 2.62617 4.03219 0
M  V30 2303 C 236.827 3.16786 4.13879 0
M  V30 2304 C 234.155 3.94429 4.3433 0
M  V30 2305 C 236.507 4.48161 4.46469 0
M  V30 2306 C 235.171 4.8726 4.56217 0
M  V30 2307 H 234.441 0.199283 0.7137 0
M  V30 2308 H 237.088 1.15327 1.52879 0
M  V30 2309 H 235.393 0.106908 3.91654 0
M  V30 2310 H 237.09 0.493141 3.97956 0
M  V30 2311 H 233.68 1.91922 3.83228 0
M  V30 2312 H 237.864 2.87677 4.0442 0
M  V30 2313 H 233.12 4.24426 4.40082 0
M  V30 2314 H 237.294 5.20559 4.62592 0
M  V30 2315 H 234.921 5.89431 4.80078 0
M  V30 2316 N 236.496 -1.42363 0.676048 0
M  V30 2317 C 237.724 -2.05859 0.207268 0
M  V30 2318 C 238.139 -1.50796 -1.13605 0
M  V30 2319 O 237.496 -0.648265 -1.70598 0
M  V30 2320 C 237.547 -3.61248 0.134975 0
M  V30 2321 O 237.268 -4.1427 1.42521 0
M  V30 2322 C 238.769 -4.41859 -0.357151 0
M  V30 2323 H 235.989 -0.663431 0.100503 0
M  V30 2324 H 238.533 -1.82479 0.923136 0
M  V30 2325 H 236.688 -3.83735 -0.531588 0
M  V30 2326 H 237.102 -5.0815 1.29939 0
M  V30 2327 H 238.576 -5.50847 -0.356641 0
M  V30 2328 H 239.053 -4.16536 -1.39264 0
M  V30 2329 H 239.659 -4.24392 0.27772 0
M  V30 2330 N 237.974 -0.419461 -1.51915 0
M  V30 2331 C 239.214 0.152336 -2.03832 0
M  V30 2332 C 239.578 1.41501 -1.29775 0
M  V30 2333 O 240.779 2.06591 -1.7197 0
M  V30 2334 C 239.05 0.383812 -3.55333 0
M  V30 2335 S 240.609 0.921577 -4.29013 0
M  V30 2336 H 237.427 0.0402193 -0.709862 0
M  V30 2337 H 240.029 -0.574758 -1.8686 0
M  V30 2338 H 238.733 -0.541794 -4.06808 0
M  V30 2339 H 238.264 1.13849 -3.76566 0
M  V30 2340 H 240.279 2.20108 -4.4471 0
M  V30 2341 N 239.452 1.56882 -0.150215 0
M  V30 2342 C 240.399 2.16922 0.788244 0
M  V30 2343 C 241.369 1.10303 1.24187 0
M  V30 2344 O 242.554 1.38359 1.31383 0
M  V30 2345 C 239.694 2.79754 2.02068 0
M  V30 2346 C 238.807 4.00775 1.61257 0
M  V30 2347 C 237.942 4.51595 2.79705 0
M  V30 2348 C 236.981 5.65074 2.35282 0
M  V30 2349 N 236.118 6.10499 3.4675 0
M  V30 2350 H 240.958 2.96779 0.269444 0
M  V30 2351 H 238.495 1.46599 0.12128 0
M  V30 2352 H 240.453 3.14329 2.74323 0
M  V30 2353 H 239.083 2.02536 2.51354 0
M  V30 2354 H 238.135 3.72158 0.787553 0
M  V30 2355 H 239.447 4.82978 1.24633 0
M  V30 2356 H 238.601 4.88242 3.60145 0
M  V30 2357 H 237.34 3.68406 3.19576 0
M  V30 2358 H 236.345 5.28 1.53283 0
M  V30 2359 H 237.57 6.50052 1.96493 0
M  V30 2360 H 235.516 5.30243 3.86236 0
M  V30 2361 H 235.433 6.87637 3.14152 0
M  V30 2362 H 236.701 6.51791 4.27537 0
M  V30 2363 N 240.93 -0.123565 1.57115 0
M  V30 2364 C 242.176 -0.833386 1.84885 0
M  V30 2365 C 242.509 -1.79742 0.735292 0
M  V30 2366 O 241.784 -1.92764 -0.25925 0
M  V30 2367 C 242.067 -1.5873 3.23228 0
M  V30 2368 C 241.92 -0.643183 4.45178 0
M  V30 2369 C 243.239 -2.54453 3.59085 0
M  V30 2370 H 240.358 -0.301518 0.6725 0
M  V30 2371 H 243 -0.097778 1.89748 0
M  V30 2372 H 241.15 -2.21438 3.19214 0
M  V30 2373 H 242.822 -0.0253015 4.61293 0
M  V30 2374 H 241.065 0.0456139 4.33776 0
M  V30 2375 H 241.736 -1.20724 5.38637 0
M  V30 2376 H 244.212 -2.01853 3.63861 0
M  V30 2377 H 243.088 -3.04238 4.5687 0
M  V30 2378 H 243.349 -3.36906 2.86264 0
M  V30 2379 N 242.408 -1.52605 -0.393616 0
M  V30 2380 C 243.819 -1.59417 -0.971761 0
M  V30 2381 C 244.17 -0.444173 -1.91106 0
M  V30 2382 O 243.295 0.433382 -2.12016 0
M  V30 2383 C 243.89 -2.88936 -1.76921 0
M  V30 2384 C 242.449 -2.98175 -2.29714 0
M  V30 2385 C 241.596 -2.54491 -1.10135 0
M  V30 2386 H 244.547 -1.57751 -0.173317 0
M  V30 2387 H 244.568 -2.75163 -2.62804 0
M  V30 2388 H 244.08 -3.72616 -1.08532 0
M  V30 2389 H 242.181 -2.19024 -3.01429 0
M  V30 2390 H 242.294 -4.02726 -2.59517 0
M  V30 2391 H 240.658 -2.08702 -1.45999 0
M  V30 2392 H 241.441 -3.4056 -0.432874 0
M  V30 2393 N 243.887 0.651787 -1.4349 0
M  V30 2394 C 245.135 1.40888 -1.44897 0
M  V30 2395 C 245.456 1.94856 -0.0749086 0
M  V30 2396 O 244.726 1.74518 0.889956 0
M  V30 2397 H 243.306 0.522887 -0.533478 0
M  V30 2398 H 245.968 0.768609 -1.79104 0
M  V30 2399 H 245.064 2.25052 -2.16236 0
M  V30 2400 N 245.365 1.30045 0.890287 0
M  V30 2401 C 246.295 1.18541 2.01172 0
M  V30 2402 C 247.276 0.0773356 1.69924 0
M  V30 2403 O 248.461 0.25845 1.92473 0
M  V30 2404 C 245.591 0.870941 3.36202 0
M  V30 2405 C 244.545 1.93637 3.81692 0
M  V30 2406 C 243.871 1.475 5.13953 0
M  V30 2407 C 245.171 3.34666 4.00994 0
M  V30 2408 H 246.865 2.12359 2.11054 0
M  V30 2409 H 244.411 1.02238 1.01407 0
M  V30 2410 H 246.364 0.777141 4.14172 0
M  V30 2411 H 245.088 -0.102926 3.26438 0
M  V30 2412 H 243.747 2.01972 3.05946 0
M  V30 2413 H 243.395 0.489551 5.00612 0
M  V30 2414 H 243.095 2.1876 5.4536 0
M  V30 2415 H 244.619 1.39489 5.94454 0
M  V30 2416 H 246.033 3.2912 4.69417 0
M  V30 2417 H 244.43 4.03966 4.43769 0
M  V30 2418 H 245.5 3.76949 3.05021 0
M  V30 2419 N 246.843 -1.10192 1.12674 0
M  V30 2420 C 248.073 -1.85713 0.905213 0
M  V30 2421 C 248.481 -1.81056 -0.549108 0
M  V30 2422 O 247.824 -1.19927 -1.39151 0
M  V30 2423 C 247.886 -3.34972 1.30516 0
M  V30 2424 C 247.55 -3.63385 2.77129 0
M  V30 2425 C 248.547 -3.59772 3.75313 0
M  V30 2426 C 246.232 -3.91981 3.14096 0
M  V30 2427 C 248.226 -3.84354 5.08479 0
M  V30 2428 C 245.913 -4.16218 4.47443 0
M  V30 2429 C 246.911 -4.12395 5.44444 0
M  V30 2430 O 246.599 -4.36014 6.75387 0
M  V30 2431 H 246.331 -0.593719 0.323223 0
M  V30 2432 H 248.885 -1.40198 1.50112 0
M  V30 2433 H 247.115 -3.81156 0.652463 0
M  V30 2434 H 248.804 -3.91886 1.05736 0
M  V30 2435 H 249.57 -3.37716 3.48099 0
M  V30 2436 H 245.449 -3.94085 2.39202 0
M  V30 2437 H 248.993 -3.81285 5.84181 0
M  V30 2438 H 244.89 -4.37754 4.74386 0
M  V30 2439 H 245.658 -4.53516 6.8137 0
M  V30 2440 N 248.321 -0.919034 -1.28029 0
M  V30 2441 C 249.551 -0.570143 -1.98577 0
M  V30 2442 C 249.959 0.854172 -1.68821 0
M  V30 2443 O 249.302 1.57807 -0.940351 0
M  V30 2444 C 249.364 -0.705734 -3.52505 0
M  V30 2445 C 249.028 -2.10057 -4.05863 0
M  V30 2446 C 250.025 -3.07385 -4.19298 0
M  V30 2447 C 247.71 -2.41517 -4.40426 0
M  V30 2448 C 249.704 -4.34287 -4.66555 0
M  V30 2449 C 247.391 -3.68657 -4.87376 0
M  V30 2450 C 248.389 -4.64856 -5.00398 0
M  V30 2451 O 248.077 -5.89735 -5.46322 0
M  V30 2452 H 247.809 -0.215592 -0.6407 0
M  V30 2453 H 250.363 -1.23583 -1.64062 0
M  V30 2454 H 248.593 0.0170414 -3.86696 0
M  V30 2455 H 250.282 -0.363172 -4.04272 0
M  V30 2456 H 251.048 -2.84398 -3.92865 0
M  V30 2457 H 246.927 -1.67389 -4.29537 0
M  V30 2458 H 250.471 -5.09377 -4.76635 0
M  V30 2459 H 246.368 -3.91466 -5.13249 0
M  V30 2460 H 247.136 -5.92599 -5.64596 0
M  V30 2461 N 249.799 1.42003 -0.683588 0
M  V30 2462 C 251.046 2.01413 -0.209514 0
M  V30 2463 C 251.374 1.54088 1.1869 0
M  V30 2464 O 250.629 0.737591 1.81268 0
M  V30 2465 C 250.928 3.56827 -0.202357 0
M  V30 2466 C 250.594 4.23617 -1.54464 0
M  V30 2467 C 249.256 4.41577 -1.91215 0
M  V30 2468 C 251.608 4.61178 -2.42826 0
M  V30 2469 C 248.936 4.9437 -3.15935 0
M  V30 2470 C 251.288 5.15355 -3.66867 0
M  V30 2471 C 249.952 5.31528 -4.03776 0
M  V30 2472 H 249.222 0.737023 -0.0766668 0
M  V30 2473 H 251.869 1.70067 -0.880312 0
M  V30 2474 H 250.174 3.87892 0.551969 0
M  V30 2475 H 251.871 4.00588 0.181793 0
M  V30 2476 H 248.461 4.10004 -1.24877 0
M  V30 2477 H 252.645 4.46968 -2.15717 0
M  V30 2478 H 247.901 5.05076 -3.44541 0
M  V30 2479 H 252.075 5.43402 -4.35531 0
M  V30 2480 H 249.702 5.72199 -5.00492 0
M  V30 2481 N 251.277 0.427512 1.51691 0
M  V30 2482 C 252.505 -0.141191 2.06418 0
M  V30 2483 C 252.92 -1.37303 1.29589 0
M  V30 2484 O 252.277 -1.79059 0.352732 0
M  V30 2485 C 252.328 -0.473266 3.58389 0
M  V30 2486 O 252.049 0.709673 4.32314 0
M  V30 2487 C 253.55 -1.09371 4.29596 0
M  V30 2488 H 250.77 -0.0122747 0.670888 0
M  V30 2489 H 253.314 0.603764 1.95384 0
M  V30 2490 H 251.469 -1.16812 3.69369 0
M  V30 2491 H 251.883 0.42807 5.2275 0
M  V30 2492 H 253.357 -1.27613 5.37046 0
M  V30 2493 H 253.834 -2.072 3.87253 0
M  V30 2494 H 254.44 -0.43853 4.23033 0
M  V30 2495 N 252.755 -1.56801 0.158532 0
M  V30 2496 C 253.985 -2.00568 -0.495583 0
M  V30 2497 C 254.393 -1.03774 -1.58201 0
M  V30 2498 O 253.736 -0.0285797 -1.83678 0
M  V30 2499 C 253.798 -3.40768 -1.14532 0
M  V30 2500 C 253.462 -4.56553 -0.202101 0
M  V30 2501 C 254.459 -5.16714 0.574675 0
M  V30 2502 C 252.144 -5.02197 -0.101648 0
M  V30 2503 C 254.138 -6.20939 1.43924 0
M  V30 2504 C 251.825 -6.06274 0.766508 0
M  V30 2505 C 252.823 -6.65515 1.53555 0
M  V30 2506 O 252.511 -7.67575 2.38922 0
M  V30 2507 H 252.243 -0.662893 -0.13247 0
M  V30 2508 H 254.797 -2.03829 0.253559 0
M  V30 2509 H 253.027 -3.34381 -1.94233 0
M  V30 2510 H 254.716 -3.6857 -1.70033 0
M  V30 2511 H 255.482 -4.82341 0.507167 0
M  V30 2512 H 251.361 -4.55807 -0.689994 0
M  V30 2513 H 254.905 -6.67107 2.03996 0
M  V30 2514 H 250.802 -6.40073 0.835266 0
M  V30 2515 H 251.57 -7.84844 2.32296 0
M  V30 2516 N 254.233 0.115231 -1.57178 0
M  V30 2517 C 255.183 1.14707 -1.97044 0
M  V30 2518 C 256.167 1.36866 -0.845957 0
M  V30 2519 O 257.359 1.37895 -1.10968 0
M  V30 2520 C 254.488 2.47266 -2.38148 0
M  V30 2521 C 253.574 2.28566 -3.57237 0
M  V30 2522 N 253.965 1.79685 -4.72807 0
M  V30 2523 C 252.263 2.59208 -3.62943 0
M  V30 2524 C 252.964 1.74781 -5.54821 0
M  V30 2525 N 251.94 2.19264 -4.97417 0
M  V30 2526 H 255.742 0.761754 -2.83857 0
M  V30 2527 H 253.256 0.322928 -1.59157 0
M  V30 2528 H 255.253 3.219 -2.64927 0
M  V30 2529 H 253.913 2.86552 -1.52702 0
M  V30 2530 H 254.924 1.49177 -4.9595 0
M  V30 2531 H 251.601 3.02154 -2.88113 0
M  V30 2532 H 252.991 1.38212 -6.57531 0
M  V30 2533 N 255.711 1.52812 0.385517 0
M  V30 2534 C 256.674 1.77188 1.45386 0
M  V30 2535 C 257.674 0.641953 1.4743 0
M  V30 2536 O 258.864 0.910033 1.4854 0
M  V30 2537 C 255.996 1.87582 2.8465 0
M  V30 2538 H 257.189 2.72583 1.25054 0
M  V30 2539 H 254.742 1.43586 0.617467 0
M  V30 2540 H 255.477 0.941849 3.10322 0
M  V30 2541 H 255.262 2.69748 2.84567 0
M  V30 2542 H 256.752 2.08102 3.62054 0
M  V30 2543 N 257.189 -0.644168 1.43834 0
M  V30 2544 C 258.414 -1.43642 1.49605 0
M  V30 2545 C 258.839 -1.8773 0.117913 0
M  V30 2546 O 258.197 -1.57938 -0.890239 0
M  V30 2547 C 258.245 -2.6416 2.45463 0
M  V30 2548 O 257.349 -3.63538 1.94714 0
M  V30 2549 H 256.69 -0.430329 0.50568 0
M  V30 2550 H 259.22 -0.787448 1.8884 0
M  V30 2551 H 259.23 -3.11864 2.63068 0
M  V30 2552 H 257.905 -2.31414 3.45572 0
M  V30 2553 H 256.482 -3.2273 1.86814 0
M  V30 2554 N 258.668 -1.30515 -0.883378 0
M  V30 2555 C 259.893 -1.22487 -1.67367 0
M  V30 2556 C 260.318 0.208767 -1.86938 0
M  V30 2557 O 259.676 1.15015 -1.40148 0
M  V30 2558 C 259.724 -1.96041 -3.02655 0
M  V30 2559 O 258.828 -1.28859 -3.91751 0
M  V30 2560 H 258.169 -0.423573 -0.511353 0
M  V30 2561 H 260.699 -1.72362 -1.10239 0
M  V30 2562 H 260.709 -2.05124 -3.52687 0
M  V30 2563 H 259.384 -3.00307 -2.8773 0
M  V30 2564 H 257.961 -1.28141 -3.50192 0
M  V30 2565 N 260.146 1.09593 -1.13257 0
M  V30 2566 C 261.562 1.33775 -0.870423 0
M  V30 2567 C 261.762 1.95327 0.494926 0
M  V30 2568 O 260.818 2.19853 1.2418 0
M  V30 2569 C 262.131 2.25106 -1.99369 0
M  V30 2570 C 263.679 2.3862 -2.02558 0
M  V30 2571 C 264.154 3.33285 -3.14142 0
M  V30 2572 N 265.645 3.40857 -3.13641 0
M  V30 2573 C 266.38 4.14101 -3.96621 0
M  V30 2574 N 265.876 4.90157 -4.8961 0
M  V30 2575 N 267.669 4.09808 -3.84726 0
M  V30 2576 H 259.82 0.680136 -2.01216 0
M  V30 2577 H 262.083 0.362133 -0.876107 0
M  V30 2578 H 261.789 1.87103 -2.97801 0
M  V30 2579 H 261.663 3.25481 -1.90635 0
M  V30 2580 H 264.05 2.75887 -1.0474 0
M  V30 2581 H 264.131 1.38028 -2.15364 0
M  V30 2582 H 263.775 2.96741 -4.12198 0
M  V30 2583 H 263.705 4.33776 -2.98574 0
M  V30 2584 H 266.196 2.86624 -2.46282 0
M  V30 2585 H 266.509 5.4347 -5.49418 0
M  V30 2586 H 264.854 4.89251 -4.93617 0
M  V30 2587 H 268.045 3.4949 -3.11408 0
M  V30 2588 H 268.218 4.66629 -4.49623 0
M  V30 2589 N 261.624 0.925811 1.2754 0
M  V30 2590 C 262.872 0.564138 1.94067 0
M  V30 2591 C 263.193 -0.897188 1.73134 0
M  V30 2592 O 262.463 -1.63573 1.07799 0
M  V30 2593 H 261.043 0.205645 0.718136 0
M  V30 2594 H 263.705 1.1778 1.55287 0
M  V30 2595 H 262.801 0.76881 3.02483 0
M  V30 2596 N 263.102 -1.41638 0.69111 0
M  V30 2597 C 264.05 -2.32597 0.0115199 0
M  V30 2598 C 265.044 -1.5072 -0.773296 0
M  V30 2599 O 266.25 -1.66685 -0.67942 0
M  V30 2600 H 262.625 -0.751849 -0.0150746 0
M  V30 2601 H 264.596 -2.87593 0.795791 0
M  V30 2602 C 263.345 -3.35467 -0.914172 0
M  V30 2603 H 262.668 -3.9852 -0.319687 0
M  V30 2604 H 264.108 -4.01662 -1.35808 0
M  V30 2605 C 262.567 -2.69004 -2.02826 0
M  V30 2606 O 263.097 -2.53444 -3.11655 0
M  V30 2607 N 261.303 -2.2777 -1.80469 0
M  V30 2608 H 260.85 -2.40626 -0.919615 0
M  V30 2609 H 260.808 -1.83635 -2.55197 0
M  V30 2610 N 264.58 -0.43555 -1.51462 0
M  V30 2611 C 265.51 0.367376 -2.30592 0
M  V30 2612 C 266.491 1.02263 -1.35928 0
M  V30 2613 O 267.676 1.02661 -1.64847 0
M  V30 2614 C 264.806 1.46983 -3.14664 0
M  V30 2615 C 263.76 0.938161 -4.17591 0
M  V30 2616 C 263.086 2.13622 -4.90173 0
M  V30 2617 C 264.386 -0.0261621 -5.22293 0
M  V30 2618 H 266.08 -0.292969 -2.97963 0
M  V30 2619 H 263.626 -0.14234 -1.43295 0
M  V30 2620 H 265.579 2.03873 -3.688 0
M  V30 2621 H 264.303 2.15843 -2.4511 0
M  V30 2622 H 262.962 0.391481 -3.64504 0
M  V30 2623 H 262.61 2.81098 -4.17124 0
M  V30 2624 H 262.31 1.78688 -5.59772 0
M  V30 2625 H 263.834 2.7107 -5.47132 0
M  V30 2626 H 265.248 0.452384 -5.71512 0
M  V30 2627 H 263.645 -0.287992 -5.99409 0
M  V30 2628 H 264.715 -0.963391 -4.75233 0
M  V30 2629 N 266.058 1.56714 -0.166846 0
M  V30 2630 C 267.298 1.98641 0.481763 0
M  V30 2631 C 267.662 1.05038 1.6072 0
M  V30 2632 O 268.863 1.36087 2.31805 0
M  V30 2633 C 267.134 3.44362 0.956517 0
M  V30 2634 S 268.693 4.08317 1.60694 0
M  V30 2635 H 265.511 0.693873 0.155116 0
M  V30 2636 H 268.113 1.93719 -0.263251 0
M  V30 2637 H 266.817 4.10204 0.126936 0
M  V30 2638 H 266.348 3.53041 1.73568 0
M  V30 2639 H 268.363 4.02999 2.89494 0
M  V30 2640 N 267.536 -0.106894 1.57237 0
M  V30 2641 C 268.782 -0.81373 1.85759 0
M  V30 2642 C 269.115 -1.78952 0.754315 0
M  V30 2643 O 268.39 -1.93029 -0.23879 0
M  V30 2644 C 268.673 -1.55293 3.24894 0
M  V30 2645 C 268.526 -0.595929 4.45835 0
M  V30 2646 C 269.845 -2.5063 3.61763 0
M  V30 2647 H 266.964 -0.294369 0.67566 0
M  V30 2648 H 269.606 -0.0776472 1.89841 0
M  V30 2649 H 267.756 -2.1804 3.21544 0
M  V30 2650 H 269.428 0.0236262 4.61294 0
M  V30 2651 H 267.671 0.0916191 4.33703 0
M  V30 2652 H 268.342 -1.15004 5.39887 0
M  V30 2653 H 270.818 -1.97982 3.65981 0
M  V30 2654 H 269.694 -2.99376 4.60071 0
M  V30 2655 H 269.955 -3.3385 2.89821 0
M  V30 2656 N 269.014 -1.53014 -0.377408 0
M  V30 2657 C 269.962 -1.7927 -1.48206 0
M  V30 2658 C 270.956 -0.661195 -1.55963 0
M  V30 2659 O 272.162 -0.843908 -1.58991 0
M  V30 2660 H 268.537 -0.567425 -0.493491 0
M  V30 2661 H 270.508 -2.71753 -1.2326 0
M  V30 2662 C 269.257 -1.98894 -2.85196 0
M  V30 2663 H 268.58 -2.85395 -2.79981 0
M  V30 2664 H 270.02 -2.21249 -3.61698 0
M  V30 2665 C 268.479 -0.764691 -3.28107 0
M  V30 2666 O 269.009 0.0523226 -4.01666 0
M  V30 2667 N 267.215 -0.591493 -2.84517 0
M  V30 2668 H 266.762 -1.25749 -2.24822 0
M  V30 2669 H 266.72 0.226253 -3.13585 0
M  V30 2670 N 270.492 0.636531 -1.44174 0
M  V30 2671 C 271.422 1.76003 -1.53444 0
M  V30 2672 C 272.403 1.65619 -0.387841 0
M  V30 2673 O 273.588 1.84461 -0.607257 0
M  V30 2674 C 270.718 3.14511 -1.4731 0
M  V30 2675 C 269.672 3.39677 -2.60391 0
M  V30 2676 C 268.998 4.78159 -2.39308 0
M  V30 2677 C 270.298 3.32772 -4.02567 0
M  V30 2678 H 271.992 1.68501 -2.47483 0
M  V30 2679 H 269.538 0.809237 -1.19111 0
M  V30 2680 H 271.491 3.92878 -1.52397 0
M  V30 2681 H 270.215 3.22783 -0.49785 0
M  V30 2682 H 268.874 2.63688 -2.54684 0
M  V30 2683 H 268.522 4.83128 -1.39988 0
M  V30 2684 H 268.222 4.95956 -3.15122 0
M  V30 2685 H 269.746 5.58762 -2.46205 0
M  V30 2686 H 271.16 4.01051 -4.09672 0
M  V30 2687 H 269.557 3.62104 -4.7854 0
M  V30 2688 H 270.627 2.30669 -4.2652 0
M  V30 2689 N 271.97 1.30982 0.876444 0
M  V30 2690 C 272.903 1.12414 1.98591 0
M  V30 2691 C 273.881 0.0294078 1.62573 0
M  V30 2692 O 275.065 0.184598 1.87594 0
M  V30 2693 C 272.192 0.716276 3.3104 0
M  V30 2694 C 271.238 1.81311 3.86042 0
M  V30 2695 S 272.071 3.41727 4.1229 0
M  V30 2696 C 273.227 3.02863 5.47745 0
M  V30 2697 H 273.46 2.06338 2.14037 0
M  V30 2698 H 270.993 1.15393 1.02586 0
M  V30 2699 H 272.951 0.487697 4.07593 0
M  V30 2700 H 271.612 -0.203749 3.13438 0
M  V30 2701 H 270.805 1.48021 4.81774 0
M  V30 2702 H 270.407 1.99641 3.16259 0
M  V30 2703 H 272.699 2.51353 6.29148 0
M  V30 2704 H 273.642 3.97533 5.8598 0
M  V30 2705 H 274.05 2.40487 5.10711 0
M  V30 2706 N 273.449 -1.08991 1.13837 0
M  V30 2707 C 274.865 -1.33312 0.877506 0
M  V30 2708 C 275.065 -1.95587 -0.48456 0
M  V30 2709 O 274.121 -2.20509 -1.23013 0
M  V30 2710 C 275.434 -2.24045 2.0056 0
M  V30 2711 C 276.982 -2.37542 2.03821 0
M  V30 2712 C 277.457 -3.31614 3.15905 0
M  V30 2713 N 278.948 -3.39189 3.15445 0
M  V30 2714 C 279.683 -4.11992 3.98811 0
M  V30 2715 N 279.179 -4.87553 4.92203 0
M  V30 2716 N 280.972 -4.07762 3.86894 0
M  V30 2717 H 273.123 -0.669456 2.01574 0
M  V30 2718 H 275.386 -0.357482 0.878015 0
M  V30 2719 H 275.092 -1.85521 2.98789 0
M  V30 2720 H 274.966 -3.24466 1.92359 0
M  V30 2721 H 277.353 -2.75327 1.06202 0
M  V30 2722 H 277.434 -1.36884 2.16093 0
M  V30 2723 H 277.078 -2.94551 4.13766 0
M  V30 2724 H 277.008 -4.32186 3.0087 0
M  V30 2725 H 279.499 -2.85314 2.47799 0
M  V30 2726 H 279.812 -5.40549 5.52292 0
M  V30 2727 H 278.157 -4.86627 4.96205 0
M  V30 2728 H 281.348 -3.47833 3.13257 0
M  V30 2729 H 281.521 -4.64238 4.52092 0
M  V30 2730 N 274.927 -0.932562 -1.27047 0
M  V30 2731 C 276.175 -0.574422 -1.93765 0
M  V30 2732 C 276.496 0.887993 -1.73608 0
M  V30 2733 O 275.766 1.62999 -1.08665 0
M  V30 2734 H 274.346 -0.209451 -0.717035 0
M  V30 2735 H 277.008 -1.18601 -1.5466 0
M  V30 2736 H 276.104 -0.784841 -3.02071 0
M  V30 2737 N 276.405 1.4127 -0.698611 0
M  V30 2738 C 277.821 1.55241 -0.370462 0
M  V30 2739 C 278.021 1.67351 1.12231 0
M  V30 2740 O 277.077 1.65363 1.90818 0
M  V30 2741 C 278.39 2.78997 -1.12165 0
M  V30 2742 C 279.938 2.92797 -1.1063 0
M  V30 2743 C 280.413 4.19445 -1.8393 0
M  V30 2744 N 281.904 4.26409 -1.80914 0
M  V30 2745 C 282.639 5.23271 -2.34467 0
M  V30 2746 N 282.135 6.26145 -2.96504 0
M  V30 2747 N 283.928 5.15232 -2.24706 0
M  V30 2748 H 276.079 1.31654 -1.66676 0
M  V30 2749 H 278.342 0.635393 -0.703548 0
M  V30 2750 H 278.048 2.76268 -2.17644 0
M  V30 2751 H 277.922 3.70606 -0.702209 0
M  V30 2752 H 280.309 2.95039 -0.0597713 0
M  V30 2753 H 280.39 2.02353 -1.56483 0
M  V30 2754 H 280.034 4.17964 -2.88563 0
M  V30 2755 H 279.964 5.08866 -1.35509 0
M  V30 2756 H 282.455 3.527 -1.35687 0
M  V30 2757 H 282.768 6.96451 -3.34927 0
M  V30 2758 H 281.113 6.26638 -3.00583 0
M  V30 2759 H 284.304 4.33789 -1.7591 0
M  V30 2760 H 284.477 5.90552 -2.66745 0
M  V30 2761 N 277.883 0.443576 1.51229 0
M  V30 2762 C 278.793 -0.370721 2.31652 0
M  V30 2763 C 279.809 -1.02186 1.40833 0
M  V30 2764 O 280.985 -1.01586 1.73903 0
M  V30 2765 C 278.05 -1.45376 3.14749 0
M  V30 2766 C 277.111 -0.822099 4.21355 0
M  V30 2767 C 276.344 -1.85353 5.0048 0
M  V30 2768 O 276.567 -3.07656 4.80316 0
M  V30 2769 O 275.501 -1.4406 5.84406 0
M  V30 2770 H 279.327 0.286002 3.0235 0
M  V30 2771 H 276.912 0.20598 1.47973 0
M  V30 2772 H 278.794 -2.08173 3.66391 0
M  V30 2773 H 277.469 -2.09445 2.46809 0
M  V30 2774 H 276.376 -0.155909 3.73775 0
M  V30 2775 H 277.709 -0.224797 4.91686 0
M  V30 2776 N 279.361 -1.56624 0.175154 0
M  V30 2777 C 280.777 -1.58571 -0.180966 0
M  V30 2778 C 280.977 -1.19065 -1.6256 0
M  V30 2779 O 280.033 -0.904044 -2.35761 0
M  V30 2780 C 281.346 -3.00522 0.103326 0
M  V30 2781 C 282.894 -3.12972 0.0418426 0
M  V30 2782 C 283.369 -4.57022 0.299175 0
M  V30 2783 N 284.86 -4.62541 0.247086 0
M  V30 2784 C 285.595 -5.71857 0.420318 0
M  V30 2785 N 285.091 -6.89717 0.652816 0
M  V30 2786 N 286.884 -5.60972 0.355957 0
M  V30 2787 H 279.035 -1.80589 1.11809 0
M  V30 2788 H 281.298 -0.837178 0.444788 0
M  V30 2789 H 281.004 -3.33916 1.10422 0
M  V30 2790 H 280.878 -3.72344 -0.603299 0
M  V30 2791 H 283.265 -2.79403 -0.949636 0
M  V30 2792 H 283.346 -2.43578 0.781238 0
M  V30 2793 H 282.99 -4.913 1.28788 0
M  V30 2794 H 282.92 -5.24579 -0.460876 0
M  V30 2795 H 285.411 -3.77829 0.0731895 0
M  V30 2796 H 285.724 -7.68911 0.774347 0
M  V30 2797 H 284.069 -6.91572 0.689476 0
M  V30 2798 H 287.26 -4.67773 0.174882 0
M  V30 2799 H 287.433 -6.46111 0.494388 0
M  V30 2800 N 280.839 0.0985539 -1.57292 0
M  V30 2801 C 281.802 1.10402 -2.00858 0
M  V30 2802 C 282.802 1.33146 -0.901593 0
M  V30 2803 O 283.992 1.29318 -1.16716 0
M  V30 2804 C 281.124 2.45394 -2.36632 0
M  V30 2805 H 282.317 0.729099 -2.90902 0
M  V30 2806 H 279.87 0.343495 -1.52479 0
M  V30 2807 H 280.605 2.87769 -1.49531 0
M  V30 2808 H 280.39 2.30235 -3.17387 0
M  V30 2809 H 281.88 3.17718 -2.71007 0
M  V30 2810 N 282.317 1.53212 0.369288 0
M  V30 2811 C 283.249 1.75668 1.47219 0
M  V30 2812 C 284.262 0.637387 1.49804 0
M  V30 2813 O 285.451 0.913561 1.5335 0
M  V30 2814 C 282.551 1.81818 2.85999 0
M  V30 2815 C 281.724 3.11409 3.07153 0
M  V30 2816 C 280.783 3.08849 4.26026 0
M  V30 2817 O 279.809 3.82659 4.2138 0
M  V30 2818 N 281.011 2.29409 5.33246 0
M  V30 2819 H 283.776 2.70832 1.28337 0
M  V30 2820 H 281.337 1.51944 0.55898 0
M  V30 2821 H 283.329 1.77588 3.63655 0
M  V30 2822 H 281.899 0.939544 2.98146 0
M  V30 2823 H 281.119 3.28971 2.1719 0
M  V30 2824 H 282.407 3.97059 3.18154 0
M  V30 2825 H 281.805 1.68946 5.39883 0
M  V30 2826 H 280.362 2.31001 6.09493 0
M  V30 2827 N 283.795 -0.628877 1.44509 0
M  V30 2828 C 284.742 -1.74074 1.51549 0
M  V30 2829 C 285.712 -1.62084 0.363021 0
M  V30 2830 O 286.897 -1.81975 0.573567 0
M  V30 2831 C 284.037 -3.12328 1.46784 0
M  V30 2832 C 283.15 -3.35277 2.72422 0
M  V30 2833 C 282.285 -4.63515 2.59475 0
M  V30 2834 C 281.324 -4.7965 3.80266 0
M  V30 2835 N 280.461 -5.99168 3.65981 0
M  V30 2836 H 285.301 -1.67392 2.46544 0
M  V30 2837 H 282.838 -0.816527 1.22357 0
M  V30 2838 H 284.796 -3.92286 1.42012 0
M  V30 2839 H 283.426 -3.18018 0.553544 0
M  V30 2840 H 282.478 -2.49242 2.87372 0
M  V30 2841 H 283.79 -3.43078 3.62076 0
M  V30 2842 H 282.944 -5.51638 2.52548 0
M  V30 2843 H 281.683 -4.58076 1.67384 0
M  V30 2844 H 280.688 -3.89957 3.87574 0
M  V30 2845 H 281.913 -4.86902 4.73395 0
M  V30 2846 H 279.859 -5.94814 2.76644 0
M  V30 2847 H 279.776 -6.08035 4.49254 0
M  V30 2848 H 281.044 -6.89846 3.6295 0
M  V30 2849 N 285.273 -1.31445 -0.869486 0
M  V30 2850 C 286.519 -1.21337 -1.62496 0
M  V30 2851 C 286.852 0.227872 -1.92858 0
M  V30 2852 O 286.127 1.16094 -1.56053 0
M  V30 2853 C 286.41 -2.05814 -2.95487 0
M  V30 2854 C 286.263 -3.5824 -2.72 0
M  V30 2855 C 287.582 -1.9079 -3.96594 0
M  V30 2856 H 284.701 -0.442135 -0.589649 0
M  V30 2857 H 287.343 -1.6124 -1.00507 0
M  V30 2858 H 285.493 -1.71913 -3.48394 0
M  V30 2859 H 287.165 -4.0228 -2.25762 0
M  V30 2860 H 285.408 -3.81647 -2.06224 0
M  V30 2861 H 286.079 -4.12657 -3.66631 0
M  V30 2862 H 288.555 -2.20459 -3.52898 0
M  V30 2863 H 287.431 -2.52199 -4.87531 0
M  V30 2864 H 287.692 -0.871341 -4.33428 0
M  V30 2865 N 286.751 1.08385 -1.14413 0
M  V30 2866 C 287.997 1.81044 -0.913834 0
M  V30 2867 C 288.33 1.86004 0.558209 0
M  V30 2868 O 287.605 1.33606 1.4135 0
M  V30 2869 C 287.888 3.26648 -1.51569 0
M  V30 2870 C 287.741 3.29895 -3.0576 0
M  V30 2871 C 289.06 4.23629 -1.19273 0
M  V30 2872 H 286.179 0.65727 -0.333414 0
M  V30 2873 H 288.821 1.26896 -1.41412 0
M  V30 2874 H 286.971 3.72889 -1.09023 0
M  V30 2875 H 288.643 2.91977 -3.57137 0
M  V30 2876 H 286.886 2.69163 -3.40197 0
M  V30 2877 H 287.557 4.32516 -3.42977 0
M  V30 2878 H 290.033 3.85727 -1.56057 0
M  V30 2879 H 288.909 5.23822 -1.64017 0
M  V30 2880 H 289.17 4.41968 -0.108068 0
M  V30 2881 N 288.23 0.939286 1.26551 0
M  V30 2882 C 289.458 0.602536 1.97932 0
M  V30 2883 C 289.873 -0.82206 1.69964 0
M  V30 2884 O 289.23 -1.54789 0.966784 0
M  V30 2885 C 289.281 0.832946 3.51773 0
M  V30 2886 O 289.002 2.20151 3.78768 0
M  V30 2887 C 290.503 0.506483 4.40397 0
M  V30 2888 H 287.723 0.227248 0.631347 0
M  V30 2889 H 290.267 1.25948 1.61113 0
M  V30 2890 H 288.422 0.222644 3.8676 0
M  V30 2891 H 288.836 2.26013 4.73306 0
M  V30 2892 H 290.31 0.718333 5.47306 0
M  V30 2893 H 290.787 -0.558451 4.35635 0
M  V30 2894 H 291.393 1.09543 4.10951 0
M  V30 2895 N 289.708 -1.40897 0.706093 0
M  V30 2896 C 290.955 -2.01054 0.241531 0
M  V30 2897 C 291.283 -1.55956 -1.16223 0
M  V30 2898 O 290.538 -0.766336 -1.80072 0
M  V30 2899 C 290.837 -3.5646 0.259099 0
M  V30 2900 C 290.503 -4.21106 1.61184 0
M  V30 2901 C 289.165 -4.38479 1.98216 0
M  V30 2902 C 291.517 -4.57256 2.50132 0
M  V30 2903 C 288.845 -4.89282 3.2376 0
M  V30 2904 C 291.197 -5.09454 3.7502 0
M  V30 2905 C 289.861 -5.25037 4.12181 0
M  V30 2906 H 289.131 -0.73571 0.0883825 0
M  V30 2907 H 291.778 -1.68645 0.907257 0
M  V30 2908 H 290.083 -3.88721 -0.490189 0
M  V30 2909 H 291.78 -4.00826 -0.11804 0
M  V30 2910 H 288.37 -4.07966 1.31384 0
M  V30 2911 H 292.554 -4.43479 2.228 0
M  V30 2912 H 287.81 -4.99531 3.52532 0
M  V30 2913 H 291.984 -5.36404 4.44121 0
M  V30 2914 H 289.611 -5.64164 5.09532 0
M  V30 2915 N 291.186 -0.45159 -1.50991 0
M  V30 2916 C 292.426 0.109066 -2.04109 0
M  V30 2917 C 292.79 1.38716 -1.32747 0
M  V30 2918 O 293.991 2.02896 -1.76314 0
M  V30 2919 C 292.262 0.308354 -3.56067 0
M  V30 2920 S 293.821 0.830369 -4.30872 0
M  V30 2921 H 290.639 0.0251531 -0.710555 0
M  V30 2922 H 293.241 -0.614264 -1.85599 0
M  V30 2923 H 291.945 -0.627962 -4.05567 0
M  V30 2924 H 291.476 1.05836 -3.78896 0
M  V30 2925 H 293.491 2.10626 -4.49279 0
M  V30 2926 N 292.664 1.56529 -0.183458 0
M  V30 2927 C 293.941 1.88959 0.50536 0
M  V30 2928 C 294.321 1.09523 1.80466 0
M  V30 2929 O 293.669 0.19278 2.27685 0
M  V30 2930 C 293.879 3.41162 0.73547 0
M  V30 2931 C 295.227 4.11155 1.06005 0
M  V30 2932 O 296.251 3.46548 0.823594 0
M  V30 2933 O 295.11 5.25318 1.50675 0
M  V30 2934 H 292.204 0.78441 0.261973 0
M  V30 2935 H 294.75 1.68231 -0.222802 0
M  V30 2936 H 293.522 3.90874 -0.182561 0
M  V30 2937 H 293.145 3.67543 1.51651 0
M  V30 2938 N 294.142 -0.090211 1.57342 0
M  V30 2939 C 295.372 -0.805055 1.90269 0
M  V30 2940 C 295.78 -1.72561 0.775842 0
M  V30 2941 O 295.123 -1.81839 -0.260843 0
M  V30 2942 C 295.185 -1.66734 3.18497 0
M  V30 2943 C 294.849 -0.918092 4.47683 0
M  V30 2944 C 295.846 -0.245674 5.19319 0
M  V30 2945 C 293.531 -0.890724 4.94339 0
M  V30 2946 C 295.525 0.444088 6.35851 0
M  V30 2947 C 293.212 -0.197179 6.10782 0
M  V30 2948 C 294.21 0.469044 6.81388 0
M  V30 2949 O 293.898 1.15146 7.95611 0
M  V30 2950 H 293.63 -0.235143 0.633785 0
M  V30 2951 H 296.184 -0.0703805 2.05279 0
M  V30 2952 H 294.414 -2.44437 2.99646 0
M  V30 2953 H 296.103 -2.25919 3.37217 0
M  V30 2954 H 296.869 -0.258246 4.84312 0
M  V30 2955 H 292.748 -1.39873 4.39268 0
M  V30 2956 H 296.292 0.964667 6.90898 0
M  V30 2957 H 292.189 -0.18247 6.45242 0
M  V30 2958 H 292.957 1.05885 8.11622 0
M  V30 2959 N 295.62 -1.53406 -0.361157 0
M  V30 2960 C 296.583 -1.79479 -1.42548 0
M  V30 2961 C 297.583 -0.665327 -1.4639 0
M  V30 2962 O 298.773 -0.933549 -1.47073 0
M  V30 2963 C 295.905 -1.92087 -2.8163 0
M  V30 2964 H 297.098 -2.74538 -1.20701 0
M  V30 2965 H 294.651 -1.4455 -0.594546 0
M  V30 2966 H 295.386 -0.991099 -3.08784 0
M  V30 2967 H 295.171 -2.74241 -2.80239 0
M  V30 2968 H 296.661 -2.13836 -3.58697 0
M  V30 2969 N 297.098 0.621204 -1.44841 0
M  V30 2970 C 298.328 1.40548 -1.51426 0
M  V30 2971 C 298.736 1.88673 -0.141083 0
M  V30 2972 O 298.079 1.62053 0.865128 0
M  V30 2973 C 298.141 2.65325 -2.42576 0
M  V30 2974 C 297.805 2.3893 -3.89566 0
M  V30 2975 C 298.802 2.00138 -4.79834 0
M  V30 2976 C 296.487 2.52263 -4.3436 0
M  V30 2977 C 298.481 1.75021 -6.129 0
M  V30 2978 C 296.168 2.2676 -5.67471 0
M  V30 2979 C 297.166 1.88199 -6.56559 0
M  V30 2980 O 296.854 1.62986 -7.87204 0
M  V30 2981 H 296.586 0.437122 -0.515655 0
M  V30 2982 H 299.14 0.765987 -1.90583 0
M  V30 2983 H 297.37 3.31947 -1.98364 0
M  V30 2984 H 299.059 3.27347 -2.39998 0
M  V30 2985 H 299.825 1.89386 -4.46495 0
M  V30 2986 H 295.704 2.81246 -3.65269 0
M  V30 2987 H 299.248 1.44848 -6.82396 0
M  V30 2988 H 295.145 2.37125 -6.00368 0
M  V30 2989 H 295.913 1.7715 -7.991 0
M  V30 2990 N 298.576 1.31904 0.862503 0
M  V30 2991 C 299.524 1.20125 1.9918 0
M  V30 2992 C 300.518 0.107824 1.69056 0
M  V30 2993 O 301.724 0.270223 1.7796 0
M  V30 2994 H 298.099 0.372148 0.65346 0
M  V30 2995 H 300.07 2.15652 2.06244 0
M  V30 2996 C 298.819 0.933099 3.34946 0
M  V30 2997 H 298.142 1.76664 3.5865 0
M  V30 2998 H 299.582 0.890892 4.14535 0
M  V30 2999 C 298.041 -0.364172 3.34926 0
M  V30 3000 O 298.571 -1.37858 3.77304 0
M  V30 3001 N 296.777 -0.383362 2.8806 0
M  V30 3002 H 296.324 0.442651 2.53768 0
M  V30 3003 H 296.282 -1.25123 2.8843 0
M  V30 3004 N 300.054 -1.07777 1.14986 0
M  V30 3005 C 301.282 -1.84018 0.945773 0
M  V30 3006 C 301.697 -1.81897 -0.505863 0
M  V30 3007 O 301.054 -1.22726 -1.35072 0
M  V30 3008 C 301.105 -3.31287 1.44677 0
M  V30 3009 O 300.826 -3.33449 2.84154 0
M  V30 3010 C 302.327 -4.24311 1.28355 0
M  V30 3011 H 299.547 -0.580716 0.336169 0
M  V30 3012 H 302.091 -1.36077 1.52654 0
M  V30 3013 H 300.246 -3.76594 0.908625 0
M  V30 3014 H 300.66 -4.25427 3.06777 0
M  V30 3015 H 302.134 -5.2573 1.68261 0
M  V30 3016 H 302.611 -4.38612 0.227184 0
M  V30 3017 H 303.217 -3.84836 1.81056 0
M  V30 3018 N 301.532 -0.945985 -1.26051 0
M  V30 3019 C 302.779 -0.596118 -1.93527 0
M  V30 3020 C 303.107 0.865559 -1.74179 0
M  V30 3021 O 302.362 1.63524 -1.0751 0
M  V30 3022 C 302.661 -0.890475 -3.46129 0
M  V30 3023 C 302.327 -2.3368 -3.85622 0
M  V30 3024 C 300.989 -2.73216 -3.96114 0
M  V30 3025 C 303.341 -3.27648 -4.05334 0
M  V30 3026 C 300.669 -4.05806 -4.2372 0
M  V30 3027 C 303.021 -4.59841 -4.3443 0
M  V30 3028 C 301.685 -4.99185 -4.43137 0
M  V30 3029 H 300.955 -0.218135 -0.708165 0
M  V30 3030 H 303.602 -1.1934 -1.49768 0
M  V30 3031 H 301.907 -0.210711 -3.91233 0
M  V30 3032 H 303.604 -0.598478 -3.96509 0
M  V30 3033 H 300.194 -2.02015 -3.78005 0
M  V30 3034 H 304.378 -2.98298 -3.96651 0
M  V30 3035 H 299.634 -4.35945 -4.28675 0
M  V30 3036 H 303.808 -5.32641 -4.48628 0
M  V30 3037 H 301.435 -6.01952 -4.64282 0
M  V30 3038 N 303.011 1.40521 -0.713556 0
M  V30 3039 C 303.943 2.29191 -0.0203126 0
M  V30 3040 C 304.956 1.45723 0.725864 0
M  V30 3041 O 306.145 1.69033 0.573581 0
M  V30 3042 C 303.245 3.2395 0.995486 0
M  V30 3043 C 302.418 4.36262 0.315256 0
M  V30 3044 C 301.477 5.11474 1.23616 0
M  V30 3045 O 300.503 5.64606 0.721719 0
M  V30 3046 N 301.705 5.20638 2.56743 0
M  V30 3047 H 304.47 2.89327 -0.781652 0
M  V30 3048 H 302.031 1.51869 -0.561022 0
M  V30 3049 H 304.023 3.71137 1.61368 0
M  V30 3050 H 302.593 2.64995 1.6582 0
M  V30 3051 H 301.813 3.91228 -0.483106 0
M  V30 3052 H 303.101 5.08558 -0.157004 0
M  V30 3053 H 302.499 4.7895 3.01037 0
M  V30 3054 H 301.056 5.71339 3.13712 0
M  V30 3055 N 304.489 0.459591 1.5075 0
M  V30 3056 C 305.735 -0.0994966 2.02556 0
M  V30 3057 C 306.068 -1.40399 1.3417 0
M  V30 3058 O 305.343 -1.88892 0.463683 0
M  V30 3059 C 305.626 -0.295242 3.58888 0
M  V30 3060 C 305.479 1.02947 4.37861 0
M  V30 3061 C 306.798 -1.05502 4.27267 0
M  V30 3062 H 303.917 -0.034686 0.736183 0
M  V30 3063 H 306.559 0.602938 1.8018 0
M  V30 3064 H 304.709 -0.893563 3.78084 0
M  V30 3065 H 306.381 1.66348 4.30263 0
M  V30 3066 H 304.624 1.62885 4.02058 0
M  V30 3067 H 305.295 0.846281 5.45474 0
M  V30 3068 H 307.771 -0.547993 4.12476 0
M  V30 3069 H 306.647 -1.16077 5.36486 0
M  V30 3070 H 306.908 -2.08875 3.89645 0
M  V30 3071 N 305.967 -1.56429 0.191757 0
M  V30 3072 C 307.195 -2.01867 -0.453586 0
M  V30 3073 C 307.61 -1.07191 -1.5542 0
M  V30 3074 O 306.967 -0.0762108 -1.82341 0
M  V30 3075 C 307.018 -3.47017 -1.013 0
M  V30 3076 O 306.739 -4.38078 0.0437005 0
M  V30 3077 C 308.24 -4.07956 -1.73456 0
M  V30 3078 H 305.46 -0.661211 -0.114199 0
M  V30 3079 H 308.004 -2.02295 0.299483 0
M  V30 3080 H 306.159 -3.47298 -1.71647 0
M  V30 3081 H 306.573 -5.23178 -0.372212 0
M  V30 3082 H 308.047 -5.1138 -2.07833 0
M  V30 3083 H 308.524 -3.51222 -2.63704 0
M  V30 3084 H 309.13 -4.11437 -1.07702 0
M  V30 3085 N 307.445 0.0818655 -1.57387 0
M  V30 3086 C 308.673 0.796108 -1.9097 0
M  V30 3087 C 309.088 1.71626 -0.786757 0
M  V30 3088 O 308.445 1.80908 0.240513 0
M  V30 3089 C 308.496 1.59829 -3.24248 0
M  V30 3090 O 308.217 0.715131 -4.32224 0
M  V30 3091 C 309.718 2.41442 -3.7178 0
M  V30 3092 H 306.938 0.22691 -0.631469 0
M  V30 3093 H 309.482 0.0551439 -2.04426 0
M  V30 3094 H 307.637 2.29163 -3.12351 0
M  V30 3095 H 308.051 1.27205 -5.08841 0
M  V30 3096 H 309.525 2.932 -4.67694 0
M  V30 3097 H 310.002 3.2051 -3.00283 0
M  V30 3098 H 310.608 1.77283 -3.86589 0
M  V30 3099 N 308.923 1.53595 0.353017 0
M  V30 3100 C 310.171 1.70049 1.09215 0
M  V30 3101 C 310.492 0.461406 1.89463 0
M  V30 3102 O 309.762 -0.524633 1.88744 0
M  V30 3103 H 308.342 0.626912 0.40619 0
M  V30 3104 H 311.004 1.90822 0.396585 0
M  V30 3105 H 310.1 2.56718 1.77488 0
M  V30 3106 N 310.401 -0.613514 1.45168 0
M  V30 3107 C 311.649 -1.36997 1.48581 0
M  V30 3108 C 311.97 -1.94589 0.126545 0
M  V30 3109 O 311.24 -1.76816 -0.843372 0
M  V30 3110 H 309.82 -0.508558 0.547154 0
M  V30 3111 H 312.482 -0.720853 1.81079 0
M  V30 3112 H 311.578 -2.1924 2.22127 0
M  V30 3113 N 311.879 -1.3236 -0.855495 0
M  V30 3114 C 312.812 -1.15559 -1.96777 0
M  V30 3115 C 313.79 -0.0552681 -1.62506 0
M  V30 3116 O 314.974 -0.214419 -1.87277 0
M  V30 3117 C 312.101 -0.768851 -3.29858 0
M  V30 3118 C 311.147 -1.87429 -3.83109 0
M  V30 3119 S 311.98 -3.48243 -4.06801 0
M  V30 3120 C 313.136 -3.11539 -5.42858 0
M  V30 3121 H 313.369 -2.09717 -2.10727 0
M  V30 3122 H 310.902 -1.17011 -1.00737 0
M  V30 3123 H 312.86 -0.55248 -4.06765 0
M  V30 3124 H 311.521 0.153857 -3.13723 0
M  V30 3125 H 310.714 -1.55667 -4.79358 0
M  V30 3126 H 310.316 -2.04647 -3.13042 0
M  V30 3127 H 312.608 -2.61331 -6.2507 0
M  V30 3128 H 313.551 -4.06806 -5.79582 0
M  V30 3129 H 313.959 -2.48582 -5.06821 0
M  V30 3130 N 313.357 1.07166 -1.15556 0
M  V30 3131 C 314.603 1.80065 -0.932984 0
M  V30 3132 C 314.936 1.86586 0.53845 0
M  V30 3133 O 314.211 1.35098 1.39924 0
M  V30 3134 C 314.494 3.25022 -1.55025 0
M  V30 3135 C 314.347 3.26634 -3.09242 0
M  V30 3136 C 315.666 4.22341 -1.2376 0
M  V30 3137 H 312.785 0.653697 -0.340366 0
M  V30 3138 H 315.427 1.25389 -1.4275 0
M  V30 3139 H 313.577 3.71712 -1.12972 0
M  V30 3140 H 315.249 2.88173 -3.60214 0
M  V30 3141 H 313.492 2.65539 -3.43033 0
M  V30 3142 H 314.163 4.28854 -3.47546 0
M  V30 3143 H 316.639 3.8405 -1.60139 0
M  V30 3144 H 315.515 5.22053 -1.69564 0
M  V30 3145 H 315.776 4.41828 -0.154938 0
M  V30 3146 N 314.835 0.952656 1.25548 0
M  V30 3147 C 315.765 0.489287 2.28316 0
M  V30 3148 C 316.746 -0.463359 1.63667 0
M  V30 3149 O 317.931 -0.36274 1.90782 0
M  V30 3150 C 315.061 -0.235603 3.465 0
M  V30 3151 C 314.015 0.631593 4.23314 0
M  V30 3152 C 313.341 -0.223923 5.34231 0
M  V30 3153 C 314.641 1.90871 4.86174 0
M  V30 3154 H 316.335 1.34822 2.67326 0
M  V30 3155 H 313.881 0.649728 1.28509 0
M  V30 3156 H 315.834 -0.570882 4.17515 0
M  V30 3157 H 314.558 -1.12877 3.06474 0
M  V30 3158 H 313.217 0.949929 3.54079 0
M  V30 3159 H 312.865 -1.11678 4.90446 0
M  V30 3160 H 312.565 0.35299 5.86539 0
M  V30 3161 H 314.089 -0.554214 6.0808 0
M  V30 3162 H 315.503 1.63997 5.49343 0
M  V30 3163 H 313.9 2.43112 5.4865 0
M  V30 3164 H 314.97 2.61304 4.08471 0
M  V30 3165 N 316.313 -1.40141 0.720998 0
M  V30 3166 C 317.26 -2.30688 0.071919 0
M  V30 3167 C 318.23 -1.48476 -0.744584 0
M  V30 3168 O 319.415 -1.77201 -0.707423 0
M  V30 3169 C 316.555 -3.34724 -0.839855 0
M  V30 3170 C 315.668 -4.31998 -0.0122438 0
M  V30 3171 C 314.803 -5.23102 -0.923995 0
M  V30 3172 C 313.842 -6.12033 -0.0907969 0
M  V30 3173 N 312.979 -6.95537 -0.957718 0
M  V30 3174 H 317.819 -2.85628 0.849755 0
M  V30 3175 H 315.356 -1.40653 0.430726 0
M  V30 3176 H 317.314 -3.93618 -1.38279 0
M  V30 3177 H 315.944 -2.81274 -1.58381 0
M  V30 3178 H 314.996 -3.74841 0.64794 0
M  V30 3179 H 316.308 -4.94772 0.632595 0
M  V30 3180 H 315.462 -5.86953 -1.53527 0
M  V30 3181 H 314.201 -4.60615 -1.60264 0
M  V30 3182 H 313.206 -5.47207 0.533377 0
M  V30 3183 H 314.431 -6.76581 0.584428 0
M  V30 3184 H 312.377 -6.35633 -1.62192 0
M  V30 3185 H 312.294 -7.55099 -0.36904 0
M  V30 3186 H 313.562 -7.63832 -1.555 0
M  V30 3187 N 317.792 -0.46758 -1.50504 0
M  V30 3188 C 318.722 0.318381 -2.31319 0
M  V30 3189 C 319.703 0.993564 -1.38066 0
M  V30 3190 O 320.888 0.991411 -1.66987 0
M  V30 3191 C 318.018 1.40275 -3.17711 0
M  V30 3192 C 316.972 0.849373 -4.19487 0
M  V30 3193 C 316.298 2.03177 -4.94594 0
M  V30 3194 C 317.598 -0.136942 -5.2212 0
M  V30 3195 H 319.292 -0.356106 -2.97275 0
M  V30 3196 H 316.838 -0.172703 -1.42961 0
M  V30 3197 H 318.791 1.96004 -3.73042 0
M  V30 3198 H 317.515 2.10596 -2.49634 0
M  V30 3199 H 316.174 0.314076 -3.65252 0
M  V30 3200 H 315.822 2.72187 -4.22993 0
M  V30 3201 H 315.522 1.66774 -5.63436 0
M  V30 3202 H 317.046 2.59403 -5.52759 0
M  V30 3203 H 318.46 0.331056 -5.72343 0
M  V30 3204 H 316.857 -0.41507 -5.98663 0
M  V30 3205 H 317.927 -1.06398 -4.73083 0
M  V30 3206 N 319.27 1.56325 -0.20005 0
M  V30 3207 C 320.18 2.22931 0.730668 0
M  V30 3208 C 321.196 1.22997 1.23076 0
M  V30 3209 O 322.372 1.55748 1.27689 0
M  V30 3210 C 319.437 2.87948 1.93098 0
M  V30 3211 C 318.498 4.03166 1.47497 0
M  V30 3212 C 317.731 4.65073 2.61807 0
M  V30 3213 O 317.954 4.25913 3.79413 0
M  V30 3214 O 316.888 5.54452 2.34237 0
M  V30 3215 H 320.714 3.03084 0.193391 0
M  V30 3216 H 318.299 1.49371 0.0294621 0
M  V30 3217 H 320.181 3.29063 2.6324 0
M  V30 3218 H 318.856 2.10771 2.45677 0
M  V30 3219 H 317.763 3.66664 0.742201 0
M  V30 3220 H 319.096 4.82022 0.995796 0
M  V30 3221 N 320.748 -0.0735177 1.57428 0
M  V30 3222 C 321.68 -1.11423 2.00294 0
M  V30 3223 C 322.693 -1.35084 0.908637 0
M  V30 3224 O 323.882 -1.33355 1.18654 0
M  V30 3225 C 320.982 -2.46548 2.32523 0
M  V30 3226 C 320.155 -2.42867 3.63778 0
M  V30 3227 C 319.214 -3.60087 3.83697 0
M  V30 3228 O 318.24 -3.41595 4.55304 0
M  V30 3229 N 319.442 -4.80372 3.25919 0
M  V30 3230 H 322.207 -0.749206 2.90184 0
M  V30 3231 H 319.768 -0.262195 1.59763 0
M  V30 3232 H 321.76 -3.23607 2.43024 0
M  V30 3233 H 320.33 -2.75059 1.48531 0
M  V30 3234 H 319.55 -1.51206 3.64047 0
M  V30 3235 H 320.838 -2.37506 4.49965 0
M  V30 3236 H 320.236 -4.983 2.67795 0
M  V30 3237 H 318.793 -5.54948 3.41871 0
M  V30 3238 N 322.226 -1.5378 -0.344866 0
M  V30 3239 C 323.474 -1.70625 -1.08311 0
M  V30 3240 C 323.795 -0.471447 -1.89215 0
M  V30 3241 O 323.065 0.514616 -1.8902 0
M  V30 3242 H 321.645 -0.629058 -0.402859 0
M  V30 3243 H 324.307 -1.9103 -0.386459 0
M  V30 3244 H 323.403 -2.57656 -1.76124 0
M  V30 3245 N 323.704 0.605807 -1.45491 0
M  V30 3246 C 324.614 1.74466 -1.56839 0
M  V30 3247 C 325.63 1.68006 -0.452772 0
M  V30 3248 O 326.806 1.8833 -0.713708 0
M  V30 3249 C 323.871 3.10931 -1.53371 0
M  V30 3250 C 322.932 3.28832 -2.75986 0
M  V30 3251 C 322.165 4.58787 -2.72673 0
M  V30 3252 O 322.388 5.4122 -1.80102 0
M  V30 3253 O 321.322 4.79438 -3.63899 0
M  V30 3254 H 325.148 1.67843 -2.53106 0
M  V30 3255 H 322.733 0.770108 -1.28022 0
M  V30 3256 H 324.615 3.92233 -1.54051 0
M  V30 3257 H 323.29 3.18042 -0.602572 0
M  V30 3258 H 322.197 2.47112 -2.80867 0
M  V30 3259 H 323.53 3.26599 -3.68231 0
M  V30 3260 N 325.182 1.32811 0.848464 0
M  V30 3261 C 326.13 1.22231 1.97895 0
M  V30 3262 C 327.124 0.125749 1.68933 0
M  V30 3263 O 328.33 0.289083 1.77663 0
M  V30 3264 H 324.705 0.379058 0.649476 0
M  V30 3265 H 326.676 2.17828 2.03945 0
M  V30 3266 C 325.425 0.968572 3.33937 0
M  V30 3267 H 324.748 1.80458 3.56756 0
M  V30 3268 H 326.188 0.934808 4.13567 0
M  V30 3269 C 324.647 -0.328628 3.35293 0
M  V30 3270 O 325.177 -1.33848 3.78745 0
M  V30 3271 N 323.383 -0.352788 2.88451 0
M  V30 3272 H 322.93 0.469541 2.53285 0
M  V30 3273 H 322.888 -1.22057 2.89741 0
M  V30 3274 N 326.66 -1.06551 1.16123 0
M  V30 3275 C 327.906 -1.79567 0.94252 0
M  V30 3276 C 328.239 -1.86869 -0.528547 0
M  V30 3277 O 327.514 -1.35838 -1.39206 0
M  V30 3278 C 327.797 -3.24195 1.56747 0
M  V30 3279 C 327.65 -3.24989 3.10969 0
M  V30 3280 C 328.969 -4.21678 1.25998 0
M  V30 3281 H 326.088 -0.651883 0.343828 0
M  V30 3282 H 328.73 -1.2463 1.43413 0
M  V30 3283 H 326.88 -3.71107 1.14942 0
M  V30 3284 H 328.552 -2.86258 3.61737 0
M  V30 3285 H 326.795 -2.63716 3.44436 0
M  V30 3286 H 327.466 -4.27005 3.49815 0
M  V30 3287 H 329.942 -3.83196 1.62174 0
M  V30 3288 H 328.818 -5.21146 1.7233 0
M  V30 3289 H 329.079 -4.4174 0.178367 0
M  V30 3290 N 328.138 -0.959301 -1.25041 0
M  V30 3291 C 329.385 -0.616611 -1.92884 0
M  V30 3292 C 329.713 0.847036 -1.75087 0
M  V30 3293 O 328.968 1.62374 -1.09239 0
M  V30 3294 C 329.267 -0.927136 -3.45165 0
M  V30 3295 C 328.933 -2.37757 -3.83122 0
M  V30 3296 C 327.595 -2.77402 -3.93194 0
M  V30 3297 C 329.947 -3.31929 -4.01836 0
M  V30 3298 C 327.275 -4.10277 -4.19392 0
M  V30 3299 C 329.627 -4.64423 -4.29528 0
M  V30 3300 C 328.291 -5.03857 -4.37818 0
M  V30 3301 H 327.561 -0.225634 -0.705812 0
M  V30 3302 H 330.208 -1.20921 -1.48493 0
M  V30 3303 H 328.513 -0.252195 -3.90987 0
M  V30 3304 H 330.21 -0.6405 -3.95852 0
M  V30 3305 H 326.8 -2.06013 -3.75841 0
M  V30 3306 H 330.984 -3.02488 -3.93465 0
M  V30 3307 H 326.24 -4.40467 -4.24027 0
M  V30 3308 H 330.414 -5.37369 -4.42953 0
M  V30 3309 H 328.041 -6.06843 -4.57871 0
M  V30 3310 N 329.616 1.39756 -0.72842 0
M  V30 3311 C 330.546 2.33289 -0.0991354 0
M  V30 3312 C 331.527 1.53568 0.731489 0
M  V30 3313 O 332.712 1.81987 0.677807 0
M  V30 3314 C 329.842 3.3763 0.813834 0
M  V30 3315 C 328.796 4.2791 0.0878663 0
M  V30 3316 C 328.122 5.22894 1.11741 0
M  V30 3317 C 329.422 5.11314 -1.06563 0
M  V30 3318 H 331.116 2.86163 -0.880408 0
M  V30 3319 H 328.662 1.37591 -0.424819 0
M  V30 3320 H 330.615 4.0201 1.26355 0
M  V30 3321 H 329.339 2.83181 1.62715 0
M  V30 3322 H 327.998 3.65 -0.342159 0
M  V30 3323 H 327.646 4.64744 1.92412 0
M  V30 3324 H 327.346 5.84143 0.636477 0
M  V30 3325 H 328.87 5.90151 1.56697 0
M  V30 3326 H 330.284 5.69076 -0.694671 0
M  V30 3327 H 328.681 5.81671 -1.47577 0
M  V30 3328 H 329.751 4.46534 -1.89038 0
M  V30 3329 N 331.094 0.475555 1.50254 0
M  V30 3330 C 332.026 -0.352649 2.26471 0
M  V30 3331 C 333.039 -0.953165 1.3198 0
M  V30 3332 O 334.228 -0.840815 1.57457 0
M  V30 3333 C 331.328 -1.50902 3.0345 0
M  V30 3334 C 330.501 -1.02047 4.25329 0
M  V30 3335 C 329.56 -2.05142 4.84565 0
M  V30 3336 O 328.586 -1.63023 5.45355 0
M  V30 3337 N 329.788 -3.37987 4.71959 0
M  V30 3338 H 332.553 0.300767 2.98187 0
M  V30 3339 H 330.114 0.306598 1.5897 0
M  V30 3340 H 332.106 -2.19572 3.39956 0
M  V30 3341 H 330.676 -2.06705 2.34504 0
M  V30 3342 H 329.896 -0.159507 3.93877 0
M  V30 3343 H 331.184 -0.672061 5.04342 0
M  V30 3344 H 330.582 -3.74913 4.23623 0
M  V30 3345 H 329.139 -4.02443 5.12721 0
M  V30 3346 N 332.573 -1.56217 0.208337 0
M  V30 3347 C 333.536 -2.18455 -0.693557 0
M  V30 3348 C 334.536 -1.14268 -1.13135 0
M  V30 3349 O 335.726 -1.39577 -1.0423 0
M  V30 3350 C 332.858 -2.79727 -1.94848 0
M  V30 3351 H 334.051 -2.99519 -0.15114 0
M  V30 3352 H 331.604 -1.56245 -0.041287 0
M  V30 3353 H 332.339 -2.02497 -2.53309 0
M  V30 3354 H 332.124 -3.56009 -1.64316 0
M  V30 3355 H 333.614 -3.27475 -2.59133 0
M  V30 3356 N 334.051 0.0651679 -1.57465 0
M  V30 3357 C 335.279 0.775808 -1.91804 0
M  V30 3358 C 335.694 1.70782 -0.804916 0
M  V30 3359 O 335.051 1.81153 0.221311 0
M  V30 3360 C 335.102 1.56381 -3.25925 0
M  V30 3361 O 334.823 0.669248 -4.32958 0
M  V30 3362 C 336.324 2.37485 -3.7432 0
M  V30 3363 H 333.544 0.2202 -0.63384 0
M  V30 3364 H 336.088 0.0334587 -2.04473 0
M  V30 3365 H 334.243 2.25837 -3.14764 0
M  V30 3366 H 334.657 1.21801 -5.10162 0
M  V30 3367 H 336.131 2.88223 -4.70778 0
M  V30 3368 H 336.608 3.17307 -3.03666 0
M  V30 3369 H 337.214 1.73173 -3.88447 0
M  V30 3370 N 335.529 1.53961 0.336706 0
M  V30 3371 C 336.806 1.62171 1.09361 0
M  V30 3372 C 337.186 0.447263 2.06307 0
M  V30 3373 O 336.534 -0.559802 2.21537 0
M  V30 3374 C 336.744 2.98565 1.80721 0
M  V30 3375 C 338.092 3.54157 2.34218 0
M  V30 3376 O 339.116 3.00784 1.90807 0
M  V30 3377 O 337.975 4.47528 3.13657 0
M  V30 3378 H 335.069 0.6562 0.503319 0
M  V30 3379 H 337.615 1.66307 0.33765 0
M  V30 3380 H 336.387 3.75482 1.10132 0
M  V30 3381 H 336.01 2.9805 2.63158 0
M  V30 3382 N 337.007 -0.598083 1.45811 0
M  V30 3383 C 337.954 -1.7082 1.55207 0
M  V30 3384 C 338.924 -1.61278 0.39732 0
M  V30 3385 O 340.109 -1.80717 0.612038 0
M  V30 3386 C 337.249 -3.09144 1.53376 0
M  V30 3387 C 336.362 -3.29423 2.79472 0
M  V30 3388 C 335.497 -4.57907 2.69248 0
M  V30 3389 C 334.536 -4.71476 3.90354 0
M  V30 3390 N 333.673 -5.9127 3.78608 0
M  V30 3391 H 338.513 -1.62125 2.50039 0
M  V30 3392 H 336.05 -0.790389 1.24062 0
M  V30 3393 H 338.008 -3.89186 1.50301 0
M  V30 3394 H 336.638 -3.16773 0.620876 0
M  V30 3395 H 335.69 -2.43091 2.92594 0
M  V30 3396 H 337.002 -3.3532 3.69272 0
M  V30 3397 H 336.156 -5.46157 2.64192 0
M  V30 3398 H 334.895 -4.54423 1.77063 0
M  V30 3399 H 333.9 -3.81648 3.95759 0
M  V30 3400 H 335.125 -4.76751 4.83617 0
M  V30 3401 H 333.071 -5.88813 2.89199 0
M  V30 3402 H 332.988 -5.98369 4.6205 0
M  V30 3403 H 334.256 -6.81992 3.77501 0
M  V30 3404 N 338.485 -1.33259 -0.841409 0
M  V30 3405 C 339.433 -1.23279 -1.97244 0
M  V30 3406 C 340.427 -0.134706 -1.68864 0
M  V30 3407 O 341.633 -0.298501 -1.77508 0
M  V30 3408 H 338.008 -0.382497 -0.647457 0
M  V30 3409 H 339.979 -2.18906 -2.02787 0
M  V30 3410 C 338.728 -0.986268 -3.33419 0
M  V30 3411 H 338.051 -1.82347 -3.55794 0
M  V30 3412 H 339.491 -0.956728 -4.13065 0
M  V30 3413 C 337.95 0.310842 -3.35463 0
M  V30 3414 O 338.48 1.31838 -3.79449 0
M  V30 3415 N 336.686 0.337485 -2.88634 0
M  V30 3416 H 336.233 -0.482967 -2.53032 0
M  V30 3417 H 336.191 1.20518 -2.90384 0
M  V30 3418 N 339.963 1.05934 -1.16686 0
M  V30 3419 C 341.188 1.83029 -0.975455 0
M  V30 3420 C 341.613 1.82096 0.471452 0
M  V30 3421 O 340.971 1.22443 1.33706 0
M  V30 3422 C 341.019 3.27372 -1.51195 0
M  V30 3423 O 340.123 4.06054 -0.720701 0
M  V30 3424 H 339.464 0.566194 -0.346872 0
M  V30 3425 H 341.994 1.33541 -1.55009 0
M  V30 3426 H 342.004 3.78186 -1.53099 0
M  V30 3427 H 340.679 3.27366 -2.56523 0
M  V30 3428 H 339.256 3.64812 -0.772458 0
M  V30 3429 N 341.441 0.965919 1.2453 0
M  V30 3430 C 342.371 0.513476 2.27784 0
M  V30 3431 C 343.352 -0.445974 1.6415 0
M  V30 3432 O 344.537 -0.342485 1.91156 0
M  V30 3433 C 341.667 -0.198839 3.4673 0
M  V30 3434 C 340.621 0.676456 4.2262 0
M  V30 3435 C 339.947 -0.167248 5.34438 0
M  V30 3436 C 341.247 1.96017 4.84123 0
M  V30 3437 H 342.941 1.3765 2.65881 0
M  V30 3438 H 340.487 0.663321 1.27813 0
M  V30 3439 H 342.44 -0.526567 4.18097 0
M  V30 3440 H 341.164 -1.0962 3.07654 0
M  V30 3441 H 339.823 0.98743 3.53052 0
M  V30 3442 H 339.471 -1.0647 4.91603 0
M  V30 3443 H 339.171 0.415181 5.86131 0
M  V30 3444 H 340.695 -0.489688 6.08633 0
M  V30 3445 H 342.109 1.69814 5.47573 0
M  V30 3446 H 340.506 2.48918 5.4604 0
M  V30 3447 H 341.576 2.65622 4.05676 0
M  V30 3448 N 342.919 -1.39368 0.735821 0
M  V30 3449 C 343.849 -2.33234 0.111506 0
M  V30 3450 C 344.83 -1.53954 -0.723334 0
M  V30 3451 O 346.015 -1.82344 -0.668147 0
M  V30 3452 C 343.145 -3.38057 -0.795917 0
M  V30 3453 C 342.099 -4.2795 -0.065172 0
M  V30 3454 C 341.425 -5.23479 -1.08967 0
M  V30 3455 C 342.725 -5.10741 1.09273 0
M  V30 3456 H 344.419 -2.85692 0.895571 0
M  V30 3457 H 341.965 -1.37364 0.432109 0
M  V30 3458 H 343.918 -4.02675 -1.24221 0
M  V30 3459 H 342.642 -2.8404 -1.61211 0
M  V30 3460 H 341.301 -3.64813 0.361511 0
M  V30 3461 H 340.949 -4.65758 -1.89944 0
M  V30 3462 H 340.649 -5.84472 -0.605489 0
M  V30 3463 H 342.173 -5.90974 -1.53565 0
M  V30 3464 H 343.587 -5.68699 0.724841 0
M  V30 3465 H 341.984 -5.8088 1.50659 0
M  V30 3466 H 343.054 -4.45525 1.91404 0
M  V30 3467 N 344.397 -0.483516 -1.5 0
M  V30 3468 C 345.645 0.067027 -2.01989 0
M  V30 3469 C 345.966 1.3909 -1.36671 0
M  V30 3470 O 345.236 1.88978 -0.516152 0
M  V30 3471 H 343.816 0.0277606 -0.746484 0
M  V30 3472 H 346.478 -0.636773 -1.84204 0
M  V30 3473 H 345.574 0.209484 -3.11396 0
M  V30 3474 N 345.875 1.56104 -0.216619 0
M  V30 3475 C 346.808 2.16026 0.735395 0
M  V30 3476 C 347.786 1.1032 1.1945 0
M  V30 3477 O 348.97 1.38549 1.27814 0
M  V30 3478 C 346.097 2.73656 1.99575 0
M  V30 3479 C 345.143 3.92146 1.67702 0
M  V30 3480 S 345.976 5.29397 0.806145 0
M  V30 3481 C 347.132 5.90463 2.07617 0
M  V30 3482 H 347.365 2.96439 0.226072 0
M  V30 3483 H 344.898 1.544 -0.00136639 0
M  V30 3484 H 346.856 3.075 2.71945 0
M  V30 3485 H 345.517 1.93245 2.47619 0
M  V30 3486 H 344.71 4.30954 2.61332 0
M  V30 3487 H 344.312 3.59423 1.03398 0
M  V30 3488 H 346.604 6.06136 3.02664 0
M  V30 3489 H 347.547 6.86589 1.73207 0
M  V30 3490 H 347.955 5.19252 2.21445 0
M  V30 3491 N 347.353 -0.0568162 1.57498 0
M  V30 3492 C 348.263 -1.08346 2.08083 0
M  V30 3493 C 349.279 -1.41439 1.01346 0
M  V30 3494 O 350.455 -1.51316 1.32912 0
M  V30 3495 C 347.52 -2.37352 2.52715 0
M  V30 3496 C 346.581 -2.11093 3.73816 0
M  V30 3497 C 345.814 -3.33949 4.1631 0
M  V30 3498 O 346.037 -4.43622 3.58547 0
M  V30 3499 O 344.971 -3.21279 5.08983 0
M  V30 3500 H 348.797 -0.683667 2.95905 0
M  V30 3501 H 346.382 -0.271965 1.46904 0
M  V30 3502 H 348.264 -3.13246 2.81877 0
M  V30 3503 H 346.939 -2.76681 1.68016 0
M  V30 3504 H 345.846 -1.32856 3.49714 0
M  V30 3505 H 347.179 -1.76637 4.59413 0
M  V30 3506 N 348.832 -1.54138 -0.328536 0
M  V30 3507 C 350.08 -1.71765 -1.06496 0
M  V30 3508 C 350.401 -0.49149 -1.88704 0
M  V30 3509 O 349.671 0.494539 -1.89555 0
M  V30 3510 H 348.251 -0.633295 -0.396164 0
M  V30 3511 H 350.913 -1.91429 -0.366176 0
M  V30 3512 H 350.009 -2.5951 -1.73381 0
M  V30 3513 N 350.31 0.590341 -1.46126 0
M  V30 3514 C 351.273 1.68194 -1.55703 0
M  V30 3515 C 352.273 1.54808 -0.434868 0
M  V30 3516 O 353.463 1.59564 -0.698928 0
M  V30 3517 C 350.595 3.07575 -1.47005 0
M  V30 3518 H 351.788 1.61064 -2.52979 0
M  V30 3519 H 349.341 0.807541 -1.33823 0
M  V30 3520 H 350.076 3.20268 -0.509785 0
M  V30 3521 H 349.861 3.187 -2.28414 0
M  V30 3522 H 351.351 3.87055 -1.56776 0
M  V30 3523 N 351.788 1.33704 0.83433 0
M  V30 3524 C 352.736 1.24323 1.96587 0
M  V30 3525 C 353.73 0.143659 1.6879 0
M  V30 3526 O 354.936 0.30791 1.77347 0
M  V30 3527 H 351.311 0.385925 0.645419 0
M  V30 3528 H 353.282 2.19978 2.01624 0
M  V30 3529 C 352.031 1.00394 3.32891 0
M  V30 3530 H 351.354 1.84231 3.54822 0
M  V30 3531 H 352.794 0.97862 4.12552 0
M  V30 3532 C 351.253 -0.293047 3.35623 0
M  V30 3533 O 351.783 -1.29823 3.80143 0
M  V30 3534 N 349.989 -0.322174 2.88809 0
M  V30 3535 H 349.536 0.496379 2.52772 0
M  V30 3536 H 349.494 -1.18977 2.91019 0
M  V30 3537 N 353.266 -1.05314 1.17247 0
M  V30 3538 C 354.491 -1.82509 0.985148 0
M  V30 3539 C 354.916 -1.82343 -0.461788 0
M  V30 3540 O 354.274 -1.23151 -1.33055 0
M  V30 3541 C 354.322 -3.26566 1.52929 0
M  V30 3542 O 353.426 -4.05666 0.742225 0
M  V30 3543 H 352.767 -0.564347 0.349869 0
M  V30 3544 H 355.297 -1.32718 1.55715 0
M  V30 3545 H 355.307 -3.77369 1.55103 0
M  V30 3546 H 353.982 -3.26001 2.58256 0
M  V30 3547 H 352.559 -3.64397 0.791794 0
M  V30 3548 N 354.744 -0.972509 -1.24016 0
M  V30 3549 C 355.993 -0.632603 -1.91523 0
M  V30 3550 C 356.306 0.836641 -1.76804 0
M  V30 3551 O 357.512 1.28728 -2.39043 0
M  V30 3552 C 355.968 -1.08082 -3.43287 0
M  V30 3553 C 355.576 -2.57386 -3.66683 0
M  V30 3554 C 357.32 -0.814288 -4.16617 0
M  V30 3555 C 355.227 -2.95915 -5.12043 0
M  V30 3556 H 354.157 -0.232898 -0.717129 0
M  V30 3557 H 356.808 -1.17936 -1.40582 0
M  V30 3558 H 355.19 -0.462339 -3.93292 0
M  V30 3559 H 356.364 -3.24405 -3.27258 0
M  V30 3560 H 354.679 -2.81701 -3.06649 0
M  V30 3561 H 357.276 -1.0781 -5.23718 0
M  V30 3562 H 357.619 0.24955 -4.15551 0
M  V30 3563 H 358.152 -1.39397 -3.72577 0
M  V30 3564 H 354.891 -4.0139 -5.18234 0
M  V30 3565 H 354.411 -2.33584 -5.52448 0
M  V30 3566 H 356.09 -2.86086 -5.80314 0
M  V30 3567 N 356.222 1.38976 -0.743202 0
M  V30 3568 C 357.469 2.00343 -0.294752 0
M  V30 3569 C 357.797 1.58983 1.12047 0
M  V30 3570 O 357.052 0.813809 1.77977 0
M  V30 3571 C 357.351 3.55647 -0.353517 0
M  V30 3572 C 357.017 4.16685 -1.72292 0
M  V30 3573 C 355.679 4.3307 -2.09771 0
M  V30 3574 C 358.031 4.50464 -2.62168 0
M  V30 3575 C 355.359 4.80526 -3.36618 0
M  V30 3576 C 357.711 4.99332 -3.88395 0
M  V30 3577 C 356.375 5.13924 -4.25956 0
M  V30 3578 H 355.645 0.733108 -0.107857 0
M  V30 3579 H 358.292 1.6618 -0.951651 0
M  V30 3580 H 356.597 3.89884 0.386954 0
M  V30 3581 H 358.294 4.00998 0.0117269 0
M  V30 3582 H 354.884 4.04339 -1.42155 0
M  V30 3583 H 359.068 4.37416 -2.3448 0
M  V30 3584 H 354.324 4.90008 -3.65653 0
M  V30 3585 H 358.498 5.2444 -4.58187 0
M  V30 3586 H 356.125 5.50457 -5.2431 0
M  V30 3587 N 357.7 0.491464 1.49741 0
M  V30 3588 C 358.925 -0.0557177 2.07325 0
M  V30 3589 C 359.35 -1.30925 1.35056 0
M  V30 3590 O 358.708 -1.76733 0.404365 0
M  V30 3591 C 358.756 -0.302074 3.59333 0
M  V30 3592 O 357.86 -1.37868 3.88672 0
M  V30 3593 H 357.201 0.0219956 0.663636 0
M  V30 3594 H 359.731 0.688352 1.92673 0
M  V30 3595 H 359.741 -0.536464 4.04458 0
M  V30 3596 H 358.416 0.61383 4.11345 0
M  V30 3597 H 356.993 -1.12999 3.55367 0
M  V30 3598 N 359.178 -1.55987 0.224894 0
M  V30 3599 C 360.426 -1.97998 -0.405099 0
M  V30 3600 C 360.747 -1.11387 -1.60056 0
M  V30 3601 O 360.017 -0.191645 -1.9496 0
M  V30 3602 H 358.597 -0.731235 -0.152658 0
M  V30 3603 H 361.259 -1.92279 0.318567 0
M  V30 3604 H 360.355 -3.03463 -0.729167 0
M  V30 3605 N 360.656 0.0484629 -1.57525 0
M  V30 3606 C 361.903 0.743125 -1.88372 0
M  V30 3607 C 362.231 1.76383 -0.819715 0
M  V30 3608 O 361.486 1.94855 0.181659 0
M  V30 3609 C 361.785 1.46632 -3.25935 0
M  V30 3610 C 361.451 0.583427 -4.4711 0
M  V30 3611 C 360.113 0.340191 -4.79996 0
M  V30 3612 C 362.465 -0.0273345 -5.21193 0
M  V30 3613 C 359.793 -0.522903 -5.84365 0
M  V30 3614 C 362.145 -0.878017 -6.26477 0
M  V30 3615 C 360.809 -1.1309 -6.5785 0
M  V30 3616 H 360.079 0.271929 -0.689301 0
M  V30 3617 H 362.726 0.00336166 -1.915 0
M  V30 3618 H 361.031 2.2789 -3.18706 0
M  V30 3619 H 362.728 2.00902 -3.47044 0
M  V30 3620 H 359.318 0.783151 -4.21384 0
M  V30 3621 H 363.502 0.147654 -4.9608 0
M  V30 3622 H 358.758 -0.727335 -6.07058 0
M  V30 3623 H 362.932 -1.35789 -6.83033 0
M  V30 3624 H 360.559 -1.80144 -7.38547 0
M  V30 3625 N 362.134 1.5431 0.320358 0
M  V30 3626 C 363.064 1.86912 1.3995 0
M  V30 3627 C 364.045 0.726211 1.53819 0
M  V30 3628 O 365.23 0.980233 1.67646 0
M  V30 3629 C 362.36 2.09932 2.7667 0
M  V30 3630 C 361.314 3.25776 2.77586 0
M  V30 3631 C 360.64 3.34173 4.17412 0
M  V30 3632 C 361.94 4.6335 2.41048 0
M  V30 3633 H 363.634 2.77292 1.12914 0
M  V30 3634 H 361.18 1.33421 0.541738 0
M  V30 3635 H 363.133 2.31324 3.52232 0
M  V30 3636 H 361.857 1.16304 3.0519 0
M  V30 3637 H 360.516 3.04276 2.04479 0
M  V30 3638 H 360.164 2.38098 4.43078 0
M  V30 3639 H 359.864 4.12033 4.18931 0
M  V30 3640 H 361.388 3.57803 4.94782 0
M  V30 3641 H 362.802 4.84602 3.06324 0
M  V30 3642 H 361.199 5.43782 2.53813 0
M  V30 3643 H 362.269 4.65381 1.36193 0
M  V30 3644 N 363.613 -0.582584 1.46437 0
M  V30 3645 C 364.543 -1.70187 1.59871 0
M  V30 3646 C 365.524 -1.64066 0.449042 0
M  V30 3647 O 366.709 -1.82081 0.6753 0
M  V30 3648 C 363.839 -3.08827 1.58881 0
M  V30 3649 C 362.793 -3.29779 2.72819 0
M  V30 3650 C 362.119 -4.68947 2.5689 0
M  V30 3651 C 363.419 -3.17601 4.1464 0
M  V30 3652 H 365.113 -1.592 2.53566 0
M  V30 3653 H 362.659 -0.764472 1.22032 0
M  V30 3654 H 364.612 -3.86951 1.66873 0
M  V30 3655 H 363.336 -3.20713 0.617306 0
M  V30 3656 H 361.995 -2.54054 2.64296 0
M  V30 3657 H 361.643 -4.77599 1.57823 0
M  V30 3658 H 361.343 -4.83919 3.33312 0
M  V30 3659 H 362.867 -5.4924 2.66773 0
M  V30 3660 H 364.281 -3.8557 4.24274 0
M  V30 3661 H 362.678 -3.44094 4.9165 0
M  V30 3662 H 363.748 -2.14681 4.34788 0
M  V30 3663 N 365.091 -1.34144 -0.827227 0
M  V30 3664 C 366.338 -1.26258 -1.58319 0
M  V30 3665 C 366.666 0.168595 -1.93768 0
M  V30 3666 O 365.921 1.12877 -1.59866 0
M  V30 3667 C 366.22 -2.09464 -2.89585 0
M  V30 3668 C 365.886 -3.58521 -2.73448 0
M  V30 3669 C 364.548 -3.99155 -2.68754 0
M  V30 3670 C 366.9 -4.53189 -2.57428 0
M  V30 3671 C 364.228 -5.32656 -2.45957 0
M  V30 3672 C 366.58 -5.86864 -2.36163 0
M  V30 3673 C 365.244 -6.26667 -2.29879 0
M  V30 3674 H 364.514 -0.462013 -0.579332 0
M  V30 3675 H 367.161 -1.65845 -0.95748 0
M  V30 3676 H 365.466 -1.62692 -3.56425 0
M  V30 3677 H 367.163 -2.00712 -3.47154 0
M  V30 3678 H 363.753 -3.26264 -2.77939 0
M  V30 3679 H 367.937 -4.22696 -2.60081 0
M  V30 3680 H 363.193 -5.62519 -2.39546 0
M  V30 3681 H 367.367 -6.59813 -2.22754 0
M  V30 3682 H 364.994 -7.30049 -2.11975 0
M  V30 3683 N 366.569 1.04691 -1.17803 0
M  V30 3684 C 367.98 1.59238 -0.974689 0
M  V30 3685 C 368.331 1.90306 0.477292 0
M  V30 3686 O 367.456 1.68846 1.35352 0
M  V30 3687 C 368.051 2.89318 -1.76296 0
M  V30 3688 C 366.61 3.40506 -1.60414 0
M  V30 3689 C 365.757 2.14172 -1.76141 0
M  V30 3690 H 368.708 0.874395 -1.32439 0
M  V30 3691 H 368.729 3.5944 -1.24833 0
M  V30 3692 H 368.241 2.66675 -2.81968 0
M  V30 3693 H 366.342 3.68175 -0.572519 0
M  V30 3694 H 366.455 4.14753 -2.39827 0
M  V30 3695 H 364.819 2.25176 -1.19028 0
M  V30 3696 H 365.602 1.93992 -2.83235 0
M  V30 3697 N 368.047 0.979072 1.23499 0
M  V30 3698 C 369.324 0.563674 1.87302 0
M  V30 3699 C 369.704 -0.959199 1.88049 0
M  V30 3700 O 369.052 -1.83535 1.36114 0
M  V30 3701 C 369.262 1.16822 3.28867 0
M  V30 3702 C 370.61 1.26014 4.0547 0
M  V30 3703 O 371.634 1.12158 3.38082 0
M  V30 3704 O 370.493 1.48044 5.26066 0
M  V30 3705 H 367.587 0.189602 0.804972 0
M  V30 3706 H 370.133 1.07407 1.31384 0
M  V30 3707 H 368.905 2.21049 3.22883 0
M  V30 3708 H 368.528 0.642564 3.92373 0
M  V30 3709 N 369.525 -1.3858 0.750561 0
M  V30 3710 C 370.458 -2.28095 0.0693139 0
M  V30 3711 C 371.436 -1.45217 -0.731491 0
M  V30 3712 O 372.62 -1.74587 -0.71076 0
M  V30 3713 C 369.747 -3.26282 -0.90871 0
M  V30 3714 C 368.793 -4.26056 -0.194507 0
M  V30 3715 S 369.626 -5.24026 1.10257 0
M  V30 3716 C 370.782 -6.2577 0.127542 0
M  V30 3717 H 371.015 -2.85526 0.8284 0
M  V30 3718 H 368.548 -1.44536 0.543014 0
M  V30 3719 H 370.506 -3.83367 -1.46766 0
M  V30 3720 H 369.167 -2.6784 -1.64075 0
M  V30 3721 H 368.36 -4.95249 -0.93512 0
M  V30 3722 H 367.962 -3.72852 0.292837 0
M  V30 3723 H 370.254 -6.73796 -0.707516 0
M  V30 3724 H 371.197 -7.03712 0.787044 0
M  V30 3725 H 371.605 -5.63938 -0.251803 0
M  V30 3726 N 371.003 -0.499398 -1.49478 0
M  V30 3727 C 371.913 0.284489 -2.32869 0
M  V30 3728 C 372.929 0.968885 -1.44529 0
M  V30 3729 O 374.105 0.95062 -1.77553 0
M  V30 3730 C 371.17 1.33594 -3.19928 0
M  V30 3731 C 370.231 0.665149 -4.24116 0
M  V30 3732 C 369.464 1.6665 -5.07014 0
M  V30 3733 O 369.687 2.89618 -4.91404 0
M  V30 3734 O 368.621 1.22271 -5.8935 0
M  V30 3735 H 372.447 -0.39802 -3.01081 0
M  V30 3736 H 370.032 -0.260758 -1.47107 0
M  V30 3737 H 371.914 1.94431 -3.73864 0
M  V30 3738 H 370.589 2.0014 -2.54412 0
M  V30 3739 H 369.496 0.0170769 -3.74096 0
M  V30 3740 H 370.829 0.0421555 -4.92182 0
M  V30 3741 N 372.481 1.55866 -0.233164 0
M  V30 3742 C 373.444 2.1953 0.658715 0
M  V30 3743 C 374.444 1.16053 1.11303 0
M  V30 3744 O 375.634 1.41218 1.01996 0
M  V30 3745 C 372.766 2.82791 1.90373 0
M  V30 3746 H 373.959 2.99721 0.10347 0
M  V30 3747 H 371.512 1.56291 0.0164245 0
M  V30 3748 H 372.247 2.06501 2.50056 0
M  V30 3749 H 372.032 3.58578 1.58632 0
M  V30 3750 H 373.522 3.31556 2.53891 0
M  V30 3751 O 373.998 0.0973059 1.61207 0
M  V30 3752 H 374.689 -0.50491 1.87004 0
M  V30 END ATOM
M  V30 BEGIN BOND
M  V30 END BOND
M  V30 END CTAB
M  END
$$$$
