drugbank_target|P06129 Vitamin B12 transporter BtuB (DB04039; DB04147; DB04233)
 OpenBabel12092119543D

  0  0  0     0  0            999 V3000
M  V30 BEGIN CTAB
M  V30 COUNTS 9412 9535 0 0 0
M  V30 BEGIN ATOM
M  V30 1 H -0.908 1.98254 -0.117106 0
M  V30 2 N 0 1.576 0 0
M  V30 3 C 0.933 2.03868 1.02534 0
M  V30 4 C 1.911 0.928543 1.3348 0
M  V30 5 O 3.095 1.19667 1.45644 0
M  V30 6 C 0.222 2.43627 2.35294 0
M  V30 7 C -0.732 3.65373 2.2001 0
M  V30 8 S 0.101 5.13292 1.52614 0
M  V30 9 C 1.257 5.56322 2.86805 0
M  V30 10 H 1.49 2.90518 0.631377 0
M  V30 11 H -0.977 1.52953 0.210867 0
M  V30 12 H 0.981 2.67203 3.11629 0
M  V30 13 H -0.358 1.57376 2.7183 0
M  V30 14 H -1.165 3.90944 3.18086 0
M  V30 15 H -1.563 3.418 1.51819 0
M  V30 16 H 0.729 5.58782 3.83104 0
M  V30 17 H 1.672 6.56266 2.65933 0
M  V30 18 H 2.08 4.83886 2.90714 0
M  V30 19 N 1.4781 -0.272755 1.55222 0
M  V30 20 C 2.7271 -1.00211 1.75045 0
M  V30 21 C 3.0401 -1.87441 0.559046 0
M  V30 22 O 4.2461 -2.63856 0.639698 0
M  V30 23 C 2.7021 -1.83165 3.09804 0
M  V30 24 C 2.3101 -1.008 4.36513 0
M  V30 25 C 4.0541 -2.55529 3.38977 0
M  V30 26 C 1.9611 -1.83194 5.62311 0
M  V30 27 H 0.8911 -0.377878 0.652476 0
M  V30 28 H 3.5421 -0.257776 1.8168 0
M  V30 29 H 1.9241 -2.61694 2.97207 0
M  V30 30 H 3.0981 -0.266855 4.60027 0
M  V30 31 H 1.4131 -0.398897 4.14485 0
M  V30 32 H 4.0101 -3.17578 4.30172 0
M  V30 33 H 4.3531 -3.25825 2.59121 0
M  V30 34 H 4.8861 -1.84029 3.52673 0
M  V30 35 H 1.6251 -1.17318 6.44916 0
M  V30 36 H 1.1451 -2.54905 5.4294 0
M  V30 37 H 2.8241 -2.40552 6.00619 0
M  V30 38 N 2.9562 -1.48159 -0.537278 0
M  V30 39 C 3.9032 -1.62138 -1.64256 0
M  V30 40 C 4.8732 -0.463668 -1.59497 0
M  V30 41 O 6.0582 -0.686241 -1.78032 0
M  V30 42 C 3.1982 -1.66028 -3.02537 0
M  V30 43 C 2.3112 -2.92855 -3.17585 0
M  V30 44 C 1.4462 -2.87952 -4.46382 0
M  V30 45 C 0.4852 -4.09516 -4.54932 0
M  V30 46 N -0.3778 -4.02733 -5.75109 0
M  V30 47 H 4.4622 -2.56529 -1.51647 0
M  V30 48 H 1.9992 -1.27224 -0.738414 0
M  V30 49 H 3.9572 -1.66265 -3.82638 0
M  V30 50 H 2.5872 -0.751331 -3.13934 0
M  V30 51 H 1.6392 -3.02395 -2.30784 0
M  V30 52 H 2.9512 -3.82822 -3.19764 0
M  V30 53 H 2.1052 -2.8655 -5.34765 0
M  V30 54 H 0.8442 -1.95702 -4.46712 0
M  V30 55 H -0.1508 -4.11201 -3.64957 0
M  V30 56 H 1.0742 -5.02917 -4.56346 0
M  V30 57 H -0.9798 -3.13299 -5.76351 0
M  V30 58 H -1.0628 -4.86397 -5.78752 0
M  V30 59 H 0.2052 -4.05379 -6.65799 0
M  V30 60 N 4.4343 0.785586 -1.36625 0
M  V30 61 C 5.3813 1.89838 -1.31264 0
M  V30 62 C 6.3513 1.65115 -0.180633 0
M  V30 63 O 7.5363 1.87222 -0.36777 0
M  V30 64 C 4.6763 3.26706 -1.11163 0
M  V30 65 C 3.7893 3.63476 -2.33472 0
M  V30 66 C 2.9243 4.89481 -2.06353 0
M  V30 67 C 1.9633 5.18941 -3.24602 0
M  V30 68 N 1.1003 6.36131 -2.97123 0
M  V30 69 H 5.9403 1.93756 -2.26413 0
M  V30 70 H 3.4773 0.947454 -1.12524 0
M  V30 71 H 5.4353 4.05639 -0.975337 0
M  V30 72 H 4.0653 3.222 -0.196674 0
M  V30 73 H 3.1173 2.79636 -2.57891 0
M  V30 74 H 4.4293 3.81193 -3.21704 0
M  V30 75 H 3.5833 5.76288 -1.89675 0
M  V30 76 H 2.3223 4.73841 -1.15437 0
M  V30 77 H 1.3273 4.30615 -3.41834 0
M  V30 78 H 2.5523 5.36498 -4.16349 0
M  V30 79 H 0.4983 6.21875 -2.08823 0
M  V30 80 H 0.4153 6.54198 -3.78894 0
M  V30 81 H 1.6833 7.2591 -2.84033 0
M  V30 82 N 5.9124 1.20967 1.01018 0
M  V30 83 C 6.8754 0.965918 2.07853 0
M  V30 84 C 7.8754 -0.0610545 1.60684 0
M  V30 85 O 9.0654 0.175681 1.73312 0
M  V30 86 C 6.1974 0.455513 3.37843 0
M  V30 87 H 7.3904 1.91365 2.3091 0
M  V30 88 H 4.9434 1.02594 1.17916 0
M  V30 89 H 5.6784 -0.497381 3.20463 0
M  V30 90 H 5.4634 1.19622 3.73407 0
M  V30 91 H 6.9534 0.304667 4.16487 0
M  V30 92 N 7.3905 -1.2043 1.01659 0
M  V30 93 C 8.6155 -1.94318 0.724942 0
M  V30 94 C 9.0405 -1.74266 -0.708034 0
M  V30 95 O 8.3985 -1.03694 -1.48719 0
M  V30 96 C 8.4465 -3.44486 1.06591 0
M  V30 97 O 7.5505 -4.12017 0.177599 0
M  V30 98 H 6.8915 -0.60708 0.26898 0
M  V30 99 H 9.4215 -1.52861 1.35995 0
M  V30 100 H 9.4315 -3.95106 1.01762 0
M  V30 101 H 8.1065 -3.58404 2.10997 0
M  V30 102 H 6.6835 -3.71821 0.283421 0
M  V30 103 N 8.8686 -0.792821 -1.36206 0
M  V30 104 C 9.7986 -0.207853 -2.32573 0
M  V30 105 C 10.7796 0.659055 -1.56813 0
M  V30 106 O 11.9646 0.592176 -1.84951 0
M  V30 107 C 9.0946 0.655449 -3.41059 0
M  V30 108 C 8.0486 -0.111842 -4.27854 0
M  V30 109 C 7.3746 0.872274 -5.27537 0
M  V30 110 C 8.6746 -1.30299 -5.05786 0
M  V30 111 H 10.3686 -1.01294 -2.81744 0
M  V30 112 H 7.9146 -0.48854 -1.3546 0
M  V30 113 H 9.8676 1.07464 -4.07467 0
M  V30 114 H 8.5916 1.49328 -2.90463 0
M  V30 115 H 7.2506 -0.512053 -3.63006 0
M  V30 116 H 6.8986 1.70523 -4.73214 0
M  V30 117 H 6.5986 0.363291 -5.86476 0
M  V30 118 H 8.1226 1.28996 -5.96818 0
M  V30 119 H 9.5366 -0.959379 -5.65216 0
M  V30 120 H 7.9336 -1.7455 -5.74154 0
M  V30 121 H 9.0036 -2.09663 -4.37229 0
M  V30 122 N 10.3467 1.47872 -0.545128 0
M  V30 123 C 11.2767 2.32661 0.197793 0
M  V30 124 C 12.2577 1.43041 0.920504 0
M  V30 125 O 13.4427 1.71912 0.90333 0
M  V30 126 C 10.5727 3.24569 1.23582 0
M  V30 127 C 9.5267 4.23333 0.630323 0
M  V30 128 C 8.8527 5.0448 1.77211 0
M  V30 129 C 10.1527 5.20704 -0.407974 0
M  V30 130 H 11.8467 2.95024 -0.510045 0
M  V30 131 H 9.3927 1.4187 -0.246731 0
M  V30 132 H 11.3457 3.8272 1.76362 0
M  V30 133 H 10.0697 2.60236 1.97344 0
M  V30 134 H 8.7287 3.6639 0.123922 0
M  V30 135 H 8.3767 4.36561 2.49847 0
M  V30 136 H 8.0767 5.71339 1.37281 0
M  V30 137 H 9.6007 5.65487 2.3034 0
M  V30 138 H 11.0147 5.7329 0.033305 0
M  V30 139 H 9.4117 5.95699 -0.725486 0
M  V30 140 H 10.4817 4.66917 -1.30828 0
M  V30 141 N 11.8248 0.280983 1.55075 0
M  V30 142 C 13.0528 -0.337293 2.04132 0
M  V30 143 C 13.4678 -1.4903 1.15912 0
M  V30 144 O 12.8248 -1.81606 0.180459 0
M  V30 145 C 12.8758 -0.812706 3.52246 0
M  V30 146 O 12.5968 0.294387 4.3711 0
M  V30 147 C 14.0978 -1.4982 4.17216 0
M  V30 148 H 11.3178 -0.0761638 0.666663 0
M  V30 149 H 13.8618 0.414787 2.00249 0
M  V30 150 H 12.0168 -1.51486 3.56554 0
M  V30 151 H 12.4308 -0.0721325 5.2445 0
M  V30 152 H 13.9048 -1.7822 5.22438 0
M  V30 153 H 14.3818 -2.43168 3.65741 0
M  V30 154 H 14.9878 -0.839742 4.16927 0
M  V30 155 N 13.3029 -1.57598 0.00835791 0
M  V30 156 C 14.2659 -2.07884 -0.965242 0
M  V30 157 C 15.2659 -0.989825 -1.26725 0
M  V30 158 O 16.4559 -1.25218 -1.21104 0
M  V30 159 C 13.5879 -2.52731 -2.28779 0
M  V30 160 H 14.7809 -2.95178 -0.530112 0
M  V30 161 H 12.3339 -1.54458 -0.239283 0
M  V30 162 H 13.0689 -1.68705 -2.76964 0
M  V30 163 H 12.8539 -3.32272 -2.08177 0
M  V30 164 H 14.3439 -2.91933 -2.98605 0
M  V30 165 N 14.781 0.264519 -1.55364 0
M  V30 166 C 16.021 1.00254 -1.78125 0
M  V30 167 C 16.385 1.83187 -0.575017 0
M  V30 168 O 17.586 2.60029 -0.681042 0
M  V30 169 C 15.857 1.85478 -3.05504 0
M  V30 170 S 17.416 2.6543 -3.49417 0
M  V30 171 H 14.234 0.337522 -0.625779 0
M  V30 172 H 16.836 0.272111 -1.93597 0
M  V30 173 H 15.54 1.23491 -3.9138 0
M  V30 174 H 15.071 2.62827 -2.92721 0
M  V30 175 H 17.086 3.87958 -3.09359 0
M  V30 176 N 16.2591 1.48442 0.529413 0
M  V30 177 C 17.4841 1.60406 1.31471 0
M  V30 178 C 17.9091 0.264738 1.86228 0
M  V30 179 O 17.2671 -0.763668 1.64432 0
M  V30 180 C 17.3151 2.65419 2.44101 0
M  V30 181 O 16.4191 2.22618 3.47153 0
M  V30 182 H 15.7601 0.537863 0.389357 0
M  V30 183 H 18.2901 1.94432 0.636965 0
M  V30 184 H 18.3001 2.86709 2.90279 0
M  V30 185 H 16.9751 3.62652 2.03608 0
M  V30 186 H 15.5521 2.11543 3.0709 0
M  V30 187 N 17.7372 -0.778329 1.37039 0
M  V30 188 C 18.9832 -1.53892 1.32079 0
M  V30 189 C 19.3162 -1.9396 -0.0965386 0
M  V30 190 O 18.5912 -1.63568 -1.05242 0
M  V30 191 C 18.8742 -2.80847 2.25382 0
M  V30 192 C 18.7272 -2.47076 3.75864 0
M  V30 193 C 20.0462 -3.82741 2.1725 0
M  V30 194 H 17.1652 -0.558303 0.48111 0
M  V30 195 H 19.8072 -0.893397 1.67685 0
M  V30 196 H 17.9572 -3.35931 1.95148 0
M  V30 197 H 19.6292 -1.97957 4.16666 0
M  V30 198 H 17.8722 -1.79863 3.94755 0
M  V30 199 H 18.5432 -3.37798 4.36574 0
M  V30 200 H 21.0192 -3.37133 2.43887 0
M  V30 201 H 19.8952 -4.69303 2.84686 0
M  V30 202 H 20.1562 -4.2652 1.16331 0
M  V30 203 N 19.2153 -1.21501 -1.00376 0
M  V30 204 C 20.4433 -1.059 -1.77744 0
M  V30 205 C 20.8583 0.391125 -1.84704 0
M  V30 206 O 20.2153 1.27133 -1.30933 0
M  V30 207 C 20.2663 -1.65111 -3.21591 0
M  V30 208 O 19.9873 -3.0445 -3.15027 0
M  V30 209 C 21.4883 -1.54637 -4.15454 0
M  V30 210 H 18.7083 -0.371825 -0.558558 0
M  V30 211 H 21.2523 -1.60865 -1.26264 0
M  V30 212 H 19.4073 -1.14235 -3.70175 0
M  V30 213 H 19.8213 -3.3278 -4.0541 0
M  V30 214 H 21.2953 -2.00808 -5.14179 0
M  V30 215 H 21.7723 -0.501022 -4.36333 0
M  V30 216 H 22.3783 -2.04767 -3.72761 0
M  V30 217 N 20.6934 1.19889 -1.02296 0
M  V30 218 C 21.6564 2.21116 -0.603351 0
M  V30 219 C 22.6564 1.5738 0.329884 0
M  V30 220 O 23.8464 1.73802 0.117702 0
M  V30 221 C 20.9784 3.40696 0.117992 0
M  V30 222 H 22.1714 2.59754 -1.49893 0
M  V30 223 H 19.7244 1.33463 -0.813468 0
M  V30 224 H 20.4594 3.07569 1.0282 0
M  V30 225 H 20.2444 3.88188 -0.552511 0
M  V30 226 H 21.7344 4.15692 0.398696 0
M  V30 227 N 22.1715 0.800033 1.35784 0
M  V30 228 C 23.4185 0.377342 1.98953 0
M  V30 229 C 23.7465 -1.05378 1.6348 0
M  V30 230 O 23.0015 -1.74459 0.886707 0
M  V30 231 C 23.3005 0.500276 3.53881 0
M  V30 232 C 22.9665 1.89375 4.09204 0
M  V30 233 C 21.6285 2.27499 4.24025 0
M  V30 234 C 23.9805 2.8057 4.39238 0
M  V30 235 C 21.3085 3.562 4.66195 0
M  V30 236 C 23.6605 4.0871 4.82844 0
M  V30 237 C 22.3245 4.46843 4.95871 0
M  V30 238 H 21.5945 0.138079 0.728021 0
M  V30 239 H 24.2415 1.01955 1.62103 0
M  V30 240 H 22.5465 -0.225405 3.91151 0
M  V30 241 H 24.2435 0.154097 4.00704 0
M  V30 242 H 20.8335 1.58753 3.98115 0
M  V30 243 H 25.0175 2.52367 4.27346 0
M  V30 244 H 20.2735 3.85602 4.74469 0
M  V30 245 H 24.4475 4.79481 5.05046 0
M  V30 246 H 22.0745 5.46623 5.28306 0
M  V30 247 N 23.6496 -1.47581 0.552962 0
M  V30 248 C 24.8746 -2.07378 0.0300593 0
M  V30 249 C 25.2996 -1.40355 -1.25229 0
M  V30 250 O 24.6576 -0.477099 -1.7491 0
M  V30 251 C 24.7056 -3.60274 -0.153231 0
M  V30 252 O 23.8096 -3.94041 -1.21678 0
M  V30 253 H 23.1506 -0.662158 0.0494182 0
M  V30 254 H 25.6806 -1.89662 0.767434 0
M  V30 255 H 25.6906 -4.0633 -0.368761 0
M  V30 256 H 24.3656 -4.08455 0.783397 0
M  V30 257 H 22.9426 -3.59735 -0.982079 0
M  V30 258 N 25.1277 -0.289203 -1.54924 0
M  V30 259 C 26.0907 0.579144 -2.21762 0
M  V30 260 C 27.0907 1.07047 -1.1999 0
M  V30 261 O 28.2807 0.968384 -1.44803 0
M  V30 262 C 25.4127 1.80055 -2.8947 0
M  V30 263 H 26.6057 -0.00464908 -2.999 0
M  V30 264 H 24.1587 -0.0399306 -1.56249 0
M  V30 265 H 24.8937 2.42449 -2.15381 0
M  V30 266 H 24.6787 1.45602 -3.64064 0
M  V30 267 H 26.1687 2.41773 -3.40493 0
M  V30 268 N 26.6058 1.57591 -0.0167156 0
M  V30 269 C 27.8518 1.92399 0.659861 0
M  V30 270 C 28.2068 0.892561 1.70444 0
M  V30 271 O 27.4998 -0.0930755 1.91374 0
M  V30 272 C 27.6938 3.3172 1.33029 0
M  V30 273 C 27.5228 4.48319 0.352174 0
M  V30 274 C 26.2928 5.05281 -0.0434883 0
M  V30 275 C 28.4908 5.12831 -0.388474 0
M  V30 276 N 26.4728 6.05399 -1.01807 0
M  V30 277 C 27.8438 6.07934 -1.2172 0
M  V30 278 C 29.8988 4.95858 -0.450513 0
M  V30 279 C 28.6018 6.87891 -2.10235 0
M  V30 280 C 30.6278 5.76413 -1.32295 0
M  V30 281 C 29.9898 6.71123 -2.13948 0
M  V30 282 H 26.0888 0.752106 0.21415 0
M  V30 283 H 28.6728 1.94532 -0.0809846 0
M  V30 284 H 26.8438 3.3043 2.04134 0
M  V30 285 H 28.5758 3.5391 1.9629 0
M  V30 286 H 25.3308 4.7246 0.328384 0
M  V30 287 H 25.7548 6.60145 -1.50123 0
M  V30 288 H 30.3968 4.22472 0.166512 0
M  V30 289 H 28.1148 7.60591 -2.72997 0
M  V30 290 H 31.7008 5.65317 -1.37508 0
M  V30 291 H 30.5808 7.3237 -2.80364 0
M  V30 292 N 28.0839 -0.256276 1.55502 0
M  V30 293 C 29.0469 -1.30047 1.88734 0
M  V30 294 C 30.0469 -1.4154 0.763086 0
M  V30 295 O 31.2369 -1.40403 1.03115 0
M  V30 296 C 28.3689 -2.67953 2.10747 0
M  V30 297 H 29.5619 -1.01802 2.82093 0
M  V30 298 H 27.1149 -0.495134 1.4825 0
M  V30 299 H 27.8499 -3.01351 1.19825 0
M  V30 300 H 27.6349 -2.60993 2.92617 0
M  V30 301 H 29.1249 -3.43368 2.37673 0
M  V30 302 N 29.562 -1.4872 -0.521534 0
M  V30 303 C 30.494 -1.59968 -1.64143 0
M  V30 304 C 31.507 -0.483463 -1.55456 0
M  V30 305 O 32.696 -0.75467 -1.61762 0
M  V30 306 C 29.796 -1.52127 -3.02838 0
M  V30 307 C 28.969 -2.78932 -3.36921 0
M  V30 308 C 28.028 -2.64428 -4.54933 0
M  V30 309 O 27.054 -3.38331 -4.57735 0
M  V30 310 N 28.256 -1.74606 -5.53618 0
M  V30 311 H 31.021 -2.56548 -1.54929 0
M  V30 312 H 28.582 -1.45551 -0.708988 0
M  V30 313 H 30.574 -1.40106 -3.79674 0
M  V30 314 H 29.144 -0.634868 -3.06085 0
M  V30 315 H 28.364 -3.05455 -2.4918 0
M  V30 316 H 29.652 -3.63041 -3.56481 0
M  V30 317 H 29.05 -1.13782 -5.54139 0
M  V30 318 H 27.607 -1.6852 -6.29638 0
M  V30 319 N 31.0401 0.771051 -1.3745 0
M  V30 320 C 32.3171 1.519 -1.23231 0
M  V30 321 C 32.6971 2.10383 0.173809 0
M  V30 322 O 32.0451 1.95583 1.18151 0
M  V30 323 C 32.2551 2.59933 -2.32886 0
M  V30 324 C 33.6031 3.27316 -2.70461 0
M  V30 325 O 34.6271 2.70228 -2.32068 0
M  V30 326 O 33.4861 4.30531 -3.36608 0
M  V30 327 H 30.5801 0.672803 -0.480901 0
M  V30 328 H 33.1261 0.807957 -1.49232 0
M  V30 329 H 31.8981 2.14842 -3.27045 0
M  V30 330 H 31.5211 3.38637 -2.08353 0
M  V30 331 N 32.5182 1.22032 0.997298 0
M  V30 332 C 33.7462 1.06841 1.7718 0
M  V30 333 C 34.1612 -0.381325 1.84909 0
M  V30 334 O 33.5182 -1.26437 1.31605 0
M  V30 335 C 33.5692 1.66814 3.20711 0
M  V30 336 O 33.2902 3.06116 3.13408 0
M  V30 337 C 34.7912 1.56838 4.14628 0
M  V30 338 H 32.0112 0.374782 0.556578 0
M  V30 339 H 34.5552 1.61532 1.2541 0
M  V30 340 H 32.7102 1.16196 3.69564 0
M  V30 341 H 33.1242 3.34926 4.0364 0
M  V30 342 H 34.5982 2.03532 5.13107 0
M  V30 343 H 35.0752 0.524155 4.36061 0
M  V30 344 H 35.6812 2.06741 3.7167 0
M  V30 345 N 33.9963 -1.19345 1.0293 0
M  V30 346 C 35.2213 -1.93538 0.745511 0
M  V30 347 C 35.6463 -1.75007 -0.689511 0
M  V30 348 O 35.0043 -1.05265 -1.47611 0
M  V30 349 C 35.0523 -3.43336 1.10239 0
M  V30 350 O 34.1563 -4.11806 0.221289 0
M  V30 351 H 33.4973 -0.604193 0.275404 0
M  V30 352 H 36.0273 -1.5141 1.37609 0
M  V30 353 H 36.0373 -3.94004 1.05947 0
M  V30 354 H 34.7123 -3.56146 2.14786 0
M  V30 355 H 33.2893 -3.715 0.322842 0
M  V30 356 N 35.4744 -0.807222 -1.35358 0
M  V30 357 C 36.8854 -0.44876 -1.81226 0
M  V30 358 C 37.2364 1.02929 -1.67033 0
M  V30 359 O 36.3614 1.79991 -1.20133 0
M  V30 360 C 36.9564 -0.807774 -3.2903 0
M  V30 361 C 35.5154 -0.501901 -3.73039 0
M  V30 362 C 34.6624 -1.03304 -2.57339 0
M  V30 363 H 37.6134 -0.998808 -1.23327 0
M  V30 364 H 37.6344 -0.10554 -3.80354 0
M  V30 365 H 37.1464 -1.88357 -3.39328 0
M  V30 366 H 35.2474 0.565128 -3.68289 0
M  V30 367 H 35.3604 -1.03497 -4.67787 0
M  V30 368 H 33.7244 -0.455339 -2.50597 0
M  V30 369 H 34.5074 -2.11496 -2.70415 0
M  V30 370 N 36.9525 1.47285 -0.560781 0
M  V30 371 C 38.2295 1.9558 0.0277798 0
M  V30 372 C 38.6095 1.5034 1.48192 0
M  V30 373 O 37.9575 0.743882 2.16052 0
M  V30 374 C 38.1675 3.48789 -0.121418 0
M  V30 375 C 39.5155 4.24594 0.0220912 0
M  V30 376 O 40.5395 3.56166 -0.0491439 0
M  V30 377 O 39.3985 5.46217 0.175958 0
M  V30 378 H 36.4925 0.824663 0.0621342 0
M  V30 379 H 39.0385 1.5767 -0.627556 0
M  V30 380 H 37.8105 3.74533 -1.13316 0
M  V30 381 H 37.4335 3.93473 0.571366 0
M  V30 382 N 38.4306 0.297415 1.54768 0
M  V30 383 C 39.6586 -0.315623 2.04478 0
M  V30 384 C 40.0736 -1.47792 1.17486 0
M  V30 385 O 39.4306 -1.81404 0.19971 0
M  V30 386 C 39.4816 -0.7753 3.53088 0
M  V30 387 O 39.2026 0.340732 4.36773 0
M  V30 388 C 40.7036 -1.45386 4.18781 0
M  V30 389 H 37.9236 -0.0690887 0.667434 0
M  V30 390 H 40.4676 0.436003 1.99798 0
M  V30 391 H 38.6226 -1.47696 3.58141 0
M  V30 392 H 39.0366 -0.0165035 5.24497 0
M  V30 393 H 40.5106 -1.72669 5.24299 0
M  V30 394 H 40.9876 -2.39275 3.68299 0
M  V30 395 H 41.5936 -0.795475 4.17795 0
M  V30 396 N 39.9087 -1.5758 0.0250728 0
M  V30 397 C 40.8387 -2.13007 -0.956575 0
M  V30 398 C 41.8197 -1.0452 -1.342 0
M  V30 399 O 43.0047 -1.32332 -1.42133 0
M  V30 400 C 40.1347 -2.65386 -2.24026 0
M  V30 401 C 39.0887 -3.78623 -1.99571 0
M  V30 402 C 38.4147 -4.17414 -3.3417 0
M  V30 403 C 39.7147 -5.04867 -1.33814 0
M  V30 404 H 41.4087 -2.9528 -0.494991 0
M  V30 405 H 38.9547 -1.42042 -0.236651 0
M  V30 406 H 40.9077 -3.02794 -2.93076 0
M  V30 407 H 39.6317 -1.80268 -2.72343 0
M  V30 408 H 38.2907 -3.41646 -1.32941 0
M  V30 409 H 37.9387 -3.29284 -3.80238 0
M  V30 410 H 37.6387 -4.93719 -3.18615 0
M  V30 411 H 39.1627 -4.57402 -4.04495 0
M  V30 412 H 40.5767 -5.39888 -1.92857 0
M  V30 413 H 38.9737 -5.86144 -1.28669 0
M  V30 414 H 40.0437 -4.83904 -0.310561 0
M  V30 415 N 41.3868 0.248026 -1.55636 0
M  V30 416 C 42.6328 0.97767 -1.77678 0
M  V30 417 C 42.9658 1.85016 -0.590135 0
M  V30 418 O 42.2408 1.90095 0.411611 0
M  V30 419 C 42.5238 1.83914 -3.09593 0
M  V30 420 C 42.3768 0.99491 -4.38659 0
M  V30 421 C 43.6958 2.82183 -3.37729 0
M  V30 422 H 40.8148 0.354005 -0.646413 0
M  V30 423 H 43.4568 0.248253 -1.88371 0
M  V30 424 H 41.6068 2.46104 -3.00608 0
M  V30 425 H 43.2788 0.391789 -4.59633 0
M  V30 426 H 41.5218 0.299231 -4.32767 0
M  V30 427 H 42.1928 1.63145 -5.2734 0
M  V30 428 H 44.6688 2.30129 -3.4667 0
M  V30 429 H 43.5448 3.39582 -4.31249 0
M  V30 430 H 43.8058 3.58588 -2.58586 0
M  V30 431 N 42.8649 1.48995 0.513639 0
M  V30 432 C 44.1109 1.58076 1.27042 0
M  V30 433 C 44.4439 0.261026 1.92438 0
M  V30 434 O 43.7189 -0.734393 1.80103 0
M  V30 435 C 44.0019 2.73091 2.34719 0
M  V30 436 C 43.8549 4.14821 1.73907 0
M  V30 437 C 45.1739 2.83796 3.36375 0
M  V30 438 H 42.2929 0.575391 0.460536 0
M  V30 439 H 44.9349 1.81232 0.570516 0
M  V30 440 H 43.0849 2.53479 2.94416 0
M  V30 441 H 44.7569 4.45917 1.18135 0
M  V30 442 H 42.9999 4.21058 1.0437 0
M  V30 443 H 43.6709 4.91147 2.51949 0
M  V30 444 H 46.1469 3.01611 2.86653 0
M  V30 445 H 45.0229 3.65971 4.09093 0
M  V30 446 H 45.2839 1.92624 3.9793 0
M  V30 447 N 44.343 -0.763751 1.37857 0
M  V30 448 C 45.571 -1.55293 1.36718 0
M  V30 449 C 45.986 -1.88745 -0.0455434 0
M  V30 450 O 45.343 -1.52039 -1.00947 0
M  V30 451 C 45.394 -2.85831 2.2132 0
M  V30 452 O 45.115 -2.5381 3.57089 0
M  V30 453 C 46.616 -3.80023 2.28249 0
M  V30 454 H 43.836 -0.480841 0.468009 0
M  V30 455 H 46.38 -0.946009 1.81303 0
M  V30 456 H 44.535 -3.42926 1.80223 0
M  V30 457 H 44.949 -3.37459 4.01524 0
M  V30 458 H 46.423 -4.68599 2.91752 0
M  V30 459 H 46.9 -4.1973 1.2932 0
M  V30 460 H 47.506 -3.28855 2.69693 0
M  V30 461 N 45.8211 -1.22559 -0.990812 0
M  V30 462 C 46.7841 -0.998863 -2.0629 0
M  V30 463 C 47.7841 0.0354834 -1.60761 0
M  V30 464 O 48.9741 -0.203231 -1.7301 0
M  V30 465 C 46.1061 -0.509203 -3.37076 0
M  V30 466 H 47.2991 -1.95014 -2.27837 0
M  V30 467 H 44.8521 -1.04456 -1.16269 0
M  V30 468 H 45.5871 0.446335 -3.21214 0
M  V30 469 H 45.3721 -1.25547 -3.71457 0
M  V30 470 H 46.8621 -0.370888 -4.1595 0
M  V30 471 N 47.2992 1.18797 -1.03562 0
M  V30 472 C 48.2472 2.24297 -0.615905 0
M  V30 473 C 49.2412 1.65643 0.354808 0
M  V30 474 O 50.4472 1.78618 0.22265 0
M  V30 475 H 46.8222 0.729909 -0.180934 0
M  V30 476 H 48.7932 2.5701 -1.5162 0
M  V30 477 C 47.5422 3.47698 0.0104735 0
M  V30 478 H 46.8652 3.93125 -0.727509 0
M  V30 479 H 48.3052 4.23159 0.266995 0
M  V30 480 C 46.7642 3.12489 1.25905 0
M  V30 481 O 47.2942 3.25761 2.35038 0
M  V30 482 N 45.5002 2.6686 1.15039 0
M  V30 483 H 45.0472 2.56261 0.262328 0
M  V30 484 H 45.0052 2.43674 1.98672 0
M  V30 485 N 48.7773 0.814389 1.34928 0
M  V30 486 C 50.1933 0.499084 1.51596 0
M  V30 487 C 50.3933 -0.978319 1.76157 0
M  V30 488 O 49.4493 -1.76309 1.80752 0
M  V30 489 C 50.7623 1.35121 2.68631 0
M  V30 490 C 52.3103 1.34746 2.82511 0
M  V30 491 C 52.7853 2.18388 4.0258 0
M  V30 492 N 54.2763 2.15966 4.09772 0
M  V30 493 C 55.0113 2.77437 5.01813 0
M  V30 494 N 54.5073 3.47866 5.99134 0
M  V30 495 N 56.3003 2.67037 4.94619 0
M  V30 496 H 48.4513 1.7711 1.17243 0
M  V30 497 H 50.7143 0.754256 0.574284 0
M  V30 498 H 50.4203 2.40001 2.57085 0
M  V30 499 H 50.2943 1.00991 3.63429 0
M  V30 500 H 52.6813 0.30648 2.93504 0
M  V30 501 H 52.7623 1.72869 1.88547 0
M  V30 502 H 52.4063 3.2253 3.92347 0
M  V30 503 H 52.3363 1.77621 4.9574 0
M  V30 504 H 54.8273 1.64729 3.40107 0
M  V30 505 H 55.1403 3.92038 6.65977 0
M  V30 506 H 53.4853 3.51972 5.99284 0
M  V30 507 H 56.6763 2.11597 4.17546 0
M  V30 508 H 56.8493 3.15232 5.66156 0
M  V30 509 N 50.2554 -1.46986 0.568584 0
M  V30 510 C 51.5024 -2.02441 0.0487986 0
M  V30 511 C 51.8304 -1.44169 -1.30559 0
M  V30 512 O 51.0854 -0.591213 -1.86556 0
M  V30 513 C 51.3844 -3.57306 -0.081836 0
M  V30 514 C 51.0504 -4.34552 1.20313 0
M  V30 515 C 49.7124 -4.55376 1.5552 0
M  V30 516 C 52.0644 -4.79016 2.05411 0
M  V30 517 C 49.3924 -5.17913 2.7565 0
M  V30 518 C 51.7444 -5.42879 3.24754 0
M  V30 519 C 50.4084 -5.61933 3.60261 0
M  V30 520 H 49.6784 -0.740785 0.0178567 0
M  V30 521 H 52.3254 -1.76525 0.742384 0
M  V30 522 H 50.6304 -3.8228 -0.858463 0
M  V30 523 H 52.3274 -3.97876 -0.499546 0
M  V30 524 H 48.9174 -4.18631 0.919014 0
M  V30 525 H 53.1014 -4.62696 1.79516 0
M  V30 526 H 48.3574 -5.30858 3.03315 0
M  V30 527 H 52.5314 -5.76293 3.90973 0
M  V30 528 H 50.1584 -6.10161 4.53439 0
M  V30 529 N 51.7335 -0.305618 -1.54608 0
M  V30 530 C 52.6435 0.57778 -2.27374 0
M  V30 531 C 53.6595 1.14451 -1.31061 0
M  V30 532 O 54.8355 1.16831 -1.6405 0
M  V30 533 C 51.9005 1.73123 -3.00382 0
M  V30 534 C 50.9615 1.19812 -4.12242 0
M  V30 535 C 50.1945 2.2966 -4.81759 0
M  V30 536 O 50.4175 3.49651 -4.50666 0
M  V30 537 O 49.3515 1.96091 -5.69062 0
M  V30 538 H 53.1775 -0.012624 -3.03697 0
M  V30 539 H 50.7625 -0.0719184 -1.49227 0
M  V30 540 H 52.6445 2.40315 -3.4616 0
M  V30 541 H 51.3195 2.30815 -2.26949 0
M  V30 542 H 50.2265 0.491798 -3.70853 0
M  V30 543 H 51.5595 0.666566 -4.87666 0
M  V30 544 N 53.2116 1.57565 -0.0334293 0
M  V30 545 C 54.1436 2.0739 0.975811 0
M  V30 546 C 55.1566 0.998166 1.2861 0
M  V30 547 O 56.3456 1.27426 1.25 0
M  V30 548 C 53.4456 2.4871 2.30209 0
M  V30 549 C 52.6186 3.79413 2.17634 0
M  V30 550 C 51.6776 4.07237 3.33233 0
M  V30 551 O 50.7036 4.77425 3.09927 0
M  V30 552 N 51.9056 3.5775 4.5716 0
M  V30 553 H 54.6706 2.94598 0.55066 0
M  V30 554 H 52.2316 1.61173 0.15323 0
M  V30 555 H 54.2236 2.64413 3.06378 0
M  V30 556 H 52.7936 1.66845 2.64351 0
M  V30 557 H 52.0136 3.73465 1.26165 0
M  V30 558 H 53.3016 4.65038 2.0644 0
M  V30 559 H 52.6996 3.00976 4.78989 0
M  V30 560 H 51.2566 3.78724 5.30482 0
M  V30 561 N 54.6897 -0.239769 1.55765 0
M  V30 562 C 56.1007 -0.808263 1.68297 0
M  V30 563 C 56.4517 -1.85736 0.632181 0
M  V30 564 O 55.5767 -2.15277 -0.220204 0
M  V30 565 C 56.1717 -1.47284 3.05111 0
M  V30 566 C 54.7307 -1.98895 3.19559 0
M  V30 567 C 53.8777 -0.842575 2.64189 0
M  V30 568 H 56.8287 -0.0154422 1.58692 0
M  V30 569 H 56.8497 -2.34111 2.99954 0
M  V30 570 H 56.3617 -0.709053 3.81568 0
M  V30 571 H 54.4627 -2.78132 2.47938 0
M  V30 572 H 54.5757 -2.18143 4.26556 0
M  V30 573 H 52.9397 -1.24501 2.22197 0
M  V30 574 H 53.7227 -0.0917552 3.43177 0
M  V30 575 N 56.1678 -1.49265 -0.50573 0
M  V30 576 C 57.5838 -1.35923 -0.836486 0
M  V30 577 C 57.7838 -0.388704 -1.97715 0
M  V30 578 O 56.8398 0.181336 -2.51848 0
M  V30 579 C 58.1528 -2.76531 -1.18115 0
M  V30 580 C 59.7008 -2.85197 -1.28964 0
M  V30 581 C 60.1758 -4.26561 -1.66761 0
M  V30 582 N 61.6668 -4.2935 -1.73819 0
M  V30 583 C 62.4018 -5.35693 -2.045 0
M  V30 584 N 61.8978 -6.52287 -2.33438 0
M  V30 585 N 63.6908 -5.23105 -2.05711 0
M  V30 586 H 55.8418 -2.10965 0.246519 0
M  V30 587 H 58.1048 -0.9468 0.0476887 0
M  V30 588 H 57.8108 -3.49226 -0.416398 0
M  V30 589 H 57.6848 -3.11599 -2.1257 0
M  V30 590 H 60.0718 -2.12742 -2.04511 0
M  V30 591 H 60.1528 -2.53718 -0.325704 0
M  V30 592 H 59.7968 -4.99541 -0.917656 0
M  V30 593 H 59.7268 -4.55502 -2.64246 0
M  V30 594 H 62.2178 -3.4526 -1.53635 0
M  V30 595 H 62.5308 -7.29158 -2.56024 0
M  V30 596 H 60.8758 -6.55521 -2.30905 0
M  V30 597 H 64.0668 -4.31026 -1.82577 0
M  V30 598 H 64.2398 -6.06078 -2.29289 0
M  V30 599 N 57.6459 0.756429 -1.3826 0
M  V30 600 C 58.8709 1.55077 -1.37717 0
M  V30 601 C 59.2959 1.88073 0.03164 0
M  V30 602 O 58.6539 1.50364 1.01293 0
M  V30 603 C 58.7019 2.8283 -2.23695 0
M  V30 604 O 57.8059 3.77862 -1.6521 0
M  V30 605 H 57.1469 0.469152 -0.469885 0
M  V30 606 H 59.6769 0.935019 -1.81985 0
M  V30 607 H 59.6869 3.31783 -2.37453 0
M  V30 608 H 58.3619 2.58144 -3.2609 0
M  V30 609 H 56.9389 3.36555 -1.60578 0
M  V30 610 N 59.124 1.23083 0.984299 0
M  V30 611 C 60.352 1.08714 1.76037 0
M  V30 612 C 60.767 -0.361691 1.85303 0
M  V30 613 O 60.124 -1.25034 1.32939 0
M  V30 614 C 60.175 1.70206 3.18923 0
M  V30 615 O 59.896 3.09423 3.10144 0
M  V30 616 C 61.397 1.61227 4.12941 0
M  V30 617 H 58.617 0.380664 0.552572 0
M  V30 618 H 61.161 1.62853 1.23689 0
M  V30 619 H 59.316 1.20109 3.6831 0
M  V30 620 H 59.73 3.39188 4.00065 0
M  V30 621 H 61.204 2.08962 5.10919 0
M  V30 622 H 61.681 0.570375 4.35481 0
M  V30 623 H 62.287 2.10671 3.69456 0
M  V30 624 N 60.6021 -1.18246 1.0419 0
M  V30 625 C 61.8481 -1.88536 0.747122 0
M  V30 626 C 62.1811 -1.80223 -0.723409 0
M  V30 627 O 61.4561 -1.20337 -1.52804 0
M  V30 628 C 61.7391 -3.38968 1.21544 0
M  V30 629 C 61.5921 -3.56084 2.74816 0
M  V30 630 C 62.9111 -4.32648 0.806482 0
M  V30 631 H 60.0301 -0.684619 0.272883 0
M  V30 632 H 62.6721 -1.39113 1.29413 0
M  V30 633 H 60.8221 -3.8119 0.750081 0
M  V30 634 H 62.4941 -3.22946 3.29399 0
M  V30 635 H 60.7371 -2.98699 3.14582 0
M  V30 636 H 61.4081 -4.61639 3.02644 0
M  V30 637 H 63.8841 -3.98211 1.20695 0
M  V30 638 H 62.7601 -5.36462 1.1619 0
M  V30 639 H 63.0211 -4.41146 -0.29029 0
M  V30 640 N 62.0802 -0.821533 -1.34494 0
M  V30 641 C 63.0102 -0.257138 -2.3208 0
M  V30 642 C 63.9912 0.625645 -1.58176 0
M  V30 643 O 65.1762 0.552811 -1.86166 0
M  V30 644 C 62.3062 0.582958 -3.42372 0
M  V30 645 C 61.2602 -0.202571 -4.2752 0
M  V30 646 C 60.5862 0.760179 -5.29269 0
M  V30 647 C 61.8862 -1.40998 -5.02908 0
M  V30 648 H 63.5802 -1.07247 -2.79532 0
M  V30 649 H 61.1262 -0.517163 -1.34393 0
M  V30 650 H 63.0792 0.987972 -4.09655 0
M  V30 651 H 61.8032 1.43133 -2.93565 0
M  V30 652 H 60.4622 -0.588936 -3.61838 0
M  V30 653 H 60.1102 1.60447 -4.76724 0
M  V30 654 H 59.8102 0.238809 -5.87115 0
M  V30 655 H 61.3342 1.16308 -5.9942 0
M  V30 656 H 62.7482 -1.07905 -5.63054 0
M  V30 657 H 61.1452 -1.86689 -5.70322 0
M  V30 658 H 62.2152 -2.1889 -4.32684 0
M  V30 659 N 63.5583 1.46682 -0.576371 0
M  V30 660 C 64.5213 2.28707 0.150239 0
M  V30 661 C 65.5213 1.38035 0.824794 0
M  V30 662 O 66.7113 1.60476 0.677719 0
M  V30 663 C 63.8433 3.18248 1.22192 0
M  V30 664 H 65.0363 2.94423 -0.570521 0
M  V30 665 H 62.5893 1.52688 -0.334078 0
M  V30 666 H 63.3243 2.57265 1.97447 0
M  V30 667 H 63.1093 3.85 0.742812 0
M  V30 668 H 64.5993 3.80001 1.73172 0
M  V30 669 N 65.0364 0.313813 1.54444 0
M  V30 670 C 66.4474 -0.176243 1.85866 0
M  V30 671 C 66.7984 -1.52405 1.23561 0
M  V30 672 O 65.9234 -2.09605 0.538016 0
M  V30 673 C 66.5184 -0.32657 3.37222 0
M  V30 674 C 65.0774 -0.760846 3.6863 0
M  V30 675 C 64.2244 0.123247 2.77026 0
M  V30 676 H 67.1754 0.534418 1.49431 0
M  V30 677 H 67.1964 -1.15908 3.62416 0
M  V30 678 H 66.7084 0.654531 3.82541 0
M  V30 679 H 64.8094 -1.75204 3.28838 0
M  V30 680 H 64.9224 -0.571353 4.75681 0
M  V30 681 H 63.2864 -0.399597 2.51546 0
M  V30 682 H 64.0694 1.10094 3.25168 0
M  V30 683 N 66.5145 -1.57545 0.0417849 0
M  V30 684 C 67.7425 -1.96624 -0.643928 0
M  V30 685 C 68.1575 -0.918897 -1.64929 0
M  V30 686 O 67.5145 0.0979323 -1.82237 0
M  V30 687 C 67.5655 -3.35781 -1.33914 0
M  V30 688 O 67.2865 -4.365 -0.374048 0
M  V30 689 C 68.7875 -3.89566 -2.1155 0
M  V30 690 H 66.0075 -0.647316 -0.176702 0
M  V30 691 H 68.5515 -2.04229 0.105304 0
M  V30 692 H 66.7065 -3.29357 -2.03968 0
M  V30 693 H 67.1205 -5.17248 -0.869179 0
M  V30 694 H 68.5945 -4.89242 -2.55628 0
M  V30 695 H 69.0715 -3.24488 -2.9598 0
M  V30 696 H 69.6775 -3.99298 -1.46427 0
M  V30 697 N 67.9926 0.231505 -1.5589 0
M  V30 698 C 69.2206 0.974505 -1.82513 0
M  V30 699 C 69.6356 1.78344 -0.619591 0
M  V30 700 O 68.9926 1.77792 0.411848 0
M  V30 701 C 69.0436 1.90007 -3.07538 0
M  V30 702 O 68.7646 1.12385 -4.2344 0
M  V30 703 C 70.2656 2.75779 -3.47075 0
M  V30 704 H 67.4856 0.286065 -0.606966 0
M  V30 705 H 70.0296 0.249739 -2.02969 0
M  V30 706 H 68.1846 2.57891 -2.89086 0
M  V30 707 H 68.5986 1.75125 -4.944 0
M  V30 708 H 70.0726 3.36443 -4.37619 0
M  V30 709 H 70.5496 3.47672 -2.68367 0
M  V30 710 H 71.1556 2.13323 -3.67931 0
M  V30 711 N 69.4707 1.49531 0.497807 0
M  V30 712 C 70.7167 1.59415 1.25358 0
M  V30 713 C 71.0497 0.281422 1.9215 0
M  V30 714 O 70.3247 -0.715249 1.80871 0
M  V30 715 C 70.6077 2.75566 2.3181 0
M  V30 716 C 70.4607 4.16642 1.69498 0
M  V30 717 C 71.7797 2.87347 3.33346 0
M  V30 718 H 68.8987 0.580244 0.454408 0
M  V30 719 H 71.5407 1.81827 0.551262 0
M  V30 720 H 69.6907 2.56587 2.91711 0
M  V30 721 H 71.3627 4.47145 1.13399 0
M  V30 722 H 69.6057 4.22141 0.998978 0
M  V30 723 H 70.2767 4.93792 2.46725 0
M  V30 724 H 72.7527 3.04634 2.83438 0
M  V30 725 H 71.6287 3.70289 4.05188 0
M  V30 726 H 71.8897 1.96834 3.95865 0
M  V30 727 N 70.9488 -0.749086 1.3866 0
M  V30 728 C 72.1948 -1.51056 1.35314 0
M  V30 729 C 72.5278 -1.94121 -0.0553751 0
M  V30 730 O 71.8028 -1.65763 -1.01749 0
M  V30 731 C 72.0858 -2.76003 2.31288 0
M  V30 732 C 71.9388 -2.39047 3.8102 0
M  V30 733 C 73.2578 -3.78046 2.2532 0
M  V30 734 H 70.3768 -0.547972 0.492844 0
M  V30 735 H 73.0188 -0.857628 1.69543 0
M  V30 736 H 71.1688 -3.31716 2.02229 0
M  V30 737 H 72.8408 -1.89074 4.20771 0
M  V30 738 H 71.0838 -1.71449 3.98482 0
M  V30 739 H 71.7548 -3.28462 4.4364 0
M  V30 740 H 74.2308 -3.31884 2.50983 0
M  V30 741 H 73.1068 -4.63159 2.94576 0
M  V30 742 H 73.3678 -4.23957 1.25352 0
M  V30 743 N 72.4269 -1.23603 -0.977757 0
M  V30 744 C 73.6549 -1.09646 -1.75458 0
M  V30 745 C 74.0699 0.351859 -1.85492 0
M  V30 746 O 73.4269 1.24327 -1.336 0
M  V30 747 C 73.4779 -1.71895 -3.18016 0
M  V30 748 O 73.1989 -3.11063 -3.08498 0
M  V30 749 C 74.6999 -1.63415 -4.12081 0
M  V30 750 H 71.9199 -0.38359 -0.550545 0
M  V30 751 H 74.4639 -1.63507 -1.22824 0
M  V30 752 H 72.6189 -1.22061 -3.67668 0
M  V30 753 H 73.0329 -3.41305 -3.9826 0
M  V30 754 H 74.5069 -2.11669 -5.09804 0
M  V30 755 H 74.9839 -0.593462 -4.35172 0
M  V30 756 H 75.5899 -2.12628 -3.68334 0
M  V30 757 N 73.905 1.17692 -1.04816 0
M  V30 758 C 75.321 1.39863 -0.768794 0
M  V30 759 C 75.521 1.91118 0.638451 0
M  V30 760 O 74.577 2.10036 1.40146 0
M  V30 761 C 75.89 2.39274 -1.82122 0
M  V30 762 C 77.438 2.52987 -1.843 0
M  V30 763 C 77.913 3.55669 -2.88555 0
M  V30 764 N 79.404 3.63183 -2.87493 0
M  V30 765 C 80.139 4.42381 -3.64811 0
M  V30 766 N 79.635 5.25125 -4.51903 0
M  V30 767 N 81.428 4.37217 -3.53267 0
M  V30 768 H 73.579 0.82752 -1.95617 0
M  V30 769 H 75.842 0.426123 -0.846831 0
M  V30 770 H 75.548 2.08678 -2.83102 0
M  V30 771 H 75.422 3.38725 -1.65967 0
M  V30 772 H 77.809 2.82896 -0.839869 0
M  V30 773 H 77.89 1.53623 -2.04532 0
M  V30 774 H 77.534 3.26499 -3.89051 0
M  V30 775 H 77.464 4.54728 -2.65575 0
M  V30 776 H 79.955 3.04103 -2.24343 0
M  V30 777 H 80.268 5.82728 -5.07591 0
M  V30 778 H 78.613 5.24519 -4.55966 0
M  V30 779 H 81.804 3.71626 -2.84625 0
M  V30 780 H 81.977 4.98696 -4.13771 0
M  V30 781 N 75.3831 0.828654 1.34056 0
M  V30 782 C 76.3151 0.212052 2.28217 0
M  V30 783 C 77.3281 -0.601362 1.51286 0
M  V30 784 O 78.5171 -0.430104 1.73241 0
M  V30 785 C 75.6171 -0.72088 3.31144 0
M  V30 786 C 74.7901 0.0509587 4.3737 0
M  V30 787 C 73.8491 -0.803766 5.20025 0
M  V30 788 O 72.8751 -0.246667 5.68665 0
M  V30 789 N 74.0771 -2.1227 5.40298 0
M  V30 790 H 76.8421 1.02105 2.81771 0
M  V30 791 H 74.4031 0.686153 1.46641 0
M  V30 792 H 76.3951 -1.29742 3.8334 0
M  V30 793 H 74.9651 -1.43061 2.77943 0
M  V30 794 H 74.1851 0.808831 3.85813 0
M  V30 795 H 75.4731 0.582065 5.0546 0
M  V30 796 H 74.8711 -2.59898 5.02464 0
M  V30 797 H 73.4281 -2.64796 5.95589 0
M  V30 798 N 76.8612 -1.46375 0.584142 0
M  V30 799 C 78.1382 -1.956 0.0033388 0
M  V30 800 C 78.5182 -1.52679 -1.45782 0
M  V30 801 O 77.8662 -0.77816 -2.14842 0
M  V30 802 C 78.0762 -3.48551 0.176891 0
M  V30 803 C 79.4242 -4.24576 0.0454609 0
M  V30 804 O 80.4482 -3.56043 0.105801 0
M  V30 805 O 79.3072 -5.46427 -0.0890376 0
M  V30 806 H 76.4012 -0.825547 -0.0490066 0
M  V30 807 H 78.9472 -1.56652 0.65256 0
M  V30 808 H 77.7192 -3.72683 1.1926 0
M  V30 809 H 77.3422 -3.94332 -0.508695 0
M  V30 810 N 78.3393 -0.321999 -1.54275 0
M  V30 811 C 79.5883 0.281931 -1.9972 0
M  V30 812 C 79.9013 1.53369 -1.21397 0
M  V30 813 O 81.1073 2.21352 -1.57211 0
M  V30 814 C 79.5633 0.5529 -3.55628 0
M  V30 815 C 79.1713 -0.681721 -4.42783 0
M  V30 816 C 80.9153 1.11687 -4.09544 0
M  V30 817 C 78.8223 -0.382742 -5.9016 0
M  V30 818 H 77.7523 0.109124 -0.746062 0
M  V30 819 H 80.4033 -0.43398 -1.78294 0
M  V30 820 H 78.7853 1.32896 -3.73035 0
M  V30 821 H 79.9593 -1.45723 -4.37151 0
M  V30 822 H 78.2743 -1.1658 -3.99748 0
M  V30 823 H 80.8713 1.35515 -5.17242 0
M  V30 824 H 81.2143 2.06575 -3.61431 0
M  V30 825 H 81.7473 0.402032 -3.95763 0
M  V30 826 H 78.4863 -1.30076 -6.42464 0
M  V30 827 H 78.0063 0.355094 -5.98748 0
M  V30 828 H 79.6853 0.00800157 -6.47 0
M  V30 829 N 79.8174 1.5752 -0.0501392 0
M  V30 830 C 81.0944 1.83996 0.663685 0
M  V30 831 C 81.4744 0.938339 1.89099 0
M  V30 832 O 80.8224 -0.00087759 2.285 0
M  V30 833 C 81.0324 3.33702 1.02196 0
M  V30 834 C 82.3804 4.00691 1.40469 0
M  V30 835 O 83.4044 3.38321 1.11433 0
M  V30 836 O 82.2634 5.10658 1.94654 0
M  V30 837 H 79.3574 0.759385 0.32751 0
M  V30 838 H 81.9034 1.69514 -0.0794238 0
M  V30 839 H 80.6754 3.91015 0.149364 0
M  V30 840 H 80.2984 3.53368 1.82255 0
M  V30 841 N 81.2955 -0.223234 1.56011 0
M  V30 842 C 82.7115 -0.572856 1.48965 0
M  V30 843 C 82.9115 -1.87225 0.74492 0
M  V30 844 O 81.9675 -2.50899 0.283896 0
M  V30 845 C 83.2805 -0.653646 2.9351 0
M  V30 846 C 84.8285 -0.744386 3.0402 0
M  V30 847 C 85.3035 -0.856535 4.49919 0
M  V30 848 N 86.7945 -0.9208 4.53955 0
M  V30 849 C 87.5295 -1.02726 5.64123 0
M  V30 850 N 87.0255 -1.09777 6.84047 0
M  V30 851 N 88.8185 -1.06226 5.51971 0
M  V30 852 H 80.9695 0.629462 2.02858 0
M  V30 853 H 83.2325 0.220621 0.921971 0
M  V30 854 H 82.9385 0.231518 3.50937 0
M  V30 855 H 82.8125 -1.51781 3.45315 0
M  V30 856 H 85.1995 -1.61999 2.46658 0
M  V30 857 H 85.2805 0.14541 2.55386 0
M  V30 858 H 84.9245 0.0146069 5.07898 0
M  V30 859 H 84.8545 -1.76172 4.96257 0
M  V30 860 H 87.3455 -0.876694 3.6759 0
M  V30 861 H 87.6585 -1.17872 7.63758 0
M  V30 862 H 86.0035 -1.06693 6.86762 0
M  V30 863 H 89.1945 -1.00382 4.5721 0
M  V30 864 H 89.3675 -1.14177 6.37862 0
M  V30 865 N 82.7736 -1.49793 -0.48987 0
M  V30 866 C 84.0196 -1.61049 -1.24236 0
M  V30 867 C 84.3746 -0.298412 -1.90072 0
M  V30 868 O 83.6676 0.702262 -1.78266 0
M  V30 869 C 83.8616 -2.71488 -2.32441 0
M  V30 870 C 83.6906 -4.13308 -1.77218 0
M  V30 871 C 82.4606 -4.79955 -1.58023 0
M  V30 872 C 84.6586 -4.98176 -1.27772 0
M  V30 873 N 82.6406 -6.06052 -0.978465 0
M  V30 874 C 84.0116 -6.14843 -0.798 0
M  V30 875 C 86.0666 -4.84091 -1.16449 0
M  V30 876 C 84.7696 -7.18975 -0.216245 0
M  V30 877 C 86.7956 -5.88382 -0.596698 0
M  V30 878 C 86.1576 -7.04285 -0.127262 0
M  V30 879 H 82.2566 -0.643611 -0.444172 0
M  V30 880 H 84.8406 -1.86842 -0.54754 0
M  V30 881 H 83.0116 -2.47449 -2.99372 0
M  V30 882 H 84.7436 -2.72205 -2.99477 0
M  V30 883 H 81.4986 -4.36936 -1.82712 0
M  V30 884 H 81.9226 -6.73407 -0.696534 0
M  V30 885 H 86.5646 -3.94786 -1.5134 0
M  V30 886 H 84.2826 -8.0797 0.144903 0
M  V30 887 H 87.8686 -5.79545 -0.511716 0
M  V30 888 H 86.7486 -7.83606 0.30523 0
M  V30 889 N 84.2517 0.741722 -1.39055 0
M  V30 890 C 85.1837 1.8657 -1.33133 0
M  V30 891 C 86.1967 1.61001 -0.241329 0
M  V30 892 O 87.3857 1.7136 -0.499784 0
M  V30 893 C 84.4857 3.22457 -1.04283 0
M  V30 894 C 83.6587 3.75435 -2.24427 0
M  V30 895 C 82.7177 4.89867 -1.92138 0
M  V30 896 O 81.7437 5.03879 -2.64754 0
M  V30 897 N 82.9457 5.73738 -0.88347 0
M  V30 898 H 85.7107 1.92156 -2.29991 0
M  V30 899 H 83.2717 0.922172 -1.3307 0
M  V30 900 H 85.2637 3.9657 -0.807128 0
M  V30 901 H 83.8337 3.12181 -0.161807 0
M  V30 902 H 83.0537 2.92751 -2.6399 0
M  V30 903 H 84.3417 4.07563 -3.04581 0
M  V30 904 H 83.7397 5.64999 -0.281517 0
M  V30 905 H 82.2967 6.47947 -0.707662 0
M  V30 906 N 85.7298 1.2412 0.971189 0
M  V30 907 C 86.9548 1.10667 1.75407 0
M  V30 908 C 87.3798 -0.337048 1.85056 0
M  V30 909 O 86.7378 -1.24396 1.31892 0
M  V30 910 C 86.7858 1.74726 3.15441 0
M  V30 911 O 85.8898 1.01566 3.99697 0
M  V30 912 H 85.2308 0.387341 0.539317 0
M  V30 913 H 87.7608 1.64358 1.2185 0
M  V30 914 H 87.7708 1.80341 3.6598 0
M  V30 915 H 86.4458 2.79773 3.07734 0
M  V30 916 H 85.0228 1.03713 3.58187 0
M  V30 917 N 87.2079 -1.17134 1.05439 0
M  V30 918 C 88.4359 -1.91372 0.786414 0
M  V30 919 C 88.8509 -1.76955 -0.658202 0
M  V30 920 O 88.2079 -1.10838 -1.44987 0
M  V30 921 C 88.2589 -3.42356 1.1608 0
M  V30 922 O 87.9799 -3.56332 2.54871 0
M  V30 923 C 89.4809 -4.33663 0.919322 0
M  V30 924 H 86.7009 -0.607118 0.285743 0
M  V30 925 H 89.2449 -1.48525 1.40572 0
M  V30 926 H 87.3999 -3.82939 0.586191 0
M  V30 927 H 87.8139 -4.49896 2.69618 0
M  V30 928 H 89.2879 -5.38099 1.231 0
M  V30 929 H 89.7649 -4.38959 -0.145359 0
M  V30 930 H 90.3709 -3.98796 1.47789 0
M  V30 931 N 88.686 -0.835752 -1.33615 0
M  V30 932 C 89.911 -0.442389 -2.02627 0
M  V30 933 C 90.336 0.947735 -1.62479 0
M  V30 934 O 89.694 1.61907 -0.815826 0
M  V30 935 C 89.742 -0.567216 -3.56111 0
M  V30 936 O 88.846 0.407799 -4.10379 0
M  V30 937 H 88.187 -0.180278 -0.639059 0
M  V30 938 H 90.717 -1.12972 -1.70583 0
M  V30 939 H 90.727 -0.447708 -4.05536 0
M  V30 940 H 89.402 -1.58103 -3.84677 0
M  V30 941 H 87.979 0.246107 -3.72087 0
M  V30 942 N 90.1641 1.46063 -0.591896 0
M  V30 943 C 91.4101 2.02638 -0.0811191 0
M  V30 944 C 91.7431 1.4613 1.27905 0
M  V30 945 O 91.0181 0.629908 1.84017 0
M  V30 946 C 91.3011 3.60091 -0.0252436 0
M  V30 947 C 91.1541 4.26965 -1.41496 0
M  V30 948 C 92.4731 4.3496 0.670685 0
M  V30 949 H 89.5921 0.73635 -0.0309524 0
M  V30 950 H 92.2341 1.741 -0.760859 0
M  V30 951 H 90.3841 3.84535 0.553624 0
M  V30 952 H 92.0561 4.13756 -2.0397 0
M  V30 953 H 90.2991 3.85971 -1.98011 0
M  V30 954 H 90.9701 5.35781 -1.32825 0
M  V30 955 H 93.4461 4.15716 0.178825 0
M  V30 956 H 92.3221 5.44686 0.678837 0
M  V30 957 H 92.5831 4.06685 1.73379 0
M  V30 958 N 91.6422 0.330177 1.54103 0
M  V30 959 C 92.5902 -0.548226 2.26047 0
M  V30 960 C 93.5842 -1.11309 1.27698 0
M  V30 961 O 94.7902 -1.06036 1.45452 0
M  V30 962 H 91.1652 -0.195456 0.726155 0
M  V30 963 H 93.1362 0.0807567 2.98291 0
M  V30 964 C 91.8852 -1.69415 3.03634 0
M  V30 965 H 91.2082 -1.26876 3.79134 0
M  V30 966 H 92.6482 -2.28423 3.5721 0
M  V30 967 C 91.1072 -2.61569 2.12328 0
M  V30 968 O 91.6372 -3.63462 1.7105 0
M  V30 969 N 89.8432 -2.29952 1.77681 0
M  V30 970 H 89.3902 -1.47134 2.11446 0
M  V30 971 H 89.3482 -2.91871 1.16869 0
M  V30 972 N 93.1203 -1.57491 0.0584922 0
M  V30 973 C 94.3973 -1.84346 -0.653918 0
M  V30 974 C 94.7773 -0.948355 -1.88599 0
M  V30 975 O 94.1253 -0.0112403 -2.28497 0
M  V30 976 C 94.3353 -3.34239 -1.00425 0
M  V30 977 C 95.6833 -4.01431 -1.38342 0
M  V30 978 O 96.7073 -3.38907 -1.09637 0
M  V30 979 O 95.5663 -5.11683 -1.91943 0
M  V30 980 H 92.6603 -0.761112 -0.323478 0
M  V30 981 H 95.2063 -1.6947 0.0884125 0
M  V30 982 H 93.9783 -3.91089 -0.128625 0
M  V30 983 H 93.6013 -3.54329 -1.80378 0
M  V30 984 N 94.5984 0.214957 -1.56127 0
M  V30 985 C 95.8444 0.939762 -1.79712 0
M  V30 986 C 96.1774 1.83723 -0.629247 0
M  V30 987 O 95.4524 1.90925 0.371197 0
M  V30 988 C 95.7354 1.77306 -3.13424 0
M  V30 989 C 95.5884 0.90164 -4.40671 0
M  V30 990 C 96.9074 2.74956 -3.43638 0
M  V30 991 H 94.0264 0.340214 -0.653776 0
M  V30 992 H 96.6684 0.20824 -1.88855 0
M  V30 993 H 94.8184 2.39673 -3.0576 0
M  V30 994 H 96.4904 0.294206 -4.60361 0
M  V30 995 H 94.7334 0.207368 -4.33304 0
M  V30 996 H 95.4044 1.51923 -5.30682 0
M  V30 997 H 97.8804 2.22724 -3.51473 0
M  V30 998 H 96.7564 3.30358 -4.38355 0
M  V30 999 H 97.0174 3.53023 -2.66134 0
M  V30 1000 N 96.0765 1.50051 0.48192 0
M  V30 1001 C 97.0065 1.71046 1.58951 0
M  V30 1002 C 97.9875 0.559288 1.60642 0
M  V30 1003 O 99.1725 0.797243 1.77081 0
M  V30 1004 C 96.3025 1.79462 2.97339 0
M  V30 1005 C 95.2565 2.94558 3.10515 0
M  V30 1006 C 94.5825 2.88105 4.50444 0
M  V30 1007 C 95.8825 4.35227 2.88747 0
M  V30 1008 H 97.5765 2.6378 1.41635 0
M  V30 1009 H 95.1225 1.26936 0.679942 0
M  V30 1010 H 97.0755 1.92734 3.74742 0
M  V30 1011 H 95.7995 0.833412 3.15788 0
M  V30 1012 H 94.4585 2.80918 2.35543 0
M  V30 1013 H 94.1065 1.89853 4.65795 0
M  V30 1014 H 93.8065 3.65366 4.60197 0
M  V30 1015 H 95.3305 3.03412 5.29881 0
M  V30 1016 H 96.7445 4.49449 3.55905 0
M  V30 1017 H 95.1415 5.13856 3.09955 0
M  V30 1018 H 96.2115 4.48347 1.84696 0
M  V30 1019 N 97.5546 -0.734337 1.39446 0
M  V30 1020 C 98.9706 -1.03997 1.21065 0
M  V30 1021 C 99.1706 -2.01369 0.0727019 0
M  V30 1022 O 98.2266 -2.45856 -0.575426 0
M  V30 1023 C 99.5396 -1.60163 2.54496 0
M  V30 1024 C 101.088 -1.7224 2.61347 0
M  V30 1025 C 101.563 -2.31814 3.95002 0
M  V30 1026 N 103.054 -2.39223 3.96644 0
M  V30 1027 C 103.789 -2.86258 4.96834 0
M  V30 1028 N 103.285 -3.33184 6.07421 0
M  V30 1029 N 105.078 -2.85473 4.84213 0
M  V30 1030 H 97.2286 -0.0885624 2.12215 0
M  V30 1031 H 99.4916 -0.10191 0.942506 0
M  V30 1032 H 99.1976 -0.960811 3.38321 0
M  V30 1033 H 99.0716 -2.5896 2.74262 0
M  V30 1034 H 101.459 -2.35443 1.77906 0
M  V30 1035 H 101.54 -0.720939 2.4543 0
M  V30 1036 H 101.184 -1.69238 4.78875 0
M  V30 1037 H 101.114 -3.32638 4.08239 0
M  V30 1038 H 103.605 -2.06057 3.16779 0
M  V30 1039 H 103.918 -3.67586 6.7978 0
M  V30 1040 H 102.263 -3.31191 6.11013 0
M  V30 1041 H 105.454 -2.48136 3.96921 0
M  V30 1042 H 105.627 -3.21814 5.62441 0
M  V30 1043 N 99.0327 -1.24633 -0.964593 0
M  V30 1044 C 100.449 -1.01239 -1.2338 0
M  V30 1045 C 100.649 0.2769 -1.99588 0
M  V30 1046 O 99.7047 0.992241 -2.32187 0
M  V30 1047 C 101.018 -2.22937 -2.01791 0
M  V30 1048 C 102.566 -2.27594 -2.14872 0
M  V30 1049 C 103.041 -3.48921 -2.96678 0
M  V30 1050 N 104.532 -3.49257 -3.04259 0
M  V30 1051 C 105.267 -4.39795 -3.67924 0
M  V30 1052 N 104.763 -5.40591 -4.33281 0
M  V30 1053 N 106.556 -4.275 -3.64966 0
M  V30 1054 H 98.7067 -2.0748 -0.454502 0
M  V30 1055 H 100.97 -0.910647 -0.26349 0
M  V30 1056 H 100.676 -3.16587 -1.53184 0
M  V30 1057 H 100.55 -2.25306 -3.02518 0
M  V30 1058 H 102.937 -1.34473 -2.6268 0
M  V30 1059 H 103.018 -2.2925 -1.13482 0
M  V30 1060 H 102.662 -4.42359 -2.49562 0
M  V30 1061 H 102.592 -3.4451 -3.98272 0
M  V30 1062 H 105.083 -2.76337 -2.57771 0
M  V30 1063 H 105.396 -6.05904 -4.79687 0
M  V30 1064 H 103.741 -5.44475 -4.3194 0
M  V30 1065 H 106.932 -3.47987 -3.13086 0
M  V30 1066 H 107.105 -4.98258 -4.14298 0
M  V30 1067 N 100.511 1.16574 -1.06058 0
M  V30 1068 C 101.441 2.23057 -0.690488 0
M  V30 1069 C 102.422 1.67141 0.315901 0
M  V30 1070 O 103.607 1.93253 0.191556 0
M  V30 1071 C 100.737 3.47222 -0.073625 0
M  V30 1072 C 99.6908 4.16016 -1.00573 0
M  V30 1073 C 99.0168 5.34104 -0.252289 0
M  V30 1074 C 100.317 4.67264 -2.33371 0
M  V30 1075 H 102.011 2.54271 -1.58072 0
M  V30 1076 H 99.5568 1.22218 -0.76149 0
M  V30 1077 H 101.51 4.20939 0.19714 0
M  V30 1078 H 100.234 3.15302 0.85161 0
M  V30 1079 H 98.8928 3.44223 -1.2612 0
M  V30 1080 H 98.5408 4.98437 0.675988 0
M  V30 1081 H 98.2408 5.81072 -0.873455 0
M  V30 1082 H 99.7648 6.10599 0.0109857 0
M  V30 1083 H 101.179 5.32573 -2.12223 0
M  V30 1084 H 99.5758 5.24843 -2.90963 0
M  V30 1085 H 100.646 3.83602 -2.96611 0
M  V30 1086 N 101.989 0.842826 1.3317 0
M  V30 1087 C 103.4 0.496651 1.79973 0
M  V30 1088 C 103.751 -0.984641 1.69703 0
M  V30 1089 O 102.876 -1.76743 1.24863 0
M  V30 1090 C 103.471 0.894727 3.26772 0
M  V30 1091 C 102.03 0.600629 3.71577 0
M  V30 1092 C 101.177 1.10091 2.5451 0
M  V30 1093 H 104.128 1.03116 1.20635 0
M  V30 1094 H 104.149 0.206347 3.7994 0
M  V30 1095 H 103.661 1.97287 3.34215 0
M  V30 1096 H 101.762 -0.467284 3.69658 0
M  V30 1097 H 101.875 1.15863 4.64879 0
M  V30 1098 H 100.239 0.52162 2.49301 0
M  V30 1099 H 101.022 2.18591 2.64713 0
M  V30 1100 N 103.467 -1.45747 0.599634 0
M  V30 1101 C 104.715 -2.01893 0.0915472 0
M  V30 1102 C 105.036 -1.47155 -1.27946 0
M  V30 1103 O 104.306 -0.66273 -1.84349 0
M  V30 1104 H 102.886 -0.746363 0.0308524 0
M  V30 1105 H 105.548 -1.78645 0.779237 0
M  V30 1106 H 104.644 -3.1208 0.0353086 0
M  V30 1107 N 104.945 -0.338344 -1.53925 0
M  V30 1108 C 106.191 0.260143 -2.01125 0
M  V30 1109 C 106.524 1.50617 -1.22589 0
M  V30 1110 O 105.799 1.91979 -0.312113 0
M  V30 1111 C 106.082 0.579499 -3.55407 0
M  V30 1112 C 105.935 -0.678264 -4.44657 0
M  V30 1113 C 107.254 1.39122 -4.17532 0
M  V30 1114 H 104.373 0.0930772 -0.731099 0
M  V30 1115 H 107.015 -0.457852 -1.84401 0
M  V30 1116 H 105.165 1.19118 -3.69788 0
M  V30 1117 H 106.837 -1.31631 -4.42121 0
M  V30 1118 H 105.08 -1.3042 -4.13731 0
M  V30 1119 H 105.751 -0.410143 -5.50474 0
M  V30 1120 H 108.227 0.874035 -4.06817 0
M  V30 1121 H 107.103 1.58342 -5.25565 0
M  V30 1122 H 107.364 2.39178 -3.71815 0
M  V30 1123 N 106.423 1.57458 -0.0668435 0
M  V30 1124 C 107.7 1.8469 0.644132 0
M  V30 1125 C 108.08 0.958343 1.88093 0
M  V30 1126 O 107.428 0.0233579 2.28488 0
M  V30 1127 C 107.638 3.34767 0.986509 0
M  V30 1128 C 108.986 4.02159 1.36212 0
M  V30 1129 O 110.01 3.39484 1.07839 0
M  V30 1130 O 108.869 5.12694 1.89227 0
M  V30 1131 H 105.963 0.762816 0.319437 0
M  V30 1132 H 108.509 1.6942 -0.0973986 0
M  V30 1133 H 107.281 3.91151 0.107883 0
M  V30 1134 H 106.904 3.55281 1.78497 0
M  V30 1135 N 107.901 -0.206675 1.56239 0
M  V30 1136 C 109.15 -0.926964 1.79138 0
M  V30 1137 C 109.463 -1.84901 0.638043 0
M  V30 1138 O 110.669 -2.60906 0.751033 0
M  V30 1139 C 109.125 -1.6986 3.17294 0
M  V30 1140 C 108.733 -0.821956 4.40395 0
M  V30 1141 C 110.477 -2.40922 3.4951 0
M  V30 1142 C 108.384 -1.59179 5.69575 0
M  V30 1143 H 107.314 -0.349864 0.667915 0
M  V30 1144 H 109.965 -0.180487 1.8261 0
M  V30 1145 H 108.347 -2.48853 3.08039 0
M  V30 1146 H 109.521 -0.0715019 4.60745 0
M  V30 1147 H 107.836 -0.222741 4.15804 0
M  V30 1148 H 110.433 -2.99047 4.43255 0
M  V30 1149 H 110.776 -3.14542 2.72707 0
M  V30 1150 H 111.309 -1.68905 3.60161 0
M  V30 1151 H 108.048 -0.898589 6.49312 0
M  V30 1152 H 107.568 -2.31648 5.53262 0
M  V30 1153 H 109.247 -2.14862 6.10281 0
M  V30 1154 N 109.379 -1.50304 -0.473955 0
M  V30 1155 C 110.607 -1.64902 -1.24959 0
M  V30 1156 C 111.022 -0.331198 -1.85872 0
M  V30 1157 O 110.379 0.68652 -1.69095 0
M  V30 1158 C 110.43 -2.73803 -2.36038 0
M  V30 1159 O 110.151 -4.00477 -1.77624 0
M  V30 1160 C 111.652 -2.99349 -3.26964 0
M  V30 1161 H 108.872 -0.554383 -0.378022 0
M  V30 1162 H 111.416 -1.9651 -0.566054 0
M  V30 1163 H 109.571 -2.44898 -3.00173 0
M  V30 1164 H 109.985 -4.60678 -2.5075 0
M  V30 1165 H 111.459 -3.79217 -4.01121 0
M  V30 1166 H 111.936 -2.10307 -3.85574 0
M  V30 1167 H 112.542 -3.29774 -2.68569 0
M  V30 1168 N 110.857 0.726932 -1.39834 0
M  V30 1169 C 111.789 1.85147 -1.35104 0
M  V30 1170 C 112.802 1.60736 -0.258392 0
M  V30 1171 O 113.991 1.70821 -0.517931 0
M  V30 1172 C 111.091 3.21332 -1.07697 0
M  V30 1173 C 110.264 3.73033 -2.28396 0
M  V30 1174 C 109.323 4.87802 -1.97322 0
M  V30 1175 O 108.349 5.01043 -2.70083 0
M  V30 1176 N 109.551 5.72768 -0.944273 0
M  V30 1177 H 112.316 1.89706 -2.32017 0
M  V30 1178 H 109.877 0.908006 -1.3404 0
M  V30 1179 H 111.869 3.95691 -0.849144 0
M  V30 1180 H 110.439 3.11992 -0.194909 0
M  V30 1181 H 109.659 2.89934 -2.6708 0
M  V30 1182 H 110.947 4.0431 -3.08887 0
M  V30 1183 H 110.345 5.64669 -0.341427 0
M  V30 1184 H 108.902 6.4716 -0.776346 0
M  V30 1185 N 112.336 1.25143 0.95797 0
M  V30 1186 C 113.284 1.05019 2.07542 0
M  V30 1187 C 114.278 -0.0178751 1.69391 0
M  V30 1188 O 115.484 0.137472 1.79474 0
M  V30 1189 H 111.859 0.32265 0.679265 0
M  V30 1190 H 113.83 1.99759 2.21673 0
M  V30 1191 C 112.579 0.682074 3.40944 0
M  V30 1192 H 111.902 1.49573 3.70767 0
M  V30 1193 H 113.342 0.580945 4.20001 0
M  V30 1194 C 111.801 -0.611608 3.31302 0
M  V30 1195 O 112.331 -1.65465 3.66038 0
M  V30 1196 N 110.537 -0.595982 2.84423 0
M  V30 1197 H 110.084 0.253192 2.56353 0
M  V30 1198 H 110.042 -1.46173 2.78354 0
M  V30 1199 N 113.814 -1.1601 1.06675 0
M  V30 1200 C 115.062 -1.86264 0.784229 0
M  V30 1201 C 115.383 -1.82328 -0.691488 0
M  V30 1202 O 114.653 -1.25947 -1.50047 0
M  V30 1203 H 113.233 -0.689621 0.28711 0
M  V30 1204 H 115.895 -1.40664 1.34906 0
M  V30 1205 H 114.991 -2.91595 1.11259 0
M  V30 1206 N 115.292 -0.849877 -1.32721 0
M  V30 1207 C 116.54 -0.450032 -1.97026 0
M  V30 1208 C 116.861 0.996604 -1.67609 0
M  V30 1209 O 116.131 1.6958 -0.980786 0
M  V30 1210 H 114.711 -0.163426 -0.728904 0
M  V30 1211 H 117.373 -1.08526 -1.6189 0
M  V30 1212 H 116.469 -0.591146 -3.0645 0
M  V30 1213 N 116.77 1.45427 -0.607355 0
M  V30 1214 C 117.995 2.07124 -0.107006 0
M  V30 1215 C 118.42 1.44906 1.19933 0
M  V30 1216 O 117.778 0.541687 1.73019 0
M  V30 1217 C 117.826 3.60595 0.0194119 0
M  V30 1218 O 116.93 3.98285 1.0697 0
M  V30 1219 H 116.271 0.659868 -0.0739597 0
M  V30 1220 H 118.801 1.86683 -0.837297 0
M  V30 1221 H 118.811 4.07419 0.2177 0
M  V30 1222 H 117.486 4.05266 -0.934453 0
M  V30 1223 H 116.063 3.63133 0.847889 0
M  V30 1224 N 118.248 0.346503 1.53744 0
M  V30 1225 C 119.496 -0.248612 2.00565 0
M  V30 1226 C 119.817 -1.5083 1.23593 0
M  V30 1227 O 119.087 -1.92858 0.343912 0
M  V30 1228 H 117.667 -0.0948564 0.740953 0
M  V30 1229 H 120.329 0.468341 1.89189 0
M  V30 1230 H 119.425 -0.488994 3.08245 0
M  V30 1231 N 119.726 -1.57421 0.075193 0
M  V30 1232 C 120.658 -2.09904 -0.920483 0
M  V30 1233 C 121.671 -1.03191 -1.25918 0
M  V30 1234 O 122.86 -1.30695 -1.21577 0
M  V30 1235 C 119.96 -2.54726 -2.23534 0
M  V30 1236 C 119.133 -3.8505 -2.07498 0
M  V30 1237 C 118.192 -4.15929 -3.22319 0
M  V30 1238 O 117.218 -4.85474 -2.9716 0
M  V30 1239 N 118.42 -3.69745 -4.47514 0
M  V30 1240 H 121.185 -2.95954 -0.472359 0
M  V30 1241 H 118.746 -1.61523 -0.110444 0
M  V30 1242 H 120.738 -2.72443 -2.9926 0
M  V30 1243 H 119.308 -1.73795 -2.59835 0
M  V30 1244 H 118.528 -3.76679 -1.16219 0
M  V30 1245 H 119.816 -4.70348 -1.94038 0
M  V30 1246 H 119.214 -3.13569 -4.7084 0
M  V30 1247 H 117.771 -3.92655 -5.20255 0
M  V30 1248 N 121.204 0.198386 -1.56346 0
M  V30 1249 C 122.134 1.24865 -1.9731 0
M  V30 1250 C 123.115 1.47651 -0.844576 0
M  V30 1251 O 124.3 1.59444 -1.10866 0
M  V30 1252 C 121.43 2.59358 -2.30977 0
M  V30 1253 C 120.384 2.5119 -3.46537 0
M  V30 1254 C 119.71 3.89926 -3.65871 0
M  V30 1255 C 121.01 2.03977 -4.80823 0
M  V30 1256 H 122.704 0.908252 -2.85291 0
M  V30 1257 H 120.25 0.435462 -1.37258 0
M  V30 1258 H 122.203 3.33011 -2.58228 0
M  V30 1259 H 120.927 2.95132 -1.39874 0
M  V30 1260 H 119.586 1.79993 -3.19371 0
M  V30 1261 H 119.234 4.23046 -2.72105 0
M  V30 1262 H 118.934 3.85336 -4.4361 0
M  V30 1263 H 120.458 4.65205 -3.95495 0
M  V30 1264 H 121.872 2.67386 -5.07127 0
M  V30 1265 H 120.269 2.10397 -5.62008 0
M  V30 1266 H 121.339 0.992861 -4.74626 0
M  V30 1267 N 122.682 1.50554 0.465978 0
M  V30 1268 C 123.907 1.65838 1.24549 0
M  V30 1269 C 124.332 0.343486 1.84937 0
M  V30 1270 O 123.69 -0.69324 1.67523 0
M  V30 1271 C 123.738 2.75533 2.32624 0
M  V30 1272 O 122.842 2.37142 3.37398 0
M  V30 1273 H 122.183 0.553893 0.366194 0
M  V30 1274 H 124.713 1.96959 0.553927 0
M  V30 1275 H 124.723 2.98763 2.77857 0
M  V30 1276 H 123.398 3.70962 1.88043 0
M  V30 1277 H 121.975 2.24377 2.97841 0
M  V30 1278 N 124.16 -0.719506 1.40217 0
M  V30 1279 C 125.385 -1.51371 1.4178 0
M  V30 1280 C 125.81 -1.88091 0.0182355 0
M  V30 1281 O 125.168 -1.52997 -0.972707 0
M  V30 1282 C 125.216 -2.768 2.31115 0
M  V30 1283 O 124.32 -3.73349 1.7517 0
M  V30 1284 H 123.661 -0.456529 0.482159 0
M  V30 1285 H 126.191 -0.88644 1.844 0
M  V30 1286 H 126.201 -3.25371 2.46167 0
M  V30 1287 H 124.876 -2.49407 3.3282 0
M  V30 1288 H 123.453 -3.32179 1.69444 0
M  V30 1289 N 125.638 -1.25649 -0.95132 0
M  V30 1290 C 126.887 -1.09988 -1.69073 0
M  V30 1291 C 127.2 0.358355 -1.92289 0
M  V30 1292 O 128.406 0.635466 -2.63958 0
M  V30 1293 C 126.862 -1.92012 -3.044 0
M  V30 1294 C 126.47 -3.42347 -2.88968 0
M  V30 1295 C 128.214 -1.8493 -3.82101 0
M  V30 1296 C 126.121 -4.16655 -4.19705 0
M  V30 1297 H 125.051 -0.407993 -0.63408 0
M  V30 1298 H 127.702 -1.49873 -1.05879 0
M  V30 1299 H 126.084 -1.44952 -3.68517 0
M  V30 1300 H 127.258 -3.97104 -2.33762 0
M  V30 1301 H 125.573 -3.50557 -2.24719 0
M  V30 1302 H 128.17 -2.37739 -4.78941 0
M  V30 1303 H 128.513 -0.817883 -4.08187 0
M  V30 1304 H 129.046 -2.29758 -3.2474 0
M  V30 1305 H 125.785 -5.20224 -3.98807 0
M  V30 1306 H 125.305 -3.66681 -4.74663 0
M  V30 1307 H 126.984 -4.24551 -4.88227 0
M  V30 1308 N 127.117 1.15442 -1.07289 0
M  V30 1309 C 128.364 1.86213 -0.795668 0
M  V30 1310 C 128.692 1.82291 0.678238 0
M  V30 1311 O 127.947 1.24057 1.51355 0
M  V30 1312 C 128.246 3.3489 -1.24834 0
M  V30 1313 C 127.912 3.59007 -2.72809 0
M  V30 1314 C 126.574 3.65298 -3.13227 0
M  V30 1315 C 128.926 3.68762 -3.68326 0
M  V30 1316 C 126.254 3.78854 -4.4798 0
M  V30 1317 C 128.606 3.83842 -5.0284 0
M  V30 1318 C 127.27 3.88378 -5.4288 0
M  V30 1319 H 126.54 0.681403 -0.291155 0
M  V30 1320 H 129.187 1.36435 -1.34379 0
M  V30 1321 H 127.492 3.8687 -0.619595 0
M  V30 1322 H 129.189 3.88052 -1.01076 0
M  V30 1323 H 125.779 3.5475 -2.40521 0
M  V30 1324 H 129.963 3.63202 -3.38227 0
M  V30 1325 H 125.219 3.80623 -4.78472 0
M  V30 1326 H 129.393 3.90332 -5.76727 0
M  V30 1327 H 127.02 3.98635 -6.47298 0
M  V30 1328 N 128.595 0.856903 1.32268 0
M  V30 1329 C 129.844 0.457599 1.96441 0
M  V30 1330 C 130.157 -0.992426 1.68553 0
M  V30 1331 O 131.363 -1.49727 2.26482 0
M  V30 1332 C 129.819 0.767358 3.51624 0
M  V30 1333 C 129.427 2.23326 3.88367 0
M  V30 1334 C 131.171 0.435887 4.22256 0
M  V30 1335 C 129.078 2.48613 5.36606 0
M  V30 1336 H 128.008 0.167387 0.735185 0
M  V30 1337 H 130.659 1.048 1.5063 0
M  V30 1338 H 129.041 0.106367 3.95857 0
M  V30 1339 H 130.215 2.93623 3.55137 0
M  V30 1340 H 128.53 2.52948 3.30766 0
M  V30 1341 H 131.127 0.602202 5.31298 0
M  V30 1342 H 131.47 -0.622672 4.11617 0
M  V30 1343 H 132.003 1.05286 3.83614 0
M  V30 1344 H 128.742 3.53101 5.52268 0
M  V30 1345 H 128.262 1.82896 5.71235 0
M  V30 1346 H 129.941 2.32676 6.03714 0
M  V30 1347 N 130.073 -1.45103 0.615059 0
M  V30 1348 C 131.489 -1.57137 0.279322 0
M  V30 1349 C 131.689 -1.60523 -1.21797 0
M  V30 1350 O 130.745 -1.53956 -2.00134 0
M  V30 1351 C 132.058 -2.85062 0.957083 0
M  V30 1352 C 133.606 -2.98749 0.933706 0
M  V30 1353 C 134.081 -4.29455 1.59162 0
M  V30 1354 N 135.572 -4.36231 1.55746 0
M  V30 1355 C 136.307 -5.36051 2.0356 0
M  V30 1356 N 135.803 -6.42367 2.59494 0
M  V30 1357 N 137.596 -5.27456 1.94284 0
M  V30 1358 H 129.747 -1.41148 1.58717 0
M  V30 1359 H 132.01 -0.675331 0.665306 0
M  V30 1360 H 131.716 -2.88488 2.01166 0
M  V30 1361 H 131.59 -3.7407 0.48494 0
M  V30 1362 H 133.977 -2.94886 -0.112347 0
M  V30 1363 H 134.058 -2.11132 1.44419 0
M  V30 1364 H 133.702 -4.34077 2.63704 0
M  V30 1365 H 133.632 -5.15901 1.0561 0
M  V30 1366 H 136.123 -3.60011 1.14893 0
M  V30 1367 H 136.436 -7.14793 2.93752 0
M  V30 1368 H 134.781 -6.43097 2.63537 0
M  V30 1369 H 137.972 -4.43308 1.5032 0
M  V30 1370 H 138.145 -6.05099 2.3186 0
M  V30 1371 N 131.551 -0.354651 -1.53558 0
M  V30 1372 C 132.799 0.237972 -2.00694 0
M  V30 1373 C 133.12 1.50173 -1.24391 0
M  V30 1374 O 132.39 1.92673 -0.354135 0
M  V30 1375 H 130.97 0.0909256 -0.741446 0
M  V30 1376 H 133.632 -0.478368 -1.88938 0
M  V30 1377 H 132.728 0.47264 -3.085 0
M  V30 1378 N 133.029 1.57378 -0.0835403 0
M  V30 1379 C 134.257 1.98263 0.59157 0
M  V30 1380 C 134.672 0.962302 1.62435 0
M  V30 1381 O 134.029 -0.049581 1.82433 0
M  V30 1382 C 134.08 3.39214 1.24965 0
M  V30 1383 O 133.801 4.37339 0.258186 0
M  V30 1384 C 135.302 3.95038 2.01147 0
M  V30 1385 H 132.522 0.651773 0.159477 0
M  V30 1386 H 135.066 2.03878 -0.159415 0
M  V30 1387 H 133.221 3.34649 1.95164 0
M  V30 1388 H 133.635 5.19371 0.731734 0
M  V30 1389 H 135.109 4.95848 2.42567 0
M  V30 1390 H 135.586 3.32222 2.87272 0
M  V30 1391 H 136.192 4.0304 1.35789 0
M  V30 1392 N 134.507 -0.190092 1.56449 0
M  V30 1393 C 135.455 -1.25501 1.95837 0
M  V30 1394 C 136.449 -1.4685 0.844485 0
M  V30 1395 O 137.655 -1.47651 1.02952 0
M  V30 1396 H 134.03 -0.421447 0.622805 0
M  V30 1397 H 136.001 -0.895821 2.84636 0
M  V30 1398 C 134.75 -2.59124 2.31841 0
M  V30 1399 H 134.073 -2.43514 3.17082 0
M  V30 1400 H 135.513 -3.32371 2.6326 0
M  V30 1401 C 133.972 -3.16488 1.15486 0
M  V30 1402 O 134.502 -3.99365 0.432535 0
M  V30 1403 N 132.708 -2.75305 0.930349 0
M  V30 1404 H 132.255 -2.08013 1.51948 0
M  V30 1405 H 132.213 -3.14024 0.153634 0
M  V30 1406 N 135.985 -1.50799 -0.457987 0
M  V30 1407 C 136.948 -1.7005 -1.53674 0
M  V30 1408 C 137.948 -0.570881 -1.50325 0
M  V30 1409 O 139.138 -0.838126 -1.52712 0
M  V30 1410 C 136.27 -1.73788 -2.93276 0
M  V30 1411 H 137.463 -2.66306 -1.37917 0
M  V30 1412 H 135.016 -1.40477 -0.685271 0
M  V30 1413 H 135.751 -0.792717 -3.14462 0
M  V30 1414 H 135.536 -2.55864 -2.97113 0
M  V30 1415 H 137.026 -1.90591 -3.71571 0
M  V30 1416 N 137.463 0.71206 -1.40597 0
M  V30 1417 C 138.688 1.50617 -1.42581 0
M  V30 1418 C 139.113 1.88079 -0.0282102 0
M  V30 1419 O 138.471 1.53511 0.964579 0
M  V30 1420 C 138.519 2.7557 -2.3258 0
M  V30 1421 O 137.623 3.72414 -1.77148 0
M  V30 1422 H 136.964 0.453966 -0.484573 0
M  V30 1423 H 139.494 0.876649 -1.84868 0
M  V30 1424 H 139.504 3.2406 -2.47889 0
M  V30 1425 H 138.179 2.47639 -3.34138 0
M  V30 1426 H 136.756 3.31276 -1.71204 0
M  V30 1427 N 138.941 1.26152 0.944643 0
M  V30 1428 C 139.891 1.04081 2.02857 0
M  V30 1429 C 140.875 -0.0256555 1.6088 0
M  V30 1430 O 142.067 0.190884 1.75968 0
M  V30 1431 C 139.196 0.672118 3.36656 0
M  V30 1432 C 138.282 1.77586 3.85128 0
M  V30 1433 N 138.673 3.01272 4.06287 0
M  V30 1434 C 136.971 1.65867 4.1401 0
M  V30 1435 C 137.672 3.72983 4.46384 0
M  V30 1436 N 136.648 3.00653 4.52889 0
M  V30 1437 H 140.45 1.97968 2.17223 0
M  V30 1438 H 137.964 1.16618 1.13022 0
M  V30 1439 H 139.961 0.495166 4.13949 0
M  V30 1440 H 138.621 -0.259307 3.23663 0
M  V30 1441 H 139.632 3.37213 3.93075 0
M  V30 1442 H 136.309 0.796907 4.09824 0
M  V30 1443 H 137.699 4.792 4.70975 0
M  V30 1444 N 140.419 -1.14872 1.07899 0
M  V30 1445 C 141.665 -1.86064 0.806725 0
M  V30 1446 C 141.998 -1.82434 -0.665706 0
M  V30 1447 O 141.273 -1.25138 -1.48899 0
M  V30 1448 C 141.556 -3.34929 1.32267 0
M  V30 1449 C 141.409 -3.47161 2.86006 0
M  V30 1450 C 142.728 -4.29863 0.943717 0
M  V30 1451 H 139.847 -0.675591 0.294526 0
M  V30 1452 H 142.489 -1.34925 1.33773 0
M  V30 1453 H 140.639 -3.78611 0.870974 0
M  V30 1454 H 142.311 -3.12302 3.39507 0
M  V30 1455 H 140.554 -2.88539 3.23925 0
M  V30 1456 H 141.225 -4.51777 3.17177 0
M  V30 1457 H 143.701 -3.9417 1.33302 0
M  V30 1458 H 142.577 -5.32494 1.33198 0
M  V30 1459 H 142.838 -4.41846 -0.149796 0
M  V30 1460 N 141.898 -0.863906 -1.31812 0
M  V30 1461 C 142.828 -0.330843 -2.31144 0
M  V30 1462 C 143.809 0.575005 -1.60087 0
M  V30 1463 O 144.994 0.493304 -1.8783 0
M  V30 1464 C 142.124 0.47374 -3.44054 0
M  V30 1465 C 141.078 -0.338481 -4.26659 0
M  V30 1466 C 140.404 0.591412 -5.31419 0
M  V30 1467 C 141.704 -1.56926 -4.98168 0
M  V30 1468 H 143.398 -1.16086 -2.75979 0
M  V30 1469 H 140.944 -0.559657 -1.32679 0
M  V30 1470 H 142.897 0.857143 -4.12591 0
M  V30 1471 H 141.621 1.33721 -2.9797 0
M  V30 1472 H 140.28 -0.703754 -3.59782 0
M  V30 1473 H 139.928 1.45199 -4.81587 0
M  V30 1474 H 139.628 0.0519022 -5.87577 0
M  V30 1475 H 141.152 0.97179 -6.02817 0
M  V30 1476 H 142.566 -1.25764 -5.59336 0
M  V30 1477 H 140.963 -2.04739 -5.64094 0
M  V30 1478 H 142.033 -2.32544 -4.25501 0
M  V30 1479 N 143.376 1.44774 -0.622745 0
M  V30 1480 C 144.622 2.0242 -0.124083 0
M  V30 1481 C 144.955 1.4881 1.24777 0
M  V30 1482 O 144.23 0.668799 1.8264 0
M  V30 1483 C 144.513 3.59957 -0.101619 0
M  V30 1484 C 144.366 4.23867 -1.50521 0
M  V30 1485 C 145.685 4.36284 0.578272 0
M  V30 1486 H 142.804 0.735528 -0.0465645 0
M  V30 1487 H 145.446 1.72447 -0.797617 0
M  V30 1488 H 143.596 3.85623 0.471934 0
M  V30 1489 H 145.268 4.09336 -2.12701 0
M  V30 1490 H 143.511 3.81684 -2.06154 0
M  V30 1491 H 144.182 5.32843 -1.4416 0
M  V30 1492 H 146.658 4.16001 0.0906057 0
M  V30 1493 H 145.534 5.46004 0.563149 0
M  V30 1494 H 145.795 4.10271 1.64713 0
M  V30 1495 N 144.854 0.36279 1.53368 0
M  V30 1496 C 145.784 -0.476976 2.28576 0
M  V30 1497 C 146.765 -1.08631 1.30894 0
M  V30 1498 O 147.95 -1.10409 1.59761 0
M  V30 1499 C 145.08 -1.61828 3.07293 0
M  V30 1500 C 144.034 -1.13633 4.1264 0
M  V30 1501 C 143.36 -2.36766 4.79423 0
M  V30 1502 C 144.66 -0.223061 5.21823 0
M  V30 1503 H 146.354 0.150474 2.99022 0
M  V30 1504 H 143.9 0.0738103 1.43811 0
M  V30 1505 H 145.853 -2.21237 3.58653 0
M  V30 1506 H 144.577 -2.27292 2.34533 0
M  V30 1507 H 143.236 -0.564945 3.62221 0
M  V30 1508 H 142.884 -3.0068 4.03238 0
M  V30 1509 H 142.584 -2.05192 5.50609 0
M  V30 1510 H 144.108 -2.96865 5.33576 0
M  V30 1511 H 145.522 -0.724545 5.68703 0
M  V30 1512 H 143.919 0.001678 6.001 0
M  V30 1513 H 144.989 0.735553 4.79289 0
M  V30 1514 N 146.332 -1.57332 0.0918853 0
M  V30 1515 C 147.581 -1.93412 -0.572249 0
M  V30 1516 C 147.894 -0.975515 -1.69538 0
M  V30 1517 O 149.1 -1.22991 -2.42045 0
M  V30 1518 C 147.556 -3.43648 -1.0693 0
M  V30 1519 C 147.164 -4.47994 0.0239049 0
M  V30 1520 C 148.908 -3.88695 -1.70635 0
M  V30 1521 C 146.815 -5.89381 -0.488319 0
M  V30 1522 H 145.745 -0.721939 -0.217532 0
M  V30 1523 H 148.396 -1.82735 0.167369 0
M  V30 1524 H 146.778 -3.49466 -1.8625 0
M  V30 1525 H 147.952 -4.53815 0.799277 0
M  V30 1526 H 146.267 -4.12536 0.565946 0
M  V30 1527 H 148.864 -4.91725 -2.10025 0
M  V30 1528 H 149.207 -3.27166 -2.57426 0
M  V30 1529 H 149.74 -3.85564 -0.979023 0
M  V30 1530 H 146.479 -6.54602 0.342906 0
M  V30 1531 H 145.999 -5.87037 -1.23077 0
M  V30 1532 H 147.678 -6.39863 -0.958317 0
M  V30 1533 N 147.81 0.181792 -1.56548 0
M  V30 1534 C 149.087 0.926765 -1.72251 0
M  V30 1535 C 149.467 2.00831 -0.650386 0
M  V30 1536 O 148.815 2.26008 0.336521 0
M  V30 1537 C 149.025 1.50106 -3.1507 0
M  V30 1538 C 150.373 1.97805 -3.75711 0
M  V30 1539 O 151.397 1.59922 -3.18282 0
M  V30 1540 O 150.256 2.67555 -4.76525 0
M  V30 1541 H 147.35 0.435506 -0.703039 0
M  V30 1542 H 149.896 0.170443 -1.68842 0
M  V30 1543 H 148.668 0.72212 -3.84579 0
M  V30 1544 H 148.291 2.32186 -3.22763 0
M  V30 1545 N 149.288 1.51039 0.449983 0
M  V30 1546 C 150.536 1.62759 1.19808 0
M  V30 1547 C 150.857 0.339981 1.92013 0
M  V30 1548 O 150.127 -0.643606 1.85026 0
M  V30 1549 H 148.707 0.599811 0.445237 0
M  V30 1550 H 151.369 1.87914 0.517138 0
M  V30 1551 H 150.465 2.44911 1.93455 0
M  V30 1552 N 150.766 -0.704594 1.40972 0
M  V30 1553 C 152.012 -1.46675 1.40051 0
M  V30 1554 C 152.345 -1.94199 0.00641102 0
M  V30 1555 O 151.62 -1.68916 -0.964235 0
M  V30 1556 C 151.903 -2.68505 2.39952 0
M  V30 1557 C 151.756 -2.26805 3.88432 0
M  V30 1558 C 153.075 -3.70686 2.37233 0
M  V30 1559 H 150.194 -0.532015 0.510028 0
M  V30 1560 H 152.836 -0.803255 1.72185 0
M  V30 1561 H 150.986 -3.25114 2.1268 0
M  V30 1562 H 152.658 -1.75592 4.26574 0
M  V30 1563 H 150.901 -1.58685 4.03734 0
M  V30 1564 H 151.572 -3.14181 4.53866 0
M  V30 1565 H 154.048 -3.23731 2.61415 0
M  V30 1566 H 152.924 -4.53553 3.09162 0
M  V30 1567 H 153.185 -4.19754 1.38777 0
M  V30 1568 N 152.244 -1.26651 -0.937939 0
M  V30 1569 C 153.66 -1.03834 -1.21205 0
M  V30 1570 C 153.86 0.234502 -2.00131 0
M  V30 1571 O 152.916 0.942767 -2.3424 0
M  V30 1572 C 154.229 -2.27167 -1.97017 0
M  V30 1573 C 155.777 -2.32101 -2.09996 0
M  V30 1574 C 156.252 -3.55136 -2.8921 0
M  V30 1575 N 157.743 -3.55632 -2.96783 0
M  V30 1576 C 158.478 -4.475 -3.58512 0
M  V30 1577 N 157.974 -5.4966 -4.21717 0
M  V30 1578 N 159.767 -4.35145 -3.55816 0
M  V30 1579 H 151.918 -2.08398 -0.410391 0
M  V30 1580 H 154.181 -0.916031 -0.244114 0
M  V30 1581 H 153.887 -3.19765 -1.46434 0
M  V30 1582 H 153.761 -2.31672 -2.97671 0
M  V30 1583 H 156.148 -1.40015 -2.59769 0
M  V30 1584 H 156.229 -2.31605 -1.08594 0
M  V30 1585 H 155.873 -4.47553 -2.40123 0
M  V30 1586 H 155.803 -3.5288 -3.90875 0
M  V30 1587 H 158.294 -2.81743 -2.51852 0
M  V30 1588 H 158.607 -6.15943 -4.66727 0
M  V30 1589 H 156.952 -5.53514 -4.20294 0
M  V30 1590 H 160.143 -3.5455 -3.05634 0
M  V30 1591 H 160.316 -5.06934 -4.03636 0
M  V30 1592 N 153.722 1.14298 -1.08507 0
M  V30 1593 C 154.652 2.21542 -0.737646 0
M  V30 1594 C 155.633 1.67773 0.280377 0
M  V30 1595 O 156.818 1.93616 0.150521 0
M  V30 1596 C 153.948 3.46988 -0.147259 0
M  V30 1597 C 152.902 4.13789 -1.09374 0
M  V30 1598 C 152.228 5.33449 -0.365524 0
M  V30 1599 C 153.528 4.62208 -2.4323 0
M  V30 1600 H 155.222 2.5086 -1.6343 0
M  V30 1601 H 152.768 1.20576 -0.787243 0
M  V30 1602 H 154.721 4.21262 0.107808 0
M  V30 1603 H 153.445 3.17037 0.784538 0
M  V30 1604 H 152.104 3.4147 -1.33393 0
M  V30 1605 H 151.752 4.99759 0.57011 0
M  V30 1606 H 151.452 5.79088 -0.996512 0
M  V30 1607 H 152.976 6.10485 -0.118534 0
M  V30 1608 H 154.39 5.27952 -2.23472 0
M  V30 1609 H 152.787 5.18553 -3.02031 0
M  V30 1610 H 153.857 3.77224 -3.04681 0
M  V30 1611 N 155.201 0.870884 1.31352 0
M  V30 1612 C 156.149 0.316445 2.30437 0
M  V30 1613 C 157.143 -0.568965 1.59559 0
M  V30 1614 O 158.349 -0.454964 1.74155 0
M  V30 1615 H 154.724 0.0836521 0.747333 0
M  V30 1616 H 156.695 1.16606 2.74673 0
M  V30 1617 C 155.444 -0.46635 3.44558 0
M  V30 1618 H 154.767 0.205687 3.99271 0
M  V30 1619 H 156.207 -0.819614 4.16003 0
M  V30 1620 C 154.666 -1.65797 2.9328 0
M  V30 1621 O 155.196 -2.75728 2.92125 0
M  V30 1622 N 153.402 -1.49041 2.4947 0
M  V30 1623 H 152.949 -0.59612 2.50608 0
M  V30 1624 H 152.907 -2.28911 2.15516 0
M  V30 1625 N 156.679 -1.44442 0.630414 0
M  V30 1626 C 157.609 -2.33418 -0.0618083 0
M  V30 1627 C 158.59 -1.48165 -0.835541 0
M  V30 1628 O 159.775 -1.76886 -0.801564 0
M  V30 1629 C 156.905 -3.31222 -1.04449 0
M  V30 1630 C 155.859 -4.26288 -0.382436 0
M  V30 1631 C 155.185 -5.13954 -1.47497 0
M  V30 1632 C 156.485 -5.1744 0.710865 0
M  V30 1633 H 158.179 -2.91548 0.681184 0
M  V30 1634 H 155.725 -1.40191 0.329026 0
M  V30 1635 H 157.678 -3.92351 -1.53748 0
M  V30 1636 H 156.402 -2.71299 -1.81836 0
M  V30 1637 H 155.061 -3.6649 0.0899054 0
M  V30 1638 H 154.709 -4.50385 -2.2397 0
M  V30 1639 H 154.409 -5.7837 -1.03737 0
M  V30 1640 H 155.933 -5.77955 -1.96979 0
M  V30 1641 H 157.347 -5.72509 0.300996 0
M  V30 1642 H 155.744 -5.90455 1.07156 0
M  V30 1643 H 156.814 -4.58496 1.57829 0
M  V30 1644 N 158.157 -0.370918 -1.53173 0
M  V30 1645 C 159.12 0.460778 -2.24521 0
M  V30 1646 C 160.12 1.00536 -1.25496 0
M  V30 1647 O 161.31 0.890266 -1.49733 0
M  V30 1648 C 158.442 1.64457 -2.98608 0
M  V30 1649 H 159.635 -0.163613 -2.99453 0
M  V30 1650 H 157.188 -0.122699 -1.55818 0
M  V30 1651 H 157.923 2.30691 -2.2793 0
M  V30 1652 H 157.708 1.26099 -3.7127 0
M  V30 1653 H 159.198 2.23384 -3.5283 0
M  V30 1654 N 159.635 1.57281 -0.100228 0
M  V30 1655 C 160.883 1.94153 0.561157 0
M  V30 1656 C 161.204 0.983157 1.68401 0
M  V30 1657 O 160.474 0.0361132 1.95867 0
M  V30 1658 H 159.054 0.716791 0.210283 0
M  V30 1659 H 161.716 1.94202 -0.164765 0
M  V30 1660 H 160.812 2.96709 0.968008 0
M  V30 1661 N 161.113 -0.173488 1.56642 0
M  V30 1662 C 162.359 -0.891784 1.8214 0
M  V30 1663 C 162.692 -1.8199 0.677736 0
M  V30 1664 O 161.967 -1.91842 -0.320446 0
M  V30 1665 C 162.25 -1.68933 3.18015 0
M  V30 1666 C 162.103 -0.784487 4.42906 0
M  V30 1667 C 163.422 -2.65748 3.50808 0
M  V30 1668 H 160.541 -0.322761 0.662567 0
M  V30 1669 H 163.183 -0.158095 1.89341 0
M  V30 1670 H 161.333 -2.31482 3.12007 0
M  V30 1671 H 163.005 -0.172046 4.60979 0
M  V30 1672 H 161.248 -0.0924117 4.33702 0
M  V30 1673 H 161.919 -1.37799 5.34524 0
M  V30 1674 H 164.395 -2.13327 3.57255 0
M  V30 1675 H 163.271 -3.18619 4.4696 0
M  V30 1676 H 163.532 -3.45842 2.75401 0
M  V30 1677 N 162.591 -1.51276 -0.441967 0
M  V30 1678 C 163.816 -1.67799 -1.21895 0
M  V30 1679 C 164.241 -0.372864 -1.84367 0
M  V30 1680 O 163.599 0.666501 -1.68604 0
M  V30 1681 C 163.647 -2.79199 -2.28211 0
M  V30 1682 O 162.751 -2.42479 -3.33583 0
M  V30 1683 H 162.092 -0.559649 -0.357336 0
M  V30 1684 H 164.622 -1.97815 -0.522522 0
M  V30 1685 H 164.632 -3.03146 -2.73069 0
M  V30 1686 H 163.307 -3.73906 -1.82118 0
M  V30 1687 H 161.884 -2.29087 -2.94234 0
M  V30 1688 N 164.069 0.697108 -1.41344 0
M  V30 1689 C 165.317 1.45426 -1.40341 0
M  V30 1690 C 165.638 1.94996 -0.0128787 0
M  V30 1691 O 164.908 1.71599 0.945027 0
M  V30 1692 H 163.488 0.539594 -0.516573 0
M  V30 1693 H 166.15 0.825201 -1.76569 0
M  V30 1694 H 165.246 2.31817 -2.08967 0
M  V30 1695 N 165.547 1.27147 0.931209 0
M  V30 1696 C 166.772 1.16191 1.71797 0
M  V30 1697 C 167.197 -0.278004 1.86034 0
M  V30 1698 O 166.555 -1.20137 1.35782 0
M  V30 1699 C 166.603 1.84673 3.09723 0
M  V30 1700 O 165.707 1.14231 3.96264 0
M  V30 1701 H 165.048 0.404303 0.526721 0
M  V30 1702 H 167.578 1.68152 1.1656 0
M  V30 1703 H 167.588 1.91893 3.60057 0
M  V30 1704 H 166.263 2.89421 2.98677 0
M  V30 1705 H 164.84 1.15056 3.54706 0
M  V30 1706 N 167.025 -1.13721 1.09112 0
M  V30 1707 C 167.988 -2.17222 0.731241 0
M  V30 1708 C 168.988 -1.59035 -0.237566 0
M  V30 1709 O 170.178 -1.74192 -0.0161704 0
M  V30 1710 C 167.31 -3.40804 0.0808443 0
M  V30 1711 H 168.503 -2.50573 1.64783 0
M  V30 1712 H 166.056 -1.28493 0.889897 0
M  V30 1713 H 166.791 -3.1304 -0.847127 0
M  V30 1714 H 166.576 -3.84306 0.777896 0
M  V30 1715 H 168.066 -4.1731 -0.155657 0
M  V30 1716 N 168.503 -0.877838 -1.30888 0
M  V30 1717 C 169.78 -0.413052 -1.91189 0
M  V30 1718 C 170.16 1.1056 -1.79832 0
M  V30 1719 O 169.508 1.93771 -1.21099 0
M  V30 1720 C 169.718 -0.903191 -3.3711 0
M  V30 1721 C 171.066 -0.93395 -4.14201 0
M  V30 1722 O 172.09 -0.849373 -3.45925 0
M  V30 1723 O 170.949 -1.05772 -5.36167 0
M  V30 1724 H 168.043 -0.125035 -0.817493 0
M  V30 1725 H 170.589 -0.966269 -1.39504 0
M  V30 1726 H 169.361 -1.94692 -3.39427 0
M  V30 1727 H 168.984 -0.328732 -3.96239 0
M  V30 1728 N 169.982 1.44106 -0.638065 0
M  V30 1729 C 170.912 2.33448 0.0494287 0
M  V30 1730 C 171.893 1.48606 0.827672 0
M  V30 1731 O 173.078 1.77308 0.792173 0
M  V30 1732 C 170.208 3.31771 1.02691 0
M  V30 1733 C 169.162 4.26485 0.359823 0
M  V30 1734 C 168.488 5.14729 1.44769 0
M  V30 1735 C 169.788 5.17056 -0.738296 0
M  V30 1736 H 171.482 2.91183 -0.696636 0
M  V30 1737 H 169.028 1.40014 -0.336456 0
M  V30 1738 H 170.981 3.93161 1.51666 0
M  V30 1739 H 169.705 2.7226 1.80395 0
M  V30 1740 H 168.364 3.66437 -0.10934 0
M  V30 1741 H 168.012 4.51566 2.21578 0
M  V30 1742 H 167.712 5.78913 1.00668 0
M  V30 1743 H 169.236 5.78991 1.93911 0
M  V30 1744 H 170.65 5.72342 -0.331354 0
M  V30 1745 H 169.047 5.89879 -1.10286 0
M  V30 1746 H 170.117 4.57652 -1.60258 0
M  V30 1747 N 171.46 0.379036 1.52974 0
M  V30 1748 C 172.685 -0.209353 2.06341 0
M  V30 1749 C 173.11 -1.40583 1.24972 0
M  V30 1750 O 172.468 -1.79246 0.272155 0
M  V30 1751 C 172.516 -0.567786 3.56102 0
M  V30 1752 O 171.62 -1.66318 3.77375 0
M  V30 1753 H 170.961 -0.0272919 0.663439 0
M  V30 1754 H 173.491 0.543536 1.97248 0
M  V30 1755 H 173.501 -0.835003 3.99364 0
M  V30 1756 H 172.176 0.307013 4.14765 0
M  V30 1757 H 170.753 -1.39048 3.46006 0
M  V30 1758 N 172.938 -1.57226 0.108567 0
M  V30 1759 C 173.87 -2.11809 -0.875752 0
M  V30 1760 C 174.883 -1.05839 -1.23701 0
M  V30 1761 O 176.072 -1.33245 -1.18778 0
M  V30 1762 C 173.172 -2.59411 -2.18081 0
M  V30 1763 C 172.345 -3.89364 -1.99284 0
M  V30 1764 C 171.404 -4.22672 -3.13424 0
M  V30 1765 O 170.43 -4.91668 -2.86795 0
M  V30 1766 N 171.632 -3.79154 -4.3957 0
M  V30 1767 H 174.397 -2.9689 -0.409477 0
M  V30 1768 H 171.958 -1.61721 -0.076158 0
M  V30 1769 H 173.95 -2.7873 -2.93414 0
M  V30 1770 H 172.52 -1.79268 -2.5609 0
M  V30 1771 H 171.74 -3.79059 -1.08203 0
M  V30 1772 H 173.028 -4.74358 -1.84017 0
M  V30 1773 H 172.426 -3.23486 -4.64083 0
M  V30 1774 H 170.983 -4.03602 -5.11809 0
M  V30 1775 N 174.416 0.165178 -1.56732 0
M  V30 1776 C 175.663 0.880807 -1.8234 0
M  V30 1777 C 175.991 1.81977 -0.686621 0
M  V30 1778 O 175.246 1.92971 0.325697 0
M  V30 1779 C 175.545 1.70405 -3.1416 0
M  V30 1780 C 175.211 0.913475 -4.4155 0
M  V30 1781 C 173.873 0.695303 -4.7615 0
M  V30 1782 C 176.225 0.359349 -5.1996 0
M  V30 1783 C 173.553 -0.0879947 -5.86634 0
M  V30 1784 C 175.905 -0.410893 -6.31264 0
M  V30 1785 C 174.569 -0.639808 -6.64427 0
M  V30 1786 H 173.839 0.32231 -0.667231 0
M  V30 1787 H 176.486 0.145402 -1.90947 0
M  V30 1788 H 174.791 2.50903 -3.00923 0
M  V30 1789 H 176.488 2.26091 -3.31186 0
M  V30 1790 H 173.078 1.09357 -4.14414 0
M  V30 1791 H 177.262 0.515228 -4.93618 0
M  V30 1792 H 172.518 -0.27503 -6.10781 0
M  V30 1793 H 176.692 -0.847494 -6.91224 0
M  V30 1794 H 174.319 -1.24864 -7.49875 0
M  V30 1795 N 175.894 1.51508 0.433938 0
M  V30 1796 C 177.305 1.56784 1.01369 0
M  V30 1797 C 177.656 0.393349 1.92217 0
M  V30 1798 O 176.781 -0.489441 2.10792 0
M  V30 1799 C 177.376 2.84144 1.8452 0
M  V30 1800 C 175.935 2.9198 2.37539 0
M  V30 1801 C 175.082 2.51482 1.16843 0
M  V30 1802 H 178.033 1.57236 0.215081 0
M  V30 1803 H 178.054 2.68098 2.70007 0
M  V30 1804 H 177.566 3.69607 1.18373 0
M  V30 1805 H 175.667 2.10955 3.0713 0
M  V30 1806 H 175.78 3.95704 2.70103 0
M  V30 1807 H 174.144 2.04758 1.51481 0
M  V30 1808 H 174.927 3.39293 0.523015 0
M  V30 1809 N 177.372 -0.689602 1.41712 0
M  V30 1810 C 178.621 -1.44534 1.40686 0
M  V30 1811 C 178.934 -1.95588 0.0213352 0
M  V30 1812 O 180.14 -2.71271 -0.111534 0
M  V30 1813 C 178.596 -2.61387 2.47396 0
M  V30 1814 C 178.204 -2.17094 3.91885 0
M  V30 1815 C 179.948 -3.38986 2.55517 0
M  V30 1816 C 177.855 -3.3094 4.90135 0
M  V30 1817 H 176.785 -0.542925 0.52321 0
M  V30 1818 H 179.436 -0.748054 1.6756 0
M  V30 1819 H 177.818 -3.33412 2.13664 0
M  V30 1820 H 178.992 -1.52318 4.34897 0
M  V30 1821 H 177.307 -1.52473 3.8748 0
M  V30 1822 H 179.904 -4.23747 3.26102 0
M  V30 1823 H 180.247 -3.84578 1.59391 0
M  V30 1824 H 180.78 -2.74021 2.8837 0
M  V30 1825 H 177.519 -2.90355 5.87685 0
M  V30 1826 H 177.039 -3.94546 4.51767 0
M  V30 1827 H 178.718 -3.9663 5.11169 0
M  V30 1828 N 178.85 -1.27639 -0.924453 0
M  V30 1829 C 179.813 -1.10681 -2.00705 0
M  V30 1830 C 180.813 -0.0497823 -1.60723 0
M  V30 1831 O 182.003 -0.294654 -1.7169 0
M  V30 1832 C 179.135 -0.687164 -3.33902 0
M  V30 1833 H 180.328 -2.06817 -2.17179 0
M  V30 1834 H 177.881 -1.10473 -1.10569 0
M  V30 1835 H 178.616 0.275439 -3.23128 0
M  V30 1836 H 178.401 -1.45061 -3.6428 0
M  V30 1837 H 179.891 -0.590853 -4.13399 0
M  V30 1838 N 180.328 1.1314 -1.09713 0
M  V30 1839 C 181.258 2.20748 -0.761102 0
M  V30 1840 C 182.239 1.68061 0.262566 0
M  V30 1841 O 183.424 1.93765 0.129977 0
M  V30 1842 C 180.554 3.46812 -0.184054 0
M  V30 1843 C 179.508 4.12606 -1.13757 0
M  V30 1844 C 178.834 5.33031 -0.422083 0
M  V30 1845 C 180.134 4.59603 -2.48118 0
M  V30 1846 H 181.828 2.49113 -1.66082 0
M  V30 1847 H 179.374 1.19734 -0.799987 0
M  V30 1848 H 181.327 4.21353 0.0631215 0
M  V30 1849 H 180.051 3.17851 0.750868 0
M  V30 1850 H 178.71 3.40036 -1.37007 0
M  V30 1851 H 178.358 5.00335 0.517072 0
M  V30 1852 H 178.058 5.77999 -1.05788 0
M  V30 1853 H 179.582 6.10325 -0.183277 0
M  V30 1854 H 180.996 5.25552 -2.29059 0
M  V30 1855 H 179.393 5.15321 -3.07514 0
M  V30 1856 H 180.463 3.73971 -3.08665 0
M  V30 1857 N 181.806 0.884767 1.30421 0
M  V30 1858 C 183.052 0.503851 1.96441 0
M  V30 1859 C 183.385 -0.944518 1.69684 0
M  V30 1860 O 182.66 -1.66737 1.00145 0
M  V30 1861 C 182.943 0.779085 3.51571 0
M  V30 1862 C 182.796 2.27807 3.87846 0
M  V30 1863 C 184.115 0.255452 4.39358 0
M  V30 1864 H 181.234 0.184533 0.713524 0
M  V30 1865 H 183.876 1.10872 1.54297 0
M  V30 1866 H 182.026 0.264274 3.876 0
M  V30 1867 H 183.698 2.86127 3.61841 0
M  V30 1868 H 181.941 2.74479 3.35922 0
M  V30 1869 H 182.612 2.42125 4.96064 0
M  V30 1870 H 185.088 0.696079 4.10236 0
M  V30 1871 H 183.964 0.477361 5.4682 0
M  V30 1872 H 184.225 -0.843293 4.33983 0
M  V30 1873 N 183.284 -1.43765 0.645699 0
M  V30 1874 C 184.216 -2.29027 -0.0890605 0
M  V30 1875 C 185.229 -1.42093 -0.794563 0
M  V30 1876 O 186.418 -1.66104 -0.653575 0
M  V30 1877 C 183.518 -3.18831 -1.14891 0
M  V30 1878 C 182.691 -4.34261 -0.523043 0
M  V30 1879 C 181.75 -5.04994 -1.47878 0
M  V30 1880 O 180.776 -5.6052 -0.990277 0
M  V30 1881 N 181.978 -5.07795 -2.81291 0
M  V30 1882 H 184.743 -2.92727 0.64272 0
M  V30 1883 H 182.304 -1.54373 0.487924 0
M  V30 1884 H 184.296 -3.63015 -1.78892 0
M  V30 1885 H 182.866 -2.56782 -1.78275 0
M  V30 1886 H 182.086 -3.93088 0.295896 0
M  V30 1887 H 183.374 -5.08728 -0.0858147 0
M  V30 1888 H 182.772 -4.64042 -3.23546 0
M  V30 1889 H 181.329 -5.55721 -3.40614 0
M  V30 1890 N 184.763 -0.387143 -1.52771 0
M  V30 1891 C 186.179 -0.037007 -1.59557 0
M  V30 1892 C 186.379 1.44801 -1.40124 0
M  V30 1893 O 185.435 2.21227 -1.21716 0
M  V30 1894 C 186.748 -0.512256 -2.96305 0
M  V30 1895 C 188.296 -0.468328 -3.09476 0
M  V30 1896 C 188.771 -0.919731 -4.4867 0
M  V30 1897 N 190.262 -0.875656 -4.54848 0
M  V30 1898 C 190.997 -1.19637 -5.6078 0
M  V30 1899 N 190.493 -1.58745 -6.74368 0
M  V30 1900 N 192.286 -1.11776 -5.50874 0
M  V30 1901 H 184.437 -1.35395 -1.63652 0
M  V30 1902 H 186.7 -0.554818 -0.768688 0
M  V30 1903 H 186.406 -1.54935 -3.15734 0
M  V30 1904 H 186.28 0.089805 -3.77093 0
M  V30 1905 H 188.667 0.559671 -2.89744 0
M  V30 1906 H 188.748 -1.10616 -2.30646 0
M  V30 1907 H 188.392 -1.94595 -4.69143 0
M  V30 1908 H 188.322 -0.258927 -5.25963 0
M  V30 1909 H 190.813 -0.587843 -3.733 0
M  V30 1910 H 191.126 -1.81586 -7.51163 0
M  V30 1911 H 189.471 -1.6263 -6.75705 0
M  V30 1912 H 192.662 -0.811264 -4.61016 0
M  V30 1913 H 192.835 -1.37103 -6.3333 0
M  V30 1914 N 186.241 1.57166 -0.116904 0
M  V30 1915 C 187.487 1.95412 0.542405 0
M  V30 1916 C 187.82 1.00019 1.66463 0
M  V30 1917 O 187.095 0.0370346 1.94465 0
M  V30 1918 C 187.378 3.43615 1.07708 0
M  V30 1919 C 187.231 4.49781 -0.0415868 0
M  V30 1920 C 188.55 3.93616 1.96861 0
M  V30 1921 H 185.669 0.710543 0.195696 0
M  V30 1922 H 188.311 1.89027 -0.192038 0
M  V30 1923 H 186.461 3.49187 1.70296 0
M  V30 1924 H 188.133 4.56308 -0.676793 0
M  V30 1925 H 186.376 4.28033 -0.705019 0
M  V30 1926 H 187.047 5.50733 0.373717 0
M  V30 1927 H 189.523 3.90335 1.44146 0
M  V30 1928 H 188.399 4.97838 2.3119 0
M  V30 1929 H 188.66 3.34188 2.89432 0
M  V30 1930 N 187.719 -0.156864 1.56817 0
M  V30 1931 C 188.629 -1.2136 2.00771 0
M  V30 1932 C 189.645 -1.47598 0.921459 0
M  V30 1933 O 190.821 -1.59462 1.2302 0
M  V30 1934 C 187.886 -2.52943 2.37109 0
M  V30 1935 C 186.947 -2.34439 3.59634 0
M  V30 1936 C 186.18 -3.59748 3.94229 0
M  V30 1937 O 186.403 -4.65526 3.29609 0
M  V30 1938 O 185.337 -3.52998 4.8752 0
M  V30 1939 H 189.163 -0.870468 2.90958 0
M  V30 1940 H 186.748 -0.36484 1.44877 0
M  V30 1941 H 188.63 -3.30538 2.61386 0
M  V30 1942 H 187.305 -2.86806 1.5008 0
M  V30 1943 H 186.212 -1.54828 3.40557 0
M  V30 1944 H 187.545 -2.05496 4.4725 0
M  V30 1945 N 189.197 -1.51736 -0.425897 0
M  V30 1946 C 190.427 -1.68549 -1.19476 0
M  V30 1947 C 190.835 -0.387288 -1.85194 0
M  V30 1948 O 190.178 0.645142 -1.71999 0
M  V30 1949 C 190.24 -2.75275 -2.31223 0
M  V30 1950 C 189.904 -4.17534 -1.8578 0
M  V30 1951 C 190.901 -5.01936 -1.35485 0
M  V30 1952 C 188.586 -4.6369 -1.93123 0
M  V30 1953 C 190.58 -6.30559 -0.931347 0
M  V30 1954 C 188.267 -5.92307 -1.50384 0
M  V30 1955 C 189.265 -6.75569 -1.00473 0
M  V30 1956 O 188.953 -8.0178 -0.583452 0
M  V30 1957 H 188.685 -0.568525 -0.365725 0
M  V30 1958 H 191.239 -1.98982 -0.509444 0
M  V30 1959 H 189.469 -2.40182 -3.03067 0
M  V30 1960 H 191.158 -2.80853 -2.93047 0
M  V30 1961 H 191.924 -4.67475 -1.29197 0
M  V30 1962 H 187.803 -3.98997 -2.30916 0
M  V30 1963 H 191.347 -6.95498 -0.541084 0
M  V30 1964 H 187.244 -6.2628 -1.56346 0
M  V30 1965 H 188.012 -8.1543 -0.708275 0
M  V30 1966 N 190.675 0.682077 -1.42076 0
M  V30 1967 C 191.924 1.43786 -1.41451 0
M  V30 1968 C 192.237 1.95574 -0.0317074 0
M  V30 1969 O 193.443 2.71326 0.0971462 0
M  V30 1970 C 191.899 2.60071 -2.48779 0
M  V30 1971 C 191.507 2.15013 -3.93031 0
M  V30 1972 C 193.251 3.37626 -2.57311 0
M  V30 1973 C 191.158 3.28336 -4.91883 0
M  V30 1974 H 190.088 0.540143 -0.526082 0
M  V30 1975 H 192.739 0.739157 -1.67955 0
M  V30 1976 H 191.121 3.32275 -2.15429 0
M  V30 1977 H 192.295 1.5001 -4.35699 0
M  V30 1978 H 190.61 1.50416 -3.88284 0
M  V30 1979 H 193.207 4.22012 -3.28345 0
M  V30 1980 H 193.55 3.83727 -1.61429 0
M  V30 1981 H 194.083 2.72488 -2.89819 0
M  V30 1982 H 190.822 2.87234 -5.89217 0
M  V30 1983 H 190.342 3.92145 -4.53853 0
M  V30 1984 H 192.021 3.93913 -5.13265 0
M  V30 1985 N 192.153 1.28127 0.917671 0
M  V30 1986 C 193.569 1.05749 1.19538 0
M  V30 1987 C 193.769 -0.202633 2.00479 0
M  V30 1988 O 192.825 -0.905382 2.3571 0
M  V30 1989 C 194.138 2.30273 1.93378 0
M  V30 1990 C 195.686 2.35412 2.06277 0
M  V30 1991 C 196.161 3.59692 2.83524 0
M  V30 1992 N 197.652 3.60309 2.91087 0
M  V30 1993 C 198.387 4.53147 3.51348 0
M  V30 1994 N 197.883 5.563 4.12919 0
M  V30 1995 N 199.676 4.40751 3.48849 0
M  V30 1996 H 191.827 2.09024 0.377184 0
M  V30 1997 H 194.09 0.919798 0.22951 0
M  V30 1998 H 193.796 3.22055 1.41328 0
M  V30 1999 H 193.67 2.36378 2.93947 0
M  V30 2000 H 196.057 1.4413 2.57508 0
M  V30 2001 H 196.138 2.33304 1.04895 0
M  V30 2002 H 195.782 4.51316 2.32973 0
M  V30 2003 H 195.712 3.59054 3.85211 0
M  V30 2004 H 198.203 2.85714 2.47338 0
M  V30 2005 H 198.516 6.2329 4.56869 0
M  V30 2006 H 196.861 5.60131 4.11435 0
M  V30 2007 H 200.052 3.59367 2.99955 0
M  V30 2008 H 200.225 5.13291 3.9552 0
M  V30 2009 N 193.631 -1.12557 1.10312 0
M  V30 2010 C 194.879 -1.83675 0.843091 0
M  V30 2011 C 195.2 -1.84435 -0.633131 0
M  V30 2012 O 194.47 -1.30657 -1.45964 0
M  V30 2013 H 193.05 -0.680138 0.308904 0
M  V30 2014 H 195.712 -1.36301 1.39313 0
M  V30 2015 H 194.808 -2.87908 1.2048 0
M  V30 2016 N 195.109 -0.891671 -1.2995 0
M  V30 2017 C 196.52 -0.563104 -1.78006 0
M  V30 2018 C 196.871 0.920978 -1.73241 0
M  V30 2019 O 195.996 1.71987 -1.31337 0
M  V30 2020 C 196.591 -1.01539 -3.23226 0
M  V30 2021 C 195.15 -0.738124 -3.69092 0
M  V30 2022 C 194.297 -1.19461 -2.50249 0
M  V30 2023 H 197.248 -1.07522 -1.16725 0
M  V30 2024 H 197.269 -0.347217 -3.78912 0
M  V30 2025 H 196.781 -2.09555 -3.26662 0
M  V30 2026 H 194.882 0.329766 -3.71138 0
M  V30 2027 H 194.995 -1.33037 -4.60259 0
M  V30 2028 H 193.359 -0.613787 -2.47194 0
M  V30 2029 H 194.142 -2.28265 -2.56417 0
M  V30 2030 N 196.587 1.43421 -0.653314 0
M  V30 2031 C 198.003 1.56341 -0.320886 0
M  V30 2032 C 198.203 1.63696 1.17499 0
M  V30 2033 O 197.259 1.59208 1.95982 0
M  V30 2034 C 198.572 2.82424 -1.03233 0
M  V30 2035 C 200.12 2.96168 -1.01259 0
M  V30 2036 C 200.595 4.25084 -1.70492 0
M  V30 2037 N 202.086 4.31948 -1.67257 0
M  V30 2038 C 202.821 5.30466 -2.17701 0
M  V30 2039 N 202.317 6.35261 -2.76434 0
M  V30 2040 N 204.11 5.2212 -2.082 0
M  V30 2041 H 196.261 1.3689 -1.62403 0
M  V30 2042 H 198.524 0.657455 -0.682977 0
M  V30 2043 H 198.23 2.83053 -2.08744 0
M  V30 2044 H 198.104 3.72653 -0.583948 0
M  V30 2045 H 200.491 2.9508 0.0341235 0
M  V30 2046 H 200.572 2.07229 -1.49966 0
M  V30 2047 H 200.216 4.26932 -2.7512 0
M  V30 2048 H 200.146 5.1292 -1.19251 0
M  V30 2049 H 202.637 3.56838 -1.24398 0
M  V30 2050 H 202.95 7.06754 -3.12601 0
M  V30 2051 H 201.295 6.35884 -2.80495 0
M  V30 2052 H 204.486 4.39166 -1.62021 0
M  V30 2053 H 204.659 5.98739 -2.47822 0
M  V30 2054 N 198.065 0.39524 1.52563 0
M  V30 2055 C 199.29 -0.187456 2.06551 0
M  V30 2056 C 199.715 -1.39249 1.26457 0
M  V30 2057 O 199.073 -1.78947 0.291151 0
M  V30 2058 C 199.121 -0.529985 3.56684 0
M  V30 2059 O 198.225 -1.62307 3.79118 0
M  V30 2060 H 197.566 -0.0202537 0.663691 0
M  V30 2061 H 200.096 0.564426 1.96661 0
M  V30 2062 H 200.106 -0.792598 4.00227 0
M  V30 2063 H 198.781 0.350987 4.14416 0
M  V30 2064 H 197.358 -1.3537 3.47461 0
M  V30 2065 N 199.544 -1.57102 0.125237 0
M  V30 2066 C 200.507 -2.14471 -0.80838 0
M  V30 2067 C 201.507 -1.0811 -1.19033 0
M  V30 2068 O 202.697 -1.33856 -1.11482 0
M  V30 2069 C 199.829 -2.69005 -2.09402 0
M  V30 2070 H 201.022 -2.98297 -0.309696 0
M  V30 2071 H 198.575 -1.55807 -0.124051 0
M  V30 2072 H 199.31 -1.88785 -2.63687 0
M  V30 2073 H 199.095 -3.46799 -1.82957 0
M  V30 2074 H 200.585 -3.13278 -2.76128 0
M  V30 2075 N 201.022 0.148545 -1.56898 0
M  V30 2076 C 202.268 0.862694 -1.83536 0
M  V30 2077 C 202.601 1.80889 -0.706604 0
M  V30 2078 O 201.876 1.92328 0.289885 0
M  V30 2079 C 202.159 1.63853 -3.20662 0
M  V30 2080 C 202.012 0.713925 -4.44098 0
M  V30 2081 C 203.331 2.60133 -3.54991 0
M  V30 2082 H 200.45 0.312179 -0.667618 0
M  V30 2083 H 203.092 0.127953 -1.89569 0
M  V30 2084 H 201.242 2.26489 -3.1565 0
M  V30 2085 H 202.914 0.098686 -4.61194 0
M  V30 2086 H 201.157 0.0234019 -4.33794 0
M  V30 2087 H 201.828 1.29278 -5.36648 0
M  V30 2088 H 204.304 2.07616 -3.60603 0
M  V30 2089 H 203.18 3.11468 -4.51972 0
M  V30 2090 H 203.441 3.41417 -2.80868 0
M  V30 2091 N 202.5 1.5196 0.417844 0
M  V30 2092 C 203.73 1.69181 1.18581 0
M  V30 2093 C 204.138 0.397104 1.84986 0
M  V30 2094 O 203.481 -0.636011 1.72339 0
M  V30 2095 C 203.543 2.76497 2.29759 0
M  V30 2096 C 203.207 4.18514 1.83563 0
M  V30 2097 C 204.204 5.02648 1.32821 0
M  V30 2098 C 201.889 4.64708 1.90661 0
M  V30 2099 C 203.883 6.31044 0.897894 0
M  V30 2100 C 201.57 5.93096 1.47241 0
M  V30 2101 C 202.568 6.76093 0.968891 0
M  V30 2102 O 202.256 8.02078 0.540924 0
M  V30 2103 H 201.988 0.570457 0.362705 0
M  V30 2104 H 204.542 1.99249 0.498885 0
M  V30 2105 H 202.772 2.41786 3.01789 0
M  V30 2106 H 204.461 2.82403 2.91553 0
M  V30 2107 H 205.227 4.68154 1.26716 0
M  V30 2108 H 201.106 4.00216 2.28797 0
M  V30 2109 H 204.65 6.95776 0.504192 0
M  V30 2110 H 200.547 6.271 1.53022 0
M  V30 2111 H 201.315 8.15794 0.66502 0
M  V30 2112 N 203.978 -0.674533 1.42435 0
M  V30 2113 C 205.226 -1.43175 1.42637 0
M  V30 2114 C 205.547 -1.94951 0.0438992 0
M  V30 2115 O 204.817 -1.7308 -0.917607 0
M  V30 2116 H 203.397 -0.531307 0.525092 0
M  V30 2117 H 206.059 -0.797006 1.77859 0
M  V30 2118 H 205.155 -2.28463 2.12629 0
M  V30 2119 N 205.456 -1.28612 -0.910864 0
M  V30 2120 C 206.681 -1.1891 -1.69927 0
M  V30 2121 C 207.106 0.248372 -1.86453 0
M  V30 2122 O 206.464 1.17961 -1.37676 0
M  V30 2123 C 206.512 -1.89578 -3.06745 0
M  V30 2124 O 205.616 -1.20521 -3.94396 0
M  V30 2125 H 204.957 -0.412632 -0.520222 0
M  V30 2126 H 207.487 -1.69985 -1.1387 0
M  V30 2127 H 207.497 -1.97597 -3.56958 0
M  V30 2128 H 206.172 -2.94136 -2.94035 0
M  V30 2129 H 204.749 -1.20684 -3.52831 0
M  V30 2130 N 206.934 1.1197 -1.10907 0
M  V30 2131 C 208.211 1.79959 -0.766432 0
M  V30 2132 C 208.591 1.97466 0.746363 0
M  V30 2133 O 207.939 1.55491 1.67436 0
M  V30 2134 C 208.149 3.14009 -1.52314 0
M  V30 2135 C 209.497 3.89134 -1.69883 0
M  V30 2136 O 210.521 3.2368 -1.48692 0
M  V30 2137 O 209.38 5.06572 -2.05054 0
M  V30 2138 H 206.474 0.779208 -0.277062 0
M  V30 2139 H 209.02 1.18762 -1.21217 0
M  V30 2140 H 207.792 2.96587 -2.55249 0
M  V30 2141 H 207.415 3.82915 -1.07059 0
M  V30 2142 N 208.412 0.89855 1.29475 0
M  V30 2143 C 209.375 0.380272 2.26023 0
M  V30 2144 C 210.375 -0.484891 1.53315 0
M  V30 2145 O 211.565 -0.290108 1.71767 0
M  V30 2146 C 208.697 -0.45651 3.3783 0
M  V30 2147 H 209.89 1.23295 2.73383 0
M  V30 2148 H 207.443 0.676589 1.40897 0
M  V30 2149 H 208.178 -1.32922 2.95808 0
M  V30 2150 H 207.963 0.163393 3.91759 0
M  V30 2151 H 209.453 -0.810466 4.0966 0
M  V30 2152 N 209.89 -1.43072 0.660911 0
M  V30 2153 C 211.139 -2.00942 0.174735 0
M  V30 2154 C 211.452 -1.52797 -1.22117 0
M  V30 2155 O 212.658 -2.02991 -1.80297 0
M  V30 2156 C 211.114 -3.58948 0.261559 0
M  V30 2157 C 210.722 -4.16085 1.66064 0
M  V30 2158 C 212.466 -4.24173 -0.166617 0
M  V30 2159 C 210.373 -5.6641 1.70098 0
M  V30 2160 H 209.303 -0.751483 0.0615631 0
M  V30 2161 H 211.954 -1.63955 0.824069 0
M  V30 2162 H 210.336 -3.93372 -0.455421 0
M  V30 2163 H 211.51 -3.93147 2.40359 0
M  V30 2164 H 209.825 -3.6326 2.03546 0
M  V30 2165 H 212.422 -5.34471 -0.156433 0
M  V30 2166 H 212.765 -3.98647 -1.19943 0
M  V30 2167 H 213.298 -3.94659 0.498875 0
M  V30 2168 H 210.037 -5.96715 2.71315 0
M  V30 2169 H 209.557 -5.91382 1.00139 0
M  V30 2170 H 211.236 -6.30585 1.44816 0
M  V30 2171 N 211.368 -0.403325 -1.52352 0
M  V30 2172 C 212.616 0.174003 -2.0135 0
M  V30 2173 C 212.937 1.46139 -1.29106 0
M  V30 2174 O 212.207 1.91448 -0.415253 0
M  V30 2175 H 210.787 0.0672911 -0.743963 0
M  V30 2176 H 213.449 -0.538235 -1.87321 0
M  V30 2177 H 212.545 0.374254 -3.09848 0
M  V30 2178 N 212.846 1.57033 -0.133567 0
M  V30 2179 C 214.094 1.953 0.519848 0
M  V30 2180 C 214.415 1.01866 1.66278 0
M  V30 2181 O 213.685 0.0776513 1.95746 0
M  V30 2182 H 212.265 0.721091 0.195032 0
M  V30 2183 H 214.927 1.93809 -0.205921 0
M  V30 2184 H 214.023 2.98695 0.904854 0
M  V30 2185 N 214.325 -0.140222 1.56975 0
M  V30 2186 C 215.571 -0.852949 1.83991 0
M  V30 2187 C 215.904 -1.80512 0.716187 0
M  V30 2188 O 215.179 -1.92479 -0.279681 0
M  V30 2189 C 215.462 -1.6215 3.21527 0
M  V30 2190 C 215.315 -0.690363 4.4447 0
M  V30 2191 C 216.634 -2.58247 3.56366 0
M  V30 2192 H 213.753 -0.308634 0.669264 0
M  V30 2193 H 216.395 -0.117898 1.89634 0
M  V30 2194 H 214.545 -2.24812 3.16847 0
M  V30 2195 H 216.217 -0.0742264 4.6124 0
M  V30 2196 H 214.46 -0.000396433 4.338 0
M  V30 2197 H 215.131 -1.2643 5.37326 0
M  V30 2198 H 217.607 -2.05701 3.61699 0
M  V30 2199 H 216.483 -3.09067 4.53617 0
M  V30 2200 H 216.744 -3.39923 2.82674 0
M  V30 2201 N 215.803 -1.52179 -0.40978 0
M  V30 2202 C 217.049 -1.66453 -1.15851 0
M  V30 2203 C 217.382 -0.392972 -1.90182 0
M  V30 2204 O 216.657 0.608579 -1.84734 0
M  V30 2205 C 216.94 -2.88612 -2.15349 0
M  V30 2206 C 216.793 -4.25815 -1.44918 0
M  V30 2207 C 218.112 -3.06294 -3.16026 0
M  V30 2208 H 215.231 -0.60575 -0.419805 0
M  V30 2209 H 217.873 -1.84732 -0.444314 0
M  V30 2210 H 216.023 -2.73158 -2.76255 0
M  V30 2211 H 217.695 -4.52995 -0.871365 0
M  V30 2212 H 215.938 -4.27247 -0.751159 0
M  V30 2213 H 216.609 -5.07337 -2.17516 0
M  V30 2214 H 219.085 -3.20641 -2.65195 0
M  V30 2215 H 217.961 -3.93283 -3.8291 0
M  V30 2216 H 218.222 -2.19579 -3.83715 0
M  V30 2217 N 217.281 0.66697 -1.42791 0
M  V30 2218 C 218.229 1.80157 -1.47127 0
M  V30 2219 C 219.223 1.65825 -0.346199 0
M  V30 2220 O 220.429 1.72338 -0.519572 0
M  V30 2221 H 216.804 0.594158 -0.460956 0
M  V30 2222 H 218.775 1.73619 -2.42692 0
M  V30 2223 C 217.524 3.18351 -1.39813 0
M  V30 2224 H 216.847 3.3001 -2.25684 0
M  V30 2225 H 218.287 3.97736 -1.46908 0
M  V30 2226 C 216.746 3.36707 -0.11391 0
M  V30 2227 O 217.276 3.93027 0.830241 0
M  V30 2228 N 215.482 2.90586 -0.0285295 0
M  V30 2229 H 215.029 2.4494 -0.79764 0
M  V30 2230 H 214.987 3.03245 0.830063 0
M  V30 2231 N 218.759 1.29093 0.90403 0
M  V30 2232 C 220.008 1.16187 1.64874 0
M  V30 2233 C 220.321 -0.286742 1.93487 0
M  V30 2234 O 221.527 -0.537062 2.66135 0
M  V30 2235 C 219.983 2.03177 2.97064 0
M  V30 2236 C 219.591 3.52836 2.76062 0
M  V30 2237 C 221.335 1.98984 3.74974 0
M  V30 2238 C 219.242 4.31945 4.03952 0
M  V30 2239 H 218.172 0.431246 0.618501 0
M  V30 2240 H 220.823 1.53699 1.00243 0
M  V30 2241 H 219.205 1.5853 3.62883 0
M  V30 2242 H 220.379 4.05507 2.18863 0
M  V30 2243 H 218.694 3.58656 2.11553 0
M  V30 2244 H 221.291 2.55351 4.69787 0
M  V30 2245 H 221.634 0.968815 4.0487 0
M  V30 2246 H 222.167 2.41652 3.15989 0
M  V30 2247 H 218.906 5.34667 3.79225 0
M  V30 2248 H 218.426 3.84045 4.60727 0
M  V30 2249 H 220.105 4.42379 4.72133 0
M  V30 2250 N 220.237 -1.11381 1.11499 0
M  V30 2251 C 221.486 -1.82494 0.858993 0
M  V30 2252 C 221.799 -1.85605 -0.617278 0
M  V30 2253 O 223.005 -2.52824 -0.989552 0
M  V30 2254 C 221.461 -3.27745 1.48699 0
M  V30 2255 C 221.069 -3.32961 2.99735 0
M  V30 2256 C 222.813 -4.03754 1.31085 0
M  V30 2257 C 220.72 -4.72612 3.55516 0
M  V30 2258 H 219.65 -0.683802 0.317696 0
M  V30 2259 H 222.301 -1.25331 1.34031 0
M  V30 2260 H 220.683 -3.84844 0.933339 0
M  V30 2261 H 221.857 -2.85741 3.61509 0
M  V30 2262 H 220.172 -2.70433 3.16631 0
M  V30 2263 H 222.769 -5.06891 1.70192 0
M  V30 2264 H 223.112 -4.15527 0.253496 0
M  V30 2265 H 223.645 -3.53043 1.83318 0
M  V30 2266 H 220.384 -4.66036 4.60967 0
M  V30 2267 H 219.904 -5.2024 2.98513 0
M  V30 2268 H 221.583 -5.4157 3.53992 0
M  V30 2269 N 221.715 -0.905404 -1.28997 0
M  V30 2270 C 222.943 -0.549846 -1.9946 0
M  V30 2271 C 223.358 0.866834 -1.67724 0
M  V30 2272 O 222.715 1.57298 -0.925404 0
M  V30 2273 C 222.766 -0.739387 -3.53858 0
M  V30 2274 O 222.487 -2.10031 -3.84472 0
M  V30 2275 C 223.988 -0.389541 -4.41585 0
M  V30 2276 H 221.208 -0.210429 -0.637151 0
M  V30 2277 H 223.752 -1.21632 -1.64396 0
M  V30 2278 H 221.907 -0.120023 -3.87214 0
M  V30 2279 H 222.321 -2.13385 -4.79132 0
M  V30 2280 H 223.795 -0.572972 -5.49018 0
M  V30 2281 H 224.272 0.673756 -4.34001 0
M  V30 2282 H 224.878 -0.986089 -4.1371 0
M  V30 2283 N 223.193 1.4272 -0.668489 0
M  V30 2284 C 224.421 2.05966 -0.196348 0
M  V30 2285 C 224.836 1.50191 1.14403 0
M  V30 2286 O 224.193 0.639208 1.7094 0
M  V30 2287 C 224.244 3.61314 -0.115815 0
M  V30 2288 O 223.965 4.1502 -1.40322 0
M  V30 2289 C 225.466 4.41663 0.380579 0
M  V30 2290 H 222.686 0.663954 -0.0969829 0
M  V30 2291 H 225.23 1.82966 -0.913446 0
M  V30 2292 H 223.385 3.83448 0.551931 0
M  V30 2293 H 223.799 5.08832 -1.27243 0
M  V30 2294 H 225.273 5.5065 0.385848 0
M  V30 2295 H 225.75 4.15792 1.41471 0
M  V30 2296 H 226.356 4.24534 -0.255209 0
M  V30 2297 N 224.671 0.411399 1.52136 0
M  V30 2298 C 226.087 0.0623865 1.59478 0
M  V30 2299 C 226.287 -1.42554 1.4241 0
M  V30 2300 O 225.343 -2.19263 1.2522 0
M  V30 2301 C 226.656 0.559331 2.95452 0
M  V30 2302 C 228.204 0.517503 3.08692 0
M  V30 2303 C 228.679 0.990994 4.4715 0
M  V30 2304 N 230.17 0.947908 4.53397 0
M  V30 2305 C 230.905 1.28544 5.58806 0
M  V30 2306 N 230.401 1.69454 6.71757 0
M  V30 2307 N 232.194 1.20526 5.49026 0
M  V30 2308 H 224.345 1.37982 1.61477 0
M  V30 2309 H 226.608 0.566977 0.759764 0
M  V30 2310 H 226.314 1.59938 3.1323 0
M  V30 2311 H 226.188 -0.0298014 3.77188 0
M  V30 2312 H 228.575 -0.513505 2.90598 0
M  V30 2313 H 228.656 1.14272 2.28857 0
M  V30 2314 H 228.3 2.02034 4.65988 0
M  V30 2315 H 228.23 0.34257 5.25485 0
M  V30 2316 H 230.721 0.647157 3.72317 0
M  V30 2317 H 231.034 1.93513 7.48179 0
M  V30 2318 H 229.379 1.73359 6.73032 0
M  V30 2319 H 232.57 0.884505 4.59667 0
M  V30 2320 H 232.743 1.47161 6.31069 0
M  V30 2321 N 226.149 -1.5696 0.141893 0
M  V30 2322 C 227.426 -1.87553 -0.555281 0
M  V30 2323 C 227.806 -1.04699 -1.83306 0
M  V30 2324 O 227.154 -0.132346 -2.28116 0
M  V30 2325 C 227.364 -3.39093 -0.825664 0
M  V30 2326 C 228.712 -4.08199 -1.16869 0
M  V30 2327 O 229.736 -3.44242 -0.915185 0
M  V30 2328 O 228.595 -5.21139 -1.6455 0
M  V30 2329 H 225.689 -0.777188 -0.282679 0
M  V30 2330 H 228.235 -1.68763 0.17812 0
M  V30 2331 H 227.007 -3.91221 0.0788633 0
M  V30 2332 H 226.63 -3.63393 -1.61343 0
M  V30 2333 N 227.627 0.131896 -1.57047 0
M  V30 2334 C 228.537 1.1815 -2.02676 0
M  V30 2335 C 229.553 1.46113 -0.944824 0
M  V30 2336 O 230.729 1.57485 -1.25541 0
M  V30 2337 C 227.794 2.49139 -2.41103 0
M  V30 2338 C 226.855 2.28688 -3.63318 0
M  V30 2339 C 226.088 3.53431 -3.99903 0
M  V30 2340 O 226.311 4.60223 -3.36973 0
M  V30 2341 O 225.245 3.45198 -4.93074 0
M  V30 2342 H 229.071 0.824069 -2.92306 0
M  V30 2343 H 226.656 0.341745 -1.45439 0
M  V30 2344 H 228.538 3.26338 -2.66611 0
M  V30 2345 H 227.213 2.84382 -1.54624 0
M  V30 2346 H 226.12 1.4939 -3.42977 0
M  V30 2347 H 227.453 1.98355 -4.50462 0
M  V30 2348 N 229.106 1.52395 0.401703 0
M  V30 2349 C 230.517 1.58899 0.980202 0
M  V30 2350 C 230.868 0.434032 1.91339 0
M  V30 2351 O 229.993 -0.444619 2.11783 0
M  V30 2352 C 230.588 2.87994 1.78451 0
M  V30 2353 C 229.147 2.96953 2.31292 0
M  V30 2354 C 228.294 2.53903 1.11483 0
M  V30 2355 H 231.245 1.57657 0.18168 0
M  V30 2356 H 231.266 2.73765 2.64259 0
M  V30 2357 H 230.778 3.72035 1.10506 0
M  V30 2358 H 228.879 2.17422 3.02586 0
M  V30 2359 H 228.992 4.01344 2.61649 0
M  V30 2360 H 227.356 2.07925 1.47104 0
M  V30 2361 H 228.139 3.40326 0.450928 0
M  V30 2362 N 230.584 -0.659388 1.43143 0
M  V30 2363 C 231.832 -1.41654 1.44147 0
M  V30 2364 C 232.153 -1.94893 0.0645739 0
M  V30 2365 O 231.423 -1.74044 -0.899198 0
M  V30 2366 H 230.003 -0.525708 0.530697 0
M  V30 2367 H 232.665 -0.778097 1.78694 0
M  V30 2368 H 231.761 -2.26195 2.1504 0
M  V30 2369 N 232.062 -1.29571 -0.897171 0
M  V30 2370 C 233.29 -1.20583 -1.68129 0
M  V30 2371 C 233.705 0.233181 -1.87354 0
M  V30 2372 O 233.062 1.15579 -1.41236 0
M  V30 2373 C 233.113 -1.91772 -3.06441 0
M  V30 2374 O 232.834 -3.30053 -2.88091 0
M  V30 2375 C 234.335 -1.89291 -4.00854 0
M  V30 2376 H 231.555 -0.417826 -0.525036 0
M  V30 2377 H 234.099 -1.70987 -1.12177 0
M  V30 2378 H 232.254 -1.45196 -3.59161 0
M  V30 2379 H 232.668 -3.65942 -3.75748 0
M  V30 2380 H 234.142 -2.43662 -4.95311 0
M  V30 2381 H 234.619 -0.869014 -4.30517 0
M  V30 2382 H 235.225 -2.35622 -3.54066 0
M  V30 2383 N 233.54 1.10788 -1.12088 0
M  V30 2384 C 234.45 2.20599 -0.798338 0
M  V30 2385 C 235.466 1.72712 0.21135 0
M  V30 2386 O 236.642 2.01348 0.0458477 0
M  V30 2387 C 233.707 3.45771 -0.253674 0
M  V30 2388 C 232.768 4.08411 -1.32283 0
M  V30 2389 C 232.001 5.27608 -0.80406 0
M  V30 2390 O 232.224 5.69241 0.363478 0
M  V30 2391 O 231.158 5.8101 -1.57198 0
M  V30 2392 H 234.984 2.50614 -1.7154 0
M  V30 2393 H 232.569 1.19454 -0.897275 0
M  V30 2394 H 234.451 4.21376 0.0453691 0
M  V30 2395 H 233.126 3.1739 0.636005 0
M  V30 2396 H 232.033 3.34507 -1.67499 0
M  V30 2397 H 233.366 4.40986 -2.18614 0
M  V30 2398 N 235.018 0.912232 1.28515 0
M  V30 2399 C 236.267 0.540504 1.94323 0
M  V30 2400 C 236.58 -0.920044 1.72611 0
M  V30 2401 O 237.786 -1.39986 2.32629 0
M  V30 2402 C 236.242 0.915803 3.48053 0
M  V30 2403 C 235.85 2.39598 3.78546 0
M  V30 2404 C 237.594 0.614588 4.20027 0
M  V30 2405 C 235.501 2.71148 5.25578 0
M  V30 2406 H 234.431 0.198418 0.727424 0
M  V30 2407 H 237.082 1.11094 1.46049 0
M  V30 2408 H 235.464 0.274168 3.9505 0
M  V30 2409 H 236.638 3.08422 3.42364 0
M  V30 2410 H 234.953 2.66749 3.1974 0
M  V30 2411 H 237.55 0.827002 5.28266 0
M  V30 2412 H 237.893 -0.447531 4.13887 0
M  V30 2413 H 238.426 1.21462 3.78803 0
M  V30 2414 H 235.165 3.76207 5.36794 0
M  V30 2415 H 234.685 2.0696 5.62963 0
M  V30 2416 H 236.364 2.58072 5.93302 0
M  V30 2417 N 236.496 -1.42363 0.676048 0
M  V30 2418 C 237.721 -2.06377 0.205705 0
M  V30 2419 C 238.146 -1.50463 -1.12883 0
M  V30 2420 O 237.504 -0.623619 -1.70237 0
M  V30 2421 C 237.552 -3.60277 0.152655 0
M  V30 2422 O 236.656 -4.02935 -0.87845 0
M  V30 2423 H 235.997 -0.655588 0.105359 0
M  V30 2424 H 238.527 -1.82475 0.925412 0
M  V30 2425 H 238.537 -4.07993 -0.0230675 0
M  V30 2426 H 237.212 -4.00346 1.12675 0
M  V30 2427 H 235.789 -3.66764 -0.673668 0
M  V30 2428 N 237.974 -0.419461 -1.51915 0
M  V30 2429 C 238.937 0.389116 -2.25873 0
M  V30 2430 C 239.937 0.964924 -1.28631 0
M  V30 2431 O 241.127 0.842179 -1.52489 0
M  V30 2432 C 238.259 1.54874 -3.03689 0
M  V30 2433 H 239.452 -0.258799 -2.98781 0
M  V30 2434 H 237.005 -0.172209 -1.55348 0
M  V30 2435 H 237.74 2.23323 -2.35154 0
M  V30 2436 H 237.525 1.14223 -3.75094 0
M  V30 2437 H 239.015 2.12046 -3.59759 0
M  V30 2438 N 239.452 1.56882 -0.150215 0
M  V30 2439 C 240.7 1.9584 0.499105 0
M  V30 2440 C 241.021 1.03623 1.65188 0
M  V30 2441 O 240.291 0.0984084 1.95653 0
M  V30 2442 H 238.871 0.723119 0.187373 0
M  V30 2443 H 241.533 1.9358 -0.226466 0
M  V30 2444 H 240.629 2.99638 0.873122 0
M  V30 2445 N 240.93 -0.123565 1.57115 0
M  V30 2446 C 242.176 -0.828428 1.85765 0
M  V30 2447 C 242.531 -1.77709 0.737371 0
M  V30 2448 O 241.824 -1.89787 -0.262978 0
M  V30 2449 C 242.018 -1.62016 3.18568 0
M  V30 2450 C 241.847 -0.749663 4.43407 0
M  V30 2451 C 240.617 -0.406251 5.03664 0
M  V30 2452 C 242.815 -0.0693505 5.14253 0
M  V30 2453 N 240.797 0.475389 6.12057 0
M  V30 2454 C 242.168 0.671474 6.16353 0
M  V30 2455 C 244.223 0.00754393 4.97899 0
M  V30 2456 C 242.926 1.48197 7.03868 0
M  V30 2457 C 244.952 0.804845 5.85898 0
M  V30 2458 C 244.314 1.53388 6.87497 0
M  V30 2459 H 240.413 -0.280219 0.73007 0
M  V30 2460 H 242.997 -0.0924183 1.94481 0
M  V30 2461 H 241.168 -2.32724 3.10957 0
M  V30 2462 H 242.9 -2.27 3.35042 0
M  V30 2463 H 239.655 -0.747446 4.67665 0
M  V30 2464 H 240.079 0.907924 6.70884 0
M  V30 2465 H 244.721 -0.541741 4.19315 0
M  V30 2466 H 242.439 2.04242 7.81864 0
M  V30 2467 H 246.025 0.866642 5.75309 0
M  V30 2468 H 244.905 2.1409 7.5441 0
M  V30 2469 N 242.408 -1.52605 -0.393616 0
M  V30 2470 C 243.656 -1.67093 -1.13685 0
M  V30 2471 C 243.977 -0.411011 -1.90619 0
M  V30 2472 O 243.247 0.574491 -1.87287 0
M  V30 2473 H 241.827 -0.615923 -0.422668 0
M  V30 2474 H 244.489 -1.89704 -0.447039 0
M  V30 2475 H 243.585 -2.51922 -1.84232 0
M  V30 2476 N 243.887 0.651787 -1.4349 0
M  V30 2477 C 245.112 1.44434 -1.48841 0
M  V30 2478 C 245.537 1.8779 -0.107955 0
M  V30 2479 O 244.895 1.57464 0.898602 0
M  V30 2480 C 244.943 2.65458 -2.44059 0
M  V30 2481 O 244.047 3.64566 -1.92784 0
M  V30 2482 H 243.388 0.433005 -0.503391 0
M  V30 2483 H 245.918 0.797451 -1.88419 0
M  V30 2484 H 245.928 3.13255 -2.6141 0
M  V30 2485 H 244.603 2.33244 -3.4434 0
M  V30 2486 H 243.18 3.23716 -1.851 0
M  V30 2487 N 245.365 1.30045 0.890287 0
M  V30 2488 C 246.313 1.15873 2.01683 0
M  V30 2489 C 247.307 0.0719403 1.69247 0
M  V30 2490 O 248.513 0.232414 1.78493 0
M  V30 2491 H 244.888 0.358203 0.661207 0
M  V30 2492 H 246.859 2.11229 2.10772 0
M  V30 2493 C 245.608 0.861842 3.36849 0
M  V30 2494 H 244.931 1.69016 3.62317 0
M  V30 2495 H 246.371 0.802762 4.16331 0
M  V30 2496 C 244.83 -0.435132 3.34078 0
M  V30 2497 O 245.36 -1.4583 3.74295 0
M  V30 2498 N 243.566 -0.444377 2.87182 0
M  V30 2499 H 243.113 0.388723 2.5465 0
M  V30 2500 H 243.071 -1.31213 2.85711 0
M  V30 2501 N 246.843 -1.10192 1.12674 0
M  V30 2502 C 248.068 -1.86523 0.906853 0
M  V30 2503 C 248.493 -1.80221 -0.538711 0
M  V30 2504 O 247.851 -1.17396 -1.38158 0
M  V30 2505 C 247.899 -3.32758 1.3894 0
M  V30 2506 O 247.003 -4.08449 0.5695 0
M  V30 2507 H 246.344 -0.578678 0.325619 0
M  V30 2508 H 248.874 -1.39203 1.49946 0
M  V30 2509 H 248.884 -3.83608 1.38958 0
M  V30 2510 H 247.559 -3.36661 2.44197 0
M  V30 2511 H 246.136 -3.67427 0.636528 0
M  V30 2512 N 248.321 -0.919034 -1.28029 0
M  V30 2513 C 249.551 -0.570143 -1.98577 0
M  V30 2514 C 249.959 0.854172 -1.68821 0
M  V30 2515 O 249.302 1.57807 -0.940351 0
M  V30 2516 C 249.364 -0.705734 -3.52505 0
M  V30 2517 C 249.028 -2.10057 -4.05863 0
M  V30 2518 C 250.025 -3.07385 -4.19298 0
M  V30 2519 C 247.71 -2.41517 -4.40426 0
M  V30 2520 C 249.704 -4.34287 -4.66555 0
M  V30 2521 C 247.391 -3.68657 -4.87376 0
M  V30 2522 C 248.389 -4.64856 -5.00398 0
M  V30 2523 O 248.077 -5.89735 -5.46322 0
M  V30 2524 H 247.809 -0.215592 -0.6407 0
M  V30 2525 H 250.363 -1.23583 -1.64062 0
M  V30 2526 H 248.593 0.0170414 -3.86696 0
M  V30 2527 H 250.282 -0.363172 -4.04272 0
M  V30 2528 H 251.048 -2.84398 -3.92865 0
M  V30 2529 H 246.927 -1.67389 -4.29537 0
M  V30 2530 H 250.471 -5.09377 -4.76635 0
M  V30 2531 H 246.368 -3.91466 -5.13249 0
M  V30 2532 H 247.136 -5.92599 -5.64596 0
M  V30 2533 N 249.799 1.42003 -0.683588 0
M  V30 2534 C 250.731 2.29183 0.0283068 0
M  V30 2535 C 251.744 1.4415 0.756611 0
M  V30 2536 O 252.933 1.67779 0.609306 0
M  V30 2537 C 250.033 3.21765 1.06398 0
M  V30 2538 C 249.206 4.35496 0.407723 0
M  V30 2539 C 248.265 5.08737 1.34437 0
M  V30 2540 O 247.291 5.62948 0.841318 0
M  V30 2541 N 248.493 5.15075 2.67728 0
M  V30 2542 H 251.258 2.9092 -0.720105 0
M  V30 2543 H 248.819 1.53025 -0.528682 0
M  V30 2544 H 250.811 3.6763 1.69204 0
M  V30 2545 H 249.381 2.61418 1.71404 0
M  V30 2546 H 248.601 3.92165 -0.400012 0
M  V30 2547 H 249.889 5.08776 -0.0490956 0
M  V30 2548 H 249.287 4.72457 3.11129 0
M  V30 2549 H 247.844 5.64556 3.2576 0
M  V30 2550 N 251.277 0.427512 1.51691 0
M  V30 2551 C 252.225 -0.403359 2.29076 0
M  V30 2552 C 253.219 -1.02962 1.34518 0
M  V30 2553 O 254.425 -0.965715 1.51901 0
M  V30 2554 H 250.8 -0.148879 0.737115 0
M  V30 2555 H 252.771 0.270295 2.97173 0
M  V30 2556 C 251.52 -1.49763 3.13794 0
M  V30 2557 H 250.843 -1.02508 3.86435 0
M  V30 2558 H 252.283 -2.05244 3.71014 0
M  V30 2559 C 250.742 -2.47536 2.28533 0
M  V30 2560 O 251.272 -3.51848 1.93819 0
M  V30 2561 N 249.478 -2.18187 1.91945 0
M  V30 2562 H 249.025 -1.33389 2.20375 0
M  V30 2563 H 248.983 -2.83848 1.35195 0
M  V30 2564 N 252.755 -1.56801 0.158532 0
M  V30 2565 C 253.985 -2.00568 -0.495583 0
M  V30 2566 C 254.393 -1.03774 -1.58201 0
M  V30 2567 O 253.736 -0.0285797 -1.83678 0
M  V30 2568 C 253.798 -3.40768 -1.14532 0
M  V30 2569 C 253.462 -4.56553 -0.202101 0
M  V30 2570 C 254.459 -5.16714 0.574675 0
M  V30 2571 C 252.144 -5.02197 -0.101648 0
M  V30 2572 C 254.138 -6.20939 1.43924 0
M  V30 2573 C 251.825 -6.06274 0.766508 0
M  V30 2574 C 252.823 -6.65515 1.53555 0
M  V30 2575 O 252.511 -7.67575 2.38922 0
M  V30 2576 H 252.243 -0.662893 -0.13247 0
M  V30 2577 H 254.797 -2.03829 0.253559 0
M  V30 2578 H 253.027 -3.34381 -1.94233 0
M  V30 2579 H 254.716 -3.6857 -1.70033 0
M  V30 2580 H 255.482 -4.82341 0.507167 0
M  V30 2581 H 251.361 -4.55807 -0.689994 0
M  V30 2582 H 254.905 -6.67107 2.03996 0
M  V30 2583 H 250.802 -6.40073 0.835266 0
M  V30 2584 H 251.57 -7.84844 2.32296 0
M  V30 2585 N 254.233 0.115231 -1.57178 0
M  V30 2586 C 255.51 0.852873 -1.76027 0
M  V30 2587 C 255.89 1.97892 -0.73498 0
M  V30 2588 O 255.238 2.27232 0.24036 0
M  V30 2589 C 255.448 1.36608 -3.21153 0
M  V30 2590 C 256.796 1.81692 -3.83762 0
M  V30 2591 O 257.82 1.46278 -3.24779 0
M  V30 2592 O 256.679 2.47104 -4.87444 0
M  V30 2593 H 253.773 0.405296 -0.720877 0
M  V30 2594 H 256.319 0.0986785 -1.69413 0
M  V30 2595 H 255.091 0.558357 -3.87296 0
M  V30 2596 H 254.714 2.18287 -3.3232 0
M  V30 2597 N 255.711 1.52812 0.385517 0
M  V30 2598 C 256.957 1.68275 1.13188 0
M  V30 2599 C 257.29 0.423179 1.89533 0
M  V30 2600 O 256.565 -0.579113 1.85679 0
M  V30 2601 C 256.848 2.92001 2.1073 0
M  V30 2602 C 256.701 4.28067 1.38125 0
M  V30 2603 C 258.02 3.11283 3.11113 0
M  V30 2604 H 255.139 0.612352 0.410115 0
M  V30 2605 H 257.781 1.85415 0.414869 0
M  V30 2606 H 255.931 2.77519 2.71874 0
M  V30 2607 H 257.603 4.54324 0.799187 0
M  V30 2608 H 255.846 4.28388 0.683092 0
M  V30 2609 H 256.517 5.10733 2.09417 0
M  V30 2610 H 258.993 3.2482 2.6006 0
M  V30 2611 H 257.869 3.99325 3.76605 0
M  V30 2612 H 258.13 2.25656 3.80173 0
M  V30 2613 N 257.189 -0.644168 1.43834 0
M  V30 2614 C 258.414 -1.43642 1.49605 0
M  V30 2615 C 258.839 -1.8773 0.117913 0
M  V30 2616 O 258.197 -1.57938 -0.890239 0
M  V30 2617 C 258.245 -2.6416 2.45463 0
M  V30 2618 O 257.349 -3.63538 1.94714 0
M  V30 2619 H 256.69 -0.430329 0.50568 0
M  V30 2620 H 259.22 -0.787448 1.8884 0
M  V30 2621 H 259.23 -3.11864 2.63068 0
M  V30 2622 H 257.905 -2.31414 3.45572 0
M  V30 2623 H 256.482 -3.2273 1.86814 0
M  V30 2624 N 258.668 -1.30515 -0.883378 0
M  V30 2625 C 259.896 -1.22359 -1.66841 0
M  V30 2626 C 260.311 0.213296 -1.87591 0
M  V30 2627 O 259.668 1.14075 -1.42454 0
M  V30 2628 C 259.719 -1.95011 -3.04389 0
M  V30 2629 O 259.44 -3.3309 -2.84575 0
M  V30 2630 C 260.941 -1.93532 -3.98824 0
M  V30 2631 H 258.161 -0.423371 -0.520575 0
M  V30 2632 H 260.705 -1.72167 -1.10357 0
M  V30 2633 H 258.86 -1.48997 -3.57601 0
M  V30 2634 H 259.274 -3.69907 -3.71846 0
M  V30 2635 H 260.748 -2.48902 -4.92699 0
M  V30 2636 H 261.225 -0.914627 -4.29571 0
M  V30 2637 H 261.831 -2.39364 -3.51547 0
M  V30 2638 N 260.146 1.09593 -1.13257 0
M  V30 2639 C 261.078 2.16015 -0.766167 0
M  V30 2640 C 262.091 1.61423 0.211303 0
M  V30 2641 O 263.28 1.78498 -0.00863946 0
M  V30 2642 C 260.38 3.38706 -0.114662 0
M  V30 2643 C 259.553 4.22717 -1.12379 0
M  V30 2644 C 258.612 5.23835 -0.498301 0
M  V30 2645 O 257.638 5.573 -1.15781 0
M  V30 2646 N 258.84 5.75886 0.730417 0
M  V30 2647 H 261.605 2.48055 -1.68193 0
M  V30 2648 H 259.166 1.25292 -1.02535 0
M  V30 2649 H 261.158 4.03464 0.315991 0
M  V30 2650 H 259.728 3.04569 0.704011 0
M  V30 2651 H 258.948 3.54122 -1.73179 0
M  V30 2652 H 260.236 4.75673 -1.80589 0
M  V30 2653 H 259.634 5.50911 1.28504 0
M  V30 2654 H 258.191 6.42387 1.10376 0
M  V30 2655 N 261.624 0.925811 1.2754 0
M  V30 2656 C 262.556 0.380753 2.26015 0
M  V30 2657 C 263.569 -0.487485 1.5533 0
M  V30 2658 O 264.758 -0.300413 1.75954 0
M  V30 2659 C 261.858 -0.473259 3.35579 0
M  V30 2660 C 261.031 0.375249 4.35787 0
M  V30 2661 C 260.09 -0.415809 5.24555 0
M  V30 2662 O 259.116 0.175834 5.68928 0
M  V30 2663 N 260.318 -1.71607 5.54555 0
M  V30 2664 H 263.083 1.22725 2.73421 0
M  V30 2665 H 260.644 0.793037 1.41147 0
M  V30 2666 H 262.636 -1.00949 3.91907 0
M  V30 2667 H 261.206 -1.2205 2.87789 0
M  V30 2668 H 260.426 1.09279 3.7875 0
M  V30 2669 H 261.714 0.955399 4.99749 0
M  V30 2670 H 261.112 -2.2191 5.20358 0
M  V30 2671 H 259.669 -2.19887 6.1359 0
M  V30 2672 N 263.102 -1.41638 0.69111 0
M  V30 2673 C 264.034 -2.29194 -0.0161523 0
M  V30 2674 C 265.047 -1.44549 -0.748955 0
M  V30 2675 O 266.236 -1.681 -0.6004 0
M  V30 2676 C 263.336 -3.22325 -1.0469 0
M  V30 2677 C 262.509 -4.35706 -0.384621 0
M  V30 2678 C 261.568 -5.09443 -1.31737 0
M  V30 2679 O 260.594 -5.63386 -0.811451 0
M  V30 2680 N 261.796 -5.16487 -2.64993 0
M  V30 2681 H 264.561 -2.90534 0.735523 0
M  V30 2682 H 262.122 -1.52742 0.53679 0
M  V30 2683 H 264.114 -3.68522 -1.67252 0
M  V30 2684 H 262.684 -2.62323 -1.70015 0
M  V30 2685 H 261.904 -3.91948 0.420804 0
M  V30 2686 H 263.192 -5.08743 0.0760765 0
M  V30 2687 H 262.59 -4.741 -3.08619 0
M  V30 2688 H 261.147 -5.66276 -3.22761 0
M  V30 2689 N 264.58 -0.43555 -1.51462 0
M  V30 2690 C 265.51 0.367376 -2.30592 0
M  V30 2691 C 266.491 1.02263 -1.35928 0
M  V30 2692 O 267.676 1.02661 -1.64847 0
M  V30 2693 C 264.806 1.46983 -3.14664 0
M  V30 2694 C 263.76 0.938161 -4.17591 0
M  V30 2695 C 263.086 2.13622 -4.90173 0
M  V30 2696 C 264.386 -0.0261621 -5.22293 0
M  V30 2697 H 266.08 -0.292969 -2.97963 0
M  V30 2698 H 263.626 -0.14234 -1.43295 0
M  V30 2699 H 265.579 2.03873 -3.688 0
M  V30 2700 H 264.303 2.15843 -2.4511 0
M  V30 2701 H 262.962 0.391481 -3.64504 0
M  V30 2702 H 262.61 2.81098 -4.17124 0
M  V30 2703 H 262.31 1.78688 -5.59772 0
M  V30 2704 H 263.834 2.7107 -5.47132 0
M  V30 2705 H 265.248 0.452384 -5.71512 0
M  V30 2706 H 263.645 -0.287992 -5.99409 0
M  V30 2707 H 264.715 -0.963391 -4.75233 0
M  V30 2708 N 266.058 1.56714 -0.166846 0
M  V30 2709 C 267.306 1.96358 0.478305 0
M  V30 2710 C 267.627 1.0537 1.6408 0
M  V30 2711 O 266.897 0.119154 1.95537 0
M  V30 2712 H 265.477 0.725065 0.179692 0
M  V30 2713 H 268.139 1.93329 -0.246985 0
M  V30 2714 H 267.235 3.00547 0.841292 0
M  V30 2715 N 267.536 -0.106894 1.57237 0
M  V30 2716 C 268.813 -0.843526 1.76477 0
M  V30 2717 C 269.193 -1.97499 0.745464 0
M  V30 2718 O 268.541 -2.27357 -0.228306 0
M  V30 2719 C 268.751 -1.34903 3.21873 0
M  V30 2720 C 270.099 -1.79654 3.8472 0
M  V30 2721 O 271.123 -1.44554 3.2555 0
M  V30 2722 O 269.982 -2.44515 4.88748 0
M  V30 2723 H 267.076 -0.401468 0.723016 0
M  V30 2724 H 269.622 -0.0896927 1.69463 0
M  V30 2725 H 268.394 -0.53781 3.87586 0
M  V30 2726 H 268.017 -2.16522 3.33473 0
M  V30 2727 N 269.014 -1.53014 -0.377408 0
M  V30 2728 C 269.961 -1.78616 -1.46168 0
M  V30 2729 C 270.931 -0.629917 -1.53692 0
M  V30 2730 O 272.116 -0.870861 -1.69766 0
M  V30 2731 C 269.256 -1.97123 -2.8326 0
M  V30 2732 C 268.369 -3.24831 -2.84796 0
M  V30 2733 C 267.504 -3.33591 -4.13389 0
M  V30 2734 C 266.543 -4.55377 -4.09021 0
M  V30 2735 N 265.68 -4.61355 -5.29241 0
M  V30 2736 H 270.52 -2.71142 -1.23637 0
M  V30 2737 H 268.057 -1.34326 -0.599577 0
M  V30 2738 H 270.015 -2.05839 -3.62886 0
M  V30 2739 H 268.645 -1.07946 -3.04216 0
M  V30 2740 H 267.697 -3.25128 -1.97474 0
M  V30 2741 H 269.009 -4.14523 -2.77439 0
M  V30 2742 H 268.163 -3.41554 -5.01424 0
M  V30 2743 H 266.902 -2.41894 -4.23484 0
M  V30 2744 H 265.907 -4.47527 -3.19373 0
M  V30 2745 H 267.132 -5.48402 -4.00539 0
M  V30 2746 H 265.078 -3.72554 -5.39944 0
M  V30 2747 H 264.995 -5.44935 -5.24006 0
M  V30 2748 H 266.263 -4.73586 -6.19141 0
M  V30 2749 N 270.492 0.636531 -1.44174 0
M  V30 2750 C 271.72 1.42353 -1.50144 0
M  V30 2751 C 272.135 1.88389 -0.124575 0
M  V30 2752 O 271.492 1.6051 0.868489 0
M  V30 2753 C 271.543 2.64744 -2.46156 0
M  V30 2754 O 271.264 2.20629 -3.7849 0
M  V30 2755 C 272.765 3.57929 -2.61537 0
M  V30 2756 H 269.985 0.436752 -0.5094 0
M  V30 2757 H 272.529 0.778933 -1.89084 0
M  V30 2758 H 270.684 3.25307 -2.10366 0
M  V30 2759 H 271.098 2.99938 -4.30276 0
M  V30 2760 H 272.572 4.40428 -3.32757 0
M  V30 2761 H 273.049 4.06382 -1.66585 0
M  V30 2762 H 273.655 3.03238 -2.98206 0
M  V30 2763 N 271.97 1.30982 0.876444 0
M  V30 2764 C 273.386 1.09498 1.16113 0
M  V30 2765 C 273.586 -0.13875 2.01022 0
M  V30 2766 O 272.642 -0.829935 2.38471 0
M  V30 2767 C 273.955 2.36308 1.85954 0
M  V30 2768 C 275.503 2.41856 1.98683 0
M  V30 2769 C 275.978 3.6853 2.71937 0
M  V30 2770 N 277.469 3.69387 2.79477 0
M  V30 2771 C 278.204 4.64096 3.36753 0
M  V30 2772 N 277.7 5.69155 3.95012 0
M  V30 2773 N 279.493 4.51626 3.3465 0
M  V30 2774 H 271.644 2.10118 0.310494 0
M  V30 2775 H 273.907 0.926634 0.200131 0
M  V30 2776 H 273.613 3.26388 1.31011 0
M  V30 2777 H 273.487 2.4561 2.86278 0
M  V30 2778 H 275.874 1.52249 2.52793 0
M  V30 2779 H 275.955 2.36523 0.9742 0
M  V30 2780 H 275.599 4.58499 2.18496 0
M  V30 2781 H 275.529 3.71127 3.73593 0
M  V30 2782 H 278.02 2.93438 2.38123 0
M  V30 2783 H 278.333 6.3751 4.36808 0
M  V30 2784 H 276.678 5.72937 3.93406 0
M  V30 2785 H 279.869 3.68728 2.8837 0
M  V30 2786 H 280.042 5.25614 3.7899 0
M  V30 2787 N 273.449 -1.08991 1.13837 0
M  V30 2788 C 274.695 -1.81526 0.90422 0
M  V30 2789 C 275.028 -1.85706 -0.568066 0
M  V30 2790 O 274.303 -1.32855 -1.42056 0
M  V30 2791 C 274.586 -3.27447 1.49835 0
M  V30 2792 C 274.439 -3.31512 3.04006 0
M  V30 2793 C 275.758 -4.24256 1.17025 0
M  V30 2794 H 272.877 -0.659029 0.329923 0
M  V30 2795 H 275.519 -1.27644 1.40737 0
M  V30 2796 H 273.669 -3.73462 1.07044 0
M  V30 2797 H 275.341 -2.93867 3.55584 0
M  V30 2798 H 273.584 -2.70963 3.38765 0
M  V30 2799 H 274.255 -4.34329 3.40679 0
M  V30 2800 H 276.731 -3.86549 1.54009 0
M  V30 2801 H 275.607 -5.24684 1.61237 0
M  V30 2802 H 275.868 -4.42019 0.0846274 0
M  V30 2803 N 274.927 -0.932562 -1.27047 0
M  V30 2804 C 276.155 -0.592031 -1.98249 0
M  V30 2805 C 276.57 0.831062 -1.69525 0
M  V30 2806 O 275.927 1.55299 -0.958561 0
M  V30 2807 C 275.978 -0.814279 -3.5221 0
M  V30 2808 O 275.699 -2.18139 -3.7993 0
M  V30 2809 C 277.2 -0.483121 -4.4066 0
M  V30 2810 H 274.42 -0.223896 -0.632544 0
M  V30 2811 H 276.964 -1.25091 -1.61779 0
M  V30 2812 H 275.119 -0.20213 -3.86872 0
M  V30 2813 H 275.533 -2.235 -4.74498 0
M  V30 2814 H 277.007 -0.689298 -5.47679 0
M  V30 2815 H 277.484 0.581546 -4.35333 0
M  V30 2816 H 278.09 -1.07362 -4.11526 0
M  V30 2817 N 276.405 1.4127 -0.698611 0
M  V30 2818 C 277.335 2.33447 -0.049629 0
M  V30 2819 C 278.316 1.51982 0.763898 0
M  V30 2820 O 279.501 1.80509 0.716257 0
M  V30 2821 C 276.631 3.35828 0.885267 0
M  V30 2822 C 275.585 4.27627 0.178613 0
M  V30 2823 C 274.911 5.20406 1.22807 0
M  V30 2824 C 276.211 5.13459 -0.956933 0
M  V30 2825 H 277.905 2.87966 -0.81951 0
M  V30 2826 H 275.451 1.38461 -0.395538 0
M  V30 2827 H 277.404 3.9924 1.34854 0
M  V30 2828 H 276.128 2.79666 1.68685 0
M  V30 2829 H 274.787 3.65643 -0.26466 0
M  V30 2830 H 274.435 4.60558 2.02226 0
M  V30 2831 H 274.135 5.82661 0.760239 0
M  V30 2832 H 275.659 5.86695 1.69179 0
M  V30 2833 H 277.073 5.70421 -0.573805 0
M  V30 2834 H 275.47 5.8467 -1.35205 0
M  V30 2835 H 276.54 4.50443 -1.79524 0
M  V30 2836 N 277.883 0.443576 1.51229 0
M  V30 2837 C 278.813 -0.355142 2.30783 0
M  V30 2838 C 279.794 -1.0154 1.36468 0
M  V30 2839 O 280.979 -1.01785 1.65389 0
M  V30 2840 C 278.109 -1.45312 3.15439 0
M  V30 2841 C 277.063 -0.916002 4.18083 0
M  V30 2842 C 276.389 -2.1102 4.91299 0
M  V30 2843 C 277.689 0.0538602 5.22272 0
M  V30 2844 H 279.383 0.308767 2.97804 0
M  V30 2845 H 276.929 0.149937 1.43217 0
M  V30 2846 H 278.882 -2.01914 3.69876 0
M  V30 2847 H 277.606 -2.14541 2.46252 0
M  V30 2848 H 276.265 -0.372145 3.64706 0
M  V30 2849 H 275.913 -2.78882 4.18609 0
M  V30 2850 H 275.613 -1.75717 5.60712 0
M  V30 2851 H 277.137 -2.68164 5.48562 0
M  V30 2852 H 278.551 -0.422069 5.71744 0
M  V30 2853 H 276.948 0.319776 5.99247 0
M  V30 2854 H 278.018 0.98858 4.74716 0
M  V30 2855 N 279.361 -1.56624 0.175154 0
M  V30 2856 C 280.609 -1.96609 -0.467885 0
M  V30 2857 C 280.93 -1.06238 -1.63519 0
M  V30 2858 O 280.2 -0.129523 -1.95471 0
M  V30 2859 H 278.78 -0.726008 -0.175845 0
M  V30 2860 H 281.442 -1.93195 0.257234 0
M  V30 2861 H 280.538 -3.00989 -0.825342 0
M  V30 2862 N 280.839 0.0985539 -1.57292 0
M  V30 2863 C 282.116 0.834155 -1.76921 0
M  V30 2864 C 282.496 1.97101 -0.755928 0
M  V30 2865 O 281.844 2.27474 0.216245 0
M  V30 2866 C 282.054 1.33194 -3.22584 0
M  V30 2867 C 283.402 1.77611 -3.85668 0
M  V30 2868 O 284.426 1.42825 -3.26312 0
M  V30 2869 O 283.285 2.4192 -4.90038 0
M  V30 2870 H 280.379 0.397628 -0.725135 0
M  V30 2871 H 282.925 0.0807044 -1.69508 0
M  V30 2872 H 281.697 0.517248 -3.87866 0
M  V30 2873 H 281.32 2.1475 -3.34616 0
M  V30 2874 N 282.317 1.53212 0.369288 0
M  V30 2875 C 283.547 1.72868 1.13139 0
M  V30 2876 C 283.955 0.455754 1.83629 0
M  V30 2877 O 283.298 -0.580861 1.74275 0
M  V30 2878 C 283.36 2.83667 2.20847 0
M  V30 2879 C 283.024 4.24142 1.70155 0
M  V30 2880 C 284.021 5.06619 1.16763 0
M  V30 2881 C 281.706 4.70539 1.7578 0
M  V30 2882 C 283.7 6.33581 0.696678 0
M  V30 2883 C 281.387 5.97481 1.28297 0
M  V30 2884 C 282.385 6.78833 0.753307 0
M  V30 2885 O 282.073 8.03393 0.285475 0
M  V30 2886 H 281.805 0.581707 0.344373 0
M  V30 2887 H 284.359 2.00736 0.435243 0
M  V30 2888 H 282.589 2.51265 2.93944 0
M  V30 2889 H 284.278 2.91536 2.82421 0
M  V30 2890 H 285.044 4.71948 1.11758 0
M  V30 2891 H 280.923 4.07293 2.15949 0
M  V30 2892 H 284.467 6.97027 0.282581 0
M  V30 2893 H 280.364 6.31651 1.32994 0
M  V30 2894 H 281.132 8.17497 0.405145 0
M  V30 2895 N 283.795 -0.628877 1.44509 0
M  V30 2896 C 284.758 -1.72263 1.51188 0
M  V30 2897 C 285.758 -1.55907 0.39367 0
M  V30 2898 O 286.948 -1.61361 0.656377 0
M  V30 2899 C 284.08 -3.11365 1.38798 0
M  V30 2900 H 285.273 -1.67714 2.4862 0
M  V30 2901 H 282.826 -0.842737 1.31634 0
M  V30 2902 H 283.561 -3.21507 0.424693 0
M  V30 2903 H 283.346 -3.24644 2.19884 0
M  V30 2904 H 284.836 -3.91075 1.46458 0
M  V30 2905 N 285.273 -1.31445 -0.869486 0
M  V30 2906 C 286.223 -1.15731 -1.96444 0
M  V30 2907 C 287.207 -0.0681855 -1.60755 0
M  V30 2908 O 288.399 -0.293154 -1.74555 0
M  V30 2909 C 285.528 -0.867255 -3.32165 0
M  V30 2910 C 284.614 -1.99738 -3.74119 0
M  V30 2911 N 285.005 -3.24447 -3.88031 0
M  V30 2912 C 283.303 -1.89723 -4.03635 0
M  V30 2913 C 284.004 -3.98374 -4.23879 0
M  V30 2914 N 282.98 -3.26547 -4.3459 0
M  V30 2915 H 286.782 -2.10296 -2.05312 0
M  V30 2916 H 284.296 -1.23009 -1.06031 0
M  V30 2917 H 286.293 -0.735668 -4.10358 0
M  V30 2918 H 284.953 0.0701614 -3.24624 0
M  V30 2919 H 285.964 -3.59557 -3.72746 0
M  V30 2920 H 282.641 -1.03449 -4.04481 0
M  V30 2921 H 284.031 -5.05844 -4.42235 0
M  V30 2922 N 286.751 1.08385 -1.14413 0
M  V30 2923 C 287.979 1.84517 -0.936001 0
M  V30 2924 C 288.394 1.81626 0.515503 0
M  V30 2925 O 287.751 1.22008 1.35721 0
M  V30 2926 C 287.802 3.32049 -1.42918 0
M  V30 2927 O 287.523 3.34951 -2.82381 0
M  V30 2928 C 289.024 4.24986 -1.26103 0
M  V30 2929 H 286.244 0.582491 -0.333084 0
M  V30 2930 H 288.788 1.36885 -1.5193 0
M  V30 2931 H 286.943 3.7707 -0.888641 0
M  V30 2932 H 287.357 4.27048 -3.04517 0
M  V30 2933 H 288.831 5.26615 -1.6547 0
M  V30 2934 H 289.308 4.38726 -0.20392 0
M  V30 2935 H 289.914 3.85791 -1.79012 0
M  V30 2936 N 288.23 0.939286 1.26551 0
M  V30 2937 C 289.18 0.418284 2.2413 0
M  V30 2938 C 290.164 -0.483935 1.5345 0
M  V30 2939 O 291.356 -0.319489 1.74093 0
M  V30 2940 C 288.485 -0.31709 3.41832 0
M  V30 2941 C 287.571 0.602311 4.19801 0
M  V30 2942 N 287.962 1.72726 4.75394 0
M  V30 2943 C 286.26 0.407534 4.44134 0
M  V30 2944 C 286.961 2.30004 5.34297 0
M  V30 2945 N 285.937 1.58828 5.1988 0
M  V30 2946 H 289.739 1.27705 2.64705 0
M  V30 2947 H 287.253 0.794929 1.41614 0
M  V30 2948 H 289.25 -0.707364 4.10855 0
M  V30 2949 H 287.91 -1.17264 3.02786 0
M  V30 2950 H 288.921 2.10944 4.72994 0
M  V30 2951 H 285.598 -0.406406 4.15517 0
M  V30 2952 H 286.988 3.24778 5.88191 0
M  V30 2953 N 289.708 -1.40897 0.706093 0
M  V30 2954 C 290.956 -2.00657 0.241054 0
M  V30 2955 C 291.277 -1.56241 -1.16678 0
M  V30 2956 O 290.547 -0.79765 -1.78926 0
M  V30 2957 H 289.127 -0.742018 0.0861308 0
M  V30 2958 H 291.789 -1.72372 0.909604 0
M  V30 2959 H 290.885 -3.10958 0.266705 0
M  V30 2960 N 291.186 -0.45159 -1.50991 0
M  V30 2961 C 292.416 0.108177 -2.06317 0
M  V30 2962 C 292.824 1.35774 -1.31765 0
M  V30 2963 O 292.167 1.79838 -0.374694 0
M  V30 2964 C 292.229 0.481659 -3.56259 0
M  V30 2965 C 291.893 -0.663114 -4.52163 0
M  V30 2966 C 292.89 -1.53947 -4.96585 0
M  V30 2967 C 290.575 -0.8479 -4.95092 0
M  V30 2968 C 292.569 -2.58518 -5.82621 0
M  V30 2969 C 290.256 -1.89686 -5.80915 0
M  V30 2970 C 291.254 -2.76388 -6.24579 0
M  V30 2971 O 290.942 -3.79482 -7.08695 0
M  V30 2972 H 290.674 0.00499183 -0.675982 0
M  V30 2973 H 293.228 -0.633659 -1.95381 0
M  V30 2974 H 291.458 1.27641 -3.65027 0
M  V30 2975 H 293.147 0.974233 -3.94035 0
M  V30 2976 H 293.913 -1.4083 -4.64103 0
M  V30 2977 H 289.792 -0.18258 -4.60638 0
M  V30 2978 H 293.336 -3.26224 -6.16623 0
M  V30 2979 H 289.233 -2.02817 -6.12809 0
M  V30 2980 H 290.001 -3.76234 -7.26905 0
M  V30 2981 N 292.664 1.56529 -0.183458 0
M  V30 2982 C 293.941 1.88959 0.50536 0
M  V30 2983 C 294.321 1.09523 1.80466 0
M  V30 2984 O 293.669 0.19278 2.27685 0
M  V30 2985 C 293.879 3.41162 0.73547 0
M  V30 2986 C 295.227 4.11155 1.06005 0
M  V30 2987 O 296.251 3.46548 0.823594 0
M  V30 2988 O 295.11 5.25318 1.50675 0
M  V30 2989 H 292.204 0.78441 0.261973 0
M  V30 2990 H 294.75 1.68231 -0.222802 0
M  V30 2991 H 293.522 3.90874 -0.182561 0
M  V30 2992 H 293.145 3.67543 1.51651 0
M  V30 2993 N 294.142 -0.090211 1.57342 0
M  V30 2994 C 295.388 -0.793982 1.86611 0
M  V30 2995 C 295.721 -1.78142 0.773252 0
M  V30 2996 O 294.996 -1.93271 -0.218304 0
M  V30 2997 C 295.279 -1.51839 3.26523 0
M  V30 2998 C 295.132 -0.548609 4.46442 0
M  V30 2999 C 296.451 -2.46779 3.64401 0
M  V30 3000 H 293.57 -0.287186 0.678744 0
M  V30 3001 H 296.212 -0.0575076 1.89913 0
M  V30 3002 H 294.362 -2.14617 3.23839 0
M  V30 3003 H 296.034 0.0725513 4.61243 0
M  V30 3004 H 294.277 0.137614 4.33582 0
M  V30 3005 H 294.948 -1.09271 5.41076 0
M  V30 3006 H 297.424 -1.94089 3.68061 0
M  V30 3007 H 296.3 -2.94479 4.63221 0
M  V30 3008 H 296.561 -3.30758 2.93346 0
M  V30 3009 N 295.62 -1.53406 -0.361157 0
M  V30 3010 C 296.866 -1.70054 -1.10496 0
M  V30 3011 C 297.199 -0.453278 -1.88836 0
M  V30 3012 O 296.474 0.5495 -1.86576 0
M  V30 3013 C 296.757 -2.95317 -2.06058 0
M  V30 3014 C 296.61 -4.3021 -1.31298 0
M  V30 3015 C 297.929 -3.16193 -3.06121 0
M  V30 3016 H 295.048 -0.618799 -0.400321 0
M  V30 3017 H 297.69 -1.86052 -0.385318 0
M  V30 3018 H 295.84 -2.81809 -2.67425 0
M  V30 3019 H 297.512 -4.55538 -0.726807 0
M  V30 3020 H 295.755 -4.29421 -0.614853 0
M  V30 3021 H 296.426 -5.14 -2.01265 0
M  V30 3022 H 298.902 -3.28916 -2.5486 0
M  V30 3023 H 297.778 -4.05266 -3.70204 0
M  V30 3024 H 298.039 -2.31676 -3.76535 0
M  V30 3025 N 297.098 0.621204 -1.44841 0
M  V30 3026 C 298.061 1.71459 -1.521 0
M  V30 3027 C 299.061 1.55696 -0.401933 0
M  V30 3028 O 300.251 1.61011 -0.664925 0
M  V30 3029 C 297.383 3.10624 -1.40447 0
M  V30 3030 H 298.576 1.66394 -2.49506 0
M  V30 3031 H 296.129 0.835745 -1.3208 0
M  V30 3032 H 296.864 3.21277 -0.441737 0
M  V30 3033 H 296.649 3.23473 -2.21602 0
M  V30 3034 H 298.139 3.90293 -1.4853 0
M  V30 3035 N 298.576 1.31904 0.862503 0
M  V30 3036 C 299.806 1.24817 1.64634 0
M  V30 3037 C 300.214 -0.187579 1.88268 0
M  V30 3038 O 299.557 -1.13253 1.44635 0
M  V30 3039 C 299.619 1.92996 3.03303 0
M  V30 3040 C 299.283 3.42336 3.02746 0
M  V30 3041 C 300.28 4.37956 2.80162 0
M  V30 3042 C 297.965 3.84147 3.2363 0
M  V30 3043 C 299.959 5.73361 2.78453 0
M  V30 3044 C 297.646 5.19663 3.21549 0
M  V30 3045 C 298.644 6.14081 2.98988 0
M  V30 3046 O 298.332 7.47118 2.96766 0
M  V30 3047 H 298.064 0.432222 0.519769 0
M  V30 3048 H 300.618 1.7445 1.08427 0
M  V30 3049 H 298.848 1.37922 3.61268 0
M  V30 3050 H 300.537 1.79723 3.63943 0
M  V30 3051 H 301.303 4.06981 2.63802 0
M  V30 3052 H 297.182 3.11083 3.40218 0
M  V30 3053 H 300.726 6.4703 2.60763 0
M  V30 3054 H 296.623 5.5027 3.37451 0
M  V30 3055 H 297.391 7.56382 3.12775 0
M  V30 3056 N 300.054 -1.07777 1.14986 0
M  V30 3057 C 301.302 -1.79934 0.920235 0
M  V30 3058 C 301.623 -1.86955 -0.554336 0
M  V30 3059 O 300.893 -1.36731 -1.40291 0
M  V30 3060 H 299.473 -0.666424 0.337473 0
M  V30 3061 H 302.135 -1.3027 1.44968 0
M  V30 3062 H 301.231 -2.82539 1.32583 0
M  V30 3063 N 301.532 -0.945985 -1.26051 0
M  V30 3064 C 302.48 -0.450259 -2.282 0
M  V30 3065 C 303.474 0.47497 -1.62605 0
M  V30 3066 O 304.68 0.352653 -1.76512 0
M  V30 3067 H 301.055 -0.127081 -0.741184 0
M  V30 3068 H 303.026 -1.32422 -2.67408 0
M  V30 3069 C 301.775 0.26467 -3.46691 0
M  V30 3070 H 301.098 -0.438123 -3.97392 0
M  V30 3071 H 302.538 0.575678 -4.20074 0
M  V30 3072 C 300.997 1.48416 -3.02447 0
M  V30 3073 O 301.527 2.58227 -3.07704 0
M  V30 3074 N 299.733 1.34243 -2.57735 0
M  V30 3075 H 299.28 0.448994 -2.53657 0
M  V30 3076 H 299.238 2.15957 -2.28495 0
M  V30 3077 N 303.011 1.40521 -0.713556 0
M  V30 3078 C 304.239 2.05237 -0.261775 0
M  V30 3079 C 304.654 1.53755 1.09567 0
M  V30 3080 O 304.011 0.693268 1.6882 0
M  V30 3081 C 304.062 3.60763 -0.230706 0
M  V30 3082 O 303.783 4.10345 -1.53455 0
M  V30 3083 C 305.284 4.42651 0.239874 0
M  V30 3084 H 302.504 0.660533 -0.118057 0
M  V30 3085 H 305.048 1.79967 -0.971192 0
M  V30 3086 H 303.203 3.8501 0.429661 0
M  V30 3087 H 303.617 5.04526 -1.43366 0
M  V30 3088 H 305.091 5.51599 0.210468 0
M  V30 3089 H 305.568 4.20082 1.28171 0
M  V30 3090 H 306.174 4.23507 -0.390142 0
M  V30 3091 N 304.489 0.459591 1.5075 0
M  V30 3092 C 305.737 -0.0991532 2.01857 0
M  V30 3093 C 306.058 -1.41247 1.34441 0
M  V30 3094 O 305.328 -1.89775 0.486022 0
M  V30 3095 H 303.908 -0.039633 0.745948 0
M  V30 3096 H 306.57 0.607387 1.85194 0
M  V30 3097 H 305.666 -0.258998 3.11023 0
M  V30 3098 N 305.967 -1.56429 0.191757 0
M  V30 3099 C 307.195 -2.01867 -0.453586 0
M  V30 3100 C 307.61 -1.07191 -1.5542 0
M  V30 3101 O 306.967 -0.0762108 -1.82341 0
M  V30 3102 C 307.018 -3.47017 -1.013 0
M  V30 3103 O 306.739 -4.38078 0.0437005 0
M  V30 3104 C 308.24 -4.07956 -1.73456 0
M  V30 3105 H 305.46 -0.661211 -0.114199 0
M  V30 3106 H 308.004 -2.02295 0.299483 0
M  V30 3107 H 306.159 -3.47298 -1.71647 0
M  V30 3108 H 306.573 -5.23178 -0.372212 0
M  V30 3109 H 308.047 -5.1138 -2.07833 0
M  V30 3110 H 308.524 -3.51222 -2.63704 0
M  V30 3111 H 309.13 -4.11437 -1.07702 0
M  V30 3112 N 307.445 0.0818655 -1.57387 0
M  V30 3113 C 308.377 1.12484 -1.997 0
M  V30 3114 C 309.39 1.35564 -0.90146 0
M  V30 3115 O 310.579 1.33982 -1.17945 0
M  V30 3116 C 307.679 2.47778 -2.31213 0
M  V30 3117 C 306.852 2.44793 -3.62485 0
M  V30 3118 C 305.911 3.62117 -3.81782 0
M  V30 3119 O 304.937 3.44005 -4.53486 0
M  V30 3120 N 306.139 4.82094 -3.23367 0
M  V30 3121 H 308.904 0.764585 -2.89783 0
M  V30 3122 H 306.465 0.270664 -1.59621 0
M  V30 3123 H 308.457 3.24891 -2.41304 0
M  V30 3124 H 307.027 2.75843 -1.4707 0
M  V30 3125 H 306.247 1.53134 -3.6324 0
M  V30 3126 H 307.535 2.39889 -4.48699 0
M  V30 3127 H 306.933 4.99713 -2.65148 0
M  V30 3128 H 305.49 5.56753 -3.38923 0
M  V30 3129 N 308.923 1.53595 0.353017 0
M  V30 3130 C 309.886 1.80232 1.41594 0
M  V30 3131 C 310.886 0.673081 1.46035 0
M  V30 3132 O 312.076 0.941335 1.46576 0
M  V30 3133 C 309.208 1.93578 2.80607 0
M  V30 3134 H 310.401 2.75174 1.19244 0
M  V30 3135 H 307.954 1.44864 0.586872 0
M  V30 3136 H 308.689 1.00746 3.08254 0
M  V30 3137 H 308.474 2.75724 2.78781 0
M  V30 3138 H 309.964 2.15735 3.57558 0
M  V30 3139 N 310.401 -0.613514 1.45168 0
M  V30 3140 C 311.333 -1.73825 1.4939 0
M  V30 3141 C 312.346 -1.58175 0.385304 0
M  V30 3142 O 313.535 -1.66165 0.652036 0
M  V30 3143 C 310.635 -3.11758 1.32891 0
M  V30 3144 C 309.808 -3.53704 2.57317 0
M  V30 3145 C 308.867 -4.70579 2.35462 0
M  V30 3146 O 307.893 -4.77996 3.09044 0
M  V30 3147 N 309.095 -5.63454 1.39644 0
M  V30 3148 H 311.86 -1.70669 2.46358 0
M  V30 3149 H 309.421 -0.79862 1.40832 0
M  V30 3150 H 311.413 -3.87692 1.1609 0
M  V30 3151 H 309.983 -3.09456 0.442218 0
M  V30 3152 H 309.203 -2.67794 2.89275 0
M  V30 3153 H 310.491 -3.78486 3.40038 0
M  V30 3154 H 309.889 -5.6017 0.789062 0
M  V30 3155 H 308.446 -6.38944 1.28816 0
M  V30 3156 N 311.879 -1.3236 -0.855495 0
M  V30 3157 C 313.107 -1.2587 -1.64208 0
M  V30 3158 C 313.522 0.173457 -1.88002 0
M  V30 3159 O 312.879 1.11027 -1.44842 0
M  V30 3160 C 312.93 -2.01424 -3.00184 0
M  V30 3161 O 312.651 -3.39051 -2.77445 0
M  V30 3162 C 314.152 -2.01948 -3.94629 0
M  V30 3163 H 311.372 -0.434318 -0.511477 0
M  V30 3164 H 313.916 -1.74469 -1.0668 0
M  V30 3165 H 312.071 -1.56549 -3.5436 0
M  V30 3166 H 312.485 -3.77711 -3.63916 0
M  V30 3167 H 313.959 -2.59297 -4.87308 0
M  V30 3168 H 314.436 -1.00554 -4.27534 0
M  V30 3169 H 315.042 -2.46767 -3.4639 0
M  V30 3170 N 313.357 1.07166 -1.15556 0
M  V30 3171 C 314.634 1.76546 -0.842069 0
M  V30 3172 C 315.014 2.00453 0.661939 0
M  V30 3173 O 314.362 1.62452 1.60691 0
M  V30 3174 C 314.572 3.07266 -1.65495 0
M  V30 3175 C 315.92 3.81578 -1.86234 0
M  V30 3176 O 316.944 3.17083 -1.62287 0
M  V30 3177 O 315.803 4.97419 -2.26355 0
M  V30 3178 H 312.897 0.766756 -0.309862 0
M  V30 3179 H 315.443 1.13514 -1.26145 0
M  V30 3180 H 314.215 2.85494 -2.67598 0
M  V30 3181 H 313.838 3.7803 -1.23203 0
M  V30 3182 N 314.835 0.952656 1.25548 0
M  V30 3183 C 315.783 0.462354 2.27958 0
M  V30 3184 C 316.777 -0.46634 1.62855 0
M  V30 3185 O 317.983 -0.343287 1.76696 0
M  V30 3186 H 314.358 0.13101 0.7405 0
M  V30 3187 H 316.329 1.33839 2.66702 0
M  V30 3188 C 315.078 -0.24628 3.46827 0
M  V30 3189 H 314.401 0.459192 3.97154 0
M  V30 3190 H 315.841 -0.553393 4.20373 0
M  V30 3191 C 314.3 -1.4681 3.0323 0
M  V30 3192 O 314.83 -2.56591 3.09069 0
M  V30 3193 N 313.036 -1.32874 2.58443 0
M  V30 3194 H 312.583 -0.435536 2.53891 0
M  V30 3195 H 312.541 -2.14742 2.29637 0
M  V30 3196 N 316.313 -1.40141 0.720998 0
M  V30 3197 C 317.59 -1.94677 0.189757 0
M  V30 3198 C 317.97 -1.65879 -1.30566 0
M  V30 3199 O 317.318 -0.979391 -2.06447 0
M  V30 3200 C 317.528 -3.45279 0.508304 0
M  V30 3201 C 318.876 -4.22209 0.449934 0
M  V30 3202 O 319.9 -3.53413 0.444677 0
M  V30 3203 O 318.759 -5.44788 0.432189 0
M  V30 3204 H 315.853 -0.826459 0.0299026 0
M  V30 3205 H 318.399 -1.49719 0.7989 0
M  V30 3206 H 317.171 -3.59619 1.54239 0
M  V30 3207 H 316.794 -3.97386 -0.130525 0
M  V30 3208 N 317.792 -0.46758 -1.50504 0
M  V30 3209 C 319.04 0.0884469 -2.01906 0
M  V30 3210 C 319.361 1.40532 -1.35188 0
M  V30 3211 O 318.631 1.89515 -0.496079 0
M  V30 3212 H 317.211 0.0356765 -0.746148 0
M  V30 3213 H 319.873 -0.6172 -1.84869 0
M  V30 3214 H 318.969 0.2425 -3.11156 0
M  V30 3215 N 319.27 1.56325 -0.20005 0
M  V30 3216 C 320.517 1.97719 0.437411 0
M  V30 3217 C 320.845 1.08709 1.61284 0
M  V30 3218 O 320.1 0.127261 1.95286 0
M  V30 3219 C 320.399 3.4495 0.935103 0
M  V30 3220 C 320.065 4.5072 -0.12749 0
M  V30 3221 C 318.727 4.79368 -0.419451 0
M  V30 3222 C 321.079 5.14268 -0.847231 0
M  V30 3223 C 318.407 5.68854 -1.43604 0
M  V30 3224 C 320.759 6.04852 -1.85301 0
M  V30 3225 C 319.423 6.31855 -2.15211 0
M  V30 3226 H 318.693 0.723507 0.16006 0
M  V30 3227 H 321.34 1.89166 -0.298056 0
M  V30 3228 H 319.645 3.50599 1.74894 0
M  V30 3229 H 321.342 3.74337 1.43781 0
M  V30 3230 H 317.932 4.28458 0.11023 0
M  V30 3231 H 322.116 4.92222 -0.634901 0
M  V30 3232 H 317.372 5.88047 -1.67364 0
M  V30 3233 H 321.546 6.53152 -2.41591 0
M  V30 3234 H 319.173 7.00994 -2.94129 0
M  V30 3235 N 320.748 -0.0735177 1.57428 0
M  V30 3236 C 321.678 -1.0879 2.06608 0
M  V30 3237 C 322.659 -1.40473 0.959237 0
M  V30 3238 O 323.844 -1.5013 1.23185 0
M  V30 3239 C 320.974 -2.40183 2.50857 0
M  V30 3240 C 319.928 -2.22858 3.65402 0
M  V30 3241 C 319.254 -3.59619 3.957 0
M  V30 3242 C 320.554 -1.65123 4.95511 0
M  V30 3243 H 322.248 -0.678673 2.91607 0
M  V30 3244 H 319.794 -0.325013 1.40284 0
M  V30 3245 H 321.747 -3.11437 2.83874 0
M  V30 3246 H 320.471 -2.83083 1.62885 0
M  V30 3247 H 319.13 -1.54045 3.32664 0
M  V30 3248 H 318.778 -4.00086 3.04861 0
M  V30 3249 H 318.478 -3.48866 4.72828 0
M  V30 3250 H 320.002 -4.32306 4.31212 0
M  V30 3251 H 321.416 -2.26241 5.26771 0
M  V30 3252 H 319.813 -1.65071 5.7695 0
M  V30 3253 H 320.883 -0.612559 4.81015 0
M  V30 3254 N 322.226 -1.5378 -0.344866 0
M  V30 3255 C 323.451 -1.75211 -1.10977 0
M  V30 3256 C 323.876 -0.48936 -1.81623 0
M  V30 3257 O 323.234 0.557925 -1.72502 0
M  V30 3258 C 323.282 -2.93147 -2.09993 0
M  V30 3259 O 322.386 -2.63203 -3.17487 0
M  V30 3260 H 321.727 -0.581241 -0.321021 0
M  V30 3261 H 324.257 -2.00738 -0.395661 0
M  V30 3262 H 324.267 -3.19898 -2.53237 0
M  V30 3263 H 322.942 -3.84731 -1.5797 0
M  V30 3264 H 321.519 -2.47336 -2.79069 0
M  V30 3265 N 323.704 0.605807 -1.45491 0
M  V30 3266 C 324.651 1.7164 -1.54299 0
M  V30 3267 C 325.621 1.61486 -0.388761 0
M  V30 3268 O 326.806 1.81039 -0.602445 0
M  V30 3269 C 323.946 3.09953 -1.51734 0
M  V30 3270 C 323.059 3.309 -2.77721 0
M  V30 3271 C 322.194 4.59329 -2.66816 0
M  V30 3272 C 321.233 4.7354 -3.87848 0
M  V30 3273 N 320.37 5.9327 -3.75467 0
M  V30 3274 H 325.21 1.63449 -2.49176 0
M  V30 3275 H 322.747 0.796957 -1.23641 0
M  V30 3276 H 324.705 3.89977 -1.48235 0
M  V30 3277 H 323.335 3.17098 -0.604068 0
M  V30 3278 H 322.387 2.44639 -2.913 0
M  V30 3279 H 323.699 3.37274 -3.67488 0
M  V30 3280 H 322.853 5.4755 -2.61292 0
M  V30 3281 H 321.592 4.55355 -1.74651 0
M  V30 3282 H 320.597 3.83741 -3.93729 0
M  V30 3283 H 321.822 4.79309 -4.81082 0
M  V30 3284 H 319.768 5.90338 -2.86072 0
M  V30 3285 H 319.685 6.00811 -4.5887 0
M  V30 3286 H 320.953 6.83984 -3.73879 0
M  V30 3287 N 325.182 1.32811 0.848464 0
M  V30 3288 C 326.41 1.26739 1.63538 0
M  V30 3289 C 326.825 -0.163484 1.88091 0
M  V30 3290 O 326.182 -1.10258 1.45429 0
M  V30 3291 C 326.233 2.03013 2.99112 0
M  V30 3292 O 325.954 3.40518 2.75643 0
M  V30 3293 C 327.455 2.04038 3.93552 0
M  V30 3294 H 324.675 0.437024 0.509167 0
M  V30 3295 H 327.219 1.75033 1.05753 0
M  V30 3296 H 325.374 1.58426 3.53525 0
M  V30 3297 H 325.788 3.79635 3.61908 0
M  V30 3298 H 327.262 2.61877 4.85926 0
M  V30 3299 H 327.739 1.0282 4.26995 0
M  V30 3300 H 328.345 2.486 3.45077 0
M  V30 3301 N 326.66 -1.06551 1.16123 0
M  V30 3302 C 327.59 -2.15935 0.88851 0
M  V30 3303 C 328.571 -1.69306 -0.164135 0
M  V30 3304 O 329.756 -1.94193 -0.0167857 0
M  V30 3305 C 326.886 -3.45149 0.385942 0
M  V30 3306 C 325.84 -4.05271 1.3762 0
M  V30 3307 C 325.166 -5.29664 0.732137 0
M  V30 3308 C 326.466 -4.44355 2.74493 0
M  V30 3309 H 328.16 -2.39006 1.80323 0
M  V30 3310 H 325.706 -1.14866 0.868435 0
M  V30 3311 H 327.659 -4.21004 0.182647 0
M  V30 3312 H 326.383 -3.21689 -0.564274 0
M  V30 3313 H 325.042 -3.3147 1.56599 0
M  V30 3314 H 324.69 -5.02499 -0.224483 0
M  V30 3315 H 324.39 -5.70848 1.39307 0
M  V30 3316 H 325.914 -6.08218 0.538802 0
M  V30 3317 H 327.328 -5.11303 2.59311 0
M  V30 3318 H 325.725 -4.96515 3.37035 0
M  V30 3319 H 326.795 -3.55339 3.29943 0
M  V30 3320 N 328.138 -0.959301 -1.25041 0
M  V30 3321 C 329.368 -0.63303 -1.96663 0
M  V30 3322 C 329.776 0.800031 -1.71453 0
M  V30 3323 O 329.119 1.54736 -0.99008 0
M  V30 3324 C 329.181 -0.817523 -3.50081 0
M  V30 3325 C 328.845 -2.22863 -3.98975 0
M  V30 3326 C 329.842 -3.20569 -4.09306 0
M  V30 3327 C 327.527 -2.55407 -4.32519 0
M  V30 3328 C 329.521 -4.4891 -4.52503 0
M  V30 3329 C 327.208 -3.83976 -4.754 0
M  V30 3330 C 328.206 -4.8054 -4.85356 0
M  V30 3331 O 327.894 -6.06817 -5.27284 0
M  V30 3332 H 327.626 -0.235866 -0.633516 0
M  V30 3333 H 330.18 -1.2874 -1.60047 0
M  V30 3334 H 328.41 -0.105992 -3.86555 0
M  V30 3335 H 330.099 -0.491604 -4.02912 0
M  V30 3336 H 330.865 -2.96753 -3.83618 0
M  V30 3337 H 326.744 -1.8097 -4.23994 0
M  V30 3338 H 330.288 -5.24283 -4.60188 0
M  V30 3339 H 326.185 -4.07596 -5.00535 0
M  V30 3340 H 326.953 -6.10262 -5.45457 0
M  V30 3341 N 329.616 1.39756 -0.72842 0
M  V30 3342 C 330.864 2.00248 -0.272946 0
M  V30 3343 C 331.185 1.58077 1.14178 0
M  V30 3344 O 330.455 0.826014 1.77634 0
M  V30 3345 H 329.035 0.740554 -0.0979247 0
M  V30 3346 H 331.697 1.70903 -0.936912 0
M  V30 3347 H 330.793 3.10495 -0.316142 0
M  V30 3348 N 331.094 0.475555 1.50254 0
M  V30 3349 C 332.057 -0.305016 2.27161 0
M  V30 3350 C 333.057 -0.916519 1.32123 0
M  V30 3351 O 334.247 -0.785003 1.5551 0
M  V30 3352 C 331.379 -1.43496 3.09227 0
M  V30 3353 H 332.572 0.369511 2.97615 0
M  V30 3354 H 330.125 0.229747 1.54602 0
M  V30 3355 H 330.86 -2.14441 2.43281 0
M  V30 3356 H 330.645 -1.00223 3.79075 0
M  V30 3357 H 332.135 -1.98548 3.67381 0
M  V30 3358 N 332.573 -1.56217 0.208337 0
M  V30 3359 C 333.503 -2.22694 -0.702116 0
M  V30 3360 C 334.484 -1.19432 -1.2112 0
M  V30 3361 O 335.669 -1.47978 -1.25762 0
M  V30 3362 C 332.799 -2.8966 -1.9161 0
M  V30 3363 C 331.753 -3.9928 -1.5414 0
M  V30 3364 C 331.079 -4.53476 -2.83308 0
M  V30 3365 C 332.379 -5.17012 -0.741339 0
M  V30 3366 H 334.073 -2.99034 -0.147898 0
M  V30 3367 H 331.619 -1.43831 -0.0696951 0
M  V30 3368 H 333.572 -3.34852 -2.55836 0
M  V30 3369 H 332.296 -2.10746 -2.49507 0
M  V30 3370 H 330.955 -3.54799 -0.922668 0
M  V30 3371 H 330.603 -3.71308 -3.39322 0
M  V30 3372 H 330.303 -5.27451 -2.58976 0
M  V30 3373 H 331.827 -5.01378 -3.485 0
M  V30 3374 H 333.241 -5.58667 -1.28699 0
M  V30 3375 H 331.638 -5.97137 -0.595627 0
M  V30 3376 H 332.708 -4.8423 0.254851 0
M  V30 3377 N 334.051 0.0651679 -1.57465 0
M  V30 3378 C 334.961 1.09448 -2.07505 0
M  V30 3379 C 335.977 1.41974 -1.00595 0
M  V30 3380 O 337.153 1.52018 -1.32107 0
M  V30 3381 C 334.218 2.38689 -2.51453 0
M  V30 3382 C 333.279 2.13073 -3.72691 0
M  V30 3383 C 332.512 3.36152 -4.14533 0
M  V30 3384 O 332.735 4.45517 -3.56189 0
M  V30 3385 O 331.669 3.23974 -5.07272 0
M  V30 3386 H 335.495 0.69935 -2.95538 0
M  V30 3387 H 333.08 0.279752 -1.46757 0
M  V30 3388 H 334.962 3.14736 -2.80212 0
M  V30 3389 H 333.637 2.77568 -1.66546 0
M  V30 3390 H 332.544 1.34709 -3.49005 0
M  V30 3391 H 333.877 1.79071 -4.5847 0
M  V30 3392 N 335.529 1.53961 0.336706 0
M  V30 3393 C 336.479 1.7881 1.41461 0
M  V30 3394 C 337.463 0.643561 1.47469 0
M  V30 3395 O 338.655 0.903166 1.52223 0
M  V30 3396 C 335.784 2.00722 2.78506 0
M  V30 3397 C 334.87 3.2126 2.76862 0
M  V30 3398 N 335.261 4.42588 2.44845 0
M  V30 3399 C 333.559 3.22568 3.08004 0
M  V30 3400 C 334.26 5.2447 2.51607 0
M  V30 3401 N 333.236 4.61344 2.87511 0
M  V30 3402 H 337.038 2.70205 1.15615 0
M  V30 3403 H 334.552 1.52978 0.545112 0
M  V30 3404 H 336.549 2.1666 3.5618 0
M  V30 3405 H 335.209 1.10573 3.05293 0
M  V30 3406 H 336.22 4.69819 2.17922 0
M  V30 3407 H 332.897 2.42409 3.39918 0
M  V30 3408 H 334.287 6.31324 2.29955 0
M  V30 3409 N 337.007 -0.598083 1.45811 0
M  V30 3410 C 337.955 -1.72932 1.55555 0
M  V30 3411 C 338.949 -1.63984 0.424921 0
M  V30 3412 O 340.155 -1.69663 0.601205 0
M  V30 3413 H 336.53 -0.571489 0.488779 0
M  V30 3414 H 338.501 -1.61842 2.50699 0
M  V30 3415 C 337.25 -3.11318 1.54843 0
M  V30 3416 H 336.573 -3.18867 2.41172 0
M  V30 3417 H 338.013 -3.90274 1.65717 0
M  V30 3418 C 336.472 -3.3578 0.274427 0
M  V30 3419 O 337.002 -3.9654 -0.641778 0
M  V30 3420 N 335.208 -2.90119 0.167139 0
M  V30 3421 H 334.755 -2.40855 0.913596 0
M  V30 3422 H 334.713 -3.0686 -0.684435 0
M  V30 3423 N 338.485 -1.33259 -0.841409 0
M  V30 3424 C 339.732 -1.24572 -1.5965 0
M  V30 3425 C 340.06 0.189137 -1.93578 0
M  V30 3426 O 339.315 1.14566 -1.5866 0
M  V30 3427 C 339.614 -2.06381 -2.9179 0
M  V30 3428 C 339.28 -3.556 -2.77235 0
M  V30 3429 C 337.942 -3.96282 -2.72973 0
M  V30 3430 C 340.294 -4.50433 -2.62221 0
M  V30 3431 C 337.622 -5.30017 -2.51592 0
M  V30 3432 C 339.974 -5.84327 -2.42374 0
M  V30 3433 C 338.638 -6.24194 -2.36512 0
M  V30 3434 H 337.908 -0.455842 -0.5842 0
M  V30 3435 H 340.555 -1.6482 -0.975016 0
M  V30 3436 H 338.86 -1.58903 -3.5813 0
M  V30 3437 H 340.557 -1.97019 -3.49263 0
M  V30 3438 H 337.147 -3.23298 -2.81384 0
M  V30 3439 H 341.331 -4.19914 -2.64549 0
M  V30 3440 H 336.587 -5.59947 -2.45499 0
M  V30 3441 H 340.761 -6.57414 -2.29739 0
M  V30 3442 H 338.388 -7.27759 -2.19706 0
M  V30 3443 N 339.963 1.05934 -1.16686 0
M  V30 3444 C 341.191 1.8249 -0.974929 0
M  V30 3445 C 341.606 1.82679 0.476861 0
M  V30 3446 O 340.963 1.2486 1.33103 0
M  V30 3447 C 341.014 3.28943 -1.49929 0
M  V30 3448 O 340.735 3.28886 -2.89423 0
M  V30 3449 C 342.236 4.22215 -1.35089 0
M  V30 3450 H 339.456 0.575295 -0.345365 0
M  V30 3451 H 342 1.33631 -1.548 0
M  V30 3452 H 340.155 3.751 -0.968423 0
M  V30 3453 H 340.569 4.20493 -3.13506 0
M  V30 3454 H 342.043 5.22987 -1.76603 0
M  V30 3455 H 342.52 4.38195 -0.296935 0
M  V30 3456 H 343.126 3.81907 -1.87155 0
M  V30 3457 N 341.441 0.965919 1.2453 0
M  V30 3458 C 342.718 0.543777 1.87889 0
M  V30 3459 C 343.098 -0.97909 1.87021 0
M  V30 3460 O 342.446 -1.84969 1.3416 0
M  V30 3461 C 342.656 1.13327 3.30088 0
M  V30 3462 C 344.004 1.21707 4.06783 0
M  V30 3463 O 345.028 1.08566 3.39252 0
M  V30 3464 O 343.887 1.42456 5.27606 0
M  V30 3465 H 340.981 0.181054 0.806938 0
M  V30 3466 H 343.527 1.06007 1.32516 0
M  V30 3467 H 342.299 2.17612 3.25209 0
M  V30 3468 H 341.922 0.600911 3.93033 0
M  V30 3469 N 342.919 -1.39368 0.735821 0
M  V30 3470 C 343.882 -2.2896 0.104874 0
M  V30 3471 C 344.882 -1.46347 -0.666274 0
M  V30 3472 O 346.072 -1.67014 -0.49517 0
M  V30 3473 C 343.204 -3.29857 -0.860656 0
M  V30 3474 H 344.397 -2.86259 0.894205 0
M  V30 3475 H 341.95 -1.48029 0.501704 0
M  V30 3476 H 342.685 -2.77615 -1.67631 0
M  V30 3477 H 342.47 -3.9087 -0.310327 0
M  V30 3478 H 343.96 -3.96893 -1.29867 0
M  V30 3479 N 344.397 -0.483516 -1.5 0
M  V30 3480 C 345.643 0.0593261 -2.03313 0
M  V30 3481 C 345.998 1.36288 -1.35806 0
M  V30 3482 O 345.291 1.85519 -0.478897 0
M  V30 3483 C 345.485 0.286226 -3.56252 0
M  V30 3484 C 345.314 -0.993788 -4.38582 0
M  V30 3485 C 344.084 -1.54064 -4.81241 0
M  V30 3486 C 346.282 -1.89249 -4.78215 0
M  V30 3487 N 344.264 -2.76838 -5.47936 0
M  V30 3488 C 345.635 -2.96606 -5.44449 0
M  V30 3489 C 347.69 -1.90138 -4.60165 0
M  V30 3490 C 346.393 -4.04857 -5.94544 0
M  V30 3491 C 348.419 -2.97353 -5.1121 0
M  V30 3492 C 347.781 -4.03429 -5.77429 0
M  V30 3493 H 343.88 -0.0186322 -0.781778 0
M  V30 3494 H 346.464 -0.654489 -1.8337 0
M  V30 3495 H 344.635 0.969086 -3.76116 0
M  V30 3496 H 346.367 0.824515 -3.96212 0
M  V30 3497 H 343.122 -1.08813 -4.6093 0
M  V30 3498 H 343.546 -3.39221 -5.85882 0
M  V30 3499 H 348.188 -1.09441 -4.0839 0
M  V30 3500 H 345.906 -4.86363 -6.4535 0
M  V30 3501 H 349.492 -2.99039 -4.99066 0
M  V30 3502 H 348.372 -4.85025 -6.16214 0
M  V30 3503 N 345.875 1.56104 -0.216619 0
M  V30 3504 C 347.1 2.0301 0.424462 0
M  V30 3505 C 347.525 1.0955 1.52907 0
M  V30 3506 O 346.883 0.0827914 1.81111 0
M  V30 3507 C 346.931 3.4819 0.937883 0
M  V30 3508 O 346.035 3.57865 2.04955 0
M  V30 3509 H 345.376 0.656925 0.0966755 0
M  V30 3510 H 347.906 2.01859 -0.33381 0
M  V30 3511 H 347.916 3.88413 1.24897 0
M  V30 3512 H 346.591 4.15699 0.129387 0
M  V30 3513 H 345.168 3.29527 1.74546 0
M  V30 3514 N 347.353 -0.0568162 1.57498 0
M  V30 3515 C 348.601 -0.751617 1.87604 0
M  V30 3516 C 348.922 -1.77351 0.81066 0
M  V30 3517 O 348.192 -1.95254 -0.159018 0
M  V30 3518 H 346.772 -0.280583 0.692302 0
M  V30 3519 H 349.434 -0.0293483 1.94878 0
M  V30 3520 H 348.53 -1.25852 2.856 0
M  V30 3521 N 348.832 -1.54138 -0.328536 0
M  V30 3522 C 350.079 -1.72105 -1.06706 0
M  V30 3523 C 350.407 -0.492111 -1.88171 0
M  V30 3524 O 349.662 0.526153 -1.88494 0
M  V30 3525 C 349.961 -2.9457 -2.02393 0
M  V30 3526 C 349.627 -4.29544 -1.37122 0
M  V30 3527 C 348.289 -4.6624 -1.19052 0
M  V30 3528 C 350.641 -5.1333 -0.902331 0
M  V30 3529 C 347.969 -5.84325 -0.527331 0
M  V30 3530 C 350.321 -6.32094 -0.252988 0
M  V30 3531 C 348.985 -6.67473 -0.0600901 0
M  V30 3532 H 348.255 -0.629775 -0.390466 0
M  V30 3533 H 350.902 -1.88372 -0.34473 0
M  V30 3534 H 349.207 -2.72969 -2.81061 0
M  V30 3535 H 350.904 -3.05665 -2.59557 0
M  V30 3536 H 347.494 -4.0067 -1.52188 0
M  V30 3537 H 351.678 -4.855 -1.02974 0
M  V30 3538 H 346.934 -6.103 -0.366634 0
M  V30 3539 H 351.108 -6.96299 0.118366 0
M  V30 3540 H 348.735 -7.58832 0.455828 0
M  V30 3541 N 350.31 0.590341 -1.46126 0
M  V30 3542 C 351.556 1.35082 -1.51264 0
M  V30 3543 C 351.889 1.93534 -0.160711 0
M  V30 3544 O 351.164 1.76045 0.826956 0
M  V30 3545 C 351.447 2.48588 -2.6053 0
M  V30 3546 C 351.3 1.95221 -4.05227 0
M  V30 3547 C 352.619 3.50662 -2.6594 0
M  V30 3548 H 349.738 0.489803 -0.550692 0
M  V30 3549 H 352.38 0.663887 -1.78024 0
M  V30 3550 H 350.53 3.07186 -2.37843 0
M  V30 3551 H 352.202 1.41139 -4.39178 0
M  V30 3552 H 350.445 1.26101 -4.15068 0
M  V30 3553 H 351.116 2.77121 -4.77397 0
M  V30 3554 H 353.592 3.01934 -2.86313 0
M  V30 3555 H 352.468 4.27551 -3.44226 0
M  V30 3556 H 352.729 4.07399 -1.71694 0
M  V30 3557 N 351.788 1.33704 0.83433 0
M  V30 3558 C 353.204 1.13137 1.12571 0
M  V30 3559 C 353.404 -0.0747261 2.01361 0
M  V30 3560 O 352.46 -0.753647 2.4099 0
M  V30 3561 C 353.773 2.42105 1.78342 0
M  V30 3562 C 355.321 2.48054 1.90888 0
M  V30 3563 C 355.796 3.76995 2.60075 0
M  V30 3564 N 357.287 3.78092 2.67584 0
M  V30 3565 C 358.022 4.74574 3.21818 0
M  V30 3566 N 357.518 5.81434 3.76705 0
M  V30 3567 N 359.311 4.62044 3.20112 0
M  V30 3568 H 351.462 2.11 0.243489 0
M  V30 3569 H 353.725 0.932532 0.17055 0
M  V30 3570 H 353.431 3.30391 1.20561 0
M  V30 3571 H 353.305 2.54594 2.7832 0
M  V30 3572 H 355.692 1.60215 2.47821 0
M  V30 3573 H 355.773 2.39502 0.898459 0
M  V30 3574 H 355.417 4.65219 2.03799 0
M  V30 3575 H 355.347 3.82825 3.61597 0
M  V30 3576 H 357.838 3.00865 2.28667 0
M  V30 3577 H 358.151 6.51084 4.16305 0
M  V30 3578 H 356.496 5.85163 3.7498 0
M  V30 3579 H 359.687 3.77716 2.76493 0
M  V30 3580 H 359.86 5.37406 3.62076 0
M  V30 3581 N 353.266 -1.05314 1.17247 0
M  V30 3582 C 354.514 -1.77941 0.958194 0
M  V30 3583 C 354.835 -1.88089 -0.514556 0
M  V30 3584 O 354.105 -1.39676 -1.37359 0
M  V30 3585 H 352.685 -0.659116 0.351533 0
M  V30 3586 H 355.347 -1.27166 1.47699 0
M  V30 3587 H 354.443 -2.79663 1.38546 0
M  V30 3588 N 354.744 -0.972509 -1.24016 0
M  V30 3589 C 355.974 -0.653853 -1.9598 0
M  V30 3590 C 356.382 0.781801 -1.72292 0
M  V30 3591 O 355.725 1.53677 -1.00644 0
M  V30 3592 C 355.787 -0.854608 -3.49194 0
M  V30 3593 C 355.451 -2.27082 -3.96589 0
M  V30 3594 C 356.448 -3.24892 -4.05883 0
M  V30 3595 C 354.133 -2.5998 -4.29786 0
M  V30 3596 C 356.127 -4.53684 -4.47716 0
M  V30 3597 C 353.814 -3.88997 -4.71301 0
M  V30 3598 C 354.812 -4.85661 -4.80232 0
M  V30 3599 O 354.5 -6.12376 -5.20818 0
M  V30 3600 H 354.232 -0.242572 -0.630979 0
M  V30 3601 H 356.786 -1.30431 -1.58673 0
M  V30 3602 H 355.016 -0.146985 -3.86421 0
M  V30 3603 H 356.705 -0.534311 -4.02368 0
M  V30 3604 H 357.471 -3.00805 -3.80449 0
M  V30 3605 H 353.35 -1.85457 -4.22051 0
M  V30 3606 H 356.894 -5.29135 -4.54601 0
M  V30 3607 H 352.791 -4.12882 -4.96184 0
M  V30 3608 H 353.559 -6.16013 -5.38953 0
M  V30 3609 N 356.222 1.38976 -0.743202 0
M  V30 3610 C 357.47 1.99948 -0.29417 0
M  V30 3611 C 357.791 1.59279 1.12495 0
M  V30 3612 O 357.061 0.844808 1.76748 0
M  V30 3613 H 355.641 0.739473 -0.105774 0
M  V30 3614 H 358.303 1.699 -0.954986 0
M  V30 3615 H 357.399 3.10142 -0.349056 0
M  V30 3616 N 357.7 0.491464 1.49741 0
M  V30 3617 C 358.93 -0.0534375 2.06531 0
M  V30 3618 C 359.338 -1.32233 1.35318 0
M  V30 3619 O 358.681 -1.78781 0.422243 0
M  V30 3620 C 358.743 -0.387034 3.57411 0
M  V30 3621 C 358.407 0.782764 4.50246 0
M  V30 3622 C 359.404 1.67059 4.92329 0
M  V30 3623 C 357.089 0.978866 4.9267 0
M  V30 3624 C 359.083 2.73874 5.75562 0
M  V30 3625 C 356.77 2.05022 5.75682 0
M  V30 3626 C 357.768 2.92851 6.17031 0
M  V30 3627 O 357.456 3.98138 6.98385 0
M  V30 3628 H 357.188 0.0129324 0.675876 0
M  V30 3629 H 359.742 0.685238 1.93633 0
M  V30 3630 H 357.972 -1.17918 3.68283 0
M  V30 3631 H 359.661 -0.869419 3.96479 0
M  V30 3632 H 360.427 1.53086 4.60206 0
M  V30 3633 H 356.306 0.304646 4.59992 0
M  V30 3634 H 359.85 3.42458 6.07757 0
M  V30 3635 H 355.747 2.18993 6.07217 0
M  V30 3636 H 356.515 3.95374 7.16674 0
M  V30 3637 N 359.178 -1.55987 0.224894 0
M  V30 3638 C 360.455 -1.90232 -0.455083 0
M  V30 3639 C 360.835 -1.14269 -1.77499 0
M  V30 3640 O 360.183 -0.253079 -2.27094 0
M  V30 3641 C 360.393 -3.42993 -0.644758 0
M  V30 3642 C 361.741 -4.13821 -0.950669 0
M  V30 3643 O 362.765 -3.4861 -0.731423 0
M  V30 3644 O 361.624 -5.29128 -1.36695 0
M  V30 3645 H 358.718 -0.79108 -0.241084 0
M  V30 3646 H 361.264 -1.67581 0.267327 0
M  V30 3647 H 360.036 -3.90252 0.28613 0
M  V30 3648 H 359.659 -3.71434 -1.41853 0
M  V30 3649 N 360.656 0.0484629 -1.57525 0
M  V30 3650 C 361.604 1.07359 -2.06341 0
M  V30 3651 C 362.598 1.3865 -0.973269 0
M  V30 3652 O 363.804 1.37783 -1.15827 0
M  V30 3653 H 360.179 0.363662 -0.65822 0
M  V30 3654 H 362.15 0.635916 -2.91545 0
M  V30 3655 C 360.899 2.37198 -2.54229 0
M  V30 3656 H 360.222 2.13977 -3.37719 0
M  V30 3657 H 361.662 3.07319 -2.92115 0
M  V30 3658 C 360.121 3.04805 -1.43511 0
M  V30 3659 O 360.651 3.93848 -0.79034 0
M  V30 3660 N 358.857 2.65811 -1.17444 0
M  V30 3661 H 358.404 1.93488 -1.70059 0
M  V30 3662 H 358.362 3.11366 -0.435737 0
M  V30 3663 N 362.134 1.5431 0.320358 0
M  V30 3664 C 363.55 1.45091 0.664889 0
M  V30 3665 C 363.75 0.626382 1.91517 0
M  V30 3666 O 362.806 0.126443 2.52183 0
M  V30 3667 C 364.119 2.88848 0.83591 0
M  V30 3668 C 365.667 2.9877 0.933046 0
M  V30 3669 C 366.142 4.43683 1.13621 0
M  V30 3670 N 367.633 4.47309 1.20287 0
M  V30 3671 C 368.368 5.56595 1.37801 0
M  V30 3672 N 367.864 6.75844 1.52338 0
M  V30 3673 N 369.657 5.44248 1.40535 0
M  V30 3674 H 361.808 2.06398 -0.501374 0
M  V30 3675 H 364.071 0.933963 -0.162534 0
M  V30 3676 H 363.777 3.51698 -0.0116092 0
M  V30 3677 H 363.651 3.35148 1.73078 0
M  V30 3678 H 366.038 2.36045 1.77107 0
M  V30 3679 H 366.119 2.55796 0.0145782 0
M  V30 3680 H 365.763 5.06995 0.303032 0
M  V30 3681 H 365.693 4.84269 2.0686 0
M  V30 3682 H 368.184 3.61388 1.10485 0
M  V30 3683 H 368.497 7.54892 1.65403 0
M  V30 3684 H 366.842 6.78746 1.4943 0
M  V30 3685 H 370.033 4.50038 1.28777 0
M  V30 3686 H 370.206 6.29473 1.53842 0
M  V30 3687 N 363.613 -0.582584 1.46437 0
M  V30 3688 C 364.841 -1.36682 1.55324 0
M  V30 3689 C 365.256 -1.87796 0.194409 0
M  V30 3690 O 364.613 -1.63623 -0.808318 0
M  V30 3691 C 364.664 -2.55426 2.55812 0
M  V30 3692 O 364.385 -2.0643 3.86417 0
M  V30 3693 C 365.886 -3.47976 2.74641 0
M  V30 3694 H 363.106 -0.417545 0.525259 0
M  V30 3695 H 365.65 -0.708219 1.91845 0
M  V30 3696 H 363.805 -3.17275 2.22295 0
M  V30 3697 H 364.219 -2.83762 4.41111 0
M  V30 3698 H 365.693 -4.27775 3.48874 0
M  V30 3699 H 366.17 -3.99919 1.81553 0
M  V30 3700 H 366.776 -2.91962 3.09255 0
M  V30 3701 N 365.091 -1.34144 -0.827227 0
M  V30 3702 C 366.039 -1.25364 -1.95925 0
M  V30 3703 C 367.033 -0.152608 -1.68711 0
M  V30 3704 O 368.239 -0.317311 -1.77181 0
M  V30 3705 H 364.614 -0.389342 -0.643364 0
M  V30 3706 H 366.585 -2.21045 -2.00454 0
M  V30 3707 C 365.334 -1.02158 -3.32354 0
M  V30 3708 H 364.657 -1.86111 -3.5384 0
M  V30 3709 H 366.097 -1.00048 -4.12027 0
M  V30 3710 C 364.556 0.275244 -3.35774 0
M  V30 3711 O 365.086 1.27806 -3.80826 0
M  V30 3712 N 363.292 0.306853 -2.88975 0
M  V30 3713 H 362.839 -0.509777 -2.52506 0
M  V30 3714 H 362.797 1.17432 -2.91646 0
M  V30 3715 N 366.569 1.04691 -1.17803 0
M  V30 3716 C 367.799 1.81183 -0.992788 0
M  V30 3717 C 368.207 1.8347 0.462098 0
M  V30 3718 O 367.55 1.2643 1.33271 0
M  V30 3719 C 367.612 3.28363 -1.46349 0
M  V30 3720 C 367.276 3.49749 -2.94151 0
M  V30 3721 C 368.273 3.41456 -3.92051 0
M  V30 3722 C 365.958 3.76548 -3.32441 0
M  V30 3723 C 367.952 3.59656 -5.26238 0
M  V30 3724 C 365.639 3.94396 -4.66792 0
M  V30 3725 C 366.637 3.8595 -5.635 0
M  V30 3726 O 366.325 4.03294 -6.9542 0
M  V30 3727 H 366.057 0.577622 -0.351182 0
M  V30 3728 H 368.611 1.32876 -1.5663 0
M  V30 3729 H 366.841 3.77609 -0.833574 0
M  V30 3730 H 368.53 3.86395 -1.24313 0
M  V30 3731 H 369.296 3.20723 -3.63815 0
M  V30 3732 H 365.175 3.82224 -2.57732 0
M  V30 3733 H 368.719 3.52979 -6.01707 0
M  V30 3734 H 364.616 4.14622 -4.94731 0
M  V30 3735 H 365.384 4.2049 -7.02232 0
M  V30 3736 N 368.047 0.979072 1.23499 0
M  V30 3737 C 369.324 0.563674 1.87302 0
M  V30 3738 C 369.704 -0.959199 1.88049 0
M  V30 3739 O 369.052 -1.83535 1.36114 0
M  V30 3740 C 369.262 1.16822 3.28867 0
M  V30 3741 C 370.61 1.26014 4.0547 0
M  V30 3742 O 371.634 1.12158 3.38082 0
M  V30 3743 O 370.493 1.48044 5.26066 0
M  V30 3744 H 367.587 0.189602 0.804972 0
M  V30 3745 H 370.133 1.07407 1.31384 0
M  V30 3746 H 368.905 2.21049 3.22883 0
M  V30 3747 H 368.528 0.642564 3.92373 0
M  V30 3748 N 369.525 -1.3858 0.750561 0
M  V30 3749 C 370.488 -2.28836 0.129152 0
M  V30 3750 C 371.488 -1.47045 -0.650714 0
M  V30 3751 O 372.678 -1.6753 -0.477428 0
M  V30 3752 C 369.81 -3.30751 -0.825622 0
M  V30 3753 H 371.003 -2.85294 0.924516 0
M  V30 3754 H 368.556 -1.47489 0.517376 0
M  V30 3755 H 369.291 -2.79378 -1.64677 0
M  V30 3756 H 369.076 -3.91177 -0.268852 0
M  V30 3757 H 370.566 -3.98249 -1.2565 0
M  V30 3758 N 371.003 -0.499398 -1.49478 0
M  V30 3759 C 372.233 0.0424839 -2.06556 0
M  V30 3760 C 372.641 1.31514 -1.36018 0
M  V30 3761 O 371.984 1.78555 -0.431718 0
M  V30 3762 C 372.046 0.368074 -3.57611 0
M  V30 3763 C 371.71 -0.806631 -4.49825 0
M  V30 3764 C 372.707 -1.69667 -4.91436 0
M  V30 3765 C 370.392 -1.00498 -4.92144 0
M  V30 3766 C 372.386 -2.76923 -5.74101 0
M  V30 3767 C 370.073 -2.08072 -5.74586 0
M  V30 3768 C 371.071 -2.96119 -6.15469 0
M  V30 3769 O 370.759 -4.01836 -6.96264 0
M  V30 3770 H 370.491 -0.0165165 -0.675798 0
M  V30 3771 H 373.045 -0.695497 -1.93267 0
M  V30 3772 H 371.275 1.15963 -3.68903 0
M  V30 3773 H 372.964 0.848381 -3.96935 0
M  V30 3774 H 373.73 -1.55524 -4.59388 0
M  V30 3775 H 369.609 -0.329036 -4.59824 0
M  V30 3776 H 373.153 -3.45676 -6.05932 0
M  V30 3777 H 369.05 -2.22211 -6.06047 0
M  V30 3778 H 369.818 -3.9917 -7.14567 0
M  V30 3779 N 372.481 1.55866 -0.233164 0
M  V30 3780 C 373.711 2.02704 0.399325 0
M  V30 3781 C 374.119 1.11204 1.53069 0
M  V30 3782 O 373.462 0.116182 1.83332 0
M  V30 3783 C 373.524 3.45844 0.981429 0
M  V30 3784 C 373.188 4.56997 -0.0159561 0
M  V30 3785 C 374.185 5.13384 -0.820552 0
M  V30 3786 C 371.87 5.0211 -0.138072 0
M  V30 3787 C 373.864 6.13365 -1.73386 0
M  V30 3788 C 371.551 6.01926 -1.0549 0
M  V30 3789 C 372.549 6.57431 -1.85132 0
M  V30 3790 O 372.237 7.55302 -2.75272 0
M  V30 3791 H 371.969 0.668459 0.100692 0
M  V30 3792 H 374.523 2.02387 -0.35052 0
M  V30 3793 H 372.753 3.43267 1.78058 0
M  V30 3794 H 374.442 3.76262 1.52255 0
M  V30 3795 H 375.208 4.79372 -0.736721 0
M  V30 3796 H 371.087 4.5858 0.471737 0
M  V30 3797 H 374.631 6.56614 -2.35592 0
M  V30 3798 H 370.528 6.35359 -1.1397 0
M  V30 3799 H 371.296 7.72867 -2.69477 0
M  V30 3800 N 373.959 -0.0401083 1.57549 0
M  V30 3801 C 375.184 -0.748931 1.93406 0
M  V30 3802 C 375.609 -1.68686 0.832274 0
M  V30 3803 O 374.967 -1.80047 -0.212818 0
M  V30 3804 C 375.015 -1.4916 3.28304 0
M  V30 3805 O 374.119 -2.6042 3.19774 0
M  V30 3806 H 373.46 -0.202212 0.63246 0
M  V30 3807 H 375.99 0.00112086 2.046 0
M  V30 3808 H 376 -1.86395 3.62934 0
M  V30 3809 H 374.675 -0.80364 4.08062 0
M  V30 3810 H 373.252 -2.25808 2.96758 0
M  V30 3811 N 375.437 -1.54477 -0.31217 0
M  V30 3812 C 376.848 -1.64344 -0.885891 0
M  V30 3813 C 377.199 -0.54485 -1.88483 0
M  V30 3814 O 376.324 0.320387 -2.14015 0
M  V30 3815 C 376.919 -2.97908 -1.61357 0
M  V30 3816 C 375.478 -3.09933 -2.13585 0
M  V30 3817 C 374.625 -2.59971 -0.964897 0
M  V30 3818 H 377.576 -1.58448 -0.0894528 0
M  V30 3819 H 377.597 -2.88706 -2.47848 0
M  V30 3820 H 377.109 -3.77845 -0.886277 0
M  V30 3821 H 375.21 -2.34694 -2.89395 0
M  V30 3822 H 375.323 -4.15916 -2.37804 0
M  V30 3823 H 373.687 -2.16147 -1.34731 0
M  V30 3824 H 374.47 -3.42376 -0.251742 0
M  V30 3825 N 376.915 0.57481 -1.46744 0
M  V30 3826 C 378.163 1.33009 -1.52161 0
M  V30 3827 C 378.484 1.94185 -0.178092 0
M  V30 3828 O 377.754 1.7899 0.796196 0
M  V30 3829 H 376.334 0.493873 -0.560445 0
M  V30 3830 H 378.996 0.672589 -1.82927 0
M  V30 3831 H 378.092 2.13273 -2.27862 0
M  V30 3832 N 378.394 1.34581 0.820102 0
M  V30 3833 C 379.619 1.30333 1.61332 0
M  V30 3834 C 380.044 -0.119339 1.87721 0
M  V30 3835 O 379.402 -1.08197 1.45475 0
M  V30 3836 C 379.45 2.10258 2.92957 0
M  V30 3837 O 378.554 1.47404 3.85157 0
M  V30 3838 H 377.895 0.447488 0.490561 0
M  V30 3839 H 380.425 1.77425 1.01889 0
M  V30 3840 H 380.435 2.21718 3.42498 0
M  V30 3841 H 379.11 3.13693 2.73074 0
M  V30 3842 H 377.687 1.44703 3.43679 0
M  V30 3843 N 379.872 -1.04064 1.18357 0
M  V30 3844 C 381.283 -1.58719 0.98312 0
M  V30 3845 C 381.634 -1.90556 -0.467193 0
M  V30 3846 O 380.759 -1.69561 -1.34454 0
M  V30 3847 C 381.354 -2.88379 1.77828 0
M  V30 3848 C 379.913 -3.3965 1.62218 0
M  V30 3849 C 379.06 -2.13235 1.77274 0
M  V30 3850 H 382.011 -0.867359 1.32901 0
M  V30 3851 H 382.032 -3.58773 1.26737 0
M  V30 3852 H 381.544 -2.65176 2.83379 0
M  V30 3853 H 379.645 -3.67866 0.592036 0
M  V30 3854 H 379.758 -4.13475 2.42023 0
M  V30 3855 H 378.122 -2.24542 1.20221 0
M  V30 3856 H 378.905 -1.92487 2.8426 0
M  V30 3857 N 381.35 -0.985608 -1.22978 0
M  V30 3858 C 382.28 -0.549649 -2.26939 0
M  V30 3859 C 383.261 0.419803 -1.64838 0
M  V30 3860 O 384.446 0.31203 -1.91677 0
M  V30 3861 C 381.576 0.143652 -3.47003 0
M  V30 3862 C 380.53 -0.743606 -4.21491 0
M  V30 3863 C 379.856 0.0822027 -5.34637 0
M  V30 3864 C 381.156 -2.03694 -4.80943 0
M  V30 3865 H 382.85 -1.41862 -2.63658 0
M  V30 3866 H 380.396 -0.683571 -1.26741 0
M  V30 3867 H 382.349 0.459985 -4.18882 0
M  V30 3868 H 381.073 1.04711 -3.09359 0
M  V30 3869 H 379.732 -1.04347 -3.51436 0
M  V30 3870 H 379.38 0.986359 -4.93234 0
M  V30 3871 H 379.08 -0.508377 -5.85397 0
M  V30 3872 H 380.604 0.392797 -6.09335 0
M  V30 3873 H 382.018 -1.78504 -5.44802 0
M  V30 3874 H 380.415 -2.57573 -5.42011 0
M  V30 3875 H 381.485 -2.72042 -4.01399 0
M  V30 3876 N 382.828 1.3818 -0.7579 0
M  V30 3877 C 383.758 2.33027 -0.148597 0
M  V30 3878 C 384.739 1.55085 0.69875 0
M  V30 3879 O 385.924 1.83384 0.639053 0
M  V30 3880 C 383.054 3.3928 0.742034 0
M  V30 3881 C 382.008 4.28 -0.00291946 0
M  V30 3882 C 381.334 5.25146 1.00625 0
M  V30 3883 C 382.634 5.08938 -1.17385 0
M  V30 3884 H 384.328 2.84231 -0.940909 0
M  V30 3885 H 381.874 1.36659 -0.453908 0
M  V30 3886 H 383.827 4.046 1.17799 0
M  V30 3887 H 382.551 2.86569 1.56671 0
M  V30 3888 H 381.21 3.64192 -0.419504 0
M  V30 3889 H 380.858 4.68721 1.8251 0
M  V30 3890 H 380.558 5.85361 0.512428 0
M  V30 3891 H 382.082 5.93342 1.44143 0
M  V30 3892 H 383.496 5.67474 -0.815224 0
M  V30 3893 H 381.893 5.7841 -1.59882 0
M  V30 3894 H 382.963 4.42424 -1.98468 0
M  V30 3895 N 384.306 0.507319 1.49211 0
M  V30 3896 C 385.583 -0.0982702 1.95353 0
M  V30 3897 C 385.963 -1.53516 1.449 0
M  V30 3898 O 385.311 -2.18594 0.66551 0
M  V30 3899 C 385.521 -0.00440283 3.49 0
M  V30 3900 C 386.869 -0.175147 4.24239 0
M  V30 3901 O 387.893 -0.0792891 3.56112 0
M  V30 3902 O 386.752 -0.37276 5.45227 0
M  V30 3903 H 383.846 -0.0918236 0.821887 0
M  V30 3904 H 386.392 0.570307 1.5983 0
M  V30 3905 H 385.164 0.997402 3.78375 0
M  V30 3906 H 384.787 -0.712845 3.91158 0
M  V30 3907 N 385.784 -1.5574 0.241426 0
M  V30 3908 C 387.012 -2.03208 -0.389134 0
M  V30 3909 C 387.427 -1.12082 -1.51931 0
M  V30 3910 O 386.784 -0.134183 -1.82006 0
M  V30 3911 C 386.835 -3.50064 -0.902087 0
M  V30 3912 O 386.556 -4.37717 0.18305 0
M  V30 3913 C 388.057 -4.13268 -1.60389 0
M  V30 3914 H 385.277 -0.664509 -0.0931053 0
M  V30 3915 H 387.821 -2.0124 0.36369 0
M  V30 3916 H 385.976 -3.52583 -1.60511 0
M  V30 3917 H 386.39 -5.24097 -0.205579 0
M  V30 3918 H 387.864 -5.17733 -1.91458 0
M  V30 3919 H 388.341 -3.59434 -2.52397 0
M  V30 3920 H 388.947 -4.14655 -0.945576 0
M  V30 3921 N 387.262 0.0317525 -1.57568 0
M  V30 3922 C 388.678 0.38735 -1.54828 0
M  V30 3923 C 388.878 1.7677 -0.967187 0
M  V30 3924 O 387.934 2.45581 -0.587063 0
M  V30 3925 C 389.247 0.291667 -2.99282 0
M  V30 3926 C 390.795 0.368946 -3.10818 0
M  V30 3927 C 391.27 0.302741 -4.56998 0
M  V30 3928 N 392.761 0.361617 -4.61786 0
M  V30 3929 C 393.496 0.333238 -5.72431 0
M  V30 3930 N 392.992 0.257308 -6.92322 0
M  V30 3931 N 394.785 0.382769 -5.60795 0
M  V30 3932 H 386.936 -0.871609 -1.93692 0
M  V30 3933 H 389.199 -0.331161 -0.888277 0
M  V30 3934 H 388.905 -0.656794 -3.45513 0
M  V30 3935 H 388.779 1.08638 -3.61217 0
M  V30 3936 H 391.166 1.30784 -2.64536 0
M  V30 3937 H 391.247 -0.455066 -2.5172 0
M  V30 3938 H 390.891 -0.632473 -5.03947 0
M  V30 3939 H 390.821 1.14482 -5.14005 0
M  V30 3940 H 393.312 0.422923 -3.75526 0
M  V30 3941 H 393.625 0.24068 -7.72425 0
M  V30 3942 H 391.97 0.223396 -6.94641 0
M  V30 3943 H 395.161 0.44006 -4.66027 0
M  V30 3944 H 395.334 0.357184 -6.47015 0
M  V30 3945 N 388.74 1.54641 0.303973 0
M  V30 3946 C 389.687 1.85386 1.37479 0
M  V30 3947 C 390.657 0.702528 1.50512 0
M  V30 3948 O 391.842 0.950867 1.65418 0
M  V30 3949 C 388.982 2.10413 2.73533 0
M  V30 3950 C 388.095 3.38049 2.68974 0
M  V30 3951 C 387.23 3.52934 3.97002 0
M  V30 3952 C 386.269 4.74373 3.86829 0
M  V30 3953 N 385.406 4.8608 5.06627 0
M  V30 3954 H 390.246 2.76732 1.1056 0
M  V30 3955 H 387.783 1.37034 0.534805 0
M  V30 3956 H 389.741 2.22919 3.52652 0
M  V30 3957 H 388.371 1.22338 2.98719 0
M  V30 3958 H 387.423 3.3418 1.81736 0
M  V30 3959 H 388.735 4.27288 2.57346 0
M  V30 3960 H 387.889 3.65088 4.84557 0
M  V30 3961 H 386.628 2.61824 4.1146 0
M  V30 3962 H 385.633 4.62255 2.97658 0
M  V30 3963 H 386.858 5.66888 3.73918 0
M  V30 3964 H 384.804 3.97891 5.21554 0
M  V30 3965 H 384.721 5.69315 4.9741 0
M  V30 3966 H 385.989 5.02587 5.95841 0
M  V30 3967 N 390.218 -0.567019 1.47046 0
M  V30 3968 C 391.148 -1.68482 1.61667 0
M  V30 3969 C 392.129 -1.6358 0.466418 0
M  V30 3970 O 393.314 -1.81354 0.694574 0
M  V30 3971 C 390.444 -3.07124 1.62148 0
M  V30 3972 C 389.398 -3.26867 2.76301 0
M  V30 3973 C 388.724 -4.66196 2.61849 0
M  V30 3974 C 390.024 -3.13186 4.17986 0
M  V30 3975 H 391.718 -1.56502 2.5524 0
M  V30 3976 H 389.264 -0.751486 1.22836 0
M  V30 3977 H 391.217 -3.8516 1.70968 0
M  V30 3978 H 389.941 -3.2004 0.651287 0
M  V30 3979 H 388.6 -2.51237 2.66975 0
M  V30 3980 H 388.248 -4.75898 1.62879 0
M  V30 3981 H 387.948 -4.80356 3.38425 0
M  V30 3982 H 389.472 -5.46379 2.72584 0
M  V30 3983 H 390.886 -3.81049 4.2834 0
M  V30 3984 H 389.283 -3.3886 4.95272 0
M  V30 3985 H 390.353 -2.10057 4.3704 0
M  V30 3986 N 391.696 -1.35014 -0.812953 0
M  V30 3987 C 392.926 -1.30841 -1.59888 0
M  V30 3988 C 393.334 0.117576 -1.88834 0
M  V30 3989 O 392.677 1.07807 -1.48739 0
M  V30 3990 C 392.739 -2.0412 -2.95931 0
M  V30 3991 C 392.403 -3.53336 -2.89832 0
M  V30 3992 C 393.4 -4.48052 -2.63714 0
M  V30 3993 C 391.085 -3.95894 -3.0915 0
M  V30 3994 C 393.079 -5.833 -2.56982 0
M  V30 3995 C 390.766 -5.31239 -3.0204 0
M  V30 3996 C 391.764 -6.24754 -2.75991 0
M  V30 3997 O 391.452 -7.57617 -2.68833 0
M  V30 3998 H 391.184 -0.451215 -0.50337 0
M  V30 3999 H 393.738 -1.78354 -1.01877 0
M  V30 4000 H 391.968 -1.51235 -3.559 0
M  V30 4001 H 393.657 -1.93107 -3.57022 0
M  V30 4002 H 394.423 -4.16492 -2.48515 0
M  V30 4003 H 390.302 -3.23495 -3.28438 0
M  V30 4004 H 393.846 -6.56263 -2.36569 0
M  V30 4005 H 389.743 -5.62415 -3.16796 0
M  V30 4006 H 390.511 -7.67469 -2.84487 0
M  V30 4007 N 393.175 1.03435 -1.18907 0
M  V30 4008 C 394.4 1.80919 -1.01406 0
M  V30 4009 C 394.825 1.83055 0.432721 0
M  V30 4010 O 394.183 1.25252 1.31079 0
M  V30 4011 C 394.231 3.24091 -1.58105 0
M  V30 4012 O 393.335 4.04434 -0.806669 0
M  V30 4013 H 392.676 0.558709 -0.358803 0
M  V30 4014 H 395.206 1.30223 -1.57807 0
M  V30 4015 H 395.216 3.74853 -1.61087 0
M  V30 4016 H 393.891 3.21851 -2.6341 0
M  V30 4017 H 392.468 3.63091 -0.849666 0
M  V30 4018 N 394.653 0.992116 1.22453 0
M  V30 4019 C 395.585 0.500024 2.23679 0
M  V30 4020 C 396.598 -0.404463 1.57696 0
M  V30 4021 O 397.787 -0.206722 1.77299 0
M  V30 4022 C 394.887 -0.294711 3.37616 0
M  V30 4023 C 394.06 0.605723 4.33186 0
M  V30 4024 C 393.119 -0.13717 5.26021 0
M  V30 4025 O 392.145 0.477164 5.67196 0
M  V30 4026 N 393.347 -1.4197 5.62872 0
M  V30 4027 H 396.112 1.37045 2.66531 0
M  V30 4028 H 393.673 0.866741 1.36745 0
M  V30 4029 H 395.665 -0.800329 3.96707 0
M  V30 4030 H 394.235 -1.06623 2.93854 0
M  V30 4031 H 393.455 1.29202 3.72425 0
M  V30 4032 H 394.743 1.21896 4.93983 0
M  V30 4033 H 394.141 -1.94015 5.31389 0
M  V30 4034 H 392.698 -1.87052 6.24383 0
M  V30 4035 N 396.131 -1.37776 0.765217 0
M  V30 4036 C 397.356 -2.04651 0.336537 0
M  V30 4037 C 397.781 -1.57337 -1.03086 0
M  V30 4038 O 397.139 -0.730621 -1.65927 0
M  V30 4039 C 397.187 -3.58577 0.381468 0
M  V30 4040 O 396.291 -4.07706 -0.62042 0
M  V30 4041 H 395.632 -0.64756 0.146838 0
M  V30 4042 H 398.162 -1.76221 1.03959 0
M  V30 4043 H 398.172 -4.07314 0.236448 0
M  V30 4044 H 396.847 -3.9237 1.37907 0
M  V30 4045 H 395.424 -3.70306 -0.439056 0
M  V30 4046 N 397.609 -0.515225 -1.4894 0
M  V30 4047 C 398.855 0.016187 -2.03394 0
M  V30 4048 C 399.21 1.33377 -1.38666 0
M  V30 4049 O 398.503 1.84461 -0.518141 0
M  V30 4050 C 398.697 0.210595 -3.56779 0
M  V30 4051 C 398.526 -1.08659 -4.36375 0
M  V30 4052 C 397.296 -1.64237 -4.77864 0
M  V30 4053 C 399.494 -1.9935 -4.74093 0
M  V30 4054 N 397.476 -2.88398 -5.41941 0
M  V30 4055 C 398.847 -3.08088 -5.38035 0
M  V30 4056 C 400.902 -1.99856 -4.56029 0
M  V30 4057 C 399.605 -4.17377 -5.85823 0
M  V30 4058 C 401.631 -3.08129 -5.04787 0
M  V30 4059 C 400.993 -4.15586 -5.68742 0
M  V30 4060 H 397.092 -0.0352107 -0.781207 0
M  V30 4061 H 399.676 -0.693237 -1.8194 0
M  V30 4062 H 397.847 0.889088 -3.78087 0
M  V30 4063 H 399.579 0.740287 -3.97872 0
M  V30 4064 H 396.334 -1.18566 -4.58518 0
M  V30 4065 H 396.758 -3.51572 -5.78555 0
M  V30 4066 H 401.4 -1.18079 -4.05977 0
M  V30 4067 H 399.118 -4.99943 -6.34888 0
M  V30 4068 H 402.704 -3.09557 -4.92611 0
M  V30 4069 H 401.584 -4.97987 -6.05787 0
M  V30 4070 N 399.087 1.5561 -0.249682 0
M  V30 4071 C 400.364 1.90932 0.424761 0
M  V30 4072 C 400.744 1.17078 1.75658 0
M  V30 4073 O 400.092 0.289176 2.26663 0
M  V30 4074 C 400.302 3.43975 0.590109 0
M  V30 4075 C 401.65 4.15281 0.884714 0
M  V30 4076 O 402.674 3.49729 0.67587 0
M  V30 4077 O 401.533 5.31236 1.28259 0
M  V30 4078 H 398.627 0.794815 0.228468 0
M  V30 4079 H 401.173 1.67135 -0.293954 0
M  V30 4080 H 399.945 3.89748 -0.34818 0
M  V30 4081 H 399.568 3.73644 1.35926 0
M  V30 4082 N 400.565 -0.0233959 1.57583 0
M  V30 4083 C 401.528 -1.00693 2.05897 0
M  V30 4084 C 402.528 -1.28693 0.964092 0
M  V30 4085 O 403.718 -1.23602 1.22753 0
M  V30 4086 C 400.85 -2.33825 2.4807 0
M  V30 4087 H 402.043 -0.589476 2.9405 0
M  V30 4088 H 399.596 -0.270354 1.53944 0
M  V30 4089 H 400.331 -2.80307 1.6309 0
M  V30 4090 H 400.116 -2.1483 3.2801 0
M  V30 4091 H 401.606 -3.04426 2.85857 0
M  V30 4092 N 402.043 -1.548 -0.295768 0
M  V30 4093 C 403.291 -1.73985 -1.02828 0
M  V30 4094 C 403.612 -0.531406 -1.87619 0
M  V30 4095 O 402.882 0.454221 -1.90561 0
M  V30 4096 H 401.462 -0.641556 -0.382642 0
M  V30 4097 H 404.124 -1.92163 -0.325489 0
M  V30 4098 H 403.22 -2.63129 -1.67838 0
M  V30 4099 N 403.521 0.559213 -1.47345 0
M  V30 4100 C 404.451 1.67622 -1.62558 0
M  V30 4101 C 405.432 1.63331 -0.475087 0
M  V30 4102 O 406.617 1.80983 -0.704182 0
M  V30 4103 C 403.747 3.0626 -1.63774 0
M  V30 4104 C 402.701 3.25397 -2.7803 0
M  V30 4105 C 402.027 4.64801 -2.64318 0
M  V30 4106 C 403.327 3.10965 -4.19641 0
M  V30 4107 H 405.021 1.55146 -2.56067 0
M  V30 4108 H 402.567 0.744961 -1.23233 0
M  V30 4109 H 404.52 3.84247 -1.73008 0
M  V30 4110 H 403.244 3.1969 -0.66825 0
M  V30 4111 H 401.903 2.49817 -2.68304 0
M  V30 4112 H 401.551 4.75028 -1.65401 0
M  V30 4113 H 401.251 4.78555 -3.40968 0
M  V30 4114 H 402.775 5.44926 -2.75478 0
M  V30 4115 H 404.189 3.78772 -4.30354 0
M  V30 4116 H 402.586 3.36229 -4.97062 0
M  V30 4117 H 403.656 2.07736 -4.38148 0
M  V30 4118 N 404.999 1.35443 0.805782 0
M  V30 4119 C 406.415 1.15499 1.10146 0
M  V30 4120 C 406.615 -0.0319975 2.01475 0
M  V30 4121 O 405.671 -0.70236 2.42535 0
M  V30 4122 C 406.984 2.45833 1.73166 0
M  V30 4123 C 408.532 2.52047 1.85583 0
M  V30 4124 C 409.007 3.82427 2.52019 0
M  V30 4125 N 410.498 3.83682 2.59504 0
M  V30 4126 C 411.233 4.81294 3.11679 0
M  V30 4127 N 410.729 5.89294 3.64287 0
M  V30 4128 N 412.522 4.6873 3.1024 0
M  V30 4129 H 404.673 2.11469 0.198678 0
M  V30 4130 H 406.936 0.93594 0.150731 0
M  V30 4131 H 406.642 3.32874 1.13526 0
M  V30 4132 H 406.516 2.6044 2.72857 0
M  V30 4133 H 408.903 1.65435 2.44367 0
M  V30 4134 H 408.984 2.41354 0.847455 0
M  V30 4135 H 408.628 4.69437 1.93885 0
M  V30 4136 H 408.558 3.90409 3.53395 0
M  V30 4137 H 411.049 3.05648 2.22234 0
M  V30 4138 H 411.362 6.59768 4.02401 0
M  V30 4139 H 409.707 5.92985 3.62483 0
M  V30 4140 H 412.898 3.83496 2.68419 0
M  V30 4141 H 413.071 5.44965 3.50596 0
M  V30 4142 N 406.477 -1.02803 1.19454 0
M  V30 4143 C 407.707 -1.79581 1.02149 0
M  V30 4144 C 408.115 -1.84182 -0.432851 0
M  V30 4145 O 407.458 -1.28534 -1.31243 0
M  V30 4146 C 407.52 -3.25993 1.51554 0
M  V30 4147 C 407.184 -3.45025 2.99678 0
M  V30 4148 C 408.181 -3.35175 3.97434 0
M  V30 4149 C 405.866 -3.71212 3.38389 0
M  V30 4150 C 407.86 -3.51238 5.31893 0
M  V30 4151 C 405.547 -3.8692 4.73008 0
M  V30 4152 C 406.545 -3.76936 5.69569 0
M  V30 4153 O 406.233 -3.92179 7.01748 0
M  V30 4154 H 405.965 -0.571962 0.360327 0
M  V30 4155 H 408.519 -1.30367 1.58725 0
M  V30 4156 H 406.749 -3.76235 0.893543 0
M  V30 4157 H 408.438 -3.84368 1.30444 0
M  V30 4158 H 409.204 -3.14895 3.68872 0
M  V30 4159 H 405.083 -3.78075 2.6378 0
M  V30 4160 H 408.627 -3.43362 6.07247 0
M  V30 4161 H 404.524 -4.06699 5.01265 0
M  V30 4162 H 405.292 -4.09265 7.08833 0
M  V30 4163 N 407.956 -0.998596 -1.21925 0
M  V30 4164 C 408.904 -0.546641 -2.26085 0
M  V30 4165 C 409.898 0.405576 -1.64473 0
M  V30 4166 O 411.104 0.277471 -1.77849 0
M  V30 4167 H 407.479 -0.158403 -0.735127 0
M  V30 4168 H 409.45 -1.43645 -2.61551 0
M  V30 4169 C 408.199 0.117388 -3.47502 0
M  V30 4170 H 407.522 -0.606277 -3.95176 0
M  V30 4171 H 408.962 0.396993 -4.22137 0
M  V30 4172 C 407.421 1.35455 -3.0847 0
M  V30 4173 O 407.951 2.44944 -3.18379 0
M  V30 4174 N 406.157 1.23191 -2.63196 0
M  V30 4175 H 405.704 0.341006 -2.55333 0
M  V30 4176 H 405.662 2.06071 -2.37449 0
M  V30 4177 N 409.434 1.37368 -0.772513 0
M  V30 4178 C 410.682 1.99279 -0.336516 0
M  V30 4179 C 411.003 1.6163 1.09091 0
M  V30 4180 O 410.273 0.882109 1.74916 0
M  V30 4181 H 408.853 0.737063 -0.121435 0
M  V30 4182 H 411.515 1.67836 -0.990809 0
M  V30 4183 H 410.611 3.09332 -0.414763 0
M  V30 4184 N 410.912 0.523116 1.48665 0
M  V30 4185 C 411.822 -0.247406 2.33292 0
M  V30 4186 C 412.838 -0.945769 1.46052 0
M  V30 4187 O 414.014 -0.922253 1.79043 0
M  V30 4188 C 411.079 -1.28487 3.22012 0
M  V30 4189 C 410.14 -0.597592 4.2512 0
M  V30 4190 C 409.373 -1.58563 5.09601 0
M  V30 4191 O 409.596 -2.81763 4.95949 0
M  V30 4192 O 408.53 -1.12879 5.91221 0
M  V30 4193 H 412.356 0.445869 3.00409 0
M  V30 4194 H 409.941 0.284128 1.46673 0
M  V30 4195 H 411.823 -1.88459 3.7691 0
M  V30 4196 H 410.498 -1.96068 2.57564 0
M  V30 4197 H 409.405 0.0424407 3.74076 0
M  V30 4198 H 410.738 0.0361517 4.92187 0
M  V30 4199 N 412.39 -1.55475 0.257931 0
M  V30 4200 C 413.32 -2.24815 -0.630912 0
M  V30 4201 C 414.301 -1.23224 -1.17259 0
M  V30 4202 O 415.486 -1.51904 -1.20991 0
M  V30 4203 C 412.616 -2.95609 -1.82298 0
M  V30 4204 C 411.57 -4.03982 -1.41359 0
M  V30 4205 C 410.896 -4.6226 -2.68738 0
M  V30 4206 C 412.196 -5.19109 -0.57648 0
M  V30 4207 H 413.89 -2.99354 -0.0526878 0
M  V30 4208 H 411.436 -1.4398 -0.023901 0
M  V30 4209 H 413.389 -3.42822 -2.45054 0
M  V30 4210 H 412.113 -2.18577 -2.42676 0
M  V30 4211 H 410.772 -3.57555 -0.809324 0
M  V30 4212 H 410.42 -3.81915 -3.27338 0
M  V30 4213 H 410.12 -5.35424 -2.42065 0
M  V30 4214 H 411.644 -5.12212 -3.32372 0
M  V30 4215 H 413.058 -5.62479 -1.10861 0
M  V30 4216 H 411.455 -5.98729 -0.405351 0
M  V30 4217 H 412.525 -4.83174 0.408776 0
M  V30 4218 N 413.868 0.0150385 -1.57593 0
M  V30 4219 C 415.117 0.702115 -1.89085 0
M  V30 4220 C 415.43 1.75764 -0.858277 0
M  V30 4221 O 416.636 2.49829 -1.0629 0
M  V30 4222 C 415.092 1.29992 -3.35604 0
M  V30 4223 C 414.7 0.280007 -4.47124 0
M  V30 4224 C 416.444 1.96606 -3.76227 0
M  V30 4225 C 414.351 0.886949 -5.84711 0
M  V30 4226 H 413.281 0.265997 -0.705522 0
M  V30 4227 H 415.932 -0.0430408 -1.8345 0
M  V30 4228 H 414.314 2.09525 -3.36029 0
M  V30 4229 H 415.488 -0.489631 -4.58191 0
M  V30 4230 H 413.803 -0.284835 -4.15425 0
M  V30 4231 H 416.4 2.42893 -4.76347 0
M  V30 4232 H 416.743 2.79024 -3.08952 0
M  V30 4233 H 417.276 1.23828 -3.78036 0
M  V30 4234 H 414.015 0.101876 -6.55421 0
M  V30 4235 H 413.535 1.6261 -5.77337 0
M  V30 4236 H 415.214 1.39011 -6.3189 0
M  V30 4237 N 415.346 1.54954 0.287554 0
M  V30 4238 C 416.293 1.86834 1.35505 0
M  V30 4239 C 417.263 0.718452 1.49758 0
M  V30 4240 O 418.448 0.968358 1.644 0
M  V30 4241 C 415.588 2.13303 2.71286 0
M  V30 4242 C 414.701 3.40883 2.65373 0
M  V30 4243 C 413.836 3.57125 3.93236 0
M  V30 4244 C 412.875 4.78449 3.81776 0
M  V30 4245 N 412.012 4.91426 5.01443 0
M  V30 4246 H 416.852 2.77889 1.07619 0
M  V30 4247 H 414.389 1.37593 0.520241 0
M  V30 4248 H 416.347 2.26646 3.50267 0
M  V30 4249 H 414.977 1.25499 2.97405 0
M  V30 4250 H 414.029 3.36088 1.78182 0
M  V30 4251 H 415.341 4.29993 2.52799 0
M  V30 4252 H 414.495 3.70207 4.80658 0
M  V30 4253 H 413.234 2.66173 4.0866 0
M  V30 4254 H 412.239 4.65386 2.92738 0
M  V30 4255 H 413.464 5.70822 3.67884 0
M  V30 4256 H 411.41 4.03401 5.17304 0
M  V30 4257 H 411.327 5.74559 4.91343 0
M  V30 4258 H 412.595 5.08879 5.90477 0
M  V30 4259 N 416.824 -0.551391 1.4764 0
M  V30 4260 C 418.049 -1.33837 1.58437 0
M  V30 4261 C 418.474 -1.866 0.237063 0
M  V30 4262 O 417.832 -1.6328 -0.787994 0
M  V30 4263 C 417.88 -2.48014 2.61766 0
M  V30 4264 O 416.984 -3.50419 2.1744 0
M  V30 4265 H 416.325 -0.397299 0.532024 0
M  V30 4266 H 418.855 -0.665759 1.93465 0
M  V30 4267 H 418.865 -2.94503 2.82369 0
M  V30 4268 H 417.54 -2.08969 3.5959 0
M  V30 4269 H 416.117 -3.10196 2.06961 0
M  V30 4270 N 418.302 -1.35869 -0.798587 0
M  V30 4271 C 419.234 -1.25305 -1.91915 0
M  V30 4272 C 420.247 -0.174548 -1.61862 0
M  V30 4273 O 421.436 -0.428499 -1.73281 0
M  V30 4274 C 418.536 -0.9086 -3.26493 0
M  V30 4275 C 417.709 -2.08711 -3.84394 0
M  V30 4276 C 416.768 -1.71717 -4.97393 0
M  V30 4277 O 415.794 -2.43692 -5.14396 0
M  V30 4278 N 416.996 -0.645473 -5.769 0
M  V30 4279 H 419.761 -2.21849 -2.01502 0
M  V30 4280 H 417.322 -1.29143 -0.976408 0
M  V30 4281 H 419.314 -0.642455 -3.99568 0
M  V30 4282 H 417.884 -0.0325815 -3.12583 0
M  V30 4283 H 417.104 -2.51659 -3.03416 0
M  V30 4284 H 418.392 -2.87468 -4.19809 0
M  V30 4285 H 417.79 -0.047648 -5.6568 0
M  V30 4286 H 416.347 -0.43913 -6.50319 0
M  V30 4287 N 419.78 1.02168 -1.19998 0
M  V30 4288 C 420.71 2.12488 -0.96804 0
M  V30 4289 C 421.691 1.69799 0.101185 0
M  V30 4290 O 422.876 1.94121 -0.0552993 0
M  V30 4291 C 420.006 3.43479 -0.513776 0
M  V30 4292 C 418.96 3.99884 -1.52566 0
M  V30 4293 C 418.286 5.26582 -0.928214 0
M  V30 4294 C 419.586 4.33861 -2.90795 0
M  V30 4295 H 421.28 2.32149 -1.89069 0
M  V30 4296 H 418.826 1.11564 -0.910468 0
M  V30 4297 H 420.779 4.20036 -0.338774 0
M  V30 4298 H 419.503 3.23561 0.444493 0
M  V30 4299 H 418.162 3.25429 -1.68794 0
M  V30 4300 H 417.81 5.02986 0.0378289 0
M  V30 4301 H 417.51 5.65284 -1.60397 0
M  V30 4302 H 419.034 6.05799 -0.764167 0
M  V30 4303 H 420.448 5.01327 -2.78109 0
M  V30 4304 H 418.845 4.83664 -3.55231 0
M  V30 4305 H 419.915 3.42848 -3.42904 0
M  V30 4306 N 421.258 1.00505 1.21394 0
M  V30 4307 C 422.507 0.683159 1.89778 0
M  V30 4308 C 422.82 -0.789471 1.7896 0
M  V30 4309 O 424.026 -1.22344 2.42372 0
M  V30 4310 C 422.482 1.17146 3.40301 0
M  V30 4311 C 422.09 2.67017 3.5973 0
M  V30 4312 C 423.834 0.924461 4.14311 0
M  V30 4313 C 421.741 3.09387 5.04017 0
M  V30 4314 H 420.671 0.25183 0.710702 0
M  V30 4315 H 423.322 1.21622 1.37406 0
M  V30 4316 H 421.704 0.566451 3.91928 0
M  V30 4317 H 422.878 3.32968 3.18542 0
M  V30 4318 H 421.193 2.89732 2.99073 0
M  V30 4319 H 423.79 1.21658 5.20676 0
M  V30 4320 H 424.133 -0.139286 4.16067 0
M  V30 4321 H 424.666 1.49226 3.6875 0
M  V30 4322 H 421.405 4.14989 5.07409 0
M  V30 4323 H 420.925 2.48149 5.46061 0
M  V30 4324 H 422.604 3.01371 5.72525 0
M  V30 4325 N 422.737 -1.36956 0.779787 0
M  V30 4326 C 423.965 -2.03755 0.359398 0
M  V30 4327 C 424.38 -1.58807 -1.02106 0
M  V30 4328 O 423.737 -0.773024 -1.6532 0
M  V30 4329 C 423.788 -3.59251 0.402568 0
M  V30 4330 O 423.509 -4.02557 1.72858 0
M  V30 4331 C 425.01 -4.43291 -0.0284068 0
M  V30 4332 H 422.23 -0.654148 0.149437 0
M  V30 4333 H 424.774 -1.75128 1.05595 0
M  V30 4334 H 422.929 -3.86621 -0.245478 0
M  V30 4335 H 423.343 -4.97111 1.67275 0
M  V30 4336 H 424.817 -5.51975 0.0529466 0
M  V30 4337 H 425.294 -4.25719 -1.07982 0
M  V30 4338 H 425.9 -4.21163 0.591758 0
M  V30 4339 N 424.215 -0.530993 -1.48385 0
M  V30 4340 C 425.44 0.000729535 -2.074 0
M  V30 4341 C 425.865 1.27298 -1.3848 0
M  V30 4342 O 425.223 1.75599 -0.451081 0
M  V30 4343 C 425.271 0.206697 -3.60007 0
M  V30 4344 O 424.375 1.27514 -3.92191 0
M  V30 4345 H 423.716 -0.039583 -0.662819 0
M  V30 4346 H 426.246 -0.739194 -1.9078 0
M  V30 4347 H 426.256 0.42904 -4.05738 0
M  V30 4348 H 424.931 -0.722675 -4.09573 0
M  V30 4349 H 423.508 1.03537 -3.58238 0
M  V30 4350 N 425.693 1.55336 -0.266172 0
M  V30 4351 C 426.923 2.03506 0.356239 0
M  V30 4352 C 427.331 1.14426 1.50676 0
M  V30 4353 O 426.674 0.155043 1.83045 0
M  V30 4354 C 426.736 3.47848 0.90785 0
M  V30 4355 C 426.4 4.56861 -0.112888 0
M  V30 4356 C 427.397 5.11528 -0.929264 0
M  V30 4357 C 425.082 5.01704 -0.244546 0
M  V30 4358 C 427.076 6.09549 -1.86357 0
M  V30 4359 C 424.763 5.99553 -1.18234 0
M  V30 4360 C 425.761 6.53356 -1.99036 0
M  V30 4361 O 425.449 7.49293 -2.91231 0
M  V30 4362 H 425.181 0.670444 0.08649 0
M  V30 4363 H 427.735 2.01598 -0.39337 0
M  V30 4364 H 425.965 3.46967 1.70737 0
M  V30 4365 H 427.654 3.79407 1.44239 0
M  V30 4366 H 428.42 4.77701 -0.838237 0
M  V30 4367 H 424.299 4.59477 0.374359 0
M  V30 4368 H 427.843 6.51469 -2.49467 0
M  V30 4369 H 423.74 6.32799 -1.27421 0
M  V30 4370 H 424.508 7.66978 -2.8581 0
M  V30 4371 N 427.171 -0.0066808 1.57599 0
M  V30 4372 C 428.396 -0.707738 1.94951 0
M  V30 4373 C 428.821 -1.66882 0.867868 0
M  V30 4374 O 428.179 -1.80457 -0.17458 0
M  V30 4375 C 428.227 -1.42162 3.31394 0
M  V30 4376 O 427.331 -2.53578 3.25226 0
M  V30 4377 H 426.672 -0.188752 0.636607 0
M  V30 4378 H 429.202 0.0445193 2.04552 0
M  V30 4379 H 429.212 -1.78655 3.66806 0
M  V30 4380 H 427.887 -0.716903 4.09675 0
M  V30 4381 H 426.464 -2.19463 3.01481 0
M  V30 4382 N 428.649 -1.55105 -0.279332 0
M  V30 4383 C 429.599 -1.83937 -1.34727 0
M  V30 4384 C 430.583 -0.69785 -1.44979 0
M  V30 4385 O 431.775 -0.95904 -1.48766 0
M  V30 4386 C 428.904 -2.1092 -2.70864 0
M  V30 4387 C 427.99 -3.31314 -2.64748 0
M  V30 4388 N 428.381 -4.51371 -2.2825 0
M  V30 4389 C 426.679 -3.33777 -2.95819 0
M  V30 4390 C 427.38 -5.33447 -2.31969 0
M  V30 4391 N 426.356 -4.71697 -2.7019 0
M  V30 4392 H 430.158 -2.74309 -1.05506 0
M  V30 4393 H 427.672 -1.54896 -0.487959 0
M  V30 4394 H 429.669 -2.2973 -3.47893 0
M  V30 4395 H 428.329 -1.21828 -3.00979 0
M  V30 4396 H 429.34 -4.77584 -2.00335 0
M  V30 4397 H 426.017 -2.54858 -3.30687 0
M  V30 4398 H 427.407 -6.39424 -2.06365 0
M  V30 4399 N 430.127 0.543554 -1.4793 0
M  V30 4400 C 431.352 1.32995 -1.59145 0
M  V30 4401 C 431.777 1.86472 -0.246956 0
M  V30 4402 O 431.135 1.63696 0.779324 0
M  V30 4403 C 431.183 2.46623 -2.63077 0
M  V30 4404 O 430.287 3.49261 -2.19295 0
M  V30 4405 H 429.628 0.394472 -0.534124 0
M  V30 4406 H 432.158 0.655489 -1.93816 0
M  V30 4407 H 432.168 2.93001 -2.83926 0
M  V30 4408 H 430.843 2.07059 -3.60693 0
M  V30 4409 H 429.42 3.09094 -2.08603 0
M  V30 4410 N 431.605 1.3629 0.791371 0
M  V30 4411 C 432.552 1.30458 1.90393 0
M  V30 4412 C 433.522 0.173632 1.6519 0
M  V30 4413 O 434.707 0.35983 1.87376 0
M  V30 4414 C 431.847 1.09777 3.27174 0
M  V30 4415 C 430.96 2.31929 3.64462 0
M  V30 4416 C 430.095 2.04276 4.90352 0
M  V30 4417 C 429.134 3.224 5.20312 0
M  V30 4418 N 428.271 2.94424 6.37385 0
M  V30 4419 H 433.111 2.25589 1.94714 0
M  V30 4420 H 430.648 1.12122 0.952216 0
M  V30 4421 H 432.606 0.958133 4.06049 0
M  V30 4422 H 431.236 0.183014 3.22281 0
M  V30 4423 H 430.288 2.56703 2.80727 0
M  V30 4424 H 431.6 3.20085 3.82553 0
M  V30 4425 H 430.754 1.87231 5.77087 0
M  V30 4426 H 429.493 1.13428 4.74326 0
M  V30 4427 H 428.498 3.40005 4.32061 0
M  V30 4428 H 429.723 4.14071 5.38258 0
M  V30 4429 H 427.669 2.06185 6.22755 0
M  V30 4430 H 427.586 3.76118 6.55798 0
M  V30 4431 H 428.854 2.80953 7.27108 0
M  V30 4432 N 433.083 -1.0153 1.20538 0
M  V30 4433 C 434.36 -1.72327 0.925343 0
M  V30 4434 C 434.74 -2.03383 -0.565547 0
M  V30 4435 O 434.088 -1.69934 -1.52757 0
M  V30 4436 C 434.298 -2.9902 1.79967 0
M  V30 4437 C 435.646 -3.72258 2.04228 0
M  V30 4438 O 436.67 -3.08979 1.77231 0
M  V30 4439 O 435.529 -4.86053 2.4983 0
M  V30 4440 H 432.623 -0.751099 0.346092 0
M  V30 4441 H 435.169 -1.07366 1.31417 0
M  V30 4442 H 433.941 -2.72402 2.80915 0
M  V30 4443 H 433.564 -3.71721 1.41099 0
M  V30 4444 N 434.561 -1.01147 -1.20859 0
M  V30 4445 C 435.791 -0.715872 -1.93801 0
M  V30 4446 C 436.199 0.726592 -1.74692 0
M  V30 4447 O 435.542 1.50397 -1.05482 0
M  V30 4448 C 435.604 -0.965269 -3.46299 0
M  V30 4449 C 435.268 -2.39584 -3.89164 0
M  V30 4450 C 436.265 -3.3764 -3.95342 0
M  V30 4451 C 433.95 -2.73522 -4.21297 0
M  V30 4452 C 435.944 -4.67698 -4.33056 0
M  V30 4453 C 433.631 -4.03794 -4.58687 0
M  V30 4454 C 434.629 -5.00693 -4.64538 0
M  V30 4455 O 434.317 -6.28635 -5.01072 0
M  V30 4456 H 434.049 -0.262524 -0.622942 0
M  V30 4457 H 436.603 -1.35413 -1.54443 0
M  V30 4458 H 434.833 -0.269847 -3.85757 0
M  V30 4459 H 436.522 -0.662051 -4.00464 0
M  V30 4460 H 437.288 -3.12757 -3.70686 0
M  V30 4461 H 433.167 -1.9879 -4.15937 0
M  V30 4462 H 436.711 -5.4333 -4.37537 0
M  V30 4463 H 432.608 -4.28459 -4.82797 0
M  V30 4464 H 433.376 -6.32847 -5.19083 0
M  V30 4465 N 436.039 1.36541 -0.78704 0
M  V30 4466 C 436.987 2.31965 -0.171724 0
M  V30 4467 C 437.981 1.55689 0.667631 0
M  V30 4468 O 439.187 1.70969 0.562981 0
M  V30 4469 H 435.562 0.751101 -0.0367545 0
M  V30 4470 H 437.533 2.81428 -0.992017 0
M  V30 4471 C 436.282 3.40968 0.680904 0
M  V30 4472 H 435.605 3.99775 0.0443961 0
M  V30 4473 H 437.045 4.10063 1.07815 0
M  V30 4474 C 435.504 2.82338 1.83813 0
M  V30 4475 O 436.034 2.74311 2.93456 0
M  V30 4476 N 434.24 2.39661 1.6435 0
M  V30 4477 H 433.787 2.46389 0.751668 0
M  V30 4478 H 433.745 2.00779 2.4194 0
M  V30 4479 N 437.518 0.538854 1.48102 0
M  V30 4480 C 438.748 0.0122958 2.06596 0
M  V30 4481 C 439.156 -1.27861 1.39457 0
M  V30 4482 O 438.499 -1.77348 0.478907 0
M  V30 4483 C 438.561 -0.273131 3.58461 0
M  V30 4484 C 438.225 0.92561 4.47528 0
M  V30 4485 C 439.222 1.82637 4.86765 0
M  V30 4486 C 436.907 1.13511 4.89306 0
M  V30 4487 C 438.901 2.92047 5.66558 0
M  V30 4488 C 436.588 2.23233 5.68868 0
M  V30 4489 C 437.586 3.12333 6.07402 0
M  V30 4490 O 437.274 4.20155 6.85365 0
M  V30 4491 H 437.006 0.0344283 0.675123 0
M  V30 4492 H 439.56 0.746494 1.91355 0
M  V30 4493 H 437.79 -1.06141 3.71848 0
M  V30 4494 H 439.479 -0.742842 3.99045 0
M  V30 4495 H 440.245 1.67649 4.55103 0
M  V30 4496 H 436.124 0.450835 4.5879 0
M  V30 4497 H 439.668 3.6162 5.96554 0
M  V30 4498 H 435.565 2.38201 5.99942 0
M  V30 4499 H 436.333 4.17975 7.03732 0
M  V30 4500 N 438.996 -1.55193 0.274407 0
M  V30 4501 C 440.273 -1.91584 -0.394331 0
M  V30 4502 C 440.653 -1.19858 -1.73774 0
M  V30 4503 O 440.001 -0.3252 -2.26174 0
M  V30 4504 C 440.211 -3.4487 -0.535311 0
M  V30 4505 C 441.559 -4.16636 -0.818534 0
M  V30 4506 O 442.583 -3.5076 -0.620146 0
M  V30 4507 O 441.442 -5.33209 -1.19792 0
M  V30 4508 H 438.536 -0.798349 -0.215794 0
M  V30 4509 H 441.082 -1.66646 0.320507 0
M  V30 4510 H 439.854 -3.89145 0.410141 0
M  V30 4511 H 439.477 -3.75759 -1.29964 0
M  V30 4512 N 440.474 -0.00167713 -1.576 0
M  V30 4513 C 441.885 0.54091 -1.78693 0
M  V30 4514 C 442.236 1.7386 -0.909247 0
M  V30 4515 O 441.361 2.16109 -0.112176 0
M  V30 4516 C 441.956 0.98806 -3.24072 0
M  V30 4517 C 440.515 1.47594 -3.46256 0
M  V30 4518 C 439.662 0.42792 -2.73978 0
M  V30 4519 H 442.613 -0.22784 -1.57056 0
M  V30 4520 H 442.634 1.85398 -3.32277 0
M  V30 4521 H 442.146 0.116164 -3.87926 0
M  V30 4522 H 440.247 2.36868 -2.87618 0
M  V30 4523 H 440.36 1.50225 -4.54939 0
M  V30 4524 H 438.724 0.889934 -2.38647 0
M  V30 4525 H 439.507 -0.435038 -3.40532 0
M  V30 4526 N 441.952 1.55251 0.271103 0
M  V30 4527 C 442.902 1.84649 1.33749 0
M  V30 4528 C 443.886 0.705529 1.44607 0
M  V30 4529 O 445.078 0.966916 1.48256 0
M  V30 4530 C 442.207 2.12354 2.69742 0
M  V30 4531 C 441.293 3.32714 2.62988 0
M  V30 4532 N 441.684 4.52575 2.25853 0
M  V30 4533 C 439.982 3.35341 2.94045 0
M  V30 4534 C 440.683 5.34669 2.29136 0
M  V30 4535 N 439.659 4.73123 2.67685 0
M  V30 4536 H 443.461 2.74865 1.0405 0
M  V30 4537 H 440.975 1.55152 0.479738 0
M  V30 4538 H 442.972 2.31572 3.4667 0
M  V30 4539 H 441.632 1.23422 3.00328 0
M  V30 4540 H 442.643 4.78639 1.978 0
M  V30 4541 H 439.32 2.56608 3.2933 0
M  V30 4542 H 440.71 6.40509 2.02971 0
M  V30 4543 N 443.43 -0.535701 1.48216 0
M  V30 4544 C 444.66 -1.3148 1.59363 0
M  V30 4545 C 445.068 -1.8753 0.250844 0
M  V30 4546 O 444.411 -1.66821 -0.769174 0
M  V30 4547 C 444.473 -2.50731 2.57632 0
M  V30 4548 C 444.137 -2.15811 4.02833 0
M  V30 4549 C 445.134 -1.71822 4.90686 0
M  V30 4550 C 442.819 -2.26509 4.48329 0
M  V30 4551 C 444.813 -1.3899 6.22062 0
M  V30 4552 C 442.5 -1.93289 5.79726 0
M  V30 4553 C 443.498 -1.49599 6.66415 0
M  V30 4554 O 443.186 -1.16812 7.95368 0
M  V30 4555 H 442.918 -0.406315 0.540263 0
M  V30 4556 H 445.472 -0.653569 1.94725 0
M  V30 4557 H 443.702 -3.19817 2.1738 0
M  V30 4558 H 445.391 -3.12797 2.58675 0
M  V30 4559 H 446.157 -1.63031 4.56778 0
M  V30 4560 H 442.036 -2.59471 3.81045 0
M  V30 4561 H 445.58 -1.04816 6.89681 0
M  V30 4562 H 441.477 -2.01718 6.13172 0
M  V30 4563 H 442.245 -1.30259 8.08069 0
M  V30 4564 N 444.908 -1.36708 -0.784132 0
M  V30 4565 C 446.156 -1.30972 -1.53918 0
M  V30 4566 C 446.477 0.109086 -1.94695 0
M  V30 4567 O 445.747 1.05048 -1.65353 0
M  V30 4568 H 444.327 -0.481819 -0.570841 0
M  V30 4569 H 446.989 -1.71063 -0.934002 0
M  V30 4570 H 446.085 -1.94061 -2.44431 0
M  V30 4571 N 446.386 1.0089 -1.21074 0
M  V30 4572 C 447.802 1.2695 -0.967257 0
M  V30 4573 C 448.002 1.9846 0.348673 0
M  V30 4574 O 447.058 2.28459 1.0753 0
M  V30 4575 C 448.371 2.09697 -2.15517 0
M  V30 4576 C 449.919 2.22937 -2.197 0
M  V30 4577 C 450.394 3.09064 -3.37999 0
M  V30 4578 N 451.885 3.16653 -3.38061 0
M  V30 4579 C 452.62 3.8354 -4.26245 0
M  V30 4580 N 452.116 4.52488 -5.2462 0
M  V30 4581 N 453.909 3.80141 -4.14064 0
M  V30 4582 H 446.06 0.529005 -2.05707 0
M  V30 4583 H 448.323 0.296148 -0.900556 0
M  V30 4584 H 448.029 1.64497 -3.10859 0
M  V30 4585 H 447.903 3.10444 -2.14253 0
M  V30 4586 H 450.29 2.67357 -1.24916 0
M  V30 4587 H 450.371 1.21673 -2.2501 0
M  V30 4588 H 450.015 2.65347 -4.33074 0
M  V30 4589 H 449.945 4.10433 -3.29928 0
M  V30 4590 H 452.436 2.67566 -2.66865 0
M  V30 4591 H 452.749 5.01219 -5.88217 0
M  V30 4592 H 451.094 4.51288 -5.28549 0
M  V30 4593 H 454.285 3.25427 -3.36474 0
M  V30 4594 H 454.458 4.31992 -4.82998 0
M  V30 4595 N 447.864 1.01787 1.20321 0
M  V30 4596 C 449.094 0.72614 1.93419 0
M  V30 4597 C 449.502 -0.717317 1.75075 0
M  V30 4598 O 448.845 -1.49836 1.06278 0
M  V30 4599 C 448.907 0.983621 3.45782 0
M  V30 4600 C 448.571 2.41645 3.87888 0
M  V30 4601 C 449.568 3.39732 3.93545 0
M  V30 4602 C 447.253 2.75752 4.19841 0
M  V30 4603 C 449.247 4.69988 4.30569 0
M  V30 4604 C 446.934 4.06221 4.56539 0
M  V30 4605 C 447.932 5.0315 4.61876 0
M  V30 4606 O 447.62 6.31284 4.97731 0
M  V30 4607 H 447.352 0.265824 0.621541 0
M  V30 4608 H 449.906 1.3623 1.53722 0
M  V30 4609 H 448.136 0.290301 3.85609 0
M  V30 4610 H 449.825 0.683279 4.00108 0
M  V30 4611 H 450.591 3.14718 3.69022 0
M  V30 4612 H 446.47 2.00993 4.14877 0
M  V30 4613 H 450.014 5.45642 4.3465 0
M  V30 4614 H 445.911 4.31013 4.80518 0
M  V30 4615 H 446.679 6.35591 5.15719 0
M  V30 4616 N 449.342 -1.36122 0.79427 0
M  V30 4617 C 450.619 -1.93398 0.292685 0
M  V30 4618 C 450.999 -1.72567 -1.21589 0
M  V30 4619 O 450.347 -1.08745 -2.00965 0
M  V30 4620 C 450.557 -3.42099 0.690614 0
M  V30 4621 C 451.905 -4.19231 0.673105 0
M  V30 4622 O 452.929 -3.50559 0.631389 0
M  V30 4623 O 451.788 -5.41732 0.720362 0
M  V30 4624 H 448.882 -0.823712 0.0736693 0
M  V30 4625 H 451.428 -1.45273 0.87714 0
M  V30 4626 H 450.2 -3.50938 1.73085 0
M  V30 4627 H 449.823 -3.97519 0.0803036 0
M  V30 4628 N 450.82 -0.546701 -1.47814 0
M  V30 4629 C 452.045 -0.021268 -2.07389 0
M  V30 4630 C 452.47 1.25822 -1.39822 0
M  V30 4631 O 451.828 1.75111 -0.46968 0
M  V30 4632 C 451.876 0.168502 -3.60206 0
M  V30 4633 O 450.98 1.23347 -3.93522 0
M  V30 4634 H 450.321 -0.0466108 -0.662362 0
M  V30 4635 H 452.851 -0.759387 -1.89985 0
M  V30 4636 H 452.861 0.385982 -4.0617 0
M  V30 4637 H 451.536 -0.766075 -4.08784 0
M  V30 4638 H 450.113 0.997319 -3.59316 0
M  V30 4639 N 452.299 1.55045 -0.282633 0
M  V30 4640 C 453.524 2.04628 0.337977 0
M  V30 4641 C 453.949 1.15937 1.48123 0
M  V30 4642 O 453.307 0.159532 1.80597 0
M  V30 4643 C 453.355 3.51854 0.78936 0
M  V30 4644 O 452.459 3.66236 1.89592 0
M  V30 4645 H 451.8 0.660434 0.0687261 0
M  V30 4646 H 454.33 2.00261 -0.419124 0
M  V30 4647 H 454.34 3.93361 1.08311 0
M  V30 4648 H 453.015 4.15873 -0.0470419 0
M  V30 4649 H 451.592 3.36633 1.60413 0
M  V30 4650 N 453.777 0.010035 1.57597 0
M  V30 4651 C 454.74 -0.963029 2.07986 0
M  V30 4652 C 455.74 -1.26619 0.991173 0
M  V30 4653 O 456.93 -1.2097 1.25347 0
M  V30 4654 C 454.062 -2.2851 2.52974 0
M  V30 4655 H 455.255 -0.526971 2.95234 0
M  V30 4656 H 452.808 -0.237639 1.54483 0
M  V30 4657 H 453.543 -2.76784 1.69 0
M  V30 4658 H 453.328 -2.07824 3.32493 0
M  V30 4659 H 454.818 -2.98294 2.9225 0
M  V30 4660 N 455.255 -1.55392 -0.262866 0
M  V30 4661 C 456.483 -1.80513 -1.01108 0
M  V30 4662 C 456.898 -0.583533 -1.79556 0
M  V30 4663 O 456.255 0.447585 -1.76926 0
M  V30 4664 C 456.306 -3.03648 -1.96164 0
M  V30 4665 O 456.027 -4.2109 -1.20893 0
M  V30 4666 C 457.528 -3.41448 -2.82715 0
M  V30 4667 H 454.748 -0.601079 -0.298236 0
M  V30 4668 H 457.292 -2.02425 -0.290582 0
M  V30 4669 H 455.447 -2.83832 -2.63663 0
M  V30 4670 H 455.861 -4.90771 -1.85051 0
M  V30 4671 H 457.335 -4.30751 -3.45192 0
M  V30 4672 H 457.812 -2.61308 -3.53008 0
M  V30 4673 H 458.418 -3.63559 -2.20693 0
M  V30 4674 N 456.733 0.527833 -1.48498 0
M  V30 4675 C 457.663 1.64136 -1.66077 0
M  V30 4676 C 458.644 1.62286 -0.509625 0
M  V30 4677 O 459.829 1.79449 -0.742413 0
M  V30 4678 C 456.959 3.02717 -1.70234 0
M  V30 4679 C 455.913 3.19426 -2.8487 0
M  V30 4680 C 455.239 4.5909 -2.74118 0
M  V30 4681 C 456.539 3.01993 -4.26142 0
M  V30 4682 H 458.233 1.4968 -2.593 0
M  V30 4683 H 455.779 0.718654 -1.24785 0
M  V30 4684 H 457.732 3.80491 -1.8112 0
M  V30 4685 H 456.456 3.18201 -0.735911 0
M  V30 4686 H 455.115 2.4407 -2.73542 0
M  V30 4687 H 454.763 4.71413 -1.7544 0
M  V30 4688 H 454.463 4.71214 -3.51042 0
M  V30 4689 H 455.987 5.3896 -2.86974 0
M  V30 4690 H 457.401 3.69558 -4.38292 0
M  V30 4691 H 455.798 3.2561 -5.04082 0
M  V30 4692 H 456.868 1.98396 -4.42456 0
M  V30 4693 N 458.211 1.37122 0.776871 0
M  V30 4694 C 459.488 1.22586 1.52421 0
M  V30 4695 C 459.868 -0.182726 2.10308 0
M  V30 4696 O 459.216 -1.18979 1.9508 0
M  V30 4697 C 459.426 2.31782 2.60918 0
M  V30 4698 C 460.774 2.69071 3.2846 0
M  V30 4699 O 461.798 2.3092 2.71209 0
M  V30 4700 O 460.657 3.3478 4.31954 0
M  V30 4701 H 457.751 0.478045 0.674835 0
M  V30 4702 H 460.297 1.48888 0.814275 0
M  V30 4703 H 459.069 3.26131 2.16227 0
M  V30 4704 H 458.692 2.06916 3.39517 0
M  V30 4705 N 459.689 -1.00246 1.21608 0
M  V30 4706 C 460.599 -2.12515 0.993709 0
M  V30 4707 C 461.615 -1.73913 -0.0549939 0
M  V30 4708 O 462.791 -2.00943 0.135619 0
M  V30 4709 C 459.856 -3.42083 0.563953 0
M  V30 4710 C 458.917 -3.94843 1.68516 0
M  V30 4711 C 458.15 -5.18226 1.27582 0
M  V30 4712 O 458.373 -5.70201 0.150506 0
M  V30 4713 O 457.307 -5.64497 2.0887 0
M  V30 4714 H 461.133 -2.34152 1.93407 0
M  V30 4715 H 458.718 -1.10891 1.00118 0
M  V30 4716 H 460.6 -4.20073 0.334194 0
M  V30 4717 H 459.275 -3.21828 -0.347665 0
M  V30 4718 H 458.182 -3.18068 1.96935 0
M  V30 4719 H 459.515 -4.19512 2.5743 0
M  V30 4720 N 461.167 -1.02423 -1.1978 0
M  V30 4721 C 462.1 -0.545641 -2.21581 0
M  V30 4722 C 463.078 0.411024 -1.57319 0
M  V30 4723 O 464.262 0.329223 -1.85603 0
M  V30 4724 C 461.389 0.204973 -3.38079 0
M  V30 4725 C 460.435 -0.70241 -4.20676 0
M  V30 4726 S 461.268 -2.17595 -4.89298 0
M  V30 4727 C 462.424 -1.43572 -6.09211 0
M  V30 4728 H 462.657 -1.4082 -2.61834 0
M  V30 4729 H 460.19 -0.833771 -1.29952 0
M  V30 4730 H 462.148 0.631924 -4.05607 0
M  V30 4731 H 460.809 1.0432 -2.9627 0
M  V30 4732 H 460.002 -0.123193 -5.03849 0
M  V30 4733 H 459.604 -1.06747 -3.58442 0
M  V30 4734 H 461.896 -0.719806 -6.73665 0
M  V30 4735 H 462.839 -2.24388 -6.71607 0
M  V30 4736 H 463.247 -0.935252 -5.56699 0
M  V30 4737 N 462.645 1.35699 -0.801477 0
M  V30 4738 C 463.592 2.29876 -0.206294 0
M  V30 4739 C 464.562 1.52565 0.656752 0
M  V30 4740 O 465.747 1.81024 0.602906 0
M  V30 4741 C 462.887 3.39052 0.643272 0
M  V30 4742 C 462 4.31335 -0.239644 0
M  V30 4743 C 461.135 5.27599 0.61744 0
M  V30 4744 C 460.174 6.11521 -0.26619 0
M  V30 4745 N 459.311 6.99938 0.550571 0
M  V30 4746 H 464.151 2.80187 -1.01484 0
M  V30 4747 H 461.688 1.37902 -0.511997 0
M  V30 4748 H 463.646 4.0101 1.15094 0
M  V30 4749 H 462.276 2.9003 1.41713 0
M  V30 4750 H 461.328 3.70426 -0.865381 0
M  V30 4751 H 462.64 4.90243 -0.919985 0
M  V30 4752 H 461.794 5.94906 1.19045 0
M  V30 4753 H 460.533 4.69176 1.33137 0
M  V30 4754 H 459.538 5.43166 -0.851507 0
M  V30 4755 H 460.763 6.72022 -0.9779 0
M  V30 4756 H 458.709 6.44008 1.24856 0
M  V30 4757 H 458.626 7.55966 -0.071832 0
M  V30 4758 H 459.894 7.71599 1.10702 0
M  V30 4759 N 464.123 0.554532 1.47522 0
M  V30 4760 C 465.055 -0.232106 2.28022 0
M  V30 4761 C 466.068 -0.881865 1.36847 0
M  V30 4762 O 467.257 -0.756168 1.61692 0
M  V30 4763 C 464.357 -1.34604 3.11022 0
M  V30 4764 C 463.53 -0.793582 4.30141 0
M  V30 4765 C 462.589 -1.79168 4.94758 0
M  V30 4766 O 461.615 -1.33886 5.5323 0
M  V30 4767 N 462.817 -3.12495 4.89211 0
M  V30 4768 H 465.582 0.458407 2.96173 0
M  V30 4769 H 463.143 0.390433 1.57122 0
M  V30 4770 H 465.135 -2.01243 3.51118 0
M  V30 4771 H 463.705 -1.93983 2.45131 0
M  V30 4772 H 462.925 0.0495025 3.94169 0
M  V30 4773 H 464.213 -0.403776 5.07195 0
M  V30 4774 H 463.611 -3.51931 4.42901 0
M  V30 4775 H 462.168 -3.74698 5.33333 0
M  V30 4776 N 465.601 -1.54893 0.290851 0
M  V30 4777 C 466.831 -2.04047 -0.323818 0
M  V30 4778 C 467.239 -1.16809 -1.48837 0
M  V30 4779 O 466.582 -0.184145 -1.82775 0
M  V30 4780 C 466.644 -3.49248 -0.852395 0
M  V30 4781 C 466.308 -4.56623 0.185557 0
M  V30 4782 C 467.305 -5.09985 1.01053 0
M  V30 4783 C 464.99 -5.01252 0.324332 0
M  V30 4784 C 466.984 -6.06507 1.96031 0
M  V30 4785 C 464.671 -5.97596 1.27757 0
M  V30 4786 C 465.669 -6.50107 2.09405 0
M  V30 4787 O 465.357 -7.44565 3.03114 0
M  V30 4788 H 465.089 -0.671735 -0.0758129 0
M  V30 4789 H 467.643 -2.00947 0.425393 0
M  V30 4790 H 465.873 -3.49639 -1.65195 0
M  V30 4791 H 467.562 -3.81654 -1.38185 0
M  V30 4792 H 468.328 -4.76307 0.914129 0
M  V30 4793 H 464.207 -4.60015 -0.301213 0
M  V30 4794 H 467.751 -6.47418 2.598 0
M  V30 4795 H 463.648 -6.30691 1.37473 0
M  V30 4796 H 464.416 -7.62334 2.97976 0
M  V30 4797 N 467.08 -0.0183926 -1.57589 0
M  V30 4798 C 468.308 0.673046 -1.95647 0
M  V30 4799 C 468.723 1.66275 -0.894312 0
M  V30 4800 O 468.08 1.82072 0.124975 0
M  V30 4801 C 468.131 1.38884 -3.33756 0
M  V30 4802 O 467.852 0.438806 -4.35897 0
M  V30 4803 C 469.353 2.1731 -3.86383 0
M  V30 4804 H 466.573 0.186292 -0.644621 0
M  V30 4805 H 469.117 -0.0749748 -2.04363 0
M  V30 4806 H 467.272 2.08835 -3.26293 0
M  V30 4807 H 467.686 0.945869 -5.15901 0
M  V30 4808 H 469.16 2.62863 -4.85394 0
M  V30 4809 H 469.637 3.00764 -3.20059 0
M  V30 4810 H 470.243 1.52339 -3.97081 0
M  V30 4811 N 468.558 1.5553 0.254621 0
M  V30 4812 C 469.804 1.77262 0.985193 0
M  V30 4813 C 470.137 0.582286 1.85265 0
M  V30 4814 O 469.412 -0.419666 1.89919 0
M  V30 4815 C 469.695 3.0881 1.85225 0
M  V30 4816 C 469.548 4.38233 1.0135 0
M  V30 4817 C 470.867 3.3653 2.83612 0
M  V30 4818 H 467.986 0.644906 0.356742 0
M  V30 4819 H 470.628 1.88264 0.256236 0
M  V30 4820 H 468.778 2.99562 2.47376 0
M  V30 4821 H 470.45 4.59463 0.411269 0
M  V30 4822 H 468.693 4.32636 0.317574 0
M  V30 4823 H 469.364 5.26644 1.65379 0
M  V30 4824 H 471.84 3.45691 2.31596 0
M  V30 4825 H 470.716 4.29805 3.41407 0
M  V30 4826 H 470.977 2.57064 3.59681 0
M  V30 4827 N 470.036 -0.519951 1.48776 0
M  V30 4828 C 470.968 -1.63973 1.60142 0
M  V30 4829 C 471.981 -1.55404 0.485117 0
M  V30 4830 O 473.17 -1.61682 0.756391 0
M  V30 4831 C 470.27 -3.02676 1.52449 0
M  V30 4832 C 469.443 -3.36624 2.79291 0
M  V30 4833 C 468.502 -4.54652 2.64912 0
M  V30 4834 O 467.528 -4.57374 3.38818 0
M  V30 4835 N 468.73 -5.53432 1.75195 0
M  V30 4836 H 471.495 -1.54656 2.56713 0
M  V30 4837 H 469.056 -0.707439 1.45626 0
M  V30 4838 H 471.048 -3.79525 1.4051 0
M  V30 4839 H 469.618 -3.06018 0.638125 0
M  V30 4840 H 468.838 -2.48855 3.0572 0
M  V30 4841 H 470.126 -3.56094 3.6342 0
M  V30 4842 H 469.524 -5.54018 1.14371 0
M  V30 4843 H 468.081 -6.29459 1.69189 0
M  V30 4844 N 471.514 -1.37532 -0.769588 0
M  V30 4845 C 472.76 -1.34063 -1.52966 0
M  V30 4846 C 473.115 0.0737942 -1.92258 0
M  V30 4847 O 472.408 1.03291 -1.61374 0
M  V30 4848 C 472.602 -2.21558 -2.8044 0
M  V30 4849 C 472.431 -3.71367 -2.53608 0
M  V30 4850 C 471.201 -4.40464 -2.47628 0
M  V30 4851 C 473.399 -4.64177 -2.21459 0
M  V30 4852 N 471.381 -5.758 -2.12902 0
M  V30 4853 C 472.752 -5.87907 -1.9689 0
M  V30 4854 C 474.807 -4.52541 -2.07633 0
M  V30 4855 C 473.51 -7.01304 -1.59892 0
M  V30 4856 C 475.536 -5.65825 -1.72034 0
M  V30 4857 C 474.898 -6.88606 -1.48327 0
M  V30 4858 H 470.997 -0.545856 -0.559969 0
M  V30 4859 H 473.581 -1.72773 -0.897634 0
M  V30 4860 H 471.752 -1.85061 -3.41478 0
M  V30 4861 H 473.484 -2.09332 -3.46356 0
M  V30 4862 H 470.239 -3.93491 -2.63556 0
M  V30 4863 H 470.663 -6.47328 -1.9823 0
M  V30 4864 H 475.305 -3.58183 -2.24643 0
M  V30 4865 H 473.023 -7.95594 -1.4162 0
M  V30 4866 H 476.609 -5.58793 -1.61991 0
M  V30 4867 H 475.489 -7.74779 -1.21189 0
M  V30 4868 N 472.992 0.995999 -1.22138 0
M  V30 4869 C 473.955 2.06711 -0.990109 0
M  V30 4870 C 474.955 1.60744 0.0422978 0
M  V30 4871 O 476.145 1.73095 -0.195895 0
M  V30 4872 C 473.277 3.37288 -0.49491 0
M  V30 4873 H 474.47 2.28661 -1.94047 0
M  V30 4874 H 472.023 1.16711 -1.03963 0
M  V30 4875 H 472.758 3.21022 0.459948 0
M  V30 4876 H 472.543 3.71986 -1.23971 0
M  V30 4877 H 474.033 4.16103 -0.353253 0
M  V30 4878 N 474.47 1.03057 1.19235 0
M  V30 4879 C 475.418 0.606391 2.24557 0
M  V30 4880 C 476.412 -0.361826 1.65491 0
M  V30 4881 O 477.618 -0.23022 1.78522 0
M  V30 4882 H 473.993 0.177838 0.730669 0
M  V30 4883 H 475.964 1.50529 2.5765 0
M  V30 4884 C 474.713 -0.0252127 3.47691 0
M  V30 4885 H 474.036 0.710838 3.9343 0
M  V30 4886 H 475.476 -0.284931 4.23042 0
M  V30 4887 C 473.935 -1.27229 3.11953 0
M  V30 4888 O 474.465 -2.36416 3.24762 0
M  V30 4889 N 472.671 -1.16169 2.6637 0
M  V30 4890 H 472.218 -0.273189 2.56147 0
M  V30 4891 H 472.176 -1.99703 2.42829 0
M  V30 4892 N 475.948 -1.35272 0.808662 0
M  V30 4893 C 476.896 -2.31663 0.208606 0
M  V30 4894 C 477.89 -1.56731 -0.642778 0
M  V30 4895 O 479.096 -1.71843 -0.53571 0
M  V30 4896 H 475.471 -0.750421 0.0486993 0
M  V30 4897 H 477.442 -2.79814 1.03666 0
M  V30 4898 C 476.191 -3.42008 -0.626573 0
M  V30 4899 H 475.514 -3.99795 0.0192103 0
M  V30 4900 H 476.954 -4.11727 -1.01278 0
M  V30 4901 C 475.413 -2.85226 -1.79298 0
M  V30 4902 O 475.943 -2.78945 -2.89055 0
M  V30 4903 N 474.149 -2.42245 -1.60516 0
M  V30 4904 H 473.696 -2.47554 -0.712375 0
M  V30 4905 H 473.654 -2.04603 -2.38715 0
M  V30 4906 N 477.426 -0.562348 -1.47226 0
M  V30 4907 C 478.672 -0.0402761 -2.0276 0
M  V30 4908 C 479.005 1.30823 -1.43523 0
M  V30 4909 O 478.28 1.85249 -0.592705 0
M  V30 4910 C 478.563 0.047311 -3.60069 0
M  V30 4911 C 478.416 -1.32865 -4.29729 0
M  V30 4912 C 479.735 0.758182 -4.3352 0
M  V30 4913 H 476.854 -0.0161105 -0.736824 0
M  V30 4914 H 479.496 -0.725628 -1.75598 0
M  V30 4915 H 477.646 0.630986 -3.83342 0
M  V30 4916 H 479.318 -1.95593 -4.17781 0
M  V30 4917 H 477.561 -1.90195 -3.89882 0
M  V30 4918 H 478.232 -1.22004 -5.38349 0
M  V30 4919 H 480.708 0.262546 -4.15271 0
M  V30 4920 H 479.584 0.78844 -5.43208 0
M  V30 4921 H 479.845 1.81537 -4.03109 0
M  V30 4922 N 478.904 1.54736 -0.299062 0
M  V30 4923 C 480.153 1.99279 0.311549 0
M  V30 4924 C 480.466 1.19107 1.55154 0
M  V30 4925 O 481.672 1.53908 2.23662 0
M  V30 4926 C 480.128 3.54768 0.605632 0
M  V30 4927 C 479.736 4.43746 -0.615914 0
M  V30 4928 C 481.48 4.07841 1.17754 0
M  V30 4929 C 479.387 5.90663 -0.29509 0
M  V30 4930 H 478.317 0.744359 0.120187 0
M  V30 4931 H 480.968 1.78919 -0.407464 0
M  V30 4932 H 479.35 3.71021 1.38419 0
M  V30 4933 H 480.524 4.39267 -1.39218 0
M  V30 4934 H 478.839 4.01434 -1.10633 0
M  V30 4935 H 481.436 5.15174 1.43179 0
M  V30 4936 H 481.779 3.58324 2.11918 0
M  V30 4937 H 482.312 3.95123 0.460739 0
M  V30 4938 H 479.051 6.44325 -1.20524 0
M  V30 4939 H 478.571 5.98155 0.44394 0
M  V30 4940 H 480.25 6.46916 0.104048 0
M  V30 4941 N 480.382 0.0267497 1.57577 0
M  V30 4942 C 481.628 -0.653371 1.91987 0
M  V30 4943 C 481.961 -1.71915 0.903263 0
M  V30 4944 O 481.236 -1.94358 -0.0743387 0
M  V30 4945 C 481.519 -1.272 3.36886 0
M  V30 4946 C 481.372 -0.215938 4.49281 0
M  V30 4947 C 482.691 -2.19069 3.81703 0
M  V30 4948 H 479.81 -0.236047 0.698177 0
M  V30 4949 H 482.452 0.0835236 1.89816 0
M  V30 4950 H 480.602 -1.90005 3.38866 0
M  V30 4951 H 482.274 0.41449 4.59434 0
M  V30 4952 H 480.517 0.458855 4.31366 0
M  V30 4953 H 481.188 -0.688347 5.47691 0
M  V30 4954 H 483.664 -1.66253 3.81444 0
M  V30 4955 H 482.54 -2.59307 4.83788 0
M  V30 4956 H 482.801 -3.08087 3.17072 0
M  V30 4957 N 481.861 -1.55662 -0.24637 0
M  V30 4958 C 483.109 -1.77168 -0.972411 0
M  V30 4959 C 483.43 -0.590827 -1.85834 0
M  V30 4960 O 482.7 0.393365 -1.9191 0
M  V30 4961 H 481.28 -0.653405 -0.362038 0
M  V30 4962 H 483.942 -1.93101 -0.264189 0
M  V30 4963 H 483.038 -2.68335 -1.59382 0
M  V30 4964 N 483.339 0.512053 -1.4905 0
M  V30 4965 C 484.289 1.61142 -1.61298 0
M  V30 4966 C 485.273 1.53908 -0.46916 0
M  V30 4967 O 486.465 1.61625 -0.721547 0
M  V30 4968 C 483.594 2.998 -1.67256 0
M  V30 4969 C 482.68 3.12072 -2.87179 0
M  V30 4970 N 483.071 2.94263 -4.11391 0
M  V30 4971 C 481.369 3.43156 -2.84886 0
M  V30 4972 C 482.07 3.10426 -4.91946 0
M  V30 4973 N 481.046 3.38808 -4.251 0
M  V30 4974 H 484.848 1.46011 -2.55065 0
M  V30 4975 H 482.362 0.717934 -1.45669 0
M  V30 4976 H 484.359 3.78794 -1.74128 0
M  V30 4977 H 483.019 3.1601 -0.746195 0
M  V30 4978 H 484.03 2.70661 -4.41546 0
M  V30 4979 H 480.707 3.65611 -2.01581 0
M  V30 4980 H 482.097 3.01243 -6.00585 0
M  V30 4981 N 484.817 1.37938 0.762283 0
M  V30 4982 C 486.065 1.33404 1.51815 0
M  V30 4983 C 486.386 -0.0780975 1.94844 0
M  V30 4984 O 485.656 -1.02405 1.67003 0
M  V30 4985 H 484.236 0.490839 0.563104 0
M  V30 4986 H 486.898 1.72527 0.906669 0
M  V30 4987 H 485.994 1.97926 2.41313 0
M  V30 4988 N 486.295 -0.989507 1.22664 0
M  V30 4989 C 487.52 -1.77031 1.08051 0
M  V30 4990 C 487.945 -1.84535 -0.364483 0
M  V30 4991 O 487.303 -1.3003 -1.2634 0
M  V30 4992 C 487.351 -3.18 1.70024 0
M  V30 4993 O 486.455 -4.01161 0.956216 0
M  V30 4994 H 485.796 -0.545008 0.379292 0
M  V30 4995 H 488.326 -1.24277 1.62531 0
M  V30 4996 H 488.336 -3.68616 1.74888 0
M  V30 4997 H 487.011 -3.11853 2.75174 0
M  V30 4998 H 485.588 -3.59687 0.98384 0
M  V30 4999 N 487.773 -1.03688 -1.18687 0
M  V30 5000 C 489.022 -0.733235 -1.879 0
M  V30 5001 C 489.335 0.741745 -1.8099 0
M  V30 5002 O 490.541 1.15875 -2.4553 0
M  V30 5003 C 488.997 -1.26127 -3.37076 0
M  V30 5004 C 488.605 -2.76461 -3.52524 0
M  V30 5005 C 490.349 -1.03398 -4.11715 0
M  V30 5006 C 488.256 -3.22642 -4.95637 0
M  V30 5007 H 487.186 -0.270584 -0.703776 0
M  V30 5008 H 489.837 -1.25222 -1.34133 0
M  V30 5009 H 488.219 -0.670165 -3.90288 0
M  V30 5010 H 489.393 -3.41296 -3.09602 0
M  V30 5011 H 487.708 -2.97559 -2.91286 0
M  V30 5012 H 490.305 -1.3542 -5.17267 0
M  V30 5013 H 490.648 0.0289246 -4.1629 0
M  V30 5014 H 491.181 -1.5895 -3.64664 0
M  V30 5015 H 487.92 -4.28296 -4.96228 0
M  V30 5016 H 487.44 -2.62539 -5.39289 0
M  V30 5017 H 489.119 -3.16444 -5.64333 0
M  V30 5018 N 489.251 1.34841 -0.815825 0
M  V30 5019 C 490.499 1.98107 -0.399744 0
M  V30 5020 C 490.82 1.65019 1.03894 0
M  V30 5021 O 490.09 0.937311 1.72021 0
M  V30 5022 H 488.67 0.732827 -0.144823 0
M  V30 5023 H 491.332 1.64599 -1.0437 0
M  V30 5024 H 490.428 3.07856 -0.512965 0
M  V30 5025 N 490.729 0.570148 1.46925 0
M  V30 5026 C 491.692 -0.159933 2.28641 0
M  V30 5027 C 492.692 -0.830638 1.37685 0
M  V30 5028 O 493.882 -0.684516 1.60187 0
M  V30 5029 C 491.014 -1.2354 3.17727 0
M  V30 5030 H 492.207 0.558035 2.94662 0
M  V30 5031 H 489.76 0.327603 1.52828 0
M  V30 5032 H 490.495 -1.98535 2.56426 0
M  V30 5033 H 490.28 -0.759125 3.84681 0
M  V30 5034 H 491.77 -1.74782 3.79264 0
M  V30 5035 N 492.207 -1.54576 0.307264 0
M  V30 5036 C 493.455 -1.99867 -0.299574 0
M  V30 5037 C 493.776 -1.19714 -1.53927 0
M  V30 5038 O 493.046 -0.29472 -1.9367 0
M  V30 5039 H 491.626 -0.738299 -0.113683 0
M  V30 5040 H 494.288 -1.9032 0.420042 0
M  V30 5041 H 493.384 -3.06901 -0.567283 0
M  V30 5042 N 493.685 -0.035106 -1.57561 0
M  V30 5043 C 494.931 0.64318 -1.92331 0
M  V30 5044 C 495.264 1.71434 -0.912368 0
M  V30 5045 O 494.539 1.94395 0.0640303 0
M  V30 5046 C 494.822 1.25411 -3.37556 0
M  V30 5047 C 494.675 0.192109 -4.4939 0
M  V30 5048 C 495.994 2.17041 -3.82859 0
M  V30 5049 H 493.113 0.232341 -0.699419 0
M  V30 5050 H 495.755 -0.0935889 -1.89769 0
M  V30 5051 H 493.905 1.88205 -3.39869 0
M  V30 5052 H 495.577 -0.438849 -4.59208 0
M  V30 5053 H 493.82 -0.481725 -4.31117 0
M  V30 5054 H 494.491 0.659292 -5.48049 0
M  V30 5055 H 496.967 1.64228 -3.8232 0
M  V30 5056 H 495.843 2.56738 -4.85157 0
M  V30 5057 H 496.104 3.06401 -3.18702 0
M  V30 5058 N 495.163 1.55791 0.238111 0
M  V30 5059 C 496.44 1.68798 0.98826 0
M  V30 5060 C 496.82 0.577562 2.03045 0
M  V30 5061 O 496.168 -0.41778 2.24648 0
M  V30 5062 C 496.378 3.09454 1.61367 0
M  V30 5063 C 497.726 3.68335 2.11221 0
M  V30 5064 O 498.75 3.1231 1.71292 0
M  V30 5065 O 497.609 4.6657 2.84561 0
M  V30 5066 H 494.703 0.686881 0.460568 0
M  V30 5067 H 497.249 1.68118 0.231202 0
M  V30 5068 H 496.021 3.81726 0.860295 0
M  V30 5069 H 495.644 3.14182 2.4367 0
M  V30 5070 N 496.642 -0.504142 1.49319 0
M  V30 5071 C 497.888 -1.25767 1.59857 0
M  V30 5072 C 498.243 -1.90348 0.280262 0
M  V30 5073 O 497.536 -1.77588 -0.719241 0
M  V30 5074 C 497.73 -2.35021 2.69258 0
M  V30 5075 C 497.559 -1.81154 4.11598 0
M  V30 5076 C 496.329 -1.62596 4.78425 0
M  V30 5077 C 498.527 -1.3252 4.96934 0
M  V30 5078 N 496.509 -1.03625 6.05091 0
M  V30 5079 C 497.88 -0.856633 6.14054 0
M  V30 5080 C 499.935 -1.21063 4.82958 0
M  V30 5081 C 498.638 -0.284841 7.18736 0
M  V30 5082 C 500.664 -0.652815 5.87786 0
M  V30 5083 C 500.026 -0.194461 7.04132 0
M  V30 5084 H 496.125 -0.450293 0.639343 0
M  V30 5085 H 498.709 -0.565344 1.86311 0
M  V30 5086 H 496.88 -3.01719 2.44581 0
M  V30 5087 H 498.612 -3.02061 2.69335 0
M  V30 5088 H 495.367 -1.86873 4.35173 0
M  V30 5089 H 495.791 -0.76076 6.72712 0
M  V30 5090 H 500.433 -1.551 3.93324 0
M  V30 5091 H 498.151 0.0677979 8.08072 0
M  V30 5092 H 501.737 -0.566994 5.79031 0
M  V30 5093 H 500.617 0.230442 7.83861 0
M  V30 5094 N 498.12 -1.38341 -0.754957 0
M  V30 5095 C 499.052 -1.31347 -1.87831 0
M  V30 5096 C 500.065 -0.225955 -1.61224 0
M  V30 5097 O 501.254 -0.48341 -1.7183 0
M  V30 5098 C 498.354 -1.01201 -3.23437 0
M  V30 5099 C 497.527 -2.20834 -3.77559 0
M  V30 5100 C 496.586 -1.87454 -4.91678 0
M  V30 5101 O 495.612 -2.59934 -5.06382 0
M  V30 5102 N 496.814 -0.828682 -5.74555 0
M  V30 5103 H 499.579 -2.28147 -1.94342 0
M  V30 5104 H 497.14 -1.32184 -0.934828 0
M  V30 5105 H 499.132 -0.769249 -3.97322 0
M  V30 5106 H 497.702 -0.132011 -3.12321 0
M  V30 5107 H 496.922 -2.61184 -2.95256 0
M  V30 5108 H 498.21 -3.00678 -4.10451 0
M  V30 5109 H 497.608 -0.227591 -5.65242 0
M  V30 5110 H 496.165 -0.645802 -6.48593 0
M  V30 5111 N 499.598 0.982988 -1.23187 0
M  V30 5112 C 500.545 2.07491 -1.01075 0
M  V30 5113 C 501.515 1.65949 0.070905 0
M  V30 5114 O 502.7 1.90629 -0.0806822 0
M  V30 5115 C 499.84 3.39751 -0.605261 0
M  V30 5116 C 498.953 3.94578 -1.75876 0
M  V30 5117 C 498.088 5.15039 -1.3003 0
M  V30 5118 C 497.127 5.62027 -2.42472 0
M  V30 5119 N 496.264 6.73719 -1.97602 0
M  V30 5120 H 501.104 2.25739 -1.9454 0
M  V30 5121 H 498.641 1.10659 -0.969179 0
M  V30 5122 H 500.599 4.15719 -0.351279 0
M  V30 5123 H 499.229 3.21473 0.292382 0
M  V30 5124 H 498.281 3.1539 -2.12681 0
M  V30 5125 H 499.593 4.25422 -2.60418 0
M  V30 5126 H 498.747 5.9833 -1.00429 0
M  V30 5127 H 497.486 4.85843 -0.425216 0
M  V30 5128 H 496.491 4.77318 -2.7285 0
M  V30 5129 H 497.716 5.93244 -3.30512 0
M  V30 5130 H 495.662 6.46287 -1.1247 0
M  V30 5131 H 495.579 7.03934 -2.75705 0
M  V30 5132 H 496.847 7.6049 -1.71098 0
M  V30 5133 N 501.076 1.04316 1.18135 0
M  V30 5134 C 502.008 0.594444 2.21357 0
M  V30 5135 C 503.021 -0.337215 1.59269 0
M  V30 5136 O 504.21 -0.131337 1.78016 0
M  V30 5137 C 501.31 -0.151251 3.38562 0
M  V30 5138 C 500.483 0.788907 4.30227 0
M  V30 5139 C 499.542 0.0860572 5.2613 0
M  V30 5140 O 498.568 0.717302 5.64662 0
M  V30 5141 N 499.77 -1.17969 5.68387 0
M  V30 5142 H 502.535 1.48227 2.60478 0
M  V30 5143 H 500.096 0.92396 1.32946 0
M  V30 5144 H 502.088 -0.631352 3.99745 0
M  V30 5145 H 500.658 -0.940639 2.98112 0
M  V30 5146 H 499.878 1.44882 3.6661 0
M  V30 5147 H 501.166 1.42738 4.88368 0
M  V30 5148 H 500.564 -1.71302 5.3914 0
M  V30 5149 H 499.121 -1.60402 6.31755 0
M  V30 5150 N 502.554 -1.34406 0.822964 0
M  V30 5151 C 503.782 -2.02508 0.424039 0
M  V30 5152 C 504.197 -1.61975 -0.970022 0
M  V30 5153 O 503.554 -0.825228 -1.62777 0
M  V30 5154 C 503.605 -3.57789 0.516657 0
M  V30 5155 O 503.326 -3.96853 1.85577 0
M  V30 5156 C 504.827 -4.43157 0.112637 0
M  V30 5157 H 502.047 -0.649063 0.170173 0
M  V30 5158 H 504.591 -1.7168 1.11113 0
M  V30 5159 H 502.746 -3.87207 -0.122353 0
M  V30 5160 H 503.16 -4.91538 1.83005 0
M  V30 5161 H 504.634 -5.51527 0.228526 0
M  V30 5162 H 505.111 -4.28939 -0.943837 0
M  V30 5163 H 505.717 -4.19067 0.725449 0
M  V30 5164 N 504.032 -0.577932 -1.46621 0
M  V30 5165 C 505.26 -0.0671642 -2.06791 0
M  V30 5166 C 505.675 1.23571 -1.42743 0
M  V30 5167 O 505.032 1.74602 -0.531062 0
M  V30 5168 C 505.083 0.110357 -3.61332 0
M  V30 5169 O 504.804 -1.14095 -4.22982 0
M  V30 5170 C 506.305 0.656025 -4.38419 0
M  V30 5171 H 503.525 -0.0552732 -0.66872 0
M  V30 5172 H 506.069 -0.797242 -1.8832 0
M  V30 5173 H 504.224 0.790637 -3.79246 0
M  V30 5174 H 504.638 -0.951742 -5.15793 0
M  V30 5175 H 506.112 0.729438 -5.47159 0
M  V30 5176 H 506.589 1.67195 -4.06131 0
M  V30 5177 H 507.195 0.0107692 -4.25299 0
M  V30 5178 N 505.51 1.54411 -0.315457 0
M  V30 5179 C 506.738 2.04833 0.291738 0
M  V30 5180 C 507.153 1.19203 1.46411 0
M  V30 5181 O 506.51 0.220867 1.81159 0
M  V30 5182 C 506.561 3.53969 0.73404 0
M  V30 5183 O 506.282 4.36346 -0.391682 0
M  V30 5184 C 507.783 4.2045 1.40489 0
M  V30 5185 H 505.003 0.668195 0.0612947 0
M  V30 5186 H 507.547 1.99276 -0.45929 0
M  V30 5187 H 505.702 3.5984 1.43506 0
M  V30 5188 H 506.116 5.24481 -0.0447088 0
M  V30 5189 H 507.59 5.26278 1.66539 0
M  V30 5190 H 508.067 3.71067 2.3496 0
M  V30 5191 H 508.673 4.18694 0.746662 0
M  V30 5192 N 506.988 0.0434614 1.5754 0
M  V30 5193 C 508.399 -0.493343 1.80064 0
M  V30 5194 C 508.75 -1.71388 0.955023 0
M  V30 5195 O 507.875 -2.15736 0.169434 0
M  V30 5196 C 508.47 -0.90179 3.26578 0
M  V30 5197 C 507.029 -1.38362 3.50047 0
M  V30 5198 C 506.176 -0.355129 2.75017 0
M  V30 5199 H 509.127 0.2694 1.56397 0
M  V30 5200 H 509.148 -1.76523 3.37075 0
M  V30 5201 H 508.66 -0.013271 3.88098 0
M  V30 5202 H 506.761 -2.29159 2.93798 0
M  V30 5203 H 506.874 -1.3811 4.58762 0
M  V30 5204 H 505.238 -0.826348 2.40922 0
M  V30 5205 H 506.021 0.525172 3.39259 0
M  V30 5206 N 508.466 -1.55915 -0.229846 0
M  V30 5207 C 509.714 -1.7819 -0.953565 0
M  V30 5208 C 510.035 -0.610504 -1.85197 0
M  V30 5209 O 509.305 0.372988 -1.92316 0
M  V30 5210 H 507.885 -0.657208 -0.355087 0
M  V30 5211 H 510.547 -1.9337 -0.243693 0
M  V30 5212 H 509.643 -2.70011 -1.56527 0
M  V30 5213 N 509.944 0.496216 -1.49584 0
M  V30 5214 C 511.172 1.27394 -1.63029 0
M  V30 5215 C 511.587 1.86344 -0.303569 0
M  V30 5216 O 510.944 1.68057 0.711547 0
M  V30 5217 C 510.995 2.40077 -2.70269 0
M  V30 5218 O 510.716 1.83549 -3.97796 0
M  V30 5219 C 512.217 3.31372 -2.94462 0
M  V30 5220 H 509.437 0.386211 -0.54871 0
M  V30 5221 H 511.981 0.595163 -1.95648 0
M  V30 5222 H 510.136 3.03775 -2.40415 0
M  V30 5223 H 510.55 2.57561 -4.56905 0
M  V30 5224 H 512.024 4.06707 -3.73221 0
M  V30 5225 H 512.501 3.88654 -2.0456 0
M  V30 5226 H 513.107 2.73435 -3.25751 0
M  V30 5227 N 511.423 1.38739 0.74761 0
M  V30 5228 C 512.671 1.35007 1.50391 0
M  V30 5229 C 512.992 -0.0574274 1.94915 0
M  V30 5230 O 512.262 -1.00628 1.6808 0
M  V30 5231 H 510.842 0.496784 0.557866 0
M  V30 5232 H 513.504 1.73479 0.888319 0
M  V30 5233 H 512.6 2.00474 2.392 0
M  V30 5234 N 512.901 -0.976442 1.23707 0
M  V30 5235 C 514.131 -1.75087 1.09673 0
M  V30 5236 C 514.539 -1.85852 -0.354344 0
M  V30 5237 O 513.882 -1.33985 -1.25673 0
M  V30 5238 C 513.944 -3.19272 1.65245 0
M  V30 5239 C 513.608 -3.32004 3.14042 0
M  V30 5240 C 514.605 -3.18017 4.11292 0
M  V30 5241 C 512.29 -3.56525 3.53829 0
M  V30 5242 C 514.284 -3.28363 5.46312 0
M  V30 5243 C 511.971 -3.6651 4.88993 0
M  V30 5244 C 512.969 -3.52439 5.85043 0
M  V30 5245 O 512.657 -3.62063 7.1775 0
M  V30 5246 H 512.389 -0.556164 0.384262 0
M  V30 5247 H 514.943 -1.23518 1.64111 0
M  V30 5248 H 513.173 -3.72107 1.05231 0
M  V30 5249 H 514.862 -3.7849 1.46629 0
M  V30 5250 H 515.628 -2.98966 3.81896 0
M  V30 5251 H 511.507 -3.66547 2.79579 0
M  V30 5252 H 515.051 -3.17297 6.21263 0
M  V30 5253 H 510.948 -3.85072 5.18063 0
M  V30 5254 H 511.716 -3.78833 7.25553 0
M  V30 5255 N 514.379 -1.04941 -1.1758 0
M  V30 5256 C 515.625 -0.759112 -1.88057 0
M  V30 5257 C 515.958 0.711918 -1.8068 0
M  V30 5258 O 515.233 1.52035 -1.21308 0
M  V30 5259 C 515.516 -1.237 -3.38187 0
M  V30 5260 C 515.369 -2.77078 -3.54327 0
M  V30 5261 C 516.688 -0.834014 -4.32125 0
M  V30 5262 H 513.807 -0.277237 -0.682868 0
M  V30 5263 H 516.449 -1.30296 -1.38286 0
M  V30 5264 H 514.599 -0.774337 -3.80705 0
M  V30 5265 H 516.271 -3.31449 -3.20842 0
M  V30 5266 H 514.514 -3.16477 -2.96689 0
M  V30 5267 H 515.185 -3.05577 -4.59703 0
M  V30 5268 H 517.661 -1.23228 -3.97434 0
M  V30 5269 H 516.537 -1.19603 -5.35711 0
M  V30 5270 H 516.798 0.262195 -4.41322 0
M  V30 5271 N 515.857 1.33968 -0.830081 0
M  V30 5272 C 516.767 2.33164 -0.259207 0
M  V30 5273 C 517.783 1.62951 0.610164 0
M  V30 5274 O 518.959 1.94668 0.516369 0
M  V30 5275 C 516.024 3.42088 0.563598 0
M  V30 5276 C 515.085 4.28037 -0.329014 0
M  V30 5277 C 514.318 5.3176 0.454616 0
M  V30 5278 O 514.541 5.44876 1.6872 0
M  V30 5279 O 513.475 6.01669 -0.166794 0
M  V30 5280 H 517.301 2.83832 -1.08041 0
M  V30 5281 H 514.886 1.37154 -0.59239 0
M  V30 5282 H 516.768 4.08581 1.03147 0
M  V30 5283 H 515.443 2.93651 1.36201 0
M  V30 5284 H 514.35 3.64443 -0.844538 0
M  V30 5285 H 515.683 4.79934 -1.09196 0
M  V30 5286 N 517.335 0.585699 1.46312 0
M  V30 5287 C 518.612 0.00542031 1.95599 0
M  V30 5288 C 518.992 -1.45619 1.52834 0
M  V30 5289 O 518.34 -2.14759 0.780446 0
M  V30 5290 C 518.55 0.180601 3.48532 0
M  V30 5291 C 519.898 0.049979 4.24571 0
M  V30 5292 O 520.922 0.109589 3.56031 0
M  V30 5293 O 519.781 -0.0832226 5.46437 0
M  V30 5294 H 516.875 -0.0481281 0.825598 0
M  V30 5295 H 519.421 0.654227 1.56582 0
M  V30 5296 H 518.193 1.19657 3.72556 0
M  V30 5297 H 517.816 -0.504498 3.94386 0
M  V30 5298 N 518.813 -1.54241 0.323641 0
M  V30 5299 C 520.061 -2.00174 -0.278359 0
M  V30 5300 C 520.382 -1.2134 -1.52648 0
M  V30 5301 O 519.652 -0.315244 -1.93347 0
M  V30 5302 H 518.232 -0.739463 -0.105845 0
M  V30 5303 H 520.894 -1.89864 0.440204 0
M  V30 5304 H 519.99 -3.07486 -0.5347 0
M  V30 5305 N 520.291 -0.0518155 -1.57515 0
M  V30 5306 C 521.521 0.63048 -1.96745 0
M  V30 5307 C 521.929 1.64875 -0.928054 0
M  V30 5308 O 521.272 1.83449 0.0960678 0
M  V30 5309 C 521.334 1.37381 -3.32215 0
M  V30 5310 C 520.998 0.511298 -4.54131 0
M  V30 5311 C 521.995 -0.222884 -5.19422 0
M  V30 5312 C 519.68 0.442035 -5.00351 0
M  V30 5313 C 521.674 -1.01476 -6.2927 0
M  V30 5314 C 519.361 -0.35353 -6.10077 0
M  V30 5315 C 520.359 -1.08062 -6.74397 0
M  V30 5316 O 520.047 -1.8631 -7.82013 0
M  V30 5317 H 519.779 0.177126 -0.652382 0
M  V30 5318 H 522.333 -0.114726 -2.05079 0
M  V30 5319 H 520.563 2.16466 -3.20436 0
M  V30 5320 H 522.252 1.9464 -3.56188 0
M  V30 5321 H 523.018 -0.178846 -4.8467 0
M  V30 5322 H 518.897 0.997562 -4.50077 0
M  V30 5323 H 522.441 -1.58279 -6.79407 0
M  V30 5324 H 518.338 -0.399205 -6.44264 0
M  V30 5325 H 519.106 -1.78528 -7.98793 0
M  V30 5326 N 521.769 1.56035 0.221574 0
M  V30 5327 C 523.046 1.69837 0.970301 0
M  V30 5328 C 523.426 0.599065 2.02421 0
M  V30 5329 O 522.774 -0.393929 2.25079 0
M  V30 5330 C 522.984 3.11148 1.58076 0
M  V30 5331 C 524.332 3.70555 2.07302 0
M  V30 5332 O 525.356 3.14109 1.6797 0
M  V30 5333 O 524.215 4.69562 2.79596 0
M  V30 5334 H 521.309 0.691727 0.453257 0
M  V30 5335 H 523.855 1.68353 0.213358 0
M  V30 5336 H 522.627 3.82617 0.819759 0
M  V30 5337 H 522.25 3.16749 2.40324 0
M  V30 5338 N 523.247 -0.488276 1.49845 0
M  V30 5339 C 524.179 -1.60539 1.63584 0
M  V30 5340 C 525.192 -1.5434 0.517972 0
M  V30 5341 O 526.381 -1.60041 0.790516 0
M  V30 5342 C 523.481 -2.99374 1.58835 0
M  V30 5343 C 522.654 -3.30624 2.86368 0
M  V30 5344 C 521.713 -4.4893 2.74496 0
M  V30 5345 O 520.739 -4.50085 3.48443 0
M  V30 5346 N 521.941 -5.49591 1.86894 0
M  V30 5347 H 524.706 -1.49176 2.59936 0
M  V30 5348 H 522.267 -0.67639 1.47094 0
M  V30 5349 H 524.259 -3.76459 1.48529 0
M  V30 5350 H 522.829 -3.04595 0.702892 0
M  V30 5351 H 522.049 -2.42314 3.1093 0
M  V30 5352 H 523.337 -3.48305 3.70892 0
M  V30 5353 H 522.735 -5.51467 1.26097 0
M  V30 5354 H 521.292 -6.25728 1.82503 0
M  V30 5355 N 524.725 -1.39134 -0.740242 0
M  V30 5356 C 526.141 -1.20623 -1.0451 0
M  V30 5357 C 526.341 -0.0641651 -2.01398 0
M  V30 5358 O 525.397 0.585843 -2.4561 0
M  V30 5359 C 526.71 -2.53815 -1.6124 0
M  V30 5360 C 528.258 -2.60615 -1.73346 0
M  V30 5361 C 528.733 -3.94015 -2.33486 0
M  V30 5362 N 530.224 -3.95627 -2.40902 0
M  V30 5363 C 530.959 -4.95616 -2.88361 0
M  V30 5364 N 530.455 -6.06003 -3.35756 0
M  V30 5365 N 532.248 -4.82998 -2.87523 0
M  V30 5366 H 524.399 -2.12176 -0.0975576 0
M  V30 5367 H 526.662 -0.942066 -0.105904 0
M  V30 5368 H 526.368 -3.37911 -0.975144 0
M  V30 5369 H 526.242 -2.73162 -2.6012 0
M  V30 5370 H 528.629 -1.76906 -2.36195 0
M  V30 5371 H 528.71 -2.45123 -0.731336 0
M  V30 5372 H 528.354 -4.78153 -1.71267 0
M  V30 5373 H 528.284 -4.06825 -3.34366 0
M  V30 5374 H 530.775 -3.15903 -2.07398 0
M  V30 5375 H 531.088 -6.78215 -3.70464 0
M  V30 5376 H 529.433 -6.09604 -3.33778 0
M  V30 5377 H 532.624 -3.95866 -2.49816 0
M  V30 5378 H 532.797 -5.61072 -3.24196 0
M  V30 5379 N 526.204 0.969867 -1.24223 0
M  V30 5380 C 527.152 2.08535 -1.03034 0
M  V30 5381 C 528.146 1.69366 0.0340379 0
M  V30 5382 O 529.352 1.79597 -0.12034 0
M  V30 5383 H 525.727 0.682313 -0.316154 0
M  V30 5384 H 527.698 2.23569 -1.97635 0
M  V30 5385 C 526.447 3.4158 -0.649509 0
M  V30 5386 H 525.77 3.72177 -1.46028 0
M  V30 5387 H 527.21 4.20536 -0.540841 0
M  V30 5388 C 525.669 3.30703 0.643194 0
M  V30 5389 O 526.199 3.64443 1.68951 0
M  V30 5390 N 524.405 2.83841 0.623095 0
M  V30 5391 H 523.952 2.56583 -0.228719 0
M  V30 5392 H 523.91 2.76946 1.48823 0
M  V30 5393 N 527.682 1.05563 1.17022 0
M  V30 5394 C 528.91 0.78845 1.91288 0
M  V30 5395 C 529.325 -0.656318 1.77025 0
M  V30 5396 O 528.682 -1.44869 1.10992 0
M  V30 5397 C 528.733 1.16444 3.42232 0
M  V30 5398 O 528.454 2.5525 3.5606 0
M  V30 5399 C 529.955 0.923937 4.33565 0
M  V30 5400 H 527.175 0.286389 0.606813 0
M  V30 5401 H 529.719 1.4073 1.48375 0
M  V30 5402 H 527.874 0.590266 3.82877 0
M  V30 5403 H 528.288 2.70097 4.49609 0
M  V30 5404 H 529.762 1.23672 5.37968 0
M  V30 5405 H 530.239 -0.140688 4.38975 0
M  V30 5406 H 530.845 1.48214 3.98639 0
M  V30 5407 N 529.16 -1.33526 0.837174 0
M  V30 5408 C 530.408 -1.97446 0.431211 0
M  V30 5409 C 530.729 -1.6665 -1.01255 0
M  V30 5410 O 529.999 -0.964559 -1.70508 0
M  V30 5411 H 528.579 -0.73043 0.156463 0
M  V30 5412 H 531.241 -1.62918 1.06976 0
M  V30 5413 H 530.337 -3.07001 0.561877 0
M  V30 5414 N 530.638 -0.59345 -1.46 0
M  V30 5415 C 531.887 -0.0808084 -2.01538 0
M  V30 5416 C 532.2 1.29112 -1.46934 0
M  V30 5417 O 533.406 1.8957 -1.94359 0
M  V30 5418 C 531.862 -0.0938311 -3.59778 0
M  V30 5419 C 531.47 -1.46474 -4.23379 0
M  V30 5420 C 533.214 0.364306 -4.22934 0
M  V30 5421 C 531.121 -1.4349 -5.73729 0
M  V30 5422 H 530.051 -0.0264407 -0.753536 0
M  V30 5423 H 532.702 -0.746689 -1.67621 0
M  V30 5424 H 531.084 0.638427 -3.9082 0
M  V30 5425 H 532.258 -2.21758 -4.03931 0
M  V30 5426 H 530.573 -1.86379 -3.7236 0
M  V30 5427 H 533.17 0.405584 -5.3316 0
M  V30 5428 H 533.513 1.38409 -3.92618 0
M  V30 5429 H 534.046 -0.31423 -3.96557 0
M  V30 5430 H 530.785 -2.43184 -6.08722 0
M  V30 5431 H 530.305 -0.724431 -5.95409 0
M  V30 5432 H 531.984 -1.15243 -6.36654 0
M  V30 5433 N 532.116 1.54067 -0.331816 0
M  V30 5434 C 533.346 2.04833 0.269605 0
M  V30 5435 C 533.754 1.20714 1.45687 0
M  V30 5436 O 533.097 0.232539 1.82222 0
M  V30 5437 C 533.159 3.51386 0.759499 0
M  V30 5438 C 532.823 4.55971 -0.306557 0
M  V30 5439 C 533.82 5.07126 -1.14538 0
M  V30 5440 C 531.505 5.00216 -0.457116 0
M  V30 5441 C 533.499 6.01096 -2.12042 0
M  V30 5442 C 531.186 5.93999 -1.43556 0
M  V30 5443 C 532.184 6.44326 -2.26568 0
M  V30 5444 O 531.872 7.36267 -3.22749 0
M  V30 5445 H 531.604 0.673509 0.0579763 0
M  V30 5446 H 534.158 1.99748 -0.478521 0
M  V30 5447 H 532.388 3.53896 1.55867 0
M  V30 5448 H 534.077 3.85184 1.28017 0
M  V30 5449 H 534.843 4.73716 -1.04009 0
M  V30 5450 H 530.722 4.60652 0.179142 0
M  V30 5451 H 534.266 6.40302 -2.76873 0
M  V30 5452 H 530.163 6.26825 -1.54146 0
M  V30 5453 H 530.931 7.54165 -3.18083 0
M  V30 5454 N 533.594 0.0601682 1.57485 0
M  V30 5455 C 534.524 -0.90889 2.15085 0
M  V30 5456 C 535.505 -1.31838 1.07484 0
M  V30 5457 O 536.69 -1.3915 1.35466 0
M  V30 5458 C 533.82 -2.18059 2.7031 0
M  V30 5459 C 532.774 -1.91088 3.82974 0
M  V30 5460 C 532.1 -3.24789 4.24754 0
M  V30 5461 C 533.4 -1.22535 5.07723 0
M  V30 5462 H 535.094 -0.429093 2.96309 0
M  V30 5463 H 532.64 -0.204952 1.42534 0
M  V30 5464 H 534.593 -2.86258 3.09248 0
M  V30 5465 H 533.317 -2.6826 1.8629 0
M  V30 5466 H 531.976 -1.25297 3.44523 0
M  V30 5467 H 531.624 -3.72809 3.37672 0
M  V30 5468 H 531.324 -3.07538 5.00694 0
M  V30 5469 H 532.848 -3.94205 4.66299 0
M  V30 5470 H 534.262 -1.80783 5.4405 0
M  V30 5471 H 532.659 -1.1558 5.88864 0
M  V30 5472 H 533.729 -0.202692 4.84476 0
M  V30 5473 N 535.072 -1.5615 -0.213296 0
M  V30 5474 C 536.3 -1.83638 -0.953139 0
M  V30 5475 C 536.715 -0.640362 -1.77609 0
M  V30 5476 O 536.072 0.391071 -1.78261 0
M  V30 5477 C 536.123 -3.09735 -1.86405 0
M  V30 5478 O 535.844 -4.24723 -1.07435 0
M  V30 5479 C 537.345 -3.5027 -2.71709 0
M  V30 5480 H 534.565 -0.610263 -0.278962 0
M  V30 5481 H 537.109 -2.03247 -0.226035 0
M  V30 5482 H 535.264 -2.92077 -2.545 0
M  V30 5483 H 535.678 -4.9641 -1.69343 0
M  V30 5484 H 537.152 -4.41515 -3.31313 0
M  V30 5485 H 537.629 -2.72406 -3.44516 0
M  V30 5486 H 538.235 -3.70396 -2.09015 0
M  V30 5487 N 536.55 0.480323 -1.50102 0
M  V30 5488 C 537.798 1.23063 -1.60312 0
M  V30 5489 C 538.119 1.92659 -0.301226 0
M  V30 5490 O 537.389 1.83691 0.680753 0
M  V30 5491 H 535.969 0.457231 -0.590719 0
M  V30 5492 H 538.631 0.554893 -1.86834 0
M  V30 5493 H 537.727 1.9835 -2.40964 0
M  V30 5494 N 538.028 1.39524 0.732853 0
M  V30 5495 C 538.958 1.41153 1.86005 0
M  V30 5496 C 539.939 0.274614 1.67869 0
M  V30 5497 O 541.124 0.480745 1.88155 0
M  V30 5498 C 538.254 1.25638 3.23778 0
M  V30 5499 C 537.208 2.36752 3.56556 0
M  V30 5500 C 536.534 2.06326 4.93289 0
M  V30 5501 C 537.834 3.79069 3.5931 0
M  V30 5502 H 539.528 2.35484 1.84899 0
M  V30 5503 H 537.074 1.13348 0.888162 0
M  V30 5504 H 539.027 1.25398 4.0231 0
M  V30 5505 H 537.751 0.277772 3.25417 0
M  V30 5506 H 536.41 2.36213 2.80355 0
M  V30 5507 H 536.058 1.06897 4.9151 0
M  V30 5508 H 535.758 2.80757 5.16187 0
M  V30 5509 H 537.282 2.07739 5.74175 0
M  V30 5510 H 538.696 3.81526 4.27914 0
M  V30 5511 H 537.093 4.52878 3.93728 0
M  V30 5512 H 538.163 4.09893 2.59068 0
M  V30 5513 N 539.506 -0.963266 1.24736 0
M  V30 5514 C 540.438 -2.06162 1.0015 0
M  V30 5515 C 541.451 -1.62771 -0.0305905 0
M  V30 5516 O 542.64 -1.77296 0.206966 0
M  V30 5517 C 539.74 -3.35333 0.490385 0
M  V30 5518 C 538.913 -4.07609 1.58663 0
M  V30 5519 C 537.972 -5.15052 1.0774 0
M  V30 5520 O 536.998 -5.4098 1.77002 0
M  V30 5521 N 538.2 -5.80436 -0.0858605 0
M  V30 5522 H 540.965 -2.27825 1.94719 0
M  V30 5523 H 538.526 -1.13121 1.15825 0
M  V30 5524 H 540.518 -4.04477 0.134371 0
M  V30 5525 H 539.088 -3.10507 -0.361155 0
M  V30 5526 H 538.308 -3.32681 2.11463 0
M  V30 5527 H 539.596 -4.52656 2.32336 0
M  V30 5528 H 538.994 -5.6178 -0.664806 0
M  V30 5529 H 537.551 -6.50674 -0.382981 0
M  V30 5530 N 540.985 -1.06182 -1.16461 0
M  V30 5531 C 541.917 -0.629584 -2.20383 0
M  V30 5532 C 542.93 0.311834 -1.59786 0
M  V30 5533 O 544.119 0.103 -1.78203 0
M  V30 5534 C 541.219 0.0973695 -3.3876 0
M  V30 5535 C 540.392 -0.857252 -4.28917 0
M  V30 5536 C 539.451 -0.169749 -5.25926 0
M  V30 5537 O 538.477 -0.807044 -5.6345 0
M  V30 5538 N 539.679 1.08911 -5.70192 0
M  V30 5539 H 542.444 -1.52352 -2.58087 0
M  V30 5540 H 540.005 -0.944993 -1.31459 0
M  V30 5541 H 541.997 0.567676 -4.00699 0
M  V30 5542 H 540.567 0.893093 -2.99571 0
M  V30 5543 H 539.787 -1.50696 -3.64259 0
M  V30 5544 H 541.075 -1.50489 -4.86035 0
M  V30 5545 H 540.473 1.62703 -5.41797 0
M  V30 5546 H 539.03 1.50331 -6.34227 0
M  V30 5547 N 542.463 1.3308 -0.844243 0
M  V30 5548 C 543.709 1.97898 -0.443206 0
M  V30 5549 C 544.042 1.66699 0.99625 0
M  V30 5550 O 543.317 0.949704 1.69738 0
M  V30 5551 C 543.6 3.53801 -0.670606 0
M  V30 5552 C 543.453 3.94667 -2.15772 0
M  V30 5553 C 544.772 4.39936 -0.120226 0
M  V30 5554 H 541.891 0.718861 -0.162504 0
M  V30 5555 H 544.533 1.57633 -1.06075 0
M  V30 5556 H 542.683 3.88229 -0.14496 0
M  V30 5557 H 544.355 3.70469 -2.74865 0
M  V30 5558 H 542.598 3.44203 -2.6402 0
M  V30 5559 H 543.269 5.03275 -2.26757 0
M  V30 5560 H 545.745 4.12183 -0.5696 0
M  V30 5561 H 544.621 5.4803 -0.308984 0
M  V30 5562 H 544.882 4.31184 0.976347 0
M  V30 5563 N 543.941 0.601185 1.45683 0
M  V30 5564 C 545.189 0.0936957 2.01883 0
M  V30 5565 C 545.51 -1.2779 1.47291 0
M  V30 5566 O 544.78 -1.84279 0.664691 0
M  V30 5567 H 543.36 0.0316466 0.746329 0
M  V30 5568 H 546.022 0.781137 1.78562 0
M  V30 5569 H 545.118 0.0386297 3.12076 0
M  V30 5570 N 545.419 -1.53889 0.339982 0
M  V30 5571 C 546.696 -1.93084 -0.312719 0
M  V30 5572 C 547.076 -1.2712 -1.68534 0
M  V30 5573 O 546.424 -0.420835 -2.24591 0
M  V30 5574 C 546.634 -3.4683 -0.388558 0
M  V30 5575 C 547.982 -4.19732 -0.641088 0
M  V30 5576 O 549.006 -3.53075 -0.470818 0
M  V30 5577 O 547.865 -5.3781 -0.970685 0
M  V30 5578 H 544.959 -0.806784 -0.18174 0
M  V30 5579 H 547.505 -1.65137 0.390898 0
M  V30 5580 H 546.277 -3.87055 0.574821 0
M  V30 5581 H 545.9 -3.80933 -1.1391 0
M  V30 5582 N 546.897 -0.0685191 -1.57451 0
M  V30 5583 C 548.144 0.601348 -1.93365 0
M  V30 5584 C 548.472 1.69816 -0.948294 0
M  V30 5585 O 547.727 1.95666 0.0366199 0
M  V30 5586 C 548.026 1.22051 -3.35914 0
M  V30 5587 C 547.692 0.250165 -4.50205 0
M  V30 5588 C 546.354 -0.0167954 -4.81197 0
M  V30 5589 C 548.706 -0.413867 -5.19554 0
M  V30 5590 C 546.034 -0.95493 -5.78876 0
M  V30 5591 C 548.386 -1.3403 -6.18238 0
M  V30 5592 C 547.05 -1.61576 -6.47649 0
M  V30 5593 H 546.32 0.220049 -0.707573 0
M  V30 5594 H 548.967 -0.138697 -1.90997 0
M  V30 5595 H 547.272 2.03622 -3.34732 0
M  V30 5596 H 548.969 1.74605 -3.6099 0
M  V30 5597 H 545.559 0.468421 -4.26033 0
M  V30 5598 H 549.743 -0.220733 -4.95809 0
M  V30 5599 H 544.999 -1.17563 -5.99991 0
M  V30 5600 H 549.173 -1.86081 -6.71079 0
M  V30 5601 H 546.8 -2.34431 -7.2315 0
M  V30 5602 N 548.375 1.56261 0.205012 0
M  V30 5603 C 549.603 1.84141 0.943386 0
M  V30 5604 C 550.018 0.649772 1.77266 0
M  V30 5605 O 549.375 -0.381612 1.78466 0
M  V30 5606 C 549.426 3.10719 1.84759 0
M  V30 5607 O 549.147 4.25286 1.05181 0
M  V30 5608 C 550.648 3.51706 2.69848 0
M  V30 5609 H 547.868 0.611734 0.275721 0
M  V30 5610 H 550.412 2.03364 0.215253 0
M  V30 5611 H 548.567 2.93422 2.52947 0
M  V30 5612 H 548.981 4.97301 1.66709 0
M  V30 5613 H 550.455 4.43266 3.28967 0
M  V30 5614 H 550.932 2.7423 3.43067 0
M  V30 5615 H 551.538 3.71499 2.07047 0
M  V30 5616 N 549.853 -0.472356 1.50355 0
M  V30 5617 C 551.1 -1.22453 1.61281 0
M  V30 5618 C 551.428 -1.91972 0.31256 0
M  V30 5619 O 550.683 -1.82696 -0.701475 0
M  V30 5620 C 550.982 -2.29257 2.74182 0
M  V30 5621 C 550.648 -1.76999 4.14708 0
M  V30 5622 C 549.31 -1.62467 4.52944 0
M  V30 5623 C 551.662 -1.38215 5.0254 0
M  V30 5624 C 548.99 -1.07574 5.76754 0
M  V30 5625 C 551.342 -0.847638 6.26895 0
M  V30 5626 C 550.006 -0.688946 6.63935 0
M  V30 5627 H 549.276 -0.448087 0.590168 0
M  V30 5628 H 551.923 -0.520744 1.84284 0
M  V30 5629 H 550.228 -3.05538 2.45263 0
M  V30 5630 H 551.925 -2.87212 2.7984 0
M  V30 5631 H 548.515 -1.89276 3.84542 0
M  V30 5632 H 552.699 -1.48276 4.73633 0
M  V30 5633 H 547.955 -0.940237 6.04127 0
M  V30 5634 H 552.129 -0.538455 6.94315 0
M  V30 5635 H 549.756 -0.261435 7.5975 0
M  V30 5636 N 551.331 -1.39911 -0.725443 0
M  V30 5637 C 552.241 -1.41688 -1.8698 0
M  V30 5638 C 553.257 -0.310579 -1.71206 0
M  V30 5639 O 554.433 -0.55359 -1.93642 0
M  V30 5640 C 551.498 -1.26811 -3.22676 0
M  V30 5641 C 550.559 -2.47497 -3.50776 0
M  V30 5642 C 549.792 -2.3332 -4.79997 0
M  V30 5643 O 550.015 -1.34175 -5.54394 0
M  V30 5644 O 548.949 -3.22498 -5.08211 0
M  V30 5645 H 552.775 -2.38171 -1.88436 0
M  V30 5646 H 550.36 -1.21128 -0.874548 0
M  V30 5647 H 552.242 -1.20684 -4.03749 0
M  V30 5648 H 550.917 -0.334289 -3.21969 0
M  V30 5649 H 549.824 -2.59201 -2.69751 0
M  V30 5650 H 551.157 -3.39606 -3.5627 0
M  V30 5651 N 552.809 0.956637 -1.25245 0
M  V30 5652 C 554.057 1.69764 -1.09657 0
M  V30 5653 C 554.378 1.91583 0.363464 0
M  V30 5654 O 553.648 1.50149 1.25825 0
M  V30 5655 H 552.228 0.629097 -0.402798 0
M  V30 5656 H 554.89 1.15026 -1.57337 0
M  V30 5657 H 553.986 2.67769 -1.60331 0
M  V30 5658 N 554.287 1.06798 1.15896 0
M  V30 5659 C 555.25 0.687328 2.18651 0
M  V30 5660 C 556.25 -0.269559 1.58524 0
M  V30 5661 O 557.44 -0.0512627 1.74125 0
M  V30 5662 C 554.572 0.0121642 3.40898 0
M  V30 5663 H 555.765 1.59701 2.53842 0
M  V30 5664 H 553.318 0.863828 1.3026 0
M  V30 5665 H 554.053 -0.910025 3.1127 0
M  V30 5666 H 553.838 0.700309 3.85795 0
M  V30 5667 H 555.328 -0.239703 4.16911 0
M  V30 5668 N 555.766 -1.3263 0.851289 0
M  V30 5669 C 556.729 -2.27247 0.298541 0
M  V30 5670 C 557.729 -1.51467 -0.539847 0
M  V30 5671 O 558.919 -1.7061 -0.351843 0
M  V30 5672 C 556.051 -3.35964 -0.578004 0
M  V30 5673 H 557.244 -2.7765 1.13359 0
M  V30 5674 H 554.797 -1.43245 0.625354 0
M  V30 5675 H 555.532 -2.90823 -1.435 0
M  V30 5676 H 555.317 -3.92094 0.0220539 0
M  V30 5677 H 556.807 -4.06472 -0.957626 0
M  V30 5678 N 557.244 -0.608902 -1.45362 0
M  V30 5679 C 558.66 -0.272659 -1.57254 0
M  V30 5680 C 558.86 1.22477 -1.60005 0
M  V30 5681 O 557.916 2.00785 -1.53106 0
M  V30 5682 C 559.229 -0.944991 -2.85465 0
M  V30 5683 C 560.777 -0.921033 -2.99142 0
M  V30 5684 C 561.252 -1.5734 -4.30126 0
M  V30 5685 N 562.743 -1.53895 -4.36887 0
M  V30 5686 C 563.478 -2.01286 -5.36909 0
M  V30 5687 N 562.974 -2.56768 -6.43461 0
M  V30 5688 N 564.767 -1.92046 -5.28275 0
M  V30 5689 H 556.918 -1.58117 -1.4182 0
M  V30 5690 H 559.181 -0.662437 -0.678146 0
M  V30 5691 H 558.887 -1.99941 -2.89338 0
M  V30 5692 H 558.761 -0.469079 -3.74272 0
M  V30 5693 H 561.148 0.124846 -2.94836 0
M  V30 5694 H 561.229 -1.43522 -2.11743 0
M  V30 5695 H 560.873 -2.61862 -4.35191 0
M  V30 5696 H 560.803 -1.03422 -5.16344 0
M  V30 5697 H 563.294 -1.13366 -3.60495 0
M  V30 5698 H 563.607 -2.9072 -7.16032 0
M  V30 5699 H 561.952 -2.60808 -6.44208 0
M  V30 5700 H 565.143 -1.48439 -4.43941 0
M  V30 5701 H 565.316 -2.29293 -6.06077 0
M  V30 5702 N 558.722 1.53707 -0.348139 0
M  V30 5703 C 559.947 2.05877 0.250883 0
M  V30 5704 C 560.372 1.22115 1.43072 0
M  V30 5705 O 559.73 0.235986 1.79758 0
M  V30 5706 C 559.778 3.54886 0.639416 0
M  V30 5707 O 558.882 3.73948 1.73888 0
M  V30 5708 H 558.223 0.662754 0.040653 0
M  V30 5709 H 560.753 1.98303 -0.503685 0
M  V30 5710 H 560.763 3.97601 0.915295 0
M  V30 5711 H 559.438 4.153 -0.223386 0
M  V30 5712 H 558.015 3.43134 1.45991 0
M  V30 5713 N 560.2 0.0768682 1.57412 0
M  V30 5714 C 561.477 -0.632359 1.85096 0
M  V30 5715 C 561.857 -1.87479 0.9703 0
M  V30 5716 O 561.205 -2.28469 0.0379062 0
M  V30 5717 C 561.415 -0.965174 3.35388 0
M  V30 5718 C 562.763 -1.33648 4.03018 0
M  V30 5719 O 563.787 -1.05675 3.40164 0
M  V30 5720 O 562.646 -1.85959 5.13889 0
M  V30 5721 H 559.74 -0.314574 0.764835 0
M  V30 5722 H 562.286 0.108184 1.69355 0
M  V30 5723 H 561.058 -0.0829745 3.91212 0
M  V30 5724 H 560.681 -1.76231 3.5641 0
M  V30 5725 N 561.678 -1.56367 -0.196722 0
M  V30 5726 C 562.955 -1.71359 -0.943159 0
M  V30 5727 C 563.335 -0.631192 -2.01443 0
M  V30 5728 O 562.683 0.358071 -2.25677 0
M  V30 5729 C 562.893 -3.13623 -1.53106 0
M  V30 5730 C 564.241 -3.73806 -2.01381 0
M  V30 5731 O 565.265 -3.16742 -1.62951 0
M  V30 5732 O 564.124 -4.73951 -2.7209 0
M  V30 5733 H 561.218 -0.698851 -0.442195 0
M  V30 5734 H 563.764 -1.68672 -0.186547 0
M  V30 5735 H 562.536 -3.83873 -0.758785 0
M  V30 5736 H 562.159 -3.20532 -2.35255 0
M  V30 5737 N 563.156 0.464375 -1.50603 0
M  V30 5738 C 564.104 1.58224 -1.70493 0
M  V30 5739 C 565.098 1.59492 -0.570836 0
M  V30 5740 O 566.304 1.63561 -0.751517 0
M  V30 5741 H 562.679 0.525161 -0.538247 0
M  V30 5742 H 564.65 1.38613 -2.64252 0
M  V30 5743 C 563.399 2.96113 -1.82243 0
M  V30 5744 H 562.722 2.95858 -2.68901 0
M  V30 5745 H 564.162 3.73769 -2.00182 0
M  V30 5746 C 562.621 3.31946 -0.575628 0
M  V30 5747 O 563.151 4.00708 0.282152 0
M  V30 5748 N 561.357 2.87436 -0.427665 0
M  V30 5749 H 560.904 2.31652 -1.12674 0
M  V30 5750 H 560.862 3.11776 0.405379 0
M  V30 5751 N 564.634 1.40294 0.718013 0
M  V30 5752 C 565.859 1.41941 1.5122 0
M  V30 5753 C 566.284 0.0202371 1.88089 0
M  V30 5754 O 565.642 -0.971078 1.53101 0
M  V30 5755 C 565.69 2.3141 2.76554 0
M  V30 5756 O 564.794 1.75567 3.73162 0
M  V30 5757 H 564.135 0.482644 0.456016 0
M  V30 5758 H 566.665 1.84494 0.884478 0
M  V30 5759 H 566.675 2.46513 3.25108 0
M  V30 5760 H 565.35 3.33085 2.49053 0
M  V30 5761 H 563.927 1.69798 3.31999 0
M  V30 5762 N 566.112 -0.949982 1.2575 0
M  V30 5763 C 567.044 -2.05088 1.02331 0
M  V30 5764 C 568.057 -1.62795 -0.0133247 0
M  V30 5765 O 569.246 -1.77067 0.225759 0
M  V30 5766 C 566.346 -3.34794 0.525924 0
M  V30 5767 C 565.519 -4.05903 1.62978 0
M  V30 5768 C 564.578 -5.1388 1.13196 0
M  V30 5769 O 563.604 -5.39072 1.82729 0
M  V30 5770 N 564.806 -5.80495 -0.0242926 0
M  V30 5771 H 567.571 -2.25747 1.97125 0
M  V30 5772 H 565.132 -1.11886 1.17018 0
M  V30 5773 H 567.124 -4.04312 0.177263 0
M  V30 5774 H 565.694 -3.10872 -0.328202 0
M  V30 5775 H 564.914 -3.3042 2.1498 0
M  V30 5776 H 566.202 -4.50166 2.37124 0
M  V30 5777 H 565.6 -5.62454 -0.605184 0
M  V30 5778 H 564.157 -6.51043 -0.313947 0
M  V30 5779 N 567.59 -1.07411 -1.15328 0
M  V30 5780 C 568.837 -0.797649 -1.86128 0
M  V30 5781 C 569.165 0.676298 -1.82364 0
M  V30 5782 O 568.42 1.51223 -1.24218 0
M  V30 5783 C 568.719 -1.25191 -3.34757 0
M  V30 5784 C 568.385 -2.73191 -3.58716 0
M  V30 5785 C 567.047 -3.13616 -3.64964 0
M  V30 5786 C 569.399 -3.68718 -3.6837 0
M  V30 5787 C 566.727 -4.48383 -3.78377 0
M  V30 5788 C 569.079 -5.03248 -3.83306 0
M  V30 5789 C 567.743 -5.43293 -3.878 0
M  V30 5790 H 567.013 -0.29188 -0.681092 0
M  V30 5791 H 569.66 -1.34524 -1.36292 0
M  V30 5792 H 567.965 -0.623712 -3.86804 0
M  V30 5793 H 569.662 -1.01489 -3.87945 0
M  V30 5794 H 566.252 -2.40898 -3.54494 0
M  V30 5795 H 570.436 -3.38614 -3.62842 0
M  V30 5796 H 565.692 -4.78877 -3.80114 0
M  V30 5797 H 569.866 -5.77142 -3.89718 0
M  V30 5798 H 567.493 -6.47721 -3.97946 0
M  V30 5799 N 569.068 1.32177 -0.85831 0
M  V30 5800 C 570.316 1.96735 -0.462568 0
M  V30 5801 C 570.637 1.6824 0.985911 0
M  V30 5802 O 569.907 0.991564 1.68952 0
M  V30 5803 H 568.487 0.727849 -0.168064 0
M  V30 5804 H 571.149 1.61195 -1.09554 0
M  V30 5805 H 570.245 3.06068 -0.610647 0
M  V30 5806 N 570.547 0.616602 1.45037 0
M  V30 5807 C 571.963 0.280994 1.57107 0
M  V30 5808 C 572.163 -1.21627 1.60653 0
M  V30 5809 O 571.219 -1.9997 1.54169 0
M  V30 5810 C 572.532 0.960116 2.8496 0
M  V30 5811 C 574.08 0.936884 2.98649 0
M  V30 5812 C 574.555 1.59619 4.29285 0
M  V30 5813 N 576.046 1.5621 4.36065 0
M  V30 5814 C 576.781 2.04131 5.35834 0
M  V30 5815 N 576.277 2.60177 6.4209 0
M  V30 5816 N 578.07 1.94845 5.27249 0
M  V30 5817 H 570.221 1.58867 1.40979 0
M  V30 5818 H 572.484 0.666024 0.674623 0
M  V30 5819 H 572.19 2.01473 2.88273 0
M  V30 5820 H 572.064 0.488921 3.74018 0
M  V30 5821 H 574.451 -0.109209 2.94898 0
M  V30 5822 H 574.532 1.44643 2.10979 0
M  V30 5823 H 574.176 2.64166 4.33796 0
M  V30 5824 H 574.106 1.06159 5.15789 0
M  V30 5825 H 576.597 1.15276 3.59889 0
M  V30 5826 H 576.91 2.94513 7.1448 0
M  V30 5827 H 575.255 2.64221 6.42816 0
M  V30 5828 H 578.446 1.50792 4.43147 0
M  V30 5829 H 578.619 2.32504 6.04852 0
M  V30 5830 N 572.025 -1.5352 0.356285 0
M  V30 5831 C 572.975 -2.22204 -0.510815 0
M  V30 5832 C 573.959 -1.21393 -1.05605 0
M  V30 5833 O 575.151 -1.46883 -0.987639 0
M  V30 5834 C 572.28 -3.00786 -1.65478 0
M  V30 5835 C 571.366 -4.08965 -1.12287 0
M  V30 5836 N 571.757 -5.04829 -0.313191 0
M  V30 5837 C 570.055 -4.23505 -1.39856 0
M  V30 5838 C 570.756 -5.81695 -0.0230322 0
M  V30 5839 N 569.732 -5.40074 -0.618144 0
M  V30 5840 H 573.534 -2.93676 0.114711 0
M  V30 5841 H 571.048 -1.61572 0.163811 0
M  V30 5842 H 573.045 -3.48502 -2.28806 0
M  V30 5843 H 571.705 -2.30843 -2.28345 0
M  V30 5844 H 572.716 -5.17879 0.0468202 0
M  V30 5845 H 569.393 -3.64786 -2.0307 0
M  V30 5846 H 570.783 -6.68931 0.630927 0
M  V30 5847 N 573.503 -0.0852151 -1.57369 0
M  V30 5848 C 574.751 0.579658 -1.93609 0
M  V30 5849 C 575.072 1.69332 -0.967043 0
M  V30 5850 O 574.342 1.95892 -0.0174215 0
M  V30 5851 H 572.922 0.217113 -0.714752 0
M  V30 5852 H 575.584 -0.146226 -1.94351 0
M  V30 5853 H 574.68 0.996276 -2.95771 0
M  V30 5854 N 574.981 1.5647 0.188427 0
M  V30 5855 C 576.209 1.85131 0.923803 0
M  V30 5856 C 576.624 0.668537 1.76567 0
M  V30 5857 O 575.981 -0.362662 1.7886 0
M  V30 5858 C 576.032 3.12661 1.81453 0
M  V30 5859 O 575.753 4.26378 1.00665 0
M  V30 5860 C 577.254 3.54548 2.66103 0
M  V30 5861 H 574.474 0.614624 0.269218 0
M  V30 5862 H 577.018 2.03581 0.193671 0
M  V30 5863 H 575.173 2.96088 2.49821 0
M  V30 5864 H 575.587 4.99041 1.61425 0
M  V30 5865 H 577.061 4.4673 3.24247 0
M  V30 5866 H 577.538 2.77853 3.40139 0
M  V30 5867 H 578.144 3.73674 2.03096 0
M  V30 5868 N 576.459 -0.456382 1.50847 0
M  V30 5869 C 577.705 -1.20618 1.63777 0
M  V30 5870 C 578.06 -1.8936 0.340677 0
M  V30 5871 O 577.353 -1.79786 -0.662378 0
M  V30 5872 C 577.547 -2.26336 2.76599 0
M  V30 5873 C 577.376 -1.67968 4.17153 0
M  V30 5874 C 576.146 -1.47293 4.83356 0
M  V30 5875 C 578.344 -1.16643 5.00898 0
M  V30 5876 N 576.326 -0.843222 6.08081 0
M  V30 5877 C 577.697 -0.660843 6.16468 0
M  V30 5878 C 579.752 -1.05637 4.86565 0
M  V30 5879 C 578.455 -0.0560365 7.19278 0
M  V30 5880 C 580.481 -0.465485 5.89565 0
M  V30 5881 C 579.843 0.0296516 7.04394 0
M  V30 5882 H 575.942 -0.429725 0.653345 0
M  V30 5883 H 578.526 -0.505784 1.88016 0
M  V30 5884 H 576.697 -2.93785 2.54056 0
M  V30 5885 H 578.429 -2.9334 2.78808 0
M  V30 5886 H 575.184 -1.72934 4.40898 0
M  V30 5887 H 575.608 -0.546357 6.74792 0
M  V30 5888 H 580.25 -1.42508 3.98059 0
M  V30 5889 H 577.968 0.324845 8.07447 0
M  V30 5890 H 581.554 -0.382493 5.80541 0
M  V30 5891 H 580.434 0.479705 7.82731 0
M  V30 5892 N 577.937 -1.40673 -0.710563 0
M  V30 5893 C 578.869 -1.37256 -1.83558 0
M  V30 5894 C 579.882 -0.277133 -1.60424 0
M  V30 5895 O 581.071 -0.537831 -1.70205 0
M  V30 5896 C 578.171 -1.1144 -3.20054 0
M  V30 5897 C 577.344 -2.32734 -3.70342 0
M  V30 5898 C 576.403 -2.03002 -4.85465 0
M  V30 5899 O 575.429 -2.75912 -4.97857 0
M  V30 5900 N 576.631 -1.01105 -5.71627 0
M  V30 5901 H 579.396 -2.34215 -1.86985 0
M  V30 5902 H 576.957 -1.35091 -0.892301 0
M  V30 5903 H 578.949 -0.895265 -3.94673 0
M  V30 5904 H 577.519 -0.231307 -3.11743 0
M  V30 5905 H 576.739 -2.70446 -2.86798 0
M  V30 5906 H 578.027 -3.13584 -4.00678 0
M  V30 5907 H 577.425 -0.407303 -5.64232 0
M  V30 5908 H 575.982 -0.85182 -6.4621 0
M  V30 5909 N 579.415 0.9433 -1.26252 0
M  V30 5910 C 580.643 1.72367 -1.14443 0
M  V30 5911 C 581.058 1.86392 0.300572 0
M  V30 5912 O 580.415 1.36978 1.20596 0
M  V30 5913 C 580.466 3.13155 -1.806 0
M  V30 5914 O 580.187 2.99803 -3.19452 0
M  V30 5915 C 581.688 4.07417 -1.74717 0
M  V30 5916 H 578.908 0.539758 -0.398626 0
M  V30 5917 H 581.452 1.18268 -1.66832 0
M  V30 5918 H 579.607 3.64162 -1.32154 0
M  V30 5919 H 580.021 3.88697 -3.52158 0
M  V30 5920 H 581.495 5.03773 -2.25647 0
M  V30 5921 H 581.972 4.3337 -0.713244 0
M  V30 5922 H 582.578 3.6233 -2.22704 0
M  V30 5923 N 580.893 1.08022 1.14757 0
M  V30 5924 C 582.118 0.82895 1.90114 0
M  V30 5925 C 582.543 -0.612772 1.77839 0
M  V30 5926 O 581.901 -1.42895 1.11583 0
M  V30 5927 C 581.949 1.25062 3.38219 0
M  V30 5928 O 581.053 0.400119 4.10454 0
M  V30 5929 H 580.394 0.301412 0.591648 0
M  V30 5930 H 582.924 1.44062 1.45284 0
M  V30 5931 H 582.934 1.22977 3.89025 0
M  V30 5932 H 581.609 2.30067 3.46471 0
M  V30 5933 H 580.186 0.484052 3.69745 0
M  V30 5934 N 582.371 -1.3172 0.865308 0
M  V30 5935 C 583.334 -2.26918 0.322627 0
M  V30 5936 C 584.334 -1.52031 -0.523751 0
M  V30 5937 O 585.524 -1.70973 -0.333727 0
M  V30 5938 C 582.656 -3.36558 -0.542338 0
M  V30 5939 H 583.849 -2.76432 1.16298 0
M  V30 5940 H 581.402 -1.42573 0.640512 0
M  V30 5941 H 582.137 -2.92329 -1.40407 0
M  V30 5942 H 581.922 -3.92048 0.0636395 0
M  V30 5943 H 583.412 -4.07465 -0.91446 0
M  V30 5944 N 583.85 -0.624285 -1.44708 0
M  V30 5945 C 585.098 -0.125802 -2.01708 0
M  V30 5946 C 585.418 1.2543 -1.49306 0
M  V30 5947 O 584.689 1.83198 -0.693924 0
M  V30 5948 H 583.269 -0.0435161 -0.745731 0
M  V30 5949 H 585.931 -0.809446 -1.77296 0
M  V30 5950 H 585.027 -0.0882734 -3.11975 0
M  V30 5951 N 585.328 1.53329 -0.364422 0
M  V30 5952 C 586.574 2.02222 0.21855 0
M  V30 5953 C 586.929 1.24702 1.46517 0
M  V30 5954 O 586.222 0.331969 1.88702 0
M  V30 5955 C 586.416 3.52911 0.564661 0
M  V30 5956 C 586.245 4.45023 -0.646862 0
M  V30 5957 C 585.015 4.91838 -1.15858 0
M  V30 5958 C 587.213 4.91581 -1.51172 0
M  V30 5959 N 585.195 5.67955 -2.33025 0
M  V30 5960 C 586.566 5.66028 -2.53006 0
M  V30 5961 C 588.621 4.73656 -1.53473 0
M  V30 5962 C 587.324 6.24457 -3.56996 0
M  V30 5963 C 589.35 5.3295 -2.56356 0
M  V30 5964 C 588.712 6.07282 -3.56914 0
M  V30 5965 H 584.811 0.780832 0.0427199 0
M  V30 5966 H 587.395 1.87937 -0.508704 0
M  V30 5967 H 585.566 3.6736 1.26099 0
M  V30 5968 H 587.298 3.88528 1.13262 0
M  V30 5969 H 584.053 4.68043 -0.723393 0
M  V30 5970 H 584.477 6.10675 -2.92241 0
M  V30 5971 H 589.119 4.15714 -0.770842 0
M  V30 5972 H 586.837 6.81496 -4.34268 0
M  V30 5973 H 590.423 5.20976 -2.58989 0
M  V30 5974 H 589.303 6.52345 -4.35218 0
M  V30 5975 N 586.806 0.0935595 1.57322 0
M  V30 5976 C 587.716 -0.880192 2.17462 0
M  V30 5977 C 588.732 -1.31135 1.14366 0
M  V30 5978 O 589.908 -1.37958 1.46729 0
M  V30 5979 C 586.973 -2.12184 2.74188 0
M  V30 5980 C 586.034 -1.74503 3.92234 0
M  V30 5981 C 585.267 -2.92748 4.46245 0
M  V30 5982 O 585.49 -4.07427 3.99198 0
M  V30 5983 O 584.424 -2.71303 5.37288 0
M  V30 5984 H 588.25 -0.398516 3.01074 0
M  V30 5985 H 585.835 -0.130707 1.48827 0
M  V30 5986 H 587.717 -2.84953 3.10451 0
M  V30 5987 H 586.392 -2.59407 1.93623 0
M  V30 5988 H 585.299 -0.989186 3.60785 0
M  V30 5989 H 586.632 -1.32044 4.74157 0
M  V30 5990 N 588.284 -1.56567 -0.180126 0
M  V30 5991 C 589.531 -1.81492 -0.898167 0
M  V30 5992 C 589.859 -0.669225 -1.82624 0
M  V30 5993 O 589.114 0.344096 -1.92651 0
M  V30 5994 C 589.413 -3.1252 -1.73395 0
M  V30 5995 C 589.079 -4.40658 -0.955567 0
M  V30 5996 C 587.741 -4.75465 -0.740707 0
M  V30 5997 C 590.093 -5.19593 -0.408948 0
M  V30 5998 C 587.421 -5.86691 0.0320128 0
M  V30 5999 C 589.773 -6.31627 0.350638 0
M  V30 6000 C 588.437 -6.65007 0.576378 0
M  V30 6001 H 587.707 -0.664125 -0.328662 0
M  V30 6002 H 590.354 -1.908 -0.163616 0
M  V30 6003 H 588.659 -2.98515 -2.53763 0
M  V30 6004 H 590.356 -3.29013 -2.29241 0
M  V30 6005 H 586.946 -4.13352 -1.13306 0
M  V30 6006 H 591.13 -4.93104 -0.562307 0
M  V30 6007 H 586.386 -6.11016 0.216735 0
M  V30 6008 H 590.56 -6.92001 0.781497 0
M  V30 6009 H 588.187 -7.51033 1.17703 0
M  V30 6010 N 589.762 0.448376 -1.51087 0
M  V30 6011 C 591.011 1.19561 -1.62444 0
M  V30 6012 C 591.324 1.92602 -0.341151 0
M  V30 6013 O 592.53 2.69439 -0.333936 0
M  V30 6014 C 590.986 2.17373 -2.8684 0
M  V30 6015 C 590.594 1.5003 -4.22131 0
M  V30 6016 C 592.338 2.92597 -3.0755 0
M  V30 6017 C 590.245 2.46262 -5.37689 0
M  V30 6018 H 589.175 0.449975 -0.605011 0
M  V30 6019 H 591.826 0.463735 -1.77544 0
M  V30 6020 H 590.208 2.93948 -2.65349 0
M  V30 6021 H 591.382 0.790886 -4.53962 0
M  V30 6022 H 589.697 0.870011 -4.0721 0
M  V30 6023 H 592.294 3.64663 -3.91056 0
M  V30 6024 H 592.637 3.53306 -2.20183 0
M  V30 6025 H 593.17 2.23131 -3.29329 0
M  V30 6026 H 589.909 1.90258 -6.27281 0
M  V30 6027 H 589.429 3.15289 -5.10248 0
M  V30 6028 H 591.108 3.07623 -5.6919 0
M  V30 6029 N 591.24 1.41047 0.703093 0
M  V30 6030 C 592.15 1.44645 1.84703 0
M  V30 6031 C 593.166 0.337778 1.7069 0
M  V30 6032 O 594.342 0.584327 1.92737 0
M  V30 6033 C 591.407 1.31928 3.20618 0
M  V30 6034 C 590.468 2.53047 3.46794 0
M  V30 6035 C 589.701 2.40927 4.76224 0
M  V30 6036 O 589.924 1.42978 5.5219 0
M  V30 6037 O 588.858 3.30543 5.03016 0
M  V30 6038 H 592.684 2.41139 1.84624 0
M  V30 6039 H 590.269 1.22504 0.855167 0
M  V30 6040 H 592.151 1.27092 4.01778 0
M  V30 6041 H 590.826 0.385469 3.21397 0
M  V30 6042 H 589.733 2.6346 2.65593 0
M  V30 6043 H 591.066 3.45231 3.50822 0
M  V30 6044 N 592.718 -0.936591 1.26751 0
M  V30 6045 C 593.966 -1.67998 1.12343 0
M  V30 6046 C 594.287 -1.92137 -0.332938 0
M  V30 6047 O 593.557 -1.52132 -1.23421 0
M  V30 6048 H 592.137 -0.622609 0.412756 0
M  V30 6049 H 594.799 -1.12509 1.59147 0
M  V30 6050 H 593.895 -2.65185 1.64571 0
M  V30 6051 N 594.196 -1.08629 -1.14182 0
M  V30 6052 C 595.426 -0.837673 -1.88856 0
M  V30 6053 C 595.834 0.614024 -1.78959 0
M  V30 6054 O 595.177 1.43384 -1.14833 0
M  V30 6055 C 595.239 -1.18355 -3.39459 0
M  V30 6056 C 594.903 -2.63848 -3.73139 0
M  V30 6057 C 595.9 -3.62099 -3.73069 0
M  V30 6058 C 593.585 -2.99761 -4.03049 0
M  V30 6059 C 595.579 -4.94292 -4.02435 0
M  V30 6060 C 593.266 -4.32147 -4.32078 0
M  V30 6061 C 594.264 -5.29223 -4.31755 0
M  V30 6062 O 593.952 -6.59229 -4.60079 0
M  V30 6063 H 593.684 -0.301609 -0.604986 0
M  V30 6064 H 596.238 -1.44961 -1.45518 0
M  V30 6065 H 594.468 -0.514628 -3.8326 0
M  V30 6066 H 596.157 -0.915391 -3.95443 0
M  V30 6067 H 596.923 -3.35698 -3.50046 0
M  V30 6068 H 592.802 -2.2484 -4.02453 0
M  V30 6069 H 596.346 -5.70055 -4.02098 0
M  V30 6070 H 592.243 -4.58296 -4.54571 0
M  V30 6071 H 593.011 -6.64578 -4.77785 0
M  V30 6072 N 595.674 1.31259 -0.872281 0
M  V30 6073 C 597.09 1.49283 -0.564521 0
M  V30 6074 C 597.29 1.80243 0.900807 0
M  V30 6075 O 596.346 1.88246 1.68284 0
M  V30 6076 C 597.659 2.62503 -1.46673 0
M  V30 6077 C 599.207 2.76386 -1.46901 0
M  V30 6078 C 599.682 3.92705 -2.35684 0
M  V30 6079 N 601.173 3.99995 -2.33577 0
M  V30 6080 C 601.908 4.89276 -2.98992 0
M  V30 6081 N 601.404 5.83443 -3.73585 0
M  V30 6082 N 603.197 4.82541 -2.88289 0
M  V30 6083 H 595.348 1.09432 -1.82039 0
M  V30 6084 H 597.611 0.540949 -0.77851 0
M  V30 6085 H 597.317 2.46407 -2.50951 0
M  V30 6086 H 597.191 3.58695 -1.16696 0
M  V30 6087 H 599.578 2.91894 -0.433796 0
M  V30 6088 H 599.659 1.80853 -1.80903 0
M  V30 6089 H 599.303 3.77954 -3.39283 0
M  V30 6090 H 599.233 4.87549 -1.99006 0
M  V30 6091 H 601.724 3.32624 -1.7936 0
M  V30 6092 H 602.037 6.48303 -4.20622 0
M  V30 6093 H 600.382 5.83415 -3.77694 0
M  V30 6094 H 603.573 4.07951 -2.2955 0
M  V30 6095 H 603.746 5.51916 -3.39549 0
M  V30 6096 N 597.152 0.631951 1.44375 0
M  V30 6097 C 598.399 0.136767 2.02038 0
M  V30 6098 C 598.727 -1.24168 1.49709 0
M  V30 6099 O 597.982 -1.83809 0.671763 0
M  V30 6100 C 598.281 0.0735861 3.57324 0
M  V30 6101 C 597.947 1.39092 4.28911 0
M  V30 6102 C 596.609 1.75171 4.48184 0
M  V30 6103 C 598.961 2.26042 4.69632 0
M  V30 6104 C 596.289 2.97907 5.05439 0
M  V30 6105 C 598.641 3.4805 5.28246 0
M  V30 6106 C 597.305 3.84351 5.45738 0
M  V30 6107 H 596.575 0.0500466 0.739308 0
M  V30 6108 H 599.222 0.818429 1.7313 0
M  V30 6109 H 597.527 -0.691449 3.8565 0
M  V30 6110 H 599.224 -0.326091 3.99672 0
M  V30 6111 H 595.814 1.10015 4.1424 0
M  V30 6112 H 599.998 1.99463 4.54454 0
M  V30 6113 H 595.254 3.26108 5.17169 0
M  V30 6114 H 599.428 4.15658 5.5875 0
M  V30 6115 H 597.055 4.79538 5.8987 0
M  V30 6116 N 598.631 -1.53133 0.372548 0
M  V30 6117 C 599.88 -2.00539 -0.216115 0
M  V30 6118 C 600.193 -1.26374 -1.49295 0
M  V30 6119 O 601.399 -1.64404 -2.16064 0
M  V30 6120 C 599.855 -3.57253 -0.435678 0
M  V30 6121 C 599.463 -4.40302 0.82693 0
M  V30 6122 C 601.207 -4.12995 -0.981618 0
M  V30 6123 C 599.114 -5.88583 0.576567 0
M  V30 6124 H 598.044 -0.749246 -0.084536 0
M  V30 6125 H 600.695 -1.76771 0.492364 0
M  V30 6126 H 599.077 -3.77202 -1.20559 0
M  V30 6127 H 600.251 -4.32124 1.60017 0
M  V30 6128 H 598.566 -3.95699 1.29659 0
M  V30 6129 H 601.163 -5.21418 -1.18436 0
M  V30 6130 H 601.506 -3.68027 -1.94581 0
M  V30 6131 H 602.039 -3.96871 -0.271696 0
M  V30 6132 H 598.778 -6.37841 1.51128 0
M  V30 6133 H 598.298 -5.99592 -0.158047 0
M  V30 6134 H 599.977 -6.46676 0.204722 0
M  V30 6135 N 600.109 -0.101901 -1.5727 0
M  V30 6136 C 601.072 0.840129 -2.13247 0
M  V30 6137 C 602.072 1.20625 -1.06331 0
M  V30 6138 O 603.262 1.13456 -1.32186 0
M  V30 6139 C 600.394 2.13372 -2.65867 0
M  V30 6140 H 601.587 0.353945 -2.97804 0
M  V30 6141 H 599.14 0.147167 -1.55606 0
M  V30 6142 H 599.875 2.66461 -1.84849 0
M  V30 6143 H 599.66 1.88085 -3.44044 0
M  V30 6144 H 601.15 2.80748 -3.09145 0
M  V30 6145 N 601.587 1.56661 0.17182 0
M  V30 6146 C 602.812 1.86459 0.908165 0
M  V30 6147 C 603.237 0.688181 1.75059 0
M  V30 6148 O 602.595 -0.362753 1.77634 0
M  V30 6149 C 602.643 3.14669 1.76112 0
M  V30 6150 O 601.747 2.96858 2.86268 0
M  V30 6151 H 601.088 0.613318 0.254434 0
M  V30 6152 H 603.618 2.03892 0.170113 0
M  V30 6153 H 603.628 3.46061 2.16115 0
M  V30 6154 H 602.303 3.99905 1.14233 0
M  V30 6155 H 600.88 2.76819 2.49852 0
M  V30 6156 N 603.065 -0.440357 1.51323 0
M  V30 6157 C 604.295 -1.21079 1.67402 0
M  V30 6158 C 604.703 -1.85555 0.369599 0
M  V30 6159 O 604.046 -1.71375 -0.661525 0
M  V30 6160 C 604.108 -2.33839 2.73056 0
M  V30 6161 C 603.772 -1.89755 4.15743 0
M  V30 6162 C 604.769 -1.40268 5.0062 0
M  V30 6163 C 602.454 -1.97539 4.61826 0
M  V30 6164 C 604.448 -0.991474 6.29642 0
M  V30 6165 C 602.135 -1.56029 5.90845 0
M  V30 6166 C 603.133 -1.06915 6.7458 0
M  V30 6167 O 602.821 -0.659933 8.01187 0
M  V30 6168 H 602.553 -0.371133 0.56501 0
M  V30 6169 H 605.107 -0.528409 1.98487 0
M  V30 6170 H 603.337 -3.05345 2.37279 0
M  V30 6171 H 605.026 -2.95713 2.78044 0
M  V30 6172 H 605.792 -1.33652 4.66221 0
M  V30 6173 H 601.671 -2.34713 3.96776 0
M  V30 6174 H 605.215 -0.607425 6.9495 0
M  V30 6175 H 601.112 -1.62315 6.24759 0
M  V30 6176 H 601.88 -0.786052 8.14717 0
M  V30 6177 N 604.543 -1.41418 -0.695603 0
M  V30 6178 C 605.791 -1.40496 -1.45277 0
M  V30 6179 C 606.112 -0.0149538 -1.94994 0
M  V30 6180 O 605.382 0.9432 -1.71699 0
M  V30 6181 H 603.962 -0.517147 -0.539044 0
M  V30 6182 H 606.624 -1.76656 -0.823321 0
M  V30 6183 H 605.72 -2.09214 -2.31595 0
M  V30 6184 N 606.021 0.929856 -1.27246 0
M  V30 6185 C 607.249 1.71144 -1.16265 0
M  V30 6186 C 607.664 1.867 0.280786 0
M  V30 6187 O 607.021 1.38249 1.19136 0
M  V30 6188 C 607.072 3.11222 -1.83911 0
M  V30 6189 O 606.793 2.96398 -3.22614 0
M  V30 6190 C 608.294 4.05541 -1.79028 0
M  V30 6191 H 605.514 0.535499 -0.404328 0
M  V30 6192 H 608.058 1.16492 -1.68077 0
M  V30 6193 H 606.213 3.6274 -1.36009 0
M  V30 6194 H 606.627 3.8494 -3.56261 0
M  V30 6195 H 608.101 5.01351 -2.30978 0
M  V30 6196 H 608.578 4.32589 -0.759168 0
M  V30 6197 H 609.184 3.59947 -2.26535 0
M  V30 6198 N 607.499 1.09233 1.13605 0
M  V30 6199 C 608.724 0.849067 1.89224 0
M  V30 6200 C 609.149 -0.593875 1.78479 0
M  V30 6201 O 608.507 -1.41703 1.13092 0
M  V30 6202 C 608.555 1.28642 3.36873 0
M  V30 6203 O 607.659 0.44363 4.10007 0
M  V30 6204 H 607 0.30767 0.588417 0
M  V30 6205 H 609.53 1.45595 1.43748 0
M  V30 6206 H 609.54 1.27096 3.87699 0
M  V30 6207 H 608.215 2.33729 3.44011 0
M  V30 6208 H 606.792 0.523241 3.69211 0
M  V30 6209 N 608.977 -1.30795 0.87923 0
M  V30 6210 C 610.207 -2.00237 0.50881 0
M  V30 6211 C 610.615 -1.66115 -0.905682 0
M  V30 6212 O 609.958 -0.89138 -1.60624 0
M  V30 6213 C 610.02 -3.54508 0.597003 0
M  V30 6214 C 609.684 -4.12131 1.97477 0
M  V30 6215 C 610.681 -4.28552 2.94346 0
M  V30 6216 C 608.366 -4.47644 2.2786 0
M  V30 6217 C 610.36 -4.79689 4.19735 0
M  V30 6218 C 608.047 -4.98481 3.53496 0
M  V30 6219 C 609.045 -5.14456 4.49248 0
M  V30 6220 O 608.733 -5.64199 5.72656 0
M  V30 6221 H 608.465 -0.647026 0.195788 0
M  V30 6222 H 611.019 -1.67785 1.1848 0
M  V30 6223 H 609.249 -3.86461 -0.135945 0
M  V30 6224 H 610.938 -4.05198 0.238684 0
M  V30 6225 H 611.704 -4.01424 2.72183 0
M  V30 6226 H 607.583 -4.34481 1.54102 0
M  V30 6227 H 611.127 -4.92073 4.9448 0
M  V30 6228 H 607.024 -5.25044 3.75498 0
M  V30 6229 H 607.792 -5.82551 5.74957 0
M  V30 6230 N 610.455 -0.639598 -1.44038 0
M  V30 6231 C 611.402 0.0602458 -2.30721 0
M  V30 6232 C 612.372 0.828352 -1.43971 0
M  V30 6233 O 613.557 0.807693 -1.72861 0
M  V30 6234 C 610.697 1.03008 -3.29368 0
M  V30 6235 C 609.81 0.259502 -4.3122 0
M  V30 6236 C 608.945 1.22191 -5.16955 0
M  V30 6237 C 607.984 0.440978 -6.10509 0
M  V30 6238 N 607.121 1.35428 -6.88915 0
M  V30 6239 H 611.961 -0.684867 -2.90023 0
M  V30 6240 H 609.498 -0.349509 -1.42888 0
M  V30 6241 H 611.456 1.60583 -3.85057 0
M  V30 6242 H 610.086 1.74222 -2.71747 0
M  V30 6243 H 609.138 -0.432317 -3.77935 0
M  V30 6244 H 610.45 -0.348347 -4.97582 0
M  V30 6245 H 609.604 1.86873 -5.77203 0
M  V30 6246 H 608.343 1.86367 -4.50687 0
M  V30 6247 H 607.348 -0.219279 -5.49363 0
M  V30 6248 H 608.573 -0.196192 -6.78817 0
M  V30 6249 H 606.519 1.9831 -6.25307 0
M  V30 6250 H 606.436 0.800657 -7.51748 0
M  V30 6251 H 607.704 1.98967 -7.53679 0
M  V30 6252 N 611.933 1.52934 -0.380664 0
M  V30 6253 C 612.896 2.24809 0.446473 0
M  V30 6254 C 613.896 1.26133 0.997347 0
M  V30 6255 O 615.086 1.50297 0.880714 0
M  V30 6256 C 612.218 2.99649 1.62553 0
M  V30 6257 H 613.411 2.99343 -0.182677 0
M  V30 6258 H 610.964 1.55736 -0.132618 0
M  V30 6259 H 611.699 2.29395 2.29235 0
M  V30 6260 H 611.484 3.72066 1.23732 0
M  V30 6261 H 612.974 3.54246 2.21133 0
M  V30 6262 N 613.412 0.11024 1.57214 0
M  V30 6263 C 614.823 -0.416527 1.81994 0
M  V30 6264 C 615.174 -1.67183 1.02686 0
M  V30 6265 O 614.299 -2.14823 0.260782 0
M  V30 6266 C 614.894 -0.762466 3.30109 0
M  V30 6267 C 613.453 -1.23391 3.556 0
M  V30 6268 C 612.6 -0.238166 2.76275 0
M  V30 6269 H 615.551 0.335491 1.55113 0
M  V30 6270 H 615.572 -1.62068 3.44259 0
M  V30 6271 H 615.084 0.151346 3.87805 0
M  V30 6272 H 613.185 -2.16492 3.03253 0
M  V30 6273 H 613.298 -1.18528 4.64207 0
M  V30 6274 H 611.662 -0.723421 2.4421 0
M  V30 6275 H 612.445 0.668591 3.36727 0
M  V30 6276 N 614.89 -1.56749 -0.16351 0
M  V30 6277 C 615.838 -1.97939 -1.22159 0
M  V30 6278 C 616.832 -0.869288 -1.45395 0
M  V30 6279 O 618.038 -1.05443 -1.45883 0
M  V30 6280 H 614.413 -0.629869 -0.410815 0
M  V30 6281 H 616.384 -2.86115 -0.847381 0
M  V30 6282 C 615.133 -2.36206 -2.55151 0
M  V30 6283 H 614.456 -3.2117 -2.38097 0
M  V30 6284 H 615.896 -2.68863 -3.27854 0
M  V30 6285 C 614.355 -1.20841 -3.14482 0
M  V30 6286 O 614.885 -0.500258 -3.98573 0
M  V30 6287 N 613.091 -0.976943 -2.73686 0
M  V30 6288 H 612.638 -1.55457 -2.05404 0
M  V30 6289 H 612.596 -0.206912 -3.13718 0
M  V30 6290 N 616.368 0.432326 -1.51554 0
M  V30 6291 C 617.298 1.53242 -1.76179 0
M  V30 6292 C 618.279 1.58717 -0.611801 0
M  V30 6293 O 619.464 1.74364 -0.855033 0
M  V30 6294 C 616.594 2.91278 -1.89141 0
M  V30 6295 C 615.548 3.00663 -3.04608 0
M  V30 6296 C 614.874 4.40728 -3.02759 0
M  V30 6297 C 616.174 2.74281 -4.44485 0
M  V30 6298 H 617.868 1.32886 -2.68294 0
M  V30 6299 H 615.414 0.637841 -1.29103 0
M  V30 6300 H 617.367 3.68203 -2.04951 0
M  V30 6301 H 616.091 3.12877 -0.936785 0
M  V30 6302 H 614.75 2.26179 -2.88511 0
M  V30 6303 H 614.398 4.59301 -2.05065 0
M  V30 6304 H 614.098 4.47936 -3.80299 0
M  V30 6305 H 615.622 5.19619 -3.20669 0
M  V30 6306 H 617.036 3.40936 -4.60907 0
M  V30 6307 H 615.433 2.92893 -5.23769 0
M  V30 6308 H 616.503 1.69856 -4.54177 0
M  V30 6309 N 617.846 1.41785 0.688094 0
M  V30 6310 C 619.094 1.41264 1.4453 0
M  V30 6311 C 619.415 0.0252946 1.94984 0
M  V30 6312 O 618.685 -0.934081 1.72197 0
M  V30 6313 H 617.265 0.519998 0.536294 0
M  V30 6314 H 619.927 1.7709 0.813941 0
M  V30 6315 H 619.023 2.10439 2.30482 0
M  V30 6316 N 619.324 -0.923095 1.27737 0
M  V30 6317 C 620.256 -2.02871 1.06658 0
M  V30 6318 C 621.269 -1.62786 0.0212095 0
M  V30 6319 O 622.458 -1.76548 0.263267 0
M  V30 6320 C 619.558 -3.33603 0.59682 0
M  V30 6321 C 618.731 -4.02354 1.71551 0
M  V30 6322 C 617.79 -5.11364 1.24071 0
M  V30 6323 O 616.816 -5.35075 1.94123 0
M  V30 6324 N 618.018 -5.80416 0.0988444 0
M  V30 6325 H 620.783 -2.21515 2.01869 0
M  V30 6326 H 618.344 -1.09378 1.19365 0
M  V30 6327 H 620.336 -4.03845 0.262984 0
M  V30 6328 H 618.906 -3.11499 -0.262187 0
M  V30 6329 H 618.126 -3.25786 2.2194 0
M  V30 6330 H 619.414 -4.45035 2.46619 0
M  V30 6331 H 618.812 -5.63611 -0.485743 0
M  V30 6332 H 617.369 -6.51563 -0.17578 0
M  V30 6333 N 620.802 -1.09834 -1.13024 0
M  V30 6334 C 621.732 -0.763451 -2.20666 0
M  V30 6335 C 622.713 0.260778 -1.68089 0
M  V30 6336 O 623.898 0.127915 -1.93778 0
M  V30 6337 C 621.028 -0.187744 -3.46792 0
M  V30 6338 C 619.982 -1.14196 -4.12484 0
M  V30 6339 C 619.308 -0.427755 -5.32986 0
M  V30 6340 C 620.608 -2.48607 -4.59338 0
M  V30 6341 H 622.302 -1.66347 -2.48936 0
M  V30 6342 H 619.848 -0.801261 -1.19649 0
M  V30 6343 H 621.801 0.0586375 -4.21359 0
M  V30 6344 H 620.525 0.747485 -3.17931 0
M  V30 6345 H 619.184 -1.37369 -3.3989 0
M  V30 6346 H 618.832 0.511747 -5.0039 0
M  V30 6347 H 618.532 -1.06403 -5.77886 0
M  V30 6348 H 620.056 -0.189772 -6.10305 0
M  V30 6349 H 621.47 -2.29618 -5.25308 0
M  V30 6350 H 619.867 -3.08062 -5.14993 0
M  V30 6351 H 620.937 -3.09062 -3.73642 0
M  V30 6352 N 622.28 1.30327 -0.886154 0
M  V30 6353 C 623.51 1.99964 -0.519421 0
M  V30 6354 C 623.918 1.66593 0.89686 0
M  V30 6355 O 623.261 0.899886 1.60149 0
M  V30 6356 C 623.323 3.54187 -0.615795 0
M  V30 6357 C 622.987 4.11078 -1.9966 0
M  V30 6358 C 623.984 4.26985 -2.96614 0
M  V30 6359 C 621.669 4.46429 -2.30231 0
M  V30 6360 C 623.663 4.77456 -4.22273 0
M  V30 6361 C 621.35 4.966 -3.56135 0
M  V30 6362 C 622.348 5.12066 -4.5197 0
M  V30 6363 O 622.036 5.61154 -5.7564 0
M  V30 6364 H 621.768 0.645979 -0.199217 0
M  V30 6365 H 624.322 1.67154 -1.19368 0
M  V30 6366 H 622.552 3.86528 0.115448 0
M  V30 6367 H 624.241 4.05065 -0.26017 0
M  V30 6368 H 625.007 3.99975 -2.74308 0
M  V30 6369 H 620.886 4.33658 -1.56404 0
M  V30 6370 H 624.43 4.89444 -4.97082 0
M  V30 6371 H 620.327 5.23045 -3.78277 0
M  V30 6372 H 621.095 5.79494 -5.78039 0
M  V30 6373 N 623.758 0.647228 1.43697 0
M  V30 6374 C 625.006 0.157876 2.01482 0
M  V30 6375 C 625.327 -1.23039 1.51282 0
M  V30 6376 O 624.597 -1.82071 0.722982 0
M  V30 6377 H 623.177 0.0553745 0.744945 0
M  V30 6378 H 625.839 0.83755 1.75986 0
M  V30 6379 H 624.935 0.137895 3.11795 0
M  V30 6380 N 625.236 -1.5273 0.388769 0
M  V30 6381 C 626.483 -2.01573 -0.19359 0
M  V30 6382 C 626.811 -1.27525 -1.46859 0
M  V30 6383 O 626.066 -0.363926 -1.92286 0
M  V30 6384 C 626.365 -3.53765 -0.508445 0
M  V30 6385 C 626.031 -4.4582 0.674947 0
M  V30 6386 C 624.693 -4.70703 0.999596 0
M  V30 6387 C 627.045 -5.00138 1.46666 0
M  V30 6388 C 624.373 -5.47155 2.11751 0
M  V30 6389 C 626.725 -5.77812 2.57518 0
M  V30 6390 C 625.389 -6.00975 2.90492 0
M  V30 6391 H 624.659 -0.737606 -0.0708397 0
M  V30 6392 H 627.306 -1.84134 0.526006 0
M  V30 6393 H 625.611 -3.69274 -1.30936 0
M  V30 6394 H 627.308 -3.8905 -0.971664 0
M  V30 6395 H 623.898 -4.26616 0.411906 0
M  V30 6396 H 628.082 -4.8084 1.22909 0
M  V30 6397 H 623.338 -5.63314 2.3767 0
M  V30 6398 H 627.512 -6.18904 3.19267 0
M  V30 6399 H 625.139 -6.59998 3.77236 0
M  V30 6400 N 626.714 -0.118576 -1.57153 0
M  V30 6401 C 627.944 0.546466 -1.99242 0
M  V30 6402 C 628.352 1.60791 -0.997148 0
M  V30 6403 O 627.695 1.83691 0.0181745 0
M  V30 6404 C 627.757 1.23167 -3.37743 0
M  V30 6405 C 627.421 0.318226 -4.55891 0
M  V30 6406 C 628.418 -0.442988 -5.18009 0
M  V30 6407 C 626.103 0.229421 -5.01776 0
M  V30 6408 C 628.097 -1.28074 -6.244 0
M  V30 6409 C 625.784 -0.611966 -6.08028 0
M  V30 6410 C 626.782 -1.36568 -6.69207 0
M  V30 6411 O 626.47 -2.1931 -7.73407 0
M  V30 6412 H 626.202 0.149297 -0.659307 0
M  V30 6413 H 628.756 -0.201603 -2.04408 0
M  V30 6414 H 626.986 2.0268 -3.29329 0
M  V30 6415 H 628.675 1.79358 -3.64123 0
M  V30 6416 H 629.441 -0.38425 -4.83475 0
M  V30 6417 H 625.32 0.805771 -4.53903 0
M  V30 6418 H 628.864 -1.86952 -6.72082 0
M  V30 6419 H 624.761 -0.6721 -6.41991 0
M  V30 6420 H 625.529 -2.12247 -7.90502 0
M  V30 6421 N 628.193 1.56834 0.155195 0
M  V30 6422 C 629.441 1.82536 0.867462 0
M  V30 6423 C 629.762 0.698168 1.82073 0
M  V30 6424 O 629.032 -0.280807 1.93877 0
M  V30 6425 H 627.612 0.673401 0.323327 0
M  V30 6426 H 630.274 1.94313 0.151156 0
M  V30 6427 H 629.37 2.77171 1.43466 0
M  V30 6428 N 629.671 -0.424282 1.51781 0
M  V30 6429 C 630.619 -1.53649 1.74628 0
M  V30 6430 C 631.613 -1.57923 0.612922 0
M  V30 6431 O 632.819 -1.61511 0.794618 0
M  V30 6432 H 629.194 -0.510706 0.551981 0
M  V30 6433 H 631.165 -1.31558 2.67834 0
M  V30 6434 C 629.914 -2.91177 1.9003 0
M  V30 6435 H 629.237 -2.88625 2.76651 0
M  V30 6436 H 630.677 -3.6833 2.10021 0
M  V30 6437 C 629.136 -3.30303 0.663435 0
M  V30 6438 O 629.666 -4.01315 -0.175812 0
M  V30 6439 N 627.872 -2.86201 0.503723 0
M  V30 6440 H 627.419 -2.28583 1.18776 0
M  V30 6441 H 627.377 -3.12741 -0.322575 0
M  V30 6442 N 631.149 -1.42148 -0.680565 0
M  V30 6443 C 632.56 -1.3768 -1.26099 0
M  V30 6444 C 632.911 -0.0672348 -1.96085 0
M  V30 6445 O 632.036 0.834172 -1.99676 0
M  V30 6446 C 632.631 -2.49387 -2.29328 0
M  V30 6447 C 631.19 -2.4827 -2.82911 0
M  V30 6448 C 630.337 -2.2847 -1.57152 0
M  V30 6449 H 633.288 -1.51446 -0.474326 0
M  V30 6450 H 633.309 -2.19307 -3.10941 0
M  V30 6451 H 632.821 -3.44686 -1.78363 0
M  V30 6452 H 630.922 -1.56773 -3.38013 0
M  V30 6453 H 631.035 -3.45109 -3.3232 0
M  V30 6454 H 629.399 -1.76623 -1.83511 0
M  V30 6455 H 630.182 -3.25816 -1.0816 0
M  V30 6456 N 632.627 0.916307 -1.28225 0
M  V30 6457 C 633.575 2.03977 -1.11786 0
M  V30 6458 C 634.569 1.69358 -0.0378265 0
M  V30 6459 O 635.775 1.78925 -0.196405 0
M  V30 6460 H 632.15 0.66829 -0.344809 0
M  V30 6461 H 634.121 2.14985 -2.06939 0
M  V30 6462 C 632.87 3.38518 -0.7938 0
M  V30 6463 H 632.193 3.65649 -1.61682 0
M  V30 6464 H 633.633 4.17864 -0.718719 0
M  V30 6465 C 632.092 3.33134 0.502353 0
M  V30 6466 O 632.622 3.71281 1.53341 0
M  V30 6467 N 630.828 2.86229 0.502147 0
M  V30 6468 H 630.375 2.55382 -0.337338 0
M  V30 6469 H 630.333 2.83009 1.36942 0
M  V30 6470 N 634.105 1.10431 1.1244 0
M  V30 6471 C 635.035 0.775143 2.20258 0
M  V30 6472 C 636.016 -0.25186 1.68225 0
M  V30 6473 O 637.201 -0.117637 1.93843 0
M  V30 6474 C 634.331 0.206133 3.46688 0
M  V30 6475 C 633.285 1.16382 4.11873 0
M  V30 6476 C 632.611 0.456014 5.32752 0
M  V30 6477 C 633.911 2.5104 4.58013 0
M  V30 6478 H 635.605 1.67665 2.4805 0
M  V30 6479 H 633.151 0.807595 1.19222 0
M  V30 6480 H 635.104 -0.036291 4.21384 0
M  V30 6481 H 633.828 -0.730614 3.18323 0
M  V30 6482 H 632.487 1.39169 3.39157 0
M  V30 6483 H 632.135 -0.485203 5.00654 0
M  V30 6484 H 631.835 1.09466 5.77314 0
M  V30 6485 H 633.359 0.222135 6.10196 0
M  V30 6486 H 634.773 2.32401 5.24083 0
M  V30 6487 H 633.17 3.10789 5.13352 0
M  V30 6488 H 634.24 3.11039 3.71998 0
M  V30 6489 N 635.583 -1.29855 0.893053 0
M  V30 6490 C 636.86 -1.90694 0.435336 0
M  V30 6491 C 637.24 -1.8111 -1.08454 0
M  V30 6492 O 636.588 -1.23352 -1.92345 0
M  V30 6493 C 636.798 -3.36033 0.942472 0
M  V30 6494 C 638.146 -4.13083 0.982226 0
M  V30 6495 O 639.17 -3.4491 0.889686 0
M  V30 6496 O 638.029 -5.34896 1.12022 0
M  V30 6497 H 635.123 -0.815978 0.134567 0
M  V30 6498 H 637.669 -1.38367 0.982484 0
M  V30 6499 H 636.441 -3.37132 1.9864 0
M  V30 6500 H 636.064 -3.95828 0.374952 0
M  V30 6501 N 637.061 -0.65484 -1.43351 0
M  V30 6502 C 638.472 -0.248506 -1.85039 0
M  V30 6503 C 638.823 1.20526 -1.54816 0
M  V30 6504 O 637.948 1.92016 -0.99794 0
M  V30 6505 C 638.543 -0.444241 -3.35875 0
M  V30 6506 C 637.102 -0.0922108 -3.76287 0
M  V30 6507 C 636.249 -0.746327 -2.67068 0
M  V30 6508 H 639.2 -0.8584 -1.33481 0
M  V30 6509 H 639.221 0.309762 -3.79237 0
M  V30 6510 H 638.733 -1.50239 -3.5784 0
M  V30 6511 H 636.834 0.96328 -3.59933 0
M  V30 6512 H 636.947 -0.518807 -4.76283 0
M  V30 6513 H 635.311 -0.179416 -2.54067 0
M  V30 6514 H 636.094 -1.80754 -2.91861 0
M  V30 6515 N 638.539 1.52521 -0.396863 0
M  V30 6516 C 639.449 2.30403 0.44178 0
M  V30 6517 C 640.465 1.37625 1.06468 0
M  V30 6518 O 641.641 1.70697 1.06886 0
M  V30 6519 C 638.706 3.1013 1.54986 0
M  V30 6520 C 637.767 4.18628 0.951279 0
M  V30 6521 C 637 4.94543 2.00655 0
M  V30 6522 O 637.223 4.70629 3.22281 0
M  V30 6523 O 636.157 5.797 1.61962 0
M  V30 6524 H 639.983 3.03087 -0.192892 0
M  V30 6525 H 637.568 1.48537 -0.16038 0
M  V30 6526 H 639.45 3.59816 2.19341 0
M  V30 6527 H 638.125 2.40251 2.16935 0
M  V30 6528 H 637.032 3.73119 0.270773 0
M  V30 6529 H 638.365 4.90763 0.375887 0
M  V30 6530 N 640.017 0.126909 1.57088 0
M  V30 6531 C 640.964 -0.82036 2.15728 0
M  V30 6532 C 641.934 -1.25811 1.08447 0
M  V30 6533 O 643.119 -1.33422 1.36393 0
M  V30 6534 C 640.259 -2.06199 2.76724 0
M  V30 6535 C 639.372 -1.67188 3.98337 0
M  V30 6536 C 638.507 -2.86378 4.47393 0
M  V30 6537 C 637.546 -2.43644 5.61519 0
M  V30 6538 N 636.683 -3.55775 6.05284 0
M  V30 6539 H 641.523 -0.313472 2.96347 0
M  V30 6540 H 639.06 -0.14303 1.46403 0
M  V30 6541 H 641.018 -2.78959 3.10222 0
M  V30 6542 H 639.648 -2.54333 1.98782 0
M  V30 6543 H 638.7 -0.842714 3.70948 0
M  V30 6544 H 640.012 -1.31789 4.81075 0
M  V30 6545 H 639.166 -3.67353 4.82842 0
M  V30 6546 H 637.905 -3.25009 3.63621 0
M  V30 6547 H 636.91 -1.61104 5.25667 0
M  V30 6548 H 638.135 -2.06122 6.47063 0
M  V30 6549 H 636.081 -3.94065 5.24451 0
M  V30 6550 H 635.998 -3.24325 6.82898 0
M  V30 6551 H 637.266 -4.37166 6.45373 0
M  V30 6552 N 641.495 -1.56914 -0.146875 0
M  V30 6553 C 642.72 -1.87881 -0.878386 0
M  V30 6554 C 643.145 -0.715945 -1.73942 0
M  V30 6555 O 642.503 0.334447 -1.78189 0
M  V30 6556 C 642.551 -3.17431 -1.71084 0
M  V30 6557 O 641.655 -3.01374 -2.81509 0
M  V30 6558 H 640.996 -0.617289 -0.244644 0
M  V30 6559 H 643.526 -2.04136 -0.137654 0
M  V30 6560 H 643.536 -3.49455 -2.10582 0
M  V30 6561 H 642.211 -4.01671 -1.07856 0
M  V30 6562 H 640.788 -2.80758 -2.45416 0
M  V30 6563 N 642.974 0.416227 -1.52004 0
M  V30 6564 C 643.921 1.50666 -1.74838 0
M  V30 6565 C 644.891 1.55245 -0.590599 0
M  V30 6566 O 646.076 1.71928 -0.827374 0
M  V30 6567 C 643.216 2.88185 -1.89851 0
M  V30 6568 C 642.329 2.92971 -3.17478 0
M  V30 6569 C 641.464 4.21745 -3.22962 0
M  V30 6570 C 640.503 4.20478 -4.4482 0
M  V30 6571 N 639.64 5.40811 -4.47736 0
M  V30 6572 H 644.48 1.30498 -2.67907 0
M  V30 6573 H 642.017 0.633568 -1.32757 0
M  V30 6574 H 643.975 3.68007 -1.96537 0
M  V30 6575 H 642.605 3.06865 -1.00169 0
M  V30 6576 H 641.657 2.05684 -3.19997 0
M  V30 6577 H 642.969 2.87899 -4.07328 0
M  V30 6578 H 642.123 5.09954 -3.28682 0
M  V30 6579 H 640.862 4.29503 -2.31038 0
M  V30 6580 H 639.867 3.30659 -4.39254 0
M  V30 6581 H 641.092 4.14366 -5.38031 0
M  V30 6582 H 639.038 5.4925 -3.58692 0
M  V30 6583 H 638.955 5.37705 -5.31422 0
M  V30 6584 H 640.223 6.30993 -4.57676 0
M  V30 6585 N 644.452 1.42507 0.673017 0
M  V30 6586 C 645.384 1.42074 1.79854 0
M  V30 6587 C 646.397 0.319569 1.59633 0
M  V30 6588 O 647.586 0.582769 1.68719 0
M  V30 6589 C 644.686 1.19886 3.16987 0
M  V30 6590 C 643.859 2.42471 3.64042 0
M  V30 6591 C 642.918 2.15802 4.79913 0
M  V30 6592 O 641.944 2.89015 4.90366 0
M  V30 6593 N 643.146 1.16225 5.68746 0
M  V30 6594 H 645.911 2.3909 1.8071 0
M  V30 6595 H 643.472 1.37409 0.856171 0
M  V30 6596 H 645.464 0.999591 3.92161 0
M  V30 6597 H 644.034 0.313879 3.1102 0
M  V30 6598 H 643.254 2.77954 2.79526 0
M  V30 6599 H 644.542 3.24097 3.92223 0
M  V30 6600 H 643.94 0.556756 5.62954 0
M  V30 6601 H 642.497 1.02285 6.43724 0
M  V30 6602 N 645.93 -0.909495 1.28709 0
M  V30 6603 C 647.176 -1.66175 1.17293 0
M  V30 6604 C 647.531 -1.90426 -0.274891 0
M  V30 6605 O 646.824 -1.49659 -1.19635 0
M  V30 6606 C 647.018 -3.02117 1.90945 0
M  V30 6607 C 646.847 -2.91134 3.42741 0
M  V30 6608 C 645.617 -2.92429 4.12085 0
M  V30 6609 C 647.815 -2.68889 4.3841 0
M  V30 6610 N 645.797 -2.72078 5.50315 0
M  V30 6611 C 647.168 -2.57423 5.64033 0
M  V30 6612 C 649.223 -2.53919 4.28287 0
M  V30 6613 C 647.926 -2.32513 6.80683 0
M  V30 6614 C 649.952 -2.3039 5.44678 0
M  V30 6615 C 649.314 -2.19682 6.69268 0
M  V30 6616 H 645.413 -0.614095 0.48416 0
M  V30 6617 H 647.997 -1.07377 1.62414 0
M  V30 6618 H 646.168 -3.58993 1.48252 0
M  V30 6619 H 647.9 -3.66388 1.71878 0
M  V30 6620 H 644.655 -3.03345 3.63701 0
M  V30 6621 H 645.079 -2.64983 6.22987 0
M  V30 6622 H 649.721 -2.60946 3.32666 0
M  V30 6623 H 647.439 -2.24225 7.76369 0
M  V30 6624 H 651.025 -2.19665 5.38738 0
M  V30 6625 H 649.905 -2.01725 7.5781 0
M  V30 6626 N 647.408 -1.11026 -1.11852 0
M  V30 6627 C 648.318 -0.777252 -2.2135 0
M  V30 6628 C 649.334 0.227821 -1.72502 0
M  V30 6629 O 650.51 0.0650587 -2.01295 0
M  V30 6630 C 647.575 -0.220668 -3.45997 0
M  V30 6631 C 646.636 -1.2838 -4.09655 0
M  V30 6632 C 645.869 -0.753678 -5.28352 0
M  V30 6633 O 646.092 0.417779 -5.68868 0
M  V30 6634 O 645.026 -1.51647 -5.82483 0
M  V30 6635 H 648.852 -1.69141 -2.5224 0
M  V30 6636 H 646.437 -0.885836 -1.20305 0
M  V30 6637 H 648.319 0.0855756 -4.21313 0
M  V30 6638 H 646.994 0.666262 -3.16769 0
M  V30 6639 H 645.901 -1.64299 -3.3609 0
M  V30 6640 H 647.234 -2.14396 -4.43052 0
M  V30 6641 N 648.886 1.2938 -0.899927 0
M  V30 6642 C 650.134 1.95164 -0.524924 0
M  V30 6643 C 650.455 1.71292 0.931888 0
M  V30 6644 O 649.725 1.04481 1.65712 0
M  V30 6645 H 648.305 0.722133 -0.191135 0
M  V30 6646 H 650.967 1.57628 -1.14627 0
M  V30 6647 H 650.063 3.0397 -0.707711 0
M  V30 6648 N 650.364 0.662433 1.43002 0
M  V30 6649 C 651.327 -0.0142016 2.29196 0
M  V30 6650 C 652.327 -0.741394 1.42688 0
M  V30 6651 O 653.517 -0.581257 1.64216 0
M  V30 6652 C 650.649 -1.03084 3.24941 0
M  V30 6653 H 651.842 0.7443 2.90517 0
M  V30 6654 H 649.395 0.424133 1.50435 0
M  V30 6655 H 650.13 -1.81826 2.68533 0
M  V30 6656 H 649.915 -0.512946 3.8873 0
M  V30 6657 H 651.405 -1.50308 3.89612 0
M  V30 6658 N 651.842 -1.52309 0.404946 0
M  V30 6659 C 653.089 -2.01767 -0.1722 0
M  V30 6660 C 653.417 -1.29075 -1.45498 0
M  V30 6661 O 652.672 -0.3843 -1.9189 0
M  V30 6662 C 652.971 -3.54284 -0.470895 0
M  V30 6663 C 652.637 -4.45079 0.722194 0
M  V30 6664 C 651.299 -4.69617 1.04946 0
M  V30 6665 C 653.651 -4.98555 1.51962 0
M  V30 6666 C 650.979 -5.44878 2.17543 0
M  V30 6667 C 653.331 -5.75049 2.63632 0
M  V30 6668 C 651.995 -5.9786 2.9685 0
M  V30 6669 H 651.265 -0.738316 -0.0630125 0
M  V30 6670 H 653.912 -1.83566 0.545506 0
M  V30 6671 H 652.217 -3.70642 -1.27012 0
M  V30 6672 H 653.914 -3.90058 -0.930346 0
M  V30 6673 H 650.504 -4.26155 0.457131 0
M  V30 6674 H 654.688 -4.79509 1.28002 0
M  V30 6675 H 649.944 -5.60762 2.43631 0
M  V30 6676 H 654.118 -6.15483 3.25813 0
M  V30 6677 H 651.745 -6.5596 3.84215 0
M  V30 6678 N 653.32 -0.135238 -1.57019 0
M  V30 6679 C 654.23 0.822226 -2.19719 0
M  V30 6680 C 655.246 1.28057 -1.17802 0
M  V30 6681 O 656.422 1.3402 -1.50335 0
M  V30 6682 C 653.487 2.0484 -2.79717 0
M  V30 6683 C 652.548 1.64042 -3.96723 0
M  V30 6684 C 651.781 2.80814 -4.53849 0
M  V30 6685 O 652.004 3.967 -4.0986 0
M  V30 6686 O 650.938 2.56963 -5.44292 0
M  V30 6687 H 654.764 0.318552 -3.02025 0
M  V30 6688 H 652.349 0.0912021 -1.49121 0
M  V30 6689 H 654.231 2.76622 -3.17897 0
M  V30 6690 H 652.906 2.54182 -2.00432 0
M  V30 6691 H 651.813 0.893182 -3.63281 0
M  V30 6692 H 653.146 1.19426 -4.77492 0
M  V30 6693 N 654.798 1.5699 0.138552 0
M  V30 6694 C 656.046 1.83446 0.848053 0
M  V30 6695 C 656.367 0.71744 1.81322 0
M  V30 6696 O 655.637 -0.260228 1.94164 0
M  V30 6697 H 654.217 0.676792 0.316166 0
M  V30 6698 H 656.879 1.94462 0.130538 0
M  V30 6699 H 655.975 2.78677 1.40518 0
M  V30 6700 N 656.276 -0.40816 1.52223 0
M  V30 6701 C 657.206 -1.5042 1.78595 0
M  V30 6702 C 658.187 -1.57723 0.636974 0
M  V30 6703 O 659.372 -1.72982 0.882664 0
M  V30 6704 C 656.502 -2.88232 1.93751 0
M  V30 6705 C 655.456 -2.95779 3.09352 0
M  V30 6706 C 654.782 -4.35855 3.09732 0
M  V30 6707 C 656.082 -2.67175 4.48793 0
M  V30 6708 H 657.776 -1.28601 2.70374 0
M  V30 6709 H 655.322 -0.617221 1.30101 0
M  V30 6710 H 657.275 -3.64895 2.10783 0
M  V30 6711 H 655.999 -3.11347 0.986443 0
M  V30 6712 H 654.658 -2.21561 2.92072 0
M  V30 6713 H 654.306 -4.55981 2.12346 0
M  V30 6714 H 654.006 -4.41829 3.87377 0
M  V30 6715 H 655.53 -5.14451 3.28895 0
M  V30 6716 H 656.944 -3.3356 4.66273 0
M  V30 6717 H 655.341 -2.84523 5.28362 0
M  V30 6718 H 656.411 -1.62609 4.56822 0
M  V30 6719 N 657.755 -1.42862 -0.66545 0
M  V30 6720 C 658.983 -1.47246 -1.45349 0
M  V30 6721 C 659.398 -0.0865944 -1.88601 0
M  V30 6722 O 658.755 0.900652 -1.58728 0
M  V30 6723 C 658.806 -2.40772 -2.6965 0
M  V30 6724 O 658.527 -3.73968 -2.2821 0
M  V30 6725 C 660.028 -2.54272 -3.63126 0
M  V30 6726 H 657.248 -0.500497 -0.446927 0
M  V30 6727 H 659.792 -1.87477 -0.816871 0
M  V30 6728 H 657.947 -2.0377 -3.29479 0
M  V30 6729 H 658.361 -4.24146 -3.08546 0
M  V30 6730 H 659.835 -3.23815 -4.47043 0
M  V30 6731 H 660.312 -1.58364 -4.09656 0
M  V30 6732 H 660.918 -2.92036 -3.09185 0
M  V30 6733 N 659.233 0.902656 -1.29189 0
M  V30 6734 C 660.196 1.98797 -1.14071 0
M  V30 6735 C 661.196 1.60615 -0.0770549 0
M  V30 6736 O 662.386 1.71165 -0.323753 0
M  V30 6737 C 659.518 3.32688 -0.743739 0
M  V30 6738 H 660.711 2.13637 -2.10473 0
M  V30 6739 H 658.264 1.08678 -1.12334 0
M  V30 6740 H 658.999 3.23549 0.220554 0
M  V30 6741 H 658.784 3.61765 -1.51223 0
M  V30 6742 H 660.274 4.12337 -0.660935 0
M  V30 6743 N 660.711 1.11618 1.11262 0
M  V30 6744 C 661.959 0.864469 1.82678 0
M  V30 6745 C 662.28 -0.611564 1.85162 0
M  V30 6746 O 661.55 -1.44429 1.32352 0
M  V30 6747 H 660.13 0.316821 0.676486 0
M  V30 6748 H 662.792 1.40894 1.34666 0
M  V30 6749 H 661.888 1.23832 2.86482 0
M  V30 6750 N 662.189 -1.289 0.906776 0
M  V30 6751 C 663.435 -1.95558 0.53712 0
M  V30 6752 C 663.768 -1.71262 -0.915582 0
M  V30 6753 O 663.043 -1.02961 -1.65013 0
M  V30 6754 C 663.326 -3.50198 0.838645 0
M  V30 6755 C 663.179 -3.83923 2.34357 0
M  V30 6756 C 664.498 -4.38861 0.329988 0
M  V30 6757 H 661.617 -0.710289 0.196617 0
M  V30 6758 H 664.259 -1.52392 1.13475 0
M  V30 6759 H 662.409 -3.87096 0.330024 0
M  V30 6760 H 664.081 -3.56933 2.92227 0
M  V30 6761 H 662.324 -3.31215 2.80141 0
M  V30 6762 H 662.995 -4.91883 2.5051 0
M  V30 6763 H 665.471 -4.08996 0.765609 0
M  V30 6764 H 664.347 -5.45931 0.570105 0
M  V30 6765 H 664.608 -4.35352 -0.769511 0
M  V30 6766 N 663.667 -0.670007 -1.42649 0
M  V30 6767 C 664.615 0.0230106 -2.32589 0
M  V30 6768 C 665.609 0.795585 -1.49555 0
M  V30 6769 O 666.815 0.70409 -1.65658 0
M  V30 6770 H 663.19 0.0262342 -0.751542 0
M  V30 6771 H 665.161 -0.753009 -2.88743 0
M  V30 6772 C 663.91 0.963872 -3.34073 0
M  V30 6773 H 663.233 0.378813 -3.98001 0
M  V30 6774 H 664.673 1.41755 -3.99602 0
M  V30 6775 C 663.132 2.06797 -2.65964 0
M  V30 6776 O 663.662 3.15383 -2.48789 0
M  V30 6777 N 661.868 1.83831 -2.25066 0
M  V30 6778 H 661.415 0.955235 -2.39234 0
M  V30 6779 H 661.373 2.57895 -1.79827 0
M  V30 6780 N 665.145 1.52092 -0.413018 0
M  V30 6781 C 666.391 2.02815 0.154104 0
M  V30 6782 C 666.746 1.293 1.42475 0
M  V30 6783 O 666.039 0.391835 1.87551 0
M  V30 6784 C 666.233 3.54529 0.4521 0
M  V30 6785 C 666.062 4.4274 -0.788116 0
M  V30 6786 C 664.832 4.87903 -1.31447 0
M  V30 6787 C 667.03 4.86522 -1.66735 0
M  V30 6788 N 665.012 5.60254 -2.50976 0
M  V30 6789 C 666.383 5.57692 -2.70886 0
M  V30 6790 C 668.438 4.68534 -1.68465 0
M  V30 6791 C 667.141 6.12783 -3.76682 0
M  V30 6792 C 669.167 5.24524 -2.73182 0
M  V30 6793 C 668.529 5.9562 -3.76054 0
M  V30 6794 H 664.628 0.781796 0.0178567 0
M  V30 6795 H 667.212 1.86223 -0.568237 0
M  V30 6796 H 665.383 3.71186 1.14348 0
M  V30 6797 H 667.115 3.91934 1.00844 0
M  V30 6798 H 663.87 4.65504 -0.871931 0
M  V30 6799 H 664.294 6.01069 -3.11521 0
M  V30 6800 H 668.936 4.13051 -0.902708 0
M  V30 6801 H 666.654 6.67335 -4.55729 0
M  V30 6802 H 670.24 5.12473 -2.75433 0
M  V30 6803 H 669.12 6.38169 -4.55752 0
M  V30 6804 N 666.623 0.143563 1.56945 0
M  V30 6805 C 668.039 -0.212877 1.58174 0
M  V30 6806 C 668.239 -1.64926 1.15766 0
M  V30 6807 O 667.295 -2.37535 0.856361 0
M  V30 6808 C 668.608 0.0427573 3.0067 0
M  V30 6809 C 670.156 -0.0212221 3.12993 0
M  V30 6810 C 670.631 0.207036 4.57532 0
M  V30 6811 N 672.122 0.153845 4.62944 0
M  V30 6812 C 672.857 0.305018 5.72588 0
M  V30 6813 N 672.353 0.513722 6.90893 0
M  V30 6814 N 674.146 0.242862 5.61575 0
M  V30 6815 H 666.297 1.08148 1.82805 0
M  V30 6816 H 668.56 0.427831 0.84597 0
M  V30 6817 H 668.266 1.03672 3.36073 0
M  V30 6818 H 668.14 -0.678195 3.71053 0
M  V30 6819 H 670.527 -1.00574 2.77433 0
M  V30 6820 H 670.608 0.732004 2.45103 0
M  V30 6821 H 670.252 1.18863 4.93795 0
M  V30 6822 H 670.182 -0.566473 5.23544 0
M  V30 6823 H 672.673 -0.00294866 3.779 0
M  V30 6824 H 672.986 0.619273 7.70315 0
M  V30 6825 H 671.331 0.550001 6.9282 0
M  V30 6826 H 674.522 0.0806015 4.68031 0
M  V30 6827 H 674.695 0.364112 6.46976 0
M  V30 6828 N 668.101 -1.57061 -0.130224 0
M  V30 6829 C 669.35 -1.83446 -0.838488 0
M  V30 6830 C 669.663 -0.727468 -1.81569 0
M  V30 6831 O 670.869 -0.877394 -2.56932 0
M  V30 6832 C 669.325 -3.25201 -1.54182 0
M  V30 6833 C 668.933 -4.4388 -0.606178 0
M  V30 6834 C 670.677 -3.60844 -2.23588 0
M  V30 6835 C 668.584 -5.76661 -1.31209 0
M  V30 6836 H 667.514 -0.684185 -0.316871 0
M  V30 6837 H 670.165 -1.83273 -0.0912059 0
M  V30 6838 H 668.547 -3.1981 -2.33533 0
M  V30 6839 H 669.721 -4.60545 0.153308 0
M  V30 6840 H 668.036 -4.16395 -0.0196705 0
M  V30 6841 H 670.633 -4.57313 -2.77072 0
M  V30 6842 H 670.976 -2.87724 -3.00867 0
M  V30 6843 H 671.509 -3.67971 -1.51137 0
M  V30 6844 H 668.248 -6.52922 -0.580823 0
M  V30 6845 H 667.768 -5.63902 -2.04387 0
M  V30 6846 H 669.447 -6.20035 -1.8484 0
M  V30 6847 N 669.579 0.400081 -1.52437 0
M  V30 6848 C 670.804 1.17221 -1.71096 0
M  V30 6849 C 671.229 1.83269 -0.423565 0
M  V30 6850 O 670.587 1.70378 0.619751 0
M  V30 6851 C 670.635 2.20425 -2.85386 0
M  V30 6852 O 669.739 3.26769 -2.51586 0
M  V30 6853 H 669.08 0.341766 -0.569291 0
M  V30 6854 H 671.61 0.467772 -1.99181 0
M  V30 6855 H 671.62 2.64605 -3.10561 0
M  V30 6856 H 670.295 1.71737 -3.78786 0
M  V30 6857 H 668.872 2.87804 -2.37114 0
M  V30 6858 N 671.057 1.43213 0.657864 0
M  V30 6859 C 672.305 1.44298 1.41501 0
M  V30 6860 C 672.626 0.0666478 1.94886 0
M  V30 6861 O 671.896 -0.897345 1.74139 0
M  V30 6862 H 670.476 0.531257 0.525143 0
M  V30 6863 H 673.138 1.78777 0.776195 0
M  V30 6864 H 672.234 2.1528 2.25966 0
M  V30 6865 N 672.536 -0.895792 1.29666 0
M  V30 6866 C 673.766 -1.67757 1.20586 0
M  V30 6867 C 674.174 -1.87729 -0.235432 0
M  V30 6868 O 673.517 -1.41706 -1.16898 0
M  V30 6869 C 673.579 -3.08117 1.85215 0
M  V30 6870 C 673.243 -3.1136 3.3452 0
M  V30 6871 C 674.24 -2.91217 4.30684 0
M  V30 6872 C 671.925 -3.33302 3.75786 0
M  V30 6873 C 673.919 -2.92955 5.66089 0
M  V30 6874 C 671.606 -3.3467 5.11311 0
M  V30 6875 C 672.604 -3.14519 6.06273 0
M  V30 6876 O 672.292 -3.15684 7.39323 0
M  V30 6877 H 672.024 -0.530601 0.418854 0
M  V30 6878 H 674.578 -1.12831 1.71634 0
M  V30 6879 H 672.808 -3.64661 1.28683 0
M  V30 6880 H 674.497 -3.68399 1.70403 0
M  V30 6881 H 675.263 -2.74074 4.00136 0
M  V30 6882 H 671.142 -3.48025 3.02324 0
M  V30 6883 H 674.686 -2.77145 6.40185 0
M  V30 6884 H 670.583 -3.51346 5.41504 0
M  V30 6885 H 671.351 -3.31924 7.48177 0
M  V30 6886 N 674.014 -1.12206 -1.10668 0
M  V30 6887 C 675.43 -0.857619 -1.346 0
M  V30 6888 C 675.63 0.513542 -1.94846 0
M  V30 6889 O 674.686 1.26273 -2.18658 0
M  V30 6890 C 675.999 -1.97212 -2.26998 0
M  V30 6891 C 677.547 -2.00272 -2.40542 0
M  V30 6892 C 678.022 -3.10948 -3.36267 0
M  V30 6893 N 679.513 -3.10375 -3.43834 0
M  V30 6894 C 680.248 -3.92651 -4.17867 0
M  V30 6895 N 679.744 -4.84911 -4.94807 0
M  V30 6896 N 681.537 -3.80798 -4.1346 0
M  V30 6897 H 673.688 -2.00558 -0.699306 0
M  V30 6898 H 675.951 -0.872612 -0.370477 0
M  V30 6899 H 675.657 -2.96002 -1.89936 0
M  V30 6900 H 675.531 -1.87521 -3.27286 0
M  V30 6901 H 677.918 -1.02103 -2.76874 0
M  V30 6902 H 677.999 -2.14037 -1.40077 0
M  V30 6903 H 677.643 -4.09348 -3.00661 0
M  V30 6904 H 677.573 -2.94421 -4.36605 0
M  V30 6905 H 680.064 -2.43536 -2.88961 0
M  V30 6906 H 680.377 -5.44207 -5.48688 0
M  V30 6907 H 678.722 -4.88926 -4.93939 0
M  V30 6908 H 681.913 -3.08058 -3.52445 0
M  V30 6909 H 682.086 -4.4515 -4.70898 0
M  V30 6910 N 675.492 1.28418 -0.913599 0
M  V30 6911 C 676.44 2.29272 -0.392037 0
M  V30 6912 C 677.434 1.61344 0.516198 0
M  V30 6913 O 678.64 1.75557 0.39746 0
M  V30 6914 H 675.015 0.744178 -0.108178 0
M  V30 6915 H 676.986 2.70691 -1.25574 0
M  V30 6916 C 675.735 3.45905 0.352815 0
M  V30 6917 H 675.058 3.98378 -0.336848 0
M  V30 6918 H 676.498 4.18473 0.682398 0
M  V30 6919 C 674.957 2.98572 1.56065 0
M  V30 6920 O 675.487 3.01033 2.65974 0
M  V30 6921 N 673.693 2.54235 1.40759 0
M  V30 6922 H 673.24 2.52432 0.513403 0
M  V30 6923 H 673.198 2.22925 2.21702 0
M  V30 6924 N 676.97 0.677563 1.42291 0
M  V30 6925 C 678.247 0.129803 1.95169 0
M  V30 6926 C 678.627 -1.35605 1.61786 0
M  V30 6927 O 677.975 -2.09361 0.915444 0
M  V30 6928 C 678.185 0.401889 3.46678 0
M  V30 6929 C 679.533 0.319889 4.23393 0
M  V30 6930 O 680.557 0.33579 3.54614 0
M  V30 6931 O 679.416 0.264459 5.4586 0
M  V30 6932 H 676.51 0.00447433 0.826988 0
M  V30 6933 H 679.056 0.752483 1.52105 0
M  V30 6934 H 677.828 1.43108 3.64192 0
M  V30 6935 H 677.451 -0.252662 3.96796 0
M  V30 6936 N 678.448 -1.51871 0.421078 0
M  V30 6937 C 679.694 -2.02237 -0.151014 0
M  V30 6938 C 680.027 -1.30554 -1.43768 0
M  V30 6939 O 679.302 -0.41546 -1.90011 0
M  V30 6940 C 679.585 -3.5802 -0.386482 0
M  V30 6941 C 679.438 -4.40339 0.9177 0
M  V30 6942 C 680.757 -4.24444 -1.16342 0
M  V30 6943 H 677.876 -0.735062 -0.0534102 0
M  V30 6944 H 680.518 -1.81656 0.556888 0
M  V30 6945 H 678.668 -3.75688 -0.989494 0
M  V30 6946 H 680.34 -4.34357 1.55344 0
M  V30 6947 H 678.583 -4.06073 1.526 0
M  V30 6948 H 679.254 -5.47451 0.707187 0
M  V30 6949 H 681.73 -4.10948 -0.652788 0
M  V30 6950 H 680.606 -5.33358 -1.29693 0
M  V30 6951 H 680.867 -3.84204 -2.18724 0
M  V30 6952 N 679.926 -0.151884 -1.56866 0
M  V30 6953 C 681.151 0.508044 -2.01081 0
M  V30 6954 C 681.576 1.57306 -1.03134 0
M  V30 6955 O 680.934 1.81298 -0.0078309 0
M  V30 6956 C 680.982 1.08106 -3.44014 0
M  V30 6957 O 680.086 2.19577 -3.49084 0
M  V30 6958 H 679.427 0.123757 -0.652365 0
M  V30 6959 H 681.957 -0.250055 -2.03066 0
M  V30 6960 H 681.967 1.40851 -3.82916 0
M  V30 6961 H 680.642 0.301168 -4.14808 0
M  V30 6962 H 679.219 1.88023 -3.22027 0
M  V30 6963 N 681.404 1.57128 0.121893 0
M  V30 6964 C 682.681 1.75664 0.860327 0
M  V30 6965 C 683.061 0.726585 1.98202 0
M  V30 6966 O 682.409 -0.24999 2.27128 0
M  V30 6967 C 682.619 3.20571 1.37968 0
M  V30 6968 C 683.967 3.82988 1.83317 0
M  V30 6969 O 684.991 3.24156 1.47654 0
M  V30 6970 O 683.85 4.86393 2.49168 0
M  V30 6971 H 680.944 0.719153 0.408348 0
M  V30 6972 H 683.49 1.6937 0.105859 0
M  V30 6973 H 682.262 3.87056 0.57477 0
M  V30 6974 H 681.885 3.31392 2.19694 0
M  V30 6975 N 682.882 -0.391992 1.52647 0
M  V30 6976 C 683.812 -1.48517 1.8018 0
M  V30 6977 C 684.793 -1.57039 0.653667 0
M  V30 6978 O 685.978 -1.72036 0.900962 0
M  V30 6979 C 683.108 -2.86161 1.96797 0
M  V30 6980 C 682.062 -2.92481 3.12472 0
M  V30 6981 C 681.388 -4.32546 3.14338 0
M  V30 6982 C 682.688 -2.624 4.51601 0
M  V30 6983 H 684.382 -1.25726 2.71723 0
M  V30 6984 H 681.928 -0.603387 1.30749 0
M  V30 6985 H 683.881 -3.62639 2.14641 0
M  V30 6986 H 682.605 -3.10283 1.01941 0
M  V30 6987 H 681.264 -2.18451 2.94406 0
M  V30 6988 H 680.912 -4.53703 2.1717 0
M  V30 6989 H 680.612 -4.37695 3.92042 0
M  V30 6990 H 682.136 -5.10934 3.34333 0
M  V30 6991 H 683.55 -3.28596 4.69785 0
M  V30 6992 H 681.947 -2.78903 5.3135 0
M  V30 6993 H 683.017 -1.57754 4.58521 0
M  V30 6994 N 684.36 -1.4356 -0.65026 0
M  V30 6995 C 685.609 -1.44619 -1.406 0
M  V30 6996 C 685.922 -0.0752645 -1.95455 0
M  V30 6997 O 687.128 0.0366832 -2.71475 0
M  V30 6998 C 685.584 -2.54511 -2.54465 0
M  V30 6999 C 685.192 -3.97723 -2.06204 0
M  V30 7000 C 686.936 -2.64768 -3.31811 0
M  V30 7001 C 684.843 -4.99075 -3.17298 0
M  V30 7002 H 683.773 -0.537983 -0.52829 0
M  V30 7003 H 686.424 -1.69559 -0.701561 0
M  V30 7004 H 684.806 -2.22777 -3.27393 0
M  V30 7005 H 685.98 -4.38932 -1.40267 0
M  V30 7006 H 684.295 -3.91538 -1.41729 0
M  V30 7007 H 686.892 -3.37664 -4.14593 0
M  V30 7008 H 687.235 -1.69936 -3.80036 0
M  V30 7009 H 687.768 -2.95817 -2.65964 0
M  V30 7010 H 684.507 -5.95469 -2.74038 0
M  V30 7011 H 684.027 -4.62476 -3.81937 0
M  V30 7012 H 685.706 -5.21913 -3.82382 0
M  V30 7013 N 685.838 0.888903 -1.30139 0
M  V30 7014 C 687.115 1.62145 -1.094 0
M  V30 7015 C 687.495 2.08041 0.358091 0
M  V30 7016 O 686.843 1.84438 1.34888 0
M  V30 7017 C 687.053 2.794 -2.09133 0
M  V30 7018 C 688.401 3.49826 -2.40638 0
M  V30 7019 O 689.425 2.89583 -2.07412 0
M  V30 7020 O 688.284 4.58457 -2.97455 0
M  V30 7021 H 685.378 0.712475 -0.41989 0
M  V30 7022 H 687.924 0.936023 -1.41551 0
M  V30 7023 H 686.696 2.42762 -3.06891 0
M  V30 7024 H 686.319 3.55643 -1.77776 0
M  V30 7025 N 687.317 1.12792 1.10072 0
M  V30 7026 C 688.547 0.907189 1.85617 0
M  V30 7027 C 688.955 -0.547181 1.81115 0
M  V30 7028 O 688.298 -1.39024 1.20075 0
M  V30 7029 C 688.36 1.30872 3.34832 0
M  V30 7030 C 688.024 2.77516 3.6309 0
M  V30 7031 C 689.021 3.75696 3.59373 0
M  V30 7032 C 686.706 3.14513 3.91646 0
M  V30 7033 C 688.7 5.08888 3.83812 0
M  V30 7034 C 686.387 4.47886 4.15742 0
M  V30 7035 C 687.385 5.44882 4.11816 0
M  V30 7036 O 687.073 6.7585 4.35295 0
M  V30 7037 H 686.805 0.323855 0.593375 0
M  V30 7038 H 689.359 1.50262 1.40038 0
M  V30 7039 H 687.589 0.656518 3.81086 0
M  V30 7040 H 689.278 1.06153 3.91773 0
M  V30 7041 H 690.044 3.48458 3.37345 0
M  V30 7042 H 685.923 2.39622 3.93831 0
M  V30 7043 H 689.467 5.84586 3.80663 0
M  V30 7044 H 685.364 4.74851 4.37249 0
M  V30 7045 H 686.132 6.81853 4.52791 0
M  V30 7046 N 688.795 -1.27931 0.920396 0
M  V30 7047 C 690.072 -1.89728 0.475687 0
M  V30 7048 C 690.452 -1.8337 -1.04588 0
M  V30 7049 O 689.8 -1.27404 -1.89685 0
M  V30 7050 C 690.01 -3.33959 1.01354 0
M  V30 7051 C 691.358 -4.10907 1.06963 0
M  V30 7052 O 692.382 -3.42945 0.962646 0
M  V30 7053 O 691.241 -5.32399 1.23343 0
M  V30 7054 H 688.335 -0.81294 0.151845 0
M  V30 7055 H 690.881 -1.36252 1.01161 0
M  V30 7056 H 689.653 -3.32843 2.05746 0
M  V30 7057 H 689.276 -3.94944 0.458829 0
M  V30 7058 N 690.273 -0.685099 -1.4193 0
M  V30 7059 C 691.55 -0.140152 -1.95097 0
M  V30 7060 C 691.93 1.34745 -1.62502 0
M  V30 7061 O 691.278 2.08872 -0.926534 0
M  V30 7062 C 691.488 -0.420268 -3.4646 0
M  V30 7063 C 692.836 -0.342338 -4.23218 0
M  V30 7064 O 693.86 -0.354592 -3.54431 0
M  V30 7065 O 692.719 -0.293404 -5.45712 0
M  V30 7066 H 689.813 -0.00885998 -0.826953 0
M  V30 7067 H 692.359 -0.760539 -1.51703 0
M  V30 7068 H 691.131 -1.45037 -3.63428 0
M  V30 7069 H 690.754 0.231616 -3.96925 0
M  V30 7070 N 691.751 1.51645 -0.429126 0
M  V30 7071 C 692.701 2.24388 0.404217 0
M  V30 7072 C 693.685 1.26294 0.996933 0
M  V30 7073 O 694.877 1.51428 0.916434 0
M  V30 7074 C 692.006 3.08338 1.50938 0
M  V30 7075 C 691.092 4.13857 0.926464 0
M  V30 7076 N 691.483 5.05749 0.0719732 0
M  V30 7077 C 689.781 4.29695 1.19491 0
M  V30 7078 C 690.482 5.81143 -0.254528 0
M  V30 7079 N 689.458 5.42408 0.359763 0
M  V30 7080 H 693.26 2.92794 -0.254697 0
M  V30 7081 H 690.774 1.60606 -0.240712 0
M  V30 7082 H 692.771 3.59022 2.11918 0
M  V30 7083 H 691.431 2.41475 2.17072 0
M  V30 7084 H 692.442 5.17066 -0.293854 0
M  V30 7085 H 689.119 3.74059 1.85434 0
M  V30 7086 H 690.509 6.65159 -0.949365 0
M  V30 7087 N 693.229 0.160201 1.56784 0
M  V30 7088 C 694.457 -0.494165 2.00912 0
M  V30 7089 C 694.872 -1.57548 1.04038 0
M  V30 7090 O 694.229 -1.82457 0.0394581 0
M  V30 7091 C 694.28 -1.08271 3.44905 0
M  V30 7092 O 694.001 -0.0445704 4.38077 0
M  V30 7093 C 695.502 -1.8164 4.04378 0
M  V30 7094 H 692.722 -0.127498 0.658776 0
M  V30 7095 H 695.266 0.258665 2.02858 0
M  V30 7096 H 693.421 -1.78609 3.4377 0
M  V30 7097 H 693.835 -0.477544 5.22322 0
M  V30 7098 H 695.309 -2.18094 5.07089 0
M  V30 7099 H 695.786 -2.70727 3.45838 0
M  V30 7100 H 696.392 -1.15969 4.09184 0
M  V30 7101 N 694.707 -1.5719 -0.113559 0
M  V30 7102 C 695.637 -2.03772 -1.14013 0
M  V30 7103 C 696.618 -0.923176 -1.42869 0
M  V30 7104 O 697.803 -1.19325 -1.53216 0
M  V30 7105 C 694.933 -2.44663 -2.4649 0
M  V30 7106 C 693.887 -3.59612 -2.32085 0
M  V30 7107 C 693.213 -3.8642 -3.69573 0
M  V30 7108 C 694.513 -4.91149 -1.7768 0
M  V30 7109 H 696.207 -2.89785 -0.752665 0
M  V30 7110 H 693.753 -1.39412 -0.360609 0
M  V30 7111 H 695.706 -2.75857 -3.18561 0
M  V30 7112 H 694.43 -1.55628 -2.87137 0
M  V30 7113 H 693.089 -3.28636 -1.62461 0
M  V30 7114 H 692.737 -2.94581 -4.07715 0
M  V30 7115 H 692.437 -4.63797 -3.60786 0
M  V30 7116 H 693.961 -4.2007 -4.4314 0
M  V30 7117 H 695.375 -5.20843 -2.39574 0
M  V30 7118 H 693.772 -5.72562 -1.79701 0
M  V30 7119 H 694.842 -4.79301 -0.734776 0
M  V30 7120 N 696.185 0.383891 -1.52853 0
M  V30 7121 C 697.132 1.46924 -1.77995 0
M  V30 7122 C 698.102 1.53958 -0.623396 0
M  V30 7123 O 699.287 1.70134 -0.863657 0
M  V30 7124 C 696.427 2.84093 -1.95921 0
M  V30 7125 C 695.54 2.86171 -3.23621 0
M  V30 7126 C 694.675 4.14799 -3.31836 0
M  V30 7127 C 693.714 4.10948 -4.53639 0
M  V30 7128 N 692.851 5.31192 -4.59107 0
M  V30 7129 H 697.691 1.24786 -2.70615 0
M  V30 7130 H 695.228 0.605265 -1.34071 0
M  V30 7131 H 697.186 3.63755 -2.04299 0
M  V30 7132 H 695.816 3.04671 -1.06656 0
M  V30 7133 H 694.868 1.9885 -3.24288 0
M  V30 7134 H 696.18 2.79194 -4.13343 0
M  V30 7135 H 695.334 5.02867 -3.39425 0
M  V30 7136 H 694.073 4.24505 -2.40097 0
M  V30 7137 H 693.078 3.21268 -4.46169 0
M  V30 7138 H 694.303 4.0286 -5.467 0
M  V30 7139 H 692.249 5.41518 -3.70262 0
M  V30 7140 H 692.166 5.26311 -5.42708 0
M  V30 7141 H 693.434 6.21143 -4.70958 0
M  V30 7142 N 697.663 1.43903 0.642637 0
M  V30 7143 C 698.893 1.49323 1.4278 0
M  V30 7144 C 699.301 0.113058 1.88862 0
M  V30 7145 O 698.644 -0.889089 1.60751 0
M  V30 7146 C 698.706 2.3861 2.68897 0
M  V30 7147 C 698.37 3.85976 2.44687 0
M  V30 7148 C 699.367 4.7681 2.07239 0
M  V30 7149 C 697.052 4.30567 2.58683 0
M  V30 7150 C 699.046 6.10234 1.841 0
M  V30 7151 C 696.733 5.64042 2.35159 0
M  V30 7152 C 697.731 6.53693 1.97925 0
M  V30 7153 O 697.419 7.84698 1.74654 0
M  V30 7154 H 697.151 0.509109 0.444729 0
M  V30 7155 H 699.705 1.89425 0.794195 0
M  V30 7156 H 697.935 1.93415 3.34855 0
M  V30 7157 H 699.624 2.35112 3.30873 0
M  V30 7158 H 700.39 4.43635 1.95993 0
M  V30 7159 H 696.269 3.61054 2.86637 0
M  V30 7160 H 699.813 6.80171 1.54962 0
M  V30 7161 H 695.71 5.96782 2.46011 0
M  V30 7162 H 696.478 7.96382 1.88993 0
M  V30 7163 N 699.141 -0.881989 1.30609 0
M  V30 7164 C 700.371 -1.66469 1.22359 0
M  V30 7165 C 700.779 -1.87969 -0.215507 0
M  V30 7166 O 700.122 -1.42938 -1.15388 0
M  V30 7167 C 700.184 -3.06135 1.88472 0
M  V30 7168 C 699.848 -3.07795 3.37804 0
M  V30 7169 C 700.845 -2.86633 4.33749 0
M  V30 7170 C 698.53 -3.29297 3.793 0
M  V30 7171 C 700.524 -2.86934 5.69164 0
M  V30 7172 C 698.211 -3.29228 5.14832 0
M  V30 7173 C 699.209 -3.08071 6.09574 0
M  V30 7174 O 698.897 -3.07824 7.4263 0
M  V30 7175 H 698.629 -0.526129 0.424458 0
M  V30 7176 H 701.183 -1.11004 1.72821 0
M  V30 7177 H 699.413 -3.63276 1.32543 0
M  V30 7178 H 701.102 -3.66571 1.74301 0
M  V30 7179 H 701.868 -2.69814 4.0302 0
M  V30 7180 H 697.747 -3.44799 3.05998 0
M  V30 7181 H 701.291 -2.70339 6.43088 0
M  V30 7182 H 697.188 -3.45583 5.452 0
M  V30 7183 H 697.956 -3.2397 7.51656 0
M  V30 7184 N 700.619 -1.13374 -1.09472 0
M  V30 7185 C 701.567 -0.806105 -2.18185 0
M  V30 7186 C 702.561 0.21136 -1.68076 0
M  V30 7187 O 703.767 0.0685558 -1.79869 0
M  V30 7188 H 700.142 -0.242901 -0.71169 0
M  V30 7189 H 702.113 -1.73115 -2.43051 0
M  V30 7190 C 700.862 -0.287928 -3.46506 0
M  V30 7191 H 700.185 -1.06217 -3.85432 0
M  V30 7192 H 701.625 -0.0971054 -4.23889 0
M  V30 7193 C 700.084 0.986256 -3.22141 0
M  V30 7194 O 700.614 2.06217 -3.44728 0
M  V30 7195 N 698.82 0.917153 -2.75747 0
M  V30 7196 H 698.367 0.0414609 -2.57567 0
M  V30 7197 H 698.325 1.77029 -2.59823 0
M  V30 7198 N 702.098 1.27442 -0.927168 0
M  V30 7199 C 703.008 2.30599 -0.431448 0
M  V30 7200 C 704.024 1.67028 0.48761 0
M  V30 7201 O 705.2 1.97962 0.370546 0
M  V30 7202 C 702.265 3.45327 0.308292 0
M  V30 7203 C 701.326 4.24418 -0.645615 0
M  V30 7204 C 700.559 5.33667 0.0589164 0
M  V30 7205 O 700.782 5.5589 1.27838 0
M  V30 7206 O 699.716 5.98774 -0.612638 0
M  V30 7207 H 703.542 2.75036 -1.28797 0
M  V30 7208 H 701.127 1.32382 -0.692495 0
M  V30 7209 H 703.009 4.15107 0.725555 0
M  V30 7210 H 701.684 3.02945 1.14043 0
M  V30 7211 H 700.591 3.57174 -1.11255 0
M  V30 7212 H 701.924 4.70512 -1.44496 0
M  V30 7213 N 703.576 0.692616 1.41565 0
M  V30 7214 C 704.824 0.221896 2.00878 0
M  V30 7215 C 705.145 -1.18164 1.5512 0
M  V30 7216 O 704.415 -1.79679 0.78054 0
M  V30 7217 H 702.995 0.0790463 0.742806 0
M  V30 7218 H 705.657 0.893115 1.73232 0
M  V30 7219 H 704.753 0.23702 3.11199 0
M  V30 7220 N 705.054 -1.51416 0.437162 0
M  V30 7221 C 706.001 -2.27743 -0.374374 0
M  V30 7222 C 706.971 -1.31327 -1.01698 0
M  V30 7223 O 708.156 -1.60229 -1.03592 0
M  V30 7224 C 705.296 -3.12241 -1.46969 0
M  V30 7225 C 704.409 -4.23651 -0.845236 0
M  V30 7226 C 703.544 -4.95458 -1.91559 0
M  V30 7227 C 702.583 -5.98789 -1.26956 0
M  V30 7228 N 701.72 -6.64005 -2.28126 0
M  V30 7229 H 706.56 -2.96654 0.282892 0
M  V30 7230 H 704.097 -1.46319 0.151352 0
M  V30 7231 H 706.055 -3.59556 -2.11602 0
M  V30 7232 H 704.685 -2.45445 -2.09659 0
M  V30 7233 H 703.737 -3.803 -0.0872059 0
M  V30 7234 H 705.049 -4.97683 -0.333582 0
M  V30 7235 H 704.203 -5.46321 -2.63854 0
M  V30 7236 H 702.942 -4.21055 -2.46097 0
M  V30 7237 H 701.947 -5.47219 -0.53207 0
M  V30 7238 H 703.172 -6.75149 -0.731509 0
M  V30 7239 H 701.118 -5.92415 -2.81745 0
M  V30 7240 H 701.035 -7.33802 -1.81852 0
M  V30 7241 H 702.303 -7.19498 -2.99905 0
M  V30 7242 N 706.532 -0.168513 -1.56696 0
M  V30 7243 C 707.495 0.748928 -2.16619 0
M  V30 7244 C 708.495 1.16007 -1.11351 0
M  V30 7245 O 709.685 1.07748 -1.3688 0
M  V30 7246 C 706.817 2.01904 -2.74677 0
M  V30 7247 H 708.01 0.227317 -2.99037 0
M  V30 7248 H 705.563 0.0810372 -1.5609 0
M  V30 7249 H 706.298 2.58381 -1.95985 0
M  V30 7250 H 706.083 1.73323 -3.51712 0
M  V30 7251 H 707.573 2.67383 -3.20774 0
M  V30 7252 N 708.01 1.57248 0.105221 0
M  V30 7253 C 709.426 1.52853 0.459153 0
M  V30 7254 C 709.626 0.883674 1.8109 0
M  V30 7255 O 708.682 0.471864 2.48052 0
M  V30 7256 C 709.995 2.97596 0.43096 0
M  V30 7257 C 711.543 3.08758 0.513536 0
M  V30 7258 C 712.018 4.55089 0.515593 0
M  V30 7259 N 713.509 4.59597 0.576639 0
M  V30 7260 C 714.244 5.70253 0.599904 0
M  V30 7261 N 713.74 6.90368 0.579985 0
M  V30 7262 N 715.533 5.58399 0.643953 0
M  V30 7263 H 707.684 1.97547 -0.780306 0
M  V30 7264 H 709.947 0.902758 -0.289363 0
M  V30 7265 H 709.653 3.48201 -0.494903 0
M  V30 7266 H 709.527 3.55756 1.2537 0
M  V30 7267 H 711.914 2.58148 1.42982 0
M  V30 7268 H 711.995 2.53568 -0.337148 0
M  V30 7269 H 711.639 5.06348 -0.396701 0
M  V30 7270 H 711.569 5.08105 1.38335 0
M  V30 7271 H 714.06 3.73144 0.597639 0
M  V30 7272 H 714.373 7.70462 0.600741 0
M  V30 7273 H 712.718 6.92843 0.547191 0
M  V30 7274 H 715.909 4.63467 0.656975 0
M  V30 7275 H 716.082 6.44644 0.658616 0
M  V30 7276 N 709.488 -0.375779 1.53054 0
M  V30 7277 C 710.737 -1.11674 1.67964 0
M  V30 7278 C 711.05 -1.90755 0.432655 0
M  V30 7279 O 712.256 -2.67538 0.462109 0
M  V30 7280 C 710.712 -2.0344 2.96884 0
M  V30 7281 C 710.32 -1.29719 4.28809 0
M  V30 7282 C 712.064 -2.7759 3.2116 0
M  V30 7283 C 709.971 -2.20327 5.48826 0
M  V30 7284 H 708.901 -0.420597 0.625791 0
M  V30 7285 H 711.552 -0.378499 1.79554 0
M  V30 7286 H 709.934 -2.80953 2.79072 0
M  V30 7287 H 711.108 -0.573394 4.57219 0
M  V30 7288 H 709.423 -0.674735 4.10897 0
M  V30 7289 H 712.02 -3.4559 4.0801 0
M  V30 7290 H 712.363 -3.42399 2.36789 0
M  V30 7291 H 712.896 -2.07164 3.396 0
M  V30 7292 H 709.635 -1.60113 6.35645 0
M  V30 7293 H 709.155 -2.90585 5.2471 0
M  V30 7294 H 710.834 -2.80116 5.83219 0
M  V30 7295 N 710.966 -1.44241 -0.634997 0
M  V30 7296 C 711.913 -1.5081 -1.74714 0
M  V30 7297 C 712.883 -0.356147 -1.62237 0
M  V30 7298 O 714.068 -0.565848 -1.82216 0
M  V30 7299 C 711.208 -1.45458 -3.12947 0
M  V30 7300 C 710.321 -2.70998 -3.36428 0
M  V30 7301 C 709.456 -2.57507 -4.64611 0
M  V30 7302 C 708.495 -3.78229 -4.81258 0
M  V30 7303 N 707.632 -3.63438 -6.00714 0
M  V30 7304 H 712.472 -2.45832 -1.68436 0
M  V30 7305 H 710.009 -1.2201 -0.821706 0
M  V30 7306 H 711.967 -1.40347 -3.92885 0
M  V30 7307 H 710.597 -0.540058 -3.1825 0
M  V30 7308 H 709.649 -2.86312 -2.50458 0
M  V30 7309 H 710.961 -3.60619 -3.44609 0
M  V30 7310 H 710.115 -2.50207 -5.52703 0
M  V30 7311 H 708.854 -1.65441 -4.58782 0
M  V30 7312 H 707.859 -3.85918 -3.91596 0
M  V30 7313 H 709.084 -4.71327 -4.88904 0
M  V30 7314 H 707.03 -2.7412 -5.95982 0
M  V30 7315 H 706.947 -4.46672 -6.09934 0
M  V30 7316 H 708.215 -3.60022 -6.91378 0
M  V30 7317 N 712.444 0.87505 -1.31075 0
M  V30 7318 C 713.692 1.62447 -1.20231 0
M  V30 7319 C 714.013 1.93506 0.240888 0
M  V30 7320 O 713.283 1.57847 1.16022 0
M  V30 7321 H 711.863 0.602207 -0.441991 0
M  V30 7322 H 714.525 1.04788 -1.64334 0
M  V30 7323 H 713.621 2.57031 -1.77036 0
M  V30 7324 N 713.922 1.13953 1.08869 0
M  V30 7325 C 715.168 0.906151 1.8143 0
M  V30 7326 C 715.501 -0.566089 1.85766 0
M  V30 7327 O 714.776 -1.41915 1.33006 0
M  V30 7328 C 715.059 1.50183 3.27287 0
M  V30 7329 C 714.912 3.04359 3.31189 0
M  V30 7330 C 716.231 1.17477 4.24131 0
M  V30 7331 H 713.35 0.330624 0.658678 0
M  V30 7332 H 715.992 1.40873 1.27495 0
M  V30 7333 H 714.142 1.07442 3.73348 0
M  V30 7334 H 715.814 3.55896 2.93488 0
M  V30 7335 H 714.057 3.39053 2.70602 0
M  V30 7336 H 714.728 3.41141 4.33966 0
M  V30 7337 H 717.204 1.5442 3.86385 0
M  V30 7338 H 716.08 1.61795 5.24513 0
M  V30 7339 H 716.341 0.0893312 4.4201 0
M  V30 7340 N 715.4 -1.26948 0.933913 0
M  V30 7341 C 716.31 -2.30366 0.443671 0
M  V30 7342 C 717.326 -1.67284 -0.478745 0
M  V30 7343 O 718.502 -1.98156 -0.360043 0
M  V30 7344 C 715.567 -3.45485 -0.289974 0
M  V30 7345 C 714.628 -4.24069 0.668114 0
M  V30 7346 C 713.861 -5.33691 -0.0306138 0
M  V30 7347 O 714.084 -5.5656 -1.24888 0
M  V30 7348 O 713.018 -5.98441 0.644384 0
M  V30 7349 H 716.844 -2.74349 1.30254 0
M  V30 7350 H 714.429 -1.32012 0.699506 0
M  V30 7351 H 716.311 -4.15486 -0.70353 0
M  V30 7352 H 714.986 -3.03546 -1.12435 0
M  V30 7353 H 713.893 -3.56579 1.13147 0
M  V30 7354 H 715.226 -4.69739 1.46989 0
M  V30 7355 N 716.879 -0.700114 -1.41195 0
M  V30 7356 C 717.842 -0.0465706 -2.29153 0
M  V30 7357 C 718.842 0.703302 -1.44604 0
M  V30 7358 O 720.032 0.537513 -1.657 0
M  V30 7359 C 717.164 0.944324 -3.2756 0
M  V30 7360 H 718.357 -0.821064 -2.88442 0
M  V30 7361 H 715.91 -0.463869 -1.49258 0
M  V30 7362 H 716.645 1.74642 -2.73259 0
M  V30 7363 H 716.43 0.409701 -3.89954 0
M  V30 7364 H 717.92 1.39925 -3.9346 0
M  V30 7365 N 718.357 1.51182 -0.445186 0
M  V30 7366 C 719.585 2.06568 0.117091 0
M  V30 7367 C 720 1.31182 1.35781 0
M  V30 7368 O 719.357 0.373605 1.78635 0
M  V30 7369 C 719.408 3.58917 0.431408 0
M  V30 7370 O 719.129 4.31456 -0.760078 0
M  V30 7371 C 720.63 4.30843 1.0435 0
M  V30 7372 H 717.85 0.670985 0.00444436 0
M  V30 7373 H 720.394 1.94666 -0.626525 0
M  V30 7374 H 718.549 3.70708 1.12493 0
M  V30 7375 H 718.963 5.22215 -0.489048 0
M  V30 7376 H 720.437 5.38499 1.21337 0
M  V30 7377 H 720.914 3.89644 2.02667 0
M  V30 7378 H 721.52 4.23516 0.38913 0
M  V30 7379 N 719.835 0.176821 1.56605 0
M  V30 7380 C 720.798 -0.737429 2.17013 0
M  V30 7381 C 721.798 -1.15414 1.11965 0
M  V30 7382 O 722.988 -1.0702 1.37449 0
M  V30 7383 C 720.12 -2.00445 2.75744 0
M  V30 7384 H 721.313 -0.211455 2.99154 0
M  V30 7385 H 718.866 -0.0727582 1.56131 0
M  V30 7386 H 719.601 -2.57338 1.97352 0
M  V30 7387 H 719.386 -1.71456 3.52626 0
M  V30 7388 H 720.876 -2.65679 3.22187 0
M  V30 7389 N 721.313 -1.57302 -0.09688 0
M  V30 7390 C 722.261 -2.02942 -1.13654 0
M  V30 7391 C 723.255 -0.930173 -1.41577 0
M  V30 7392 O 724.461 -1.11535 -1.41279 0
M  V30 7393 H 720.836 -0.646726 -0.383731 0
M  V30 7394 H 722.807 -2.89452 -0.725267 0
M  V30 7395 C 721.556 -2.46815 -2.44903 0
M  V30 7396 H 720.879 -3.30979 -2.24261 0
M  V30 7397 H 722.319 -2.82527 -3.16156 0
M  V30 7398 C 720.778 -1.34071 -3.09074 0
M  V30 7399 O 721.308 -0.668856 -3.96092 0
M  V30 7400 N 719.514 -1.09214 -2.69296 0
M  V30 7401 H 719.061 -1.64029 -1.98626 0
M  V30 7402 H 719.019 -0.339785 -3.12559 0
M  V30 7403 N 722.791 0.367657 -1.53252 0
M  V30 7404 C 724.038 1.11052 -1.69333 0
M  V30 7405 C 724.366 1.89363 -0.444064 0
M  V30 7406 O 723.621 1.87094 0.573953 0
M  V30 7407 C 723.92 2.09825 -2.89324 0
M  V30 7408 C 723.586 1.4801 -4.25915 0
M  V30 7409 C 722.248 1.30879 -4.6306 0
M  V30 7410 C 724.6 1.03268 -5.10867 0
M  V30 7411 C 721.928 0.675868 -5.82794 0
M  V30 7412 C 724.28 0.41377 -6.31245 0
M  V30 7413 C 722.944 0.229939 -6.67104 0
M  V30 7414 H 722.214 0.406367 -0.619634 0
M  V30 7415 H 724.861 0.392558 -1.87433 0
M  V30 7416 H 723.166 2.87917 -2.65728 0
M  V30 7417 H 724.863 2.67252 -2.98961 0
M  V30 7418 H 721.453 1.62336 -3.96667 0
M  V30 7419 H 725.637 1.15297 -4.82722 0
M  V30 7420 H 720.893 0.521833 -6.09169 0
M  V30 7421 H 725.067 0.0588768 -6.96375 0
M  V30 7422 H 722.694 -0.262562 -7.59746 0
M  V30 7423 N 724.269 1.44576 0.627338 0
M  V30 7424 C 725.546 1.38033 1.38586 0
M  V30 7425 C 725.926 0.0409468 2.1106 0
M  V30 7426 O 725.274 -0.976582 2.0658 0
M  V30 7427 C 725.484 2.58102 2.34913 0
M  V30 7428 C 726.832 3.02332 2.98129 0
M  V30 7429 O 727.856 2.58334 2.45238 0
M  V30 7430 O 726.715 3.78628 3.94085 0
M  V30 7431 H 723.809 0.546801 0.620434 0
M  V30 7432 H 726.355 1.56672 0.652077 0
M  V30 7433 H 725.127 3.4719 1.80485 0
M  V30 7434 H 724.75 2.41696 3.15703 0
M  V30 7435 N 725.747 -0.868086 1.31537 0
M  V30 7436 C 726.975 -1.65402 1.24298 0
M  V30 7437 C 727.39 -1.87827 -0.191389 0
M  V30 7438 O 726.747 -1.43776 -1.12404 0
M  V30 7439 C 726.798 -3.02093 1.9855 0
M  V30 7440 O 726.519 -2.80668 3.36388 0
M  V30 7441 C 728.02 -3.96538 1.98173 0
M  V30 7442 H 725.24 -0.515598 0.429417 0
M  V30 7443 H 727.784 -1.0834 1.73444 0
M  V30 7444 H 725.939 -3.55838 1.53161 0
M  V30 7445 H 726.353 -3.67504 3.74221 0
M  V30 7446 H 727.827 -4.8976 2.54635 0
M  V30 7447 H 728.304 -4.28474 0.964697 0
M  V30 7448 H 728.91 -3.48729 2.4345 0
M  V30 7449 N 727.225 -1.14528 -1.08264 0
M  V30 7450 C 728.473 -0.912599 -1.80322 0
M  V30 7451 C 728.794 0.562256 -1.86718 0
M  V30 7452 O 728.064 1.40869 -1.36135 0
M  V30 7453 H 726.644 -0.334645 -0.667849 0
M  V30 7454 H 729.306 -1.44415 -1.30883 0
M  V30 7455 H 728.402 -1.31384 -2.83098 0
M  V30 7456 N 728.703 1.26451 -0.940633 0
M  V30 7457 C 730.114 1.75726 -0.630653 0
M  V30 7458 C 730.465 1.76631 0.854167 0
M  V30 7459 O 729.59 1.37807 1.66848 0
M  V30 7460 C 730.185 3.19114 -1.13805 0
M  V30 7461 C 728.744 3.66005 -0.878497 0
M  V30 7462 C 727.891 2.45505 -1.28928 0
M  V30 7463 H 730.842 1.12535 -1.119 0
M  V30 7464 H 730.863 3.77311 -0.491625 0
M  V30 7465 H 730.375 3.18424 -2.21874 0
M  V30 7466 H 728.476 3.72126 0.187833 0
M  V30 7467 H 728.589 4.54844 -1.50512 0
M  V30 7468 H 726.953 2.4467 -0.707713 0
M  V30 7469 H 727.736 2.47516 -2.37888 0
M  V30 7470 N 730.181 0.707592 1.40822 0
M  V30 7471 C 731.111 0.0644925 2.33411 0
M  V30 7472 C 732.092 -0.754205 1.52466 0
M  V30 7473 O 733.277 -0.704749 1.80961 0
M  V30 7474 C 730.407 -0.863865 3.36385 0
M  V30 7475 C 729.361 -0.15138 4.27732 0
M  V30 7476 C 728.687 -1.19491 5.21177 0
M  V30 7477 C 729.987 0.989607 5.12839 0
M  V30 7478 H 731.681 0.837829 2.87438 0
M  V30 7479 H 729.227 0.404346 1.38207 0
M  V30 7480 H 731.18 -1.32309 4.0009 0
M  V30 7481 H 729.904 -1.66901 2.80734 0
M  V30 7482 H 728.563 0.287937 3.65467 0
M  V30 7483 H 728.211 -1.9929 4.61836 0
M  V30 7484 H 727.911 -0.723123 5.83134 0
M  V30 7485 H 729.435 -1.6544 5.8776 0
M  V30 7486 H 730.849 0.610114 5.70044 0
M  V30 7487 H 729.246 1.38926 5.83798 0
M  V30 7488 H 730.316 1.82389 4.49291 0
M  V30 7489 N 731.66 -1.50943 0.453197 0
M  V30 7490 C 732.888 -2.06628 -0.106135 0
M  V30 7491 C 733.303 -1.31901 -1.35084 0
M  V30 7492 O 732.66 -0.383074 -1.78434 0
M  V30 7493 C 732.711 -3.5914 -0.412368 0
M  V30 7494 O 732.432 -4.31047 0.782948 0
M  V30 7495 C 733.933 -4.31391 -1.02064 0
M  V30 7496 H 731.153 -0.670999 -0.000885896 0
M  V30 7497 H 733.697 -1.94331 0.63684 0
M  V30 7498 H 731.852 -3.71299 -1.10526 0
M  V30 7499 H 732.266 -5.21948 0.516736 0
M  V30 7500 H 733.74 -5.39135 -1.1848 0
M  V30 7501 H 734.217 -3.90714 -2.00598 0
M  V30 7502 H 734.823 -4.23716 -0.366664 0
M  V30 7503 N 733.138 -0.185124 -1.56509 0
M  V30 7504 C 734.088 0.752315 -2.15231 0
M  V30 7505 C 735.072 1.18327 -1.0903 0
M  V30 7506 O 736.264 1.14333 -1.35119 0
M  V30 7507 C 733.393 1.97583 -2.80742 0
M  V30 7508 C 732.479 1.56623 -3.94119 0
M  V30 7509 N 732.87 0.867008 -4.98314 0
M  V30 7510 C 731.168 1.85626 -4.05535 0
M  V30 7511 C 731.869 0.663228 -5.77907 0
M  V30 7512 N 730.845 1.20891 -5.29987 0
M  V30 7513 H 734.647 0.209267 -2.93154 0
M  V30 7514 H 732.161 0.0150444 -1.62393 0
M  V30 7515 H 734.158 2.65779 -3.21197 0
M  V30 7516 H 732.818 2.52369 -2.04303 0
M  V30 7517 H 733.829 0.52355 -5.15247 0
M  V30 7518 H 730.506 2.41992 -3.40215 0
M  V30 7519 H 731.896 0.109273 -6.71811 0
M  V30 7520 N 734.616 1.57351 0.0885366 0
M  V30 7521 C 735.844 1.90631 0.804196 0
M  V30 7522 C 736.259 0.779474 1.71958 0
M  V30 7523 O 735.616 -0.248179 1.80805 0
M  V30 7524 C 735.667 3.23568 1.61202 0
M  V30 7525 O 735.388 4.31917 0.733447 0
M  V30 7526 C 736.889 3.70753 2.43016 0
M  V30 7527 H 734.109 0.630501 0.229585 0
M  V30 7528 H 736.653 2.044 0.0638092 0
M  V30 7529 H 734.808 3.11377 2.30485 0
M  V30 7530 H 735.222 5.08297 1.29361 0
M  V30 7531 H 736.696 4.66447 2.9518 0
M  V30 7532 H 737.173 2.98922 3.2178 0
M  V30 7533 H 737.779 3.85834 1.7892 0
M  V30 7534 N 736.094 -0.359525 1.53444 0
M  V30 7535 C 737.34 -1.10315 1.70172 0
M  V30 7536 C 737.673 -1.88788 0.455287 0
M  V30 7537 O 736.948 -1.86635 -0.547514 0
M  V30 7538 C 737.231 -2.05744 2.95536 0
M  V30 7539 C 737.084 -1.3084 4.3035 0
M  V30 7540 C 738.403 -3.05784 3.16518 0
M  V30 7541 H 735.522 -0.399662 0.619225 0
M  V30 7542 H 738.164 -0.383338 1.86093 0
M  V30 7543 H 736.314 -2.67125 2.82093 0
M  V30 7544 H 737.986 -0.721959 4.55615 0
M  V30 7545 H 736.229 -0.610283 4.29486 0
M  V30 7546 H 736.9 -2.00718 5.14214 0
M  V30 7547 H 739.376 -2.5451 3.29187 0
M  V30 7548 H 738.252 -3.69772 4.05659 0
M  V30 7549 H 738.513 -3.76289 2.32076 0
M  V30 7550 N 737.572 -1.44907 -0.619662 0
M  V30 7551 C 738.797 -1.52021 -1.41083 0
M  V30 7552 C 739.222 -0.14976 -1.87503 0
M  V30 7553 O 738.58 0.863303 -1.59426 0
M  V30 7554 C 738.628 -2.49911 -2.59955 0
M  V30 7555 O 737.732 -2.00857 -3.60181 0
M  V30 7556 H 737.073 -0.512912 -0.421684 0
M  V30 7557 H 739.603 -1.90149 -0.755282 0
M  V30 7558 H 739.613 -2.68323 -3.07354 0
M  V30 7559 H 738.288 -3.4945 -2.25516 0
M  V30 7560 H 736.865 -1.92265 -3.19513 0
M  V30 7561 N 739.05 0.861098 -1.31996 0
M  V30 7562 C 740.28 1.64501 -1.24992 0
M  V30 7563 C 740.688 1.88288 0.185576 0
M  V30 7564 O 740.031 1.44756 1.131 0
M  V30 7565 C 740.093 3.03098 -1.93319 0
M  V30 7566 C 739.757 3.02381 -3.42658 0
M  V30 7567 C 740.754 2.79696 -4.38254 0
M  V30 7568 C 738.439 3.23221 -3.84491 0
M  V30 7569 C 740.433 2.77843 -5.73657 0
M  V30 7570 C 738.12 3.20996 -5.20005 0
M  V30 7571 C 739.118 2.98335 -6.14398 0
M  V30 7572 O 738.806 2.95971 -7.47433 0
M  V30 7573 H 738.538 0.519309 -0.432775 0
M  V30 7574 H 741.092 1.08241 -1.74565 0
M  V30 7575 H 739.322 3.61121 -1.38306 0
M  V30 7576 H 741.011 3.63751 -1.8011 0
M  V30 7577 H 741.777 2.63368 -4.07262 0
M  V30 7578 H 737.656 3.39887 -3.11445 0
M  V30 7579 H 741.2 2.60074 -6.47308 0
M  V30 7580 H 737.097 3.36865 -5.50629 0
M  V30 7581 H 737.865 3.1197 -7.56714 0
M  V30 7582 N 740.528 1.15101 1.07655 0
M  V30 7583 C 741.805 0.834578 1.76902 0
M  V30 7584 C 742.185 -0.670431 2.00171 0
M  V30 7585 O 741.533 -1.61378 1.6177 0
M  V30 7586 C 741.743 1.64191 3.07965 0
M  V30 7587 C 743.091 1.84615 3.82364 0
M  V30 7588 O 744.115 1.60941 3.17768 0
M  V30 7589 O 742.974 2.24244 4.98374 0
M  V30 7590 H 740.068 0.306608 0.768063 0
M  V30 7591 H 742.614 1.25663 1.14048 0
M  V30 7592 H 741.386 2.66386 2.86626 0
M  V30 7593 H 741.009 1.216 3.78549 0
M  V30 7594 N 742.006 -1.2595 0.947325 0
M  V30 7595 C 743.236 -1.97258 0.614235 0
M  V30 7596 C 743.644 -1.70682 -0.816355 0
M  V30 7597 O 742.987 -0.97527 -1.55673 0
M  V30 7598 C 743.049 -3.50845 0.784081 0
M  V30 7599 C 742.713 -4.01084 2.19045 0
M  V30 7600 C 743.71 -4.12347 3.16648 0
M  V30 7601 C 741.395 -4.34936 2.51268 0
M  V30 7602 C 743.389 -4.56766 4.44572 0
M  V30 7603 C 741.076 -4.79043 3.79422 0
M  V30 7604 C 742.074 -4.89919 4.75887 0
M  V30 7605 O 741.762 -5.3305 6.01758 0
M  V30 7606 H 741.494 -0.635738 0.22981 0
M  V30 7607 H 744.048 -1.61268 1.27207 0
M  V30 7608 H 742.278 -3.86638 0.069101 0
M  V30 7609 H 743.967 -4.03363 0.453135 0
M  V30 7610 H 744.733 -3.86432 2.93079 0
M  V30 7611 H 740.612 -4.25702 1.76916 0
M  V30 7612 H 744.156 -4.6517 5.19868 0
M  V30 7613 H 740.053 -5.04402 4.02802 0
M  V30 7614 H 740.821 -5.51255 6.05029 0
M  V30 7615 N 743.484 -0.715051 -1.40445 0
M  V30 7616 C 744.73 -0.254705 -2.01194 0
M  V30 7617 C 745.063 1.14894 -1.56567 0
M  V30 7618 O 744.338 1.77933 -0.785491 0
M  V30 7619 C 744.621 -0.334148 -3.58546 0
M  V30 7620 C 744.474 -1.77613 -4.13248 0
M  V30 7621 C 745.793 0.294968 -4.3911 0
M  V30 7622 H 742.912 -0.094025 -0.730978 0
M  V30 7623 H 745.554 -0.907449 -1.66929 0
M  V30 7624 H 743.704 0.221609 -3.87867 0
M  V30 7625 H 745.376 -2.38723 -3.94727 0
M  V30 7626 H 743.619 -2.30402 -3.67556 0
M  V30 7627 H 744.29 -1.78311 -5.22407 0
M  V30 7628 H 746.766 -0.178563 -4.15717 0
M  V30 7629 H 745.642 0.208934 -5.48502 0
M  V30 7630 H 745.903 1.37841 -4.20062 0
M  V30 7631 N 744.962 1.50701 -0.461195 0
M  V30 7632 C 746.239 1.94958 0.158296 0
M  V30 7633 C 746.619 1.40111 1.57899 0
M  V30 7634 O 745.967 0.597976 2.20537 0
M  V30 7635 C 746.177 3.48821 0.11172 0
M  V30 7636 C 747.525 4.23499 0.30552 0
M  V30 7637 O 748.549 3.557 0.188758 0
M  V30 7638 O 747.408 5.43823 0.540244 0
M  V30 7639 H 744.502 0.818674 0.117054 0
M  V30 7640 H 747.048 1.61508 -0.520888 0
M  V30 7641 H 745.82 3.81263 -0.880577 0
M  V30 7642 H 745.443 3.88781 0.832791 0
M  V30 7643 N 746.441 0.193421 1.56409 0
M  V30 7644 C 747.404 -0.714371 2.17783 0
M  V30 7645 C 748.404 -1.1422 1.13183 0
M  V30 7646 O 749.594 -1.05557 1.38576 0
M  V30 7647 C 746.726 -1.97509 2.77855 0
M  V30 7648 H 747.919 -0.179714 2.99361 0
M  V30 7649 H 745.472 -0.0561944 1.56199 0
M  V30 7650 H 746.207 -2.5523 2.0007 0
M  V30 7651 H 745.992 -1.67706 3.54425 0
M  V30 7652 H 747.482 -2.62246 3.24987 0
M  V30 7653 N 747.919 -1.57396 -0.0801906 0
M  V30 7654 C 749.335 -1.53564 -0.434778 0
M  V30 7655 C 749.535 -0.912372 -1.79661 0
M  V30 7656 O 748.591 -0.511268 -2.4727 0
M  V30 7657 C 749.904 -2.98244 -0.383561 0
M  V30 7658 C 751.452 -3.09536 -0.46435 0
M  V30 7659 C 751.927 -4.55851 -0.443128 0
M  V30 7660 N 753.418 -4.60456 -0.503448 0
M  V30 7661 C 754.153 -5.71135 -0.509106 0
M  V30 7662 N 753.649 -6.91203 -0.47008 0
M  V30 7663 N 755.442 -5.59353 -0.555035 0
M  V30 7664 H 747.593 -1.96281 0.811635 0
M  V30 7665 H 749.856 -0.898041 0.303689 0
M  V30 7666 H 749.562 -3.47369 0.550236 0
M  V30 7667 H 749.436 -3.57705 -1.19694 0
M  V30 7668 H 751.823 -2.6039 -1.38857 0
M  V30 7669 H 751.904 -2.53 0.377445 0
M  V30 7670 H 751.548 -5.05653 0.477207 0
M  V30 7671 H 751.478 -5.10242 -1.30234 0
M  V30 7672 H 753.969 -3.74048 -0.538199 0
M  V30 7673 H 754.282 -7.7132 -0.478091 0
M  V30 7674 H 752.627 -6.93625 -0.436897 0
M  V30 7675 H 755.818 -4.64453 -0.583158 0
M  V30 7676 H 755.991 -6.4561 -0.555976 0
M  V30 7677 N 749.397 0.351382 -1.53633 0
M  V30 7678 C 750.345 1.45142 -1.8176 0
M  V30 7679 C 751.339 1.54819 -0.687571 0
M  V30 7680 O 752.545 1.57536 -0.870772 0
M  V30 7681 H 748.92 0.483789 -0.575719 0
M  V30 7682 H 750.891 1.1863 -2.73806 0
M  V30 7683 C 749.64 2.81779 -2.03706 0
M  V30 7684 H 748.963 2.75097 -2.90107 0
M  V30 7685 H 750.403 3.5789 -2.27356 0
M  V30 7686 C 748.862 3.26762 -0.820271 0
M  V30 7687 O 749.392 4.01697 -0.0158603 0
M  V30 7688 N 747.598 2.83472 -0.639699 0
M  V30 7689 H 747.145 2.22655 -1.29547 0
M  V30 7690 H 747.103 3.13924 0.172995 0
M  V30 7691 N 750.875 1.45233 0.611969 0
M  V30 7692 C 751.838 1.53189 1.70487 0
M  V30 7693 C 752.838 0.411839 1.55437 0
M  V30 7694 O 754.028 0.675164 1.60584 0
M  V30 7695 C 751.16 1.42422 3.09723 0
M  V30 7696 H 752.353 2.5056 1.64802 0
M  V30 7697 H 749.906 1.32609 0.827318 0
M  V30 7698 H 750.641 0.462185 3.2099 0
M  V30 7699 H 750.426 2.23658 3.22055 0
M  V30 7700 H 751.916 1.51012 3.89339 0
M  V30 7701 N 752.353 -0.854086 1.3245 0
M  V30 7702 C 753.602 -1.60318 1.22397 0
M  V30 7703 C 753.915 -1.9444 -0.212664 0
M  V30 7704 O 755.121 -2.67991 -0.435066 0
M  V30 7705 C 753.577 -2.8909 2.1437 0
M  V30 7706 C 753.185 -2.62391 3.63119 0
M  V30 7707 C 754.929 -3.67104 2.13155 0
M  V30 7708 C 752.836 -3.87167 4.47052 0
M  V30 7709 H 751.766 -0.601586 0.454544 0
M  V30 7710 H 754.417 -0.943023 1.57415 0
M  V30 7711 H 752.799 -3.56567 1.72268 0
M  V30 7712 H 753.973 -2.03222 4.13567 0
M  V30 7713 H 752.288 -1.97706 3.66471 0
M  V30 7714 H 754.885 -4.59696 2.731 0
M  V30 7715 H 755.228 -4.00876 1.12268 0
M  V30 7716 H 755.761 -3.06533 2.5354 0
M  V30 7717 H 752.5 -3.58536 5.48755 0
M  V30 7718 H 752.02 -4.45729 4.01355 0
M  V30 7719 H 753.699 -4.549 4.60081 0
M  V30 7720 N 753.831 -1.1567 -1.07043 0
M  V30 7721 C 755.059 -0.957471 -1.83412 0
M  V30 7722 C 755.474 0.494271 -1.82215 0
M  V30 7723 O 754.831 1.34288 -1.23584 0
M  V30 7724 C 754.882 -1.46784 -3.30359 0
M  V30 7725 O 754.603 -2.86271 -3.31633 0
M  V30 7726 C 756.104 -1.31054 -4.23485 0
M  V30 7727 H 753.324 -0.33986 -0.578564 0
M  V30 7728 H 755.868 -1.53518 -1.35102 0
M  V30 7729 H 754.023 -0.932586 -3.76007 0
M  V30 7730 H 754.437 -3.0948 -4.23465 0
M  V30 7731 H 755.911 -1.71605 -5.24648 0
M  V30 7732 H 756.388 -0.255107 -4.38458 0
M  V30 7733 H 756.994 -1.83503 -3.83676 0
M  V30 7734 N 755.309 1.25446 -0.953992 0
M  V30 7735 C 756.586 1.884 -0.525823 0
M  V30 7736 C 756.966 1.86079 0.996891 0
M  V30 7737 O 756.314 1.32389 1.8624 0
M  V30 7738 C 756.524 3.31154 -1.10172 0
M  V30 7739 C 757.872 4.07926 -1.17819 0
M  V30 7740 O 758.896 3.40273 -1.05323 0
M  V30 7741 O 757.755 5.28942 -1.37415 0
M  V30 7742 H 754.849 0.808629 -0.173345 0
M  V30 7743 H 757.395 1.33522 -1.04738 0
M  V30 7744 H 756.167 3.27271 -2.14499 0
M  V30 7745 H 755.79 3.93588 -0.56338 0
M  V30 7746 N 756.787 0.722489 1.40064 0
M  V30 7747 C 758.015 0.274838 2.05066 0
M  V30 7748 C 758.43 -1.08586 1.54449 0
M  V30 7749 O 757.787 -1.68375 0.704003 0
M  V30 7750 C 757.838 0.253673 3.60609 0
M  V30 7751 O 757.559 1.56064 4.0936 0
M  V30 7752 C 759.06 -0.211684 4.42794 0
M  V30 7753 H 756.28 0.12226 0.659768 0
M  V30 7754 H 758.824 0.982632 1.79345 0
M  V30 7755 H 756.979 -0.405137 3.85276 0
M  V30 7756 H 757.393 1.46576 5.03603 0
M  V30 7757 H 758.867 -0.175341 5.51721 0
M  V30 7758 H 759.344 -1.25493 4.2089 0
M  V30 7759 H 759.95 0.4171 4.2325 0
M  V30 7760 N 758.265 -1.50454 0.469181 0
M  V30 7761 C 759.676 -1.86695 0.0136034 0
M  V30 7762 C 760.027 -1.38413 -1.39055 0
M  V30 7763 O 759.152 -0.748294 -2.03051 0
M  V30 7764 C 759.747 -3.38795 0.0179098 0
M  V30 7765 C 758.306 -3.74455 -0.382191 0
M  V30 7766 C 757.453 -2.74338 0.404207 0
M  V30 7767 H 760.404 -1.43225 0.683547 0
M  V30 7768 H 760.425 -3.72321 -0.78468 0
M  V30 7769 H 759.937 -3.73906 1.04 0
M  V30 7770 H 758.038 -3.44944 -1.4087 0
M  V30 7771 H 758.151 -4.79025 -0.084862 0
M  V30 7772 H 756.515 -2.54305 -0.141829 0
M  V30 7773 H 757.298 -3.12293 1.42577 0
M  V30 7774 N 759.743 -0.201713 -1.56304 0
M  V30 7775 C 760.673 0.71155 -2.22394 0
M  V30 7776 C 761.654 1.21625 -1.18917 0
M  V30 7777 O 762.839 1.26388 -1.47444 0
M  V30 7778 C 759.969 1.92837 -2.88845 0
M  V30 7779 C 758.923 1.55831 -3.98623 0
M  V30 7780 C 758.249 2.85228 -4.52271 0
M  V30 7781 C 759.549 0.763249 -5.16693 0
M  V30 7782 H 761.243 0.160573 -2.98969 0
M  V30 7783 H 758.789 0.0757916 -1.438 0
M  V30 7784 H 760.742 2.57253 -3.33764 0
M  V30 7785 H 759.466 2.50398 -2.09686 0
M  V30 7786 H 758.125 0.9377 -3.54405 0
M  V30 7787 H 757.773 3.40893 -3.69866 0
M  V30 7788 H 757.473 2.6121 -5.26349 0
M  V30 7789 H 758.997 3.50622 -4.99897 0
M  V30 7790 H 760.411 1.31066 -5.58117 0
M  V30 7791 H 758.808 0.620935 -5.96879 0
M  V30 7792 H 759.878 -0.234322 -4.84334 0
M  V30 7793 N 761.222 1.57436 0.0718424 0
M  V30 7794 C 762.152 2.06724 1.08571 0
M  V30 7795 C 763.133 0.960731 1.40371 0
M  V30 7796 O 764.318 1.23345 1.49999 0
M  V30 7797 C 761.448 2.51112 2.39916 0
M  V30 7798 C 760.402 3.65639 2.22469 0
M  V30 7799 C 759.728 3.96082 3.59198 0
M  V30 7800 C 761.028 4.95687 1.64596 0
M  V30 7801 H 762.722 2.91679 0.675569 0
M  V30 7802 H 760.268 1.40319 0.32352 0
M  V30 7803 H 762.221 2.84206 3.11135 0
M  V30 7804 H 760.945 1.63186 2.8291 0
M  V30 7805 H 759.604 3.32828 1.53691 0
M  V30 7806 H 759.252 3.05287 3.99761 0
M  V30 7807 H 758.952 4.73199 3.48362 0
M  V30 7808 H 760.476 4.31672 4.31847 0
M  V30 7809 H 761.89 5.27011 2.25681 0
M  V30 7810 H 760.287 5.77126 1.64457 0
M  V30 7811 H 761.357 4.8108 0.60744 0
M  V30 7812 N 762.7 -0.34323 1.53817 0
M  V30 7813 C 764.116 -0.686355 1.44088 0
M  V30 7814 C 764.316 -1.92426 0.597882 0
M  V30 7815 O 763.372 -2.52343 0.0889918 0
M  V30 7816 C 764.685 -0.878698 2.87575 0
M  V30 7817 C 766.233 -0.977296 2.97352 0
M  V30 7818 C 766.708 -1.20195 4.41947 0
M  V30 7819 N 768.199 -1.26915 4.45474 0
M  V30 7820 C 768.934 -1.46049 5.54488 0
M  V30 7821 N 768.43 -1.62354 6.73508 0
M  V30 7822 N 770.223 -1.48599 5.42102 0
M  V30 7823 H 762.374 0.470679 2.07119 0
M  V30 7824 H 764.637 0.148652 0.936273 0
M  V30 7825 H 764.343 -0.040602 3.51677 0
M  V30 7826 H 764.217 -1.78034 3.32541 0
M  V30 7827 H 766.604 -1.80591 2.3339 0
M  V30 7828 H 766.685 -0.0525498 2.55746 0
M  V30 7829 H 766.329 -0.378262 5.06489 0
M  V30 7830 H 766.259 -2.14027 4.81145 0
M  V30 7831 H 768.75 -1.15837 3.59708 0
M  V30 7832 H 769.063 -1.76591 7.52353 0
M  V30 7833 H 767.408 -1.5949 6.76453 0
M  V30 7834 H 770.599 -1.35443 4.48077 0
M  V30 7835 H 770.772 -1.6317 6.2712 0
M  V30 7836 N 764.178 -1.45556 -0.604258 0
M  V30 7837 C 765.594 -1.30035 -0.925368 0
M  V30 7838 C 765.794 -0.255833 -1.99869 0
M  V30 7839 O 764.85 0.349076 -2.50075 0
M  V30 7840 C 766.163 -2.68028 -1.36314 0
M  V30 7841 C 767.711 -2.75951 -1.47717 0
M  V30 7842 C 768.186 -4.14476 -1.94868 0
M  V30 7843 N 769.677 -4.16787 -2.02097 0
M  V30 7844 C 770.412 -5.20845 -2.39809 0
M  V30 7845 N 769.908 -6.35246 -2.76467 0
M  V30 7846 N 771.701 -5.08204 -2.40177 0
M  V30 7847 H 763.852 -2.1214 0.10512 0
M  V30 7848 H 766.115 -0.947871 -0.0156303 0
M  V30 7849 H 765.821 -3.45667 -0.648628 0
M  V30 7850 H 765.695 -2.96711 -2.329 0
M  V30 7851 H 768.082 -1.98613 -2.18258 0
M  V30 7852 H 768.163 -2.50977 -0.494371 0
M  V30 7853 H 767.807 -4.923 -1.24912 0
M  V30 7854 H 767.737 -4.36843 -2.94068 0
M  V30 7855 H 770.228 -3.34233 -1.76343 0
M  V30 7856 H 770.541 -7.10438 -3.04134 0
M  V30 7857 H 768.886 -6.38642 -2.74155 0
M  V30 7858 H 772.077 -4.17874 -2.10947 0
M  V30 7859 H 772.25 -5.89417 -2.69242 0
M  V30 7860 N 765.656 0.84705 -1.32902 0
M  V30 7861 C 766.619 1.9378 -1.224 0
M  V30 7862 C 767.619 1.60144 -0.145108 0
M  V30 7863 O 768.809 1.69638 -0.396058 0
M  V30 7864 C 765.941 3.29234 -0.884174 0
M  V30 7865 H 767.134 2.04518 -2.19345 0
M  V30 7866 H 764.687 1.03816 -1.16842 0
M  V30 7867 H 765.422 3.24193 0.0831277 0
M  V30 7868 H 765.207 3.55026 -1.6643 0
M  V30 7869 H 766.697 4.09162 -0.835226 0
M  V30 7870 N 767.134 1.16236 1.06428 0
M  V30 7871 C 768.081 0.86769 2.13869 0
M  V30 7872 C 769.051 -0.183298 1.65086 0
M  V30 7873 O 770.236 -0.0488002 1.90738 0
M  V30 7874 C 767.376 0.373427 3.43074 0
M  V30 7875 C 766.489 1.48708 4.05598 0
M  V30 7876 C 765.624 0.947977 5.22673 0
M  V30 7877 C 764.663 2.03793 5.77178 0
M  V30 7878 N 763.8 1.51451 6.85571 0
M  V30 7879 H 768.64 1.78781 2.38414 0
M  V30 7880 H 766.177 0.891892 1.16977 0
M  V30 7881 H 768.135 0.0685035 4.17144 0
M  V30 7882 H 766.765 -0.509752 3.1875 0
M  V30 7883 H 765.817 1.908 3.29089 0
M  V30 7884 H 767.129 2.30964 4.42105 0
M  V30 7885 H 766.283 0.596154 6.03764 0
M  V30 7886 H 765.022 0.0947081 4.87608 0
M  V30 7887 H 764.027 2.39847 4.94726 0
M  V30 7888 H 765.252 2.89514 6.14295 0
M  V30 7889 H 763.198 0.683755 6.52427 0
M  V30 7890 H 763.115 2.27325 7.21013 0
M  V30 7891 H 764.383 1.19123 7.70344 0
M  V30 7892 N 768.612 -1.24939 0.960631 0
M  V30 7893 C 769.544 -2.24879 0.442937 0
M  V30 7894 C 770.557 -1.56615 -0.444464 0
M  V30 7895 O 771.746 -1.76715 -0.251776 0
M  V30 7896 C 768.846 -3.36757 -0.380537 0
M  V30 7897 C 768.019 -4.34587 0.495283 0
M  V30 7898 C 767.078 -5.25502 -0.270995 0
M  V30 7899 O 766.104 -5.68227 0.332661 0
M  V30 7900 N 767.306 -5.59077 -1.56249 0
M  V30 7901 H 770.071 -2.69932 1.30218 0
M  V30 7902 H 767.632 -1.38907 0.83166 0
M  V30 7903 H 769.624 -3.94542 -0.90103 0
M  V30 7904 H 768.194 -2.91045 -1.14067 0
M  V30 7905 H 767.414 -3.75593 1.19682 0
M  V30 7906 H 768.702 -4.96925 1.09285 0
M  V30 7907 H 768.1 -5.2628 -2.07476 0
M  V30 7908 H 766.657 -6.19421 -2.02882 0
M  V30 7909 N 770.09 -0.729906 -1.39679 0
M  V30 7910 C 771.022 -0.0470588 -2.29152 0
M  V30 7911 C 772.035 0.708808 -1.4656 0
M  V30 7912 O 773.224 0.553815 -1.69691 0
M  V30 7913 C 770.324 0.957612 -3.25089 0
M  V30 7914 C 769.497 0.264321 -4.36601 0
M  V30 7915 C 768.556 1.17638 -5.12882 0
M  V30 7916 O 767.582 0.655777 -5.6541 0
M  V30 7917 N 768.784 2.50649 -5.23598 0
M  V30 7918 H 771.549 -0.815364 -2.88395 0
M  V30 7919 H 769.11 -0.578707 -1.51204 0
M  V30 7920 H 771.102 1.57026 -3.72995 0
M  V30 7921 H 769.672 1.62716 -2.66912 0
M  V30 7922 H 768.892 -0.528732 -3.90638 0
M  V30 7923 H 770.18 -0.216344 -5.0834 0
M  V30 7924 H 769.578 2.95427 -4.82431 0
M  V30 7925 H 768.135 3.07022 -5.74961 0
M  V30 7926 N 771.568 1.50203 -0.477153 0
M  V30 7927 C 772.814 2.02658 0.0758507 0
M  V30 7928 C 773.147 1.358 1.38824 0
M  V30 7929 O 772.422 0.485696 1.88338 0
M  V30 7930 C 772.705 3.59208 0.253339 0
M  V30 7931 C 772.558 4.36629 -1.0805 0
M  V30 7932 C 773.877 4.28469 1.00509 0
M  V30 7933 H 770.996 0.736538 0.0260921 0
M  V30 7934 H 773.638 1.79464 -0.623925 0
M  V30 7935 H 771.788 3.79101 0.849378 0
M  V30 7936 H 773.46 4.28292 -1.71358 0
M  V30 7937 H 771.703 4.0013 -1.67566 0
M  V30 7938 H 772.374 5.44449 -0.909883 0
M  V30 7939 H 774.85 4.13087 0.499818 0
M  V30 7940 H 773.726 5.37804 1.09808 0
M  V30 7941 H 773.987 3.92057 2.04314 0
M  V30 7942 N 773.046 0.209999 1.56195 0
M  V30 7943 C 773.993 -0.704854 2.19774 0
M  V30 7944 C 774.963 -1.19886 1.14964 0
M  V30 7945 O 776.148 -1.26005 1.43274 0
M  V30 7946 C 773.288 -1.91241 2.87265 0
M  V30 7947 C 772.401 -1.45838 4.06639 0
M  V30 7948 C 771.536 -2.6226 4.61945 0
M  V30 7949 C 770.575 -2.13537 5.73645 0
M  V30 7950 N 769.712 -3.2319 6.23292 0
M  V30 7951 H 774.552 -0.155944 2.97592 0
M  V30 7952 H 772.089 -0.0652235 1.46955 0
M  V30 7953 H 774.047 -2.62123 3.24573 0
M  V30 7954 H 772.677 -2.43439 2.11985 0
M  V30 7955 H 771.729 -0.644897 3.74894 0
M  V30 7956 H 773.041 -1.06103 4.87384 0
M  V30 7957 H 772.195 -3.41243 5.01636 0
M  V30 7958 H 770.934 -3.05278 3.80338 0
M  V30 7959 H 769.939 -1.33013 5.33468 0
M  V30 7960 H 771.164 -1.71533 6.57079 0
M  V30 7961 H 769.11 -3.65711 5.44602 0
M  V30 7962 H 769.027 -2.8767 6.99129 0
M  V30 7963 H 770.295 -4.02342 6.67639 0
M  V30 7964 N 774.524 -1.57472 -0.0634922 0
M  V30 7965 C 775.754 -1.91608 -0.772645 0
M  V30 7966 C 776.162 -0.805019 -1.71219 0
M  V30 7967 O 775.505 0.229941 -1.82255 0
M  V30 7968 C 775.567 -3.21281 -1.61304 0
M  V30 7969 C 775.231 -4.49177 -0.841973 0
M  V30 7970 C 776.228 -5.19661 -0.157494 0
M  V30 7971 C 773.913 -4.9578 -0.80669 0
M  V30 7972 C 775.907 -6.35006 0.551948 0
M  V30 7973 C 773.594 -6.11028 -0.0934812 0
M  V30 7974 C 774.592 -6.80493 0.58463 0
M  V30 7975 O 774.28 -7.93542 1.28633 0
M  V30 7976 H 774.012 -0.637685 -0.224352 0
M  V30 7977 H 776.566 -2.05369 -0.0355279 0
M  V30 7978 H 774.796 -3.03752 -2.39315 0
M  V30 7979 H 776.485 -3.41003 -2.20162 0
M  V30 7980 H 777.251 -4.84681 -0.176006 0
M  V30 7981 H 773.13 -4.41579 -1.32397 0
M  V30 7982 H 776.674 -6.89161 1.0818 0
M  V30 7983 H 772.571 -6.45459 -0.0729258 0
M  V30 7984 H 773.339 -8.09708 1.19646 0
M  V30 7985 N 776.003 0.335068 -1.53997 0
M  V30 7986 C 776.935 1.4327 -1.78903 0
M  V30 7987 C 777.948 1.48347 -0.670598 0
M  V30 7988 O 779.137 1.51277 -0.947494 0
M  V30 7989 C 776.237 2.81878 -1.88144 0
M  V30 7990 C 775.41 3.00141 -3.18174 0
M  V30 7991 C 774.469 4.19041 -3.18263 0
M  V30 7992 O 773.495 4.12751 -3.9195 0
M  V30 7993 N 774.697 5.28004 -2.41231 0
M  V30 7994 H 777.462 1.22272 -2.73623 0
M  V30 7995 H 775.023 0.524996 -1.53152 0
M  V30 7996 H 777.015 3.59609 -1.85644 0
M  V30 7997 H 775.585 2.9598 -1.00572 0
M  V30 7998 H 774.805 2.09808 -3.33728 0
M  V30 7999 H 776.093 3.0923 -4.04047 0
M  V30 8000 H 775.491 5.35986 -1.8093 0
M  V30 8001 H 774.048 6.04196 -2.44521 0
M  V30 8002 N 777.481 1.45874 0.596531 0
M  V30 8003 C 778.411 1.5824 1.71705 0
M  V30 8004 C 779.392 0.433366 1.64487 0
M  V30 8005 O 780.577 0.657895 1.82717 0
M  V30 8006 C 777.707 1.55927 3.10329 0
M  V30 8007 C 776.661 2.69659 3.32367 0
M  V30 8008 C 775.987 2.52403 4.71377 0
M  V30 8009 C 777.287 4.11591 3.21544 0
M  V30 8010 H 778.981 2.52035 1.61613 0
M  V30 8011 H 776.527 1.21297 0.776082 0
M  V30 8012 H 778.48 1.63173 3.88526 0
M  V30 8013 H 777.204 0.586674 3.21288 0
M  V30 8014 H 775.863 2.61859 2.56564 0
M  V30 8015 H 775.511 1.53258 4.79083 0
M  V30 8016 H 775.211 3.28679 4.87077 0
M  V30 8017 H 776.735 2.6152 5.5176 0
M  V30 8018 H 778.149 4.20576 3.89601 0
M  V30 8019 H 776.546 4.88344 3.4877 0
M  V30 8020 H 777.616 4.32719 2.1882 0
M  V30 8021 N 778.959 -0.83999 1.33349 0
M  V30 8022 C 780.236 -1.57973 1.15342 0
M  V30 8023 C 780.616 -2.09226 -0.280632 0
M  V30 8024 O 779.964 -1.89317 -1.2795 0
M  V30 8025 C 780.174 -2.71446 2.19359 0
M  V30 8026 C 781.522 -3.40654 2.53456 0
M  V30 8027 O 782.546 -2.81686 2.18017 0
M  V30 8028 O 781.405 -4.47101 3.14266 0
M  V30 8029 H 778.499 -0.6964 0.446044 0
M  V30 8030 H 781.045 -0.882843 1.44927 0
M  V30 8031 H 779.817 -2.31205 3.1569 0
M  V30 8032 H 779.44 -3.488 1.90852 0
M  V30 8033 N 780.437 -1.16799 -1.0581 0
M  V30 8034 C 781.683 -0.963929 -1.79109 0
M  V30 8035 C 782.038 0.502569 -1.8572 0
M  V30 8036 O 781.331 1.36813 -1.34137 0
M  V30 8037 C 781.525 -1.53111 -3.22942 0
M  V30 8038 C 781.354 -3.05123 -3.30348 0
M  V30 8039 C 780.124 -3.73804 -3.39998 0
M  V30 8040 C 782.322 -4.02777 -3.19805 0
M  V30 8041 N 780.304 -5.1348 -3.36469 0
M  V30 8042 C 781.675 -5.28866 -3.23576 0
M  V30 8043 C 783.73 -3.94533 -3.03724 0
M  V30 8044 C 782.433 -6.47669 -3.12918 0
M  V30 8045 C 784.459 -5.12913 -2.94405 0
M  V30 8046 C 783.821 -6.37884 -2.98803 0
M  V30 8047 H 779.92 -0.406555 -0.66801 0
M  V30 8048 H 782.504 -1.48277 -1.26183 0
M  V30 8049 H 780.675 -1.03869 -3.74254 0
M  V30 8050 H 782.407 -1.2643 -3.84444 0
M  V30 8051 H 779.162 -3.24457 -3.44999 0
M  V30 8052 H 779.586 -5.86477 -3.38191 0
M  V30 8053 H 784.228 -2.98763 -2.99166 0
M  V30 8054 H 781.946 -7.43656 -3.16231 0
M  V30 8055 H 785.532 -5.08309 -2.83042 0
M  V30 8056 H 784.412 -7.27946 -2.91657 0
M  V30 8057 N 781.915 1.24427 -0.967243 0
M  V30 8058 C 782.847 2.24641 -0.454856 0
M  V30 8059 C 783.86 1.56849 0.436152 0
M  V30 8060 O 785.049 1.76846 0.242401 0
M  V30 8061 C 782.149 3.36954 0.362672 0
M  V30 8062 C 781.322 4.34318 -0.518324 0
M  V30 8063 C 780.381 5.25638 0.243122 0
M  V30 8064 O 779.407 5.68043 -0.362791 0
M  V30 8065 N 780.609 5.59897 1.53282 0
M  V30 8066 H 783.374 2.69238 -1.31648 0
M  V30 8067 H 780.935 1.38464 -0.839015 0
M  V30 8068 H 782.927 3.95014 0.880094 0
M  V30 8069 H 781.497 2.91646 1.12522 0
M  V30 8070 H 780.717 3.74953 -1.21672 0
M  V30 8071 H 782.005 4.96338 -1.11919 0
M  V30 8072 H 781.403 5.27373 2.04682 0
M  V30 8073 H 779.96 6.20488 1.99594 0
M  V30 8074 N 783.393 0.737304 1.3929 0
M  V30 8075 C 784.323 0.113988 2.33222 0
M  V30 8076 C 785.304 -0.721695 1.54031 0
M  V30 8077 O 786.489 -0.666206 1.82415 0
M  V30 8078 C 783.619 -0.792319 3.38141 0
M  V30 8079 C 782.573 -0.0606178 4.27957 0
M  V30 8080 C 781.899 -1.08409 5.23595 0
M  V30 8081 C 783.199 1.09817 5.10625 0
M  V30 8082 H 784.893 0.898611 2.85596 0
M  V30 8083 H 782.439 0.433571 1.37318 0
M  V30 8084 H 784.392 -1.23793 4.02807 0
M  V30 8085 H 783.116 -1.60908 2.84211 0
M  V30 8086 H 781.775 0.365393 3.64775 0
M  V30 8087 H 781.423 -1.89449 4.6596 0
M  V30 8088 H 781.123 -0.599269 5.84536 0
M  V30 8089 H 782.647 -1.52936 5.91137 0
M  V30 8090 H 784.061 0.730892 5.68622 0
M  V30 8091 H 782.458 1.51278 5.80719 0
M  V30 8092 H 783.528 1.91878 4.45321 0
M  V30 8093 N 784.871 -1.49948 0.485112 0
M  V30 8094 C 786.101 -2.06506 -0.0621921 0
M  V30 8095 C 786.509 -1.34756 -1.32806 0
M  V30 8096 O 785.852 -0.41466 -1.78959 0
M  V30 8097 C 785.914 -3.57243 -0.402182 0
M  V30 8098 C 785.578 -4.50574 0.763671 0
M  V30 8099 C 786.575 -4.93032 1.6497 0
M  V30 8100 C 784.26 -4.9308 0.957973 0
M  V30 8101 C 786.254 -5.76718 2.71432 0
M  V30 8102 C 783.941 -5.76546 2.0258 0
M  V30 8103 C 784.939 -6.18267 2.90232 0
M  V30 8104 O 784.627 -7.00066 3.95174 0
M  V30 8105 H 784.359 -0.675925 0.0100672 0
M  V30 8106 H 786.913 -1.93922 0.677023 0
M  V30 8107 H 785.143 -3.6778 -1.19478 0
M  V30 8108 H 786.832 -3.96107 -0.886219 0
M  V30 8109 H 787.598 -4.60851 1.51134 0
M  V30 8110 H 783.477 -4.60117 0.285144 0
M  V30 8111 H 787.021 -6.09203 3.39878 0
M  V30 8112 H 782.918 -6.0814 2.16417 0
M  V30 8113 H 783.686 -7.18343 3.92333 0
M  V30 8114 N 786.349 -0.21828 -1.56081 0
M  V30 8115 C 787.626 0.463143 -1.90038 0
M  V30 8116 C 788.006 1.77982 -1.13515 0
M  V30 8117 O 787.354 2.27199 -0.24345 0
M  V30 8118 C 787.564 0.659292 -3.42716 0
M  V30 8119 C 788.912 0.968203 -4.13414 0
M  V30 8120 O 789.936 0.746195 -3.48296 0
M  V30 8121 O 788.795 1.38936 -5.28544 0
M  V30 8122 H 785.889 0.244435 -0.790051 0
M  V30 8123 H 788.435 -0.260221 -1.67693 0
M  V30 8124 H 787.207 -0.269584 -3.9037 0
M  V30 8125 H 786.83 1.43426 -3.7083 0
M  V30 8126 N 787.827 1.57504 0.0551401 0
M  V30 8127 C 789.074 1.88055 0.751104 0
M  V30 8128 C 789.402 0.812231 1.76729 0
M  V30 8129 O 788.657 -0.189918 1.94776 0
M  V30 8130 C 788.956 3.25311 1.48013 0
M  V30 8131 C 788.622 4.46858 0.602375 0
M  V30 8132 C 787.284 4.79847 0.360536 0
M  V30 8133 C 789.636 5.212 -0.00524047 0
M  V30 8134 C 786.964 5.84582 -0.498127 0
M  V30 8135 C 789.316 6.26844 -0.851453 0
M  V30 8136 C 787.98 6.58324 -1.103 0
M  V30 8137 H 787.25 0.688142 0.274848 0
M  V30 8138 H 789.897 1.91497 0.0114795 0
M  V30 8139 H 788.202 3.17737 2.29239 0
M  V30 8140 H 789.899 3.46189 2.02371 0
M  V30 8141 H 786.489 4.21049 0.801007 0
M  V30 8142 H 790.673 4.96013 0.168682 0
M  V30 8143 H 785.929 6.07361 -0.701594 0
M  V30 8144 H 790.103 6.83603 -1.32893 0
M  V30 8145 H 787.73 7.39304 -1.77011 0
M  V30 8146 N 789.305 -0.326896 1.54172 0
M  V30 8147 C 790.582 -1.08326 1.62864 0
M  V30 8148 C 790.962 -2.06018 0.46039 0
M  V30 8149 O 790.31 -2.21889 -0.545685 0
M  V30 8150 C 790.52 -1.78816 2.9971 0
M  V30 8151 C 791.868 -2.31958 3.55641 0
M  V30 8152 O 792.892 -1.88888 3.01993 0
M  V30 8153 O 791.751 -3.10801 4.49517 0
M  V30 8154 H 788.845 -0.499131 0.659392 0
M  V30 8155 H 791.391 -0.327054 1.66519 0
M  V30 8156 H 790.163 -1.07739 3.76176 0
M  V30 8157 H 789.786 -2.61255 2.99719 0
M  V30 8158 N 790.784 -1.46188 -0.588786 0
M  V30 8159 C 792.03 -1.52396 -1.34711 0
M  V30 8160 C 792.385 -0.170846 -1.9164 0
M  V30 8161 O 791.678 0.819714 -1.7318 0
M  V30 8162 C 791.872 -2.55364 -2.50048 0
M  V30 8163 C 791.701 -4.00554 -2.04417 0
M  V30 8164 C 790.471 -4.68334 -1.89715 0
M  V30 8165 C 792.669 -4.88533 -1.60747 0
M  V30 8166 N 790.651 -5.98167 -1.38091 0
M  V30 8167 C 792.022 -6.08143 -1.20672 0
M  V30 8168 C 794.077 -4.75236 -1.4851 0
M  V30 8169 C 792.78 -7.15927 -0.695782 0
M  V30 8170 C 794.806 -5.83085 -0.988196 0
M  V30 8171 C 794.168 -7.01864 -0.59719 0
M  V30 8172 H 790.267 -0.61252 -0.486151 0
M  V30 8173 H 792.851 -1.8277 -0.671063 0
M  V30 8174 H 791.022 -2.2691 -3.15225 0
M  V30 8175 H 792.754 -2.51603 -3.16983 0
M  V30 8176 H 789.509 -4.23763 -2.11476 0
M  V30 8177 H 789.933 -6.67254 -1.14458 0
M  V30 8178 H 794.575 -3.83801 -1.7736 0
M  V30 8179 H 792.293 -8.07135 -0.394857 0
M  V30 8180 H 795.879 -5.74836 -0.897504 0
M  V30 8181 H 794.759 -7.83895 -0.218621 0
M  V30 8182 N 792.262 0.832906 -1.33792 0
M  V30 8183 C 793.51 1.58539 -1.25338 0
M  V30 8184 C 793.831 1.94175 0.179204 0
M  V30 8185 O 793.101 1.61458 1.10941 0
M  V30 8186 H 791.681 0.58784 -0.460926 0
M  V30 8187 H 794.343 0.995064 -1.67584 0
M  V30 8188 H 793.439 2.51268 -1.85123 0
M  V30 8189 N 793.74 1.17359 1.05189 0
M  V30 8190 C 794.989 0.956412 1.77583 0
M  V30 8191 C 795.302 -0.516018 1.88671 0
M  V30 8192 O 796.508 -0.851401 2.57805 0
M  V30 8193 C 794.964 1.66203 3.19225 0
M  V30 8194 C 794.572 3.17299 3.16267 0
M  V30 8195 C 796.316 1.52725 3.96075 0
M  V30 8196 C 794.223 3.8055 4.52698 0
M  V30 8197 H 793.153 0.354204 0.665624 0
M  V30 8198 H 795.804 1.40612 1.17901 0
M  V30 8199 H 794.186 1.14006 3.79234 0
M  V30 8200 H 795.36 3.76431 2.65776 0
M  V30 8201 H 793.675 3.3079 2.52917 0
M  V30 8202 H 796.272 1.97351 4.96947 0
M  V30 8203 H 796.615 0.477803 4.13549 0
M  V30 8204 H 797.148 2.02139 3.42614 0
M  V30 8205 H 793.887 4.85492 4.4043 0
M  V30 8206 H 793.407 3.26206 5.03339 0
M  V30 8207 H 795.086 3.82757 5.21638 0
M  V30 8208 N 795.218 -1.23913 0.973828 0
M  V30 8209 C 796.446 -1.96195 0.656891 0
M  V30 8210 C 796.861 -1.72166 -0.774876 0
M  V30 8211 O 796.218 -1.0091 -1.52064 0
M  V30 8212 C 796.269 -3.49342 0.929638 0
M  V30 8213 O 795.99 -3.72553 2.30512 0
M  V30 8214 C 797.491 -4.38833 0.627739 0
M  V30 8215 H 794.711 -0.624841 0.244572 0
M  V30 8216 H 797.255 -1.57579 1.30343 0
M  V30 8217 H 795.41 -3.85999 0.329216 0
M  V30 8218 H 795.824 -4.66893 2.3898 0
M  V30 8219 H 797.298 -5.45117 0.868991 0
M  V30 8220 H 797.775 -4.37009 -0.438104 0
M  V30 8221 H 798.381 -4.07773 1.20834 0
M  V30 8222 N 796.696 -0.74468 -1.38897 0
M  V30 8223 C 797.926 -0.306982 -2.04307 0
M  V30 8224 C 798.334 1.06652 -1.56275 0
M  V30 8225 O 797.677 1.68699 -0.72708 0
M  V30 8226 C 797.739 -0.241186 -3.5869 0
M  V30 8227 C 797.403 -1.55476 -4.2974 0
M  V30 8228 C 798.4 -2.50229 -4.55721 0
M  V30 8229 C 796.085 -1.82173 -4.68101 0
M  V30 8230 C 798.079 -3.69905 -5.19085 0
M  V30 8231 C 795.766 -3.02125 -5.31191 0
M  V30 8232 C 796.764 -3.95812 -5.56616 0
M  V30 8233 O 796.452 -5.13656 -6.18395 0
M  V30 8234 H 796.184 -0.130416 -0.663301 0
M  V30 8235 H 798.738 -1.01192 -1.78744 0
M  V30 8236 H 796.968 0.519925 -3.83189 0
M  V30 8237 H 798.657 0.165806 -4.05561 0
M  V30 8238 H 799.423 -2.30877 -4.26522 0
M  V30 8239 H 795.302 -1.10091 -4.47662 0
M  V30 8240 H 798.846 -4.43047 -5.38846 0
M  V30 8241 H 794.743 -3.21374 -5.59811 0
M  V30 8242 H 795.511 -5.14119 -6.36886 0
M  V30 8243 N 798.174 1.49689 -0.493057 0
M  V30 8244 C 799.106 2.26867 0.326195 0
M  V30 8245 C 800.119 1.33083 0.937697 0
M  V30 8246 O 801.308 1.58427 0.822382 0
M  V30 8247 C 798.408 3.0519 1.4735 0
M  V30 8248 C 797.581 4.26491 0.970767 0
M  V30 8249 C 796.64 4.86926 1.99473 0
M  V30 8250 O 795.666 5.47221 1.56647 0
M  V30 8251 N 796.868 4.75871 3.32456 0
M  V30 8252 H 799.633 2.97816 -0.335547 0
M  V30 8253 H 797.194 1.58602 -0.325129 0
M  V30 8254 H 799.186 3.42496 2.15589 0
M  V30 8255 H 797.756 2.369 2.03954 0
M  V30 8256 H 796.976 3.94036 0.113529 0
M  V30 8257 H 798.264 5.05092 0.613156 0
M  V30 8258 H 797.662 4.2797 3.69944 0
M  V30 8259 H 796.219 5.17383 3.96431 0
M  V30 8260 N 799.652 0.226554 1.55963 0
M  V30 8261 C 800.882 -0.407915 2.02533 0
M  V30 8262 C 801.29 -1.53539 1.10554 0
M  V30 8263 O 800.633 -1.8338 0.108409 0
M  V30 8264 C 800.695 -0.996081 3.45425 0
M  V30 8265 C 800.359 -0.00341651 4.57 0
M  V30 8266 C 801.356 0.798782 5.13727 0
M  V30 8267 C 799.041 0.116786 5.02164 0
M  V30 8268 C 801.035 1.70784 6.14094 0
M  V30 8269 C 798.722 1.02937 6.02368 0
M  V30 8270 C 799.72 1.82344 6.5821 0
M  V30 8271 O 799.408 2.72067 7.56462 0
M  V30 8272 H 799.14 -0.103524 0.668026 0
M  V30 8273 H 801.694 0.341937 2.02534 0
M  V30 8274 H 799.924 -1.79512 3.42509 0
M  V30 8275 H 801.613 -1.53848 3.75614 0
M  V30 8276 H 802.379 0.716393 4.7968 0
M  V30 8277 H 798.258 -0.491172 4.58376 0
M  V30 8278 H 801.802 2.32807 6.57607 0
M  V30 8279 H 797.699 1.11276 6.35836 0
M  V30 8280 H 798.467 2.66199 7.74003 0
M  V30 8281 N 801.13 -1.57531 -0.0467866 0
M  V30 8282 C 802.06 -2.08425 -1.05268 0
M  V30 8283 C 803.041 -0.982941 -1.38825 0
M  V30 8284 O 804.226 -1.25716 -1.48018 0
M  V30 8285 C 801.356 -2.54897 -2.35891 0
M  V30 8286 C 800.31 -3.69132 -2.16623 0
M  V30 8287 C 799.636 -4.01747 -3.52851 0
M  V30 8288 C 800.936 -4.98243 -1.56689 0
M  V30 8289 H 802.63 -2.92716 -0.62908 0
M  V30 8290 H 800.176 -1.40816 -0.301156 0
M  V30 8291 H 802.129 -2.8912 -3.06574 0
M  V30 8292 H 800.853 -1.67666 -2.80278 0
M  V30 8293 H 799.512 -3.35231 -1.48377 0
M  V30 8294 H 799.16 -3.11608 -3.94853 0
M  V30 8295 H 798.86 -4.78681 -3.4079 0
M  V30 8296 H 800.384 -4.38487 -4.24925 0
M  V30 8297 H 801.798 -5.30535 -2.17268 0
M  V30 8298 H 800.195 -5.79669 -1.55255 0
M  V30 8299 H 801.265 -4.81986 -0.530827 0
M  V30 8300 N 802.608 0.318715 -1.54344 0
M  V30 8301 C 803.856 1.054 -1.72439 0
M  V30 8302 C 804.177 1.88388 -0.503495 0
M  V30 8303 O 803.447 1.89866 0.48246 0
M  V30 8304 H 802.027 0.392124 -0.635805 0
M  V30 8305 H 804.689 0.35398 -1.91659 0
M  V30 8306 H 803.785 1.71726 -2.60608 0
M  V30 8307 N 804.086 1.46499 0.581025 0
M  V30 8308 C 805.314 1.5547 1.36517 0
M  V30 8309 C 805.729 0.196407 1.87776 0
M  V30 8310 O 805.086 -0.806577 1.63709 0
M  V30 8311 C 805.137 2.56084 2.55154 0
M  V30 8312 O 804.858 3.86637 2.06018 0
M  V30 8313 C 806.359 2.75011 3.47683 0
M  V30 8314 H 803.579 0.525703 0.416986 0
M  V30 8315 H 806.123 1.9192 0.706177 0
M  V30 8316 H 804.278 2.22633 3.17039 0
M  V30 8317 H 804.692 4.41413 2.83292 0
M  V30 8318 H 806.166 3.49329 4.27403 0
M  V30 8319 H 806.643 1.81978 3.99726 0
M  V30 8320 H 807.249 3.09565 2.91632 0
M  V30 8321 N 805.565 -0.825799 1.34232 0
M  V30 8322 C 806.981 -1.11848 1.13851 0
M  V30 8323 C 807.181 -2.01405 -0.0619031 0
M  V30 8324 O 806.237 -2.41465 -0.738287 0
M  V30 8325 C 807.55 -1.76797 2.43235 0
M  V30 8326 C 809.098 -1.89304 2.49265 0
M  V30 8327 C 809.573 -2.57669 3.78643 0
M  V30 8328 N 811.064 -2.65171 3.79788 0
M  V30 8329 C 811.799 -3.1879 4.76614 0
M  V30 8330 N 811.295 -3.72995 5.83821 0
M  V30 8331 N 813.088 -3.17164 4.64073 0
M  V30 8332 H 805.239 -0.230049 2.11151 0
M  V30 8333 H 807.502 -0.164609 0.9336 0
M  V30 8334 H 807.208 -1.18455 3.31152 0
M  V30 8335 H 807.082 -2.76693 2.56361 0
M  V30 8336 H 809.469 -2.46796 1.6179 0
M  V30 8337 H 809.55 -0.883191 2.4007 0
M  V30 8338 H 809.194 -2.00833 4.66507 0
M  V30 8339 H 809.124 -3.59152 3.8512 0
M  V30 8340 H 811.615 -2.26746 3.02315 0
M  V30 8341 H 811.928 -4.12151 6.53721 0
M  V30 8342 H 810.273 -3.71246 5.87538 0
M  V30 8343 H 813.464 -2.74082 3.79469 0
M  V30 8344 H 813.637 -3.58647 5.397 0
M  V30 8345 N 807.043 -1.17915 -1.04565 0
M  V30 8346 C 808.273 -0.994716 -1.81077 0
M  V30 8347 C 808.681 0.460146 -1.83519 0
M  V30 8348 O 808.024 1.33136 -1.26572 0
M  V30 8349 C 808.086 -1.46698 -3.28207 0
M  V30 8350 C 807.75 -2.94523 -3.49436 0
M  V30 8351 C 808.747 -3.92414 -3.41038 0
M  V30 8352 C 806.432 -3.32841 -3.76194 0
M  V30 8353 C 808.426 -5.2662 -3.59096 0
M  V30 8354 C 806.113 -4.67212 -3.93899 0
M  V30 8355 C 807.111 -5.6391 -3.8535 0
M  V30 8356 O 806.799 -6.95849 -4.02554 0
M  V30 8357 H 806.531 -0.351797 -0.577248 0
M  V30 8358 H 809.085 -1.56772 -1.32709 0
M  V30 8359 H 807.315 -0.837592 -3.7752 0
M  V30 8360 H 809.004 -1.24724 -3.86263 0
M  V30 8361 H 809.77 -3.64157 -3.20336 0
M  V30 8362 H 805.649 -2.58139 -3.81949 0
M  V30 8363 H 809.193 -6.02082 -3.52339 0
M  V30 8364 H 805.09 -4.95172 -4.14095 0
M  V30 8365 H 805.858 -7.02679 -4.19743 0
M  V30 8366 N 808.521 1.23394 -0.980386 0
M  V30 8367 C 809.798 1.87242 -0.565667 0
M  V30 8368 C 810.178 1.88151 0.957197 0
M  V30 8369 O 809.526 1.36309 1.8339 0
M  V30 8370 C 809.736 3.28743 -1.17172 0
M  V30 8371 C 811.084 4.05335 -1.26446 0
M  V30 8372 O 812.108 3.37962 -1.12517 0
M  V30 8373 O 810.967 5.25908 -1.48604 0
M  V30 8374 H 808.061 0.80477 -0.190459 0
M  V30 8375 H 810.607 1.3127 -1.07547 0
M  V30 8376 H 809.379 3.22647 -2.21392 0
M  V30 8377 H 809.002 3.92305 -0.646739 0
M  V30 8378 N 809.999 0.752036 1.385 0
M  V30 8379 C 810.946 0.123288 2.3047 0
M  V30 8380 C 811.916 -0.711326 1.50098 0
M  V30 8381 O 813.101 -0.667775 1.78733 0
M  V30 8382 C 810.241 -0.765085 3.36512 0
M  V30 8383 C 809.354 0.0839885 4.31918 0
M  V30 8384 C 808.489 -0.807243 5.25031 0
M  V30 8385 C 807.528 0.0455583 6.12083 0
M  V30 8386 N 806.665 -0.802547 6.97498 0
M  V30 8387 H 811.505 0.913169 2.83664 0
M  V30 8388 H 809.042 0.46195 1.39658 0
M  V30 8389 H 811 -1.29476 3.966 0
M  V30 8390 H 809.63 -1.52077 2.84732 0
M  V30 8391 H 808.682 0.731276 3.73305 0
M  V30 8392 H 809.994 0.74265 4.9324 0
M  V30 8393 H 809.148 -1.40414 5.90228 0
M  V30 8394 H 807.887 -1.49964 4.64071 0
M  V30 8395 H 806.892 0.655137 5.45883 0
M  V30 8396 H 808.117 0.734994 6.75111 0
M  V30 8397 H 806.063 -1.47992 6.39089 0
M  V30 8398 H 805.98 -0.200747 7.55733 0
M  V30 8399 H 807.248 -1.38447 7.67107 0
M  V30 8400 N 811.477 -1.49425 0.500989 0
M  V30 8401 C 812.754 -1.9531 -0.106551 0
M  V30 8402 C 813.134 -1.44248 -1.54129 0
M  V30 8403 O 812.482 -0.656237 -2.18874 0
M  V30 8404 C 812.692 -3.48995 -0.0191972 0
M  V30 8405 C 814.04 -4.24161 -0.193129 0
M  V30 8406 O 815.064 -3.56075 -0.0943843 0
M  V30 8407 O 813.923 -5.45064 -0.395869 0
M  V30 8408 H 811.017 -0.82149 -0.0953068 0
M  V30 8409 H 813.563 -1.6007 0.563526 0
M  V30 8410 H 812.335 -3.78794 0.981353 0
M  V30 8411 H 811.958 -3.90852 -0.72942 0
M  V30 8412 N 812.955 -0.234822 -1.55841 0
M  V30 8413 C 814.185 0.397168 -2.02746 0
M  V30 8414 C 814.593 1.52951 -1.11367 0
M  V30 8415 O 813.936 1.8332 -0.118133 0
M  V30 8416 C 813.998 0.977748 -3.45948 0
M  V30 8417 C 813.662 -0.0208193 -4.56995 0
M  V30 8418 C 814.659 -0.826015 -5.13296 0
M  V30 8419 C 812.344 -0.143416 -5.02095 0
M  V30 8420 C 814.338 -1.74038 -6.1318 0
M  V30 8421 C 812.025 -1.0613 -6.01814 0
M  V30 8422 C 813.023 -1.85832 -6.57233 0
M  V30 8423 O 812.711 -2.76075 -7.55008 0
M  V30 8424 H 812.443 0.0999802 -0.668566 0
M  V30 8425 H 814.997 -0.352673 -2.0235 0
M  V30 8426 H 813.227 1.77693 -3.43456 0
M  V30 8427 H 814.916 1.51854 -3.76424 0
M  V30 8428 H 815.682 -0.741822 -4.79293 0
M  V30 8429 H 811.561 0.466857 -4.5863 0
M  V30 8430 H 815.105 -2.36291 -6.56363 0
M  V30 8431 H 811.002 -1.14646 -6.35237 0
M  V30 8432 H 811.77 -2.703 -7.7258 0
M  V30 8433 N 814.433 1.57553 0.0384317 0
M  V30 8434 C 815.658 1.93485 0.746872 0
M  V30 8435 C 816.083 0.834069 1.68597 0
M  V30 8436 O 815.441 -0.210902 1.80069 0
M  V30 8437 C 815.489 3.28463 1.4881 0
M  V30 8438 O 814.593 3.20051 2.60079 0
M  V30 8439 H 813.934 0.632675 0.201539 0
M  V30 8440 H 816.464 2.046 -0.00329815 0
M  V30 8441 H 816.474 3.63132 1.86009 0
M  V30 8442 H 815.149 4.08147 0.799297 0
M  V30 8443 H 813.726 2.96998 2.25492 0
M  V30 8444 N 815.911 -0.310526 1.54511 0
M  V30 8445 C 817.136 -1.07046 1.7764 0
M  V30 8446 C 817.561 -1.80488 0.529696 0
M  V30 8447 O 816.919 -1.73702 -0.519361 0
M  V30 8448 C 816.967 -2.03411 2.97752 0
M  V30 8449 O 816.071 -3.11545 2.7021 0
M  V30 8450 H 815.412 -0.307994 0.588248 0
M  V30 8451 H 817.942 -0.350848 2.01569 0
M  V30 8452 H 817.952 -2.46048 3.2546 0
M  V30 8453 H 816.627 -1.49361 3.88155 0
M  V30 8454 H 815.204 -2.7349 2.53491 0
M  V30 8455 N 817.389 -1.46805 -0.573248 0
M  V30 8456 C 818.619 -1.55965 -1.35494 0
M  V30 8457 C 819.027 -0.203038 -1.88107 0
M  V30 8458 O 818.37 0.81138 -1.6481 0
M  V30 8459 C 818.432 -2.51168 -2.57206 0
M  V30 8460 C 818.096 -3.97211 -2.25993 0
M  V30 8461 C 819.093 -4.86155 -1.84254 0
M  V30 8462 C 816.778 -4.42419 -2.37846 0
M  V30 8463 C 818.772 -6.18323 -1.54776 0
M  V30 8464 C 816.459 -5.74619 -2.0798 0
M  V30 8465 C 817.457 -6.62392 -1.66511 0
M  V30 8466 O 817.145 -7.92137 -1.37016 0
M  V30 8467 H 816.877 -0.529748 -0.419932 0
M  V30 8468 H 819.431 -1.92998 -0.702914 0
M  V30 8469 H 817.661 -2.09171 -3.25245 0
M  V30 8470 H 819.35 -2.50631 -3.19279 0
M  V30 8471 H 820.116 -4.52481 -1.74603 0
M  V30 8472 H 815.995 -3.74319 -2.69085 0
M  V30 8473 H 819.539 -6.8679 -1.22334 0
M  V30 8474 H 815.436 -6.0784 -2.17258 0
M  V30 8475 H 816.204 -8.04492 -1.50782 0
M  V30 8476 N 818.867 0.818669 -1.34668 0
M  V30 8477 C 820.278 1.39177 -1.24446 0
M  V30 8478 C 820.629 1.9578 0.128268 0
M  V30 8479 O 819.754 1.90382 1.02877 0
M  V30 8480 C 820.349 2.53012 -2.25323 0
M  V30 8481 C 818.908 3.06218 -2.18878 0
M  V30 8482 C 818.055 1.79112 -2.11694 0
M  V30 8483 H 821.006 0.622709 -1.45973 0
M  V30 8484 H 821.027 3.31226 -1.8727 0
M  V30 8485 H 820.539 2.11784 -3.25221 0
M  V30 8486 H 818.64 3.51939 -1.22351 0
M  V30 8487 H 818.753 3.65019 -3.10319 0
M  V30 8488 H 817.117 2.0018 -1.57481 0
M  V30 8489 H 817.9 1.40053 -3.13433 0
M  V30 8490 N 820.346 1.18468 1.03938 0
M  V30 8491 C 821.576 1.0043 1.80547 0
M  V30 8492 C 821.984 -0.450407 1.83761 0
M  V30 8493 O 821.327 -1.32463 1.27276 0
M  V30 8494 C 821.389 1.48437 3.27424 0
M  V30 8495 C 821.053 2.96372 3.47869 0
M  V30 8496 C 822.05 3.94217 3.38953 0
M  V30 8497 C 819.735 3.34831 3.74424 0
M  V30 8498 C 821.729 5.28517 3.56298 0
M  V30 8499 C 819.416 4.69294 3.91416 0
M  V30 8500 C 820.414 5.65946 3.82354 0
M  V30 8501 O 820.102 6.97974 3.98858 0
M  V30 8502 H 819.834 0.354853 0.575374 0
M  V30 8503 H 822.388 1.57473 1.31876 0
M  V30 8504 H 820.618 0.857601 3.7707 0
M  V30 8505 H 822.307 1.2677 3.85596 0
M  V30 8506 H 823.073 3.6585 3.184 0
M  V30 8507 H 818.952 2.60161 3.80575 0
M  V30 8508 H 822.496 6.03943 3.49141 0
M  V30 8509 H 818.393 4.97361 4.11463 0
M  V30 8510 H 819.161 7.04895 4.1601 0
M  V30 8511 N 821.824 -1.22873 0.986916 0
M  V30 8512 C 822.756 -2.23889 0.490537 0
M  V30 8513 C 823.769 -1.57523 -0.411144 0
M  V30 8514 O 824.958 -1.7721 -0.214236 0
M  V30 8515 C 822.058 -3.37488 -0.30902 0
M  V30 8516 C 821.231 -4.33438 0.587354 0
M  V30 8517 C 820.29 -5.25958 -0.159467 0
M  V30 8518 O 819.316 -5.67394 0.453115 0
M  V30 8519 N 820.518 -5.62265 -1.44355 0
M  V30 8520 H 823.283 -2.67109 1.35914 0
M  V30 8521 H 820.844 -1.37111 0.860937 0
M  V30 8522 H 822.836 -3.96365 -0.817139 0
M  V30 8523 H 821.406 -2.934 -1.07868 0
M  V30 8524 H 820.626 -3.72969 1.27622 0
M  V30 8525 H 821.914 -4.94495 1.19801 0
M  V30 8526 H 821.312 -5.30562 -1.96266 0
M  V30 8527 H 819.869 -6.23585 -1.89698 0
M  V30 8528 N 823.302 -0.75937 -1.38099 0
M  V30 8529 C 824.53 -0.329111 -2.04266 0
M  V30 8530 C 824.945 1.04453 -1.57274 0
M  V30 8531 O 824.302 1.66449 -0.748397 0
M  V30 8532 C 824.353 -0.349192 -3.5981 0
M  V30 8533 O 824.074 -1.66863 -4.05078 0
M  V30 8534 C 825.575 0.0942106 -4.432 0
M  V30 8535 H 822.795 -0.13971 -0.656294 0
M  V30 8536 H 825.339 -1.02984 -1.76677 0
M  V30 8537 H 823.494 0.302846 -3.86214 0
M  V30 8538 H 823.908 -1.59877 -4.9954 0
M  V30 8539 H 825.382 0.0290004 -5.51992 0
M  V30 8540 H 825.859 1.1429 -4.24069 0
M  V30 8541 H 826.465 -0.529171 -4.21995 0
M  V30 8542 N 824.78 1.49157 -0.508906 0
M  V30 8543 C 826.026 2.02773 0.0328469 0
M  V30 8544 C 826.359 1.38714 1.35912 0
M  V30 8545 O 825.634 0.525536 1.87266 0
M  V30 8546 C 825.917 3.59664 0.177088 0
M  V30 8547 C 825.77 4.34239 -1.17287 0
M  V30 8548 C 827.089 4.30505 0.913977 0
M  V30 8549 H 824.208 0.736926 0.0104631 0
M  V30 8550 H 826.85 1.781 -0.661851 0
M  V30 8551 H 825 3.80818 0.768774 0
M  V30 8552 H 826.672 4.24561 -1.80404 0
M  V30 8553 H 824.915 3.96486 -1.76016 0
M  V30 8554 H 825.586 5.42397 -1.02516 0
M  V30 8555 H 828.062 4.14054 0.412084 0
M  V30 8556 H 826.938 5.40012 0.983759 0
M  V30 8557 H 827.199 3.96302 1.95951 0
M  V30 8558 N 826.258 0.243083 1.55714 0
M  V30 8559 C 827.205 -0.658078 2.21219 0
M  V30 8560 C 828.175 -1.1742 1.17481 0
M  V30 8561 O 829.36 -1.22937 1.45915 0
M  V30 8562 C 826.5 -1.85104 2.91257 0
M  V30 8563 C 825.613 -1.3718 4.09641 0
M  V30 8564 C 824.748 -2.52403 4.67404 0
M  V30 8565 C 823.787 -2.01321 5.78045 0
M  V30 8566 N 822.924 -3.09896 6.30007 0
M  V30 8567 H 827.764 -0.0927854 2.97856 0
M  V30 8568 H 825.301 -0.0340375 1.47061 0
M  V30 8569 H 827.259 -2.55179 3.3006 0
M  V30 8570 H 825.889 -2.38887 2.17101 0
M  V30 8571 H 824.941 -0.565232 3.76177 0
M  V30 8572 H 826.253 -0.957409 4.89525 0
M  V30 8573 H 825.407 -3.30525 5.08761 0
M  V30 8574 H 824.146 -2.97142 3.86728 0
M  V30 8575 H 823.151 -1.21667 5.36169 0
M  V30 8576 H 824.376 -1.57556 6.6057 0
M  V30 8577 H 822.322 -3.54077 5.52237 0
M  V30 8578 H 822.239 -2.72776 7.05074 0
M  V30 8579 H 823.507 -3.8809 6.76023 0
M  V30 8580 N 827.736 -1.57571 -0.0300757 0
M  V30 8581 C 828.669 -2.01874 -1.06406 0
M  V30 8582 C 829.647 -0.902901 -1.35227 0
M  V30 8583 O 830.831 -1.16865 -1.47901 0
M  V30 8584 C 827.958 -2.39093 -2.39901 0
M  V30 8585 C 827.004 -3.61108 -2.26943 0
M  V30 8586 S 827.837 -5.10287 -1.62382 0
M  V30 8587 C 828.993 -5.50747 -2.97369 0
M  V30 8588 H 829.226 -2.89261 -0.686703 0
M  V30 8589 H 826.759 -1.52523 -0.240017 0
M  V30 8590 H 828.717 -2.61207 -3.16672 0
M  V30 8591 H 827.378 -1.52159 -2.74784 0
M  V30 8592 H 826.571 -3.84803 -3.25489 0
M  V30 8593 H 826.173 -3.3884 -1.58314 0
M  V30 8594 H 828.465 -5.51369 -3.93698 0
M  V30 8595 H 829.408 -6.51071 -2.78409 0
M  V30 8596 H 829.816 -4.7825 -2.99895 0
M  V30 8597 N 829.214 0.302327 -1.54673 0
M  V30 8598 C 830.462 1.03565 -1.73547 0
M  V30 8599 C 830.783 1.87843 -0.523448 0
M  V30 8600 O 830.053 1.90367 0.462295 0
M  V30 8601 H 828.633 0.385358 -0.639928 0
M  V30 8602 H 831.295 0.333632 -1.92023 0
M  V30 8603 H 830.391 1.68952 -2.62415 0
M  V30 8604 N 830.692 1.47107 0.565454 0
M  V30 8605 C 831.94 1.53005 1.32038 0
M  V30 8606 C 832.261 0.190453 1.94068 0
M  V30 8607 O 831.531 -0.784783 1.79494 0
M  V30 8608 H 830.111 0.563578 0.490294 0
M  V30 8609 H 832.773 1.83351 0.660928 0
M  V30 8610 H 831.869 2.29215 2.11818 0
M  V30 8611 N 832.17 -0.811516 1.35101 0
M  V30 8612 C 833.416 -1.57068 1.28287 0
M  V30 8613 C 833.749 -1.93667 -0.143808 0
M  V30 8614 O 833.024 -1.60953 -1.09199 0
M  V30 8615 C 833.307 -2.86259 2.18466 0
M  V30 8616 C 833.16 -2.56168 3.69727 0
M  V30 8617 C 834.479 -3.87924 2.07852 0
M  V30 8618 H 831.598 -0.569869 0.467353 0
M  V30 8619 H 834.24 -0.934023 1.65457 0
M  V30 8620 H 832.39 -3.4059 1.86898 0
M  V30 8621 H 834.062 -2.08059 4.11715 0
M  V30 8622 H 832.305 -1.89436 3.90252 0
M  V30 8623 H 832.976 -3.48344 4.28206 0
M  V30 8624 H 835.452 -3.4298 2.35593 0
M  V30 8625 H 834.328 -4.76106 2.73157 0
M  V30 8626 H 834.589 -4.2923 1.05896 0
M  V30 8627 N 833.648 -1.19017 -1.03309 0
M  V30 8628 C 834.873 -1.01598 -1.80811 0
M  V30 8629 C 835.298 0.430773 -1.83101 0
M  V30 8630 O 834.656 1.30946 -1.25391 0
M  V30 8631 C 834.704 -1.5845 -3.23923 0
M  V30 8632 O 833.808 -0.810972 -4.04348 0
M  V30 8633 H 833.149 -0.359398 -0.558327 0
M  V30 8634 H 835.679 -1.57945 -1.30055 0
M  V30 8635 H 835.689 -1.61486 -3.74682 0
M  V30 8636 H 834.364 -2.63752 -3.21571 0
M  V30 8637 H 832.941 -0.85353 -3.63 0
M  V30 8638 N 835.127 1.22348 -0.993418 0
M  V30 8639 C 836.057 2.26584 -0.564088 0
M  V30 8640 C 837.038 1.65102 0.409298 0
M  V30 8641 O 838.223 1.91872 0.299819 0
M  V30 8642 C 835.353 3.47087 0.121554 0
M  V30 8643 C 834.307 4.21009 -0.770429 0
M  V30 8644 C 833.633 5.34678 0.0481586 0
M  V30 8645 C 834.933 4.79636 -2.06752 0
M  V30 8646 H 836.627 2.62749 -1.43538 0
M  V30 8647 H 834.173 1.26303 -0.691628 0
M  V30 8648 H 836.126 4.19166 0.433303 0
M  V30 8649 H 834.85 3.1002 1.0274 0
M  V30 8650 H 833.509 3.50764 -1.06583 0
M  V30 8651 H 833.157 4.93852 0.954933 0
M  V30 8652 H 832.857 5.85061 -0.545641 0
M  V30 8653 H 834.381 6.09573 0.353991 0
M  V30 8654 H 835.795 5.43654 -1.81969 0
M  V30 8655 H 834.192 5.4036 -2.61019 0
M  V30 8656 H 835.262 3.99659 -2.74592 0
M  V30 8657 N 836.605 0.766683 1.37694 0
M  V30 8658 C 837.851 0.338201 2.00569 0
M  V30 8659 C 838.206 -1.07196 1.59771 0
M  V30 8660 O 837.499 -1.72622 0.831402 0
M  V30 8661 C 837.693 0.413831 3.54996 0
M  V30 8662 C 837.522 1.8298 4.1079 0
M  V30 8663 C 836.292 2.44932 4.41969 0
M  V30 8664 C 838.49 2.78852 4.32141 0
M  V30 8665 N 836.472 3.78353 4.83448 0
M  V30 8666 C 837.843 3.97063 4.76174 0
M  V30 8667 C 839.898 2.76205 4.14265 0
M  V30 8668 C 838.601 5.13003 5.04203 0
M  V30 8669 C 840.627 3.91314 4.43427 0
M  V30 8670 C 839.989 5.08265 4.87694 0
M  V30 8671 H 836.088 0.170693 0.763143 0
M  V30 8672 H 838.672 0.999435 1.67091 0
M  V30 8673 H 836.843 -0.217198 3.87792 0
M  V30 8674 H 838.575 -0.036222 4.04684 0
M  V30 8675 H 835.33 1.9659 4.3087 0
M  V30 8676 H 835.754 4.46937 5.08504 0
M  V30 8677 H 840.396 1.86962 3.79216 0
M  V30 8678 H 838.114 6.0285 5.38142 0
M  V30 8679 H 841.7 3.906 4.31187 0
M  V30 8680 H 840.58 5.95858 5.09827 0
M  V30 8681 N 838.083 -1.48885 0.516809 0
M  V30 8682 C 839.36 -1.95412 -0.0858293 0
M  V30 8683 C 839.74 -1.45875 -1.5259 0
M  V30 8684 O 839.088 -0.679415 -2.18166 0
M  V30 8685 C 839.298 -3.48995 0.0178194 0
M  V30 8686 C 840.646 -4.24342 -0.14813 0
M  V30 8687 O 841.67 -3.56155 -0.0566125 0
M  V30 8688 O 840.529 -5.45454 -0.338035 0
M  V30 8689 H 837.623 -0.822455 -0.0865884 0
M  V30 8690 H 840.169 -1.59464 0.580472 0
M  V30 8691 H 838.941 -3.77732 1.02147 0
M  V30 8692 H 838.564 -3.91604 -0.687924 0
M  V30 8693 N 839.561 -0.251338 -1.55583 0
M  V30 8694 C 840.491 0.640437 -2.24545 0
M  V30 8695 C 841.472 1.17781 -1.22726 0
M  V30 8696 O 842.657 1.21633 -1.5139 0
M  V30 8697 C 839.787 1.8355 -2.94834 0
M  V30 8698 C 838.741 1.4307 -4.03379 0
M  V30 8699 C 838.067 2.70695 -4.61116 0
M  V30 8700 C 839.367 0.59848 -5.1886 0
M  V30 8701 H 841.061 0.0653772 -2.99329 0
M  V30 8702 H 838.607 0.0300042 -1.43969 0
M  V30 8703 H 840.56 2.46505 -3.4178 0
M  V30 8704 H 839.284 2.43601 -2.17546 0
M  V30 8705 H 837.943 0.824474 -3.57209 0
M  V30 8706 H 837.591 3.28954 -3.80524 0
M  V30 8707 H 837.291 2.44332 -5.34393 0
M  V30 8708 H 838.815 3.34541 -5.10798 0
M  V30 8709 H 840.229 1.13244 -5.62004 0
M  V30 8710 H 838.626 0.430728 -5.98552 0
M  V30 8711 H 839.696 -0.38829 -4.83343 0
M  V30 8712 N 841.039 1.57585 0.0217189 0
M  V30 8713 C 842.002 2.06004 1.00474 0
M  V30 8714 C 843.002 0.965461 1.2859 0
M  V30 8715 O 844.192 1.22884 1.23471 0
M  V30 8716 C 841.324 2.48319 2.33561 0
M  V30 8717 H 842.517 2.94112 0.586346 0
M  V30 8718 H 840.07 1.53973 0.268716 0
M  V30 8719 H 840.805 1.63389 2.80133 0
M  V30 8720 H 840.59 3.28239 2.1448 0
M  V30 8721 H 842.08 2.86181 3.04122 0
M  V30 8722 N 842.517 -0.29412 1.54831 0
M  V30 8723 C 843.763 -1.02999 1.74697 0
M  V30 8724 C 844.096 -1.86687 0.534949 0
M  V30 8725 O 843.371 -1.88789 -0.467863 0
M  V30 8726 C 843.654 -1.93024 3.03996 0
M  V30 8727 C 843.507 -1.1247 4.35512 0
M  V30 8728 C 844.826 -2.92085 3.29203 0
M  V30 8729 H 841.945 -0.373039 0.635618 0
M  V30 8730 H 844.587 -0.304065 1.87551 0
M  V30 8731 H 842.737 -2.5492 2.93169 0
M  V30 8732 H 844.409 -0.528067 4.58268 0
M  V30 8733 H 842.652 -0.427574 4.31688 0
M  V30 8734 H 843.323 -1.78728 5.22265 0
M  V30 8735 H 845.799 -2.40319 3.39685 0
M  V30 8736 H 844.675 -3.52234 4.20978 0
M  V30 8737 H 844.936 -3.66107 2.47827 0
M  V30 8738 N 843.995 -1.47404 -0.557645 0
M  V30 8739 C 844.958 -1.59411 -1.64684 0
M  V30 8740 C 845.958 -0.469244 -1.53801 0
M  V30 8741 O 847.148 -0.734298 -1.57967 0
M  V30 8742 C 844.28 -1.5382 -3.04224 0
M  V30 8743 H 845.473 -2.56504 -1.55389 0
M  V30 8744 H 843.026 -1.35588 -0.777531 0
M  V30 8745 H 843.761 -0.581 -3.19053 0
M  V30 8746 H 843.546 -2.35456 -3.13533 0
M  V30 8747 H 845.036 -1.65358 -3.83466 0
M  V30 8748 N 845.473 0.80434 -1.35529 0
M  V30 8749 C 846.703 1.59052 -1.31856 0
M  V30 8750 C 847.111 1.88905 0.105549 0
M  V30 8751 O 846.454 1.49422 1.06858 0
M  V30 8752 C 846.516 2.94626 -2.06 0
M  V30 8753 C 846.18 2.87576 -3.55175 0
M  V30 8754 C 847.177 2.60856 -4.49722 0
M  V30 8755 C 844.862 3.06623 -3.97854 0
M  V30 8756 C 846.856 2.53262 -5.84925 0
M  V30 8757 C 844.543 2.98652 -5.33151 0
M  V30 8758 C 845.541 2.72007 -6.26499 0
M  V30 8759 O 845.229 2.64003 -7.59314 0
M  V30 8760 H 844.961 0.500486 -0.454411 0
M  V30 8761 H 847.515 1.0074 -1.78999 0
M  V30 8762 H 845.745 3.5493 -1.53498 0
M  V30 8763 H 847.434 3.55785 -1.95376 0
M  V30 8764 H 848.2 2.45858 -4.18066 0
M  V30 8765 H 844.079 3.26372 -3.2558 0
M  V30 8766 H 847.623 2.32386 -6.57756 0
M  V30 8767 H 843.52 3.13208 -5.64421 0
M  V30 8768 H 844.288 2.79595 -7.69265 0
M  V30 8769 N 846.951 1.19563 1.02676 0
M  V30 8770 C 848.362 1.00158 1.57561 0
M  V30 8771 C 848.713 -0.444922 1.91089 0
M  V30 8772 O 847.838 -1.32466 1.71119 0
M  V30 8773 C 848.433 1.81181 2.86284 0
M  V30 8774 C 846.992 1.66171 3.37734 0
M  V30 8775 C 846.139 1.7975 2.11152 0
M  V30 8776 H 849.09 1.33904 0.85179 0
M  V30 8777 H 849.111 1.30916 3.57269 0
M  V30 8778 H 848.623 2.86454 2.6185 0
M  V30 8779 H 846.724 0.634927 3.6715 0
M  V30 8780 H 846.837 2.46832 4.10622 0
M  V30 8781 H 845.201 1.22833 2.23123 0
M  V30 8782 H 845.984 2.86487 1.89157 0
M  V30 8783 N 848.429 -1.21819 0.999893 0
M  V30 8784 C 849.675 -1.91035 0.680701 0
M  V30 8785 C 850.008 -1.77582 -0.786021 0
M  V30 8786 O 849.283 -1.14917 -1.56921 0
M  V30 8787 C 849.566 -3.43013 1.0961 0
M  V30 8788 C 849.419 -3.65481 2.6219 0
M  V30 8789 C 850.738 -4.35204 0.654616 0
M  V30 8790 H 847.857 -0.693748 0.248763 0
M  V30 8791 H 850.499 -1.43555 1.24466 0
M  V30 8792 H 848.649 -3.83581 0.616253 0
M  V30 8793 H 850.321 -3.34273 3.17899 0
M  V30 8794 H 848.564 -3.09522 3.03938 0
M  V30 8795 H 849.235 -4.71945 2.86307 0
M  V30 8796 H 851.711 -4.0219 1.06688 0
M  V30 8797 H 850.587 -5.40198 0.973492 0
M  V30 8798 H 850.848 -4.3986 -0.444458 0
M  V30 8799 N 849.908 -0.773975 -1.37286 0
M  V30 8800 C 851.136 -0.350758 -2.03905 0
M  V30 8801 C 851.551 1.02779 -1.58373 0
M  V30 8802 O 850.908 1.65646 -0.766009 0
M  V30 8803 C 850.959 -0.387335 -3.59419 0
M  V30 8804 O 850.68 -1.7115 -4.03286 0
M  V30 8805 C 852.181 0.047198 -4.43275 0
M  V30 8806 H 849.401 -0.146663 -0.654775 0
M  V30 8807 H 851.945 -1.04852 -1.75574 0
M  V30 8808 H 850.1 0.261865 -3.86514 0
M  V30 8809 H 850.514 -1.65166 -4.97816 0
M  V30 8810 H 851.988 -0.0295474 -5.51992 0
M  V30 8811 H 852.465 1.09786 -4.25257 0
M  V30 8812 H 853.071 -0.573899 -4.2141 0
M  V30 8813 N 851.386 1.48609 -0.524698 0
M  V30 8814 C 852.611 2.07398 0.00952139 0
M  V30 8815 C 853.036 1.37939 1.27884 0
M  V30 8816 O 852.394 0.443633 1.75788 0
M  V30 8817 C 852.442 3.59916 0.221956 0
M  V30 8818 O 851.546 3.91647 1.29175 0
M  V30 8819 H 850.887 0.662981 -0.0367729 0
M  V30 8820 H 853.417 1.91092 -0.7311 0
M  V30 8821 H 853.427 4.05552 0.446236 0
M  V30 8822 H 852.102 4.09876 -0.705306 0
M  V30 8823 H 850.679 3.57796 1.05055 0
M  V30 8824 N 852.864 0.259585 1.55447 0
M  V30 8825 C 853.814 -0.648769 2.18575 0
M  V30 8826 C 854.798 -1.1299 1.14552 0
M  V30 8827 O 855.99 -1.07756 1.4042 0
M  V30 8828 C 853.119 -1.83963 2.89849 0
M  V30 8829 C 852.205 -1.37641 4.01143 0
M  V30 8830 N 852.596 -0.628269 5.01883 0
M  V30 8831 C 850.894 -1.66066 4.1393 0
M  V30 8832 C 851.595 -0.386746 5.80413 0
M  V30 8833 N 850.571 -0.954665 5.35151 0
M  V30 8834 H 854.373 -0.0691616 2.93819 0
M  V30 8835 H 851.887 0.0624525 1.6228 0
M  V30 8836 H 853.884 -2.50151 3.33512 0
M  V30 8837 H 852.544 -2.42334 2.16112 0
M  V30 8838 H 853.555 -0.277123 5.17158 0
M  V30 8839 H 850.232 -2.25484 3.51373 0
M  V30 8840 H 851.622 0.211382 6.71567 0
M  V30 8841 N 854.342 -1.57594 -0.0133615 0
M  V30 8842 C 855.272 -2.10611 -1.00823 0
M  V30 8843 C 856.253 -1.01217 -1.36708 0
M  V30 8844 O 857.438 -1.28827 -1.45318 0
M  V30 8845 C 854.568 -2.59844 -2.30431 0
M  V30 8846 C 853.522 -3.73644 -2.08745 0
M  V30 8847 C 852.848 -4.09141 -3.4425 0
M  V30 8848 C 854.148 -5.01454 -1.46086 0
M  V30 8849 H 855.842 -2.93985 -0.566849 0
M  V30 8850 H 853.388 -1.41423 -0.271219 0
M  V30 8851 H 855.341 -2.95557 -3.00373 0
M  V30 8852 H 854.065 -1.73573 -2.76658 0
M  V30 8853 H 852.724 -3.38303 -1.41232 0
M  V30 8854 H 852.372 -3.19914 -3.88155 0
M  V30 8855 H 852.072 -4.85802 -3.3056 0
M  V30 8856 H 853.596 -4.47402 -4.15528 0
M  V30 8857 H 855.01 -5.35024 -2.05966 0
M  V30 8858 H 853.407 -5.82832 -1.42924 0
M  V30 8859 H 854.477 -4.83003 -0.428471 0
M  V30 8860 N 855.82 0.285905 -1.54985 0
M  V30 8861 C 857.048 1.03776 -1.78992 0
M  V30 8862 C 857.463 1.80402 -0.556814 0
M  V30 8863 O 856.82 1.76242 0.473801 0
M  V30 8864 C 856.871 2.0065 -3.00702 0
M  V30 8865 O 856.592 1.27131 -4.19249 0
M  V30 8866 C 858.093 2.87753 -3.37214 0
M  V30 8867 H 855.313 0.307126 -0.596586 0
M  V30 8868 H 857.857 0.3206 -2.01971 0
M  V30 8869 H 856.012 2.67847 -2.79887 0
M  V30 8870 H 856.426 1.92316 -4.8797 0
M  V30 8871 H 857.9 3.51548 -4.2558 0
M  V30 8872 H 858.377 3.56848 -2.56039 0
M  V30 8873 H 858.983 2.26065 -3.60242 0
M  V30 8874 N 857.298 1.47698 0.54982 0
M  V30 8875 C 858.544 1.54931 1.30859 0
M  V30 8876 C 858.877 0.214021 1.93017 0
M  V30 8877 O 858.152 -0.778093 1.78258 0
M  V30 8878 C 858.435 2.67286 2.41309 0
M  V30 8879 C 858.288 4.10457 1.83971 0
M  V30 8880 C 859.607 2.75509 3.43195 0
M  V30 8881 H 856.726 0.56399 0.474431 0
M  V30 8882 H 859.368 1.79787 0.614541 0
M  V30 8883 H 857.518 2.46224 3.0051 0
M  V30 8884 H 859.19 4.42903 1.28974 0
M  V30 8885 H 857.433 4.18387 1.14606 0
M  V30 8886 H 858.104 4.84857 2.63851 0
M  V30 8887 H 860.58 2.94531 2.93923 0
M  V30 8888 H 859.456 3.55886 4.17895 0
M  V30 8889 H 859.717 1.82863 4.02509 0
M  V30 8890 N 858.776 -0.797141 1.35954 0
M  V30 8891 C 860.192 -1.09408 1.16198 0
M  V30 8892 C 860.392 -2.01491 -0.0191682 0
M  V30 8893 O 859.448 -2.42977 -0.686902 0
M  V30 8894 C 860.761 -1.71597 2.46931 0
M  V30 8895 C 862.309 -1.83974 2.53224 0
M  V30 8896 C 862.784 -2.49579 3.84024 0
M  V30 8897 N 864.275 -2.57055 3.85327 0
M  V30 8898 C 865.01 -3.08608 4.83268 0
M  V30 8899 N 864.506 -3.60527 5.91601 0
M  V30 8900 N 866.299 -3.07249 4.70696 0
M  V30 8901 H 858.45 -0.185209 2.11591 0
M  V30 8902 H 860.713 -0.144768 0.936881 0
M  V30 8903 H 860.419 -1.11404 3.3359 0
M  V30 8904 H 860.293 -2.71193 2.62172 0
M  V30 8905 H 862.68 -2.43308 1.66988 0
M  V30 8906 H 862.761 -0.83207 2.41889 0
M  V30 8907 H 862.405 -1.90892 4.70662 0
M  V30 8908 H 862.335 -3.50902 3.92651 0
M  V30 8909 H 864.826 -2.20283 3.07057 0
M  V30 8910 H 865.139 -3.98192 6.62317 0
M  V30 8911 H 863.484 -3.587 5.95281 0
M  V30 8912 H 866.675 -2.65972 3.85197 0
M  V30 8913 H 866.848 -3.47119 5.47186 0
M  V30 8914 N 860.254 -1.20106 -1.0204 0
M  V30 8915 C 861.502 -1.0069 -1.75231 0
M  V30 8916 C 861.823 0.462491 -1.89436 0
M  V30 8917 O 861.093 1.33455 -1.4341 0
M  V30 8918 H 859.673 -0.369576 -0.649171 0
M  V30 8919 H 862.335 -1.51149 -1.23044 0
M  V30 8920 H 861.431 -1.46205 -2.75736 0
M  V30 8921 N 861.732 1.21287 -1.00634 0
M  V30 8922 C 862.679 2.23705 -0.567876 0
M  V30 8923 C 863.649 1.61043 0.406753 0
M  V30 8924 O 864.834 1.88289 0.308499 0
M  V30 8925 C 861.974 3.44961 0.097996 0
M  V30 8926 C 861.087 4.22091 -0.919972 0
M  V30 8927 C 860.222 5.30718 -0.226222 0
M  V30 8928 C 859.261 5.99581 -1.23165 0
M  V30 8929 N 858.398 6.99821 -0.565278 0
M  V30 8930 H 863.238 2.60571 -1.44592 0
M  V30 8931 H 860.775 1.28049 -0.724006 0
M  V30 8932 H 862.733 4.1418 0.501097 0
M  V30 8933 H 861.363 3.08818 0.939744 0
M  V30 8934 H 860.415 3.52038 -1.44131 0
M  V30 8935 H 861.727 4.69476 -1.68505 0
M  V30 8936 H 860.881 6.06253 0.232917 0
M  V30 8937 H 859.62 4.84343 0.571247 0
M  V30 8938 H 858.625 5.22816 -1.70128 0
M  V30 8939 H 859.85 6.48042 -2.03022 0
M  V30 8940 H 857.796 6.55656 0.212508 0
M  V30 8941 H 857.713 7.4528 -1.26858 0
M  V30 8942 H 858.981 7.79393 -0.129389 0
M  V30 8943 N 863.21 0.781244 1.36873 0
M  V30 8944 C 864.459 0.34652 1.98701 0
M  V30 8945 C 864.772 -1.08555 1.62712 0
M  V30 8946 O 865.978 -1.62213 2.17713 0
M  V30 8947 C 864.434 0.568611 3.5538 0
M  V30 8948 C 864.042 2.01156 4.003 0
M  V30 8949 C 865.786 0.197983 4.24038 0
M  V30 8950 C 863.693 2.18074 5.49725 0
M  V30 8951 H 862.623 0.125821 0.743428 0
M  V30 8952 H 865.274 0.961721 1.56279 0
M  V30 8953 H 863.656 -0.116185 3.9583 0
M  V30 8954 H 864.83 2.73209 3.71071 0
M  V30 8955 H 863.145 2.33967 3.44454 0
M  V30 8956 H 865.742 0.302778 5.33842 0
M  V30 8957 H 866.085 -0.852927 4.07469 0
M  V30 8958 H 866.618 0.835696 3.88923 0
M  V30 8959 H 863.357 3.21519 5.71232 0
M  V30 8960 H 862.877 1.50517 5.80607 0
M  V30 8961 H 864.556 1.98393 6.15832 0
M  V30 8962 N 864.689 -1.48329 0.532571 0
M  V30 8963 C 865.652 -2.2816 -0.218069 0
M  V30 8964 C 866.652 -1.35526 -0.865409 0
M  V30 8965 O 867.842 -1.58394 -0.725061 0
M  V30 8966 C 864.974 -3.1448 -1.31586 0
M  V30 8967 H 866.167 -2.95987 0.482865 0
M  V30 8968 H 863.72 -1.53612 0.288603 0
M  V30 8969 H 864.455 -2.5129 -2.04997 0
M  V30 8970 H 864.24 -3.82625 -0.856779 0
M  V30 8971 H 865.73 -3.74693 -1.84377 0
M  V30 8972 N 866.167 -0.267825 -1.55308 0
M  V30 8973 C 867.115 0.638848 -2.23655 0
M  V30 8974 C 868.109 1.16363 -1.2311 0
M  V30 8975 O 869.315 1.1181 -1.41062 0
M  V30 8976 H 865.69 0.224551 -0.717691 0
M  V30 8977 H 867.661 0.0394809 -2.98374 0
M  V30 8978 C 866.41 1.8151 -2.96562 0
M  V30 8979 H 865.733 1.42048 -3.73715 0
M  V30 8980 H 867.173 2.42629 -3.47717 0
M  V30 8981 C 865.632 2.69911 -2.01618 0
M  V30 8982 O 866.162 3.70058 -1.56268 0
M  V30 8983 N 864.368 2.36924 -1.68272 0
M  V30 8984 H 863.915 1.55533 -2.05347 0
M  V30 8985 H 863.873 2.96343 -1.05016 0
M  V30 8986 N 867.645 1.57599 0.00500368 0
M  V30 8987 C 868.575 2.11143 0.99705 0
M  V30 8988 C 869.556 1.0194 1.3617 0
M  V30 8989 O 870.741 1.29596 1.44632 0
M  V30 8990 C 867.871 2.61062 2.2905 0
M  V30 8991 C 866.825 3.74745 2.0676 0
M  V30 8992 C 866.151 4.10961 3.42075 0
M  V30 8993 C 867.451 5.02222 1.43424 0
M  V30 8994 H 869.145 2.94281 0.551251 0
M  V30 8995 H 866.691 1.41565 0.263715 0
M  V30 8996 H 868.644 2.97146 2.98801 0
M  V30 8997 H 867.368 1.75038 2.75734 0
M  V30 8998 H 866.027 3.39047 1.39436 0
M  V30 8999 H 865.675 3.21968 3.86453 0
M  V30 9000 H 865.375 4.87549 3.27979 0
M  V30 9001 H 866.899 4.49599 4.1315 0
M  V30 9002 H 868.313 5.36109 2.03125 0
M  V30 9003 H 866.71 5.83581 1.39831 0
M  V30 9004 H 867.78 4.83224 0.40285 0
M  V30 9005 N 869.123 -0.277682 1.55134 0
M  V30 9006 C 870.37 -1.0099 1.7552 0
M  V30 9007 C 870.698 -1.86452 0.553712 0
M  V30 9008 O 869.953 -1.90122 -0.463896 0
M  V30 9009 C 870.252 -1.92599 3.01065 0
M  V30 9010 C 869.918 -1.22926 4.3382 0
M  V30 9011 C 868.58 -1.03659 4.69902 0
M  V30 9012 C 870.932 -0.733071 5.16019 0
M  V30 9013 C 868.26 -0.334933 5.85743 0
M  V30 9014 C 870.612 -0.0450319 6.32584 0
M  V30 9015 C 869.276 0.159393 6.6731 0
M  V30 9016 H 868.546 -0.36955 0.642273 0
M  V30 9017 H 871.193 -0.282611 1.89403 0
M  V30 9018 H 869.498 -2.71934 2.82062 0
M  V30 9019 H 871.195 -2.49367 3.14034 0
M  V30 9020 H 867.785 -1.38933 4.05457 0
M  V30 9021 H 871.969 -0.869565 4.88623 0
M  V30 9022 H 867.225 -0.165783 6.11175 0
M  V30 9023 H 871.399 0.34723 6.95534 0
M  V30 9024 H 869.026 0.70507 7.56923 0
M  V30 9025 N 870.601 -1.47988 -0.541979 0
M  V30 9026 C 871.878 -1.45878 -1.30303 0
M  V30 9027 C 872.258 -0.163931 -2.10463 0
M  V30 9028 O 871.606 0.854479 -2.11922 0
M  V30 9029 C 871.816 -2.71359 -2.19466 0
M  V30 9030 C 873.164 -3.19199 -2.79995 0
M  V30 9031 O 874.188 -2.72193 -2.2976 0
M  V30 9032 O 873.047 -4.00961 -3.71339 0
M  V30 9033 H 870.141 -0.582043 -0.587498 0
M  V30 9034 H 872.687 -1.60207 -0.559623 0
M  V30 9035 H 871.459 -3.57122 -1.59936 0
M  V30 9036 H 871.082 -2.59692 -3.01075 0
M  V30 9037 N 872.079 0.78992 -1.36375 0
M  V30 9038 C 873.026 1.90254 -1.3066 0
M  V30 9039 C 873.996 1.65171 -0.17539 0
M  V30 9040 O 875.181 1.87338 -0.361824 0
M  V30 9041 C 872.321 3.27057 -1.10125 0
M  V30 9042 C 871.434 3.64215 -2.32317 0
M  V30 9043 C 870.569 4.90134 -2.04798 0
M  V30 9044 C 869.608 5.19969 -3.22953 0
M  V30 9045 N 868.745 6.37071 -2.95102 0
M  V30 9046 H 873.585 1.94474 -2.25796 0
M  V30 9047 H 871.122 0.951022 -1.12223 0
M  V30 9048 H 873.08 4.05947 -0.962453 0
M  V30 9049 H 871.71 3.22261 -0.186444 0
M  V30 9050 H 870.762 2.80454 -2.57002 0
M  V30 9051 H 872.074 3.82212 -3.20492 0
M  V30 9052 H 871.228 5.76888 -1.87845 0
M  V30 9053 H 869.967 4.74205 -1.13932 0
M  V30 9054 H 868.972 4.31699 -3.40465 0
M  V30 9055 H 870.197 5.37817 -4.14644 0
M  V30 9056 H 868.143 6.22535 -2.06848 0
M  V30 9057 H 868.06 6.55398 -3.76815 0
M  V30 9058 H 869.328 7.26808 -2.81727 0
M  V30 9059 N 873.557 1.20646 1.01402 0
M  V30 9060 C 874.834 0.927176 1.72229 0
M  V30 9061 C 875.214 -0.563382 2.03443 0
M  V30 9062 O 874.562 -1.52576 1.70096 0
M  V30 9063 C 874.772 1.80285 2.98828 0
M  V30 9064 C 876.12 2.04624 3.72041 0
M  V30 9065 O 877.144 1.77559 3.0879 0
M  V30 9066 O 876.003 2.50347 4.85787 0
M  V30 9067 H 873.097 0.346891 0.75073 0
M  V30 9068 H 875.643 1.31532 1.07227 0
M  V30 9069 H 874.415 2.81204 2.72102 0
M  V30 9070 H 874.038 1.41495 3.71571 0
M  V30 9071 N 875.035 -1.20752 1.01276 0
M  V30 9072 C 876.265 -1.93725 0.717934 0
M  V30 9073 C 876.673 -1.74769 -0.724732 0
M  V30 9074 O 876.016 -1.05642 -1.50285 0
M  V30 9075 C 876.078 -3.46196 0.968954 0
M  V30 9076 C 875.742 -3.88909 2.39998 0
M  V30 9077 C 876.739 -3.94982 3.38061 0
M  V30 9078 C 874.424 -4.21006 2.7397 0
M  V30 9079 C 876.418 -4.32558 4.68159 0
M  V30 9080 C 874.105 -4.58257 4.04282 0
M  V30 9081 C 875.103 -4.64004 5.01187 0
M  V30 9082 O 874.791 -5.00403 6.29168 0
M  V30 9083 H 874.523 -0.622663 0.263186 0
M  V30 9084 H 877.077 -1.54299 1.35577 0
M  V30 9085 H 875.307 -3.85728 0.273952 0
M  V30 9086 H 876.996 -4.00394 0.666312 0
M  V30 9087 H 877.762 -3.70353 3.13151 0
M  V30 9088 H 873.641 -4.15725 1.99233 0
M  V30 9089 H 877.185 -4.36959 5.43795 0
M  V30 9090 H 873.082 -4.82341 4.28973 0
M  V30 9091 H 873.85 -5.18409 6.33399 0
M  V30 9092 N 876.513 -0.788492 -1.36457 0
M  V30 9093 C 877.423 -0.187385 -2.3385 0
M  V30 9094 C 878.439 0.659984 -1.60998 0
M  V30 9095 O 879.615 0.575986 -1.92988 0
M  V30 9096 C 876.68 0.668525 -3.40194 0
M  V30 9097 C 875.741 -0.197234 -4.28847 0
M  V30 9098 C 874.974 0.61792 -5.30111 0
M  V30 9099 O 875.197 1.85396 -5.3943 0
M  V30 9100 O 874.131 0.0183016 -6.01897 0
M  V30 9101 H 877.957 -0.992617 -2.87021 0
M  V30 9102 H 875.542 -0.549934 -1.3891 0
M  V30 9103 H 877.424 1.15663 -4.05216 0
M  V30 9104 H 876.099 1.45166 -2.89324 0
M  V30 9105 H 875.006 -0.73207 -3.66867 0
M  V30 9106 H 876.339 -0.943863 -4.83065 0
M  V30 9107 N 877.991 1.48044 -0.54043 0
M  V30 9108 C 879.219 2.06895 -0.0145153 0
M  V30 9109 C 879.634 1.39552 1.27164 0
M  V30 9110 O 878.991 0.486454 1.75897 0
M  V30 9111 C 879.042 3.60934 0.202278 0
M  V30 9112 O 878.763 4.25749 -1.03293 0
M  V30 9113 C 880.264 4.36607 0.767387 0
M  V30 9114 H 877.484 0.66991 -0.0382368 0
M  V30 9115 H 880.028 1.90288 -0.749057 0
M  V30 9116 H 878.183 3.77111 0.886897 0
M  V30 9117 H 878.597 5.18048 -0.820167 0
M  V30 9118 H 880.071 5.45126 0.86845 0
M  V30 9119 H 880.548 4.01745 1.77477 0
M  V30 9120 H 881.154 4.25133 0.119002 0
M  V30 9121 N 879.47 0.276058 1.55163 0
M  V30 9122 C 880.716 -0.340959 1.99913 0
M  V30 9123 C 881.049 -1.55434 1.16422 0
M  V30 9124 O 880.324 -1.93081 0.234517 0
M  V30 9125 C 880.607 -0.722211 3.52783 0
M  V30 9126 C 880.46 0.498575 4.47028 0
M  V30 9127 C 881.779 -1.5583 4.11589 0
M  V30 9128 H 878.898 -0.122455 0.726756 0
M  V30 9129 H 881.54 0.38319 1.86096 0
M  V30 9130 H 879.69 -1.33919 3.64689 0
M  V30 9131 H 881.362 1.13713 4.47065 0
M  V30 9132 H 879.605 1.13646 4.18649 0
M  V30 9133 H 880.276 0.188041 5.5168 0
M  V30 9134 H 882.752 -1.03722 4.02965 0
M  V30 9135 H 881.628 -1.79387 5.1876 0
M  V30 9136 H 881.889 -2.53963 3.61877 0
M  V30 9137 N 880.948 -1.576 0.00335426 0
M  V30 9138 C 882.178 -1.94713 -0.690682 0
M  V30 9139 C 882.586 -0.876915 -1.67651 0
M  V30 9140 O 881.929 0.152434 -1.83066 0
M  V30 9141 C 881.991 -3.27833 -1.47532 0
M  V30 9142 C 881.655 -4.52344 -0.650704 0
M  V30 9143 C 882.652 -5.19862 0.0630537 0
M  V30 9144 C 880.337 -4.98755 -0.595687 0
M  V30 9145 C 882.331 -6.32093 0.820779 0
M  V30 9146 C 880.018 -6.10875 0.165761 0
M  V30 9147 C 881.016 -6.77401 0.872724 0
M  V30 9148 O 880.704 -7.87372 1.62174 0
M  V30 9149 H 880.436 -0.646627 -0.197104 0
M  V30 9150 H 882.99 -2.05335 0.0516082 0
M  V30 9151 H 881.22 -3.13628 -2.26217 0
M  V30 9152 H 882.909 -3.50034 -2.05501 0
M  V30 9153 H 883.675 -4.84991 0.0297223 0
M  V30 9154 H 879.554 -4.46797 -1.13549 0
M  V30 9155 H 883.098 -6.83953 1.37312 0
M  V30 9156 H 878.995 -6.45187 0.200901 0
M  V30 9157 H 879.763 -8.03905 1.5388 0
M  V30 9158 N 882.426 0.269451 -1.5528 0
M  V30 9159 C 883.674 0.998604 -1.75705 0
M  V30 9160 C 883.995 1.86691 -0.563175 0
M  V30 9161 O 883.265 1.91305 0.421811 0
M  V30 9162 H 881.845 0.371698 -0.647958 0
M  V30 9163 H 884.507 0.292826 -1.92688 0
M  V30 9164 H 883.603 1.63348 -2.6594 0
M  V30 9165 N 883.904 1.48273 0.534124 0
M  V30 9166 C 885.134 1.59503 1.31311 0
M  V30 9167 C 885.542 0.25284 1.87503 0
M  V30 9168 O 884.885 -0.767399 1.66903 0
M  V30 9169 C 884.947 2.57899 2.50456 0
M  V30 9170 C 884.611 4.03063 2.15382 0
M  V30 9171 C 885.608 4.90869 1.713 0
M  V30 9172 C 883.293 4.4857 2.26032 0
M  V30 9173 C 885.287 6.22209 1.38328 0
M  V30 9174 C 882.974 5.79932 1.92672 0
M  V30 9175 C 883.972 6.66574 1.4889 0
M  V30 9176 O 883.66 7.95492 1.15966 0
M  V30 9177 H 883.392 0.540695 0.405739 0
M  V30 9178 H 885.946 1.94794 0.651497 0
M  V30 9179 H 884.176 2.1772 3.19585 0
M  V30 9180 H 885.865 2.59008 3.12522 0
M  V30 9181 H 886.631 4.56951 1.62545 0
M  V30 9182 H 882.51 3.81321 2.59066 0
M  V30 9183 H 886.054 6.89792 1.04082 0
M  V30 9184 H 881.951 6.13386 2.01066 0
M  V30 9185 H 882.719 8.08207 1.29399 0
M  V30 9186 N 885.382 -0.782676 1.36792 0
M  V30 9187 C 886.314 -1.9044 1.27536 0
M  V30 9188 C 887.327 -1.61647 0.193426 0
M  V30 9189 O 888.516 -1.72769 0.448692 0
M  V30 9190 C 885.616 -3.2541 0.946641 0
M  V30 9191 C 884.789 -3.81932 2.13183 0
M  V30 9192 C 883.848 -4.95355 1.7751 0
M  V30 9193 O 882.874 -5.11517 2.49678 0
M  V30 9194 N 884.076 -5.76108 0.712755 0
M  V30 9195 H 886.841 -1.98899 2.24186 0
M  V30 9196 H 884.402 -0.96127 1.30274 0
M  V30 9197 H 886.394 -3.98791 0.689043 0
M  V30 9198 H 884.964 -3.12524 0.0690591 0
M  V30 9199 H 884.184 -3.00459 2.55183 0
M  V30 9200 H 885.472 -4.16426 2.92347 0
M  V30 9201 H 884.87 -5.65586 0.113662 0
M  V30 9202 H 883.427 -6.49762 0.514995 0
M  V30 9203 N 886.86 -1.21182 -1.00761 0
M  V30 9204 C 888.088 -1.05335 -1.78079 0
M  V30 9205 C 888.503 0.396988 -1.84579 0
M  V30 9206 O 887.86 1.27548 -1.30529 0
M  V30 9207 C 887.911 -1.64089 -3.22113 0
M  V30 9208 O 887.632 -3.03448 -3.15992 0
M  V30 9209 C 889.133 -1.53318 -4.15943 0
M  V30 9210 H 886.353 -0.37005 -0.559736 0
M  V30 9211 H 888.897 -1.60463 -1.26775 0
M  V30 9212 H 887.052 -1.13059 -3.70535 0
M  V30 9213 H 887.466 -3.31492 -4.06465 0
M  V30 9214 H 888.94 -1.99174 -5.14814 0
M  V30 9215 H 889.417 -0.487166 -4.3649 0
M  V30 9216 H 890.023 -2.03582 -3.73409 0
M  V30 9217 N 888.338 1.20213 -1.01915 0
M  V30 9218 C 889.301 2.21307 -0.596327 0
M  V30 9219 C 890.301 1.57274 0.334879 0
M  V30 9220 O 891.491 1.73764 0.12322 0
M  V30 9221 C 888.623 3.40657 0.128808 0
M  V30 9222 H 889.816 2.60228 -1.49068 0
M  V30 9223 H 887.369 1.33721 -0.809226 0
M  V30 9224 H 888.104 3.07241 1.03796 0
M  V30 9225 H 887.889 3.88361 -0.540183 0
M  V30 9226 H 889.379 4.15564 0.411892 0
M  V30 9227 N 889.816 0.795718 1.36037 0
M  V30 9228 C 891.064 0.370291 1.98679 0
M  V30 9229 C 891.385 -1.06332 1.63458 0
M  V30 9230 O 890.655 -1.73394 0.911671 0
M  V30 9231 H 889.235 0.133928 0.734896 0
M  V30 9232 H 891.897 1.01915 1.6613 0
M  V30 9233 H 890.993 0.467207 3.08583 0
M  V30 9234 N 891.294 -1.47756 0.548274 0
M  V30 9235 C 892.71 -1.58247 0.207401 0
M  V30 9236 C 892.91 -1.54804 -1.28988 0
M  V30 9237 O 891.966 -1.44673 -2.06944 0
M  V30 9238 C 893.279 -2.89129 0.826142 0
M  V30 9239 C 894.827 -3.02695 0.79655 0
M  V30 9240 C 895.302 -4.36264 1.3942 0
M  V30 9241 N 896.793 -4.42877 1.35698 0
M  V30 9242 C 897.528 -5.44773 1.78913 0
M  V30 9243 N 897.024 -6.53528 2.29942 0
M  V30 9244 N 898.817 -5.35765 1.70038 0
M  V30 9245 H 890.968 -1.48236 1.52117 0
M  V30 9246 H 893.231 -0.704957 0.633829 0
M  V30 9247 H 892.937 -2.97358 1.87806 0
M  V30 9248 H 892.811 -3.75891 0.313916 0
M  V30 9249 H 895.198 -2.94067 -0.246655 0
M  V30 9250 H 895.279 -2.17496 1.34644 0
M  V30 9251 H 894.923 -4.45646 2.43642 0
M  V30 9252 H 894.853 -5.20179 0.819827 0
M  V30 9253 H 897.344 -3.64874 0.983623 0
M  V30 9254 H 897.657 -7.27441 2.60863 0
M  V30 9255 H 896.002 -6.54442 2.33947 0
M  V30 9256 H 899.193 -4.49699 1.29955 0
M  V30 9257 H 899.366 -6.1504 2.04035 0
M  V30 9258 N 892.772 -0.284283 -1.55015 0
M  V30 9259 C 893.682 0.60906 -2.26556 0
M  V30 9260 C 894.698 1.16246 -1.29472 0
M  V30 9261 O 895.874 1.1908 -1.62425 0
M  V30 9262 C 892.939 1.77246 -2.97968 0
M  V30 9263 C 892 1.25482 -4.10552 0
M  V30 9264 C 891.233 2.36277 -4.78549 0
M  V30 9265 O 891.456 3.55829 -4.45805 0
M  V30 9266 O 890.39 2.03914 -5.66306 0
M  V30 9267 H 894.216 0.0292298 -3.03686 0
M  V30 9268 H 891.801 -0.0513466 -1.49312 0
M  V30 9269 H 893.683 2.45062 -3.42815 0
M  V30 9270 H 892.358 2.33921 -2.23747 0
M  V30 9271 H 891.265 0.542859 -3.7014 0
M  V30 9272 H 892.598 0.733708 -4.86701 0
M  V30 9273 N 894.251 1.57596 -0.0117121 0
M  V30 9274 C 895.481 1.95077 0.680346 0
M  V30 9275 C 895.889 0.885793 1.67184 0
M  V30 9276 O 895.232 -0.142723 1.83145 0
M  V30 9277 C 895.294 3.28611 1.45791 0
M  V30 9278 C 894.958 4.52682 0.626706 0
M  V30 9279 C 895.955 5.19821 -0.0906223 0
M  V30 9280 C 893.64 4.99064 0.569229 0
M  V30 9281 C 895.634 6.31649 -0.854289 0
M  V30 9282 C 893.321 6.10779 -0.198155 0
M  V30 9283 C 894.319 6.76929 -0.908636 0
M  V30 9284 O 894.007 7.86501 -1.66348 0
M  V30 9285 H 893.739 0.647663 0.193672 0
M  V30 9286 H 896.293 2.05305 -0.0624969 0
M  V30 9287 H 894.523 3.14824 2.2455 0
M  V30 9288 H 896.212 3.51119 2.03642 0
M  V30 9289 H 896.978 4.84968 -0.0554421 0
M  V30 9290 H 892.857 4.47393 1.11178 0
M  V30 9291 H 896.401 6.83215 -1.40937 0
M  V30 9292 H 892.298 6.45072 -0.235114 0
M  V30 9293 H 893.066 8.03078 -1.58141 0
M  V30 9294 N 895.729 -0.261212 1.5542 0
M  V30 9295 C 896.957 -1.00916 1.8062 0
M  V30 9296 C 897.372 -1.79494 0.585444 0
M  V30 9297 O 896.729 -1.76974 -0.445702 0
M  V30 9298 C 896.78 -1.95841 3.03856 0
M  V30 9299 O 896.501 -1.20445 4.21218 0
M  V30 9300 C 898.002 -2.82352 3.41749 0
M  V30 9301 H 895.222 -0.297596 0.601397 0
M  V30 9302 H 897.766 -0.288427 2.02456 0
M  V30 9303 H 895.921 -2.63361 2.84112 0
M  V30 9304 H 896.335 -1.84528 4.90968 0
M  V30 9305 H 897.809 -3.44733 4.31118 0
M  V30 9306 H 898.286 -3.5273 2.61683 0
M  V30 9307 H 898.892 -2.20306 3.63793 0
M  V30 9308 N 897.207 -1.48554 -0.526253 0
M  V30 9309 C 898.137 -1.66252 -1.63959 0
M  V30 9310 C 899.118 -0.511351 -1.62232 0
M  V30 9311 O 900.303 -0.744322 -1.7937 0
M  V30 9312 C 897.433 -1.70556 -3.02536 0
M  V30 9313 C 896.387 -2.8521 -3.19123 0
M  V30 9314 C 895.713 -2.74606 -4.58798 0
M  V30 9315 C 897.013 -4.26463 -3.0154 0
M  V30 9316 H 898.707 -2.59459 -1.49404 0
M  V30 9317 H 896.253 -1.24862 -0.717326 0
M  V30 9318 H 898.206 -1.81524 -3.80298 0
M  V30 9319 H 896.93 -0.739297 -3.18123 0
M  V30 9320 H 895.589 -2.73802 -2.43779 0
M  V30 9321 H 895.237 -1.75941 -4.71226 0
M  V30 9322 H 894.937 -3.51544 -4.70841 0
M  V30 9323 H 896.461 -2.87548 -5.38655 0
M  V30 9324 H 897.875 -4.38685 -3.69091 0
M  V30 9325 H 896.272 -5.04428 -3.25073 0
M  V30 9326 H 897.342 -4.42667 -1.97925 0
M  V30 9327 N 898.685 0.775411 -1.37205 0
M  V30 9328 C 899.91 1.5696 -1.35567 0
M  V30 9329 C 900.335 1.88012 0.0575554 0
M  V30 9330 O 899.693 1.48954 1.03355 0
M  V30 9331 C 899.741 2.85886 -2.19776 0
M  V30 9332 O 898.845 3.80103 -1.59987 0
M  V30 9333 H 898.186 0.475583 -0.463375 0
M  V30 9334 H 900.716 0.96001 -1.80679 0
M  V30 9335 H 900.726 3.35024 -2.32859 0
M  V30 9336 H 899.401 2.62613 -3.22502 0
M  V30 9337 H 897.978 3.38736 -1.55924 0
M  V30 9338 N 900.163 1.21714 1.00117 0
M  V30 9339 C 901.411 1.03465 1.73607 0
M  V30 9340 C 901.732 -0.432295 1.90148 0
M  V30 9341 O 901.002 -1.31157 1.45515 0
M  V30 9342 H 899.582 0.379857 0.643209 0
M  V30 9343 H 902.244 1.53088 1.20624 0
M  V30 9344 H 901.34 1.50574 2.73375 0
M  V30 9345 N 901.641 -1.19671 1.02551 0
M  V30 9346 C 902.866 -1.93774 0.739363 0
M  V30 9347 C 903.291 -1.74787 -0.695064 0
M  V30 9348 O 902.649 -1.04796 -1.47944 0
M  V30 9349 C 902.697 -3.43684 1.09149 0
M  V30 9350 O 901.801 -4.11874 0.208213 0
M  V30 9351 H 901.142 -0.605064 0.273484 0
M  V30 9352 H 903.672 -1.51846 1.37128 0
M  V30 9353 H 903.682 -3.94339 1.04695 0
M  V30 9354 H 902.357 -3.56826 2.13654 0
M  V30 9355 H 900.934 -3.716 0.311045 0
M  V30 9356 N 903.119 -0.802921 -1.35613 0
M  V30 9357 C 904.349 -0.393359 -2.02821 0
M  V30 9358 C 904.757 0.999282 -1.60658 0
M  V30 9359 O 904.1 1.65463 -0.797977 0
M  V30 9360 C 904.162 -0.393102 -3.57344 0
M  V30 9361 C 903.826 -1.73563 -4.22759 0
M  V30 9362 C 904.823 -2.69333 -4.44698 0
M  V30 9363 C 902.508 -2.01863 -4.59953 0
M  V30 9364 C 904.502 -3.91589 -5.02928 0
M  V30 9365 C 902.189 -3.24383 -5.17898 0
M  V30 9366 C 903.187 -4.19064 -5.39328 0
M  V30 9367 O 902.875 -5.39422 -5.96053 0
M  V30 9368 H 902.607 -0.158431 -0.657172 0
M  V30 9369 H 905.161 -1.08682 -1.74291 0
M  V30 9370 H 903.391 0.356934 -3.85049 0
M  V30 9371 H 905.08 -0.00635596 -4.059 0
M  V30 9372 H 905.846 -2.48759 -4.16346 0
M  V30 9373 H 901.725 -1.28979 -4.42589 0
M  V30 9374 H 905.269 -4.65502 -5.1957 0
M  V30 9375 H 901.166 -3.44829 -5.45677 0
M  V30 9376 H 901.934 -5.40669 -6.14507 0
M  V30 9377 N 904.597 1.47463 -0.556102 0
M  V30 9378 C 905.825 2.06868 -0.0364585 0
M  V30 9379 C 906.24 1.40893 1.25677 0
M  V30 9380 O 905.597 0.505083 1.75371 0
M  V30 9381 C 905.648 3.61128 0.163984 0
M  V30 9382 O 905.369 4.24629 -1.07803 0
M  V30 9383 C 906.87 4.37397 0.721036 0
M  V30 9384 H 904.09 0.669466 -0.0453399 0
M  V30 9385 H 906.634 1.89482 -0.769198 0
M  V30 9386 H 904.789 3.78031 0.84685 0
M  V30 9387 H 905.203 5.17149 -0.875067 0
M  V30 9388 H 906.677 5.46016 0.810584 0
M  V30 9389 H 907.154 4.03604 1.73206 0
M  V30 9390 H 907.76 4.25236 0.073904 0
M  V30 9391 N 906.075 0.2925 1.54862 0
M  V30 9392 C 907.322 -0.319263 1.99967 0
M  V30 9393 C 907.65 -1.54547 1.18092 0
M  V30 9394 O 906.905 -1.94186 0.242969 0
M  V30 9395 C 907.204 -0.728674 3.49893 0
M  V30 9396 C 906.87 0.394836 4.49168 0
M  V30 9397 C 905.532 0.703289 4.76033 0
M  V30 9398 C 907.884 1.15103 5.08331 0
M  V30 9399 C 905.212 1.77121 5.59325 0
M  V30 9400 C 907.564 2.20881 5.92785 0
M  V30 9401 C 906.228 2.52342 6.17964 0
M  V30 9402 H 905.498 -0.116827 0.731733 0
M  V30 9403 H 908.145 0.40983 1.87063 0
M  V30 9404 H 906.45 -1.53772 3.60363 0
M  V30 9405 H 908.147 -1.21305 3.82212 0
M  V30 9406 H 904.737 0.144319 4.28357 0
M  V30 9407 H 908.921 0.92599 4.87585 0
M  V30 9408 H 904.177 2.01978 5.77074 0
M  V30 9409 H 908.351 2.79939 6.37657 0
M  V30 9410 H 905.978 3.35225 6.82296 0
M  V30 9411 O 907.592 -1.60718 0.15878 0
M  V30 9412 H 908.283 -1.88795 -0.433148 0
M  V30 END ATOM
M  V30 BEGIN BOND
M  V30 END BOND
M  V30 END CTAB
M  END
$$$$
