drugbank_target|P61313 60S ribosomal protein L15 (DB02494; DB07374; DB08437)
 OpenBabel12092120423D

  0  0  0     0  0            999 V3000
M  V30 BEGIN CTAB
M  V30 COUNTS 3470 3515 0 0 0
M  V30 BEGIN ATOM
M  V30 1 H -0.908 1.98254 -0.117106 0
M  V30 2 N 0 1.576 0 0
M  V30 3 C 0.933 2.03868 1.02534 0
M  V30 4 C 1.911 0.928543 1.3348 0
M  V30 5 O 3.095 1.19667 1.45644 0
M  V30 6 C 0.222 2.43627 2.35294 0
M  V30 7 C -0.732 3.65373 2.2001 0
M  V30 8 S 0.101 5.13292 1.52614 0
M  V30 9 C 1.257 5.56322 2.86805 0
M  V30 10 H 1.49 2.90518 0.631377 0
M  V30 11 H -0.977 1.52953 0.210867 0
M  V30 12 H 0.981 2.67203 3.11629 0
M  V30 13 H -0.358 1.57376 2.7183 0
M  V30 14 H -1.165 3.90944 3.18086 0
M  V30 15 H -1.563 3.418 1.51819 0
M  V30 16 H 0.729 5.58782 3.83104 0
M  V30 17 H 1.672 6.56266 2.65933 0
M  V30 18 H 2.08 4.83886 2.90714 0
M  V30 19 N 1.4781 -0.272755 1.55222 0
M  V30 20 C 2.7261 -1.00234 1.75492 0
M  V30 21 C 3.0471 -1.8681 0.5592 0
M  V30 22 O 2.3171 -1.91215 -0.425882 0
M  V30 23 H 0.8971 -0.373076 0.647166 0
M  V30 24 H 3.5591 -0.296926 1.92625 0
M  V30 25 H 2.6551 -1.63913 2.65592 0
M  V30 26 N 2.9562 -1.48159 -0.537278 0
M  V30 27 C 3.9192 -1.61665 -1.62472 0
M  V30 28 C 4.9192 -0.490395 -1.5314 0
M  V30 29 O 6.1092 -0.755998 -1.5694 0
M  V30 30 C 3.2412 -1.57997 -3.02076 0
M  V30 31 H 4.4342 -2.58621 -1.51839 0
M  V30 32 H 1.9872 -1.36647 -0.758771 0
M  V30 33 H 2.7222 -0.624913 -3.18222 0
M  V30 34 H 2.5072 -2.39755 -3.10258 0
M  V30 35 H 3.9972 -1.70627 -3.81151 0
M  V30 36 N 4.4343 0.785586 -1.36625 0
M  V30 37 C 5.6643 1.5722 -1.34036 0
M  V30 38 C 6.0723 1.89033 0.0795062 0
M  V30 39 O 5.4153 1.50881 1.04789 0
M  V30 40 C 5.4773 2.91759 -2.10041 0
M  V30 41 C 5.1413 2.82654 -3.59104 0
M  V30 42 C 6.1383 2.54634 -4.53274 0
M  V30 43 C 3.8233 3.01111 -4.02042 0
M  V30 44 C 5.8173 2.45177 -5.88359 0
M  V30 45 C 3.5043 2.91276 -5.37216 0
M  V30 46 C 4.5023 2.63348 -6.30188 0
M  V30 47 O 4.1903 2.53514 -7.6288 0
M  V30 48 H 3.9223 0.494177 -0.461265 0
M  V30 49 H 6.4763 0.982632 -1.8037 0
M  V30 50 H 4.7063 3.52781 -1.58375 0
M  V30 51 H 6.3953 3.53059 -2.00261 0
M  V30 52 H 7.1613 2.40073 -4.21414 0
M  V30 53 H 3.0403 3.21854 -3.30047 0
M  V30 54 H 6.5843 2.23299 -6.60896 0
M  V30 55 H 2.4813 3.054 -5.68684 0
M  V30 56 H 3.2493 2.68967 -7.73045 0
M  V30 57 N 5.9124 1.20967 1.01018 0
M  V30 58 C 6.8594 0.964281 2.09691 0
M  V30 59 C 7.8294 -0.107853 1.65749 0
M  V30 60 O 9.0144 0.0381987 1.90762 0
M  V30 61 C 6.1544 0.52943 3.41015 0
M  V30 62 C 5.2674 1.67043 3.98398 0
M  V30 63 C 4.4024 1.18525 5.17808 0
M  V30 64 C 3.4414 2.29892 5.67288 0
M  V30 65 N 2.5784 1.82546 6.77954 0
M  V30 66 H 7.4184 1.89463 2.30017 0
M  V30 67 H 4.9554 0.944289 1.1279 0
M  V30 68 H 6.9134 0.258588 4.16398 0
M  V30 69 H 5.5434 -0.363919 3.20742 0
M  V30 70 H 4.5954 2.05603 3.20049 0
M  V30 71 H 5.9074 2.50877 4.31117 0
M  V30 72 H 5.0614 0.870762 6.00419 0
M  V30 73 H 3.8004 0.316887 4.86669 0
M  V30 74 H 2.8054 2.6215 4.83278 0
M  V30 75 H 4.0304 3.17216 6.00459 0
M  V30 76 H 1.9764 0.980454 6.48632 0
M  V30 77 H 1.8934 2.59956 7.09901 0
M  V30 78 H 3.1614 1.54115 7.64113 0
M  V30 79 N 7.3905 -1.2043 1.01659 0
M  V30 80 C 8.6205 -1.93496 0.724081 0
M  V30 81 C 9.0285 -1.74998 -0.71918 0
M  V30 82 O 8.3715 -1.06118 -1.49949 0
M  V30 83 C 8.4335 -3.45886 0.97994 0
M  V30 84 C 8.0975 -3.88145 2.41232 0
M  V30 85 C 9.0945 -3.93907 3.39313 0
M  V30 86 C 6.7795 -4.20134 2.75305 0
M  V30 87 C 8.7735 -4.31069 4.6953 0
M  V30 88 C 6.4605 -4.56971 4.05735 0
M  V30 89 C 7.4585 -4.62411 5.02658 0
M  V30 90 O 7.1465 -4.98403 6.30754 0
M  V30 91 H 6.8785 -0.621824 0.265162 0
M  V30 92 H 9.4325 -1.53867 1.36066 0
M  V30 93 H 7.6625 -3.85639 0.286198 0
M  V30 94 H 9.3515 -4.0018 0.679021 0
M  V30 95 H 10.1175 -3.69357 3.14325 0
M  V30 96 H 5.9965 -4.1509 2.00551 0
M  V30 97 H 9.5405 -4.3523 5.45179 0
M  V30 98 H 5.4375 -4.80977 4.30502 0
M  V30 99 H 6.2055 -5.16395 6.35042 0
M  V30 100 N 8.8686 -0.792821 -1.36206 0
M  V30 101 C 10.1176 -0.363353 -1.984 0
M  V30 102 C 10.4306 1.07172 -1.63626 0
M  V30 103 O 11.6366 1.60362 -2.19081 0
M  V30 104 C 10.0926 -0.59872 -3.54885 0
M  V30 105 C 9.7006 -2.04543 -3.9858 0
M  V30 106 C 11.4446 -0.233926 -4.23855 0
M  V30 107 C 9.3516 -2.22727 -5.47856 0
M  V30 108 H 8.2816 -0.13212 -0.742334 0
M  V30 109 H 10.9326 -0.974935 -1.55458 0
M  V30 110 H 9.3146 0.0826222 -3.95914 0
M  V30 111 H 10.4886 -2.76345 -3.68741 0
M  V30 112 H 8.8036 -2.36879 -3.42458 0
M  V30 113 H 11.4006 -0.348027 -5.33566 0
M  V30 114 H 11.7436 0.818351 -4.08177 0
M  V30 115 H 12.2766 -0.868639 -3.882 0
M  V30 116 H 9.0156 -3.2635 -5.68486 0
M  V30 117 H 8.5356 -1.55434 -5.7931 0
M  V30 118 H 10.2146 -2.03607 -6.14128 0
M  V30 119 N 10.3467 1.47872 -0.545128 0
M  V30 120 C 11.2787 2.27869 0.246621 0
M  V30 121 C 12.2917 1.36282 0.890561 0
M  V30 122 O 13.4807 1.61207 0.766449 0
M  V30 123 C 10.5807 3.10159 1.36582 0
M  V30 124 C 9.7537 4.29627 0.820954 0
M  V30 125 C 8.8127 4.93607 1.82314 0
M  V30 126 O 7.8387 5.52366 1.37406 0
M  V30 127 N 9.0407 4.87211 3.15603 0
M  V30 128 H 11.8057 2.96459 -0.439539 0
M  V30 129 H 9.3667 1.57367 -0.380421 0
M  V30 130 H 11.3587 3.49829 2.03474 0
M  V30 131 H 9.9287 2.43891 1.9554 0
M  V30 132 H 9.1487 3.94192 -0.0244032 0
M  V30 133 H 10.4367 5.06928 0.436063 0
M  V30 134 H 9.8347 4.40651 3.54744 0
M  V30 135 H 8.3917 5.30937 3.78087 0
M  V30 136 N 11.8248 0.280983 1.55075 0
M  V30 137 C 12.7348 -0.61388 2.26426 0
M  V30 138 C 13.7508 -1.16521 1.29224 0
M  V30 139 O 14.9268 -1.19426 1.62171 0
M  V30 140 C 11.9918 -1.7788 2.9759 0
M  V30 141 C 11.0528 -1.26355 4.10284 0
M  V30 142 C 10.2858 -2.37295 4.78045 0
M  V30 143 O 10.5088 -3.56777 4.45047 0
M  V30 144 O 9.4428 -2.05119 5.65871 0
M  V30 145 H 13.2688 -0.0356932 3.03679 0
M  V30 146 H 10.8538 0.0481686 1.49322 0
M  V30 147 H 12.7358 -2.45791 3.42293 0
M  V30 148 H 11.4108 -2.34397 2.23249 0
M  V30 149 H 10.3178 -0.550735 3.70024 0
M  V30 150 H 11.6508 -0.744065 4.86543 0
M  V30 151 N 13.3029 -1.57598 0.00835791 0
M  V30 152 C 14.2329 -2.1198 -0.979113 0
M  V30 153 C 15.2139 -1.03091 -1.35301 0
M  V30 154 O 16.3989 -1.30818 -1.43528 0
M  V30 155 C 13.5289 -2.62995 -2.26828 0
M  V30 156 C 12.4829 -3.76485 -2.03576 0
M  V30 157 C 11.8089 -4.13846 -3.38579 0
M  V30 158 C 13.1089 -5.0342 -1.39161 0
M  V30 159 H 14.8029 -2.94738 -0.526281 0
M  V30 160 H 12.3489 -1.41783 -0.251704 0
M  V30 161 H 14.3019 -2.99669 -2.96271 0
M  V30 162 H 13.0259 -1.7737 -2.7424 0
M  V30 163 H 11.6849 -3.40217 -1.36557 0
M  V30 164 H 11.3329 -3.25232 -3.83709 0
M  V30 165 H 11.0329 -4.90312 -3.23834 0
M  V30 166 H 12.5569 -4.53086 -4.09323 0
M  V30 167 H 13.9709 -5.37812 -1.98573 0
M  V30 168 H 12.3679 -5.84746 -1.34878 0
M  V30 169 H 13.4379 -4.83548 -0.361868 0
M  V30 170 N 14.781 0.264519 -1.55364 0
M  V30 171 C 16.027 0.992314 -1.77552 0
M  V30 172 C 16.382 1.83626 -0.574379 0
M  V30 173 O 15.675 1.86648 0.432782 0
M  V30 174 C 15.869 1.9004 -3.02687 0
M  V30 175 C 15.698 1.14583 -4.34857 0
M  V30 176 C 14.468 0.858068 -4.97961 0
M  V30 177 C 16.666 0.532069 -5.1154 0
M  V30 178 N 14.648 0.0775974 -6.13851 0
M  V30 179 C 16.019 -0.113823 -6.19896 0
M  V30 180 C 18.074 0.440763 -4.95945 0
M  V30 181 C 16.777 -0.842231 -7.14352 0
M  V30 182 C 18.803 -0.274072 -5.90765 0
M  V30 183 C 18.165 -0.90867 -6.98515 0
M  V30 184 H 14.264 0.344811 -0.701875 0
M  V30 185 H 16.848 0.267141 -1.92859 0
M  V30 186 H 15.019 2.59775 -2.88741 0
M  V30 187 H 16.751 2.56243 -3.13243 0
M  V30 188 H 13.506 1.16547 -4.59036 0
M  V30 189 H 13.93 -0.300216 -6.76334 0
M  V30 190 H 18.572 0.917064 -4.12735 0
M  V30 191 H 16.29 -1.33019 -7.97077 0
M  V30 192 H 19.876 -0.345151 -5.80775 0
M  V30 193 H 18.756 -1.45299 -7.70622 0
M  V30 194 N 16.2591 1.48442 0.529413 0
M  V30 195 C 17.6751 1.34575 0.858004 0
M  V30 196 C 17.8751 0.3572 1.98309 0
M  V30 197 O 16.9311 -0.221379 2.51528 0
M  V30 198 C 18.2441 2.74617 1.22499 0
M  V30 199 C 19.7921 2.83109 1.33484 0
M  V30 200 C 20.2671 4.23854 1.73526 0
M  V30 201 N 21.7581 4.2653 1.80628 0
M  V30 202 C 22.4931 5.32372 2.12997 0
M  V30 203 N 21.9891 6.48491 2.43786 0
M  V30 204 N 23.7821 5.19766 2.14008 0
M  V30 205 H 15.9331 2.1133 -0.212925 0
M  V30 206 H 18.1961 0.947439 -0.0326199 0
M  V30 207 H 17.9021 3.4852 0.471905 0
M  V30 208 H 17.7761 3.08177 2.17501 0
M  V30 209 H 20.1631 2.09462 2.0787 0
M  V30 210 H 20.2441 2.53168 0.366027 0
M  V30 211 H 19.8881 4.98018 0.997013 0
M  V30 212 H 19.8181 4.5124 2.71459 0
M  V30 213 H 22.3091 3.42772 1.59108 0
M  V30 214 H 22.6221 7.24993 2.67592 0
M  V30 215 H 20.9671 6.51765 2.41304 0
M  V30 216 H 24.1581 4.28066 1.89412 0
M  V30 217 H 24.3311 6.02354 2.38902 0
M  V30 218 N 17.7372 -0.778329 1.37039 0
M  V30 219 C 18.6842 -1.89139 1.32269 0
M  V30 220 C 19.6542 -1.65017 0.189387 0
M  V30 221 O 20.8392 -1.87024 0.377693 0
M  V30 222 C 17.9792 -3.26112 1.12894 0
M  V30 223 C 17.0922 -3.62233 2.35396 0
M  V30 224 C 16.2272 -4.8838 2.08946 0
M  V30 225 C 15.2662 -5.17212 3.2735 0
M  V30 226 N 14.4032 -6.34546 3.00492 0
M  V30 227 H 19.2432 -1.92552 2.27437 0
M  V30 228 H 16.7802 -0.941473 1.13025 0
M  V30 229 H 18.7382 -4.05116 0.996835 0
M  V30 230 H 17.3682 -3.22091 0.213758 0
M  V30 231 H 16.4202 -2.78265 2.5937 0
M  V30 232 H 17.7322 -3.79481 3.23721 0
M  V30 233 H 16.8862 -5.75274 1.92729 0
M  V30 234 H 15.6252 -4.73222 1.17949 0
M  V30 235 H 14.6302 -4.28796 3.44113 0
M  V30 236 H 15.8552 -5.34283 4.19188 0
M  V30 237 H 13.8012 -6.20759 2.12118 0
M  V30 238 H 13.7182 -6.52179 3.82358 0
M  V30 239 H 14.9862 -7.24394 2.87879 0
M  V30 240 N 19.2153 -1.21501 -1.00376 0
M  V30 241 C 20.1623 -0.975387 -2.09177 0
M  V30 242 C 21.1323 0.0990615 -1.65804 0
M  V30 243 O 22.3173 -0.0483147 -1.90739 0
M  V30 244 C 19.4573 -0.547507 -3.40729 0
M  V30 245 C 18.5703 -1.69153 -3.97506 0
M  V30 246 C 17.7053 -1.2127 -5.17172 0
M  V30 247 C 16.7443 -2.32897 -5.66061 0
M  V30 248 N 15.8813 -1.86138 -6.76976 0
M  V30 249 H 20.7213 -1.9068 -2.29009 0
M  V30 250 H 18.2583 -0.950257 -1.12288 0
M  V30 251 H 20.2163 -0.280667 -4.16255 0
M  V30 252 H 18.8463 0.346904 -3.20931 0
M  V30 253 H 17.8983 -2.07298 -3.18954 0
M  V30 254 H 19.2103 -2.5316 -4.29781 0
M  V30 255 H 18.3643 -0.902591 -5.99948 0
M  V30 256 H 17.1033 -0.342692 -4.86495 0
M  V30 257 H 16.1083 -2.64709 -4.81881 0
M  V30 258 H 17.3333 -3.20396 -5.98768 0
M  V30 259 H 15.2793 -1.01484 -6.48103 0
M  V30 260 H 15.1963 -2.63717 -7.08512 0
M  V30 261 H 16.4643 -1.58165 -7.63285 0
M  V30 262 N 20.6934 1.19889 -1.02296 0
M  V30 263 C 21.6254 2.22334 -0.556787 0
M  V30 264 C 22.6384 1.58674 0.364199 0
M  V30 265 O 23.8274 1.77768 0.161533 0
M  V30 266 C 20.9274 3.38257 0.208694 0
M  V30 267 C 20.1004 4.31504 -0.71577 0
M  V30 268 C 19.1594 5.262 0.00325597 0
M  V30 269 O 18.1854 5.65798 -0.621357 0
M  V30 270 N 19.3874 5.66303 1.27599 0
M  V30 271 H 22.1524 2.62957 -1.43784 0
M  V30 272 H 19.7134 1.34495 -0.901261 0
M  V30 273 H 21.7054 3.98616 0.699111 0
M  V30 274 H 20.2754 2.96472 0.991102 0
M  V30 275 H 19.4954 3.69016 -1.38638 0
M  V30 276 H 20.7834 4.9072 -1.34428 0
M  V30 277 H 20.1814 5.36155 1.80429 0
M  V30 278 H 18.7384 6.28942 1.71102 0
M  V30 279 N 22.1715 0.800033 1.35784 0
M  V30 280 C 23.3965 0.388511 2.03729 0
M  V30 281 C 23.8215 -0.990481 1.5991 0
M  V30 282 O 23.1795 -1.64013 0.772612 0
M  V30 283 C 23.2275 0.4726 3.5749 0
M  V30 284 O 22.3315 -0.51646 4.09153 0
M  V30 285 H 21.6725 0.163271 0.643614 0
M  V30 286 H 24.2025 1.0841 1.73518 0
M  V30 287 H 24.2125 0.34003 4.06581 0
M  V30 288 H 22.8875 1.47848 3.88734 0
M  V30 289 H 21.4645 -0.344673 3.71304 0
M  V30 290 N 23.6496 -1.47581 0.552962 0
M  V30 291 C 24.9266 -1.95563 -0.0381515 0
M  V30 292 C 25.3066 -1.49552 -1.48988 0
M  V30 293 O 24.6546 -0.732414 -2.16444 0
M  V30 294 C 24.8646 -3.48848 0.102919 0
M  V30 295 C 26.2126 -4.24577 -0.0446082 0
M  V30 296 O 27.2366 -3.56187 0.0302548 0
M  V30 297 O 26.0956 -5.46116 -0.204923 0
M  V30 298 H 23.1896 -0.824321 -0.0665067 0
M  V30 299 H 25.7356 -1.58001 0.619186 0
M  V30 300 H 24.5076 -3.75129 1.11328 0
M  V30 301 H 24.1306 -3.93165 -0.592224 0
M  V30 302 N 25.1277 -0.289203 -1.54924 0
M  V30 303 C 26.3737 0.323998 -2.00195 0
M  V30 304 C 26.7067 1.54441 -1.17735 0
M  V30 305 O 25.9817 1.92875 -0.250878 0
M  V30 306 C 26.2647 0.692276 -3.53383 0
M  V30 307 C 26.1177 -0.536457 -4.46589 0
M  V30 308 C 27.4367 1.52335 -4.12895 0
M  V30 309 H 24.5557 0.116289 -0.727768 0
M  V30 310 H 27.1977 -0.398954 -1.85764 0
M  V30 311 H 25.3477 1.30822 -3.65811 0
M  V30 312 H 27.0197 -1.17499 -4.46085 0
M  V30 313 H 25.2627 -1.17192 -4.1767 0
M  V30 314 H 25.9337 -0.234806 -5.515 0
M  V30 315 H 28.4097 1.00302 -4.0383 0
M  V30 316 H 27.2857 1.74982 -5.20262 0
M  V30 317 H 27.5467 2.50886 -3.64018 0
M  V30 318 N 26.6058 1.57591 -0.0167156 0
M  V30 319 C 27.5388 2.04944 1.00366 0
M  V30 320 C 28.5168 0.942648 1.32487 0
M  V30 321 O 29.7008 1.21205 1.44367 0
M  V30 322 C 26.8278 2.46109 2.32697 0
M  V30 323 C 25.8738 3.67686 2.16123 0
M  V30 324 S 26.7068 5.14882 1.47161 0
M  V30 325 C 27.8628 5.59332 2.80888 0
M  V30 326 H 28.0958 2.91172 0.600528 0
M  V30 327 H 25.6288 1.53168 0.194632 0
M  V30 328 H 27.5868 2.70493 3.08778 0
M  V30 329 H 26.2478 1.6025 2.70146 0
M  V30 330 H 25.4408 3.94296 3.13922 0
M  V30 331 H 25.0428 3.43391 1.48185 0
M  V30 332 H 27.3348 5.62814 3.77156 0
M  V30 333 H 28.2778 6.5905 2.58958 0
M  V30 334 H 28.6858 4.86942 2.85565 0
M  V30 335 N 28.0839 -0.256276 1.55502 0
M  V30 336 C 29.4999 -0.604325 1.47716 0
M  V30 337 C 29.6999 -1.88763 0.705039 0
M  V30 338 O 28.7559 -2.51445 0.230613 0
M  V30 339 C 30.0689 -0.715756 2.92057 0
M  V30 340 C 31.6169 -0.808706 3.02372 0
M  V30 341 C 32.0919 -0.951777 4.48001 0
M  V30 342 N 33.5829 -1.01688 4.519 0
M  V30 343 C 34.3179 -1.14668 5.61817 0
M  V30 344 N 33.8139 -1.24261 6.81565 0
M  V30 345 N 35.6069 -1.1791 5.49594 0
M  V30 346 H 27.7579 0.586291 2.04148 0
M  V30 347 H 30.0209 0.201015 0.926443 0
M  V30 348 H 29.7269 0.157027 3.51349 0
M  V30 349 H 29.6009 -1.59071 3.42018 0
M  V30 350 H 31.9879 -1.67195 2.43166 0
M  V30 351 H 32.0689 0.0912063 2.55637 0
M  V30 352 H 31.7129 -0.0931291 5.07815 0
M  V30 353 H 31.6429 -1.86659 4.92408 0
M  V30 354 H 34.1339 -0.954468 3.65648 0
M  V30 355 H 34.4469 -1.34046 7.61086 0
M  V30 356 H 32.7919 -1.21236 6.84344 0
M  V30 357 H 35.9829 -1.10057 4.54978 0
M  V30 358 H 36.1559 -1.27681 6.35296 0
M  V30 359 N 29.562 -1.4872 -0.521534 0
M  V30 360 C 30.809 -1.57168 -1.27689 0
M  V30 361 C 31.137 -0.249275 -1.92896 0
M  V30 362 O 30.392 0.761162 -1.80291 0
M  V30 363 C 30.691 -2.66497 -2.38148 0
M  V30 364 C 30.357 -4.08664 -1.90538 0
M  V30 365 C 29.019 -4.47357 -1.77271 0
M  V30 366 C 31.371 -4.97724 -1.54663 0
M  V30 367 C 28.699 -5.72905 -1.26478 0
M  V30 368 C 31.051 -6.2377 -1.05329 0
M  V30 369 C 29.715 -6.61311 -0.906861 0
M  V30 370 H 28.985 -0.575117 -0.467249 0
M  V30 371 H 31.632 -1.82472 -0.581051 0
M  V30 372 H 29.937 -2.35085 -3.13437 0
M  V30 373 H 31.634 -2.70246 -2.96257 0
M  V30 374 H 28.224 -3.78111 -2.01816 0
M  V30 375 H 32.408 -4.68501 -1.63768 0
M  V30 376 H 27.664 -6.00709 -1.13835 0
M  V30 377 H 31.838 -6.9217 -0.76644 0
M  V30 378 H 29.465 -7.5848 -0.511083 0
M  V30 379 N 31.0401 0.771051 -1.3745 0
M  V30 380 C 31.9701 1.89827 -1.3597 0
M  V30 381 C 32.9511 1.68562 -0.228216 0
M  V30 382 O 34.1361 1.8941 -0.428675 0
M  V30 383 C 31.2661 3.2712 -1.16662 0
M  V30 384 C 30.2201 3.6295 -2.2683 0
M  V30 385 C 29.5461 4.98791 -1.92644 0
M  V30 386 C 30.8461 3.69627 -3.69017 0
M  V30 387 H 32.5401 1.91323 -2.30295 0
M  V30 388 H 30.0861 0.919082 -1.10855 0
M  V30 389 H 32.0391 4.05615 -1.14256 0
M  V30 390 H 30.7631 3.26059 -0.187926 0
M  V30 391 H 29.4221 2.86763 -2.28392 0
M  V30 392 H 29.0701 4.94271 -0.933021 0
M  V30 393 H 28.7701 5.23733 -2.66416 0
M  V30 394 H 30.2941 5.79685 -1.91826 0
M  V30 395 H 31.7081 4.38273 -3.69581 0
M  V30 396 H 30.1051 4.06067 -4.41848 0
M  V30 397 H 31.1751 2.70273 -4.02592 0
M  V30 398 N 32.5182 1.22032 0.997298 0
M  V30 399 C 33.4482 1.01065 2.10495 0
M  V30 400 C 34.4292 -0.0669542 1.69968 0
M  V30 401 O 35.6142 0.0943987 1.9397 0
M  V30 402 C 32.7442 0.582874 3.42374 0
M  V30 403 C 31.6982 1.60592 3.96729 0
M  V30 404 C 31.0242 1.03412 5.24605 0
M  V30 405 C 32.3242 2.99478 4.27914 0
M  V30 406 H 34.0182 1.93708 2.28292 0
M  V30 407 H 31.5642 0.932761 1.09707 0
M  V30 408 H 33.5172 0.423332 4.19268 0
M  V30 409 H 32.2412 -0.379213 3.24391 0
M  V30 410 H 30.9002 1.75316 3.21963 0
M  V30 411 H 30.5482 0.063518 5.0296 0
M  V30 412 H 30.2482 1.71754 5.61938 0
M  V30 413 H 31.7722 0.886066 6.04137 0
M  V30 414 H 33.1862 2.88153 4.95622 0
M  V30 415 H 31.5832 3.64903 4.76409 0
M  V30 416 H 32.6532 3.49742 3.3587 0
M  V30 417 N 33.9963 -1.19345 1.0293 0
M  V30 418 C 35.4123 -1.41069 0.746446 0
M  V30 419 C 35.6123 -1.90078 -0.668776 0
M  V30 420 O 34.6683 -2.0778 -1.4347 0
M  V30 421 C 35.9813 -2.42141 1.78292 0
M  V30 422 C 37.5293 -2.55887 1.80252 0
M  V30 423 C 38.0043 -3.60214 2.8286 0
M  V30 424 N 39.4953 -3.67711 2.81679 0
M  V30 425 C 40.2303 -4.48128 3.57727 0
M  V30 426 N 39.7263 -5.32248 4.43491 0
M  V30 427 N 41.5193 -4.42782 3.46267 0
M  V30 428 H 33.6703 -0.858536 1.94275 0
M  V30 429 H 35.9333 -0.439541 0.839945 0
M  V30 430 H 35.6393 -2.13155 2.79746 0
M  V30 431 H 35.5133 -3.41323 1.60557 0
M  V30 432 H 37.9003 -2.84196 0.794757 0
M  V30 433 H 37.9813 -1.56858 2.02062 0
M  V30 434 H 37.6253 -3.32647 3.83807 0
M  V30 435 H 37.5553 -4.58895 2.58307 0
M  V30 436 H 40.0463 -3.07634 2.19476 0
M  V30 437 H 40.3593 -5.90729 4.98256 0
M  V30 438 H 38.7043 -5.31707 4.47564 0
M  V30 439 H 41.8953 -3.76107 2.78677 0
M  V30 440 H 42.0683 -5.05215 4.05785 0
M  V30 441 N 35.4744 -0.807222 -1.35358 0
M  V30 442 C 36.7204 -0.388463 -1.99045 0
M  V30 443 C 37.0534 1.04184 -1.63888 0
M  V30 444 O 36.3284 1.72292 -0.902535 0
M  V30 445 C 36.6114 -0.572783 -3.55515 0
M  V30 446 C 36.4644 -2.04807 -4.00468 0
M  V30 447 C 37.7834 0.00114064 -4.401 0
M  V30 448 H 34.9024 -0.142619 -0.723069 0
M  V30 449 H 37.5444 -1.01687 -1.60498 0
M  V30 450 H 35.6944 -0.0378425 -3.88482 0
M  V30 451 H 37.3664 -2.64544 -3.77908 0
M  V30 452 H 35.6094 -2.54427 -3.51353 0
M  V30 453 H 36.2804 -2.12792 -5.09337 0
M  V30 454 H 38.7564 -0.455716 -4.13597 0
M  V30 455 H 37.6324 -0.157737 -5.48673 0
M  V30 456 H 37.8934 1.09488 -4.28328 0
M  V30 457 N 36.9525 1.47285 -0.560781 0
M  V30 458 C 38.3685 1.58065 -0.22081 0
M  V30 459 C 38.5685 1.55892 1.27671 0
M  V30 460 O 37.6245 1.46422 2.0571 0
M  V30 461 C 38.9375 2.88418 -0.850625 0
M  V30 462 C 40.4855 3.02009 -0.822184 0
M  V30 463 C 40.9605 4.35066 -1.43113 0
M  V30 464 N 42.4515 4.41711 -1.39448 0
M  V30 465 C 43.1865 5.43237 -1.83525 0
M  V30 466 N 42.6825 6.51555 -2.35474 0
M  V30 467 N 44.4755 5.34304 -1.74574 0
M  V30 468 H 36.6265 1.46941 -1.53369 0
M  V30 469 H 38.8895 0.699558 -0.639783 0
M  V30 470 H 38.5955 2.95755 -1.9032 0
M  V30 471 H 38.4695 3.75612 -0.345773 0
M  V30 472 H 40.8565 2.94266 0.221714 0
M  V30 473 H 40.9375 2.16347 -1.36483 0
M  V30 474 H 40.5815 4.43565 -2.47412 0
M  V30 475 H 40.5115 5.19465 -0.863899 0
M  V30 476 H 43.0025 3.64027 -1.01452 0
M  V30 477 H 43.3155 7.25203 -2.67021 0
M  V30 478 H 41.6605 6.52435 -2.39487 0
M  V30 479 H 44.8515 4.48581 -1.33763 0
M  V30 480 H 45.0245 6.13288 -2.09242 0
M  V30 481 N 38.4306 0.297415 1.54768 0
M  V30 482 C 39.6706 -0.313829 2.01976 0
M  V30 483 C 40.0346 -1.51366 1.1812 0
M  V30 484 O 41.2356 -2.19603 1.5501 0
M  V30 485 C 39.5066 -0.664964 3.51159 0
M  V30 486 S 41.0656 -1.25958 4.20333 0
M  V30 487 H 37.8836 -0.0965014 0.704421 0
M  V30 488 H 40.4856 0.424451 1.90837 0
M  V30 489 H 39.1896 0.21681 4.09827 0
M  V30 490 H 38.7206 -1.43413 3.66328 0
M  V30 491 H 40.7356 -2.54751 4.25813 0
M  V30 492 N 39.9087 -1.5758 0.0250728 0
M  V30 493 C 41.1547 -1.92746 -0.649648 0
M  V30 494 C 41.5097 -0.901588 -1.69968 0
M  V30 495 O 40.8027 0.0829251 -1.9142 0
M  V30 496 C 40.9967 -3.32421 -1.31268 0
M  V30 497 C 40.8257 -4.48499 -0.328394 0
M  V30 498 C 39.5957 -5.05251 0.070284 0
M  V30 499 C 41.7937 -5.12618 0.415665 0
M  V30 500 N 39.7757 -6.04851 1.05016 0
M  V30 501 C 41.1467 -6.0728 1.24943 0
M  V30 502 C 43.2017 -4.95612 0.476803 0
M  V30 503 C 41.9047 -6.86766 2.1388 0
M  V30 504 C 43.9307 -5.75703 1.3535 0
M  V30 505 C 43.2927 -6.69978 2.17504 0
M  V30 506 H 39.3917 -0.753231 -0.210159 0
M  V30 507 H 41.9757 -1.94486 0.0912999 0
M  V30 508 H 40.1467 -3.31508 -2.02379 0
M  V30 509 H 41.8787 -3.54946 -1.94411 0
M  V30 510 H 38.6337 -4.72628 -0.303323 0
M  V30 511 H 39.0577 -6.5934 1.53622 0
M  V30 512 H 43.6997 -4.22554 -0.144105 0
M  V30 513 H 41.4177 -7.59132 2.77027 0
M  V30 514 H 45.0037 -5.64579 1.40504 0
M  V30 515 H 43.8837 -7.30873 2.84244 0
M  V30 516 N 41.3868 0.248026 -1.55636 0
M  V30 517 C 42.3188 1.32993 -1.8667 0
M  V30 518 C 43.3318 1.44345 -0.752877 0
M  V30 519 O 44.5208 1.45715 -1.03098 0
M  V30 520 C 41.6208 2.70863 -2.03682 0
M  V30 521 C 40.7938 2.81792 -3.34532 0
M  V30 522 C 39.8528 4.005 -3.41301 0
M  V30 523 O 38.8788 3.9008 -4.14519 0
M  V30 524 N 40.0808 5.13618 -2.70512 0
M  V30 525 H 42.8458 1.06707 -2.8006 0
M  V30 526 H 40.4068 0.438129 -1.55859 0
M  V30 527 H 42.3988 3.48612 -2.05553 0
M  V30 528 H 40.9688 2.89862 -1.17041 0
M  V30 529 H 40.1888 1.90729 -3.44987 0
M  V30 530 H 41.4768 2.86043 -4.20781 0
M  V30 531 H 40.8748 5.24975 -2.10755 0
M  V30 532 H 39.4318 5.89505 -2.78077 0
M  V30 533 N 42.8649 1.48995 0.513639 0
M  V30 534 C 44.0949 1.61297 1.291 0
M  V30 535 C 44.5029 0.278656 1.87137 0
M  V30 536 O 43.8459 -0.744325 1.67945 0
M  V30 537 C 43.9079 2.61326 2.46879 0
M  V30 538 C 43.5719 4.05993 2.09807 0
M  V30 539 C 44.5689 4.93183 1.64519 0
M  V30 540 C 42.2539 4.51642 2.19829 0
M  V30 541 C 44.2479 6.24056 1.2974 0
M  V30 542 C 41.9349 5.82532 1.84662 0
M  V30 543 C 42.9329 6.68562 1.3969 0
M  V30 544 O 42.6209 7.97014 1.04992 0
M  V30 545 H 42.3529 0.546236 0.39825 0
M  V30 546 H 44.9069 1.95673 0.62459 0
M  V30 547 H 43.1369 2.22104 3.16554 0
M  V30 548 H 44.8259 2.6329 3.08923 0
M  V30 549 H 45.5919 4.59147 1.56233 0
M  V30 550 H 41.4709 3.84855 2.53786 0
M  V30 551 H 45.0149 6.91161 0.945659 0
M  V30 552 H 40.9119 6.16099 1.92594 0
M  V30 553 H 41.6799 8.09913 1.18249 0
M  V30 554 N 44.343 -0.763751 1.37857 0
M  V30 555 C 45.759 -1.06542 1.18832 0
M  V30 556 C 45.959 -2.01478 0.0299722 0
M  V30 557 O 45.015 -2.4458 -0.627447 0
M  V30 558 C 46.328 -1.65525 2.51042 0
M  V30 559 C 47.876 -1.77745 2.57635 0
M  V30 560 C 48.351 -2.4014 3.89996 0
M  V30 561 N 49.842 -2.47582 3.91481 0
M  V30 562 C 50.577 -2.96732 4.9065 0
M  V30 563 N 50.073 -3.45993 6.00217 0
M  V30 564 N 51.866 -2.95679 4.78048 0
M  V30 565 H 44.017 -0.133556 2.1198 0
M  V30 566 H 46.28 -0.121879 0.940133 0
M  V30 567 H 45.986 -1.03236 3.36207 0
M  V30 568 H 45.86 -2.64719 2.68707 0
M  V30 569 H 48.247 -2.39164 1.72872 0
M  V30 570 H 48.328 -0.772836 2.43846 0
M  V30 571 H 47.972 -1.79358 4.75177 0
M  V30 572 H 47.902 -3.41223 4.01092 0
M  V30 573 H 50.393 -2.1273 3.12337 0
M  V30 574 H 50.706 -3.81922 6.7183 0
M  V30 575 H 49.051 -3.44077 6.03851 0
M  V30 576 H 52.242 -2.56499 3.91568 0
M  V30 577 H 52.415 -3.33672 5.55488 0
M  V30 578 N 45.8211 -1.22559 -0.990812 0
M  V30 579 C 46.7531 -0.955325 -2.08342 0
M  V30 580 C 47.7661 0.0668408 -1.62663 0
M  V30 581 O 48.9551 -0.167421 -1.77713 0
M  V30 582 C 46.0551 -0.415566 -3.36342 0
M  V30 583 C 45.2281 -1.49544 -4.11042 0
M  V30 584 C 44.2871 -0.962399 -5.17324 0
M  V30 585 O 43.3131 -1.64907 -5.44788 0
M  V30 586 N 44.5151 0.215134 -5.80101 0
M  V30 587 H 47.2801 -1.89596 -2.32106 0
M  V30 588 H 44.8411 -1.13276 -1.15673 0
M  V30 589 H 46.8331 -0.0442386 -4.04676 0
M  V30 590 H 45.4031 0.430232 -3.09625 0
M  V30 591 H 44.6231 -2.04 -3.37309 0
M  V30 592 H 45.9111 -2.22195 -4.57719 0
M  V30 593 H 45.3091 0.789779 -5.6016 0
M  V30 594 H 43.8661 0.527826 -6.49659 0
M  V30 595 N 47.2992 1.18797 -1.03562 0
M  V30 596 C 48.2292 2.24472 -0.643019 0
M  V30 597 C 49.2102 1.66433 0.351283 0
M  V30 598 O 50.3952 1.92803 0.232505 0
M  V30 599 C 47.5252 3.473 4.24935e-05 0
M  V30 600 C 46.4792 4.18055 -0.917257 0
M  V30 601 C 45.8052 5.34519 -0.138941 0
M  V30 602 C 47.1052 4.72109 -2.23407 0
M  V30 603 H 48.7992 2.57566 -1.52643 0
M  V30 604 H 46.3452 1.23806 -0.735394 0
M  V30 605 H 48.2982 4.20426 0.286383 0
M  V30 606 H 47.0222 3.13424 0.918299 0
M  V30 607 H 45.6812 3.46821 -1.1879 0
M  V30 608 H 45.3292 4.96891 0.781562 0
M  V30 609 H 45.0292 5.82794 -0.750005 0
M  V30 610 H 46.5532 6.10438 0.1405 0
M  V30 611 H 47.9672 5.36955 -2.00879 0
M  V30 612 H 46.3642 5.30897 -2.79765 0
M  V30 613 H 47.4342 3.89807 -2.88407 0
M  V30 614 N 48.7773 0.814389 1.34928 0
M  V30 615 C 50.0023 0.410097 2.03305 0
M  V30 616 C 50.4273 -0.973464 1.60951 0
M  V30 617 O 49.7853 -1.63185 0.789964 0
M  V30 618 C 49.8333 0.51049 3.56968 0
M  V30 619 O 48.9373 -0.473035 4.09678 0
M  V30 620 H 48.2783 0.170088 0.641846 0
M  V30 621 H 50.8083 1.10244 1.72358 0
M  V30 622 H 50.8183 0.383135 4.06197 0
M  V30 623 H 49.4933 1.51963 3.87144 0
M  V30 624 H 48.0703 -0.305272 3.71648 0
M  V30 625 N 50.2554 -1.46986 0.568584 0
M  V30 626 C 51.2184 -2.28624 -0.162366 0
M  V30 627 C 52.2184 -1.37596 -0.832103 0
M  V30 628 O 53.4084 -1.60115 -0.68622 0
M  V30 629 C 50.5404 -3.17596 -1.23878 0
M  V30 630 H 51.7334 -2.94722 0.554899 0
M  V30 631 H 49.2864 -1.52863 0.325976 0
M  V30 632 H 50.0214 -2.56214 -1.98808 0
M  V30 633 H 49.8064 -3.846 -0.763219 0
M  V30 634 H 51.2964 -3.79078 -1.75185 0
M  V30 635 N 51.7335 -0.305618 -1.54608 0
M  V30 636 C 52.6635 0.561482 -2.26649 0
M  V30 637 C 53.6445 1.13415 -1.26772 0
M  V30 638 O 54.8295 1.16262 -1.55553 0
M  V30 639 C 51.9595 1.73122 -3.01075 0
M  V30 640 C 50.9135 1.2887 -4.08138 0
M  V30 641 C 50.2395 2.54396 -4.70305 0
M  V30 642 C 51.5395 0.416578 -5.20636 0
M  V30 643 H 53.2335 -0.0393902 -2.99374 0
M  V30 644 H 50.7795 -0.020385 -1.43986 0
M  V30 645 H 52.7325 2.34396 -3.50195 0
M  V30 646 H 51.4565 2.3584 -2.25936 0
M  V30 647 H 50.1155 0.698991 -3.59875 0
M  V30 648 H 49.7635 3.15439 -3.918 0
M  V30 649 H 49.4635 2.25486 -5.42614 0
M  V30 650 H 50.9875 3.16464 -5.2219 0
M  V30 651 H 52.4015 0.935116 -5.65622 0
M  V30 652 H 50.7985 0.221046 -5.99693 0
M  V30 653 H 51.8685 -0.557162 -4.81688 0
M  V30 654 N 53.2116 1.57565 -0.0334293 0
M  V30 655 C 54.1616 2.06978 0.956237 0
M  V30 656 C 55.1456 0.971193 1.28283 0
M  V30 657 O 56.3376 1.23471 1.26822 0
M  V30 658 C 53.4666 2.60393 2.23719 0
M  V30 659 C 52.5526 3.7719 1.93877 0
M  V30 660 N 52.9436 4.87639 1.34321 0
M  V30 661 C 51.2416 3.85758 2.23845 0
M  V30 662 C 51.9426 5.68825 1.21709 0
M  V30 663 N 50.9186 5.1587 1.71404 0
M  V30 664 H 54.7206 2.89773 0.490815 0
M  V30 665 H 52.2346 1.61492 0.171478 0
M  V30 666 H 54.2316 2.94088 2.95496 0
M  V30 667 H 52.8916 1.79031 2.70884 0
M  V30 668 H 53.9026 5.07803 1.01767 0
M  V30 669 H 50.5796 3.1531 2.73653 0
M  V30 670 H 51.9696 6.67631 0.75621 0
M  V30 671 N 54.6897 -0.239769 1.55765 0
M  V30 672 C 56.1057 -0.588624 1.48349 0
M  V30 673 C 56.3057 -1.88005 0.72502 0
M  V30 674 O 55.3617 -2.51186 0.257269 0
M  V30 675 C 56.6747 -0.68474 2.928 0
M  V30 676 C 58.2227 -0.77659 3.03213 0
M  V30 677 C 58.6977 -0.904207 4.48986 0
M  V30 678 N 60.1887 -0.968896 4.52953 0
M  V30 679 C 60.9237 -1.08703 5.63002 0
M  V30 680 N 60.4197 -1.17026 6.82845 0
M  V30 681 N 62.2127 -1.12074 5.50814 0
M  V30 682 H 54.3637 0.607911 2.03515 0
M  V30 683 H 56.6267 0.21083 0.924259 0
M  V30 684 H 56.3327 0.194284 3.51163 0
M  V30 685 H 56.2067 -1.55435 3.43686 0
M  V30 686 H 58.5937 -1.64606 2.44926 0
M  V30 687 H 58.6747 0.118315 2.55526 0
M  V30 688 H 58.3187 -0.0392633 5.07885 0
M  V30 689 H 58.2487 -1.81426 4.9436 0
M  V30 690 H 60.7397 -0.915633 3.6664 0
M  V30 691 H 61.0527 -1.25966 7.62465 0
M  V30 692 H 59.3977 -1.13971 6.85591 0
M  V30 693 H 62.5887 -1.05226 4.5612 0
M  V30 694 H 62.7617 -1.20936 6.36615 0
M  V30 695 N 56.1678 -1.49265 -0.50573 0
M  V30 696 C 57.1308 -1.65075 -1.59006 0
M  V30 697 C 58.1308 -0.522768 -1.52065 0
M  V30 698 O 59.3208 -0.789117 -1.55302 0
M  V30 699 C 56.4528 -1.64369 -2.98656 0
M  V30 700 H 57.6458 -2.61784 -1.46319 0
M  V30 701 H 55.1988 -1.38226 -0.729616 0
M  V30 702 H 55.9338 -0.692272 -3.16825 0
M  V30 703 H 55.7188 -2.46282 -3.05103 0
M  V30 704 H 57.2088 -1.78674 -3.77446 0
M  V30 705 N 57.6459 0.756429 -1.3826 0
M  V30 706 C 59.0569 1.33359 -1.30661 0
M  V30 707 C 59.4079 1.96161 0.0388875 0
M  V30 708 O 58.5329 1.94874 0.940918 0
M  V30 709 C 59.1279 2.42477 -2.36622 0
M  V30 710 C 57.6869 2.95922 -2.3261 0
M  V30 711 C 56.8339 1.69275 -2.19639 0
M  V30 712 H 59.7849 0.55552 -1.4866 0
M  V30 713 H 59.8059 3.22345 -2.02174 0
M  V30 714 H 59.3179 1.96739 -3.34538 0
M  V30 715 H 57.4189 3.45996 -1.38267 0
M  V30 716 H 57.5319 3.50494 -3.26636 0
M  V30 717 H 55.8959 1.92793 -1.66442 0
M  V30 718 H 56.6789 1.25619 -3.19491 0
M  V30 719 N 59.124 1.23083 0.984299 0
M  V30 720 C 60.54 0.992637 1.24975 0
M  V30 721 C 60.74 -0.308618 1.99123 0
M  V30 722 O 59.796 -1.02905 2.30579 0
M  V30 723 C 61.109 2.19698 2.05312 0
M  V30 724 C 62.657 2.24147 2.18465 0
M  V30 725 C 63.132 3.44157 3.02192 0
M  V30 726 N 64.623 3.44372 3.09777 0
M  V30 727 C 65.358 4.33886 3.74874 0
M  V30 728 N 64.854 5.3363 4.41827 0
M  V30 729 N 66.647 4.21639 3.71721 0
M  V30 730 H 58.798 2.06731 0.487453 0
M  V30 731 H 61.061 0.906339 0.277944 0
M  V30 732 H 60.767 3.1411 1.58201 0
M  V30 733 H 60.641 2.20465 3.06064 0
M  V30 734 H 63.028 1.30277 2.64786 0
M  V30 735 H 63.109 2.27415 1.17115 0
M  V30 736 H 62.753 4.38332 2.56568 0
M  V30 737 H 62.683 3.3813 4.03702 0
M  V30 738 H 65.174 2.72201 2.62135 0
M  V30 739 H 65.487 5.98196 4.89266 0
M  V30 740 H 63.832 5.37534 4.40548 0
M  V30 741 H 67.023 3.42962 3.18582 0
M  V30 742 H 67.196 4.91604 4.22173 0
M  V30 743 N 60.6021 -1.18246 1.0419 0
M  V30 744 C 62.0131 -1.69914 0.773698 0
M  V30 745 C 62.3641 -1.83085 -0.705297 0
M  V30 746 O 61.4891 -1.51123 -1.5489 0
M  V30 747 C 62.0841 -3.08619 1.39784 0
M  V30 748 C 60.6431 -3.57494 1.17792 0
M  V30 749 C 59.7901 -2.34013 1.48773 0
M  V30 750 H 62.7411 -1.02904 1.20816 0
M  V30 751 H 62.7621 -3.71958 0.801714 0
M  V30 752 H 62.2741 -2.99001 2.47426 0
M  V30 753 H 60.3751 -3.72406 0.120295 0
M  V30 754 H 60.4881 -4.40852 1.87581 0
M  V30 755 H 58.8521 -2.37986 0.907463 0
M  V30 756 H 59.6351 -2.27013 2.57527 0
M  V30 757 N 62.0802 -0.821533 -1.34494 0
M  V30 758 C 63.3082 -0.421884 -2.02553 0
M  V30 759 C 63.7232 0.971745 -1.61872 0
M  V30 760 O 63.0802 1.62864 -0.823496 0
M  V30 761 C 63.1312 -0.51285 -3.57844 0
M  V30 762 O 62.8522 -1.85155 -3.97051 0
M  V30 763 C 64.3532 -0.107921 -4.43169 0
M  V30 764 H 61.5732 -0.169482 -0.649243 0
M  V30 765 H 64.1172 -1.1093 -1.71798 0
M  V30 766 H 62.2722 0.126474 -3.87193 0
M  V30 767 H 62.6862 -1.82482 -4.91732 0
M  V30 768 H 64.1602 -0.222657 -5.51551 0
M  V30 769 H 64.6372 0.948401 -4.28838 0
M  V30 770 H 65.2432 -0.720989 -4.19144 0
M  V30 771 N 63.5583 1.46682 -0.576371 0
M  V30 772 C 64.9743 1.57822 -0.237562 0
M  V30 773 C 65.1743 1.57237 1.26011 0
M  V30 774 O 64.2303 1.48596 2.04146 0
M  V30 775 C 65.5433 2.87499 -0.881168 0
M  V30 776 C 67.0913 3.01119 -0.85417 0
M  V30 777 C 67.5663 4.33524 -1.4772 0
M  V30 778 N 69.0573 4.40207 -1.44125 0
M  V30 779 C 69.7923 5.4126 -1.89276 0
M  V30 780 N 69.2883 6.49021 -2.42371 0
M  V30 781 N 71.0813 5.32422 -1.80231 0
M  V30 782 H 63.2323 1.45306 -1.54919 0
M  V30 783 H 65.4953 0.692733 -0.647167 0
M  V30 784 H 65.2013 2.9372 -1.93447 0
M  V30 785 H 65.0753 3.75224 -0.385592 0
M  V30 786 H 67.4623 2.94485 0.190491 0
M  V30 787 H 67.5433 2.14887 -1.3877 0
M  V30 788 H 67.1873 4.40916 -2.52103 0
M  V30 789 H 67.1173 5.1852 -0.918947 0
M  V30 790 H 69.6083 3.62931 -1.05307 0
M  V30 791 H 69.9213 7.2233 -2.74698 0
M  V30 792 H 68.2663 6.49858 -2.46393 0
M  V30 793 H 71.4573 4.47137 -1.38514 0
M  V30 794 H 71.6303 6.11034 -2.15735 0
M  V30 795 N 65.0364 0.313813 1.54444 0
M  V30 796 C 66.4474 -0.176243 1.85866 0
M  V30 797 C 66.7984 -1.52405 1.23561 0
M  V30 798 O 65.9234 -2.09605 0.538016 0
M  V30 799 C 66.5184 -0.32657 3.37222 0
M  V30 800 C 65.0774 -0.760846 3.6863 0
M  V30 801 C 64.2244 0.123247 2.77026 0
M  V30 802 H 67.1754 0.534418 1.49431 0
M  V30 803 H 67.1964 -1.15908 3.62416 0
M  V30 804 H 66.7084 0.654531 3.82541 0
M  V30 805 H 64.8094 -1.75204 3.28838 0
M  V30 806 H 64.9224 -0.571353 4.75681 0
M  V30 807 H 63.2864 -0.399597 2.51546 0
M  V30 808 H 64.0694 1.10094 3.25168 0
M  V30 809 N 66.5145 -1.57545 0.0417849 0
M  V30 810 C 67.7915 -1.83642 -0.673433 0
M  V30 811 C 68.1715 -0.928298 -1.89594 0
M  V30 812 O 67.5195 0.0129955 -2.28496 0
M  V30 813 C 67.7295 -3.33155 -1.03964 0
M  V30 814 C 69.0775 -3.99941 -1.42592 0
M  V30 815 O 70.1015 -3.37725 -1.13226 0
M  V30 816 O 68.9605 -5.09619 -1.9736 0
M  V30 817 H 66.0545 -0.757638 -0.331533 0
M  V30 818 H 68.6005 -1.69554 0.070433 0
M  V30 819 H 67.3725 -3.9093 -0.170098 0
M  V30 820 H 66.9955 -3.52396 -1.84126 0
M  V30 821 N 67.9926 0.231505 -1.5589 0
M  V30 822 C 68.9396 1.28682 -1.91598 0
M  V30 823 C 69.9096 1.47071 -0.771974 0
M  V30 824 O 71.0946 1.60802 -1.027 0
M  V30 825 C 68.2346 2.6342 -2.22944 0
M  V30 826 C 67.3476 2.52912 -3.50228 0
M  V30 827 C 66.4826 3.80106 -3.7107 0
M  V30 828 C 65.5216 3.64279 -4.91902 0
M  V30 829 N 64.6586 4.834 -5.09184 0
M  V30 830 H 69.4986 0.975305 -2.81588 0
M  V30 831 H 67.0356 0.470299 -1.39379 0
M  V30 832 H 68.9936 3.41869 -2.39126 0
M  V30 833 H 67.6236 2.92687 -1.36139 0
M  V30 834 H 66.6756 1.6595 -3.42294 0
M  V30 835 H 67.9876 2.37133 -4.38827 0
M  V30 836 H 67.1416 4.66999 -3.87295 0
M  V30 837 H 65.8806 3.98799 -2.80733 0
M  V30 838 H 64.8856 2.7577 -4.75637 0
M  V30 839 H 66.1106 3.47067 -5.83714 0
M  V30 840 H 64.0566 5.02425 -4.21788 0
M  V30 841 H 63.9736 4.70311 -5.91898 0
M  V30 842 H 65.2416 5.71747 -5.29835 0
M  V30 843 N 69.4707 1.49531 0.497807 0
M  V30 844 C 70.4337 1.65916 1.58128 0
M  V30 845 C 71.4337 0.530825 1.51786 0
M  V30 846 O 72.6237 0.797342 1.54881 0
M  V30 847 C 69.7557 1.65951 2.9778 0
M  V30 848 H 70.9487 2.62556 1.44929 0
M  V30 849 H 68.5017 1.38611 0.722275 0
M  V30 850 H 69.2367 0.709065 3.16453 0
M  V30 851 H 69.0217 2.47897 3.03792 0
M  V30 852 H 70.5117 1.80673 3.76493 0
M  V30 853 N 70.9488 -0.749086 1.3866 0
M  V30 854 C 72.3648 -1.05276 1.19955 0
M  V30 855 C 72.5648 -2.01435 0.05134 0
M  V30 856 O 71.6208 -2.45232 -0.60147 0
M  V30 857 C 72.9338 -1.62853 2.52783 0
M  V30 858 C 74.4818 -1.75002 2.59506 0
M  V30 859 C 74.9568 -2.35991 3.92521 0
M  V30 860 N 76.4478 -2.43416 3.94085 0
M  V30 861 C 77.1828 -2.91511 4.9377 0
M  V30 862 N 76.6788 -3.39608 6.03853 0
M  V30 863 N 78.4718 -2.90592 4.81157 0
M  V30 864 H 70.6228 -0.111066 2.12109 0
M  V30 865 H 72.8858 -0.111901 0.941373 0
M  V30 866 H 72.5918 -0.99664 3.37283 0
M  V30 867 H 72.4658 -2.61854 2.715 0
M  V30 868 H 74.8528 -2.37317 1.75398 0
M  V30 869 H 74.9338 -0.74693 2.44652 0
M  V30 870 H 74.5778 -1.74308 4.77053 0
M  V30 871 H 74.5078 -3.3695 4.04688 0
M  V30 872 H 76.9988 -2.09405 3.14576 0
M  V30 873 H 77.3118 -3.74775 6.75843 0
M  V30 874 H 75.6568 -3.37653 6.07466 0
M  V30 875 H 78.8478 -2.52332 3.94267 0
M  V30 876 H 79.0208 -3.27762 5.58996 0
M  V30 877 N 72.4269 -1.23603 -0.977757 0
M  V30 878 C 73.8429 -0.999251 -1.24447 0
M  V30 879 C 74.0429 0.298053 -1.99283 0
M  V30 880 O 73.0989 1.01681 -2.31122 0
M  V30 881 C 74.4119 -2.20784 -2.04144 0
M  V30 882 C 75.9599 -2.25303 -2.17273 0
M  V30 883 C 76.4349 -3.45755 -3.00362 0
M  V30 884 N 77.9259 -3.4601 -3.07947 0
M  V30 885 C 78.6609 -4.35868 -3.72568 0
M  V30 886 N 78.1569 -5.35966 -4.38991 0
M  V30 887 N 79.9499 -4.23605 -3.6948 0
M  V30 888 H 72.1009 -2.06986 -0.476483 0
M  V30 889 H 74.3639 -0.907801 -0.273134 0
M  V30 890 H 74.0699 -3.14945 -1.56533 0
M  V30 891 H 73.9439 -2.22085 -3.04891 0
M  V30 892 H 76.3309 -1.3168 -2.64092 0
M  V30 893 H 76.4119 -2.28033 -1.15907 0
M  V30 894 H 76.0559 -4.39687 -2.5424 0
M  V30 895 H 75.9859 -3.40266 -4.01904 0
M  V30 896 H 78.4769 -2.73588 -2.60688 0
M  V30 897 H 78.7899 -6.00783 -4.86086 0
M  V30 898 H 77.1349 -5.39863 -4.37691 0
M  V30 899 H 80.3259 -3.44647 -3.16759 0
M  V30 900 H 80.4989 -4.93836 -4.1956 0
M  V30 901 N 73.905 1.17692 -1.04816 0
M  V30 902 C 74.835 2.23777 -0.666791 0
M  V30 903 C 75.816 1.66796 0.33361 0
M  V30 904 O 77.001 1.93039 0.212042 0
M  V30 905 C 74.131 3.47281 -0.0367933 0
M  V30 906 C 73.085 4.17059 -0.961546 0
M  V30 907 C 72.411 5.34342 -0.195626 0
M  V30 908 C 73.711 4.69713 -2.28402 0
M  V30 909 H 75.405 2.55933 -1.55367 0
M  V30 910 H 72.951 1.23019 -0.748484 0
M  V30 911 H 74.904 4.20706 0.241775 0
M  V30 912 H 73.628 3.14381 0.885004 0
M  V30 913 H 72.287 3.45541 -1.22462 0
M  V30 914 H 71.935 4.97692 0.728816 0
M  V30 915 H 71.635 5.81966 -0.811775 0
M  V30 916 H 73.159 6.10553 0.0757473 0
M  V30 917 H 74.573 5.34794 -2.06563 0
M  V30 918 H 72.97 5.279 -2.8538 0
M  V30 919 H 74.04 3.86726 -2.92525 0
M  V30 920 N 75.3831 0.828654 1.34056 0
M  V30 921 C 76.6311 0.41863 1.97717 0
M  V30 922 C 76.9521 -1.02314 1.66002 0
M  V30 923 O 76.2221 -1.71119 0.953683 0
M  V30 924 H 74.8021 0.151809 0.731412 0
M  V30 925 H 77.4641 1.05936 1.63596 0
M  V30 926 H 76.5601 0.542318 3.07352 0
M  V30 927 N 76.8612 -1.46375 0.584142 0
M  V30 928 C 78.0912 -2.06461 0.0758195 0
M  V30 929 C 78.4992 -1.43322 -1.23512 0
M  V30 930 O 77.8422 -0.533216 -1.75791 0
M  V30 931 C 77.9042 -3.59131 -0.162773 0
M  V30 932 C 77.5682 -4.4447 1.06279 0
M  V30 933 C 78.5652 -4.80918 1.97519 0
M  V30 934 C 76.2502 -4.85584 1.28504 0
M  V30 935 C 78.2442 -5.57309 3.09331 0
M  V30 936 C 75.9312 -5.61734 2.4062 0
M  V30 937 C 76.9292 -5.9751 3.30863 0
M  V30 938 O 76.6172 -6.72121 4.41032 0
M  V30 939 H 76.3492 -0.673745 0.0551725 0
M  V30 940 H 78.9032 -1.88969 0.804984 0
M  V30 941 H 77.1332 -3.74936 -0.946565 0
M  V30 942 H 78.8222 -4.0114 -0.619782 0
M  V30 943 H 79.5882 -4.49732 1.81565 0
M  V30 944 H 75.4672 -4.57187 0.591702 0
M  V30 945 H 79.0112 -5.85152 3.79793 0
M  V30 946 H 74.9082 -5.92334 2.56537 0
M  V30 947 H 75.6762 -6.90547 4.39417 0
M  V30 948 N 78.3393 -0.321999 -1.54275 0
M  V30 949 C 79.2863 0.544664 -2.24281 0
M  V30 950 C 80.2563 1.1129 -1.23303 0
M  V30 951 O 81.4413 1.15354 -1.51981 0
M  V30 952 C 78.5813 1.70045 -3.00298 0
M  V30 953 C 77.6943 1.16159 -4.1609 0
M  V30 954 C 76.8293 2.28293 -4.79641 0
M  V30 955 C 75.8683 1.71648 -5.8754 0
M  V30 956 N 75.0053 2.77438 -6.44959 0
M  V30 957 H 79.8453 -0.0588907 -2.97942 0
M  V30 958 H 77.3823 -0.0408345 -1.47043 0
M  V30 959 H 79.3403 2.38054 -3.42616 0
M  V30 960 H 77.9703 2.27531 -2.28975 0
M  V30 961 H 77.0223 0.373092 -3.78566 0
M  V30 962 H 78.3343 0.707087 -4.93763 0
M  V30 963 H 77.4883 3.0421 -5.2492 0
M  V30 964 H 76.2273 2.77079 -4.01346 0
M  V30 965 H 75.2323 0.942282 -5.41665 0
M  V30 966 H 76.4573 1.23741 -6.67731 0
M  V30 967 H 74.4033 3.25519 -5.69538 0
M  V30 968 H 74.3203 2.36547 -7.1804 0
M  V30 969 H 75.5883 3.53189 -6.94894 0
M  V30 970 N 79.8174 1.5752 -0.0501392 0
M  V30 971 C 80.7804 2.1037 0.909786 0
M  V30 972 C 81.7804 1.02308 1.24056 0
M  V30 973 O 82.9704 1.28385 1.17741 0
M  V30 974 C 80.1024 2.58708 2.21998 0
M  V30 975 H 81.2954 2.96479 0.451665 0
M  V30 976 H 78.8484 1.55038 0.198248 0
M  V30 977 H 79.5834 1.75989 2.72394 0
M  V30 978 H 79.3684 3.37675 1.99295 0
M  V30 979 H 80.8584 2.99747 2.9076 0
M  V30 980 N 81.2955 -0.223234 1.56011 0
M  V30 981 C 82.2425 -1.27664 1.92277 0
M  V30 982 C 83.2125 -1.46659 0.779763 0
M  V30 983 O 84.3975 -1.60256 1.03551 0
M  V30 984 C 81.5375 -2.62234 2.24338 0
M  V30 985 C 80.6505 -2.51051 3.51564 0
M  V30 986 C 79.7855 -3.78133 3.7308 0
M  V30 987 C 78.8245 -3.61665 4.93827 0
M  V30 988 N 77.9615 -4.80693 5.11741 0
M  V30 989 H 82.8015 -0.960358 2.82101 0
M  V30 990 H 80.3385 -0.462901 1.39627 0
M  V30 991 H 82.2965 -3.40596 2.40936 0
M  V30 992 H 80.9265 -2.91961 1.3769 0
M  V30 993 H 79.9785 -1.64132 3.43169 0
M  V30 994 H 81.2905 -2.34803 4.40079 0
M  V30 995 H 80.4445 -4.64938 3.89766 0
M  V30 996 H 79.1835 -3.97304 2.82844 0
M  V30 997 H 78.1885 -2.73244 4.77093 0
M  V30 998 H 79.4135 -3.43966 5.85546 0
M  V30 999 H 77.3595 -5.00181 4.24446 0
M  V30 1000 H 77.2765 -4.67165 5.94384 0
M  V30 1001 H 78.5445 -5.6893 5.3286 0
M  V30 1002 N 82.7736 -1.49793 -0.48987 0
M  V30 1003 C 83.7056 -1.63413 -1.60713 0
M  V30 1004 C 84.7186 -0.516329 -1.54395 0
M  V30 1005 O 85.9076 -0.788812 -1.60125 0
M  V30 1006 C 83.0076 -1.58516 -2.99543 0
M  V30 1007 C 82.1806 -2.86016 -3.30928 0
M  V30 1008 C 81.2396 -2.74018 -4.49222 0
M  V30 1009 O 80.2656 -3.47964 -4.50455 0
M  V30 1010 N 81.4676 -1.86309 -5.4979 0
M  V30 1011 H 84.2326 -2.59777 -1.49452 0
M  V30 1012 H 81.7936 -1.47022 -0.677955 0
M  V30 1013 H 83.7856 -1.48128 -3.76617 0
M  V30 1014 H 82.3556 -0.69965 -3.0467 0
M  V30 1015 H 81.5756 -3.10672 -2.42645 0
M  V30 1016 H 82.8636 -3.70521 -3.487 0
M  V30 1017 H 82.2616 -1.2551 -5.51601 0
M  V30 1018 H 80.8186 -1.81837 -6.25922 0
M  V30 1019 N 84.2517 0.741722 -1.39055 0
M  V30 1020 C 85.4997 1.49818 -1.35643 0
M  V30 1021 C 85.8207 1.94938 0.0491642 0
M  V30 1022 O 85.0907 1.68505 0.999141 0
M  V30 1023 H 83.6707 0.555755 -0.499144 0
M  V30 1024 H 86.3327 0.880957 -1.73854 0
M  V30 1025 H 85.4287 2.38348 -2.01486 0
M  V30 1026 N 85.7298 1.2412 0.971189 0
M  V30 1027 C 86.9598 1.10415 1.7462 0
M  V30 1028 C 87.3678 -0.346462 1.86001 0
M  V30 1029 O 86.7108 -1.25104 1.34517 0
M  V30 1030 C 86.7728 1.66596 3.18568 0
M  V30 1031 C 86.4368 3.15446 3.3067 0
M  V30 1032 C 87.4338 4.12636 3.16271 0
M  V30 1033 C 85.1188 3.55337 3.55022 0
M  V30 1034 C 87.1128 5.47699 3.26044 0
M  V30 1035 C 84.7998 4.90542 3.64434 0
M  V30 1036 C 85.7978 5.86532 3.49956 0
M  V30 1037 O 85.4858 7.19279 3.59017 0
M  V30 1038 H 85.2178 0.386616 0.55453 0
M  V30 1039 H 87.7718 1.64633 1.22821 0
M  V30 1040 H 86.0018 1.06808 3.71657 0
M  V30 1041 H 87.6908 1.48232 3.77865 0
M  V30 1042 H 88.4568 3.8316 2.97344 0
M  V30 1043 H 84.3358 2.8113 3.65359 0
M  V30 1044 H 87.8798 6.22603 3.14661 0
M  V30 1045 H 83.7768 5.19691 3.82873 0
M  V30 1046 H 84.5448 7.27153 3.75754 0
M  V30 1047 N 87.2079 -1.17134 1.05439 0
M  V30 1048 C 88.4539 -1.87733 0.767077 0
M  V30 1049 C 88.7869 -1.8098 -0.704253 0
M  V30 1050 O 88.0619 -1.21951 -1.5152 0
M  V30 1051 C 88.3449 -3.37659 1.25133 0
M  V30 1052 C 88.1979 -3.53149 2.78578 0
M  V30 1053 C 89.5169 -4.31768 0.852324 0
M  V30 1054 H 86.6359 -0.681687 0.280129 0
M  V30 1055 H 89.2779 -1.37732 1.30881 0
M  V30 1056 H 87.4279 -3.80373 0.790469 0
M  V30 1057 H 89.0999 -3.19434 3.32806 0
M  V30 1058 H 87.3429 -2.95345 3.17732 0
M  V30 1059 H 88.0139 -4.58403 3.07523 0
M  V30 1060 H 90.4899 -3.96909 1.24911 0
M  V30 1061 H 89.3659 -5.35199 1.21873 0
M  V30 1062 H 89.6269 -4.41429 -0.243485 0
M  V30 1063 N 88.686 -0.835752 -1.33615 0
M  V30 1064 C 89.935 -0.426289 -1.97144 0
M  V30 1065 C 90.248 1.01912 -1.66953 0
M  V30 1066 O 91.454 1.53311 -2.24072 0
M  V30 1067 C 89.91 -0.711321 -3.52801 0
M  V30 1068 C 89.518 -2.1712 -3.91871 0
M  V30 1069 C 91.262 -0.368654 -4.22896 0
M  V30 1070 C 89.169 -2.40044 -5.40493 0
M  V30 1071 H 88.099 -0.15567 -0.737755 0
M  V30 1072 H 90.75 -1.0239 -1.52278 0
M  V30 1073 H 89.132 -0.0433766 -3.95976 0
M  V30 1074 H 90.306 -2.87936 -3.59763 0
M  V30 1075 H 88.621 -2.47654 -3.34749 0
M  V30 1076 H 91.218 -0.517601 -5.32189 0
M  V30 1077 H 91.561 0.688078 -4.10574 0
M  V30 1078 H 92.094 -0.991702 -3.8524 0
M  V30 1079 H 88.833 -3.44271 -5.57815 0
M  V30 1080 H 88.353 -1.73785 -5.74072 0
M  V30 1081 H 90.032 -2.23042 -6.0734 0
M  V30 1082 N 90.1641 1.46063 -0.591896 0
M  V30 1083 C 91.3941 2.06418 -0.0867676 0
M  V30 1084 C 91.8021 1.43975 1.22751 0
M  V30 1085 O 91.1451 0.542531 1.75506 0
M  V30 1086 C 91.2071 3.59213 0.143725 0
M  V30 1087 C 90.8711 4.439 -1.08635 0
M  V30 1088 C 91.8681 4.79864 -2.00067 0
M  V30 1089 C 89.5531 4.84896 -1.31077 0
M  V30 1090 C 91.5471 5.55661 -3.12282 0
M  V30 1091 C 89.2341 5.6045 -2.43596 0
M  V30 1092 C 90.2321 5.95747 -3.34027 0
M  V30 1093 O 89.9201 6.69772 -4.4459 0
M  V30 1094 H 89.6521 0.673443 -0.0587447 0
M  V30 1095 H 92.2061 1.88539 -0.814994 0
M  V30 1096 H 90.4361 3.75433 0.926668 0
M  V30 1097 H 92.1251 4.01463 0.5985 0
M  V30 1098 H 92.8911 4.48763 -1.83947 0
M  V30 1099 H 88.7701 4.56867 -0.61594 0
M  V30 1100 H 92.3141 5.8313 -3.82891 0
M  V30 1101 H 88.2111 5.90965 -2.59674 0
M  V30 1102 H 88.9791 6.88207 -4.43073 0
M  V30 1103 N 91.6422 0.330177 1.54103 0
M  V30 1104 C 93.0582 -0.0222371 1.59585 0
M  V30 1105 C 93.2582 -1.49902 1.34654 0
M  V30 1106 O 92.3142 -2.25592 1.13421 0
M  V30 1107 C 93.6272 0.401932 2.98002 0
M  V30 1108 C 95.1752 0.353145 3.11001 0
M  V30 1109 C 95.6502 0.752576 4.51775 0
M  V30 1110 N 97.1412 0.706239 4.57784 0
M  V30 1111 C 97.8762 0.987417 5.64834 0
M  V30 1112 N 97.3722 1.33607 6.79795 0
M  V30 1113 N 99.1652 0.91254 5.54643 0
M  V30 1114 H 91.3162 1.29228 1.68564 0
M  V30 1115 H 93.5792 0.525906 0.78875 0
M  V30 1116 H 93.2852 1.4311 3.21267 0
M  V30 1117 H 93.1592 -0.229699 3.765 0
M  V30 1118 H 95.5462 -0.666822 2.87467 0
M  V30 1119 H 95.6272 1.0198 2.34593 0
M  V30 1120 H 95.2712 1.77049 4.76042 0
M  V30 1121 H 95.2012 0.0635409 5.26562 0
M  V30 1122 H 97.6922 0.44889 3.75224 0
M  V30 1123 H 98.0052 1.53582 7.57385 0
M  V30 1124 H 96.3502 1.37439 6.81275 0
M  V30 1125 H 99.5412 0.639601 4.6371 0
M  V30 1126 H 99.7142 1.13503 6.37982 0
M  V30 1127 N 93.1203 -1.57491 0.0584922 0
M  V30 1128 C 94.3693 -1.92155 -0.613146 0
M  V30 1129 C 94.6823 -0.939334 -1.71569 0
M  V30 1130 O 95.8883 -1.17829 -2.44599 0
M  V30 1131 C 94.3443 -3.41303 -1.14195 0
M  V30 1132 C 93.9523 -4.47944 -0.0711265 0
M  V30 1133 C 95.6963 -3.84988 -1.78841 0
M  V30 1134 C 93.6033 -5.88212 -0.613225 0
M  V30 1135 H 92.5333 -0.717162 -0.232796 0
M  V30 1136 H 95.1843 -1.83049 0.12857 0
M  V30 1137 H 93.5663 -3.45437 -1.93621 0
M  V30 1138 H 94.7403 -4.55408 0.702836 0
M  V30 1139 H 93.0553 -4.13644 0.478313 0
M  V30 1140 H 95.6523 -4.87159 -2.20408 0
M  V30 1141 H 95.9953 -3.21632 -2.64308 0
M  V30 1142 H 96.5283 -3.83401 -1.06059 0
M  V30 1143 H 93.2673 -6.55183 0.203978 0
M  V30 1144 H 92.7873 -5.84294 -1.35501 0
M  V30 1145 H 94.4663 -6.37687 -1.09383 0
M  V30 1146 N 94.5984 0.214957 -1.56127 0
M  V30 1147 C 96.0144 0.564948 -1.49267 0
M  V30 1148 C 96.2144 1.86827 -0.754838 0
M  V30 1149 O 95.2704 2.50745 -0.297198 0
M  V30 1150 C 96.5834 0.638071 -2.93852 0
M  V30 1151 C 98.1314 0.728253 -3.0441 0
M  V30 1152 C 98.6064 0.832663 -4.50367 0
M  V30 1153 N 100.097 0.896712 -4.54437 0
M  V30 1154 C 100.832 0.997324 -5.6466 0
M  V30 1155 N 100.328 1.06147 -6.8462 0
M  V30 1156 N 102.121 1.03297 -5.52527 0
M  V30 1157 H 94.2724 -0.640211 -2.02522 0
M  V30 1158 H 96.5354 -0.225507 -0.920788 0
M  V30 1159 H 96.2414 -0.250126 -3.50809 0
M  V30 1160 H 96.1154 1.49947 -3.46115 0
M  V30 1161 H 98.5024 1.60689 -2.47514 0
M  V30 1162 H 98.5834 -0.158952 -2.55306 0
M  V30 1163 H 98.2274 -0.0415417 -5.07883 0
M  V30 1164 H 98.1574 1.73538 -4.97184 0
M  V30 1165 H 100.648 0.857188 -3.6805 0
M  V30 1166 H 100.961 1.1382 -7.64372 0
M  V30 1167 H 99.3064 1.03049 -6.87318 0
M  V30 1168 H 102.497 0.979558 -4.57736 0
M  V30 1169 H 102.67 1.10793 -6.38458 0
M  V30 1170 N 96.0765 1.50051 0.48192 0
M  V30 1171 C 97.3225 1.60736 1.2366 0
M  V30 1172 C 97.6555 0.301786 1.91841 0
M  V30 1173 O 96.9305 -0.696025 1.8162 0
M  V30 1174 C 97.2135 2.78009 2.28874 0
M  V30 1175 C 97.0665 4.18416 1.65069 0
M  V30 1176 C 98.3855 2.90867 3.30279 0
M  V30 1177 H 95.5045 0.585031 0.448228 0
M  V30 1178 H 98.1465 1.82402 0.531946 0
M  V30 1179 H 96.2965 2.59667 2.88973 0
M  V30 1180 H 97.9685 4.48322 1.0865 0
M  V30 1181 H 96.2115 4.23177 0.954148 0
M  V30 1182 H 96.8825 4.96381 2.41474 0
M  V30 1183 H 99.3585 3.07623 2.80191 0
M  V30 1184 H 98.2345 3.74566 4.01238 0
M  V30 1185 H 98.4955 2.01021 3.93755 0
M  V30 1186 N 97.5546 -0.734337 1.39446 0
M  V30 1187 C 98.9706 -1.03997 1.21065 0
M  V30 1188 C 99.1706 -2.01369 0.0727019 0
M  V30 1189 O 98.2266 -2.45856 -0.575426 0
M  V30 1190 C 99.5396 -1.60163 2.54496 0
M  V30 1191 C 101.088 -1.7224 2.61347 0
M  V30 1192 C 101.563 -2.31814 3.95002 0
M  V30 1193 N 103.054 -2.39223 3.96644 0
M  V30 1194 C 103.789 -2.86258 4.96834 0
M  V30 1195 N 103.285 -3.33184 6.07421 0
M  V30 1196 N 105.078 -2.85473 4.84213 0
M  V30 1197 H 97.2286 -0.0885624 2.12215 0
M  V30 1198 H 99.4916 -0.10191 0.942506 0
M  V30 1199 H 99.1976 -0.960811 3.38321 0
M  V30 1200 H 99.0716 -2.5896 2.74262 0
M  V30 1201 H 101.459 -2.35443 1.77906 0
M  V30 1202 H 101.54 -0.720939 2.4543 0
M  V30 1203 H 101.184 -1.69238 4.78875 0
M  V30 1204 H 101.114 -3.32638 4.08239 0
M  V30 1205 H 103.605 -2.06057 3.16779 0
M  V30 1206 H 103.918 -3.67586 6.7978 0
M  V30 1207 H 102.263 -3.31191 6.11013 0
M  V30 1208 H 105.454 -2.48136 3.96921 0
M  V30 1209 H 105.627 -3.21814 5.62441 0
M  V30 1210 N 99.0327 -1.24633 -0.964593 0
M  V30 1211 C 100.449 -1.01239 -1.2338 0
M  V30 1212 C 100.649 0.2769 -1.99588 0
M  V30 1213 O 99.7047 0.992241 -2.32187 0
M  V30 1214 C 101.018 -2.22937 -2.01791 0
M  V30 1215 C 102.566 -2.27594 -2.14872 0
M  V30 1216 C 103.041 -3.48921 -2.96678 0
M  V30 1217 N 104.532 -3.49257 -3.04259 0
M  V30 1218 C 105.267 -4.39795 -3.67924 0
M  V30 1219 N 104.763 -5.40591 -4.33281 0
M  V30 1220 N 106.556 -4.275 -3.64966 0
M  V30 1221 H 98.7067 -2.0748 -0.454502 0
M  V30 1222 H 100.97 -0.910647 -0.26349 0
M  V30 1223 H 100.676 -3.16587 -1.53184 0
M  V30 1224 H 100.55 -2.25306 -3.02518 0
M  V30 1225 H 102.937 -1.34473 -2.6268 0
M  V30 1226 H 103.018 -2.2925 -1.13482 0
M  V30 1227 H 102.662 -4.42359 -2.49562 0
M  V30 1228 H 102.592 -3.4451 -3.98272 0
M  V30 1229 H 105.083 -2.76337 -2.57771 0
M  V30 1230 H 105.396 -6.05904 -4.79687 0
M  V30 1231 H 103.741 -5.44475 -4.3194 0
M  V30 1232 H 106.932 -3.47987 -3.13086 0
M  V30 1233 H 107.105 -4.98258 -4.14298 0
M  V30 1234 N 100.511 1.16574 -1.06058 0
M  V30 1235 C 101.759 1.86677 -0.77434 0
M  V30 1236 C 102.08 1.81959 0.701147 0
M  V30 1237 O 101.35 1.2515 1.50713 0
M  V30 1238 H 99.9298 0.691134 -0.283449 0
M  V30 1239 H 102.592 1.41378 -1.34158 0
M  V30 1240 H 101.688 2.92181 -1.09711 0
M  V30 1241 N 101.989 0.842826 1.3317 0
M  V30 1242 C 103.237 0.439577 1.97262 0
M  V30 1243 C 103.558 -1.00548 1.67078 0
M  V30 1244 O 102.828 -1.70098 0.971779 0
M  V30 1245 H 101.408 0.159558 0.72976 0
M  V30 1246 H 104.07 1.07665 1.62463 0
M  V30 1247 H 103.166 0.574886 3.0676 0
M  V30 1248 N 103.467 -1.45747 0.599634 0
M  V30 1249 C 104.883 -1.57424 0.26264 0
M  V30 1250 C 105.083 -1.59222 -1.23493 0
M  V30 1251 O 104.139 -1.51825 -2.01756 0
M  V30 1252 C 105.452 -2.86061 0.926795 0
M  V30 1253 C 107 -2.99722 0.901967 0
M  V30 1254 C 107.475 -4.31119 1.54598 0
M  V30 1255 N 108.966 -4.37858 1.5111 0
M  V30 1256 C 109.701 -5.3818 1.97863 0
M  V30 1257 N 109.197 -6.45083 2.52666 0
M  V30 1258 N 110.99 -5.29487 1.88679 0
M  V30 1259 H 103.141 -1.42823 1.57211 0
M  V30 1260 H 105.404 -0.68235 0.658105 0
M  V30 1261 H 105.11 -2.90605 1.98095 0
M  V30 1262 H 104.984 -3.74563 0.445238 0
M  V30 1263 H 107.371 -2.9475 -0.143617 0
M  V30 1264 H 107.452 -2.12652 1.42171 0
M  V30 1265 H 107.096 -4.36849 2.59085 0
M  V30 1266 H 107.026 -5.16992 1.00132 0
M  V30 1267 H 109.517 -3.61209 1.11068 0
M  V30 1268 H 109.83 -7.17869 2.86155 0
M  V30 1269 H 108.175 -6.45856 2.56701 0
M  V30 1270 H 111.366 -4.44877 1.4561 0
M  V30 1271 H 111.539 -6.07524 2.25429 0
M  V30 1272 N 104.945 -0.338344 -1.53925 0
M  V30 1273 C 105.892 0.520845 -2.24846 0
M  V30 1274 C 106.862 1.09976 -1.24477 0
M  V30 1275 O 108.047 1.13735 -1.53196 0
M  V30 1276 C 105.187 1.6685 -3.02084 0
M  V30 1277 C 104.3 1.11739 -4.17299 0
M  V30 1278 C 103.435 2.23193 -4.82036 0
M  V30 1279 C 102.474 1.65407 -5.89328 0
M  V30 1280 N 101.611 2.70582 -6.47866 0
M  V30 1281 H 106.451 -0.0904881 -2.97863 0
M  V30 1282 H 103.988 -0.0564282 -1.46992 0
M  V30 1283 H 105.946 2.34407 -3.45122 0
M  V30 1284 H 104.576 2.2509 -2.31375 0
M  V30 1285 H 103.628 0.332919 -3.7894 0
M  V30 1286 H 104.94 0.654677 -4.94485 0
M  V30 1287 H 104.094 2.98626 -5.28117 0
M  V30 1288 H 102.833 2.72807 -4.04262 0
M  V30 1289 H 101.838 0.884779 -5.42634 0
M  V30 1290 H 103.063 1.16652 -6.69006 0
M  V30 1291 H 101.009 3.1946 -5.72959 0
M  V30 1292 H 100.926 2.28917 -7.20509 0
M  V30 1293 H 102.194 3.45799 -6.98601 0
M  V30 1294 N 106.423 1.57458 -0.0668435 0
M  V30 1295 C 107.839 1.56947 0.289772 0
M  V30 1296 C 108.039 1.07584 1.70376 0
M  V30 1297 O 107.095 0.739486 2.41429 0
M  V30 1298 C 108.408 3.0052 0.103943 0
M  V30 1299 C 109.956 3.12517 0.173857 0
M  V30 1300 C 110.431 4.57997 0.0163682 0
M  V30 1301 N 111.922 4.63144 0.0721352 0
M  V30 1302 C 112.657 5.73394 -0.0253794 0
M  V30 1303 N 112.153 6.92576 -0.176133 0
M  V30 1304 N 113.946 5.62091 0.0313305 0
M  V30 1305 H 106.097 1.87863 -0.991027 0
M  V30 1306 H 108.36 0.86583 -0.38606 0
M  V30 1307 H 108.066 3.40729 -0.871572 0
M  V30 1308 H 107.94 3.67304 0.858366 0
M  V30 1309 H 110.327 2.72197 1.13985 0
M  V30 1310 H 110.408 2.48381 -0.611586 0
M  V30 1311 H 110.052 4.99005 -0.946374 0
M  V30 1312 H 109.982 5.20158 0.821153 0
M  V30 1313 H 112.473 3.77436 0.187263 0
M  V30 1314 H 112.786 7.72418 -0.242821 0
M  V30 1315 H 111.131 6.94678 -0.211429 0
M  V30 1316 H 114.322 4.67867 0.147773 0
M  V30 1317 H 114.495 6.47982 -0.048121 0
M  V30 1318 N 107.901 -0.206675 1.56239 0
M  V30 1319 C 109.312 -0.772383 1.69974 0
M  V30 1320 C 109.663 -1.84353 0.671436 0
M  V30 1321 O 108.788 -2.15695 -0.174491 0
M  V30 1322 C 109.383 -1.40779 3.08167 0
M  V30 1323 C 107.942 -1.92072 3.23706 0
M  V30 1324 C 107.089 -0.786347 2.65917 0
M  V30 1325 H 110.04 0.0182223 1.5869 0
M  V30 1326 H 110.061 -2.27696 3.04852 0
M  V30 1327 H 109.573 -0.627958 3.82986 0
M  V30 1328 H 107.674 -2.7281 2.53782 0
M  V30 1329 H 107.787 -2.09046 4.31087 0
M  V30 1330 H 106.151 -1.1976 2.24788 0
M  V30 1331 H 106.934 -0.0189416 3.43295 0
M  V30 1332 N 109.379 -1.50304 -0.473955 0
M  V30 1333 C 110.625 -1.61389 -1.22806 0
M  V30 1334 C 110.958 -0.311955 -1.91678 0
M  V30 1335 O 110.233 0.686384 -1.81986 0
M  V30 1336 C 110.516 -2.79219 -2.27396 0
M  V30 1337 C 110.369 -4.19286 -1.62848 0
M  V30 1338 C 111.688 -2.92614 -3.28732 0
M  V30 1339 H 108.807 -0.587399 -0.445119 0
M  V30 1340 H 111.449 -1.82681 -0.522265 0
M  V30 1341 H 109.599 -2.61195 -2.87592 0
M  V30 1342 H 111.271 -4.48892 -1.06271 0
M  V30 1343 H 109.514 -4.23677 -0.931693 0
M  V30 1344 H 110.185 -4.97655 -2.38838 0
M  V30 1345 H 112.661 -3.09105 -2.78556 0
M  V30 1346 H 111.537 -3.76688 -3.99246 0
M  V30 1347 H 111.798 -2.03107 -3.92683 0
M  V30 1348 N 110.857 0.726932 -1.39834 0
M  V30 1349 C 112.268 1.30558 -1.3346 0
M  V30 1350 C 112.619 1.962 -0.00273003 0
M  V30 1351 O 111.744 1.96826 0.899371 0
M  V30 1352 C 112.339 2.37404 -2.41713 0
M  V30 1353 C 110.898 2.90921 -2.38835 0
M  V30 1354 C 110.045 1.64578 -2.2318 0
M  V30 1355 H 112.996 0.523862 -1.49804 0
M  V30 1356 H 113.017 3.17984 -2.08966 0
M  V30 1357 H 112.529 1.89599 -3.38635 0
M  V30 1358 H 110.63 3.42985 -1.45575 0
M  V30 1359 H 110.743 3.43487 -3.33997 0
M  V30 1360 H 109.107 1.89219 -1.70494 0
M  V30 1361 H 109.89 1.18814 -3.22084 0
M  V30 1362 N 112.336 1.25143 0.95797 0
M  V30 1363 C 113.283 1.05235 2.05412 0
M  V30 1364 C 114.253 -0.0374561 1.66058 0
M  V30 1365 O 115.438 0.119073 1.90428 0
M  V30 1366 C 112.578 0.673589 3.38462 0
M  V30 1367 C 111.691 1.8379 3.90954 0
M  V30 1368 C 110.826 1.40381 5.12315 0
M  V30 1369 C 109.865 2.53746 5.57027 0
M  V30 1370 N 109.002 2.11136 6.69601 0
M  V30 1371 H 113.842 1.99048 2.21774 0
M  V30 1372 H 111.379 0.991277 1.08683 0
M  V30 1373 H 113.337 0.434964 4.14926 0
M  V30 1374 H 111.967 -0.227554 3.21997 0
M  V30 1375 H 111.019 2.18992 3.11041 0
M  V30 1376 H 112.331 2.68937 4.20089 0
M  V30 1377 H 111.485 1.12464 5.96185 0
M  V30 1378 H 110.224 0.523015 4.84887 0
M  V30 1379 H 109.229 2.82412 4.71724 0
M  V30 1380 H 110.454 3.42398 5.86464 0
M  V30 1381 H 108.4 1.25468 6.4389 0
M  V30 1382 H 108.317 2.89832 6.98236 0
M  V30 1383 H 109.585 1.86385 7.56889 0
M  V30 1384 N 113.814 -1.1601 1.06675 0
M  V30 1385 C 115.062 -1.86264 0.784229 0
M  V30 1386 C 115.383 -1.82328 -0.691488 0
M  V30 1387 O 114.653 -1.25947 -1.50047 0
M  V30 1388 H 113.233 -0.689621 0.28711 0
M  V30 1389 H 115.895 -1.40664 1.34906 0
M  V30 1390 H 114.991 -2.91595 1.11259 0
M  V30 1391 N 115.292 -0.849877 -1.32721 0
M  V30 1392 C 116.255 -0.296122 -2.27279 0
M  V30 1393 C 117.255 0.541458 -1.5141 0
M  V30 1394 O 118.445 0.353658 -1.70572 0
M  V30 1395 C 115.577 0.581579 -3.35902 0
M  V30 1396 H 116.77 -1.13064 -2.77771 0
M  V30 1397 H 114.323 -0.62383 -1.43311 0
M  V30 1398 H 115.058 1.43809 -2.9067 0
M  V30 1399 H 114.843 -0.0178814 -3.92096 0
M  V30 1400 H 116.333 0.961951 -4.0637 0
M  V30 1401 N 116.77 1.45427 -0.607355 0
M  V30 1402 C 117.998 2.06614 -0.108814 0
M  V30 1403 C 118.413 1.45204 1.2067 0
M  V30 1404 O 117.77 0.566132 1.73497 0
M  V30 1405 C 117.821 3.61481 0.0375347 0
M  V30 1406 O 117.542 4.20598 -1.22593 0
M  V30 1407 C 119.043 4.39652 0.567561 0
M  V30 1408 H 116.263 0.66747 -0.0687351 0
M  V30 1409 H 118.807 1.86675 -0.835022 0
M  V30 1410 H 116.962 3.80762 0.714068 0
M  V30 1411 H 117.376 5.1377 -1.05547 0
M  V30 1412 H 118.85 5.48518 0.61905 0
M  V30 1413 H 119.327 4.09417 1.58978 0
M  V30 1414 H 119.933 4.25234 -0.0749202 0
M  V30 1415 N 118.248 0.346503 1.53744 0
M  V30 1416 C 119.478 -0.250047 2.05081 0
M  V30 1417 C 119.886 -1.44529 1.22098 0
M  V30 1418 O 119.229 -1.81992 0.249917 0
M  V30 1419 C 119.291 -0.725934 3.52094 0
M  V30 1420 C 118.955 0.350053 4.55657 0
M  V30 1421 C 119.952 1.19372 5.0601 0
M  V30 1422 C 117.637 0.504827 4.99757 0
M  V30 1423 C 119.631 2.17768 5.99046 0
M  V30 1424 C 117.318 1.49218 5.92602 0
M  V30 1425 C 118.316 2.32706 6.42135 0
M  V30 1426 O 118.004 3.2976 7.33153 0
M  V30 1427 H 117.736 -0.0515469 0.674032 0
M  V30 1428 H 120.29 0.497559 1.99282 0
M  V30 1429 H 118.52 -1.52483 3.55367 0
M  V30 1430 H 120.209 -1.24336 3.86388 0
M  V30 1431 H 120.975 1.08525 4.72702 0
M  V30 1432 H 116.854 -0.135178 4.60802 0
M  V30 1433 H 120.398 2.82971 6.37631 0
M  V30 1434 H 116.295 1.6012 6.25325 0
M  V30 1435 H 117.063 3.25265 7.51096 0
M  V30 1436 N 119.726 -1.57421 0.075193 0
M  V30 1437 C 120.974 -1.93236 -0.591974 0
M  V30 1438 C 121.295 -0.956241 -1.69944 0
M  V30 1439 O 120.565 -0.00494792 -1.95899 0
M  V30 1440 H 119.145 -0.713355 -0.22166 0
M  V30 1441 H 121.807 -1.9444 0.133848 0
M  V30 1442 H 120.903 -2.95131 -1.01509 0
M  V30 1443 N 121.204 0.198386 -1.56346 0
M  V30 1444 C 122.151 1.24589 -1.94284 0
M  V30 1445 C 123.121 1.454 -0.802997 0
M  V30 1446 O 124.306 1.58588 -1.06087 0
M  V30 1447 C 121.446 2.58631 -2.28482 0
M  V30 1448 C 120.559 2.45426 -3.55514 0
M  V30 1449 C 119.694 3.7215 -3.79049 0
M  V30 1450 C 118.733 3.53763 -4.99518 0
M  V30 1451 N 117.87 4.72491 -5.19323 0
M  V30 1452 H 122.71 0.915356 -2.83593 0
M  V30 1453 H 120.247 0.440629 -1.40346 0
M  V30 1454 H 122.205 3.3672 -2.46324 0
M  V30 1455 H 120.835 2.89734 -1.42317 0
M  V30 1456 H 119.887 1.58652 -3.45737 0
M  V30 1457 H 121.199 2.27772 -4.43758 0
M  V30 1458 H 120.353 4.58679 -3.97113 0
M  V30 1459 H 119.092 3.92754 -2.89129 0
M  V30 1460 H 118.097 2.65619 -4.8138 0
M  V30 1461 H 119.322 3.34607 -5.90944 0
M  V30 1462 H 117.268 4.93365 -4.3235 0
M  V30 1463 H 117.185 4.5765 -6.01741 0
M  V30 1464 H 118.453 5.6038 -5.41843 0
M  V30 1465 N 122.682 1.50554 0.465978 0
M  V30 1466 C 124.093 1.54599 1.04671 0
M  V30 1467 C 124.444 0.352488 1.93008 0
M  V30 1468 O 123.569 -0.534044 2.09707 0
M  V30 1469 C 124.164 2.80166 1.90505 0
M  V30 1470 C 122.723 2.86876 2.43678 0
M  V30 1471 C 121.87 2.48947 1.22151 0
M  V30 1472 H 124.821 1.56744 0.248384 0
M  V30 1473 H 124.842 2.62311 2.75633 0
M  V30 1474 H 124.354 3.67013 1.26186 0
M  V30 1475 H 122.455 2.04393 3.11536 0
M  V30 1476 H 122.568 3.89885 2.78436 0
M  V30 1477 H 120.932 2.01498 1.5579 0
M  V30 1478 H 121.715 3.38107 0.594866 0
M  V30 1479 N 124.16 -0.719506 1.40217 0
M  V30 1480 C 125.406 -1.48152 1.38488 0
M  V30 1481 C 125.739 -1.94195 -0.0141867 0
M  V30 1482 O 125.014 -1.67884 -0.982096 0
M  V30 1483 C 125.297 -2.71035 2.37091 0
M  V30 1484 C 125.15 -2.30912 3.86005 0
M  V30 1485 C 126.469 -3.73182 2.33288 0
M  V30 1486 H 123.588 -0.537395 0.504357 0
M  V30 1487 H 126.23 -0.821472 1.71324 0
M  V30 1488 H 124.38 -3.27352 2.0922 0
M  V30 1489 H 126.052 -1.80107 4.24687 0
M  V30 1490 H 124.295 -1.62958 4.02029 0
M  V30 1491 H 124.966 -3.18978 4.50508 0
M  V30 1492 H 127.442 -3.26485 2.57966 0
M  V30 1493 H 126.318 -4.56806 3.04334 0
M  V30 1494 H 126.579 -4.21202 1.34317 0
M  V30 1495 N 125.638 -1.25649 -0.95132 0
M  V30 1496 C 126.588 -1.03004 -2.03406 0
M  V30 1497 C 127.572 0.034187 -1.60864 0
M  V30 1498 O 128.764 -0.181549 -1.76066 0
M  V30 1499 C 125.893 -0.654255 -3.37008 0
M  V30 1500 C 124.979 -1.75542 -3.86065 0
M  V30 1501 N 125.37 -2.99113 -4.07879 0
M  V30 1502 C 123.668 -1.63669 -4.14884 0
M  V30 1503 C 124.369 -3.70611 -4.48356 0
M  V30 1504 N 123.345 -2.98247 -4.54477 0
M  V30 1505 H 127.147 -1.96813 -2.1827 0
M  V30 1506 H 124.661 -1.16017 -1.13639 0
M  V30 1507 H 126.658 -0.473206 -4.14206 0
M  V30 1508 H 125.318 0.276468 -3.23521 0
M  V30 1509 H 126.329 -3.35124 -3.94857 0
M  V30 1510 H 123.006 -0.775161 -4.10241 0
M  V30 1511 H 124.396 -4.76695 -4.73509 0
M  V30 1512 N 127.117 1.15442 -1.07289 0
M  V30 1513 C 128.067 2.18164 -0.662467 0
M  V30 1514 C 129.051 1.57845 0.312074 0
M  V30 1515 O 130.243 1.76552 0.125905 0
M  V30 1516 C 127.372 3.43246 -0.0611295 0
M  V30 1517 C 126.458 4.1062 -1.06077 0
M  V30 1518 N 126.849 4.53491 -2.24008 0
M  V30 1519 C 125.147 4.36949 -0.893964 0
M  V30 1520 C 125.848 5.05731 -2.87422 0
M  V30 1521 N 124.824 4.99236 -2.15091 0
M  V30 1522 H 128.626 2.49038 -1.56068 0
M  V30 1523 H 126.14 1.32003 -0.945988 0
M  V30 1524 H 128.137 4.16145 0.250792 0
M  V30 1525 H 126.797 3.13854 0.832207 0
M  V30 1526 H 127.808 4.46898 -2.6173 0
M  V30 1527 H 124.485 4.17466 -0.0534693 0
M  V30 1528 H 125.875 5.48865 -3.87553 0
M  V30 1529 N 128.595 0.856903 1.32268 0
M  V30 1530 C 129.843 0.460474 1.96784 0
M  V30 1531 C 130.164 -0.987701 1.68135 0
M  V30 1532 O 129.434 -1.69058 0.989765 0
M  V30 1533 H 128.014 0.167289 0.728027 0
M  V30 1534 H 130.676 1.09383 1.61312 0
M  V30 1535 H 129.772 0.60739 3.06133 0
M  V30 1536 N 130.073 -1.45103 0.615059 0
M  V30 1537 C 131.319 -2.02483 0.113347 0
M  V30 1538 C 131.652 -1.48146 -1.25564 0
M  V30 1539 O 130.927 -0.659104 -1.82992 0
M  V30 1540 C 131.21 -3.60005 0.0825278 0
M  V30 1541 C 131.063 -4.2466 1.48271 0
M  V30 1542 C 132.382 -4.35972 -0.601401 0
M  V30 1543 H 129.501 -0.735764 0.0426632 0
M  V30 1544 H 132.143 -1.72868 0.788461 0
M  V30 1545 H 130.293 -3.85367 -0.492378 0
M  V30 1546 H 131.965 -4.10458 2.10527 0
M  V30 1547 H 130.208 -3.82772 2.04127 0
M  V30 1548 H 130.879 -5.336 1.41332 0
M  V30 1549 H 133.355 -4.15947 -0.112666 0
M  V30 1550 H 132.231 -5.45697 -0.592097 0
M  V30 1551 H 132.492 -4.09391 -1.66887 0
M  V30 1552 N 131.551 -0.354651 -1.53558 0
M  V30 1553 C 132.499 0.512195 -2.26891 0
M  V30 1554 C 133.493 1.09263 -1.29452 0
M  V30 1555 O 134.699 1.03709 -1.47121 0
M  V30 1556 H 131.074 0.183878 -0.729173 0
M  V30 1557 H 133.045 -0.128202 -2.98124 0
M  V30 1558 C 131.794 1.64563 -3.06291 0
M  V30 1559 H 131.117 1.20829 -3.81104 0
M  V30 1560 H 132.557 2.22711 -3.60799 0
M  V30 1561 C 131.016 2.58158 -2.16462 0
M  V30 1562 O 131.546 3.60695 -1.76811 0
M  V30 1563 N 129.752 2.27096 -1.81317 0
M  V30 1564 H 129.299 1.43751 -2.1376 0
M  V30 1565 H 129.257 2.89975 -1.21498 0
M  V30 1566 N 133.029 1.57378 -0.0835403 0
M  V30 1567 C 133.961 2.10389 0.909338 0
M  V30 1568 C 134.974 1.03858 1.25369 0
M  V30 1569 O 136.163 1.31338 1.20882 0
M  V30 1570 C 133.263 2.55908 2.2218 0
M  V30 1571 C 132.436 3.86145 2.05453 0
M  V30 1572 C 131.495 4.17633 3.20108 0
M  V30 1573 O 130.521 4.87043 2.94581 0
M  V30 1574 N 131.723 3.72113 4.45547 0
M  V30 1575 H 134.488 2.962 0.456657 0
M  V30 1576 H 132.049 1.61579 0.101877 0
M  V30 1577 H 134.041 2.74027 2.97811 0
M  V30 1578 H 132.611 1.75171 2.58909 0
M  V30 1579 H 131.831 3.7729 1.1422 0
M  V30 1580 H 133.119 4.7137 1.91541 0
M  V30 1581 H 132.517 3.16062 4.69171 0
M  V30 1582 H 131.074 3.95409 5.18165 0
M  V30 1583 N 134.507 -0.190092 1.56449 0
M  V30 1584 C 135.437 -1.23816 1.97969 0
M  V30 1585 C 136.418 -1.47201 0.852395 0
M  V30 1586 O 137.603 -1.58854 1.1171 0
M  V30 1587 C 134.733 -2.5813 2.3235 0
M  V30 1588 C 133.687 -2.49348 3.47864 0
M  V30 1589 C 133.013 -3.8798 3.67934 0
M  V30 1590 C 134.313 -2.01424 4.81898 0
M  V30 1591 H 136.007 -0.89311 2.85769 0
M  V30 1592 H 133.553 -0.428177 1.37487 0
M  V30 1593 H 135.506 -3.31637 2.59991 0
M  V30 1594 H 134.23 -2.94386 1.41438 0
M  V30 1595 H 132.889 -1.78297 3.20321 0
M  V30 1596 H 132.537 -4.21597 2.74344 0
M  V30 1597 H 132.237 -3.82978 4.45648 0
M  V30 1598 H 133.761 -4.63101 3.97957 0
M  V30 1599 H 135.175 -2.64693 5.08538 0
M  V30 1600 H 133.572 -2.07413 5.63116 0
M  V30 1601 H 134.642 -0.967677 4.75146 0
M  V30 1602 N 135.985 -1.50799 -0.457987 0
M  V30 1603 C 136.932 -1.70617 -1.5543 0
M  V30 1604 C 137.902 -0.547562 -1.56815 0
M  V30 1605 O 139.087 -0.779647 -1.74144 0
M  V30 1606 C 136.227 -1.81831 -2.93311 0
M  V30 1607 C 135.34 -3.09278 -3.01615 0
M  V30 1608 C 134.475 -3.11209 -4.30491 0
M  V30 1609 C 133.514 -4.33055 -4.32585 0
M  V30 1610 N 132.651 -4.32652 -5.52952 0
M  V30 1611 H 137.491 -2.64207 -1.37836 0
M  V30 1612 H 135.028 -1.30959 -0.669937 0
M  V30 1613 H 136.986 -1.86314 -3.73287 0
M  V30 1614 H 135.616 -0.916685 -3.0951 0
M  V30 1615 H 134.668 -3.14203 -2.1443 0
M  V30 1616 H 135.98 -3.99233 -2.99022 0
M  V30 1617 H 135.134 -3.14494 -5.18824 0
M  V30 1618 H 133.873 -2.19106 -4.35711 0
M  V30 1619 H 132.878 -4.29969 -3.42647 0
M  V30 1620 H 134.103 -5.264 -4.29046 0
M  V30 1621 H 132.049 -3.43409 -5.58933 0
M  V30 1622 H 131.966 -5.16392 -5.52155 0
M  V30 1623 H 133.234 -4.40101 -6.43375 0
M  V30 1624 N 137.463 0.71206 -1.40597 0
M  V30 1625 C 138.71 1.47197 -1.39065 0
M  V30 1626 C 139.038 1.94499 0.00583891 0
M  V30 1627 O 138.293 1.68752 0.99102 0
M  V30 1628 C 138.592 2.71039 -2.32965 0
M  V30 1629 C 138.258 2.42484 -3.80148 0
M  V30 1630 C 136.92 2.34406 -4.20247 0
M  V30 1631 C 139.272 2.18598 -4.73143 0
M  V30 1632 C 136.6 2.00516 -5.51371 0
M  V30 1633 C 138.952 1.8622 -6.0457 0
M  V30 1634 C 137.616 1.76626 -6.43708 0
M  V30 1635 H 136.886 0.538634 -0.508876 0
M  V30 1636 H 139.533 0.815325 -1.73276 0
M  V30 1637 H 137.838 3.41558 -1.91951 0
M  V30 1638 H 139.535 3.29138 -2.29061 0
M  V30 1639 H 136.125 2.49659 -3.4838 0
M  V30 1640 H 140.309 2.23793 -4.42979 0
M  V30 1641 H 135.565 1.91628 -5.80593 0
M  V30 1642 H 139.739 1.66752 -6.76141 0
M  V30 1643 H 137.366 1.50133 -7.45228 0
M  V30 1644 N 138.941 1.26152 0.944643 0
M  V30 1645 C 139.904 1.07474 2.0244 0
M  V30 1646 C 140.904 0.0242064 1.60782 0
M  V30 1647 O 142.094 0.267302 1.72137 0
M  V30 1648 C 139.226 0.633956 3.34953 0
M  V30 1649 H 140.419 2.03336 2.20442 0
M  V30 1650 H 137.972 1.087 1.12312 0
M  V30 1651 H 138.707 -0.326811 3.22649 0
M  V30 1652 H 138.492 1.39247 3.66542 0
M  V30 1653 H 139.982 0.52501 4.14287 0
M  V30 1654 N 140.419 -1.14872 1.07899 0
M  V30 1655 C 141.835 -1.37776 0.805606 0
M  V30 1656 C 142.035 -1.92743 -0.587555 0
M  V30 1657 O 141.091 -2.13678 -1.34528 0
M  V30 1658 C 142.404 -2.34361 1.88402 0
M  V30 1659 C 143.952 -2.48012 1.90942 0
M  V30 1660 C 144.427 -3.47893 2.97883 0
M  V30 1661 N 145.918 -3.55433 2.97021 0
M  V30 1662 C 146.653 -4.32553 3.76412 0
M  V30 1663 N 146.149 -5.12959 4.65666 0
M  V30 1664 N 147.942 -4.27697 3.64735 0
M  V30 1665 H 140.093 -0.775365 1.97742 0
M  V30 1666 H 142.356 -0.403521 0.857831 0
M  V30 1667 H 142.062 -2.01098 2.88535 0
M  V30 1668 H 141.936 -3.34206 1.74889 0
M  V30 1669 H 144.323 -2.8057 0.914579 0
M  V30 1670 H 144.404 -1.48147 2.08534 0
M  V30 1671 H 144.048 -3.16069 3.97571 0
M  V30 1672 H 143.978 -4.47527 2.77538 0
M  V30 1673 H 146.469 -2.98048 2.32326 0
M  V30 1674 H 146.782 -5.69065 5.22862 0
M  V30 1675 H 145.127 -5.12245 4.69712 0
M  V30 1676 H 148.318 -3.63949 2.94378 0
M  V30 1677 H 148.491 -4.8755 4.26848 0
M  V30 1678 N 141.898 -0.863906 -1.31812 0
M  V30 1679 C 143.123 -0.48527 -2.01643 0
M  V30 1680 C 143.548 0.913058 -1.64453 0
M  V30 1681 O 142.906 1.6014 -0.849985 0
M  V30 1682 C 142.954 -0.642625 -3.54828 0
M  V30 1683 O 142.058 0.320659 -4.11151 0
M  V30 1684 H 141.399 -0.193793 -0.635091 0
M  V30 1685 H 143.929 -1.16565 -1.68148 0
M  V30 1686 H 143.939 -0.533628 -4.04495 0
M  V30 1687 H 142.614 -1.66227 -3.81237 0
M  V30 1688 H 141.191 0.167126 -3.72525 0
M  V30 1689 N 143.376 1.44774 -0.622745 0
M  V30 1690 C 144.306 2.33382 0.0741861 0
M  V30 1691 C 145.287 1.47719 0.843387 0
M  V30 1692 O 146.472 1.76458 0.810934 0
M  V30 1693 C 143.602 3.30663 1.06204 0
M  V30 1694 C 142.556 4.26079 0.405037 0
M  V30 1695 C 141.882 5.13165 1.5022 0
M  V30 1696 C 143.182 5.1781 -0.683414 0
M  V30 1697 H 144.876 2.91905 -0.665713 0
M  V30 1698 H 142.422 1.40363 -0.321587 0
M  V30 1699 H 144.375 3.9153 1.55827 0
M  V30 1700 H 143.099 2.70331 1.83272 0
M  V30 1701 H 141.758 3.66532 -0.0704683 0
M  V30 1702 H 141.406 4.49191 2.26355 0
M  V30 1703 H 141.106 5.77812 1.06803 0
M  V30 1704 H 142.63 5.76902 2.00041 0
M  V30 1705 H 144.044 5.72661 -0.270631 0
M  V30 1706 H 142.441 5.91015 -1.04023 0
M  V30 1707 H 143.511 4.59326 -1.55395 0
M  V30 1708 N 144.854 0.36279 1.53368 0
M  V30 1709 C 145.786 -0.519668 2.23231 0
M  V30 1710 C 146.799 -1.04844 1.24546 0
M  V30 1711 O 147.988 -0.955296 1.50786 0
M  V30 1712 C 145.088 -1.72995 2.9142 0
M  V30 1713 C 144.261 -1.33316 4.16588 0
M  V30 1714 C 143.32 -2.40521 4.68013 0
M  V30 1715 O 142.346 -2.03027 5.3176 0
M  V30 1716 N 143.548 -3.72065 4.45587 0
M  V30 1717 H 146.313 0.078751 2.99597 0
M  V30 1718 H 143.874 0.187833 1.60807 0
M  V30 1719 H 145.866 -2.44184 3.22733 0
M  V30 1720 H 144.436 -2.2353 2.18525 0
M  V30 1721 H 143.656 -0.451236 3.91609 0
M  V30 1722 H 144.944 -1.04432 4.97967 0
M  V30 1723 H 144.342 -4.05304 3.94646 0
M  V30 1724 H 142.899 -4.39366 4.81457 0
M  V30 1725 N 146.332 -1.57332 0.0918853 0
M  V30 1726 C 147.557 -1.98995 -0.584442 0
M  V30 1727 C 147.982 -0.970528 -1.61128 0
M  V30 1728 O 147.34 0.0613904 -1.81196 0
M  V30 1729 C 147.388 -3.39636 -1.21161 0
M  V30 1730 O 146.492 -3.40447 -2.32744 0
M  V30 1731 H 145.833 -0.647165 -0.148572 0
M  V30 1732 H 148.363 -2.03873 0.172347 0
M  V30 1733 H 148.373 -3.7726 -1.55367 0
M  V30 1734 H 147.048 -4.13356 -0.459313 0
M  V30 1735 H 145.625 -3.14614 -2.0018 0
M  V30 1736 N 147.81 0.181792 -1.56548 0
M  V30 1737 C 149.056 0.901431 -1.81665 0
M  V30 1738 C 149.389 1.82347 -0.668075 0
M  V30 1739 O 148.664 1.91669 0.330615 0
M  V30 1740 C 148.947 1.70618 -3.17115 0
M  V30 1741 C 148.8 0.807964 -4.42484 0
M  V30 1742 C 150.119 2.67605 -3.49393 0
M  V30 1743 H 147.238 0.32627 -0.660846 0
M  V30 1744 H 149.88 0.168134 -1.89255 0
M  V30 1745 H 148.03 2.33133 -3.10775 0
M  V30 1746 H 149.702 0.19649 -4.60881 0
M  V30 1747 H 147.945 0.115411 -4.33646 0
M  V30 1748 H 148.616 1.40632 -5.33785 0
M  V30 1749 H 151.092 2.15218 -3.56118 0
M  V30 1750 H 149.968 3.20985 -4.45264 0
M  V30 1751 H 150.229 3.47298 -2.73563 0
M  V30 1752 N 149.288 1.51039 0.449983 0
M  V30 1753 C 150.251 1.70863 1.5277 0
M  V30 1754 C 151.251 0.578846 1.5002 0
M  V30 1755 O 152.441 0.846213 1.52266 0
M  V30 1756 C 149.573 1.75341 2.9235 0
M  V30 1757 H 150.766 2.67034 1.36502 0
M  V30 1758 H 148.319 1.40838 0.677812 0
M  V30 1759 H 149.054 0.809383 3.14037 0
M  V30 1760 H 148.839 2.57436 2.95752 0
M  V30 1761 H 150.329 1.92559 3.70555 0
M  V30 1762 N 150.766 -0.704594 1.40972 0
M  V30 1763 C 151.676 -1.84856 1.44448 0
M  V30 1764 C 152.692 -1.70726 0.335961 0
M  V30 1765 O 153.868 -1.92799 0.582276 0
M  V30 1766 C 150.933 -3.20758 1.31587 0
M  V30 1767 C 149.994 -3.47063 2.52677 0
M  V30 1768 C 149.227 -4.76481 2.4042 0
M  V30 1769 O 149.45 -5.52341 1.42391 0
M  V30 1770 O 148.384 -5.03367 3.30007 0
M  V30 1771 H 152.21 -1.8488 2.40942 0
M  V30 1772 H 149.795 -0.85647 1.22413 0
M  V30 1773 H 151.677 -4.01913 1.26665 0
M  V30 1774 H 150.352 -3.21438 0.382049 0
M  V30 1775 H 149.259 -2.65873 2.63177 0
M  V30 1776 H 150.592 -3.5119 3.44858 0
M  V30 1777 N 152.244 -1.26651 -0.937939 0
M  V30 1778 C 153.154 -1.10276 -2.07066 0
M  V30 1779 C 154.17 -0.0354197 -1.73964 0
M  V30 1780 O 155.346 -0.239816 -1.99967 0
M  V30 1781 C 152.411 -0.740887 -3.38691 0
M  V30 1782 C 151.472 -1.88799 -3.85556 0
M  V30 1783 C 150.705 -1.54329 -5.10899 0
M  V30 1784 O 150.928 -0.446494 -5.6865 0
M  V30 1785 O 149.862 -2.37911 -5.52885 0
M  V30 1786 H 153.688 -2.05309 -2.23789 0
M  V30 1787 H 151.273 -1.05743 -1.0554 0
M  V30 1788 H 153.155 -0.55195 -4.1777 0
M  V30 1789 H 151.83 0.180022 -3.23199 0
M  V30 1790 H 150.737 -2.13191 -3.07409 0
M  V30 1791 H 152.07 -2.78874 -4.05574 0
M  V30 1792 N 153.722 1.14298 -1.08507 0
M  V30 1793 C 155.138 1.37347 -0.812901 0
M  V30 1794 C 155.338 1.93052 0.577325 0
M  V30 1795 O 154.394 2.14389 1.33393 0
M  V30 1796 C 155.707 2.33359 -1.89642 0
M  V30 1797 C 157.255 2.46996 -1.92255 0
M  V30 1798 C 157.73 3.46309 -2.99724 0
M  V30 1799 N 159.221 3.53853 -2.98902 0
M  V30 1800 C 159.956 4.3055 -3.787 0
M  V30 1801 N 159.452 5.10482 -4.6838 0
M  V30 1802 N 161.245 4.25757 -3.66998 0
M  V30 1803 H 153.396 0.764867 -1.9815 0
M  V30 1804 H 155.659 0.398966 -0.859959 0
M  V30 1805 H 155.365 1.99565 -2.89597 0
M  V30 1806 H 155.239 3.33274 -1.76659 0
M  V30 1807 H 157.626 2.80081 -0.929445 0
M  V30 1808 H 157.707 1.47039 -2.09316 0
M  V30 1809 H 157.351 3.13957 -3.99241 0
M  V30 1810 H 157.281 4.46049 -2.79907 0
M  V30 1811 H 159.772 2.96812 -2.33904 0
M  V30 1812 H 160.085 5.66284 -5.25873 0
M  V30 1813 H 158.43 5.09747 -4.72422 0
M  V30 1814 H 161.621 3.62383 -2.96304 0
M  V30 1815 H 161.794 4.85279 -4.29427 0
M  V30 1816 N 155.201 0.870884 1.31352 0
M  V30 1817 C 156.164 0.332243 2.26779 0
M  V30 1818 C 157.164 -0.517302 1.52252 0
M  V30 1819 O 158.354 -0.326477 1.71113 0
M  V30 1820 C 155.486 -0.528066 3.36785 0
M  V30 1821 H 156.679 1.17469 2.75937 0
M  V30 1822 H 154.232 0.64655 1.423 0
M  V30 1823 H 154.967 -1.39167 2.92922 0
M  V30 1824 H 154.752 0.0802582 3.92018 0
M  V30 1825 H 156.242 -0.897179 4.07849 0
M  V30 1826 N 156.679 -1.44442 0.630414 0
M  V30 1827 C 157.927 -2.01653 0.134351 0
M  V30 1828 C 158.248 -1.49836 -1.24796 0
M  V30 1829 O 157.518 -0.701684 -1.82902 0
M  V30 1830 H 156.098 -0.74554 0.0466769 0
M  V30 1831 H 158.76 -1.76952 0.816955 0
M  V30 1832 H 157.856 -3.11935 0.101498 0
M  V30 1833 N 158.157 -0.370918 -1.53173 0
M  V30 1834 C 159.573 -0.0200818 -1.59587 0
M  V30 1835 C 159.773 1.46279 -1.38581 0
M  V30 1836 O 158.829 2.22506 -1.19363 0
M  V30 1837 C 160.142 -0.4808 -2.96831 0
M  V30 1838 C 161.69 -0.435477 -3.09956 0
M  V30 1839 C 162.165 -0.872092 -4.4962 0
M  V30 1840 N 163.656 -0.827364 -4.55751 0
M  V30 1841 C 164.391 -1.13683 -5.62018 0
M  V30 1842 N 163.887 -1.51584 -6.76014 0
M  V30 1843 N 165.68 -1.05927 -5.52029 0
M  V30 1844 H 157.831 -1.33652 -1.65079 0
M  V30 1845 H 160.094 -0.546634 -0.774529 0
M  V30 1846 H 159.8 -1.51577 -3.1736 0
M  V30 1847 H 159.674 0.129796 -3.76977 0
M  V30 1848 H 162.061 0.590371 -2.89134 0
M  V30 1849 H 162.142 -1.08164 -2.31806 0
M  V30 1850 H 161.786 -1.89608 -4.71181 0
M  V30 1851 H 161.716 -0.203127 -5.26208 0
M  V30 1852 H 164.207 -0.548216 -3.73902 0
M  V30 1853 H 164.52 -1.73609 -7.53047 0
M  V30 1854 H 162.865 -1.55454 -6.77391 0
M  V30 1855 H 166.056 -0.762321 -4.61851 0
M  V30 1856 H 166.229 -1.30378 -6.34749 0
M  V30 1857 N 159.635 1.57281 -0.100228 0
M  V30 1858 C 160.585 2.10848 0.86759 0
M  V30 1859 C 161.569 1.02473 1.24049 0
M  V30 1860 O 162.761 1.28739 1.21471 0
M  V30 1861 C 159.89 2.69648 2.12474 0
M  V30 1862 C 158.976 3.85074 1.77704 0
M  V30 1863 N 159.367 4.92897 1.13518 0
M  V30 1864 C 157.665 3.94905 2.07282 0
M  V30 1865 C 158.366 5.73475 0.974735 0
M  V30 1866 N 157.342 5.22675 1.4937 0
M  V30 1867 H 161.144 2.91594 0.367471 0
M  V30 1868 H 158.658 1.62074 0.102829 0
M  V30 1869 H 160.655 3.06356 2.82757 0
M  V30 1870 H 159.315 1.90359 2.63047 0
M  V30 1871 H 160.326 5.11662 0.801381 0
M  V30 1872 H 157.003 3.26633 2.60033 0
M  V30 1873 H 158.393 6.70238 0.472364 0
M  V30 1874 N 161.113 -0.173488 1.56642 0
M  V30 1875 C 162.353 -0.896984 1.83667 0
M  V30 1876 C 162.717 -1.79523 0.680842 0
M  V30 1877 O 163.918 -2.55616 0.831488 0
M  V30 1878 C 162.189 -1.67351 3.15798 0
M  V30 1879 S 163.748 -2.44607 3.64298 0
M  V30 1880 H 160.566 -0.300464 0.644393 0
M  V30 1881 H 163.168 -0.158775 1.94854 0
M  V30 1882 H 161.872 -1.00462 3.97914 0
M  V30 1883 H 161.403 -2.45313 3.07546 0
M  V30 1884 H 163.418 -3.69261 3.31452 0
M  V30 1885 N 162.591 -1.51276 -0.441967 0
M  V30 1886 C 163.839 -1.63392 -1.18943 0
M  V30 1887 C 164.16 -0.350159 -1.9183 0
M  V30 1888 O 163.43 0.633784 -1.85364 0
M  V30 1889 H 162.01 -0.602164 -0.442049 0
M  V30 1890 H 164.672 -1.88186 -0.507165 0
M  V30 1891 H 163.768 -2.45934 -1.92154 0
M  V30 1892 N 164.069 0.697108 -1.41344 0
M  V30 1893 C 165.032 1.79281 -1.42797 0
M  V30 1894 C 166.032 1.57607 -0.318837 0
M  V30 1895 O 167.222 1.64309 -0.578642 0
M  V30 1896 C 164.354 3.17632 -1.23785 0
M  V30 1897 H 165.547 1.79385 -2.40335 0
M  V30 1898 H 163.1 0.904582 -1.27464 0
M  V30 1899 H 163.835 3.23167 -0.270814 0
M  V30 1900 H 163.62 3.34765 -2.04144 0
M  V30 1901 H 165.11 3.97617 -1.27633 0
M  V30 1902 N 165.547 1.27147 0.931209 0
M  V30 1903 C 166.477 1.12081 2.04842 0
M  V30 1904 C 167.458 0.0232364 1.70084 0
M  V30 1905 O 168.643 0.197085 1.93197 0
M  V30 1906 C 165.773 0.76354 3.38803 0
M  V30 1907 C 164.727 1.81396 3.87659 0
M  V30 1908 C 164.053 1.31075 5.18385 0
M  V30 1909 C 165.353 3.21739 4.11438 0
M  V30 1910 H 167.047 2.05537 2.17703 0
M  V30 1911 H 164.593 0.989603 1.04608 0
M  V30 1912 H 166.546 0.644982 4.16435 0
M  V30 1913 H 165.27 -0.206727 3.25945 0
M  V30 1914 H 163.929 1.92136 3.12217 0
M  V30 1915 H 163.577 0.330037 5.01916 0
M  V30 1916 H 163.277 2.013 5.52044 0
M  V30 1917 H 164.801 1.20506 5.98591 0
M  V30 1918 H 166.215 3.14019 4.79651 0
M  V30 1919 H 164.612 3.89644 4.56397 0
M  V30 1920 H 165.682 3.67054 3.16859 0
M  V30 1921 N 167.025 -1.13721 1.09112 0
M  V30 1922 C 168.441 -1.36914 0.820174 0
M  V30 1923 C 168.641 -1.93356 -0.567079 0
M  V30 1924 O 167.697 -2.15093 -1.32255 0
M  V30 1925 C 169.01 -2.3235 1.90877 0
M  V30 1926 C 170.558 -2.45973 1.93562 0
M  V30 1927 C 171.033 -3.44714 3.01556 0
M  V30 1928 N 172.524 -3.52263 3.00775 0
M  V30 1929 C 173.259 -4.28536 3.80978 0
M  V30 1930 N 172.755 -5.07991 4.71081 0
M  V30 1931 N 174.548 -4.23804 3.69251 0
M  V30 1932 H 166.699 -0.754348 1.98553 0
M  V30 1933 H 168.962 -0.3944 0.862063 0
M  V30 1934 H 168.668 -1.98027 2.90651 0
M  V30 1935 H 168.542 -3.32332 1.78424 0
M  V30 1936 H 170.929 -2.79584 0.944286 0
M  V30 1937 H 171.01 -1.45926 2.10093 0
M  V30 1938 H 170.654 -3.11835 4.00901 0
M  V30 1939 H 170.584 -4.44558 2.82269 0
M  V30 1940 H 173.075 -2.95567 2.35475 0
M  V30 1941 H 173.388 -5.63487 5.28869 0
M  V30 1942 H 171.733 -5.07235 4.75119 0
M  V30 1943 H 174.924 -3.60806 2.98222 0
M  V30 1944 H 175.097 -4.82995 4.31995 0
M  V30 1945 N 168.503 -0.877838 -1.30888 0
M  V30 1946 C 169.749 -0.493426 -1.96706 0
M  V30 1947 C 170.082 0.953504 -1.6918 0
M  V30 1948 O 169.357 1.67266 -0.992594 0
M  V30 1949 C 169.64 -0.760429 -3.51979 0
M  V30 1950 C 169.493 -2.25747 -3.89048 0
M  V30 1951 C 170.812 -0.232148 -4.39487 0
M  V30 1952 H 167.931 -0.180746 -0.714493 0
M  V30 1953 H 170.573 -1.10052 -1.54882 0
M  V30 1954 H 168.723 -0.243715 -3.87735 0
M  V30 1955 H 170.395 -2.84204 -3.63354 0
M  V30 1956 H 168.638 -2.72694 -3.37373 0
M  V30 1957 H 169.309 -2.39491 -4.97341 0
M  V30 1958 H 171.785 -0.674314 -4.106 0
M  V30 1959 H 170.661 -0.448355 -5.47066 0
M  V30 1960 H 170.922 0.866297 -4.33529 0
M  V30 1961 N 169.982 1.44106 -0.638065 0
M  V30 1962 C 170.912 2.33448 0.0494287 0
M  V30 1963 C 171.893 1.48606 0.827672 0
M  V30 1964 O 173.078 1.77308 0.792173 0
M  V30 1965 C 170.208 3.31771 1.02691 0
M  V30 1966 C 169.162 4.26485 0.359823 0
M  V30 1967 C 168.488 5.14729 1.44769 0
M  V30 1968 C 169.788 5.17056 -0.738296 0
M  V30 1969 H 171.482 2.91183 -0.696636 0
M  V30 1970 H 169.028 1.40014 -0.336456 0
M  V30 1971 H 170.981 3.93161 1.51666 0
M  V30 1972 H 169.705 2.7226 1.80395 0
M  V30 1973 H 168.364 3.66437 -0.10934 0
M  V30 1974 H 168.012 4.51566 2.21578 0
M  V30 1975 H 167.712 5.78913 1.00668 0
M  V30 1976 H 169.236 5.78991 1.93911 0
M  V30 1977 H 170.65 5.72342 -0.331354 0
M  V30 1978 H 169.047 5.89879 -1.10286 0
M  V30 1979 H 170.117 4.57652 -1.60258 0
M  V30 1980 N 171.46 0.379036 1.52974 0
M  V30 1981 C 172.408 -0.476033 2.27677 0
M  V30 1982 C 173.402 -1.0719 1.31174 0
M  V30 1983 O 174.608 -1.01355 1.48752 0
M  V30 1984 H 170.983 -0.172255 0.732006 0
M  V30 1985 H 172.954 0.175615 2.97883 0
M  V30 1986 C 171.703 -1.5967 3.0887 0
M  V30 1987 H 171.026 -1.1475 3.82978 0
M  V30 1988 H 172.466 -2.16943 3.64296 0
M  V30 1989 C 170.925 -2.54682 2.20542 0
M  V30 1990 O 171.455 -3.57836 1.82527 0
M  V30 1991 N 169.661 -2.24183 1.84907 0
M  V30 1992 H 169.208 -1.40333 2.1602 0
M  V30 1993 H 169.166 -2.88006 1.26096 0
M  V30 1994 N 172.938 -1.57226 0.108567 0
M  V30 1995 C 174.163 -1.99604 -0.563303 0
M  V30 1996 C 174.588 -0.987563 -1.6009 0
M  V30 1997 O 173.946 0.0421687 -1.81251 0
M  V30 1998 C 173.994 -3.40902 -1.17552 0
M  V30 1999 O 173.098 -3.42896 -2.2912 0
M  V30 2000 H 172.439 -0.648704 -0.1417 0
M  V30 2001 H 174.969 -2.03679 0.193961 0
M  V30 2002 H 174.979 -3.78886 -1.51357 0
M  V30 2003 H 173.654 -4.1382 -0.415445 0
M  V30 2004 H 172.231 -3.1672 -1.96832 0
M  V30 2005 N 174.416 0.165178 -1.56732 0
M  V30 2006 C 175.646 0.894919 -1.86212 0
M  V30 2007 C 176.054 1.76066 -0.692627 0
M  V30 2008 O 175.397 1.80387 0.347303 0
M  V30 2009 C 175.459 1.8174 -3.10179 0
M  V30 2010 C 175.123 1.13064 -4.42793 0
M  V30 2011 C 176.12 0.493169 -5.17556 0
M  V30 2012 C 173.805 1.12556 -4.89527 0
M  V30 2013 C 175.799 -0.140209 -6.37246 0
M  V30 2014 C 173.486 0.488366 -6.09145 0
M  V30 2015 C 174.484 -0.143411 -6.82849 0
M  V30 2016 O 174.172 -0.77055 -8.00199 0
M  V30 2017 H 173.904 0.265114 -0.621844 0
M  V30 2018 H 176.458 0.168242 -2.0471 0
M  V30 2019 H 174.688 2.58455 -2.87642 0
M  V30 2020 H 176.377 2.4175 -3.26055 0
M  V30 2021 H 177.143 0.489023 -4.82528 0
M  V30 2022 H 173.022 1.60672 -4.32094 0
M  V30 2023 H 176.566 -0.633932 -6.94714 0
M  V30 2024 H 172.463 0.490116 -6.43637 0
M  V30 2025 H 173.231 -0.670408 -8.1575 0
M  V30 2026 N 175.894 1.51508 0.433938 0
M  V30 2027 C 177.14 1.65549 1.18173 0
M  V30 2028 C 177.495 0.368751 1.88833 0
M  V30 2029 O 176.788 -0.635616 1.8075 0
M  V30 2030 C 176.982 2.79928 2.22205 0
M  V30 2031 C 176.811 4.19601 1.61756 0
M  V30 2032 C 175.581 4.85489 1.40101 0
M  V30 2033 C 177.779 5.02574 1.09194 0
M  V30 2034 N 175.761 6.09266 0.752859 0
M  V30 2035 C 177.132 6.17381 0.569255 0
M  V30 2036 C 179.187 4.88079 0.984025 0
M  V30 2037 C 177.89 7.19282 -0.0507472 0
M  V30 2038 C 179.916 5.90191 0.377912 0
M  V30 2039 C 179.278 7.04272 -0.134216 0
M  V30 2040 H 175.377 0.659653 0.419979 0
M  V30 2041 H 177.961 1.88746 0.477818 0
M  V30 2042 H 176.132 2.5839 2.89982 0
M  V30 2043 H 177.864 2.83132 2.89168 0
M  V30 2044 H 174.619 4.43417 1.66369 0
M  V30 2045 H 175.043 6.75528 0.446123 0
M  V30 2046 H 179.685 4.00131 1.36583 0
M  V30 2047 H 177.403 8.06876 -0.444676 0
M  V30 2048 H 180.989 5.81045 0.296269 0
M  V30 2049 H 179.869 7.81933 -0.59585 0
M  V30 2050 N 177.372 -0.689602 1.41712 0
M  V30 2051 C 178.618 -1.45181 1.41599 0
M  V30 2052 C 178.951 -1.94181 0.0270081 0
M  V30 2053 O 178.226 -1.6993 -0.946265 0
M  V30 2054 C 178.509 -2.65945 2.42787 0
M  V30 2055 C 178.362 -2.22672 3.90816 0
M  V30 2056 C 179.681 -3.68149 2.41151 0
M  V30 2057 H 176.8 -0.526576 0.515642 0
M  V30 2058 H 179.442 -0.784947 1.73028 0
M  V30 2059 H 177.592 -3.2284 2.16116 0
M  V30 2060 H 179.264 -1.71058 4.28412 0
M  V30 2061 H 177.507 -1.54394 4.05395 0
M  V30 2062 H 178.178 -3.0935 4.57172 0
M  V30 2063 H 180.654 -3.2094 2.64834 0
M  V30 2064 H 179.53 -4.50248 3.13955 0
M  V30 2065 H 179.791 -4.18259 1.43221 0
M  V30 2066 N 178.85 -1.27639 -0.924453 0
M  V30 2067 C 180.098 -1.13941 -1.66918 0
M  V30 2068 C 180.419 0.314589 -1.92446 0
M  V30 2069 O 179.689 1.21964 -1.53303 0
M  V30 2070 H 178.269 -0.418678 -0.618642 0
M  V30 2071 H 180.931 -1.60213 -1.10985 0
M  V30 2072 H 180.027 -1.67094 -2.63602 0
M  V30 2073 N 180.328 1.1314 -1.09713 0
M  V30 2074 C 181.238 2.22242 -0.751367 0
M  V30 2075 C 182.254 1.72224 0.247938 0
M  V30 2076 O 183.43 2.01205 0.0885463 0
M  V30 2077 C 180.495 3.46231 -0.180274 0
M  V30 2078 C 179.556 4.11125 -1.2359 0
M  V30 2079 C 178.789 5.29195 -0.691966 0
M  V30 2080 O 179.012 5.68342 0.48414 0
M  V30 2081 O 177.946 5.84214 -1.44838 0
M  V30 2082 H 181.772 2.54197 -1.66186 0
M  V30 2083 H 179.357 1.21331 -0.871735 0
M  V30 2084 H 181.239 4.21185 0.134739 0
M  V30 2085 H 179.914 3.1597 0.703185 0
M  V30 2086 H 178.821 3.37985 -1.60366 0
M  V30 2087 H 180.154 4.45524 -2.09211 0
M  V30 2088 N 181.806 0.884767 1.30421 0
M  V30 2089 C 183.083 0.423185 1.90967 0
M  V30 2090 C 183.463 -1.09605 1.80416 0
M  V30 2091 O 182.811 -1.93126 1.22125 0
M  V30 2092 C 183.021 0.921056 3.36627 0
M  V30 2093 C 184.369 0.955903 4.137 0
M  V30 2094 O 185.393 0.867706 3.4547 0
M  V30 2095 O 184.252 1.08614 5.35598 0
M  V30 2096 H 181.346 0.129369 0.816819 0
M  V30 2097 H 183.892 0.973653 1.3899 0
M  V30 2098 H 182.664 1.96489 3.3839 0
M  V30 2099 H 182.287 0.349741 3.96059 0
M  V30 2100 N 183.284 -1.43765 0.645699 0
M  V30 2101 C 184.509 -2.06767 0.161883 0
M  V30 2102 C 184.934 -1.48034 -1.16049 0
M  V30 2103 O 184.292 -0.587369 -1.71522 0
M  V30 2104 C 184.34 -3.60519 0.0762003 0
M  V30 2105 O 183.444 -4.00982 -0.963721 0
M  V30 2106 H 182.785 -0.657675 0.091429 0
M  V30 2107 H 185.315 -1.84397 0.886499 0
M  V30 2108 H 185.325 -4.07853 -0.109604 0
M  V30 2109 H 184 -4.02646 1.04157 0
M  V30 2110 H 182.577 -3.65253 -0.751312 0
M  V30 2111 N 184.763 -0.387143 -1.52771 0
M  V30 2112 C 185.991 0.195869 -2.05971 0
M  V30 2113 C 186.406 1.40691 -1.25903 0
M  V30 2114 O 185.763 1.79931 -0.305134 0
M  V30 2115 C 185.814 0.56812 -3.57008 0
M  V30 2116 O 185.535 -0.594803 -4.34043 0
M  V30 2117 C 187.036 1.20723 -4.26545 0
M  V30 2118 H 184.256 0.0300578 -0.670326 0
M  V30 2119 H 186.8 -0.551749 -1.96916 0
M  V30 2120 H 184.955 1.26564 -3.66143 0
M  V30 2121 H 185.369 -0.289322 -5.23701 0
M  V30 2122 H 186.843 1.41807 -5.33474 0
M  V30 2123 H 187.32 2.17395 -3.81623 0
M  V30 2124 H 187.926 0.550535 -4.21722 0
M  V30 2125 N 186.241 1.57166 -0.116904 0
M  V30 2126 C 187.471 1.99184 0.548586 0
M  V30 2127 C 187.879 0.995436 1.60897 0
M  V30 2128 O 187.222 -0.0201293 1.83689 0
M  V30 2129 C 187.284 3.37611 1.23526 0
M  V30 2130 C 186.948 4.55857 0.323077 0
M  V30 2131 C 187.945 5.18056 -0.437476 0
M  V30 2132 C 185.63 5.01751 0.234761 0
M  V30 2133 C 187.624 6.24536 -1.2741 0
M  V30 2134 C 185.311 6.08093 -0.605496 0
M  V30 2135 C 186.309 6.69352 -1.35856 0
M  V30 2136 O 185.997 7.7364 -2.18487 0
M  V30 2137 H 185.729 0.659148 0.149999 0
M  V30 2138 H 188.283 2.0443 -0.199428 0
M  V30 2139 H 186.513 3.29113 2.0303 0
M  V30 2140 H 188.202 3.63932 1.79745 0
M  V30 2141 H 188.968 4.83516 -0.379105 0
M  V30 2142 H 184.847 4.53817 0.810601 0
M  V30 2143 H 188.391 6.72281 -1.86237 0
M  V30 2144 H 184.288 6.42063 -0.665268 0
M  V30 2145 H 185.056 7.90727 -2.11406 0
M  V30 2146 N 187.719 -0.156864 1.56817 0
M  V30 2147 C 188.666 -1.19394 1.97519 0
M  V30 2148 C 189.636 -1.4322 0.841265 0
M  V30 2149 O 190.821 -1.55719 1.10255 0
M  V30 2150 C 187.961 -2.52483 2.35258 0
M  V30 2151 C 187.074 -2.35914 3.61896 0
M  V30 2152 C 186.209 -3.61969 3.88782 0
M  V30 2153 C 185.248 -3.40395 5.08722 0
M  V30 2154 N 184.385 -4.58556 5.31668 0
M  V30 2155 H 189.225 -0.839845 2.85921 0
M  V30 2156 H 186.762 -0.403264 1.41464 0
M  V30 2157 H 188.72 -3.30071 2.55165 0
M  V30 2158 H 187.35 -2.85859 1.49949 0
M  V30 2159 H 186.402 -1.49429 3.49821 0
M  V30 2160 H 187.714 -2.15926 4.49641 0
M  V30 2161 H 186.868 -4.47989 4.09135 0
M  V30 2162 H 185.607 -3.84951 2.9944 0
M  V30 2163 H 184.612 -2.52763 4.88253 0
M  V30 2164 H 185.837 -3.18822 5.99608 0
M  V30 2165 H 183.783 -4.81729 4.45279 0
M  V30 2166 H 183.7 -4.41535 6.13664 0
M  V30 2167 H 184.968 -5.45817 5.5651 0
M  V30 2168 N 189.197 -1.51736 -0.425897 0
M  V30 2169 C 190.444 -1.6497 -1.17436 0
M  V30 2170 C 190.772 -0.371445 -1.9092 0
M  V30 2171 O 190.027 0.644963 -1.84767 0
M  V30 2172 C 190.326 -2.81103 -2.20717 0
M  V30 2173 C 189.992 -4.19954 -1.64162 0
M  V30 2174 C 188.654 -4.57725 -1.48462 0
M  V30 2175 C 191.006 -5.06552 -1.22696 0
M  V30 2176 C 188.334 -5.79789 -0.897873 0
M  V30 2177 C 190.686 -6.29205 -0.654464 0
M  V30 2178 C 189.35 -6.6574 -0.484456 0
M  V30 2179 H 188.62 -0.603668 -0.429727 0
M  V30 2180 H 191.267 -1.85798 -0.463829 0
M  V30 2181 H 189.572 -2.54542 -2.97852 0
M  V30 2182 H 191.269 -2.8854 -2.78471 0
M  V30 2183 H 187.859 -3.90181 -1.77361 0
M  V30 2184 H 192.043 -4.77968 -1.33642 0
M  V30 2185 H 187.299 -6.06733 -0.75402 0
M  V30 2186 H 191.473 -6.95643 -0.324694 0
M  V30 2187 H 189.1 -7.60195 -0.0276833 0
M  V30 2188 N 190.675 0.682077 -1.42076 0
M  V30 2189 C 191.922 1.44215 -1.42156 0
M  V30 2190 C 192.25 1.94468 -0.0354186 0
M  V30 2191 O 191.505 1.70816 0.955002 0
M  V30 2192 C 191.804 2.66036 -2.38662 0
M  V30 2193 C 191.47 2.34366 -3.85206 0
M  V30 2194 C 190.132 2.25439 -4.25124 0
M  V30 2195 C 192.484 2.08513 -4.77673 0
M  V30 2196 C 189.812 1.88775 -5.55501 0
M  V30 2197 C 192.164 1.73354 -6.08384 0
M  V30 2198 C 190.828 1.62933 -6.47309 0
M  V30 2199 H 190.098 0.527718 -0.520187 0
M  V30 2200 H 192.745 0.778387 -1.74967 0
M  V30 2201 H 191.05 3.3741 -1.99152 0
M  V30 2202 H 192.747 3.24205 -2.35991 0
M  V30 2203 H 189.337 2.42213 -3.53597 0
M  V30 2204 H 193.521 2.14346 -4.47626 0
M  V30 2205 H 188.777 1.7927 -5.84527 0
M  V30 2206 H 192.951 1.52373 -6.79526 0
M  V30 2207 H 190.578 1.34292 -7.48244 0
M  V30 2208 N 192.153 1.28127 0.917671 0
M  V30 2209 C 193.063 1.13556 2.05286 0
M  V30 2210 C 194.079 0.0630914 1.73886 0
M  V30 2211 O 195.255 0.271598 1.9956 0
M  V30 2212 C 192.32 0.794676 3.3747 0
M  V30 2213 C 191.381 1.94909 3.82504 0
M  V30 2214 C 190.614 1.62437 5.0838 0
M  V30 2215 O 190.837 0.536905 5.67867 0
M  V30 2216 O 189.771 2.46677 5.4903 0
M  V30 2217 H 193.597 2.08844 2.20495 0
M  V30 2218 H 191.182 1.07409 1.03845 0
M  V30 2219 H 193.064 0.618344 4.16839 0
M  V30 2220 H 191.739 -0.128581 3.23445 0
M  V30 2221 H 190.646 2.18055 3.03978 0
M  V30 2222 H 191.979 2.85291 4.01086 0
M  V30 2223 N 193.631 -1.12557 1.10312 0
M  V30 2224 C 194.877 -1.84311 0.846011 0
M  V30 2225 C 195.21 -1.83805 -0.626859 0
M  V30 2226 O 194.485 -1.28268 -1.46211 0
M  V30 2227 C 194.768 -3.32048 1.39341 0
M  V30 2228 C 194.621 -3.41016 2.93305 0
M  V30 2229 C 195.94 -4.27764 1.03468 0
M  V30 2230 H 193.059 -0.669192 0.30879 0
M  V30 2231 H 195.701 -1.32057 1.36605 0
M  V30 2232 H 193.851 -3.76678 0.951087 0
M  V30 2233 H 195.523 -3.05031 3.46055 0
M  V30 2234 H 193.766 -2.81603 3.29973 0
M  V30 2235 H 194.437 -4.44948 3.26689 0
M  V30 2236 H 196.913 -3.91253 1.41633 0
M  V30 2237 H 195.789 -5.29549 1.44463 0
M  V30 2238 H 196.05 -4.42064 -0.0560404 0
M  V30 2239 N 195.109 -0.891671 -1.2995 0
M  V30 2240 C 196.358 -0.509521 -1.95158 0
M  V30 2241 C 196.671 0.947388 -1.71125 0
M  V30 2242 O 197.877 1.43669 -2.30372 0
M  V30 2243 C 196.333 -0.860315 -3.49466 0
M  V30 2244 C 195.941 -2.33545 -3.8231 0
M  V30 2245 C 197.685 -0.547687 -4.20952 0
M  V30 2246 C 195.592 -2.62752 -5.29826 0
M  V30 2247 H 194.522 -0.18682 -0.730489 0
M  V30 2248 H 197.173 -1.08756 -1.47798 0
M  V30 2249 H 195.555 -0.211285 -3.95436 0
M  V30 2250 H 196.729 -3.02936 -3.47227 0
M  V30 2251 H 195.044 -2.61629 -3.23944 0
M  V30 2252 H 197.641 -0.742854 -5.29515 0
M  V30 2253 H 197.984 0.51332 -4.13123 0
M  V30 2254 H 198.517 -1.1542 -3.80688 0
M  V30 2255 H 195.256 -3.6762 -5.42712 0
M  V30 2256 H 194.776 -1.97977 -5.66185 0
M  V30 2257 H 196.455 -2.48601 -5.97333 0
M  V30 2258 N 196.587 1.43421 -0.653314 0
M  V30 2259 C 197.517 2.33487 0.0246656 0
M  V30 2260 C 198.498 1.49475 0.811863 0
M  V30 2261 O 199.683 1.78139 0.773322 0
M  V30 2262 C 196.813 3.32841 0.99166 0
M  V30 2263 C 195.767 4.26842 0.314568 0
M  V30 2264 C 195.093 5.16236 1.39302 0
M  V30 2265 C 196.393 5.16243 -0.793095 0
M  V30 2266 H 198.087 2.90427 -0.727481 0
M  V30 2267 H 195.633 1.39649 -0.351287 0
M  V30 2268 H 197.586 3.94747 1.47487 0
M  V30 2269 H 196.31 2.74158 1.77497 0
M  V30 2270 H 194.969 3.663 -0.148199 0
M  V30 2271 H 194.617 4.53891 2.16776 0
M  V30 2272 H 194.317 5.79948 0.945223 0
M  V30 2273 H 195.841 5.81015 1.87759 0
M  V30 2274 H 197.255 5.71958 -0.392039 0
M  V30 2275 H 195.652 5.88676 -1.16536 0
M  V30 2276 H 196.722 4.55927 -1.65103 0
M  V30 2277 N 198.065 0.39524 1.52563 0
M  V30 2278 C 199.314 -0.186321 2.00838 0
M  V30 2279 C 199.627 -1.47402 1.28577 0
M  V30 2280 O 200.833 -2.13599 1.67593 0
M  V30 2281 C 199.289 -0.382595 3.57861 0
M  V30 2282 C 198.897 0.892202 4.39026 0
M  V30 2283 C 200.641 -0.9202 4.14406 0
M  V30 2284 C 198.548 0.66388 5.87662 0
M  V30 2285 H 197.478 -0.0734041 0.750418 0
M  V30 2286 H 200.129 0.518552 1.76021 0
M  V30 2287 H 198.511 -1.14946 3.7895 0
M  V30 2288 H 199.685 1.66414 4.29701 0
M  V30 2289 H 198 1.35519 3.9373 0
M  V30 2290 H 200.597 -1.10683 5.23119 0
M  V30 2291 H 200.94 -1.89096 3.70875 0
M  V30 2292 H 201.473 -0.212751 3.97231 0
M  V30 2293 H 198.212 1.6058 6.35527 0
M  V30 2294 H 197.732 -0.0690193 5.9976 0
M  V30 2295 H 199.411 0.300699 6.46301 0
M  V30 2296 N 199.544 -1.57102 0.125237 0
M  V30 2297 C 200.821 -1.86953 -0.575142 0
M  V30 2298 C 201.201 -1.02749 -1.84407 0
M  V30 2299 O 200.549 -0.108144 -2.28244 0
M  V30 2300 C 200.759 -3.38198 -0.861583 0
M  V30 2301 C 202.107 -4.06937 -1.21192 0
M  V30 2302 O 203.131 -3.43252 -0.951645 0
M  V30 2303 O 201.99 -5.19364 -1.70068 0
M  V30 2304 H 199.084 -0.774147 -0.290906 0
M  V30 2305 H 201.63 -1.68942 0.160211 0
M  V30 2306 H 200.402 -3.91282 0.0373647 0
M  V30 2307 H 200.025 -3.61661 -1.65188 0
M  V30 2308 N 201.022 0.148545 -1.56898 0
M  V30 2309 C 202.433 0.708766 -1.72723 0
M  V30 2310 C 202.784 1.81734 -0.739395 0
M  V30 2311 O 201.909 2.16194 0.0943169 0
M  V30 2312 C 202.504 1.29245 -3.13179 0
M  V30 2313 C 201.063 1.79925 -3.30611 0
M  V30 2314 C 200.21 0.687111 -2.68652 0
M  V30 2315 H 203.161 -0.0771063 -1.58513 0
M  V30 2316 H 203.182 2.16224 -3.13093 0
M  V30 2317 H 202.694 0.485382 -3.85053 0
M  V30 2318 H 200.795 2.63203 -2.63732 0
M  V30 2319 H 200.908 1.92903 -4.38549 0
M  V30 2320 H 199.272 1.11335 -2.29078 0
M  V30 2321 H 200.055 -0.108483 -3.43129 0
M  V30 2322 N 202.5 1.5196 0.417844 0
M  V30 2323 C 203.747 1.65591 1.16559 0
M  V30 2324 C 204.075 0.381565 1.90721 0
M  V30 2325 O 203.33 -0.635156 1.85106 0
M  V30 2326 C 203.629 2.82269 2.19223 0
M  V30 2327 C 203.295 4.20819 1.61933 0
M  V30 2328 C 201.957 4.58506 1.46033 0
M  V30 2329 C 204.309 5.07196 1.20008 0
M  V30 2330 C 201.637 5.80257 0.867113 0
M  V30 2331 C 203.989 6.29544 0.621086 0
M  V30 2332 C 202.653 6.65987 0.449144 0
M  V30 2333 H 201.923 0.605939 0.42652 0
M  V30 2334 H 204.57 1.86041 0.45397 0
M  V30 2335 H 202.875 2.56118 2.96498 0
M  V30 2336 H 204.572 2.90012 2.76936 0
M  V30 2337 H 201.162 3.91116 1.7529 0
M  V30 2338 H 205.346 4.7867 1.31105 0
M  V30 2339 H 200.602 6.07124 0.721833 0
M  V30 2340 H 204.776 6.95805 0.287798 0
M  V30 2341 H 202.403 7.60199 -0.012632 0
M  V30 2342 N 203.978 -0.674533 1.42435 0
M  V30 2343 C 204.928 -1.7807 1.4239 0
M  V30 2344 C 205.912 -1.58169 0.295202 0
M  V30 2345 O 207.104 -1.68643 0.537449 0
M  V30 2346 C 204.233 -3.16532 1.32901 0
M  V30 2347 C 203.319 -3.42055 2.50717 0
M  V30 2348 N 203.71 -3.38162 3.76139 0
M  V30 2349 C 202.008 -3.72692 2.44983 0
M  V30 2350 C 202.709 -3.63177 4.54398 0
M  V30 2351 N 201.685 -3.83954 3.84812 0
M  V30 2352 H 205.487 -1.73454 2.37257 0
M  V30 2353 H 203.001 -0.875381 1.36788 0
M  V30 2354 H 204.998 -3.958 1.30951 0
M  V30 2355 H 203.658 -3.22345 0.390363 0
M  V30 2356 H 204.669 -3.18057 4.0873 0
M  V30 2357 H 201.346 -3.85749 1.59699 0
M  V30 2358 H 202.736 -3.66125 5.63384 0
M  V30 2359 N 205.456 -1.28612 -0.910864 0
M  V30 2360 C 206.403 -1.12786 -2.01365 0
M  V30 2361 C 207.373 -0.024201 -1.66082 0
M  V30 2362 O 208.558 -0.189667 -1.89855 0
M  V30 2363 C 205.698 -0.798743 -3.35729 0
M  V30 2364 C 204.811 -1.98173 -3.83864 0
M  V30 2365 C 203.946 -1.59298 -5.06752 0
M  V30 2366 C 202.985 -2.74245 -5.47226 0
M  V30 2367 N 202.122 -2.35842 -6.61304 0
M  V30 2368 H 206.962 -2.07142 -2.14234 0
M  V30 2369 H 204.499 -1.03093 -1.0493 0
M  V30 2370 H 206.457 -0.588662 -4.13026 0
M  V30 2371 H 205.087 0.10789 -3.2262 0
M  V30 2372 H 204.139 -2.30386 -3.02699 0
M  V30 2373 H 205.451 -2.84343 -4.09818 0
M  V30 2374 H 204.605 -1.34513 -5.916 0
M  V30 2375 H 203.344 -0.702618 -4.82612 0
M  V30 2376 H 202.349 -2.99725 -4.60918 0
M  V30 2377 H 203.574 -3.63928 -5.73353 0
M  V30 2378 H 201.52 -1.49279 -6.38789 0
M  V30 2379 H 201.437 -3.15546 -6.86998 0
M  V30 2380 H 202.705 -2.14348 -7.4945 0
M  V30 2381 N 206.934 1.1197 -1.10907 0
M  V30 2382 C 207.897 2.16031 -0.765707 0
M  V30 2383 C 208.897 1.59393 0.212235 0
M  V30 2384 O 210.087 1.74196 -0.0115441 0
M  V30 2385 C 207.219 3.40632 -0.135053 0
M  V30 2386 H 208.412 2.47919 -1.68748 0
M  V30 2387 H 205.965 1.27061 -0.910226 0
M  V30 2388 H 206.7 3.14348 0.797218 0
M  V30 2389 H 206.485 3.8302 -0.838937 0
M  V30 2390 H 207.975 4.17505 0.0892469 0
M  V30 2391 N 208.412 0.89855 1.29475 0
M  V30 2392 C 209.661 0.519863 1.94885 0
M  V30 2393 C 209.974 -0.9383 1.71625 0
M  V30 2394 O 211.18 -1.42445 2.31131 0
M  V30 2395 C 209.636 0.878836 3.49005 0
M  V30 2396 C 209.244 2.35569 3.81066 0
M  V30 2397 C 210.988 0.570004 4.20656 0
M  V30 2398 C 208.895 2.65558 5.28425 0
M  V30 2399 H 207.825 0.190692 0.729488 0
M  V30 2400 H 210.476 1.09539 1.47219 0
M  V30 2401 H 208.858 0.232253 3.95318 0
M  V30 2402 H 210.032 3.04773 3.45616 0
M  V30 2403 H 208.347 2.63343 3.22552 0
M  V30 2404 H 210.944 0.770925 5.29113 0
M  V30 2405 H 211.287 -0.491404 4.1339 0
M  V30 2406 H 211.82 1.17438 3.8007 0
M  V30 2407 H 208.559 3.70493 5.40754 0
M  V30 2408 H 208.079 2.00977 5.65127 0
M  V30 2409 H 209.758 2.51765 5.96006 0
M  V30 2410 N 209.89 -1.43072 0.660911 0
M  V30 2411 C 211.306 -1.56169 0.329173 0
M  V30 2412 C 211.506 -1.64317 -1.16629 0
M  V30 2413 O 210.562 -1.60245 -1.95135 0
M  V30 2414 C 211.875 -2.81873 1.04729 0
M  V30 2415 C 213.423 -2.95627 1.02828 0
M  V30 2416 C 213.898 -4.24174 1.72744 0
M  V30 2417 N 215.389 -4.31055 1.69545 0
M  V30 2418 C 216.124 -5.29304 2.20511 0
M  V30 2419 N 215.62 -6.33786 2.79799 0
M  V30 2420 N 217.413 -5.21008 2.10966 0
M  V30 2421 H 209.564 -1.36027 1.63127 0
M  V30 2422 H 211.827 -0.653823 0.686454 0
M  V30 2423 H 211.533 -2.81942 2.10242 0
M  V30 2424 H 211.407 -3.72338 0.603702 0
M  V30 2425 H 213.794 -2.95094 -0.0184742 0
M  V30 2426 H 213.875 -2.06431 1.51063 0
M  V30 2427 H 213.519 -4.25467 2.7738 0
M  V30 2428 H 213.449 -5.1228 1.2197 0
M  V30 2429 H 215.94 -3.56174 1.26288 0
M  V30 2430 H 216.253 -7.05086 3.16344 0
M  V30 2431 H 214.598 -6.34387 2.83863 0
M  V30 2432 H 217.789 -4.38301 1.64347 0
M  V30 2433 H 217.962 -5.97416 2.50993 0
M  V30 2434 N 211.368 -0.403325 -1.52352 0
M  V30 2435 C 212.784 -0.0539281 -1.59509 0
M  V30 2436 C 212.984 1.43307 -1.41652 0
M  V30 2437 O 212.04 2.19924 -1.24056 0
M  V30 2438 C 213.353 -0.543654 -2.95745 0
M  V30 2439 C 214.901 -0.501125 -3.08962 0
M  V30 2440 C 215.376 -0.967267 -4.47669 0
M  V30 2441 N 216.867 -0.923849 -4.53893 0
M  V30 2442 C 217.602 -1.25578 -5.5948 0
M  V30 2443 N 217.098 -1.65889 -6.72646 0
M  V30 2444 N 218.891 -1.17613 -5.49658 0
M  V30 2445 H 211.042 -1.37123 -1.62206 0
M  V30 2446 H 213.305 -0.56294 -0.76276 0
M  V30 2447 H 213.011 -1.58275 -3.14073 0
M  V30 2448 H 212.885 0.0498042 -3.77167 0
M  V30 2449 H 215.272 0.528909 -2.90321 0
M  V30 2450 H 215.353 -1.13056 -2.2946 0
M  V30 2451 H 214.997 -1.9956 -4.67053 0
M  V30 2452 H 214.927 -0.314698 -5.25659 0
M  V30 2453 H 217.418 -0.627403 -3.72655 0
M  V30 2454 H 217.731 -1.89543 -7.49195 0
M  V30 2455 H 216.076 -1.69787 -6.73942 0
M  V30 2456 H 219.267 -0.860115 -4.6013 0
M  V30 2457 H 219.44 -1.43812 -6.3184 0
M  V30 2458 N 212.846 1.57033 -0.133567 0
M  V30 2459 C 213.794 2.17348 0.828412 0
M  V30 2460 C 214.788 1.12671 1.26498 0
M  V30 2461 O 215.994 1.30947 1.23502 0
M  V30 2462 H 212.369 0.695775 0.285309 0
M  V30 2463 H 214.34 2.96935 0.295372 0
M  V30 2464 C 213.089 2.79893 2.06289 0
M  V30 2465 H 212.412 3.60147 1.73592 0
M  V30 2466 H 213.852 3.25615 2.71572 0
M  V30 2467 C 212.311 1.77713 2.86216 0
M  V30 2468 O 212.841 1.23937 3.82103 0
M  V30 2469 N 211.047 1.47321 2.50489 0
M  V30 2470 H 210.594 1.91243 1.7258 0
M  V30 2471 H 210.552 0.79199 3.04261 0
M  V30 2472 N 214.325 -0.140222 1.56975 0
M  V30 2473 C 215.736 -0.699596 1.73097 0
M  V30 2474 C 216.087 -1.8134 0.749022 0
M  V30 2475 O 215.212 -2.16241 -0.0828503 0
M  V30 2476 C 215.807 -1.27582 3.1386 0
M  V30 2477 C 214.366 -1.78169 3.31561 0
M  V30 2478 C 213.513 -0.672855 2.69013 0
M  V30 2479 H 216.464 0.0855115 1.58469 0
M  V30 2480 H 216.485 -2.14561 3.14235 0
M  V30 2481 H 215.997 -0.464955 3.85305 0
M  V30 2482 H 214.098 -2.61801 2.65124 0
M  V30 2483 H 214.211 -1.90574 4.39566 0
M  V30 2484 H 212.575 -1.10118 2.29665 0
M  V30 2485 H 213.358 0.126679 3.43066 0
M  V30 2486 N 215.803 -1.52179 -0.40978 0
M  V30 2487 C 217.08 -1.56769 -1.16974 0
M  V30 2488 C 217.46 -0.348322 -2.08206 0
M  V30 2489 O 216.808 0.664862 -2.18613 0
M  V30 2490 C 217.018 -2.89603 -1.9476 0
M  V30 2491 C 218.366 -3.42579 -2.50849 0
M  V30 2492 O 219.39 -2.91338 -2.04941 0
M  V30 2493 O 218.249 -4.32054 -3.34652 0
M  V30 2494 H 215.343 -0.631439 -0.534054 0
M  V30 2495 H 217.889 -1.64507 -0.416613 0
M  V30 2496 H 216.661 -3.698 -1.27921 0
M  V30 2497 H 216.284 -2.85155 -2.77079 0
M  V30 2498 N 217.281 0.66697 -1.42791 0
M  V30 2499 C 218.509 1.45505 -1.47091 0
M  V30 2500 C 218.924 1.8861 -0.0845873 0
M  V30 2501 O 218.281 1.58632 0.90234 0
M  V30 2502 C 218.332 2.69906 -2.40485 0
M  V30 2503 O 218.053 2.28608 -3.73725 0
M  V30 2504 C 219.554 3.63396 -2.53886 0
M  V30 2505 H 216.774 0.447459 -0.500022 0
M  V30 2506 H 219.318 0.818866 -1.8739 0
M  V30 2507 H 217.473 3.29696 -2.03419 0
M  V30 2508 H 217.887 3.08997 -4.23817 0
M  V30 2509 H 219.361 4.47387 -3.2334 0
M  V30 2510 H 219.838 4.09824 -1.57927 0
M  V30 2511 H 220.444 3.09495 -2.91706 0
M  V30 2512 N 218.759 1.29093 0.90403 0
M  V30 2513 C 219.691 1.09658 2.01266 0
M  V30 2514 C 220.704 0.0453729 1.62737 0
M  V30 2515 O 221.893 0.289446 1.76138 0
M  V30 2516 C 218.993 0.646278 3.32681 0
M  V30 2517 C 218.166 1.77505 3.99763 0
M  V30 2518 C 217.225 1.31649 5.09465 0
M  V30 2519 O 216.251 2.02045 5.32134 0
M  V30 2520 N 217.453 0.184997 5.80205 0
M  V30 2521 H 220.218 2.05135 2.18494 0
M  V30 2522 H 217.779 1.20975 1.07594 0
M  V30 2523 H 219.771 0.322906 4.0341 0
M  V30 2524 H 218.341 -0.215916 3.11853 0
M  V30 2525 H 217.561 2.26752 3.22455 0
M  V30 2526 H 218.849 2.53198 4.41325 0
M  V30 2527 H 218.247 -0.402021 5.6427 0
M  V30 2528 H 216.804 -0.0790358 6.51752 0
M  V30 2529 N 220.237 -1.11381 1.11499 0
M  V30 2530 C 221.483 -1.83597 0.875423 0
M  V30 2531 C 221.838 -1.83048 -0.592555 0
M  V30 2532 O 221.131 -1.27304 -1.43193 0
M  V30 2533 C 221.325 -3.30026 1.37177 0
M  V30 2534 C 221.154 -3.44837 2.88647 0
M  V30 2535 C 219.924 -3.57825 3.56776 0
M  V30 2536 C 222.122 -3.3907 3.86699 0
M  V30 2537 N 220.104 -3.61113 4.96458 0
M  V30 2538 C 221.475 -3.48986 5.12454 0
M  V30 2539 C 223.53 -3.22605 3.7925 0
M  V30 2540 C 222.233 -3.44135 6.31636 0
M  V30 2541 C 224.259 -3.19072 4.97943 0
M  V30 2542 C 223.621 -3.29559 6.22551 0
M  V30 2543 H 219.72 -0.687044 0.37349 0
M  V30 2544 H 222.304 -1.33265 1.41946 0
M  V30 2545 H 220.475 -3.78874 0.854919 0
M  V30 2546 H 222.207 -3.90153 1.07529 0
M  V30 2547 H 218.962 -3.60414 3.07244 0
M  V30 2548 H 219.386 -3.66394 5.69284 0
M  V30 2549 H 224.028 -3.13382 2.83816 0
M  V30 2550 H 221.746 -3.52126 7.27347 0
M  V30 2551 H 225.332 -3.07498 4.93899 0
M  V30 2552 H 224.212 -3.26815 7.12855 0
M  V30 2553 N 221.715 -0.905404 -1.28997 0
M  V30 2554 C 222.964 -0.530191 -1.94607 0
M  V30 2555 C 223.277 0.929185 -1.72121 0
M  V30 2556 O 224.483 1.41218 -2.31883 0
M  V30 2557 C 222.939 -0.897333 -3.48534 0
M  V30 2558 C 222.547 -2.37587 -3.79811 0
M  V30 2559 C 224.291 -0.592304 -4.20347 0
M  V30 2560 C 222.198 -2.68357 -5.27009 0
M  V30 2561 H 221.128 -0.194558 -0.728466 0
M  V30 2562 H 223.779 -1.10318 -1.46636 0
M  V30 2563 H 222.161 -0.253214 -3.9519 0
M  V30 2564 H 223.335 -3.06602 -3.43994 0
M  V30 2565 H 221.65 -2.6505 -3.2115 0
M  V30 2566 H 224.247 -0.798975 -5.28697 0
M  V30 2567 H 224.59 0.469474 -4.13644 0
M  V30 2568 H 225.123 -1.19452 -3.79442 0
M  V30 2569 H 221.862 -3.73355 -5.38782 0
M  V30 2570 H 221.382 -2.03971 -5.64053 0
M  V30 2571 H 223.061 -2.54922 -5.94663 0
M  V30 2572 N 223.193 1.4272 -0.668489 0
M  V30 2573 C 224.421 2.05966 -0.196348 0
M  V30 2574 C 224.836 1.50191 1.14403 0
M  V30 2575 O 224.193 0.639208 1.7094 0
M  V30 2576 C 224.244 3.61314 -0.115815 0
M  V30 2577 O 223.965 4.1502 -1.40322 0
M  V30 2578 C 225.466 4.41663 0.380579 0
M  V30 2579 H 222.686 0.663954 -0.0969829 0
M  V30 2580 H 225.23 1.82966 -0.913446 0
M  V30 2581 H 223.385 3.83448 0.551931 0
M  V30 2582 H 223.799 5.08832 -1.27243 0
M  V30 2583 H 225.273 5.5065 0.385848 0
M  V30 2584 H 225.75 4.15792 1.41471 0
M  V30 2585 H 226.356 4.24534 -0.255209 0
M  V30 2586 N 224.671 0.411399 1.52136 0
M  V30 2587 C 225.618 -0.412975 2.27075 0
M  V30 2588 C 226.588 -1.03912 1.29582 0
M  V30 2589 O 227.773 -1.06296 1.58448 0
M  V30 2590 C 224.913 -1.52247 3.09701 0
M  V30 2591 C 224.026 -0.917021 4.22155 0
M  V30 2592 C 223.161 -1.9994 4.92135 0
M  V30 2593 C 222.2 -1.37101 5.96548 0
M  V30 2594 N 221.337 -2.39364 6.60038 0
M  V30 2595 H 226.177 0.232499 2.97092 0
M  V30 2596 H 223.714 0.126496 1.46555 0
M  V30 2597 H 225.672 -2.17674 3.55913 0
M  V30 2598 H 224.302 -2.13794 2.41851 0
M  V30 2599 H 223.354 -0.151742 3.80097 0
M  V30 2600 H 224.666 -0.418006 4.97045 0
M  V30 2601 H 223.82 -2.73088 5.41763 0
M  V30 2602 H 222.559 -2.53208 4.16818 0
M  V30 2603 H 221.564 -0.624873 5.46237 0
M  V30 2604 H 222.789 -0.845998 6.7381 0
M  V30 2605 H 220.735 -2.91759 5.87548 0
M  V30 2606 H 220.652 -1.9428 7.3061 0
M  V30 2607 H 221.92 -3.12074 7.14304 0
M  V30 2608 N 226.149 -1.5696 0.141893 0
M  V30 2609 C 227.56 -1.82797 -0.379776 0
M  V30 2610 C 227.911 -1.06033 -1.6508 0
M  V30 2611 O 227.036 -0.304011 -2.14254 0
M  V30 2612 C 227.631 -3.31578 -0.695802 0
M  V30 2613 C 226.19 -3.58014 -1.16201 0
M  V30 2614 C 225.337 -2.76699 -0.182455 0
M  V30 2615 H 228.288 -1.54406 0.366675 0
M  V30 2616 H 228.309 -3.47454 -1.55099 0
M  V30 2617 H 227.821 -3.87421 0.229449 0
M  V30 2618 H 225.922 -3.07553 -2.10338 0
M  V30 2619 H 226.035 -4.66501 -1.09151 0
M  V30 2620 H 224.399 -2.45618 -0.674072 0
M  V30 2621 H 225.182 -3.35311 0.736297 0
M  V30 2622 N 227.627 0.131896 -1.57047 0
M  V30 2623 C 228.873 0.843179 -1.84441 0
M  V30 2624 C 229.206 1.80129 -0.725749 0
M  V30 2625 O 228.481 1.92624 0.269469 0
M  V30 2626 C 228.764 1.60442 -3.22382 0
M  V30 2627 C 228.617 0.666782 -4.4483 0
M  V30 2628 C 229.936 2.56354 -3.5773 0
M  V30 2629 H 227.055 0.305081 -0.670891 0
M  V30 2630 H 229.697 0.107839 -1.89694 0
M  V30 2631 H 227.847 2.23128 -3.18035 0
M  V30 2632 H 229.519 0.0497646 -4.61273 0
M  V30 2633 H 227.762 -0.022609 -4.33794 0
M  V30 2634 H 228.433 1.23579 -5.37989 0
M  V30 2635 H 230.909 2.0378 -3.62785 0
M  V30 2636 H 229.785 3.06657 -4.5525 0
M  V30 2637 H 230.046 3.38419 -2.84473 0
M  V30 2638 N 229.106 1.52395 0.401703 0
M  V30 2639 C 230.056 1.72649 1.48917 0
M  V30 2640 C 231.04 0.580436 1.50066 0
M  V30 2641 O 232.232 0.83779 1.55917 0
M  V30 2642 C 229.361 1.88729 2.86769 0
M  V30 2643 C 228.447 3.09228 2.90239 0
M  V30 2644 N 228.838 4.31805 2.63396 0
M  V30 2645 C 227.136 3.09214 3.21408 0
M  V30 2646 C 227.837 5.13326 2.73625 0
M  V30 2647 N 226.813 4.48735 3.06819 0
M  V30 2648 H 230.615 2.65058 1.26971 0
M  V30 2649 H 228.129 1.50528 0.609504 0
M  V30 2650 H 230.126 2.01358 3.65049 0
M  V30 2651 H 228.786 0.975252 3.09708 0
M  V30 2652 H 229.797 4.60154 2.37653 0
M  V30 2653 H 226.474 2.27774 3.49893 0
M  V30 2654 H 227.864 6.21003 2.56524 0
M  V30 2655 N 230.584 -0.659388 1.43143 0
M  V30 2656 C 231.531 -1.77249 1.47822 0
M  V30 2657 C 232.501 -1.62818 0.328558 0
M  V30 2658 O 233.686 -1.83151 0.534838 0
M  V30 2659 C 230.826 -3.15371 1.40126 0
M  V30 2660 C 229.939 -3.4098 2.65249 0
M  V30 2661 C 229.074 -4.68915 2.49584 0
M  V30 2662 C 228.113 -4.87608 3.70006 0
M  V30 2663 N 227.25 -6.06796 3.53189 0
M  V30 2664 H 232.09 -1.72584 2.42938 0
M  V30 2665 H 229.627 -0.842297 1.20598 0
M  V30 2666 H 231.585 -3.9521 1.33659 0
M  V30 2667 H 230.215 -3.19121 0.485964 0
M  V30 2668 H 229.267 -2.55282 2.8202 0
M  V30 2669 H 230.579 -3.50681 3.54717 0
M  V30 2670 H 229.733 -5.56871 2.4079 0
M  V30 2671 H 228.472 -4.61524 1.5763 0
M  V30 2672 H 227.477 -3.9809 3.79215 0
M  V30 2673 H 228.702 -4.96834 4.62961 0
M  V30 2674 H 226.648 -6.00549 2.63965 0
M  V30 2675 H 226.565 -6.17428 4.36255 0
M  V30 2676 H 227.833 -6.9739 3.48236 0
M  V30 2677 N 232.062 -1.29571 -0.897171 0
M  V30 2678 C 233.012 -1.11539 -1.98855 0
M  V30 2679 C 233.996 -0.0340716 -1.60864 0
M  V30 2680 O 235.188 -0.256062 -1.75138 0
M  V30 2681 C 232.317 -0.796603 -3.3393 0
M  V30 2682 C 231.403 -1.91758 -3.78272 0
M  V30 2683 N 231.794 -3.16143 -3.94826 0
M  V30 2684 C 230.092 -1.81119 -4.07568 0
M  V30 2685 C 230.793 -3.89293 -4.32233 0
M  V30 2686 N 229.769 -3.17255 -4.41419 0
M  V30 2687 H 233.571 -2.05894 -2.09726 0
M  V30 2688 H 231.085 -1.20732 -1.08616 0
M  V30 2689 H 233.082 -0.648459 -4.11826 0
M  V30 2690 H 231.742 0.139003 -3.24402 0
M  V30 2691 H 232.753 -3.5157 -3.80288 0
M  V30 2692 H 229.43 -0.948461 -4.06584 0
M  V30 2693 H 230.82 -4.9635 -4.52865 0
M  V30 2694 N 233.54 1.10788 -1.12088 0
M  V30 2695 C 234.956 1.34691 -0.856186 0
M  V30 2696 C 235.156 1.94791 0.515615 0
M  V30 2697 O 234.212 2.18524 1.26505 0
M  V30 2698 C 235.525 2.27208 -1.9697 0
M  V30 2699 C 237.073 2.40755 -2.00016 0
M  V30 2700 C 237.548 3.36598 -3.1059 0
M  V30 2701 N 239.039 3.44164 -3.10008 0
M  V30 2702 C 239.774 4.18284 -3.92206 0
M  V30 2703 N 239.27 4.95322 -4.84384 0
M  V30 2704 N 241.063 4.13865 -3.80357 0
M  V30 2705 H 233.214 0.70144 -2.00483 0
M  V30 2706 H 235.477 0.371405 -0.872217 0
M  V30 2707 H 235.183 1.90251 -2.958 0
M  V30 2708 H 235.057 3.27485 -1.87172 0
M  V30 2709 H 237.444 2.76982 -1.01808 0
M  V30 2710 H 237.525 1.40305 -2.13888 0
M  V30 2711 H 237.169 3.01096 -4.09028 0
M  V30 2712 H 237.099 4.36918 -2.93956 0
M  V30 2713 H 239.59 2.8922 -2.43228 0
M  V30 2714 H 239.903 5.49267 -5.43623 0
M  V30 2715 H 238.248 4.94459 -4.884 0
M  V30 2716 H 241.439 3.52773 -3.07683 0
M  V30 2717 H 241.612 4.71372 -4.44649 0
M  V30 2718 N 235.018 0.912232 1.28515 0
M  V30 2719 C 235.928 0.404506 2.31086 0
M  V30 2720 C 236.944 -0.50707 1.66448 0
M  V30 2721 O 238.12 -0.393624 1.97516 0
M  V30 2722 C 235.185 -0.348572 3.44943 0
M  V30 2723 C 234.246 0.59604 4.25142 0
M  V30 2724 C 233.479 -0.121194 5.33562 0
M  V30 2725 O 233.702 -1.34317 5.5436 0
M  V30 2726 O 232.636 0.542716 5.99448 0
M  V30 2727 H 236.462 1.25579 2.76521 0
M  V30 2728 H 234.047 0.676998 1.33181 0
M  V30 2729 H 235.929 -0.77395 4.14232 0
M  V30 2730 H 234.604 -1.17571 3.01594 0
M  V30 2731 H 233.511 1.07079 3.58448 0
M  V30 2732 H 234.844 1.38995 4.72167 0
M  V30 2733 N 236.496 -1.42363 0.676048 0
M  V30 2734 C 237.429 -2.28141 -0.0516916 0
M  V30 2735 C 238.407 -1.41135 -0.807439 0
M  V30 2736 O 239.591 -1.70573 -0.802305 0
M  V30 2737 C 236.718 -3.21007 -1.08039 0
M  V30 2738 C 235.764 -4.24426 -0.420076 0
M  V30 2739 S 236.597 -5.29134 0.823246 0
M  V30 2740 C 237.753 -6.25566 -0.204344 0
M  V30 2741 H 237.986 -2.89515 0.675884 0
M  V30 2742 H 235.519 -1.47211 0.465635 0
M  V30 2743 H 237.477 -3.75048 -1.66881 0
M  V30 2744 H 236.138 -2.58766 -1.78042 0
M  V30 2745 H 235.331 -4.89596 -1.19633 0
M  V30 2746 H 234.933 -3.7388 0.0947845 0
M  V30 2747 H 237.225 -6.69098 -1.06369 0
M  V30 2748 H 238.168 -7.06895 0.412915 0
M  V30 2749 H 238.576 -5.61811 -0.55038 0
M  V30 2750 N 237.974 -0.419461 -1.51915 0
M  V30 2751 C 239.39 -0.0708431 -1.59443 0
M  V30 2752 C 239.59 1.41796 -1.43164 0
M  V30 2753 O 238.646 2.18596 -1.26381 0
M  V30 2754 C 239.959 -0.574991 -2.95151 0
M  V30 2755 C 241.507 -0.533867 -3.08413 0
M  V30 2756 C 241.982 -1.01469 -4.46618 0
M  V30 2757 N 243.473 -0.971939 -4.52888 0
M  V30 2758 C 244.208 -1.31505 -5.58116 0
M  V30 2759 N 243.704 -1.73014 -6.70849 0
M  V30 2760 N 245.497 -1.23436 -5.48379 0
M  V30 2761 H 237.648 -1.38836 -1.60743 0
M  V30 2762 H 239.911 -0.570998 -0.756747 0
M  V30 2763 H 239.617 -1.61597 -3.12377 0
M  V30 2764 H 239.491 0.00979777 -3.77199 0
M  V30 2765 H 241.878 0.498086 -2.90866 0
M  V30 2766 H 241.959 -1.15484 -2.28248 0
M  V30 2767 H 241.603 -2.04502 -4.6491 0
M  V30 2768 H 241.533 -0.370433 -5.25295 0
M  V30 2769 H 244.024 -0.666893 -3.71969 0
M  V30 2770 H 244.337 -1.97479 -7.47143 0
M  V30 2771 H 242.682 -1.76926 -6.72103 0
M  V30 2772 H 245.873 -0.908869 -4.59192 0
M  V30 2773 H 246.046 -1.50506 -6.30279 0
M  V30 2774 N 239.452 1.56882 -0.150215 0
M  V30 2775 C 240.7 1.9584 0.499105 0
M  V30 2776 C 241.021 1.03623 1.65188 0
M  V30 2777 O 240.291 0.0984084 1.95653 0
M  V30 2778 H 238.871 0.723119 0.187373 0
M  V30 2779 H 241.533 1.9358 -0.226466 0
M  V30 2780 H 240.629 2.99638 0.873122 0
M  V30 2781 N 240.93 -0.123565 1.57115 0
M  V30 2782 C 241.86 -1.15309 2.03042 0
M  V30 2783 C 242.841 -1.43454 0.914061 0
M  V30 2784 O 244.026 -1.53973 1.18347 0
M  V30 2785 C 241.156 -2.48043 2.43089 0
M  V30 2786 C 240.11 -2.3437 3.58127 0
M  V30 2787 C 239.436 -3.72026 3.84059 0
M  V30 2788 C 240.736 -1.80804 4.90007 0
M  V30 2789 H 242.43 -0.771102 2.893 0
M  V30 2790 H 239.976 -0.369479 1.39179 0
M  V30 2791 H 241.929 -3.20311 2.73823 0
M  V30 2792 H 240.653 -2.88122 1.53796 0
M  V30 2793 H 239.312 -1.64551 3.27595 0
M  V30 2794 H 238.96 -4.09582 2.91979 0
M  V30 2795 H 238.66 -3.63732 4.6149 0
M  V30 2796 H 240.184 -4.45806 4.1724 0
M  V30 2797 H 241.598 -2.42886 5.19307 0
M  V30 2798 H 239.995 -1.83343 5.71407 0
M  V30 2799 H 241.065 -0.76528 4.78823 0
M  V30 2800 N 242.408 -1.52605 -0.393616 0
M  V30 2801 C 243.636 -1.71294 -1.16043 0
M  V30 2802 C 244.051 -0.429259 -1.83855 0
M  V30 2803 O 243.408 0.595921 -1.72496 0
M  V30 2804 C 243.459 -2.8593 -2.21193 0
M  V30 2805 O 243.18 -4.09329 -1.56146 0
M  V30 2806 C 244.681 -3.16259 -3.10636 0
M  V30 2807 H 241.901 -0.573641 -0.348104 0
M  V30 2808 H 244.445 -1.99234 -0.461092 0
M  V30 2809 H 242.6 -2.60465 -2.86769 0
M  V30 2810 H 243.014 -4.73323 -2.25978 0
M  V30 2811 H 244.488 -3.99946 -3.80456 0
M  V30 2812 H 244.965 -2.3045 -3.73884 0
M  V30 2813 H 245.571 -3.43547 -2.50711 0
M  V30 2814 N 243.887 0.651787 -1.4349 0
M  V30 2815 C 245.112 1.44434 -1.48841 0
M  V30 2816 C 245.537 1.8779 -0.107955 0
M  V30 2817 O 244.895 1.57464 0.898602 0
M  V30 2818 C 244.943 2.65458 -2.44059 0
M  V30 2819 O 244.047 3.64566 -1.92784 0
M  V30 2820 H 243.388 0.433005 -0.503391 0
M  V30 2821 H 245.918 0.797451 -1.88419 0
M  V30 2822 H 245.928 3.13255 -2.6141 0
M  V30 2823 H 244.603 2.33244 -3.4434 0
M  V30 2824 H 243.18 3.23716 -1.851 0
M  V30 2825 N 245.365 1.30045 0.890287 0
M  V30 2826 C 246.328 1.15963 1.977 0
M  V30 2827 C 247.328 0.0923777 1.60534 0
M  V30 2828 O 248.518 0.340071 1.70848 0
M  V30 2829 C 245.65 0.775451 3.31963 0
M  V30 2830 H 246.843 2.12502 2.11619 0
M  V30 2831 H 244.396 1.13366 1.07601 0
M  V30 2832 H 245.131 -0.189671 3.23745 0
M  V30 2833 H 244.916 1.54668 3.60306 0
M  V30 2834 H 246.406 0.700251 4.11687 0
M  V30 2835 N 246.843 -1.10192 1.12674 0
M  V30 2836 C 248.091 -1.81845 0.881861 0
M  V30 2837 C 248.412 -1.85737 -0.593867 0
M  V30 2838 O 247.682 -1.33724 -1.4316 0
M  V30 2839 H 246.262 -0.673432 0.323261 0
M  V30 2840 H 248.924 -1.33316 1.42172 0
M  V30 2841 H 248.02 -2.85288 1.2656 0
M  V30 2842 N 248.321 -0.919034 -1.28029 0
M  V30 2843 C 249.737 -0.617972 -1.4715 0
M  V30 2844 C 249.937 0.835242 -1.83374 0
M  V30 2845 O 248.993 1.61388 -1.94191 0
M  V30 2846 C 250.306 -1.56041 -2.57044 0
M  V30 2847 C 251.854 -1.56769 -2.7091 0
M  V30 2848 C 252.329 -2.49688 -3.83953 0
M  V30 2849 N 253.82 -2.47845 -3.91314 0
M  V30 2850 C 254.555 -3.16437 -4.78179 0
M  V30 2851 N 254.051 -3.94376 -5.69596 0
M  V30 2852 N 255.844 -3.05498 -4.71834 0
M  V30 2853 H 247.995 -1.85866 -1.02798 0
M  V30 2854 H 250.258 -0.797506 -0.512531 0
M  V30 2855 H 249.964 -2.59671 -2.372 0
M  V30 2856 H 249.838 -1.29551 -3.54255 0
M  V30 2857 H 252.225 -0.538745 -2.90141 0
M  V30 2858 H 252.306 -1.87305 -1.74214 0
M  V30 2859 H 251.95 -3.52688 -3.65477 0
M  V30 2860 H 251.88 -2.16453 -4.80058 0
M  V30 2861 H 254.371 -1.91234 -3.25941 0
M  V30 2862 H 254.684 -4.43721 -6.32718 0
M  V30 2863 H 253.029 -3.98481 -5.69419 0
M  V30 2864 H 256.22 -2.44108 -3.99411 0
M  V30 2865 H 256.393 -3.59225 -5.39316 0
M  V30 2866 N 249.799 1.42003 -0.683588 0
M  V30 2867 C 250.746 2.30798 -0.0107309 0
M  V30 2868 C 251.716 1.4645 0.783688 0
M  V30 2869 O 252.901 1.75263 0.754156 0
M  V30 2870 C 250.041 3.3238 0.928306 0
M  V30 2871 C 249.154 4.31814 0.126776 0
M  V30 2872 C 248.289 5.20468 1.06236 0
M  V30 2873 C 247.328 6.11577 0.253035 0
M  V30 2874 N 246.465 6.92754 1.14179 0
M  V30 2875 H 251.305 2.8778 -0.773727 0
M  V30 2876 H 248.842 1.41745 -0.393283 0
M  V30 2877 H 250.8 3.89813 1.48666 0
M  V30 2878 H 249.43 2.76976 1.65783 0
M  V30 2879 H 248.482 3.76427 -0.54833 0
M  V30 2880 H 249.794 4.96276 -0.501192 0
M  V30 2881 H 248.948 5.82677 1.69035 0
M  V30 2882 H 247.687 4.56204 1.7242 0
M  V30 2883 H 246.692 5.48428 -0.388108 0
M  V30 2884 H 247.917 6.77892 -0.404839 0
M  V30 2885 H 245.863 6.3111 1.78987 0
M  V30 2886 H 245.78 7.53855 0.569111 0
M  V30 2887 H 247.048 7.59441 1.75697 0
M  V30 2888 N 251.277 0.427512 1.51691 0
M  V30 2889 C 252.502 -0.143601 2.06902 0
M  V30 2890 C 252.927 -1.36536 1.29382 0
M  V30 2891 O 252.285 -1.78289 0.329043 0
M  V30 2892 C 252.333 -0.454207 3.57728 0
M  V30 2893 O 251.437 -1.54228 3.82475 0
M  V30 2894 H 250.778 -0.00617128 0.663971 0
M  V30 2895 H 253.308 0.606014 1.95419 0
M  V30 2896 H 253.318 -0.707525 4.01818 0
M  V30 2897 H 251.993 0.438812 4.13579 0
M  V30 2898 H 250.57 -1.2797 3.50254 0
M  V30 2899 N 252.755 -1.56801 0.158532 0
M  V30 2900 C 254.171 -1.5837 -0.197774 0
M  V30 2901 C 254.371 -1.17334 -1.63814 0
M  V30 2902 O 253.427 -0.878988 -2.36707 0
M  V30 2903 C 254.74 -3.00615 0.0714459 0
M  V30 2904 C 256.288 -3.12999 0.00864533 0
M  V30 2905 C 256.763 -4.57313 0.250685 0
M  V30 2906 N 258.254 -4.62777 0.198014 0
M  V30 2907 C 258.989 -5.72271 0.359642 0
M  V30 2908 N 258.485 -6.90371 0.579625 0
M  V30 2909 N 260.278 -5.61318 0.296438 0
M  V30 2910 H 252.429 -1.81765 1.09887 0
M  V30 2911 H 254.692 -0.841849 0.435884 0
M  V30 2912 H 254.398 -3.35068 1.06874 0
M  V30 2913 H 254.272 -3.71683 -0.642757 0
M  V30 2914 H 256.659 -2.7838 -0.979217 0
M  V30 2915 H 256.74 -2.44393 0.755359 0
M  V30 2916 H 256.384 -4.92639 1.2357 0
M  V30 2917 H 256.314 -5.24061 -0.516489 0
M  V30 2918 H 258.805 -3.77885 0.0331115 0
M  V30 2919 H 259.118 -7.69689 0.69275 0
M  V30 2920 H 257.463 -6.92264 0.616087 0
M  V30 2921 H 260.654 -4.67932 0.125258 0
M  V30 2922 H 260.827 -6.46599 0.425831 0
M  V30 2923 N 254.233 0.115231 -1.57178 0
M  V30 2924 C 255.481 0.820727 -1.84685 0
M  V30 2925 C 255.802 1.80237 -0.744279 0
M  V30 2926 O 255.072 1.94529 0.231375 0
M  V30 2927 H 253.652 0.306084 -0.681411 0
M  V30 2928 H 256.314 0.101656 -1.94635 0
M  V30 2929 H 255.41 1.36366 -2.80733 0
M  V30 2930 N 255.711 1.52812 0.385517 0
M  V30 2931 C 256.641 1.80808 1.47752 0
M  V30 2932 C 257.622 0.660318 1.5676 0
M  V30 2933 O 258.807 0.908246 1.71652 0
M  V30 2934 C 255.937 1.98008 2.85324 0
M  V30 2935 C 254.891 3.13709 2.91154 0
M  V30 2936 C 254.217 3.16169 4.31209 0
M  V30 2937 C 255.517 4.52709 2.60483 0
M  V30 2938 H 257.211 2.72253 1.24573 0
M  V30 2939 H 254.757 1.31003 0.597839 0
M  V30 2940 H 256.71 2.16176 3.61726 0
M  V30 2941 H 255.434 1.03255 3.09848 0
M  V30 2942 H 254.093 2.95329 2.17201 0
M  V30 2943 H 253.741 2.19092 4.52778 0
M  V30 2944 H 253.441 3.93894 4.36029 0
M  V30 2945 H 254.965 3.36496 5.09512 0
M  V30 2946 H 256.379 4.71173 3.26602 0
M  V30 2947 H 254.776 5.32528 2.76648 0
M  V30 2948 H 255.846 4.59186 1.55809 0
M  V30 2949 N 257.189 -0.644168 1.43834 0
M  V30 2950 C 258.437 -1.40117 1.45642 0
M  V30 2951 C 258.758 -1.94814 0.0852413 0
M  V30 2952 O 258.028 -1.74988 -0.880688 0
M  V30 2953 H 256.608 -0.52005 0.536243 0
M  V30 2954 H 259.27 -0.7591 1.7951 0
M  V30 2955 H 258.366 -2.23902 2.17427 0
M  V30 2956 N 258.668 -1.30515 -0.883378 0
M  V30 2957 C 259.615 -1.17032 -1.98927 0
M  V30 2958 C 260.585 -0.0594241 -1.65994 0
M  V30 2959 O 261.77 -0.229895 -1.8941 0
M  V30 2960 C 258.91 -0.869777 -3.33959 0
M  V30 2961 C 258.023 -2.06271 -3.79574 0
M  V30 2962 C 257.158 -1.70011 -5.03259 0
M  V30 2963 C 256.197 -2.8579 -5.41286 0
M  V30 2964 N 255.334 -2.49816 -6.56153 0
M  V30 2965 H 260.174 -2.1164 -2.09792 0
M  V30 2966 H 257.711 -1.05296 -1.02719 0
M  V30 2967 H 259.669 -0.676138 -4.11685 0
M  V30 2968 H 258.299 0.0394332 -3.22776 0
M  V30 2969 H 257.351 -2.36755 -2.97744 0
M  V30 2970 H 258.663 -2.92971 -4.03694 0
M  V30 2971 H 257.817 -1.47032 -5.88614 0
M  V30 2972 H 256.556 -0.804829 -4.81013 0
M  V30 2973 H 255.561 -3.09434 -4.54456 0
M  V30 2974 H 256.786 -3.76008 -5.65504 0
M  V30 2975 H 254.732 -1.62795 -6.35479 0
M  V30 2976 H 254.649 -3.30048 -6.8015 0
M  V30 2977 H 255.917 -2.30197 -7.44735 0
M  V30 2978 N 260.146 1.09593 -1.13257 0
M  V30 2979 C 261.394 1.81375 -0.891492 0
M  V30 2980 C 261.715 1.86049 0.584009 0
M  V30 2981 O 260.985 1.34481 1.42449 0
M  V30 2982 H 259.565 0.671708 -0.326828 0
M  V30 2983 H 262.227 1.3256 -1.42877 0
M  V30 2984 H 261.323 2.84612 -1.28071 0
M  V30 2985 N 261.624 0.925811 1.2754 0
M  V30 2986 C 262.574 0.394488 2.24561 0
M  V30 2987 C 263.558 -0.500183 1.52928 0
M  V30 2988 O 264.75 -0.337936 1.73744 0
M  V30 2989 C 261.879 -0.353328 3.41477 0
M  V30 2990 C 260.965 0.557752 4.20416 0
M  V30 2991 N 261.356 1.67674 4.77199 0
M  V30 2992 C 259.654 0.360404 4.44541 0
M  V30 2993 C 260.355 2.24324 5.36706 0
M  V30 2994 N 259.331 1.53305 5.21535 0
M  V30 2995 H 263.133 1.2489 2.66045 0
M  V30 2996 H 260.647 0.779864 1.4245 0
M  V30 2997 H 262.644 -0.7509 4.10082 0
M  V30 2998 H 261.304 -1.20469 3.01525 0
M  V30 2999 H 262.315 2.05915 4.75204 0
M  V30 3000 H 258.992 -0.450454 4.15063 0
M  V30 3001 H 260.382 3.18521 5.91603 0
M  V30 3002 N 263.102 -1.41638 0.69111 0
M  V30 3003 C 264.049 -2.30789 0.0229705 0
M  V30 3004 C 265.019 -1.46863 -0.775911 0
M  V30 3005 O 266.204 -1.75661 -0.74485 0
M  V30 3006 C 263.344 -3.32868 -0.910666 0
M  V30 3007 C 262.457 -4.31875 -0.103874 0
M  V30 3008 C 261.592 -5.21024 -1.03475 0
M  V30 3009 C 260.631 -6.11702 -0.220598 0
M  V30 3010 N 259.768 -6.93349 -1.10504 0
M  V30 3011 H 264.608 -2.87366 0.788978 0
M  V30 3012 H 262.145 -1.41535 0.400794 0
M  V30 3013 H 264.103 -3.90596 -1.46597 0
M  V30 3014 H 262.733 -2.77851 -1.64312 0
M  V30 3015 H 261.785 -3.76131 0.568285 0
M  V30 3016 H 263.097 -4.96003 0.527504 0
M  V30 3017 H 262.251 -5.83565 -1.65943 0
M  V30 3018 H 260.99 -4.57112 -1.69999 0
M  V30 3019 H 259.995 -5.48215 0.417187 0
M  V30 3020 H 261.22 -6.77668 0.440784 0
M  V30 3021 H 259.166 -6.3205 -1.75638 0
M  V30 3022 H 259.083 -7.54146 -0.529125 0
M  V30 3023 H 260.351 -7.60362 -1.71667 0
M  V30 3024 N 264.58 -0.43555 -1.51462 0
M  V30 3025 C 265.827 0.131514 -2.02072 0
M  V30 3026 C 266.155 1.42868 -1.31981 0
M  V30 3027 O 265.41 1.91076 -0.422883 0
M  V30 3028 C 265.709 0.39942 -3.55161 0
M  V30 3029 C 265.375 -0.81172 -4.43533 0
M  V30 3030 C 264.037 -1.14387 -4.67407 0
M  V30 3031 C 266.389 -1.61976 -4.95392 0
M  V30 3032 C 263.717 -2.28477 -5.40384 0
M  V30 3033 C 266.069 -2.75164 -5.6962 0
M  V30 3034 C 264.733 -3.08835 -5.91758 0
M  V30 3035 H 264.003 0.0481244 -0.739436 0
M  V30 3036 H 266.65 -0.58238 -1.8243 0
M  V30 3037 H 264.955 1.19519 -3.73125 0
M  V30 3038 H 266.652 0.85157 -3.91854 0
M  V30 3039 H 263.242 -0.542898 -4.25148 0
M  V30 3040 H 267.426 -1.37637 -4.76833 0
M  V30 3041 H 262.682 -2.5488 -5.55739 0
M  V30 3042 H 266.856 -3.38147 -6.08793 0
M  V30 3043 H 264.483 -3.97353 -6.48086 0
M  V30 3044 N 266.058 1.56714 -0.166846 0
M  V30 3045 C 267.008 2.14338 0.777382 0
M  V30 3046 C 267.992 1.07642 1.19591 0
M  V30 3047 O 269.184 1.33775 1.15902 0
M  V30 3048 C 266.313 2.78417 2.00846 0
M  V30 3049 C 265.399 3.92264 1.61212 0
M  V30 3050 N 265.79 4.97268 0.925104 0
M  V30 3051 C 264.088 4.03342 1.90346 0
M  V30 3052 C 264.789 5.77093 0.730627 0
M  V30 3053 N 263.765 5.2854 1.27067 0
M  V30 3054 H 267.567 2.9289 0.243466 0
M  V30 3055 H 265.081 1.62364 0.0339954 0
M  V30 3056 H 267.078 3.18073 2.69509 0
M  V30 3057 H 265.738 2.01344 2.54736 0
M  V30 3058 H 266.749 5.14601 0.583646 0
M  V30 3059 H 263.426 3.37368 2.45946 0
M  V30 3060 H 264.816 6.71638 0.187668 0
M  V30 3061 N 267.536 -0.106894 1.57237 0
M  V30 3062 C 268.486 -1.1366 1.9765 0
M  V30 3063 C 269.47 -1.36416 0.853203 0
M  V30 3064 O 270.662 -1.37305 1.11697 0
M  V30 3065 C 267.791 -2.46 2.39455 0
M  V30 3066 C 266.877 -2.26668 3.58445 0
M  V30 3067 N 267.268 -1.77176 4.73754 0
M  V30 3068 C 265.566 -2.57279 3.64312 0
M  V30 3069 C 266.267 -1.71836 5.5574 0
M  V30 3070 N 265.243 -2.16623 4.98573 0
M  V30 3071 H 269.045 -0.74669 2.84256 0
M  V30 3072 H 266.559 -0.314483 1.59326 0
M  V30 3073 H 268.556 -3.2049 2.6663 0
M  V30 3074 H 267.216 -2.85738 1.54219 0
M  V30 3075 H 268.227 -1.46545 4.96734 0
M  V30 3076 H 264.904 -3.00622 2.89711 0
M  V30 3077 H 266.294 -1.34723 6.58255 0
M  V30 3078 N 269.014 -1.53014 -0.377408 0
M  V30 3079 C 270.242 -1.72515 -1.14219 0
M  V30 3080 C 270.657 -0.448735 -1.8339 0
M  V30 3081 O 270.014 0.577592 -1.73119 0
M  V30 3082 C 270.065 -2.8826 -2.18148 0
M  V30 3083 O 269.786 -4.10962 -1.51795 0
M  V30 3084 C 271.287 -3.19536 -3.07264 0
M  V30 3085 H 268.507 -0.577301 -0.342001 0
M  V30 3086 H 271.051 -1.99712 -0.439935 0
M  V30 3087 H 269.206 -2.63492 -2.83991 0
M  V30 3088 H 269.62 -4.75693 -2.20945 0
M  V30 3089 H 271.094 -4.03959 -3.76193 0
M  V30 3090 H 271.571 -2.34403 -3.71419 0
M  V30 3091 H 272.177 -3.46186 -2.47053 0
M  V30 3092 N 270.492 0.636531 -1.44174 0
M  V30 3093 C 271.741 1.39213 -1.45954 0
M  V30 3094 C 272.054 1.95374 -0.0939119 0
M  V30 3095 O 273.26 2.71498 0.0107767 0
M  V30 3096 C 271.716 2.52025 -2.56927 0
M  V30 3097 C 271.324 2.024 -3.99673 0
M  V30 3098 C 273.068 3.29269 -2.67922 0
M  V30 3099 C 270.975 3.12521 -5.0208 0
M  V30 3100 H 269.905 0.523132 -0.542999 0
M  V30 3101 H 272.556 0.685349 -1.70221 0
M  V30 3102 H 270.938 3.25253 -2.25891 0
M  V30 3103 H 272.112 1.36073 -4.40251 0
M  V30 3104 H 270.427 1.37987 -3.92872 0
M  V30 3105 H 273.024 4.11352 -3.41605 0
M  V30 3106 H 273.367 3.78397 -1.73555 0
M  V30 3107 H 273.9 2.63129 -2.98342 0
M  V30 3108 H 270.639 2.68343 -5.98057 0
M  V30 3109 H 270.159 3.77507 -4.66099 0
M  V30 3110 H 271.838 3.77385 -5.25538 0
M  V30 3111 N 271.97 1.30982 0.876444 0
M  V30 3112 C 273.218 1.20058 1.62575 0
M  V30 3113 C 273.539 -0.242947 1.93481 0
M  V30 3114 O 272.809 -1.1619 1.57724 0
M  V30 3115 H 271.389 0.44135 0.602677 0
M  V30 3116 H 274.051 1.64222 1.04962 0
M  V30 3117 H 273.147 1.76762 2.57219 0
M  V30 3118 N 273.449 -1.08991 1.13837 0
M  V30 3119 C 274.697 -1.80899 0.901098 0
M  V30 3120 C 275.018 -1.86356 -0.574134 0
M  V30 3121 O 274.288 -1.35235 -1.41733 0
M  V30 3122 H 272.868 -0.669966 0.330386 0
M  V30 3123 H 275.53 -1.318 1.43578 0
M  V30 3124 H 274.626 -2.83929 1.29578 0
M  V30 3125 N 274.927 -0.932562 -1.27047 0
M  V30 3126 C 276.152 -0.591474 -1.98787 0
M  V30 3127 C 276.577 0.824601 -1.69062 0
M  V30 3128 O 275.935 1.5541 -0.933677 0
M  V30 3129 C 275.983 -0.829808 -3.50922 0
M  V30 3130 O 275.087 0.102266 -4.12273 0
M  V30 3131 H 274.428 -0.227185 -0.623926 0
M  V30 3132 H 276.958 -1.25314 -1.61733 0
M  V30 3133 H 276.968 -0.747292 -4.01098 0
M  V30 3134 H 275.643 -1.86201 -3.7189 0
M  V30 3135 H 274.22 -0.0305761 -3.72887 0
M  V30 3136 N 276.405 1.4127 -0.698611 0
M  V30 3137 C 277.821 1.55241 -0.370462 0
M  V30 3138 C 278.021 1.67351 1.12231 0
M  V30 3139 O 277.077 1.65363 1.90818 0
M  V30 3140 C 278.39 2.78997 -1.12165 0
M  V30 3141 C 279.938 2.92797 -1.1063 0
M  V30 3142 C 280.413 4.19445 -1.8393 0
M  V30 3143 N 281.904 4.26409 -1.80914 0
M  V30 3144 C 282.639 5.23271 -2.34467 0
M  V30 3145 N 282.135 6.26145 -2.96504 0
M  V30 3146 N 283.928 5.15232 -2.24706 0
M  V30 3147 H 276.079 1.31654 -1.66676 0
M  V30 3148 H 278.342 0.635393 -0.703548 0
M  V30 3149 H 278.048 2.76268 -2.17644 0
M  V30 3150 H 277.922 3.70606 -0.702209 0
M  V30 3151 H 280.309 2.95039 -0.0597713 0
M  V30 3152 H 280.39 2.02353 -1.56483 0
M  V30 3153 H 280.034 4.17964 -2.88563 0
M  V30 3154 H 279.964 5.08866 -1.35509 0
M  V30 3155 H 282.455 3.527 -1.35687 0
M  V30 3156 H 282.768 6.96451 -3.34927 0
M  V30 3157 H 281.113 6.26638 -3.00583 0
M  V30 3158 H 284.304 4.33789 -1.7591 0
M  V30 3159 H 284.477 5.90552 -2.66745 0
M  V30 3160 N 277.883 0.443576 1.51229 0
M  V30 3161 C 279.299 0.0962001 1.5931 0
M  V30 3162 C 279.499 -1.39501 1.45402 0
M  V30 3163 O 278.555 -2.16557 1.29843 0
M  V30 3164 C 279.868 0.621875 2.94199 0
M  V30 3165 C 281.416 0.582865 3.07525 0
M  V30 3166 C 281.891 1.08562 4.44948 0
M  V30 3167 N 283.382 1.04387 4.51284 0
M  V30 3168 C 284.117 1.40368 5.55954 0
M  V30 3169 N 283.613 1.83664 6.68011 0
M  V30 3170 N 285.406 1.32145 5.46346 0
M  V30 3171 H 277.557 1.41376 1.58514 0
M  V30 3172 H 279.82 0.582965 0.747567 0
M  V30 3173 H 279.526 1.66546 3.09767 0
M  V30 3174 H 279.4 0.0502125 3.77167 0
M  V30 3175 H 281.787 -0.451749 2.91622 0
M  V30 3176 H 281.868 1.191 2.26382 0
M  V30 3177 H 281.512 2.11873 4.61598 0
M  V30 3178 H 281.442 0.453956 5.2464 0
M  V30 3179 H 283.933 0.725986 3.70861 0
M  V30 3180 H 284.246 2.0934 7.43906 0
M  V30 3181 H 282.591 1.87596 6.69203 0
M  V30 3182 H 285.782 0.981808 4.57688 0
M  V30 3183 H 285.955 1.60514 6.27805 0
M  V30 3184 N 279.361 -1.56624 0.175154 0
M  V30 3185 C 280.324 -2.16934 -0.739738 0
M  V30 3186 C 281.324 -1.11842 -1.15533 0
M  V30 3187 O 282.514 -1.37335 -1.07167 0
M  V30 3188 C 279.646 -2.75531 -2.00738 0
M  V30 3189 H 280.839 -2.99131 -0.214639 0
M  V30 3190 H 278.392 -1.56123 -0.0744197 0
M  V30 3191 H 279.127 -1.97078 -2.57548 0
M  V30 3192 H 278.912 -3.52444 -1.71831 0
M  V30 3193 H 280.402 -3.21904 -2.66021 0
M  V30 3194 N 280.839 0.0985539 -1.57292 0
M  V30 3195 C 281.802 1.10402 -2.00858 0
M  V30 3196 C 282.802 1.33146 -0.901593 0
M  V30 3197 O 283.992 1.29318 -1.16716 0
M  V30 3198 C 281.124 2.45394 -2.36632 0
M  V30 3199 H 282.317 0.729099 -2.90902 0
M  V30 3200 H 279.87 0.343495 -1.52479 0
M  V30 3201 H 280.605 2.87769 -1.49531 0
M  V30 3202 H 280.39 2.30235 -3.17387 0
M  V30 3203 H 281.88 3.17718 -2.71007 0
M  V30 3204 N 282.317 1.53212 0.369288 0
M  V30 3205 C 283.563 1.70413 1.11046 0
M  V30 3206 C 283.918 0.448509 1.87099 0
M  V30 3207 O 283.211 -0.558382 1.83283 0
M  V30 3208 C 283.405 2.89101 2.10132 0
M  V30 3209 C 283.234 4.26084 1.43814 0
M  V30 3210 C 282.004 4.90994 1.19384 0
M  V30 3211 C 284.202 5.06754 0.877802 0
M  V30 3212 N 282.184 6.11911 0.49377 0
M  V30 3213 C 283.555 6.1924 0.306891 0
M  V30 3214 C 285.61 4.91814 0.776129 0
M  V30 3215 C 284.313 7.1842 -0.355774 0
M  V30 3216 C 286.339 5.91263 0.127252 0
M  V30 3217 C 285.701 7.03069 -0.432801 0
M  V30 3218 H 281.8 0.676872 0.391623 0
M  V30 3219 H 284.384 1.90603 0.397334 0
M  V30 3220 H 282.555 2.70456 2.78761 0
M  V30 3221 H 284.287 2.95142 2.76899 0
M  V30 3222 H 281.042 4.50074 1.47413 0
M  V30 3223 H 281.466 6.76813 0.159207 0
M  V30 3224 H 286.108 4.05564 1.19489 0
M  V30 3225 H 283.826 8.04264 -0.786499 0
M  V30 3226 H 287.412 5.81779 0.0495613 0
M  V30 3227 H 286.292 7.78702 -0.926958 0
M  V30 3228 N 283.795 -0.628877 1.44509 0
M  V30 3229 C 285.211 -0.947305 1.28446 0
M  V30 3230 C 285.411 -2.00275 0.221872 0
M  V30 3231 O 284.467 -2.49447 -0.391471 0
M  V30 3232 C 285.78 -1.40843 2.65676 0
M  V30 3233 C 287.328 -1.52379 2.73404 0
M  V30 3234 C 287.803 -2.01875 4.11109 0
M  V30 3235 N 289.294 -2.09142 4.13296 0
M  V30 3236 C 290.029 -2.48615 5.16699 0
M  V30 3237 N 289.525 -2.87209 6.30462 0
M  V30 3238 N 291.318 -2.48768 5.04054 0
M  V30 3239 H 283.469 0.0690977 2.12288 0
M  V30 3240 H 285.732 -0.0317164 0.947469 0
M  V30 3241 H 285.438 -0.707206 3.44516 0
M  V30 3242 H 285.312 -2.37902 2.92716 0
M  V30 3243 H 287.699 -2.21598 1.9488 0
M  V30 3244 H 287.78 -0.536898 2.50102 0
M  V30 3245 H 287.424 -1.3325 4.90109 0
M  V30 3246 H 287.354 -3.0144 4.31789 0
M  V30 3247 H 289.845 -1.81991 3.31191 0
M  V30 3248 H 290.158 -3.16149 7.05174 0
M  V30 3249 H 288.503 -2.84955 6.33897 0
M  V30 3250 H 291.694 -2.18009 4.14234 0
M  V30 3251 H 291.867 -2.79207 5.84763 0
M  V30 3252 N 285.273 -1.31445 -0.869486 0
M  V30 3253 C 286.689 -1.10113 -1.15531 0
M  V30 3254 C 286.889 0.128087 -2.01092 0
M  V30 3255 O 285.945 0.817276 -2.38908 0
M  V30 3256 C 287.258 -2.37291 -1.84698 0
M  V30 3257 C 288.806 -2.42906 -1.97397 0
M  V30 3258 C 289.281 -3.69967 -2.69979 0
M  V30 3259 N 290.772 -3.70864 -2.77514 0
M  V30 3260 C 291.507 -4.65875 -3.34287 0
M  V30 3261 N 291.003 -5.71242 -3.91988 0
M  V30 3262 N 292.796 -4.53394 -3.3225 0
M  V30 3263 H 284.947 -2.1028 -0.299347 0
M  V30 3264 H 287.21 -0.927683 -0.195214 0
M  V30 3265 H 286.916 -3.27078 -1.29278 0
M  V30 3266 H 286.79 -2.47125 -2.84972 0
M  V30 3267 H 289.177 -1.53588 -2.51982 0
M  V30 3268 H 289.258 -2.37036 -0.961643 0
M  V30 3269 H 288.902 -4.59652 -2.16062 0
M  V30 3270 H 288.832 -3.73103 -3.7162 0
M  V30 3271 H 291.323 -2.94697 -2.36563 0
M  V30 3272 H 291.636 -6.39817 -4.33421 0
M  V30 3273 H 289.981 -5.75015 -3.90362 0
M  V30 3274 H 293.172 -3.70252 -2.8641 0
M  V30 3275 H 293.345 -5.27617 -3.76197 0
M  V30 3276 N 286.751 1.08385 -1.14413 0
M  V30 3277 C 288.167 1.32844 -0.884563 0
M  V30 3278 C 288.367 1.95841 0.474181 0
M  V30 3279 O 287.423 2.21158 1.21842 0
M  V30 3280 C 288.736 2.22978 -2.01745 0
M  V30 3281 C 290.284 2.36458 -2.05077 0
M  V30 3282 C 290.759 3.29934 -3.1766 0
M  V30 3283 N 292.25 3.37511 -3.17239 0
M  V30 3284 C 292.985 4.09871 -4.0099 0
M  V30 3285 N 292.481 4.84936 -4.94781 0
M  V30 3286 N 294.274 4.05704 -3.89051 0
M  V30 3287 H 286.425 0.658756 -2.01926 0
M  V30 3288 H 288.688 0.352821 -0.879899 0
M  V30 3289 H 288.394 1.83934 -2.99769 0
M  V30 3290 H 288.268 3.23441 -1.94077 0
M  V30 3291 H 290.655 2.7476 -1.0766 0
M  V30 3292 H 290.736 1.35736 -2.16816 0
M  V30 3293 H 290.38 2.92352 -4.15322 0
M  V30 3294 H 290.31 4.30584 -3.03158 0
M  V30 3295 H 292.801 2.83996 -2.49308 0
M  V30 3296 H 293.114 5.37612 -5.55151 0
M  V30 3297 H 291.459 4.83988 -4.98779 0
M  V30 3298 H 294.65 3.46167 -3.15097 0
M  V30 3299 H 294.823 4.61834 -4.54547 0
M  V30 3300 N 288.23 0.939286 1.26551 0
M  V30 3301 C 289.178 0.43815 2.28436 0
M  V30 3302 C 290.172 -0.483587 1.62351 0
M  V30 3303 O 291.378 -0.362009 1.76322 0
M  V30 3304 H 287.753 0.123149 0.741848 0
M  V30 3305 H 289.724 1.31002 2.68106 0
M  V30 3306 C 288.473 -0.283052 3.46546 0
M  V30 3307 H 287.796 0.417043 3.97619 0
M  V30 3308 H 289.236 -0.597948 4.19763 0
M  V30 3309 C 287.695 -1.50018 3.01656 0
M  V30 3310 O 288.225 -2.59855 3.0633 0
M  V30 3311 N 286.431 -1.35608 2.57019 0
M  V30 3312 H 285.978 -0.46244 2.53415 0
M  V30 3313 H 285.936 -2.17165 2.27347 0
M  V30 3314 N 289.708 -1.40897 0.706093 0
M  V30 3315 C 290.936 -2.05373 0.250887 0
M  V30 3316 C 291.351 -1.53172 -1.10381 0
M  V30 3317 O 290.708 -0.684305 -1.69185 0
M  V30 3318 C 290.759 -3.6088 0.211571 0
M  V30 3319 O 290.48 -4.11153 1.51276 0
M  V30 3320 C 291.981 -4.42517 -0.263346 0
M  V30 3321 H 289.201 -0.66115 0.114552 0
M  V30 3322 H 291.745 -1.80479 0.961635 0
M  V30 3323 H 289.9 -3.84777 -0.450073 0
M  V30 3324 H 290.314 -5.05279 1.40689 0
M  V30 3325 H 291.788 -5.51479 -0.239718 0
M  V30 3326 H 292.265 -4.19396 -1.30397 0
M  V30 3327 H 292.871 -4.23708 0.367677 0
M  V30 3328 N 291.186 -0.45159 -1.50991 0
M  V30 3329 C 292.116 0.342898 -2.30969 0
M  V30 3330 C 293.097 1.00815 -1.37005 0
M  V30 3331 O 294.282 1.00907 -1.65926 0
M  V30 3332 C 291.412 1.43637 -3.16205 0
M  V30 3333 C 290.366 0.893818 -4.18563 0
M  V30 3334 C 289.692 2.08411 -4.92411 0
M  V30 3335 C 290.992 -0.0815568 -5.22236 0
M  V30 3336 H 292.686 -0.324556 -2.97636 0
M  V30 3337 H 290.232 -0.157531 -1.43136 0
M  V30 3338 H 292.185 1.9995 -3.70942 0
M  V30 3339 H 290.909 2.13232 -2.47386 0
M  V30 3340 H 289.568 0.352798 -3.64898 0
M  V30 3341 H 289.216 2.76658 -4.20082 0
M  V30 3342 H 288.916 1.72741 -5.61636 0
M  V30 3343 H 290.44 2.65251 -5.49976 0
M  V30 3344 H 291.854 0.391742 -5.7196 0
M  V30 3345 H 290.251 -0.351551 -5.99069 0
M  V30 3346 H 291.321 -1.01374 -4.74185 0
M  V30 3347 N 292.664 1.56529 -0.183458 0
M  V30 3348 C 293.596 2.15747 0.773697 0
M  V30 3349 C 294.609 1.1162 1.1851 0
M  V30 3350 O 295.798 1.3876 1.12285 0
M  V30 3351 C 292.898 2.6952 2.05456 0
M  V30 3352 C 292.071 3.98429 1.8048 0
M  V30 3353 C 291.13 4.37145 2.92901 0
M  V30 3354 O 290.156 5.04791 2.6301 0
M  V30 3355 N 291.358 3.99695 4.2098 0
M  V30 3356 H 294.123 2.98505 0.26736 0
M  V30 3357 H 291.684 1.619 -0.0010878 0
M  V30 3358 H 293.676 2.92412 2.79781 0
M  V30 3359 H 292.246 1.91282 2.47245 0
M  V30 3360 H 291.466 3.8379 0.899947 0
M  V30 3361 H 292.754 4.82597 1.61175 0
M  V30 3362 H 292.152 3.4526 4.48121 0
M  V30 3363 H 290.709 4.27562 4.9197 0
M  V30 3364 N 294.142 -0.090211 1.57342 0
M  V30 3365 C 295.072 -1.10976 2.05443 0
M  V30 3366 C 296.053 -1.41482 0.944284 0
M  V30 3367 O 297.238 -1.51428 1.21586 0
M  V30 3368 C 294.368 -2.42831 2.48295 0
M  V30 3369 C 293.322 -2.26721 3.63018 0
M  V30 3370 C 292.648 -3.63796 3.91863 0
M  V30 3371 C 293.948 -1.7037 4.93732 0
M  V30 3372 H 295.642 -0.709564 2.9087 0
M  V30 3373 H 293.188 -0.339874 1.39932 0
M  V30 3374 H 295.141 -3.14431 2.80555 0
M  V30 3375 H 293.865 -2.84795 1.59873 0
M  V30 3376 H 292.524 -1.57565 3.31012 0
M  V30 3377 H 292.172 -4.03297 3.00601 0
M  V30 3378 H 291.872 -3.53861 4.69101 0
M  V30 3379 H 293.396 -4.36855 4.26603 0
M  V30 3380 H 294.81 -2.31816 5.24342 0
M  V30 3381 H 293.207 -1.71181 5.75167 0
M  V30 3382 H 294.277 -0.663542 4.80339 0
M  V30 3383 N 295.62 -1.53406 -0.361157 0
M  V30 3384 C 296.57 -1.76536 -1.44287 0
M  V30 3385 C 297.554 -0.620019 -1.48474 0
M  V30 3386 O 298.746 -0.878834 -1.53641 0
M  V30 3387 C 295.875 -1.96266 -2.81664 0
M  V30 3388 C 294.961 -3.16815 -2.81938 0
M  V30 3389 N 295.352 -4.38637 -2.51855 0
M  V30 3390 C 293.65 -3.17627 -3.13096 0
M  V30 3391 C 294.351 -5.20401 -2.59919 0
M  V30 3392 N 293.327 -4.56712 -2.94814 0
M  V30 3393 H 297.129 -2.68331 -1.19899 0
M  V30 3394 H 294.643 -1.52091 -0.56938 0
M  V30 3395 H 296.64 -2.10966 -3.59582 0
M  V30 3396 H 295.3 -1.05702 -3.07013 0
M  V30 3397 H 296.311 -4.66293 -2.25369 0
M  V30 3398 H 292.988 -2.36971 -3.43731 0
M  V30 3399 H 294.378 -6.27586 -2.39969 0
M  V30 3400 N 297.098 0.621204 -1.44841 0
M  V30 3401 C 298.514 0.94048 -1.28946 0
M  V30 3402 C 298.714 2.00154 -0.23249 0
M  V30 3403 O 297.77 2.49651 0.378237 0
M  V30 3404 C 299.083 1.39433 -2.66419 0
M  V30 3405 C 300.631 1.50927 -2.74208 0
M  V30 3406 C 301.106 1.99692 -4.12174 0
M  V30 3407 N 302.597 2.06947 -4.144 0
M  V30 3408 C 303.332 2.45871 -5.1801 0
M  V30 3409 N 302.828 2.83862 -6.31977 0
M  V30 3410 N 304.621 2.46092 -5.05366 0
M  V30 3411 H 296.772 -0.0803548 -2.12248 0
M  V30 3412 H 299.035 0.0266913 -0.947624 0
M  V30 3413 H 298.741 0.688925 -3.44887 0
M  V30 3414 H 298.615 2.36347 -2.93973 0
M  V30 3415 H 301.002 2.20561 -1.96053 0
M  V30 3416 H 301.083 0.523627 -2.50383 0
M  V30 3417 H 300.727 1.30649 -4.90809 0
M  V30 3418 H 300.657 2.99146 -4.33381 0
M  V30 3419 H 303.148 1.80232 -3.32152 0
M  V30 3420 H 303.461 3.12405 -7.0684 0
M  V30 3421 H 301.806 2.8159 -6.35399 0
M  V30 3422 H 304.997 2.1581 -4.15384 0
M  V30 3423 H 305.17 2.76102 -5.86235 0
M  V30 3424 N 298.576 1.31904 0.862503 0
M  V30 3425 C 299.806 1.24817 1.64634 0
M  V30 3426 C 300.214 -0.187579 1.88268 0
M  V30 3427 O 299.557 -1.13253 1.44635 0
M  V30 3428 C 299.619 1.92996 3.03303 0
M  V30 3429 C 299.283 3.42336 3.02746 0
M  V30 3430 C 300.28 4.37956 2.80162 0
M  V30 3431 C 297.965 3.84147 3.2363 0
M  V30 3432 C 299.959 5.73361 2.78453 0
M  V30 3433 C 297.646 5.19663 3.21549 0
M  V30 3434 C 298.644 6.14081 2.98988 0
M  V30 3435 O 298.332 7.47118 2.96766 0
M  V30 3436 H 298.064 0.432222 0.519769 0
M  V30 3437 H 300.618 1.7445 1.08427 0
M  V30 3438 H 298.848 1.37922 3.61268 0
M  V30 3439 H 300.537 1.79723 3.63943 0
M  V30 3440 H 301.303 4.06981 2.63802 0
M  V30 3441 H 297.182 3.11083 3.40218 0
M  V30 3442 H 300.726 6.4703 2.60763 0
M  V30 3443 H 296.623 5.5027 3.37451 0
M  V30 3444 H 297.391 7.56382 3.12775 0
M  V30 3445 N 300.054 -1.07777 1.14986 0
M  V30 3446 C 301.47 -1.32373 0.891596 0
M  V30 3447 C 301.67 -1.9609 -0.463788 0
M  V30 3448 O 300.726 -2.21801 -1.20667 0
M  V30 3449 C 302.039 -2.21905 2.02925 0
M  V30 3450 C 303.587 -2.35367 2.06329 0
M  V30 3451 C 304.062 -3.28245 3.19405 0
M  V30 3452 N 305.553 -3.35824 3.19024 0
M  V30 3453 C 306.288 -4.07739 4.03158 0
M  V30 3454 N 305.784 -4.82306 4.97346 0
M  V30 3455 N 307.577 -4.03635 3.91197 0
M  V30 3456 H 299.728 -0.648039 2.02273 0
M  V30 3457 H 301.991 -0.348149 0.881757 0
M  V30 3458 H 301.697 -1.82342 3.0074 0
M  V30 3459 H 301.571 -3.22407 1.95789 0
M  V30 3460 H 303.958 -2.74186 1.09116 0
M  V30 3461 H 304.039 -1.34585 2.17533 0
M  V30 3462 H 303.683 -2.90146 4.16867 0
M  V30 3463 H 303.613 -4.28971 3.05437 0
M  V30 3464 H 306.104 -2.8267 2.50811 0
M  V30 3465 H 306.417 -5.34661 5.57994 0
M  V30 3466 H 304.762 -4.81337 5.01338 0
M  V30 3467 H 307.953 -3.44491 3.16928 0
M  V30 3468 H 308.126 -4.59417 4.5699 0
M  V30 3469 O 301.571 -1.07645 -1.20395 0
M  V30 3470 H 302.262 -0.764187 -1.77988 0
M  V30 END ATOM
M  V30 BEGIN BOND
M  V30 END BOND
M  V30 END CTAB
M  END
$$$$
