drugbank_target|Q9HC97 G-protein coupled receptor 35 (DB00695; DB11156; DB11937)
 OpenBabel12092121023D

  0  0  0     0  0            999 V3000
M  V30 BEGIN CTAB
M  V30 COUNTS 4853 4907 0 0 0
M  V30 BEGIN ATOM
M  V30 1 H -0.908 1.98254 -0.117106 0
M  V30 2 N 0 1.576 0 0
M  V30 3 C 0.933 2.03868 1.02534 0
M  V30 4 C 1.911 0.928543 1.3348 0
M  V30 5 O 3.095 1.19667 1.45644 0
M  V30 6 C 0.222 2.43627 2.35294 0
M  V30 7 C -0.732 3.65373 2.2001 0
M  V30 8 S 0.101 5.13292 1.52614 0
M  V30 9 C 1.257 5.56322 2.86805 0
M  V30 10 H 1.49 2.90518 0.631377 0
M  V30 11 H -0.977 1.52953 0.210867 0
M  V30 12 H 0.981 2.67203 3.11629 0
M  V30 13 H -0.358 1.57376 2.7183 0
M  V30 14 H -1.165 3.90944 3.18086 0
M  V30 15 H -1.563 3.418 1.51819 0
M  V30 16 H 0.729 5.58782 3.83104 0
M  V30 17 H 1.672 6.56266 2.65933 0
M  V30 18 H 2.08 4.83886 2.90714 0
M  V30 19 N 1.4781 -0.272755 1.55222 0
M  V30 20 C 2.4261 -1.35705 1.88909 0
M  V30 21 C 3.4201 -1.5112 0.765456 0
M  V30 22 O 4.6261 -1.52901 0.949802 0
M  V30 23 H 1.0011 -0.453868 0.59959 0
M  V30 24 H 2.9721 -1.04544 2.79487 0
M  V30 25 C 1.7211 -2.71049 2.17779 0
M  V30 26 H 1.0441 -2.59979 3.03728 0
M  V30 27 H 2.4841 -3.45858 2.45272 0
M  V30 28 C 0.9431 -3.22165 0.985473 0
M  V30 29 O 1.4731 -4.01096 0.220233 0
M  V30 30 N -0.3209 -2.7985 0.783108 0
M  V30 31 H -0.7739 -2.15775 1.40708 0
M  V30 32 H -0.8159 -3.14397 -0.0130392 0
M  V30 33 N 2.9562 -1.48159 -0.537278 0
M  V30 34 C 4.2042 -1.55497 -1.29094 0
M  V30 35 C 4.5252 -0.227454 -1.93669 0
M  V30 36 O 3.7952 0.750386 -1.80959 0
M  V30 37 H 2.3752 -0.572832 -0.47945 0
M  V30 38 H 5.0372 -1.84579 -0.625818 0
M  V30 39 H 4.1332 -2.33216 -2.07405 0
M  V30 40 N 4.4343 0.785586 -1.36625 0
M  V30 41 C 5.6623 1.57448 -1.3423 0
M  V30 42 C 6.0773 1.88649 0.0755653 0
M  V30 43 O 5.4343 1.50414 1.03354 0
M  V30 44 C 5.4853 2.89316 -2.16745 0
M  V30 45 O 5.2063 2.59459 -3.53005 0
M  V30 46 C 6.7073 3.83606 -2.22174 0
M  V30 47 H 3.9273 0.488226 -0.4603 0
M  V30 48 H 6.4713 0.974733 -1.79775 0
M  V30 49 H 4.6263 3.4575 -1.74745 0
M  V30 50 H 5.0403 3.43804 -3.96105 0
M  V30 51 H 6.5143 4.73181 -2.8426 0
M  V30 52 H 6.9913 4.21734 -1.22627 0
M  V30 53 H 7.5973 3.33104 -2.64427 0
M  V30 54 N 5.9124 1.20967 1.01018 0
M  V30 55 C 7.1424 1.04803 1.78044 0
M  V30 56 C 7.5504 -0.405462 1.84804 0
M  V30 57 O 6.8934 -1.2932 1.30468 0
M  V30 58 C 6.9554 1.56377 3.23707 0
M  V30 59 C 6.6194 3.04767 3.40538 0
M  V30 60 C 7.6164 4.02366 3.29239 0
M  V30 61 C 5.3014 3.43862 3.66147 0
M  V30 62 C 7.2954 5.37049 3.43304 0
M  V30 63 C 4.9824 4.78699 3.79855 0
M  V30 64 C 5.9804 5.75101 3.68439 0
M  V30 65 O 5.6684 7.07493 3.81719 0
M  V30 66 H 5.4004 0.368778 0.56655 0
M  V30 67 H 7.9544 1.60642 1.27997 0
M  V30 68 H 6.1844 0.949297 3.74867 0
M  V30 69 H 7.8734 1.36136 3.8239 0
M  V30 70 H 8.6394 3.73506 3.09384 0
M  V30 71 H 4.5184 2.69364 3.74118 0
M  V30 72 H 8.0624 6.12277 3.34309 0
M  V30 73 H 3.9594 5.07247 3.99213 0
M  V30 74 H 4.7274 7.1483 3.98697 0
M  V30 75 N 7.3905 -1.2043 1.01659 0
M  V30 76 C 8.3385 -2.25249 0.580143 0
M  V30 77 C 9.3325 -1.65057 -0.381115 0
M  V30 78 O 10.5385 -1.78241 -0.251039 0
M  V30 79 H 6.9135 -0.732695 0.169299 0
M  V30 80 H 8.8845 -2.59389 1.47512 0
M  V30 81 C 7.6335 -3.47638 -0.065788 0
M  V30 82 H 6.9565 -3.94233 0.664874 0
M  V30 83 H 8.3965 -4.2268 -0.334282 0
M  V30 84 C 6.8555 -3.10447 -1.3086 0
M  V30 85 O 7.3855 -3.21981 -2.4019 0
M  V30 86 N 5.5915 -2.64996 -1.1927 0
M  V30 87 H 5.1385 -2.55811 -0.303064 0
M  V30 88 H 5.0965 -2.40482 -2.02523 0
M  V30 89 N 8.8686 -0.792821 -1.36206 0
M  V30 90 C 10.0966 -0.378825 -2.03402 0
M  V30 91 C 10.5116 1.00586 -1.59774 0
M  V30 92 O 9.8686 1.64574 -0.788764 0
M  V30 93 C 9.9196 -0.43683 -3.58851 0
M  V30 94 O 9.6406 -1.76691 -4.00889 0
M  V30 95 C 11.1416 -0.0138943 -4.43298 0
M  V30 96 H 8.3616 -0.155673 -0.652692 0
M  V30 97 H 10.9056 -1.07261 -1.74113 0
M  V30 98 H 9.0606 0.208575 -3.86838 0
M  V30 99 H 9.4746 -1.72011 -4.95492 0
M  V30 100 H 10.9486 -0.105615 -5.51899 0
M  V30 101 H 11.4256 1.03915 -4.2673 0
M  V30 102 H 12.0316 -0.63192 -4.20579 0
M  V30 103 N 10.3467 1.47872 -0.545128 0
M  V30 104 C 11.5867 2.04391 -0.0187854 0
M  V30 105 C 11.9507 1.41162 1.30144 0
M  V30 106 O 13.1517 1.88656 1.91474 0
M  V30 107 C 11.4227 3.57299 0.0850867 0
M  V30 108 S 12.9817 4.35221 0.559302 0
M  V30 109 H 9.7997 0.710737 -0.0193301 0
M  V30 110 H 12.4017 1.81395 -0.729125 0
M  V30 111 H 11.1057 4.00847 -0.880351 0
M  V30 112 H 10.6367 3.84773 0.819348 0
M  V30 113 H 12.6517 4.61571 1.82118 0
M  V30 114 N 11.8248 0.280983 1.55075 0
M  V30 115 C 13.0728 -0.333455 1.9933 0
M  V30 116 C 13.3938 -1.55937 1.17085 0
M  V30 117 O 12.6638 -1.94143 0.261805 0
M  V30 118 H 11.2438 -0.126197 0.736263 0
M  V30 119 H 13.9058 0.387678 1.91005 0
M  V30 120 H 13.0018 -0.619292 3.05894 0
M  V30 121 N 13.3029 -1.57598 0.00835791 0
M  V30 122 C 14.5279 -1.95617 -0.689103 0
M  V30 123 C 14.9529 -0.883753 -1.66046 0
M  V30 124 O 14.3109 0.157352 -1.80616 0
M  V30 125 C 14.3589 -3.32736 -1.38994 0
M  V30 126 O 13.4629 -3.27631 -2.50463 0
M  V30 127 H 12.8039 -0.638379 -0.182668 0
M  V30 128 H 15.3339 -2.045 0.064036 0
M  V30 129 H 15.3439 -3.68494 -1.75147 0
M  V30 130 H 14.0189 -4.1034 -0.677778 0
M  V30 131 H 12.5959 -3.03561 -2.16576 0
M  V30 132 N 14.781 0.264519 -1.55364 0
M  V30 133 C 16.006 1.01726 -1.80739 0
M  V30 134 C 16.431 1.78836 -0.583044 0
M  V30 135 O 15.789 1.75167 0.467566 0
M  V30 136 C 15.837 1.94482 -3.03659 0
M  V30 137 O 14.941 3.03386 -2.7934 0
M  V30 138 H 14.282 0.290395 -0.597132 0
M  V30 139 H 16.812 0.290854 -2.02522 0
M  V30 140 H 16.822 2.36278 -3.32621 0
M  V30 141 H 15.497 1.37772 -3.92418 0
M  V30 142 H 14.074 2.65844 -2.61498 0
M  V30 143 N 16.2591 1.48442 0.529413 0
M  V30 144 C 17.5361 1.46978 1.29062 0
M  V30 145 C 17.9161 0.181769 2.10316 0
M  V30 146 O 17.2641 -0.836481 2.12639 0
M  V30 147 C 17.4741 2.7321 2.17157 0
M  V30 148 C 18.8221 3.21562 2.77278 0
M  V30 149 O 19.8461 2.74131 2.27444 0
M  V30 150 O 18.7051 4.04094 3.67927 0
M  V30 151 H 15.7991 0.587003 0.582543 0
M  V30 152 H 18.3451 1.60676 0.546021 0
M  V30 153 H 17.1171 3.58465 1.56903 0
M  V30 154 H 16.7401 2.62235 2.98862 0
M  V30 155 N 17.7372 -0.778329 1.37039 0
M  V30 156 C 18.6672 -1.90546 1.34962 0
M  V30 157 C 19.6482 -1.68681 0.219274 0
M  V30 158 O 20.8332 -1.89634 0.418624 0
M  V30 159 C 17.9632 -3.27734 1.14925 0
M  V30 160 C 16.9172 -3.64147 2.24902 0
M  V30 161 C 16.2432 -4.99806 1.89996 0
M  V30 162 C 17.5432 -3.71579 3.67051 0
M  V30 163 H 19.2372 -1.92541 2.29277 0
M  V30 164 H 16.7832 -0.924948 1.10366 0
M  V30 165 H 18.7362 -4.06215 1.12104 0
M  V30 166 H 17.4602 -3.26154 0.170631 0
M  V30 167 H 16.1192 -2.8797 2.26868 0
M  V30 168 H 15.7672 -4.94759 0.906796 0
M  V30 169 H 15.4672 -5.25139 2.63634 0
M  V30 170 H 16.9912 -5.80694 1.88749 0
M  V30 171 H 18.4052 -4.40227 3.67251 0
M  V30 172 H 16.8022 -4.08405 4.39688 0
M  V30 173 H 17.8722 -2.72404 4.01154 0
M  V30 174 N 19.2153 -1.21501 -1.00376 0
M  V30 175 C 20.4433 -1.059 -1.77744 0
M  V30 176 C 20.8583 0.391125 -1.84704 0
M  V30 177 O 20.2153 1.27133 -1.30933 0
M  V30 178 C 20.2663 -1.65111 -3.21591 0
M  V30 179 O 19.9873 -3.0445 -3.15027 0
M  V30 180 C 21.4883 -1.54637 -4.15454 0
M  V30 181 H 18.7083 -0.371825 -0.558558 0
M  V30 182 H 21.2523 -1.60865 -1.26264 0
M  V30 183 H 19.4073 -1.14235 -3.70175 0
M  V30 184 H 19.8213 -3.3278 -4.0541 0
M  V30 185 H 21.2953 -2.00808 -5.14179 0
M  V30 186 H 21.7723 -0.501022 -4.36333 0
M  V30 187 H 22.3783 -2.04767 -3.72761 0
M  V30 188 N 20.6934 1.19889 -1.02296 0
M  V30 189 C 21.9394 1.89973 -0.726759 0
M  V30 190 C 22.2944 1.7776 0.73614 0
M  V30 191 O 21.5874 1.15523 1.52856 0
M  V30 192 C 21.7814 3.39883 -1.10518 0
M  V30 193 C 21.6104 3.66684 -2.60332 0
M  V30 194 C 20.3804 3.85045 -3.27213 0
M  V30 195 C 22.5784 3.68727 -3.58532 0
M  V30 196 N 20.5604 3.99422 -4.66192 0
M  V30 197 C 21.9314 3.88604 -4.83101 0
M  V30 198 C 23.9864 3.51722 -3.52414 0
M  V30 199 C 22.6894 3.9324 -6.02292 0
M  V30 200 C 24.7154 3.57632 -4.71013 0
M  V30 201 C 24.0774 3.77988 -5.94394 0
M  V30 202 H 20.1764 0.714551 -0.317712 0
M  V30 203 H 22.7604 1.44123 -1.30907 0
M  V30 204 H 20.9314 3.8447 -0.551142 0
M  V30 205 H 22.6634 3.97464 -0.761853 0
M  V30 206 H 19.4184 3.83689 -2.77632 0
M  V30 207 H 19.8424 4.10473 -5.38368 0
M  V30 208 H 24.4844 3.34945 -2.58015 0
M  V30 209 H 22.2024 4.08811 -6.97065 0
M  V30 210 H 25.7884 3.45773 -4.67902 0
M  V30 211 H 24.6684 3.82428 -6.8463 0
M  V30 212 N 22.1715 0.800033 1.35784 0
M  V30 213 C 23.5825 0.439142 1.81462 0
M  V30 214 C 23.9335 -1.03813 1.66485 0
M  V30 215 O 23.0585 -1.80626 1.19177 0
M  V30 216 C 23.6535 0.790314 3.29453 0
M  V30 217 C 22.2125 0.482111 3.733 0
M  V30 218 C 21.3595 1.01938 2.57883 0
M  V30 219 H 24.3105 0.992254 1.23855 0
M  V30 220 H 24.3315 0.0853677 3.80404 0
M  V30 221 H 23.8435 1.86554 3.40322 0
M  V30 222 H 21.9445 -0.584652 3.67984 0
M  V30 223 H 22.0575 1.01015 4.6833 0
M  V30 224 H 20.4215 0.442043 2.50835 0
M  V30 225 H 21.2045 2.10059 2.71533 0
M  V30 226 N 23.6496 -1.47581 0.552962 0
M  V30 227 C 25.0606 -1.86324 0.118463 0
M  V30 228 C 25.4116 -1.46006 -1.3106 0
M  V30 229 O 24.5366 -0.861182 -1.98526 0
M  V30 230 C 25.1316 -3.3816 0.20821 0
M  V30 231 C 23.6906 -3.7601 -0.171226 0
M  V30 232 C 22.8376 -2.71634 0.557686 0
M  V30 233 H 25.7886 -1.39159 0.762928 0
M  V30 234 H 25.8096 -3.76141 -0.574278 0
M  V30 235 H 25.3216 -3.67473 1.24841 0
M  V30 236 H 23.4226 -3.52313 -1.21269 0
M  V30 237 H 23.5356 -4.78745 0.184379 0
M  V30 238 H 21.8996 -2.547 0.00125792 0
M  V30 239 H 22.6826 -3.0379 1.59896 0
M  V30 240 N 25.1277 -0.289203 -1.54924 0
M  V30 241 C 26.0907 0.579144 -2.21762 0
M  V30 242 C 27.0907 1.07047 -1.1999 0
M  V30 243 O 28.2807 0.968384 -1.44803 0
M  V30 244 C 25.4127 1.80055 -2.8947 0
M  V30 245 H 26.6057 -0.00464908 -2.999 0
M  V30 246 H 24.1587 -0.0399306 -1.56249 0
M  V30 247 H 24.8937 2.42449 -2.15381 0
M  V30 248 H 24.6787 1.45602 -3.64064 0
M  V30 249 H 26.1687 2.41773 -3.40493 0
M  V30 250 N 26.6058 1.57591 -0.0167156 0
M  V30 251 C 27.8548 1.90461 0.663877 0
M  V30 252 C 28.1678 0.893515 1.73999 0
M  V30 253 O 29.3738 1.11302 2.47637 0
M  V30 254 C 27.8298 3.38155 1.23204 0
M  V30 255 C 27.4378 4.47597 0.189866 0
M  V30 256 C 29.1818 3.80111 1.88986 0
M  V30 257 C 27.0888 5.86379 0.768964 0
M  V30 258 H 26.0188 0.710738 0.251729 0
M  V30 259 H 28.6698 1.83326 -0.0799926 0
M  V30 260 H 27.0518 3.40182 2.02712 0
M  V30 261 H 28.2258 4.57112 -0.581846 0
M  V30 262 H 26.5408 4.14766 -0.368475 0
M  V30 263 H 29.1378 4.81145 2.33247 0
M  V30 264 H 29.4808 3.14511 2.72743 0
M  V30 265 H 30.0138 3.80454 1.16187 0
M  V30 266 H 26.7528 6.55493 -0.0301957 0
M  V30 267 H 26.2728 5.80496 1.50945 0
M  V30 268 H 27.9518 6.34563 1.26251 0
M  V30 269 N 28.0839 -0.256276 1.55502 0
M  V30 270 C 29.0309 -1.31714 1.89526 0
M  V30 271 C 30.0009 -1.4828 0.748479 0
M  V30 272 O 31.1859 -1.62416 1.00128 0
M  V30 273 C 28.3259 -2.66933 2.18725 0
M  V30 274 C 27.4389 -2.58452 3.4616 0
M  V30 275 C 26.5739 -3.85961 3.64976 0
M  V30 276 C 25.6129 -3.72059 4.86044 0
M  V30 277 N 24.7499 -4.9144 5.01429 0
M  V30 278 H 29.5899 -1.01998 2.80001 0
M  V30 279 H 27.1269 -0.492413 1.38613 0
M  V30 280 H 29.0849 -3.4563 2.33657 0
M  V30 281 H 27.7149 -2.94816 1.31466 0
M  V30 282 H 26.7669 -1.71374 3.3961 0
M  V30 283 H 28.0789 -2.44085 4.34999 0
M  V30 284 H 27.2329 -4.73101 3.79816 0
M  V30 285 H 25.9719 -4.03215 2.74353 0
M  V30 286 H 24.9769 -2.83302 4.7119 0
M  V30 287 H 26.2019 -3.56309 5.78118 0
M  V30 288 H 24.1479 -5.09072 4.13741 0
M  V30 289 H 24.0649 -4.79668 5.84341 0
M  V30 290 H 25.3329 -5.80104 5.20672 0
M  V30 291 N 29.562 -1.4872 -0.521534 0
M  V30 292 C 30.492 -1.66771 -1.63431 0
M  V30 293 C 31.473 -0.516499 -1.62069 0
M  V30 294 O 32.658 -0.750013 -1.79132 0
M  V30 295 C 29.788 -1.71515 -3.01993 0
M  V30 296 C 28.742 -2.86222 -3.18216 0
M  V30 297 C 28.068 -2.76061 -4.57924 0
M  V30 298 C 29.368 -4.27419 -3.00184 0
M  V30 299 H 31.062 -2.59932 -1.48579 0
M  V30 300 H 28.608 -1.25089 -0.713358 0
M  V30 301 H 30.561 -1.82731 -3.7972 0
M  V30 302 H 29.285 -0.749393 -3.17886 0
M  V30 303 H 27.944 -2.74575 -2.42908 0
M  V30 304 H 27.592 -1.77437 -4.70665 0
M  V30 305 H 27.292 -3.53037 -4.69722 0
M  V30 306 H 28.816 -2.89256 -5.37739 0
M  V30 307 H 30.23 -4.39855 -3.67697 0
M  V30 308 H 28.627 -5.05458 -3.2347 0
M  V30 309 H 29.697 -4.43293 -1.96518 0
M  V30 310 N 31.0401 0.771051 -1.3745 0
M  V30 311 C 32.2881 1.52661 -1.32435 0
M  V30 312 C 32.6091 1.9479 0.0905024 0
M  V30 313 O 31.8791 1.66348 1.03466 0
M  V30 314 H 30.4591 0.566218 -0.487244 0
M  V30 315 H 33.1211 0.917636 -1.71946 0
M  V30 316 H 32.2171 2.42568 -1.96385 0
M  V30 317 N 32.5182 1.22032 0.997298 0
M  V30 318 C 33.7652 1.04222 1.73621 0
M  V30 319 C 34.0932 -0.423264 1.89839 0
M  V30 320 O 33.3482 -1.3302 1.43542 0
M  V30 321 C 33.6472 1.69345 3.14733 0
M  V30 322 C 33.3132 3.19226 3.18442 0
M  V30 323 C 31.9752 3.60124 3.19161 0
M  V30 324 C 34.3272 4.15181 3.15078 0
M  V30 325 C 31.6552 4.95467 3.14212 0
M  V30 326 C 34.0072 5.50495 3.1167 0
M  V30 327 C 32.6712 5.90779 3.10703 0
M  V30 328 H 31.9412 0.381374 0.635323 0
M  V30 329 H 34.5882 1.51732 1.16831 0
M  V30 330 H 32.8932 1.14147 3.74803 0
M  V30 331 H 34.5902 1.53059 3.7064 0
M  V30 332 H 31.1802 2.86659 3.18629 0
M  V30 333 H 35.3642 3.84605 3.13676 0
M  V30 334 H 30.6202 5.25916 3.11805 0
M  V30 335 H 34.7942 6.24576 3.08022 0
M  V30 336 H 32.4212 6.9562 3.06622 0
M  V30 337 N 33.9963 -1.19345 1.0293 0
M  V30 338 C 35.2263 -1.92717 0.744563 0
M  V30 339 C 35.6343 -1.75751 -0.700579 0
M  V30 340 O 34.9773 -1.07703 -1.48815 0
M  V30 341 C 35.0393 -3.44828 1.01657 0
M  V30 342 C 34.7033 -3.85564 2.45335 0
M  V30 343 C 35.7003 -3.90286 3.43472 0
M  V30 344 C 33.3853 -4.1719 2.79746 0
M  V30 345 C 35.3793 -4.26065 4.74075 0
M  V30 346 C 33.0663 -4.52642 4.10559 0
M  V30 347 C 34.0643 -4.57054 5.07534 0
M  V30 348 O 33.7523 -4.91685 6.36004 0
M  V30 349 H 33.4843 -0.618977 0.271742 0
M  V30 350 H 36.0383 -1.52415 1.37691 0
M  V30 351 H 34.2683 -3.85314 0.327084 0
M  V30 352 H 35.9573 -3.99437 0.721427 0
M  V30 353 H 36.7233 -3.66002 3.18225 0
M  V30 354 H 32.6023 -4.1294 2.04943 0
M  V30 355 H 36.1463 -4.29423 5.49765 0
M  V30 356 H 32.0433 -4.76383 4.35579 0
M  V30 357 H 32.8113 -5.09631 6.40483 0
M  V30 358 N 35.4744 -0.807222 -1.35358 0
M  V30 359 C 36.4374 -0.223665 -2.28106 0
M  V30 360 C 37.4374 0.589354 -1.4961 0
M  V30 361 O 38.6274 0.407745 -1.69361 0
M  V30 362 C 35.7594 0.688149 -3.33882 0
M  V30 363 H 36.9524 -1.04169 -2.81227 0
M  V30 364 H 34.5054 -0.577921 -1.45223 0
M  V30 365 H 35.2404 1.52984 -2.85948 0
M  V30 366 H 35.0254 0.10687 -3.91954 0
M  V30 367 H 36.5154 1.09075 -4.03104 0
M  V30 368 N 36.9525 1.47285 -0.560781 0
M  V30 369 C 38.1825 2.06555 -0.0429638 0
M  V30 370 C 38.5905 1.41339 1.25777 0
M  V30 371 O 37.9335 0.505182 1.76617 0
M  V30 372 C 37.9955 3.58827 0.219887 0
M  V30 373 C 37.6595 4.46105 -0.991944 0
M  V30 374 C 38.6565 4.84 -1.89843 0
M  V30 375 C 36.3415 4.87567 -1.20762 0
M  V30 376 C 38.3355 5.6216 -3.00425 0
M  V30 377 C 36.0225 5.65491 -2.31653 0
M  V30 378 C 37.0205 6.02699 -3.21315 0
M  V30 379 O 36.7085 6.79052 -4.30283 0
M  V30 380 H 36.4405 0.674537 -0.0444468 0
M  V30 381 H 38.9945 1.90225 -0.774818 0
M  V30 382 H 37.2245 3.73383 1.00609 0
M  V30 383 H 38.9135 4.00103 0.683522 0
M  V30 384 H 39.6795 4.52564 -1.74387 0
M  V30 385 H 35.5585 4.5807 -0.518893 0
M  V30 386 H 39.1025 5.9112 -3.70436 0
M  V30 387 H 34.9995 5.9634 -2.47081 0
M  V30 388 H 35.7675 6.9745 -4.28376 0
M  V30 389 N 38.4306 0.297415 1.54768 0
M  V30 390 C 39.3606 -0.573494 2.26348 0
M  V30 391 C 40.3416 -1.14085 1.26169 0
M  V30 392 O 41.5266 -1.17086 1.54934 0
M  V30 393 C 38.6566 -1.74716 3.00153 0
M  V30 394 C 37.6106 -1.31032 4.07449 0
M  V30 395 C 36.9366 -2.56887 4.68949 0
M  V30 396 C 38.2366 -0.444183 5.20408 0
M  V30 397 H 39.9306 0.0235131 2.99391 0
M  V30 398 H 37.4766 0.0127488 1.43994 0
M  V30 399 H 39.4296 -2.3625 3.48947 0
M  V30 400 H 38.1536 -2.37035 2.24682 0
M  V30 401 H 36.8126 -0.718066 3.59499 0
M  V30 402 H 36.4606 -3.17512 3.90122 0
M  V30 403 H 36.1606 -2.2836 5.41411 0
M  V30 404 H 37.6846 -3.19229 5.20505 0
M  V30 405 H 39.0986 -0.9651 5.65118 0
M  V30 406 H 37.4956 -0.252846 5.99567 0
M  V30 407 H 38.5656 0.531609 4.81977 0
M  V30 408 N 39.9087 -1.5758 0.0250728 0
M  V30 409 C 41.1567 -1.91255 -0.653151 0
M  V30 410 C 41.4777 -0.901691 -1.729 0
M  V30 411 O 40.7477 0.0573785 -1.95816 0
M  V30 412 H 39.3277 -0.705942 -0.244243 0
M  V30 413 H 41.9897 -1.94767 0.0719209 0
M  V30 414 H 41.0857 -2.91752 -1.10847 0
M  V30 415 N 41.3868 0.248026 -1.55636 0
M  V30 416 C 42.6328 0.97767 -1.77678 0
M  V30 417 C 42.9658 1.85016 -0.590135 0
M  V30 418 O 42.2408 1.90095 0.411611 0
M  V30 419 C 42.5238 1.83914 -3.09593 0
M  V30 420 C 42.3768 0.99491 -4.38659 0
M  V30 421 C 43.6958 2.82183 -3.37729 0
M  V30 422 H 40.8148 0.354005 -0.646413 0
M  V30 423 H 43.4568 0.248253 -1.88371 0
M  V30 424 H 41.6068 2.46104 -3.00608 0
M  V30 425 H 43.2788 0.391789 -4.59633 0
M  V30 426 H 41.5218 0.299231 -4.32767 0
M  V30 427 H 42.1928 1.63145 -5.2734 0
M  V30 428 H 44.6688 2.30129 -3.4667 0
M  V30 429 H 43.5448 3.39582 -4.31249 0
M  V30 430 H 43.8058 3.58588 -2.58586 0
M  V30 431 N 42.8649 1.48995 0.513639 0
M  V30 432 C 43.7949 1.67636 1.62544 0
M  V30 433 C 44.7759 0.525087 1.61793 0
M  V30 434 O 45.9609 0.759502 1.78732 0
M  V30 435 C 43.0909 1.73114 3.01079 0
M  V30 436 C 42.0449 2.87905 3.16693 0
M  V30 437 C 41.3709 2.78486 4.56453 0
M  V30 438 C 42.6709 4.29005 2.97913 0
M  V30 439 H 44.3649 2.60716 1.47198 0
M  V30 440 H 41.9109 1.25465 0.706714 0
M  V30 441 H 43.8639 1.84742 3.78746 0
M  V30 442 H 42.5879 0.766241 3.17484 0
M  V30 443 H 41.2469 2.75859 2.41448 0
M  V30 444 H 40.8949 1.7993 4.69717 0
M  V30 445 H 40.5949 3.55523 4.67843 0
M  V30 446 H 42.1189 2.92104 5.36197 0
M  V30 447 H 43.5329 4.41798 3.65359 0
M  V30 448 H 41.9299 5.07166 3.20785 0
M  V30 449 H 42.9999 4.44329 1.94165 0
M  V30 450 N 44.343 -0.763751 1.37857 0
M  V30 451 C 45.273 -1.89103 1.36975 0
M  V30 452 C 46.254 -1.68439 0.237152 0
M  V30 453 O 47.439 -1.8918 0.438713 0
M  V30 454 C 44.569 -3.26496 1.18395 0
M  V30 455 C 43.523 -3.61741 2.28751 0
M  V30 456 C 42.849 -4.97762 1.95286 0
M  V30 457 C 44.149 -3.67665 3.70972 0
M  V30 458 H 45.843 -1.90099 2.31307 0
M  V30 459 H 43.389 -0.91319 1.11341 0
M  V30 460 H 45.342 -4.05003 1.16406 0
M  V30 461 H 44.066 -3.25955 0.205215 0
M  V30 462 H 42.725 -2.85547 2.29909 0
M  V30 463 H 42.373 -4.93769 0.959221 0
M  V30 464 H 42.073 -5.22313 2.69189 0
M  V30 465 H 43.597 -5.7866 1.94898 0
M  V30 466 H 45.011 -4.36307 3.719 0
M  V30 467 H 43.408 -4.03718 4.43995 0
M  V30 468 H 44.478 -2.68134 4.0402 0
M  V30 469 N 45.8211 -1.22559 -0.990812 0
M  V30 470 C 47.0671 -1.05297 -1.73322 0
M  V30 471 C 47.4001 0.410655 -1.89808 0
M  V30 472 O 46.6751 1.30439 -1.44277 0
M  V30 473 C 46.9581 -1.76713 -3.13759 0
M  V30 474 C 46.8111 -3.30684 -3.04907 0
M  V30 475 C 48.1301 -1.52121 -4.12974 0
M  V30 476 H 45.2491 -0.38392 -0.629106 0
M  V30 477 H 47.8911 -1.50926 -1.15418 0
M  V30 478 H 46.0411 -1.37924 -3.63193 0
M  V30 479 H 47.7131 -3.7893 -2.63077 0
M  V30 480 H 45.9561 -3.60253 -2.41661 0
M  V30 481 H 46.6271 -3.75833 -4.04294 0
M  V30 482 H 49.1031 -1.85819 -3.72304 0
M  V30 483 H 47.9791 -2.04582 -5.0935 0
M  V30 484 H 48.2401 -0.454257 -4.3976 0
M  V30 485 N 47.2992 1.18797 -1.03562 0
M  V30 486 C 48.2292 2.24472 -0.643019 0
M  V30 487 C 49.2102 1.66433 0.351283 0
M  V30 488 O 50.3952 1.92803 0.232505 0
M  V30 489 C 47.5252 3.473 4.24935e-05 0
M  V30 490 C 46.4792 4.18055 -0.917257 0
M  V30 491 C 45.8052 5.34519 -0.138941 0
M  V30 492 C 47.1052 4.72109 -2.23407 0
M  V30 493 H 48.7992 2.57566 -1.52643 0
M  V30 494 H 46.3452 1.23806 -0.735394 0
M  V30 495 H 48.2982 4.20426 0.286383 0
M  V30 496 H 47.0222 3.13424 0.918299 0
M  V30 497 H 45.6812 3.46821 -1.1879 0
M  V30 498 H 45.3292 4.96891 0.781562 0
M  V30 499 H 45.0292 5.82794 -0.750005 0
M  V30 500 H 46.5532 6.10438 0.1405 0
M  V30 501 H 47.9672 5.36955 -2.00879 0
M  V30 502 H 46.3642 5.30897 -2.79765 0
M  V30 503 H 47.4342 3.89807 -2.88407 0
M  V30 504 N 48.7773 0.814389 1.34928 0
M  V30 505 C 50.0253 0.397636 1.9815 0
M  V30 506 C 50.3463 -1.04069 1.64908 0
M  V30 507 O 49.6163 -1.72121 0.93548 0
M  V30 508 H 48.1963 0.144043 0.732981 0
M  V30 509 H 50.8583 1.04195 1.6471 0
M  V30 510 H 49.9543 0.509688 3.0791 0
M  V30 511 N 50.2554 -1.46986 0.568584 0
M  V30 512 C 51.1854 -2.32946 -0.160753 0
M  V30 513 C 52.1664 -1.44487 -0.897631 0
M  V30 514 O 53.3514 -1.73327 -0.875867 0
M  V30 515 C 50.4814 -3.26494 -1.18403 0
M  V30 516 C 49.4354 -4.24282 -0.562895 0
M  V30 517 C 48.7614 -5.07236 -1.69163 0
M  V30 518 C 50.0614 -5.19989 0.490761 0
M  V30 519 H 51.7554 -2.94175 0.556916 0
M  V30 520 H 49.3014 -1.4146 0.26927 0
M  V30 521 H 51.2544 -3.85477 -1.70251 0
M  V30 522 H 49.9784 -2.63343 -1.93179 0
M  V30 523 H 48.6374 -3.66541 -0.0656164 0
M  V30 524 H 48.2854 -4.4048 -2.42871 0
M  V30 525 H 47.9854 -5.7345 -1.28174 0
M  V30 526 H 49.5094 -5.6908 -2.21314 0
M  V30 527 H 50.9234 -5.73271 0.0579047 0
M  V30 528 H 49.3204 -5.94469 0.820165 0
M  V30 529 H 50.3904 -4.64777 1.3824 0
M  V30 530 N 51.7335 -0.305618 -1.54608 0
M  V30 531 C 52.6635 0.561482 -2.26649 0
M  V30 532 C 53.6445 1.13415 -1.26772 0
M  V30 533 O 54.8295 1.16262 -1.55553 0
M  V30 534 C 51.9595 1.73122 -3.01075 0
M  V30 535 C 50.9135 1.2887 -4.08138 0
M  V30 536 C 50.2395 2.54396 -4.70305 0
M  V30 537 C 51.5395 0.416578 -5.20636 0
M  V30 538 H 53.2335 -0.0393902 -2.99374 0
M  V30 539 H 50.7795 -0.020385 -1.43986 0
M  V30 540 H 52.7325 2.34396 -3.50195 0
M  V30 541 H 51.4565 2.3584 -2.25936 0
M  V30 542 H 50.1155 0.698991 -3.59875 0
M  V30 543 H 49.7635 3.15439 -3.918 0
M  V30 544 H 49.4635 2.25486 -5.42614 0
M  V30 545 H 50.9875 3.16464 -5.2219 0
M  V30 546 H 52.4015 0.935116 -5.65622 0
M  V30 547 H 50.7985 0.221046 -5.99693 0
M  V30 548 H 51.8685 -0.557162 -4.81688 0
M  V30 549 N 53.2116 1.57565 -0.0334293 0
M  V30 550 C 54.1416 2.13511 0.945265 0
M  V30 551 C 55.1226 1.05231 1.33643 0
M  V30 552 O 56.3076 1.33084 1.41429 0
M  V30 553 C 53.4376 2.6657 2.22616 0
M  V30 554 C 52.3916 3.79676 1.97561 0
M  V30 555 C 51.7176 4.1918 3.31952 0
M  V30 556 C 53.0176 5.0557 1.31135 0
M  V30 557 H 54.7116 2.95538 0.479325 0
M  V30 558 H 52.2576 1.42166 0.229115 0
M  V30 559 H 54.2106 3.04344 2.91466 0
M  V30 560 H 52.9346 1.8171 2.71384 0
M  V30 561 H 51.5936 3.42347 1.31127 0
M  V30 562 H 51.2416 3.31296 3.78487 0
M  V30 563 H 50.9416 4.95402 3.15992 0
M  V30 564 H 52.4656 4.59541 4.02063 0
M  V30 565 H 53.8796 5.40903 1.89992 0
M  V30 566 H 52.2766 5.86818 1.25559 0
M  V30 567 H 53.3466 4.84062 0.284894 0
M  V30 568 N 54.6897 -0.239769 1.55765 0
M  V30 569 C 55.6377 -1.31668 1.91745 0
M  V30 570 C 56.6317 -1.49462 0.797338 0
M  V30 571 O 57.8377 -1.50852 0.982021 0
M  V30 572 H 54.2127 -0.441048 0.609082 0
M  V30 573 H 56.1837 -0.985923 2.81642 0
M  V30 574 C 54.9327 -2.66368 2.2348 0
M  V30 575 H 54.2557 -2.53478 3.09175 0
M  V30 576 H 55.6957 -3.40578 2.52553 0
M  V30 577 C 54.1547 -3.20002 1.05359 0
M  V30 578 O 54.6847 -4.00538 0.305261 0
M  V30 579 N 52.8907 -2.78126 0.842292 0
M  V30 580 H 52.4377 -2.12742 1.45253 0
M  V30 581 H 52.3957 -3.14354 0.053652 0
M  V30 582 N 56.1678 -1.49265 -0.50573 0
M  V30 583 C 57.3928 -1.62478 -1.28902 0
M  V30 584 C 57.8178 -0.294332 -1.85783 0
M  V30 585 O 57.1758 0.737412 -1.65626 0
M  V30 586 C 57.2238 -2.69268 -2.39848 0
M  V30 587 O 56.3278 -2.28113 -3.43567 0
M  V30 588 H 55.6688 -0.54399 -0.380751 0
M  V30 589 H 58.1988 -1.95421 -0.605952 0
M  V30 590 H 58.2088 -2.91291 -2.85681 0
M  V30 591 H 56.8838 -3.65846 -1.97812 0
M  V30 592 H 55.4608 -2.16401 -3.03685 0
M  V30 593 N 57.6459 0.756429 -1.3826 0
M  V30 594 C 58.5759 1.88374 -1.37976 0
M  V30 595 C 59.5569 1.68311 -0.246082 0
M  V30 596 O 60.7419 1.88944 -0.44874 0
M  V30 597 C 57.8719 3.25864 -1.20125 0
M  V30 598 C 56.8259 3.60523 -2.30666 0
M  V30 599 C 56.1519 4.9672 -1.97923 0
M  V30 600 C 57.4519 3.65692 -3.72916 0
M  V30 601 H 59.1459 1.88869 -2.32312 0
M  V30 602 H 56.6919 0.907272 -1.11824 0
M  V30 603 H 58.6449 4.0438 -1.18552 0
M  V30 604 H 57.3689 3.25841 -0.222498 0
M  V30 605 H 56.0279 2.84324 -2.3142 0
M  V30 606 H 55.6759 4.93253 -0.985393 0
M  V30 607 H 55.3759 5.20878 -2.71955 0
M  V30 608 H 56.8999 5.77618 -1.97964 0
M  V30 609 H 58.3139 4.34328 -3.74208 0
M  V30 610 H 56.7109 4.01358 -4.4613 0
M  V30 611 H 57.7809 2.65987 -4.05436 0
M  V30 612 N 59.124 1.23083 0.984299 0
M  V30 613 C 60.087 1.00979 2.05757 0
M  V30 614 C 61.087 -0.0269573 1.60777 0
M  V30 615 O 62.277 0.212403 1.729 0
M  V30 616 C 59.409 0.527072 3.36801 0
M  V30 617 H 60.602 1.9622 2.26799 0
M  V30 618 H 58.155 1.05072 1.15714 0
M  V30 619 H 58.89 -0.429294 3.21446 0
M  V30 620 H 58.675 1.27515 3.70786 0
M  V30 621 H 60.165 0.392942 4.15747 0
M  V30 622 N 60.6021 -1.18246 1.0419 0
M  V30 623 C 61.5321 -2.24127 0.654914 0
M  V30 624 C 62.5131 -1.66617 -0.342451 0
M  V30 625 O 63.6981 -1.92924 -0.222277 0
M  V30 626 C 60.8281 -3.47295 0.0183757 0
M  V30 627 C 59.7821 -4.17563 0.939414 0
M  V30 628 C 59.1081 -5.34438 0.167286 0
M  V30 629 C 60.4081 -4.70917 2.25908 0
M  V30 630 H 62.1021 -2.56753 1.54007 0
M  V30 631 H 59.6481 -1.23414 0.74195 0
M  V30 632 H 61.6011 -4.20572 -0.264082 0
M  V30 633 H 60.3251 -3.13907 -0.901664 0
M  V30 634 H 58.9841 -3.46186 1.20628 0
M  V30 635 H 58.6321 -4.97298 -0.7552 0
M  V30 636 H 58.3321 -5.82388 0.780901 0
M  V30 637 H 59.8561 -6.10504 -0.108125 0
M  V30 638 H 61.2701 -5.35882 2.03724 0
M  V30 639 H 59.6671 -5.29406 2.82577 0
M  V30 640 H 60.7371 -3.88272 2.9047 0
M  V30 641 N 62.0802 -0.821533 -1.34494 0
M  V30 642 C 63.3262 -0.418729 -1.99043 0
M  V30 643 C 63.6812 1.00672 -1.6396 0
M  V30 644 O 62.9742 1.69132 -0.900271 0
M  V30 645 C 63.1682 -0.556512 -3.53041 0
M  V30 646 C 62.9972 -1.9938 -4.03085 0
M  V30 647 C 61.7672 -2.62539 -4.31742 0
M  V30 648 C 63.9652 -2.96035 -4.20556 0
M  V30 649 N 61.9472 -3.97523 -4.67813 0
M  V30 650 C 63.3182 -4.15924 -4.59791 0
M  V30 651 C 65.3732 -2.9267 -4.02801 0
M  V30 652 C 64.0762 -5.32899 -4.83126 0
M  V30 653 C 66.1022 -4.08861 -4.27302 0
M  V30 654 C 65.4642 -5.275 -4.66822 0
M  V30 655 H 61.5632 -0.201299 -0.755647 0
M  V30 656 H 64.1472 -1.06594 -1.62929 0
M  V30 657 H 62.3182 0.0607924 -3.88352 0
M  V30 658 H 64.0502 -0.126842 -4.04501 0
M  V30 659 H 60.8052 -2.13789 -4.22601 0
M  V30 660 H 61.2292 -4.67061 -4.90085 0
M  V30 661 H 65.8712 -2.02088 -3.71376 0
M  V30 662 H 63.5892 -6.24041 -5.13418 0
M  V30 663 H 67.1752 -4.07654 -4.15101 0
M  V30 664 H 66.0552 -6.15913 -4.85408 0
M  V30 665 N 63.5583 1.46682 -0.576371 0
M  V30 666 C 64.8043 2.02712 -0.0596221 0
M  V30 667 C 65.1373 1.44765 1.29448 0
M  V30 668 O 64.4123 0.610355 1.84675 0
M  V30 669 C 64.6953 3.60098 0.0129503 0
M  V30 670 C 64.5483 4.28441 -1.3696 0
M  V30 671 C 65.8673 4.34224 0.71678 0
M  V30 672 H 62.9863 0.736637 -0.0231407 0
M  V30 673 H 65.6283 1.74898 -0.742351 0
M  V30 674 H 63.7783 3.83926 0.594378 0
M  V30 675 H 65.4503 4.15896 -1.9957 0
M  V30 676 H 63.6933 3.8805 -1.93907 0
M  V30 677 H 64.3643 5.3716 -1.27135 0
M  V30 678 H 66.8403 4.15503 0.222908 0
M  V30 679 H 65.7163 5.43936 0.73657 0
M  V30 680 H 65.9773 4.04823 1.77682 0
M  V30 681 N 65.0364 0.313813 1.54444 0
M  V30 682 C 66.2834 -0.291675 2.00388 0
M  V30 683 C 66.6114 -1.52904 1.2021 0
M  V30 684 O 65.8664 -1.93833 0.269707 0
M  V30 685 C 66.1654 -0.680386 3.50864 0
M  V30 686 C 65.8314 0.456699 4.48581 0
M  V30 687 C 64.4934 0.768824 4.75018 0
M  V30 688 C 66.8454 1.22098 5.06697 0
M  V30 689 C 64.1734 1.84812 5.56831 0
M  V30 690 C 66.5254 2.29029 5.89685 0
M  V30 691 C 65.1894 2.60834 6.14428 0
M  V30 692 H 64.4594 -0.106732 0.733273 0
M  V30 693 H 67.1064 0.43557 1.86481 0
M  V30 694 H 65.4114 -1.48791 3.62448 0
M  V30 695 H 67.1084 -1.16026 3.83847 0
M  V30 696 H 63.6984 0.203337 4.28117 0
M  V30 697 H 67.8824 0.993096 4.86263 0
M  V30 698 H 63.1384 2.09912 5.74236 0
M  V30 699 H 67.3124 2.887 6.33739 0
M  V30 700 H 64.9394 3.44596 6.77612 0
M  V30 701 N 66.5145 -1.57545 0.0417849 0
M  V30 702 C 67.7545 -1.94185 -0.63809 0
M  V30 703 C 68.1185 -0.919339 -1.68559 0
M  V30 704 O 69.3195 -1.17236 -2.41886 0
M  V30 705 C 67.5905 -3.35672 -1.22714 0
M  V30 706 S 69.1495 -3.94256 -1.92633 0
M  V30 707 H 65.9675 -0.679353 -0.209764 0
M  V30 708 H 68.5695 -1.95199 0.108479 0
M  V30 709 H 67.2735 -4.07898 -0.452503 0
M  V30 710 H 66.8045 -3.38132 -2.01073 0
M  V30 711 H 68.8195 -3.7872 -3.20602 0
M  V30 712 N 67.9926 0.231505 -1.5589 0
M  V30 713 C 69.2326 0.964533 -1.80211 0
M  V30 714 C 69.5966 1.81926 -0.613744 0
M  V30 715 O 70.7976 2.58526 -0.736045 0
M  V30 716 C 69.0686 1.78956 -3.09369 0
M  V30 717 S 70.6276 2.57959 -3.54969 0
M  V30 718 H 67.4456 0.324173 -0.632798 0
M  V30 719 H 70.0476 0.230985 -1.94131 0
M  V30 720 H 68.7516 1.15161 -3.93911 0
M  V30 721 H 68.2826 2.56559 -2.9823 0
M  V30 722 H 70.2976 3.81309 -3.17519 0
M  V30 723 N 69.4707 1.49531 0.497807 0
M  V30 724 C 70.8867 1.36365 0.829266 0
M  V30 725 C 71.0867 0.399184 1.97506 0
M  V30 726 O 70.1427 -0.167977 2.51941 0
M  V30 727 C 71.4557 2.77153 1.16647 0
M  V30 728 C 73.0037 2.85877 1.27449 0
M  V30 729 C 73.4787 4.2744 1.64497 0
M  V30 730 N 74.9697 4.30265 1.7154 0
M  V30 731 C 75.7047 5.3677 2.01656 0
M  V30 732 N 75.2007 6.53516 2.29976 0
M  V30 733 N 76.9937 5.24189 2.02934 0
M  V30 734 H 69.1447 2.10831 -0.257703 0
M  V30 735 H 71.4077 0.946534 -0.0527091 0
M  V30 736 H 71.1137 3.49442 0.397872 0
M  V30 737 H 70.9877 3.12722 2.10915 0
M  V30 738 H 73.3747 2.13824 2.0338 0
M  V30 739 H 73.4557 2.53887 0.312244 0
M  V30 740 H 73.0997 5.00021 0.891151 0
M  V30 741 H 73.0297 4.56896 2.61827 0
M  V30 742 H 75.5207 3.4607 1.51802 0
M  V30 743 H 75.8337 7.30506 2.52153 0
M  V30 744 H 74.1787 6.56737 2.27425 0
M  V30 745 H 77.3697 4.31988 1.80289 0
M  V30 746 H 77.5427 6.07286 2.26071 0
M  V30 747 N 70.9488 -0.749086 1.3866 0
M  V30 748 C 71.8818 -1.87111 1.30631 0
M  V30 749 C 72.8598 -1.61572 0.18251 0
M  V30 750 O 74.0438 -1.85019 0.360592 0
M  V30 751 C 71.1708 -3.22815 1.02511 0
M  V30 752 C 70.2168 -3.67234 2.1689 0
M  V30 753 S 71.0498 -3.78245 3.79066 0
M  V30 754 C 72.2058 -5.16761 3.53142 0
M  V30 755 H 72.4388 -1.93636 2.25594 0
M  V30 756 H 69.9718 -0.912525 1.24549 0
M  V30 757 H 71.9298 -4.01181 0.869701 0
M  V30 758 H 70.5908 -3.13964 0.0925884 0
M  V30 759 H 69.7838 -4.65677 1.92771 0
M  V30 760 H 69.3858 -2.96034 2.28561 0
M  V30 761 H 71.6778 -6.02656 3.09534 0
M  V30 762 H 72.6208 -5.45902 4.50995 0
M  V30 763 H 73.0288 -4.85771 2.87554 0
M  V30 764 N 72.4269 -1.23603 -0.977757 0
M  V30 765 C 73.3589 -0.977369 -2.07317 0
M  V30 766 C 74.3719 0.0495845 -1.62724 0
M  V30 767 O 75.5609 -0.186261 -1.77526 0
M  V30 768 C 72.6609 -0.451216 -3.35883 0
M  V30 769 C 71.8339 -1.53896 -4.09432 0
M  V30 770 C 70.8929 -1.01721 -5.16274 0
M  V30 771 O 69.9189 -1.70676 -5.43009 0
M  V30 772 N 71.1209 0.153594 -5.80297 0
M  V30 773 H 73.8859 -1.92047 -2.30082 0
M  V30 774 H 71.4469 -1.14497 -1.14465 0
M  V30 775 H 73.4389 -0.0871574 -4.04606 0
M  V30 776 H 72.0089 0.397368 -3.10064 0
M  V30 777 H 71.2289 -2.07566 -3.35127 0
M  V30 778 H 72.5169 -2.27037 -4.55337 0
M  V30 779 H 71.9149 0.730323 -5.60966 0
M  V30 780 H 70.4719 0.458892 -6.50183 0
M  V30 781 N 73.905 1.17692 -1.04816 0
M  V30 782 C 74.837 2.21103 -0.603822 0
M  V30 783 C 75.85 1.59411 0.33046 0
M  V30 784 O 77.039 1.7807 0.12379 0
M  V30 785 C 74.139 3.38623 0.136898 0
M  V30 786 C 73.312 4.29888 -0.807137 0
M  V30 787 C 72.371 5.26088 -0.10836 0
M  V30 788 O 71.397 5.64353 -0.741232 0
M  V30 789 N 72.599 5.68882 1.15558 0
M  V30 790 H 75.364 2.59848 -1.49329 0
M  V30 791 H 72.925 1.32553 -0.929587 0
M  V30 792 H 74.917 4.00009 0.614401 0
M  V30 793 H 73.487 2.98508 0.927993 0
M  V30 794 H 72.707 3.65993 -1.46434 0
M  V30 795 H 73.995 4.87759 -1.44807 0
M  V30 796 H 73.393 5.39861 1.69015 0
M  V30 797 H 71.95 6.32429 1.57722 0
M  V30 798 N 75.3831 0.828654 1.34056 0
M  V30 799 C 76.6291 0.429279 1.98818 0
M  V30 800 C 76.9841 -0.998011 1.64492 0
M  V30 801 O 76.2771 -1.68652 0.909228 0
M  V30 802 C 76.4711 0.575226 3.52741 0
M  V30 803 C 76.3001 2.01515 4.02022 0
M  V30 804 C 75.0701 2.64825 4.30344 0
M  V30 805 C 77.2681 2.98261 4.18981 0
M  V30 806 N 75.2501 3.99998 4.65698 0
M  V30 807 C 76.6211 4.18356 4.57578 0
M  V30 808 C 78.6761 2.94802 4.01243 0
M  V30 809 C 77.3791 5.35454 4.80293 0
M  V30 810 C 79.4051 4.11121 4.25128 0
M  V30 811 C 78.7671 5.29969 4.64018 0
M  V30 812 H 74.8661 0.205304 0.754569 0
M  V30 813 H 77.4501 1.07457 1.62361 0
M  V30 814 H 75.6211 -0.0401962 3.88379 0
M  V30 815 H 77.3531 0.148292 4.04428 0
M  V30 816 H 74.1081 2.16027 4.21461 0
M  V30 817 H 74.5321 4.69653 4.87601 0
M  V30 818 H 79.1741 2.04054 3.70299 0
M  V30 819 H 76.8921 6.26755 5.10102 0
M  V30 820 H 80.4781 4.0985 4.12934 0
M  V30 821 H 79.3581 6.18479 4.82134 0
M  V30 822 N 76.8612 -1.46375 0.584142 0
M  V30 823 C 78.0892 -2.06761 0.0759296 0
M  V30 824 C 78.5042 -1.43266 -1.22965 0
M  V30 825 O 77.8612 -0.538458 -1.74376 0
M  V30 826 C 77.9122 -3.61375 -0.0950384 0
M  V30 827 O 77.6332 -4.22495 1.15887 0
M  V30 828 C 79.1342 -4.38693 -0.637434 0
M  V30 829 H 76.3542 -0.668479 0.0581075 0
M  V30 830 H 78.8982 -1.8798 0.805218 0
M  V30 831 H 77.0532 -3.79578 -0.774554 0
M  V30 832 H 77.4672 -5.15385 0.973598 0
M  V30 833 H 78.9412 -5.47464 -0.706237 0
M  V30 834 H 79.4182 -4.06836 -1.65472 0
M  V30 835 H 80.0242 -4.25299 0.00725967 0
M  V30 836 N 78.3393 -0.321999 -1.54275 0
M  V30 837 C 79.2493 0.553631 -2.27974 0
M  V30 838 C 80.2653 1.13054 -1.32268 0
M  V30 839 O 81.4413 1.15084 -1.6528 0
M  V30 840 C 78.5063 1.69927 -3.02201 0
M  V30 841 C 77.5673 1.15433 -4.1349 0
M  V30 842 C 76.8003 2.24537 -4.84168 0
M  V30 843 O 77.0233 3.44852 -4.5435 0
M  V30 844 O 75.9573 1.90044 -5.7111 0
M  V30 845 H 79.7833 -0.0448345 -3.03667 0
M  V30 846 H 77.3683 -0.0877418 -1.49142 0
M  V30 847 H 79.2503 2.3663 -3.48689 0
M  V30 848 H 77.9253 2.28395 -2.29385 0
M  V30 849 H 76.8323 0.452436 -3.71354 0
M  V30 850 H 78.1653 0.614805 -4.88345 0
M  V30 851 N 79.8174 1.5752 -0.0501392 0
M  V30 852 C 81.0454 1.96963 0.633492 0
M  V30 853 C 81.4604 0.927631 1.6444 0
M  V30 854 O 80.8174 -0.0882665 1.82286 0
M  V30 855 C 80.8684 3.36487 1.32132 0
M  V30 856 O 80.5894 4.36693 0.350894 0
M  V30 857 C 82.0904 3.90682 2.09481 0
M  V30 858 H 79.3104 0.648244 0.173266 0
M  V30 859 H 81.8544 2.0417 -0.116134 0
M  V30 860 H 80.0094 3.30434 2.02218 0
M  V30 861 H 80.4234 5.17702 0.841735 0
M  V30 862 H 81.8974 4.90591 2.5303 0
M  V30 863 H 82.3744 3.26053 2.94255 0
M  V30 864 H 82.9804 4.00069 1.44307 0
M  V30 865 N 81.2955 -0.223234 1.56011 0
M  V30 866 C 82.7115 -0.572856 1.48965 0
M  V30 867 C 82.9115 -1.87225 0.74492 0
M  V30 868 O 81.9675 -2.50899 0.283896 0
M  V30 869 C 83.2805 -0.653646 2.9351 0
M  V30 870 C 84.8285 -0.744386 3.0402 0
M  V30 871 C 85.3035 -0.856535 4.49919 0
M  V30 872 N 86.7945 -0.9208 4.53955 0
M  V30 873 C 87.5295 -1.02726 5.64123 0
M  V30 874 N 87.0255 -1.09777 6.84047 0
M  V30 875 N 88.8185 -1.06226 5.51971 0
M  V30 876 H 80.9695 0.629462 2.02858 0
M  V30 877 H 83.2325 0.220621 0.921971 0
M  V30 878 H 82.9385 0.231518 3.50937 0
M  V30 879 H 82.8125 -1.51781 3.45315 0
M  V30 880 H 85.1995 -1.61999 2.46658 0
M  V30 881 H 85.2805 0.14541 2.55386 0
M  V30 882 H 84.9245 0.0146069 5.07898 0
M  V30 883 H 84.8545 -1.76172 4.96257 0
M  V30 884 H 87.3455 -0.876694 3.6759 0
M  V30 885 H 87.6585 -1.17872 7.63758 0
M  V30 886 H 86.0035 -1.06693 6.86762 0
M  V30 887 H 89.1945 -1.00382 4.5721 0
M  V30 888 H 89.3675 -1.14177 6.37862 0
M  V30 889 N 82.7736 -1.49793 -0.48987 0
M  V30 890 C 84.0226 -1.59085 -1.23995 0
M  V30 891 C 84.3356 -0.287907 -1.9347 0
M  V30 892 O 85.5416 -0.259506 -2.70257 0
M  V30 893 C 83.9976 -2.80736 -2.252 0
M  V30 894 C 83.6056 -4.17833 -1.61614 0
M  V30 895 C 85.3496 -2.99364 -3.00967 0
M  V30 896 C 83.2566 -5.30693 -2.60996 0
M  V30 897 H 82.1866 -0.592372 -0.466488 0
M  V30 898 H 84.8376 -1.76197 -0.51252 0
M  V30 899 H 83.2196 -2.57142 -3.01154 0
M  V30 900 H 84.3936 -4.51608 -0.915774 0
M  V30 901 H 82.7086 -4.04656 -0.981977 0
M  V30 902 H 85.3056 -3.80851 -3.75308 0
M  V30 903 H 85.6486 -2.10356 -3.59244 0
M  V30 904 H 86.1816 -3.2305 -2.32128 0
M  V30 905 H 82.9206 -6.21796 -2.07485 0
M  V30 906 H 82.4406 -5.01359 -3.2924 0
M  V30 907 H 84.1196 -5.6049 -3.23202 0
M  V30 908 N 84.2517 0.741722 -1.39055 0
M  V30 909 C 85.4817 1.52876 -1.3897 0
M  V30 910 C 85.8897 1.8919 0.0193266 0
M  V30 911 O 85.2327 1.54138 0.999356 0
M  V30 912 C 85.2947 2.84929 -2.19216 0
M  V30 913 C 84.9587 2.71086 -3.67915 0
M  V30 914 C 85.9557 2.40084 -4.61146 0
M  V30 915 C 83.6407 2.88168 -4.11418 0
M  V30 916 C 85.6347 2.26335 -5.95862 0
M  V30 917 C 83.3217 2.74037 -5.46211 0
M  V30 918 C 84.3197 2.43166 -6.38247 0
M  V30 919 O 84.0077 2.29115 -7.70559 0
M  V30 920 H 83.7397 0.479252 -0.476753 0
M  V30 921 H 86.2937 0.924751 -1.83405 0
M  V30 922 H 84.5237 3.47564 -1.69518 0
M  V30 923 H 86.2127 3.46509 -2.11392 0
M  V30 924 H 86.9787 2.26545 -4.28838 0
M  V30 925 H 82.8577 3.11191 -3.40119 0
M  V30 926 H 86.4017 2.0216 -6.67665 0
M  V30 927 H 82.2987 2.87153 -5.78112 0
M  V30 928 H 83.0667 2.44237 -7.81211 0
M  V30 929 N 85.7298 1.2412 0.971189 0
M  V30 930 C 86.6628 0.97373 2.06382 0
M  V30 931 C 87.6408 -0.0912662 1.62344 0
M  V30 932 O 88.8248 0.0449365 1.88446 0
M  V30 933 C 85.9518 0.468746 3.35441 0
M  V30 934 C 84.9978 1.52176 3.98428 0
M  V30 935 S 85.8308 3.10203 4.36503 0
M  V30 936 C 86.9868 2.61398 5.68702 0
M  V30 937 H 87.2198 1.89893 2.28753 0
M  V30 938 H 84.7528 1.07466 1.10862 0
M  V30 939 H 86.7108 0.184012 4.10087 0
M  V30 940 H 85.3718 -0.435688 3.11064 0
M  V30 941 H 84.5648 1.11876 4.91426 0
M  V30 942 H 84.1668 1.75632 3.30196 0
M  V30 943 H 86.4588 2.03992 6.4606 0
M  V30 944 H 87.4018 3.52972 6.13854 0
M  V30 945 H 87.8098 2.01941 5.27143 0
M  V30 946 N 87.2079 -1.17134 1.05439 0
M  V30 947 C 88.4359 -1.91372 0.786414 0
M  V30 948 C 88.8509 -1.76955 -0.658202 0
M  V30 949 O 88.2079 -1.10838 -1.44987 0
M  V30 950 C 88.2589 -3.42356 1.1608 0
M  V30 951 O 87.9799 -3.56332 2.54871 0
M  V30 952 C 89.4809 -4.33663 0.919322 0
M  V30 953 H 86.7009 -0.607118 0.285743 0
M  V30 954 H 89.2449 -1.48525 1.40572 0
M  V30 955 H 87.3999 -3.82939 0.586191 0
M  V30 956 H 87.8139 -4.49896 2.69618 0
M  V30 957 H 89.2879 -5.38099 1.231 0
M  V30 958 H 89.7649 -4.38959 -0.145359 0
M  V30 959 H 90.3709 -3.98796 1.47789 0
M  V30 960 N 88.686 -0.835752 -1.33615 0
M  V30 961 C 89.634 -0.255238 -2.31195 0
M  V30 962 C 90.628 0.61107 -1.57995 0
M  V30 963 O 91.834 0.500979 -1.72888 0
M  V30 964 H 88.209 -0.0638085 -0.749288 0
M  V30 965 H 90.18 -1.09283 -2.77669 0
M  V30 966 C 88.929 0.55754 -3.43201 0
M  V30 967 H 88.252 -0.0997553 -3.99676 0
M  V30 968 H 89.692 0.929622 -4.13683 0
M  V30 969 C 88.151 1.73515 -2.88781 0
M  V30 970 O 88.681 2.83376 -2.84712 0
M  V30 971 N 86.887 1.55603 -2.4543 0
M  V30 972 H 86.434 0.662354 -2.48939 0
M  V30 973 H 86.392 2.34545 -2.09371 0
M  V30 974 N 90.1641 1.46063 -0.591896 0
M  V30 975 C 91.0941 2.33172 0.123673 0
M  V30 976 C 92.0751 1.45897 0.87453 0
M  V30 977 O 93.2601 1.74698 0.848181 0
M  V30 978 C 90.3901 3.28336 1.13194 0
M  V30 979 C 89.3441 4.25124 0.495324 0
M  V30 980 C 88.6701 5.09863 1.61071 0
M  V30 981 C 89.9701 5.19143 -0.573425 0
M  V30 982 H 91.6641 2.93252 -0.603646 0
M  V30 983 H 89.2101 1.41014 -0.291741 0
M  V30 984 H 91.1631 3.88137 1.64097 0
M  V30 985 H 89.8871 2.66383 1.88965 0
M  V30 986 H 88.5461 3.66599 0.00729452 0
M  V30 987 H 88.1941 4.44288 2.35832 0
M  V30 988 H 87.8941 5.75417 1.19035 0
M  V30 989 H 89.4181 5.72529 2.12233 0
M  V30 990 H 90.8321 5.73106 -0.1491 0
M  V30 991 H 89.2291 5.93089 -0.914636 0
M  V30 992 H 90.2991 4.62519 -1.45617 0
M  V30 993 N 91.6422 0.330177 1.54103 0
M  V30 994 C 92.6052 -0.520144 2.2322 0
M  V30 995 C 93.6052 -1.03828 1.22786 0
M  V30 996 O 94.7952 -0.929652 1.4732 0
M  V30 997 C 91.9272 -1.72317 2.94142 0
M  V30 998 H 93.1202 0.0841605 2.99782 0
M  V30 999 H 90.6732 0.0813433 1.56088 0
M  V30 1000 H 91.4082 -2.36653 2.21734 0
M  V30 1001 H 91.1932 -1.35898 3.67796 0
M  V30 1002 H 92.6832 -2.3266 3.46784 0
M  V30 1003 N 93.1203 -1.57491 0.0584922 0
M  V30 1004 C 94.3663 -1.93264 -0.614558 0
M  V30 1005 C 94.6993 -0.937717 -1.7006 0
M  V30 1006 O 93.9743 0.0351652 -1.94468 0
M  V30 1007 C 94.2573 -3.3938 -1.20386 0
M  V30 1008 C 94.1103 -4.49625 -0.125375 0
M  V30 1009 C 95.4293 -3.86039 -2.11334 0
M  V30 1010 H 92.5483 -0.702791 -0.221933 0
M  V30 1011 H 95.1903 -1.8961 0.12175 0
M  V30 1012 H 93.3403 -3.42626 -1.83139 0
M  V30 1013 H 95.0123 -4.58506 0.506971 0
M  V30 1014 H 93.2553 -4.30354 0.545672 0
M  V30 1015 H 93.9263 -5.48967 -0.577861 0
M  V30 1016 H 96.4023 -3.84716 -1.58534 0
M  V30 1017 H 95.2783 -4.88914 -2.49507 0
M  V30 1018 H 95.5393 -3.23215 -3.01636 0
M  V30 1019 N 94.5984 0.214957 -1.56127 0
M  V30 1020 C 95.5614 1.24997 -1.92116 0
M  V30 1021 C 96.5614 1.39467 -0.800344 0
M  V30 1022 O 97.7514 1.37619 -1.06802 0
M  V30 1023 C 94.8834 2.62271 -2.17777 0
M  V30 1024 H 96.0764 0.942875 -2.84693 0
M  V30 1025 H 93.6294 0.455654 -1.49511 0
M  V30 1026 H 94.3644 2.98068 -1.27773 0
M  V30 1027 H 94.1494 2.53143 -2.99434 0
M  V30 1028 H 95.6394 3.36946 -2.46693 0
M  V30 1029 N 96.0765 1.50051 0.48192 0
M  V30 1030 C 97.3535 1.51009 1.2432 0
M  V30 1031 C 97.7335 0.248587 2.09631 0
M  V30 1032 O 97.0815 -0.768409 2.15192 0
M  V30 1033 C 97.2915 2.79981 2.08355 0
M  V30 1034 C 98.6395 3.3022 2.66908 0
M  V30 1035 O 99.6635 2.81228 2.18607 0
M  V30 1036 O 98.5225 4.15595 3.54884 0
M  V30 1037 H 95.6165 0.605239 0.563573 0
M  V30 1038 H 98.1625 1.62332 0.494627 0
M  V30 1039 H 96.9345 3.63275 1.45419 0
M  V30 1040 H 96.5575 2.7161 2.90368 0
M  V30 1041 N 97.5546 -0.734337 1.39446 0
M  V30 1042 C 98.4846 -1.86155 1.40955 0
M  V30 1043 C 99.4656 -1.67898 0.272827 0
M  V30 1044 O 100.651 -1.88207 0.478743 0
M  V30 1045 C 97.7806 -3.23912 1.25294 0
M  V30 1046 C 96.7346 -3.56808 2.36373 0
M  V30 1047 C 96.0606 -4.93508 2.058 0
M  V30 1048 C 97.3606 -3.59713 3.78687 0
M  V30 1049 H 99.0546 -1.8515 2.35287 0
M  V30 1050 H 96.6006 -0.889367 1.13253 0
M  V30 1051 H 98.5536 -4.02443 1.2497 0
M  V30 1052 H 97.2776 -3.25446 0.274308 0
M  V30 1053 H 95.9366 -2.80606 2.35914 0
M  V30 1054 H 95.5846 -4.91623 1.06374 0
M  V30 1055 H 95.2846 -5.16486 2.80208 0
M  V30 1056 H 96.8086 -5.74396 2.07128 0
M  V30 1057 H 98.2226 -4.2832 3.81071 0
M  V30 1058 H 96.6196 -3.94209 4.52459 0
M  V30 1059 H 97.6896 -2.59504 4.09617 0
M  V30 1060 N 99.0327 -1.24633 -0.964593 0
M  V30 1061 C 100.273 -1.09981 -1.72289 0
M  V30 1062 C 100.637 0.354792 -1.88693 0
M  V30 1063 O 101.838 0.62289 -2.61483 0
M  V30 1064 C 100.109 -1.82262 -3.07434 0
M  V30 1065 S 101.668 -1.83379 -3.98645 0
M  V30 1066 H 98.4857 -0.393292 -0.59232 0
M  V30 1067 H 101.088 -1.58009 -1.15123 0
M  V30 1068 H 99.7917 -2.87206 -2.93157 0
M  V30 1069 H 99.3227 -1.3458 -3.69664 0
M  V30 1070 H 101.338 -0.903691 -4.87901 0
M  V30 1071 N 100.511 1.16574 -1.06058 0
M  V30 1072 C 101.441 2.23057 -0.690488 0
M  V30 1073 C 102.422 1.67141 0.315901 0
M  V30 1074 O 103.607 1.93253 0.191556 0
M  V30 1075 C 100.737 3.47222 -0.073625 0
M  V30 1076 C 99.6908 4.16016 -1.00573 0
M  V30 1077 C 99.0168 5.34104 -0.252289 0
M  V30 1078 C 100.317 4.67264 -2.33371 0
M  V30 1079 H 102.011 2.54271 -1.58072 0
M  V30 1080 H 99.5568 1.22218 -0.76149 0
M  V30 1081 H 101.51 4.20939 0.19714 0
M  V30 1082 H 100.234 3.15302 0.85161 0
M  V30 1083 H 98.8928 3.44223 -1.2612 0
M  V30 1084 H 98.5408 4.98437 0.675988 0
M  V30 1085 H 98.2408 5.81072 -0.873455 0
M  V30 1086 H 99.7648 6.10599 0.0109857 0
M  V30 1087 H 101.179 5.32573 -2.12223 0
M  V30 1088 H 99.5758 5.24843 -2.90963 0
M  V30 1089 H 100.646 3.83602 -2.96611 0
M  V30 1090 N 101.989 0.842826 1.3317 0
M  V30 1091 C 102.919 0.294028 2.31641 0
M  V30 1092 C 103.9 -0.600401 1.59151 0
M  V30 1093 O 105.085 -0.523124 1.87022 0
M  V30 1094 C 102.215 -0.528416 3.43257 0
M  V30 1095 C 101.169 0.27056 4.27144 0
M  V30 1096 C 100.495 -0.675881 5.30411 0
M  V30 1097 C 101.795 1.48981 5.00602 0
M  V30 1098 H 103.489 1.11681 2.77791 0
M  V30 1099 H 101.035 0.538478 1.33553 0
M  V30 1100 H 102.988 -0.922674 4.11175 0
M  V30 1101 H 101.712 -1.38445 2.95805 0
M  V30 1102 H 100.371 0.646427 3.60856 0
M  V30 1103 H 100.019 -1.52842 4.79216 0
M  V30 1104 H 99.7189 -0.145374 5.8742 0
M  V30 1105 H 101.243 -1.06757 6.01195 0
M  V30 1106 H 102.657 1.16849 5.61266 0
M  V30 1107 H 101.054 1.95739 5.6728 0
M  V30 1108 H 102.124 2.25746 4.29147 0
M  V30 1109 N 103.467 -1.45747 0.599634 0
M  V30 1110 C 104.707 -2.04181 0.0946309 0
M  V30 1111 C 105.071 -1.45895 -1.24815 0
M  V30 1112 O 106.272 -1.95633 -1.8434 0
M  V30 1113 C 104.543 -3.57368 0.047581 0
M  V30 1114 S 106.102 -4.36997 -0.397387 0
M  V30 1115 H 102.92 -0.70953 0.0456954 0
M  V30 1116 H 105.522 -1.78564 0.795946 0
M  V30 1117 H 104.226 -3.97303 1.02852 0
M  V30 1118 H 103.757 -3.87549 -0.675977 0
M  V30 1119 H 105.772 -4.68012 -1.64862 0
M  V30 1120 N 104.945 -0.338344 -1.53925 0
M  V30 1121 C 106.173 0.261298 -2.05243 0
M  V30 1122 C 106.588 1.44625 -1.21363 0
M  V30 1123 O 105.945 1.80811 -0.247736 0
M  V30 1124 C 105.996 0.681412 -3.5502 0
M  V30 1125 O 105.717 -0.456414 -4.35716 0
M  V30 1126 C 107.218 1.34232 -4.22489 0
M  V30 1127 H 104.438 0.0513685 -0.669031 0
M  V30 1128 H 106.982 -0.488822 -1.98572 0
M  V30 1129 H 105.137 1.38148 -3.61931 0
M  V30 1130 H 105.551 -0.122564 -5.24357 0
M  V30 1131 H 107.025 1.58708 -5.28693 0
M  V30 1132 H 107.502 2.29426 -3.74514 0
M  V30 1133 H 108.108 0.684424 -4.19757 0
M  V30 1134 N 106.423 1.57458 -0.0668435 0
M  V30 1135 C 107.353 2.15468 0.899764 0
M  V30 1136 C 108.334 1.08042 1.31381 0
M  V30 1137 O 109.519 1.36054 1.38574 0
M  V30 1138 C 106.649 2.71232 2.16911 0
M  V30 1139 C 105.603 3.83781 1.89463 0
M  V30 1140 C 104.929 4.26127 3.22986 0
M  V30 1141 C 106.229 5.08238 1.20381 0
M  V30 1142 H 107.923 2.96488 0.416529 0
M  V30 1143 H 105.469 1.4262 0.198908 0
M  V30 1144 H 107.422 3.10458 2.84945 0
M  V30 1145 H 106.146 1.87426 2.67468 0
M  V30 1146 H 104.805 3.45051 1.23836 0
M  V30 1147 H 104.453 3.39249 3.71374 0
M  V30 1148 H 104.153 5.01993 3.05413 0
M  V30 1149 H 105.677 4.67966 3.92225 0
M  V30 1150 H 107.091 5.44811 1.78475 0
M  V30 1151 H 105.488 5.89349 1.13083 0
M  V30 1152 H 106.558 4.84558 0.182153 0
M  V30 1153 N 107.901 -0.206675 1.56239 0
M  V30 1154 C 109.312 -0.772383 1.69974 0
M  V30 1155 C 109.663 -1.84353 0.671436 0
M  V30 1156 O 108.788 -2.15695 -0.174491 0
M  V30 1157 C 109.383 -1.40779 3.08167 0
M  V30 1158 C 107.942 -1.92072 3.23706 0
M  V30 1159 C 107.089 -0.786347 2.65917 0
M  V30 1160 H 110.04 0.0182223 1.5869 0
M  V30 1161 H 110.061 -2.27696 3.04852 0
M  V30 1162 H 109.573 -0.627958 3.82986 0
M  V30 1163 H 107.674 -2.7281 2.53782 0
M  V30 1164 H 107.787 -2.09046 4.31087 0
M  V30 1165 H 106.151 -1.1976 2.24788 0
M  V30 1166 H 106.934 -0.0189416 3.43295 0
M  V30 1167 N 109.379 -1.50304 -0.473955 0
M  V30 1168 C 110.626 -1.6115 -1.22625 0
M  V30 1169 C 110.954 -0.310517 -1.92005 0
M  V30 1170 O 110.209 0.703419 -1.82621 0
M  V30 1171 C 110.508 -2.73938 -2.29549 0
M  V30 1172 C 110.174 -4.14519 -1.7744 0
M  V30 1173 C 108.836 -4.5277 -1.62949 0
M  V30 1174 C 111.188 -5.02392 -1.3875 0
M  V30 1175 C 108.516 -5.76639 -1.08187 0
M  V30 1176 C 110.868 -6.26805 -0.854309 0
M  V30 1177 C 109.532 -6.63861 -0.696011 0
M  V30 1178 H 108.802 -0.589691 -0.448715 0
M  V30 1179 H 111.449 -1.84228 -0.522705 0
M  V30 1180 H 109.754 -2.44937 -3.05799 0
M  V30 1181 H 111.451 -2.79534 -2.87509 0
M  V30 1182 H 108.041 -3.8434 -1.89685 0
M  V30 1183 H 112.225 -4.73474 -1.4878 0
M  V30 1184 H 107.481 -6.04027 -0.946666 0
M  V30 1185 H 111.655 -6.94258 -0.545843 0
M  V30 1186 H 109.282 -7.59722 -0.26952 0
M  V30 1187 N 110.857 0.726932 -1.39834 0
M  V30 1188 C 112.103 1.48884 -1.377 0
M  V30 1189 C 112.436 1.94185 0.0244852 0
M  V30 1190 O 111.711 1.67361 0.990986 0
M  V30 1191 C 111.994 2.72288 -2.3565 0
M  V30 1192 C 111.847 2.32956 -3.84775 0
M  V30 1193 C 113.166 3.74414 -2.31306 0
M  V30 1194 H 110.285 0.540062 -0.5015 0
M  V30 1195 H 112.927 0.830547 -1.70886 0
M  V30 1196 H 111.077 3.28457 -2.07481 0
M  V30 1197 H 112.749 1.82356 -4.23726 0
M  V30 1198 H 110.992 1.65088 -4.01159 0
M  V30 1199 H 111.663 3.21362 -4.4881 0
M  V30 1200 H 114.139 3.27849 -2.56231 0
M  V30 1201 H 113.015 4.58414 -3.01907 0
M  V30 1202 H 113.276 4.21909 -1.32081 0
M  V30 1203 N 112.336 1.25143 0.95797 0
M  V30 1204 C 113.266 1.07711 2.07173 0
M  V30 1205 C 114.247 -0.0128462 1.70095 0
M  V30 1206 O 115.432 0.156061 1.93572 0
M  V30 1207 C 112.562 0.691503 3.40346 0
M  V30 1208 C 111.516 1.73132 3.9142 0
M  V30 1209 C 110.842 1.20049 5.21049 0
M  V30 1210 C 112.142 3.1294 4.1817 0
M  V30 1211 H 113.836 2.00873 2.22014 0
M  V30 1212 H 111.382 0.967191 1.06684 0
M  V30 1213 H 113.335 0.556505 4.17709 0
M  V30 1214 H 112.059 -0.275819 3.25433 0
M  V30 1215 H 110.718 1.8547 3.16222 0
M  V30 1216 H 110.366 0.223499 5.02503 0
M  V30 1217 H 110.066 1.89545 5.56189 0
M  V30 1218 H 111.59 1.07782 6.01012 0
M  V30 1219 H 113.004 3.03775 4.86203 0
M  V30 1220 H 111.401 3.79875 4.64559 0
M  V30 1221 H 112.471 3.6025 3.24573 0
M  V30 1222 N 113.814 -1.1601 1.06675 0
M  V30 1223 C 114.764 -2.18512 0.650888 0
M  V30 1224 C 115.748 -1.57677 -0.320441 0
M  V30 1225 O 116.94 -1.76482 -0.135266 0
M  V30 1226 C 114.069 -3.43273 0.0429255 0
M  V30 1227 C 113.155 -4.11176 1.03898 0
M  V30 1228 N 113.546 -4.54672 2.216 0
M  V30 1229 C 111.844 -4.37417 0.870779 0
M  V30 1230 C 112.545 -5.07248 2.84736 0
M  V30 1231 N 111.521 -5.0037 2.12441 0
M  V30 1232 H 115.323 -2.49863 1.54745 0
M  V30 1233 H 112.837 -1.32503 0.938975 0
M  V30 1234 H 114.834 -4.16006 -0.272857 0
M  V30 1235 H 113.494 -3.13408 -0.84884 0
M  V30 1236 H 114.505 -4.4828 2.59356 0
M  V30 1237 H 111.182 -4.17488 0.0313293 0
M  V30 1238 H 112.572 -5.50912 3.84636 0
M  V30 1239 N 115.292 -0.849877 -1.32721 0
M  V30 1240 C 116.517 -0.463856 -2.02146 0
M  V30 1241 C 116.942 0.930449 -1.63476 0
M  V30 1242 O 116.3 1.61033 -0.832952 0
M  V30 1243 C 116.348 -0.604955 -3.55489 0
M  V30 1244 O 115.452 0.36425 -4.10788 0
M  V30 1245 H 114.793 -0.187046 -0.637111 0
M  V30 1246 H 117.323 -1.14775 -1.69375 0
M  V30 1247 H 117.333 -0.490696 -4.05038 0
M  V30 1248 H 116.008 -1.62174 -3.82978 0
M  V30 1249 H 114.585 0.206628 -3.72327 0
M  V30 1250 N 116.77 1.45427 -0.607355 0
M  V30 1251 C 117.7 2.3329 0.0989352 0
M  V30 1252 C 118.681 1.46816 0.859007 0
M  V30 1253 O 119.866 1.75588 0.829604 0
M  V30 1254 C 116.996 3.29518 1.09705 0
M  V30 1255 C 115.95 4.25626 0.450206 0
M  V30 1256 C 115.276 5.11542 1.55655 0
M  V30 1257 C 116.576 5.18505 -0.628455 0
M  V30 1258 H 118.27 2.92595 -0.634716 0
M  V30 1259 H 115.816 1.40696 -0.306681 0
M  V30 1260 H 117.769 3.89855 1.59971 0
M  V30 1261 H 116.493 2.68372 1.86129 0
M  V30 1262 H 115.152 3.66586 -0.0315886 0
M  V30 1263 H 114.8 4.46765 2.31107 0
M  V30 1264 H 114.5 5.76647 1.12925 0
M  V30 1265 H 116.024 5.74748 2.06148 0
M  V30 1266 H 117.438 5.72916 -0.209877 0
M  V30 1267 H 115.835 5.92085 -0.977489 0
M  V30 1268 H 116.905 4.60948 -1.50514 0
M  V30 1269 N 118.248 0.346503 1.53744 0
M  V30 1270 C 119.664 -0.00530975 1.59599 0
M  V30 1271 C 119.864 -1.48465 1.36236 0
M  V30 1272 O 118.92 -2.24376 1.15808 0
M  V30 1273 C 120.233 0.433516 2.97559 0
M  V30 1274 C 121.781 0.386111 3.10609 0
M  V30 1275 C 122.256 0.800451 4.50951 0
M  V30 1276 N 123.747 0.754753 4.5701 0
M  V30 1277 C 124.482 1.04727 5.63755 0
M  V30 1278 N 123.978 1.4081 6.7834 0
M  V30 1279 N 125.771 0.971316 5.53644 0
M  V30 1280 H 117.922 1.31009 1.67184 0
M  V30 1281 H 120.185 0.534242 0.783128 0
M  V30 1282 H 119.891 1.46509 3.19731 0
M  V30 1283 H 119.765 -0.189753 3.76722 0
M  V30 1284 H 122.152 -0.636295 2.88158 0
M  V30 1285 H 122.233 1.04462 2.33498 0
M  V30 1286 H 121.877 1.82088 4.74137 0
M  V30 1287 H 121.807 0.119386 5.26465 0
M  V30 1288 H 124.298 0.488662 3.74727 0
M  V30 1289 H 124.611 1.61607 7.55714 0
M  V30 1290 H 122.956 1.44657 6.79779 0
M  V30 1291 H 126.147 0.688748 4.63005 0
M  V30 1292 H 126.32 1.20263 6.36742 0
M  V30 1293 N 119.726 -1.57421 0.075193 0
M  V30 1294 C 121.003 -1.85029 -0.634329 0
M  V30 1295 C 121.383 -0.968305 -1.87582 0
M  V30 1296 O 120.731 -0.0354749 -2.28472 0
M  V30 1297 C 120.941 -3.35286 -0.968742 0
M  V30 1298 C 122.289 -4.02875 -1.34077 0
M  V30 1299 O 123.313 -3.40051 -1.06037 0
M  V30 1300 O 122.172 -5.13691 -1.86506 0
M  V30 1301 H 119.266 -0.7645 -0.315387 0
M  V30 1302 H 121.812 -1.69366 0.106382 0
M  V30 1303 H 120.584 -3.91203 -0.0871376 0
M  V30 1304 H 120.207 -3.56223 -1.7661 0
M  V30 1305 N 121.204 0.198386 -1.56346 0
M  V30 1306 C 122.432 0.935572 -1.84539 0
M  V30 1307 C 122.847 1.76989 -0.657281 0
M  V30 1308 O 122.204 1.78626 0.374043 0
M  V30 1309 C 122.255 1.8344 -3.11499 0
M  V30 1310 O 121.976 1.03377 -4.25728 0
M  V30 1311 C 123.477 2.68355 -3.52846 0
M  V30 1312 H 120.697 0.273126 -0.612897 0
M  V30 1313 H 123.241 0.20663 -2.03453 0
M  V30 1314 H 121.396 2.51701 -2.94492 0
M  V30 1315 H 121.81 1.64599 -4.98003 0
M  V30 1316 H 123.284 3.27085 -4.44657 0
M  V30 1317 H 123.761 3.41901 -2.75681 0
M  V30 1318 H 124.367 2.05471 -3.72373 0
M  V30 1319 N 122.682 1.50554 0.465978 0
M  V30 1320 C 123.907 1.65838 1.24549 0
M  V30 1321 C 124.332 0.343486 1.84937 0
M  V30 1322 O 123.69 -0.69324 1.67523 0
M  V30 1323 C 123.738 2.75533 2.32624 0
M  V30 1324 O 122.842 2.37142 3.37398 0
M  V30 1325 H 122.183 0.553893 0.366194 0
M  V30 1326 H 124.713 1.96959 0.553927 0
M  V30 1327 H 124.723 2.98763 2.77857 0
M  V30 1328 H 123.398 3.70962 1.88043 0
M  V30 1329 H 121.975 2.24377 2.97841 0
M  V30 1330 N 124.16 -0.719506 1.40217 0
M  V30 1331 C 125.437 -1.47221 1.28784 0
M  V30 1332 C 125.817 -2.10883 -0.0956067 0
M  V30 1333 O 125.165 -1.99833 -1.10811 0
M  V30 1334 C 125.375 -2.5111 2.42373 0
M  V30 1335 C 126.723 -3.17053 2.82423 0
M  V30 1336 O 127.747 -2.61429 2.41937 0
M  V30 1337 O 126.606 -4.17742 3.52355 0
M  V30 1338 H 123.7 -0.654491 0.50554 0
M  V30 1339 H 126.246 -0.752014 1.52128 0
M  V30 1340 H 125.018 -2.02556 3.34793 0
M  V30 1341 H 124.641 -3.3067 2.20778 0
M  V30 1342 N 125.638 -1.25649 -0.95132 0
M  V30 1343 C 126.866 -1.13343 -1.73092 0
M  V30 1344 C 127.281 0.312434 -1.86197 0
M  V30 1345 O 126.638 1.21465 -1.36207 0
M  V30 1346 C 126.689 -1.78602 -3.14299 0
M  V30 1347 O 126.41 -3.17537 -3.01831 0
M  V30 1348 C 127.911 -1.72119 -4.08522 0
M  V30 1349 H 125.131 -0.395181 -0.542285 0
M  V30 1350 H 127.675 -1.66076 -1.19328 0
M  V30 1351 H 125.83 -1.29832 -3.64996 0
M  V30 1352 H 126.244 -3.49676 -3.90931 0
M  V30 1353 H 127.718 -2.22435 -5.052 0
M  V30 1354 H 128.195 -0.685635 -4.33815 0
M  V30 1355 H 128.801 -2.20393 -3.63741 0
M  V30 1356 N 127.117 1.15442 -1.07289 0
M  V30 1357 C 128.528 1.67803 -0.818475 0
M  V30 1358 C 128.879 1.8489 0.656507 0
M  V30 1359 O 128.004 1.55176 1.50829 0
M  V30 1360 C 128.599 3.04805 -1.47917 0
M  V30 1361 C 127.158 3.54245 -1.27229 0
M  V30 1362 C 126.305 2.29986 -1.54925 0
M  V30 1363 H 129.256 0.996646 -1.23502 0
M  V30 1364 H 129.277 3.69702 -0.90005 0
M  V30 1365 H 128.789 2.92336 -2.55267 0
M  V30 1366 H 126.89 3.71956 -0.21899 0
M  V30 1367 H 127.003 4.35723 -1.99203 0
M  V30 1368 H 125.367 2.35496 -0.970242 0
M  V30 1369 H 126.15 2.20105 -2.63455 0
M  V30 1370 N 128.595 0.856903 1.32268 0
M  V30 1371 C 129.525 0.31858 2.31316 0
M  V30 1372 C 130.506 -0.583487 1.59779 0
M  V30 1373 O 131.691 -0.503259 1.87566 0
M  V30 1374 C 128.821 -0.491979 3.43798 0
M  V30 1375 C 127.775 0.315849 4.26833 0
M  V30 1376 C 127.101 -0.619586 5.31098 0
M  V30 1377 C 128.401 1.54282 4.98993 0
M  V30 1378 H 130.095 1.14621 2.76591 0
M  V30 1379 H 127.641 0.552613 1.32974 0
M  V30 1380 H 129.594 -0.879012 4.1213 0
M  V30 1381 H 128.318 -1.35299 2.97257 0
M  V30 1382 H 126.977 0.684664 3.6015 0
M  V30 1383 H 126.625 -1.47751 4.8081 0
M  V30 1384 H 126.325 -0.0830621 5.87541 0
M  V30 1385 H 127.849 -1.00375 6.02293 0
M  V30 1386 H 129.263 1.22796 5.59995 0
M  V30 1387 H 127.66 2.01745 5.65172 0
M  V30 1388 H 128.73 2.30285 4.26728 0
M  V30 1389 N 130.073 -1.45103 0.615059 0
M  V30 1390 C 131.313 -2.04069 0.116282 0
M  V30 1391 C 131.677 -1.4721 -1.2326 0
M  V30 1392 O 132.878 -1.97577 -1.82255 0
M  V30 1393 C 131.149 -3.57298 0.085482 0
M  V30 1394 S 132.708 -4.37394 -0.351015 0
M  V30 1395 H 129.526 -0.709006 0.0532183 0
M  V30 1396 H 132.128 -1.77709 0.81484 0
M  V30 1397 H 130.832 -3.9619 1.0706 0
M  V30 1398 H 130.363 -3.88244 -0.634835 0
M  V30 1399 H 132.378 -4.69734 -1.59889 0
M  V30 1400 N 131.551 -0.354651 -1.53558 0
M  V30 1401 C 132.483 0.5315 -2.22952 0
M  V30 1402 C 133.496 1.05503 -1.23988 0
M  V30 1403 O 134.685 0.963279 -1.50277 0
M  V30 1404 C 131.785 1.74538 -2.90499 0
M  V30 1405 C 130.958 1.35524 -4.15875 0
M  V30 1406 C 130.017 2.42999 -4.66731 0
M  V30 1407 O 129.043 2.05844 -5.30676 0
M  V30 1408 N 130.245 3.74423 -4.43608 0
M  V30 1409 H 133.01 -0.0628615 -2.99634 0
M  V30 1410 H 130.571 -0.179302 -1.60904 0
M  V30 1411 H 132.563 2.45892 -3.21433 0
M  V30 1412 H 131.133 2.24686 -2.17336 0
M  V30 1413 H 130.353 0.471998 -3.91364 0
M  V30 1414 H 131.641 1.07071 -4.97406 0
M  V30 1415 H 131.039 4.07391 -3.92491 0
M  V30 1416 H 129.596 4.41913 -4.7912 0
M  V30 1417 N 133.029 1.57378 -0.0835403 0
M  V30 1418 C 133.959 2.1641 0.87686 0
M  V30 1419 C 134.94 1.09429 1.30228 0
M  V30 1420 O 136.125 1.37516 1.37124 0
M  V30 1421 C 133.255 2.73517 2.14022 0
M  V30 1422 C 132.209 3.85769 1.85381 0
M  V30 1423 C 131.535 4.29529 3.18448 0
M  V30 1424 C 132.835 5.09486 1.14984 0
M  V30 1425 H 134.529 2.96914 0.385059 0
M  V30 1426 H 132.075 1.42823 0.18377 0
M  V30 1427 H 134.028 3.13463 2.81636 0
M  V30 1428 H 132.752 1.90252 2.65465 0
M  V30 1429 H 131.411 3.46345 1.20169 0
M  V30 1430 H 131.059 3.43169 3.67755 0
M  V30 1431 H 130.759 5.05204 3.00071 0
M  V30 1432 H 132.283 4.72099 3.8724 0
M  V30 1433 H 133.697 5.46674 1.72687 0
M  V30 1434 H 132.094 5.90515 1.06826 0
M  V30 1435 H 133.164 4.84724 0.130749 0
M  V30 1436 N 134.507 -0.190092 1.56449 0
M  V30 1437 C 135.732 -0.929864 1.85387 0
M  V30 1438 C 136.157 -1.7585 0.667704 0
M  V30 1439 O 135.515 -1.77198 -0.383459 0
M  V30 1440 C 135.563 -1.79773 3.12593 0
M  V30 1441 O 134.667 -2.89713 2.93496 0
M  V30 1442 H 134.008 -0.261574 0.610307 0
M  V30 1443 H 136.538 -0.193896 2.03679 0
M  V30 1444 H 136.548 -2.20139 3.43515 0
M  V30 1445 H 135.223 -1.18892 3.98544 0
M  V30 1446 H 133.8 -2.53065 2.73884 0
M  V30 1447 N 135.985 -1.50799 -0.457987 0
M  V30 1448 C 136.917 -1.66786 -1.57211 0
M  V30 1449 C 137.93 -0.548962 -1.53265 0
M  V30 1450 O 139.119 -0.8226 -1.58416 0
M  V30 1451 C 136.219 -1.64834 -2.96113 0
M  V30 1452 C 135.392 -2.92971 -3.24787 0
M  V30 1453 C 134.451 -2.83485 -4.43309 0
M  V30 1454 O 133.477 -3.5744 -4.42973 0
M  V30 1455 N 134.679 -1.97929 -5.45714 0
M  V30 1456 H 137.444 -2.62889 -1.43909 0
M  V30 1457 H 135.005 -1.48427 -0.646617 0
M  V30 1458 H 136.997 -1.56084 -3.7339 0
M  V30 1459 H 135.567 -0.764118 -3.03117 0
M  V30 1460 H 134.787 -3.15749 -2.36 0
M  V30 1461 H 136.075 -3.77834 -3.40762 0
M  V30 1462 H 135.473 -1.37182 -5.48815 0
M  V30 1463 H 134.03 -1.95073 -6.21924 0
M  V30 1464 N 137.463 0.71206 -1.40597 0
M  V30 1465 C 138.711 1.46907 -1.38791 0
M  V30 1466 C 139.032 1.94998 0.00780391 0
M  V30 1467 O 138.302 1.70587 0.963174 0
M  V30 1468 H 136.882 0.545043 -0.51082 0
M  V30 1469 H 139.544 0.843882 -1.75683 0
M  V30 1470 H 138.64 2.34021 -2.06496 0
M  V30 1471 N 138.941 1.26152 0.944643 0
M  V30 1472 C 140.19 1.10883 1.68487 0
M  V30 1473 C 140.503 -0.348153 1.92477 0
M  V30 1474 O 141.709 -0.621459 2.64292 0
M  V30 1475 C 140.165 1.93624 3.03377 0
M  V30 1476 C 139.773 3.43875 2.87148 0
M  V30 1477 C 141.517 1.86954 3.81115 0
M  V30 1478 C 139.424 4.18875 4.1749 0
M  V30 1479 H 138.354 0.41135 0.631907 0
M  V30 1480 H 141.005 1.50433 1.05082 0
M  V30 1481 H 139.387 1.46904 3.67743 0
M  V30 1482 H 140.561 3.98338 2.31653 0
M  V30 1483 H 138.876 3.51744 2.22856 0
M  V30 1484 H 141.473 2.40275 4.77673 0
M  V30 1485 H 141.816 0.839518 4.07747 0
M  V30 1486 H 142.349 2.31477 3.23517 0
M  V30 1487 H 139.088 5.22332 3.96043 0
M  V30 1488 H 138.608 3.69193 4.72712 0
M  V30 1489 H 140.287 4.27134 4.85968 0
M  V30 1490 N 140.419 -1.14872 1.07899 0
M  V30 1491 C 141.649 -1.89386 0.825631 0
M  V30 1492 C 142.057 -1.78565 -0.625406 0
M  V30 1493 O 141.4 -1.13918 -1.44113 0
M  V30 1494 C 141.462 -3.40206 1.16191 0
M  V30 1495 C 141.126 -3.74812 2.61467 0
M  V30 1496 C 142.123 -3.75367 3.59716 0
M  V30 1497 C 139.808 -4.0495 2.97189 0
M  V30 1498 C 141.802 -4.05574 4.9172 0
M  V30 1499 C 139.489 -4.34821 4.29388 0
M  V30 1500 C 140.487 -4.35116 5.26463 0
M  V30 1501 O 140.175 -4.64267 6.56286 0
M  V30 1502 H 139.907 -0.606894 0.297751 0
M  V30 1503 H 142.461 -1.46438 1.44031 0
M  V30 1504 H 140.691 -3.8358 0.490214 0
M  V30 1505 H 142.38 -3.96018 0.890193 0
M  V30 1506 H 143.146 -3.52176 3.33462 0
M  V30 1507 H 139.025 -4.03876 2.22273 0
M  V30 1508 H 142.569 -4.05719 5.67484 0
M  V30 1509 H 138.466 -4.5748 4.55392 0
M  V30 1510 H 139.234 -4.82007 6.61522 0
M  V30 1511 N 141.898 -0.863906 -1.31812 0
M  V30 1512 C 142.828 -0.330843 -2.31144 0
M  V30 1513 C 143.809 0.575005 -1.60087 0
M  V30 1514 O 144.994 0.493304 -1.8783 0
M  V30 1515 C 142.124 0.47374 -3.44054 0
M  V30 1516 C 141.078 -0.338481 -4.26659 0
M  V30 1517 C 140.404 0.591412 -5.31419 0
M  V30 1518 C 141.704 -1.56926 -4.98168 0
M  V30 1519 H 143.398 -1.16086 -2.75979 0
M  V30 1520 H 140.944 -0.559657 -1.32679 0
M  V30 1521 H 142.897 0.857143 -4.12591 0
M  V30 1522 H 141.621 1.33721 -2.9797 0
M  V30 1523 H 140.28 -0.703754 -3.59782 0
M  V30 1524 H 139.928 1.45199 -4.81587 0
M  V30 1525 H 139.628 0.0519022 -5.87577 0
M  V30 1526 H 141.152 0.97179 -6.02817 0
M  V30 1527 H 142.566 -1.25764 -5.59336 0
M  V30 1528 H 140.963 -2.04739 -5.64094 0
M  V30 1529 H 142.033 -2.32544 -4.25501 0
M  V30 1530 N 143.376 1.44774 -0.622745 0
M  V30 1531 C 144.604 2.06487 -0.130722 0
M  V30 1532 C 145.019 1.46476 1.19123 0
M  V30 1533 O 144.376 0.584502 1.72887 0
M  V30 1534 C 144.427 3.615 -0.000807207 0
M  V30 1535 O 144.148 4.19274 -1.27048 0
M  V30 1536 C 145.649 4.40229 0.520898 0
M  V30 1537 H 142.869 0.666704 -0.0758106 0
M  V30 1538 H 145.413 1.85779 -0.854774 0
M  V30 1539 H 143.568 3.81498 0.673643 0
M  V30 1540 H 143.982 5.12622 -1.1099 0
M  V30 1541 H 145.456 5.49144 0.560838 0
M  V30 1542 H 145.933 4.1108 1.54627 0
M  V30 1543 H 146.539 4.25131 -0.120018 0
M  V30 1544 N 144.854 0.36279 1.53368 0
M  V30 1545 C 145.802 -0.500155 2.27159 0
M  V30 1546 C 146.796 -1.08575 1.3003 0
M  V30 1547 O 148.002 -1.02927 1.47668 0
M  V30 1548 H 144.377 -0.180009 0.730138 0
M  V30 1549 H 146.348 0.14401 2.98052 0
M  V30 1550 C 145.097 -1.62937 3.07159 0
M  V30 1551 H 144.42 -1.18806 3.8174 0
M  V30 1552 H 145.86 -2.20795 3.61975 0
M  V30 1553 C 144.319 -2.57007 2.17829 0
M  V30 1554 O 144.849 -3.59752 1.78721 0
M  V30 1555 N 143.055 -2.26131 1.82518 0
M  V30 1556 H 142.602 -1.42616 2.14519 0
M  V30 1557 H 142.56 -2.89327 1.23034 0
M  V30 1558 N 146.332 -1.57332 0.0918853 0
M  V30 1559 C 147.748 -1.57389 -0.264766 0
M  V30 1560 C 147.948 -1.10281 -1.68643 0
M  V30 1561 O 147.004 -0.777801 -2.40222 0
M  V30 1562 C 148.317 -3.00648 -0.0561195 0
M  V30 1563 C 149.865 -3.12754 -0.124116 0
M  V30 1564 C 150.34 -4.57965 0.0564972 0
M  V30 1565 N 151.831 -4.632 0.00155611 0
M  V30 1566 C 152.566 -5.73281 0.116598 0
M  V30 1567 N 152.062 -6.92208 0.286294 0
M  V30 1568 N 153.855 -5.6207 0.0580973 0
M  V30 1569 H 146.006 -1.86262 1.02079 0
M  V30 1570 H 148.269 -0.859579 0.399786 0
M  V30 1571 H 147.975 -3.393 0.925669 0
M  V30 1572 H 147.849 -3.68623 -0.799823 0
M  V30 1573 H 150.236 -2.73976 -1.09641 0
M  V30 1574 H 150.317 -2.47377 0.651024 0
M  V30 1575 H 149.961 -4.97436 1.02564 0
M  V30 1576 H 149.891 -5.21399 -0.738297 0
M  V30 1577 H 152.382 -3.77686 -0.127192 0
M  V30 1578 H 152.695 -7.71934 0.365676 0
M  V30 1579 H 151.04 -6.94254 0.32192 0
M  V30 1580 H 154.231 -4.68043 -0.0733204 0
M  V30 1581 H 154.404 -6.47824 0.151203 0
M  V30 1582 N 147.81 0.181792 -1.56548 0
M  V30 1583 C 149.04 0.914618 -1.85252 0
M  V30 1584 C 149.448 1.76791 -0.673914 0
M  V30 1585 O 148.791 1.80009 0.366416 0
M  V30 1586 C 148.853 1.85019 -3.08234 0
M  V30 1587 C 148.517 1.17754 -4.41569 0
M  V30 1588 C 149.514 0.548035 -5.17003 0
M  V30 1589 C 147.199 1.17742 -4.88305 0
M  V30 1590 C 149.193 -0.0726128 -6.37359 0
M  V30 1591 C 146.88 0.552946 -6.08593 0
M  V30 1592 C 147.878 -0.070978 -6.82963 0
M  V30 1593 O 147.566 -0.685635 -8.00971 0
M  V30 1594 H 147.298 0.271695 -0.618998 0
M  V30 1595 H 149.852 0.189944 -2.0452 0
M  V30 1596 H 148.082 2.61491 -2.84885 0
M  V30 1597 H 149.771 2.45195 -3.23472 0
M  V30 1598 H 150.537 0.540174 -4.81982 0
M  V30 1599 H 146.416 1.65246 -4.30366 0
M  V30 1600 H 149.96 -0.560213 -6.95347 0
M  V30 1601 H 145.857 0.558354 -6.43081 0
M  V30 1602 H 146.625 -0.58385 -8.16415 0
M  V30 1603 N 149.288 1.51039 0.449983 0
M  V30 1604 C 150.221 1.66105 1.56474 0
M  V30 1605 C 151.199 0.508776 1.54435 0
M  V30 1606 O 152.383 0.731005 1.73749 0
M  V30 1607 C 149.51 1.66304 2.9506 0
M  V30 1608 C 148.556 2.87346 3.15174 0
M  V30 1609 S 149.389 4.4835 2.92818 0
M  V30 1610 C 150.545 4.51274 4.33708 0
M  V30 1611 H 150.778 2.60397 1.43459 0
M  V30 1612 H 148.311 1.40565 0.638805 0
M  V30 1613 H 150.269 1.67103 3.74949 0
M  V30 1614 H 148.93 0.732108 3.05449 0
M  V30 1615 H 148.123 2.83849 4.16468 0
M  V30 1616 H 147.725 2.84223 2.43091 0
M  V30 1617 H 150.017 4.26136 5.26701 0
M  V30 1618 H 150.96 5.53017 4.42242 0
M  V30 1619 H 151.368 3.80738 4.16772 0
M  V30 1620 N 150.766 -0.704594 1.40972 0
M  V30 1621 C 151.991 -1.49858 1.43378 0
M  V30 1622 C 152.416 -1.88061 0.038184 0
M  V30 1623 O 151.774 -1.5402 -0.956425 0
M  V30 1624 C 151.822 -2.74333 2.34038 0
M  V30 1625 O 150.926 -3.7147 1.7912 0
M  V30 1626 H 150.267 -0.45139 0.486974 0
M  V30 1627 H 152.797 -0.866832 1.8533 0
M  V30 1628 H 152.807 -3.22741 2.49604 0
M  V30 1629 H 151.482 -2.45863 3.35446 0
M  V30 1630 H 150.059 -3.30363 1.72958 0
M  V30 1631 N 152.244 -1.26651 -0.937939 0
M  V30 1632 C 153.493 -1.11775 -1.67897 0
M  V30 1633 C 153.806 0.33794 -1.92659 0
M  V30 1634 O 155.012 0.607434 -2.64618 0
M  V30 1635 C 153.468 -1.9523 -3.02346 0
M  V30 1636 C 153.076 -3.45393 -2.8532 0
M  V30 1637 C 154.82 -1.88972 -3.80118 0
M  V30 1638 C 152.727 -4.21083 -4.15263 0
M  V30 1639 H 151.657 -0.414696 -0.629717 0
M  V30 1640 H 154.308 -1.50988 -1.04283 0
M  V30 1641 H 152.69 -1.48853 -3.66959 0
M  V30 1642 H 153.864 -3.99561 -2.29537 0
M  V30 1643 H 152.179 -3.52921 -2.20988 0
M  V30 1644 H 154.776 -2.42805 -4.76392 0
M  V30 1645 H 155.119 -0.86113 -4.07296 0
M  V30 1646 H 155.652 -2.33189 -3.22285 0
M  V30 1647 H 152.391 -5.24425 -3.93267 0
M  V30 1648 H 151.911 -3.71695 -4.70747 0
M  V30 1649 H 153.59 -4.29706 -4.83696 0
M  V30 1650 N 153.722 1.14298 -1.08507 0
M  V30 1651 C 154.947 1.8976 -0.837001 0
M  V30 1652 C 155.372 1.78097 0.605228 0
M  V30 1653 O 154.73 1.12188 1.4242 0
M  V30 1654 C 154.778 3.37685 -1.26495 0
M  V30 1655 O 153.882 4.10281 -0.417514 0
M  V30 1656 H 153.223 0.590365 -0.303917 0
M  V30 1657 H 155.753 1.44672 -1.44676 0
M  V30 1658 H 155.763 3.88501 -1.24625 0
M  V30 1659 H 154.438 3.45492 -2.31534 0
M  V30 1660 H 153.015 3.69536 -0.499722 0
M  V30 1661 N 155.201 0.870884 1.31352 0
M  V30 1662 C 156.131 0.343096 2.30966 0
M  V30 1663 C 157.112 -0.566507 1.60389 0
M  V30 1664 O 158.297 -0.483336 1.88089 0
M  V30 1665 C 155.427 -0.455487 3.443 0
M  V30 1666 C 154.381 0.361103 4.26474 0
M  V30 1667 C 153.707 -0.563221 5.31725 0
M  V30 1668 C 155.007 1.59566 4.97329 0
M  V30 1669 H 156.701 1.17548 2.75359 0
M  V30 1670 H 154.247 0.566686 1.32381 0
M  V30 1671 H 156.2 -0.83525 4.13039 0
M  V30 1672 H 154.924 -1.32139 2.98675 0
M  V30 1673 H 153.583 0.722825 3.59403 0
M  V30 1674 H 153.231 -1.42643 4.82351 0
M  V30 1675 H 152.931 -0.0207409 5.87596 0
M  V30 1676 H 154.455 -0.939808 6.03324 0
M  V30 1677 H 155.869 1.28728 5.58661 0
M  V30 1678 H 154.266 2.07728 5.63 0
M  V30 1679 H 155.336 2.34798 4.24262 0
M  V30 1680 N 156.679 -1.44442 0.630414 0
M  V30 1681 C 157.925 -2.02351 0.134816 0
M  V30 1682 C 158.258 -1.4947 -1.23986 0
M  V30 1683 O 157.533 -0.678475 -1.82283 0
M  V30 1684 C 157.816 -3.59898 0.120707 0
M  V30 1685 C 157.669 -4.23063 1.52767 0
M  V30 1686 C 158.988 -4.36585 -0.555127 0
M  V30 1687 H 156.107 -0.73527 0.0504646 0
M  V30 1688 H 158.749 -1.72022 0.806751 0
M  V30 1689 H 156.899 -3.85868 -0.451477 0
M  V30 1690 H 158.571 -4.08202 2.14869 0
M  V30 1691 H 156.814 -3.80586 2.08175 0
M  V30 1692 H 157.485 -5.32071 1.46984 0
M  V30 1693 H 159.961 -4.16044 -0.0685429 0
M  V30 1694 H 158.837 -5.46294 -0.534185 0
M  V30 1695 H 159.098 -4.11138 -1.62535 0
M  V30 1696 N 158.157 -0.370918 -1.53173 0
M  V30 1697 C 159.385 0.217704 -2.05751 0
M  V30 1698 C 159.8 1.42018 -1.24404 0
M  V30 1699 O 159.157 1.80245 -0.286033 0
M  V30 1700 C 159.208 0.605954 -3.56385 0
M  V30 1701 O 158.929 -0.548734 -4.3465 0
M  V30 1702 C 160.43 1.2524 -4.25241 0
M  V30 1703 H 157.65 0.0371659 -0.66997 0
M  V30 1704 H 160.194 -0.530832 -1.9749 0
M  V30 1705 H 158.349 1.3044 -3.6478 0
M  V30 1706 H 158.763 -0.23376 -5.23979 0
M  V30 1707 H 160.237 1.47458 -5.3194 0
M  V30 1708 H 160.714 2.2143 -3.79296 0
M  V30 1709 H 161.32 0.595233 -4.21114 0
M  V30 1710 N 159.635 1.57281 -0.100228 0
M  V30 1711 C 160.598 2.13158 0.842398 0
M  V30 1712 C 161.598 1.06202 1.20738 0
M  V30 1713 O 162.788 1.32066 1.13597 0
M  V30 1714 C 159.92 2.65639 2.13655 0
M  V30 1715 H 161.113 2.97766 0.357114 0
M  V30 1716 H 158.666 1.5559 0.148823 0
M  V30 1717 H 159.401 1.84566 2.66657 0
M  V30 1718 H 159.186 3.43844 1.88451 0
M  V30 1719 H 160.676 3.08846 2.81077 0
M  V30 1720 N 161.113 -0.173488 1.56642 0
M  V30 1721 C 162.362 -0.888758 1.81063 0
M  V30 1722 C 162.675 -1.83506 0.67712 0
M  V30 1723 O 163.881 -2.59254 0.806206 0
M  V30 1724 C 162.337 -1.63091 3.20826 0
M  V30 1725 C 161.945 -0.728357 4.4204 0
M  V30 1726 C 163.689 -2.33454 3.54541 0
M  V30 1727 C 161.596 -1.47062 5.72823 0
M  V30 1728 H 160.526 -0.335618 0.675186 0
M  V30 1729 H 163.177 -0.141712 1.82952 0
M  V30 1730 H 161.559 -2.42263 3.13248 0
M  V30 1731 H 162.733 0.0262449 4.60793 0
M  V30 1732 H 161.048 -0.134492 4.16183 0
M  V30 1733 H 163.645 -2.89578 4.49498 0
M  V30 1734 H 163.988 -3.08687 2.79317 0
M  V30 1735 H 164.521 -1.61227 3.63663 0
M  V30 1736 H 161.26 -0.760658 6.51072 0
M  V30 1737 H 160.78 -2.1986 5.58052 0
M  V30 1738 H 162.459 -2.01868 6.14702 0
M  V30 1739 N 162.591 -1.51276 -0.441967 0
M  V30 1740 C 163.554 -1.7167 -1.51862 0
M  V30 1741 C 164.554 -0.586793 -1.49711 0
M  V30 1742 O 165.744 -0.854276 -1.51815 0
M  V30 1743 C 162.876 -1.76889 -2.91416 0
M  V30 1744 H 164.069 -2.67754 -1.35084 0
M  V30 1745 H 161.622 -1.41196 -0.670333 0
M  V30 1746 H 162.357 -0.826026 -3.13604 0
M  V30 1747 H 162.142 -2.59001 -2.94382 0
M  V30 1748 H 163.632 -1.94522 -3.69528 0
M  V30 1749 N 164.069 0.697108 -1.41344 0
M  V30 1750 C 165.315 1.4593 -1.40827 0
M  V30 1751 C 165.648 1.94193 -0.0167098 0
M  V30 1752 O 164.923 1.69425 0.955263 0
M  V30 1753 C 165.206 2.67229 -2.41373 0
M  V30 1754 C 165.059 2.24741 -3.8963 0
M  V30 1755 C 166.378 3.69423 -2.39196 0
M  V30 1756 H 163.497 0.529303 -0.512842 0
M  V30 1757 H 166.139 0.794112 -1.72609 0
M  V30 1758 H 164.289 3.23982 -2.14401 0
M  V30 1759 H 165.961 1.73327 -4.27499 0
M  V30 1760 H 164.204 1.56542 -4.0457 0
M  V30 1761 H 164.875 3.1177 -4.55525 0
M  V30 1762 H 167.351 3.2234 -2.63128 0
M  V30 1763 H 166.227 4.51907 -3.11563 0
M  V30 1764 H 166.488 4.19012 -1.41001 0
M  V30 1765 N 165.547 1.27147 0.931209 0
M  V30 1766 C 166.824 1.0401 1.65654 0
M  V30 1767 C 167.204 -0.426297 2.06751 0
M  V30 1768 O 166.552 -1.40879 1.79904 0
M  V30 1769 C 166.762 1.99834 2.86125 0
M  V30 1770 C 168.11 2.29007 3.57549 0
M  V30 1771 O 169.134 1.97779 2.96246 0
M  V30 1772 O 167.993 2.82222 4.67989 0
M  V30 1773 H 165.087 0.396239 0.725895 0
M  V30 1774 H 167.633 1.38397 0.982056 0
M  V30 1775 H 166.405 2.98744 2.52721 0
M  V30 1776 H 166.028 1.65987 3.61295 0
M  V30 1777 N 167.025 -1.13721 1.09112 0
M  V30 1778 C 168.441 -1.36914 0.820174 0
M  V30 1779 C 168.641 -1.93356 -0.567079 0
M  V30 1780 O 167.697 -2.15093 -1.32255 0
M  V30 1781 C 169.01 -2.3235 1.90877 0
M  V30 1782 C 170.558 -2.45973 1.93562 0
M  V30 1783 C 171.033 -3.44714 3.01556 0
M  V30 1784 N 172.524 -3.52263 3.00775 0
M  V30 1785 C 173.259 -4.28536 3.80978 0
M  V30 1786 N 172.755 -5.07991 4.71081 0
M  V30 1787 N 174.548 -4.23804 3.69251 0
M  V30 1788 H 166.699 -0.754348 1.98553 0
M  V30 1789 H 168.962 -0.3944 0.862063 0
M  V30 1790 H 168.668 -1.98027 2.90651 0
M  V30 1791 H 168.542 -3.32332 1.78424 0
M  V30 1792 H 170.929 -2.79584 0.944286 0
M  V30 1793 H 171.01 -1.45926 2.10093 0
M  V30 1794 H 170.654 -3.11835 4.00901 0
M  V30 1795 H 170.584 -4.44558 2.82269 0
M  V30 1796 H 173.075 -2.95567 2.35475 0
M  V30 1797 H 173.388 -5.63487 5.28869 0
M  V30 1798 H 171.733 -5.07235 4.75119 0
M  V30 1799 H 174.924 -3.60806 2.98222 0
M  V30 1800 H 175.097 -4.82995 4.31995 0
M  V30 1801 N 168.503 -0.877838 -1.30888 0
M  V30 1802 C 169.733 -0.506678 -2.00291 0
M  V30 1803 C 170.141 0.907449 -1.66018 0
M  V30 1804 O 169.484 1.60719 -0.88967 0
M  V30 1805 C 169.546 -0.59323 -3.54572 0
M  V30 1806 C 169.21 -1.97038 -4.12341 0
M  V30 1807 C 170.207 -2.93889 -4.28865 0
M  V30 1808 C 167.892 -2.27383 -4.47886 0
M  V30 1809 C 169.886 -4.19224 -4.80136 0
M  V30 1810 C 167.573 -3.52965 -4.98857 0
M  V30 1811 C 168.571 -4.48701 -5.14934 0
M  V30 1812 O 168.259 -5.72056 -5.64808 0
M  V30 1813 H 167.991 -0.1951 -0.647234 0
M  V30 1814 H 170.545 -1.18301 -1.6791 0
M  V30 1815 H 168.775 0.140057 -3.86446 0
M  V30 1816 H 170.464 -0.234372 -4.05223 0
M  V30 1817 H 171.23 -2.71756 -4.01714 0
M  V30 1818 H 167.109 -1.53639 -4.34645 0
M  V30 1819 H 170.653 -4.93956 -4.92599 0
M  V30 1820 H 166.55 -3.74939 -5.25443 0
M  V30 1821 H 167.318 -5.74337 -5.83163 0
M  V30 1822 N 169.982 1.44106 -0.638065 0
M  V30 1823 C 171.228 2.02277 -0.145546 0
M  V30 1824 C 171.561 1.50125 1.23191 0
M  V30 1825 O 170.836 0.688133 1.8192 0
M  V30 1826 C 171.119 3.59829 -0.139791 0
M  V30 1827 C 170.972 4.22247 -1.55008 0
M  V30 1828 C 172.291 4.36873 0.531966 0
M  V30 1829 H 169.41 0.734992 -0.0543632 0
M  V30 1830 H 172.052 1.71592 -0.815863 0
M  V30 1831 H 170.202 3.86102 0.431007 0
M  V30 1832 H 171.874 4.07057 -2.1703 0
M  V30 1833 H 170.117 3.79476 -2.10191 0
M  V30 1834 H 170.788 5.31284 -1.49804 0
M  V30 1835 H 173.264 4.16074 0.0464781 0
M  V30 1836 H 172.14 5.4657 0.505206 0
M  V30 1837 H 172.401 4.11995 1.60352 0
M  V30 1838 N 171.46 0.379036 1.52974 0
M  V30 1839 C 172.423 -0.448865 2.24762 0
M  V30 1840 C 173.423 -0.998689 1.26027 0
M  V30 1841 O 174.613 -0.882313 1.50203 0
M  V30 1842 C 171.745 -1.62872 2.99476 0
M  V30 1843 H 172.938 0.179491 2.99362 0
M  V30 1844 H 170.491 0.13096 1.5575 0
M  V30 1845 H 171.226 -2.29479 2.29151 0
M  V30 1846 H 171.011 -1.24128 3.71934 0
M  V30 1847 H 172.501 -2.2151 3.5401 0
M  V30 1848 N 172.938 -1.57226 0.108567 0
M  V30 1849 C 174.184 -1.95121 -0.552761 0
M  V30 1850 C 174.517 -0.991345 -1.66991 0
M  V30 1851 O 173.792 -0.0267211 -1.94482 0
M  V30 1852 C 174.075 -3.43039 -1.09528 0
M  V30 1853 C 173.928 -4.49797 0.0177332 0
M  V30 1854 C 175.247 -3.92567 -1.98945 0
M  V30 1855 H 172.366 -0.709496 -0.199461 0
M  V30 1856 H 175.008 -1.89126 0.182011 0
M  V30 1857 H 173.158 -3.48279 -1.72146 0
M  V30 1858 H 174.83 -4.56661 0.652584 0
M  V30 1859 H 173.073 -4.284 0.682309 0
M  V30 1860 H 173.744 -5.50528 -0.402919 0
M  V30 1861 H 176.22 -3.89565 -1.46214 0
M  V30 1862 H 175.096 -4.96605 -2.33827 0
M  V30 1863 H 175.357 -3.32648 -2.91201 0
M  V30 1864 N 174.416 0.165178 -1.56732 0
M  V30 1865 C 175.832 0.517174 -1.50988 0
M  V30 1866 C 176.032 1.84331 -0.813894 0
M  V30 1867 O 175.088 2.49672 -0.37682 0
M  V30 1868 C 176.401 0.544261 -2.95733 0
M  V30 1869 C 177.949 0.631039 -3.06573 0
M  V30 1870 C 178.424 0.68896 -4.52788 0
M  V30 1871 N 179.915 0.751683 -4.5706 0
M  V30 1872 C 180.65 0.817177 -5.67547 0
M  V30 1873 N 180.146 0.843129 -6.8765 0
M  V30 1874 N 181.939 0.856668 -5.55534 0
M  V30 1875 H 174.09 -0.704318 -2.00382 0
M  V30 1876 H 176.353 -0.254687 -0.913148 0
M  V30 1877 H 176.059 -0.361607 -3.49836 0
M  V30 1878 H 175.933 1.3886 -3.5071 0
M  V30 1879 H 178.32 1.52733 -2.52501 0
M  V30 1880 H 178.401 -0.240095 -2.54671 0
M  V30 1881 H 178.045 -0.2031 -5.07494 0
M  V30 1882 H 177.975 1.57633 -5.02454 0
M  V30 1883 H 180.466 0.739661 -3.70591 0
M  V30 1884 H 180.779 0.894448 -7.67606 0
M  V30 1885 H 179.124 0.811304 -6.90248 0
M  V30 1886 H 182.315 0.833437 -4.60621 0
M  V30 1887 H 182.488 0.904247 -6.4166 0
M  V30 1888 N 175.894 1.51508 0.433938 0
M  V30 1889 C 176.844 1.69451 1.52546 0
M  V30 1890 C 177.828 0.548474 1.51263 0
M  V30 1891 O 179.02 0.804529 1.57659 0
M  V30 1892 C 176.149 1.82604 2.90707 0
M  V30 1893 C 175.235 3.03002 2.96733 0
M  V30 1894 N 175.626 4.26121 2.72496 0
M  V30 1895 C 173.924 3.02327 3.27894 0
M  V30 1896 C 174.625 5.07407 2.84452 0
M  V30 1897 N 173.601 4.42126 3.16269 0
M  V30 1898 H 177.403 2.62305 1.32564 0
M  V30 1899 H 174.917 1.49202 0.641297 0
M  V30 1900 H 176.914 1.93569 3.69238 0
M  V30 1901 H 175.574 0.909339 3.11707 0
M  V30 1902 H 176.585 4.55009 2.4736 0
M  V30 1903 H 173.262 2.20301 3.54646 0
M  V30 1904 H 174.652 6.15422 2.69639 0
M  V30 1905 N 177.372 -0.689602 1.41712 0
M  V30 1906 C 178.783 -1.26973 1.36875 0
M  V30 1907 C 179.134 -1.96124 0.054748 0
M  V30 1908 O 178.259 -1.99141 -0.84687 0
M  V30 1909 C 178.854 -2.30912 2.47922 0
M  V30 1910 C 177.413 -2.84486 2.46464 0
M  V30 1911 C 176.56 -1.58603 2.27465 0
M  V30 1912 H 179.511 -0.48396 1.51141 0
M  V30 1913 H 179.532 -3.12331 2.17323 0
M  V30 1914 H 179.044 -1.80554 3.43543 0
M  V30 1915 H 177.145 -3.39005 1.54617 0
M  V30 1916 H 177.258 -3.34511 3.42986 0
M  V30 1917 H 175.622 -1.84632 1.75451 0
M  V30 1918 H 176.405 -1.10233 3.25121 0
M  V30 1919 N 178.85 -1.27639 -0.924453 0
M  V30 1920 C 179.78 -1.13166 -2.04244 0
M  V30 1921 C 180.761 -0.032256 -1.70069 0
M  V30 1922 O 181.946 -0.207328 -1.9309 0
M  V30 1923 C 179.076 -0.781496 -3.38393 0
M  V30 1924 C 178.03 -1.83449 -3.86692 0
M  V30 1925 C 177.356 -1.33822 -5.17683 0
M  V30 1926 C 178.656 -3.23917 -4.09726 0
M  V30 1927 H 180.35 -2.06689 -2.1661 0
M  V30 1928 H 177.896 -0.995136 -1.04082 0
M  V30 1929 H 179.849 -0.667057 -4.16087 0
M  V30 1930 H 178.573 0.189439 -3.2605 0
M  V30 1931 H 177.232 -1.93789 -3.11193 0
M  V30 1932 H 176.88 -0.35665 -5.01734 0
M  V30 1933 H 176.58 -2.04224 -5.50968 0
M  V30 1934 H 178.104 -1.23679 -5.97943 0
M  V30 1935 H 179.518 -3.16559 -4.77978 0
M  V30 1936 H 177.915 -3.92059 -4.54324 0
M  V30 1937 H 178.985 -3.68729 -3.14908 0
M  V30 1938 N 180.328 1.1314 -1.09713 0
M  V30 1939 C 181.744 1.36477 -0.827423 0
M  V30 1940 C 181.944 1.93654 0.556817 0
M  V30 1941 O 181 2.15791 1.31112 0
M  V30 1942 C 182.313 2.31334 -1.92106 0
M  V30 1943 C 183.861 2.44943 -1.94864 0
M  V30 1944 C 184.336 3.4311 -3.0338 0
M  V30 1945 N 185.827 3.50662 -3.02639 0
M  V30 1946 C 186.562 4.2651 -3.83246 0
M  V30 1947 N 186.058 5.05485 -4.73768 0
M  V30 1948 N 187.851 4.2184 -3.71493 0
M  V30 1949 H 180.002 0.743807 -1.9895 0
M  V30 1950 H 182.265 0.389823 -0.864143 0
M  V30 1951 H 181.971 1.96483 -2.91698 0
M  V30 1952 H 181.845 3.31381 -1.80184 0
M  V30 1953 H 184.232 2.79079 -0.959099 0
M  V30 1954 H 184.313 1.4481 -2.10864 0
M  V30 1955 H 183.957 3.09704 -4.02549 0
M  V30 1956 H 183.887 4.43055 -2.84622 0
M  V30 1957 H 186.378 2.94315 -2.37039 0
M  V30 1958 H 186.691 5.60675 -5.3185 0
M  V30 1959 H 185.036 5.04708 -4.77802 0
M  V30 1960 H 188.227 3.5922 -3.00131 0
M  V30 1961 H 188.4 4.80697 -4.3455 0
M  V30 1962 N 181.806 0.884767 1.30421 0
M  V30 1963 C 182.769 0.356277 2.26414 0
M  V30 1964 C 183.769 -0.501124 1.52792 0
M  V30 1965 O 184.959 -0.30831 1.7145 0
M  V30 1966 C 182.091 -0.492316 3.37326 0
M  V30 1967 H 183.284 1.20389 2.74675 0
M  V30 1968 H 180.837 0.661607 1.41607 0
M  V30 1969 H 181.572 -1.36052 2.94381 0
M  V30 1970 H 181.357 0.121832 3.91911 0
M  V30 1971 H 182.847 -0.853871 4.08777 0
M  V30 1972 N 183.284 -1.43765 0.645699 0
M  V30 1973 C 184.7 -1.56509 0.312591 0
M  V30 1974 C 184.9 -1.6307 -1.18365 0
M  V30 1975 O 183.956 -1.58167 -1.96824 0
M  V30 1976 C 185.269 -2.82968 1.01733 0
M  V30 1977 C 186.817 -2.96701 0.996865 0
M  V30 1978 C 187.292 -4.25982 1.68236 0
M  V30 1979 N 188.783 -4.32829 1.64964 0
M  V30 1980 C 189.518 -5.31613 2.14885 0
M  V30 1981 N 189.014 -6.36718 2.73061 0
M  V30 1982 N 190.807 -5.23217 2.05428 0
M  V30 1983 H 182.958 -1.3775 1.61675 0
M  V30 1984 H 185.221 -0.661067 0.679481 0
M  V30 1985 H 184.927 -2.84156 2.0724 0
M  V30 1986 H 184.801 -3.72957 0.564177 0
M  V30 1987 H 187.188 -2.95058 -0.0497719 0
M  V30 1988 H 187.269 -2.08022 1.48865 0
M  V30 1989 H 186.913 -4.28386 2.72852 0
M  V30 1990 H 186.843 -5.13545 1.16529 0
M  V30 1991 H 189.334 -3.57493 1.22503 0
M  V30 1992 H 189.647 -7.08401 3.08848 0
M  V30 1993 H 187.992 -6.37362 2.77118 0
M  V30 1994 H 191.183 -4.40019 1.59689 0
M  V30 1995 H 191.356 -6.00045 2.44643 0
M  V30 1996 N 184.763 -0.387143 -1.52771 0
M  V30 1997 C 186.011 0.195349 -2.01154 0
M  V30 1998 C 186.332 1.475 -1.27549 0
M  V30 1999 O 185.602 1.91878 -0.394924 0
M  V30 2000 H 184.182 0.075178 -0.743207 0
M  V30 2001 H 186.844 -0.518337 -1.87881 0
M  V30 2002 H 185.94 0.407096 -3.09434 0
M  V30 2003 N 186.241 1.57166 -0.116904 0
M  V30 2004 C 187.171 2.18222 0.830759 0
M  V30 2005 C 188.152 1.12167 1.27877 0
M  V30 2006 O 189.337 1.40394 1.34176 0
M  V30 2007 C 186.467 2.77996 2.08172 0
M  V30 2008 C 185.421 3.89614 1.77157 0
M  V30 2009 C 184.747 4.36187 3.09265 0
M  V30 2010 C 186.047 5.1181 1.04151 0
M  V30 2011 H 187.741 2.97664 0.321992 0
M  V30 2012 H 185.287 1.4318 0.153434 0
M  V30 2013 H 187.24 3.19366 2.74924 0
M  V30 2014 H 185.964 1.9584 2.6137 0
M  V30 2015 H 184.623 3.48816 1.12796 0
M  V30 2016 H 184.271 3.50893 3.60393 0
M  V30 2017 H 183.971 5.11455 2.89288 0
M  V30 2018 H 185.495 4.80207 3.77139 0
M  V30 2019 H 186.909 5.50214 1.61052 0
M  V30 2020 H 185.306 5.92648 0.942762 0
M  V30 2021 H 186.376 4.84892 0.0279022 0
M  V30 2022 N 187.719 -0.156864 1.56817 0
M  V30 2023 C 189.135 -0.50916 1.5126 0
M  V30 2024 C 189.335 -1.83897 0.823658 0
M  V30 2025 O 188.391 -2.49469 0.390055 0
M  V30 2026 C 189.704 -0.52857 2.96018 0
M  V30 2027 C 191.252 -0.614771 3.06903 0
M  V30 2028 C 191.727 -0.664938 4.53147 0
M  V30 2029 N 193.218 -0.727433 4.57452 0
M  V30 2030 C 193.953 -0.787067 5.67973 0
M  V30 2031 N 193.449 -0.806649 6.88088 0
M  V30 2032 N 195.242 -0.827195 5.5598 0
M  V30 2033 H 187.393 0.714935 2.00006 0
M  V30 2034 H 189.656 0.259526 0.911784 0
M  V30 2035 H 189.362 0.380154 3.49639 0
M  V30 2036 H 189.236 -1.36998 3.51442 0
M  V30 2037 H 191.623 -1.51392 2.53307 0
M  V30 2038 H 191.704 0.253597 2.5454 0
M  V30 2039 H 191.348 0.230011 5.07379 0
M  V30 2040 H 191.278 -1.54966 5.03282 0
M  V30 2041 H 193.769 -0.719998 3.70978 0
M  V30 2042 H 194.082 -0.853727 7.6807 0
M  V30 2043 H 192.427 -0.774687 6.90669 0
M  V30 2044 H 195.618 -0.808998 4.61056 0
M  V30 2045 H 195.791 -0.870206 6.4213 0
M  V30 2046 N 189.197 -1.51736 -0.425897 0
M  V30 2047 C 190.422 -1.69082 -1.20108 0
M  V30 2048 C 190.847 -0.392398 -1.83962 0
M  V30 2049 O 190.205 0.64858 -1.69302 0
M  V30 2050 C 190.253 -2.81604 -2.25237 0
M  V30 2051 O 189.357 -2.46004 -3.30992 0
M  V30 2052 H 188.698 -0.563408 -0.35138 0
M  V30 2053 H 191.228 -1.98358 -0.501512 0
M  V30 2054 H 191.238 -3.06025 -2.69838 0
M  V30 2055 H 189.913 -3.75817 -1.78142 0
M  V30 2056 H 188.49 -2.32195 -2.91787 0
M  V30 2057 N 190.675 0.682077 -1.42076 0
M  V30 2058 C 192.086 1.26246 -1.37546 0
M  V30 2059 C 192.437 1.96092 -0.0651481 0
M  V30 2060 O 191.562 1.99587 0.836297 0
M  V30 2061 C 192.157 2.29594 -2.49143 0
M  V30 2062 C 190.716 2.83175 -2.47969 0
M  V30 2063 C 189.863 1.57395 -2.28303 0
M  V30 2064 H 192.814 0.475937 -1.51395 0
M  V30 2065 H 192.835 3.11175 -2.18976 0
M  V30 2066 H 192.347 1.78729 -3.44496 0
M  V30 2067 H 190.448 3.3818 -1.56413 0
M  V30 2068 H 190.561 3.32687 -3.44755 0
M  V30 2069 H 188.925 1.83699 -1.76428 0
M  V30 2070 H 189.708 1.08507 -3.25701 0
M  V30 2071 N 192.153 1.28127 0.917671 0
M  V30 2072 C 193.569 1.05749 1.19538 0
M  V30 2073 C 193.769 -0.202633 2.00479 0
M  V30 2074 O 192.825 -0.905382 2.3571 0
M  V30 2075 C 194.138 2.30273 1.93378 0
M  V30 2076 C 195.686 2.35412 2.06277 0
M  V30 2077 C 196.161 3.59692 2.83524 0
M  V30 2078 N 197.652 3.60309 2.91087 0
M  V30 2079 C 198.387 4.53147 3.51348 0
M  V30 2080 N 197.883 5.563 4.12919 0
M  V30 2081 N 199.676 4.40751 3.48849 0
M  V30 2082 H 191.827 2.09024 0.377184 0
M  V30 2083 H 194.09 0.919798 0.22951 0
M  V30 2084 H 193.796 3.22055 1.41328 0
M  V30 2085 H 193.67 2.36378 2.93947 0
M  V30 2086 H 196.057 1.4413 2.57508 0
M  V30 2087 H 196.138 2.33304 1.04895 0
M  V30 2088 H 195.782 4.51316 2.32973 0
M  V30 2089 H 195.712 3.59054 3.85211 0
M  V30 2090 H 198.203 2.85714 2.47338 0
M  V30 2091 H 198.516 6.2329 4.56869 0
M  V30 2092 H 196.861 5.60131 4.11435 0
M  V30 2093 H 200.052 3.59367 2.99955 0
M  V30 2094 H 200.225 5.13291 3.9552 0
M  V30 2095 N 193.631 -1.12557 1.10312 0
M  V30 2096 C 194.563 -2.17971 0.708625 0
M  V30 2097 C 195.576 -1.60806 -0.254027 0
M  V30 2098 O 196.765 -1.78458 -0.0386891 0
M  V30 2099 C 193.865 -3.38891 0.0248198 0
M  V30 2100 C 193.038 -4.25548 1.01132 0
M  V30 2101 C 192.097 -5.24972 0.35924 0
M  V30 2102 O 191.123 -5.60174 1.00965 0
M  V30 2103 N 192.325 -5.73747 -0.882847 0
M  V30 2104 H 195.09 -2.52427 1.61557 0
M  V30 2105 H 192.651 -1.27967 0.991771 0
M  V30 2106 H 194.643 -4.02485 -0.422852 0
M  V30 2107 H 193.213 -3.02596 -0.784514 0
M  V30 2108 H 192.433 -3.58589 1.6373 0
M  V30 2109 H 193.721 -4.80294 1.67914 0
M  V30 2110 H 193.119 -5.4731 -1.43065 0
M  V30 2111 H 191.676 -6.39234 -1.27369 0
M  V30 2112 N 195.109 -0.891671 -1.2995 0
M  V30 2113 C 196.072 -0.36828 -2.26222 0
M  V30 2114 C 197.072 0.493014 -1.53056 0
M  V30 2115 O 198.262 0.299213 -1.71611 0
M  V30 2116 C 195.394 0.47442 -3.37583 0
M  V30 2117 H 196.587 -1.21844 -2.74033 0
M  V30 2118 H 194.14 -0.669107 -1.41254 0
M  V30 2119 H 194.875 1.34489 -2.95099 0
M  V30 2120 H 194.66 -0.142615 -3.91841 0
M  V30 2121 H 196.15 0.83218 -4.09224 0
M  V30 2122 N 196.587 1.43421 -0.653314 0
M  V30 2123 C 197.55 2.29182 0.0287951 0
M  V30 2124 C 198.55 1.42213 0.750465 0
M  V30 2125 O 199.74 1.63843 0.591701 0
M  V30 2126 C 196.872 3.24278 1.05151 0
M  V30 2127 H 198.065 2.90985 -0.725786 0
M  V30 2128 H 195.618 1.50702 -0.414545 0
M  V30 2129 H 196.353 2.6737 1.83532 0
M  V30 2130 H 196.138 3.88396 0.537687 0
M  V30 2131 H 197.628 3.88647 1.52786 0
M  V30 2132 N 198.065 0.39524 1.52563 0
M  V30 2133 C 199.028 -0.425001 2.25225 0
M  V30 2134 C 200.028 -0.985266 1.27079 0
M  V30 2135 O 201.218 -0.866332 1.5113 0
M  V30 2136 C 198.35 -1.59686 3.01186 0
M  V30 2137 H 199.543 0.211233 2.99155 0
M  V30 2138 H 197.096 0.147472 1.55603 0
M  V30 2139 H 197.831 -2.27035 2.31572 0
M  V30 2140 H 197.616 -1.20176 3.73229 0
M  V30 2141 H 199.106 -2.17743 3.5634 0
M  V30 2142 N 199.544 -1.57102 0.125237 0
M  V30 2143 C 200.79 -1.95697 -0.532035 0
M  V30 2144 C 201.123 -1.009 -1.6593 0
M  V30 2145 O 200.398 -0.047347 -1.94442 0
M  V30 2146 C 200.681 -3.44181 -1.05884 0
M  V30 2147 C 200.534 -4.49752 0.0654392 0
M  V30 2148 C 201.853 -3.94655 -1.9477 0
M  V30 2149 H 198.972 -0.711571 -0.191925 0
M  V30 2150 H 201.614 -1.88923 0.20206 0
M  V30 2151 H 199.764 -3.50085 -1.68442 0
M  V30 2152 H 201.436 -4.55943 0.700982 0
M  V30 2153 H 199.679 -4.27653 0.727709 0
M  V30 2154 H 200.35 -5.50924 -0.344505 0
M  V30 2155 H 202.826 -3.91094 -1.42074 0
M  V30 2156 H 201.702 -4.99057 -2.28546 0
M  V30 2157 H 201.963 -3.35718 -2.87656 0
M  V30 2158 N 201.022 0.148545 -1.56898 0
M  V30 2159 C 202.262 0.86765 -1.85071 0
M  V30 2160 C 202.626 1.78417 -0.709317 0
M  V30 2161 O 203.827 2.54261 -0.872049 0
M  V30 2162 C 202.098 1.62306 -3.1842 0
M  V30 2163 S 203.657 2.3878 -3.68143 0
M  V30 2164 H 200.475 0.290174 -0.649092 0
M  V30 2165 H 203.077 0.127755 -1.95082 0
M  V30 2166 H 201.781 0.941192 -3.99462 0
M  V30 2167 H 201.312 2.4039 -3.1141 0
M  V30 2168 H 203.327 3.63942 -3.37285 0
M  V30 2169 N 202.5 1.5196 0.417844 0
M  V30 2170 C 203.463 1.74065 1.49111 0
M  V30 2171 C 204.463 0.610537 1.48758 0
M  V30 2172 O 205.653 0.87832 1.50437 0
M  V30 2173 C 202.785 1.81502 2.88565 0
M  V30 2174 H 203.978 2.69869 1.30807 0
M  V30 2175 H 201.531 1.42244 0.647785 0
M  V30 2176 H 202.266 0.875813 3.1225 0
M  V30 2177 H 202.051 2.63651 2.90225 0
M  V30 2178 H 203.541 2.00376 3.66387 0
M  V30 2179 N 203.978 -0.674533 1.42435 0
M  V30 2180 C 205.224 -1.43671 1.43131 0
M  V30 2181 C 205.557 -1.94142 0.0476021 0
M  V30 2182 O 204.832 -1.70924 -0.928188 0
M  V30 2183 C 205.115 -2.63355 2.45594 0
M  V30 2184 C 204.968 -2.18514 3.93156 0
M  V30 2185 C 206.287 -3.65571 2.45043 0
M  V30 2186 H 203.406 -0.521077 0.521198 0
M  V30 2187 H 206.048 -0.766551 1.7385 0
M  V30 2188 H 204.198 -3.2053 2.19528 0
M  V30 2189 H 205.87 -1.66504 4.30202 0
M  V30 2190 H 204.113 -1.50086 4.07009 0
M  V30 2191 H 204.784 -3.04484 4.60428 0
M  V30 2192 H 207.26 -3.18113 2.68223 0
M  V30 2193 H 206.136 -4.46893 3.18713 0
M  V30 2194 H 206.397 -4.16716 1.47649 0
M  V30 2195 N 205.456 -1.28612 -0.910864 0
M  V30 2196 C 206.386 -1.15326 -2.03032 0
M  V30 2197 C 207.367 -0.0502924 -1.70026 0
M  V30 2198 O 208.552 -0.227797 -1.92859 0
M  V30 2199 C 205.682 -0.817343 -3.37545 0
M  V30 2200 C 204.636 -1.8754 -3.84724 0
M  V30 2201 C 203.962 -1.39305 -5.16235 0
M  V30 2202 C 205.262 -3.28244 -4.06267 0
M  V30 2203 H 206.956 -2.08975 -2.14406 0
M  V30 2204 H 204.502 -1.00612 -1.03021 0
M  V30 2205 H 206.455 -0.711151 -4.15356 0
M  V30 2206 H 205.179 0.154846 -3.26233 0
M  V30 2207 H 203.838 -1.97079 -3.09121 0
M  V30 2208 H 203.486 -0.409846 -5.01328 0
M  V30 2209 H 203.186 -2.10057 -5.48771 0
M  V30 2210 H 204.71 -1.30014 -5.96598 0
M  V30 2211 H 206.124 -3.21611 -4.74594 0
M  V30 2212 H 204.521 -3.96855 -4.5014 0
M  V30 2213 H 205.591 -3.72048 -3.10979 0
M  V30 2214 N 206.934 1.1197 -1.10907 0
M  V30 2215 C 208.18 1.84059 -0.865674 0
M  V30 2216 C 208.535 1.82731 0.602254 0
M  V30 2217 O 207.828 1.26543 1.43866 0
M  V30 2218 C 208.022 3.30749 -1.35425 0
M  V30 2219 C 207.851 3.46363 -2.86815 0
M  V30 2220 C 206.621 3.59712 -3.54874 0
M  V30 2221 C 208.819 3.41116 -3.84895 0
M  V30 2222 N 206.801 3.63741 -4.94536 0
M  V30 2223 C 208.172 3.51698 -5.10596 0
M  V30 2224 C 210.227 3.24612 -3.77533 0
M  V30 2225 C 208.93 3.4748 -6.29802 0
M  V30 2226 C 210.956 3.21708 -4.96244 0
M  V30 2227 C 210.318 3.32856 -6.20795 0
M  V30 2228 H 206.417 0.689015 -0.369841 0
M  V30 2229 H 209.001 1.34016 -1.41237 0
M  V30 2230 H 207.172 3.79322 -0.834814 0
M  V30 2231 H 208.904 3.90718 -1.05458 0
M  V30 2232 H 205.659 3.62038 -3.05329 0
M  V30 2233 H 206.083 3.69408 -5.67333 0
M  V30 2234 H 210.725 3.14883 -2.8215 0
M  V30 2235 H 208.443 3.55978 -7.25469 0
M  V30 2236 H 212.029 3.10113 -4.92261 0
M  V30 2237 H 210.909 3.3059 -7.11112 0
M  V30 2238 N 208.412 0.89855 1.29475 0
M  V30 2239 C 209.658 0.524658 1.95896 0
M  V30 2240 C 209.991 -0.926468 1.70676 0
M  V30 2241 O 209.266 -1.65665 1.01908 0
M  V30 2242 C 209.549 0.81633 3.50725 0
M  V30 2243 C 209.402 2.31907 3.85408 0
M  V30 2244 C 210.721 0.302038 4.39062 0
M  V30 2245 H 207.84 0.19209 0.711527 0
M  V30 2246 H 210.482 1.12502 1.53112 0
M  V30 2247 H 208.632 0.305369 3.87298 0
M  V30 2248 H 210.304 2.89949 3.58786 0
M  V30 2249 H 208.547 2.78027 3.32992 0
M  V30 2250 H 209.218 2.47373 4.93468 0
M  V30 2251 H 211.694 0.739551 4.09475 0
M  V30 2252 H 210.57 0.535331 5.46283 0
M  V30 2253 H 210.831 -0.797216 4.34853 0
M  V30 2254 N 209.89 -1.43072 0.660911 0
M  V30 2255 C 210.82 -2.33497 -0.0122829 0
M  V30 2256 C 211.801 -1.49903 -0.803925 0
M  V30 2257 O 212.986 -1.78546 -0.763864 0
M  V30 2258 C 210.116 -3.33363 -0.973994 0
M  V30 2259 C 209.07 -4.27003 -0.291928 0
M  V30 2260 C 208.396 -5.16967 -1.36562 0
M  V30 2261 C 209.696 -5.15816 0.820462 0
M  V30 2262 H 211.39 -2.90038 0.742873 0
M  V30 2263 H 208.936 -1.39461 0.358688 0
M  V30 2264 H 210.889 -3.95524 -1.45392 0
M  V30 2265 H 209.613 -2.75095 -1.7604 0
M  V30 2266 H 208.272 -3.66217 0.167623 0
M  V30 2267 H 207.92 -4.55034 -2.14366 0
M  V30 2268 H 207.62 -5.80441 -0.914454 0
M  V30 2269 H 209.144 -5.82003 -1.84675 0
M  V30 2270 H 210.558 -5.71742 0.422366 0
M  V30 2271 H 208.955 -5.8805 1.19656 0
M  V30 2272 H 210.025 -4.55045 1.67518 0
M  V30 2273 N 211.368 -0.403325 -1.52352 0
M  V30 2274 C 212.614 0.174605 -2.02047 0
M  V30 2275 C 212.947 1.45282 -1.28867 0
M  V30 2276 O 212.222 1.90483 -0.393257 0
M  V30 2277 C 212.505 0.428238 -3.57545 0
M  V30 2278 C 212.358 -0.866248 -4.4138 0
M  V30 2279 C 213.677 1.21287 -4.23057 0
M  V30 2280 H 210.796 0.0619851 -0.734389 0
M  V30 2281 H 213.438 -0.53565 -1.82293 0
M  V30 2282 H 211.588 1.03327 -3.74507 0
M  V30 2283 H 213.26 -1.50265 -4.3614 0
M  V30 2284 H 211.503 -1.47851 -4.07827 0
M  V30 2285 H 212.174 -0.643249 -5.48239 0
M  V30 2286 H 214.65 0.700703 -4.10158 0
M  V30 2287 H 213.526 1.35909 -5.31808 0
M  V30 2288 H 213.787 2.23193 -3.81625 0
M  V30 2289 N 212.846 1.57033 -0.133567 0
M  V30 2290 C 214.095 1.94861 0.520768 0
M  V30 2291 C 214.408 1.02012 1.66892 0
M  V30 2292 O 215.614 1.29365 2.38699 0
M  V30 2293 C 214.07 3.46362 0.977809 0
M  V30 2294 C 213.678 4.47773 -0.142674 0
M  V30 2295 C 215.422 3.93083 1.60269 0
M  V30 2296 C 213.329 5.90468 0.331883 0
M  V30 2297 H 212.259 0.727453 0.198315 0
M  V30 2298 H 214.91 1.82227 -0.215759 0
M  V30 2299 H 213.292 3.54282 1.7692 0
M  V30 2300 H 214.466 4.51536 -0.919317 0
M  V30 2301 H 212.781 4.10891 -0.675124 0
M  V30 2302 H 215.378 4.97121 1.96914 0
M  V30 2303 H 215.721 3.33876 2.48662 0
M  V30 2304 H 216.254 3.88025 0.876453 0
M  V30 2305 H 212.993 6.53463 -0.516341 0
M  V30 2306 H 212.513 5.90094 1.07469 0
M  V30 2307 H 214.192 6.42179 0.788332 0
M  V30 2308 N 214.325 -0.140222 1.56975 0
M  V30 2309 C 215.573 -0.850005 1.83356 0
M  V30 2310 C 215.894 -1.81399 0.71551 0
M  V30 2311 O 215.164 -1.94136 -0.262294 0
M  V30 2312 H 213.744 -0.316886 0.676456 0
M  V30 2313 H 216.406 -0.132608 1.94448 0
M  V30 2314 H 215.502 -1.40814 2.78528 0
M  V30 2315 N 215.803 -1.52179 -0.40978 0
M  V30 2316 C 217.028 -1.70347 -1.18308 0
M  V30 2317 C 217.453 -0.411887 -1.83535 0
M  V30 2318 O 216.811 0.630587 -1.6998 0
M  V30 2319 C 216.859 -2.83977 -2.22238 0
M  V30 2320 O 215.963 -2.495 -3.28365 0
M  V30 2321 H 215.304 -0.567103 -0.345384 0
M  V30 2322 H 217.834 -1.98879 -0.480445 0
M  V30 2323 H 217.844 -3.0887 -2.66577 0
M  V30 2324 H 216.519 -3.77685 -1.74146 0
M  V30 2325 H 215.096 -2.35277 -2.89308 0
M  V30 2326 N 217.281 0.66697 -1.42791 0
M  V30 2327 C 218.211 1.79218 -1.49677 0
M  V30 2328 C 219.192 1.66405 -0.352623 0
M  V30 2329 O 220.377 1.85708 -0.567993 0
M  V30 2330 C 217.507 3.17565 -1.40605 0
M  V30 2331 C 216.461 3.45124 -2.53127 0
M  V30 2332 C 215.787 4.83127 -2.29112 0
M  V30 2333 C 217.087 3.41236 -3.95418 0
M  V30 2334 H 218.781 1.73713 -2.43853 0
M  V30 2335 H 216.327 0.83432 -1.17367 0
M  V30 2336 H 218.28 3.96022 -1.44029 0
M  V30 2337 H 217.004 3.23767 -0.429271 0
M  V30 2338 H 215.663 2.69031 -2.49034 0
M  V30 2339 H 215.311 4.85988 -1.29709 0
M  V30 2340 H 215.011 5.02528 -3.04531 0
M  V30 2341 H 216.535 5.63859 -2.34297 0
M  V30 2342 H 217.949 4.09651 -4.01073 0
M  V30 2343 H 216.346 3.72173 -4.70752 0
M  V30 2344 H 217.416 2.39665 -4.21532 0
M  V30 2345 N 218.759 1.29093 0.90403 0
M  V30 2346 C 220.005 1.16986 1.65656 0
M  V30 2347 C 220.338 -0.278925 1.92186 0
M  V30 2348 O 219.613 -1.2019 1.5292 0
M  V30 2349 C 219.896 1.97908 3.0084 0
M  V30 2350 C 219.749 3.50903 2.81403 0
M  V30 2351 C 221.068 1.80208 4.01513 0
M  V30 2352 H 218.187 0.426346 0.601164 0
M  V30 2353 H 220.829 1.58518 1.04747 0
M  V30 2354 H 218.979 1.62616 3.52829 0
M  V30 2355 H 220.651 3.96153 2.36348 0
M  V30 2356 H 218.894 3.76045 2.1627 0
M  V30 2357 H 219.565 4.02791 3.77443 0
M  V30 2358 H 222.041 2.11025 3.58619 0
M  V30 2359 H 220.917 2.39184 4.94047 0
M  V30 2360 H 221.178 0.756119 4.35586 0
M  V30 2361 N 220.237 -1.11381 1.11499 0
M  V30 2362 C 221.2 -2.15622 0.777153 0
M  V30 2363 C 222.2 -1.59504 -0.203779 0
M  V30 2364 O 223.39 -1.74188 0.020782 0
M  V30 2365 C 220.522 -3.40556 0.153116 0
M  V30 2366 H 221.715 -2.47021 1.70061 0
M  V30 2367 H 219.268 -1.26577 0.916952 0
M  V30 2368 H 220.003 -3.14767 -0.780536 0
M  V30 2369 H 219.788 -3.8257 0.859238 0
M  V30 2370 H 221.278 -4.17546 -0.0671044 0
M  V30 2371 N 221.715 -0.905404 -1.28997 0
M  V30 2372 C 223.131 -0.60233 -1.47798 0
M  V30 2373 C 223.331 0.854645 -1.82478 0
M  V30 2374 O 222.387 1.63439 -1.92468 0
M  V30 2375 C 223.7 -1.53306 -2.58685 0
M  V30 2376 C 225.248 -1.53887 -2.72558 0
M  V30 2377 C 225.723 -2.45602 -3.86579 0
M  V30 2378 N 227.214 -2.43681 -3.93921 0
M  V30 2379 C 227.949 -3.11347 -4.81509 0
M  V30 2380 N 227.445 -3.88313 -5.73746 0
M  V30 2381 N 229.238 -3.00476 -4.75048 0
M  V30 2382 H 221.389 -1.84765 -1.04764 0
M  V30 2383 H 223.652 -0.792025 -0.520961 0
M  V30 2384 H 223.358 -2.57141 -2.39941 0
M  V30 2385 H 223.232 -1.25787 -3.55609 0
M  V30 2386 H 225.619 -0.507941 -2.90696 0
M  V30 2387 H 225.7 -1.85447 -1.76191 0
M  V30 2388 H 225.344 -3.48792 -3.69197 0
M  V30 2389 H 225.274 -2.11349 -4.82327 0
M  V30 2390 H 227.765 -1.87767 -3.27951 0
M  V30 2391 H 228.078 -4.36985 -6.37389 0
M  V30 2392 H 226.423 -3.92419 -5.73614 0
M  V30 2393 H 229.614 -2.39858 -4.01977 0
M  V30 2394 H 229.787 -3.53485 -5.43095 0
M  V30 2395 N 223.193 1.4272 -0.668489 0
M  V30 2396 C 224.439 2.02443 -0.197076 0
M  V30 2397 C 224.794 1.51882 1.18109 0
M  V30 2398 O 224.087 0.708618 1.78015 0
M  V30 2399 C 224.281 3.57021 -0.164499 0
M  V30 2400 C 224.11 4.22583 -1.53797 0
M  V30 2401 C 222.88 4.58019 -2.13416 0
M  V30 2402 C 225.078 4.50588 -2.47941 0
M  V30 2403 N 223.06 5.08729 -3.4361 0
M  V30 2404 C 224.431 5.02782 -3.62782 0
M  V30 2405 C 226.486 4.32571 -2.46551 0
M  V30 2406 C 225.189 5.38852 -4.76478 0
M  V30 2407 C 227.215 4.69713 -3.59338 0
M  V30 2408 C 226.577 5.22053 -4.72906 0
M  V30 2409 H 222.676 0.773214 -0.116894 0
M  V30 2410 H 225.26 1.73673 -0.880108 0
M  V30 2411 H 223.431 3.85323 0.487925 0
M  V30 2412 H 225.163 4.03439 0.319207 0
M  V30 2413 H 221.918 4.43566 -1.65969 0
M  V30 2414 H 222.342 5.38521 -4.10273 0
M  V30 2415 H 226.984 3.91365 -1.59978 0
M  V30 2416 H 224.702 5.78993 -5.63731 0
M  V30 2417 H 228.288 4.57454 -3.59482 0
M  V30 2418 H 227.168 5.50258 -5.58736 0
M  V30 2419 N 224.671 0.411399 1.52136 0
M  V30 2420 C 225.601 -0.404015 2.29978 0
M  V30 2421 C 226.582 -1.04412 1.34284 0
M  V30 2422 O 227.767 -1.0527 1.63192 0
M  V30 2423 C 224.897 -1.5197 3.12286 0
M  V30 2424 C 223.851 -1.00448 4.16046 0
M  V30 2425 C 223.177 -2.21393 4.86712 0
M  V30 2426 C 224.477 -0.0569336 5.22269 0
M  V30 2427 H 226.171 0.245529 2.98392 0
M  V30 2428 H 223.717 0.119525 1.43503 0
M  V30 2429 H 225.67 -2.09715 3.6551 0
M  V30 2430 H 224.394 -2.19716 2.41646 0
M  V30 2431 H 223.053 -0.449421 3.63835 0
M  V30 2432 H 222.701 -2.87699 4.12599 0
M  V30 2433 H 222.401 -1.87571 5.56858 0
M  V30 2434 H 223.925 -2.7974 5.4275 0
M  V30 2435 H 225.339 -0.54325 5.7072 0
M  V30 2436 H 223.736 0.192594 5.99791 0
M  V30 2437 H 224.806 0.887663 4.76706 0
M  V30 2438 N 226.149 -1.5696 0.141893 0
M  V30 2439 C 227.079 -2.19516 -0.795936 0
M  V30 2440 C 228.06 -1.14187 -1.26077 0
M  V30 2441 O 229.245 -1.42511 -1.31925 0
M  V30 2442 C 226.375 -2.81272 -2.03723 0
M  V30 2443 C 225.329 -3.92384 -1.70936 0
M  V30 2444 C 224.655 -4.41052 -3.02287 0
M  V30 2445 C 225.955 -5.13403 -0.959954 0
M  V30 2446 H 227.649 -2.98138 -0.274596 0
M  V30 2447 H 225.195 -1.43406 -0.130636 0
M  V30 2448 H 227.148 -3.237 -2.69808 0
M  V30 2449 H 225.872 -1.99973 -2.58221 0
M  V30 2450 H 224.531 -3.50566 -1.07232 0
M  V30 2451 H 224.179 -3.56582 -3.54765 0
M  V30 2452 H 223.879 -5.15993 -2.81114 0
M  V30 2453 H 225.403 -4.86146 -3.69451 0
M  V30 2454 H 226.817 -5.52706 -1.52279 0
M  V30 2455 H 225.214 -5.94073 -0.848357 0
M  V30 2456 H 226.284 -4.84875 0.0492434 0
M  V30 2457 N 227.627 0.131896 -1.57047 0
M  V30 2458 C 228.875 0.840269 -1.83804 0
M  V30 2459 C 229.196 1.81017 -0.72512 0
M  V30 2460 O 228.466 1.94272 0.251995 0
M  V30 2461 H 227.046 0.313294 -0.678127 0
M  V30 2462 H 229.708 0.122294 -1.94516 0
M  V30 2463 H 228.804 1.39335 -2.79271 0
M  V30 2464 N 229.106 1.52395 0.401703 0
M  V30 2465 C 230.355 1.66044 1.14509 0
M  V30 2466 C 230.668 0.400216 1.91462 0
M  V30 2467 O 231.874 0.416632 2.68284 0
M  V30 2468 C 230.33 2.93388 2.0845 0
M  V30 2469 C 229.938 4.26545 1.36978 0
M  V30 2470 C 231.682 3.16402 2.83001 0
M  V30 2471 C 229.589 5.45007 2.29611 0
M  V30 2472 H 228.519 0.618562 0.431158 0
M  V30 2473 H 231.17 1.78886 0.40892 0
M  V30 2474 H 229.552 2.74263 2.8565 0
M  V30 2475 H 230.726 4.56179 0.650916 0
M  V30 2476 H 229.041 4.09692 0.74438 0
M  V30 2477 H 231.638 4.02085 3.52465 0
M  V30 2478 H 231.981 2.30943 3.46368 0
M  V30 2479 H 232.514 3.36034 2.12898 0
M  V30 2480 H 229.253 6.32835 1.70879 0
M  V30 2481 H 228.773 5.19702 2.9945 0
M  V30 2482 H 230.452 5.7838 2.89974 0
M  V30 2483 N 230.584 -0.659388 1.43143 0
M  V30 2484 C 231.516 -1.7849 1.43784 0
M  V30 2485 C 232.529 -1.5932 0.334787 0
M  V30 2486 O 233.718 -1.68155 0.598842 0
M  V30 2487 C 230.818 -3.15828 1.22906 0
M  V30 2488 C 229.991 -3.61711 2.45934 0
M  V30 2489 C 229.05 -4.77831 2.20371 0
M  V30 2490 O 228.076 -4.87586 2.93681 0
M  V30 2491 N 229.278 -5.67611 1.21647 0
M  V30 2492 H 232.043 -1.7842 2.40803 0
M  V30 2493 H 229.604 -0.84302 1.3822 0
M  V30 2494 H 231.596 -3.91189 1.03697 0
M  V30 2495 H 230.166 -3.10707 0.343542 0
M  V30 2496 H 229.386 -2.76861 2.80609 0
M  V30 2497 H 230.674 -3.89112 3.27825 0
M  V30 2498 H 230.072 -5.62397 0.610449 0
M  V30 2499 H 228.629 -6.42719 1.08423 0
M  V30 2500 N 232.062 -1.29571 -0.897171 0
M  V30 2501 C 232.972 -1.16808 -2.03453 0
M  V30 2502 C 233.988 -0.0907471 -1.73763 0
M  V30 2503 O 235.164 -0.303312 -1.99103 0
M  V30 2504 C 232.229 -0.848264 -3.36163 0
M  V30 2505 C 231.29 -2.0097 -3.79354 0
M  V30 2506 C 230.523 -1.70505 -5.05731 0
M  V30 2507 O 230.746 -0.62718 -5.66941 0
M  V30 2508 O 229.68 -2.5538 -5.45036 0
M  V30 2509 H 233.506 -2.12325 -2.17144 0
M  V30 2510 H 231.091 -1.09047 -1.02123 0
M  V30 2511 H 232.973 -0.684581 -4.15802 0
M  V30 2512 H 231.648 0.0771071 -3.23608 0
M  V30 2513 H 230.555 -2.22863 -3.00471 0
M  V30 2514 H 231.888 -2.91636 -3.96496 0
M  V30 2515 N 233.54 1.10788 -1.12088 0
M  V30 2516 C 234.788 1.8231 -0.872205 0
M  V30 2517 C 235.109 1.85419 0.603709 0
M  V30 2518 O 234.379 1.32963 1.43867 0
M  V30 2519 H 232.959 0.675137 -0.319686 0
M  V30 2520 H 235.621 1.34068 -1.41463 0
M  V30 2521 H 234.717 2.85955 -1.25045 0
M  V30 2522 N 235.018 0.912232 1.28515 0
M  V30 2523 C 236.266 0.543523 1.94654 0
M  V30 2524 C 236.587 -0.9155 1.72173 0
M  V30 2525 O 235.857 -1.64708 1.06058 0
M  V30 2526 H 234.437 0.198017 0.720277 0
M  V30 2527 H 237.099 1.16126 1.56527 0
M  V30 2528 H 236.195 0.736684 3.03281 0
M  V30 2529 N 236.496 -1.42363 0.676048 0
M  V30 2530 C 237.743 -2.01522 0.19883 0
M  V30 2531 C 238.071 -1.53456 -1.19505 0
M  V30 2532 O 237.326 -0.727967 -1.81657 0
M  V30 2533 C 237.625 -3.56929 0.183431 0
M  V30 2534 C 237.291 -4.24431 1.52215 0
M  V30 2535 C 235.953 -4.42585 1.8887 0
M  V30 2536 C 238.305 -4.62459 2.40377 0
M  V30 2537 C 235.633 -4.96039 3.13309 0
M  V30 2538 C 237.985 -5.17294 3.64129 0
M  V30 2539 C 236.649 -5.33661 4.00951 0
M  V30 2540 H 235.919 -0.737419 0.0727571 0
M  V30 2541 H 238.566 -1.70531 0.871281 0
M  V30 2542 H 236.871 -3.87594 -0.572532 0
M  V30 2543 H 238.568 -4.00486 -0.203035 0
M  V30 2544 H 235.158 -4.10661 1.22701 0
M  V30 2545 H 239.342 -4.48105 2.13343 0
M  V30 2546 H 234.598 -5.06896 3.41857 0
M  V30 2547 H 238.772 -5.45704 4.32644 0
M  V30 2548 H 236.399 -5.74845 4.9745 0
M  V30 2549 N 237.974 -0.419461 -1.51915 0
M  V30 2550 C 239.214 0.152336 -2.03832 0
M  V30 2551 C 239.578 1.41501 -1.29775 0
M  V30 2552 O 240.779 2.06591 -1.7197 0
M  V30 2553 C 239.05 0.383812 -3.55333 0
M  V30 2554 S 240.609 0.921577 -4.29013 0
M  V30 2555 H 237.427 0.0402193 -0.709862 0
M  V30 2556 H 240.029 -0.574758 -1.8686 0
M  V30 2557 H 238.733 -0.541794 -4.06808 0
M  V30 2558 H 238.264 1.13849 -3.76566 0
M  V30 2559 H 240.279 2.20108 -4.4471 0
M  V30 2560 N 239.452 1.56882 -0.150215 0
M  V30 2561 C 240.699 1.96228 0.500093 0
M  V30 2562 C 241.027 1.03522 1.64661 0
M  V30 2563 O 240.282 0.0650683 1.95592 0
M  V30 2564 C 240.581 3.41801 1.04437 0
M  V30 2565 C 240.247 4.50897 0.0159671 0
M  V30 2566 C 238.909 4.8046 -0.266731 0
M  V30 2567 C 241.261 5.16703 -0.683192 0
M  V30 2568 C 238.589 5.73135 -1.25434 0
M  V30 2569 C 240.941 6.10441 -1.65964 0
M  V30 2570 C 239.605 6.38382 -1.95 0
M  V30 2571 H 238.875 0.718048 0.182997 0
M  V30 2572 H 241.522 1.90019 -0.237724 0
M  V30 2573 H 239.827 3.44857 1.85959 0
M  V30 2574 H 241.524 3.69573 1.55618 0
M  V30 2575 H 238.114 4.27891 0.246485 0
M  V30 2576 H 242.298 4.93993 -0.477983 0
M  V30 2577 H 237.554 5.93074 -1.48571 0
M  V30 2578 H 241.728 6.60507 -2.20689 0
M  V30 2579 H 239.355 7.09996 -2.71679 0
M  V30 2580 N 240.93 -0.123565 1.57115 0
M  V30 2581 C 242.346 -0.476961 1.52306 0
M  V30 2582 C 242.546 -1.82109 0.86248 0
M  V30 2583 O 241.602 -2.48586 0.442884 0
M  V30 2584 C 242.915 -0.465661 2.97073 0
M  V30 2585 C 244.463 -0.549534 3.08138 0
M  V30 2586 C 244.938 -0.568669 4.54456 0
M  V30 2587 N 246.429 -0.630237 4.58892 0
M  V30 2588 C 247.164 -0.666415 5.69514 0
M  V30 2589 N 246.66 -0.660514 6.89644 0
M  V30 2590 N 248.453 -0.709077 5.5761 0
M  V30 2591 H 240.604 0.757198 1.98445 0
M  V30 2592 H 242.867 0.278808 0.906074 0
M  V30 2593 H 242.573 0.454232 3.48754 0
M  V30 2594 H 242.447 -1.29513 3.54269 0
M  V30 2595 H 244.834 -1.45985 2.56461 0
M  V30 2596 H 244.915 0.307532 2.53945 0
M  V30 2597 H 244.559 0.337581 5.06777 0
M  V30 2598 H 244.489 -1.44256 5.06456 0
M  V30 2599 H 246.98 -0.641146 3.72421 0
M  V30 2600 H 247.293 -0.690616 7.69708 0
M  V30 2601 H 245.638 -0.628012 6.92157 0
M  V30 2602 H 248.829 -0.711019 4.62668 0
M  V30 2603 H 249.002 -0.733804 6.43832 0
M  V30 2604 N 242.408 -1.52605 -0.393616 0
M  V30 2605 C 243.633 -1.71592 -1.16495 0
M  V30 2606 C 244.058 -0.43133 -1.83088 0
M  V30 2607 O 243.416 0.612523 -1.7064 0
M  V30 2608 C 243.464 -2.86318 -2.19213 0
M  V30 2609 O 242.568 -2.52969 -3.257 0
M  V30 2610 H 241.909 -0.570734 -0.33935 0
M  V30 2611 H 244.439 -1.99377 -0.459324 0
M  V30 2612 H 244.449 -3.1168 -2.63286 0
M  V30 2613 H 243.124 -3.79511 -1.7013 0
M  V30 2614 H 241.701 -2.38332 -2.86797 0
M  V30 2615 N 243.887 0.651787 -1.4349 0
M  V30 2616 C 245.115 1.43937 -1.48626 0
M  V30 2617 C 245.53 1.8851 -0.104587 0
M  V30 2618 O 244.887 1.5958 0.885464 0
M  V30 2619 C 244.938 2.6734 -2.43334 0
M  V30 2620 O 244.659 2.24631 -3.76128 0
M  V30 2621 C 246.16 3.60683 -2.57726 0
M  V30 2622 H 243.38 0.44213 -0.504739 0
M  V30 2623 H 245.924 0.798944 -1.88248 0
M  V30 2624 H 244.079 3.2752 -2.06904 0
M  V30 2625 H 244.493 3.04485 -4.2707 0
M  V30 2626 H 245.967 4.43933 -3.28067 0
M  V30 2627 H 246.444 4.08126 -1.62265 0
M  V30 2628 H 247.05 3.06384 -2.94973 0
M  V30 2629 N 245.365 1.30045 0.890287 0
M  V30 2630 C 246.781 1.08261 1.17268 0
M  V30 2631 C 246.981 -0.160063 2.00863 0
M  V30 2632 O 246.037 -0.855181 2.37577 0
M  V30 2633 C 247.35 2.34323 1.8845 0
M  V30 2634 C 248.898 2.39735 2.01237 0
M  V30 2635 C 249.373 3.65625 2.7583 0
M  V30 2636 N 250.864 3.66402 2.83379 0
M  V30 2637 C 251.599 4.60498 3.41657 0
M  V30 2638 N 251.095 5.64933 4.01026 0
M  V30 2639 N 252.888 4.48051 3.39421 0
M  V30 2640 H 245.039 2.09777 0.332762 0
M  V30 2641 H 247.302 0.92446 0.209948 0
M  V30 2642 H 247.008 3.2498 1.34465 0
M  V30 2643 H 246.882 2.4256 2.88867 0
M  V30 2644 H 249.269 1.4956 2.54393 0
M  V30 2645 H 249.35 2.35476 0.999232 0
M  V30 2646 H 248.994 4.56156 2.23347 0
M  V30 2647 H 248.924 3.67144 3.77509 0
M  V30 2648 H 251.415 2.90896 2.41222 0
M  V30 2649 H 251.728 6.32841 4.43545 0
M  V30 2650 H 250.073 5.68732 3.99461 0
M  V30 2651 H 253.264 3.65649 2.92264 0
M  V30 2652 H 253.437 5.21565 3.84544 0
M  V30 2653 N 246.843 -1.10192 1.12674 0
M  V30 2654 C 247.793 -2.14754 0.765801 0
M  V30 2655 C 248.777 -1.59154 -0.236409 0
M  V30 2656 O 249.969 -1.76951 -0.0415261 0
M  V30 2657 C 247.098 -3.42563 0.224827 0
M  V30 2658 C 246.184 -4.05091 1.25548 0
M  V30 2659 N 246.575 -4.42287 2.4539 0
M  V30 2660 C 244.873 -4.32186 1.10142 0
M  V30 2661 C 245.574 -4.91441 3.11224 0
M  V30 2662 N 244.55 -4.88405 2.38666 0
M  V30 2663 H 248.352 -2.41309 1.67772 0
M  V30 2664 H 245.866 -1.27339 1.00789 0
M  V30 2665 H 247.863 -4.16868 -0.0519578 0
M  V30 2666 H 246.523 -3.17467 -0.681515 0
M  V30 2667 H 247.534 -4.33902 2.82754 0
M  V30 2668 H 244.211 -4.16735 0.252587 0
M  V30 2669 H 245.601 -5.29749 4.13298 0
M  V30 2670 N 248.321 -0.919034 -1.28029 0
M  V30 2671 C 249.269 -0.401753 -2.29104 0
M  V30 2672 C 250.263 0.509354 -1.61561 0
M  V30 2673 O 251.469 0.390014 -1.75724 0
M  V30 2674 H 247.844 -0.111331 -0.743713 0
M  V30 2675 H 249.815 -1.2672 -2.70156 0
M  V30 2676 C 248.564 0.338148 -3.46052 0
M  V30 2677 H 247.887 -0.353732 -3.98232 0
M  V30 2678 H 249.327 0.664653 -4.18758 0
M  V30 2679 C 247.786 1.54798 -2.99231 0
M  V30 2680 O 248.316 2.64696 -3.02157 0
M  V30 2681 N 246.522 1.3968 -2.54829 0
M  V30 2682 H 246.069 0.502698 -2.52647 0
M  V30 2683 H 246.027 2.20755 -2.23863 0
M  V30 2684 N 249.799 1.42003 -0.683588 0
M  V30 2685 C 251.046 2.01413 -0.209514 0
M  V30 2686 C 251.374 1.54088 1.1869 0
M  V30 2687 O 250.629 0.737591 1.81268 0
M  V30 2688 C 250.928 3.56827 -0.202357 0
M  V30 2689 C 250.594 4.23617 -1.54464 0
M  V30 2690 C 249.256 4.41577 -1.91215 0
M  V30 2691 C 251.608 4.61178 -2.42826 0
M  V30 2692 C 248.936 4.9437 -3.15935 0
M  V30 2693 C 251.288 5.15355 -3.66867 0
M  V30 2694 C 249.952 5.31528 -4.03776 0
M  V30 2695 H 249.222 0.737023 -0.0766668 0
M  V30 2696 H 251.869 1.70067 -0.880312 0
M  V30 2697 H 250.174 3.87892 0.551969 0
M  V30 2698 H 251.871 4.00588 0.181793 0
M  V30 2699 H 248.461 4.10004 -1.24877 0
M  V30 2700 H 252.645 4.46968 -2.15717 0
M  V30 2701 H 247.901 5.05076 -3.44541 0
M  V30 2702 H 252.075 5.43402 -4.35531 0
M  V30 2703 H 249.702 5.72199 -5.00492 0
M  V30 2704 N 251.277 0.427512 1.51691 0
M  V30 2705 C 252.225 -0.403359 2.29076 0
M  V30 2706 C 253.219 -1.02962 1.34518 0
M  V30 2707 O 254.425 -0.965715 1.51901 0
M  V30 2708 H 250.8 -0.148879 0.737115 0
M  V30 2709 H 252.771 0.270295 2.97173 0
M  V30 2710 C 251.52 -1.49763 3.13794 0
M  V30 2711 H 250.843 -1.02508 3.86435 0
M  V30 2712 H 252.283 -2.05244 3.71014 0
M  V30 2713 C 250.742 -2.47536 2.28533 0
M  V30 2714 O 251.272 -3.51848 1.93819 0
M  V30 2715 N 249.478 -2.18187 1.91945 0
M  V30 2716 H 249.025 -1.33389 2.20375 0
M  V30 2717 H 248.983 -2.83848 1.35195 0
M  V30 2718 N 252.755 -1.56801 0.158532 0
M  V30 2719 C 253.98 -2.01295 -0.499516 0
M  V30 2720 C 254.405 -1.03799 -1.56867 0
M  V30 2721 O 253.763 -0.0155162 -1.81293 0
M  V30 2722 C 253.811 -3.44469 -1.06647 0
M  V30 2723 O 252.915 -3.50012 -2.18095 0
M  V30 2724 H 252.256 -0.652884 -0.12099 0
M  V30 2725 H 254.786 -2.02958 0.258661 0
M  V30 2726 H 254.796 -3.8351 -1.39227 0
M  V30 2727 H 253.471 -4.14932 -0.283581 0
M  V30 2728 H 252.048 -3.22822 -1.86656 0
M  V30 2729 N 254.233 0.115231 -1.57178 0
M  V30 2730 C 255.166 1.17166 -1.95825 0
M  V30 2731 C 256.144 1.39912 -0.828463 0
M  V30 2732 O 257.328 1.54004 -1.08697 0
M  V30 2733 C 254.455 2.52478 -2.25771 0
M  V30 2734 C 253.501 2.46136 -3.48309 0
M  V30 2735 S 254.334 1.89736 -5.0076 0
M  V30 2736 C 255.49 3.26713 -5.33863 0
M  V30 2737 H 255.723 0.842103 -2.85124 0
M  V30 2738 H 253.256 0.322136 -1.51002 0
M  V30 2739 H 255.214 3.30332 -2.43702 0
M  V30 2740 H 253.875 2.82609 -1.37079 0
M  V30 2741 H 253.068 3.45819 -3.66641 0
M  V30 2742 H 252.67 1.76404 -3.29784 0
M  V30 2743 H 254.962 4.22935 -5.29275 0
M  V30 2744 H 255.905 3.13205 -6.35065 0
M  V30 2745 H 256.313 3.25316 -4.61335 0
M  V30 2746 N 255.711 1.52812 0.385517 0
M  V30 2747 C 256.674 1.77188 1.45386 0
M  V30 2748 C 257.674 0.641953 1.4743 0
M  V30 2749 O 258.864 0.910033 1.4854 0
M  V30 2750 C 255.996 1.87582 2.8465 0
M  V30 2751 H 257.189 2.72583 1.25054 0
M  V30 2752 H 254.742 1.43586 0.617467 0
M  V30 2753 H 255.477 0.941849 3.10322 0
M  V30 2754 H 255.262 2.69748 2.84567 0
M  V30 2755 H 256.752 2.08102 3.62054 0
M  V30 2756 N 257.189 -0.644168 1.43834 0
M  V30 2757 C 258.436 -1.40395 1.4593 0
M  V30 2758 C 258.764 -1.94305 0.0869658 0
M  V30 2759 O 258.019 -1.73288 -0.909378 0
M  V30 2760 C 258.318 -2.59615 2.45631 0
M  V30 2761 C 257.984 -2.2407 3.91284 0
M  V30 2762 C 256.646 -2.14089 4.30952 0
M  V30 2763 C 258.998 -1.95775 4.83034 0
M  V30 2764 C 256.326 -1.73981 5.6031 0
M  V30 2765 C 258.678 -1.57163 6.12766 0
M  V30 2766 C 257.342 -1.45713 6.51402 0
M  V30 2767 H 256.612 -0.513741 0.533995 0
M  V30 2768 H 259.259 -0.731724 1.76969 0
M  V30 2769 H 257.564 -3.32011 2.08028 0
M  V30 2770 H 259.261 -3.17834 2.44504 0
M  V30 2771 H 255.851 -2.32753 3.59895 0
M  V30 2772 H 260.035 -2.02403 4.53152 0
M  V30 2773 H 255.291 -1.63709 5.89075 0
M  V30 2774 H 259.465 -1.34303 6.83327 0
M  V30 2775 H 257.092 -1.14406 7.51542 0
M  V30 2776 N 258.668 -1.30515 -0.883378 0
M  V30 2777 C 260.079 -1.17509 -1.45081 0
M  V30 2778 C 260.43 0.223605 -1.94922 0
M  V30 2779 O 259.555 1.12041 -1.85137 0
M  V30 2780 C 260.15 -2.12715 -2.63701 0
M  V30 2781 C 258.709 -2.03682 -3.16529 0
M  V30 2782 C 257.856 -2.02706 -1.89224 0
M  V30 2783 H 260.807 -1.42762 -0.693165 0
M  V30 2784 H 260.828 -1.70891 -3.39965 0
M  V30 2785 H 260.34 -3.14505 -2.27395 0
M  V30 2786 H 258.441 -1.05039 -3.57488 0
M  V30 2787 H 258.554 -2.92146 -3.7972 0
M  V30 2788 H 256.918 -1.4753 -2.07622 0
M  V30 2789 H 257.701 -3.06229 -1.55174 0
M  V30 2790 N 260.146 1.09593 -1.13257 0
M  V30 2791 C 261.076 2.18214 -0.830946 0
M  V30 2792 C 262.057 1.68812 0.208966 0
M  V30 2793 O 263.242 1.9408 0.0682666 0
M  V30 2794 C 260.372 3.46051 -0.294296 0
M  V30 2795 C 259.326 4.08778 -1.26826 0
M  V30 2796 C 258.652 5.31419 -0.591449 0
M  V30 2797 C 259.952 4.51476 -2.62615 0
M  V30 2798 H 261.646 2.43703 -1.73923 0
M  V30 2799 H 259.192 1.17128 -0.837675 0
M  V30 2800 H 261.145 4.2134 -0.0709606 0
M  V30 2801 H 259.869 3.20079 0.649366 0
M  V30 2802 H 258.528 3.35505 -1.47756 0
M  V30 2803 H 258.176 5.01727 0.357633 0
M  V30 2804 H 257.876 5.74341 -1.24123 0
M  V30 2805 H 259.4 6.09433 -0.377355 0
M  V30 2806 H 260.814 5.17999 -2.45663 0
M  V30 2807 H 259.211 5.05277 -3.23752 0
M  V30 2808 H 260.281 3.63962 -3.20406 0
M  V30 2809 N 261.624 0.925811 1.2754 0
M  V30 2810 C 262.554 0.440748 2.29303 0
M  V30 2811 C 263.535 -0.497971 1.62648 0
M  V30 2812 O 264.72 -0.403126 1.8997 0
M  V30 2813 C 261.85 -0.309048 3.45922 0
M  V30 2814 C 260.804 0.54166 4.24559 0
M  V30 2815 C 260.13 -0.337191 5.33636 0
M  V30 2816 C 261.43 1.80516 4.90114 0
M  V30 2817 H 263.124 1.29121 2.70126 0
M  V30 2818 H 260.67 0.622323 1.29858 0
M  V30 2819 H 262.623 -0.659315 4.1621 0
M  V30 2820 H 261.347 -1.19352 3.04011 0
M  V30 2821 H 260.006 0.874609 3.56014 0
M  V30 2822 H 259.654 -1.22056 4.87966 0
M  V30 2823 H 259.354 0.228497 5.87156 0
M  V30 2824 H 260.878 -0.683072 6.06767 0
M  V30 2825 H 262.292 1.52307 5.52698 0
M  V30 2826 H 260.689 2.3142 5.53683 0
M  V30 2827 H 261.759 2.52581 4.13921 0
M  V30 2828 N 263.102 -1.41638 0.69111 0
M  V30 2829 C 264.35 -2.00902 0.219758 0
M  V30 2830 C 264.671 -1.54994 -1.18329 0
M  V30 2831 O 263.941 -0.778628 -1.79762 0
M  V30 2832 H 262.521 -0.74289 0.0782558 0
M  V30 2833 H 265.183 -1.73327 0.891271 0
M  V30 2834 H 264.279 -3.11224 0.233708 0
M  V30 2835 N 264.58 -0.43555 -1.51462 0
M  V30 2836 C 265.827 0.131514 -2.02072 0
M  V30 2837 C 266.155 1.42868 -1.31981 0
M  V30 2838 O 265.41 1.91076 -0.422883 0
M  V30 2839 C 265.709 0.39942 -3.55161 0
M  V30 2840 C 265.375 -0.81172 -4.43533 0
M  V30 2841 C 264.037 -1.14387 -4.67407 0
M  V30 2842 C 266.389 -1.61976 -4.95392 0
M  V30 2843 C 263.717 -2.28477 -5.40384 0
M  V30 2844 C 266.069 -2.75164 -5.6962 0
M  V30 2845 C 264.733 -3.08835 -5.91758 0
M  V30 2846 H 264.003 0.0481244 -0.739436 0
M  V30 2847 H 266.65 -0.58238 -1.8243 0
M  V30 2848 H 264.955 1.19519 -3.73125 0
M  V30 2849 H 266.652 0.85157 -3.91854 0
M  V30 2850 H 263.242 -0.542898 -4.25148 0
M  V30 2851 H 267.426 -1.37637 -4.76833 0
M  V30 2852 H 262.682 -2.5488 -5.55739 0
M  V30 2853 H 266.856 -3.38147 -6.08793 0
M  V30 2854 H 264.483 -3.97353 -6.48086 0
M  V30 2855 N 266.058 1.56714 -0.166846 0
M  V30 2856 C 267.288 2.00828 0.48494 0
M  V30 2857 C 267.696 1.04612 1.57648 0
M  V30 2858 O 267.039 0.0383201 1.8366 0
M  V30 2859 C 267.101 3.4137 1.12723 0
M  V30 2860 C 266.765 4.56654 0.177886 0
M  V30 2861 C 267.762 5.16402 -0.60207 0
M  V30 2862 C 265.447 5.02244 0.0750139 0
M  V30 2863 C 267.441 6.20167 -1.47215 0
M  V30 2864 C 265.128 6.05859 -0.798649 0
M  V30 2865 C 266.126 6.64691 -1.57082 0
M  V30 2866 O 265.814 7.66297 -2.42989 0
M  V30 2867 H 265.546 0.663587 0.128953 0
M  V30 2868 H 268.1 2.03692 -0.264365 0
M  V30 2869 H 266.33 3.35406 1.92457 0
M  V30 2870 H 268.019 3.69466 1.68076 0
M  V30 2871 H 268.785 4.82065 -0.53274 0
M  V30 2872 H 264.664 4.56167 0.665812 0
M  V30 2873 H 268.208 6.66016 -2.07531 0
M  V30 2874 H 264.105 6.39621 -0.869199 0
M  V30 2875 H 264.873 7.83601 -2.36455 0
M  V30 2876 N 267.536 -0.106894 1.57237 0
M  V30 2877 C 268.466 -1.13148 2.04254 0
M  V30 2878 C 269.447 -1.42476 0.929224 0
M  V30 2879 O 270.632 -1.52709 1.19973 0
M  V30 2880 C 267.762 -2.4545 2.45706 0
M  V30 2881 C 266.716 -2.30558 3.60592 0
M  V30 2882 C 266.042 -3.67931 3.87983 0
M  V30 2883 C 267.342 -1.75597 4.91897 0
M  V30 2884 H 269.036 -0.740374 2.90101 0
M  V30 2885 H 266.582 -0.354696 1.39563 0
M  V30 2886 H 268.535 -3.17389 2.77205 0
M  V30 2887 H 267.259 -2.86475 1.56843 0
M  V30 2888 H 265.918 -1.61067 3.29322 0
M  V30 2889 H 265.566 -4.06462 2.96306 0
M  V30 2890 H 265.266 -3.58817 4.65322 0
M  V30 2891 H 266.79 -4.41356 4.21945 0
M  V30 2892 H 268.204 -2.37364 5.21854 0
M  V30 2893 H 266.601 -1.77272 5.73319 0
M  V30 2894 H 267.671 -0.714451 4.79608 0
M  V30 2895 N 269.014 -1.53014 -0.377408 0
M  V30 2896 C 270.425 -1.60438 -0.954798 0
M  V30 2897 C 270.776 -0.464418 -1.90624 0
M  V30 2898 O 269.901 0.41087 -2.12464 0
M  V30 2899 C 270.496 -2.90797 -1.73847 0
M  V30 2900 C 269.055 -3.00595 -2.26538 0
M  V30 2901 C 268.202 -2.55645 -1.07429 0
M  V30 2902 H 271.153 -1.57926 -0.156575 0
M  V30 2903 H 271.174 -2.77935 -2.5987 0
M  V30 2904 H 270.686 -3.73746 -1.04574 0
M  V30 2905 H 268.787 -2.22208 -2.99089 0
M  V30 2906 H 268.9 -4.05456 -2.5523 0
M  V30 2907 H 267.264 -2.10239 -1.43777 0
M  V30 2908 H 268.047 -3.41 -0.396728 0
M  V30 2909 N 270.492 0.636531 -1.44174 0
M  V30 2910 C 271.422 1.76003 -1.53444 0
M  V30 2911 C 272.403 1.65619 -0.387841 0
M  V30 2912 O 273.588 1.84461 -0.607257 0
M  V30 2913 C 270.718 3.14511 -1.4731 0
M  V30 2914 C 269.672 3.39677 -2.60391 0
M  V30 2915 C 268.998 4.78159 -2.39308 0
M  V30 2916 C 270.298 3.32772 -4.02567 0
M  V30 2917 H 271.992 1.68501 -2.47483 0
M  V30 2918 H 269.538 0.809237 -1.19111 0
M  V30 2919 H 271.491 3.92878 -1.52397 0
M  V30 2920 H 270.215 3.22783 -0.49785 0
M  V30 2921 H 268.874 2.63688 -2.54684 0
M  V30 2922 H 268.522 4.83128 -1.39988 0
M  V30 2923 H 268.222 4.95956 -3.15122 0
M  V30 2924 H 269.746 5.58762 -2.46205 0
M  V30 2925 H 271.16 4.01051 -4.09672 0
M  V30 2926 H 269.557 3.62104 -4.7854 0
M  V30 2927 H 270.627 2.30669 -4.2652 0
M  V30 2928 N 271.97 1.30982 0.876444 0
M  V30 2929 C 272.933 1.18054 1.96459 0
M  V30 2930 C 273.933 0.109399 1.60427 0
M  V30 2931 O 275.123 0.358173 1.70478 0
M  V30 2932 C 272.255 0.810616 3.31122 0
M  V30 2933 H 273.448 2.14735 2.09354 0
M  V30 2934 H 271.001 1.145 1.06392 0
M  V30 2935 H 271.736 -0.155322 3.23928 0
M  V30 2936 H 271.521 1.58481 3.58645 0
M  V30 2937 H 273.011 0.743876 4.10921 0
M  V30 2938 N 273.449 -1.08991 1.13837 0
M  V30 2939 C 274.695 -1.81526 0.90422 0
M  V30 2940 C 275.028 -1.85706 -0.568066 0
M  V30 2941 O 274.303 -1.32855 -1.42056 0
M  V30 2942 C 274.586 -3.27447 1.49835 0
M  V30 2943 C 274.439 -3.31512 3.04006 0
M  V30 2944 C 275.758 -4.24256 1.17025 0
M  V30 2945 H 272.877 -0.659029 0.329923 0
M  V30 2946 H 275.519 -1.27644 1.40737 0
M  V30 2947 H 273.669 -3.73462 1.07044 0
M  V30 2948 H 275.341 -2.93867 3.55584 0
M  V30 2949 H 273.584 -2.70963 3.38765 0
M  V30 2950 H 274.255 -4.34329 3.40679 0
M  V30 2951 H 276.731 -3.86549 1.54009 0
M  V30 2952 H 275.607 -5.24684 1.61237 0
M  V30 2953 H 275.868 -4.42019 0.0846274 0
M  V30 2954 N 274.927 -0.932562 -1.27047 0
M  V30 2955 C 276.173 -0.576412 -1.94436 0
M  V30 2956 C 276.506 0.880891 -1.73072 0
M  V30 2957 O 275.781 1.62905 -1.06264 0
M  V30 2958 C 276.064 -0.909031 -3.48437 0
M  V30 2959 C 275.917 -2.42044 -3.79123 0
M  V30 2960 C 277.236 -0.418341 -4.38107 0
M  V30 2961 H 274.355 -0.210888 -0.706184 0
M  V30 2962 H 276.997 -1.16522 -1.50075 0
M  V30 2963 H 275.147 -0.407947 -3.86352 0
M  V30 2964 H 276.819 -2.99359 -3.50973 0
M  V30 2965 H 275.062 -2.86758 -3.25503 0
M  V30 2966 H 275.733 -2.6037 -4.86736 0
M  V30 2967 H 278.209 -0.847856 -4.0737 0
M  V30 2968 H 277.085 -0.679981 -5.44672 0
M  V30 2969 H 277.346 0.681642 -4.36814 0
M  V30 2970 N 276.405 1.4127 -0.698611 0
M  V30 2971 C 277.651 2.01478 -0.231207 0
M  V30 2972 C 277.984 1.55215 1.16713 0
M  V30 2973 O 277.259 0.764672 1.78838 0
M  V30 2974 C 277.542 3.58912 -0.292281 0
M  V30 2975 C 277.395 4.15293 -1.72778 0
M  V30 2976 C 278.714 4.38736 0.346194 0
M  V30 2977 H 275.833 0.732025 -0.0854878 0
M  V30 2978 H 278.475 1.67977 -0.887906 0
M  V30 2979 H 276.625 3.87582 0.26686 0
M  V30 2980 H 278.297 3.97486 -2.341 0
M  V30 2981 H 276.54 3.7022 -2.26096 0
M  V30 2982 H 277.211 5.24452 -1.72202 0
M  V30 2983 H 279.687 4.15897 -0.130035 0
M  V30 2984 H 278.563 5.48221 0.272932 0
M  V30 2985 H 278.824 4.18425 1.42734 0
M  V30 2986 N 277.883 0.443576 1.51229 0
M  V30 2987 C 279.13 -0.120796 2.02139 0
M  V30 2988 C 279.458 -1.42166 1.32736 0
M  V30 2989 O 278.713 -1.90849 0.43301 0
M  V30 2990 C 279.012 -0.380579 3.55368 0
M  V30 2991 C 278.678 0.83523 4.43097 0
M  V30 2992 C 277.34 1.16864 4.66794 0
M  V30 2993 C 279.692 1.64601 4.94526 0
M  V30 2994 C 277.02 2.31339 5.39165 0
M  V30 2995 C 279.372 2.78181 5.68153 0
M  V30 2996 C 278.036 3.11969 5.90112 0
M  V30 2997 H 277.306 -0.0442023 0.73968 0
M  V30 2998 H 279.953 0.592046 1.82118 0
M  V30 2999 H 278.258 -1.17538 3.73754 0
M  V30 3000 H 279.955 -0.830777 3.923 0
M  V30 3001 H 276.545 0.565437 4.24854 0
M  V30 3002 H 280.729 1.40163 4.76097 0
M  V30 3003 H 275.985 2.57823 5.5438 0
M  V30 3004 H 280.159 3.41371 6.06992 0
M  V30 3005 H 277.786 4.00784 6.45969 0
M  V30 3006 N 279.361 -1.56624 0.175154 0
M  V30 3007 C 280.601 -1.98894 -0.471221 0
M  V30 3008 C 280.965 -1.05889 -1.60161 0
M  V30 3009 O 282.166 -1.37315 -2.3108 0
M  V30 3010 C 280.437 -3.44865 -0.938241 0
M  V30 3011 S 281.996 -4.09164 -1.58526 0
M  V30 3012 H 278.814 -0.694686 -0.151434 0
M  V30 3013 H 281.416 -1.93577 0.27352 0
M  V30 3014 H 280.12 -4.10265 -0.10518 0
M  V30 3015 H 279.651 -3.53956 -1.71693 0
M  V30 3016 H 281.666 -4.04528 -2.87352 0
M  V30 3017 N 280.839 0.0985539 -1.57292 0
M  V30 3018 C 282.064 0.820196 -1.90493 0
M  V30 3019 C 282.489 1.71658 -0.769094 0
M  V30 3020 O 281.847 1.79133 0.279495 0
M  V30 3021 C 281.895 1.61242 -3.22542 0
M  V30 3022 O 280.999 2.72108 -3.09888 0
M  V30 3023 H 280.34 0.225547 -0.62452 0
M  V30 3024 H 282.87 0.0748159 -2.04463 0
M  V30 3025 H 282.88 1.99737 -3.55766 0
M  V30 3026 H 281.555 0.954535 -4.04798 0
M  V30 3027 H 280.132 2.36667 -2.88172 0
M  V30 3028 N 282.317 1.53212 0.369288 0
M  V30 3029 C 283.247 1.82365 1.45826 0
M  V30 3030 C 284.228 0.676907 1.56051 0
M  V30 3031 O 285.413 0.926401 1.70679 0
M  V30 3032 C 282.543 2.01023 2.83208 0
M  V30 3033 C 281.497 3.1678 2.8781 0
M  V30 3034 C 280.823 3.20724 4.27832 0
M  V30 3035 C 282.123 4.55447 2.55667 0
M  V30 3036 H 283.817 2.73559 1.21678 0
M  V30 3037 H 281.363 1.3163 0.583911 0
M  V30 3038 H 283.316 2.20001 3.59413 0
M  V30 3039 H 282.04 1.06536 3.08736 0
M  V30 3040 H 280.699 2.97616 2.14056 0
M  V30 3041 H 280.347 2.23882 4.50429 0
M  V30 3042 H 280.047 3.98496 4.31827 0
M  V30 3043 H 281.571 3.41881 5.05915 0
M  V30 3044 H 282.985 4.74611 3.21586 0
M  V30 3045 H 281.382 5.35432 2.70984 0
M  V30 3046 H 282.452 4.60812 1.5093 0
M  V30 3047 N 283.795 -0.628877 1.44509 0
M  V30 3048 C 284.742 -1.74074 1.51549 0
M  V30 3049 C 285.712 -1.62084 0.363021 0
M  V30 3050 O 286.897 -1.81975 0.573567 0
M  V30 3051 C 284.037 -3.12328 1.46784 0
M  V30 3052 C 283.15 -3.35277 2.72422 0
M  V30 3053 C 282.285 -4.63515 2.59475 0
M  V30 3054 C 281.324 -4.7965 3.80266 0
M  V30 3055 N 280.461 -5.99168 3.65981 0
M  V30 3056 H 285.301 -1.67392 2.46544 0
M  V30 3057 H 282.838 -0.816527 1.22357 0
M  V30 3058 H 284.796 -3.92286 1.42012 0
M  V30 3059 H 283.426 -3.18018 0.553544 0
M  V30 3060 H 282.478 -2.49242 2.87372 0
M  V30 3061 H 283.79 -3.43078 3.62076 0
M  V30 3062 H 282.944 -5.51638 2.52548 0
M  V30 3063 H 281.683 -4.58076 1.67384 0
M  V30 3064 H 280.688 -3.89957 3.87574 0
M  V30 3065 H 281.913 -4.86902 4.73395 0
M  V30 3066 H 279.859 -5.94814 2.76644 0
M  V30 3067 H 279.776 -6.08035 4.49254 0
M  V30 3068 H 281.044 -6.89846 3.6295 0
M  V30 3069 N 285.273 -1.31445 -0.869486 0
M  V30 3070 C 286.519 -1.21337 -1.62496 0
M  V30 3071 C 286.852 0.227872 -1.92858 0
M  V30 3072 O 286.127 1.16094 -1.56053 0
M  V30 3073 C 286.41 -2.05814 -2.95487 0
M  V30 3074 C 286.263 -3.5824 -2.72 0
M  V30 3075 C 287.582 -1.9079 -3.96594 0
M  V30 3076 H 284.701 -0.442135 -0.589649 0
M  V30 3077 H 287.343 -1.6124 -1.00507 0
M  V30 3078 H 285.493 -1.71913 -3.48394 0
M  V30 3079 H 287.165 -4.0228 -2.25762 0
M  V30 3080 H 285.408 -3.81647 -2.06224 0
M  V30 3081 H 286.079 -4.12657 -3.66631 0
M  V30 3082 H 288.555 -2.20459 -3.52898 0
M  V30 3083 H 287.431 -2.52199 -4.87531 0
M  V30 3084 H 287.692 -0.871341 -4.33428 0
M  V30 3085 N 286.751 1.08385 -1.14413 0
M  V30 3086 C 287.997 1.81044 -0.913834 0
M  V30 3087 C 288.33 1.86004 0.558209 0
M  V30 3088 O 287.605 1.33606 1.4135 0
M  V30 3089 C 287.888 3.26648 -1.51569 0
M  V30 3090 C 287.741 3.29895 -3.0576 0
M  V30 3091 C 289.06 4.23629 -1.19273 0
M  V30 3092 H 286.179 0.65727 -0.333414 0
M  V30 3093 H 288.821 1.26896 -1.41412 0
M  V30 3094 H 286.971 3.72889 -1.09023 0
M  V30 3095 H 288.643 2.91977 -3.57137 0
M  V30 3096 H 286.886 2.69163 -3.40197 0
M  V30 3097 H 287.557 4.32516 -3.42977 0
M  V30 3098 H 290.033 3.85727 -1.56057 0
M  V30 3099 H 288.909 5.23822 -1.64017 0
M  V30 3100 H 289.17 4.41968 -0.108068 0
M  V30 3101 N 288.23 0.939286 1.26551 0
M  V30 3102 C 289.458 0.602536 1.97932 0
M  V30 3103 C 289.873 -0.82206 1.69964 0
M  V30 3104 O 289.23 -1.54789 0.966784 0
M  V30 3105 C 289.281 0.832946 3.51773 0
M  V30 3106 O 289.002 2.20151 3.78768 0
M  V30 3107 C 290.503 0.506483 4.40397 0
M  V30 3108 H 287.723 0.227248 0.631347 0
M  V30 3109 H 290.267 1.25948 1.61113 0
M  V30 3110 H 288.422 0.222644 3.8676 0
M  V30 3111 H 288.836 2.26013 4.73306 0
M  V30 3112 H 290.31 0.718333 5.47306 0
M  V30 3113 H 290.787 -0.558451 4.35635 0
M  V30 3114 H 291.393 1.09543 4.10951 0
M  V30 3115 N 289.708 -1.40897 0.706093 0
M  V30 3116 C 290.671 -2.29131 0.0562841 0
M  V30 3117 C 291.671 -1.44901 -0.697166 0
M  V30 3118 O 292.861 -1.65926 -0.530484 0
M  V30 3119 C 289.993 -3.27957 -0.93043 0
M  V30 3120 H 291.186 -2.88091 0.833284 0
M  V30 3121 H 288.739 -1.4906 0.470192 0
M  V30 3122 H 289.474 -2.73997 -1.73482 0
M  V30 3123 H 289.259 -3.90124 -0.393166 0
M  V30 3124 H 290.749 -3.94049 -1.38256 0
M  V30 3125 N 291.186 -0.45159 -1.50991 0
M  V30 3126 C 292.116 0.342898 -2.30969 0
M  V30 3127 C 293.097 1.00815 -1.37005 0
M  V30 3128 O 294.282 1.00907 -1.65926 0
M  V30 3129 C 291.412 1.43637 -3.16205 0
M  V30 3130 C 290.366 0.893818 -4.18563 0
M  V30 3131 C 289.692 2.08411 -4.92411 0
M  V30 3132 C 290.992 -0.0815568 -5.22236 0
M  V30 3133 H 292.686 -0.324556 -2.97636 0
M  V30 3134 H 290.232 -0.157531 -1.43136 0
M  V30 3135 H 292.185 1.9995 -3.70942 0
M  V30 3136 H 290.909 2.13232 -2.47386 0
M  V30 3137 H 289.568 0.352798 -3.64898 0
M  V30 3138 H 289.216 2.76658 -4.20082 0
M  V30 3139 H 288.916 1.72741 -5.61636 0
M  V30 3140 H 290.44 2.65251 -5.49976 0
M  V30 3141 H 291.854 0.391742 -5.7196 0
M  V30 3142 H 290.251 -0.351551 -5.99069 0
M  V30 3143 H 291.321 -1.01374 -4.74185 0
M  V30 3144 N 292.664 1.56529 -0.183458 0
M  V30 3145 C 293.627 2.17324 0.728223 0
M  V30 3146 C 294.627 1.12453 1.14939 0
M  V30 3147 O 295.817 1.37902 1.06437 0
M  V30 3148 C 292.949 2.76591 1.99274 0
M  V30 3149 H 294.142 2.99241 0.198772 0
M  V30 3150 H 291.695 1.5616 0.0661391 0
M  V30 3151 H 292.43 1.98441 2.56499 0
M  V30 3152 H 292.215 3.5335 1.69959 0
M  V30 3153 H 293.705 3.23311 2.6431 0
M  V30 3154 N 294.142 -0.090211 1.57342 0
M  V30 3155 C 295.074 -1.13541 1.99101 0
M  V30 3156 C 296.087 -1.3604 0.894258 0
M  V30 3157 O 297.276 -1.34606 1.17233 0
M  V30 3158 C 294.376 -2.49001 2.29895 0
M  V30 3159 C 293.549 -2.46712 3.61182 0
M  V30 3160 C 292.608 -3.64136 3.79857 0
M  V30 3161 O 291.634 -3.46405 4.51655 0
M  V30 3162 N 292.836 -4.83802 3.20806 0
M  V30 3163 H 295.601 -0.779942 2.89373 0
M  V30 3164 H 293.162 -0.279125 1.59476 0
M  V30 3165 H 295.154 -3.26166 2.39578 0
M  V30 3166 H 293.724 -2.76619 1.45605 0
M  V30 3167 H 292.944 -1.55058 3.62423 0
M  V30 3168 H 294.232 -2.42265 4.4742 0
M  V30 3169 H 293.63 -5.01112 2.62494 0
M  V30 3170 H 292.187 -5.58543 3.35966 0
M  V30 3171 N 295.62 -1.53406 -0.361157 0
M  V30 3172 C 297.036 -1.43277 -0.703124 0
M  V30 3173 C 297.236 -0.575384 -1.9311 0
M  V30 3174 O 296.292 -0.0595362 -2.5243 0
M  V30 3175 C 297.605 -2.8653 -0.9122 0
M  V30 3176 C 299.153 -2.96191 -1.01193 0
M  V30 3177 C 299.628 -4.40514 -1.25345 0
M  V30 3178 N 301.119 -4.43962 -1.32105 0
M  V30 3179 C 301.854 -5.52746 -1.5251 0
M  V30 3180 N 301.35 -6.71567 -1.70203 0
M  V30 3181 N 303.143 -5.40331 -1.54916 0
M  V30 3182 H 295.294 -2.07654 0.446475 0
M  V30 3183 H 297.557 -0.937944 0.137715 0
M  V30 3184 H 297.263 -3.51605 -0.0816414 0
M  V30 3185 H 297.137 -3.30441 -1.81903 0
M  V30 3186 H 299.524 -2.31266 -1.83303 0
M  V30 3187 H 299.605 -2.55667 -0.0823929 0
M  V30 3188 H 299.249 -5.06014 -0.437346 0
M  V30 3189 H 299.179 -4.78614 -2.19627 0
M  V30 3190 H 301.67 -3.58332 -1.20028 0
M  V30 3191 H 301.983 -7.50241 -1.85359 0
M  V30 3192 H 300.328 -6.74545 -1.67373 0
M  V30 3193 H 303.519 -4.46465 -1.40663 0
M  V30 3194 H 303.692 -6.25173 -1.70477 0
M  V30 3195 N 297.098 0.621204 -1.44841 0
M  V30 3196 C 298.509 1.20298 -1.42777 0
M  V30 3197 C 298.86 1.95639 -0.148259 0
M  V30 3198 O 297.985 2.02955 0.750892 0
M  V30 3199 C 298.58 2.1882 -2.58657 0
M  V30 3200 C 297.139 2.72403 -2.59756 0
M  V30 3201 C 296.286 1.4757 -2.34773 0
M  V30 3202 H 299.237 0.411297 -1.53278 0
M  V30 3203 H 299.258 3.01607 -2.31977 0
M  V30 3204 H 298.77 1.63957 -3.51766 0
M  V30 3205 H 296.871 3.31242 -1.70615 0
M  V30 3206 H 296.984 3.17765 -3.58556 0
M  V30 3207 H 295.348 1.76051 -1.8406 0
M  V30 3208 H 296.131 0.945954 -3.3001 0
M  V30 3209 N 298.576 1.31904 0.862503 0
M  V30 3210 C 299.987 1.19803 1.43193 0
M  V30 3211 C 300.338 -0.192567 1.95253 0
M  V30 3212 O 299.463 -1.09081 1.86896 0
M  V30 3213 C 300.058 2.16883 2.60283 0
M  V30 3214 C 298.617 2.08692 3.13248 0
M  V30 3215 C 297.764 2.05691 1.85975 0
M  V30 3216 H 300.715 1.43846 0.670365 0
M  V30 3217 H 300.736 1.76278 3.37204 0
M  V30 3218 H 300.248 3.18083 2.22363 0
M  V30 3219 H 298.349 1.10713 3.55771 0
M  V30 3220 H 298.462 2.9815 3.75025 0
M  V30 3221 H 296.826 1.50814 2.05249 0
M  V30 3222 H 297.609 3.08659 1.50282 0
M  V30 3223 N 300.054 -1.07777 1.14986 0
M  V30 3224 C 301.282 -1.84018 0.945773 0
M  V30 3225 C 301.697 -1.81897 -0.505863 0
M  V30 3226 O 301.054 -1.22726 -1.35072 0
M  V30 3227 C 301.105 -3.31287 1.44677 0
M  V30 3228 O 300.826 -3.33449 2.84154 0
M  V30 3229 C 302.327 -4.24311 1.28355 0
M  V30 3230 H 299.547 -0.580716 0.336169 0
M  V30 3231 H 302.091 -1.36077 1.52654 0
M  V30 3232 H 300.246 -3.76594 0.908625 0
M  V30 3233 H 300.66 -4.25427 3.06777 0
M  V30 3234 H 302.134 -5.2573 1.68261 0
M  V30 3235 H 302.611 -4.38612 0.227184 0
M  V30 3236 H 303.217 -3.84836 1.81056 0
M  V30 3237 N 301.532 -0.945985 -1.26051 0
M  V30 3238 C 302.809 -0.513816 -1.88731 0
M  V30 3239 C 303.189 1.00872 -1.8544 0
M  V30 3240 O 302.537 1.8708 -1.312 0
M  V30 3241 C 302.747 -1.08062 -3.31849 0
M  V30 3242 C 304.095 -1.1522 -4.08668 0
M  V30 3243 O 305.119 -1.03155 -3.40936 0
M  V30 3244 O 303.978 -1.34044 -5.29806 0
M  V30 3245 H 301.072 -0.168193 -0.809716 0
M  V30 3246 H 303.618 -1.03886 -1.34186 0
M  V30 3247 H 302.39 -2.1241 -3.2863 0
M  V30 3248 H 302.013 -0.538307 -3.93939 0
M  V30 3249 N 303.011 1.40521 -0.713556 0
M  V30 3250 C 304.257 2.01221 -0.252564 0
M  V30 3251 C 304.59 1.56444 1.1506 0
M  V30 3252 O 303.865 0.783597 1.78017 0
M  V30 3253 C 304.148 3.58582 -0.330332 0
M  V30 3254 C 304.001 4.13437 -1.77173 0
M  V30 3255 C 305.32 4.39079 0.299641 0
M  V30 3256 H 302.439 0.731077 -0.0932471 0
M  V30 3257 H 305.081 1.67026 -0.905673 0
M  V30 3258 H 303.231 3.87844 0.225737 0
M  V30 3259 H 304.903 3.9498 -2.38303 0
M  V30 3260 H 303.146 3.67801 -2.3001 0
M  V30 3261 H 303.817 5.22597 -1.77755 0
M  V30 3262 H 306.293 4.15735 -0.174139 0
M  V30 3263 H 305.169 5.4848 0.214771 0
M  V30 3264 H 305.43 4.19915 1.38288 0
M  V30 3265 N 304.489 0.459591 1.5075 0
M  V30 3266 C 305.737 -0.0991532 2.01857 0
M  V30 3267 C 306.058 -1.41247 1.34441 0
M  V30 3268 O 305.328 -1.89775 0.486022 0
M  V30 3269 H 303.908 -0.039633 0.745948 0
M  V30 3270 H 306.57 0.607387 1.85194 0
M  V30 3271 H 305.666 -0.258998 3.11023 0
M  V30 3272 N 305.967 -1.56429 0.191757 0
M  V30 3273 C 306.899 -2.16154 -0.762245 0
M  V30 3274 C 307.912 -1.12247 -1.17917 0
M  V30 3275 O 309.101 -1.39353 -1.11548 0
M  V30 3276 C 306.201 -2.70606 -2.04024 0
M  V30 3277 C 305.374 -3.99381 -1.78364 0
M  V30 3278 C 304.433 -4.38692 -2.90578 0
M  V30 3279 O 303.459 -5.06179 -2.6033 0
M  V30 3280 N 304.661 -4.01922 -4.18854 0
M  V30 3281 H 307.426 -2.98643 -0.251526 0
M  V30 3282 H 304.987 -1.61897 0.00967373 0
M  V30 3283 H 306.979 -2.93891 -2.78227 0
M  V30 3284 H 305.549 -1.9259 -2.46227 0
M  V30 3285 H 304.769 -3.84262 -0.879581 0
M  V30 3286 H 306.057 -4.83445 -1.58614 0
M  V30 3287 H 305.455 -3.47631 -4.46283 0
M  V30 3288 H 304.012 -4.30165 -4.89695 0
M  V30 3289 N 307.445 0.0818655 -1.57387 0
M  V30 3290 C 308.408 1.08265 -2.02018 0
M  V30 3291 C 309.408 1.32183 -0.915664 0
M  V30 3292 O 310.598 1.28073 -1.18081 0
M  V30 3293 C 307.73 2.42871 -2.39221 0
M  V30 3294 H 308.923 0.698204 -2.91659 0
M  V30 3295 H 306.476 0.327303 -1.52835 0
M  V30 3296 H 307.211 2.86167 -1.52575 0
M  V30 3297 H 306.996 2.26855 -3.19811 0
M  V30 3298 H 308.486 3.14826 -2.74362 0
M  V30 3299 N 308.923 1.53595 0.353017 0
M  V30 3300 C 309.833 1.83897 1.45667 0
M  V30 3301 C 310.849 0.728334 1.58023 0
M  V30 3302 O 312.025 1.01968 1.73679 0
M  V30 3303 C 309.09 2.03383 2.80778 0
M  V30 3304 C 308.151 3.27262 2.77845 0
M  V30 3305 C 307.384 3.45809 4.06512 0
M  V30 3306 O 307.607 2.68387 5.03314 0
M  V30 3307 O 306.541 4.39207 4.11559 0
M  V30 3308 H 310.367 2.77686 1.2298 0
M  V30 3309 H 307.952 1.39132 0.544308 0
M  V30 3310 H 309.834 2.17698 3.60812 0
M  V30 3311 H 308.509 1.12783 3.03417 0
M  V30 3312 H 307.416 3.18359 1.96465 0
M  V30 3313 H 308.749 4.17824 2.60161 0
M  V30 3314 N 310.401 -0.613514 1.45168 0
M  V30 3315 C 311.364 -1.7065 1.53007 0
M  V30 3316 C 312.364 -1.5548 0.410184 0
M  V30 3317 O 313.554 -1.60656 0.673455 0
M  V30 3318 C 310.686 -3.09875 1.42093 0
M  V30 3319 H 311.879 -1.65068 2.50385 0
M  V30 3320 H 309.432 -0.828728 1.32521 0
M  V30 3321 H 310.167 -3.21039 0.458769 0
M  V30 3322 H 309.952 -3.22293 2.23315 0
M  V30 3323 H 311.442 -3.895 1.50598 0
M  V30 3324 N 311.879 -1.3236 -0.855495 0
M  V30 3325 C 313.107 -1.2587 -1.64208 0
M  V30 3326 C 313.522 0.173457 -1.88002 0
M  V30 3327 O 312.879 1.11027 -1.44842 0
M  V30 3328 C 312.93 -2.01424 -3.00184 0
M  V30 3329 O 312.651 -3.39051 -2.77445 0
M  V30 3330 C 314.152 -2.01948 -3.94629 0
M  V30 3331 H 311.372 -0.434318 -0.511477 0
M  V30 3332 H 313.916 -1.74469 -1.0668 0
M  V30 3333 H 312.071 -1.56549 -3.5436 0
M  V30 3334 H 312.485 -3.77711 -3.63916 0
M  V30 3335 H 313.959 -2.59297 -4.87308 0
M  V30 3336 H 314.436 -1.00554 -4.27534 0
M  V30 3337 H 315.042 -2.46767 -3.4639 0
M  V30 3338 N 313.357 1.07166 -1.15556 0
M  V30 3339 C 314.773 1.31899 -0.898603 0
M  V30 3340 C 314.973 1.96333 0.453383 0
M  V30 3341 O 314.029 2.22438 1.19489 0
M  V30 3342 C 315.342 2.20826 -2.04099 0
M  V30 3343 C 316.89 2.34269 -2.07574 0
M  V30 3344 C 317.365 3.26546 -3.21141 0
M  V30 3345 N 318.856 3.34127 -3.20801 0
M  V30 3346 C 319.591 4.05595 -4.05315 0
M  V30 3347 N 319.087 4.79661 -4.99897 0
M  V30 3348 N 320.88 4.01555 -3.93332 0
M  V30 3349 H 313.031 0.637302 -2.02613 0
M  V30 3350 H 315.294 0.343468 -0.883591 0
M  V30 3351 H 315 1.80744 -3.01703 0
M  V30 3352 H 314.874 3.21364 -1.97496 0
M  V30 3353 H 317.261 2.73603 -1.10568 0
M  V30 3354 H 317.342 1.33429 -2.18244 0
M  V30 3355 H 316.986 2.87931 -4.184 0
M  V30 3356 H 316.916 4.27345 -3.07708 0
M  V30 3357 H 319.407 2.81336 -2.52306 0
M  V30 3358 H 319.72 5.31694 -5.60822 0
M  V30 3359 H 318.065 4.78671 -5.03884 0
M  V30 3360 H 321.256 3.42806 -3.18751 0
M  V30 3361 H 321.429 4.56987 -4.5942 0
M  V30 3362 N 314.835 0.952656 1.25548 0
M  V30 3363 C 315.782 0.47008 2.25962 0
M  V30 3364 C 316.752 -0.476384 1.59122 0
M  V30 3365 O 317.937 -0.39007 1.8677 0
M  V30 3366 C 315.077 -0.247881 3.44209 0
M  V30 3367 C 314.19 0.735591 4.25691 0
M  V30 3368 C 313.325 -0.0047306 5.312 0
M  V30 3369 C 312.364 0.969805 6.04368 0
M  V30 3370 N 311.501 0.260486 7.01617 0
M  V30 3371 H 316.341 1.33126 2.66611 0
M  V30 3372 H 313.878 0.66765 1.31076 0
M  V30 3373 H 315.836 -0.680695 4.1161 0
M  V30 3374 H 314.466 -1.07312 3.0444 0
M  V30 3375 H 313.518 1.28689 3.57971 0
M  V30 3376 H 314.83 1.47934 4.76358 0
M  V30 3377 H 313.984 -0.496275 6.04667 0
M  V30 3378 H 312.723 -0.781282 4.81401 0
M  V30 3379 H 311.728 1.47237 5.29718 0
M  V30 3380 H 312.953 1.74655 6.56256 0
M  V30 3381 H 310.899 -0.497364 6.54112 0
M  V30 3382 H 310.816 0.943362 7.50091 0
M  V30 3383 H 312.084 -0.209587 7.79218 0
M  V30 3384 N 316.313 -1.40141 0.720998 0
M  V30 3385 C 317.276 -2.29058 0.0805834 0
M  V30 3386 C 318.276 -1.45632 -0.681758 0
M  V30 3387 O 319.466 -1.6648 -0.512856 0
M  V30 3388 C 316.598 -3.28925 -0.895593 0
M  V30 3389 H 317.791 -2.87191 0.863793 0
M  V30 3390 H 315.344 -1.48553 0.485975 0
M  V30 3391 H 316.079 -2.75822 -1.70566 0
M  V30 3392 H 315.864 -3.90519 -0.351766 0
M  V30 3393 H 317.354 -3.95494 -1.34069 0
M  V30 3394 N 317.792 -0.46758 -1.50504 0
M  V30 3395 C 318.755 0.317059 -2.26996 0
M  V30 3396 C 319.755 0.923513 -1.31635 0
M  V30 3397 O 320.945 0.793239 -1.55091 0
M  V30 3398 C 318.077 1.45134 -3.08462 0
M  V30 3399 H 319.27 -0.353723 -2.97807 0
M  V30 3400 H 316.823 -0.221545 -1.54722 0
M  V30 3401 H 317.558 2.15728 -2.4214 0
M  V30 3402 H 317.343 1.02232 -3.78538 0
M  V30 3403 H 318.833 2.00493 -3.66323 0
M  V30 3404 N 319.27 1.56325 -0.20005 0
M  V30 3405 C 320.686 1.58839 0.155716 0
M  V30 3406 C 320.886 1.21636 1.60645 0
M  V30 3407 O 319.942 0.941437 2.34293 0
M  V30 3408 C 321.255 3.0032 -0.151124 0
M  V30 3409 C 322.803 3.12866 -0.0916284 0
M  V30 3410 C 323.278 4.56488 -0.371845 0
M  V30 3411 N 324.769 4.62089 -0.320641 0
M  V30 3412 C 325.504 5.71116 -0.511243 0
M  V30 3413 N 325 6.88592 -0.762461 0
M  V30 3414 N 326.793 5.60335 -0.445157 0
M  V30 3415 H 318.944 1.78788 -1.14668 0
M  V30 3416 H 321.207 0.829996 -0.458051 0
M  V30 3417 H 320.913 3.32117 -1.15721 0
M  V30 3418 H 320.787 3.73257 0.543986 0
M  V30 3419 H 323.174 2.80878 0.905065 0
M  V30 3420 H 323.255 2.42304 -0.81989 0
M  V30 3421 H 322.899 4.89189 -1.36588 0
M  V30 3422 H 322.829 5.25246 0.377362 0
M  V30 3423 H 325.32 3.77665 -0.13329 0
M  V30 3424 H 325.633 7.67581 -0.896576 0
M  V30 3425 H 323.978 6.90387 -0.799412 0
M  V30 3426 H 327.169 4.67436 -0.249278 0
M  V30 3427 H 327.342 6.45243 -0.597116 0
M  V30 3428 N 320.748 -0.0735177 1.57428 0
M  V30 3429 C 321.681 -1.11932 1.98863 0
M  V30 3430 C 322.659 -1.37666 0.865266 0
M  V30 3431 O 323.843 -1.51068 1.12742 0
M  V30 3432 C 320.97 -2.46403 2.32386 0
M  V30 3433 C 320.016 -2.36815 3.54713 0
M  V30 3434 S 320.849 -1.76392 5.05614 0
M  V30 3435 C 322.005 -3.12444 5.42337 0
M  V30 3436 H 322.238 -0.766212 2.87257 0
M  V30 3437 H 319.771 -0.281987 1.51803 0
M  V30 3438 H 321.729 -3.23755 2.52375 0
M  V30 3439 H 320.39 -2.78876 1.44524 0
M  V30 3440 H 319.583 -3.35977 3.7568 0
M  V30 3441 H 319.185 -1.67598 3.34345 0
M  V30 3442 H 321.477 -4.08753 5.40303 0
M  V30 3443 H 322.42 -2.96258 6.43146 0
M  V30 3444 H 322.828 -3.1297 4.69798 0
M  V30 3445 N 322.226 -1.5378 -0.344866 0
M  V30 3446 C 323.472 -1.71216 -1.08687 0
M  V30 3447 C 323.805 -0.473281 -1.88345 0
M  V30 3448 O 323.08 0.52968 -1.87149 0
M  V30 3449 C 323.363 -2.97486 -2.02914 0
M  V30 3450 C 323.216 -4.31579 -1.26727 0
M  V30 3451 C 324.535 -3.19422 -3.0275 0
M  V30 3452 H 321.654 -0.62301 -0.393735 0
M  V30 3453 H 324.296 -1.8645 -0.365563 0
M  V30 3454 H 322.446 -2.84629 -2.64421 0
M  V30 3455 H 324.118 -4.56284 -0.67845 0
M  V30 3456 H 322.361 -4.30049 -0.569273 0
M  V30 3457 H 323.032 -5.16106 -1.95803 0
M  V30 3458 H 325.508 -3.316 -2.51357 0
M  V30 3459 H 324.384 -4.09169 -3.65885 0
M  V30 3460 H 324.645 -2.35656 -3.74057 0
M  V30 3461 N 323.704 0.605807 -1.45491 0
M  V30 3462 C 324.95 1.36481 -1.50813 0
M  V30 3463 C 325.305 1.91826 -0.148469 0
M  V30 3464 O 324.598 1.72211 0.839869 0
M  V30 3465 C 324.792 2.53012 -2.52428 0
M  V30 3466 C 324.621 2.09078 -3.98141 0
M  V30 3467 C 323.391 1.95167 -4.66088 0
M  V30 3468 C 325.589 1.66438 -4.86624 0
M  V30 3469 N 323.571 1.45062 -5.96515 0
M  V30 3470 C 324.942 1.27761 -6.06694 0
M  V30 3471 C 326.997 1.54046 -4.7347 0
M  V30 3472 C 325.7 0.779286 -7.15066 0
M  V30 3473 C 327.726 1.05618 -5.81892 0
M  V30 3474 C 327.088 0.67906 -7.01119 0
M  V30 3475 H 323.187 0.493267 -0.606805 0
M  V30 3476 H 325.771 0.692347 -1.81974 0
M  V30 3477 H 323.942 3.17851 -2.23215 0
M  V30 3478 H 325.674 3.19897 -2.47887 0
M  V30 3479 H 322.429 2.16407 -4.21266 0
M  V30 3480 H 322.853 1.22237 -6.65873 0
M  V30 3481 H 327.495 1.81827 -3.81705 0
M  V30 3482 H 325.213 0.489026 -8.06619 0
M  V30 3483 H 328.799 0.964529 -5.73749 0
M  V30 3484 H 327.679 0.310091 -7.83587 0
M  V30 3485 N 325.182 1.32811 0.848464 0
M  V30 3486 C 326.145 1.22194 1.9391 0
M  V30 3487 C 327.145 0.143404 1.60159 0
M  V30 3488 O 328.335 0.394253 1.6968 0
M  V30 3489 C 325.467 0.88067 3.29328 0
M  V30 3490 H 326.66 2.19127 2.04752 0
M  V30 3491 H 324.213 1.16731 1.0394 0
M  V30 3492 H 324.948 -0.0865776 3.24184 0
M  V30 3493 H 324.733 1.66052 3.55203 0
M  V30 3494 H 326.223 0.830871 4.09251 0
M  V30 3495 N 326.66 -1.06551 1.16123 0
M  V30 3496 C 327.608 -2.16063 0.861371 0
M  V30 3497 C 328.602 -1.6856 -0.168517 0
M  V30 3498 O 329.808 -1.79986 -0.0227579 0
M  V30 3499 H 326.183 -0.705278 0.260934 0
M  V30 3500 H 328.154 -2.38567 1.79244 0
M  V30 3501 C 326.903 -3.45661 0.376018 0
M  V30 3502 H 326.226 -3.82604 1.15992 0
M  V30 3503 H 327.666 -4.23504 0.204951 0
M  V30 3504 C 326.125 -3.24546 -0.903954 0
M  V30 3505 O 326.655 -3.49865 -1.97377 0
M  V30 3506 N 324.861 -2.77992 -0.846679 0
M  V30 3507 H 324.408 -2.57589 0.0241017 0
M  V30 3508 H 324.366 -2.64244 -1.70359 0
M  V30 3509 N 328.138 -0.959301 -1.25041 0
M  V30 3510 C 329.068 -0.501388 -2.28053 0
M  V30 3511 C 330.049 0.454673 -1.63911 0
M  V30 3512 O 331.234 0.352618 -1.90972 0
M  V30 3513 C 328.364 0.217224 -3.4662 0
M  V30 3514 C 327.318 -0.654034 -4.22973 0
M  V30 3515 C 326.644 0.195589 -5.34342 0
M  V30 3516 C 327.944 -1.93447 -4.85155 0
M  V30 3517 H 329.638 -1.36238 -2.66608 0
M  V30 3518 H 327.184 -0.656534 -1.28163 0
M  V30 3519 H 329.137 0.548732 -4.17812 0
M  V30 3520 H 327.861 1.1125 -3.07068 0
M  V30 3521 H 326.52 -0.968693 -3.5357 0
M  V30 3522 H 326.168 1.09076 -4.91031 0
M  V30 3523 H 325.868 -0.384091 -5.86343 0
M  V30 3524 H 327.392 0.521958 -6.08365 0
M  V30 3525 H 328.806 -1.66908 -5.48466 0
M  V30 3526 H 327.203 -2.46018 -5.47353 0
M  V30 3527 H 328.273 -2.63466 -4.07079 0
M  V30 3528 N 329.616 1.39756 -0.72842 0
M  V30 3529 C 330.546 2.33289 -0.0991354 0
M  V30 3530 C 331.527 1.53568 0.731489 0
M  V30 3531 O 332.712 1.81987 0.677807 0
M  V30 3532 C 329.842 3.3763 0.813834 0
M  V30 3533 C 328.796 4.2791 0.0878663 0
M  V30 3534 C 328.122 5.22894 1.11741 0
M  V30 3535 C 329.422 5.11314 -1.06563 0
M  V30 3536 H 331.116 2.86163 -0.880408 0
M  V30 3537 H 328.662 1.37591 -0.424819 0
M  V30 3538 H 330.615 4.0201 1.26355 0
M  V30 3539 H 329.339 2.83181 1.62715 0
M  V30 3540 H 327.998 3.65 -0.342159 0
M  V30 3541 H 327.646 4.64744 1.92412 0
M  V30 3542 H 327.346 5.84143 0.636477 0
M  V30 3543 H 328.87 5.90151 1.56697 0
M  V30 3544 H 330.284 5.69076 -0.694671 0
M  V30 3545 H 328.681 5.81671 -1.47577 0
M  V30 3546 H 329.751 4.46534 -1.89038 0
M  V30 3547 N 331.094 0.475555 1.50254 0
M  V30 3548 C 332.34 -0.0780073 2.0265 0
M  V30 3549 C 332.673 -1.38968 1.35652 0
M  V30 3550 O 331.948 -1.8839 0.483691 0
M  V30 3551 C 332.231 -0.257161 3.59181 0
M  V30 3552 C 332.084 1.07585 4.36744 0
M  V30 3553 C 333.403 -1.00965 4.28362 0
M  V30 3554 H 330.522 -0.0268758 0.73651 0
M  V30 3555 H 333.164 0.622015 1.7953 0
M  V30 3556 H 331.314 -0.853412 3.79011 0
M  V30 3557 H 332.986 1.70902 4.28474 0
M  V30 3558 H 331.229 1.6714 4.00308 0
M  V30 3559 H 331.9 0.904088 5.44546 0
M  V30 3560 H 334.376 -0.504214 4.13034 0
M  V30 3561 H 333.252 -1.10381 5.37687 0
M  V30 3562 H 333.513 -2.04731 3.91839 0
M  V30 3563 N 332.573 -1.56217 0.208337 0
M  V30 3564 C 333.82 -1.97949 -0.42692 0
M  V30 3565 C 334.148 -1.09562 -1.60706 0
M  V30 3566 O 333.403 -0.137616 -1.95216 0
M  V30 3567 C 333.702 -3.45441 -0.916797 0
M  V30 3568 C 333.368 -4.50646 0.151391 0
M  V30 3569 C 332.03 -4.79139 0.444867 0
M  V30 3570 C 334.382 -5.13811 0.874492 0
M  V30 3571 C 331.71 -5.68084 1.46619 0
M  V30 3572 C 334.062 -6.03861 1.88506 0
M  V30 3573 C 332.726 -6.30704 2.18559 0
M  V30 3574 H 331.996 -0.724345 -0.156221 0
M  V30 3575 H 334.643 -1.89006 0.308084 0
M  V30 3576 H 332.948 -3.51521 -1.73032 0
M  V30 3577 H 334.645 -3.75094 -1.41794 0
M  V30 3578 H 331.235 -4.28511 -0.0875068 0
M  V30 3579 H 335.419 -4.91879 0.660996 0
M  V30 3580 H 330.675 -5.87151 1.7048 0
M  V30 3581 H 334.849 -6.51861 2.45051 0
M  V30 3582 H 332.476 -6.99424 2.97843 0
M  V30 3583 N 334.051 0.0651679 -1.57465 0
M  V30 3584 C 335.297 0.764193 -1.87851 0
M  V30 3585 C 335.63 1.76889 -0.801495 0
M  V30 3586 O 334.905 1.93594 0.187528 0
M  V30 3587 C 335.188 1.46625 -3.28897 0
M  V30 3588 C 335.041 0.477515 -4.47258 0
M  V30 3589 C 336.36 2.4095 -3.68281 0
M  V30 3590 H 333.479 0.276351 -0.683227 0
M  V30 3591 H 336.121 0.0272868 -1.8998 0
M  V30 3592 H 334.271 2.09438 -3.27212 0
M  V30 3593 H 335.943 -0.145922 -4.61069 0
M  V30 3594 H 334.186 -0.206576 -4.33308 0
M  V30 3595 H 334.857 1.0065 -5.42746 0
M  V30 3596 H 337.333 1.88209 -3.71102 0
M  V30 3597 H 336.209 2.87072 -4.67847 0
M  V30 3598 H 336.47 3.26049 -2.98571 0
M  V30 3599 N 335.529 1.53961 0.336706 0
M  V30 3600 C 336.775 1.7179 1.07777 0
M  V30 3601 C 337.108 0.483263 1.88091 0
M  V30 3602 O 336.383 -0.519747 1.87427 0
M  V30 3603 C 336.666 2.98558 2.01334 0
M  V30 3604 C 336.519 4.32245 1.24437 0
M  V30 3605 C 337.838 3.21023 3.01052 0
M  V30 3606 H 334.957 0.625089 0.390426 0
M  V30 3607 H 337.599 1.86641 0.35567 0
M  V30 3608 H 335.749 2.86028 2.62908 0
M  V30 3609 H 337.421 4.56637 0.654243 0
M  V30 3610 H 335.664 4.30344 0.546458 0
M  V30 3611 H 336.335 5.17137 1.93063 0
M  V30 3612 H 338.811 3.32929 2.49595 0
M  V30 3613 H 337.687 4.11104 3.6371 0
M  V30 3614 H 337.948 2.37637 3.72802 0
M  V30 3615 N 337.007 -0.598083 1.45811 0
M  V30 3616 C 338.247 -1.36802 1.5187 0
M  V30 3617 C 338.611 -1.9133 0.160224 0
M  V30 3618 O 339.812 -2.6863 0.0955302 0
M  V30 3619 C 338.083 -2.47835 2.57513 0
M  V30 3620 S 339.642 -3.35458 2.82866 0
M  V30 3621 H 336.46 -0.466278 0.536755 0
M  V30 3622 H 339.062 -0.689152 1.82951 0
M  V30 3623 H 337.766 -2.06141 3.54872 0
M  V30 3624 H 337.297 -3.20512 2.28114 0
M  V30 3625 H 339.312 -4.46251 2.16967 0
M  V30 3626 N 338.485 -1.33259 -0.841409 0
M  V30 3627 C 339.732 -1.24572 -1.5965 0
M  V30 3628 C 340.06 0.189137 -1.93578 0
M  V30 3629 O 339.315 1.14566 -1.5866 0
M  V30 3630 C 339.614 -2.06381 -2.9179 0
M  V30 3631 C 339.28 -3.556 -2.77235 0
M  V30 3632 C 337.942 -3.96282 -2.72973 0
M  V30 3633 C 340.294 -4.50433 -2.62221 0
M  V30 3634 C 337.622 -5.30017 -2.51592 0
M  V30 3635 C 339.974 -5.84327 -2.42374 0
M  V30 3636 C 338.638 -6.24194 -2.36512 0
M  V30 3637 H 337.908 -0.455842 -0.5842 0
M  V30 3638 H 340.555 -1.6482 -0.975016 0
M  V30 3639 H 338.86 -1.58903 -3.5813 0
M  V30 3640 H 340.557 -1.97019 -3.49263 0
M  V30 3641 H 337.147 -3.23298 -2.81384 0
M  V30 3642 H 341.331 -4.19914 -2.64549 0
M  V30 3643 H 336.587 -5.59947 -2.45499 0
M  V30 3644 H 340.761 -6.57414 -2.29739 0
M  V30 3645 H 338.388 -7.27759 -2.19706 0
M  V30 3646 N 339.963 1.05934 -1.16686 0
M  V30 3647 C 340.893 2.1546 -0.899949 0
M  V30 3648 C 341.874 1.69391 0.155154 0
M  V30 3649 O 343.059 1.94199 0.00648693 0
M  V30 3650 C 340.189 3.44939 -0.404241 0
M  V30 3651 C 339.143 4.04536 -1.39767 0
M  V30 3652 C 338.469 5.29268 -0.760216 0
M  V30 3653 C 339.769 4.42893 -2.76845 0
M  V30 3654 H 341.463 2.38046 -1.81588 0
M  V30 3655 H 339.009 1.14404 -0.874514 0
M  V30 3656 H 340.962 4.20901 -0.204971 0
M  V30 3657 H 339.686 3.21983 0.547206 0
M  V30 3658 H 338.345 3.30635 -1.58355 0
M  V30 3659 H 337.993 5.02611 0.197831 0
M  V30 3660 H 337.693 5.70101 -1.42332 0
M  V30 3661 H 339.217 6.07924 -0.57105 0
M  V30 3662 H 340.631 5.09921 -2.62019 0
M  V30 3663 H 339.028 4.94721 -3.39663 0
M  V30 3664 H 340.098 3.53584 -3.31823 0
M  V30 3665 N 341.441 0.965919 1.2453 0
M  V30 3666 C 342.852 0.665929 1.7442 0
M  V30 3667 C 343.203 -0.818407 1.78316 0
M  V30 3668 O 342.328 -1.64037 1.41141 0
M  V30 3669 C 342.923 1.20211 3.16757 0
M  V30 3670 C 341.482 0.952059 3.6416 0
M  V30 3671 C 340.629 1.33848 2.42858 0
M  V30 3672 H 343.58 1.14144 1.10258 0
M  V30 3673 H 343.601 0.567544 3.76244 0
M  V30 3674 H 343.113 2.28244 3.13889 0
M  V30 3675 H 341.214 -0.112821 3.72429 0
M  V30 3676 H 341.327 1.59645 4.51719 0
M  V30 3677 H 339.691 0.756864 2.43195 0
M  V30 3678 H 340.474 2.42827 2.42673 0
M  V30 3679 N 342.919 -1.39368 0.735821 0
M  V30 3680 C 343.849 -2.33234 0.111506 0
M  V30 3681 C 344.83 -1.53954 -0.723334 0
M  V30 3682 O 346.015 -1.82344 -0.668147 0
M  V30 3683 C 343.145 -3.38057 -0.795917 0
M  V30 3684 C 342.099 -4.2795 -0.065172 0
M  V30 3685 C 341.425 -5.23479 -1.08967 0
M  V30 3686 C 342.725 -5.10741 1.09273 0
M  V30 3687 H 344.419 -2.85692 0.895571 0
M  V30 3688 H 341.965 -1.37364 0.432109 0
M  V30 3689 H 343.918 -4.02675 -1.24221 0
M  V30 3690 H 342.642 -2.8404 -1.61211 0
M  V30 3691 H 341.301 -3.64813 0.361511 0
M  V30 3692 H 340.949 -4.65758 -1.89944 0
M  V30 3693 H 340.649 -5.84472 -0.605489 0
M  V30 3694 H 342.173 -5.90974 -1.53565 0
M  V30 3695 H 343.587 -5.68699 0.724841 0
M  V30 3696 H 341.984 -5.8088 1.50659 0
M  V30 3697 H 343.054 -4.45525 1.91404 0
M  V30 3698 N 344.397 -0.483516 -1.5 0
M  V30 3699 C 345.347 0.32306 -2.257 0
M  V30 3700 C 346.331 0.950755 -1.29805 0
M  V30 3701 O 347.523 0.861247 -1.54634 0
M  V30 3702 C 344.652 1.39724 -3.13579 0
M  V30 3703 C 343.738 0.776663 -4.16928 0
M  V30 3704 N 344.129 -0.1104 -5.0568 0
M  V30 3705 C 342.427 1.03922 -4.33724 0
M  V30 3706 C 343.128 -0.46387 -5.79848 0
M  V30 3707 N 342.104 0.163987 -5.43353 0
M  V30 3708 H 345.906 -0.360086 -2.91686 0
M  V30 3709 H 343.42 -0.298456 -1.59634 0
M  V30 3710 H 345.417 1.98837 -3.66428 0
M  V30 3711 H 344.077 2.08225 -2.49143 0
M  V30 3712 H 345.088 -0.480069 -5.1567 0
M  V30 3713 H 341.765 1.71829 -3.80501 0
M  V30 3714 H 343.155 -1.18854 -6.61304 0
M  V30 3715 N 345.875 1.56104 -0.216619 0
M  V30 3716 C 347.121 1.98466 0.417033 0
M  V30 3717 C 347.454 1.10403 1.59765 0
M  V30 3718 O 346.729 0.160632 1.93836 0
M  V30 3719 C 347.012 3.49769 0.85637 0
M  V30 3720 C 346.865 4.48606 -0.327546 0
M  V30 3721 C 348.184 4.05339 1.7143 0
M  V30 3722 H 345.303 0.721551 0.150112 0
M  V30 3723 H 347.945 1.87423 -0.311864 0
M  V30 3724 H 346.095 3.5931 1.47745 0
M  V30 3725 H 347.767 4.5108 -0.965618 0
M  V30 3726 H 346.01 4.22682 -0.975805 0
M  V30 3727 H 346.681 5.51995 0.0227149 0
M  V30 3728 H 349.157 3.98712 1.19031 0
M  V30 3729 H 348.033 5.11533 1.99061 0
M  V30 3730 H 348.294 3.51918 2.67593 0
M  V30 3731 N 347.353 -0.0568162 1.57498 0
M  V30 3732 C 348.601 -0.751617 1.87604 0
M  V30 3733 C 348.922 -1.77351 0.81066 0
M  V30 3734 O 348.192 -1.95254 -0.159018 0
M  V30 3735 H 346.772 -0.280583 0.692302 0
M  V30 3736 H 349.434 -0.0293483 1.94878 0
M  V30 3737 H 348.53 -1.25852 2.856 0
M  V30 3738 N 348.832 -1.54138 -0.328536 0
M  V30 3739 C 349.762 -1.86167 -1.40939 0
M  V30 3740 C 350.743 -0.718044 -1.54202 0
M  V30 3741 O 351.928 -0.971328 -1.68163 0
M  V30 3742 C 349.058 -2.08461 -2.77779 0
M  V30 3743 C 348.012 -3.24299 -2.7931 0
M  V30 3744 C 347.338 -3.31955 -4.19178 0
M  V30 3745 C 348.638 -4.62065 -2.43502 0
M  V30 3746 H 350.332 -2.76689 -1.14383 0
M  V30 3747 H 347.878 -1.33132 -0.548806 0
M  V30 3748 H 349.831 -2.29453 -3.53454 0
M  V30 3749 H 348.555 -1.14684 -3.05802 0
M  V30 3750 H 347.214 -3.03187 -2.0609 0
M  V30 3751 H 346.862 -2.35745 -4.44335 0
M  V30 3752 H 346.562 -4.09805 -4.2111 0
M  V30 3753 H 348.086 -3.55175 -4.96672 0
M  V30 3754 H 349.5 -4.8297 -3.08889 0
M  V30 3755 H 347.897 -5.42429 -2.56693 0
M  V30 3756 H 348.967 -4.64652 -1.38659 0
M  V30 3757 N 350.31 0.590341 -1.46126 0
M  V30 3758 C 351.538 1.37504 -1.54597 0
M  V30 3759 C 351.953 1.87897 -0.184447 0
M  V30 3760 O 351.31 1.63192 0.816984 0
M  V30 3761 C 351.361 2.56779 -2.54454 0
M  V30 3762 O 351.082 2.08476 -3.85317 0
M  V30 3763 C 352.583 3.49427 -2.72792 0
M  V30 3764 H 349.803 0.420325 -0.523037 0
M  V30 3765 H 352.347 0.718383 -1.91467 0
M  V30 3766 H 350.502 3.1845 -2.20609 0
M  V30 3767 H 350.916 2.86097 -4.396 0
M  V30 3768 H 352.39 4.29619 -3.466 0
M  V30 3769 H 352.867 4.00876 -1.79429 0
M  V30 3770 H 353.473 2.93598 -3.07702 0
M  V30 3771 N 351.788 1.33704 0.83433 0
M  V30 3772 C 353.034 1.25603 1.59222 0
M  V30 3773 C 353.367 -0.176659 1.93395 0
M  V30 3774 O 352.642 -1.11915 1.59076 0
M  V30 3775 C 352.925 2.13576 2.89926 0
M  V30 3776 C 352.778 3.65326 2.62406 0
M  V30 3777 C 354.097 2.01238 3.91397 0
M  V30 3778 H 351.216 0.457613 0.577719 0
M  V30 3779 H 353.858 1.63848 0.961972 0
M  V30 3780 H 352.008 1.8109 3.43713 0
M  V30 3781 H 353.68 4.08124 2.15017 0
M  V30 3782 H 351.923 3.8698 1.96033 0
M  V30 3783 H 352.594 4.22232 3.55562 0
M  V30 3784 H 355.07 2.29738 3.46929 0
M  V30 3785 H 353.946 2.65036 4.80673 0
M  V30 3786 H 354.207 0.985951 4.30966 0
M  V30 3787 N 353.266 -1.05314 1.17247 0
M  V30 3788 C 354.682 -1.30452 0.919473 0
M  V30 3789 C 354.882 -1.9703 -0.42209 0
M  V30 3790 O 353.938 -2.24311 -1.15935 0
M  V30 3791 C 355.251 -2.17551 2.07586 0
M  V30 3792 C 356.799 -2.30937 2.11275 0
M  V30 3793 C 357.274 -3.21396 3.26296 0
M  V30 3794 N 358.765 -3.28981 3.26076 0
M  V30 3795 C 359.5 -3.99095 4.11716 0
M  V30 3796 N 358.996 -4.71648 5.07465 0
M  V30 3797 N 360.789 -3.95247 3.9967 0
M  V30 3798 H 352.94 -0.604988 2.03602 0
M  V30 3799 H 355.203 -0.329368 0.888944 0
M  V30 3800 H 354.909 -1.75921 3.0454 0
M  V30 3801 H 354.783 -3.18182 2.02584 0
M  V30 3802 H 357.17 -2.71809 1.14907 0
M  V30 3803 H 357.251 -1.2994 2.20339 0
M  V30 3804 H 356.895 -2.81238 4.22927 0
M  V30 3805 H 356.825 -4.22395 3.14467 0
M  V30 3806 H 359.316 -2.77286 2.5675 0
M  V30 3807 H 359.629 -5.22705 5.6921 0
M  V30 3808 H 357.974 -4.70594 5.11435 0
M  V30 3809 H 361.165 -3.37691 3.24164 0
M  V30 3810 H 361.338 -4.4962 4.66632 0
M  V30 3811 N 354.744 -0.972509 -1.24016 0
M  V30 3812 C 355.674 -0.525548 -2.27509 0
M  V30 3813 C 356.655 0.437262 -1.64384 0
M  V30 3814 O 357.84 0.332343 -1.91335 0
M  V30 3815 C 354.97 0.180448 -3.46831 0
M  V30 3816 C 353.924 -0.698859 -4.22256 0
M  V30 3817 C 353.25 0.138903 -5.3452 0
M  V30 3818 C 354.55 -1.98582 -4.83076 0
M  V30 3819 H 356.244 -1.39058 -2.65148 0
M  V30 3820 H 353.79 -0.67009 -1.27459 0
M  V30 3821 H 355.743 0.504387 -4.18371 0
M  V30 3822 H 354.467 1.07987 -3.08231 0
M  V30 3823 H 353.126 -1.00614 -3.52523 0
M  V30 3824 H 352.774 1.03862 -4.9216 0
M  V30 3825 H 352.474 -0.446259 -5.85903 0
M  V30 3826 H 353.998 0.457404 -6.08884 0
M  V30 3827 H 355.412 -1.72715 -5.46665 0
M  V30 3828 H 353.809 -2.5181 -5.44713 0
M  V30 3829 H 354.879 -2.67769 -4.04262 0
M  V30 3830 N 356.222 1.38976 -0.743202 0
M  V30 3831 C 357.185 2.28901 -0.117014 0
M  V30 3832 C 358.185 1.46698 0.658503 0
M  V30 3833 O 359.375 1.67274 0.486305 0
M  V30 3834 C 356.507 3.30309 0.84315 0
M  V30 3835 H 357.7 2.8578 -0.909373 0
M  V30 3836 H 355.253 1.47761 -0.509547 0
M  V30 3837 H 355.988 2.785 1.66157 0
M  V30 3838 H 355.773 3.91029 0.289594 0
M  V30 3839 H 357.263 3.97577 1.2776 0
M  V30 3840 N 357.7 0.491464 1.49741 0
M  V30 3841 C 358.946 -0.0565092 2.02721 0
M  V30 3842 C 359.279 -1.37522 1.37118 0
M  V30 3843 O 358.554 -1.87866 0.503645 0
M  V30 3844 C 358.837 -0.219051 3.59433 0
M  V30 3845 C 358.69 1.12211 4.35579 0
M  V30 3846 C 360.009 -0.964157 4.29409 0
M  V30 3847 H 357.128 -0.0190627 0.736753 0
M  V30 3848 H 359.77 0.641021 1.7886 0
M  V30 3849 H 357.92 -0.813165 3.79895 0
M  V30 3850 H 359.592 1.75437 4.26637 0
M  V30 3851 H 357.835 1.71377 3.98513 0
M  V30 3852 H 358.506 0.961794 5.43556 0
M  V30 3853 H 360.982 -0.460378 4.13545 0
M  V30 3854 H 359.858 -1.04671 5.38828 0
M  V30 3855 H 360.119 -2.00563 3.93988 0
M  V30 3856 N 359.178 -1.55987 0.224894 0
M  V30 3857 C 360.426 -1.97998 -0.405099 0
M  V30 3858 C 360.747 -1.11387 -1.60056 0
M  V30 3859 O 360.017 -0.191645 -1.9496 0
M  V30 3860 H 358.597 -0.731235 -0.152658 0
M  V30 3861 H 361.259 -1.92279 0.318567 0
M  V30 3862 H 360.355 -3.03463 -0.729167 0
M  V30 3863 N 360.656 0.0484629 -1.57525 0
M  V30 3864 C 361.902 0.738854 -1.89506 0
M  V30 3865 C 362.257 1.73989 -0.821319 0
M  V30 3866 O 361.55 1.90825 0.172129 0
M  V30 3867 C 361.744 1.46632 -3.25935 0
M  V30 3868 C 361.573 0.537254 -4.46479 0
M  V30 3869 C 360.343 0.165484 -5.05029 0
M  V30 3870 C 362.541 -0.176085 -5.13998 0
M  V30 3871 N 360.523 -0.766868 -6.09091 0
M  V30 3872 C 361.894 -0.96478 -6.12448 0
M  V30 3873 C 363.949 -0.24509 -4.97296 0
M  V30 3874 C 362.652 -1.8161 -6.95996 0
M  V30 3875 C 364.678 -1.08347 -5.81391 0
M  V30 3876 C 364.04 -1.86014 -6.79395 0
M  V30 3877 H 360.139 0.245067 -0.742608 0
M  V30 3878 H 362.723 -0.000476161 -1.947 0
M  V30 3879 H 360.894 2.17623 -3.21706 0
M  V30 3880 H 362.626 2.10757 -3.45491 0
M  V30 3881 H 359.381 0.523466 -4.70698 0
M  V30 3882 H 359.805 -1.22698 -6.65788 0
M  V30 3883 H 364.447 0.341063 -4.21422 0
M  V30 3884 H 362.165 -2.41313 -7.71229 0
M  V30 3885 H 365.751 -1.14014 -5.70519 0
M  V30 3886 H 364.631 -2.4984 -7.43337 0
M  V30 3887 N 362.134 1.5431 0.320358 0
M  V30 3888 C 363.082 1.84647 1.4145 0
M  V30 3889 C 364.076 0.718624 1.53402 0
M  V30 3890 O 365.282 0.902335 1.5575 0
M  V30 3891 H 361.657 0.585349 0.472091 0
M  V30 3892 H 363.628 2.7614 1.13089 0
M  V30 3893 C 362.377 2.09341 2.77617 0
M  V30 3894 H 361.7 2.9559 2.69196 0
M  V30 3895 H 363.14 2.3452 3.53237 0
M  V30 3896 C 361.599 0.885939 3.25043 0
M  V30 3897 O 362.129 0.0967891 4.01583 0
M  V30 3898 N 360.335 0.696682 2.82125 0
M  V30 3899 H 359.882 1.34006 2.2 0
M  V30 3900 H 359.84 -0.109712 3.14209 0
M  V30 3901 N 363.613 -0.582584 1.46437 0
M  V30 3902 C 364.576 -1.67366 1.56592 0
M  V30 3903 C 365.576 -1.54575 0.443072 0
M  V30 3904 O 366.766 -1.59191 0.707381 0
M  V30 3905 C 363.898 -3.06791 1.48634 0
M  V30 3906 H 365.091 -1.5972 2.5383 0
M  V30 3907 H 362.644 -0.800432 1.34249 0
M  V30 3908 H 363.379 -3.19993 0.526763 0
M  V30 3909 H 363.164 -3.17484 2.30101 0
M  V30 3910 H 364.654 -3.86218 1.58826 0
M  V30 3911 N 365.091 -1.34144 -0.827227 0
M  V30 3912 C 366.331 -1.27603 -1.59677 0
M  V30 3913 C 366.695 0.153035 -1.91389 0
M  V30 3914 O 367.896 0.342566 -2.66608 0
M  V30 3915 C 366.167 -2.13784 -2.86411 0
M  V30 3916 S 367.726 -2.24552 -3.76991 0
M  V30 3917 H 364.544 -0.453789 -0.547354 0
M  V30 3918 H 367.146 -1.69309 -0.977479 0
M  V30 3919 H 365.85 -3.16627 -2.61104 0
M  V30 3920 H 365.381 -1.72959 -3.5334 0
M  V30 3921 H 367.396 -1.41514 -4.75593 0
M  V30 3922 N 366.569 1.04691 -1.17803 0
M  V30 3923 C 367.532 2.10724 -0.901545 0
M  V30 3924 C 368.532 1.6042 0.110437 0
M  V30 3925 O 369.722 1.7377 -0.122303 0
M  V30 3926 C 366.854 3.39084 -0.351409 0
M  V30 3927 H 368.047 2.36686 -1.84174 0
M  V30 3928 H 365.6 1.21015 -0.98919 0
M  V30 3929 H 366.335 3.18782 0.59569 0
M  V30 3930 H 366.12 3.76909 -1.08083 0
M  V30 3931 H 367.61 4.17227 -0.176451 0
M  V30 3932 N 368.047 0.979072 1.23499 0
M  V30 3933 C 368.977 0.537606 2.27227 0
M  V30 3934 C 369.958 -0.428539 1.64613 0
M  V30 3935 O 371.143 -0.322191 1.91509 0
M  V30 3936 C 368.273 -0.162052 3.46922 0
M  V30 3937 C 367.227 0.721242 4.21879 0
M  V30 3938 C 366.553 -0.110555 5.34586 0
M  V30 3939 C 367.853 2.01141 4.82016 0
M  V30 3940 H 369.547 1.40462 2.64406 0
M  V30 3941 H 367.093 0.67684 1.27102 0
M  V30 3942 H 369.046 -0.482192 4.18632 0
M  V30 3943 H 367.77 -1.06351 3.08799 0
M  V30 3944 H 366.429 1.02482 3.51984 0
M  V30 3945 H 366.077 -1.0125 4.92704 0
M  V30 3946 H 365.777 0.477325 5.85658 0
M  V30 3947 H 367.301 -0.425107 6.09118 0
M  V30 3948 H 368.715 1.75612 5.45741 0
M  V30 3949 H 367.112 2.54695 5.43369 0
M  V30 3950 H 368.182 2.69909 4.02836 0
M  V30 3951 N 369.525 -1.3858 0.750561 0
M  V30 3952 C 370.455 -2.33102 0.136237 0
M  V30 3953 C 371.436 -1.54713 -0.706965 0
M  V30 3954 O 372.621 -1.83043 -0.648769 0
M  V30 3955 C 369.751 -3.38882 -0.760017 0
M  V30 3956 C 368.705 -4.27995 -0.0197785 0
M  V30 3957 C 368.031 -5.24605 -1.03408 0
M  V30 3958 C 369.331 -5.09554 1.14684 0
M  V30 3959 H 371.025 -2.84726 0.925822 0
M  V30 3960 H 368.571 -1.36898 0.446654 0
M  V30 3961 H 370.524 -4.0397 -1.19943 0
M  V30 3962 H 369.248 -2.85734 -1.58189 0
M  V30 3963 H 367.907 -3.64409 0.400184 0
M  V30 3964 H 367.555 -4.67746 -1.84994 0
M  V30 3965 H 367.255 -5.85081 -0.543464 0
M  V30 3966 H 368.779 -5.9257 -1.47288 0
M  V30 3967 H 370.193 -5.67899 0.785118 0
M  V30 3968 H 368.59 -5.7925 1.56812 0
M  V30 3969 H 369.66 -4.4347 1.96118 0
M  V30 3970 N 371.003 -0.499398 -1.49478 0
M  V30 3971 C 371.913 0.284489 -2.32869 0
M  V30 3972 C 372.929 0.968885 -1.44529 0
M  V30 3973 O 374.105 0.95062 -1.77553 0
M  V30 3974 C 371.17 1.33594 -3.19928 0
M  V30 3975 C 370.231 0.665149 -4.24116 0
M  V30 3976 C 369.464 1.6665 -5.07014 0
M  V30 3977 O 369.687 2.89618 -4.91404 0
M  V30 3978 O 368.621 1.22271 -5.8935 0
M  V30 3979 H 372.447 -0.39802 -3.01081 0
M  V30 3980 H 370.032 -0.260758 -1.47107 0
M  V30 3981 H 371.914 1.94431 -3.73864 0
M  V30 3982 H 370.589 2.0014 -2.54412 0
M  V30 3983 H 369.496 0.0170769 -3.74096 0
M  V30 3984 H 370.829 0.0421555 -4.92182 0
M  V30 3985 N 372.481 1.55866 -0.233164 0
M  V30 3986 C 373.709 2.02998 0.399905 0
M  V30 3987 C 374.124 1.11274 1.52524 0
M  V30 3988 O 373.481 0.124528 1.82075 0
M  V30 3989 C 373.532 3.4958 0.920639 0
M  V30 3990 O 373.253 4.37808 -0.159834 0
M  V30 3991 C 374.754 4.12411 1.62578 0
M  V30 3992 H 371.974 0.664006 0.0966281 0
M  V30 3993 H 374.518 2.0143 -0.353013 0
M  V30 3994 H 372.673 3.51727 1.62379 0
M  V30 3995 H 373.087 5.23981 0.23337 0
M  V30 3996 H 374.561 5.16711 1.94201 0
M  V30 3997 H 375.038 3.5809 2.54299 0
M  V30 3998 H 375.644 4.14148 0.967553 0
M  V30 3999 N 373.959 -0.0401083 1.57549 0
M  V30 4000 C 375.208 -0.732108 1.87944 0
M  V30 4001 C 375.521 -1.77107 0.830206 0
M  V30 4002 O 376.727 -2.51488 1.02302 0
M  V30 4003 C 375.183 -1.35315 3.33494 0
M  V30 4004 C 374.791 -0.351105 4.46622 0
M  V30 4005 C 376.535 -2.02566 3.73051 0
M  V30 4006 C 374.442 -0.979859 5.83226 0
M  V30 4007 H 373.372 -0.277188 0.701201 0
M  V30 4008 H 376.023 0.0138501 1.83495 0
M  V30 4009 H 374.405 -2.14844 3.32653 0
M  V30 4010 H 375.579 0.416674 4.58912 0
M  V30 4011 H 373.894 0.218708 4.15825 0
M  V30 4012 H 376.491 -2.50441 4.72423 0
M  V30 4013 H 376.834 -2.83904 3.04474 0
M  V30 4014 H 377.367 -1.29827 3.76018 0
M  V30 4015 H 374.106 -0.206135 6.55176 0
M  V30 4016 H 373.626 -1.71774 5.74677 0
M  V30 4017 H 375.305 -1.49046 6.29599 0
M  V30 4018 N 375.437 -1.54477 -0.31217 0
M  V30 4019 C 376.853 -1.45442 -0.657185 0
M  V30 4020 C 377.053 -0.63653 -1.91182 0
M  V30 4021 O 376.109 -0.139815 -2.52113 0
M  V30 4022 C 377.422 -2.89287 -0.82058 0
M  V30 4023 C 378.97 -2.9926 -0.917188 0
M  V30 4024 C 379.445 -4.44279 -1.11267 0
M  V30 4025 N 380.936 -4.4794 -1.17914 0
M  V30 4026 C 381.671 -5.57318 -1.34848 0
M  V30 4027 N 381.167 -6.76642 -1.48752 0
M  V30 4028 N 382.96 -5.44986 -1.37647 0
M  V30 4029 H 375.111 -2.06129 0.512313 0
M  V30 4030 H 377.374 -0.933088 0.167485 0
M  V30 4031 H 377.08 -3.51687 0.0302604 0
M  V30 4032 H 376.954 -3.36061 -1.71298 0
M  V30 4033 H 379.341 -2.36981 -1.75852 0
M  V30 4034 H 379.422 -2.558 -0.00101257 0
M  V30 4035 H 379.066 -5.07149 -0.27614 0
M  V30 4036 H 378.996 -4.85359 -2.04289 0
M  V30 4037 H 381.487 -3.61969 -1.08567 0
M  V30 4038 H 381.8 -7.55758 -1.61397 0
M  V30 4039 H 380.145 -6.79529 -1.45828 0
M  V30 4040 H 383.336 -4.50715 -1.26388 0
M  V30 4041 H 383.509 -6.3028 -1.50501 0
M  V30 4042 N 376.915 0.57481 -1.46744 0
M  V30 4043 C 378.331 0.898981 -1.31873 0
M  V30 4044 C 378.531 1.99313 -0.29605 0
M  V30 4045 O 377.587 2.50728 0.298621 0
M  V30 4046 C 378.9 1.30886 -2.7072 0
M  V30 4047 C 380.448 1.42127 -2.78871 0
M  V30 4048 C 380.923 1.86478 -4.18318 0
M  V30 4049 N 382.414 1.93658 -4.20774 0
M  V30 4050 C 383.149 2.29267 -5.2557 0
M  V30 4051 N 382.645 2.63612 -6.40688 0
M  V30 4052 N 384.438 2.29889 -5.1294 0
M  V30 4053 H 376.589 -0.147839 -2.11885 0
M  V30 4054 H 378.852 -0.00347013 -0.947994 0
M  V30 4055 H 378.558 0.578853 -3.46904 0
M  V30 4056 H 378.432 2.26874 -3.01343 0
M  V30 4057 H 380.819 2.14213 -2.0297 0
M  V30 4058 H 380.9 0.443705 -2.51922 0
M  V30 4059 H 380.544 1.14968 -4.94717 0
M  V30 4060 H 380.474 2.85207 -4.42679 0
M  V30 4061 H 382.965 1.69574 -3.37718 0
M  V30 4062 H 383.278 2.89759 -7.16421 0
M  V30 4063 H 381.623 2.61232 -6.44036 0
M  V30 4064 H 384.814 2.02485 -4.22039 0
M  V30 4065 H 384.987 2.57312 -5.94722 0
M  V30 4066 N 378.394 1.34581 0.820102 0
M  V30 4067 C 379.357 1.2628 1.91275 0
M  V30 4068 C 380.357 0.177344 1.59819 0
M  V30 4069 O 381.547 0.430156 1.68806 0
M  V30 4070 C 378.679 0.950327 3.27386 0
M  V30 4071 H 379.872 2.23421 2.00057 0
M  V30 4072 H 377.425 1.1891 1.0144 0
M  V30 4073 H 378.16 -0.0177938 3.24295 0
M  V30 4074 H 377.945 1.73549 3.51601 0
M  V30 4075 H 379.435 0.917492 4.07396 0
M  V30 4076 N 379.872 -1.04064 1.18357 0
M  V30 4077 C 380.802 -2.14001 0.934113 0
M  V30 4078 C 381.783 -1.69616 -0.128186 0
M  V30 4079 O 382.968 -1.94185 0.0244093 0
M  V30 4080 C 380.098 -3.44253 0.459066 0
M  V30 4081 C 379.052 -4.02261 1.46185 0
M  V30 4082 C 378.378 -5.27992 0.844322 0
M  V30 4083 C 379.678 -4.38432 2.83856 0
M  V30 4084 H 381.372 -2.35127 1.85352 0
M  V30 4085 H 378.918 -1.12998 0.892604 0
M  V30 4086 H 380.871 -4.20522 0.271907 0
M  V30 4087 H 379.595 -3.22813 -0.495912 0
M  V30 4088 H 378.254 -3.28074 1.63595 0
M  V30 4089 H 377.902 -5.02862 -0.117845 0
M  V30 4090 H 377.602 -5.67765 1.51384 0
M  V30 4091 H 379.126 -6.06938 0.667693 0
M  V30 4092 H 380.54 -5.05688 2.70098 0
M  V30 4093 H 378.937 -4.89254 3.47491 0
M  V30 4094 H 380.007 -3.4826 3.37406 0
M  V30 4095 N 381.35 -0.985608 -1.22978 0
M  V30 4096 C 382.58 -0.674603 -1.95276 0
M  V30 4097 C 382.988 0.763483 -1.73111 0
M  V30 4098 O 382.331 1.52601 -1.02268 0
M  V30 4099 C 382.393 -0.891597 -3.48268 0
M  V30 4100 C 382.057 -2.31275 -3.94158 0
M  V30 4101 C 383.054 -3.29179 -4.02415 0
M  V30 4102 C 380.739 -2.64524 -4.27004 0
M  V30 4103 C 382.733 -4.58407 -4.42879 0
M  V30 4104 C 380.42 -3.93974 -4.67149 0
M  V30 4105 C 381.418 -4.90727 -4.75053 0
M  V30 4106 O 381.106 -6.17865 -5.14294 0
M  V30 4107 H 380.838 -0.249251 -0.628371 0
M  V30 4108 H 383.392 -1.32106 -1.5728 0
M  V30 4109 H 381.622 -0.187962 -3.86243 0
M  V30 4110 H 383.311 -0.576957 -4.01779 0
M  V30 4111 H 384.077 -3.04823 -3.77237 0
M  V30 4112 H 379.956 -1.89923 -4.2006 0
M  V30 4113 H 383.5 -5.33926 -4.48964 0
M  V30 4114 H 379.397 -4.18122 -4.91777 0
M  V30 4115 H 380.165 -6.21694 -5.32389 0
M  V30 4116 N 382.828 1.3818 -0.7579 0
M  V30 4117 C 384.077 1.99261 -0.312744 0
M  V30 4118 C 384.39 1.60846 1.11301 0
M  V30 4119 O 385.596 2.14929 1.65885 0
M  V30 4120 C 384.052 3.56294 -0.50821 0
M  V30 4121 C 383.66 4.03657 -1.94333 0
M  V30 4122 C 385.404 4.24313 -0.125982 0
M  V30 4123 C 383.311 5.53347 -2.08712 0
M  V30 4124 H 382.241 0.745456 -0.113185 0
M  V30 4125 H 384.892 1.57889 -0.935056 0
M  V30 4126 H 383.274 3.95575 0.183353 0
M  V30 4127 H 384.448 3.75655 -2.66871 0
M  V30 4128 H 382.763 3.48376 -2.28086 0
M  V30 4129 H 385.36 5.34279 -0.212125 0
M  V30 4130 H 385.703 4.05962 0.921964 0
M  V30 4131 H 386.236 3.90285 -0.769563 0
M  V30 4132 H 382.975 5.76607 -3.11777 0
M  V30 4133 H 382.495 5.83078 -1.4064 0
M  V30 4134 H 384.174 6.19111 -1.87912 0
M  V30 4135 N 384.306 0.507319 1.49211 0
M  V30 4136 C 385.534 -0.0315749 2.06876 0
M  V30 4137 C 385.949 -1.30241 1.36685 0
M  V30 4138 O 385.306 -1.76937 0.447152 0
M  V30 4139 C 385.357 -0.282627 3.60393 0
M  V30 4140 O 385.078 0.937835 4.27944 0
M  V30 4141 C 386.579 -0.864453 4.3479 0
M  V30 4142 H 383.799 0.0233048 0.670595 0
M  V30 4143 H 386.343 0.706484 1.91909 0
M  V30 4144 H 384.498 -0.97068 3.75042 0
M  V30 4145 H 384.912 0.704567 5.19746 0
M  V30 4146 H 386.386 -0.989664 5.43056 0
M  V30 4147 H 386.863 -1.86382 3.97692 0
M  V30 4148 H 387.469 -0.213672 4.24763 0
M  V30 4149 N 385.784 -1.5574 0.241426 0
M  V30 4150 C 387.009 -2.0366 -0.392111 0
M  V30 4151 C 387.434 -1.11969 -1.51144 0
M  V30 4152 O 386.792 -0.111594 -1.80956 0
M  V30 4153 C 386.84 -3.49638 -0.882371 0
M  V30 4154 O 385.944 -3.6108 -1.99235 0
M  V30 4155 H 385.285 -0.658379 -0.0862122 0
M  V30 4156 H 387.815 -2.01302 0.365881 0
M  V30 4157 H 387.825 -3.90351 -1.18702 0
M  V30 4158 H 386.5 -4.15852 -0.0632361 0
M  V30 4159 H 385.077 -3.32262 -1.69282 0
M  V30 4160 N 387.262 0.0317525 -1.57568 0
M  V30 4161 C 388.209 1.0332 -2.06382 0
M  V30 4162 C 389.179 1.36082 -0.952414 0
M  V30 4163 O 390.364 1.46466 -1.2228 0
M  V30 4164 C 387.504 2.32989 -2.54578 0
M  V30 4165 C 386.617 2.0641 -3.79498 0
M  V30 4166 C 385.752 3.2993 -4.16317 0
M  V30 4167 C 384.791 2.98893 -5.34162 0
M  V30 4168 N 383.928 4.14857 -5.66426 0
M  V30 4169 H 388.768 0.609982 -2.9169 0
M  V30 4170 H 386.305 0.289573 -1.44222 0
M  V30 4171 H 388.263 3.0875 -2.80587 0
M  V30 4172 H 386.893 2.73039 -1.7219 0
M  V30 4173 H 385.945 1.21158 -3.6059 0
M  V30 4174 H 387.257 1.79513 -4.65378 0
M  V30 4175 H 386.411 4.1406 -4.4344 0
M  V30 4176 H 385.15 3.59938 -3.29083 0
M  V30 4177 H 384.155 2.13164 -5.06795 0
M  V30 4178 H 385.38 2.70165 -6.23047 0
M  V30 4179 H 383.326 4.44821 -4.82151 0
M  V30 4180 H 383.243 3.91374 -6.4681 0
M  V30 4181 H 384.511 4.99868 -5.98124 0
M  V30 4182 N 388.74 1.54641 0.303973 0
M  V30 4183 C 389.67 1.88386 1.3796 0
M  V30 4184 C 390.651 0.742485 1.5304 0
M  V30 4185 O 391.836 0.997959 1.66597 0
M  V30 4186 C 388.966 2.12854 2.74427 0
M  V30 4187 C 387.92 3.28702 2.74115 0
M  V30 4188 C 387.246 3.38582 4.13844 0
M  V30 4189 C 388.546 4.65881 2.3612 0
M  V30 4190 H 390.24 2.78474 1.09966 0
M  V30 4191 H 387.786 1.33988 0.527556 0
M  V30 4192 H 389.739 2.35047 3.49758 0
M  V30 4193 H 388.463 1.19535 3.03939 0
M  V30 4194 H 387.122 3.06428 2.0124 0
M  V30 4195 H 386.77 2.42784 4.40528 0
M  V30 4196 H 386.47 4.16453 4.14537 0
M  V30 4197 H 387.994 3.63031 4.90959 0
M  V30 4198 H 389.408 4.87823 3.01167 0
M  V30 4199 H 387.805 5.46444 2.48031 0
M  V30 4200 H 388.875 4.66799 1.3125 0
M  V30 4201 N 390.218 -0.567019 1.47046 0
M  V30 4202 C 391.443 -1.3551 1.57009 0
M  V30 4203 C 391.868 -1.86841 0.217259 0
M  V30 4204 O 391.226 -1.62435 -0.805268 0
M  V30 4205 C 391.274 -2.50777 2.5912 0
M  V30 4206 O 390.378 -3.52706 2.13711 0
M  V30 4207 H 389.719 -0.402919 0.52778 0
M  V30 4208 H 392.249 -0.686241 1.92748 0
M  V30 4209 H 392.259 -2.97481 2.79229 0
M  V30 4210 H 390.934 -2.12771 3.57353 0
M  V30 4211 H 389.511 -3.12374 2.03659 0
M  V30 4212 N 391.696 -1.35014 -0.812953 0
M  V30 4213 C 392.973 -1.18502 -1.55617 0
M  V30 4214 C 393.353 0.238421 -2.09749 0
M  V30 4215 O 392.701 1.2411 -1.91857 0
M  V30 4216 C 392.911 -2.24783 -2.66971 0
M  V30 4217 C 394.259 -2.60268 -3.35478 0
M  V30 4218 O 395.283 -2.23648 -2.77236 0
M  V30 4219 O 394.142 -3.2321 -4.40678 0
M  V30 4220 H 391.236 -0.459984 -0.687272 0
M  V30 4221 H 393.782 -1.46677 -0.853464 0
M  V30 4222 H 392.554 -3.20284 -2.24798 0
M  V30 4223 H 392.177 -1.97841 -3.44884 0
M  V30 4224 N 393.175 1.03435 -1.18907 0
M  V30 4225 C 394.138 2.09756 -0.923844 0
M  V30 4226 C 395.138 1.60528 0.093416 0
M  V30 4227 O 396.328 1.73631 -0.140727 0
M  V30 4228 C 393.46 3.38692 -0.387354 0
M  V30 4229 H 394.653 2.34719 -1.86674 0
M  V30 4230 H 392.206 1.19959 -1.00197 0
M  V30 4231 H 392.941 3.19396 0.561845 0
M  V30 4232 H 392.726 3.75742 -1.12074 0
M  V30 4233 H 394.216 4.17016 -0.220694 0
M  V30 4234 N 394.653 0.992116 1.22453 0
M  V30 4235 C 395.601 0.534644 2.26372 0
M  V30 4236 C 396.595 -0.414293 1.64256 0
M  V30 4237 O 397.801 -0.286899 1.77699 0
M  V30 4238 H 394.176 0.154502 0.735957 0
M  V30 4239 H 396.147 1.42256 2.62309 0
M  V30 4240 C 394.896 -0.135815 3.47435 0
M  V30 4241 H 394.219 0.585311 3.95492 0
M  V30 4242 H 395.659 -0.419374 4.21921 0
M  V30 4243 C 394.118 -1.37089 3.07747 0
M  V30 4244 O 394.648 -2.46629 3.17076 0
M  V30 4245 N 392.854 -1.24585 2.62539 0
M  V30 4246 H 392.401 -0.354542 2.55149 0
M  V30 4247 H 392.359 -2.07327 2.36353 0
M  V30 4248 N 396.131 -1.37776 0.765217 0
M  V30 4249 C 397.371 -2.01691 0.331669 0
M  V30 4250 C 397.735 -1.59432 -1.06983 0
M  V30 4251 O 398.936 -2.15761 -1.60314 0
M  V30 4252 C 397.207 -3.54385 0.463261 0
M  V30 4253 S 398.766 -4.38652 0.114011 0
M  V30 4254 H 395.584 -0.699387 0.127979 0
M  V30 4255 H 398.186 -1.68084 0.998396 0
M  V30 4256 H 396.89 -3.82629 1.48401 0
M  V30 4257 H 396.421 -3.92783 -0.220246 0
M  V30 4258 H 398.436 -4.84021 -1.09261 0
M  V30 4259 N 397.609 -0.515225 -1.4894 0
M  V30 4260 C 398.849 0.0223983 -2.04388 0
M  V30 4261 C 399.213 1.32961 -1.38511 0
M  V30 4262 O 400.414 1.95236 -1.8476 0
M  V30 4263 C 398.685 0.157056 -3.57055 0
M  V30 4264 S 400.244 0.646875 -4.34006 0
M  V30 4265 H 397.062 -0.00500662 -0.710982 0
M  V30 4266 H 399.664 -0.69243 -1.82827 0
M  V30 4267 H 398.368 -0.799412 -4.02539 0
M  V30 4268 H 397.899 0.896704 -3.83044 0
M  V30 4269 H 399.914 1.91381 -4.57808 0
M  V30 4270 N 399.087 1.5561 -0.249682 0
M  V30 4271 C 400.017 2.24477 0.642826 0
M  V30 4272 C 400.998 1.22601 1.17911 0
M  V30 4273 O 402.183 1.5126 1.21795 0
M  V30 4274 C 399.313 2.94638 1.83863 0
M  V30 4275 C 398.267 4.03227 1.435 0
M  V30 4276 C 397.593 4.60828 2.71186 0
M  V30 4277 C 398.893 5.18796 0.604002 0
M  V30 4278 H 400.587 2.99321 0.0685625 0
M  V30 4279 H 398.133 1.43965 0.0315363 0
M  V30 4280 H 400.086 3.41517 2.46868 0
M  V30 4281 H 398.81 2.17287 2.43832 0
M  V30 4282 H 397.469 3.57121 0.828275 0
M  V30 4283 H 397.117 3.80174 3.29358 0
M  V30 4284 H 396.817 5.34132 2.44901 0
M  V30 4285 H 398.341 5.10442 3.35084 0
M  V30 4286 H 399.755 5.61883 1.13842 0
M  V30 4287 H 398.152 5.98506 0.437097 0
M  V30 4288 H 399.222 4.83384 -0.383147 0
M  V30 4289 N 400.565 -0.0233959 1.57583 0
M  V30 4290 C 401.842 -0.748794 1.807 0
M  V30 4291 C 402.222 -1.9327 0.849106 0
M  V30 4292 O 401.57 -2.28247 -0.107468 0
M  V30 4293 C 401.78 -1.17651 3.28571 0
M  V30 4294 C 403.128 -1.59008 3.93702 0
M  V30 4295 O 404.152 -1.27094 3.32755 0
M  V30 4296 O 403.011 -2.18264 5.01022 0
M  V30 4297 H 400.105 -0.362578 0.743281 0
M  V30 4298 H 402.651 0.000261958 1.697 0
M  V30 4299 H 401.423 -0.331603 3.89892 0
M  V30 4300 H 401.046 -1.98541 3.44481 0
M  V30 4301 N 402.043 -1.548 -0.295768 0
M  V30 4302 C 403.006 -1.85363 -1.34808 0
M  V30 4303 C 404.006 -0.726817 -1.43436 0
M  V30 4304 O 405.196 -0.995088 -1.42981 0
M  V30 4305 C 402.328 -2.03859 -2.73229 0
M  V30 4306 H 403.521 -2.7941 -1.08949 0
M  V30 4307 H 401.074 -1.46942 -0.532702 0
M  V30 4308 H 401.809 -1.12117 -3.04303 0
M  V30 4309 H 401.594 -2.8588 -2.68356 0
M  V30 4310 H 403.084 -2.28857 -3.49305 0
M  V30 4311 N 403.521 0.559213 -1.47345 0
M  V30 4312 C 404.77 1.31281 -1.53128 0
M  V30 4313 C 405.083 1.94602 -0.197344 0
M  V30 4314 O 406.289 2.71173 -0.133154 0
M  V30 4315 C 404.745 2.38051 -2.69925 0
M  V30 4316 C 404.353 1.8093 -4.0984 0
M  V30 4317 C 406.097 3.14604 -2.84999 0
M  V30 4318 C 404.004 2.85468 -5.1794 0
M  V30 4319 H 402.934 0.493614 -0.569966 0
M  V30 4320 H 405.585 0.594155 -1.73615 0
M  V30 4321 H 403.967 3.12822 -2.42814 0
M  V30 4322 H 405.141 1.12544 -4.46845 0
M  V30 4323 H 403.456 1.16967 -3.99634 0
M  V30 4324 H 406.053 3.92666 -3.62929 0
M  V30 4325 H 406.396 3.68665 -1.93369 0
M  V30 4326 H 406.929 2.46945 -3.1187 0
M  V30 4327 H 403.668 2.36264 -6.1144 0
M  V30 4328 H 403.188 3.52269 -4.85455 0
M  V30 4329 H 404.867 3.48996 -5.44803 0
M  V30 4330 N 404.999 1.35443 0.805782 0
M  V30 4331 C 406.239 1.30127 1.57627 0
M  V30 4332 C 406.603 -0.122567 1.91608 0
M  V30 4333 O 407.804 -0.300107 2.67119 0
M  V30 4334 C 406.075 2.18314 2.82973 0
M  V30 4335 S 407.634 2.30521 3.7337 0
M  V30 4336 H 404.452 0.462439 0.540066 0
M  V30 4337 H 407.054 1.70843 0.95042 0
M  V30 4338 H 405.758 3.20741 2.56034 0
M  V30 4339 H 405.289 1.78558 3.50543 0
M  V30 4340 H 407.304 1.49062 4.73281 0
M  V30 4341 N 406.477 -1.02803 1.19454 0
M  V30 4342 C 407.707 -1.79581 1.02149 0
M  V30 4343 C 408.115 -1.84182 -0.432851 0
M  V30 4344 O 407.458 -1.28534 -1.31243 0
M  V30 4345 C 407.52 -3.25993 1.51554 0
M  V30 4346 C 407.184 -3.45025 2.99678 0
M  V30 4347 C 408.181 -3.35175 3.97434 0
M  V30 4348 C 405.866 -3.71212 3.38389 0
M  V30 4349 C 407.86 -3.51238 5.31893 0
M  V30 4350 C 405.547 -3.8692 4.73008 0
M  V30 4351 C 406.545 -3.76936 5.69569 0
M  V30 4352 O 406.233 -3.92179 7.01748 0
M  V30 4353 H 405.965 -0.571962 0.360327 0
M  V30 4354 H 408.519 -1.30367 1.58725 0
M  V30 4355 H 406.749 -3.76235 0.893543 0
M  V30 4356 H 408.438 -3.84368 1.30444 0
M  V30 4357 H 409.204 -3.14895 3.68872 0
M  V30 4358 H 405.083 -3.78075 2.6378 0
M  V30 4359 H 408.627 -3.43362 6.07247 0
M  V30 4360 H 404.524 -4.06699 5.01265 0
M  V30 4361 H 405.292 -4.09265 7.08833 0
M  V30 4362 N 407.956 -0.998596 -1.21925 0
M  V30 4363 C 409.186 -0.695276 -1.94549 0
M  V30 4364 C 409.594 0.745079 -1.73911 0
M  V30 4365 O 408.937 1.51507 -1.03881 0
M  V30 4366 C 408.999 -0.928485 -3.47303 0
M  V30 4367 C 408.663 -2.35443 -3.91683 0
M  V30 4368 C 409.66 -3.33428 -3.98901 0
M  V30 4369 C 407.345 -2.69038 -4.24174 0
M  V30 4370 C 409.339 -4.63079 -4.37992 0
M  V30 4371 C 407.026 -3.98906 -4.62944 0
M  V30 4372 C 408.024 -4.95738 -4.69822 0
M  V30 4373 O 407.712 -6.23285 -5.07711 0
M  V30 4374 H 407.444 -0.255902 -0.625692 0
M  V30 4375 H 409.998 -1.33767 -1.5587 0
M  V30 4376 H 408.228 -0.228917 -3.86022 0
M  V30 4377 H 409.917 -0.619539 -4.01144 0
M  V30 4378 H 410.683 -3.08807 -3.73983 0
M  V30 4379 H 406.562 -1.94367 -4.18022 0
M  V30 4380 H 410.106 -5.38658 -4.43275 0
M  V30 4381 H 406.003 -4.23314 -4.87314 0
M  V30 4382 H 406.771 -6.27306 -5.25766 0
M  V30 4383 N 409.434 1.37368 -0.772513 0
M  V30 4384 C 410.664 2.03647 -0.348082 0
M  V30 4385 C 411.072 1.58392 1.03482 0
M  V30 4386 O 410.415 0.760921 1.672 0
M  V30 4387 C 410.477 3.58131 -0.313404 0
M  V30 4388 C 410.141 4.2652 -1.64102 0
M  V30 4389 C 411.138 4.50587 -2.5936 0
M  V30 4390 C 408.823 4.64335 -1.91567 0
M  V30 4391 C 410.817 5.11526 -3.80289 0
M  V30 4392 C 408.504 5.24996 -3.12766 0
M  V30 4393 C 409.502 5.48529 -4.06946 0
M  V30 4394 O 409.19 6.07921 -5.26011 0
M  V30 4395 H 408.922 0.660538 -0.143753 0
M  V30 4396 H 411.476 1.76669 -1.04772 0
M  V30 4397 H 409.706 3.84159 0.442617 0
M  V30 4398 H 411.395 4.05813 0.0840613 0
M  V30 4399 H 412.161 4.21784 -2.39423 0
M  V30 4400 H 408.04 4.45353 -1.19088 0
M  V30 4401 H 411.584 5.29811 -4.53813 0
M  V30 4402 H 407.481 5.53223 -3.32588 0
M  V30 4403 H 408.249 6.26398 -5.26847 0
M  V30 4404 N 410.912 0.523116 1.48665 0
M  V30 4405 C 411.845 -0.290518 2.26343 0
M  V30 4406 C 412.823 -0.950913 1.31895 0
M  V30 4407 O 414.007 -0.976662 1.61225 0
M  V30 4408 C 411.134 -1.41088 3.07915 0
M  V30 4409 C 410.18 -0.862597 4.17686 0
M  V30 4410 S 411.013 0.264135 5.34848 0
M  V30 4411 C 412.169 -0.858864 6.19979 0
M  V30 4412 H 412.402 0.368726 2.95005 0
M  V30 4413 H 409.935 0.30878 1.51281 0
M  V30 4414 H 411.893 -2.0527 3.55492 0
M  V30 4415 H 410.554 -2.04182 2.38681 0
M  V30 4416 H 409.747 -1.70287 4.74361 0
M  V30 4417 H 409.349 -0.297595 3.72814 0
M  V30 4418 H 411.641 -1.7591 6.54264 0
M  V30 4419 H 412.584 -0.330244 7.07329 0
M  V30 4420 H 412.992 -1.13617 5.52948 0
M  V30 4421 N 412.39 -1.55475 0.257931 0
M  V30 4422 C 413.353 -2.20551 -0.623706 0
M  V30 4423 C 414.353 -1.17809 -1.09443 0
M  V30 4424 O 415.543 -1.42823 -0.997362 0
M  V30 4425 C 412.675 -2.85784 -1.8585 0
M  V30 4426 H 413.868 -2.99848 -0.0557743 0
M  V30 4427 H 411.421 -1.56298 0.0084422 0
M  V30 4428 H 412.156 -2.10453 -2.46739 0
M  V30 4429 H 411.941 -3.61057 -1.52907 0
M  V30 4430 H 413.431 -3.35553 -2.48584 0
M  V30 4431 N 413.868 0.0150385 -1.57593 0
M  V30 4432 C 414.815 1.01126 -2.07466 0
M  V30 4433 C 415.785 1.35064 -0.966794 0
M  V30 4434 O 416.97 1.4516 -1.23827 0
M  V30 4435 C 414.11 2.30276 -2.57035 0
M  V30 4436 C 413.223 2.02373 -3.81666 0
M  V30 4437 C 412.358 3.25496 -4.19793 0
M  V30 4438 C 411.397 2.93211 -5.37303 0
M  V30 4439 N 410.534 4.08826 -5.70794 0
M  V30 4440 H 415.374 0.57901 -2.92321 0
M  V30 4441 H 412.911 0.27426 -1.44521 0
M  V30 4442 H 414.869 3.05757 -2.83846 0
M  V30 4443 H 413.499 2.71197 -1.75077 0
M  V30 4444 H 412.551 1.17327 -3.61854 0
M  V30 4445 H 413.863 1.74567 -4.67256 0
M  V30 4446 H 413.017 4.09333 -4.47807 0
M  V30 4447 H 411.756 3.56428 -3.32882 0
M  V30 4448 H 410.761 2.07777 -5.09027 0
M  V30 4449 H 411.986 2.63542 -6.25877 0
M  V30 4450 H 409.932 4.39682 -4.86842 0
M  V30 4451 H 409.849 3.84491 -6.50924 0
M  V30 4452 H 411.117 4.93496 -6.03392 0
M  V30 4453 N 415.346 1.54954 0.287554 0
M  V30 4454 C 416.256 1.8991 1.37736 0
M  V30 4455 C 417.272 0.794701 1.54792 0
M  V30 4456 O 418.448 1.09243 1.69198 0
M  V30 4457 C 415.513 2.15108 2.71899 0
M  V30 4458 C 414.574 3.38752 2.63715 0
M  V30 4459 C 413.807 3.62739 3.91479 0
M  V30 4460 O 414.03 2.89492 4.91478 0
M  V30 4461 O 412.964 4.56267 3.92561 0
M  V30 4462 H 416.79 2.82652 1.11092 0
M  V30 4463 H 414.375 1.41315 0.484807 0
M  V30 4464 H 416.257 2.32806 3.51254 0
M  V30 4465 H 414.932 1.25551 2.9836 0
M  V30 4466 H 413.839 3.26405 1.82786 0
M  V30 4467 H 415.172 4.28483 2.42205 0
M  V30 4468 N 416.824 -0.551391 1.4764 0
M  V30 4469 C 418.071 -1.3083 1.54563 0
M  V30 4470 C 418.399 -1.93359 0.210361 0
M  V30 4471 O 417.654 -1.78721 -0.797332 0
M  V30 4472 C 417.953 -2.43469 2.61644 0
M  V30 4473 C 417.619 -1.98732 4.04742 0
M  V30 4474 C 416.281 -1.86248 4.43695 0
M  V30 4475 C 418.633 -1.64659 4.94507 0
M  V30 4476 C 415.961 -1.37995 5.70241 0
M  V30 4477 C 418.313 -1.17875 6.21521 0
M  V30 4478 C 416.977 -1.03992 6.5935 0
M  V30 4479 H 416.247 -0.478741 0.565587 0
M  V30 4480 H 418.894 -0.617697 1.81264 0
M  V30 4481 H 417.199 -3.18109 2.28722 0
M  V30 4482 H 418.896 -3.01642 2.64222 0
M  V30 4483 H 415.486 -2.09393 3.73968 0
M  V30 4484 H 419.67 -1.73174 4.65107 0
M  V30 4485 H 414.926 -1.25915 5.98294 0
M  V30 4486 H 419.1 -0.905739 6.90485 0
M  V30 4487 H 416.727 -0.663794 7.57296 0
M  V30 4488 N 418.302 -1.35869 -0.798587 0
M  V30 4489 C 419.234 -1.25305 -1.91915 0
M  V30 4490 C 420.247 -0.174548 -1.61862 0
M  V30 4491 O 421.436 -0.428499 -1.73281 0
M  V30 4492 C 418.536 -0.9086 -3.26493 0
M  V30 4493 C 417.709 -2.08711 -3.84394 0
M  V30 4494 C 416.768 -1.71717 -4.97393 0
M  V30 4495 O 415.794 -2.43692 -5.14396 0
M  V30 4496 N 416.996 -0.645473 -5.769 0
M  V30 4497 H 419.761 -2.21849 -2.01502 0
M  V30 4498 H 417.322 -1.29143 -0.976408 0
M  V30 4499 H 419.314 -0.642455 -3.99568 0
M  V30 4500 H 417.884 -0.0325815 -3.12583 0
M  V30 4501 H 417.104 -2.51659 -3.03416 0
M  V30 4502 H 418.392 -2.87468 -4.19809 0
M  V30 4503 H 417.79 -0.047648 -5.6568 0
M  V30 4504 H 416.347 -0.43913 -6.50319 0
M  V30 4505 N 419.78 1.02168 -1.19998 0
M  V30 4506 C 420.69 2.14069 -0.959774 0
M  V30 4507 C 421.706 1.73804 0.082655 0
M  V30 4508 O 422.882 2.01133 -0.103633 0
M  V30 4509 C 419.947 3.42936 -0.509459 0
M  V30 4510 C 419.008 3.97474 -1.62213 0
M  V30 4511 C 418.241 5.2019 -1.19321 0
M  V30 4512 O 418.464 5.70369 -0.0597726 0
M  V30 4513 O 417.398 5.67749 -1.99863 0
M  V30 4514 H 421.224 2.37199 -1.89658 0
M  V30 4515 H 418.809 1.12469 -0.983411 0
M  V30 4516 H 420.691 4.20551 -0.267322 0
M  V30 4517 H 419.366 3.21234 0.398821 0
M  V30 4518 H 418.273 3.21161 -1.9185 0
M  V30 4519 H 419.606 4.23555 -2.50723 0
M  V30 4520 N 421.258 1.00505 1.21394 0
M  V30 4521 C 422.221 0.570459 2.21987 0
M  V30 4522 C 423.221 -0.353211 1.56873 0
M  V30 4523 O 424.411 -0.14349 1.73608 0
M  V30 4524 C 421.543 -0.168555 3.40483 0
M  V30 4525 H 422.736 1.46021 2.6195 0
M  V30 4526 H 420.289 0.793565 1.34656 0
M  V30 4527 H 421.024 -1.07374 3.06009 0
M  V30 4528 H 420.809 0.494823 3.88965 0
M  V30 4529 H 422.299 -0.460362 4.15055 0
M  V30 4530 N 422.737 -1.36956 0.779787 0
M  V30 4531 C 423.962 -2.04283 0.358224 0
M  V30 4532 C 424.387 -1.58422 -1.01411 0
M  V30 4533 O 423.745 -0.748179 -1.65142 0
M  V30 4534 C 423.793 -3.58152 0.419479 0
M  V30 4535 O 422.897 -4.08342 -0.577142 0
M  V30 4536 H 422.238 -0.645967 0.153698 0
M  V30 4537 H 424.768 -1.75108 1.05822 0
M  V30 4538 H 424.778 -4.07041 0.279636 0
M  V30 4539 H 423.453 -3.90886 1.42061 0
M  V30 4540 H 422.03 -3.70751 -0.399755 0
M  V30 4541 N 424.215 -0.530993 -1.48385 0
M  V30 4542 C 425.178 0.220497 -2.28137 0
M  V30 4543 C 426.178 0.866851 -1.35434 0
M  V30 4544 O 427.368 0.726746 -1.58316 0
M  V30 4545 C 424.5 1.31921 -3.1434 0
M  V30 4546 H 425.693 -0.479714 -2.96038 0
M  V30 4547 H 423.246 -0.286968 -1.53643 0
M  V30 4548 H 423.981 2.05264 -2.51072 0
M  V30 4549 H 423.766 0.86085 -3.82533 0
M  V30 4550 H 425.256 1.84776 -3.74497 0
M  V30 4551 N 425.693 1.55336 -0.266172 0
M  V30 4552 C 426.623 2.25146 0.618981 0
M  V30 4553 C 427.604 1.23845 1.16604 0
M  V30 4554 O 428.789 1.52544 1.20183 0
M  V30 4555 C 425.919 2.96572 1.80728 0
M  V30 4556 C 424.873 4.04726 1.39215 0
M  V30 4557 C 424.199 4.63678 2.66283 0
M  V30 4558 C 425.499 5.19407 0.548942 0
M  V30 4559 H 427.193 2.99377 0.0368116 0
M  V30 4560 H 424.739 1.43991 0.0162651 0
M  V30 4561 H 426.692 3.44116 2.43232 0
M  V30 4562 H 425.416 2.19861 2.41514 0
M  V30 4563 H 424.075 3.57979 0.790351 0
M  V30 4564 H 423.723 3.83646 3.25308 0
M  V30 4565 H 423.423 5.367 2.39222 0
M  V30 4566 H 424.947 5.13967 3.29651 0
M  V30 4567 H 426.361 5.63059 1.07876 0
M  V30 4568 H 424.758 5.98936 0.373593 0
M  V30 4569 H 425.828 4.8295 -0.434394 0
M  V30 4570 N 427.171 -0.0066808 1.57599 0
M  V30 4571 C 428.134 -0.985035 2.06953 0
M  V30 4572 C 429.134 -1.27663 0.977687 0
M  V30 4573 O 430.324 -1.22293 1.24057 0
M  V30 4574 C 427.456 -2.3118 2.50536 0
M  V30 4575 H 428.649 -0.558255 2.94658 0
M  V30 4576 H 426.202 -0.254011 1.54222 0
M  V30 4577 H 426.937 -2.78561 1.66054 0
M  V30 4578 H 426.722 -2.11338 3.3027 0
M  V30 4579 H 428.212 -3.01377 2.8907 0
M  V30 4580 N 428.649 -1.55105 -0.279332 0
M  V30 4581 C 429.895 -1.75672 -1.01327 0
M  V30 4582 C 430.228 -0.552739 -1.86168 0
M  V30 4583 O 429.503 0.449827 -1.89227 0
M  V30 4584 C 429.786 -3.05825 -1.90114 0
M  V30 4585 C 429.639 -4.36565 -1.08309 0
M  V30 4586 C 430.958 -3.31975 -2.8893 0
M  V30 4587 H 428.077 -0.639149 -0.366957 0
M  V30 4588 H 430.719 -1.87833 -0.286154 0
M  V30 4589 H 428.869 -2.95588 -2.52111 0
M  V30 4590 H 430.541 -4.58751 -0.484314 0
M  V30 4591 H 428.784 -4.32076 -0.386362 0
M  V30 4592 H 429.455 -5.23946 -1.73737 0
M  V30 4593 H 431.931 -3.41963 -2.37067 0
M  V30 4594 H 430.807 -4.2432 -3.48201 0
M  V30 4595 H 431.068 -2.51309 -3.63725 0
M  V30 4596 N 430.127 0.543554 -1.4793 0
M  V30 4597 C 431.09 1.63156 -1.60975 0
M  V30 4598 C 432.09 1.53346 -0.483899 0
M  V30 4599 O 433.28 1.5726 -0.749339 0
M  V30 4600 C 430.412 3.02743 -1.56716 0
M  V30 4601 H 431.605 1.52934 -2.57975 0
M  V30 4602 H 429.158 0.764557 -1.36324 0
M  V30 4603 H 429.893 3.18484 -0.611418 0
M  V30 4604 H 429.678 3.11272 -2.38438 0
M  V30 4605 H 431.168 3.81871 -1.6901 0
M  V30 4606 N 431.605 1.3629 0.791371 0
M  V30 4607 C 433.016 1.27225 1.36641 0
M  V30 4608 C 433.367 -0.0887968 1.95999 0
M  V30 4609 O 432.492 -0.990207 1.92416 0
M  V30 4610 C 433.087 2.30375 2.48421 0
M  V30 4611 C 431.646 2.25004 3.01746 0
M  V30 4612 C 430.793 2.15259 1.7481 0
M  V30 4613 H 433.744 1.47198 0.593173 0
M  V30 4614 H 433.765 1.93905 3.27385 0
M  V30 4615 H 433.277 3.29422 2.05189 0
M  V30 4616 H 431.378 1.29417 3.49403 0
M  V30 4617 H 431.491 3.1761 3.58693 0
M  V30 4618 H 429.855 1.61482 1.96966 0
M  V30 4619 H 430.638 3.16191 1.33709 0
M  V30 4620 N 433.083 -1.0153 1.20538 0
M  V30 4621 C 434.308 -1.79283 1.04271 0
M  V30 4622 C 434.733 -1.8372 -0.403544 0
M  V30 4623 O 434.091 -1.27321 -1.2907 0
M  V30 4624 C 434.139 -3.21535 1.63241 0
M  V30 4625 O 433.243 -4.03099 0.870908 0
M  V30 4626 H 432.584 -0.55293 0.367647 0
M  V30 4627 H 435.114 -1.27696 1.59859 0
M  V30 4628 H 435.124 -3.72243 1.6703 0
M  V30 4629 H 433.799 -3.1762 2.68497 0
M  V30 4630 H 432.376 -3.61693 0.907323 0
M  V30 4631 N 434.561 -1.01147 -1.20859 0
M  V30 4632 C 435.524 -0.582224 -2.21682 0
M  V30 4633 C 436.524 0.344887 -1.57058 0
M  V30 4634 O 437.714 0.134281 -1.73682 0
M  V30 4635 C 434.846 0.150496 -3.40568 0
M  V30 4636 H 436.039 -1.47408 -2.61172 0
M  V30 4637 H 433.592 -0.800695 -1.34233 0
M  V30 4638 H 434.327 1.0575 -3.06574 0
M  V30 4639 H 434.112 -0.515444 -3.88697 0
M  V30 4640 H 435.602 0.438344 -4.15293 0
M  V30 4641 N 436.039 1.36541 -0.78704 0
M  V30 4642 C 436.986 2.30082 -0.181901 0
M  V30 4643 C 437.956 1.5186 0.672896 0
M  V30 4644 O 439.141 1.80374 0.622072 0
M  V30 4645 C 436.281 3.3835 0.679197 0
M  V30 4646 C 435.394 4.31565 -0.193882 0
M  V30 4647 C 434.529 5.26915 0.673364 0
M  V30 4648 C 433.568 6.11769 -0.201315 0
M  V30 4649 N 432.705 6.99315 0.624777 0
M  V30 4650 H 437.545 2.81248 -0.985064 0
M  V30 4651 H 435.082 1.38437 -0.497342 0
M  V30 4652 H 437.04 3.99767 1.19341 0
M  V30 4653 H 435.67 2.8851 1.44781 0
M  V30 4654 H 434.722 3.71323 -0.826044 0
M  V30 4655 H 436.034 4.91191 -0.867937 0
M  V30 4656 H 435.188 5.9361 1.25348 0
M  V30 4657 H 433.927 4.67737 1.38105 0
M  V30 4658 H 432.932 5.44039 -0.793849 0
M  V30 4659 H 434.157 6.73022 -0.906568 0
M  V30 4660 H 432.103 6.42648 1.3168 0
M  V30 4661 H 432.02 7.56 0.00835237 0
M  V30 4662 H 433.288 7.70382 1.18879 0
M  V30 4663 N 437.518 0.538854 1.48102 0
M  V30 4664 C 438.481 -0.208395 2.28251 0
M  V30 4665 C 439.481 -0.859656 1.35892 0
M  V30 4666 O 440.671 -0.71834 1.58699 0
M  V30 4667 C 437.803 -1.30252 3.15035 0
M  V30 4668 H 438.996 0.495407 2.9578 0
M  V30 4669 H 436.549 0.295112 1.53489 0
M  V30 4670 H 437.284 -2.0393 2.52157 0
M  V30 4671 H 437.069 -0.840551 3.82985 0
M  V30 4672 H 438.559 -1.82787 3.75471 0
M  V30 4673 N 438.996 -1.55193 0.274407 0
M  V30 4674 C 439.946 -2.19184 -0.627882 0
M  V30 4675 C 440.93 -1.15625 -1.11892 0
M  V30 4676 O 442.122 -1.41441 -1.06411 0
M  V30 4677 C 439.251 -2.91591 -1.81189 0
M  V30 4678 C 438.337 -4.02438 -1.33807 0
M  V30 4679 N 438.728 -5.0246 -0.580349 0
M  V30 4680 C 437.026 -4.15496 -1.62109 0
M  V30 4681 C 437.727 -5.80756 -0.331344 0
M  V30 4682 N 436.703 -5.36038 -0.903556 0
M  V30 4683 H 440.505 -2.93871 -0.0411216 0
M  V30 4684 H 438.019 -1.62213 0.0779348 0
M  V30 4685 H 440.016 -3.35883 -2.46957 0
M  V30 4686 H 438.676 -2.18414 -2.40261 0
M  V30 4687 H 439.687 -5.17399 -0.227762 0
M  V30 4688 H 436.364 -3.53509 -2.22121 0
M  V30 4689 H 437.754 -6.71335 0.275454 0
M  V30 4690 N 440.474 -0.00167713 -1.576 0
M  V30 4691 C 441.421 0.989195 -2.08527 0
M  V30 4692 C 442.391 1.34031 -0.981065 0
M  V30 4693 O 443.576 1.43839 -1.2536 0
M  V30 4694 C 440.716 2.27537 -2.59463 0
M  V30 4695 C 439.829 1.98314 -3.83791 0
M  V30 4696 C 438.964 3.21025 -4.23222 0
M  V30 4697 C 438.003 2.87495 -5.40382 0
M  V30 4698 N 437.14 4.02749 -5.75098 0
M  V30 4699 H 441.98 0.547973 -2.92919 0
M  V30 4700 H 439.517 0.258917 -1.44803 0
M  V30 4701 H 441.475 3.02729 -2.87073 0
M  V30 4702 H 440.105 2.69325 -1.77943 0
M  V30 4703 H 439.157 1.13482 -3.63078 0
M  V30 4704 H 440.469 1.69601 -4.69081 0
M  V30 4705 H 439.623 4.04561 -4.52123 0
M  V30 4706 H 438.362 3.52877 -3.36644 0
M  V30 4707 H 437.367 2.02367 -5.11202 0
M  V30 4708 H 438.592 2.56889 -6.28637 0
M  V30 4709 H 436.538 4.34494 -4.91478 0
M  V30 4710 H 436.455 3.77566 -6.54966 0
M  V30 4711 H 437.723 4.87068 -6.08592 0
M  V30 4712 N 441.952 1.55251 0.271103 0
M  V30 4713 C 443.177 1.80306 1.02491 0
M  V30 4714 C 443.602 0.575457 1.79081 0
M  V30 4715 O 442.96 -0.474987 1.74967 0
M  V30 4716 C 443.008 3.02832 1.95768 0
M  V30 4717 O 442.112 2.78051 3.04568 0
M  V30 4718 H 441.453 0.595896 0.292923 0
M  V30 4719 H 443.983 2.02397 0.299436 0
M  V30 4720 H 443.993 3.31616 2.37686 0
M  V30 4721 H 442.668 3.9183 1.39434 0
M  V30 4722 H 441.245 2.60369 2.66951 0
M  V30 4723 N 443.43 -0.535701 1.48216 0
M  V30 4724 C 444.362 -1.65662 1.58394 0
M  V30 4725 C 445.375 -1.5591 0.468607 0
M  V30 4726 O 446.564 -1.62475 0.7392 0
M  V30 4727 C 443.664 -3.04276 1.4923 0
M  V30 4728 C 442.837 -3.39567 2.75705 0
M  V30 4729 C 441.896 -4.57436 2.60075 0
M  V30 4730 O 440.922 -4.60942 3.33948 0
M  V30 4731 N 442.124 -5.55259 1.69315 0
M  V30 4732 H 444.889 -1.5737 2.55058 0
M  V30 4733 H 442.45 -0.722845 1.44867 0
M  V30 4734 H 444.442 -3.80994 1.36477 0
M  V30 4735 H 443.012 -3.06677 0.605632 0
M  V30 4736 H 442.232 -2.52083 3.03064 0
M  V30 4737 H 443.52 -3.59929 3.59623 0
M  V30 4738 H 442.918 -5.552 1.08489 0
M  V30 4739 H 441.475 -6.31218 1.62504 0
M  V30 4740 N 444.908 -1.36708 -0.784132 0
M  V30 4741 C 446.185 -1.21776 -1.53069 0
M  V30 4742 C 446.565 0.193876 -2.10208 0
M  V30 4743 O 445.913 1.20012 -1.94446 0
M  V30 4744 C 446.123 -2.30395 -2.62143 0
M  V30 4745 C 447.471 -2.67325 -3.29882 0
M  V30 4746 O 448.495 -2.29478 -2.7243 0
M  V30 4747 O 447.354 -3.32485 -4.33724 0
M  V30 4748 H 444.448 -0.474459 -0.677361 0
M  V30 4749 H 446.994 -1.48454 -0.82216 0
M  V30 4750 H 445.766 -3.2498 -2.17953 0
M  V30 4751 H 445.389 -2.05112 -3.40609 0
M  V30 4752 N 446.386 1.0089 -1.21074 0
M  V30 4753 C 447.611 1.78727 -1.05221 0
M  V30 4754 C 448.036 1.83932 0.393795 0
M  V30 4755 O 447.394 1.28004 1.28393 0
M  V30 4756 C 447.442 3.20665 -1.64944 0
M  V30 4757 O 446.546 4.02632 -0.892273 0
M  V30 4758 H 445.887 0.550973 -0.370574 0
M  V30 4759 H 448.417 1.26847 -1.60534 0
M  V30 4760 H 448.427 3.71352 -1.69002 0
M  V30 4761 H 447.102 3.16191 -2.70177 0
M  V30 4762 H 445.679 3.61207 -0.926492 0
M  V30 4763 N 447.864 1.01787 1.20321 0
M  V30 4764 C 448.794 0.609625 2.25401 0
M  V30 4765 C 449.775 -0.375951 1.65893 0
M  V30 4766 O 450.96 -0.261101 1.92437 0
M  V30 4767 C 448.09 -0.0515995 3.47262 0
M  V30 4768 C 447.044 0.855095 4.19371 0
M  V30 4769 C 446.37 0.0595757 5.34667 0
M  V30 4770 C 447.67 2.16374 4.75373 0
M  V30 4771 H 449.364 1.48803 2.59804 0
M  V30 4772 H 446.91 0.716934 1.24884 0
M  V30 4773 H 448.863 -0.348764 4.19954 0
M  V30 4774 H 447.587 -0.964726 3.12027 0
M  V30 4775 H 446.246 1.13628 3.48546 0
M  V30 4776 H 445.894 -0.85524 4.95676 0
M  V30 4777 H 445.594 0.663406 5.83843 0
M  V30 4778 H 447.118 -0.231105 6.10162 0
M  V30 4779 H 448.532 1.92885 5.39878 0
M  V30 4780 H 446.929 2.71853 5.34991 0
M  V30 4781 H 447.999 2.82589 3.94045 0
M  V30 4782 N 449.342 -1.36122 0.79427 0
M  V30 4783 C 450.582 -2.00942 0.374376 0
M  V30 4784 C 450.946 -1.61666 -1.03577 0
M  V30 4785 O 452.147 -2.19113 -1.55701 0
M  V30 4786 C 450.418 -3.53323 0.538327 0
M  V30 4787 S 451.977 -4.38311 0.20703 0
M  V30 4788 H 448.795 -0.696515 0.142785 0
M  V30 4789 H 451.397 -1.65929 1.03382 0
M  V30 4790 H 450.101 -3.79395 1.56484 0
M  V30 4791 H 449.632 -3.93162 -0.136882 0
M  V30 4792 H 451.647 -4.8623 -0.989695 0
M  V30 4793 N 450.82 -0.546701 -1.47814 0
M  V30 4794 C 452.066 -0.0187684 -2.02791 0
M  V30 4795 C 452.399 1.32338 -1.42128 0
M  V30 4796 O 451.674 1.85867 -0.573023 0
M  V30 4797 C 451.957 0.0854985 -3.59998 0
M  V30 4798 C 451.81 -1.283 -4.31114 0
M  V30 4799 C 453.129 0.80412 -4.32691 0
M  V30 4800 H 450.248 -0.0082946 -0.736953 0
M  V30 4801 H 452.89 -0.706962 -1.76358 0
M  V30 4802 H 451.04 0.671609 -3.82651 0
M  V30 4803 H 452.712 -1.91151 -4.19832 0
M  V30 4804 H 450.955 -1.86049 -3.91878 0
M  V30 4805 H 451.626 -1.16287 -5.39612 0
M  V30 4806 H 454.102 0.306576 -4.14969 0
M  V30 4807 H 452.978 0.846011 -5.42341 0
M  V30 4808 H 453.239 1.85802 -4.01161 0
M  V30 4809 N 452.299 1.55045 -0.282633 0
M  V30 4810 C 453.527 2.04168 0.33512 0
M  V30 4811 C 453.942 1.16071 1.48906 0
M  V30 4812 O 453.299 0.182391 1.81586 0
M  V30 4813 C 453.35 3.52332 0.808957 0
M  V30 4814 O 453.071 4.37078 -0.299038 0
M  V30 4815 C 454.572 4.17375 1.49375 0
M  V30 4816 H 451.792 0.666744 0.0754543 0
M  V30 4817 H 454.336 2.00205 -0.416918 0
M  V30 4818 H 452.491 3.56715 1.51106 0
M  V30 4819 H 452.905 5.24458 0.0665514 0
M  V30 4820 H 454.379 5.22627 1.77664 0
M  V30 4821 H 454.856 3.65999 2.42778 0
M  V30 4822 H 455.462 4.17016 0.835305 0
M  V30 4823 N 453.777 0.010035 1.57597 0
M  V30 4824 C 454.707 -0.976857 2.12084 0
M  V30 4825 C 455.688 -1.35191 1.03235 0
M  V30 4826 O 456.873 -1.43389 1.3097 0
M  V30 4827 C 454.003 -2.26548 2.63236 0
M  V30 4828 C 452.957 -2.03175 3.76701 0
M  V30 4829 C 452.283 -3.38138 4.14206 0
M  V30 4830 C 453.583 -1.38625 5.03568 0
M  V30 4831 H 455.277 -0.523145 2.94794 0
M  V30 4832 H 452.823 -0.250195 1.4181 0
M  V30 4833 H 454.776 -2.95952 2.99984 0
M  V30 4834 H 453.5 -2.74051 1.77661 0
M  V30 4835 H 452.159 -1.36195 3.40362 0
M  V30 4836 H 451.807 -3.83363 3.25641 0
M  V30 4837 H 451.507 -3.23312 4.90656 0
M  V30 4838 H 453.031 -4.08841 4.53521 0
M  V30 4839 H 454.445 -1.98 5.38023 0
M  V30 4840 H 452.842 -1.34256 5.84889 0
M  V30 4841 H 453.912 -0.356722 4.83586 0
M  V30 4842 N 455.255 -1.55392 -0.262866 0
M  V30 4843 C 456.218 -1.88181 -1.30846 0
M  V30 4844 C 457.218 -0.757079 -1.41862 0
M  V30 4845 O 458.408 -1.02519 -1.40838 0
M  V30 4846 C 455.54 -2.09609 -2.68844 0
M  V30 4847 H 456.733 -2.81659 -1.02997 0
M  V30 4848 H 454.286 -1.48039 -0.501414 0
M  V30 4849 H 455.021 -1.18547 -3.01856 0
M  V30 4850 H 454.806 -2.91508 -2.62231 0
M  V30 4851 H 456.296 -2.36215 -3.44372 0
M  V30 4852 O 456.772 0.408595 -1.56246 0
M  V30 4853 H 457.463 1.06117 -1.62046 0
M  V30 END ATOM
M  V30 BEGIN BOND
M  V30 END BOND
M  V30 END CTAB
M  END
$$$$
