drugbank_target|P9WQG9 Aminoglycoside 2'-N-acetyltransferase (DB01842; DB01992; DB03615)
 OpenBabel12092120233D

  0  0  0     0  0            999 V3000
M  V30 BEGIN CTAB
M  V30 COUNTS 2786 2821 0 0 0
M  V30 BEGIN ATOM
M  V30 1 H -0.908 1.98254 -0.117106 0
M  V30 2 N 0 1.576 0 0
M  V30 3 C 0.933 2.03868 1.02534 0
M  V30 4 C 1.911 0.928543 1.3348 0
M  V30 5 O 3.095 1.19667 1.45644 0
M  V30 6 C 0.222 2.43627 2.35294 0
M  V30 7 C -0.732 3.65373 2.2001 0
M  V30 8 S 0.101 5.13292 1.52614 0
M  V30 9 C 1.257 5.56322 2.86805 0
M  V30 10 H 1.49 2.90518 0.631377 0
M  V30 11 H -0.977 1.52953 0.210867 0
M  V30 12 H 0.981 2.67203 3.11629 0
M  V30 13 H -0.358 1.57376 2.7183 0
M  V30 14 H -1.165 3.90944 3.18086 0
M  V30 15 H -1.563 3.418 1.51819 0
M  V30 16 H 0.729 5.58782 3.83104 0
M  V30 17 H 1.672 6.56266 2.65933 0
M  V30 18 H 2.08 4.83886 2.90714 0
M  V30 19 N 1.4781 -0.272755 1.55222 0
M  V30 20 C 2.4281 -1.33946 1.84506 0
M  V30 21 C 3.4121 -1.44682 0.70399 0
M  V30 22 O 4.6041 -1.48358 0.965338 0
M  V30 23 C 1.7331 -2.69968 2.12067 0
M  V30 24 C 0.8191 -2.63341 3.32434 0
M  V30 25 N 1.2101 -2.26335 4.52334 0
M  V30 26 C -0.4919 -2.94402 3.35028 0
M  V30 27 C 0.2091 -2.29705 5.34425 0
M  V30 28 N -0.8149 -2.68188 4.72838 0
M  V30 29 H 2.9871 -1.04343 2.74754 0
M  V30 30 H 0.5011 -0.481389 1.55101 0
M  V30 31 H 2.4981 -3.46916 2.31202 0
M  V30 32 H 1.1581 -3.00459 1.23103 0
M  V30 33 H 2.1691 -1.98309 4.78429 0
M  V30 34 H -1.1539 -3.29603 2.56257 0
M  V30 35 H 0.2361 -2.03653 6.40293 0
M  V30 36 N 2.9562 -1.48159 -0.537278 0
M  V30 37 C 4.1842 -1.59454 -1.31841 0
M  V30 38 C 4.5992 -0.252065 -1.8711 0
M  V30 39 O 3.9562 0.757621 -1.66031 0
M  V30 40 C 4.0072 -2.63546 -2.47439 0
M  V30 41 O 3.7282 -3.92583 -1.94449 0
M  V30 42 C 5.2292 -2.85212 -3.39366 0
M  V30 43 H 2.4492 -0.53785 -0.401196 0
M  V30 44 H 4.9932 -1.93932 -0.648891 0
M  V30 45 H 3.1482 -2.31946 -3.1029 0
M  V30 46 H 3.5622 -4.49629 -2.70063 0
M  V30 47 H 5.0362 -3.61863 -4.16844 0
M  V30 48 H 5.5132 -1.93765 -3.94147 0
M  V30 49 H 6.1192 -3.18086 -2.82314 0
M  V30 50 N 4.4343 0.785586 -1.36625 0
M  V30 51 C 5.3663 1.90711 -1.2713 0
M  V30 52 C 6.3793 1.61688 -0.189986 0
M  V30 53 O 7.5683 1.72864 -0.445014 0
M  V30 54 C 4.6683 3.25611 -0.939713 0
M  V30 55 C 3.8413 3.82385 -2.12369 0
M  V30 56 C 2.9003 4.95732 -1.76456 0
M  V30 57 O 1.9263 5.12047 -2.48589 0
M  V30 58 N 3.1283 5.76258 -0.700492 0
M  V30 59 H 5.8933 1.99376 -2.23762 0
M  V30 60 H 3.4543 0.964041 -1.30069 0
M  V30 61 H 5.4463 3.98937 -0.680554 0
M  V30 62 H 4.0163 3.12538 -0.0624074 0
M  V30 63 H 3.2363 3.01001 -2.54543 0
M  V30 64 H 4.5243 4.17047 -2.9146 0
M  V30 65 H 3.9223 5.65609 -0.101624 0
M  V30 66 H 2.4793 6.4987 -0.501165 0
M  V30 67 N 5.9124 1.20967 1.01018 0
M  V30 68 C 7.1584 1.02526 1.74975 0
M  V30 69 C 7.4914 -0.4408 1.89131 0
M  V30 70 O 6.7664 -1.32718 1.42184 0
M  V30 71 C 7.0494 1.71699 3.1653 0
M  V30 72 C 6.9024 3.25791 3.10129 0
M  V30 73 C 8.2214 1.45531 4.15342 0
M  V30 74 H 5.3404 0.373863 0.635134 0
M  V30 75 H 7.9824 1.49071 1.17805 0
M  V30 76 H 6.1324 1.32128 3.65341 0
M  V30 77 H 7.8044 3.74697 2.69072 0
M  V30 78 H 6.0474 3.56363 2.47362 0
M  V30 79 H 6.7184 3.69353 4.10222 0
M  V30 80 H 9.1944 1.79872 3.75213 0
M  V30 81 H 8.0704 1.96453 5.1254 0
M  V30 82 H 8.3314 0.384237 4.40427 0
M  V30 83 N 7.3905 -1.2043 1.01659 0
M  V30 84 C 8.3405 -2.21076 0.557623 0
M  V30 85 C 9.3245 -1.56176 -0.387029 0
M  V30 86 O 10.5165 -1.7575 -0.209996 0
M  V30 87 C 7.6455 -3.43146 -0.102707 0
M  V30 88 C 6.7315 -4.15213 0.863652 0
M  V30 89 N 7.1225 -4.63662 2.02117 0
M  V30 90 C 5.4205 -4.40716 0.684472 0
M  V30 91 C 6.1215 -5.18868 2.62966 0
M  V30 92 N 5.0975 -5.0893 1.91027 0
M  V30 93 H 8.8995 -2.56201 1.44008 0
M  V30 94 H 6.4135 -1.36366 0.881931 0
M  V30 95 H 8.4105 -4.14475 -0.449054 0
M  V30 96 H 7.0705 -3.09526 -0.981003 0
M  V30 97 H 8.0815 -4.58877 2.40109 0
M  V30 98 H 4.7585 -4.17245 -0.14577 0
M  V30 99 H 6.1485 -5.6673 3.60924 0
M  V30 100 N 8.8686 -0.792821 -1.36206 0
M  V30 101 C 10.0966 -0.378825 -2.03402 0
M  V30 102 C 10.5116 1.00586 -1.59774 0
M  V30 103 O 9.8686 1.64574 -0.788764 0
M  V30 104 C 9.9196 -0.43683 -3.58851 0
M  V30 105 O 9.6406 -1.76691 -4.00889 0
M  V30 106 C 11.1416 -0.0138943 -4.43298 0
M  V30 107 H 8.3616 -0.155673 -0.652692 0
M  V30 108 H 10.9056 -1.07261 -1.74113 0
M  V30 109 H 9.0606 0.208575 -3.86838 0
M  V30 110 H 9.4746 -1.72011 -4.95492 0
M  V30 111 H 10.9486 -0.105615 -5.51899 0
M  V30 112 H 11.4256 1.03915 -4.2673 0
M  V30 113 H 12.0316 -0.63192 -4.20579 0
M  V30 114 N 10.3467 1.47872 -0.545128 0
M  V30 115 C 11.3097 2.28337 0.198717 0
M  V30 116 C 12.3097 1.36255 0.853888 0
M  V30 117 O 13.4997 1.59003 0.711606 0
M  V30 118 C 10.6317 3.15585 1.28915 0
M  V30 119 H 11.8247 2.95567 -0.507941 0
M  V30 120 H 9.3777 1.53362 -0.301616 0
M  V30 121 H 10.1127 2.53019 2.02859 0
M  V30 122 H 9.8977 3.83337 0.824309 0
M  V30 123 H 11.3877 3.76243 1.81194 0
M  V30 124 N 11.8248 0.280983 1.55075 0
M  V30 125 C 13.2408 -0.0729964 1.59433 0
M  V30 126 C 13.4408 -1.5411 1.29817 0
M  V30 127 O 12.4968 -2.29086 1.06187 0
M  V30 128 C 13.8098 0.306921 2.9913 0
M  V30 129 C 15.3578 0.254023 3.11968 0
M  V30 130 C 15.8328 0.608467 4.5394 0
M  V30 131 N 17.3238 0.560241 4.59799 0
M  V30 132 C 18.0588 0.80722 5.6769 0
M  V30 133 N 17.5548 1.11912 6.83701 0
M  V30 134 N 19.3478 0.735623 5.57266 0
M  V30 135 H 11.4988 1.238 1.7259 0
M  V30 136 H 13.7618 0.500547 0.805082 0
M  V30 137 H 13.4678 1.32816 3.25657 0
M  V30 138 H 13.3418 -0.349363 3.75579 0
M  V30 139 H 15.7288 -0.75794 2.852 0
M  V30 140 H 15.8098 0.944649 2.37718 0
M  V30 141 H 15.4538 1.61814 4.81434 0
M  V30 142 H 15.3838 -0.104013 5.26497 0
M  V30 143 H 17.8748 0.329288 3.76463 0
M  V30 144 H 18.1878 1.29409 7.61888 0
M  V30 145 H 16.5328 1.15695 6.85303 0
M  V30 146 H 19.7238 0.491752 4.6551 0
M  V30 147 H 19.8968 0.931482 6.4127 0
M  V30 148 N 13.3029 -1.57598 0.00835791 0
M  V30 149 C 14.2329 -2.1198 -0.979113 0
M  V30 150 C 15.2139 -1.03091 -1.35301 0
M  V30 151 O 16.3989 -1.30818 -1.43528 0
M  V30 152 C 13.5289 -2.62995 -2.26828 0
M  V30 153 C 12.4829 -3.76485 -2.03576 0
M  V30 154 C 11.8089 -4.13846 -3.38579 0
M  V30 155 C 13.1089 -5.0342 -1.39161 0
M  V30 156 H 14.8029 -2.94738 -0.526281 0
M  V30 157 H 12.3489 -1.41783 -0.251704 0
M  V30 158 H 14.3019 -2.99669 -2.96271 0
M  V30 159 H 13.0259 -1.7737 -2.7424 0
M  V30 160 H 11.6849 -3.40217 -1.36557 0
M  V30 161 H 11.3329 -3.25232 -3.83709 0
M  V30 162 H 11.0329 -4.90312 -3.23834 0
M  V30 163 H 12.5569 -4.53086 -4.09323 0
M  V30 164 H 13.9709 -5.37812 -1.98573 0
M  V30 165 H 12.3679 -5.84746 -1.34878 0
M  V30 166 H 13.4379 -4.83548 -0.361868 0
M  V30 167 N 14.781 0.264519 -1.55364 0
M  V30 168 C 16.027 0.99646 -1.76631 0
M  V30 169 C 16.36 1.85632 -0.570478 0
M  V30 170 O 15.635 1.89647 0.43175 0
M  V30 171 C 15.918 1.87187 -3.07625 0
M  V30 172 C 15.771 1.04138 -4.37579 0
M  V30 173 C 17.09 2.85749 -3.34717 0
M  V30 174 H 14.209 0.360841 -0.642622 0
M  V30 175 H 16.851 0.268218 -1.88097 0
M  V30 176 H 15.001 2.49279 -2.9798 0
M  V30 177 H 16.673 0.440517 -4.59192 0
M  V30 178 H 14.916 0.345115 -4.32425 0
M  V30 179 H 15.587 1.68729 -5.2558 0
M  V30 180 H 18.063 2.33793 -3.4421 0
M  V30 181 H 16.939 3.44136 -4.27623 0
M  V30 182 H 17.2 3.61311 -2.54768 0
M  V30 183 N 16.2591 1.48442 0.529413 0
M  V30 184 C 17.2091 1.59407 1.63014 0
M  V30 185 C 18.1931 0.451166 1.54445 0
M  V30 186 O 19.3851 0.702635 1.62456 0
M  V30 187 C 16.5141 1.63746 3.01732 0
M  V30 188 C 15.6001 2.83518 3.15402 0
M  V30 189 N 15.9911 4.07929 2.99045 0
M  V30 190 C 14.2891 2.80862 3.46457 0
M  V30 191 C 14.9901 4.8829 3.16146 0
M  V30 192 N 13.9661 4.21117 3.43746 0
M  V30 193 H 17.7681 2.53343 1.48978 0
M  V30 194 H 15.2821 1.44821 0.734885 0
M  V30 195 H 17.2791 1.69695 3.80801 0
M  V30 196 H 15.9391 0.709264 3.16859 0
M  V30 197 H 16.9501 4.38357 2.75796 0
M  V30 198 H 13.6271 1.97301 3.67938 0
M  V30 199 H 15.0171 5.97028 3.08232 0
M  V30 200 N 17.7372 -0.778329 1.37039 0
M  V30 201 C 18.9652 -1.56734 1.35063 0
M  V30 202 C 19.3802 -1.88686 -0.0655597 0
M  V30 203 O 18.7372 -1.5096 -1.02554 0
M  V30 204 C 18.7882 -2.88163 2.18276 0
M  V30 205 O 18.5092 -2.57583 3.54376 0
M  V30 206 C 20.0102 -3.82422 2.24206 0
M  V30 207 H 17.2302 -0.485778 0.462883 0
M  V30 208 H 19.7742 -0.965185 1.8029 0
M  V30 209 H 17.9292 -3.44818 1.76576 0
M  V30 210 H 18.3432 -3.41699 3.97922 0
M  V30 211 H 19.8172 -4.71667 2.86765 0
M  V30 212 H 20.2942 -4.21078 1.24861 0
M  V30 213 H 20.9002 -3.31697 2.6619 0
M  V30 214 N 19.2153 -1.21501 -1.00376 0
M  V30 215 C 20.1783 -0.976927 -2.07337 0
M  V30 216 C 21.1783 0.0525322 -1.60714 0
M  V30 217 O 22.3683 -0.184869 -1.73216 0
M  V30 218 C 19.5003 -0.473423 -3.37597 0
M  V30 219 H 20.6933 -1.92587 -2.29892 0
M  V30 220 H 18.2463 -1.03217 -1.17371 0
M  V30 221 H 18.9813 0.480379 -3.20722 0
M  V30 222 H 18.7663 -1.216 -3.72768 0
M  V30 223 H 20.2563 -0.32675 -4.1632 0
M  V30 224 N 20.6934 1.19889 -1.02296 0
M  V30 225 C 21.9704 1.85148 -0.630832 0
M  V30 226 C 22.3504 1.91385 0.890782 0
M  V30 227 O 21.6984 1.42642 1.78509 0
M  V30 228 C 21.9084 3.24442 -1.28602 0
M  V30 229 C 23.2564 4.00663 -1.4055 0
M  V30 230 O 24.2804 3.33818 -1.24273 0
M  V30 231 O 23.1394 5.20387 -1.66913 0
M  V30 232 H 20.2334 0.797613 -0.218499 0
M  V30 233 H 22.7794 1.27427 -1.12074 0
M  V30 234 H 21.5514 3.14704 -2.32545 0
M  V30 235 H 21.1744 3.89802 -0.7836 0
M  V30 236 N 22.1715 0.800033 1.35784 0
M  V30 237 C 23.1015 0.220184 2.3246 0
M  V30 238 C 24.0825 -0.65073 1.57161 0
M  V30 239 O 25.2675 -0.582359 1.85263 0
M  V30 240 C 22.3975 -0.637353 3.41402 0
M  V30 241 C 21.3515 0.134531 4.27789 0
M  V30 242 C 20.6775 -0.844285 5.27992 0
M  V30 243 C 21.9775 1.32979 5.05088 0
M  V30 244 H 23.6715 1.02787 2.81203 0
M  V30 245 H 21.2175 0.495717 1.35199 0
M  V30 246 H 23.1705 -1.05302 4.08031 0
M  V30 247 H 21.8945 -1.47785 2.91251 0
M  V30 248 H 20.5535 0.531296 3.6273 0
M  V30 249 H 20.2015 -1.68011 4.74111 0
M  V30 250 H 19.9015 -0.332184 5.8666 0
M  V30 251 H 21.4255 -1.2583 5.97494 0
M  V30 252 H 22.8395 0.98934 5.64699 0
M  V30 253 H 21.2365 1.77593 5.7322 0
M  V30 254 H 22.3065 2.11978 4.36111 0
M  V30 255 N 23.6496 -1.47581 0.552962 0
M  V30 256 C 24.9266 -1.95563 -0.0381515 0
M  V30 257 C 25.3066 -1.49552 -1.48988 0
M  V30 258 O 24.6546 -0.732414 -2.16444 0
M  V30 259 C 24.8646 -3.48848 0.102919 0
M  V30 260 C 26.2126 -4.24577 -0.0446082 0
M  V30 261 O 27.2366 -3.56187 0.0302548 0
M  V30 262 O 26.0956 -5.46116 -0.204923 0
M  V30 263 H 23.1896 -0.824321 -0.0665067 0
M  V30 264 H 25.7356 -1.58001 0.619186 0
M  V30 265 H 24.5076 -3.75129 1.11328 0
M  V30 266 H 24.1306 -3.93165 -0.592224 0
M  V30 267 N 25.1277 -0.289203 -1.54924 0
M  V30 268 C 26.3527 0.329299 -2.04769 0
M  V30 269 C 26.7777 1.4763 -1.16564 0
M  V30 270 O 26.1357 1.80527 -0.167186 0
M  V30 271 C 26.1837 0.774438 -3.52186 0
M  V30 272 O 25.2877 1.88038 -3.67036 0
M  V30 273 H 24.6287 0.0659259 -0.660719 0
M  V30 274 H 27.1587 -0.42761 -2.00082 0
M  V30 275 H 27.1687 1.06642 -3.93816 0
M  V30 276 H 25.8437 -0.0646707 -4.1585 0
M  V30 277 H 24.4207 1.58985 -3.3731 0
M  V30 278 N 26.6058 1.57591 -0.0167156 0
M  V30 279 C 27.5158 2.1291 0.98521 0
M  V30 280 C 28.5318 1.07834 1.36557 0
M  V30 281 O 29.7078 1.39826 1.44951 0
M  V30 282 C 26.7728 2.63512 2.25305 0
M  V30 283 C 25.8338 3.83256 1.93426 0
M  V30 284 C 25.0668 4.31435 3.14165 0
M  V30 285 O 25.2898 3.78851 4.26413 0
M  V30 286 O 24.2238 5.23416 2.97186 0
M  V30 287 H 28.0498 2.98772 0.544888 0
M  V30 288 H 25.6348 1.48012 0.203141 0
M  V30 289 H 27.5168 2.96183 2.99756 0
M  V30 290 H 26.1918 1.8074 2.68542 0
M  V30 291 H 25.0988 3.55531 1.16398 0
M  V30 292 H 26.4318 4.67153 1.55013 0
M  V30 293 N 28.0839 -0.256276 1.55502 0
M  V30 294 C 29.3119 -1.00342 1.8094 0
M  V30 295 C 29.7269 -1.79307 0.59114 0
M  V30 296 O 29.0839 -1.77114 -0.440081 0
M  V30 297 C 29.1349 -1.94875 3.04476 0
M  V30 298 O 28.8559 -1.19107 4.21598 0
M  V30 299 C 30.3569 -2.81266 3.42644 0
M  V30 300 H 27.5769 -0.295685 0.602338 0
M  V30 301 H 30.1209 -0.281998 2.02546 0
M  V30 302 H 28.2759 -2.62457 2.84947 0
M  V30 303 H 28.6899 -1.82969 4.91551 0
M  V30 304 H 30.1639 -3.43362 4.32211 0
M  V30 305 H 30.6409 -3.51897 2.62802 0
M  V30 306 H 31.2469 -2.1915 3.64491 0
M  V30 307 N 29.562 -1.4872 -0.521534 0
M  V30 308 C 30.978 -1.35028 -0.850855 0
M  V30 309 C 31.178 -0.367712 -1.98116 0
M  V30 310 O 30.234 0.208037 -2.51642 0
M  V30 311 C 31.547 -2.75263 -1.21041 0
M  V30 312 C 33.095 -2.83813 -1.31981 0
M  V30 313 C 33.57 -4.24769 -1.71276 0
M  V30 314 N 35.061 -4.27482 -1.78363 0
M  V30 315 C 35.796 -5.33494 -2.1017 0
M  V30 316 N 35.292 -6.49775 -2.40343 0
M  V30 317 N 37.085 -5.20894 -2.11248 0
M  V30 318 H 29.236 -2.11214 0.22413 0
M  V30 319 H 31.499 -0.947252 0.0376439 0
M  V30 320 H 31.205 -3.48765 -0.453415 0
M  V30 321 H 31.079 -3.09327 -2.15863 0
M  V30 322 H 33.466 -2.10561 -2.06756 0
M  V30 323 H 33.547 -2.53358 -0.352596 0
M  V30 324 H 33.191 -4.9854 -0.970588 0
M  V30 325 H 33.121 -4.52673 -2.69062 0
M  V30 326 H 35.612 -3.43611 -1.57288 0
M  V30 327 H 35.925 -7.26402 -2.63743 0
M  V30 328 H 34.27 -6.53035 -2.37844 0
M  V30 329 H 37.461 -4.29065 -1.87139 0
M  V30 330 H 37.634 -6.03612 -2.35704 0
M  V30 331 N 31.0401 0.771051 -1.3745 0
M  V30 332 C 31.9721 1.89352 -1.29146 0
M  V30 333 C 32.9851 1.61477 -0.207124 0
M  V30 334 O 34.1741 1.72382 -0.463324 0
M  V30 335 C 31.2741 3.24596 -0.974195 0
M  V30 336 C 30.4471 3.80111 -2.16413 0
M  V30 337 C 29.5061 4.93832 -1.81703 0
M  V30 338 O 28.5321 5.09382 -2.54006 0
M  V30 339 N 29.7341 5.75483 -0.761573 0
M  V30 340 H 32.4991 1.96991 -2.25864 0
M  V30 341 H 30.0601 0.950191 -1.31084 0
M  V30 342 H 32.0521 3.98193 -0.722828 0
M  V30 343 H 30.6221 3.12454 -0.0955527 0
M  V30 344 H 29.8421 2.98284 -2.57721 0
M  V30 345 H 31.1301 4.13932 -2.95867 0
M  V30 346 H 30.5281 5.65469 -0.161609 0
M  V30 347 H 29.0851 6.49302 -0.570064 0
M  V30 348 N 32.5182 1.22032 0.997298 0
M  V30 349 C 33.7952 0.950823 1.70935 0
M  V30 350 C 34.1752 -0.535292 2.042 0
M  V30 351 O 33.5232 -1.50217 1.72183 0
M  V30 352 C 33.7332 1.84386 2.96315 0
M  V30 353 C 35.0812 2.09732 3.69185 0
M  V30 354 O 36.1052 1.81798 3.06314 0
M  V30 355 O 34.9642 2.57018 4.82291 0
M  V30 356 H 32.0582 0.357204 0.745878 0
M  V30 357 H 34.6042 1.32997 1.05404 0
M  V30 358 H 33.3762 2.84928 2.68201 0
M  V30 359 H 32.9992 1.46602 3.69586 0
M  V30 360 N 33.9963 -1.19345 1.0293 0
M  V30 361 C 35.2453 -1.88363 0.721256 0
M  V30 362 C 35.5583 -1.80514 -0.753254 0
M  V30 363 O 36.7643 -2.44788 -1.17436 0
M  V30 364 C 35.2203 -3.37872 1.23978 0
M  V30 365 C 34.8283 -3.54278 2.74211 0
M  V30 366 C 36.5723 -4.12365 1.00775 0
M  V30 367 C 34.4793 -4.97682 3.19479 0
M  V30 368 H 33.4093 -0.705484 0.266098 0
M  V30 369 H 36.0603 -1.34928 1.24365 0
M  V30 370 H 34.4423 -3.90707 0.6453 0
M  V30 371 H 35.6163 -3.11769 3.39318 0
M  V30 372 H 33.9313 -2.93174 2.95699 0
M  V30 373 H 36.5283 -5.18119 1.32123 0
M  V30 374 H 36.8713 -4.16263 -0.0554308 0
M  V30 375 H 37.4043 -3.65668 1.56625 0
M  V30 376 H 34.1433 -4.98945 4.25128 0
M  V30 377 H 33.6633 -5.4095 2.591 0
M  V30 378 H 35.3423 -5.66337 3.12845 0
M  V30 379 N 35.4744 -0.807222 -1.35358 0
M  V30 380 C 36.8904 -0.491038 -1.51858 0
M  V30 381 C 37.0904 0.987648 -1.75635 0
M  V30 382 O 36.1464 1.77265 -1.79815 0
M  V30 383 C 37.4594 -1.33695 -2.69344 0
M  V30 384 C 39.0074 -1.33246 -2.83222 0
M  V30 385 C 39.4824 -2.1625 -4.03733 0
M  V30 386 N 40.9734 -2.1379 -4.10911 0
M  V30 387 C 41.7084 -2.74772 -5.03277 0
M  V30 388 N 41.2044 -3.44684 -6.0097 0
M  V30 389 N 42.9974 -2.6441 -4.96028 0
M  V30 390 H 35.1484 -1.76485 -1.18181 0
M  V30 391 H 37.4114 -0.751199 -0.578276 0
M  V30 392 H 37.1174 -2.38634 -2.58354 0
M  V30 393 H 36.9914 -0.990618 -3.6396 0
M  V30 394 H 39.3784 -0.290911 -2.93663 0
M  V30 395 H 39.4594 -1.71866 -1.89461 0
M  V30 396 H 39.1034 -3.20445 -3.94052 0
M  V30 397 H 39.0334 -1.74989 -4.96675 0
M  V30 398 H 41.5244 -1.62923 -3.40976 0
M  V30 399 H 41.8374 -3.88501 -6.68047 0
M  V30 400 H 40.1824 -3.48788 -6.01142 0
M  V30 401 H 43.3734 -2.0938 -4.18662 0
M  V30 402 H 43.5464 -3.12225 -5.6782 0
M  V30 403 N 36.9525 1.47285 -0.560781 0
M  V30 404 C 37.8845 2.28118 0.222438 0
M  V30 405 C 38.8975 1.37219 0.876056 0
M  V30 406 O 40.0865 1.62011 0.749307 0
M  V30 407 C 37.1865 3.1159 1.33285 0
M  V30 408 C 36.3595 4.30473 0.77534 0
M  V30 409 C 35.4185 4.95513 1.77069 0
M  V30 410 O 34.4445 5.53792 1.31539 0
M  V30 411 N 35.6465 4.90531 3.10418 0
M  V30 412 H 38.4115 2.95976 -0.470958 0
M  V30 413 H 35.9725 1.56955 -0.39709 0
M  V30 414 H 37.9645 3.51967 1.99752 0
M  V30 415 H 36.5345 2.45951 1.92943 0
M  V30 416 H 35.7545 3.94144 -0.0662113 0
M  V30 417 H 37.0425 5.07362 0.382272 0
M  V30 418 H 36.4405 4.44389 3.5005 0
M  V30 419 H 34.9975 5.34917 3.72434 0
M  V30 420 N 38.4306 0.297415 1.54768 0
M  V30 421 C 39.3636 -0.622188 2.19554 0
M  V30 422 C 40.3416 -1.13558 1.16376 0
M  V30 423 O 41.5256 -1.20444 1.45002 0
M  V30 424 C 38.6526 -1.8509 2.83653 0
M  V30 425 C 37.6986 -1.47106 4.00328 0
M  V30 426 S 38.5316 -0.53006 5.3287 0
M  V30 427 C 39.6876 -1.76665 6.0045 0
M  V30 428 H 39.9206 -0.0717806 2.97213 0
M  V30 429 H 37.4536 0.0815678 1.54184 0
M  V30 430 H 39.4116 -2.55605 3.21211 0
M  V30 431 H 38.0726 -2.37247 2.05846 0
M  V30 432 H 37.2656 -2.38594 4.43947 0
M  V30 433 H 36.8676 -0.845885 3.64309 0
M  V30 434 H 39.1596 -2.7077 6.21039 0
M  V30 435 H 40.1026 -1.37308 6.9466 0
M  V30 436 H 40.5106 -1.94174 5.30054 0
M  V30 437 N 39.9087 -1.5758 0.0250728 0
M  V30 438 C 41.1547 -1.91917 -0.655413 0
M  V30 439 C 41.4877 -0.901433 -1.72011 0
M  V30 440 O 40.7627 0.0764069 -1.9435 0
M  V30 441 C 41.0457 -3.36751 -1.27558 0
M  V30 442 C 40.8987 -4.49258 -0.220719 0
M  V30 443 C 42.2177 -3.81469 -2.19475 0
M  V30 444 H 39.3367 -0.697925 -0.23679 0
M  V30 445 H 41.9787 -1.89825 0.0815036 0
M  V30 446 H 40.1287 -3.38664 -1.90365 0
M  V30 447 H 41.8007 -4.59478 0.409601 0
M  V30 448 H 40.0437 -4.31415 0.454264 0
M  V30 449 H 40.7147 -5.47618 -0.694175 0
M  V30 450 H 43.1907 -3.81266 -1.66659 0
M  V30 451 H 42.0667 -4.83512 -2.59822 0
M  V30 452 H 42.3277 -3.16744 -3.08424 0
M  V30 453 N 41.3868 0.248026 -1.55636 0
M  V30 454 C 42.6148 0.993808 -1.81469 0
M  V30 455 C 43.0298 1.78991 -0.60064 0
M  V30 456 O 42.3868 1.77345 0.430682 0
M  V30 457 C 42.4378 1.93258 -3.05506 0
M  V30 458 O 42.1588 1.16869 -4.22224 0
M  V30 459 C 43.6598 2.79444 -3.4413 0
M  V30 460 H 40.8798 0.292486 -0.603898 0
M  V30 461 H 43.4238 0.271253 -2.02693 0
M  V30 462 H 41.5788 2.60943 -2.86335 0
M  V30 463 H 41.9928 1.80359 -4.92515 0
M  V30 464 H 43.4668 3.41066 -4.34026 0
M  V30 465 H 43.9438 3.50499 -2.64665 0
M  V30 466 H 44.5498 2.17214 -3.65648 0
M  V30 467 N 42.8649 1.48995 0.513639 0
M  V30 468 C 44.1129 1.57531 1.26604 0
M  V30 469 C 44.4339 0.258236 1.93283 0
M  V30 470 O 43.7039 -0.721502 1.8213 0
M  V30 471 H 42.2839 0.580387 0.470276 0
M  V30 472 H 44.9459 1.85552 0.596373 0
M  V30 473 H 44.0419 2.36486 2.03669 0
M  V30 474 N 44.343 -0.763751 1.37857 0
M  V30 475 C 45.306 -1.85889 1.34081 0
M  V30 476 C 46.306 -1.58949 0.243277 0
M  V30 477 O 47.496 -1.66882 0.499589 0
M  V30 478 C 44.628 -3.23176 1.08489 0
M  V30 479 H 45.821 -1.90648 2.31502 0
M  V30 480 H 43.374 -0.964367 1.23003 0
M  V30 481 H 44.109 -3.24091 0.116318 0
M  V30 482 H 43.894 -3.44124 1.8794 0
M  V30 483 H 45.384 -4.03254 1.08517 0
M  V30 484 N 45.8211 -1.22559 -0.990812 0
M  V30 485 C 47.0681 -1.05141 -1.73065 0
M  V30 486 C 47.3961 0.413191 -1.9006 0
M  V30 487 O 46.6511 1.32257 -1.44245 0
M  V30 488 C 46.9501 -1.71011 -3.13831 0
M  V30 489 C 46.6161 -3.20911 -3.16745 0
M  V30 490 C 45.2781 -3.61812 -3.17247 0
M  V30 491 C 47.6301 -4.16846 -3.12872 0
M  V30 492 C 44.9581 -4.97127 -3.1158 0
M  V30 493 C 47.3101 -5.5214 -3.08746 0
M  V30 494 C 45.9741 -5.92419 -3.07565 0
M  V30 495 H 45.2441 -0.384738 -0.633291 0
M  V30 496 H 47.8911 -1.5235 -1.16025 0
M  V30 497 H 46.1961 -1.16133 -3.74193 0
M  V30 498 H 47.8931 -1.55023 -3.69823 0
M  V30 499 H 44.4831 -2.88344 -3.17105 0
M  V30 500 H 48.6671 -3.86263 -3.11632 0
M  V30 501 H 43.9231 -5.27562 -3.09012 0
M  V30 502 H 48.0971 -6.26201 -3.04705 0
M  V30 503 H 45.7241 -6.97236 -3.02929 0
M  V30 504 N 47.2992 1.18797 -1.03562 0
M  V30 505 C 48.2622 2.20464 -0.626769 0
M  V30 506 C 49.2622 1.57721 0.313173 0
M  V30 507 O 50.4522 1.73917 0.0992615 0
M  V30 508 C 47.5842 3.40802 0.0818498 0
M  V30 509 H 48.7772 2.58149 -1.5264 0
M  V30 510 H 46.3302 1.32593 -0.827578 0
M  V30 511 H 47.0652 3.08642 0.995518 0
M  V30 512 H 46.8502 3.8758 -0.593652 0
M  V30 513 H 48.3402 4.16092 0.354584 0
M  V30 514 N 48.7773 0.814389 1.34928 0
M  V30 515 C 50.0253 0.397636 1.9815 0
M  V30 516 C 50.3463 -1.04069 1.64908 0
M  V30 517 O 49.6163 -1.72121 0.93548 0
M  V30 518 H 48.1963 0.144043 0.732981 0
M  V30 519 H 50.8583 1.04195 1.6471 0
M  V30 520 H 49.9543 0.509688 3.0791 0
M  V30 521 N 50.2554 -1.46986 0.568584 0
M  V30 522 C 51.5324 -1.95592 -0.0174074 0
M  V30 523 C 51.9124 -1.51124 -1.47393 0
M  V30 524 O 51.2604 -0.755329 -2.15655 0
M  V30 525 C 51.4704 -3.48719 0.139913 0
M  V30 526 C 52.8184 -4.246 0.000426376 0
M  V30 527 O 53.8424 -3.56135 0.0680316 0
M  V30 528 O 52.7014 -5.46302 -0.146988 0
M  V30 529 H 49.7954 -0.82498 -0.0577599 0
M  V30 530 H 52.3414 -1.57335 0.635909 0
M  V30 531 H 51.1134 -3.73927 1.15301 0
M  V30 532 H 50.7364 -3.93771 -0.550491 0
M  V30 533 N 51.7335 -0.305618 -1.54608 0
M  V30 534 C 52.9805 0.302298 -2.00231 0
M  V30 535 C 53.3085 1.5354 -1.19398 0
M  V30 536 O 52.5635 1.93973 -0.259423 0
M  V30 537 C 52.8625 0.698983 -3.50498 0
M  V30 538 C 52.5285 -0.432903 -4.48817 0
M  V30 539 C 51.1905 -0.743622 -4.75419 0
M  V30 540 C 53.5425 -1.19409 -5.07337 0
M  V30 541 C 50.8705 -1.81857 -5.57804 0
M  V30 542 C 53.2225 -2.25899 -5.90891 0
M  V30 543 C 51.8865 -2.57572 -6.15803 0
M  V30 544 H 51.1565 0.110619 -0.732697 0
M  V30 545 H 53.8035 -0.425674 -1.86709 0
M  V30 546 H 52.1085 1.50711 -3.61654 0
M  V30 547 H 53.8055 1.1806 -3.83227 0
M  V30 548 H 50.3955 -0.18063 -4.28219 0
M  V30 549 H 54.5795 -0.967295 -4.86782 0
M  V30 550 H 49.8355 -2.06864 -5.75341 0
M  V30 551 H 54.0095 -2.85335 -6.35261 0
M  V30 552 H 51.6365 -3.40998 -6.7943 0
M  V30 553 N 53.2116 1.57565 -0.0334293 0
M  V30 554 C 54.4396 1.9628 0.654347 0
M  V30 555 C 54.8546 0.910138 1.65414 0
M  V30 556 O 54.2116 -0.107595 1.82183 0
M  V30 557 C 54.2626 3.35067 1.35693 0
M  V30 558 O 53.9836 4.36296 0.397191 0
M  V30 559 C 55.4846 3.88439 2.13613 0
M  V30 560 H 52.7046 0.646369 0.180132 0
M  V30 561 H 55.2486 2.04282 -0.0944721 0
M  V30 562 H 53.4036 3.2827 2.05712 0
M  V30 563 H 53.8176 5.1678 0.896597 0
M  V30 564 H 55.2916 4.8788 2.58219 0
M  V30 565 H 55.7686 3.22914 2.97696 0
M  V30 566 H 56.3746 3.98516 1.48543 0
M  V30 567 N 54.6897 -0.239769 1.55765 0
M  V30 568 C 55.5997 -1.31831 1.94056 0
M  V30 569 C 56.6157 -1.52275 0.841925 0
M  V30 570 O 57.7917 -1.65759 1.14394 0
M  V30 571 C 54.8567 -2.65156 2.23368 0
M  V30 572 C 53.9177 -2.53173 3.46701 0
M  V30 573 C 53.1507 -3.8014 3.74606 0
M  V30 574 O 53.3737 -4.82343 3.04469 0
M  V30 575 O 52.3077 -3.78344 4.68123 0
M  V30 576 H 56.1337 -1.02347 2.85935 0
M  V30 577 H 53.7187 -0.441123 1.42739 0
M  V30 578 H 55.6007 -3.43929 2.43497 0
M  V30 579 H 54.2757 -2.94358 1.34666 0
M  V30 580 H 53.1827 -1.72662 3.31871 0
M  V30 581 H 54.5157 -2.28915 4.35728 0
M  V30 582 N 56.1678 -1.49265 -0.50573 0
M  V30 583 C 57.3958 -1.62215 -1.28429 0
M  V30 584 C 57.8108 -0.291697 -1.86533 0
M  V30 585 O 57.1678 0.722233 -1.67601 0
M  V30 586 C 57.2188 -2.68735 -2.41793 0
M  V30 587 O 56.9398 -3.96619 -1.86078 0
M  V30 588 C 58.4408 -2.92346 -3.3324 0
M  V30 589 H 55.6608 -0.546239 -0.389697 0
M  V30 590 H 58.2048 -1.95265 -0.607609 0
M  V30 591 H 56.3598 -2.38476 -3.053 0
M  V30 592 H 56.7738 -4.55256 -2.60465 0
M  V30 593 H 58.2478 -3.70623 -4.09075 0
M  V30 594 H 58.7248 -2.02081 -3.89948 0
M  V30 595 H 59.3308 -3.24003 -2.75503 0
M  V30 596 N 57.6459 0.756429 -1.3826 0
M  V30 597 C 58.9229 1.50584 -1.24835 0
M  V30 598 C 59.3029 2.10556 0.151485 0
M  V30 599 O 58.6509 1.96825 1.1607 0
M  V30 600 C 58.8609 2.57448 -2.3563 0
M  V30 601 C 60.2089 3.24429 -2.73917 0
M  V30 602 O 61.2329 2.67751 -2.34921 0
M  V30 603 O 60.0919 4.26937 -3.41156 0
M  V30 604 H 57.1859 0.667664 -0.48801 0
M  V30 605 H 59.7319 0.792083 -1.5008 0
M  V30 606 H 58.5039 2.11362 -3.29305 0
M  V30 607 H 58.1269 3.36408 -2.11933 0
M  V30 608 N 59.124 1.23083 0.984299 0
M  V30 609 C 60.37 1.07221 1.72845 0
M  V30 610 C 60.725 -0.387453 1.88458 0
M  V30 611 O 60.018 -1.28309 1.42293 0
M  V30 612 C 60.212 1.72673 3.1292 0
M  V30 613 C 60.041 3.24853 3.10967 0
M  V30 614 C 58.811 3.93998 3.16376 0
M  V30 615 C 61.009 4.21674 2.94441 0
M  V30 616 N 58.991 5.33192 3.04268 0
M  V30 617 C 60.362 5.47756 2.90453 0
M  V30 618 C 62.417 4.12457 2.78897 0
M  V30 619 C 61.12 6.6568 2.72512 0
M  V30 620 C 63.146 5.3004 2.62319 0
M  V30 621 C 62.508 6.55046 2.59026 0
M  V30 622 H 58.607 0.44685 0.641755 0
M  V30 623 H 61.191 1.55753 1.16829 0
M  V30 624 H 59.362 1.26679 3.67161 0
M  V30 625 H 61.094 1.49824 3.75945 0
M  V30 626 H 57.849 3.45052 3.24401 0
M  V30 627 H 58.273 6.06157 3.015 0
M  V30 628 H 62.915 3.16588 2.80235 0
M  V30 629 H 60.633 7.61689 2.69919 0
M  V30 630 H 64.219 5.24747 2.5126 0
M  V30 631 H 63.099 7.44498 2.46357 0
M  V30 632 N 60.6021 -1.18246 1.0419 0
M  V30 633 C 61.5121 -2.25574 0.644476 0
M  V30 634 C 62.5281 -1.70845 -0.329826 0
M  V30 635 O 63.7041 -2.00554 -0.184443 0
M  V30 636 C 60.7691 -3.46697 0.014877 0
M  V30 637 C 59.8301 -4.16554 1.03834 0
M  V30 638 C 59.0631 -5.31894 0.438692 0
M  V30 639 O 59.2861 -5.65385 -0.754752 0
M  V30 640 O 58.2201 -5.90459 1.168 0
M  V30 641 H 62.0461 -2.61836 1.53869 0
M  V30 642 H 59.6311 -1.25352 0.812854 0
M  V30 643 H 61.5131 -4.20062 -0.335538 0
M  V30 644 H 60.1881 -3.12255 -0.853138 0
M  V30 645 H 59.0951 -3.45251 1.44057 0
M  V30 646 H 60.4281 -4.54998 1.87716 0
M  V30 647 N 62.0802 -0.821533 -1.34494 0
M  V30 648 C 63.0302 -0.214793 -2.26986 0
M  V30 649 C 64.0142 0.620125 -1.4847 0
M  V30 650 O 65.2062 0.474933 -1.70509 0
M  V30 651 C 62.3352 0.623566 -3.37589 0
M  V30 652 C 61.4212 -0.221904 -4.23519 0
M  V30 653 N 61.8122 -1.29223 -4.89014 0
M  V30 654 C 60.1102 -0.00600922 -4.46 0
M  V30 655 C 60.8112 -1.80965 -5.52835 0
M  V30 656 N 59.7872 -1.11376 -5.32068 0
M  V30 657 H 63.5892 -1.03354 -2.75128 0
M  V30 658 H 61.1032 -0.6642 -1.48196 0
M  V30 659 H 63.1002 1.0744 -4.02818 0
M  V30 660 H 61.7602 1.44049 -2.90998 0
M  V30 661 H 62.7712 -1.67502 -4.90065 0
M  V30 662 H 59.4482 0.77886 -4.10171 0
M  V30 663 H 60.8382 -2.70502 -6.15043 0
M  V30 664 N 63.5583 1.46682 -0.576371 0
M  V30 665 C 64.7863 2.06798 -0.0649635 0
M  V30 666 C 65.2013 1.42612 1.23723 0
M  V30 667 O 64.5583 0.529203 1.74659 0
M  V30 668 C 64.6093 3.6132 0.114202 0
M  V30 669 O 64.3303 4.23104 -1.13644 0
M  V30 670 C 65.8313 4.38349 0.66069 0
M  V30 671 H 63.0513 0.668778 -0.0545616 0
M  V30 672 H 65.5953 1.88404 -0.795237 0
M  V30 673 H 63.7503 3.79162 0.794673 0
M  V30 674 H 64.1643 5.15894 -0.946253 0
M  V30 675 H 65.6383 5.47081 0.73526 0
M  V30 676 H 66.1153 4.05953 1.67627 0
M  V30 677 H 66.7213 4.25297 0.0152951 0
M  V30 678 N 65.0364 0.313813 1.54444 0
M  V30 679 C 65.9664 -0.549454 2.26943 0
M  V30 680 C 66.9474 -1.12741 1.27372 0
M  V30 681 O 68.1324 -1.15436 1.56167 0
M  V30 682 C 65.2624 -1.71523 3.01989 0
M  V30 683 C 64.2164 -1.26703 4.08816 0
M  V30 684 C 63.5424 -2.51898 4.71647 0
M  V30 685 C 64.8424 -0.388962 5.2085 0
M  V30 686 H 66.5364 0.0552661 2.99349 0
M  V30 687 H 64.0824 0.0280207 1.43973 0
M  V30 688 H 66.0354 -2.32535 3.51433 0
M  V30 689 H 64.7594 -2.34639 2.27183 0
M  V30 690 H 63.4184 -0.679896 3.6024 0
M  V30 691 H 63.0664 -3.13356 3.93468 0
M  V30 692 H 62.7664 -2.22605 5.43802 0
M  V30 693 H 64.2904 -3.1369 5.23861 0
M  V30 694 H 65.7044 -0.905107 5.6611 0
M  V30 695 H 64.1014 -0.18924 5.99802 0
M  V30 696 H 65.1714 0.582699 4.81386 0
M  V30 697 N 66.5145 -1.57545 0.0417849 0
M  V30 698 C 67.7625 -1.91937 -0.632829 0
M  V30 699 C 68.0835 -0.919978 -1.71934 0
M  V30 700 O 67.3535 0.0366064 -1.95866 0
M  V30 701 H 65.9335 -0.708493 -0.236742 0
M  V30 702 H 68.5955 -1.9468 0.0925745 0
M  V30 703 H 67.6915 -2.92912 -1.07746 0
M  V30 704 N 67.9926 0.231505 -1.5589 0
M  V30 705 C 69.2406 0.955461 -1.78088 0
M  V30 706 C 69.5616 1.85262 -0.608533 0
M  V30 707 O 68.8316 1.92277 0.375035 0
M  V30 708 H 67.4116 0.355787 -0.656829 0
M  V30 709 H 70.0736 0.245751 -1.93344 0
M  V30 710 H 69.1696 1.56814 -2.69844 0
M  V30 711 N 69.4707 1.49531 0.497807 0
M  V30 712 C 70.4037 1.61043 1.6168 0
M  V30 713 C 71.3817 0.459386 1.55976 0
M  V30 714 O 72.5657 0.675358 1.75986 0
M  V30 715 C 69.6927 1.56833 3.00202 0
M  V30 716 C 68.7387 2.77173 3.24156 0
M  V30 717 S 69.5717 4.38808 3.06933 0
M  V30 718 C 70.7277 4.37248 4.47845 0
M  V30 719 H 70.9607 2.55702 1.51671 0
M  V30 720 H 68.4937 1.38462 0.683201 0
M  V30 721 H 70.4517 1.55089 3.80076 0
M  V30 722 H 69.1127 0.634561 3.07623 0
M  V30 723 H 68.3057 2.70456 4.25288 0
M  V30 724 H 67.9077 2.76346 2.5201 0
M  V30 725 H 70.1997 4.09164 5.39992 0
M  V30 726 H 71.1427 5.38668 4.59612 0
M  V30 727 H 71.5507 3.67286 4.28674 0
M  V30 728 N 70.9488 -0.749086 1.3866 0
M  V30 729 C 71.8988 -1.85368 1.32751 0
M  V30 730 C 72.8828 -1.59511 0.210945 0
M  V30 731 O 74.0748 -1.71255 0.447299 0
M  V30 732 C 71.2038 -3.23131 1.15935 0
M  V30 733 C 70.2898 -3.54864 2.32233 0
M  V30 734 N 70.6808 -3.57625 3.57684 0
M  V30 735 C 68.9788 -3.85154 2.24883 0
M  V30 736 C 69.6798 -3.86753 4.34508 0
M  V30 737 N 68.6558 -4.03812 3.63918 0
M  V30 738 H 72.4578 -1.85787 2.27729 0
M  V30 739 H 69.9718 -0.946658 1.31955 0
M  V30 740 H 71.9688 -4.02185 1.09786 0
M  V30 741 H 70.6288 -3.23961 0.218947 0
M  V30 742 H 71.6398 -3.39276 3.91295 0
M  V30 743 H 68.3168 -3.93672 1.39027 0
M  V30 744 H 69.7068 -3.95474 5.43185 0
M  V30 745 N 72.4269 -1.23603 -0.977757 0
M  V30 746 C 73.3899 -1.02069 -2.05218 0
M  V30 747 C 74.3899 0.0184305 -1.60789 0
M  V30 748 O 75.5799 -0.221569 -1.72785 0
M  V30 749 C 72.7119 -0.544926 -3.36517 0
M  V30 750 H 73.9049 -1.9742 -2.25755 0
M  V30 751 H 71.4579 -1.05684 -1.15155 0
M  V30 752 H 72.1929 0.412241 -3.21669 0
M  V30 753 H 71.9779 -1.2948 -3.70105 0
M  V30 754 H 73.4679 -0.414985 -4.15533 0
M  V30 755 N 73.905 1.17692 -1.04816 0
M  V30 756 C 74.835 2.23777 -0.666791 0
M  V30 757 C 75.816 1.66796 0.33361 0
M  V30 758 O 77.001 1.93039 0.212042 0
M  V30 759 C 74.131 3.47281 -0.0367933 0
M  V30 760 C 73.085 4.17059 -0.961546 0
M  V30 761 C 72.411 5.34342 -0.195626 0
M  V30 762 C 73.711 4.69713 -2.28402 0
M  V30 763 H 75.405 2.55933 -1.55367 0
M  V30 764 H 72.951 1.23019 -0.748484 0
M  V30 765 H 74.904 4.20706 0.241775 0
M  V30 766 H 73.628 3.14381 0.885004 0
M  V30 767 H 72.287 3.45541 -1.22462 0
M  V30 768 H 71.935 4.97692 0.728816 0
M  V30 769 H 71.635 5.81966 -0.811775 0
M  V30 770 H 73.159 6.10553 0.0757473 0
M  V30 771 H 74.573 5.34794 -2.06563 0
M  V30 772 H 72.97 5.279 -2.8538 0
M  V30 773 H 74.04 3.86726 -2.92525 0
M  V30 774 N 75.3831 0.828654 1.34056 0
M  V30 775 C 76.6321 0.415828 1.97367 0
M  V30 776 C 76.9451 -1.02796 1.6641 0
M  V30 777 O 78.1511 -1.54497 2.23255 0
M  V30 778 C 76.6071 0.692601 3.53173 0
M  V30 779 C 76.2151 2.15038 3.93017 0
M  V30 780 C 77.9591 0.346222 4.23086 0
M  V30 781 C 75.8661 2.37174 5.41758 0
M  V30 782 H 74.7961 0.151755 0.738571 0
M  V30 783 H 77.4471 1.01581 1.52819 0
M  V30 784 H 75.8291 0.0223764 3.95994 0
M  V30 785 H 77.0031 2.86024 3.61285 0
M  V30 786 H 75.3181 2.45875 3.36057 0
M  V30 787 H 77.9151 0.48937 5.32456 0
M  V30 788 H 78.2581 -0.709842 4.10204 0
M  V30 789 H 78.7911 0.971258 3.85761 0
M  V30 790 H 75.5301 3.41308 5.59633 0
M  V30 791 H 75.0501 1.70738 5.74986 0
M  V30 792 H 76.7291 2.19818 6.08514 0
M  V30 793 N 76.8612 -1.46375 0.584142 0
M  V30 794 C 78.1072 -2.03248 0.0787103 0
M  V30 795 C 78.4622 -1.44737 -1.26763 0
M  V30 796 O 77.7552 -0.603625 -1.81843 0
M  V30 797 C 77.9492 -3.57373 -0.0439342 0
M  V30 798 C 77.7782 -4.30831 1.28897 0
M  V30 799 C 76.5482 -4.69683 1.8635 0
M  V30 800 C 78.7462 -4.64278 2.21248 0
M  V30 801 N 76.7282 -5.27898 3.13365 0
M  V30 802 C 78.0992 -5.23078 3.32851 0
M  V30 803 C 80.1542 -4.46209 2.20911 0
M  V30 804 C 78.8572 -5.65715 4.44251 0
M  V30 805 C 80.8832 -4.89864 3.31341 0
M  V30 806 C 80.2452 -5.48736 4.41665 0
M  V30 807 H 76.3442 -0.778714 0.0716144 0
M  V30 808 H 78.9282 -1.78509 0.777355 0
M  V30 809 H 77.0992 -3.81823 -0.711749 0
M  V30 810 H 78.8312 -4.00892 -0.553881 0
M  V30 811 H 75.5862 -4.52488 1.39826 0
M  V30 812 H 76.0102 -5.61525 3.78178 0
M  V30 813 H 80.6522 -4.00027 1.36888 0
M  V30 814 H 78.3702 -6.10875 5.29015 0
M  V30 815 H 81.9562 -4.77634 3.322 0
M  V30 816 H 80.8362 -5.81898 5.25704 0
M  V30 817 N 78.3393 -0.321999 -1.54275 0
M  V30 818 C 79.2893 0.560185 -2.21011 0
M  V30 819 C 80.2733 1.08283 -1.19011 0
M  V30 820 O 81.4653 1.02011 -1.44647 0
M  V30 821 C 78.5943 1.72137 -2.97025 0
M  V30 822 C 77.6803 1.21369 -4.06363 0
M  V30 823 N 78.0713 0.425566 -5.04007 0
M  V30 824 C 76.3693 1.49255 -4.20284 0
M  V30 825 C 77.0703 0.152601 -5.815 0
M  V30 826 N 76.0463 0.738294 -5.38563 0
M  V30 827 H 79.8483 -0.049265 -2.93859 0
M  V30 828 H 77.3623 -0.127779 -1.61897 0
M  V30 829 H 79.3593 2.36512 -3.43319 0
M  V30 830 H 78.0193 2.33431 -2.25699 0
M  V30 831 H 79.0303 0.068551 -5.17855 0
M  V30 832 H 75.7073 2.11145 -3.60172 0
M  V30 833 H 77.0973 -0.481764 -6.70171 0
M  V30 834 N 79.8174 1.5752 -0.0501392 0
M  V30 835 C 80.7674 2.07981 0.934231 0
M  V30 836 C 81.7514 0.984745 1.27246 0
M  V30 837 O 82.9434 1.24809 1.25506 0
M  V30 838 C 80.0724 2.62751 2.20945 0
M  V30 839 C 79.1584 3.79225 1.89865 0
M  V30 840 N 79.5494 4.89036 1.29142 0
M  V30 841 C 77.8474 3.88111 2.19741 0
M  V30 842 C 78.5484 5.70084 1.15669 0
M  V30 843 N 77.5244 5.17659 1.65923 0
M  V30 844 H 81.3264 2.90277 0.460053 0
M  V30 845 H 78.8404 1.61665 0.15434 0
M  V30 846 H 80.8374 2.97205 2.9236 0
M  V30 847 H 79.4974 1.81894 2.6897 0
M  V30 848 H 80.5084 5.08854 0.963756 0
M  V30 849 H 77.1854 3.18194 2.70293 0
M  V30 850 H 78.5754 6.68395 0.685356 0
M  V30 851 N 81.2955 -0.223234 1.56011 0
M  V30 852 C 82.5435 -0.946003 1.78592 0
M  V30 853 C 82.8645 -1.84936 0.618349 0
M  V30 854 O 82.1345 -1.92473 -0.364833 0
M  V30 855 H 80.7145 -0.352298 0.658707 0
M  V30 856 H 83.3765 -0.235494 1.93472 0
M  V30 857 H 82.4725 -1.55381 2.70672 0
M  V30 858 N 82.7736 -1.49793 -0.48987 0
M  V30 859 C 83.7366 -1.66752 -1.57246 0
M  V30 860 C 84.7366 -0.538867 -1.51502 0
M  V30 861 O 85.9266 -0.805545 -1.54456 0
M  V30 862 C 83.0586 -1.67528 -2.96896 0
M  V30 863 H 84.2516 -2.63321 -1.43534 0
M  V30 864 H 81.8046 -1.38992 -0.714914 0
M  V30 865 H 82.5396 -0.725837 -3.16073 0
M  V30 866 H 82.3246 -2.49504 -3.02473 0
M  V30 867 H 83.8146 -1.82667 -3.7553 0
M  V30 868 N 84.2517 0.741722 -1.39055 0
M  V30 869 C 85.5007 1.49656 -1.35225 0
M  V30 870 C 85.8137 1.95533 0.0512708 0
M  V30 871 O 87.0197 2.7067 0.212138 0
M  V30 872 C 85.4757 2.70389 -2.37525 0
M  V30 873 C 85.0837 2.31489 -3.83558 0
M  V30 874 C 86.8277 3.48236 -2.42759 0
M  V30 875 C 84.7347 3.48903 -4.77515 0
M  V30 876 H 83.6647 0.56197 -0.502699 0
M  V30 877 H 86.3157 0.809727 -1.64668 0
M  V30 878 H 84.6977 3.41113 -2.01142 0
M  V30 879 H 85.8717 1.68354 -4.28945 0
M  V30 880 H 84.1867 1.66749 -3.81554 0
M  V30 881 H 86.7837 4.35558 -3.1015 0
M  V30 882 H 87.1267 3.90229 -1.45008 0
M  V30 883 H 87.6597 2.84535 -2.78002 0
M  V30 884 H 84.3987 3.11966 -5.76504 0
M  V30 885 H 83.9187 4.11041 -4.36813 0
M  V30 886 H 85.5977 4.15328 -4.96096 0
M  V30 887 N 85.7298 1.2412 0.971189 0
M  V30 888 C 86.9788 1.07284 1.70801 0
M  V30 889 C 87.2918 -0.388902 1.91695 0
M  V30 890 O 88.4978 -0.677379 2.62914 0
M  V30 891 C 86.9538 1.87145 3.07416 0
M  V30 892 C 86.5618 3.37707 2.94377 0
M  V30 893 C 88.3058 1.78828 3.84995 0
M  V30 894 C 86.2128 4.09925 4.26281 0
M  V30 895 H 85.1428 0.397854 0.64049 0
M  V30 896 H 87.7938 1.4817 1.0825 0
M  V30 897 H 86.1758 1.39071 3.70777 0
M  V30 898 H 87.3498 3.93335 2.4005 0
M  V30 899 H 85.6648 3.46938 2.30267 0
M  V30 900 H 88.2618 2.30089 4.82662 0
M  V30 901 H 88.6048 0.75284 4.09436 0
M  V30 902 H 89.1378 2.24563 3.28354 0
M  V30 903 H 85.8768 5.13813 4.07033 0
M  V30 904 H 85.3968 3.59083 4.80437 0
M  V30 905 H 87.0758 4.1673 4.94919 0
M  V30 906 N 87.2079 -1.17134 1.05439 0
M  V30 907 C 88.1709 -2.19439 0.661764 0
M  V30 908 C 89.1709 -1.58199 -0.288042 0
M  V30 909 O 90.3609 -1.74053 -0.0715803 0
M  V30 910 C 87.4929 -3.40889 -0.0276209 0
M  V30 911 H 88.6859 -2.55688 1.56728 0
M  V30 912 H 86.2389 -1.31259 0.848567 0
M  V30 913 H 86.9739 -3.10187 -0.94629 0
M  V30 914 H 86.7589 -3.86586 0.655238 0
M  V30 915 H 88.2489 -4.16603 -0.288342 0
M  V30 916 N 88.686 -0.835752 -1.33615 0
M  V30 917 C 89.636 -0.238856 -2.26745 0
M  V30 918 C 90.62 0.604343 -1.49119 0
M  V30 919 O 91.812 0.456822 -1.71003 0
M  V30 920 C 88.941 0.587725 -3.38232 0
M  V30 921 C 88.027 -0.266811 -4.2326 0
M  V30 922 N 88.418 -1.34403 -4.87616 0
M  V30 923 C 86.716 -0.0533131 -4.45968 0
M  V30 924 C 87.417 -1.86819 -5.50884 0
M  V30 925 N 86.393 -1.17013 -5.30857 0
M  V30 926 H 90.195 -1.06266 -2.74016 0
M  V30 927 H 87.709 -0.679881 -1.47483 0
M  V30 928 H 89.706 1.03161 -4.03935 0
M  V30 929 H 88.366 1.40954 -2.9251 0
M  V30 930 H 89.377 -1.7269 -4.88261 0
M  V30 931 H 86.054 0.735312 -4.10974 0
M  V30 932 H 87.444 -2.7701 -6.1214 0
M  V30 933 N 90.1641 1.46063 -0.591896 0
M  V30 934 C 91.1271 2.28854 0.125973 0
M  V30 935 C 92.1271 1.38903 0.810107 0
M  V30 936 O 93.3171 1.61186 0.66066 0
M  V30 937 C 90.4491 3.19526 1.1881 0
M  V30 938 H 91.6421 2.93802 -0.601717 0
M  V30 939 H 89.1951 1.52325 -0.350254 0
M  V30 940 H 89.9301 2.59345 1.94707 0
M  V30 941 H 89.7151 3.85766 0.701936 0
M  V30 942 H 91.2051 3.81817 1.69132 0
M  V30 943 N 91.6422 0.330177 1.54103 0
M  V30 944 C 92.6052 -0.520144 2.2322 0
M  V30 945 C 93.6052 -1.03828 1.22786 0
M  V30 946 O 94.7952 -0.929652 1.4732 0
M  V30 947 C 91.9272 -1.72317 2.94142 0
M  V30 948 H 93.1202 0.0841605 2.99782 0
M  V30 949 H 90.6732 0.0813433 1.56088 0
M  V30 950 H 91.4082 -2.36653 2.21734 0
M  V30 951 H 91.1932 -1.35898 3.67796 0
M  V30 952 H 92.6832 -2.3266 3.46784 0
M  V30 953 N 93.1203 -1.57491 0.0584922 0
M  V30 954 C 94.3663 -1.93264 -0.614558 0
M  V30 955 C 94.6993 -0.937717 -1.7006 0
M  V30 956 O 93.9743 0.0351652 -1.94468 0
M  V30 957 C 94.2573 -3.3938 -1.20386 0
M  V30 958 C 94.1103 -4.49625 -0.125375 0
M  V30 959 C 95.4293 -3.86039 -2.11334 0
M  V30 960 H 92.5483 -0.702791 -0.221933 0
M  V30 961 H 95.1903 -1.8961 0.12175 0
M  V30 962 H 93.3403 -3.42626 -1.83139 0
M  V30 963 H 95.0123 -4.58506 0.506971 0
M  V30 964 H 93.2553 -4.30354 0.545672 0
M  V30 965 H 93.9263 -5.48967 -0.577861 0
M  V30 966 H 96.4023 -3.84716 -1.58534 0
M  V30 967 H 95.2783 -4.88914 -2.49507 0
M  V30 968 H 95.5393 -3.23215 -3.01636 0
M  V30 969 N 94.5984 0.214957 -1.56127 0
M  V30 970 C 95.8474 0.936451 -1.78643 0
M  V30 971 C 96.1604 1.85237 -0.628229 0
M  V30 972 O 97.3664 2.613 -0.737186 0
M  V30 973 C 95.8224 1.7154 -3.16389 0
M  V30 974 C 95.4304 0.845299 -4.39953 0
M  V30 975 C 97.1744 2.42772 -3.48227 0
M  V30 976 C 95.0814 1.62198 -5.68723 0
M  V30 977 H 94.0114 0.353401 -0.666051 0
M  V30 978 H 96.6624 0.190169 -1.82512 0
M  V30 979 H 95.0444 2.50484 -3.06715 0
M  V30 980 H 96.2184 0.0959353 -4.607 0
M  V30 981 H 94.5334 0.244789 -4.1568 0
M  V30 982 H 97.1304 3.01394 -4.41663 0
M  V30 983 H 97.4734 3.15984 -2.71035 0
M  V30 984 H 98.0064 1.70813 -3.5926 0
M  V30 985 H 94.7454 0.933011 -6.48826 0
M  V30 986 H 94.2654 2.34579 -5.52026 0
M  V30 987 H 95.9444 2.18095 -6.09133 0
M  V30 988 N 96.0765 1.50051 0.48192 0
M  V30 989 C 97.0085 1.64263 1.59844 0
M  V30 990 C 98.0215 0.52451 1.54119 0
M  V30 991 O 99.2105 0.797293 1.59704 0
M  V30 992 C 96.3105 1.60102 2.98698 0
M  V30 993 C 95.4835 2.87767 3.29407 0
M  V30 994 C 94.5425 2.76397 4.47762 0
M  V30 995 O 93.5685 3.50348 4.48603 0
M  V30 996 N 94.7705 1.89222 5.48794 0
M  V30 997 H 97.5355 2.60566 1.48073 0
M  V30 998 H 95.0965 1.47379 0.670149 0
M  V30 999 H 97.0885 1.50123 3.75826 0
M  V30 1000 H 95.6585 0.715798 3.04294 0
M  V30 1001 H 94.8785 3.11954 2.40994 0
M  V30 1002 H 96.1665 3.72365 3.4673 0
M  V30 1003 H 95.5645 1.28434 5.50928 0
M  V30 1004 H 94.1215 1.85154 6.24949 0
M  V30 1005 N 97.5546 -0.734337 1.39446 0
M  V30 1006 C 98.9706 -1.03997 1.21065 0
M  V30 1007 C 99.1706 -2.01369 0.0727019 0
M  V30 1008 O 98.2266 -2.45856 -0.575426 0
M  V30 1009 C 99.5396 -1.60163 2.54496 0
M  V30 1010 C 101.088 -1.7224 2.61347 0
M  V30 1011 C 101.563 -2.31814 3.95002 0
M  V30 1012 N 103.054 -2.39223 3.96644 0
M  V30 1013 C 103.789 -2.86258 4.96834 0
M  V30 1014 N 103.285 -3.33184 6.07421 0
M  V30 1015 N 105.078 -2.85473 4.84213 0
M  V30 1016 H 97.2286 -0.0885624 2.12215 0
M  V30 1017 H 99.4916 -0.10191 0.942506 0
M  V30 1018 H 99.1976 -0.960811 3.38321 0
M  V30 1019 H 99.0716 -2.5896 2.74262 0
M  V30 1020 H 101.459 -2.35443 1.77906 0
M  V30 1021 H 101.54 -0.720939 2.4543 0
M  V30 1022 H 101.184 -1.69238 4.78875 0
M  V30 1023 H 101.114 -3.32638 4.08239 0
M  V30 1024 H 103.605 -2.06057 3.16779 0
M  V30 1025 H 103.918 -3.67586 6.7978 0
M  V30 1026 H 102.263 -3.31191 6.11013 0
M  V30 1027 H 105.454 -2.48136 3.96921 0
M  V30 1028 H 105.627 -3.21814 5.62441 0
M  V30 1029 N 99.0327 -1.24633 -0.964593 0
M  V30 1030 C 100.449 -1.01239 -1.2338 0
M  V30 1031 C 100.649 0.2769 -1.99588 0
M  V30 1032 O 99.7047 0.992241 -2.32187 0
M  V30 1033 C 101.018 -2.22937 -2.01791 0
M  V30 1034 C 102.566 -2.27594 -2.14872 0
M  V30 1035 C 103.041 -3.48921 -2.96678 0
M  V30 1036 N 104.532 -3.49257 -3.04259 0
M  V30 1037 C 105.267 -4.39795 -3.67924 0
M  V30 1038 N 104.763 -5.40591 -4.33281 0
M  V30 1039 N 106.556 -4.275 -3.64966 0
M  V30 1040 H 98.7067 -2.0748 -0.454502 0
M  V30 1041 H 100.97 -0.910647 -0.26349 0
M  V30 1042 H 100.676 -3.16587 -1.53184 0
M  V30 1043 H 100.55 -2.25306 -3.02518 0
M  V30 1044 H 102.937 -1.34473 -2.6268 0
M  V30 1045 H 103.018 -2.2925 -1.13482 0
M  V30 1046 H 102.662 -4.42359 -2.49562 0
M  V30 1047 H 102.592 -3.4451 -3.98272 0
M  V30 1048 H 105.083 -2.76337 -2.57771 0
M  V30 1049 H 105.396 -6.05904 -4.79687 0
M  V30 1050 H 103.741 -5.44475 -4.3194 0
M  V30 1051 H 106.932 -3.47987 -3.13086 0
M  V30 1052 H 107.105 -4.98258 -4.14298 0
M  V30 1053 N 100.511 1.16574 -1.06058 0
M  V30 1054 C 101.441 2.23057 -0.690488 0
M  V30 1055 C 102.422 1.67141 0.315901 0
M  V30 1056 O 103.607 1.93253 0.191556 0
M  V30 1057 C 100.737 3.47222 -0.073625 0
M  V30 1058 C 99.6908 4.16016 -1.00573 0
M  V30 1059 C 99.0168 5.34104 -0.252289 0
M  V30 1060 C 100.317 4.67264 -2.33371 0
M  V30 1061 H 102.011 2.54271 -1.58072 0
M  V30 1062 H 99.5568 1.22218 -0.76149 0
M  V30 1063 H 101.51 4.20939 0.19714 0
M  V30 1064 H 100.234 3.15302 0.85161 0
M  V30 1065 H 98.8928 3.44223 -1.2612 0
M  V30 1066 H 98.5408 4.98437 0.675988 0
M  V30 1067 H 98.2408 5.81072 -0.873455 0
M  V30 1068 H 99.7648 6.10599 0.0109857 0
M  V30 1069 H 101.179 5.32573 -2.12223 0
M  V30 1070 H 99.5758 5.24843 -2.90963 0
M  V30 1071 H 100.646 3.83602 -2.96611 0
M  V30 1072 N 101.989 0.842826 1.3317 0
M  V30 1073 C 103.238 0.436738 1.96915 0
M  V30 1074 C 103.551 -1.01025 1.67491 0
M  V30 1075 O 104.757 -1.5212 2.24881 0
M  V30 1076 C 103.213 0.730021 3.52418 0
M  V30 1077 C 102.821 2.19195 3.90714 0
M  V30 1078 C 104.565 0.391076 4.22695 0
M  V30 1079 C 102.472 2.42907 5.39212 0
M  V30 1080 H 101.402 0.15958 0.736919 0
M  V30 1081 H 104.053 1.03196 1.51733 0
M  V30 1082 H 102.435 0.0643755 3.95948 0
M  V30 1083 H 103.609 2.8984 3.58231 0
M  V30 1084 H 101.924 2.49425 3.33431 0
M  V30 1085 H 104.521 0.545817 5.31907 0
M  V30 1086 H 104.864 -0.666294 4.10933 0
M  V30 1087 H 105.397 1.01212 3.84709 0
M  V30 1088 H 102.136 3.47224 5.55982 0
M  V30 1089 H 101.656 1.76827 5.73142 0
M  V30 1090 H 103.335 2.2626 6.06148 0
M  V30 1091 N 103.467 -1.45747 0.599634 0
M  V30 1092 C 104.697 -2.06369 0.0977132 0
M  V30 1093 C 105.105 -1.44624 -1.21985 0
M  V30 1094 O 104.448 -0.551831 -1.75216 0
M  V30 1095 C 104.51 -3.59284 -0.124673 0
M  V30 1096 C 104.174 -4.43318 1.10987 0
M  V30 1097 C 105.171 -4.78796 2.02609 0
M  V30 1098 C 102.856 -4.84194 1.33647 0
M  V30 1099 C 104.85 -5.53997 3.15224 0
M  V30 1100 C 102.537 -5.5915 2.46565 0
M  V30 1101 C 103.535 -5.93968 3.37182 0
M  V30 1102 O 103.223 -6.67405 4.48136 0
M  V30 1103 H 102.955 -0.673122 0.0623153 0
M  V30 1104 H 105.509 -1.88104 0.824981 0
M  V30 1105 H 103.739 -3.75919 -0.906745 0
M  V30 1106 H 105.428 -4.01775 -0.577201 0
M  V30 1107 H 106.194 -4.47781 1.86325 0
M  V30 1108 H 102.073 -4.56534 0.64016 0
M  V30 1109 H 105.617 -5.81091 3.85978 0
M  V30 1110 H 101.514 -5.89579 2.62805 0
M  V30 1111 H 102.282 -6.85847 4.46717 0
M  V30 1112 N 104.945 -0.338344 -1.53925 0
M  V30 1113 C 106.361 0.0137736 -1.59594 0
M  V30 1114 C 106.561 1.49186 -1.35447 0
M  V30 1115 O 105.617 2.24987 -1.14616 0
M  V30 1116 C 106.93 -0.41773 -2.97784 0
M  V30 1117 C 108.478 -0.369633 -3.1081 0
M  V30 1118 C 108.953 -0.776524 -4.51369 0
M  V30 1119 N 110.444 -0.730506 -4.57403 0
M  V30 1120 C 111.179 -1.01736 -5.64303 0
M  V30 1121 N 110.675 -1.3721 -6.79077 0
M  V30 1122 N 112.468 -0.941942 -5.54151 0
M  V30 1123 H 104.619 -1.3012 -1.67876 0
M  V30 1124 H 106.882 -0.530082 -0.78595 0
M  V30 1125 H 106.588 -1.44811 -3.20504 0
M  V30 1126 H 106.462 0.209729 -3.76616 0
M  V30 1127 H 108.849 0.651568 -2.87817 0
M  V30 1128 H 108.93 -1.03223 -2.34049 0
M  V30 1129 H 108.574 -1.79571 -4.75096 0
M  V30 1130 H 108.504 -0.0914649 -5.26521 0
M  V30 1131 H 110.995 -0.468783 -3.74981 0
M  V30 1132 H 111.308 -1.57597 -7.5656 0
M  V30 1133 H 109.653 -1.4105 -6.80536 0
M  V30 1134 H 112.844 -0.664184 -4.63364 0
M  V30 1135 H 113.017 -1.16884 -6.37371 0
M  V30 1136 N 106.423 1.57458 -0.0668435 0
M  V30 1137 C 107.671 1.92919 0.602214 0
M  V30 1138 C 107.992 0.947215 1.70449 0
M  V30 1139 O 107.262 -0.00544117 1.95899 0
M  V30 1140 H 105.842 0.71217 0.22544 0
M  V30 1141 H 108.504 1.94508 -0.123535 0
M  V30 1142 H 107.6 2.94589 1.03073 0
M  V30 1143 N 107.901 -0.206675 1.56239 0
M  V30 1144 C 108.849 -1.27571 1.94495 0
M  V30 1145 C 109.843 -1.47737 0.828862 0
M  V30 1146 O 111.049 -1.48735 1.0138 0
M  V30 1147 H 107.424 -0.428029 0.6183 0
M  V30 1148 H 109.395 -0.925961 2.8367 0
M  V30 1149 C 108.144 -2.61568 2.29079 0
M  V30 1150 H 107.467 -2.46863 3.14482 0
M  V30 1151 H 108.907 -3.35144 2.5972 0
M  V30 1152 C 107.366 -3.17695 1.12123 0
M  V30 1153 O 107.896 -3.99801 0.390153 0
M  V30 1154 N 106.102 -2.76276 0.901097 0
M  V30 1155 H 105.649 -2.09613 1.49733 0
M  V30 1156 H 105.607 -3.1417 0.120319 0
M  V30 1157 N 109.379 -1.50304 -0.473955 0
M  V30 1158 C 110.342 -1.6841 -1.55469 0
M  V30 1159 C 111.342 -0.554905 -1.50922 0
M  V30 1160 O 112.532 -0.821882 -1.53593 0
M  V30 1161 C 109.664 -1.70667 -2.95102 0
M  V30 1162 H 110.857 -2.64828 -1.40733 0
M  V30 1163 H 108.41 -1.39742 -0.700132 0
M  V30 1164 H 109.145 -0.75932 -3.15285 0
M  V30 1165 H 108.93 -2.52698 -2.9981 0
M  V30 1166 H 110.42 -1.8664 -3.73571 0
M  V30 1167 N 110.857 0.726932 -1.39834 0
M  V30 1168 C 111.787 1.85405 -1.41941 0
M  V30 1169 C 112.768 1.67751 -0.281728 0
M  V30 1170 O 113.953 1.8795 -0.488717 0
M  V30 1171 C 111.083 3.23243 -1.2701 0
M  V30 1172 C 110.037 3.55549 -2.38262 0
M  V30 1173 C 109.363 4.9241 -2.08415 0
M  V30 1174 C 110.663 3.577 -3.80589 0
M  V30 1175 H 112.357 1.83899 -2.36266 0
M  V30 1176 H 109.903 0.883349 -1.13723 0
M  V30 1177 H 111.856 4.01775 -1.27103 0
M  V30 1178 H 110.58 3.25296 -0.291564 0
M  V30 1179 H 109.239 2.79351 -2.37399 0
M  V30 1180 H 108.887 4.91052 -1.0898 0
M  V30 1181 H 108.587 5.14992 -2.82943 0
M  V30 1182 H 110.111 5.73289 -2.10171 0
M  V30 1183 H 111.525 4.26293 -3.83337 0
M  V30 1184 H 109.922 3.91804 -4.54543 0
M  V30 1185 H 110.992 2.57328 -4.10987 0
M  V30 1186 N 112.336 1.25143 0.95797 0
M  V30 1187 C 113.752 1.01892 1.22842 0
M  V30 1188 C 113.952 -0.266311 1.99732 0
M  V30 1189 O 113.008 -0.979913 2.3271 0
M  V30 1190 C 114.321 2.24004 2.00606 0
M  V30 1191 C 115.869 2.28731 2.13662 0
M  V30 1192 C 116.344 3.5049 2.94823 0
M  V30 1193 N 117.835 3.50866 3.02403 0
M  V30 1194 C 118.57 4.4174 3.65586 0
M  V30 1195 N 118.066 5.42882 4.30408 0
M  V30 1196 N 119.859 4.29429 3.62694 0
M  V30 1197 H 112.01 2.07718 0.443493 0
M  V30 1198 H 114.273 0.912031 0.258657 0
M  V30 1199 H 113.979 3.17395 1.51503 0
M  V30 1200 H 113.853 2.26907 3.01319 0
M  V30 1201 H 116.24 1.35865 2.61963 0
M  V30 1202 H 116.321 2.29848 1.12265 0
M  V30 1203 H 115.965 4.43676 2.47213 0
M  V30 1204 H 115.895 3.46617 3.96439 0
M  V30 1205 H 118.386 2.777 2.56302 0
M  V30 1206 H 118.699 6.0844 4.76467 0
M  V30 1207 H 117.044 5.46758 4.29047 0
M  V30 1208 H 120.235 3.49643 3.11236 0
M  V30 1209 H 120.408 5.00448 4.1165 0
M  V30 1210 N 113.814 -1.1601 1.06675 0
M  V30 1211 C 115.054 -1.88304 0.795037 0
M  V30 1212 C 115.418 -1.80062 -0.666466 0
M  V30 1213 O 116.619 -2.47319 -1.05293 0
M  V30 1214 C 114.89 -3.33664 1.28076 0
M  V30 1215 S 116.449 -4.23768 1.13868 0
M  V30 1216 H 113.267 -0.649928 0.288296 0
M  V30 1217 H 115.869 -1.4001 1.36445 0
M  V30 1218 H 114.573 -3.37203 2.33927 0
M  V30 1219 H 114.104 -3.87009 0.706253 0
M  V30 1220 H 116.119 -4.96148 0.0719668 0
M  V30 1221 N 115.292 -0.849877 -1.32721 0
M  V30 1222 C 116.54 -0.450032 -1.97026 0
M  V30 1223 C 116.861 0.996604 -1.67609 0
M  V30 1224 O 116.131 1.6958 -0.980786 0
M  V30 1225 H 114.711 -0.163426 -0.728904 0
M  V30 1226 H 117.373 -1.08526 -1.6189 0
M  V30 1227 H 116.469 -0.591146 -3.0645 0
M  V30 1228 N 116.77 1.45427 -0.607355 0
M  V30 1229 C 118 2.06314 -0.108656 0
M  V30 1230 C 118.408 1.45269 1.21217 0
M  V30 1231 O 117.751 0.561115 1.74921 0
M  V30 1232 C 117.813 3.59345 0.105618 0
M  V30 1233 C 117.477 4.42723 -1.13337 0
M  V30 1234 C 118.474 4.77715 -2.05145 0
M  V30 1235 C 116.159 4.83478 -1.36213 0
M  V30 1236 C 118.153 5.52317 -3.18158 0
M  V30 1237 C 115.84 5.57835 -2.49527 0
M  V30 1238 C 116.838 5.92171 -3.40327 0
M  V30 1239 O 116.526 6.65019 -4.51669 0
M  V30 1240 H 116.258 0.672782 -0.0658842 0
M  V30 1241 H 118.812 1.87664 -0.834945 0
M  V30 1242 H 117.042 3.76394 0.886796 0
M  V30 1243 H 118.731 4.02076 0.555886 0
M  V30 1244 H 119.497 4.46787 -1.88697 0
M  V30 1245 H 115.376 4.56188 -0.664362 0
M  V30 1246 H 118.92 5.79036 -3.89054 0
M  V30 1247 H 114.817 5.88177 -2.65928 0
M  V30 1248 H 115.585 6.83469 -4.50348 0
M  V30 1249 N 118.248 0.346503 1.53744 0
M  V30 1250 C 119.494 -0.249473 2.0126 0
M  V30 1251 C 119.827 -1.49965 1.23386 0
M  V30 1252 O 119.102 -1.91811 0.32229 0
M  V30 1253 C 119.385 -0.560643 3.55709 0
M  V30 1254 C 119.238 0.701836 4.44291 0
M  V30 1255 C 120.557 -1.36905 4.18264 0
M  V30 1256 H 117.676 -0.0891987 0.731582 0
M  V30 1257 H 120.318 0.467624 1.84156 0
M  V30 1258 H 118.468 -1.17156 3.70414 0
M  V30 1259 H 120.14 1.33974 4.41417 0
M  V30 1260 H 118.383 1.32612 4.13033 0
M  V30 1261 H 119.054 0.43933 5.50249 0
M  V30 1262 H 121.53 -0.852448 4.07275 0
M  V30 1263 H 120.406 -1.55553 5.26398 0
M  V30 1264 H 120.667 -2.37203 3.73078 0
M  V30 1265 N 119.726 -1.57421 0.075193 0
M  V30 1266 C 120.636 -2.1642 -0.905511 0
M  V30 1267 C 121.652 -1.12828 -1.32461 0
M  V30 1268 O 122.828 -1.45109 -1.39661 0
M  V30 1269 C 119.893 -2.71693 -2.15369 0
M  V30 1270 C 118.954 -3.90171 -1.79068 0
M  V30 1271 C 118.187 -4.42798 -2.97936 0
M  V30 1272 O 118.41 -3.94416 -4.12058 0
M  V30 1273 O 117.344 -5.34085 -2.77555 0
M  V30 1274 H 121.17 -3.00588 -0.433626 0
M  V30 1275 H 118.755 -1.48664 -0.148067 0
M  V30 1276 H 120.637 -3.07104 -2.88557 0
M  V30 1277 H 119.312 -1.90582 -2.61649 0
M  V30 1278 H 118.219 -3.59606 -1.03122 0
M  V30 1279 H 119.552 -4.72584 -1.37569 0
M  V30 1280 N 121.204 0.198386 -1.56346 0
M  V30 1281 C 122.452 0.91747 -1.80075 0
M  V30 1282 C 122.773 1.83929 -0.647692 0
M  V30 1283 O 122.043 1.93029 0.334166 0
M  V30 1284 H 120.623 0.341774 -0.664228 0
M  V30 1285 H 123.285 0.204684 -1.93822 0
M  V30 1286 H 122.381 1.51055 -2.7311 0
M  V30 1287 N 122.682 1.50554 0.465978 0
M  V30 1288 C 123.928 1.62038 1.21949 0
M  V30 1289 C 124.261 0.322116 1.9151 0
M  V30 1290 O 123.536 -0.676723 1.82348 0
M  V30 1291 C 123.819 2.80421 2.25912 0
M  V30 1292 C 123.672 4.20144 1.60622 0
M  V30 1293 C 124.991 2.94354 3.27176 0
M  V30 1294 H 122.11 0.589752 0.441998 0
M  V30 1295 H 124.752 1.82956 0.51257 0
M  V30 1296 H 122.902 2.62717 2.86203 0
M  V30 1297 H 124.574 4.49449 1.03889 0
M  V30 1298 H 122.817 4.24165 0.909211 0
M  V30 1299 H 123.488 4.98914 2.36196 0
M  V30 1300 H 125.964 3.10578 2.76913 0
M  V30 1301 H 124.84 3.788 3.97242 0
M  V30 1302 H 125.101 2.05186 3.916 0
M  V30 1303 N 124.16 -0.719506 1.40217 0
M  V30 1304 C 125.123 -1.8153 1.39927 0
M  V30 1305 C 126.123 -1.58095 0.293723 0
M  V30 1306 O 127.313 -1.65209 0.552429 0
M  V30 1307 C 124.445 -3.19561 1.18716 0
M  V30 1308 H 125.638 -1.83186 2.37451 0
M  V30 1309 H 123.191 -0.924746 1.26008 0
M  V30 1310 H 123.926 -3.23557 0.219366 0
M  V30 1311 H 123.711 -3.3797 1.98793 0
M  V30 1312 H 125.201 -3.99598 1.21291 0
M  V30 1313 N 125.638 -1.25649 -0.95132 0
M  V30 1314 C 126.884 -1.10757 -1.69884 0
M  V30 1315 C 127.217 0.350061 -1.91019 0
M  V30 1316 O 126.492 1.25783 -1.48354 0
M  V30 1317 C 126.775 -1.86606 -3.07978 0
M  V30 1318 C 126.628 -3.40217 -2.94232 0
M  V30 1319 C 127.947 -1.65182 -4.07925 0
M  V30 1320 H 125.066 -0.40374 -0.616574 0
M  V30 1321 H 127.708 -1.54521 -1.10558 0
M  V30 1322 H 125.858 -1.49409 -3.58621 0
M  V30 1323 H 127.53 -3.87108 -2.50889 0
M  V30 1324 H 125.773 -3.67759 -2.30078 0
M  V30 1325 H 126.444 -3.88505 -3.92133 0
M  V30 1326 H 128.92 -1.9757 -3.66204 0
M  V30 1327 H 127.796 -2.20683 -5.02583 0
M  V30 1328 H 128.057 -0.593933 -4.38092 0
M  V30 1329 N 127.117 1.15442 -1.07289 0
M  V30 1330 C 128.533 1.38201 -0.798288 0
M  V30 1331 C 128.733 1.92429 0.597769 0
M  V30 1332 O 127.789 2.12962 1.3566 0
M  V30 1333 C 129.102 2.35357 -1.87156 0
M  V30 1334 C 130.65 2.49021 -1.89624 0
M  V30 1335 C 131.125 3.49468 -2.96034 0
M  V30 1336 N 132.616 3.57003 -2.95132 0
M  V30 1337 C 133.351 4.34543 -3.74112 0
M  V30 1338 N 132.847 5.15421 -4.6294 0
M  V30 1339 N 134.64 4.29625 -3.62462 0
M  V30 1340 H 126.791 0.78584 -1.97328 0
M  V30 1341 H 129.054 0.408065 -0.855679 0
M  V30 1342 H 128.76 2.02626 -2.87464 0
M  V30 1343 H 128.634 3.35129 -1.73114 0
M  V30 1344 H 131.021 2.81051 -0.899687 0
M  V30 1345 H 131.102 1.4925 -2.07745 0
M  V30 1346 H 130.746 3.18173 -3.95889 0
M  V30 1347 H 130.676 4.48992 -2.75161 0
M  V30 1348 H 133.167 2.99276 -2.30743 0
M  V30 1349 H 133.48 5.7183 -5.19837 0
M  V30 1350 H 131.825 5.14729 -4.66989 0
M  V30 1351 H 135.016 3.65505 -2.92444 0
M  V30 1352 H 135.189 4.89807 -4.24256 0
M  V30 1353 N 128.595 0.856903 1.32268 0
M  V30 1354 C 129.558 0.308171 2.27119 0
M  V30 1355 C 130.558 -0.533421 1.51695 0
M  V30 1356 O 131.748 -0.344607 1.70757 0
M  V30 1357 C 128.88 -0.563757 3.36206 0
M  V30 1358 H 130.073 1.14535 2.77167 0
M  V30 1359 H 127.626 0.631421 1.42978 0
M  V30 1360 H 128.361 -1.42266 2.91429 0
M  V30 1361 H 128.146 0.0386749 3.92081 0
M  V30 1362 H 129.636 -0.940386 4.06874 0
M  V30 1363 N 130.073 -1.45103 0.615059 0
M  V30 1364 C 131.35 -1.95549 0.0448276 0
M  V30 1365 C 131.73 -1.55737 -1.4251 0
M  V30 1366 O 131.078 -0.823556 -2.13143 0
M  V30 1367 C 131.288 -3.48098 0.250785 0
M  V30 1368 C 132.636 -4.24384 0.135509 0
M  V30 1369 O 133.66 -3.55738 0.181299 0
M  V30 1370 O 132.519 -5.46493 0.0268878 0
M  V30 1371 H 129.613 -0.8264 -0.0314845 0
M  V30 1372 H 132.159 -1.55232 0.685642 0
M  V30 1373 H 130.931 -3.7007 1.27139 0
M  V30 1374 H 130.554 -3.95323 -0.424937 0
M  V30 1375 N 131.551 -0.354651 -1.53558 0
M  V30 1376 C 132.797 0.231422 -2.02079 0
M  V30 1377 C 133.152 1.47308 -1.23767 0
M  V30 1378 O 132.445 1.8891 -0.319947 0
M  V30 1379 C 132.639 0.587121 -3.52545 0
M  V30 1380 C 132.468 -0.618513 -4.45426 0
M  V30 1381 C 131.238 -1.12724 -4.92566 0
M  V30 1382 C 133.436 -1.48039 -4.92533 0
M  V30 1383 N 131.418 -2.29404 -5.69427 0
M  V30 1384 C 132.789 -2.49397 -5.67628 0
M  V30 1385 C 134.844 -1.50454 -4.74624 0
M  V30 1386 C 133.547 -3.53013 -6.26717 0
M  V30 1387 C 135.573 -2.52958 -5.34571 0
M  V30 1388 C 134.935 -3.5304 -6.09543 0
M  V30 1389 H 131.034 0.0476909 -0.780544 0
M  V30 1390 H 133.618 -0.496727 -1.88257 0
M  V30 1391 H 131.789 1.28436 -3.6655 0
M  V30 1392 H 133.521 1.15734 -3.87799 0
M  V30 1393 H 130.276 -0.693577 -4.68494 0
M  V30 1394 H 130.7 -2.88347 -6.12524 0
M  V30 1395 H 135.342 -0.744356 -4.16196 0
M  V30 1396 H 133.06 -4.2992 -6.84247 0
M  V30 1397 H 136.646 -2.55667 -5.22614 0
M  V30 1398 H 135.526 -4.31056 -6.55103 0
M  V30 1399 N 133.029 1.57378 -0.0835403 0
M  V30 1400 C 134.445 1.57246 0.273109 0
M  V30 1401 C 134.645 1.09385 1.69225 0
M  V30 1402 O 133.701 0.765051 2.40631 0
M  V30 1403 C 135.014 3.00614 0.0720628 0
M  V30 1404 C 136.562 3.12684 0.1407 0
M  V30 1405 C 137.037 4.57989 -0.0322094 0
M  V30 1406 N 138.528 4.63194 0.0230085 0
M  V30 1407 C 139.263 5.73335 -0.0861941 0
M  V30 1408 N 138.759 6.9235 -0.24958 0
M  V30 1409 N 140.552 5.62093 -0.0282886 0
M  V30 1410 H 132.703 1.86801 -1.0109 0
M  V30 1411 H 134.966 0.861687 -0.395222 0
M  V30 1412 H 134.672 3.39786 -0.907662 0
M  V30 1413 H 134.546 3.68193 0.81936 0
M  V30 1414 H 136.933 2.73391 1.11092 0
M  V30 1415 H 137.014 2.47719 -0.637896 0
M  V30 1416 H 136.658 4.97973 -0.999247 0
M  V30 1417 H 136.588 5.21 0.765937 0
M  V30 1418 H 139.079 3.77613 0.14722 0
M  V30 1419 H 139.392 7.72117 -0.324733 0
M  V30 1420 H 137.737 6.94415 -0.285097 0
M  V30 1421 H 140.928 4.67997 0.0981408 0
M  V30 1422 H 141.101 6.47895 -0.116845 0
M  V30 1423 N 134.507 -0.190092 1.56449 0
M  V30 1424 C 135.755 -0.907908 1.80559 0
M  V30 1425 C 136.076 -1.83583 0.657438 0
M  V30 1426 O 135.346 -1.93203 -0.323924 0
M  V30 1427 H 133.926 -0.338247 0.666032 0
M  V30 1428 H 136.588 -0.194403 1.93928 0
M  V30 1429 H 135.684 -1.49604 2.73907 0
M  V30 1430 N 135.985 -1.50799 -0.457987 0
M  V30 1431 C 136.917 -1.66786 -1.57211 0
M  V30 1432 C 137.93 -0.548962 -1.53265 0
M  V30 1433 O 139.119 -0.8226 -1.58416 0
M  V30 1434 C 136.219 -1.64834 -2.96113 0
M  V30 1435 C 135.392 -2.92971 -3.24787 0
M  V30 1436 C 134.451 -2.83485 -4.43309 0
M  V30 1437 O 133.477 -3.5744 -4.42973 0
M  V30 1438 N 134.679 -1.97929 -5.45714 0
M  V30 1439 H 137.444 -2.62889 -1.43909 0
M  V30 1440 H 135.005 -1.48427 -0.646617 0
M  V30 1441 H 136.997 -1.56084 -3.7339 0
M  V30 1442 H 135.567 -0.764118 -3.03117 0
M  V30 1443 H 134.787 -3.15749 -2.36 0
M  V30 1444 H 136.075 -3.77834 -3.40762 0
M  V30 1445 H 135.473 -1.37182 -5.48815 0
M  V30 1446 H 134.03 -1.95073 -6.21924 0
M  V30 1447 N 137.463 0.71206 -1.40597 0
M  V30 1448 C 138.879 1.02058 -1.22704 0
M  V30 1449 C 139.079 2.01228 -0.104729 0
M  V30 1450 O 138.135 2.4674 0.53624 0
M  V30 1451 C 139.448 1.56094 -2.57012 0
M  V30 1452 C 140.996 1.6806 -2.64054 0
M  V30 1453 C 141.471 2.25501 -3.9864 0
M  V30 1454 N 142.962 2.32882 -4.004 0
M  V30 1455 C 143.697 2.78317 -5.01325 0
M  V30 1456 N 143.193 3.23478 -6.12645 0
M  V30 1457 N 144.986 2.77733 -4.88693 0
M  V30 1458 H 137.137 0.0547896 -2.12329 0
M  V30 1459 H 139.4 0.0869027 -0.944008 0
M  V30 1460 H 139.106 0.906865 -3.39807 0
M  V30 1461 H 138.98 2.54564 -2.78347 0
M  V30 1462 H 141.367 2.32583 -1.81629 0
M  V30 1463 H 141.448 0.681802 -2.46546 0
M  V30 1464 H 141.092 1.61598 -4.81506 0
M  V30 1465 H 141.022 3.26102 -4.13479 0
M  V30 1466 H 143.513 2.00991 -3.20017 0
M  V30 1467 H 143.826 3.56725 -6.85542 0
M  V30 1468 H 142.171 3.21429 -6.16205 0
M  V30 1469 H 145.362 2.4179 -4.00818 0
M  V30 1470 H 145.535 3.12826 -5.67489 0
M  V30 1471 N 138.941 1.26152 0.944643 0
M  V30 1472 C 139.871 1.09902 2.06019 0
M  V30 1473 C 140.852 0.00519538 1.70099 0
M  V30 1474 O 142.037 0.176583 1.93396 0
M  V30 1475 C 139.167 0.727562 3.39594 0
M  V30 1476 C 138.121 1.77274 3.89561 0
M  V30 1477 C 137.447 1.25569 5.19747 0
M  V30 1478 C 138.747 3.17357 4.14827 0
M  V30 1479 H 140.441 2.03217 2.19871 0
M  V30 1480 H 137.987 0.978452 1.05652 0
M  V30 1481 H 139.94 0.600777 4.17095 0
M  V30 1482 H 138.664 -0.241287 3.25707 0
M  V30 1483 H 137.323 1.88814 3.14237 0
M  V30 1484 H 136.971 0.276783 5.02238 0
M  V30 1485 H 136.671 1.95433 5.54148 0
M  V30 1486 H 138.195 1.1415 5.99835 0
M  V30 1487 H 139.609 3.08914 4.82954 0
M  V30 1488 H 138.006 3.84781 4.60504 0
M  V30 1489 H 139.076 3.63673 3.20734 0
M  V30 1490 N 140.419 -1.14872 1.07899 0
M  V30 1491 C 141.665 -1.86064 0.806725 0
M  V30 1492 C 141.998 -1.82434 -0.665706 0
M  V30 1493 O 141.273 -1.25138 -1.48899 0
M  V30 1494 C 141.556 -3.34929 1.32267 0
M  V30 1495 C 141.409 -3.47161 2.86006 0
M  V30 1496 C 142.728 -4.29863 0.943717 0
M  V30 1497 H 139.847 -0.675591 0.294526 0
M  V30 1498 H 142.489 -1.34925 1.33773 0
M  V30 1499 H 140.639 -3.78611 0.870974 0
M  V30 1500 H 142.311 -3.12302 3.39507 0
M  V30 1501 H 140.554 -2.88539 3.23925 0
M  V30 1502 H 141.225 -4.51777 3.17177 0
M  V30 1503 H 143.701 -3.9417 1.33302 0
M  V30 1504 H 142.577 -5.32494 1.33198 0
M  V30 1505 H 142.838 -4.41846 -0.149796 0
M  V30 1506 N 141.898 -0.863906 -1.31812 0
M  V30 1507 C 143.123 -0.48527 -2.01643 0
M  V30 1508 C 143.548 0.913058 -1.64453 0
M  V30 1509 O 142.906 1.6014 -0.849985 0
M  V30 1510 C 142.954 -0.642625 -3.54828 0
M  V30 1511 O 142.058 0.320659 -4.11151 0
M  V30 1512 H 141.399 -0.193793 -0.635091 0
M  V30 1513 H 143.929 -1.16565 -1.68148 0
M  V30 1514 H 143.939 -0.533628 -4.04495 0
M  V30 1515 H 142.614 -1.66227 -3.81237 0
M  V30 1516 H 141.191 0.167126 -3.72525 0
M  V30 1517 N 143.376 1.44774 -0.622745 0
M  V30 1518 C 144.339 2.29069 0.0774015 0
M  V30 1519 C 145.339 1.4059 0.780461 0
M  V30 1520 O 146.529 1.62551 0.626322 0
M  V30 1521 C 143.661 3.21974 1.12006 0
M  V30 1522 H 144.854 2.92459 -0.663901 0
M  V30 1523 H 142.407 1.51548 -0.382486 0
M  V30 1524 H 143.142 2.63417 1.89162 0
M  V30 1525 H 142.927 3.87168 0.619951 0
M  V30 1526 H 144.417 3.85318 1.60995 0
M  V30 1527 N 144.854 0.36279 1.53368 0
M  V30 1528 C 145.784 -0.476976 2.28576 0
M  V30 1529 C 146.765 -1.08631 1.30894 0
M  V30 1530 O 147.95 -1.10409 1.59761 0
M  V30 1531 C 145.08 -1.61828 3.07293 0
M  V30 1532 C 144.034 -1.13633 4.1264 0
M  V30 1533 C 143.36 -2.36766 4.79423 0
M  V30 1534 C 144.66 -0.223061 5.21823 0
M  V30 1535 H 146.354 0.150474 2.99022 0
M  V30 1536 H 143.9 0.0738103 1.43811 0
M  V30 1537 H 145.853 -2.21237 3.58653 0
M  V30 1538 H 144.577 -2.27292 2.34533 0
M  V30 1539 H 143.236 -0.564945 3.62221 0
M  V30 1540 H 142.884 -3.0068 4.03238 0
M  V30 1541 H 142.584 -2.05192 5.50609 0
M  V30 1542 H 144.108 -2.96865 5.33576 0
M  V30 1543 H 145.522 -0.724545 5.68703 0
M  V30 1544 H 143.919 0.001678 6.001 0
M  V30 1545 H 144.989 0.735553 4.79289 0
M  V30 1546 N 146.332 -1.57332 0.0918853 0
M  V30 1547 C 147.262 -2.16872 -0.865371 0
M  V30 1548 C 148.243 -1.10118 -1.29646 0
M  V30 1549 O 149.428 -1.38242 -1.36392 0
M  V30 1550 C 146.558 -2.74649 -2.12569 0
M  V30 1551 C 145.512 -3.86747 -1.83333 0
M  V30 1552 C 144.838 -4.31212 -3.16166 0
M  V30 1553 C 146.138 -5.10089 -1.1228 0
M  V30 1554 H 147.832 -2.97114 -0.369307 0
M  V30 1555 H 145.378 -1.42918 -0.176194 0
M  V30 1556 H 147.331 -3.14952 -2.7997 0
M  V30 1557 H 146.055 -1.91657 -2.64452 0
M  V30 1558 H 144.714 -3.46978 -1.18331 0
M  V30 1559 H 144.362 -3.45115 -3.6593 0
M  V30 1560 H 144.062 -5.06788 -2.97388 0
M  V30 1561 H 145.586 -4.74146 -3.84731 0
M  V30 1562 H 147 -5.47582 -1.69785 0
M  V30 1563 H 145.397 -5.91073 -1.03693 0
M  V30 1564 H 146.467 -4.84786 -0.105041 0
M  V30 1565 N 147.81 0.181792 -1.56548 0
M  V30 1566 C 149.087 0.926765 -1.72251 0
M  V30 1567 C 149.467 2.00831 -0.650386 0
M  V30 1568 O 148.815 2.26008 0.336521 0
M  V30 1569 C 149.025 1.50106 -3.1507 0
M  V30 1570 C 150.373 1.97805 -3.75711 0
M  V30 1571 O 151.397 1.59922 -3.18282 0
M  V30 1572 O 150.256 2.67555 -4.76525 0
M  V30 1573 H 147.35 0.435506 -0.703039 0
M  V30 1574 H 149.896 0.170443 -1.68842 0
M  V30 1575 H 148.668 0.72212 -3.84579 0
M  V30 1576 H 148.291 2.32186 -3.22763 0
M  V30 1577 N 149.288 1.51039 0.449983 0
M  V30 1578 C 150.251 1.70863 1.5277 0
M  V30 1579 C 151.251 0.578846 1.5002 0
M  V30 1580 O 152.441 0.846213 1.52266 0
M  V30 1581 C 149.573 1.75341 2.9235 0
M  V30 1582 H 150.766 2.67034 1.36502 0
M  V30 1583 H 148.319 1.40838 0.677812 0
M  V30 1584 H 149.054 0.809383 3.14037 0
M  V30 1585 H 148.839 2.57436 2.95752 0
M  V30 1586 H 150.329 1.92559 3.70555 0
M  V30 1587 N 150.766 -0.704594 1.40972 0
M  V30 1588 C 152.012 -1.46675 1.40051 0
M  V30 1589 C 152.345 -1.94199 0.00641102 0
M  V30 1590 O 151.62 -1.68916 -0.964235 0
M  V30 1591 C 151.903 -2.68505 2.39952 0
M  V30 1592 C 151.756 -2.26805 3.88432 0
M  V30 1593 C 153.075 -3.70686 2.37233 0
M  V30 1594 H 150.194 -0.532015 0.510028 0
M  V30 1595 H 152.836 -0.803255 1.72185 0
M  V30 1596 H 150.986 -3.25114 2.1268 0
M  V30 1597 H 152.658 -1.75592 4.26574 0
M  V30 1598 H 150.901 -1.58685 4.03734 0
M  V30 1599 H 151.572 -3.14181 4.53866 0
M  V30 1600 H 154.048 -3.23731 2.61415 0
M  V30 1601 H 152.924 -4.53553 3.09162 0
M  V30 1602 H 153.185 -4.19754 1.38777 0
M  V30 1603 N 152.244 -1.26651 -0.937939 0
M  V30 1604 C 153.154 -1.10276 -2.07066 0
M  V30 1605 C 154.17 -0.0354197 -1.73964 0
M  V30 1606 O 155.346 -0.239816 -1.99967 0
M  V30 1607 C 152.411 -0.740887 -3.38691 0
M  V30 1608 C 151.472 -1.88799 -3.85556 0
M  V30 1609 C 150.705 -1.54329 -5.10899 0
M  V30 1610 O 150.928 -0.446494 -5.6865 0
M  V30 1611 O 149.862 -2.37911 -5.52885 0
M  V30 1612 H 153.688 -2.05309 -2.23789 0
M  V30 1613 H 151.273 -1.05743 -1.0554 0
M  V30 1614 H 153.155 -0.55195 -4.1777 0
M  V30 1615 H 151.83 0.180022 -3.23199 0
M  V30 1616 H 150.737 -2.13191 -3.07409 0
M  V30 1617 H 152.07 -2.78874 -4.05574 0
M  V30 1618 N 153.722 1.14298 -1.08507 0
M  V30 1619 C 154.654 2.1907 -0.673859 0
M  V30 1620 C 155.667 1.60381 0.279577 0
M  V30 1621 O 156.856 1.78374 0.0670754 0
M  V30 1622 C 153.956 3.38888 0.0290979 0
M  V30 1623 C 153.129 4.27103 -0.943494 0
M  V30 1624 C 152.188 5.25477 -0.275676 0
M  V30 1625 O 151.214 5.61709 -0.920401 0
M  V30 1626 N 152.416 5.7227 0.974013 0
M  V30 1627 H 155.181 2.54965 -1.57521 0
M  V30 1628 H 152.742 1.29528 -0.971287 0
M  V30 1629 H 154.734 4.01761 0.48683 0
M  V30 1630 H 153.304 3.01309 0.832555 0
M  V30 1631 H 152.524 3.61149 -1.58004 0
M  V30 1632 H 153.812 4.82905 -1.60251 0
M  V30 1633 H 153.21 5.44965 1.51755 0
M  V30 1634 H 151.767 6.37127 1.37522 0
M  V30 1635 N 155.201 0.870884 1.31352 0
M  V30 1636 C 156.447 0.482987 1.96965 0
M  V30 1637 C 156.78 -0.962462 1.68672 0
M  V30 1638 O 156.055 -1.6779 0.98371 0
M  V30 1639 C 156.338 0.741752 3.52378 0
M  V30 1640 C 156.191 2.2368 3.9024 0
M  V30 1641 C 157.51 0.208838 4.39604 0
M  V30 1642 H 154.629 0.176955 0.715441 0
M  V30 1643 H 157.271 1.09229 1.55464 0
M  V30 1644 H 155.421 0.223149 3.87859 0
M  V30 1645 H 157.093 2.82273 3.64856 0
M  V30 1646 H 155.336 2.70901 3.38814 0
M  V30 1647 H 156.007 2.3685 4.98604 0
M  V30 1648 H 158.483 0.652529 4.10952 0
M  V30 1649 H 157.359 0.419336 5.47296 0
M  V30 1650 H 157.62 -0.889275 4.33064 0
M  V30 1651 N 156.679 -1.44442 0.630414 0
M  V30 1652 C 157.612 -2.27862 -0.124247 0
M  V30 1653 C 158.59 -1.38495 -0.851931 0
M  V30 1654 O 159.774 -1.67935 -0.856166 0
M  V30 1655 C 156.901 -3.17407 -1.18197 0
M  V30 1656 C 155.947 -4.22875 -0.554892 0
M  V30 1657 S 156.78 -5.31485 0.654489 0
M  V30 1658 C 157.936 -6.246 -0.40326 0
M  V30 1659 H 158.169 -2.91519 0.583435 0
M  V30 1660 H 155.702 -1.48618 0.418565 0
M  V30 1661 H 157.66 -3.69549 -1.78728 0
M  V30 1662 H 156.321 -2.52971 -1.86184 0
M  V30 1663 H 155.514 -4.85542 -1.35148 0
M  V30 1664 H 155.116 -3.73992 -0.0242105 0
M  V30 1665 H 157.408 -6.65375 -1.27602 0
M  V30 1666 H 158.351 -7.07851 0.187813 0
M  V30 1667 H 158.759 -5.59775 -0.728837 0
M  V30 1668 N 158.157 -0.370918 -1.53173 0
M  V30 1669 C 159.573 -0.0200818 -1.59587 0
M  V30 1670 C 159.773 1.46279 -1.38581 0
M  V30 1671 O 158.829 2.22506 -1.19363 0
M  V30 1672 C 160.142 -0.4808 -2.96831 0
M  V30 1673 C 161.69 -0.435477 -3.09956 0
M  V30 1674 C 162.165 -0.872092 -4.4962 0
M  V30 1675 N 163.656 -0.827364 -4.55751 0
M  V30 1676 C 164.391 -1.13683 -5.62018 0
M  V30 1677 N 163.887 -1.51584 -6.76014 0
M  V30 1678 N 165.68 -1.05927 -5.52029 0
M  V30 1679 H 157.831 -1.33652 -1.65079 0
M  V30 1680 H 160.094 -0.546634 -0.774529 0
M  V30 1681 H 159.8 -1.51577 -3.1736 0
M  V30 1682 H 159.674 0.129796 -3.76977 0
M  V30 1683 H 162.061 0.590371 -2.89134 0
M  V30 1684 H 162.142 -1.08164 -2.31806 0
M  V30 1685 H 161.786 -1.89608 -4.71181 0
M  V30 1686 H 161.716 -0.203127 -5.26208 0
M  V30 1687 H 164.207 -0.548216 -3.73902 0
M  V30 1688 H 164.52 -1.73609 -7.53047 0
M  V30 1689 H 162.865 -1.55454 -6.77391 0
M  V30 1690 H 166.056 -0.762321 -4.61851 0
M  V30 1691 H 166.229 -1.30378 -6.34749 0
M  V30 1692 N 159.635 1.57281 -0.100228 0
M  V30 1693 C 160.883 1.94153 0.561157 0
M  V30 1694 C 161.204 0.983157 1.68401 0
M  V30 1695 O 160.474 0.0361132 1.95867 0
M  V30 1696 H 159.054 0.716791 0.210283 0
M  V30 1697 H 161.716 1.94202 -0.164765 0
M  V30 1698 H 160.812 2.96709 0.968008 0
M  V30 1699 N 161.113 -0.173488 1.56642 0
M  V30 1700 C 162.076 -1.19859 1.95362 0
M  V30 1701 C 163.076 -1.37296 0.83704 0
M  V30 1702 O 164.266 -1.34739 1.10413 0
M  V30 1703 C 161.398 -2.56405 2.24654 0
M  V30 1704 H 162.591 -0.867062 2.87092 0
M  V30 1705 H 160.144 -0.415853 1.50666 0
M  V30 1706 H 160.879 -2.94576 1.35631 0
M  V30 1707 H 160.664 -2.45115 3.06041 0
M  V30 1708 H 162.154 -3.30287 2.5554 0
M  V30 1709 N 162.591 -1.51276 -0.441967 0
M  V30 1710 C 163.821 -1.67273 -1.21257 0
M  V30 1711 C 164.229 -0.367624 -1.85594 0
M  V30 1712 O 163.572 0.663349 -1.71305 0
M  V30 1713 C 163.634 -2.72807 -2.34129 0
M  V30 1714 C 163.298 -4.1554 -1.90198 0
M  V30 1715 C 164.295 -5.00471 -1.40801 0
M  V30 1716 C 161.98 -4.61616 -1.9803 0
M  V30 1717 C 163.974 -6.29536 -0.998174 0
M  V30 1718 C 161.661 -5.90679 -1.56658 0
M  V30 1719 C 162.659 -6.74466 -1.07633 0
M  V30 1720 O 162.347 -8.01116 -0.668459 0
M  V30 1721 H 162.079 -0.564614 -0.371734 0
M  V30 1722 H 164.633 -1.9843 -0.530521 0
M  V30 1723 H 162.863 -2.36954 -3.05597 0
M  V30 1724 H 164.552 -2.77729 -2.96009 0
M  V30 1725 H 165.318 -4.66079 -1.34148 0
M  V30 1726 H 161.197 -3.96526 -2.35135 0
M  V30 1727 H 164.741 -6.94885 -0.61482 0
M  V30 1728 H 160.638 -6.24586 -1.62979 0
M  V30 1729 H 161.406 -8.14633 -0.794722 0
M  V30 1730 N 164.069 0.697108 -1.41344 0
M  V30 1731 C 165.001 1.8224 -1.39001 0
M  V30 1732 C 166.014 1.60152 -0.292428 0
M  V30 1733 O 167.203 1.69684 -0.554048 0
M  V30 1734 C 164.303 3.18976 -1.14489 0
M  V30 1735 C 163.476 3.68105 -2.36258 0
M  V30 1736 C 162.535 4.83506 -2.07625 0
M  V30 1737 O 161.561 4.95201 -2.8065 0
M  V30 1738 N 162.763 5.70637 -1.06555 0
M  V30 1739 H 165.528 1.84742 -2.35988 0
M  V30 1740 H 163.089 0.87937 -1.35936 0
M  V30 1741 H 165.081 3.93801 -0.932885 0
M  V30 1742 H 163.651 3.11508 -0.261043 0
M  V30 1743 H 162.871 2.84204 -2.7317 0
M  V30 1744 H 164.159 3.97667 -3.17393 0
M  V30 1745 H 163.557 5.63817 -0.461125 0
M  V30 1746 H 162.114 6.45368 -0.913444 0
M  V30 1747 N 165.547 1.27147 0.931209 0
M  V30 1748 C 166.477 1.12081 2.04842 0
M  V30 1749 C 167.458 0.0232364 1.70084 0
M  V30 1750 O 168.643 0.197085 1.93197 0
M  V30 1751 C 165.773 0.76354 3.38803 0
M  V30 1752 C 164.727 1.81396 3.87659 0
M  V30 1753 C 164.053 1.31075 5.18385 0
M  V30 1754 C 165.353 3.21739 4.11438 0
M  V30 1755 H 167.047 2.05537 2.17703 0
M  V30 1756 H 164.593 0.989603 1.04608 0
M  V30 1757 H 166.546 0.644982 4.16435 0
M  V30 1758 H 165.27 -0.206727 3.25945 0
M  V30 1759 H 163.929 1.92136 3.12217 0
M  V30 1760 H 163.577 0.330037 5.01916 0
M  V30 1761 H 163.277 2.013 5.52044 0
M  V30 1762 H 164.801 1.20506 5.98591 0
M  V30 1763 H 166.215 3.14019 4.79651 0
M  V30 1764 H 164.612 3.89644 4.56397 0
M  V30 1765 H 165.682 3.67054 3.16859 0
M  V30 1766 N 167.025 -1.13721 1.09112 0
M  V30 1767 C 168.273 -1.84559 0.823562 0
M  V30 1768 C 168.594 -1.83754 -0.652658 0
M  V30 1769 O 167.864 -1.29102 -1.47342 0
M  V30 1770 H 166.444 -0.683376 0.301673 0
M  V30 1771 H 169.106 -1.37771 1.37859 0
M  V30 1772 H 168.202 -2.8917 1.17419 0
M  V30 1773 N 168.503 -0.877838 -1.30888 0
M  V30 1774 C 169.466 -0.344265 -2.266 0
M  V30 1775 C 170.466 0.50922 -1.52524 0
M  V30 1776 O 171.656 0.317398 -1.71284 0
M  V30 1777 C 168.788 0.510198 -3.37061 0
M  V30 1778 H 169.981 -1.1893 -2.7531 0
M  V30 1779 H 167.534 -0.654088 -1.41956 0
M  V30 1780 H 168.269 1.37612 -2.93655 0
M  V30 1781 H 168.054 -0.101047 -3.9197 0
M  V30 1782 H 169.544 0.875537 -4.08319 0
M  V30 1783 N 169.982 1.44106 -0.638065 0
M  V30 1784 C 170.912 2.33448 0.0494287 0
M  V30 1785 C 171.893 1.48606 0.827672 0
M  V30 1786 O 173.078 1.77308 0.792173 0
M  V30 1787 C 170.208 3.31771 1.02691 0
M  V30 1788 C 169.162 4.26485 0.359823 0
M  V30 1789 C 168.488 5.14729 1.44769 0
M  V30 1790 C 169.788 5.17056 -0.738296 0
M  V30 1791 H 171.482 2.91183 -0.696636 0
M  V30 1792 H 169.028 1.40014 -0.336456 0
M  V30 1793 H 170.981 3.93161 1.51666 0
M  V30 1794 H 169.705 2.7226 1.80395 0
M  V30 1795 H 168.364 3.66437 -0.10934 0
M  V30 1796 H 168.012 4.51566 2.21578 0
M  V30 1797 H 167.712 5.78913 1.00668 0
M  V30 1798 H 169.236 5.78991 1.93911 0
M  V30 1799 H 170.65 5.72342 -0.331354 0
M  V30 1800 H 169.047 5.89879 -1.10286 0
M  V30 1801 H 170.117 4.57652 -1.60258 0
M  V30 1802 N 171.46 0.379036 1.52974 0
M  V30 1803 C 172.685 -0.209353 2.06341 0
M  V30 1804 C 173.11 -1.40583 1.24972 0
M  V30 1805 O 172.468 -1.79246 0.272155 0
M  V30 1806 C 172.516 -0.567786 3.56102 0
M  V30 1807 O 171.62 -1.66318 3.77375 0
M  V30 1808 H 170.961 -0.0272919 0.663439 0
M  V30 1809 H 173.491 0.543536 1.97248 0
M  V30 1810 H 173.501 -0.835003 3.99364 0
M  V30 1811 H 172.176 0.307013 4.14765 0
M  V30 1812 H 170.753 -1.39048 3.46006 0
M  V30 1813 N 172.938 -1.57226 0.108567 0
M  V30 1814 C 174.163 -1.99604 -0.563303 0
M  V30 1815 C 174.588 -0.987563 -1.6009 0
M  V30 1816 O 173.946 0.0421687 -1.81251 0
M  V30 1817 C 173.994 -3.40902 -1.17552 0
M  V30 1818 O 173.098 -3.42896 -2.2912 0
M  V30 1819 H 172.439 -0.648704 -0.1417 0
M  V30 1820 H 174.969 -2.03679 0.193961 0
M  V30 1821 H 174.979 -3.78886 -1.51357 0
M  V30 1822 H 173.654 -4.1382 -0.415445 0
M  V30 1823 H 172.231 -3.1672 -1.96832 0
M  V30 1824 N 174.416 0.165178 -1.56732 0
M  V30 1825 C 175.641 0.900253 -1.86843 0
M  V30 1826 C 176.066 1.74766 -0.695596 0
M  V30 1827 O 175.424 1.77786 0.35522 0
M  V30 1828 C 175.472 1.74777 -3.15413 0
M  V30 1829 O 174.576 2.85007 -2.98068 0
M  V30 1830 H 173.917 0.251832 -0.614391 0
M  V30 1831 H 176.447 0.161468 -2.03962 0
M  V30 1832 H 176.457 2.14646 -3.46974 0
M  V30 1833 H 175.132 1.12537 -4.00385 0
M  V30 1834 H 173.709 2.48676 -2.77875 0
M  V30 1835 N 175.894 1.51508 0.433938 0
M  V30 1836 C 176.857 1.72473 1.50949 0
M  V30 1837 C 177.857 0.594725 1.49398 0
M  V30 1838 O 179.047 0.862315 1.5136 0
M  V30 1839 C 176.179 1.78431 2.90474 0
M  V30 1840 H 177.372 2.68467 1.33662 0
M  V30 1841 H 174.925 1.41549 0.662836 0
M  V30 1842 H 175.66 0.842645 3.13161 0
M  V30 1843 H 175.445 2.60558 2.93005 0
M  V30 1844 H 176.935 1.96479 3.68491 0
M  V30 1845 N 177.372 -0.689602 1.41712 0
M  V30 1846 C 178.788 -1.00093 1.24312 0
M  V30 1847 C 178.988 -2.01036 0.136729 0
M  V30 1848 O 178.044 -2.47562 -0.496918 0
M  V30 1849 C 179.357 -1.51985 2.59463 0
M  V30 1850 C 180.905 -1.63838 2.66695 0
M  V30 1851 C 181.38 -2.1913 4.02177 0
M  V30 1852 N 182.871 -2.26483 4.04054 0
M  V30 1853 C 183.606 -2.70306 5.0569 0
M  V30 1854 N 183.102 -3.13691 6.17713 0
M  V30 1855 N 184.895 -2.69923 4.9305 0
M  V30 1856 H 177.046 -0.0210029 2.1239 0
M  V30 1857 H 179.309 -0.0718733 0.945272 0
M  V30 1858 H 179.015 -0.85269 3.41207 0
M  V30 1859 H 178.889 -2.50103 2.82362 0
M  V30 1860 H 181.276 -2.29664 1.85306 0
M  V30 1861 H 181.357 -0.642492 2.476 0
M  V30 1862 H 181.001 -1.53918 4.84016 0
M  V30 1863 H 180.931 -3.19482 4.18615 0
M  V30 1864 H 183.422 -1.95874 3.23174 0
M  V30 1865 H 183.735 -3.45773 6.9113 0
M  V30 1866 H 182.08 -3.11585 6.21241 0
M  V30 1867 H 185.271 -2.35382 4.04614 0
M  V30 1868 H 185.444 -3.03758 5.72394 0
M  V30 1869 N 178.85 -1.27639 -0.924453 0
M  V30 1870 C 179.813 -1.10681 -2.00705 0
M  V30 1871 C 180.813 -0.0497823 -1.60723 0
M  V30 1872 O 182.003 -0.294654 -1.7169 0
M  V30 1873 C 179.135 -0.687164 -3.33902 0
M  V30 1874 H 180.328 -2.06817 -2.17179 0
M  V30 1875 H 177.881 -1.10473 -1.10569 0
M  V30 1876 H 178.616 0.275439 -3.23128 0
M  V30 1877 H 178.401 -1.45061 -3.6428 0
M  V30 1878 H 179.891 -0.590853 -4.13399 0
M  V30 1879 N 180.328 1.1314 -1.09713 0
M  V30 1880 C 181.744 1.36477 -0.827423 0
M  V30 1881 C 181.944 1.93654 0.556817 0
M  V30 1882 O 181 2.15791 1.31112 0
M  V30 1883 C 182.313 2.31334 -1.92106 0
M  V30 1884 C 183.861 2.44943 -1.94864 0
M  V30 1885 C 184.336 3.4311 -3.0338 0
M  V30 1886 N 185.827 3.50662 -3.02639 0
M  V30 1887 C 186.562 4.2651 -3.83246 0
M  V30 1888 N 186.058 5.05485 -4.73768 0
M  V30 1889 N 187.851 4.2184 -3.71493 0
M  V30 1890 H 180.002 0.743807 -1.9895 0
M  V30 1891 H 182.265 0.389823 -0.864143 0
M  V30 1892 H 181.971 1.96483 -2.91698 0
M  V30 1893 H 181.845 3.31381 -1.80184 0
M  V30 1894 H 184.232 2.79079 -0.959099 0
M  V30 1895 H 184.313 1.4481 -2.10864 0
M  V30 1896 H 183.957 3.09704 -4.02549 0
M  V30 1897 H 183.887 4.43055 -2.84622 0
M  V30 1898 H 186.378 2.94315 -2.37039 0
M  V30 1899 H 186.691 5.60675 -5.3185 0
M  V30 1900 H 185.036 5.04708 -4.77802 0
M  V30 1901 H 188.227 3.5922 -3.00131 0
M  V30 1902 H 188.4 4.80697 -4.3455 0
M  V30 1903 N 181.806 0.884767 1.30421 0
M  V30 1904 C 183.222 0.57874 1.48737 0
M  V30 1905 C 183.422 -0.883567 1.81095 0
M  V30 1906 O 182.478 -1.6648 1.89844 0
M  V30 1907 C 183.791 1.49171 2.61091 0
M  V30 1908 C 185.339 1.49532 2.74971 0
M  V30 1909 C 185.814 2.39421 3.90438 0
M  V30 1910 N 187.305 2.37383 3.97748 0
M  V30 1911 C 188.04 3.03647 4.86401 0
M  V30 1912 N 187.536 3.79136 5.79852 0
M  V30 1913 N 189.329 2.9288 4.79768 0
M  V30 1914 H 181.48 1.83075 1.0769 0
M  V30 1915 H 183.743 0.783637 0.533495 0
M  V30 1916 H 183.449 2.53291 2.44001 0
M  V30 1917 H 183.323 1.20113 3.57565 0
M  V30 1918 H 185.71 0.46163 2.91467 0
M  V30 1919 H 185.791 1.8262 1.79119 0
M  V30 1920 H 185.435 3.42874 3.74699 0
M  V30 1921 H 185.365 2.03649 4.85628 0
M  V30 1922 H 187.856 1.82525 3.30897 0
M  V30 1923 H 188.169 4.26789 6.4426 0
M  V30 1924 H 186.514 3.83243 5.79784 0
M  V30 1925 H 189.705 2.33433 4.05742 0
M  V30 1926 H 189.878 3.448 5.4865 0
M  V30 1927 N 183.284 -1.43765 0.645699 0
M  V30 1928 C 184.214 -2.33471 -0.0370477 0
M  V30 1929 C 185.195 -1.49042 -0.819779 0
M  V30 1930 O 186.38 -1.77726 -0.782758 0
M  V30 1931 C 183.51 -3.32311 -1.0093 0
M  V30 1932 C 182.464 -4.2667 -0.337201 0
M  V30 1933 C 181.79 -5.1549 -1.42037 0
M  V30 1934 C 183.09 -5.16657 0.765706 0
M  V30 1935 H 184.784 -2.90809 0.712069 0
M  V30 1936 H 182.33 -1.39834 0.343876 0
M  V30 1937 H 184.283 -3.9396 -1.49578 0
M  V30 1938 H 183.007 -2.73213 -1.78948 0
M  V30 1939 H 181.666 -3.66374 0.128771 0
M  V30 1940 H 181.314 -4.52735 -2.1918 0
M  V30 1941 H 181.014 -5.79438 -0.975966 0
M  V30 1942 H 182.538 -5.80012 -1.90838 0
M  V30 1943 H 183.952 -5.72158 0.361702 0
M  V30 1944 H 182.349 -5.89286 1.13413 0
M  V30 1945 H 183.419 -4.56796 1.62683 0
M  V30 1946 N 184.763 -0.387143 -1.52771 0
M  V30 1947 C 185.993 0.195585 -2.05672 0
M  V30 1948 C 186.401 1.41241 -1.25887 0
M  V30 1949 O 185.744 1.81265 -0.298081 0
M  V30 1950 C 185.806 0.632327 -3.53895 0
M  V30 1951 C 185.47 -0.470739 -4.54569 0
M  V30 1952 C 186.467 -1.32746 -5.02667 0
M  V30 1953 C 184.152 -0.637151 -4.98243 0
M  V30 1954 C 186.146 -2.33574 -5.93061 0
M  V30 1955 C 183.833 -1.64877 -5.88438 0
M  V30 1956 C 184.831 -2.49649 -6.35739 0
M  V30 1957 O 184.519 -3.49082 -7.24153 0
M  V30 1958 H 184.251 0.033658 -0.675162 0
M  V30 1959 H 186.805 -0.550221 -1.97893 0
M  V30 1960 H 185.035 1.43008 -3.59285 0
M  V30 1961 H 186.724 1.14048 -3.89548 0
M  V30 1962 H 187.49 -1.21019 -4.69659 0
M  V30 1963 H 183.369 0.0129567 -4.60998 0
M  V30 1964 H 186.913 -2.99777 -6.29904 0
M  V30 1965 H 182.81 -1.76643 -6.2086 0
M  V30 1966 H 183.578 -3.45065 -7.42208 0
M  V30 1967 N 186.241 1.57166 -0.116904 0
M  V30 1968 C 187.204 2.14039 0.819742 0
M  V30 1969 C 188.204 1.07477 1.19605 0
M  V30 1970 O 189.394 1.33263 1.1219 0
M  V30 1971 C 186.526 2.67891 2.10826 0
M  V30 1972 H 187.719 2.98128 0.325511 0
M  V30 1973 H 185.272 1.55739 0.132312 0
M  V30 1974 H 186.007 1.87384 2.64685 0
M  V30 1975 H 185.792 3.45823 1.84793 0
M  V30 1976 H 187.282 3.11809 2.77785 0
M  V30 1977 N 187.719 -0.156864 1.56817 0
M  V30 1978 C 188.944 -0.890331 1.87318 0
M  V30 1979 C 189.369 -1.74394 0.704855 0
M  V30 1980 O 188.727 -1.77972 -0.345786 0
M  V30 1981 C 188.775 -1.73102 3.16336 0
M  V30 1982 O 187.879 -2.83422 2.99576 0
M  V30 1983 H 187.22 -0.24857 0.615718 0
M  V30 1984 H 189.75 -0.150649 2.04045 0
M  V30 1985 H 189.76 -2.12803 3.48107 0
M  V30 1986 H 188.435 -1.10412 4.00976 0
M  V30 1987 H 187.012 -2.47199 2.7919 0
M  V30 1988 N 189.197 -1.51736 -0.425897 0
M  V30 1989 C 190.613 -1.40166 -0.76326 0
M  V30 1990 C 190.813 -0.492962 -1.95377 0
M  V30 1991 O 189.869 0.0475815 -2.52455 0
M  V30 1992 C 191.182 -2.82403 -1.03291 0
M  V30 1993 C 192.73 -2.91632 -1.13665 0
M  V30 1994 C 193.205 -4.34801 -1.43916 0
M  V30 1995 N 194.696 -4.3796 -1.50816 0
M  V30 1996 C 195.431 -5.4578 -1.75817 0
M  V30 1997 N 194.927 -6.63744 -1.98534 0
M  V30 1998 N 196.72 -5.33274 -1.77694 0
M  V30 1999 H 188.871 -2.09361 0.358 0
M  V30 2000 H 191.134 -0.942941 0.0978094 0
M  V30 2001 H 190.84 -3.50943 -0.230696 0
M  V30 2002 H 190.714 -3.22428 -1.95754 0
M  V30 2003 H 193.101 -2.23284 -1.92947 0
M  V30 2004 H 193.182 -2.55088 -0.190756 0
M  V30 2005 H 192.826 -5.03703 -0.65157 0
M  V30 2006 H 192.756 -4.68868 -2.39729 0
M  V30 2007 H 195.247 -3.52919 -1.35118 0
M  V30 2008 H 195.56 -7.41704 -2.17013 0
M  V30 2009 H 193.905 -6.66839 -1.95832 0
M  V30 2010 H 197.096 -4.40098 -1.59473 0
M  V30 2011 H 197.269 -6.1738 -1.9684 0
M  V30 2012 N 190.675 0.682077 -1.42076 0
M  V30 2013 C 191.923 1.4393 -1.41876 0
M  V30 2014 C 192.244 1.94971 -0.0335599 0
M  V30 2015 O 191.514 1.72591 0.926773 0
M  V30 2016 H 190.094 0.534085 -0.522267 0
M  V30 2017 H 192.756 0.806427 -1.77434 0
M  V30 2018 H 191.852 2.29588 -2.11414 0
M  V30 2019 N 192.153 1.28127 0.917671 0
M  V30 2020 C 193.399 1.16232 1.66918 0
M  V30 2021 C 193.754 -0.28701 1.90247 0
M  V30 2022 O 193.047 -1.20586 1.48895 0
M  V30 2023 C 193.241 1.89018 3.03327 0
M  V30 2024 C 193.07 3.4088 2.9331 0
M  V30 2025 C 191.84 4.10214 2.95047 0
M  V30 2026 C 194.038 4.36689 2.71675 0
M  V30 2027 N 192.02 5.48571 2.75577 0
M  V30 2028 C 193.391 5.62382 2.6101 0
M  V30 2029 C 195.446 4.26661 2.56641 0
M  V30 2030 C 194.149 6.79189 2.36843 0
M  V30 2031 C 196.175 5.432 2.33853 0
M  V30 2032 C 195.537 6.67855 2.23939 0
M  V30 2033 H 191.636 0.48024 0.617166 0
M  V30 2034 H 194.22 1.61727 1.08409 0
M  V30 2035 H 192.391 1.45963 3.59929 0
M  V30 2036 H 194.123 1.69541 3.67475 0
M  V30 2037 H 190.878 3.61762 3.05655 0
M  V30 2038 H 191.302 6.21287 2.68945 0
M  V30 2039 H 195.944 3.30998 2.63059 0
M  V30 2040 H 193.662 7.74926 2.29164 0
M  V30 2041 H 197.248 5.37328 2.23091 0
M  V30 2042 H 196.128 7.56511 2.06546 0
M  V30 2043 N 193.631 -1.12557 1.10312 0
M  V30 2044 C 194.561 -2.20341 0.772798 0
M  V30 2045 C 195.542 -1.68198 -0.25365 0
M  V30 2046 O 196.727 -1.93831 -0.119699 0
M  V30 2047 C 193.857 -3.46709 0.202443 0
M  V30 2048 C 192.811 -4.11996 1.15943 0
M  V30 2049 C 192.137 -5.328 0.450345 0
M  V30 2050 C 193.437 -4.5828 2.50552 0
M  V30 2051 H 195.131 -2.48229 1.674 0
M  V30 2052 H 192.677 -1.19308 0.806326 0
M  V30 2053 H 194.63 -4.2138 -0.0407752 0
M  V30 2054 H 193.354 -3.18245 -0.734001 0
M  V30 2055 H 192.013 -3.39305 1.38808 0
M  V30 2056 H 191.661 -5.00602 -0.490531 0
M  V30 2057 H 191.361 -5.7743 1.08851 0
M  V30 2058 H 192.885 -6.10219 0.215642 0
M  V30 2059 H 194.299 -5.2433 2.31843 0
M  V30 2060 H 192.696 -5.13683 3.10242 0
M  V30 2061 H 193.766 -3.72329 3.10643 0
M  V30 2062 N 195.109 -0.891671 -1.2995 0
M  V30 2063 C 196.52 -0.563104 -1.78006 0
M  V30 2064 C 196.871 0.920978 -1.73241 0
M  V30 2065 O 195.996 1.71987 -1.31337 0
M  V30 2066 C 196.591 -1.01539 -3.23226 0
M  V30 2067 C 195.15 -0.738124 -3.69092 0
M  V30 2068 C 194.297 -1.19461 -2.50249 0
M  V30 2069 H 197.248 -1.07522 -1.16725 0
M  V30 2070 H 197.269 -0.347217 -3.78912 0
M  V30 2071 H 196.781 -2.09555 -3.26662 0
M  V30 2072 H 194.882 0.329766 -3.71138 0
M  V30 2073 H 194.995 -1.33037 -4.60259 0
M  V30 2074 H 193.359 -0.613787 -2.47194 0
M  V30 2075 H 194.142 -2.28265 -2.56417 0
M  V30 2076 N 196.587 1.43421 -0.653314 0
M  V30 2077 C 197.833 2.02641 -0.175593 0
M  V30 2078 C 198.188 1.5062 1.19713 0
M  V30 2079 O 197.481 0.689697 1.78756 0
M  V30 2080 C 197.675 3.57176 -0.126623 0
M  V30 2081 C 197.504 4.24191 -1.49306 0
M  V30 2082 C 196.274 4.60257 -2.08547 0
M  V30 2083 C 198.472 4.53193 -2.43148 0
M  V30 2084 N 196.454 5.12345 -3.38194 0
M  V30 2085 C 197.825 5.06601 -3.57429 0
M  V30 2086 C 199.88 4.35161 -2.41949 0
M  V30 2087 C 198.583 5.43875 -4.70736 0
M  V30 2088 C 200.609 4.73498 -3.54336 0
M  V30 2089 C 199.971 5.27039 -4.67343 0
M  V30 2090 H 196.07 0.77441 -0.108686 0
M  V30 2091 H 198.654 1.74596 -0.861638 0
M  V30 2092 H 196.825 3.84784 0.528766 0
M  V30 2093 H 198.557 4.03078 0.36198 0
M  V30 2094 H 195.312 4.45302 -1.61255 0
M  V30 2095 H 195.736 5.42842 -4.04538 0
M  V30 2096 H 200.378 3.9304 -1.55818 0
M  V30 2097 H 198.096 5.8494 -5.57558 0
M  V30 2098 H 201.682 4.61241 -3.5461 0
M  V30 2099 H 200.562 5.56153 -5.52868 0
M  V30 2100 N 198.065 0.39524 1.52563 0
M  V30 2101 C 199.015 -0.4541 2.23432 0
M  V30 2102 C 199.999 -1.02482 1.24042 0
M  V30 2103 O 201.191 -0.949938 1.49349 0
M  V30 2104 C 198.32 -1.57769 3.049 0
M  V30 2105 C 197.406 -1.01842 4.1169 0
M  V30 2106 N 197.797 -0.184613 5.05463 0
M  V30 2107 C 196.095 -1.29033 4.26927 0
M  V30 2108 C 196.796 0.125013 5.81566 0
M  V30 2109 N 195.772 -0.480498 5.41472 0
M  V30 2110 H 199.574 0.189413 2.93289 0
M  V30 2111 H 197.088 0.204877 1.61102 0
M  V30 2112 H 199.085 -2.19862 3.54212 0
M  V30 2113 H 197.745 -2.22397 2.36579 0
M  V30 2114 H 198.756 0.178602 5.17592 0
M  V30 2115 H 195.433 -1.93721 3.69836 0
M  V30 2116 H 196.823 0.800962 6.67109 0
M  V30 2117 N 199.544 -1.57102 0.125237 0
M  V30 2118 C 200.792 -1.95021 -0.530198 0
M  V30 2119 C 201.113 -1.00982 -1.66816 0
M  V30 2120 O 200.383 -0.0672693 -1.95784 0
M  V30 2121 H 198.963 -0.720046 -0.198853 0
M  V30 2122 H 201.625 -1.93916 0.19564 0
M  V30 2123 H 200.721 -2.98211 -0.920681 0
M  V30 2124 N 201.022 0.148545 -1.56898 0
M  V30 2125 C 202.433 0.708766 -1.72723 0
M  V30 2126 C 202.784 1.81734 -0.739395 0
M  V30 2127 O 201.909 2.16194 0.0943169 0
M  V30 2128 C 202.504 1.29245 -3.13179 0
M  V30 2129 C 201.063 1.79925 -3.30611 0
M  V30 2130 C 200.21 0.687111 -2.68652 0
M  V30 2131 H 203.161 -0.0771063 -1.58513 0
M  V30 2132 H 203.182 2.16224 -3.13093 0
M  V30 2133 H 202.694 0.485382 -3.85053 0
M  V30 2134 H 200.795 2.63203 -2.63732 0
M  V30 2135 H 200.908 1.92903 -4.38549 0
M  V30 2136 H 199.272 1.11335 -2.29078 0
M  V30 2137 H 200.055 -0.108483 -3.43129 0
M  V30 2138 N 202.5 1.5196 0.417844 0
M  V30 2139 C 203.728 1.69426 1.18753 0
M  V30 2140 C 204.143 0.399955 1.84515 0
M  V30 2141 O 203.5 -0.623288 1.71527 0
M  V30 2142 C 203.551 2.82375 2.25714 0
M  V30 2143 O 203.272 4.06793 1.62638 0
M  V30 2144 C 204.773 3.11277 3.15628 0
M  V30 2145 H 201.993 0.568031 0.357186 0
M  V30 2146 H 204.537 1.98475 0.49273 0
M  V30 2147 H 202.692 2.5587 2.90877 0
M  V30 2148 H 203.106 4.69667 2.3348 0
M  V30 2149 H 204.58 3.93843 3.86771 0
M  V30 2150 H 205.057 2.24473 3.77503 0
M  V30 2151 H 205.663 3.39515 2.56144 0
M  V30 2152 N 203.978 -0.674533 1.42435 0
M  V30 2153 C 205.203 -1.46784 1.46524 0
M  V30 2154 C 205.628 -1.87938 0.078066 0
M  V30 2155 O 204.986 -1.56014 -0.92354 0
M  V30 2156 C 205.034 -2.69307 2.39805 0
M  V30 2157 O 204.138 -3.67587 1.86959 0
M  V30 2158 H 203.479 -0.440959 0.496439 0
M  V30 2159 H 206.009 -0.827326 1.87127 0
M  V30 2160 H 206.019 -3.17374 2.56393 0
M  V30 2161 H 204.694 -2.38692 3.40586 0
M  V30 2162 H 203.271 -3.2662 1.79927 0
M  V30 2163 N 205.456 -1.28612 -0.910864 0
M  V30 2164 C 206.702 -1.16106 -1.66274 0
M  V30 2165 C 207.035 0.289113 -1.92036 0
M  V30 2166 O 206.31 1.21 -1.52281 0
M  V30 2167 C 206.593 -1.96309 -3.01885 0
M  V30 2168 C 206.446 -3.49405 -2.8326 0
M  V30 2169 C 207.765 -1.78076 -4.02463 0
M  V30 2170 H 204.884 -0.423152 -0.603417 0
M  V30 2171 H 207.526 -1.57961 -1.05586 0
M  V30 2172 H 205.676 -1.60742 -3.53687 0
M  V30 2173 H 207.348 -3.94894 -2.38446 0
M  V30 2174 H 205.591 -3.74893 -2.18261 0
M  V30 2175 H 206.262 -4.00784 -3.79574 0
M  V30 2176 H 208.738 -2.0912 -3.59733 0
M  V30 2177 H 207.614 -2.36561 -4.95308 0
M  V30 2178 H 207.875 -0.733008 -4.35981 0
M  V30 2179 N 206.934 1.1197 -1.10907 0
M  V30 2180 C 207.864 2.19928 -0.784473 0
M  V30 2181 C 208.845 1.6833 0.244726 0
M  V30 2182 O 210.03 1.93892 0.109418 0
M  V30 2183 C 207.16 3.46597 -0.220827 0
M  V30 2184 C 206.114 4.11376 -1.18127 0
M  V30 2185 C 205.44 5.32554 -0.478594 0
M  V30 2186 C 206.74 4.56945 -2.52979 0
M  V30 2187 H 208.434 2.47337 -1.68715 0
M  V30 2188 H 205.98 1.18879 -0.812642 0
M  V30 2189 H 207.933 4.21396 0.0184278 0
M  V30 2190 H 206.657 3.1863 0.717113 0
M  V30 2191 H 205.316 3.38564 -1.40606 0
M  V30 2192 H 204.964 5.00856 0.463976 0
M  V30 2193 H 204.664 5.76844 -1.11912 0
M  V30 2194 H 206.188 6.10096 -0.248 0
M  V30 2195 H 207.602 5.23093 -2.3462 0
M  V30 2196 H 205.999 5.1203 -3.12962 0
M  V30 2197 H 207.069 3.70676 -3.12614 0
M  V30 2198 N 208.412 0.89855 1.29475 0
M  V30 2199 C 209.375 0.380272 2.26023 0
M  V30 2200 C 210.375 -0.484891 1.53315 0
M  V30 2201 O 211.565 -0.290108 1.71767 0
M  V30 2202 C 208.697 -0.45651 3.3783 0
M  V30 2203 H 209.89 1.23295 2.73383 0
M  V30 2204 H 207.443 0.676589 1.40897 0
M  V30 2205 H 208.178 -1.32922 2.95808 0
M  V30 2206 H 207.963 0.163393 3.91759 0
M  V30 2207 H 209.453 -0.810466 4.0966 0
M  V30 2208 N 209.89 -1.43072 0.660911 0
M  V30 2209 C 211.301 -1.84932 0.256348 0
M  V30 2210 C 211.652 -1.55325 -1.19868 0
M  V30 2211 O 210.777 -1.00607 -1.91591 0
M  V30 2212 C 211.372 -3.35684 0.458475 0
M  V30 2213 C 209.931 -3.76245 0.108161 0
M  V30 2214 C 209.078 -2.66749 0.757641 0
M  V30 2215 H 212.029 -1.33116 0.864051 0
M  V30 2216 H 212.05 -3.79365 -0.293683 0
M  V30 2217 H 211.562 -3.572 1.51755 0
M  V30 2218 H 209.663 -3.60338 -0.948014 0
M  V30 2219 H 209.776 -4.76058 0.538992 0
M  V30 2220 H 208.14 -2.53989 0.190185 0
M  V30 2221 H 208.923 -2.91092 1.81989 0
M  V30 2222 N 211.368 -0.403325 -1.52352 0
M  V30 2223 C 212.596 0.174012 -2.06167 0
M  V30 2224 C 213.011 1.39347 -1.27388 0
M  V30 2225 O 212.368 1.79597 -0.324201 0
M  V30 2226 C 212.419 0.530223 -3.5759 0
M  V30 2227 O 212.14 -0.640806 -4.33388 0
M  V30 2228 C 213.641 1.16192 -4.27802 0
M  V30 2229 H 210.861 0.0229464 -0.670608 0
M  V30 2230 H 213.405 -0.572604 -1.9632 0
M  V30 2231 H 211.56 1.22673 -3.67464 0
M  V30 2232 H 211.974 -0.344851 -5.23365 0
M  V30 2233 H 213.448 1.36141 -5.34948 0
M  V30 2234 H 213.925 2.13335 -3.83907 0
M  V30 2235 H 214.531 0.505775 -4.22282 0
M  V30 2236 N 212.846 1.57033 -0.133567 0
M  V30 2237 C 214.094 1.953 0.519848 0
M  V30 2238 C 214.415 1.01866 1.66278 0
M  V30 2239 O 213.685 0.0776513 1.95746 0
M  V30 2240 H 212.265 0.721091 0.195032 0
M  V30 2241 H 214.927 1.93809 -0.205921 0
M  V30 2242 H 214.023 2.98695 0.904854 0
M  V30 2243 N 214.325 -0.140222 1.56975 0
M  V30 2244 C 215.736 -0.699596 1.73097 0
M  V30 2245 C 216.087 -1.8134 0.749022 0
M  V30 2246 O 215.212 -2.16241 -0.0828503 0
M  V30 2247 C 215.807 -1.27582 3.1386 0
M  V30 2248 C 214.366 -1.78169 3.31561 0
M  V30 2249 C 213.513 -0.672855 2.69013 0
M  V30 2250 H 216.464 0.0855115 1.58469 0
M  V30 2251 H 216.485 -2.14561 3.14235 0
M  V30 2252 H 215.997 -0.464955 3.85305 0
M  V30 2253 H 214.098 -2.61801 2.65124 0
M  V30 2254 H 214.211 -1.90574 4.39566 0
M  V30 2255 H 212.575 -1.10118 2.29665 0
M  V30 2256 H 213.358 0.126679 3.43066 0
M  V30 2257 N 215.803 -1.52179 -0.40978 0
M  V30 2258 C 217.049 -1.66453 -1.15851 0
M  V30 2259 C 217.382 -0.392972 -1.90182 0
M  V30 2260 O 216.657 0.608579 -1.84734 0
M  V30 2261 C 216.94 -2.88612 -2.15349 0
M  V30 2262 C 216.793 -4.25815 -1.44918 0
M  V30 2263 C 218.112 -3.06294 -3.16026 0
M  V30 2264 H 215.231 -0.60575 -0.419805 0
M  V30 2265 H 217.873 -1.84732 -0.444314 0
M  V30 2266 H 216.023 -2.73158 -2.76255 0
M  V30 2267 H 217.695 -4.52995 -0.871365 0
M  V30 2268 H 215.938 -4.27247 -0.751159 0
M  V30 2269 H 216.609 -5.07337 -2.17516 0
M  V30 2270 H 219.085 -3.20641 -2.65195 0
M  V30 2271 H 217.961 -3.93283 -3.8291 0
M  V30 2272 H 218.222 -2.19579 -3.83715 0
M  V30 2273 N 217.281 0.66697 -1.42791 0
M  V30 2274 C 218.697 0.981027 -1.25889 0
M  V30 2275 C 218.897 2.00793 -0.168695 0
M  V30 2276 O 217.953 2.48321 0.45747 0
M  V30 2277 C 219.266 1.47838 -2.61848 0
M  V30 2278 C 220.814 1.59575 -2.69267 0
M  V30 2279 C 221.289 2.12704 -4.05612 0
M  V30 2280 N 222.78 2.20026 -4.07606 0
M  V30 2281 C 223.515 2.62227 -5.09926 0
M  V30 2282 N 223.011 3.03824 -6.22626 0
M  V30 2283 N 224.804 2.62045 -4.97281 0
M  V30 2284 H 216.955 -0.0127891 -2.12396 0
M  V30 2285 H 219.218 0.0568258 -0.946295 0
M  V30 2286 H 218.924 0.798299 -3.4252 0
M  V30 2287 H 218.798 2.45579 -2.86305 0
M  V30 2288 H 221.185 2.26687 -1.88936 0
M  V30 2289 H 221.266 0.60302 -2.48591 0
M  V30 2290 H 220.91 1.46198 -4.86404 0
M  V30 2291 H 220.84 3.12782 -4.23645 0
M  V30 2292 H 223.331 1.90708 -3.2625 0
M  V30 2293 H 223.644 3.34734 -6.96544 0
M  V30 2294 H 221.989 3.01662 -6.26119 0
M  V30 2295 H 225.18 2.28916 -4.08308 0
M  V30 2296 H 225.353 2.94613 -5.77154 0
M  V30 2297 N 218.759 1.29093 0.90403 0
M  V30 2298 C 219.987 1.19689 1.68766 0
M  V30 2299 C 220.402 -0.243113 1.87228 0
M  V30 2300 O 219.759 -1.16326 1.40621 0
M  V30 2301 C 219.81 1.90144 3.07453 0
M  V30 2302 O 219.531 3.2852 2.89838 0
M  V30 2303 C 221.032 1.87162 4.01852 0
M  V30 2304 H 218.252 0.415035 0.527244 0
M  V30 2305 H 220.796 1.7039 1.13082 0
M  V30 2306 H 218.951 1.43289 3.59926 0
M  V30 2307 H 219.365 3.63944 3.77684 0
M  V30 2308 H 220.839 2.41032 4.96596 0
M  V30 2309 H 221.316 0.84617 4.30972 0
M  V30 2310 H 221.922 2.33741 3.5531 0
M  V30 2311 N 220.237 -1.11381 1.11499 0
M  V30 2312 C 221.648 -1.6465 0.880191 0
M  V30 2313 C 221.999 -1.87199 -0.587434 0
M  V30 2314 O 221.124 -1.60667 -1.44966 0
M  V30 2315 C 221.719 -2.99105 1.59128 0
M  V30 2316 C 220.278 -3.49279 1.40289 0
M  V30 2317 C 219.425 -2.24077 1.63354 0
M  V30 2318 H 222.376 -0.950123 1.27116 0
M  V30 2319 H 222.397 -3.66107 1.03664 0
M  V30 2320 H 221.909 -2.82661 2.65941 0
M  V30 2321 H 220.01 -3.70887 0.356888 0
M  V30 2322 H 220.123 -4.2803 2.15238 0
M  V30 2323 H 218.487 -2.31733 1.05698 0
M  V30 2324 H 219.27 -2.10175 2.71443 0
M  V30 2325 N 221.715 -0.905404 -1.28997 0
M  V30 2326 C 222.992 -0.453513 -1.9027 0
M  V30 2327 C 223.372 1.06721 -1.82137 0
M  V30 2328 O 222.72 1.91159 -1.25182 0
M  V30 2329 C 222.93 -0.974494 -3.35119 0
M  V30 2330 C 224.278 -1.0216 -4.12127 0
M  V30 2331 O 225.302 -0.922557 -3.44046 0
M  V30 2332 O 224.161 -1.17121 -5.33802 0
M  V30 2333 H 221.255 -0.142347 -0.814657 0
M  V30 2334 H 223.801 -0.995642 -1.37423 0
M  V30 2335 H 222.573 -2.01848 -3.35221 0
M  V30 2336 H 222.196 -0.412706 -3.95452 0
M  V30 2337 N 223.193 1.4272 -0.668489 0
M  V30 2338 C 224.47 1.95248 -0.117373 0
M  V30 2339 C 224.85 1.60919 1.36632 0
M  V30 2340 O 224.198 0.902095 2.09939 0
M  V30 2341 C 224.408 3.46927 -0.379806 0
M  V30 2342 C 225.756 4.23588 -0.292923 0
M  V30 2343 O 226.78 3.5482 -0.313204 0
M  V30 2344 O 225.639 5.46017 -0.229697 0
M  V30 2345 H 222.733 0.827 0.00079152 0
M  V30 2346 H 225.279 1.52581 -0.742783 0
M  V30 2347 H 224.051 3.65096 -1.40786 0
M  V30 2348 H 223.674 3.96627 0.277923 0
M  V30 2349 N 224.671 0.411399 1.52136 0
M  V30 2350 C 225.948 -0.222308 1.94333 0
M  V30 2351 C 226.328 -1.6242 1.34844 0
M  V30 2352 O 225.676 -2.22384 0.525145 0
M  V30 2353 C 225.886 -0.226345 3.48265 0
M  V30 2354 C 227.234 -0.444592 4.22266 0
M  V30 2355 O 228.258 -0.305602 3.54887 0
M  V30 2356 O 227.117 -0.718749 5.41753 0
M  V30 2357 H 224.211 -0.143907 0.814383 0
M  V30 2358 H 226.757 0.467506 1.63133 0
M  V30 2359 H 225.529 0.75475 3.83952 0
M  V30 2360 H 225.152 -0.960163 3.85832 0
M  V30 2361 N 226.149 -1.5696 0.141893 0
M  V30 2362 C 227.397 -1.95573 -0.509484 0
M  V30 2363 C 227.718 -1.02746 -1.65736 0
M  V30 2364 O 226.988 -0.0880311 -1.95702 0
M  V30 2365 H 225.568 -0.722115 -0.191205 0
M  V30 2366 H 228.23 -1.93697 0.216196 0
M  V30 2367 H 227.326 -2.99171 -0.889 0
M  V30 2368 N 227.627 0.131896 -1.57047 0
M  V30 2369 C 228.855 0.856461 -1.88341 0
M  V30 2370 C 229.27 1.74042 -0.731757 0
M  V30 2371 O 228.627 1.80051 0.297945 0
M  V30 2372 C 228.678 1.70064 -3.18999 0
M  V30 2373 O 228.399 0.852278 -4.2973 0
M  V30 2374 C 229.9 2.53148 -3.63911 0
M  V30 2375 H 227.12 0.246885 -0.62393 0
M  V30 2376 H 229.664 0.120152 -2.04147 0
M  V30 2377 H 227.819 2.38984 -3.04902 0
M  V30 2378 H 228.233 1.43329 -5.04537 0
M  V30 2379 H 229.707 3.07931 -4.58129 0
M  V30 2380 H 230.184 3.29901 -2.89935 0
M  V30 2381 H 230.79 1.89492 -3.80753 0
M  V30 2382 N 229.106 1.52395 0.401703 0
M  V30 2383 C 230.352 1.67065 1.14966 0
M  V30 2384 C 230.685 0.403052 1.89971 0
M  V30 2385 O 229.96 -0.598774 1.85054 0
M  V30 2386 C 230.243 2.8975 2.13815 0
M  V30 2387 C 230.096 4.26578 1.42658 0
M  V30 2388 C 231.415 3.07965 3.14397 0
M  V30 2389 H 228.534 0.607968 0.416587 0
M  V30 2390 H 231.176 1.84965 0.434511 0
M  V30 2391 H 229.326 2.74619 2.74803 0
M  V30 2392 H 230.998 4.53451 0.847329 0
M  V30 2393 H 229.241 4.27639 0.72849 0
M  V30 2394 H 229.912 5.08483 2.14823 0
M  V30 2395 H 232.388 3.22043 2.63491 0
M  V30 2396 H 231.264 3.95308 3.80819 0
M  V30 2397 H 231.525 2.21611 3.82545 0
M  V30 2398 N 230.584 -0.659388 1.43143 0
M  V30 2399 C 231.831 -1.41935 1.44433 0
M  V30 2400 C 232.159 -1.94387 0.0663522 0
M  V30 2401 O 231.414 -1.72314 -0.927706 0
M  V30 2402 C 231.713 -2.62206 2.42864 0
M  V30 2403 C 231.379 -2.28208 3.88886 0
M  V30 2404 C 230.041 -2.18647 4.28657 0
M  V30 2405 C 232.393 -2.00887 4.8093 0
M  V30 2406 C 229.721 -1.79914 5.58433 0
M  V30 2407 C 232.073 -1.63653 6.11065 0
M  V30 2408 C 230.737 -1.52614 6.49819 0
M  V30 2409 H 230.007 -0.519376 0.528517 0
M  V30 2410 H 232.654 -0.750453 1.76183 0
M  V30 2411 H 230.959 -3.34199 2.04495 0
M  V30 2412 H 232.656 -3.2041 2.41119 0
M  V30 2413 H 229.246 -2.36557 3.57406 0
M  V30 2414 H 233.43 -2.07198 4.5098 0
M  V30 2415 H 228.686 -1.69948 5.87305 0
M  V30 2416 H 232.86 -1.41543 6.81864 0
M  V30 2417 H 230.487 -1.22371 7.50286 0
M  V30 2418 N 232.062 -1.29571 -0.897171 0
M  V30 2419 C 233.308 -1.17863 -1.65034 0
M  V30 2420 C 233.641 0.268729 -1.92332 0
M  V30 2421 O 232.916 1.19378 -1.53555 0
M  V30 2422 C 233.199 -1.995 -2.99786 0
M  V30 2423 C 233.052 -3.5239 -2.79538 0
M  V30 2424 C 234.371 -1.82335 -4.00552 0
M  V30 2425 H 231.49 -0.429528 -0.598895 0
M  V30 2426 H 234.132 -1.59072 -1.03905 0
M  V30 2427 H 232.282 -1.64485 -3.51962 0
M  V30 2428 H 233.954 -3.97401 -2.34244 0
M  V30 2429 H 232.197 -3.77187 -2.14273 0
M  V30 2430 H 232.868 -4.04787 -3.75302 0
M  V30 2431 H 235.344 -2.12924 -3.57495 0
M  V30 2432 H 234.22 -2.41801 -4.92771 0
M  V30 2433 H 234.481 -0.779209 -4.35179 0
M  V30 2434 N 233.54 1.10788 -1.12088 0
M  V30 2435 C 234.47 2.19083 -0.807755 0
M  V30 2436 C 235.451 1.6858 0.226859 0
M  V30 2437 O 236.636 1.93997 0.0888475 0
M  V30 2438 C 233.766 3.46344 -0.257576 0
M  V30 2439 C 232.72 4.101 -1.22483 0
M  V30 2440 C 232.046 5.32016 -0.535052 0
M  V30 2441 C 233.346 4.54236 -2.57811 0
M  V30 2442 H 235.04 2.45534 -1.71328 0
M  V30 2443 H 232.586 1.1801 -0.825205 0
M  V30 2444 H 234.539 4.21392 -0.0262679 0
M  V30 2445 H 233.263 3.19373 0.683278 0
M  V30 2446 H 231.922 3.37054 -1.44189 0
M  V30 2447 H 231.57 5.01319 0.410827 0
M  V30 2448 H 231.27 5.75625 -1.18024 0
M  V30 2449 H 232.794 6.09799 -0.312695 0
M  V30 2450 H 234.208 5.20575 -2.40155 0
M  V30 2451 H 232.605 5.08682 -3.18375 0
M  V30 2452 H 233.675 3.6734 -3.16528 0
M  V30 2453 N 235.018 0.912232 1.28515 0
M  V30 2454 C 236.429 0.591352 1.77087 0
M  V30 2455 C 236.78 -0.8933 1.74684 0
M  V30 2456 O 235.905 -1.69876 1.34056 0
M  V30 2457 C 236.5 1.06668 3.2157 0
M  V30 2458 C 235.059 0.79675 3.67871 0
M  V30 2459 C 234.206 1.23427 2.48316 0
M  V30 2460 H 237.157 1.09365 1.15 0
M  V30 2461 H 237.178 0.407455 3.78312 0
M  V30 2462 H 236.69 2.14726 3.23287 0
M  V30 2463 H 234.791 -0.270679 3.71616 0
M  V30 2464 H 234.904 1.40343 4.58084 0
M  V30 2465 H 233.268 0.653036 2.46186 0
M  V30 2466 H 234.051 2.32316 2.52753 0
M  V30 2467 N 236.496 -1.42363 0.676048 0
M  V30 2468 C 237.745 -2.00745 0.196037 0
M  V30 2469 C 238.058 -1.54083 -1.20489 0
M  V30 2470 O 239.264 -2.04891 -1.78134 0
M  V30 2471 C 237.72 -3.58651 0.299616 0
M  V30 2472 C 237.328 -4.143 1.70468 0
M  V30 2473 C 239.072 -4.24326 -0.121619 0
M  V30 2474 C 236.979 -5.64574 1.76096 0
M  V30 2475 H 235.909 -0.750787 0.0695301 0
M  V30 2476 H 238.56 -1.63072 0.841412 0
M  V30 2477 H 236.942 -3.93833 -0.413673 0
M  V30 2478 H 238.116 -3.90575 2.44515 0
M  V30 2479 H 236.431 -3.61081 2.07387 0
M  V30 2480 H 239.028 -5.34607 -0.0997362 0
M  V30 2481 H 239.371 -3.99897 -1.15708 0
M  V30 2482 H 239.904 -3.94108 0.540706 0
M  V30 2483 H 236.643 -5.93804 2.77628 0
M  V30 2484 H 236.163 -5.90286 1.06406 0
M  V30 2485 H 237.842 -6.29013 1.51496 0
M  V30 2486 N 237.974 -0.419461 -1.51915 0
M  V30 2487 C 239.251 0.211999 -1.94448 0
M  V30 2488 C 239.631 1.61703 -1.35703 0
M  V30 2489 O 238.979 2.22102 -0.536931 0
M  V30 2490 C 239.189 0.207872 -3.4838 0
M  V30 2491 C 240.537 0.422192 -4.22496 0
M  V30 2492 O 241.561 0.286778 -3.55044 0
M  V30 2493 O 240.42 0.690009 -5.42126 0
M  V30 2494 H 237.514 0.139586 -0.815135 0
M  V30 2495 H 240.06 -0.476151 -1.62883 0
M  V30 2496 H 238.832 -0.775102 -3.83546 0
M  V30 2497 H 238.455 0.939688 -3.86336 0
M  V30 2498 N 239.452 1.56882 -0.150215 0
M  V30 2499 C 240.701 1.95403 0.500071 0
M  V30 2500 C 241.014 1.03777 1.658 0
M  V30 2501 O 242.22 1.31889 2.37313 0
M  V30 2502 C 240.676 3.4738 0.941018 0
M  V30 2503 C 240.284 4.47596 -0.190158 0
M  V30 2504 C 242.028 3.9476 1.56091 0
M  V30 2505 C 239.935 5.90787 0.269237 0
M  V30 2506 H 238.865 0.729515 0.190588 0
M  V30 2507 H 241.516 1.81988 -0.235074 0
M  V30 2508 H 239.898 3.56138 1.73152 0
M  V30 2509 H 241.072 4.50536 -0.967157 0
M  V30 2510 H 239.387 4.10151 -0.718666 0
M  V30 2511 H 241.984 4.99181 1.9163 0
M  V30 2512 H 242.327 3.36494 2.45107 0
M  V30 2513 H 242.86 3.88932 0.835249 0
M  V30 2514 H 239.599 6.52879 -0.585621 0
M  V30 2515 H 239.119 5.912 1.01204 0
M  V30 2516 H 240.798 6.42979 0.720176 0
M  V30 2517 N 240.93 -0.123565 1.57115 0
M  V30 2518 C 242.155 -0.850398 1.89164 0
M  V30 2519 C 242.58 -1.7286 0.741688 0
M  V30 2520 O 241.938 -1.78665 -0.307958 0
M  V30 2521 C 241.986 -1.66353 3.19936 0
M  V30 2522 O 241.09 -2.77004 3.0552 0
M  V30 2523 H 240.431 -0.235454 0.620852 0
M  V30 2524 H 242.961 -0.107335 2.04318 0
M  V30 2525 H 242.971 -2.05372 3.52543 0
M  V30 2526 H 241.646 -1.01881 4.03228 0
M  V30 2527 H 240.223 -2.41221 2.84371 0
M  V30 2528 N 242.408 -1.52605 -0.393616 0
M  V30 2529 C 243.338 -1.80022 -1.48709 0
M  V30 2530 C 244.319 -0.651995 -1.57108 0
M  V30 2531 O 245.504 -0.89913 -1.72132 0
M  V30 2532 C 242.634 -1.96492 -2.86371 0
M  V30 2533 C 241.588 -3.12161 -2.92813 0
M  V30 2534 C 240.914 -3.13877 -4.3288 0
M  V30 2535 C 242.214 -4.51322 -2.6288 0
M  V30 2536 H 243.908 -2.71589 -1.26015 0
M  V30 2537 H 241.454 -1.30684 -0.604778 0
M  V30 2538 H 243.407 -2.14255 -3.62867 0
M  V30 2539 H 242.131 -1.01611 -3.10391 0
M  V30 2540 H 240.79 -2.94173 -2.18764 0
M  V30 2541 H 240.438 -2.16687 -4.53933 0
M  V30 2542 H 240.138 -3.91576 -4.38112 0
M  V30 2543 H 241.662 -3.33789 -5.1129 0
M  V30 2544 H 243.076 -4.69435 -3.29096 0
M  V30 2545 H 241.473 -5.31053 -2.79468 0
M  V30 2546 H 242.543 -4.58353 -1.58242 0
M  V30 2547 N 243.887 0.651787 -1.4349 0
M  V30 2548 C 245.164 1.40909 -1.35661 0
M  V30 2549 C 245.544 2.11099 -0.00511733 0
M  V30 2550 O 244.892 2.04892 1.0115 0
M  V30 2551 C 245.102 2.3926 -2.54078 0
M  V30 2552 C 246.45 3.03217 -2.97228 0
M  V30 2553 O 247.474 2.49588 -2.54135 0
M  V30 2554 O 246.333 4.00455 -3.71885 0
M  V30 2555 H 243.427 0.629625 -0.536191 0
M  V30 2556 H 245.973 0.678575 -1.55542 0
M  V30 2557 H 244.745 1.86352 -3.44076 0
M  V30 2558 H 244.368 3.1976 -2.36303 0
M  V30 2559 N 245.365 1.30045 0.890287 0
M  V30 2560 C 246.593 1.21472 1.67487 0
M  V30 2561 C 247.008 -0.223241 1.87476 0
M  V30 2562 O 246.365 -1.14828 1.41847 0
M  V30 2563 C 246.416 1.93394 3.05419 0
M  V30 2564 O 246.137 3.31576 2.86337 0
M  V30 2565 C 247.638 1.91414 3.99844 0
M  V30 2566 H 244.858 0.420604 0.522813 0
M  V30 2567 H 247.402 1.7158 1.11268 0
M  V30 2568 H 245.557 1.47099 3.58386 0
M  V30 2569 H 245.971 3.67929 3.73802 0
M  V30 2570 H 247.445 2.46285 4.94012 0
M  V30 2571 H 247.922 0.891833 4.3005 0
M  V30 2572 H 248.528 2.37496 3.52811 0
M  V30 2573 N 246.843 -1.10192 1.12674 0
M  V30 2574 C 248.068 -1.86523 0.906853 0
M  V30 2575 C 248.493 -1.80221 -0.538711 0
M  V30 2576 O 247.851 -1.17396 -1.38158 0
M  V30 2577 C 247.899 -3.32758 1.3894 0
M  V30 2578 O 247.003 -4.08449 0.5695 0
M  V30 2579 H 246.344 -0.578678 0.325619 0
M  V30 2580 H 248.874 -1.39203 1.49946 0
M  V30 2581 H 248.884 -3.83608 1.38958 0
M  V30 2582 H 247.559 -3.36661 2.44197 0
M  V30 2583 H 246.136 -3.67427 0.636528 0
M  V30 2584 N 248.321 -0.919034 -1.28029 0
M  V30 2585 C 249.284 -0.416182 -2.2539 0
M  V30 2586 C 250.284 0.460438 -1.54067 0
M  V30 2587 O 251.474 0.262744 -1.72207 0
M  V30 2588 C 248.606 0.402707 -3.38513 0
M  V30 2589 H 249.799 -1.27629 -2.71387 0
M  V30 2590 H 247.352 -0.698919 -1.39803 0
M  V30 2591 H 248.087 1.282 -2.97885 0
M  V30 2592 H 247.872 -0.225698 -3.9145 0
M  V30 2593 H 249.362 0.745191 -4.10897 0
M  V30 2594 N 249.799 1.42003 -0.683588 0
M  V30 2595 C 250.709 2.34597 -0.0109075 0
M  V30 2596 C 251.725 1.55576 0.779245 0
M  V30 2597 O 252.901 1.88107 0.719555 0
M  V30 2598 C 249.966 3.34199 0.922588 0
M  V30 2599 C 249.027 4.29115 0.125984 0
M  V30 2600 C 248.26 5.23959 1.01502 0
M  V30 2601 O 248.483 5.23952 2.25456 0
M  V30 2602 O 247.417 6.00053 0.47111 0
M  V30 2603 H 251.243 2.93675 -0.773853 0
M  V30 2604 H 248.828 1.42654 -0.443861 0
M  V30 2605 H 250.71 3.95365 1.45823 0
M  V30 2606 H 249.385 2.77582 1.66523 0
M  V30 2607 H 248.292 3.71335 -0.453969 0
M  V30 2608 H 249.625 4.88798 -0.577736 0
M  V30 2609 N 251.277 0.427512 1.51691 0
M  V30 2610 C 252.207 -0.3796 2.30394 0
M  V30 2611 C 253.188 -1.02982 1.35384 0
M  V30 2612 O 254.373 -1.03534 1.643 0
M  V30 2613 C 251.503 -1.48649 3.1388 0
M  V30 2614 C 250.457 -0.960294 4.17088 0
M  V30 2615 C 249.783 -2.16219 4.89033 0
M  V30 2616 C 251.083 -0.00153679 5.223 0
M  V30 2617 H 252.777 0.277164 2.98114 0
M  V30 2618 H 250.323 0.134739 1.43368 0
M  V30 2619 H 252.276 -2.05826 3.67714 0
M  V30 2620 H 251 -2.1714 2.43962 0
M  V30 2621 H 249.659 -0.410806 3.64291 0
M  V30 2622 H 249.307 -2.83307 4.15628 0
M  V30 2623 H 249.007 -1.81654 5.58816 0
M  V30 2624 H 250.531 -2.73968 5.45687 0
M  V30 2625 H 251.945 -0.482687 5.71264 0
M  V30 2626 H 250.342 0.256199 5.99553 0
M  V30 2627 H 251.412 0.938174 4.75738 0
M  V30 2628 N 252.755 -1.56801 0.158532 0
M  V30 2629 C 253.688 -2.13148 -0.815065 0
M  V30 2630 C 254.666 -1.0581 -1.23462 0
M  V30 2631 O 255.85 -1.3371 -1.32868 0
M  V30 2632 C 252.977 -2.6606 -2.09594 0
M  V30 2633 C 252.023 -3.85651 -1.82141 0
M  V30 2634 S 252.856 -5.26041 -1.00207 0
M  V30 2635 C 254.012 -5.8235 -2.29389 0
M  V30 2636 H 254.245 -2.95396 -0.335937 0
M  V30 2637 H 251.778 -1.54299 -0.0559391 0
M  V30 2638 H 253.736 -2.97195 -2.8317 0
M  V30 2639 H 252.397 -1.83921 -2.54621 0
M  V30 2640 H 251.59 -4.20958 -2.77147 0
M  V30 2641 H 251.192 -3.55338 -1.16667 0
M  V30 2642 H 253.484 -5.94485 -3.24952 0
M  V30 2643 H 254.427 -6.79688 -1.9857 0
M  V30 2644 H 254.835 -5.10675 -2.40564 0
M  V30 2645 N 254.233 0.115231 -1.57178 0
M  V30 2646 C 255.473 0.828199 -1.8687 0
M  V30 2647 C 255.837 1.76873 -0.747002 0
M  V30 2648 O 257.038 2.52354 -0.925785 0
M  V30 2649 C 255.309 1.55515 -3.21792 0
M  V30 2650 S 256.868 2.30917 -3.73125 0
M  V30 2651 H 253.686 0.27634 -0.655101 0
M  V30 2652 H 256.288 0.0863469 -1.95309 0
M  V30 2653 H 254.992 0.856248 -4.01368 0
M  V30 2654 H 254.523 2.3373 -3.16439 0
M  V30 2655 H 256.538 3.56705 -3.44929 0
M  V30 2656 N 255.711 1.52812 0.385517 0
M  V30 2657 C 256.988 1.5861 1.14465 0
M  V30 2658 C 257.368 0.381402 2.07626 0
M  V30 2659 O 256.716 -0.629999 2.19643 0
M  V30 2660 C 256.926 2.92664 1.90128 0
M  V30 2661 C 258.274 3.46526 2.45367 0
M  V30 2662 O 259.298 2.94562 2.0028 0
M  V30 2663 O 258.157 4.37323 3.27736 0
M  V30 2664 H 255.251 0.639855 0.523941 0
M  V30 2665 H 257.797 1.65149 0.390389 0
M  V30 2666 H 256.569 3.71788 1.22022 0
M  V30 2667 H 256.192 2.89527 2.72507 0
M  V30 2668 N 257.189 -0.644168 1.43834 0
M  V30 2669 C 258.435 -1.40431 1.47141 0
M  V30 2670 C 258.79 -1.92153 0.0975577 0
M  V30 2671 O 258.083 -1.69924 -0.885232 0
M  V30 2672 C 258.277 -2.59615 2.45631 0
M  V30 2673 C 258.106 -2.1956 3.92458 0
M  V30 2674 C 256.876 -2.07456 4.60749 0
M  V30 2675 C 259.074 -1.79281 4.8204 0
M  V30 2676 N 257.056 -1.60827 5.92459 0
M  V30 2677 C 258.427 -1.43801 6.03093 0
M  V30 2678 C 260.482 -1.66545 4.6922 0
M  V30 2679 C 259.185 -0.968599 7.12749 0
M  V30 2680 C 261.211 -1.21008 5.78888 0
M  V30 2681 C 260.573 -0.864711 6.99072 0
M  V30 2682 H 256.672 -0.509182 0.593513 0
M  V30 2683 H 259.256 -0.740351 1.80075 0
M  V30 2684 H 257.427 -3.23658 2.1471 0
M  V30 2685 H 259.159 -3.26357 2.39318 0
M  V30 2686 H 255.914 -2.275 4.1538 0
M  V30 2687 H 256.338 -1.39848 6.62398 0
M  V30 2688 H 260.98 -1.91883 3.7675 0
M  V30 2689 H 258.698 -0.702715 8.05039 0
M  V30 2690 H 262.284 -1.11631 5.7099 0
M  V30 2691 H 261.164 -0.517736 7.82489 0
M  V30 2692 N 258.668 -1.30515 -0.883378 0
M  V30 2693 C 260.084 -1.08881 -1.16692 0
M  V30 2694 C 260.284 0.149409 -2.00945 0
M  V30 2695 O 259.34 0.84257 -2.38027 0
M  V30 2696 C 260.653 -2.35319 -1.87204 0
M  V30 2697 C 262.201 -2.40799 -1.99962 0
M  V30 2698 C 262.676 -3.67083 -2.73887 0
M  V30 2699 N 264.167 -3.679 -2.81432 0
M  V30 2700 C 264.902 -4.62303 -3.3921 0
M  V30 2701 N 264.398 -5.67052 -3.98025 0
M  V30 2702 N 266.191 -4.49845 -3.3704 0
M  V30 2703 H 258.342 -2.09951 -0.321633 0
M  V30 2704 H 260.605 -0.92556 -0.205043 0
M  V30 2705 H 260.311 -3.25689 -1.3274 0
M  V30 2706 H 260.185 -2.44089 -2.87577 0
M  V30 2707 H 262.572 -1.50907 -2.53597 0
M  V30 2708 H 262.653 -2.36003 -0.98673 0
M  V30 2709 H 262.297 -4.57334 -2.20925 0
M  V30 2710 H 262.227 -3.69141 -3.75556 0
M  V30 2711 H 264.718 -2.92171 -2.39676 0
M  V30 2712 H 265.031 -6.35184 -4.40183 0
M  V30 2713 H 263.376 -5.70842 -3.96439 0
M  V30 2714 H 266.567 -3.67194 -2.90321 0
M  V30 2715 H 266.74 -5.23597 -3.81772 0
M  V30 2716 N 260.146 1.09593 -1.13257 0
M  V30 2717 C 261.109 2.14359 -0.811358 0
M  V30 2718 C 262.109 1.59808 0.178377 0
M  V30 2719 O 263.299 1.74132 -0.0484911 0
M  V30 2720 C 260.431 3.40269 -0.207276 0
M  V30 2721 H 261.624 2.44284 -1.73969 0
M  V30 2722 H 259.177 1.25102 -0.936973 0
M  V30 2723 H 259.912 3.15969 0.73036 0
M  V30 2724 H 259.697 3.81154 -0.919992 0
M  V30 2725 H 261.187 4.176 0.000667944 0
M  V30 2726 N 261.624 0.925811 1.2754 0
M  V30 2727 C 262.872 0.564138 1.94067 0
M  V30 2728 C 263.193 -0.897188 1.73134 0
M  V30 2729 O 262.463 -1.63573 1.07799 0
M  V30 2730 H 261.043 0.205645 0.718136 0
M  V30 2731 H 263.705 1.1778 1.55287 0
M  V30 2732 H 262.801 0.76881 3.02483 0
M  V30 2733 N 263.102 -1.41638 0.69111 0
M  V30 2734 C 264.379 -1.95036 0.148421 0
M  V30 2735 C 264.759 -1.63072 -1.34055 0
M  V30 2736 O 264.107 -0.93538 -2.08478 0
M  V30 2737 C 264.317 -3.46279 0.434951 0
M  V30 2738 C 265.665 -4.23069 0.360275 0
M  V30 2739 O 266.689 -3.54277 0.369613 0
M  V30 2740 O 265.548 -5.45583 0.316534 0
M  V30 2741 H 262.642 -0.826908 0.0123654 0
M  V30 2742 H 265.188 -1.5138 0.766963 0
M  V30 2743 H 263.96 -3.6281 1.46576 0
M  V30 2744 H 263.583 -3.97019 -0.214787 0
M  V30 2745 N 264.58 -0.43555 -1.51462 0
M  V30 2746 C 265.826 0.131709 -2.02372 0
M  V30 2747 C 266.159 1.42516 -1.3192 0
M  V30 2748 O 265.434 1.89606 -0.433573 0
M  V30 2749 C 265.717 0.352301 -3.58373 0
M  V30 2750 C 265.57 -0.959676 -4.39443 0
M  V30 2751 C 266.889 1.12286 -4.25535 0
M  V30 2752 H 264.008 0.0463936 -0.735538 0
M  V30 2753 H 266.65 -0.574197 -1.81116 0
M  V30 2754 H 264.8 0.9536 -3.76615 0
M  V30 2755 H 266.472 -1.59482 -4.32855 0
M  V30 2756 H 264.715 -1.56468 -4.04599 0
M  V30 2757 H 265.386 -0.759394 -5.46752 0
M  V30 2758 H 267.862 0.613545 -4.11552 0
M  V30 2759 H 266.738 1.24598 -5.34571 0
M  V30 2760 H 266.999 2.15048 -3.86273 0
M  V30 2761 N 266.058 1.56714 -0.166846 0
M  V30 2762 C 267.304 1.97813 0.473473 0
M  V30 2763 C 267.659 1.05095 1.61161 0
M  V30 2764 O 266.952 0.0897541 1.9139 0
M  V30 2765 C 267.146 3.42889 1.00806 0
M  V30 2766 C 266.975 4.49635 -0.0767392 0
M  V30 2767 C 265.745 5.02566 -0.524894 0
M  V30 2768 C 267.943 5.06793 -0.875504 0
M  V30 2769 N 265.925 5.9294 -1.59047 0
M  V30 2770 C 267.296 5.93565 -1.79111 0
M  V30 2771 C 269.351 4.89306 -0.921083 0
M  V30 2772 C 268.054 6.64721 -2.74843 0
M  V30 2773 C 270.08 5.61179 -1.86633 0
M  V30 2774 C 269.442 6.47675 -2.76942 0
M  V30 2775 H 265.541 0.769093 0.141489 0
M  V30 2776 H 268.125 1.92874 -0.266031 0
M  V30 2777 H 266.296 3.48382 1.7171 0
M  V30 2778 H 268.028 3.71008 1.61664 0
M  V30 2779 H 264.783 4.73439 -0.123432 0
M  V30 2780 H 265.207 6.42831 -2.12361 0
M  V30 2781 H 269.849 4.22136 -0.23692 0
M  V30 2782 H 267.567 7.31107 -3.44249 0
M  V30 2783 H 271.153 5.49636 -1.90764 0
M  V30 2784 H 270.033 7.02313 -3.48893 0
M  V30 2785 O 267.575 0.0288451 1.61474 0
M  V30 2786 H 268.266 -0.583771 1.84694 0
M  V30 END ATOM
M  V30 BEGIN BOND
M  V30 END BOND
M  V30 END CTAB
M  END
$$$$
