drugbank_target|P15309 Prostatic acid phosphatase (DB03390; DB03577; DB06688)
 OpenBabel12092119473D

  0  0  0     0  0            999 V3000
M  V30 BEGIN CTAB
M  V30 COUNTS 6239 6329 0 0 0
M  V30 BEGIN ATOM
M  V30 1 H -0.908 1.98254 -0.117106 0
M  V30 2 N 0 1.576 0 0
M  V30 3 C 0.933 2.03868 1.02534 0
M  V30 4 C 1.911 0.928543 1.3348 0
M  V30 5 O 3.095 1.19667 1.45644 0
M  V30 6 C 0.222 2.43627 2.35294 0
M  V30 7 C -0.732 3.65373 2.2001 0
M  V30 8 S 0.101 5.13292 1.52614 0
M  V30 9 C 1.257 5.56322 2.86805 0
M  V30 10 H 1.49 2.90518 0.631377 0
M  V30 11 H -0.977 1.52953 0.210867 0
M  V30 12 H 0.981 2.67203 3.11629 0
M  V30 13 H -0.358 1.57376 2.7183 0
M  V30 14 H -1.165 3.90944 3.18086 0
M  V30 15 H -1.563 3.418 1.51819 0
M  V30 16 H 0.729 5.58782 3.83104 0
M  V30 17 H 1.672 6.56266 2.65933 0
M  V30 18 H 2.08 4.83886 2.90714 0
M  V30 19 N 1.4781 -0.272755 1.55222 0
M  V30 20 C 2.8941 -0.619959 1.47067 0
M  V30 21 C 3.0941 -1.895 0.684978 0
M  V30 22 O 2.1501 -2.51675 0.203931 0
M  V30 23 C 3.4631 -0.746693 2.91282 0
M  V30 24 C 5.0111 -0.840731 3.01497 0
M  V30 25 C 5.4861 -0.99924 4.46967 0
M  V30 26 N 6.9771 -1.06476 4.50796 0
M  V30 27 C 7.7121 -1.20621 5.6057 0
M  V30 28 N 7.2081 -1.31483 6.80209 0
M  V30 29 N 9.0011 -1.23733 5.48312 0
M  V30 30 H 1.1521 0.564606 2.04758 0
M  V30 31 H 3.4151 0.191177 0.928523 0
M  V30 32 H 3.1211 0.119753 3.51496 0
M  V30 33 H 2.9951 -1.6269 3.40311 0
M  V30 34 H 5.3821 -1.69764 2.41379 0
M  V30 35 H 5.4631 0.0640874 2.5572 0
M  V30 36 H 5.1071 -0.146984 5.07687 0
M  V30 37 H 5.0371 -1.91871 4.90401 0
M  V30 38 H 7.5281 -0.993196 3.64615 0
M  V30 39 H 7.8411 -1.42111 7.59621 0
M  V30 40 H 6.1861 -1.28487 6.8302 0
M  V30 41 H 9.3771 -1.14877 4.53785 0
M  V30 42 H 9.5501 -1.34412 6.33906 0
M  V30 43 N 2.9562 -1.48159 -0.537278 0
M  V30 44 C 3.9192 -1.61665 -1.62472 0
M  V30 45 C 4.9192 -0.490395 -1.5314 0
M  V30 46 O 6.1092 -0.755998 -1.5694 0
M  V30 47 C 3.2412 -1.57997 -3.02076 0
M  V30 48 H 4.4342 -2.58621 -1.51839 0
M  V30 49 H 1.9872 -1.36647 -0.758771 0
M  V30 50 H 2.7222 -0.624913 -3.18222 0
M  V30 51 H 2.5072 -2.39755 -3.10258 0
M  V30 52 H 3.9972 -1.70627 -3.81151 0
M  V30 53 N 4.4343 0.785586 -1.36625 0
M  V30 54 C 5.3973 1.87999 -1.31107 0
M  V30 55 C 6.3973 1.59316 -0.217959 0
M  V30 56 O 7.5873 1.67656 -0.472977 0
M  V30 57 C 4.7193 3.24861 -1.03334 0
M  V30 58 H 5.9123 1.94307 -2.2844 0
M  V30 59 H 3.4653 0.983813 -1.21453 0
M  V30 60 H 4.2003 3.24235 -0.0647432 0
M  V30 61 H 3.9853 3.4707 -1.82441 0
M  V30 62 H 5.4753 4.04929 -1.02088 0
M  V30 63 N 5.9124 1.20967 1.01018 0
M  V30 64 C 7.3234 1.02319 1.56165 0
M  V30 65 C 7.6744 -0.418546 1.91684 0
M  V30 66 O 6.7994 -1.30096 1.72928 0
M  V30 67 C 7.3944 1.85109 2.8376 0
M  V30 68 C 5.9534 1.70809 3.35412 0
M  V30 69 C 5.1004 1.82643 2.08655 0
M  V30 70 H 8.0514 1.35065 0.833255 0
M  V30 71 H 8.0724 1.35827 3.55431 0
M  V30 72 H 7.5844 2.90035 2.57878 0
M  V30 73 H 5.6854 0.685464 3.66241 0
M  V30 74 H 5.7984 2.52467 4.07182 0
M  V30 75 H 4.1624 1.25896 2.21409 0
M  V30 76 H 4.9454 2.89066 1.85191 0
M  V30 77 N 7.3905 -1.2043 1.01659 0
M  V30 78 C 8.3205 -2.25466 0.607226 0
M  V30 79 C 9.3015 -1.65853 -0.377716 0
M  V30 80 O 10.4865 -1.92409 -0.263149 0
M  V30 81 C 7.6165 -3.47256 -0.0552949 0
M  V30 82 C 6.5705 -4.19462 0.850632 0
M  V30 83 C 5.8965 -5.34673 0.0538859 0
M  V30 84 C 7.1965 -4.75603 2.15868 0
M  V30 85 H 8.8905 -2.59962 1.48526 0
M  V30 86 H 6.4365 -1.2496 0.715605 0
M  V30 87 H 8.3895 -4.19917 -0.353233 0
M  V30 88 H 7.1135 -3.11924 -0.968045 0
M  V30 89 H 5.7725 -3.48667 1.13257 0
M  V30 90 H 5.4205 -4.95585 -0.860514 0
M  V30 91 H 5.1205 -5.83913 0.657192 0
M  V30 92 H 6.6445 -6.10138 -0.237598 0
M  V30 93 H 8.0585 -5.40083 1.92311 0
M  V30 94 H 6.4555 -5.3528 2.71284 0
M  V30 95 H 7.5255 -3.94346 2.82169 0
M  V30 96 N 8.8686 -0.792821 -1.36206 0
M  V30 97 C 9.7986 -0.207853 -2.32573 0
M  V30 98 C 10.7796 0.659055 -1.56813 0
M  V30 99 O 11.9646 0.592176 -1.84951 0
M  V30 100 C 9.0946 0.655449 -3.41059 0
M  V30 101 C 8.0486 -0.111842 -4.27854 0
M  V30 102 C 7.3746 0.872274 -5.27537 0
M  V30 103 C 8.6746 -1.30299 -5.05786 0
M  V30 104 H 10.3686 -1.01294 -2.81744 0
M  V30 105 H 7.9146 -0.48854 -1.3546 0
M  V30 106 H 9.8676 1.07464 -4.07467 0
M  V30 107 H 8.5916 1.49328 -2.90463 0
M  V30 108 H 7.2506 -0.512053 -3.63006 0
M  V30 109 H 6.8986 1.70523 -4.73214 0
M  V30 110 H 6.5986 0.363291 -5.86476 0
M  V30 111 H 8.1226 1.28996 -5.96818 0
M  V30 112 H 9.5366 -0.959379 -5.65216 0
M  V30 113 H 7.9336 -1.7455 -5.74154 0
M  V30 114 H 9.0036 -2.09663 -4.37229 0
M  V30 115 N 10.3467 1.47872 -0.545128 0
M  V30 116 C 11.2767 2.32661 0.197793 0
M  V30 117 C 12.2577 1.43041 0.920504 0
M  V30 118 O 13.4427 1.71912 0.90333 0
M  V30 119 C 10.5727 3.24569 1.23582 0
M  V30 120 C 9.5267 4.23333 0.630323 0
M  V30 121 C 8.8527 5.0448 1.77211 0
M  V30 122 C 10.1527 5.20704 -0.407974 0
M  V30 123 H 11.8467 2.95024 -0.510045 0
M  V30 124 H 9.3927 1.4187 -0.246731 0
M  V30 125 H 11.3457 3.8272 1.76362 0
M  V30 126 H 10.0697 2.60236 1.97344 0
M  V30 127 H 8.7287 3.6639 0.123922 0
M  V30 128 H 8.3767 4.36561 2.49847 0
M  V30 129 H 8.0767 5.71339 1.37281 0
M  V30 130 H 9.6007 5.65487 2.3034 0
M  V30 131 H 11.0147 5.7329 0.033305 0
M  V30 132 H 9.4117 5.95699 -0.725486 0
M  V30 133 H 10.4817 4.66917 -1.30828 0
M  V30 134 N 11.8248 0.280983 1.55075 0
M  V30 135 C 12.7878 -0.590896 2.21452 0
M  V30 136 C 13.7878 -1.07682 1.19421 0
M  V30 137 O 14.9778 -0.97605 1.44288 0
M  V30 138 C 12.1098 -1.81587 2.88511 0
M  V30 139 H 13.3028 -0.0112554 2.99898 0
M  V30 140 H 10.8558 0.0316438 1.56268 0
M  V30 141 H 11.5908 -2.43587 2.14093 0
M  V30 142 H 11.3758 -1.4753 3.63287 0
M  V30 143 H 12.8658 -2.43575 3.39206 0
M  V30 144 N 13.3029 -1.57598 0.00835791 0
M  V30 145 C 14.7189 -1.55764 -0.347822 0
M  V30 146 C 14.9189 -1.01186 -1.74252 0
M  V30 147 O 13.9749 -0.649371 -2.44007 0
M  V30 148 C 15.2879 -2.99927 -0.215407 0
M  V30 149 C 16.8359 -3.11656 -0.289725 0
M  V30 150 C 17.3109 -4.57621 -0.18634 0
M  V30 151 N 18.8019 -4.62557 -0.243978 0
M  V30 152 C 19.5369 -5.73094 -0.18745 0
M  V30 153 N 19.0329 -6.92753 -0.0810331 0
M  V30 154 N 20.8259 -5.61588 -0.239925 0
M  V30 155 H 12.9769 -1.91411 0.92062 0
M  V30 156 H 15.2399 -0.879562 0.353659 0
M  V30 157 H 14.9459 -3.43729 0.744512 0
M  V30 158 H 14.8199 -3.63865 -0.994097 0
M  V30 159 H 17.2069 -2.67779 -1.24009 0
M  V30 160 H 17.2879 -2.5048 0.51898 0
M  V30 161 H 16.9319 -5.02174 0.760519 0
M  V30 162 H 16.8619 -5.16752 -1.01364 0
M  V30 163 H 19.3529 -3.76481 -0.327217 0
M  V30 164 H 19.6659 -7.72787 -0.0440241 0
M  V30 165 H 18.0109 -6.94984 -0.0465419 0
M  V30 166 H 21.2019 -4.66996 -0.321317 0
M  V30 167 H 21.3749 -6.47714 -0.192407 0
M  V30 168 N 14.781 0.264519 -1.55364 0
M  V30 169 C 15.744 1.31046 -1.88042 0
M  V30 170 C 16.744 1.41943 -0.755569 0
M  V30 171 O 17.934 1.40947 -1.02369 0
M  V30 172 C 15.066 2.69067 -2.09323 0
M  V30 173 H 16.259 1.03297 -2.81549 0
M  V30 174 H 13.812 0.502989 -1.47986 0
M  V30 175 H 14.547 3.01982 -1.18226 0
M  V30 176 H 14.332 2.62542 -2.91229 0
M  V30 177 H 15.822 3.44623 -2.35848 0
M  V30 178 N 16.2591 1.48442 0.529413 0
M  V30 179 C 17.2221 1.62524 1.61612 0
M  V30 180 C 18.2221 0.498509 1.52877 0
M  V30 181 O 19.4121 0.76431 1.56537 0
M  V30 182 C 16.5441 1.59597 3.01233 0
M  V30 183 H 17.7371 2.59423 1.50465 0
M  V30 184 H 15.2901 1.37047 0.751514 0
M  V30 185 H 16.0251 0.641781 3.17886 0
M  V30 186 H 15.8101 2.41397 3.08982 0
M  V30 187 H 17.3001 1.72646 3.80241 0
M  V30 188 N 17.7372 -0.778329 1.37039 0
M  V30 189 C 18.9622 -1.57248 1.35233 0
M  V30 190 C 19.3872 -1.87999 -0.0615568 0
M  V30 191 O 18.7452 -1.48734 -1.03672 0
M  V30 192 C 18.7932 -2.86353 2.19167 0
M  V30 193 O 17.8972 -3.80442 1.59178 0
M  V30 194 H 17.2382 -0.476569 0.462362 0
M  V30 195 H 19.7682 -0.963853 1.80474 0
M  V30 196 H 19.7782 -3.35519 2.32145 0
M  V30 197 H 18.4532 -2.63299 3.21942 0
M  V30 198 H 17.0302 -3.39067 1.55203 0
M  V30 199 N 19.2153 -1.21501 -1.00376 0
M  V30 200 C 20.1453 -0.999478 -2.11028 0
M  V30 201 C 21.1263 0.0759671 -1.6993 0
M  V30 202 O 22.3113 -0.0841106 -1.94018 0
M  V30 203 C 19.4413 -0.564709 -3.42678 0
M  V30 204 C 18.3953 -1.58486 -3.97576 0
M  V30 205 C 17.7213 -1.00628 -5.25146 0
M  V30 206 C 19.0213 -2.97204 -4.29496 0
M  V30 207 H 20.7153 -1.92495 -2.29317 0
M  V30 208 H 18.2613 -0.92693 -1.102 0
M  V30 209 H 20.2143 -0.401091 -4.19487 0
M  V30 210 H 18.9383 0.396411 -3.24185 0
M  V30 211 H 17.5973 -1.73606 -3.22888 0
M  V30 212 H 17.2453 -0.0368439 -5.02987 0
M  V30 213 H 16.9453 -1.68771 -5.62841 0
M  V30 214 H 18.4693 -0.854015 -6.04598 0
M  V30 215 H 19.8833 -2.8552 -4.97143 0
M  V30 216 H 18.2803 -3.62372 -4.78338 0
M  V30 217 H 19.3503 -3.47956 -3.3772 0
M  V30 218 N 20.6934 1.19889 -1.02296 0
M  V30 219 C 21.9184 1.9393 -0.735237 0
M  V30 220 C 22.3434 1.74639 0.698782 0
M  V30 221 O 21.7014 1.04481 1.48167 0
M  V30 222 C 21.7494 3.43916 -1.08417 0
M  V30 223 O 20.8534 4.11917 -0.199446 0
M  V30 224 H 20.1944 0.605645 -0.272196 0
M  V30 225 H 22.7244 1.52137 -1.36804 0
M  V30 226 H 22.7344 3.9456 -1.03856 0
M  V30 227 H 21.4094 3.5728 -2.12894 0
M  V30 228 H 19.9864 3.71666 -0.303136 0
M  V30 229 N 22.1715 0.800033 1.35784 0
M  V30 230 C 23.1015 0.220184 2.3246 0
M  V30 231 C 24.0825 -0.65073 1.57161 0
M  V30 232 O 25.2675 -0.582359 1.85263 0
M  V30 233 C 22.3975 -0.637353 3.41402 0
M  V30 234 C 21.3515 0.134531 4.27789 0
M  V30 235 C 20.6775 -0.844285 5.27992 0
M  V30 236 C 21.9775 1.32979 5.05088 0
M  V30 237 H 23.6715 1.02787 2.81203 0
M  V30 238 H 21.2175 0.495717 1.35199 0
M  V30 239 H 23.1705 -1.05302 4.08031 0
M  V30 240 H 21.8945 -1.47785 2.91251 0
M  V30 241 H 20.5535 0.531296 3.6273 0
M  V30 242 H 20.2015 -1.68011 4.74111 0
M  V30 243 H 19.9015 -0.332184 5.8666 0
M  V30 244 H 21.4255 -1.2583 5.97494 0
M  V30 245 H 22.8395 0.98934 5.64699 0
M  V30 246 H 21.2365 1.77593 5.7322 0
M  V30 247 H 22.3065 2.11978 4.36111 0
M  V30 248 N 23.6496 -1.47581 0.552962 0
M  V30 249 C 24.8976 -2.02082 0.0272703 0
M  V30 250 C 25.2186 -1.4301 -1.32563 0
M  V30 251 O 24.4886 -0.603745 -1.86365 0
M  V30 252 H 23.0686 -0.746966 0.00709182 0
M  V30 253 H 25.7306 -1.81033 0.722008 0
M  V30 254 H 24.8266 -3.12034 -0.0639951 0
M  V30 255 N 25.1277 -0.289203 -1.54924 0
M  V30 256 C 26.3747 0.323519 -1.99899 0
M  V30 257 C 26.7027 1.54797 -1.17762 0
M  V30 258 O 25.9577 1.94237 -0.238835 0
M  V30 259 C 26.2567 0.736119 -3.49737 0
M  V30 260 C 25.9227 -0.385276 -4.49251 0
M  V30 261 C 24.5847 -0.693156 -4.76181 0
M  V30 262 C 26.9367 -1.14021 -5.08575 0
M  V30 263 C 24.2647 -1.7593 -5.59701 0
M  V30 264 C 26.6167 -2.19619 -5.93254 0
M  V30 265 C 25.2807 -2.51026 -6.185 0
M  V30 266 H 24.5507 0.118384 -0.731482 0
M  V30 267 H 27.1977 -0.405847 -1.8715 0
M  V30 268 H 25.5027 1.54539 -3.60035 0
M  V30 269 H 27.1997 1.22118 -3.81953 0
M  V30 270 H 23.7897 -0.135202 -4.28387 0
M  V30 271 H 27.9737 -0.915611 -4.87781 0
M  V30 272 H 23.2297 -2.0075 -5.77503 0
M  V30 273 H 27.4037 -2.78581 -6.38252 0
M  V30 274 H 25.0307 -3.33772 -6.83008 0
M  V30 275 N 26.6058 1.57591 -0.0167156 0
M  V30 276 C 27.5358 2.12496 0.967858 0
M  V30 277 C 28.5168 1.03807 1.34752 0
M  V30 278 O 29.7018 1.31577 1.42833 0
M  V30 279 C 26.8318 2.64194 2.25431 0
M  V30 280 C 25.7858 3.77559 2.01576 0
M  V30 281 C 25.1118 4.15636 3.36379 0
M  V30 282 C 26.4118 5.04151 1.36489 0
M  V30 283 H 28.1058 2.95013 0.510643 0
M  V30 284 H 25.6518 1.41915 0.244181 0
M  V30 285 H 27.6048 3.01236 2.94678 0
M  V30 286 H 26.3288 1.78821 2.73296 0
M  V30 287 H 24.9878 3.40937 1.34751 0
M  V30 288 H 24.6358 3.27263 3.81979 0
M  V30 289 H 24.3358 4.92022 3.21229 0
M  V30 290 H 25.8598 4.5525 4.06915 0
M  V30 291 H 27.2738 5.38857 1.95718 0
M  V30 292 H 25.6708 5.85453 1.31776 0
M  V30 293 H 26.7408 4.83733 0.336219 0
M  V30 294 N 28.0839 -0.256276 1.55502 0
M  V30 295 C 29.3309 -0.985619 1.76895 0
M  V30 296 C 29.6589 -1.85671 0.579355 0
M  V30 297 O 28.9139 -1.90744 -0.437651 0
M  V30 298 C 29.2129 -1.88432 3.03691 0
M  V30 299 C 28.8789 -1.16936 4.35473 0
M  V30 300 C 27.5409 -0.97173 4.71286 0
M  V30 301 C 29.8929 -0.661889 5.1698 0
M  V30 302 C 27.2209 -0.254179 5.86149 0
M  V30 303 C 29.5729 0.042149 6.32586 0
M  V30 304 C 28.2369 0.25134 6.67027 0
M  V30 305 H 27.5069 -0.360663 0.647304 0
M  V30 306 H 30.1539 -0.256483 1.89775 0
M  V30 307 H 28.4589 -2.68021 2.85783 0
M  V30 308 H 30.1559 -2.45015 3.1744 0
M  V30 309 H 26.7459 -1.33332 4.07333 0
M  V30 310 H 30.9299 -0.802145 4.89775 0
M  V30 311 H 26.1859 -0.0815408 6.11346 0
M  V30 312 H 30.3599 0.443049 6.94989 0
M  V30 313 H 27.9869 0.809314 7.5588 0
M  V30 314 N 29.562 -1.4872 -0.521534 0
M  V30 315 C 30.492 -1.66771 -1.63431 0
M  V30 316 C 31.473 -0.516499 -1.62069 0
M  V30 317 O 32.658 -0.750013 -1.79132 0
M  V30 318 C 29.788 -1.71515 -3.01993 0
M  V30 319 C 28.742 -2.86222 -3.18216 0
M  V30 320 C 28.068 -2.76061 -4.57924 0
M  V30 321 C 29.368 -4.27419 -3.00184 0
M  V30 322 H 31.062 -2.59932 -1.48579 0
M  V30 323 H 28.608 -1.25089 -0.713358 0
M  V30 324 H 30.561 -1.82731 -3.7972 0
M  V30 325 H 29.285 -0.749393 -3.17886 0
M  V30 326 H 27.944 -2.74575 -2.42908 0
M  V30 327 H 27.592 -1.77437 -4.70665 0
M  V30 328 H 27.292 -3.53037 -4.69722 0
M  V30 329 H 28.816 -2.89256 -5.37739 0
M  V30 330 H 30.23 -4.39855 -3.67697 0
M  V30 331 H 28.627 -5.05458 -3.2347 0
M  V30 332 H 29.697 -4.43293 -1.96518 0
M  V30 333 N 31.0401 0.771051 -1.3745 0
M  V30 334 C 31.9701 1.89827 -1.3597 0
M  V30 335 C 32.9511 1.68562 -0.228216 0
M  V30 336 O 34.1361 1.8941 -0.428675 0
M  V30 337 C 31.2661 3.2712 -1.16662 0
M  V30 338 C 30.2201 3.6295 -2.2683 0
M  V30 339 C 29.5461 4.98791 -1.92644 0
M  V30 340 C 30.8461 3.69627 -3.69017 0
M  V30 341 H 32.5401 1.91323 -2.30295 0
M  V30 342 H 30.0861 0.919082 -1.10855 0
M  V30 343 H 32.0391 4.05615 -1.14256 0
M  V30 344 H 30.7631 3.26059 -0.187926 0
M  V30 345 H 29.4221 2.86763 -2.28392 0
M  V30 346 H 29.0701 4.94271 -0.933021 0
M  V30 347 H 28.7701 5.23733 -2.66416 0
M  V30 348 H 30.2941 5.79685 -1.91826 0
M  V30 349 H 31.7081 4.38273 -3.69581 0
M  V30 350 H 30.1051 4.06067 -4.41848 0
M  V30 351 H 31.1751 2.70273 -4.02592 0
M  V30 352 N 32.5182 1.22032 0.997298 0
M  V30 353 C 33.7652 1.04222 1.73621 0
M  V30 354 C 34.0932 -0.423264 1.89839 0
M  V30 355 O 33.3482 -1.3302 1.43542 0
M  V30 356 C 33.6472 1.69345 3.14733 0
M  V30 357 C 33.3132 3.19226 3.18442 0
M  V30 358 C 31.9752 3.60124 3.19161 0
M  V30 359 C 34.3272 4.15181 3.15078 0
M  V30 360 C 31.6552 4.95467 3.14212 0
M  V30 361 C 34.0072 5.50495 3.1167 0
M  V30 362 C 32.6712 5.90779 3.10703 0
M  V30 363 H 31.9412 0.381374 0.635323 0
M  V30 364 H 34.5882 1.51732 1.16831 0
M  V30 365 H 32.8932 1.14147 3.74803 0
M  V30 366 H 34.5902 1.53059 3.7064 0
M  V30 367 H 31.1802 2.86659 3.18629 0
M  V30 368 H 35.3642 3.84605 3.13676 0
M  V30 369 H 30.6202 5.25916 3.11805 0
M  V30 370 H 34.7942 6.24576 3.08022 0
M  V30 371 H 32.4212 6.9562 3.06622 0
M  V30 372 N 33.9963 -1.19345 1.0293 0
M  V30 373 C 35.2433 -1.89038 0.726008 0
M  V30 374 C 35.5713 -1.79649 -0.745427 0
M  V30 375 O 34.8263 -1.18354 -1.55855 0
M  V30 376 C 35.1253 -3.39292 1.12319 0
M  V30 377 C 34.7913 -3.68885 2.59297 0
M  V30 378 C 33.4533 -3.76671 2.99453 0
M  V30 379 C 35.8053 -3.82178 3.54386 0
M  V30 380 C 33.1333 -3.9522 4.33611 0
M  V30 381 C 35.4853 -4.0224 4.88248 0
M  V30 382 C 34.1493 -4.08259 5.28092 0
M  V30 383 H 33.4193 -0.691739 0.265665 0
M  V30 384 H 36.0663 -1.41328 1.29223 0
M  V30 385 H 34.3713 -3.88903 0.475584 0
M  V30 386 H 36.0683 -3.91536 0.866037 0
M  V30 387 H 32.6583 -3.63433 2.27189 0
M  V30 388 H 36.8423 -3.75505 3.24514 0
M  V30 389 H 32.0983 -3.98119 4.64016 0
M  V30 390 H 36.2723 -4.11468 5.61843 0
M  V30 391 H 33.8993 -4.22384 6.32057 0
M  V30 392 N 35.4744 -0.807222 -1.35358 0
M  V30 393 C 36.7204 -0.397594 -1.99476 0
M  V30 394 C 37.0754 1.02405 -1.62883 0
M  V30 395 O 36.3684 1.70077 -0.882282 0
M  V30 396 C 36.5624 -0.519036 -3.53611 0
M  V30 397 C 36.3914 -1.95094 -4.05177 0
M  V30 398 C 35.1614 -2.57945 -4.34503 0
M  V30 399 C 37.3594 -2.91558 -4.23673 0
M  V30 400 N 35.3414 -3.92539 -4.72003 0
M  V30 401 C 36.7124 -4.11024 -4.64176 0
M  V30 402 C 38.7674 -2.88381 -4.05883 0
M  V30 403 C 37.4704 -5.27745 -4.88751 0
M  V30 404 C 39.4964 -4.04306 -4.31614 0
M  V30 405 C 38.8584 -5.22519 -4.72391 0
M  V30 406 H 34.9574 -0.193274 -0.75774 0
M  V30 407 H 37.5414 -1.0486 -1.6405 0
M  V30 408 H 35.7124 0.101979 -3.88266 0
M  V30 409 H 37.4444 -0.0839321 -4.04613 0
M  V30 410 H 34.1994 -2.09295 -4.24844 0
M  V30 411 H 34.6234 -4.61836 -4.95011 0
M  V30 412 H 39.2654 -1.98137 -3.73499 0
M  V30 413 H 36.9834 -6.1856 -5.20008 0
M  V30 414 H 40.5694 -4.03229 -4.19402 0
M  V30 415 H 39.4494 -6.1073 -4.91913 0
M  V30 416 N 36.9525 1.47285 -0.560781 0
M  V30 417 C 37.8825 2.32857 0.173105 0
M  V30 418 C 38.8635 1.44009 0.905281 0
M  V30 419 O 40.0485 1.7286 0.885046 0
M  V30 420 C 37.1785 3.25861 1.20133 0
M  V30 421 C 36.1325 4.23978 0.585388 0
M  V30 422 C 35.4585 5.06332 1.7185 0
M  V30 423 C 36.7585 5.20242 -0.463178 0
M  V30 424 H 38.4525 2.94466 -0.541307 0
M  V30 425 H 35.9985 1.41601 -0.261764 0
M  V30 426 H 37.9515 3.84569 1.72293 0
M  V30 427 H 36.6755 2.62315 1.94573 0
M  V30 428 H 35.3345 3.66501 0.085054 0
M  V30 429 H 34.9825 4.39186 2.45203 0
M  V30 430 H 34.6825 5.72762 1.31213 0
M  V30 431 H 36.2065 5.67899 2.24329 0
M  V30 432 H 37.6205 5.73293 -0.027502 0
M  V30 433 H 36.0175 5.94896 -0.788627 0
M  V30 434 H 37.0875 4.65504 -1.35773 0
M  V30 435 N 38.4306 0.297415 1.54768 0
M  V30 436 C 39.7076 -0.365847 1.92148 0
M  V30 437 C 40.0876 -1.71975 1.22424 0
M  V30 438 O 39.4356 -2.25666 0.358739 0
M  V30 439 C 39.6456 -0.484056 3.45627 0
M  V30 440 C 40.9936 -0.756594 4.17805 0
M  V30 441 O 42.0176 -0.568007 3.51642 0
M  V30 442 O 40.8766 -1.11863 5.34929 0
M  V30 443 H 37.9706 -0.203919 0.801465 0
M  V30 444 H 40.5166 0.34521 1.66152 0
M  V30 445 H 39.2886 0.467865 3.88493 0
M  V30 446 H 38.9116 -1.24372 3.77647 0
M  V30 447 N 39.9087 -1.5758 0.0250728 0
M  V30 448 C 41.3247 -1.56124 -0.331282 0
M  V30 449 C 41.5247 -1.03029 -1.73169 0
M  V30 450 O 40.5807 -0.675215 -2.43305 0
M  V30 451 C 41.8937 -3.00139 -0.183584 0
M  V30 452 C 43.4417 -3.11946 -0.256654 0
M  V30 453 C 43.9167 -4.57793 -0.137792 0
M  V30 454 N 45.4077 -4.6279 -0.194904 0
M  V30 455 C 46.1427 -5.7326 -0.126655 0
M  V30 456 N 45.6387 -6.928 -0.00755288 0
M  V30 457 N 47.4317 -5.61811 -0.180348 0
M  V30 458 H 39.5827 -1.90424 0.94087 0
M  V30 459 H 41.8457 -0.875761 0.362968 0
M  V30 460 H 41.5517 -3.4292 0.780927 0
M  V30 461 H 41.4257 -3.64899 -0.955448 0
M  V30 462 H 43.8127 -2.69079 -1.21162 0
M  V30 463 H 43.8937 -2.49915 0.545517 0
M  V30 464 H 43.5377 -5.01339 0.813739 0
M  V30 465 H 43.4677 -5.17798 -0.958775 0
M  V30 466 H 45.9587 -3.76807 -0.287267 0
M  V30 467 H 46.2717 -7.72791 0.0379428 0
M  V30 468 H 44.6167 -6.94995 0.0271731 0
M  V30 469 H 47.8077 -4.6731 -0.271767 0
M  V30 470 H 47.9807 -6.47882 -0.123697 0
M  V30 471 N 41.3868 0.248026 -1.55636 0
M  V30 472 C 42.6118 0.998028 -1.81808 0
M  V30 473 C 43.0368 1.78207 -0.601979 0
M  V30 474 O 42.3948 1.75653 0.448961 0
M  V30 475 C 42.4428 1.9125 -3.05705 0
M  V30 476 O 41.5468 3.00406 -2.82542 0
M  V30 477 H 40.8878 0.284045 -0.600179 0
M  V30 478 H 43.4178 0.269357 -2.02819 0
M  V30 479 H 43.4278 2.32737 -3.35108 0
M  V30 480 H 42.1028 1.33602 -3.93857 0
M  V30 481 H 40.6798 2.63056 -2.64303 0
M  V30 482 N 42.8649 1.48995 0.513639 0
M  V30 483 C 44.1109 1.58076 1.27042 0
M  V30 484 C 44.4439 0.261026 1.92438 0
M  V30 485 O 43.7189 -0.734393 1.80103 0
M  V30 486 C 44.0019 2.73091 2.34719 0
M  V30 487 C 43.8549 4.14821 1.73907 0
M  V30 488 C 45.1739 2.83796 3.36375 0
M  V30 489 H 42.2929 0.575391 0.460536 0
M  V30 490 H 44.9349 1.81232 0.570516 0
M  V30 491 H 43.0849 2.53479 2.94416 0
M  V30 492 H 44.7569 4.45917 1.18135 0
M  V30 493 H 42.9999 4.21058 1.0437 0
M  V30 494 H 43.6709 4.91147 2.51949 0
M  V30 495 H 46.1469 3.01611 2.86653 0
M  V30 496 H 45.0229 3.65971 4.09093 0
M  V30 497 H 45.2839 1.92624 3.9793 0
M  V30 498 N 44.343 -0.763751 1.37857 0
M  V30 499 C 45.273 -1.89103 1.36975 0
M  V30 500 C 46.254 -1.68439 0.237152 0
M  V30 501 O 47.439 -1.8918 0.438713 0
M  V30 502 C 44.569 -3.26496 1.18395 0
M  V30 503 C 43.523 -3.61741 2.28751 0
M  V30 504 C 42.849 -4.97762 1.95286 0
M  V30 505 C 44.149 -3.67665 3.70972 0
M  V30 506 H 45.843 -1.90099 2.31307 0
M  V30 507 H 43.389 -0.91319 1.11341 0
M  V30 508 H 45.342 -4.05003 1.16406 0
M  V30 509 H 44.066 -3.25955 0.205215 0
M  V30 510 H 42.725 -2.85547 2.29909 0
M  V30 511 H 42.373 -4.93769 0.959221 0
M  V30 512 H 42.073 -5.22313 2.69189 0
M  V30 513 H 43.597 -5.7866 1.94898 0
M  V30 514 H 45.011 -4.36307 3.719 0
M  V30 515 H 43.408 -4.03718 4.43995 0
M  V30 516 H 44.478 -2.68134 4.0402 0
M  V30 517 N 45.8211 -1.22559 -0.990812 0
M  V30 518 C 46.7841 -0.998863 -2.0629 0
M  V30 519 C 47.7841 0.0354834 -1.60761 0
M  V30 520 O 48.9741 -0.203231 -1.7301 0
M  V30 521 C 46.1061 -0.509203 -3.37076 0
M  V30 522 H 47.2991 -1.95014 -2.27837 0
M  V30 523 H 44.8521 -1.04456 -1.16269 0
M  V30 524 H 45.5871 0.446335 -3.21214 0
M  V30 525 H 45.3721 -1.25547 -3.71457 0
M  V30 526 H 46.8621 -0.370888 -4.1595 0
M  V30 527 N 47.2992 1.18797 -1.03562 0
M  V30 528 C 48.2462 2.22253 -0.622259 0
M  V30 529 C 49.2162 1.61987 0.36736 0
M  V30 530 O 50.4012 1.88986 0.262492 0
M  V30 531 C 47.5412 3.45097 0.0138462 0
M  V30 532 C 46.6542 4.19722 -1.02263 0
M  V30 533 C 45.7892 5.30009 -0.355573 0
M  V30 534 C 44.8282 5.96399 -1.37749 0
M  V30 535 N 43.9652 6.98234 -0.735766 0
M  V30 536 H 48.8052 2.56968 -1.50903 0
M  V30 537 H 46.3422 1.26245 -0.755017 0
M  V30 538 H 48.3002 4.15279 0.399948 0
M  V30 539 H 46.9302 3.11018 0.864158 0
M  V30 540 H 45.9822 3.48418 -1.52673 0
M  V30 541 H 47.2942 4.65227 -1.79903 0
M  V30 542 H 46.4482 6.0664 0.0850095 0
M  V30 543 H 45.1872 4.85592 0.452967 0
M  V30 544 H 44.1922 5.18512 -1.82826 0
M  V30 545 H 45.4172 6.42899 -2.18764 0
M  V30 546 H 43.3632 6.55979 0.0525597 0
M  V30 547 H 43.2802 7.41965 -1.44995 0
M  V30 548 H 44.5482 7.78845 -0.31941 0
M  V30 549 N 48.7773 0.814389 1.34928 0
M  V30 550 C 49.6873 0.231978 2.3345 0
M  V30 551 C 50.7033 -0.629139 1.62228 0
M  V30 552 O 51.8793 -0.539052 1.94052 0
M  V30 553 C 48.9443 -0.603482 3.41407 0
M  V30 554 C 48.0053 0.279037 4.28392 0
M  V30 555 C 47.2383 -0.516643 5.31193 0
M  V30 556 O 47.4613 -1.75068 5.4287 0
M  V30 557 O 46.3953 0.0965652 6.01823 0
M  V30 558 H 50.2213 1.04721 2.85074 0
M  V30 559 H 47.8063 0.576343 1.37836 0
M  V30 560 H 49.6883 -1.07908 4.0735 0
M  V30 561 H 48.3633 -1.39618 2.92042 0
M  V30 562 H 47.2703 0.801948 3.65403 0
M  V30 563 H 48.6033 1.03588 4.81176 0
M  V30 564 N 50.2554 -1.46986 0.568584 0
M  V30 565 C 51.1854 -2.32946 -0.160753 0
M  V30 566 C 52.1664 -1.44487 -0.897631 0
M  V30 567 O 53.3514 -1.73327 -0.875867 0
M  V30 568 C 50.4814 -3.26494 -1.18403 0
M  V30 569 C 49.4354 -4.24282 -0.562895 0
M  V30 570 C 48.7614 -5.07236 -1.69163 0
M  V30 571 C 50.0614 -5.19989 0.490761 0
M  V30 572 H 51.7554 -2.94175 0.556916 0
M  V30 573 H 49.3014 -1.4146 0.26927 0
M  V30 574 H 51.2544 -3.85477 -1.70251 0
M  V30 575 H 49.9784 -2.63343 -1.93179 0
M  V30 576 H 48.6374 -3.66541 -0.0656164 0
M  V30 577 H 48.2854 -4.4048 -2.42871 0
M  V30 578 H 47.9854 -5.7345 -1.28174 0
M  V30 579 H 49.5094 -5.6908 -2.21314 0
M  V30 580 H 50.9234 -5.73271 0.0579047 0
M  V30 581 H 49.3204 -5.94469 0.820165 0
M  V30 582 H 50.3904 -4.64777 1.3824 0
M  V30 583 N 51.7335 -0.305618 -1.54608 0
M  V30 584 C 52.6805 0.568421 -2.23691 0
M  V30 585 C 53.6505 1.12592 -1.22116 0
M  V30 586 O 54.8355 1.16959 -1.50749 0
M  V30 587 C 51.9755 1.7322 -2.98477 0
M  V30 588 C 51.0885 1.20566 -4.14835 0
M  V30 589 C 50.2235 2.33368 -4.77193 0
M  V30 590 C 49.2625 1.7787 -5.85686 0
M  V30 591 N 48.3995 2.84263 -6.4198 0
M  V30 592 H 53.2395 -0.0272867 -2.97988 0
M  V30 593 H 50.7765 -0.0252363 -1.47078 0
M  V30 594 H 52.7345 2.41675 -3.40072 0
M  V30 595 H 51.3645 2.29947 -2.26548 0
M  V30 596 H 50.4165 0.413223 -3.78149 0
M  V30 597 H 51.7285 0.759417 -4.92985 0
M  V30 598 H 50.8825 3.09761 -5.21664 0
M  V30 599 H 49.6215 2.8132 -3.98385 0
M  V30 600 H 48.6265 0.99968 -5.40635 0
M  V30 601 H 49.8515 1.30816 -6.66381 0
M  V30 602 H 47.7975 3.31541 -5.66053 0
M  V30 603 H 47.7145 2.44149 -7.15491 0
M  V30 604 H 48.9825 3.6054 -6.91109 0
M  V30 605 N 53.2116 1.57565 -0.0334293 0
M  V30 606 C 54.4586 1.91978 0.644272 0
M  V30 607 C 54.7866 0.910231 1.71887 0
M  V30 608 O 54.0416 -0.0801961 1.95536 0
M  V30 609 C 54.3406 3.33112 1.29504 0
M  V30 610 C 54.0066 4.49537 0.350388 0
M  V30 611 C 52.6686 4.81115 0.0903974 0
M  V30 612 C 55.0206 5.20347 -0.298032 0
M  V30 613 C 52.3486 5.8086 -0.825746 0
M  V30 614 C 54.7006 6.2107 -1.20226 0
M  V30 615 C 53.3646 6.51088 -1.4711 0
M  V30 616 H 52.6346 0.702496 0.235756 0
M  V30 617 H 55.2816 1.91259 -0.0961176 0
M  V30 618 H 53.5866 3.30113 2.11028 0
M  V30 619 H 55.2836 3.57011 1.82603 0
M  V30 620 H 51.8736 4.24883 0.563205 0
M  V30 621 H 56.0576 4.96178 -0.110234 0
M  V30 622 H 51.3136 6.02461 -1.04169 0
M  V30 623 H 55.4876 6.75057 -1.71086 0
M  V30 624 H 53.1146 7.28193 -2.18264 0
M  V30 625 N 54.6897 -0.239769 1.55765 0
M  V30 626 C 55.9357 -0.968234 1.78194 0
M  V30 627 C 56.2687 -1.84701 0.599938 0
M  V30 628 O 55.5437 -1.9031 -0.401524 0
M  V30 629 C 55.8267 -1.8227 3.10564 0
M  V30 630 C 55.6797 -0.971633 4.3918 0
M  V30 631 C 56.9987 -2.80388 3.39221 0
M  V30 632 H 54.1177 -0.350572 0.648281 0
M  V30 633 H 56.7597 -0.238259 1.885 0
M  V30 634 H 54.9097 -2.44507 3.01908 0
M  V30 635 H 56.5817 -0.367408 4.59835 0
M  V30 636 H 54.8247 -0.276276 4.32919 0
M  V30 637 H 55.4957 -1.60346 5.28198 0
M  V30 638 H 57.9717 -2.28287 3.47885 0
M  V30 639 H 56.8477 -3.3729 4.33044 0
M  V30 640 H 57.1087 -3.57212 2.60484 0
M  V30 641 N 56.1678 -1.49265 -0.50573 0
M  V30 642 C 57.3958 -1.62215 -1.28429 0
M  V30 643 C 57.8108 -0.291697 -1.86533 0
M  V30 644 O 57.1678 0.722233 -1.67601 0
M  V30 645 C 57.2188 -2.68735 -2.41793 0
M  V30 646 O 56.9398 -3.96619 -1.86078 0
M  V30 647 C 58.4408 -2.92346 -3.3324 0
M  V30 648 H 55.6608 -0.546239 -0.389697 0
M  V30 649 H 58.2048 -1.95265 -0.607609 0
M  V30 650 H 56.3598 -2.38476 -3.053 0
M  V30 651 H 56.7738 -4.55256 -2.60465 0
M  V30 652 H 58.2478 -3.70623 -4.09075 0
M  V30 653 H 58.7248 -2.02081 -3.89948 0
M  V30 654 H 59.3308 -3.24003 -2.75503 0
M  V30 655 N 57.6459 0.756429 -1.3826 0
M  V30 656 C 58.5759 1.88374 -1.37976 0
M  V30 657 C 59.5569 1.68311 -0.246082 0
M  V30 658 O 60.7419 1.88944 -0.44874 0
M  V30 659 C 57.8719 3.25864 -1.20125 0
M  V30 660 C 56.8259 3.60523 -2.30666 0
M  V30 661 C 56.1519 4.9672 -1.97923 0
M  V30 662 C 57.4519 3.65692 -3.72916 0
M  V30 663 H 59.1459 1.88869 -2.32312 0
M  V30 664 H 56.6919 0.907272 -1.11824 0
M  V30 665 H 58.6449 4.0438 -1.18552 0
M  V30 666 H 57.3689 3.25841 -0.222498 0
M  V30 667 H 56.0279 2.84324 -2.3142 0
M  V30 668 H 55.6759 4.93253 -0.985393 0
M  V30 669 H 55.3759 5.20878 -2.71955 0
M  V30 670 H 56.8999 5.77618 -1.97964 0
M  V30 671 H 58.3139 4.34328 -3.74208 0
M  V30 672 H 56.7109 4.01358 -4.4613 0
M  V30 673 H 57.7809 2.65987 -4.05436 0
M  V30 674 N 59.124 1.23083 0.984299 0
M  V30 675 C 60.37 1.06214 1.72761 0
M  V30 676 C 60.703 -0.400584 1.90024 0
M  V30 677 O 59.978 -1.29672 1.44967 0
M  V30 678 C 60.261 1.78375 3.12817 0
M  V30 679 C 60.114 3.32296 3.03149 0
M  V30 680 C 61.433 1.54309 4.12161 0
M  V30 681 H 58.552 0.387251 0.627061 0
M  V30 682 H 61.194 1.51536 1.14616 0
M  V30 683 H 59.344 1.39848 3.62457 0
M  V30 684 H 61.016 3.8032 2.61064 0
M  V30 685 H 59.259 3.6153 2.39747 0
M  V30 686 H 59.93 3.77972 4.02295 0
M  V30 687 H 62.406 1.87791 3.71314 0
M  V30 688 H 61.282 2.07281 5.08258 0
M  V30 689 H 61.543 0.477572 4.39513 0
M  V30 690 N 60.6021 -1.18246 1.0419 0
M  V30 691 C 61.8491 -1.88257 0.746017 0
M  V30 692 C 62.1771 -1.80429 -0.726331 0
M  V30 693 O 61.4321 -1.2 -1.54591 0
M  V30 694 C 61.7311 -3.38082 1.15911 0
M  V30 695 C 61.3971 -3.66114 2.63195 0
M  V30 696 C 60.0591 -3.73474 3.03432 0
M  V30 697 C 62.4111 -3.78398 3.5842 0
M  V30 698 C 59.7391 -3.90599 4.37778 0
M  V30 699 C 62.0911 -3.97039 4.92487 0
M  V30 700 C 60.7551 -4.02635 5.32392 0
M  V30 701 H 60.0251 -0.688883 0.272987 0
M  V30 702 H 62.6721 -1.3995 1.30715 0
M  V30 703 H 60.9771 -3.88377 0.516806 0
M  V30 704 H 62.6741 -3.90596 0.907516 0
M  V30 705 H 59.2641 -3.61003 2.3103 0
M  V30 706 H 63.4481 -3.72042 3.28479 0
M  V30 707 H 58.7041 -3.93175 4.68213 0
M  V30 708 H 62.8781 -4.05486 5.66175 0
M  V30 709 H 60.5051 -4.15657 6.36501 0
M  V30 710 N 62.0802 -0.821533 -1.34494 0
M  V30 711 C 63.4962 -0.507117 -1.51329 0
M  V30 712 C 63.6962 0.968964 -1.76673 0
M  V30 713 O 62.7522 1.75348 -1.81685 0
M  V30 714 C 64.0652 -1.36544 -2.67911 0
M  V30 715 C 65.6132 -1.36242 -2.81793 0
M  V30 716 C 66.0882 -2.2052 -4.01416 0
M  V30 717 N 67.5792 -2.18136 -4.08621 0
M  V30 718 C 68.3142 -2.80095 -5.00334 0
M  V30 719 N 67.8102 -3.51039 -5.9728 0
M  V30 720 N 69.6032 -2.69656 -4.93196 0
M  V30 721 H 61.7542 -1.77729 -1.16302 0
M  V30 722 H 64.0172 -0.757291 -0.570276 0
M  V30 723 H 63.7232 -2.41361 -2.55808 0
M  V30 724 H 63.5972 -1.02917 -3.62888 0
M  V30 725 H 65.9842 -0.322041 -2.93338 0
M  V30 726 H 66.0652 -1.73866 -1.87628 0
M  V30 727 H 65.7092 -3.24607 -3.90631 0
M  V30 728 H 65.6392 -1.80247 -4.94791 0
M  V30 729 H 68.1302 -1.6653 -3.39229 0
M  V30 730 H 68.4432 -3.95565 -6.63889 0
M  V30 731 H 66.7882 -3.55145 -5.97409 0
M  V30 732 H 69.9792 -2.13808 -4.16418 0
M  V30 733 H 70.1522 -3.1823 -5.64476 0
M  V30 734 N 63.5583 1.46682 -0.576371 0
M  V30 735 C 64.5083 2.27278 0.181288 0
M  V30 736 C 65.4923 1.35497 0.867721 0
M  V30 737 O 66.6843 1.59717 0.762863 0
M  V30 738 C 63.8133 3.21703 1.19841 0
M  V30 739 C 62.8993 4.20969 0.51442 0
M  V30 740 N 63.2903 5.03999 -0.426407 0
M  V30 741 C 61.5883 4.39373 0.765963 0
M  V30 742 C 62.2893 5.75812 -0.825565 0
M  V30 743 N 61.2653 5.43315 -0.176116 0
M  V30 744 H 65.0673 2.88863 -0.541785 0
M  V30 745 H 62.5813 1.57455 -0.397697 0
M  V30 746 H 64.5783 3.78145 1.75533 0
M  V30 747 H 63.2383 2.61677 1.92238 0
M  V30 748 H 64.2493 5.11659 -0.8016 0
M  V30 749 H 60.9263 3.90502 1.47698 0
M  V30 750 H 62.3163 6.52577 -1.59976 0
M  V30 751 N 65.0364 0.313813 1.54444 0
M  V30 752 C 66.2844 -0.291099 1.99993 0
M  V30 753 C 66.6054 -1.53418 1.20366 0
M  V30 754 O 65.8754 -1.93544 0.302927 0
M  V30 755 H 64.4554 -0.110552 0.738774 0
M  V30 756 H 67.1174 0.428106 1.9014 0
M  V30 757 H 66.2134 -0.554268 3.07139 0
M  V30 758 N 66.5145 -1.57545 0.0417849 0
M  V30 759 C 67.7915 -1.83642 -0.673433 0
M  V30 760 C 68.1715 -0.928298 -1.89594 0
M  V30 761 O 67.5195 0.0129955 -2.28496 0
M  V30 762 C 67.7295 -3.33155 -1.03964 0
M  V30 763 C 69.0775 -3.99941 -1.42592 0
M  V30 764 O 70.1015 -3.37725 -1.13226 0
M  V30 765 O 68.9605 -5.09619 -1.9736 0
M  V30 766 H 66.0545 -0.757638 -0.331533 0
M  V30 767 H 68.6005 -1.69554 0.070433 0
M  V30 768 H 67.3725 -3.9093 -0.170098 0
M  V30 769 H 66.9955 -3.52396 -1.84126 0
M  V30 770 N 67.9926 0.231505 -1.5589 0
M  V30 771 C 69.4086 0.580748 -1.48659 0
M  V30 772 C 69.6086 1.87617 -0.73498 0
M  V30 773 O 68.6646 2.51046 -0.270586 0
M  V30 774 C 69.9776 0.669202 -2.93159 0
M  V30 775 C 71.5256 0.760499 -3.03621 0
M  V30 776 C 72.0006 0.880383 -4.49459 0
M  V30 777 N 73.4916 0.944861 -4.53461 0
M  V30 778 C 74.2266 1.05716 -5.63571 0
M  V30 779 N 73.7226 1.13403 -6.83456 0
M  V30 780 N 75.5156 1.09152 -5.514 0
M  V30 781 H 67.6666 -0.618695 -2.03189 0
M  V30 782 H 69.9296 -0.215728 -0.923128 0
M  V30 783 H 69.6356 -0.212904 -3.51055 0
M  V30 784 H 69.5096 1.5361 -3.44505 0
M  V30 785 H 71.8966 1.63305 -2.45796 0
M  V30 786 H 71.9776 -0.131864 -2.5546 0
M  V30 787 H 71.6216 0.0123284 -5.07899 0
M  V30 788 H 71.5516 1.78802 -4.95316 0
M  V30 789 H 74.0426 0.896176 -3.6712 0
M  V30 790 H 74.3556 1.21921 -7.63122 0
M  V30 791 H 72.7006 1.10333 -6.86186 0
M  V30 792 H 75.8916 1.02805 -4.56671 0
M  V30 793 H 76.0646 1.17558 -6.37247 0
M  V30 794 N 69.4707 1.49531 0.497807 0
M  V30 795 C 70.6957 1.63159 1.28039 0
M  V30 796 C 71.1207 0.30418 1.85624 0
M  V30 797 O 70.4787 -0.728618 1.66015 0
M  V30 798 C 70.5267 2.70537 2.38416 0
M  V30 799 O 69.6307 2.29931 3.42353 0
M  V30 800 H 68.9717 0.546001 0.377861 0
M  V30 801 H 71.5017 1.9574 0.59558 0
M  V30 802 H 71.5117 2.92802 2.84132 0
M  V30 803 H 70.1867 3.6689 1.95869 0
M  V30 804 H 68.7637 2.18009 3.02533 0
M  V30 805 N 70.9488 -0.749086 1.3866 0
M  V30 806 C 72.3598 -1.32664 1.31366 0
M  V30 807 C 72.7108 -1.96179 -0.028484 0
M  V30 808 O 71.8358 -1.9537 -0.93057 0
M  V30 809 C 72.4308 -2.41219 2.37905 0
M  V30 810 C 70.9898 -2.94684 2.34176 0
M  V30 811 C 70.1368 -1.68108 2.20533 0
M  V30 812 H 73.0878 -0.547628 1.48952 0
M  V30 813 H 73.1088 -3.21268 2.0388 0
M  V30 814 H 72.6208 -1.94962 3.35576 0
M  V30 815 H 70.7218 -3.45258 1.401 0
M  V30 816 H 70.8348 -3.48757 3.2849 0
M  V30 817 H 69.1988 -1.91907 1.67463 0
M  V30 818 H 69.9818 -1.23923 3.20153 0
M  V30 819 N 72.4269 -1.23603 -0.977757 0
M  V30 820 C 73.6759 -1.06377 -1.71368 0
M  V30 821 C 73.9889 0.399062 -1.91486 0
M  V30 822 O 75.1949 0.691312 -2.62551 0
M  V30 823 C 73.6509 -1.85512 -3.08404 0
M  V30 824 C 73.2589 -3.36141 -2.96164 0
M  V30 825 C 75.0029 -1.76783 -3.85938 0
M  V30 826 C 72.9099 -4.07659 -4.28449 0
M  V30 827 H 71.8399 -0.394452 -0.642591 0
M  V30 828 H 74.4909 -1.47594 -1.09034 0
M  V30 829 H 72.8729 -1.37103 -3.71509 0
M  V30 830 H 74.0469 -3.92056 -2.42133 0
M  V30 831 H 72.3619 -3.45712 -2.32104 0
M  V30 832 H 74.9589 -2.27526 -4.83876 0
M  V30 833 H 75.3019 -0.731116 -4.0983 0
M  V30 834 H 75.8349 -2.22818 -3.2954 0
M  V30 835 H 72.5739 -5.11648 -4.09752 0
M  V30 836 H 72.0939 -3.5653 -4.82334 0
M  V30 837 H 73.7729 -4.141 -4.97122 0
M  V30 838 N 73.905 1.17692 -1.04816 0
M  V30 839 C 75.182 1.83768 -0.669963 0
M  V30 840 C 75.562 1.93232 0.849986 0
M  V30 841 O 74.91 1.46397 1.75443 0
M  V30 842 C 75.12 3.21641 -1.35455 0
M  V30 843 C 76.468 3.97592 -1.49017 0
M  V30 844 O 77.492 3.31107 -1.31326 0
M  V30 845 O 76.351 5.16729 -1.77914 0
M  V30 846 H 73.445 0.792799 -0.235368 0
M  V30 847 H 75.991 1.25021 -1.14751 0
M  V30 848 H 74.763 3.097 -2.39168 0
M  V30 849 H 74.386 3.88052 -0.866107 0
M  V30 850 N 75.3831 0.828654 1.34056 0
M  V30 851 C 76.6111 0.43262 2.02326 0
M  V30 852 C 77.0261 -0.963147 1.62385 0
M  V30 853 O 76.3831 -1.62425 0.832121 0
M  V30 854 C 76.4341 0.53182 3.57567 0
M  V30 855 O 76.1551 1.87258 3.96063 0
M  V30 856 C 77.6561 0.131422 4.43105 0
M  V30 857 H 74.8761 0.172923 0.648335 0
M  V30 858 H 77.4201 1.1184 1.71208 0
M  V30 859 H 75.5751 -0.105938 3.87255 0
M  V30 860 H 75.9891 1.85087 4.90758 0
M  V30 861 H 77.4631 0.251904 5.51425 0
M  V30 862 H 77.9401 -0.925645 4.29335 0
M  V30 863 H 78.5461 0.743207 4.18756 0
M  V30 864 N 76.8612 -1.46375 0.584142 0
M  V30 865 C 78.1082 -2.02378 0.0702675 0
M  V30 866 C 78.4362 -1.45545 -1.29023 0
M  V30 867 O 77.6912 -0.610967 -1.85918 0
M  V30 868 C 77.9902 -3.57373 -0.0439342 0
M  V30 869 C 77.6562 -4.33252 1.24915 0
M  V30 870 C 76.3182 -4.53701 1.60341 0
M  V30 871 C 78.6702 -4.7681 2.1048 0
M  V30 872 C 75.9982 -5.1496 2.81128 0
M  V30 873 C 78.3502 -5.39404 3.30494 0
M  V30 874 C 77.0142 -5.5808 3.66201 0
M  V30 875 H 76.2842 -0.740554 0.0257127 0
M  V30 876 H 78.9312 -1.75727 0.761065 0
M  V30 877 H 77.2362 -3.83169 -0.817869 0
M  V30 878 H 78.9332 -3.98384 -0.457318 0
M  V30 879 H 75.5232 -4.17633 0.963364 0
M  V30 880 H 79.7072 -4.60766 1.84414 0
M  V30 881 H 74.9632 -5.27611 3.08928 0
M  V30 882 H 79.1372 -5.72114 3.97063 0
M  V30 883 H 76.7642 -6.05318 4.59885 0
M  V30 884 N 78.3393 -0.321999 -1.54275 0
M  V30 885 C 79.7503 0.166384 -1.85957 0
M  V30 886 C 80.1013 1.51747 -1.24367 0
M  V30 887 O 79.2263 2.09317 -0.549124 0
M  V30 888 C 79.8213 0.308681 -3.37391 0
M  V30 889 C 78.3803 0.741286 -3.69028 0
M  V30 890 C 77.5273 -0.137937 -2.76957 0
M  V30 891 H 80.4783 -0.542335 -1.49146 0
M  V30 892 H 80.4993 1.13984 -3.63026 0
M  V30 893 H 80.0113 -0.674809 -3.82188 0
M  V30 894 H 78.1123 1.73458 -3.29762 0
M  V30 895 H 78.2253 0.546118 -4.75977 0
M  V30 896 H 76.5893 0.386251 -2.51754 0
M  V30 897 H 77.3723 -1.11816 -3.2458 0
M  V30 898 N 79.8174 1.5752 -0.0501392 0
M  V30 899 C 81.0454 1.96963 0.633492 0
M  V30 900 C 81.4604 0.927631 1.6444 0
M  V30 901 O 80.8174 -0.0882665 1.82286 0
M  V30 902 C 80.8684 3.36487 1.32132 0
M  V30 903 O 80.5894 4.36693 0.350894 0
M  V30 904 C 82.0904 3.90682 2.09481 0
M  V30 905 H 79.3104 0.648244 0.173266 0
M  V30 906 H 81.8544 2.0417 -0.116134 0
M  V30 907 H 80.0094 3.30434 2.02218 0
M  V30 908 H 80.4234 5.17702 0.841735 0
M  V30 909 H 81.8974 4.90591 2.5303 0
M  V30 910 H 82.3744 3.26053 2.94255 0
M  V30 911 H 82.9804 4.00069 1.44307 0
M  V30 912 N 81.2955 -0.223234 1.56011 0
M  V30 913 C 82.5725 -0.972108 1.69733 0
M  V30 914 C 82.9525 -2.02485 0.59691 0
M  V30 915 O 82.3005 -2.25037 -0.396324 0
M  V30 916 C 82.5105 -1.58407 3.10979 0
M  V30 917 C 83.8585 -2.07696 3.70334 0
M  V30 918 O 84.8825 -1.68304 3.1393 0
M  V30 919 O 83.7415 -2.80096 4.69264 0
M  V30 920 H 80.8355 -0.453993 0.691245 0
M  V30 921 H 83.3815 -0.215149 1.68331 0
M  V30 922 H 82.1535 -0.823831 3.82529 0
M  V30 923 H 81.7765 -2.40661 3.16493 0
M  V30 924 N 82.7736 -1.49793 -0.48987 0
M  V30 925 C 84.1846 -1.52914 -1.07118 0
M  V30 926 C 84.5356 -0.321738 -1.93544 0
M  V30 927 O 83.6606 0.567338 -2.08831 0
M  V30 928 C 84.2556 -2.771 -1.94938 0
M  V30 929 C 82.8146 -2.82963 -2.48212 0
M  V30 930 C 81.9616 -2.46972 -1.26096 0
M  V30 931 H 84.9126 -1.56329 -0.273289 0
M  V30 932 H 84.9336 -2.57892 -2.79771 0
M  V30 933 H 84.4456 -3.64959 -1.32009 0
M  V30 934 H 82.5466 -1.99411 -3.14748 0
M  V30 935 H 82.6596 -3.85406 -2.84603 0
M  V30 936 H 81.0236 -1.98994 -1.58976 0
M  V30 937 H 81.8066 -3.37118 -0.648581 0
M  V30 938 N 84.2517 0.741722 -1.39055 0
M  V30 939 C 85.5007 1.49656 -1.35225 0
M  V30 940 C 85.8137 1.95533 0.0512708 0
M  V30 941 O 87.0197 2.7067 0.212138 0
M  V30 942 C 85.4757 2.70389 -2.37525 0
M  V30 943 C 85.0837 2.31489 -3.83558 0
M  V30 944 C 86.8277 3.48236 -2.42759 0
M  V30 945 C 84.7347 3.48903 -4.77515 0
M  V30 946 H 83.6647 0.56197 -0.502699 0
M  V30 947 H 86.3157 0.809727 -1.64668 0
M  V30 948 H 84.6977 3.41113 -2.01142 0
M  V30 949 H 85.8717 1.68354 -4.28945 0
M  V30 950 H 84.1867 1.66749 -3.81554 0
M  V30 951 H 86.7837 4.35558 -3.1015 0
M  V30 952 H 87.1267 3.90229 -1.45008 0
M  V30 953 H 87.6597 2.84535 -2.78002 0
M  V30 954 H 84.3987 3.11966 -5.76504 0
M  V30 955 H 83.9187 4.11041 -4.36813 0
M  V30 956 H 85.5977 4.15328 -4.96096 0
M  V30 957 N 85.7298 1.2412 0.971189 0
M  V30 958 C 86.6768 1.0305 2.06517 0
M  V30 959 C 87.6468 -0.0550666 1.66009 0
M  V30 960 O 88.8318 0.0988688 1.90544 0
M  V30 961 C 85.9718 0.637653 3.39158 0
M  V30 962 C 85.0848 1.79633 3.92882 0
M  V30 963 C 84.2198 1.34939 5.13775 0
M  V30 964 C 83.2588 2.47823 5.59687 0
M  V30 965 N 82.3958 2.04022 6.71803 0
M  V30 966 H 87.2358 1.96685 2.23873 0
M  V30 967 H 84.7728 0.979694 1.09729 0
M  V30 968 H 86.7308 0.390931 4.15364 0
M  V30 969 H 85.3608 -0.261693 3.21737 0
M  V30 970 H 84.4128 2.15681 3.13346 0
M  V30 971 H 85.7248 2.64466 4.22918 0
M  V30 972 H 84.8788 1.06134 5.97345 0
M  V30 973 H 83.6178 0.471557 4.85415 0
M  V30 974 H 82.6228 2.77392 4.74693 0
M  V30 975 H 83.8478 3.36158 5.90063 0
M  V30 976 H 81.7938 1.18632 6.45184 0
M  V30 977 H 81.7108 2.82409 7.01271 0
M  V30 978 H 82.9788 1.78347 7.58823 0
M  V30 979 N 87.2079 -1.17134 1.05439 0
M  V30 980 C 88.1179 -2.24878 0.668365 0
M  V30 981 C 89.1339 -1.71186 -0.311687 0
M  V30 982 O 90.3099 -2.00738 -0.163161 0
M  V30 983 C 87.3749 -3.46662 0.051648 0
M  V30 984 C 86.4359 -4.15429 1.08246 0
M  V30 985 C 85.6689 -5.31399 0.495082 0
M  V30 986 O 85.8919 -5.66153 -0.694743 0
M  V30 987 O 84.8259 -5.89187 1.23056 0
M  V30 988 H 88.6519 -2.60189 1.56637 0
M  V30 989 H 86.2369 -1.24482 0.826104 0
M  V30 990 H 88.1189 -4.20394 -0.290966 0
M  V30 991 H 86.7939 -3.13142 -0.819971 0
M  V30 992 H 85.7009 -3.43704 1.47711 0
M  V30 993 H 87.0339 -4.52982 1.92532 0
M  V30 994 N 88.686 -0.835752 -1.33615 0
M  V30 995 C 89.911 -0.442389 -2.02627 0
M  V30 996 C 90.336 0.947735 -1.62479 0
M  V30 997 O 89.694 1.61907 -0.815826 0
M  V30 998 C 89.742 -0.567216 -3.56111 0
M  V30 999 O 88.846 0.407799 -4.10379 0
M  V30 1000 H 88.187 -0.180278 -0.639059 0
M  V30 1001 H 90.717 -1.12972 -1.70583 0
M  V30 1002 H 90.727 -0.447708 -4.05536 0
M  V30 1003 H 89.402 -1.58103 -3.84677 0
M  V30 1004 H 87.979 0.246107 -3.72087 0
M  V30 1005 N 90.1641 1.46063 -0.591896 0
M  V30 1006 C 91.3891 2.07226 -0.0850314 0
M  V30 1007 C 91.8141 1.43625 1.21463 0
M  V30 1008 O 91.1721 0.523305 1.73583 0
M  V30 1009 C 91.2201 3.60554 0.0576567 0
M  V30 1010 O 90.3241 3.97128 1.11188 0
M  V30 1011 H 89.6651 0.660615 -0.0669568 0
M  V30 1012 H 92.1951 1.8756 -0.81745 0
M  V30 1013 H 92.2051 4.07165 0.2609 0
M  V30 1014 H 90.8801 4.06235 -0.891416 0
M  V30 1015 H 89.4571 3.62213 0.886356 0
M  V30 1016 N 91.6422 0.330177 1.54103 0
M  V30 1017 C 92.8882 -0.263542 2.01685 0
M  V30 1018 C 93.2432 -1.49258 1.21408 0
M  V30 1019 O 92.5362 -1.89395 0.289852 0
M  V30 1020 C 92.7302 -0.643134 3.51566 0
M  V30 1021 C 92.5592 0.547571 4.46354 0
M  V30 1022 C 91.3292 1.04873 4.94297 0
M  V30 1023 C 93.5272 1.40184 4.94826 0
M  V30 1024 N 91.5092 2.20316 5.73005 0
M  V30 1025 C 92.8802 2.40335 5.71524 0
M  V30 1026 C 94.9352 1.42884 4.76958 0
M  V30 1027 C 93.6382 3.42998 6.32254 0
M  V30 1028 C 95.6642 2.44421 5.38528 0
M  V30 1029 C 95.0262 3.43298 6.15082 0
M  V30 1030 H 91.1252 -0.0601026 0.779687 0
M  V30 1031 H 93.7092 0.466714 1.89023 0
M  V30 1032 H 91.8802 -1.34251 3.6446 0
M  V30 1033 H 93.6122 -1.21889 3.85908 0
M  V30 1034 H 90.3672 0.618956 4.69538 0
M  V30 1035 H 90.7912 2.78565 6.17034 0
M  V30 1036 H 95.4332 0.678049 4.17328 0
M  V30 1037 H 93.1512 4.1898 6.91 0
M  V30 1038 H 96.7372 2.4732 5.26616 0
M  V30 1039 H 95.6172 4.20579 6.61878 0
M  V30 1040 N 93.1203 -1.57491 0.0584922 0
M  V30 1041 C 94.5313 -1.80526 -0.476138 0
M  V30 1042 C 94.8823 -0.971334 -1.70469 0
M  V30 1043 O 94.0073 -0.190012 -2.15564 0
M  V30 1044 C 94.6023 -3.27424 -0.870587 0
M  V30 1045 C 93.1613 -3.51351 -1.35015 0
M  V30 1046 C 92.3083 -2.75343 -0.32887 0
M  V30 1047 H 95.2593 -1.56133 0.284312 0
M  V30 1048 H 95.2803 -3.38745 -1.73299 0
M  V30 1049 H 94.7923 -3.88093 0.0237627 0
M  V30 1050 H 92.8933 -2.95971 -2.26345 0
M  V30 1051 H 93.0063 -4.60059 -1.33726 0
M  V30 1052 H 91.3703 -2.417 -0.803321 0
M  V30 1053 H 92.1533 -3.38743 0.557521 0
M  V30 1054 N 94.5984 0.214957 -1.56127 0
M  V30 1055 C 95.5304 1.29004 -1.89448 0
M  V30 1056 C 96.5434 1.42716 -0.783326 0
M  V30 1057 O 97.7324 1.43496 -1.06166 0
M  V30 1058 C 94.8324 2.66482 -2.09381 0
M  V30 1059 C 94.0054 2.74633 -3.40434 0
M  V30 1060 C 93.0644 3.9317 -3.49719 0
M  V30 1061 O 92.0904 3.812 -4.227 0
M  V30 1062 N 93.2924 5.07765 -2.81346 0
M  V30 1063 H 96.0574 1.00743 -2.82261 0
M  V30 1064 H 93.6184 0.40497 -1.56753 0
M  V30 1065 H 95.6104 3.44173 -2.12901 0
M  V30 1066 H 94.1804 2.87314 -1.23163 0
M  V30 1067 H 93.4004 1.83368 -3.48955 0
M  V30 1068 H 94.6884 2.77054 -4.26754 0
M  V30 1069 H 94.0864 5.20386 -2.21843 0
M  V30 1070 H 92.6434 5.83474 -2.90519 0
M  V30 1071 N 96.0765 1.50051 0.48192 0
M  V30 1072 C 97.3245 1.60181 1.23234 0
M  V30 1073 C 97.6455 0.299176 1.92691 0
M  V30 1074 O 96.9155 -0.682708 1.83619 0
M  V30 1075 H 95.4955 0.590232 0.457859 0
M  V30 1076 H 98.1575 1.86775 0.556881 0
M  V30 1077 H 97.2535 2.40753 1.98607 0
M  V30 1078 N 97.5546 -0.734337 1.39446 0
M  V30 1079 C 98.8016 -1.49391 1.36706 0
M  V30 1080 C 99.1296 -1.94465 -0.0367813 0
M  V30 1081 O 98.3846 -1.67154 -1.01774 0
M  V30 1082 C 98.6836 -2.74711 2.28623 0
M  V30 1083 C 98.3496 -2.48501 3.76242 0
M  V30 1084 C 97.0116 -2.41062 4.16464 0
M  V30 1085 C 99.3636 -2.26098 4.69606 0
M  V30 1086 C 96.6916 -2.09262 5.48112 0
M  V30 1087 C 99.0436 -1.95814 6.01531 0
M  V30 1088 C 97.7076 -1.86845 6.40816 0
M  V30 1089 H 96.9776 -0.546661 0.500243 0
M  V30 1090 H 99.6246 -0.842788 1.71957 0
M  V30 1091 H 97.9296 -3.44569 1.86492 0
M  V30 1092 H 99.6266 -3.32741 2.23796 0
M  V30 1093 H 96.2166 -2.55169 3.44364 0
M  V30 1094 H 100.401 -2.30812 4.39363 0
M  V30 1095 H 95.6566 -2.00841 5.77471 0
M  V30 1096 H 99.8306 -1.77488 6.73403 0
M  V30 1097 H 97.4576 -1.6197 7.42745 0
M  V30 1098 N 99.0327 -1.24633 -0.964593 0
M  V30 1099 C 100.281 -1.08573 -1.70459 0
M  V30 1100 C 100.602 0.375655 -1.91347 0
M  V30 1101 O 99.8717 1.26779 -1.49345 0
M  V30 1102 H 98.4517 -0.398784 -0.631649 0
M  V30 1103 H 101.114 -1.56601 -1.16026 0
M  V30 1104 H 100.21 -1.58623 -2.68785 0
M  V30 1105 N 100.511 1.16574 -1.06058 0
M  V30 1106 C 101.443 2.2045 -0.627239 0
M  V30 1107 C 102.456 1.59752 0.313534 0
M  V30 1108 O 103.645 1.78192 0.104896 0
M  V30 1109 C 100.745 3.3875 0.100974 0
M  V30 1110 C 99.9178 4.29008 -0.852687 0
M  V30 1111 C 98.9768 5.25944 -0.164152 0
M  V30 1112 O 98.0028 5.63535 -0.801047 0
M  V30 1113 N 99.2048 5.70075 1.09518 0
M  V30 1114 H 101.97 2.58249 -1.52077 0
M  V30 1115 H 99.5308 1.3156 -0.943594 0
M  V30 1116 H 101.523 4.00638 0.57194 0
M  V30 1117 H 100.093 2.99476 0.89628 0
M  V30 1118 H 99.3128 3.64419 -1.50308 0
M  V30 1119 H 100.601 4.86195 -1.49972 0
M  V30 1120 H 99.9988 5.41624 1.6328 0
M  V30 1121 H 98.5558 6.34067 1.51006 0
M  V30 1122 N 101.989 0.842826 1.3317 0
M  V30 1123 C 102.919 0.294028 2.31641 0
M  V30 1124 C 103.9 -0.600401 1.59151 0
M  V30 1125 O 105.085 -0.523124 1.87022 0
M  V30 1126 C 102.215 -0.528416 3.43257 0
M  V30 1127 C 101.169 0.27056 4.27144 0
M  V30 1128 C 100.495 -0.675881 5.30411 0
M  V30 1129 C 101.795 1.48981 5.00602 0
M  V30 1130 H 103.489 1.11681 2.77791 0
M  V30 1131 H 101.035 0.538478 1.33553 0
M  V30 1132 H 102.988 -0.922674 4.11175 0
M  V30 1133 H 101.712 -1.38445 2.95805 0
M  V30 1134 H 100.371 0.646427 3.60856 0
M  V30 1135 H 100.019 -1.52842 4.79216 0
M  V30 1136 H 99.7189 -0.145374 5.8742 0
M  V30 1137 H 101.243 -1.06757 6.01195 0
M  V30 1138 H 102.657 1.16849 5.61266 0
M  V30 1139 H 101.054 1.95739 5.6728 0
M  V30 1140 H 102.124 2.25746 4.29147 0
M  V30 1141 N 103.467 -1.45747 0.599634 0
M  V30 1142 C 104.695 -2.06668 0.0978551 0
M  V30 1143 C 105.11 -1.44562 -1.21439 0
M  V30 1144 O 104.467 -0.556923 -1.73795 0
M  V30 1145 C 104.518 -3.61456 -0.0567044 0
M  V30 1146 O 104.239 -4.21242 1.20361 0
M  V30 1147 C 105.74 -4.39345 -0.590869 0
M  V30 1148 H 102.96 -0.667825 0.0651943 0
M  V30 1149 H 105.504 -1.87115 0.82511 0
M  V30 1150 H 103.659 -3.80378 -0.734251 0
M  V30 1151 H 104.073 -5.14323 1.02821 0
M  V30 1152 H 105.547 -5.48182 -0.648131 0
M  V30 1153 H 106.024 -4.08568 -1.61147 0
M  V30 1154 H 106.63 -4.25268 0.0523679 0
M  V30 1155 N 104.945 -0.338344 -1.53925 0
M  V30 1156 C 105.877 0.555117 -2.22376 0
M  V30 1157 C 106.89 1.06812 -1.22862 0
M  V30 1158 O 108.079 0.979163 -1.49247 0
M  V30 1159 C 105.179 1.77609 -2.88631 0
M  V30 1160 C 104.352 1.39927 -4.14414 0
M  V30 1161 C 103.411 2.47936 -4.64127 0
M  V30 1162 O 102.437 2.11461 -5.28463 0
M  V30 1163 N 103.639 3.79107 -4.39612 0
M  V30 1164 H 106.404 -0.0310778 -2.99684 0
M  V30 1165 H 103.965 -0.162226 -1.61085 0
M  V30 1166 H 105.957 2.49287 -3.18807 0
M  V30 1167 H 104.527 2.26978 -2.14941 0
M  V30 1168 H 103.747 0.513481 -3.90841 0
M  V30 1169 H 105.035 1.12341 -4.96243 0
M  V30 1170 H 104.433 4.11531 -3.88148 0
M  V30 1171 H 102.99 4.4697 -4.74406 0
M  V30 1172 N 106.423 1.57458 -0.0668435 0
M  V30 1173 C 107.353 2.15468 0.899764 0
M  V30 1174 C 108.334 1.08042 1.31381 0
M  V30 1175 O 109.519 1.36054 1.38574 0
M  V30 1176 C 106.649 2.71232 2.16911 0
M  V30 1177 C 105.603 3.83781 1.89463 0
M  V30 1178 C 104.929 4.26127 3.22986 0
M  V30 1179 C 106.229 5.08238 1.20381 0
M  V30 1180 H 107.923 2.96488 0.416529 0
M  V30 1181 H 105.469 1.4262 0.198908 0
M  V30 1182 H 107.422 3.10458 2.84945 0
M  V30 1183 H 106.146 1.87426 2.67468 0
M  V30 1184 H 104.805 3.45051 1.23836 0
M  V30 1185 H 104.453 3.39249 3.71374 0
M  V30 1186 H 104.153 5.01993 3.05413 0
M  V30 1187 H 105.677 4.67966 3.92225 0
M  V30 1188 H 107.091 5.44811 1.78475 0
M  V30 1189 H 105.488 5.89349 1.13083 0
M  V30 1190 H 106.558 4.84558 0.182153 0
M  V30 1191 N 107.901 -0.206675 1.56239 0
M  V30 1192 C 109.149 -0.927007 1.79586 0
M  V30 1193 C 109.47 -1.8427 0.637929 0
M  V30 1194 O 108.74 -1.92849 -0.344398 0
M  V30 1195 H 107.32 -0.345292 0.662407 0
M  V30 1196 H 109.982 -0.21496 1.93711 0
M  V30 1197 H 109.078 -1.52501 2.72305 0
M  V30 1198 N 109.379 -1.50304 -0.473955 0
M  V30 1199 C 110.312 -1.63595 -1.59097 0
M  V30 1200 C 111.29 -0.484142 -1.55225 0
M  V30 1201 O 112.474 -0.703271 -1.7489 0
M  V30 1202 C 109.601 -1.61589 -2.97669 0
M  V30 1203 C 108.647 -2.82295 -3.19705 0
M  V30 1204 S 109.48 -4.43635 -2.99913 0
M  V30 1205 C 110.636 -4.44317 -4.40832 0
M  V30 1206 H 110.869 -2.58082 -1.47583 0
M  V30 1207 H 108.402 -1.39531 -0.661087 0
M  V30 1208 H 110.36 -1.61116 -3.7756 0
M  V30 1209 H 109.021 -0.683421 -3.06575 0
M  V30 1210 H 108.214 -2.77188 -4.20931 0
M  V30 1211 H 107.816 -2.8032 -2.47582 0
M  V30 1212 H 110.108 -4.17703 -5.33414 0
M  V30 1213 H 111.051 -5.45911 -4.50984 0
M  V30 1214 H 111.459 -3.74059 -4.22777 0
M  V30 1215 N 110.857 0.726932 -1.39834 0
M  V30 1216 C 111.767 1.87131 -1.41489 0
M  V30 1217 C 112.783 1.71239 -0.308757 0
M  V30 1218 O 113.959 1.93701 -0.551529 0
M  V30 1219 C 111.024 3.22811 -1.26468 0
M  V30 1220 C 110.085 3.51039 -2.47124 0
M  V30 1221 C 109.318 4.80245 -2.3281 0
M  V30 1222 O 109.541 5.54537 -1.33585 0
M  V30 1223 O 108.475 5.08554 -3.21957 0
M  V30 1224 H 112.301 1.8869 -2.3797 0
M  V30 1225 H 109.886 0.875837 -1.21035 0
M  V30 1226 H 111.768 4.03877 -1.20255 0
M  V30 1227 H 110.443 3.22005 -0.330862 0
M  V30 1228 H 109.35 2.70027 -2.58914 0
M  V30 1229 H 110.683 3.56632 -3.39227 0
M  V30 1230 N 112.336 1.25143 0.95797 0
M  V30 1231 C 113.268 1.01023 2.05735 0
M  V30 1232 C 114.281 -0.0236902 1.62783 0
M  V30 1233 O 115.47 0.21448 1.77207 0
M  V30 1234 C 112.57 0.504595 3.35122 0
M  V30 1235 C 111.743 1.6039 4.06932 0
M  V30 1236 C 110.802 1.09922 5.14591 0
M  V30 1237 O 109.828 1.79293 5.40225 0
M  V30 1238 N 111.03 -0.0612545 5.80468 0
M  V30 1239 H 113.795 1.95683 2.26998 0
M  V30 1240 H 111.356 1.16303 1.12629 0
M  V30 1241 H 113.348 0.151516 4.04416 0
M  V30 1242 H 111.918 -0.347989 3.10657 0
M  V30 1243 H 111.138 2.12872 3.31782 0
M  V30 1244 H 112.426 2.34252 4.51667 0
M  V30 1245 H 111.824 -0.640985 5.62057 0
M  V30 1246 H 110.381 -0.355395 6.5083 0
M  V30 1247 N 113.814 -1.1601 1.06675 0
M  V30 1248 C 114.764 -2.18512 0.650888 0
M  V30 1249 C 115.748 -1.57677 -0.320441 0
M  V30 1250 O 116.94 -1.76482 -0.135266 0
M  V30 1251 C 114.069 -3.43273 0.0429255 0
M  V30 1252 C 113.155 -4.11176 1.03898 0
M  V30 1253 N 113.546 -4.54672 2.216 0
M  V30 1254 C 111.844 -4.37417 0.870779 0
M  V30 1255 C 112.545 -5.07248 2.84736 0
M  V30 1256 N 111.521 -5.0037 2.12441 0
M  V30 1257 H 115.323 -2.49863 1.54745 0
M  V30 1258 H 112.837 -1.32503 0.938975 0
M  V30 1259 H 114.834 -4.16006 -0.272857 0
M  V30 1260 H 113.494 -3.13408 -0.84884 0
M  V30 1261 H 114.505 -4.4828 2.59356 0
M  V30 1262 H 111.182 -4.17488 0.0313293 0
M  V30 1263 H 112.572 -5.50912 3.84636 0
M  V30 1264 N 115.292 -0.849877 -1.32721 0
M  V30 1265 C 116.522 -0.46408 -2.0132 0
M  V30 1266 C 116.93 0.94246 -1.64056 0
M  V30 1267 O 116.273 1.6257 -0.855379 0
M  V30 1268 C 116.335 -0.517887 -3.5575 0
M  V30 1269 C 115.999 -1.88248 -4.16427 0
M  V30 1270 C 116.996 -2.84726 -4.35002 0
M  V30 1271 C 114.681 -2.17832 -4.52609 0
M  V30 1272 C 116.675 -4.08945 -4.8892 0
M  V30 1273 C 114.362 -3.42304 -5.06232 0
M  V30 1274 C 115.36 -4.37677 -5.24335 0
M  V30 1275 O 115.048 -5.59946 -5.76815 0
M  V30 1276 H 114.78 -0.181327 -0.651227 0
M  V30 1277 H 117.334 -1.14713 -1.70382 0
M  V30 1278 H 115.564 0.221997 -3.86062 0
M  V30 1279 H 117.253 -0.148366 -4.05629 0
M  V30 1280 H 118.019 -2.63174 -4.07388 0
M  V30 1281 H 113.898 -1.44385 -4.37806 0
M  V30 1282 H 117.442 -4.83396 -5.02966 0
M  V30 1283 H 113.339 -3.63709 -5.33278 0
M  V30 1284 H 114.107 -5.61838 -5.95214 0
M  V30 1285 N 116.77 1.45427 -0.607355 0
M  V30 1286 C 117.68 2.34325 0.113463 0
M  V30 1287 C 118.696 1.51226 0.860617 0
M  V30 1288 O 119.872 1.84029 0.818255 0
M  V30 1289 C 116.937 3.28839 1.09844 0
M  V30 1290 C 115.998 4.27844 0.353271 0
M  V30 1291 C 115.231 5.17842 1.29133 0
M  V30 1292 O 115.454 5.11264 2.52913 0
M  V30 1293 O 114.388 5.96713 0.788523 0
M  V30 1294 H 118.214 2.97364 -0.617094 0
M  V30 1295 H 115.799 1.44807 -0.367619 0
M  V30 1296 H 117.681 3.8708 1.66575 0
M  V30 1297 H 116.356 2.68365 1.81003 0
M  V30 1298 H 115.263 3.7322 -0.256494 0
M  V30 1299 H 116.596 4.91173 -0.317822 0
M  V30 1300 N 118.248 0.346503 1.53744 0
M  V30 1301 C 119.178 -0.501193 2.28058 0
M  V30 1302 C 120.159 -1.10014 1.29734 0
M  V30 1303 O 121.344 -1.12097 1.58581 0
M  V30 1304 C 118.474 -1.65078 3.05559 0
M  V30 1305 C 117.428 -1.18003 4.11411 0
M  V30 1306 C 116.754 -2.41837 4.76884 0
M  V30 1307 C 118.054 -0.278394 5.21558 0
M  V30 1308 H 119.748 0.11875 2.99164 0
M  V30 1309 H 117.294 0.0585531 1.43881 0
M  V30 1310 H 119.247 -2.25028 3.56287 0
M  V30 1311 H 117.971 -2.29767 2.32109 0
M  V30 1312 H 116.63 -0.603331 3.61601 0
M  V30 1313 H 116.278 -3.0494 4.00026 0
M  V30 1314 H 115.978 -2.1102 5.48402 0
M  V30 1315 H 117.502 -3.02508 5.30397 0
M  V30 1316 H 118.916 -0.784823 5.67903 0
M  V30 1317 H 117.313 -0.0619707 6.00068 0
M  V30 1318 H 118.383 0.684677 4.80042 0
M  V30 1319 N 119.726 -1.57421 0.075193 0
M  V30 1320 C 120.974 -1.93236 -0.591974 0
M  V30 1321 C 121.295 -0.956241 -1.69944 0
M  V30 1322 O 120.565 -0.00494792 -1.95899 0
M  V30 1323 H 119.145 -0.713355 -0.22166 0
M  V30 1324 H 121.807 -1.9444 0.133848 0
M  V30 1325 H 120.903 -2.95131 -1.01509 0
M  V30 1326 N 121.204 0.198386 -1.56346 0
M  V30 1327 C 122.114 1.2664 -1.97483 0
M  V30 1328 C 123.13 1.49989 -0.882002 0
M  V30 1329 O 124.306 1.62668 -1.18748 0
M  V30 1330 C 121.371 2.59141 -2.30319 0
M  V30 1331 C 120.432 2.43892 -3.53292 0
M  V30 1332 C 119.665 3.70074 -3.84553 0
M  V30 1333 O 119.888 4.74101 -3.1715 0
M  V30 1334 O 118.822 3.658 -4.7799 0
M  V30 1335 H 122.648 0.947304 -2.88548 0
M  V30 1336 H 120.233 0.403123 -1.43859 0
M  V30 1337 H 122.115 3.37352 -2.5253 0
M  V30 1338 H 120.79 2.90684 -1.42423 0
M  V30 1339 H 119.697 1.63803 -3.36332 0
M  V30 1340 H 121.03 2.17282 -4.41644 0
M  V30 1341 N 122.682 1.50554 0.465978 0
M  V30 1342 C 123.912 1.65323 1.23903 0
M  V30 1343 C 124.32 0.338051 1.86155 0
M  V30 1344 O 123.663 -0.690518 1.70228 0
M  V30 1345 C 123.725 2.69048 2.3844 0
M  V30 1346 C 123.389 4.12462 1.96784 0
M  V30 1347 C 124.386 4.98168 1.48745 0
M  V30 1348 C 122.071 4.58407 2.05349 0
M  V30 1349 C 124.065 6.27868 1.0982 0
M  V30 1350 C 121.752 5.88112 1.66035 0
M  V30 1351 C 122.75 6.72668 1.18349 0
M  V30 1352 O 122.438 7.99951 0.795825 0
M  V30 1353 H 122.17 0.558629 0.38067 0
M  V30 1354 H 124.724 1.97561 0.562022 0
M  V30 1355 H 122.954 2.32062 3.09328 0
M  V30 1356 H 124.643 2.72985 3.0039 0
M  V30 1357 H 125.409 4.63885 1.41546 0
M  V30 1358 H 121.288 3.92735 2.41414 0
M  V30 1359 H 124.832 6.93819 0.725293 0
M  V30 1360 H 120.729 6.21914 1.72895 0
M  V30 1361 H 121.497 8.13265 0.924222 0
M  V30 1362 N 124.16 -0.719506 1.40217 0
M  V30 1363 C 125.409 -1.47486 1.37589 0
M  V30 1364 C 125.722 -1.9559 -0.0201568 0
M  V30 1365 O 126.928 -2.70973 -0.169049 0
M  V30 1366 C 125.384 -2.66575 2.41796 0
M  V30 1367 C 124.992 -2.25358 3.87192 0
M  V30 1368 C 126.736 -3.4433 2.48269 0
M  V30 1369 C 124.643 -3.41262 4.83005 0
M  V30 1370 H 123.573 -0.553901 0.511576 0
M  V30 1371 H 126.224 -0.783427 1.65936 0
M  V30 1372 H 124.606 -3.3787 2.06543 0
M  V30 1373 H 125.78 -1.61509 4.31569 0
M  V30 1374 H 124.095 -1.60657 3.84159 0
M  V30 1375 H 126.692 -4.30569 3.17041 0
M  V30 1376 H 127.035 -3.87872 1.51198 0
M  V30 1377 H 127.568 -2.80076 2.82493 0
M  V30 1378 H 124.307 -3.02755 5.81394 0
M  V30 1379 H 123.827 -4.0404 4.43297 0
M  V30 1380 H 125.506 -4.07383 5.02641 0
M  V30 1381 N 125.638 -1.25649 -0.95132 0
M  V30 1382 C 127.054 -1.02542 -1.223 0
M  V30 1383 C 127.254 0.255715 -1.99871 0
M  V30 1384 O 126.31 0.967558 -2.33226 0
M  V30 1385 C 127.623 -2.25065 -1.99415 0
M  V30 1386 C 129.171 -2.29861 -2.12446 0
M  V30 1387 C 129.646 -3.52048 -2.92961 0
M  V30 1388 N 131.137 -3.52465 -3.00538 0
M  V30 1389 C 131.872 -4.43672 -3.63239 0
M  V30 1390 N 131.368 -5.45157 -4.27523 0
M  V30 1391 N 133.161 -4.31346 -3.60412 0
M  V30 1392 H 125.312 -2.07951 -0.432471 0
M  V30 1393 H 127.575 -0.91339 -0.253816 0
M  V30 1394 H 127.281 -3.18194 -1.49817 0
M  V30 1395 H 127.155 -2.28502 -3.00111 0
M  V30 1396 H 129.542 -1.37252 -2.61239 0
M  V30 1397 H 129.623 -2.3044 -1.11044 0
M  V30 1398 H 129.267 -4.44981 -2.44856 0
M  V30 1399 H 129.197 -3.48715 -3.94596 0
M  V30 1400 H 131.688 -2.79056 -2.54826 0
M  V30 1401 H 132.001 -6.10958 -4.73234 0
M  V30 1402 H 130.346 -5.49025 -4.26141 0
M  V30 1403 H 133.537 -3.51288 -3.09377 0
M  V30 1404 H 133.71 -5.02624 -4.0899 0
M  V30 1405 N 127.117 1.15442 -1.07289 0
M  V30 1406 C 128.064 2.20161 -0.692653 0
M  V30 1407 C 129.034 1.63073 0.31564 0
M  V30 1408 O 130.219 1.89725 0.202235 0
M  V30 1409 C 127.359 3.44967 -0.0959509 0
M  V30 1410 C 126.472 4.16256 -1.15564 0
M  V30 1411 C 125.607 5.28609 -0.524011 0
M  V30 1412 C 124.646 5.91715 -1.56653 0
M  V30 1413 N 123.783 6.9554 -0.957531 0
M  V30 1414 H 128.623 2.52037 -1.59002 0
M  V30 1415 H 126.16 1.2378 -0.794798 0
M  V30 1416 H 128.118 4.16341 0.267628 0
M  V30 1417 H 126.748 3.1361 0.764772 0
M  V30 1418 H 125.8 3.43385 -1.6368 0
M  V30 1419 H 127.112 4.59268 -1.94613 0
M  V30 1420 H 126.266 6.06604 -0.108032 0
M  V30 1421 H 125.005 4.86787 0.29825 0
M  V30 1422 H 124.01 5.12433 -1.9923 0
M  V30 1423 H 125.235 6.35614 -2.39107 0
M  V30 1424 H 123.181 6.55814 -0.156162 0
M  V30 1425 H 123.098 7.36977 -1.68526 0
M  V30 1426 H 124.366 7.77435 -0.567032 0
M  V30 1427 N 128.595 0.856903 1.32268 0
M  V30 1428 C 130.011 0.547061 1.49931 0
M  V30 1429 C 130.211 -0.921781 1.7918 0
M  V30 1430 O 129.267 -1.70469 1.8627 0
M  V30 1431 C 130.58 1.43599 2.64196 0
M  V30 1432 C 132.128 1.43665 2.78081 0
M  V30 1433 C 132.603 2.31085 3.95428 0
M  V30 1434 N 134.094 2.28893 4.02694 0
M  V30 1435 C 134.829 2.93262 4.92732 0
M  V30 1436 N 134.325 3.66751 5.87763 0
M  V30 1437 N 136.118 2.82638 4.85873 0
M  V30 1438 H 128.269 1.8075 1.11549 0
M  V30 1439 H 130.532 0.772144 0.549997 0
M  V30 1440 H 130.238 2.48058 2.49319 0
M  V30 1441 H 130.112 1.12502 3.60032 0
M  V30 1442 H 132.499 0.399701 2.92381 0
M  V30 1443 H 132.58 1.7878 1.82952 0
M  V30 1444 H 132.224 3.34849 3.81888 0
M  V30 1445 H 132.154 1.93302 4.89839 0
M  V30 1446 H 134.645 1.75466 3.34694 0
M  V30 1447 H 134.958 4.13027 6.53168 0
M  V30 1448 H 133.303 3.70859 5.87783 0
M  V30 1449 H 136.494 2.24774 4.10602 0
M  V30 1450 H 136.667 3.33084 5.55841 0
M  V30 1451 N 130.073 -1.45103 0.615059 0
M  V30 1452 C 131.303 -2.06254 0.119596 0
M  V30 1453 C 131.711 -1.4591 -1.20445 0
M  V30 1454 O 131.054 -0.570384 -1.7462 0
M  V30 1455 C 131.116 -3.59396 -0.0865591 0
M  V30 1456 C 130.78 -4.42116 1.15683 0
M  V30 1457 C 131.777 -4.7662 2.07676 0
M  V30 1458 C 129.462 -4.82749 1.38775 0
M  V30 1459 C 131.456 -5.50622 3.21082 0
M  V30 1460 C 129.143 -5.56504 2.52481 0
M  V30 1461 C 130.141 -5.90358 3.43463 0
M  V30 1462 O 129.829 -6.62615 4.55189 0
M  V30 1463 H 129.561 -0.672423 0.0694512 0
M  V30 1464 H 132.115 -1.87219 0.844885 0
M  V30 1465 H 130.345 -3.76859 -0.866823 0
M  V30 1466 H 132.034 -4.02365 -0.534555 0
M  V30 1467 H 132.8 -4.4578 1.91063 0
M  V30 1468 H 128.679 -4.55829 0.688545 0
M  V30 1469 H 132.223 -5.76965 3.92119 0
M  V30 1470 H 128.12 -5.86759 2.69043 0
M  V30 1471 H 128.888 -6.81071 4.53966 0
M  V30 1472 N 131.551 -0.354651 -1.53558 0
M  V30 1473 C 132.967 -0.00315426 -1.596 0
M  V30 1474 C 133.167 1.47741 -1.37021 0
M  V30 1475 O 132.223 2.23759 -1.16996 0
M  V30 1476 C 133.536 -0.44929 -2.97325 0
M  V30 1477 C 135.084 -0.402578 -3.104 0
M  V30 1478 C 135.559 -0.824355 -4.5052 0
M  V30 1479 N 137.05 -0.778979 -4.56603 0
M  V30 1480 C 137.785 -1.07715 -5.63192 0
M  V30 1481 N 137.281 -1.44405 -6.77583 0
M  V30 1482 N 139.074 -1.00066 -5.53121 0
M  V30 1483 H 131.225 -1.31893 -1.66487 0
M  V30 1484 H 133.488 -0.538388 -0.780284 0
M  V30 1485 H 133.194 -1.48202 -3.1895 0
M  V30 1486 H 133.068 0.169772 -3.76818 0
M  V30 1487 H 135.455 0.621004 -2.88492 0
M  V30 1488 H 135.536 -1.05699 -2.32941 0
M  V30 1489 H 135.18 -1.846 -4.73165 0
M  V30 1490 H 135.11 -0.147304 -5.26394 0
M  V30 1491 H 137.601 -0.508528 -3.74463 0
M  V30 1492 H 137.914 -1.65612 -7.54846 0
M  V30 1493 H 136.259 -1.4826 -6.79002 0
M  V30 1494 H 139.45 -0.713293 -4.62633 0
M  V30 1495 H 139.623 -1.23638 -6.36096 0
M  V30 1496 N 133.029 1.57378 -0.0835403 0
M  V30 1497 C 133.976 2.13384 0.879539 0
M  V30 1498 C 134.946 1.04936 1.28754 0
M  V30 1499 O 136.131 1.32662 1.37133 0
M  V30 1500 C 133.271 2.70932 2.13752 0
M  V30 1501 C 132.384 3.93575 1.7811 0
M  V30 1502 C 131.519 4.39326 2.98607 0
M  V30 1503 C 130.558 5.54587 2.59037 0
M  V30 1504 N 129.695 5.95243 3.72331 0
M  V30 1505 H 134.535 2.9537 0.395076 0
M  V30 1506 H 132.072 1.45953 0.183349 0
M  V30 1507 H 134.03 3.02411 2.87408 0
M  V30 1508 H 132.66 1.91693 2.59718 0
M  V30 1509 H 131.712 3.68483 0.94469 0
M  V30 1510 H 133.024 4.77258 1.45005 0
M  V30 1511 H 132.178 4.72528 3.80529 0
M  V30 1512 H 130.917 3.5452 3.34913 0
M  V30 1513 H 129.922 5.21024 1.75539 0
M  V30 1514 H 131.147 6.41133 2.23887 0
M  V30 1515 H 129.093 5.13385 4.08378 0
M  V30 1516 H 129.01 6.73694 3.43034 0
M  V30 1517 H 130.278 6.33072 4.54797 0
M  V30 1518 N 134.507 -0.190092 1.56449 0
M  V30 1519 C 135.754 -0.909705 1.80916 0
M  V30 1520 C 136.082 -1.83047 0.657583 0
M  V30 1521 O 135.337 -1.92428 -0.356356 0
M  V30 1522 C 135.636 -1.75382 3.1141 0
M  V30 1523 C 135.302 -0.983606 4.40041 0
M  V30 1524 C 133.964 -0.770967 4.74984 0
M  V30 1525 C 136.316 -0.442024 5.19322 0
M  V30 1526 C 133.644 -0.0053448 5.867 0
M  V30 1527 C 135.996 0.310412 6.31838 0
M  V30 1528 C 134.66 0.534023 6.6536 0
M  V30 1529 H 133.93 -0.332885 0.662019 0
M  V30 1530 H 136.577 -0.175762 1.90692 0
M  V30 1531 H 134.882 -2.55659 2.96893 0
M  V30 1532 H 136.579 -2.31331 3.27547 0
M  V30 1533 H 133.169 -1.15936 4.12622 0
M  V30 1534 H 137.353 -0.593693 4.92736 0
M  V30 1535 H 132.609 0.177825 6.11141 0
M  V30 1536 H 136.783 0.737419 6.92485 0
M  V30 1537 H 134.41 1.12918 7.51767 0
M  V30 1538 N 135.985 -1.50799 -0.457987 0
M  V30 1539 C 136.915 -1.73553 -1.5621 0
M  V30 1540 C 137.896 -0.584774 -1.59732 0
M  V30 1541 O 139.081 -0.825314 -1.7579 0
M  V30 1542 C 136.211 -1.84169 -2.94447 0
M  V30 1543 C 135.165 -2.99461 -3.0579 0
M  V30 1544 C 134.491 -2.95235 -4.45803 0
M  V30 1545 C 135.791 -4.39766 -2.81786 0
M  V30 1546 H 137.485 -2.66 -1.37421 0
M  V30 1547 H 135.031 -1.28002 -0.659662 0
M  V30 1548 H 136.984 -1.98672 -3.71628 0
M  V30 1549 H 135.708 -0.883545 -3.14422 0
M  V30 1550 H 134.367 -2.8463 -2.31044 0
M  V30 1551 H 134.015 -1.97239 -4.62715 0
M  V30 1552 H 133.715 -3.72642 -4.54326 0
M  V30 1553 H 135.239 -3.11803 -5.24987 0
M  V30 1554 H 136.653 -4.55054 -3.4871 0
M  V30 1555 H 135.05 -5.18722 -3.0174 0
M  V30 1556 H 136.12 -4.51229 -1.7754 0
M  V30 1557 N 137.463 0.71206 -1.40597 0
M  V30 1558 C 138.411 1.84746 -1.41321 0
M  V30 1559 C 139.405 1.66842 -0.293268 0
M  V30 1560 O 140.611 1.73904 -0.464481 0
M  V30 1561 H 136.986 0.608522 -0.441819 0
M  V30 1562 H 138.957 1.81252 -2.37045 0
M  V30 1563 C 137.706 3.22638 -1.29614 0
M  V30 1564 H 137.029 3.37023 -2.15071 0
M  V30 1565 H 138.469 4.02209 -1.3418 0
M  V30 1566 C 136.928 3.36899 -0.00673121 0
M  V30 1567 O 137.458 3.90186 0.954859 0
M  V30 1568 N 135.664 2.9053 0.0639327 0
M  V30 1569 H 135.211 2.47353 -0.719311 0
M  V30 1570 H 135.169 3.0045 0.926118 0
M  V30 1571 N 138.941 1.26152 0.944643 0
M  V30 1572 C 139.851 1.09176 2.07648 0
M  V30 1573 C 140.867 0.0261935 1.7398 0
M  V30 1574 O 142.043 0.229208 2.00091 0
M  V30 1575 C 139.108 0.722915 3.39079 0
M  V30 1576 C 138.169 1.86752 3.86552 0
M  V30 1577 C 137.402 1.51617 5.11711 0
M  V30 1578 O 137.625 0.416331 5.68879 0
M  V30 1579 O 136.559 2.34975 5.54139 0
M  V30 1580 H 140.385 2.0412 2.24875 0
M  V30 1581 H 137.97 1.05182 1.061 0
M  V30 1582 H 139.852 0.529787 4.18056 0
M  V30 1583 H 138.527 -0.197159 3.23099 0
M  V30 1584 H 137.434 2.11558 3.08535 0
M  V30 1585 H 138.767 2.76719 4.07047 0
M  V30 1586 N 140.419 -1.14872 1.07899 0
M  V30 1587 C 141.644 -1.90202 0.826926 0
M  V30 1588 C 142.069 -1.77774 -0.614664 0
M  V30 1589 O 141.427 -1.11431 -1.43013 0
M  V30 1590 C 141.475 -3.38352 1.24702 0
M  V30 1591 O 140.579 -4.10497 0.39575 0
M  V30 1592 H 139.92 -0.591968 0.300782 0
M  V30 1593 H 142.45 -1.45437 1.43907 0
M  V30 1594 H 142.46 -3.89156 1.22563 0
M  V30 1595 H 141.135 -3.46715 2.29698 0
M  V30 1596 H 139.712 -3.69796 0.480117 0
M  V30 1597 N 141.898 -0.863906 -1.31812 0
M  V30 1598 C 143.128 -0.485406 -2.00817 0
M  V30 1599 C 143.536 0.925007 -1.65046 0
M  V30 1600 O 142.879 1.61653 -0.872574 0
M  V30 1601 C 142.941 -0.555589 -3.55181 0
M  V30 1602 C 142.605 -1.92654 -4.14407 0
M  V30 1603 C 143.602 -2.89324 -4.31958 0
M  V30 1604 C 141.287 -2.2262 -4.50273 0
M  V30 1605 C 143.281 -4.14108 -4.84555 0
M  V30 1606 C 140.968 -3.47654 -5.02573 0
M  V30 1607 C 141.966 -4.43214 -5.19664 0
M  V30 1608 O 141.654 -5.66033 -5.70843 0
M  V30 1609 H 141.386 -0.188224 -0.649267 0
M  V30 1610 H 143.94 -1.16514 -1.69156 0
M  V30 1611 H 142.17 0.181037 -3.86276 0
M  V30 1612 H 143.859 -0.19138 -4.05449 0
M  V30 1613 H 144.625 -2.6748 -4.04573 0
M  V30 1614 H 140.504 -1.4902 -4.3625 0
M  V30 1615 H 144.048 -4.88703 -4.9781 0
M  V30 1616 H 139.945 -3.69345 -5.29391 0
M  V30 1617 H 140.713 -5.6812 -5.89222 0
M  V30 1618 N 143.376 1.44774 -0.622745 0
M  V30 1619 C 144.323 2.30635 0.0871679 0
M  V30 1620 C 145.293 1.42994 0.845097 0
M  V30 1621 O 146.478 1.71907 0.827812 0
M  V30 1622 C 143.618 3.28144 1.06844 0
M  V30 1623 C 142.731 4.30888 0.309809 0
M  V30 1624 C 141.866 5.15494 1.28215 0
M  V30 1625 C 140.905 6.09953 0.512198 0
M  V30 1626 N 140.042 6.87287 1.43458 0
M  V30 1627 H 144.882 2.90803 -0.650974 0
M  V30 1628 H 142.419 1.43286 -0.33281 0
M  V30 1629 H 144.377 3.83157 1.65066 0
M  V30 1630 H 143.007 2.69695 1.77382 0
M  V30 1631 H 142.059 3.78414 -0.388181 0
M  V30 1632 H 143.371 4.97955 -0.290254 0
M  V30 1633 H 142.525 5.74983 1.93596 0
M  V30 1634 H 141.264 4.48481 1.91614 0
M  V30 1635 H 140.269 5.49581 -0.155151 0
M  V30 1636 H 141.494 6.78999 -0.116958 0
M  V30 1637 H 139.44 6.2295 2.05594 0
M  V30 1638 H 139.357 7.50763 0.888335 0
M  V30 1639 H 140.625 7.51306 2.07749 0
M  V30 1640 N 144.854 0.36279 1.53368 0
M  V30 1641 C 145.804 -0.501391 2.22419 0
M  V30 1642 C 146.788 -1.0509 1.2184 0
M  V30 1643 O 147.98 -0.981404 1.47301 0
M  V30 1644 C 145.109 -1.64201 3.01484 0
M  V30 1645 C 144.195 -1.10552 4.09438 0
M  V30 1646 N 144.586 -0.291788 5.04958 0
M  V30 1647 C 142.884 -1.3806 4.24094 0
M  V30 1648 C 143.585 0.00162655 5.817 0
M  V30 1649 N 142.561 -0.595244 5.40331 0
M  V30 1650 H 146.363 0.127159 2.93625 0
M  V30 1651 H 143.877 0.170658 1.61501 0
M  V30 1652 H 145.874 -2.27326 3.49469 0
M  V30 1653 H 144.534 -2.27365 2.31809 0
M  V30 1654 H 145.545 0.0687731 5.17854 0
M  V30 1655 H 142.222 -2.01522 3.65644 0
M  V30 1656 H 143.612 0.659278 6.68658 0
M  V30 1657 N 146.332 -1.57332 0.0918853 0
M  V30 1658 C 147.242 -2.17368 -0.882505 0
M  V30 1659 C 148.258 -1.14226 -1.31257 0
M  V30 1660 O 149.434 -1.46582 -1.38115 0
M  V30 1661 C 146.499 -2.73962 -2.12476 0
M  V30 1662 C 145.56 -3.92048 -1.7492 0
M  V30 1663 C 144.793 -4.45933 -2.93223 0
M  V30 1664 O 145.016 -3.98764 -4.07852 0
M  V30 1665 O 143.95 -5.36999 -2.71875 0
M  V30 1666 H 147.776 -3.01031 -0.40172 0
M  V30 1667 H 145.361 -1.48813 -0.132291 0
M  V30 1668 H 147.243 -3.10147 -2.85283 0
M  V30 1669 H 145.918 -1.93347 -2.59613 0
M  V30 1670 H 144.825 -3.6068 -0.993025 0
M  V30 1671 H 146.158 -4.74017 -1.32548 0
M  V30 1672 N 147.81 0.181792 -1.56548 0
M  V30 1673 C 148.742 1.24956 -1.92142 0
M  V30 1674 C 149.755 1.41022 -0.813422 0
M  V30 1675 O 150.944 1.41212 -1.09186 0
M  V30 1676 C 148.044 2.61981 -2.14987 0
M  V30 1677 C 147.217 2.6735 -3.46183 0
M  V30 1678 C 146.276 3.85664 -3.5798 0
M  V30 1679 O 145.302 3.72148 -4.30691 0
M  V30 1680 N 146.504 5.01683 -2.92053 0
M  V30 1681 H 149.269 0.947329 -2.84334 0
M  V30 1682 H 146.83 0.371629 -1.57577 0
M  V30 1683 H 148.822 3.3958 -2.20154 0
M  V30 1684 H 147.392 2.84637 -1.2923 0
M  V30 1685 H 146.612 1.75925 -3.52766 0
M  V30 1686 H 147.9 2.67939 -4.32534 0
M  V30 1687 H 147.298 5.15564 -2.32832 0
M  V30 1688 H 145.855 5.77181 -3.0283 0
M  V30 1689 N 149.288 1.51039 0.449983 0
M  V30 1690 C 150.534 1.63322 1.20223 0
M  V30 1691 C 150.867 0.34241 1.91158 0
M  V30 1692 O 150.142 -0.657344 1.83055 0
M  V30 1693 C 150.425 2.82801 2.22925 0
M  V30 1694 C 150.278 4.21823 1.56157 0
M  V30 1695 C 151.597 2.97807 3.24035 0
M  V30 1696 H 148.716 0.594407 0.435718 0
M  V30 1697 H 151.358 1.83489 0.493136 0
M  V30 1698 H 149.508 2.65738 2.834 0
M  V30 1699 H 151.18 4.50526 0.991162 0
M  V30 1700 H 149.423 4.25105 0.864172 0
M  V30 1701 H 150.094 5.01391 2.30891 0
M  V30 1702 H 152.57 3.13497 2.73603 0
M  V30 1703 H 151.446 3.82992 3.93202 0
M  V30 1704 H 151.707 2.09328 3.89402 0
M  V30 1705 N 150.766 -0.704594 1.40972 0
M  V30 1706 C 151.996 -1.49138 1.42974 0
M  V30 1707 C 152.404 -1.89175 0.0308406 0
M  V30 1708 O 151.747 -1.56734 -0.958138 0
M  V30 1709 C 151.809 -2.79016 2.26694 0
M  V30 1710 C 151.473 -2.61236 3.74973 0
M  V30 1711 C 152.47 -2.27773 4.67349 0
M  V30 1712 C 150.155 -2.77158 4.18914 0
M  V30 1713 C 152.149 -2.10457 6.01653 0
M  V30 1714 C 149.836 -2.59459 5.53285 0
M  V30 1715 C 150.834 -2.26158 6.4447 0
M  V30 1716 O 150.522 -2.08605 7.76363 0
M  V30 1717 H 150.254 -0.466443 0.489292 0
M  V30 1718 H 152.808 -0.8758 1.85793 0
M  V30 1719 H 151.038 -3.42947 1.78673 0
M  V30 1720 H 152.727 -3.40782 2.20504 0
M  V30 1721 H 153.493 -2.15095 4.34694 0
M  V30 1722 H 149.372 -3.02064 3.48251 0
M  V30 1723 H 152.916 -1.84387 6.72791 0
M  V30 1724 H 148.813 -2.71725 5.85522 0
M  V30 1725 H 149.581 -2.23439 7.87412 0
M  V30 1726 N 152.244 -1.26651 -0.937939 0
M  V30 1727 C 153.493 -1.11775 -1.67897 0
M  V30 1728 C 153.806 0.33794 -1.92659 0
M  V30 1729 O 155.012 0.607434 -2.64618 0
M  V30 1730 C 153.468 -1.9523 -3.02346 0
M  V30 1731 C 153.076 -3.45393 -2.8532 0
M  V30 1732 C 154.82 -1.88972 -3.80118 0
M  V30 1733 C 152.727 -4.21083 -4.15263 0
M  V30 1734 H 151.657 -0.414696 -0.629717 0
M  V30 1735 H 154.308 -1.50988 -1.04283 0
M  V30 1736 H 152.69 -1.48853 -3.66959 0
M  V30 1737 H 153.864 -3.99561 -2.29537 0
M  V30 1738 H 152.179 -3.52921 -2.20988 0
M  V30 1739 H 154.776 -2.42805 -4.76392 0
M  V30 1740 H 155.119 -0.86113 -4.07296 0
M  V30 1741 H 155.652 -2.33189 -3.22285 0
M  V30 1742 H 152.391 -5.24425 -3.93267 0
M  V30 1743 H 151.911 -3.71695 -4.70747 0
M  V30 1744 H 153.59 -4.29706 -4.83696 0
M  V30 1745 N 153.722 1.14298 -1.08507 0
M  V30 1746 C 155.138 1.37347 -0.812901 0
M  V30 1747 C 155.338 1.93052 0.577325 0
M  V30 1748 O 154.394 2.14389 1.33393 0
M  V30 1749 C 155.707 2.33359 -1.89642 0
M  V30 1750 C 157.255 2.46996 -1.92255 0
M  V30 1751 C 157.73 3.46309 -2.99724 0
M  V30 1752 N 159.221 3.53853 -2.98902 0
M  V30 1753 C 159.956 4.3055 -3.787 0
M  V30 1754 N 159.452 5.10482 -4.6838 0
M  V30 1755 N 161.245 4.25757 -3.66998 0
M  V30 1756 H 153.396 0.764867 -1.9815 0
M  V30 1757 H 155.659 0.398966 -0.859959 0
M  V30 1758 H 155.365 1.99565 -2.89597 0
M  V30 1759 H 155.239 3.33274 -1.76659 0
M  V30 1760 H 157.626 2.80081 -0.929445 0
M  V30 1761 H 157.707 1.47039 -2.09316 0
M  V30 1762 H 157.351 3.13957 -3.99241 0
M  V30 1763 H 157.281 4.46049 -2.79907 0
M  V30 1764 H 159.772 2.96812 -2.33904 0
M  V30 1765 H 160.085 5.66284 -5.25873 0
M  V30 1766 H 158.43 5.09747 -4.72422 0
M  V30 1767 H 161.621 3.62383 -2.96304 0
M  V30 1768 H 161.794 4.85279 -4.29427 0
M  V30 1769 N 155.201 0.870884 1.31352 0
M  V30 1770 C 156.426 0.495957 2.01383 0
M  V30 1771 C 156.851 -0.904324 1.64935 0
M  V30 1772 O 156.209 -1.59687 0.858466 0
M  V30 1773 C 156.257 0.661433 3.54482 0
M  V30 1774 O 155.361 -0.298851 4.11316 0
M  V30 1775 H 154.702 0.197158 0.634054 0
M  V30 1776 H 157.232 1.17455 1.67527 0
M  V30 1777 H 157.242 0.555072 4.04207 0
M  V30 1778 H 155.917 1.68246 3.8035 0
M  V30 1779 H 154.494 -0.147368 3.72609 0
M  V30 1780 N 156.679 -1.44442 0.630414 0
M  V30 1781 C 157.907 -2.06414 0.141671 0
M  V30 1782 C 158.322 -1.47105 -1.18345 0
M  V30 1783 O 157.679 -0.593662 -1.72574 0
M  V30 1784 C 157.73 -3.61494 0.0199784 0
M  V30 1785 O 157.451 -4.18594 1.29269 0
M  V30 1786 C 158.952 -4.40499 -0.497544 0
M  V30 1787 H 156.172 -0.666292 0.0793452 0
M  V30 1788 H 158.716 -1.85323 0.864614 0
M  V30 1789 H 156.871 -3.8185 -0.653402 0
M  V30 1790 H 157.285 -5.12026 1.13707 0
M  V30 1791 H 158.759 -5.49433 -0.531708 0
M  V30 1792 H 159.236 -4.11895 -1.52445 0
M  V30 1793 H 159.842 -4.25061 0.142562 0
M  V30 1794 N 158.157 -0.370918 -1.53173 0
M  V30 1795 C 159.434 0.273754 -1.93675 0
M  V30 1796 C 159.814 1.65938 -1.3049 0
M  V30 1797 O 159.162 2.23698 -0.465999 0
M  V30 1798 C 159.372 0.318602 -3.47543 0
M  V30 1799 C 160.72 0.556392 -4.20939 0
M  V30 1800 O 161.744 0.399587 -3.53952 0
M  V30 1801 O 160.603 0.862133 -5.39657 0
M  V30 1802 H 157.697 0.165448 -0.810281 0
M  V30 1803 H 160.243 -0.42409 -1.64315 0
M  V30 1804 H 159.015 -0.652687 -3.85818 0
M  V30 1805 H 158.638 1.06212 -3.83151 0
M  V30 1806 N 159.635 1.57281 -0.100228 0
M  V30 1807 C 160.881 1.94826 0.563101 0
M  V30 1808 C 161.214 0.982475 1.67514 0
M  V30 1809 O 160.489 0.0164069 1.94493 0
M  V30 1810 C 160.772 3.42453 1.11346 0
M  V30 1811 C 160.625 4.498 0.00612081 0
M  V30 1812 C 161.944 3.91506 2.01024 0
M  V30 1813 H 159.063 0.708428 0.203221 0
M  V30 1814 H 161.705 1.8922 -0.171979 0
M  V30 1815 H 159.855 3.47361 1.7399 0
M  V30 1816 H 161.527 4.57 -0.628357 0
M  V30 1817 H 159.77 4.28756 -0.659581 0
M  V30 1818 H 160.441 5.50306 0.432109 0
M  V30 1819 H 162.917 3.88784 1.48278 0
M  V30 1820 H 161.793 4.95358 2.36457 0
M  V30 1821 H 162.054 3.31099 2.92961 0
M  V30 1822 N 161.113 -0.173488 1.56642 0
M  V30 1823 C 162.39 -0.917617 1.7274 0
M  V30 1824 C 162.77 -2.00484 0.661027 0
M  V30 1825 O 162.118 -2.26184 -0.32453 0
M  V30 1826 C 162.328 -1.48433 3.15862 0
M  V30 1827 C 163.676 -1.95809 3.76754 0
M  V30 1828 O 164.7 -1.58231 3.19126 0
M  V30 1829 O 163.559 -2.65024 4.77938 0
M  V30 1830 H 160.653 -0.431772 0.705338 0
M  V30 1831 H 163.199 -0.161487 1.6893 0
M  V30 1832 H 161.971 -0.701715 3.84957 0
M  V30 1833 H 161.594 -2.30471 3.23989 0
M  V30 1834 N 162.591 -1.51276 -0.441967 0
M  V30 1835 C 164.007 -1.39349 -0.778083 0
M  V30 1836 C 164.207 -0.472212 -1.95889 0
M  V30 1837 O 163.263 0.0743551 -2.5239 0
M  V30 1838 C 164.576 -2.81292 -1.0628 0
M  V30 1839 C 166.124 -2.9041 -1.16751 0
M  V30 1840 C 166.599 -4.33251 -1.48519 0
M  V30 1841 N 168.09 -4.36336 -1.55453 0
M  V30 1842 C 168.825 -5.43885 -1.81596 0
M  V30 1843 N 168.321 -6.61601 -2.05562 0
M  V30 1844 N 170.114 -5.3136 -1.8334 0
M  V30 1845 H 162.265 -2.09729 0.335774 0
M  V30 1846 H 164.528 -0.943925 0.0878028 0
M  V30 1847 H 164.234 -3.50678 -0.267905 0
M  V30 1848 H 164.108 -3.20334 -1.99163 0
M  V30 1849 H 166.495 -2.21225 -1.95304 0
M  V30 1850 H 166.576 -2.54871 -0.217801 0
M  V30 1851 H 166.22 -5.02984 -0.704958 0
M  V30 1852 H 166.15 -4.66299 -2.44689 0
M  V30 1853 H 168.641 -3.51466 -1.38853 0
M  V30 1854 H 168.954 -7.39361 -2.24867 0
M  V30 1855 H 167.299 -6.64725 -2.02894 0
M  V30 1856 H 170.49 -4.38382 -1.64132 0
M  V30 1857 H 170.663 -6.15258 -2.03377 0
M  V30 1858 N 164.069 0.697108 -1.41344 0
M  V30 1859 C 165.297 1.48593 -1.43972 0
M  V30 1860 C 165.712 1.88747 -0.0445612 0
M  V30 1861 O 165.069 1.56682 0.935785 0
M  V30 1862 C 165.12 2.74946 -2.34706 0
M  V30 1863 O 164.841 2.36484 -3.68791 0
M  V30 1864 C 166.342 3.687 -2.46121 0
M  V30 1865 H 163.562 0.457964 -0.490418 0
M  V30 1866 H 166.106 0.858429 -1.8561 0
M  V30 1867 H 164.261 3.33937 -1.9638 0
M  V30 1868 H 164.675 3.17918 -4.17167 0
M  V30 1869 H 166.149 4.54145 -3.13777 0
M  V30 1870 H 166.626 4.13081 -1.49199 0
M  V30 1871 H 167.232 3.15613 -2.85076 0
M  V30 1872 N 165.547 1.27147 0.931209 0
M  V30 1873 C 166.477 1.12081 2.04842 0
M  V30 1874 C 167.458 0.0232364 1.70084 0
M  V30 1875 O 168.643 0.197085 1.93197 0
M  V30 1876 C 165.773 0.76354 3.38803 0
M  V30 1877 C 164.727 1.81396 3.87659 0
M  V30 1878 C 164.053 1.31075 5.18385 0
M  V30 1879 C 165.353 3.21739 4.11438 0
M  V30 1880 H 167.047 2.05537 2.17703 0
M  V30 1881 H 164.593 0.989603 1.04608 0
M  V30 1882 H 166.546 0.644982 4.16435 0
M  V30 1883 H 165.27 -0.206727 3.25945 0
M  V30 1884 H 163.929 1.92136 3.12217 0
M  V30 1885 H 163.577 0.330037 5.01916 0
M  V30 1886 H 163.277 2.013 5.52044 0
M  V30 1887 H 164.801 1.20506 5.98591 0
M  V30 1888 H 166.215 3.14019 4.79651 0
M  V30 1889 H 164.612 3.89644 4.56397 0
M  V30 1890 H 165.682 3.67054 3.16859 0
M  V30 1891 N 167.025 -1.13721 1.09112 0
M  V30 1892 C 167.958 -2.18094 0.67158 0
M  V30 1893 C 168.936 -1.59414 -0.320299 0
M  V30 1894 O 170.12 -1.87183 -0.222444 0
M  V30 1895 C 167.247 -3.38698 -0.0111189 0
M  V30 1896 C 166.293 -4.15966 0.942055 0
M  V30 1897 S 167.126 -4.7604 2.45246 0
M  V30 1898 C 168.282 -5.99994 1.78208 0
M  V30 1899 H 168.515 -2.53344 1.55577 0
M  V30 1900 H 166.048 -1.24967 0.906789 0
M  V30 1901 H 168.006 -4.08559 -0.398716 0
M  V30 1902 H 166.667 -3.01756 -0.871905 0
M  V30 1903 H 165.86 -5.02318 0.411396 0
M  V30 1904 H 165.462 -3.51745 1.2709 0
M  V30 1905 H 167.754 -6.68441 1.10424 0
M  V30 1906 H 168.697 -6.57662 2.62463 0
M  V30 1907 H 169.105 -5.50432 1.25238 0
M  V30 1908 N 168.503 -0.877838 -1.30888 0
M  V30 1909 C 169.728 -0.506629 -2.01117 0
M  V30 1910 C 170.153 0.895564 -1.65412 0
M  V30 1911 O 169.511 1.5923 -0.866922 0
M  V30 1912 C 169.559 -0.680223 -3.54126 0
M  V30 1913 O 168.663 0.277033 -4.11468 0
M  V30 1914 H 168.004 -0.200518 -0.633 0
M  V30 1915 H 170.534 -1.18342 -1.66902 0
M  V30 1916 H 170.544 -0.5765 -4.03907 0
M  V30 1917 H 169.219 -1.70261 -3.79452 0
M  V30 1918 H 167.796 0.127606 -3.72682 0
M  V30 1919 N 169.982 1.44106 -0.638065 0
M  V30 1920 C 170.945 2.29138 0.0531013 0
M  V30 1921 C 171.945 1.41409 0.765506 0
M  V30 1922 O 173.135 1.63206 0.609046 0
M  V30 1923 C 170.267 3.23144 1.08584 0
M  V30 1924 H 171.46 2.91739 -0.694883 0
M  V30 1925 H 169.013 1.51134 -0.398538 0
M  V30 1926 H 169.748 2.65408 1.86357 0
M  V30 1927 H 169.533 3.87804 0.578852 0
M  V30 1928 H 171.023 3.87004 1.56899 0
M  V30 1929 N 171.46 0.379036 1.52974 0
M  V30 1930 C 172.393 -0.504932 2.22544 0
M  V30 1931 C 173.371 -1.0723 1.22231 0
M  V30 1932 O 174.555 -1.12589 1.51182 0
M  V30 1933 C 171.682 -1.69794 2.93066 0
M  V30 1934 C 170.728 -1.25678 4.07563 0
M  V30 1935 S 171.561 -0.246852 5.34931 0
M  V30 1936 C 172.717 -1.44588 6.08971 0
M  V30 1937 H 172.95 0.0858666 2.97176 0
M  V30 1938 H 170.483 0.163183 1.53535 0
M  V30 1939 H 172.441 -2.38219 3.34308 0
M  V30 1940 H 171.102 -2.26002 2.18133 0
M  V30 1941 H 170.295 -2.14725 4.5597 0
M  V30 1942 H 169.897 -0.651584 3.6828 0
M  V30 1943 H 172.189 -2.37469 6.34519 0
M  V30 1944 H 173.132 -1.00292 7.00962 0
M  V30 1945 H 173.54 -1.65804 5.39601 0
M  V30 1946 N 172.938 -1.57226 0.108567 0
M  V30 1947 C 174.166 -1.99179 -0.559954 0
M  V30 1948 C 174.581 -0.988022 -1.60884 0
M  V30 1949 O 173.938 0.0205512 -1.82488 0
M  V30 1950 C 173.989 -3.41159 -1.19552 0
M  V30 1951 O 173.71 -4.37694 -0.188577 0
M  V30 1952 C 175.211 -3.98188 -1.94837 0
M  V30 1953 H 172.431 -0.654228 -0.149088 0
M  V30 1954 H 174.975 -2.03598 0.19183 0
M  V30 1955 H 173.13 -3.37711 -1.89815 0
M  V30 1956 H 173.544 -5.20469 -0.649014 0
M  V30 1957 H 175.018 -4.99644 -2.34648 0
M  V30 1958 H 175.495 -3.3675 -2.81951 0
M  V30 1959 H 176.101 -4.0515 -1.2936 0
M  V30 1960 N 174.416 0.165178 -1.56732 0
M  V30 1961 C 175.364 1.22369 -1.97809 0
M  V30 1962 C 176.358 1.45488 -0.867741 0
M  V30 1963 O 177.564 1.45995 -1.05288 0
M  V30 1964 H 173.939 0.411486 -0.629431 0
M  V30 1965 H 175.91 0.850425 -2.86025 0
M  V30 1966 C 174.659 2.55403 -2.35934 0
M  V30 1967 H 173.982 2.38438 -3.20916 0
M  V30 1968 H 175.422 3.2814 -2.68514 0
M  V30 1969 C 173.881 3.14611 -1.20506 0
M  V30 1970 O 174.411 3.98626 -0.496016 0
M  V30 1971 N 172.617 2.7379 -0.97403 0
M  V30 1972 H 172.164 2.0557 -1.55238 0
M  V30 1973 H 172.122 3.1374 -0.203573 0
M  V30 1974 N 175.894 1.51508 0.433938 0
M  V30 1975 C 176.824 1.76016 1.53429 0
M  V30 1976 C 177.805 0.610112 1.58782 0
M  V30 1977 O 178.99 0.853177 1.74455 0
M  V30 1978 C 176.12 1.88831 2.9148 0
M  V30 1979 C 175.074 3.04288 3.00987 0
M  V30 1980 C 174.4 3.0229 4.4105 0
M  V30 1981 C 175.7 4.44193 2.74754 0
M  V30 1982 H 177.394 2.68152 1.33171 0
M  V30 1983 H 174.94 1.29035 0.639214 0
M  V30 1984 H 176.893 2.04559 3.6842 0
M  V30 1985 H 175.617 0.933455 3.12976 0
M  V30 1986 H 174.276 2.8827 2.26486 0
M  V30 1987 H 173.924 2.04576 4.59519 0
M  V30 1988 H 173.624 3.79822 4.4834 0
M  V30 1989 H 175.148 3.20116 5.1996 0
M  V30 1990 H 176.562 4.60544 3.41426 0
M  V30 1991 H 174.959 5.23457 2.9345 0
M  V30 1992 H 176.029 4.53996 1.70339 0
M  V30 1993 N 177.372 -0.689602 1.41712 0
M  V30 1994 C 178.335 -1.78521 1.43746 0
M  V30 1995 C 179.335 -1.57436 0.327191 0
M  V30 1996 O 180.525 -1.64 0.587348 0
M  V30 1997 C 177.657 -3.16971 1.25467 0
M  V30 1998 H 178.85 -1.78108 2.41283 0
M  V30 1999 H 176.403 -0.89781 1.27942 0
M  V30 2000 H 177.138 -3.23019 0.287948 0
M  V30 2001 H 176.923 -3.33678 2.05917 0
M  V30 2002 H 178.413 -3.96935 1.2974 0
M  V30 2003 N 178.85 -1.27639 -0.924453 0
M  V30 2004 C 179.813 -1.10681 -2.00705 0
M  V30 2005 C 180.813 -0.0497823 -1.60723 0
M  V30 2006 O 182.003 -0.294654 -1.7169 0
M  V30 2007 C 179.135 -0.687164 -3.33902 0
M  V30 2008 H 180.328 -2.06817 -2.17179 0
M  V30 2009 H 177.881 -1.10473 -1.10569 0
M  V30 2010 H 178.616 0.275439 -3.23128 0
M  V30 2011 H 178.401 -1.45061 -3.6428 0
M  V30 2012 H 179.891 -0.590853 -4.13399 0
M  V30 2013 N 180.328 1.1314 -1.09713 0
M  V30 2014 C 181.258 2.20748 -0.761102 0
M  V30 2015 C 182.239 1.68061 0.262566 0
M  V30 2016 O 183.424 1.93765 0.129977 0
M  V30 2017 C 180.554 3.46812 -0.184054 0
M  V30 2018 C 179.508 4.12606 -1.13757 0
M  V30 2019 C 178.834 5.33031 -0.422083 0
M  V30 2020 C 180.134 4.59603 -2.48118 0
M  V30 2021 H 181.828 2.49113 -1.66082 0
M  V30 2022 H 179.374 1.19734 -0.799987 0
M  V30 2023 H 181.327 4.21353 0.0631215 0
M  V30 2024 H 180.051 3.17851 0.750868 0
M  V30 2025 H 178.71 3.40036 -1.37007 0
M  V30 2026 H 178.358 5.00335 0.517072 0
M  V30 2027 H 178.058 5.77999 -1.05788 0
M  V30 2028 H 179.582 6.10325 -0.183277 0
M  V30 2029 H 180.996 5.25552 -2.29059 0
M  V30 2030 H 179.393 5.15321 -3.07514 0
M  V30 2031 H 180.463 3.73971 -3.08665 0
M  V30 2032 N 181.806 0.884767 1.30421 0
M  V30 2033 C 183.053 0.503105 1.96151 0
M  V30 2034 C 183.381 -0.947676 1.69851 0
M  V30 2035 O 182.636 -1.68467 0.995861 0
M  V30 2036 C 182.935 0.724318 3.49983 0
M  V30 2037 C 182.601 2.15015 3.96332 0
M  V30 2038 C 181.263 2.54005 4.08699 0
M  V30 2039 C 183.615 3.07936 4.20505 0
M  V30 2040 C 180.943 3.85128 4.42599 0
M  V30 2041 C 183.295 4.3859 4.55874 0
M  V30 2042 C 181.959 4.77474 4.66449 0
M  V30 2043 H 181.229 0.184099 0.717766 0
M  V30 2044 H 183.876 1.12058 1.55291 0
M  V30 2045 H 182.181 0.0238086 3.91793 0
M  V30 2046 H 183.878 0.408617 3.98913 0
M  V30 2047 H 180.468 1.8375 3.87213 0
M  V30 2048 H 184.652 2.79033 4.10431 0
M  V30 2049 H 179.908 4.14996 4.48986 0
M  V30 2050 H 184.082 5.10629 4.7353 0
M  V30 2051 H 181.709 5.79115 4.92473 0
M  V30 2052 N 183.284 -1.43765 0.645699 0
M  V30 2053 C 184.695 -1.85193 0.236719 0
M  V30 2054 C 185.046 -1.54045 -1.21509 0
M  V30 2055 O 184.171 -0.985694 -1.92647 0
M  V30 2056 C 184.766 -3.36151 0.422845 0
M  V30 2057 C 183.325 -3.76338 0.0682492 0
M  V30 2058 C 182.472 -2.67538 0.729306 0
M  V30 2059 H 185.423 -1.34025 0.849883 0
M  V30 2060 H 185.444 -3.79032 -0.333904 0
M  V30 2061 H 184.956 -3.5879 1.47958 0
M  V30 2062 H 183.057 -3.59312 -0.986179 0
M  V30 2063 H 183.17 -4.76603 0.488469 0
M  V30 2064 H 181.534 -2.54176 0.163235 0
M  V30 2065 H 182.317 -2.93006 1.78892 0
M  V30 2066 N 184.763 -0.387143 -1.52771 0
M  V30 2067 C 186.174 0.0873634 -1.86495 0
M  V30 2068 C 186.525 1.46336 -1.30691 0
M  V30 2069 O 185.65 2.068 -0.637409 0
M  V30 2070 C 186.245 0.165305 -3.38396 0
M  V30 2071 C 184.804 0.584101 -3.7184 0
M  V30 2072 C 183.951 -0.255279 -2.76122 0
M  V30 2073 H 186.902 -0.605104 -1.46711 0
M  V30 2074 H 186.923 0.984848 -3.67534 0
M  V30 2075 H 186.435 -0.836301 -3.78982 0
M  V30 2076 H 184.536 1.59315 -3.36823 0
M  V30 2077 H 184.649 0.343749 -4.77865 0
M  V30 2078 H 183.013 0.279126 -2.53166 0
M  V30 2079 H 183.796 -1.25482 -3.19545 0
M  V30 2080 N 186.241 1.57166 -0.116904 0
M  V30 2081 C 187.151 2.18745 0.847812 0
M  V30 2082 C 188.167 1.163 1.29423 0
M  V30 2083 O 189.343 1.48761 1.35765 0
M  V30 2084 C 186.408 2.77307 2.0809 0
M  V30 2085 C 185.469 3.94781 1.68661 0
M  V30 2086 C 184.702 4.50541 2.86091 0
M  V30 2087 O 184.925 4.05202 4.01456 0
M  V30 2088 O 183.859 5.41256 2.63298 0
M  V30 2089 H 187.685 3.01632 0.353778 0
M  V30 2090 H 185.27 1.49005 0.108599 0
M  V30 2091 H 187.152 3.14647 2.80313 0
M  V30 2092 H 185.827 1.97452 2.56504 0
M  V30 2093 H 184.734 3.62214 0.935518 0
M  V30 2094 H 186.067 4.76065 1.24991 0
M  V30 2095 N 187.719 -0.156864 1.56817 0
M  V30 2096 C 188.967 -0.869404 1.82444 0
M  V30 2097 C 189.288 -1.82147 0.69623 0
M  V30 2098 O 188.558 -1.93847 -0.28287 0
M  V30 2099 H 187.138 -0.324043 0.673056 0
M  V30 2100 H 189.8 -0.153224 1.94297 0
M  V30 2101 H 188.896 -1.43761 2.77019 0
M  V30 2102 N 189.197 -1.51736 -0.425897 0
M  V30 2103 C 190.443 -1.65214 -1.1761 0
M  V30 2104 C 190.776 -0.372778 -1.90589 0
M  V30 2105 O 190.051 0.628139 -1.84078 0
M  V30 2106 C 190.334 -2.86312 -2.18398 0
M  V30 2107 C 190.187 -4.24254 -1.49426 0
M  V30 2108 C 191.506 -3.02925 -3.19256 0
M  V30 2109 H 188.625 -0.601263 -0.426206 0
M  V30 2110 H 191.267 -1.8425 -0.463882 0
M  V30 2111 H 189.417 -2.70213 -2.79137 0
M  V30 2112 H 191.089 -4.52046 -0.919362 0
M  V30 2113 H 189.332 -4.26426 -0.796432 0
M  V30 2114 H 190.003 -5.05001 -2.22885 0
M  V30 2115 H 192.479 -3.1781 -2.68581 0
M  V30 2116 H 191.355 -3.89199 -3.8706 0
M  V30 2117 H 191.616 -2.15497 -3.86023 0
M  V30 2118 N 190.675 0.682077 -1.42076 0
M  V30 2119 C 191.9 1.47558 -1.45744 0
M  V30 2120 C 192.325 1.87977 -0.0680981 0
M  V30 2121 O 191.683 1.55522 0.9318 0
M  V30 2122 C 191.731 2.70575 -2.38373 0
M  V30 2123 O 190.835 3.68573 -1.85007 0
M  V30 2124 H 190.176 0.443585 -0.494093 0
M  V30 2125 H 192.706 0.837238 -1.86686 0
M  V30 2126 H 192.716 3.18729 -2.54707 0
M  V30 2127 H 191.391 2.40495 -3.39315 0
M  V30 2128 H 189.968 3.2757 -1.78192 0
M  V30 2129 N 192.153 1.28127 0.917671 0
M  V30 2130 C 193.402 1.14432 1.66097 0
M  V30 2131 C 193.715 -0.307247 1.93172 0
M  V30 2132 O 194.921 -0.565259 2.65551 0
M  V30 2133 C 193.377 2.00015 2.99202 0
M  V30 2134 C 192.985 3.49889 2.79789 0
M  V30 2135 C 194.729 1.94996 3.77064 0
M  V30 2136 C 192.636 4.27636 4.08511 0
M  V30 2137 H 191.566 0.424662 0.62304 0
M  V30 2138 H 194.217 1.52628 1.01868 0
M  V30 2139 H 192.599 1.54672 3.64544 0
M  V30 2140 H 193.773 4.03162 2.23152 0
M  V30 2141 H 192.088 3.56392 2.15345 0
M  V30 2142 H 194.685 2.50354 4.72469 0
M  V30 2143 H 195.028 0.925819 4.05875 0
M  V30 2144 H 195.561 2.38287 3.18534 0
M  V30 2145 H 192.3 5.30615 3.84874 0
M  V30 2146 H 191.82 3.79137 4.64774 0
M  V30 2147 H 193.499 4.37346 4.76799 0
M  V30 2148 N 193.631 -1.12557 1.10312 0
M  V30 2149 C 194.877 -1.84515 0.855901 0
M  V30 2150 C 195.232 -1.82409 -0.611936 0
M  V30 2151 O 194.525 -1.25778 -1.44535 0
M  V30 2152 C 194.719 -3.31462 1.33669 0
M  V30 2153 C 194.548 -3.47879 2.84974 0
M  V30 2154 C 193.318 -3.61589 3.52961 0
M  V30 2155 C 195.516 -3.43152 3.83081 0
M  V30 2156 N 193.498 -3.66359 4.926 0
M  V30 2157 C 194.869 -3.54401 5.08724 0
M  V30 2158 C 196.924 -3.2661 3.75807 0
M  V30 2159 C 195.627 -3.50815 6.2795 0
M  V30 2160 C 197.653 -3.24335 4.94531 0
M  V30 2161 C 197.015 -3.36144 6.19021 0
M  V30 2162 H 193.114 -0.690967 0.366182 0
M  V30 2163 H 195.698 -1.34763 1.40524 0
M  V30 2164 H 193.869 -3.7976 0.814686 0
M  V30 2165 H 195.601 -3.91272 1.03385 0
M  V30 2166 H 192.356 -3.63652 3.03404 0
M  V30 2167 H 192.78 -3.72411 5.65366 0
M  V30 2168 H 197.422 -3.16375 2.80476 0
M  V30 2169 H 195.14 -3.5982 7.23571 0
M  V30 2170 H 198.726 -3.12719 4.9061 0
M  V30 2171 H 197.606 -3.34357 7.09348 0
M  V30 2172 N 195.109 -0.891671 -1.2995 0
M  V30 2173 C 196.057 -0.353066 -2.29905 0
M  V30 2174 C 197.051 0.543509 -1.60444 0
M  V30 2175 O 198.257 0.4272 -1.74857 0
M  V30 2176 H 194.632 -0.095531 -0.745907 0
M  V30 2177 H 196.603 -1.20961 -2.72784 0
M  V30 2178 C 195.352 0.411475 -3.45257 0
M  V30 2179 H 194.675 -0.269182 -3.98893 0
M  V30 2180 H 196.115 0.753328 -4.17254 0
M  V30 2181 C 194.574 1.6111 -2.9588 0
M  V30 2182 O 195.104 2.71045 -2.96475 0
M  V30 2183 N 193.31 1.45054 -2.51809 0
M  V30 2184 H 192.857 0.556175 -2.51524 0
M  V30 2185 H 192.815 2.25453 -2.1913 0
M  V30 2186 N 196.587 1.43421 -0.653314 0
M  V30 2187 C 197.998 1.85065 -0.246537 0
M  V30 2188 C 198.349 1.54688 1.2069 0
M  V30 2189 O 197.474 0.995896 1.92122 0
M  V30 2190 C 198.069 3.35922 -0.440666 0
M  V30 2191 C 196.628 3.76297 -0.0882064 0
M  V30 2192 C 195.775 2.67147 -0.743484 0
M  V30 2193 H 198.726 1.33572 -0.856979 0
M  V30 2194 H 198.747 3.79204 0.313798 0
M  V30 2195 H 198.259 3.58 -1.49858 0
M  V30 2196 H 196.36 3.5983 0.96711 0
M  V30 2197 H 196.473 4.76338 -0.513738 0
M  V30 2198 H 194.837 2.54086 -0.176712 0
M  V30 2199 H 195.62 2.92053 -1.80443 0
M  V30 2200 N 198.065 0.39524 1.52563 0
M  V30 2201 C 199.314 -0.186321 2.00838 0
M  V30 2202 C 199.627 -1.47402 1.28577 0
M  V30 2203 O 200.833 -2.13599 1.67593 0
M  V30 2204 C 199.289 -0.382595 3.57861 0
M  V30 2205 C 198.897 0.892202 4.39026 0
M  V30 2206 C 200.641 -0.9202 4.14406 0
M  V30 2207 C 198.548 0.66388 5.87662 0
M  V30 2208 H 197.478 -0.0734041 0.750418 0
M  V30 2209 H 200.129 0.518552 1.76021 0
M  V30 2210 H 198.511 -1.14946 3.7895 0
M  V30 2211 H 199.685 1.66414 4.29701 0
M  V30 2212 H 198 1.35519 3.9373 0
M  V30 2213 H 200.597 -1.10683 5.23119 0
M  V30 2214 H 200.94 -1.89096 3.70875 0
M  V30 2215 H 201.473 -0.212751 3.97231 0
M  V30 2216 H 198.212 1.6058 6.35527 0
M  V30 2217 H 197.732 -0.0690193 5.9976 0
M  V30 2218 H 199.411 0.300699 6.46301 0
M  V30 2219 N 199.544 -1.57102 0.125237 0
M  V30 2220 C 200.474 -2.18659 -0.819174 0
M  V30 2221 C 201.455 -1.12843 -1.27281 0
M  V30 2222 O 202.64 -1.41104 -1.33429 0
M  V30 2223 C 199.77 -2.79096 -2.06695 0
M  V30 2224 C 198.724 -3.90548 -1.75088 0
M  V30 2225 C 198.05 -4.37821 -3.06948 0
M  V30 2226 C 199.35 -5.12356 -1.01435 0
M  V30 2227 H 201.044 -2.9783 -0.306202 0
M  V30 2228 H 198.59 -1.4326 -0.145839 0
M  V30 2229 H 200.543 -3.2082 -2.73226 0
M  V30 2230 H 199.267 -1.97223 -2.60328 0
M  V30 2231 H 197.926 -3.49409 -1.10944 0
M  V30 2232 H 197.574 -3.52799 -3.58527 0
M  V30 2233 H 197.274 -5.12982 -2.86571 0
M  V30 2234 H 198.798 -4.822 -3.74587 0
M  V30 2235 H 200.212 -5.5106 -1.58132 0
M  V30 2236 H 198.609 -5.9314 -0.911319 0
M  V30 2237 H 199.679 -4.849 -0.00218681 0
M  V30 2238 N 201.022 0.148545 -1.56898 0
M  V30 2239 C 201.952 1.18524 -2.01182 0
M  V30 2240 C 202.933 1.4489 -0.891123 0
M  V30 2241 O 204.118 1.55836 -1.15882 0
M  V30 2242 C 201.248 2.51879 -2.39112 0
M  V30 2243 C 200.202 2.40038 -3.54353 0
M  V30 2244 C 199.528 3.78089 -3.78091 0
M  V30 2245 C 200.828 1.88577 -4.87069 0
M  V30 2246 H 202.522 0.817029 -2.88036 0
M  V30 2247 H 200.068 0.391575 -1.38574 0
M  V30 2248 H 202.021 3.24627 -2.68692 0
M  V30 2249 H 200.745 2.90532 -1.49193 0
M  V30 2250 H 199.404 1.69742 -3.24936 0
M  V30 2251 H 199.052 4.14175 -2.85426 0
M  V30 2252 H 198.752 3.71028 -4.55645 0
M  V30 2253 H 200.276 4.52387 -4.10095 0
M  V30 2254 H 201.69 2.51117 -5.15377 0
M  V30 2255 H 200.087 1.9241 -5.68417 0
M  V30 2256 H 201.157 0.84136 -4.77545 0
M  V30 2257 N 202.5 1.5196 0.417844 0
M  V30 2258 C 203.746 1.66793 1.16411 0
M  V30 2259 C 204.101 0.388758 1.88432 0
M  V30 2260 O 203.394 -0.616409 1.81414 0
M  V30 2261 C 203.588 2.82269 2.19223 0
M  V30 2262 C 203.417 4.21293 1.57297 0
M  V30 2263 C 202.187 4.86948 1.34944 0
M  V30 2264 C 204.385 5.03704 1.03858 0
M  V30 2265 N 202.367 6.1003 0.688195 0
M  V30 2266 C 203.738 6.1795 0.503742 0
M  V30 2267 C 205.793 4.89095 0.932203 0
M  V30 2268 C 204.496 7.19188 -0.127034 0
M  V30 2269 C 206.522 5.90559 0.315293 0
M  V30 2270 C 205.884 7.0409 -0.208906 0
M  V30 2271 H 201.983 0.66407 0.412959 0
M  V30 2272 H 204.567 1.89242 0.457772 0
M  V30 2273 H 202.738 2.61451 2.87225 0
M  V30 2274 H 204.47 2.86183 2.86149 0
M  V30 2275 H 201.225 4.45156 1.61657 0
M  V30 2276 H 201.649 6.75964 0.374449 0
M  V30 2277 H 206.291 4.01557 1.32332 0
M  V30 2278 H 204.009 8.06359 -0.530231 0
M  V30 2279 H 207.595 5.81327 0.234625 0
M  V30 2280 H 206.475 7.81257 -0.67875 0
M  V30 2281 N 203.978 -0.674533 1.42435 0
M  V30 2282 C 204.91 -1.80005 1.41883 0
M  V30 2283 C 205.923 -1.59667 0.31787 0
M  V30 2284 O 207.112 -1.68781 0.580973 0
M  V30 2285 C 204.212 -3.17114 1.19549 0
M  V30 2286 C 203.385 -3.64299 2.42084 0
M  V30 2287 C 202.444 -4.80142 2.15291 0
M  V30 2288 O 201.47 -4.90673 2.88493 0
M  V30 2289 N 202.672 -5.68869 1.1562 0
M  V30 2290 H 205.437 -1.80964 2.38898 0
M  V30 2291 H 202.998 -0.857633 1.37318 0
M  V30 2292 H 204.99 -3.92267 0.995417 0
M  V30 2293 H 203.56 -3.11053 0.310569 0
M  V30 2294 H 202.78 -2.79822 2.77657 0
M  V30 2295 H 204.068 -3.92567 3.23679 0
M  V30 2296 H 203.466 -5.63012 0.550765 0
M  V30 2297 H 202.023 -6.43833 1.016 0
M  V30 2298 N 205.456 -1.28612 -0.910864 0
M  V30 2299 C 206.867 -1.14406 -1.47541 0
M  V30 2300 C 207.218 0.264901 -1.94403 0
M  V30 2301 O 206.343 1.15942 -1.82719 0
M  V30 2302 C 206.938 -2.07073 -2.68153 0
M  V30 2303 C 205.497 -1.96923 -3.20778 0
M  V30 2304 C 204.644 -1.98646 -1.93481 0
M  V30 2305 H 207.595 -1.41259 -0.723291 0
M  V30 2306 H 207.616 -1.63642 -3.43514 0
M  V30 2307 H 207.128 -3.09611 -2.34015 0
M  V30 2308 H 205.229 -0.97433 -3.59635 0
M  V30 2309 H 205.342 -2.84026 -3.85832 0
M  V30 2310 H 203.706 -1.43093 -2.10705 0
M  V30 2311 H 204.489 -3.02868 -1.61634 0
M  V30 2312 N 206.934 1.1197 -1.10907 0
M  V30 2313 C 208.183 1.82947 -0.849302 0
M  V30 2314 C 208.496 1.85275 0.627112 0
M  V30 2315 O 209.702 2.52296 1.00295 0
M  V30 2316 C 208.158 3.28529 -1.46959 0
M  V30 2317 C 207.766 3.34546 -2.97965 0
M  V30 2318 C 209.51 4.04443 -1.28942 0
M  V30 2319 C 207.417 4.74491 -3.53004 0
M  V30 2320 H 206.347 0.685477 -0.314065 0
M  V30 2321 H 208.998 1.2604 -1.33365 0
M  V30 2322 H 207.38 3.85333 -0.912917 0
M  V30 2323 H 208.554 2.87654 -3.59989 0
M  V30 2324 H 206.869 2.72108 -3.15192 0
M  V30 2325 H 209.466 5.07787 -1.67502 0
M  V30 2326 H 209.809 4.15656 -0.231456 0
M  V30 2327 H 210.342 3.5401 -1.81443 0
M  V30 2328 H 207.081 4.68474 -4.58489 0
M  V30 2329 H 206.601 5.21816 -2.9575 0
M  V30 2330 H 208.28 5.4344 -3.51115 0
M  V30 2331 N 208.412 0.89855 1.29475 0
M  V30 2332 C 209.823 0.572537 1.77705 0
M  V30 2333 C 210.174 -0.911778 1.73727 0
M  V30 2334 O 209.299 -1.71288 1.32247 0
M  V30 2335 C 209.894 1.03252 3.22683 0
M  V30 2336 C 208.453 0.757687 3.68695 0
M  V30 2337 C 207.6 1.20787 2.49612 0
M  V30 2338 H 210.551 1.08139 1.16153 0
M  V30 2339 H 210.572 0.367307 3.78723 0
M  V30 2340 H 210.084 2.11285 3.25546 0
M  V30 2341 H 208.185 -0.310079 3.71308 0
M  V30 2342 H 208.298 1.35476 4.59547 0
M  V30 2343 H 206.662 0.626888 2.46865 0
M  V30 2344 H 207.445 2.29622 2.55203 0
M  V30 2345 N 209.89 -1.43072 0.660911 0
M  V30 2346 C 211.136 -2.0202 0.177708 0
M  V30 2347 C 211.469 -1.52066 -1.20787 0
M  V30 2348 O 210.744 -0.716987 -1.80802 0
M  V30 2349 C 211.027 -3.59561 0.197019 0
M  V30 2350 C 210.88 -4.19727 1.61706 0
M  V30 2351 C 212.199 -4.37664 -0.462396 0
M  V30 2352 H 209.318 -0.734034 0.0660494 0
M  V30 2353 H 211.96 -1.70272 0.843058 0
M  V30 2354 H 210.11 -3.86739 -0.369527 0
M  V30 2355 H 211.782 -4.03553 2.23479 0
M  V30 2356 H 210.025 -3.76084 2.16201 0
M  V30 2357 H 210.696 -5.28834 1.58237 0
M  V30 2358 H 213.172 -4.16095 0.0197215 0
M  V30 2359 H 212.048 -5.47305 -0.418188 0
M  V30 2360 H 212.309 -4.14493 -1.53778 0
M  V30 2361 N 211.368 -0.403325 -1.52352 0
M  V30 2362 C 212.318 0.442244 -2.2367 0
M  V30 2363 C 213.302 1.01823 -1.24583 0
M  V30 2364 O 214.494 0.942005 -1.49851 0
M  V30 2365 C 211.623 1.5615 -3.05732 0
M  V30 2366 C 210.709 0.996575 -4.12225 0
M  V30 2367 N 211.1 0.157804 -5.05554 0
M  V30 2368 C 209.398 1.26767 -4.27605 0
M  V30 2369 C 210.099 -0.155853 -5.81491 0
M  V30 2370 N 209.075 0.451775 -5.41719 0
M  V30 2371 H 212.877 -0.204964 -2.93184 0
M  V30 2372 H 210.391 -0.213418 -1.60992 0
M  V30 2373 H 212.388 2.17981 -3.55373 0
M  V30 2374 H 211.048 2.21139 -2.37755 0
M  V30 2375 H 212.059 -0.206049 -5.1749 0
M  V30 2376 H 208.736 1.91757 -3.70858 0
M  V30 2377 H 210.126 -0.836329 -6.66675 0
M  V30 2378 N 212.846 1.57033 -0.133567 0
M  V30 2379 C 214.074 2.00044 0.528195 0
M  V30 2380 C 214.489 1.01349 1.59291 0
M  V30 2381 O 213.846 0.00848369 1.82498 0
M  V30 2382 C 213.897 3.43018 1.1411 0
M  V30 2383 O 213.618 4.37939 0.11892 0
M  V30 2384 C 215.119 4.01237 1.88477 0
M  V30 2385 H 212.339 0.656517 0.138661 0
M  V30 2386 H 214.883 2.03267 -0.224196 0
M  V30 2387 H 213.038 3.40688 1.84418 0
M  V30 2388 H 213.452 5.21436 0.56613 0
M  V30 2389 H 214.926 5.03314 2.26669 0
M  V30 2390 H 215.403 3.41193 2.76558 0
M  V30 2391 H 216.009 4.07156 1.22898 0
M  V30 2392 N 214.325 -0.140222 1.56975 0
M  V30 2393 C 215.571 -0.852949 1.83991 0
M  V30 2394 C 215.904 -1.80512 0.716187 0
M  V30 2395 O 215.179 -1.92479 -0.279681 0
M  V30 2396 C 215.462 -1.6215 3.21527 0
M  V30 2397 C 215.315 -0.690363 4.4447 0
M  V30 2398 C 216.634 -2.58247 3.56366 0
M  V30 2399 H 213.753 -0.308634 0.669264 0
M  V30 2400 H 216.395 -0.117898 1.89634 0
M  V30 2401 H 214.545 -2.24812 3.16847 0
M  V30 2402 H 216.217 -0.0742264 4.6124 0
M  V30 2403 H 214.46 -0.000396433 4.338 0
M  V30 2404 H 215.131 -1.2643 5.37326 0
M  V30 2405 H 217.607 -2.05701 3.61699 0
M  V30 2406 H 216.483 -3.09067 4.53617 0
M  V30 2407 H 216.744 -3.39923 2.82674 0
M  V30 2408 N 215.803 -1.52179 -0.40978 0
M  V30 2409 C 217.214 -1.58377 -0.988615 0
M  V30 2410 C 217.565 -0.423879 -1.91566 0
M  V30 2411 O 216.69 0.455844 -2.11544 0
M  V30 2412 C 217.285 -2.87044 -1.79976 0
M  V30 2413 C 215.844 -2.95722 -2.32863 0
M  V30 2414 C 214.991 -2.53309 -1.12828 0
M  V30 2415 H 217.942 -1.57558 -0.190039 0
M  V30 2416 H 217.963 -2.7236 -2.65707 0
M  V30 2417 H 217.475 -3.71444 -1.12478 0
M  V30 2418 H 215.576 -2.15814 -3.03735 0
M  V30 2419 H 215.689 -3.99951 -2.63773 0
M  V30 2420 H 214.053 -2.07142 -1.48204 0
M  V30 2421 H 214.836 -3.40082 -0.46897 0
M  V30 2422 N 217.281 0.66697 -1.42791 0
M  V30 2423 C 218.211 1.79218 -1.49677 0
M  V30 2424 C 219.192 1.66405 -0.352623 0
M  V30 2425 O 220.377 1.85708 -0.567993 0
M  V30 2426 C 217.507 3.17565 -1.40605 0
M  V30 2427 C 216.461 3.45124 -2.53127 0
M  V30 2428 C 215.787 4.83127 -2.29112 0
M  V30 2429 C 217.087 3.41236 -3.95418 0
M  V30 2430 H 218.781 1.73713 -2.43853 0
M  V30 2431 H 216.327 0.83432 -1.17367 0
M  V30 2432 H 218.28 3.96022 -1.44029 0
M  V30 2433 H 217.004 3.23767 -0.429271 0
M  V30 2434 H 215.663 2.69031 -2.49034 0
M  V30 2435 H 215.311 4.85988 -1.29709 0
M  V30 2436 H 215.011 5.02528 -3.04531 0
M  V30 2437 H 216.535 5.63859 -2.34297 0
M  V30 2438 H 217.949 4.09651 -4.01073 0
M  V30 2439 H 216.346 3.72173 -4.70752 0
M  V30 2440 H 217.416 2.39665 -4.21532 0
M  V30 2441 N 218.759 1.29093 0.90403 0
M  V30 2442 C 219.984 1.19809 1.69294 0
M  V30 2443 C 220.409 -0.238481 1.86582 0
M  V30 2444 O 219.767 -1.1723 1.383 0
M  V30 2445 C 219.815 1.91202 3.05736 0
M  V30 2446 O 218.919 1.22611 3.93752 0
M  V30 2447 H 218.26 0.415385 0.518027 0
M  V30 2448 H 220.79 1.70586 1.12967 0
M  V30 2449 H 220.8 1.99487 3.55906 0
M  V30 2450 H 219.475 2.95692 2.92471 0
M  V30 2451 H 218.052 1.22554 3.52186 0
M  V30 2452 N 220.237 -1.11381 1.11499 0
M  V30 2453 C 221.147 -2.21019 0.786628 0
M  V30 2454 C 222.163 -1.72597 -0.220507 0
M  V30 2455 O 223.339 -2.01321 -0.0565251 0
M  V30 2456 C 220.404 -3.459 0.235333 0
M  V30 2457 C 219.465 -4.09107 1.30115 0
M  V30 2458 C 218.698 -5.28027 0.776068 0
M  V30 2459 O 218.921 -5.6904 -0.393661 0
M  V30 2460 O 217.855 -5.81835 1.54114 0
M  V30 2461 H 221.681 -2.51521 1.70209 0
M  V30 2462 H 219.266 -1.19928 0.890928 0
M  V30 2463 H 221.148 -4.21346 -0.067715 0
M  V30 2464 H 219.823 -3.17049 -0.652828 0
M  V30 2465 H 218.73 -3.35391 1.65722 0
M  V30 2466 H 220.063 -4.42139 2.16273 0
M  V30 2467 N 221.715 -0.905404 -1.28997 0
M  V30 2468 C 222.992 -0.453513 -1.9027 0
M  V30 2469 C 223.372 1.06721 -1.82137 0
M  V30 2470 O 222.72 1.91159 -1.25182 0
M  V30 2471 C 222.93 -0.974494 -3.35119 0
M  V30 2472 C 224.278 -1.0216 -4.12127 0
M  V30 2473 O 225.302 -0.922557 -3.44046 0
M  V30 2474 O 224.161 -1.17121 -5.33802 0
M  V30 2475 H 221.255 -0.142347 -0.814657 0
M  V30 2476 H 223.801 -0.995642 -1.37423 0
M  V30 2477 H 222.573 -2.01848 -3.35221 0
M  V30 2478 H 222.196 -0.412706 -3.95452 0
M  V30 2479 N 223.193 1.4272 -0.668489 0
M  V30 2480 C 224.125 2.2914 0.052613 0
M  V30 2481 C 225.138 1.43339 0.771857 0
M  V30 2482 O 226.327 1.67123 0.627067 0
M  V30 2483 C 223.427 3.20618 1.09804 0
M  V30 2484 C 222.6 4.35039 0.45389 0
M  V30 2485 C 221.659 5.07282 1.39825 0
M  V30 2486 O 220.685 5.62024 0.900978 0
M  V30 2487 N 221.887 5.12206 2.73176 0
M  V30 2488 H 224.652 2.91668 -0.689209 0
M  V30 2489 H 222.213 1.53577 -0.512422 0
M  V30 2490 H 224.205 3.65815 1.73094 0
M  V30 2491 H 222.775 2.59585 1.74167 0
M  V30 2492 H 221.995 3.92567 -0.358396 0
M  V30 2493 H 223.283 5.088 0.00486972 0
M  V30 2494 H 222.681 4.6913 3.16122 0
M  V30 2495 H 221.238 5.61069 3.31729 0
M  V30 2496 N 224.671 0.411399 1.52136 0
M  V30 2497 C 225.601 -0.404015 2.29978 0
M  V30 2498 C 226.582 -1.04412 1.34284 0
M  V30 2499 O 227.767 -1.0527 1.63192 0
M  V30 2500 C 224.897 -1.5197 3.12286 0
M  V30 2501 C 223.851 -1.00448 4.16046 0
M  V30 2502 C 223.177 -2.21393 4.86712 0
M  V30 2503 C 224.477 -0.0569336 5.22269 0
M  V30 2504 H 226.171 0.245529 2.98392 0
M  V30 2505 H 223.717 0.119525 1.43503 0
M  V30 2506 H 225.67 -2.09715 3.6551 0
M  V30 2507 H 224.394 -2.19716 2.41646 0
M  V30 2508 H 223.053 -0.449421 3.63835 0
M  V30 2509 H 222.701 -2.87699 4.12599 0
M  V30 2510 H 222.401 -1.87571 5.56858 0
M  V30 2511 H 223.925 -2.7974 5.4275 0
M  V30 2512 H 225.339 -0.54325 5.7072 0
M  V30 2513 H 223.736 0.192594 5.99791 0
M  V30 2514 H 224.806 0.887663 4.76706 0
M  V30 2515 N 226.149 -1.5696 0.141893 0
M  V30 2516 C 227.079 -2.19516 -0.795936 0
M  V30 2517 C 228.06 -1.14187 -1.26077 0
M  V30 2518 O 229.245 -1.42511 -1.31925 0
M  V30 2519 C 226.375 -2.81272 -2.03723 0
M  V30 2520 C 225.329 -3.92384 -1.70936 0
M  V30 2521 C 224.655 -4.41052 -3.02287 0
M  V30 2522 C 225.955 -5.13403 -0.959954 0
M  V30 2523 H 227.649 -2.98138 -0.274596 0
M  V30 2524 H 225.195 -1.43406 -0.130636 0
M  V30 2525 H 227.148 -3.237 -2.69808 0
M  V30 2526 H 225.872 -1.99973 -2.58221 0
M  V30 2527 H 224.531 -3.50566 -1.07232 0
M  V30 2528 H 224.179 -3.56582 -3.54765 0
M  V30 2529 H 223.879 -5.15993 -2.81114 0
M  V30 2530 H 225.403 -4.86146 -3.69451 0
M  V30 2531 H 226.817 -5.52706 -1.52279 0
M  V30 2532 H 225.214 -5.94073 -0.848357 0
M  V30 2533 H 226.284 -4.84875 0.0492434 0
M  V30 2534 N 227.627 0.131896 -1.57047 0
M  V30 2535 C 228.857 0.855219 -1.88068 0
M  V30 2536 C 229.265 1.74557 -0.729817 0
M  V30 2537 O 228.608 1.81083 0.308962 0
M  V30 2538 C 228.67 1.75119 -3.13964 0
M  V30 2539 C 228.334 1.03646 -4.45091 0
M  V30 2540 C 229.331 0.383276 -5.18485 0
M  V30 2541 C 227.016 1.02148 -4.91804 0
M  V30 2542 C 229.01 -0.275347 -6.36805 0
M  V30 2543 C 226.697 0.359047 -6.10044 0
M  V30 2544 C 227.695 -0.288222 -6.82392 0
M  V30 2545 O 227.383 -0.94011 -7.98384 0
M  V30 2546 H 227.115 0.251864 -0.627328 0
M  V30 2547 H 229.669 0.124782 -2.05021 0
M  V30 2548 H 227.899 2.52295 -2.9306 0
M  V30 2549 H 229.588 2.3478 -3.31109 0
M  V30 2550 H 230.354 0.386562 -4.83457 0
M  V30 2551 H 226.233 1.5147 -4.35405 0
M  V30 2552 H 229.777 -0.781148 -6.93213 0
M  V30 2553 H 225.674 0.35348 -6.44531 0
M  V30 2554 H 226.442 -0.84329 -8.14144 0
M  V30 2555 N 229.106 1.52395 0.401703 0
M  V30 2556 C 230.036 1.79231 1.49661 0
M  V30 2557 C 231.017 0.643654 1.57452 0
M  V30 2558 O 232.202 0.889989 1.72606 0
M  V30 2559 C 229.332 1.94971 2.87409 0
M  V30 2560 C 228.286 3.10604 2.94465 0
M  V30 2561 C 227.612 3.11577 4.34538 0
M  V30 2562 C 228.912 4.49921 2.6527 0
M  V30 2563 H 230.606 2.70917 1.27454 0
M  V30 2564 H 228.152 1.30362 0.6117 0
M  V30 2565 H 230.105 2.12328 3.63999 0
M  V30 2566 H 228.829 0.999632 3.10926 0
M  V30 2567 H 227.488 2.93009 2.20321 0
M  V30 2568 H 227.136 2.14277 4.55076 0
M  V30 2569 H 226.836 3.89247 4.40183 0
M  V30 2570 H 228.36 3.31073 5.13053 0
M  V30 2571 H 229.774 4.67683 3.31581 0
M  V30 2572 H 228.171 5.29564 2.82281 0
M  V30 2573 H 229.241 4.57507 1.60671 0
M  V30 2574 N 230.584 -0.659388 1.43143 0
M  V30 2575 C 231.995 -1.24041 1.39537 0
M  V30 2576 C 232.346 -1.95963 0.0963364 0
M  V30 2577 O 231.471 -2.00892 -0.804438 0
M  V30 2578 C 232.066 -2.25601 2.52764 0
M  V30 2579 C 230.625 -2.79195 2.52443 0
M  V30 2580 C 229.772 -1.53743 2.30778 0
M  V30 2581 H 232.723 -0.451792 1.52133 0
M  V30 2582 H 232.744 -3.07651 2.23899 0
M  V30 2583 H 232.256 -1.73226 3.47296 0
M  V30 2584 H 230.357 -3.35649 1.61773 0
M  V30 2585 H 230.47 -3.2716 3.50004 0
M  V30 2586 H 228.834 -1.80869 1.79328 0
M  V30 2587 H 229.617 -1.03312 3.27386 0
M  V30 2588 N 232.062 -1.29571 -0.897171 0
M  V30 2589 C 233.309 -1.17689 -1.6479 0
M  V30 2590 C 233.637 0.27107 -1.92602 0
M  V30 2591 O 232.892 1.21193 -1.53658 0
M  V30 2592 C 233.191 -1.9382 -3.00281 0
M  V30 2593 C 232.857 -3.43522 -2.92068 0
M  V30 2594 C 231.519 -3.84348 -2.89535 0
M  V30 2595 C 233.871 -4.38906 -2.81089 0
M  V30 2596 C 231.199 -5.18869 -2.73846 0
M  V30 2597 C 233.551 -5.73521 -2.66939 0
M  V30 2598 C 232.215 -6.13601 -2.62774 0
M  V30 2599 H 231.485 -0.430654 -0.603008 0
M  V30 2600 H 234.132 -1.60536 -1.04404 0
M  V30 2601 H 232.437 -1.4357 -3.64547 0
M  V30 2602 H 234.134 -1.82028 -3.57305 0
M  V30 2603 H 230.724 -3.11072 -2.94842 0
M  V30 2604 H 234.908 -4.08315 -2.82121 0
M  V30 2605 H 230.164 -5.4903 -2.69027 0
M  V30 2606 H 234.338 -6.47078 -2.57416 0
M  V30 2607 H 231.965 -7.17786 -2.50375 0
M  V30 2608 N 233.54 1.10788 -1.12088 0
M  V30 2609 C 234.956 1.34691 -0.856186 0
M  V30 2610 C 235.156 1.94791 0.515615 0
M  V30 2611 O 234.212 2.18524 1.26505 0
M  V30 2612 C 235.525 2.27208 -1.9697 0
M  V30 2613 C 237.073 2.40755 -2.00016 0
M  V30 2614 C 237.548 3.36598 -3.1059 0
M  V30 2615 N 239.039 3.44164 -3.10008 0
M  V30 2616 C 239.774 4.18284 -3.92206 0
M  V30 2617 N 239.27 4.95322 -4.84384 0
M  V30 2618 N 241.063 4.13865 -3.80357 0
M  V30 2619 H 233.214 0.70144 -2.00483 0
M  V30 2620 H 235.477 0.371405 -0.872217 0
M  V30 2621 H 235.183 1.90251 -2.958 0
M  V30 2622 H 235.057 3.27485 -1.87172 0
M  V30 2623 H 237.444 2.76982 -1.01808 0
M  V30 2624 H 237.525 1.40305 -2.13888 0
M  V30 2625 H 237.169 3.01096 -4.09028 0
M  V30 2626 H 237.099 4.36918 -2.93956 0
M  V30 2627 H 239.59 2.8922 -2.43228 0
M  V30 2628 H 239.903 5.49267 -5.43623 0
M  V30 2629 H 238.248 4.94459 -4.884 0
M  V30 2630 H 241.439 3.52773 -3.07683 0
M  V30 2631 H 241.612 4.71372 -4.44649 0
M  V30 2632 N 235.018 0.912232 1.28515 0
M  V30 2633 C 235.966 0.389597 2.29314 0
M  V30 2634 C 236.96 -0.517915 1.61289 0
M  V30 2635 O 238.166 -0.399328 1.75515 0
M  V30 2636 H 234.541 0.107386 0.744293 0
M  V30 2637 H 236.512 1.25286 2.70825 0
M  V30 2638 C 235.261 -0.356496 3.45868 0
M  V30 2639 H 234.584 0.332608 3.98414 0
M  V30 2640 H 236.024 -0.686851 4.184 0
M  V30 2641 C 234.483 -1.56383 2.98406 0
M  V30 2642 O 235.013 -2.66294 3.00749 0
M  V30 2643 N 233.219 -1.41029 2.54085 0
M  V30 2644 H 232.766 -0.516089 2.52377 0
M  V30 2645 H 232.724 -2.21939 2.22689 0
M  V30 2646 N 236.496 -1.42363 0.676048 0
M  V30 2647 C 237.736 -2.03392 0.20273 0
M  V30 2648 C 238.1 -1.52306 -1.16906 0
M  V30 2649 O 239.301 -2.05129 -1.73711 0
M  V30 2650 C 237.572 -3.56614 0.236947 0
M  V30 2651 S 239.131 -4.38489 -0.165186 0
M  V30 2652 H 235.949 -0.70611 0.0832418 0
M  V30 2653 H 238.551 -1.74093 0.88948 0
M  V30 2654 H 237.255 -3.91293 1.23767 0
M  V30 2655 H 236.786 -3.90587 -0.469596 0
M  V30 2656 H 238.801 -4.76093 -1.39822 0
M  V30 2657 N 237.974 -0.419461 -1.51915 0
M  V30 2658 C 239.385 0.0477853 -1.86639 0
M  V30 2659 C 239.736 1.43531 -1.33766 0
M  V30 2660 O 238.861 2.05401 -0.68113 0
M  V30 2661 C 239.456 0.0934885 -3.38671 0
M  V30 2662 C 238.015 0.505097 -3.72996 0
M  V30 2663 C 237.162 -0.313792 -2.75519 0
M  V30 2664 H 240.113 -0.636088 -1.45395 0
M  V30 2665 H 240.134 0.906667 -3.6954 0
M  V30 2666 H 239.646 -0.916501 -3.77123 0
M  V30 2667 H 237.747 1.52135 -3.40126 0
M  V30 2668 H 237.86 0.242309 -4.78487 0
M  V30 2669 H 236.224 0.225363 -2.53701 0
M  V30 2670 H 237.007 -1.32232 -3.16812 0
M  V30 2671 N 239.452 1.56882 -0.150215 0
M  V30 2672 C 240.868 1.58263 0.20617 0
M  V30 2673 C 241.068 1.16464 1.64434 0
M  V30 2674 O 240.124 0.866422 2.3717 0
M  V30 2675 C 241.437 3.00649 -0.0555025 0
M  V30 2676 C 242.985 3.12999 0.00795388 0
M  V30 2677 C 243.46 4.5744 -0.226429 0
M  V30 2678 N 244.951 4.62875 -0.173469 0
M  V30 2679 C 245.686 5.72454 -0.329288 0
M  V30 2680 N 245.182 6.90669 -0.543005 0
M  V30 2681 N 246.975 5.61467 -0.266666 0
M  V30 2682 H 239.126 1.82345 -1.08922 0
M  V30 2683 H 241.389 0.844149 -0.431413 0
M  V30 2684 H 241.095 3.3563 -1.05096 0
M  V30 2685 H 240.969 3.71337 0.66246 0
M  V30 2686 H 243.356 2.77857 0.993966 0
M  V30 2687 H 243.437 2.4479 -0.742388 0
M  V30 2688 H 243.081 4.93287 -1.20956 0
M  V30 2689 H 243.011 5.2378 0.544274 0
M  V30 2690 H 245.502 3.77898 -0.0130709 0
M  V30 2691 H 245.815 7.70045 -0.651922 0
M  V30 2692 H 244.16 6.92581 -0.579366 0
M  V30 2693 H 247.351 4.67992 -0.100441 0
M  V30 2694 H 247.524 6.46816 -0.391535 0
M  V30 2695 N 240.93 -0.123565 1.57115 0
M  V30 2696 C 242.177 -0.832153 1.84612 0
M  V30 2697 C 242.505 -1.80093 0.734627 0
M  V30 2698 O 241.76 -1.93766 -0.27442 0
M  V30 2699 C 242.059 -1.62016 3.18568 0
M  V30 2700 C 241.725 -0.796084 4.43817 0
M  V30 2701 C 240.387 -0.568816 4.77826 0
M  V30 2702 C 242.739 -0.221364 5.2073 0
M  V30 2703 C 240.067 0.243499 5.86194 0
M  V30 2704 C 242.419 0.578117 6.29953 0
M  V30 2705 C 241.083 0.815744 6.62497 0
M  V30 2706 H 240.353 -0.304507 0.675542 0
M  V30 2707 H 243 -0.0947248 1.91266 0
M  V30 2708 H 241.305 -2.42837 3.0747 0
M  V30 2709 H 243.002 -2.17231 3.37064 0
M  V30 2710 H 239.592 -0.983307 4.17168 0
M  V30 2711 H 243.776 -0.384173 4.94811 0
M  V30 2712 H 239.032 0.436871 6.09837 0
M  V30 2713 H 243.206 1.03046 6.88734 0
M  V30 2714 H 240.833 1.44701 7.46301 0
M  V30 2715 N 242.408 -1.52605 -0.393616 0
M  V30 2716 C 243.34 -1.73303 -1.49995 0
M  V30 2717 C 244.353 -0.613473 -1.50799 0
M  V30 2718 O 245.542 -0.889049 -1.54784 0
M  V30 2719 C 242.642 -1.77245 -2.88855 0
M  V30 2720 C 241.815 -3.06483 -3.12069 0
M  V30 2721 C 240.874 -3.02033 -4.30886 0
M  V30 2722 O 239.9 -3.75907 -4.27414 0
M  V30 2723 N 241.102 -2.20897 -5.36828 0
M  V30 2724 H 243.867 -2.68756 -1.32629 0
M  V30 2725 H 241.428 -1.51036 -0.583083 0
M  V30 2726 H 243.42 -1.7178 -3.66434 0
M  V30 2727 H 241.99 -0.891993 -2.99603 0
M  V30 2728 H 241.21 -3.25474 -2.22396 0
M  V30 2729 H 242.498 -3.91947 -3.2443 0
M  V30 2730 H 241.896 -1.60336 -5.42502 0
M  V30 2731 H 240.453 -2.21275 -6.13091 0
M  V30 2732 N 243.887 0.651787 -1.4349 0
M  V30 2733 C 244.797 1.79368 -1.5121 0
M  V30 2734 C 245.813 1.69361 -0.399093 0
M  V30 2735 O 246.989 1.90505 -0.653431 0
M  V30 2736 C 244.054 3.15653 -1.43401 0
M  V30 2737 C 243.115 3.37446 -2.65384 0
M  V30 2738 C 242.348 4.67229 -2.57939 0
M  V30 2739 O 242.571 5.46676 -1.62792 0
M  V30 2740 O 241.505 4.90773 -3.48462 0
M  V30 2741 H 245.331 1.7581 -2.47638 0
M  V30 2742 H 242.916 0.810447 -1.25507 0
M  V30 2743 H 244.798 3.96935 -1.41494 0
M  V30 2744 H 243.473 3.19798 -0.501085 0
M  V30 2745 H 242.38 2.55923 -2.72863 0
M  V30 2746 H 243.713 3.38148 -3.57654 0
M  V30 2747 N 245.365 1.30045 0.890287 0
M  V30 2748 C 246.295 1.18541 2.01172 0
M  V30 2749 C 247.276 0.0773356 1.69924 0
M  V30 2750 O 248.461 0.25845 1.92473 0
M  V30 2751 C 245.591 0.870941 3.36202 0
M  V30 2752 C 244.545 1.93637 3.81692 0
M  V30 2753 C 243.871 1.475 5.13953 0
M  V30 2754 C 245.171 3.34666 4.00994 0
M  V30 2755 H 246.865 2.12359 2.11054 0
M  V30 2756 H 244.411 1.02238 1.01407 0
M  V30 2757 H 246.364 0.777141 4.14172 0
M  V30 2758 H 245.088 -0.102926 3.26438 0
M  V30 2759 H 243.747 2.01972 3.05946 0
M  V30 2760 H 243.395 0.489551 5.00612 0
M  V30 2761 H 243.095 2.1876 5.4536 0
M  V30 2762 H 244.619 1.39489 5.94454 0
M  V30 2763 H 246.033 3.2912 4.69417 0
M  V30 2764 H 244.43 4.03966 4.43769 0
M  V30 2765 H 245.5 3.76949 3.05021 0
M  V30 2766 N 246.843 -1.10192 1.12674 0
M  V30 2767 C 247.753 -2.20172 0.810026 0
M  V30 2768 C 248.769 -1.72821 -0.202188 0
M  V30 2769 O 249.945 -2.01369 -0.0351691 0
M  V30 2770 C 247.01 -3.45631 0.272007 0
M  V30 2771 C 246.071 -4.07704 1.34447 0
M  V30 2772 C 245.304 -5.27175 0.832029 0
M  V30 2773 O 245.527 -5.69425 -0.333284 0
M  V30 2774 O 244.461 -5.80168 1.60277 0
M  V30 2775 H 248.287 -2.49701 1.72867 0
M  V30 2776 H 245.872 -1.18977 0.903597 0
M  V30 2777 H 247.754 -4.21394 -0.0230219 0
M  V30 2778 H 246.429 -3.17723 -0.619164 0
M  V30 2779 H 245.336 -3.33614 1.6927 0
M  V30 2780 H 246.669 -4.3982 2.2095 0
M  V30 2781 N 248.321 -0.919034 -1.28029 0
M  V30 2782 C 249.546 -0.570357 -1.99403 0
M  V30 2783 C 249.971 0.842486 -1.68178 0
M  V30 2784 O 249.329 1.56391 -0.917141 0
M  V30 2785 C 249.377 -0.792541 -3.51783 0
M  V30 2786 O 248.481 0.145988 -4.12142 0
M  V30 2787 H 247.822 -0.220555 -0.6263 0
M  V30 2788 H 250.352 -1.23592 -1.63053 0
M  V30 2789 H 250.362 -0.704708 -4.01868 0
M  V30 2790 H 249.037 -1.82247 -3.73844 0
M  V30 2791 H 247.614 0.00897528 -3.72899 0
M  V30 2792 N 249.799 1.42003 -0.683588 0
M  V30 2793 C 250.709 2.34597 -0.0109075 0
M  V30 2794 C 251.725 1.55576 0.779245 0
M  V30 2795 O 252.901 1.88107 0.719555 0
M  V30 2796 C 249.966 3.34199 0.922588 0
M  V30 2797 C 249.027 4.29115 0.125984 0
M  V30 2798 C 248.26 5.23959 1.01502 0
M  V30 2799 O 248.483 5.23952 2.25456 0
M  V30 2800 O 247.417 6.00053 0.47111 0
M  V30 2801 H 251.243 2.93675 -0.773853 0
M  V30 2802 H 248.828 1.42654 -0.443861 0
M  V30 2803 H 250.71 3.95365 1.45823 0
M  V30 2804 H 249.385 2.77582 1.66523 0
M  V30 2805 H 248.292 3.71335 -0.453969 0
M  V30 2806 H 249.625 4.88798 -0.577736 0
M  V30 2807 N 251.277 0.427512 1.51691 0
M  V30 2808 C 252.505 -0.141191 2.06418 0
M  V30 2809 C 252.92 -1.37303 1.29589 0
M  V30 2810 O 252.277 -1.79059 0.352732 0
M  V30 2811 C 252.328 -0.473266 3.58389 0
M  V30 2812 O 252.049 0.709673 4.32314 0
M  V30 2813 C 253.55 -1.09371 4.29596 0
M  V30 2814 H 250.77 -0.0122747 0.670888 0
M  V30 2815 H 253.314 0.603764 1.95384 0
M  V30 2816 H 251.469 -1.16812 3.69369 0
M  V30 2817 H 251.883 0.42807 5.2275 0
M  V30 2818 H 253.357 -1.27613 5.37046 0
M  V30 2819 H 253.834 -2.072 3.87253 0
M  V30 2820 H 254.44 -0.43853 4.23033 0
M  V30 2821 N 252.755 -1.56801 0.158532 0
M  V30 2822 C 253.685 -2.20347 -0.772609 0
M  V30 2823 C 254.666 -1.15518 -1.24859 0
M  V30 2824 O 255.851 -1.43902 -1.30406 0
M  V30 2825 C 252.981 -2.83417 -2.00729 0
M  V30 2826 C 251.935 -3.94174 -1.66765 0
M  V30 2827 C 251.261 -4.44233 -2.97592 0
M  V30 2828 C 252.561 -5.14392 -0.905447 0
M  V30 2829 H 254.255 -2.98413 -0.242959 0
M  V30 2830 H 251.801 -1.43537 -0.115419 0
M  V30 2831 H 253.754 -3.26543 -2.6636 0
M  V30 2832 H 252.478 -2.02701 -2.56086 0
M  V30 2833 H 251.137 -3.51684 -1.03508 0
M  V30 2834 H 250.785 -3.60325 -3.50963 0
M  V30 2835 H 250.485 -5.18945 -2.75626 0
M  V30 2836 H 252.009 -4.90037 -3.64274 0
M  V30 2837 H 253.423 -5.5429 -1.46408 0
M  V30 2838 H 251.82 -5.9494 -0.7853 0
M  V30 2839 H 252.89 -4.84795 0.100668 0
M  V30 2840 N 254.233 0.115231 -1.57178 0
M  V30 2841 C 255.18 1.14115 -2.00615 0
M  V30 2842 C 256.15 1.40939 -0.878941 0
M  V30 2843 O 257.335 1.52741 -1.14345 0
M  V30 2844 C 254.475 2.46156 -2.4187 0
M  V30 2845 C 253.588 2.26236 -3.68024 0
M  V30 2846 C 252.723 3.51534 -3.98243 0
M  V30 2847 C 251.762 3.26787 -5.17568 0
M  V30 2848 N 250.899 4.44298 -5.43639 0
M  V30 2849 H 255.739 0.763743 -2.88047 0
M  V30 2850 H 253.276 0.365615 -1.42484 0
M  V30 2851 H 255.234 3.23189 -2.63827 0
M  V30 2852 H 253.864 2.81783 -1.57475 0
M  V30 2853 H 252.916 1.40102 -3.5366 0
M  V30 2854 H 254.228 2.03929 -4.55208 0
M  V30 2855 H 253.382 4.36984 -4.20868 0
M  V30 2856 H 252.121 3.76876 -3.09541 0
M  V30 2857 H 251.126 2.39729 -4.94783 0
M  V30 2858 H 252.351 3.02812 -6.0785 0
M  V30 2859 H 250.297 4.69754 -4.57895 0
M  V30 2860 H 250.214 4.25109 -6.25154 0
M  V30 2861 H 251.482 5.3087 -5.70786 0
M  V30 2862 N 255.711 1.52812 0.385517 0
M  V30 2863 C 256.936 1.72207 1.15583 0
M  V30 2864 C 257.361 0.441034 1.82857 0
M  V30 2865 O 256.719 -0.603465 1.70962 0
M  V30 2866 C 256.767 2.87476 2.17692 0
M  V30 2867 O 255.871 2.54693 3.24354 0
M  V30 2868 H 255.212 0.572526 0.336319 0
M  V30 2869 H 257.742 1.99618 0.448744 0
M  V30 2870 H 257.752 3.13072 2.6163 0
M  V30 2871 H 256.427 3.80408 1.68115 0
M  V30 2872 H 255.004 2.3985 2.85529 0
M  V30 2873 N 257.189 -0.644168 1.43834 0
M  V30 2874 C 258.099 -1.78563 1.52159 0
M  V30 2875 C 259.115 -1.69147 0.408069 0
M  V30 2876 O 260.291 -1.90156 0.663524 0
M  V30 2877 C 257.356 -3.14888 1.45073 0
M  V30 2878 C 256.417 -3.36034 2.6717 0
M  V30 2879 C 255.65 -4.65855 2.60413 0
M  V30 2880 O 255.873 -5.45805 1.65689 0
M  V30 2881 O 254.807 -4.88918 3.5106 0
M  V30 2882 H 258.633 -1.74494 2.48567 0
M  V30 2883 H 256.218 -0.80378 1.25935 0
M  V30 2884 H 258.1 -3.96179 1.43597 0
M  V30 2885 H 256.775 -3.19528 0.518037 0
M  V30 2886 H 255.682 -2.54472 2.74217 0
M  V30 2887 H 257.015 -3.36247 3.59442 0
M  V30 2888 N 258.668 -1.30515 -0.883378 0
M  V30 2889 C 259.578 -1.18959 -2.02203 0
M  V30 2890 C 260.594 -0.109172 -1.73657 0
M  V30 2891 O 261.77 -0.324413 -1.9877 0
M  V30 2892 C 258.835 -0.883871 -3.35244 0
M  V30 2893 C 257.896 -2.04982 -3.77201 0
M  V30 2894 C 257.129 -1.75859 -5.03894 0
M  V30 2895 O 257.352 -0.687276 -5.66244 0
M  V30 2896 O 256.286 -2.61146 -5.42297 0
M  V30 2897 H 260.112 -2.14616 -2.1488 0
M  V30 2898 H 257.697 -1.10124 -1.0096 0
M  V30 2899 H 259.579 -0.728644 -4.15053 0
M  V30 2900 H 258.254 0.0427798 -3.23672 0
M  V30 2901 H 257.161 -2.26038 -2.9809 0
M  V30 2902 H 258.494 -2.95825 -3.93381 0
M  V30 2903 N 260.146 1.09593 -1.13257 0
M  V30 2904 C 261.393 1.81734 -0.893257 0
M  V30 2905 C 261.721 1.8563 0.580656 0
M  V30 2906 O 260.976 1.31906 1.44566 0
M  V30 2907 C 261.275 3.27802 -1.42411 0
M  V30 2908 C 260.941 3.44041 -2.91456 0
M  V30 2909 C 259.603 3.48181 -3.3215 0
M  V30 2910 C 261.955 3.48719 -3.87356 0
M  V30 2911 C 259.283 3.54575 -4.67433 0
M  V30 2912 C 261.635 3.56648 -5.2248 0
M  V30 2913 C 260.299 3.59055 -5.62704 0
M  V30 2914 H 259.569 0.665011 -0.326866 0
M  V30 2915 H 262.216 1.2912 -1.41422 0
M  V30 2916 H 260.521 3.83042 -0.823795 0
M  V30 2917 H 262.218 3.82149 -1.21503 0
M  V30 2918 H 258.808 3.41502 -2.58987 0
M  V30 2919 H 262.992 3.44763 -3.57004 0
M  V30 2920 H 258.248 3.54725 -4.97976 0
M  V30 2921 H 262.422 3.59212 -5.96607 0
M  V30 2922 H 260.049 3.63763 -6.67518 0
M  V30 2923 N 261.624 0.925811 1.2754 0
M  V30 2924 C 262.556 0.380753 2.26015 0
M  V30 2925 C 263.569 -0.487485 1.5533 0
M  V30 2926 O 264.758 -0.300413 1.75954 0
M  V30 2927 C 261.858 -0.473259 3.35579 0
M  V30 2928 C 261.031 0.375249 4.35787 0
M  V30 2929 C 260.09 -0.415809 5.24555 0
M  V30 2930 O 259.116 0.175834 5.68928 0
M  V30 2931 N 260.318 -1.71607 5.54555 0
M  V30 2932 H 263.083 1.22725 2.73421 0
M  V30 2933 H 260.644 0.793037 1.41147 0
M  V30 2934 H 262.636 -1.00949 3.91907 0
M  V30 2935 H 261.206 -1.2205 2.87789 0
M  V30 2936 H 260.426 1.09279 3.7875 0
M  V30 2937 H 261.714 0.955399 4.99749 0
M  V30 2938 H 261.112 -2.2191 5.20358 0
M  V30 2939 H 259.669 -2.19887 6.1359 0
M  V30 2940 N 263.102 -1.41638 0.69111 0
M  V30 2941 C 264.049 -2.30789 0.0229705 0
M  V30 2942 C 265.019 -1.46863 -0.775911 0
M  V30 2943 O 266.204 -1.75661 -0.74485 0
M  V30 2944 C 263.344 -3.32868 -0.910666 0
M  V30 2945 C 262.457 -4.31875 -0.103874 0
M  V30 2946 C 261.592 -5.21024 -1.03475 0
M  V30 2947 C 260.631 -6.11702 -0.220598 0
M  V30 2948 N 259.768 -6.93349 -1.10504 0
M  V30 2949 H 264.608 -2.87366 0.788978 0
M  V30 2950 H 262.145 -1.41535 0.400794 0
M  V30 2951 H 264.103 -3.90596 -1.46597 0
M  V30 2952 H 262.733 -2.77851 -1.64312 0
M  V30 2953 H 261.785 -3.76131 0.568285 0
M  V30 2954 H 263.097 -4.96003 0.527504 0
M  V30 2955 H 262.251 -5.83565 -1.65943 0
M  V30 2956 H 260.99 -4.57112 -1.69999 0
M  V30 2957 H 259.995 -5.48215 0.417187 0
M  V30 2958 H 261.22 -6.77668 0.440784 0
M  V30 2959 H 259.166 -6.3205 -1.75638 0
M  V30 2960 H 259.083 -7.54146 -0.529125 0
M  V30 2961 H 260.351 -7.60362 -1.71667 0
M  V30 2962 N 264.58 -0.43555 -1.51462 0
M  V30 2963 C 265.996 -0.0877501 -1.59359 0
M  V30 2964 C 266.196 1.4027 -1.4466 0
M  V30 2965 O 265.252 2.17243 -1.28693 0
M  V30 2966 C 266.565 -0.606264 -2.94525 0
M  V30 2967 C 268.113 -0.566548 -3.0783 0
M  V30 2968 C 268.588 -1.06201 -4.45517 0
M  V30 2969 N 270.079 -1.01992 -4.51832 0
M  V30 2970 C 270.814 -1.37417 -5.5669 0
M  V30 2971 N 270.31 -1.80119 -6.68976 0
M  V30 2972 N 272.103 -1.29245 -5.47039 0
M  V30 2973 H 264.254 -1.40533 -1.59261 0
M  V30 2974 H 266.517 -0.578992 -0.750648 0
M  V30 2975 H 266.223 -1.64901 -3.10645 0
M  V30 2976 H 266.097 -0.0302097 -3.77188 0
M  V30 2977 H 268.484 0.467208 -2.91378 0
M  V30 2978 H 268.565 -1.17898 -2.2701 0
M  V30 2979 H 268.209 -2.09422 -4.62715 0
M  V30 2980 H 268.139 -0.426127 -5.24873 0
M  V30 2981 H 270.63 -0.706308 -3.71241 0
M  V30 2982 H 270.943 -2.05392 -7.45006 0
M  V30 2983 H 269.288 -1.84044 -6.70189 0
M  V30 2984 H 272.479 -0.957522 -4.58202 0
M  V30 2985 H 272.652 -1.57182 -6.28648 0
M  V30 2986 N 266.058 1.56714 -0.166846 0
M  V30 2987 C 266.988 2.20754 0.760913 0
M  V30 2988 C 267.969 1.16178 1.24244 0
M  V30 2989 O 269.154 1.44592 1.29641 0
M  V30 2990 C 266.284 2.84478 1.99223 0
M  V30 2991 C 265.238 3.95053 1.64672 0
M  V30 2992 C 264.564 4.45805 2.95232 0
M  V30 2993 C 265.864 5.14865 0.878155 0
M  V30 2994 H 267.558 2.98537 0.22713 0
M  V30 2995 H 265.104 1.43596 0.107805 0
M  V30 2996 H 267.057 3.27951 2.64624 0
M  V30 2997 H 265.781 2.04056 2.55007 0
M  V30 2998 H 264.44 3.52228 1.01641 0
M  V30 2999 H 264.088 3.62181 3.49047 0
M  V30 3000 H 263.788 5.204 2.7287 0
M  V30 3001 H 265.312 4.91962 3.6167 0
M  V30 3002 H 266.726 5.55059 1.43466 0
M  V30 3003 H 265.123 5.95348 0.753738 0
M  V30 3004 H 266.193 4.84735 -0.126377 0
M  V30 3005 N 267.536 -0.106894 1.57237 0
M  V30 3006 C 268.486 -1.1366 1.9765 0
M  V30 3007 C 269.47 -1.36416 0.853203 0
M  V30 3008 O 270.662 -1.37305 1.11697 0
M  V30 3009 C 267.791 -2.46 2.39455 0
M  V30 3010 C 266.877 -2.26668 3.58445 0
M  V30 3011 N 267.268 -1.77176 4.73754 0
M  V30 3012 C 265.566 -2.57279 3.64312 0
M  V30 3013 C 266.267 -1.71836 5.5574 0
M  V30 3014 N 265.243 -2.16623 4.98573 0
M  V30 3015 H 269.045 -0.74669 2.84256 0
M  V30 3016 H 266.559 -0.314483 1.59326 0
M  V30 3017 H 268.556 -3.2049 2.6663 0
M  V30 3018 H 267.216 -2.85738 1.54219 0
M  V30 3019 H 268.227 -1.46545 4.96734 0
M  V30 3020 H 264.904 -3.00622 2.89711 0
M  V30 3021 H 266.294 -1.34723 6.58255 0
M  V30 3022 N 269.014 -1.53014 -0.377408 0
M  V30 3023 C 270.425 -1.60438 -0.954798 0
M  V30 3024 C 270.776 -0.464418 -1.90624 0
M  V30 3025 O 269.901 0.41087 -2.12464 0
M  V30 3026 C 270.496 -2.90797 -1.73847 0
M  V30 3027 C 269.055 -3.00595 -2.26538 0
M  V30 3028 C 268.202 -2.55645 -1.07429 0
M  V30 3029 H 271.153 -1.57926 -0.156575 0
M  V30 3030 H 271.174 -2.77935 -2.5987 0
M  V30 3031 H 270.686 -3.73746 -1.04574 0
M  V30 3032 H 268.787 -2.22208 -2.99089 0
M  V30 3033 H 268.9 -4.05456 -2.5523 0
M  V30 3034 H 267.264 -2.10239 -1.43777 0
M  V30 3035 H 268.047 -3.41 -0.396728 0
M  V30 3036 N 270.492 0.636531 -1.44174 0
M  V30 3037 C 271.722 1.42146 -1.49927 0
M  V30 3038 C 272.13 1.88812 -0.121063 0
M  V30 3039 O 271.473 1.61126 0.882267 0
M  V30 3040 C 271.535 2.67883 -2.39748 0
M  V30 3041 C 271.199 2.43048 -3.8701 0
M  V30 3042 C 272.196 2.05216 -4.77684 0
M  V30 3043 C 269.881 2.56856 -4.3166 0
M  V30 3044 C 271.875 1.81512 -6.11009 0
M  V30 3045 C 269.562 2.32766 -5.65034 0
M  V30 3046 C 270.56 1.95152 -6.54526 0
M  V30 3047 O 270.248 1.71326 -7.85431 0
M  V30 3048 H 269.98 0.442567 -0.51099 0
M  V30 3049 H 272.534 0.786158 -1.8976 0
M  V30 3050 H 270.764 3.34032 -1.94832 0
M  V30 3051 H 272.453 3.29874 -2.36513 0
M  V30 3052 H 273.219 1.94111 -4.44462 0
M  V30 3053 H 269.098 2.85104 -3.62266 0
M  V30 3054 H 272.642 1.52077 -6.80822 0
M  V30 3055 H 268.539 2.43479 -5.97819 0
M  V30 3056 H 269.307 1.85616 -7.97176 0
M  V30 3057 N 271.97 1.30982 0.876444 0
M  V30 3058 C 272.917 1.18085 1.98304 0
M  V30 3059 C 273.887 0.0682263 1.6596 0
M  V30 3060 O 275.072 0.239937 1.89285 0
M  V30 3061 C 272.212 0.887475 3.33493 0
M  V30 3062 C 271.325 2.08281 3.78475 0
M  V30 3063 C 270.46 1.72678 5.0235 0
M  V30 3064 C 269.499 2.88657 5.39762 0
M  V30 3065 N 268.636 2.53292 6.54819 0
M  V30 3066 H 273.476 2.1275 2.08666 0
M  V30 3067 H 271.013 1.05839 1.02159 0
M  V30 3068 H 272.971 0.697961 4.1132 0
M  V30 3069 H 271.601 -0.022315 3.22792 0
M  V30 3070 H 270.653 2.3833 2.96484 0
M  V30 3071 H 271.965 2.95108 4.02135 0
M  V30 3072 H 271.119 1.50151 5.87826 0
M  V30 3073 H 269.858 0.830327 4.8058 0
M  V30 3074 H 268.863 3.1184 4.52809 0
M  V30 3075 H 270.088 3.79002 5.63502 0
M  V30 3076 H 268.034 1.66163 6.34607 0
M  V30 3077 H 267.951 3.3365 6.7839 0
M  V30 3078 H 269.219 2.34143 7.43503 0
M  V30 3079 N 273.449 -1.08991 1.13837 0
M  V30 3080 C 274.726 -1.77863 0.813876 0
M  V30 3081 C 275.106 -1.99375 -0.693746 0
M  V30 3082 O 274.454 -1.59875 -1.63255 0
M  V30 3083 C 274.664 -3.0986 1.60586 0
M  V30 3084 C 276.012 -3.84493 1.8014 0
M  V30 3085 O 277.036 -3.19624 1.57222 0
M  V30 3086 O 275.895 -5.00957 2.18413 0
M  V30 3087 H 272.989 -0.771589 0.297624 0
M  V30 3088 H 275.535 -1.15507 1.24323 0
M  V30 3089 H 274.307 -2.89715 2.63022 0
M  V30 3090 H 273.93 -3.79942 1.17173 0
M  V30 3091 N 274.927 -0.932562 -1.27047 0
M  V30 3092 C 276.174 -0.575559 -1.94148 0
M  V30 3093 C 276.502 0.883984 -1.73251 0
M  V30 3094 O 275.757 1.64655 -1.0577 0
M  V30 3095 C 276.056 -0.853713 -3.47054 0
M  V30 3096 C 275.722 -2.29577 -3.88079 0
M  V30 3097 C 274.384 -2.68999 -3.9899 0
M  V30 3098 C 276.736 -3.23331 -4.08787 0
M  V30 3099 C 274.064 -4.01289 -4.28 0
M  V30 3100 C 276.416 -4.55207 -4.39282 0
M  V30 3101 C 275.08 -4.94457 -4.48407 0
M  V30 3102 H 274.35 -0.210612 -0.710439 0
M  V30 3103 H 276.997 -1.17744 -1.51025 0
M  V30 3104 H 275.302 -0.169204 -3.91434 0
M  V30 3105 H 276.999 -0.55639 -3.97121 0
M  V30 3106 H 273.589 -1.97994 -3.80127 0
M  V30 3107 H 277.773 -2.94074 -3.99793 0
M  V30 3108 H 273.029 -4.31374 -4.33275 0
M  V30 3109 H 277.203 -5.27852 -4.54252 0
M  V30 3110 H 274.83 -5.96994 -4.7064 0
M  V30 3111 N 276.405 1.4127 -0.698611 0
M  V30 3112 C 277.654 2.00408 -0.227949 0
M  V30 3113 C 277.967 1.55981 1.18023 0
M  V30 3114 O 279.173 2.07699 1.74852 0
M  V30 3115 C 277.629 3.58129 -0.356636 0
M  V30 3116 C 277.237 4.11536 -1.77037 0
M  V30 3117 C 278.981 4.24466 0.0540969 0
M  V30 3118 C 276.888 5.61701 -1.85055 0
M  V30 3119 H 275.818 0.749586 -0.0814657 0
M  V30 3120 H 278.469 1.61713 -0.867249 0
M  V30 3121 H 276.851 3.94442 0.350965 0
M  V30 3122 H 278.025 3.86636 -2.50698 0
M  V30 3123 H 276.34 3.57736 -2.13105 0
M  V30 3124 H 278.937 5.34698 0.0146723 0
M  V30 3125 H 279.28 4.01687 1.09332 0
M  V30 3126 H 279.813 3.93198 -0.603337 0
M  V30 3127 H 276.552 5.89312 -2.8704 0
M  V30 3128 H 276.072 5.88519 -1.15783 0
M  V30 3129 H 277.751 6.26524 -1.61484 0
M  V30 3130 N 277.883 0.443576 1.51229 0
M  V30 3131 C 278.846 -0.353132 2.26463 0
M  V30 3132 C 279.846 -0.944338 1.3015 0
M  V30 3133 O 281.036 -0.817813 1.5381 0
M  V30 3134 C 278.168 -1.50023 3.06114 0
M  V30 3135 H 279.361 0.3063 2.98332 0
M  V30 3136 H 276.914 0.196902 1.55055 0
M  V30 3137 H 277.649 -2.19553 2.38677 0
M  V30 3138 H 277.434 -1.08241 3.76864 0
M  V30 3139 H 278.924 -2.06296 3.63087 0
M  V30 3140 N 279.361 -1.56624 0.175154 0
M  V30 3141 C 280.589 -2.01374 -0.474971 0
M  V30 3142 C 281.004 -1.05537 -1.56548 0
M  V30 3143 O 280.361 -0.0568668 -1.82411 0
M  V30 3144 C 280.412 -3.45923 -1.04975 0
M  V30 3145 O 280.133 -4.381 -0.00276605 0
M  V30 3146 C 281.634 -4.06093 -1.77773 0
M  V30 3147 H 278.854 -0.659962 -0.121206 0
M  V30 3148 H 281.398 -2.02601 0.27801 0
M  V30 3149 H 279.553 -3.45458 -1.75321 0
M  V30 3150 H 279.967 -5.22753 -0.427681 0
M  V30 3151 H 281.441 -5.09147 -2.13245 0
M  V30 3152 H 281.918 -3.48405 -2.67414 0
M  V30 3153 H 282.524 -4.10272 -1.12059 0
M  V30 3154 N 280.839 0.0985539 -1.57292 0
M  V30 3155 C 281.769 1.12064 -2.04851 0
M  V30 3156 C 282.75 1.41981 -0.936767 0
M  V30 3157 O 283.935 1.52071 -1.20781 0
M  V30 3158 C 281.065 2.44144 -2.47004 0
M  V30 3159 C 280.019 2.28643 -3.6181 0
M  V30 3160 C 279.345 3.65869 -3.89929 0
M  V30 3161 C 280.645 1.72986 -4.92822 0
M  V30 3162 H 282.339 0.724979 -2.9049 0
M  V30 3163 H 279.885 0.34729 -1.39749 0
M  V30 3164 H 281.838 3.15914 -2.78884 0
M  V30 3165 H 280.562 2.85639 -1.5836 0
M  V30 3166 H 279.221 1.59318 -3.30172 0
M  V30 3167 H 278.869 4.04885 -2.98458 0
M  V30 3168 H 278.569 3.56344 -4.67218 0
M  V30 3169 H 280.093 4.39112 -4.2428 0
M  V30 3170 H 281.507 2.34593 -5.23105 0
M  V30 3171 H 279.904 1.74229 -5.74251 0
M  V30 3172 H 280.974 0.689007 -4.7998 0
M  V30 3173 N 282.317 1.53212 0.369288 0
M  V30 3174 C 283.565 1.68881 1.11012 0
M  V30 3175 C 283.886 0.441285 1.89941 0
M  V30 3176 O 283.156 -0.544623 1.88177 0
M  V30 3177 H 281.736 0.622569 0.412816 0
M  V30 3178 H 284.398 1.90391 0.416802 0
M  V30 3179 H 283.494 2.54822 1.80201 0
M  V30 3180 N 283.795 -0.628877 1.44509 0
M  V30 3181 C 284.742 -1.74074 1.51549 0
M  V30 3182 C 285.712 -1.62084 0.363021 0
M  V30 3183 O 286.897 -1.81975 0.573567 0
M  V30 3184 C 284.037 -3.12328 1.46784 0
M  V30 3185 C 283.15 -3.35277 2.72422 0
M  V30 3186 C 282.285 -4.63515 2.59475 0
M  V30 3187 C 281.324 -4.7965 3.80266 0
M  V30 3188 N 280.461 -5.99168 3.65981 0
M  V30 3189 H 285.301 -1.67392 2.46544 0
M  V30 3190 H 282.838 -0.816527 1.22357 0
M  V30 3191 H 284.796 -3.92286 1.42012 0
M  V30 3192 H 283.426 -3.18018 0.553544 0
M  V30 3193 H 282.478 -2.49242 2.87372 0
M  V30 3194 H 283.79 -3.43078 3.62076 0
M  V30 3195 H 282.944 -5.51638 2.52548 0
M  V30 3196 H 281.683 -4.58076 1.67384 0
M  V30 3197 H 280.688 -3.89957 3.87574 0
M  V30 3198 H 281.913 -4.86902 4.73395 0
M  V30 3199 H 279.859 -5.94814 2.76644 0
M  V30 3200 H 279.776 -6.08035 4.49254 0
M  V30 3201 H 281.044 -6.89846 3.6295 0
M  V30 3202 N 285.273 -1.31445 -0.869486 0
M  V30 3203 C 286.203 -1.21727 -1.99261 0
M  V30 3204 C 287.184 -0.104359 -1.6978 0
M  V30 3205 O 288.369 -0.289038 -1.92037 0
M  V30 3206 C 285.499 -0.924317 -3.34774 0
M  V30 3207 C 284.453 -1.99685 -3.78563 0
M  V30 3208 C 283.779 -1.55658 -5.11541 0
M  V30 3209 C 285.079 -3.41003 -3.95619 0
M  V30 3210 H 286.773 -2.1569 -2.07649 0
M  V30 3211 H 284.319 -1.03839 -0.997675 0
M  V30 3212 H 286.272 -0.842934 -4.12883 0
M  V30 3213 H 284.996 0.0509793 -3.2656 0
M  V30 3214 H 283.655 -2.06813 -3.02694 0
M  V30 3215 H 283.303 -0.569132 -4.9977 0
M  V30 3216 H 283.003 -2.27409 -5.41811 0
M  V30 3217 H 284.527 -1.48928 -5.92159 0
M  V30 3218 H 285.941 -3.36547 -4.64122 0
M  V30 3219 H 284.338 -4.10975 -4.37286 0
M  V30 3220 H 285.408 -3.81754 -2.98985 0
M  V30 3221 N 286.751 1.08385 -1.14413 0
M  V30 3222 C 287.976 1.85057 -0.936413 0
M  V30 3223 C 288.401 1.81055 0.509971 0
M  V30 3224 O 287.759 1.1958 1.36273 0
M  V30 3225 C 287.807 3.30505 -1.44217 0
M  V30 3226 O 286.911 4.07491 -0.634409 0
M  V30 3227 H 286.252 0.573425 -0.334784 0
M  V30 3228 H 288.782 1.36799 -1.52142 0
M  V30 3229 H 288.792 3.81348 -1.45043 0
M  V30 3230 H 287.467 3.32734 -2.49522 0
M  V30 3231 H 286.044 3.66368 -0.694902 0
M  V30 3232 N 288.23 0.939286 1.26551 0
M  V30 3233 C 289.478 0.58469 1.93457 0
M  V30 3234 C 289.799 -0.878774 1.74076 0
M  V30 3235 O 289.069 -1.62421 1.09528 0
M  V30 3236 H 287.649 0.21325 0.715914 0
M  V30 3237 H 290.311 1.1942 1.54029 0
M  V30 3238 H 289.407 0.800849 3.0165 0
M  V30 3239 N 289.708 -1.40897 0.706093 0
M  V30 3240 C 290.638 -2.33418 0.0620085 0
M  V30 3241 C 291.619 -1.52385 -0.755827 0
M  V30 3242 O 292.804 -1.80886 -0.706674 0
M  V30 3243 C 289.934 -3.36293 -0.867445 0
M  V30 3244 C 288.888 -4.27716 -0.155932 0
M  V30 3245 C 288.214 -5.2105 -1.20046 0
M  V30 3246 C 289.514 -5.12944 0.984149 0
M  V30 3247 H 291.208 -2.87527 0.83477 0
M  V30 3248 H 288.754 -1.38249 0.402875 0
M  V30 3249 H 290.707 -3.99949 -1.32735 0
M  V30 3250 H 289.431 -2.80556 -1.67199 0
M  V30 3251 H 288.09 -3.65498 0.284047 0
M  V30 3252 H 287.738 -4.61624 -1.99781 0
M  V30 3253 H 287.438 -5.83056 -0.729328 0
M  V30 3254 H 288.962 -5.87584 -1.66066 0
M  V30 3255 H 290.376 -5.70109 0.604048 0
M  V30 3256 H 288.773 -5.83945 1.38304 0
M  V30 3257 H 289.843 -4.49485 1.81911 0
M  V30 3258 N 291.186 -0.45159 -1.50991 0
M  V30 3259 C 292.136 0.370861 -2.24964 0
M  V30 3260 C 293.12 0.978074 -1.2776 0
M  V30 3261 O 294.312 0.893854 -1.52772 0
M  V30 3262 C 291.441 1.46344 -3.10545 0
M  V30 3263 C 290.527 0.864924 -4.15187 0
M  V30 3264 N 290.918 -0.00311354 -5.058 0
M  V30 3265 C 289.216 1.13099 -4.31422 0
M  V30 3266 C 289.917 -0.340772 -5.80701 0
M  V30 3267 N 288.893 0.279203 -5.42883 0
M  V30 3268 H 292.695 -0.298134 -2.92384 0
M  V30 3269 H 290.209 -0.264528 -1.60231 0
M  V30 3270 H 292.206 2.06565 -3.62128 0
M  V30 3271 H 290.866 2.13463 -2.4467 0
M  V30 3272 H 291.877 -0.37058 -5.16572 0
M  V30 3273 H 288.554 1.79861 -3.76771 0
M  V30 3274 H 289.944 -1.048 -6.63677 0
M  V30 3275 N 292.664 1.56529 -0.183458 0
M  V30 3276 C 293.912 1.96855 0.457452 0
M  V30 3277 C 294.233 1.07104 1.62953 0
M  V30 3278 O 293.503 0.139887 1.954 0
M  V30 3279 H 292.083 0.72693 0.171992 0
M  V30 3280 H 294.745 1.93056 -0.267476 0
M  V30 3281 H 293.841 3.01423 0.809368 0
M  V30 3282 N 294.142 -0.090211 1.57342 0
M  V30 3283 C 295.074 -1.13541 1.99101 0
M  V30 3284 C 296.087 -1.3604 0.894258 0
M  V30 3285 O 297.276 -1.34606 1.17233 0
M  V30 3286 C 294.376 -2.49001 2.29895 0
M  V30 3287 C 293.549 -2.46712 3.61182 0
M  V30 3288 C 292.608 -3.64136 3.79857 0
M  V30 3289 O 291.634 -3.46405 4.51655 0
M  V30 3290 N 292.836 -4.83802 3.20806 0
M  V30 3291 H 295.601 -0.779942 2.89373 0
M  V30 3292 H 293.162 -0.279125 1.59476 0
M  V30 3293 H 295.154 -3.26166 2.39578 0
M  V30 3294 H 293.724 -2.76619 1.45605 0
M  V30 3295 H 292.944 -1.55058 3.62423 0
M  V30 3296 H 294.232 -2.42265 4.4742 0
M  V30 3297 H 293.63 -5.01112 2.62494 0
M  V30 3298 H 292.187 -5.58543 3.35966 0
M  V30 3299 N 295.62 -1.53406 -0.361157 0
M  V30 3300 C 296.897 -1.60411 -1.11927 0
M  V30 3301 C 297.277 -0.414385 -2.06993 0
M  V30 3302 O 296.625 0.594976 -2.20618 0
M  V30 3303 C 296.835 -2.95652 -1.85448 0
M  V30 3304 C 298.183 -3.50386 -2.39823 0
M  V30 3305 O 299.207 -2.97711 -1.95568 0
M  V30 3306 O 298.066 -4.42482 -3.20737 0
M  V30 3307 H 295.16 -0.64811 -0.513695 0
M  V30 3308 H 297.706 -1.65749 -0.364065 0
M  V30 3309 H 296.478 -3.73682 -1.16091 0
M  V30 3310 H 296.101 -2.93825 -2.67866 0
M  V30 3311 N 297.098 0.621204 -1.44841 0
M  V30 3312 C 298.028 1.74366 -1.55303 0
M  V30 3313 C 299.009 1.65199 -0.405385 0
M  V30 3314 O 300.194 1.83807 -0.626787 0
M  V30 3315 C 297.324 3.12931 -1.50637 0
M  V30 3316 C 296.278 3.36896 -2.63979 0
M  V30 3317 C 295.604 4.75594 -2.44366 0
M  V30 3318 C 296.904 3.28483 -4.06074 0
M  V30 3319 H 298.598 1.65867 -2.49256 0
M  V30 3320 H 296.144 0.796558 -1.19962 0
M  V30 3321 H 298.097 3.9124 -1.56555 0
M  V30 3322 H 296.821 3.22237 -0.532057 0
M  V30 3323 H 295.48 2.60972 -2.57467 0
M  V30 3324 H 295.128 4.81616 -1.45105 0
M  V30 3325 H 294.828 4.92586 -3.20364 0
M  V30 3326 H 296.352 5.5612 -2.52117 0
M  V30 3327 H 297.766 3.96684 -4.13902 0
M  V30 3328 H 296.163 3.57008 -4.82354 0
M  V30 3329 H 297.233 2.26133 -4.28943 0
M  V30 3330 N 298.576 1.31904 0.862503 0
M  V30 3331 C 299.823 1.22017 1.61611 0
M  V30 3332 C 300.151 -0.21991 1.93253 0
M  V30 3333 O 299.406 -1.17076 1.56817 0
M  V30 3334 C 299.705 2.01713 2.95037 0
M  V30 3335 C 299.371 3.51145 2.82857 0
M  V30 3336 C 298.033 3.91889 2.79243 0
M  V30 3337 C 300.385 4.46204 2.69353 0
M  V30 3338 C 297.713 5.25947 2.59993 0
M  V30 3339 C 300.065 5.80397 2.5164 0
M  V30 3340 C 298.729 6.20352 2.46413 0
M  V30 3341 H 297.999 0.44649 0.591378 0
M  V30 3342 H 300.646 1.63248 1.00111 0
M  V30 3343 H 298.951 1.53185 3.60613 0
M  V30 3344 H 300.648 1.91437 3.52353 0
M  V30 3345 H 297.238 3.1878 2.86491 0
M  V30 3346 H 301.422 4.15652 2.71196 0
M  V30 3347 H 296.678 5.5597 2.54376 0
M  V30 3348 H 300.852 6.53676 2.40169 0
M  V30 3349 H 298.479 7.24172 2.31256 0
M  V30 3350 N 300.054 -1.07777 1.14986 0
M  V30 3351 C 301.302 -1.79934 0.920235 0
M  V30 3352 C 301.623 -1.86955 -0.554336 0
M  V30 3353 O 300.893 -1.36731 -1.40291 0
M  V30 3354 H 299.473 -0.666424 0.337473 0
M  V30 3355 H 302.135 -1.3027 1.44968 0
M  V30 3356 H 301.231 -2.82539 1.32583 0
M  V30 3357 N 301.532 -0.945985 -1.26051 0
M  V30 3358 C 302.781 -0.591836 -1.92822 0
M  V30 3359 C 303.094 0.873956 -1.7499 0
M  V30 3360 O 304.3 1.33769 -2.36259 0
M  V30 3361 C 302.756 -1.00776 -3.45503 0
M  V30 3362 C 302.364 -2.4955 -3.7206 0
M  V30 3363 C 304.108 -0.725735 -4.1825 0
M  V30 3364 C 302.015 -2.84988 -5.18205 0
M  V30 3365 H 300.945 -0.217635 -0.721908 0
M  V30 3366 H 303.596 -1.14927 -1.43052 0
M  V30 3367 H 301.978 -0.378812 -3.94184 0
M  V30 3368 H 303.152 -3.1739 -3.34066 0
M  V30 3369 H 301.467 -2.75133 -3.12555 0
M  V30 3370 H 304.064 -0.966771 -5.25887 0
M  V30 3371 H 304.407 0.337639 -4.14929 0
M  V30 3372 H 304.94 -1.31463 -3.7545 0
M  V30 3373 H 301.679 -3.90307 -5.26631 0
M  V30 3374 H 301.199 -2.21813 -5.57278 0
M  V30 3375 H 302.878 -2.73712 -5.86252 0
M  V30 3376 N 303.011 1.40521 -0.713556 0
M  V30 3377 C 304.257 2.01714 -0.261382 0
M  V30 3378 C 304.612 1.55562 1.13217 0
M  V30 3379 O 303.905 0.764893 1.7567 0
M  V30 3380 C 304.099 3.56317 -0.278 0
M  V30 3381 C 303.928 4.17476 -1.67163 0
M  V30 3382 C 302.698 4.50998 -2.2788 0
M  V30 3383 C 304.896 4.42472 -2.6215 0
M  V30 3384 N 302.878 4.9754 -3.5962 0
M  V30 3385 C 304.249 4.90985 -3.78594 0
M  V30 3386 C 306.304 4.24508 -2.60188 0
M  V30 3387 C 305.007 5.2342 -4.9338 0
M  V30 3388 C 307.033 4.58043 -3.741 0
M  V30 3389 C 306.395 5.06743 -4.89276 0
M  V30 3390 H 302.494 0.769104 -0.141434 0
M  V30 3391 H 305.078 1.70785 -0.934915 0
M  V30 3392 H 303.249 3.8668 0.36509 0
M  V30 3393 H 304.981 4.0425 0.190695 0
M  V30 3394 H 301.736 4.38062 -1.79997 0
M  V30 3395 H 302.16 5.25196 -4.27198 0
M  V30 3396 H 306.802 3.86078 -1.72348 0
M  V30 3397 H 304.52 5.60765 -5.81866 0
M  V30 3398 H 308.106 4.45785 -3.73854 0
M  V30 3399 H 306.986 5.32204 -5.75959 0
M  V30 3400 N 304.489 0.459591 1.5075 0
M  V30 3401 C 305.714 -0.0996819 2.0716 0
M  V30 3402 C 306.139 -1.33761 1.32249 0
M  V30 3403 O 305.497 -1.77551 0.366786 0
M  V30 3404 C 305.545 -0.378226 3.58611 0
M  V30 3405 O 304.649 -1.46081 3.85661 0
M  V30 3406 H 303.99 0.00791392 0.663953 0
M  V30 3407 H 306.52 0.647329 1.9409 0
M  V30 3408 H 306.53 -0.622135 4.03229 0
M  V30 3409 H 305.205 0.526439 4.12555 0
M  V30 3410 H 303.782 -1.20511 3.5289 0
M  V30 3411 N 305.967 -1.56429 0.191757 0
M  V30 3412 C 306.914 -2.18936 -0.730454 0
M  V30 3413 C 307.884 -1.13557 -1.21219 0
M  V30 3414 O 309.069 -1.41794 -1.27668 0
M  V30 3415 C 306.209 -2.85013 -1.9458 0
M  V30 3416 C 305.322 -4.04909 -1.50574 0
M  V30 3417 C 304.457 -4.58853 -2.67634 0
M  V30 3418 C 303.496 -5.71114 -2.20217 0
M  V30 3419 N 302.633 -6.19478 -3.30442 0
M  V30 3420 H 307.473 -2.97389 -0.190664 0
M  V30 3421 H 305.01 -1.46869 -0.0823694 0
M  V30 3422 H 306.968 -3.21492 -2.65893 0
M  V30 3423 H 305.598 -2.09129 -2.45896 0
M  V30 3424 H 304.65 -3.74115 -0.688605 0
M  V30 3425 H 305.962 -4.86113 -1.11784 0
M  V30 3426 H 305.116 -4.97619 -3.47074 0
M  V30 3427 H 303.855 -3.76749 -3.09696 0
M  V30 3428 H 302.86 -5.31879 -1.3923 0
M  V30 3429 H 304.085 -6.55033 -1.79189 0
M  V30 3430 H 302.031 -5.40297 -3.72041 0
M  V30 3431 H 301.948 -6.95725 -2.9581 0
M  V30 3432 H 303.216 -6.62898 -4.10106 0
M  V30 3433 N 307.445 0.0818655 -1.57387 0
M  V30 3434 C 308.691 0.784074 -1.8703 0
M  V30 3435 C 309.024 1.77729 -0.782689 0
M  V30 3436 O 308.299 1.93384 0.208051 0
M  V30 3437 C 308.582 1.50105 -3.27323 0
M  V30 3438 C 308.435 0.524925 -4.46727 0
M  V30 3439 C 309.754 2.44843 -3.65705 0
M  V30 3440 H 306.873 0.283582 -0.680257 0
M  V30 3441 H 309.515 0.0474352 -1.89941 0
M  V30 3442 H 307.665 2.12897 -3.24972 0
M  V30 3443 H 309.337 -0.0970111 -4.61198 0
M  V30 3444 H 307.58 -0.160606 -4.33503 0
M  V30 3445 H 308.251 1.064 -5.41648 0
M  V30 3446 H 310.727 1.92135 -3.69085 0
M  V30 3447 H 309.603 2.92018 -4.64776 0
M  V30 3448 H 309.864 3.29197 -2.95096 0
M  V30 3449 N 308.923 1.53595 0.353017 0
M  V30 3450 C 310.153 1.74058 1.11299 0
M  V30 3451 C 310.561 0.475205 1.83135 0
M  V30 3452 O 309.904 -0.562344 1.74881 0
M  V30 3453 C 309.966 2.85994 2.17825 0
M  V30 3454 C 309.63 4.25923 1.65647 0
M  V30 3455 C 310.627 5.07829 1.11383 0
M  V30 3456 C 308.312 4.72377 1.7078 0
M  V30 3457 C 310.306 6.34285 0.629439 0
M  V30 3458 C 307.993 5.98808 1.21953 0
M  V30 3459 C 308.991 6.79594 0.681265 0
M  V30 3460 O 308.679 8.03651 0.200248 0
M  V30 3461 H 308.411 0.585327 0.338183 0
M  V30 3462 H 310.965 2.01186 0.413927 0
M  V30 3463 H 309.195 2.54368 2.91262 0
M  V30 3464 H 310.884 2.94515 2.79313 0
M  V30 3465 H 311.65 4.73107 1.06746 0
M  V30 3466 H 307.529 4.0956 2.11617 0
M  V30 3467 H 311.073 6.97288 0.208636 0
M  V30 3468 H 306.97 6.33026 1.26287 0
M  V30 3469 H 307.738 8.1788 0.318416 0
M  V30 3470 N 310.401 -0.613514 1.45168 0
M  V30 3471 C 311.678 -1.37263 1.39349 0
M  V30 3472 C 312.058 -2.11012 0.0610848 0
M  V30 3473 O 311.406 -2.07502 -0.956825 0
M  V30 3474 C 311.616 -2.3244 2.60332 0
M  V30 3475 C 312.964 -2.9523 3.05163 0
M  V30 3476 O 313.988 -2.42762 2.60663 0
M  V30 3477 O 312.847 -3.90454 3.82372 0
M  V30 3478 H 309.941 -0.615188 0.552696 0
M  V30 3479 H 312.487 -0.637097 1.57287 0
M  V30 3480 H 311.259 -1.77164 3.48896 0
M  V30 3481 H 310.882 -3.13383 2.44698 0
M  V30 3482 N 311.879 -1.3236 -0.855495 0
M  V30 3483 C 313.29 -1.2056 -1.42556 0
M  V30 3484 C 313.641 0.182209 -1.95352 0
M  V30 3485 O 312.766 1.08088 -1.87472 0
M  V30 3486 C 313.361 -2.1826 -2.59129 0
M  V30 3487 C 311.92 -2.10351 -3.12137 0
M  V30 3488 C 311.067 -2.06674 -1.84882 0
M  V30 3489 H 314.018 -1.442 -0.662727 0
M  V30 3490 H 314.039 -1.78064 -3.36264 0
M  V30 3491 H 313.551 -3.19257 -2.20673 0
M  V30 3492 H 311.652 -1.12599 -3.55179 0
M  V30 3493 H 311.765 -3.00135 -3.73438 0
M  V30 3494 H 310.129 -1.51901 -2.04446 0
M  V30 3495 H 310.912 -3.09451 -1.48643 0
M  V30 3496 N 313.357 1.07166 -1.15556 0
M  V30 3497 C 314.287 2.16403 -0.877046 0
M  V30 3498 C 315.268 1.69217 0.173111 0
M  V30 3499 O 316.453 1.94181 0.027084 0
M  V30 3500 C 313.583 3.45349 -0.367632 0
M  V30 3501 C 312.537 4.05995 -1.35468 0
M  V30 3502 C 311.863 5.30045 -0.704038 0
M  V30 3503 C 313.163 4.45804 -2.72132 0
M  V30 3504 H 314.857 2.39959 -1.79053 0
M  V30 3505 H 312.403 1.15325 -0.862331 0
M  V30 3506 H 314.356 4.21095 -0.160317 0
M  V30 3507 H 313.08 3.21385 0.581326 0
M  V30 3508 H 311.739 3.32296 -1.54839 0
M  V30 3509 H 311.387 5.02373 0.251128 0
M  V30 3510 H 311.087 5.71579 -1.36277 0
M  V30 3511 H 312.611 6.08495 -0.50654 0
M  V30 3512 H 314.025 5.12671 -2.56595 0
M  V30 3513 H 312.422 4.98296 -3.34397 0
M  V30 3514 H 313.492 3.57083 -3.28054 0
M  V30 3515 N 314.835 0.952656 1.25548 0
M  V30 3516 C 316.065 0.622592 1.96996 0
M  V30 3517 C 316.473 -0.809112 1.71026 0
M  V30 3518 O 315.816 -1.55258 0.981861 0
M  V30 3519 C 315.878 0.798946 3.5051 0
M  V30 3520 C 315.542 2.20744 4.00151 0
M  V30 3521 C 316.539 3.18394 4.11001 0
M  V30 3522 C 314.224 2.5311 4.33867 0
M  V30 3523 C 316.218 4.46504 4.54877 0
M  V30 3524 C 313.905 3.8145 4.7743 0
M  V30 3525 C 314.903 4.77959 4.87897 0
M  V30 3526 O 314.591 6.04012 5.30494 0
M  V30 3527 H 314.323 0.232503 0.634758 0
M  V30 3528 H 316.877 1.2789 1.60728 0
M  V30 3529 H 315.107 0.0854903 3.86605 0
M  V30 3530 H 316.796 0.47023 4.03167 0
M  V30 3531 H 317.562 2.94715 3.85186 0
M  V30 3532 H 313.441 1.78719 4.24948 0
M  V30 3533 H 316.985 5.21835 4.62962 0
M  V30 3534 H 312.882 4.04936 5.0269 0
M  V30 3535 H 313.65 6.0736 5.48685 0
M  V30 3536 N 316.313 -1.40141 0.720998 0
M  V30 3537 C 317.553 -2.02644 0.267335 0
M  V30 3538 C 317.917 -1.55948 -1.12001 0
M  V30 3539 O 319.118 -2.10552 -1.67097 0
M  V30 3540 C 317.389 -3.55679 0.350281 0
M  V30 3541 S 318.948 -4.38793 -0.0256004 0
M  V30 3542 H 315.766 -0.703105 0.105664 0
M  V30 3543 H 318.368 -1.71175 0.944416 0
M  V30 3544 H 317.072 -3.87157 1.36153 0
M  V30 3545 H 316.603 -3.91883 -0.345096 0
M  V30 3546 H 318.618 -4.803 -1.24604 0
M  V30 3547 N 317.792 -0.46758 -1.50504 0
M  V30 3548 C 318.702 0.33382 -2.32213 0
M  V30 3549 C 319.718 0.999323 -1.42441 0
M  V30 3550 O 320.894 0.988068 -1.75497 0
M  V30 3551 C 317.959 1.4035 -3.17022 0
M  V30 3552 C 317.02 0.754961 -4.2261 0
M  V30 3553 C 316.253 1.77367 -5.03365 0
M  V30 3554 O 316.476 2.99976 -4.8515 0
M  V30 3555 O 315.41 1.34744 -5.86624 0
M  V30 3556 H 319.236 -0.334067 -3.01857 0
M  V30 3557 H 316.821 -0.229496 -1.47627 0
M  V30 3558 H 318.703 2.02318 -3.69656 0
M  V30 3559 H 317.378 2.05492 -2.5011 0
M  V30 3560 H 316.285 0.0964244 -3.73976 0
M  V30 3561 H 317.618 0.146545 -4.91982 0
M  V30 3562 N 319.27 1.56325 -0.20005 0
M  V30 3563 C 320.495 2.02548 0.44597 0
M  V30 3564 C 320.92 1.07922 1.5406 0
M  V30 3565 O 320.278 0.0635775 1.81188 0
M  V30 3566 C 320.326 3.47175 0.974761 0
M  V30 3567 O 319.43 3.55671 2.08739 0
M  V30 3568 H 318.771 0.655862 0.103638 0
M  V30 3569 H 321.301 2.02201 -0.312381 0
M  V30 3570 H 321.311 3.87067 1.2901 0
M  V30 3571 H 319.986 4.15538 0.17347 0
M  V30 3572 H 318.563 3.27657 1.78032 0
M  V30 3573 N 320.748 -0.0735177 1.57428 0
M  V30 3574 C 321.994 -0.774145 1.87443 0
M  V30 3575 C 322.327 -1.77311 0.792103 0
M  V30 3576 O 321.602 -1.93492 -0.197793 0
M  V30 3577 C 321.885 -1.48367 3.28115 0
M  V30 3578 C 321.738 -0.501227 4.46999 0
M  V30 3579 C 323.057 -2.429 3.66998 0
M  V30 3580 H 320.176 -0.279971 0.681752 0
M  V30 3581 H 322.818 -0.0373616 1.89963 0
M  V30 3582 H 320.968 -2.11171 3.26097 0
M  V30 3583 H 322.64 0.121468 4.6114 0
M  V30 3584 H 320.883 0.183593 4.33411 0
M  V30 3585 H 321.554 -1.03526 5.42205 0
M  V30 3586 H 324.03 -1.90175 3.70098 0
M  V30 3587 H 322.906 -2.89549 4.66318 0
M  V30 3588 H 323.167 -3.27628 2.96837 0
M  V30 3589 N 322.226 -1.5378 -0.344866 0
M  V30 3590 C 323.176 -1.78057 -1.42407 0
M  V30 3591 C 324.16 -0.635732 -1.47808 0
M  V30 3592 O 325.352 -0.89508 -1.527 0
M  V30 3593 C 322.481 -1.99242 -2.79566 0
M  V30 3594 C 321.567 -3.19787 -2.78562 0
M  V30 3595 N 321.958 -4.41284 -2.47189 0
M  V30 3596 C 320.256 -3.2093 -3.0971 0
M  V30 3597 C 320.957 -5.23128 -2.54385 0
M  V30 3598 N 319.933 -4.59813 -2.89953 0
M  V30 3599 H 323.735 -2.69588 -1.17046 0
M  V30 3600 H 321.249 -1.52687 -0.553217 0
M  V30 3601 H 323.246 -2.14768 -3.57324 0
M  V30 3602 H 321.906 -1.08953 -3.05875 0
M  V30 3603 H 322.917 -4.68657 -2.20411 0
M  V30 3604 H 319.594 -2.40603 -3.41199 0
M  V30 3605 H 320.984 -6.30096 -2.333 0
M  V30 3606 N 323.704 0.605807 -1.45491 0
M  V30 3607 C 324.652 1.73754 -1.54636 0
M  V30 3608 C 325.646 1.64207 -0.416219 0
M  V30 3609 O 326.852 1.69979 -0.592199 0
M  V30 3610 H 323.227 0.574073 -0.485741 0
M  V30 3611 H 325.198 1.63169 -2.49837 0
M  V30 3612 C 323.947 3.12135 -1.53189 0
M  V30 3613 H 323.27 3.20141 -2.39478 0
M  V30 3614 H 324.71 3.91147 -1.63645 0
M  V30 3615 C 323.169 3.35921 -0.256616 0
M  V30 3616 O 323.699 3.96194 0.662798 0
M  V30 3617 N 321.905 2.90204 -0.151751 0
M  V30 3618 H 321.452 2.41336 -0.90081 0
M  V30 3619 H 321.41 3.06492 0.700699 0
M  V30 3620 N 325.182 1.32811 0.848464 0
M  V30 3621 C 326.429 1.23724 1.60308 0
M  V30 3622 C 326.757 -0.1994 1.93475 0
M  V30 3623 O 326.012 -1.15406 1.5805 0
M  V30 3624 C 326.311 2.04831 2.92881 0
M  V30 3625 C 325.977 3.54125 2.79117 0
M  V30 3626 C 324.639 3.94829 2.7507 0
M  V30 3627 C 326.991 4.49036 2.64606 0
M  V30 3628 C 324.319 5.28675 2.544 0
M  V30 3629 C 326.671 5.83033 2.4547 0
M  V30 3630 C 325.335 6.22931 2.39819 0
M  V30 3631 H 324.605 0.452737 0.586609 0
M  V30 3632 H 327.252 1.64301 0.983743 0
M  V30 3633 H 325.557 1.57001 3.58968 0
M  V30 3634 H 327.254 1.95164 3.50303 0
M  V30 3635 H 323.844 3.21801 2.83094 0
M  V30 3636 H 328.028 4.18505 2.66772 0
M  V30 3637 H 323.284 5.58637 2.48465 0
M  V30 3638 H 327.458 6.56186 2.33222 0
M  V30 3639 H 325.085 7.26584 2.23562 0
M  V30 3640 N 326.66 -1.06551 1.16123 0
M  V30 3641 C 327.888 -1.83005 0.965237 0
M  V30 3642 C 328.303 -1.82423 -0.486542 0
M  V30 3643 O 327.66 -1.24152 -1.33763 0
M  V30 3644 C 327.711 -3.29733 1.48183 0
M  V30 3645 O 327.432 -3.30416 2.87674 0
M  V30 3646 C 328.933 -4.22926 1.32848 0
M  V30 3647 H 326.153 -0.577118 0.342309 0
M  V30 3648 H 328.697 -1.3445 1.54089 0
M  V30 3649 H 326.852 -3.75609 0.948517 0
M  V30 3650 H 327.266 -4.22149 3.11272 0
M  V30 3651 H 328.74 -5.23916 1.73827 0
M  V30 3652 H 329.217 -4.38346 0.273692 0
M  V30 3653 H 329.823 -3.82894 1.85127 0
M  V30 3654 N 328.138 -0.959301 -1.25041 0
M  V30 3655 C 329.068 -0.501388 -2.28053 0
M  V30 3656 C 330.049 0.454673 -1.63911 0
M  V30 3657 O 331.234 0.352618 -1.90972 0
M  V30 3658 C 328.364 0.217224 -3.4662 0
M  V30 3659 C 327.318 -0.654034 -4.22973 0
M  V30 3660 C 326.644 0.195589 -5.34342 0
M  V30 3661 C 327.944 -1.93447 -4.85155 0
M  V30 3662 H 329.638 -1.36238 -2.66608 0
M  V30 3663 H 327.184 -0.656534 -1.28163 0
M  V30 3664 H 329.137 0.548732 -4.17812 0
M  V30 3665 H 327.861 1.1125 -3.07068 0
M  V30 3666 H 326.52 -0.968693 -3.5357 0
M  V30 3667 H 326.168 1.09076 -4.91031 0
M  V30 3668 H 325.868 -0.384091 -5.86343 0
M  V30 3669 H 327.392 0.521958 -6.08365 0
M  V30 3670 H 328.806 -1.66908 -5.48466 0
M  V30 3671 H 327.203 -2.46018 -5.47353 0
M  V30 3672 H 328.273 -2.63466 -4.07079 0
M  V30 3673 N 329.616 1.39756 -0.72842 0
M  V30 3674 C 331.027 1.83498 -0.344289 0
M  V30 3675 C 331.378 1.60868 1.12321 0
M  V30 3676 O 330.503 1.09634 1.86573 0
M  V30 3677 C 331.098 3.33114 -0.618112 0
M  V30 3678 C 329.657 3.753 -0.287549 0
M  V30 3679 C 328.804 2.62831 -0.884048 0
M  V30 3680 H 331.755 1.28842 -0.926578 0
M  V30 3681 H 331.776 3.80334 0.112349 0
M  V30 3682 H 331.288 3.49553 -1.68625 0
M  V30 3683 H 329.389 3.64451 0.775012 0
M  V30 3684 H 329.502 4.72945 -0.765512 0
M  V30 3685 H 327.866 2.52792 -0.311149 0
M  V30 3686 H 328.649 2.82078 -1.95671 0
M  V30 3687 N 331.094 0.475555 1.50254 0
M  V30 3688 C 332.319 -0.0777042 2.07254 0
M  V30 3689 C 332.744 -1.3235 1.3366 0
M  V30 3690 O 332.102 -1.77152 0.385597 0
M  V30 3691 C 332.15 -0.340169 3.58992 0
M  V30 3692 O 331.254 -1.41982 3.87188 0
M  V30 3693 H 330.595 0.0149556 0.663832 0
M  V30 3694 H 333.125 0.667878 1.93392 0
M  V30 3695 H 333.135 -0.579332 4.03866 0
M  V30 3696 H 331.81 0.570167 4.11973 0
M  V30 3697 H 330.387 -1.16762 3.54148 0
M  V30 3698 N 332.573 -1.56217 0.208337 0
M  V30 3699 C 333.819 -1.98998 -0.42086 0
M  V30 3700 C 334.174 -1.09331 -1.58317 0
M  V30 3701 O 333.467 -0.140466 -1.91084 0
M  V30 3702 C 333.661 -3.45441 -0.916797 0
M  V30 3703 C 333.49 -4.49273 0.195925 0
M  V30 3704 C 332.26 -5.00998 0.657956 0
M  V30 3705 C 334.458 -5.04294 1.00956 0
M  V30 3706 N 332.44 -5.88514 1.74712 0
M  V30 3707 C 333.811 -5.88607 1.94785 0
M  V30 3708 C 335.866 -4.86692 1.05049 0
M  V30 3709 C 334.569 -6.572 2.9237 0
M  V30 3710 C 336.595 -5.56034 2.01446 0
M  V30 3711 C 335.957 -6.40105 2.94016 0
M  V30 3712 H 332.056 -0.772574 -0.121048 0
M  V30 3713 H 334.64 -1.92101 0.317075 0
M  V30 3714 H 332.811 -3.52812 -1.62413 0
M  V30 3715 H 334.543 -3.75164 -1.51771 0
M  V30 3716 H 331.298 -4.72945 0.248912 0
M  V30 3717 H 331.722 -6.36975 2.2933 0
M  V30 3718 H 336.364 -4.21359 0.348759 0
M  V30 3719 H 334.082 -7.21723 3.63512 0
M  V30 3720 H 337.668 -5.44385 2.0527 0
M  V30 3721 H 336.548 -6.92816 3.6739 0
M  V30 3722 N 334.051 0.0651679 -1.57465 0
M  V30 3723 C 335.014 1.06117 -2.03155 0
M  V30 3724 C 336.014 1.31204 -0.929632 0
M  V30 3725 O 337.204 1.26813 -1.19432 0
M  V30 3726 C 334.336 2.4032 -2.41783 0
M  V30 3727 H 335.529 0.667231 -2.92383 0
M  V30 3728 H 333.082 0.311075 -1.53173 0
M  V30 3729 H 333.817 2.84532 -1.55601 0
M  V30 3730 H 333.602 2.23451 -3.22199 0
M  V30 3731 H 335.092 3.11898 -2.77685 0
M  V30 3732 N 335.529 1.53961 0.336706 0
M  V30 3733 C 336.757 1.75483 1.09605 0
M  V30 3734 C 337.172 0.4972 1.82136 0
M  V30 3735 O 336.529 -0.53149 1.74589 0
M  V30 3736 C 336.58 2.93943 2.10428 0
M  V30 3737 O 336.301 4.14842 1.40846 0
M  V30 3738 C 337.802 3.27571 2.98684 0
M  V30 3739 H 335.022 0.586166 0.326574 0
M  V30 3740 H 337.566 2.00808 0.38683 0
M  V30 3741 H 335.721 2.70929 2.76905 0
M  V30 3742 H 336.135 4.81383 2.08255 0
M  V30 3743 H 337.609 4.13791 3.6535 0
M  V30 3744 H 338.086 2.44168 3.65074 0
M  V30 3745 H 338.692 3.52615 2.37787 0
M  V30 3746 N 337.007 -0.598083 1.45811 0
M  V30 3747 C 337.917 -1.73632 1.57763 0
M  V30 3748 C 338.933 -1.67763 0.461676 0
M  V30 3749 O 340.109 -1.87949 0.723685 0
M  V30 3750 C 337.174 -3.10114 1.55018 0
M  V30 3751 C 336.235 -3.27364 2.77726 0
M  V30 3752 C 335.468 -4.57334 2.75102 0
M  V30 3753 O 335.691 -5.40258 1.8297 0
M  V30 3754 O 334.625 -4.77502 3.66437 0
M  V30 3755 H 338.451 -1.66498 2.53992 0
M  V30 3756 H 336.036 -0.763308 1.28429 0
M  V30 3757 H 337.918 -3.9141 1.56129 0
M  V30 3758 H 336.593 -3.17718 0.619431 0
M  V30 3759 H 335.5 -2.45619 2.82174 0
M  V30 3760 H 336.833 -3.24641 3.69958 0
M  V30 3761 N 338.485 -1.33259 -0.841409 0
M  V30 3762 C 339.762 -1.15174 -1.58096 0
M  V30 3763 C 340.142 0.282858 -2.09196 0
M  V30 3764 O 339.49 1.28151 -1.89181 0
M  V30 3765 C 339.7 -2.1907 -2.71679 0
M  V30 3766 C 341.048 -2.53093 -3.40924 0
M  V30 3767 O 342.072 -2.17717 -2.81918 0
M  V30 3768 O 340.931 -3.1379 -4.47435 0
M  V30 3769 H 338.025 -0.445303 -0.696875 0
M  V30 3770 H 340.571 -1.44833 -0.884385 0
M  V30 3771 H 339.343 -3.15443 -2.31541 0
M  V30 3772 H 338.966 -1.90481 -3.49002 0
M  V30 3773 N 339.963 1.05934 -1.16686 0
M  V30 3774 C 341.191 1.8249 -0.974929 0
M  V30 3775 C 341.606 1.82679 0.476861 0
M  V30 3776 O 340.963 1.2486 1.33103 0
M  V30 3777 C 341.014 3.28943 -1.49929 0
M  V30 3778 O 340.735 3.28886 -2.89423 0
M  V30 3779 C 342.236 4.22215 -1.35089 0
M  V30 3780 H 339.456 0.575295 -0.345365 0
M  V30 3781 H 342 1.33631 -1.548 0
M  V30 3782 H 340.155 3.751 -0.968423 0
M  V30 3783 H 340.569 4.20493 -3.13506 0
M  V30 3784 H 342.043 5.22987 -1.76603 0
M  V30 3785 H 342.52 4.38195 -0.296935 0
M  V30 3786 H 343.126 3.81907 -1.87155 0
M  V30 3787 N 341.441 0.965919 1.2453 0
M  V30 3788 C 342.374 0.4393 2.23932 0
M  V30 3789 C 343.352 -0.485615 1.55179 0
M  V30 3790 O 344.536 -0.417402 1.83821 0
M  V30 3791 C 341.663 -0.366042 3.36716 0
M  V30 3792 C 340.709 0.5009 4.23548 0
M  V30 3793 S 341.542 1.94002 4.99123 0
M  V30 3794 C 342.698 1.14342 6.15367 0
M  V30 3795 H 342.931 1.28167 2.68254 0
M  V30 3796 H 340.464 0.770819 1.33782 0
M  V30 3797 H 342.422 -0.824724 4.0213 0
M  V30 3798 H 341.083 -1.18337 2.90956 0
M  V30 3799 H 340.276 -0.117341 5.03863 0
M  V30 3800 H 339.878 0.89524 3.63127 0
M  V30 3801 H 342.17 0.397572 6.76332 0
M  V30 3802 H 343.113 1.92089 6.81548 0
M  V30 3803 H 343.521 0.668579 5.60527 0
M  V30 3804 N 342.919 -1.39368 0.735821 0
M  V30 3805 C 344.147 -2.04795 0.294393 0
M  V30 3806 C 344.562 -1.55478 -1.07107 0
M  V30 3807 O 343.919 -0.720038 -1.67695 0
M  V30 3808 C 343.97 -3.6035 0.288071 0
M  V30 3809 O 343.691 -4.07852 1.59963 0
M  V30 3810 C 345.192 -4.42976 -0.169422 0
M  V30 3811 H 342.412 -0.658571 0.128551 0
M  V30 3812 H 344.956 -1.78399 0.999701 0
M  V30 3813 H 343.111 -3.85645 -0.368355 0
M  V30 3814 H 343.525 -5.02181 1.51375 0
M  V30 3815 H 344.999 -5.51864 -0.122687 0
M  V30 3816 H 345.476 -4.22068 -1.21472 0
M  V30 3817 H 346.082 -4.22832 0.457469 0
M  V30 3818 N 344.397 -0.483516 -1.5 0
M  V30 3819 C 345.344 0.304164 -2.28787 0
M  V30 3820 C 346.314 0.976114 -1.34392 0
M  V30 3821 O 347.499 0.986156 -1.63339 0
M  V30 3822 C 344.639 1.37298 -3.16612 0
M  V30 3823 C 343.752 0.714561 -4.26049 0
M  V30 3824 C 342.887 1.76232 -5.01114 0
M  V30 3825 C 341.926 1.08483 -6.0241 0
M  V30 3826 N 341.063 2.076 -6.70706 0
M  V30 3827 H 345.903 -0.373981 -2.95644 0
M  V30 3828 H 343.44 -0.196275 -1.45785 0
M  V30 3829 H 345.398 2.00445 -3.65893 0
M  V30 3830 H 344.028 2.02012 -2.51776 0
M  V30 3831 H 343.08 -0.0297798 -3.80388 0
M  V30 3832 H 344.392 0.180383 -4.98474 0
M  V30 3833 H 343.546 2.46929 -5.54176 0
M  V30 3834 H 342.285 2.33033 -4.28424 0
M  V30 3835 H 341.29 0.363545 -5.48597 0
M  V30 3836 H 342.515 0.523551 -6.77079 0
M  V30 3837 H 340.461 2.63394 -6.00799 0
M  V30 3838 H 340.378 1.59201 -7.39047 0
M  V30 3839 H 341.646 2.77639 -7.2838 0
M  V30 3840 N 345.875 1.56104 -0.216619 0
M  V30 3841 C 346.805 2.23063 0.690296 0
M  V30 3842 C 347.786 1.20072 1.20485 0
M  V30 3843 O 348.971 1.48643 1.24976 0
M  V30 3844 C 346.101 2.90672 1.90072 0
M  V30 3845 C 345.055 4.00092 1.5202 0
M  V30 3846 C 344.381 4.54972 2.80899 0
M  V30 3847 C 345.681 5.17398 0.71391 0
M  V30 3848 H 347.375 2.99109 0.132038 0
M  V30 3849 H 344.921 1.43866 0.0620664 0
M  V30 3850 H 346.874 3.36204 2.54057 0
M  V30 3851 H 345.598 2.12066 2.48386 0
M  V30 3852 H 344.257 3.55283 0.903839 0
M  V30 3853 H 343.905 3.73102 3.37348 0
M  V30 3854 H 343.605 5.28817 2.56176 0
M  V30 3855 H 345.129 5.0322 3.45836 0
M  V30 3856 H 346.543 5.59342 1.25735 0
M  V30 3857 H 344.94 5.97444 0.563951 0
M  V30 3858 H 346.01 4.84088 -0.280527 0
M  V30 3859 N 347.353 -0.0568162 1.57498 0
M  V30 3860 C 348.769 -0.411933 1.54192 0
M  V30 3861 C 348.969 -1.78287 0.938942 0
M  V30 3862 O 348.025 -2.46483 0.547919 0
M  V30 3863 C 349.338 -0.339244 2.9878 0
M  V30 3864 C 350.886 -0.418348 3.10192 0
M  V30 3865 C 351.361 -0.375407 4.56459 0
M  V30 3866 N 352.852 -0.435038 4.61153 0
M  V30 3867 C 353.587 -0.424265 5.71828 0
M  V30 3868 N 353.083 -0.367418 6.91825 0
M  V30 3869 N 354.876 -0.471938 5.60115 0
M  V30 3870 H 347.027 0.840684 1.95055 0
M  V30 3871 H 349.29 0.316987 0.893433 0
M  V30 3872 H 348.996 0.601742 3.46514 0
M  V30 3873 H 348.87 -1.14371 3.59443 0
M  V30 3874 H 351.257 -1.34976 2.62422 0
M  V30 3875 H 351.338 0.414962 2.52412 0
M  V30 3876 H 350.982 0.552219 5.04889 0
M  V30 3877 H 350.912 -1.22645 5.12119 0
M  V30 3878 H 353.403 -0.482612 3.74806 0
M  V30 3879 H 353.716 -0.363535 7.71944 0
M  V30 3880 H 352.061 -0.333879 6.94198 0
M  V30 3881 H 355.252 -0.514145 4.65268 0
M  V30 3882 H 355.425 -0.460073 6.46365 0
M  V30 3883 N 348.832 -1.54138 -0.328536 0
M  V30 3884 C 349.742 -1.86192 -1.42723 0
M  V30 3885 C 350.758 -0.753382 -1.56844 0
M  V30 3886 O 351.934 -1.04718 -1.72035 0
M  V30 3887 C 348.999 -2.07824 -2.77507 0
M  V30 3888 C 348.06 -3.31641 -2.72603 0
M  V30 3889 C 347.293 -3.52232 -4.00959 0
M  V30 3890 O 347.516 -2.7636 -4.9898 0
M  V30 3891 O 346.45 -4.45699 -4.0452 0
M  V30 3892 H 350.276 -2.79608 -1.18547 0
M  V30 3893 H 347.861 -1.3998 -0.522104 0
M  V30 3894 H 349.743 -2.23411 -3.57303 0
M  V30 3895 H 348.418 -1.17596 -3.01584 0
M  V30 3896 H 347.325 -3.21444 -1.91376 0
M  V30 3897 H 348.658 -4.2191 -2.53481 0
M  V30 3898 N 350.31 0.590341 -1.46126 0
M  V30 3899 C 351.24 1.71032 -1.58966 0
M  V30 3900 C 352.221 1.64302 -0.440335 0
M  V30 3901 O 353.406 1.82436 -0.665634 0
M  V30 3902 C 350.536 3.09665 -1.57241 0
M  V30 3903 C 349.49 3.31221 -2.71066 0
M  V30 3904 C 348.816 4.70303 -2.54399 0
M  V30 3905 C 350.116 3.19796 -4.1295 0
M  V30 3906 H 351.81 1.60543 -2.52718 0
M  V30 3907 H 349.356 0.770933 -1.21625 0
M  V30 3908 H 351.309 3.87831 -1.64819 0
M  V30 3909 H 350.033 3.21036 -0.600289 0
M  V30 3910 H 348.692 2.55452 -2.62944 0
M  V30 3911 H 348.34 4.78429 -1.55288 0
M  V30 3912 H 348.04 4.85679 -3.30741 0
M  V30 3913 H 349.564 5.50647 -2.63857 0
M  V30 3914 H 350.978 3.87815 -4.22223 0
M  V30 3915 H 349.375 3.46696 -4.89818 0
M  V30 3916 H 350.445 2.16983 -4.33643 0
M  V30 3917 N 351.788 1.33704 0.83433 0
M  V30 3918 C 353.013 1.28615 1.62705 0
M  V30 3919 C 353.438 -0.139242 1.87584 0
M  V30 3920 O 352.796 -1.09734 1.4432 0
M  V30 3921 C 352.844 2.07139 2.95171 0
M  V30 3922 O 351.948 1.4331 3.86699 0
M  V30 3923 H 351.289 0.44226 0.49528 0
M  V30 3924 H 353.819 1.76335 1.03766 0
M  V30 3925 H 353.829 2.18073 3.44831 0
M  V30 3926 H 352.504 3.10779 2.76386 0
M  V30 3927 H 351.081 1.4105 3.45195 0
M  V30 3928 N 353.266 -1.05314 1.17247 0
M  V30 3929 C 354.176 -2.16538 0.90268 0
M  V30 3930 C 355.192 -1.73523 -0.128707 0
M  V30 3931 O 356.368 -2.01337 0.0502701 0
M  V30 3932 C 353.433 -3.44167 0.418356 0
M  V30 3933 C 352.494 -4.01635 1.51618 0
M  V30 3934 C 351.727 -5.23171 1.05487 0
M  V30 3935 O 351.95 -5.70327 -0.0914715 0
M  V30 3936 O 350.884 -5.72848 1.8474 0
M  V30 3937 H 354.71 -2.42145 1.83302 0
M  V30 3938 H 352.295 -1.15037 0.953246 0
M  V30 3939 H 354.177 -4.21112 0.155726 0
M  V30 3940 H 352.852 -3.20063 -0.48385 0
M  V30 3941 H 351.759 -3.26135 1.83268 0
M  V30 3942 H 353.092 -4.30053 2.39405 0
M  V30 3943 N 354.744 -0.972509 -1.24016 0
M  V30 3944 C 355.674 -0.525548 -2.27509 0
M  V30 3945 C 356.655 0.437262 -1.64384 0
M  V30 3946 O 357.84 0.332343 -1.91335 0
M  V30 3947 C 354.97 0.180448 -3.46831 0
M  V30 3948 C 353.924 -0.698859 -4.22256 0
M  V30 3949 C 353.25 0.138903 -5.3452 0
M  V30 3950 C 354.55 -1.98582 -4.83076 0
M  V30 3951 H 356.244 -1.39058 -2.65148 0
M  V30 3952 H 353.79 -0.67009 -1.27459 0
M  V30 3953 H 355.743 0.504387 -4.18371 0
M  V30 3954 H 354.467 1.07987 -3.08231 0
M  V30 3955 H 353.126 -1.00614 -3.52523 0
M  V30 3956 H 352.774 1.03862 -4.9216 0
M  V30 3957 H 352.474 -0.446259 -5.85903 0
M  V30 3958 H 353.998 0.457404 -6.08884 0
M  V30 3959 H 355.412 -1.72715 -5.46665 0
M  V30 3960 H 353.809 -2.5181 -5.44713 0
M  V30 3961 H 354.879 -2.67769 -4.04262 0
M  V30 3962 N 356.222 1.38976 -0.743202 0
M  V30 3963 C 357.447 2.05161 -0.303936 0
M  V30 3964 C 357.872 1.55677 1.05576 0
M  V30 3965 O 357.23 0.704131 1.67068 0
M  V30 3966 C 357.278 3.59138 -0.324373 0
M  V30 3967 O 356.382 4.06668 0.685204 0
M  V30 3968 H 355.723 0.649815 -0.136518 0
M  V30 3969 H 358.253 1.77852 -1.01142 0
M  V30 3970 H 358.263 4.07639 -0.171618 0
M  V30 3971 H 356.938 3.94515 -1.31647 0
M  V30 3972 H 355.515 3.69561 0.497913 0
M  V30 3973 N 357.7 0.491464 1.49741 0
M  V30 3974 C 358.63 -0.28154 2.31796 0
M  V30 3975 C 359.611 -0.971473 1.3963 0
M  V30 3976 O 360.796 -0.964719 1.68543 0
M  V30 3977 C 357.926 -1.35203 3.19902 0
M  V30 3978 C 356.88 -0.782529 4.20786 0
M  V30 3979 C 356.206 -1.95283 4.97764 0
M  V30 3980 C 357.506 0.21999 5.21837 0
M  V30 3981 H 359.2 0.403355 2.96671 0
M  V30 3982 H 356.746 0.195425 1.42668 0
M  V30 3983 H 358.699 -1.90045 3.76113 0
M  V30 3984 H 357.423 -2.06598 2.52953 0
M  V30 3985 H 356.082 -0.255928 3.65706 0
M  V30 3986 H 355.73 -2.65423 4.2727 0
M  V30 3987 H 355.43 -1.57789 5.66018 0
M  V30 3988 H 356.954 -2.50577 5.56816 0
M  V30 3989 H 358.368 -0.23996 5.72798 0
M  V30 3990 H 356.765 0.51026 5.97927 0
M  V30 3991 H 357.835 1.13911 4.7133 0
M  V30 3992 N 359.178 -1.55987 0.224894 0
M  V30 3993 C 360.108 -2.23426 -0.678457 0
M  V30 3994 C 361.089 -1.20709 -1.19847 0
M  V30 3995 O 362.274 -1.49304 -1.24186 0
M  V30 3996 C 359.404 -2.91676 -1.88527 0
M  V30 3997 C 358.358 -4.00893 -1.49896 0
M  V30 3998 C 357.684 -4.56455 -2.78483 0
M  V30 3999 C 358.984 -5.17769 -0.686461 0
M  V30 4000 H 360.678 -2.99175 -0.116173 0
M  V30 4001 H 358.224 -1.43897 -0.054436 0
M  V30 4002 H 360.177 -3.37547 -2.5227 0
M  V30 4003 H 358.901 -2.1338 -2.47258 0
M  V30 4004 H 357.56 -3.55758 -0.884985 0
M  V30 4005 H 357.208 -3.74886 -3.35365 0
M  V30 4006 H 356.908 -5.30169 -2.53368 0
M  V30 4007 H 358.432 -5.05047 -3.43162 0
M  V30 4008 H 359.846 -5.60001 -1.22767 0
M  V30 4009 H 358.243 -5.97735 -0.532259 0
M  V30 4010 H 359.313 -4.83932 0.306196 0
M  V30 4011 N 360.656 0.0484629 -1.57525 0
M  V30 4012 C 361.881 0.759177 -1.93006 0
M  V30 4013 C 362.306 1.69125 -0.823317 0
M  V30 4014 O 361.664 1.79931 0.222364 0
M  V30 4015 C 361.712 1.50899 -3.27509 0
M  V30 4016 O 360.816 2.62112 -3.18388 0
M  V30 4017 H 360.157 0.205564 -0.631379 0
M  V30 4018 H 362.687 0.00972959 -2.04598 0
M  V30 4019 H 362.697 1.88317 -3.6194 0
M  V30 4020 H 361.372 0.825269 -4.0763 0
M  V30 4021 H 359.949 2.27379 -2.95556 0
M  V30 4022 N 362.134 1.5431 0.320358 0
M  V30 4023 C 363.064 1.86912 1.3995 0
M  V30 4024 C 364.045 0.726211 1.53819 0
M  V30 4025 O 365.23 0.980233 1.67646 0
M  V30 4026 C 362.36 2.09932 2.7667 0
M  V30 4027 C 361.314 3.25776 2.77586 0
M  V30 4028 C 360.64 3.34173 4.17412 0
M  V30 4029 C 361.94 4.6335 2.41048 0
M  V30 4030 H 363.634 2.77292 1.12914 0
M  V30 4031 H 361.18 1.33421 0.541738 0
M  V30 4032 H 363.133 2.31324 3.52232 0
M  V30 4033 H 361.857 1.16304 3.0519 0
M  V30 4034 H 360.516 3.04276 2.04479 0
M  V30 4035 H 360.164 2.38098 4.43078 0
M  V30 4036 H 359.864 4.12033 4.18931 0
M  V30 4037 H 361.388 3.57803 4.94782 0
M  V30 4038 H 362.802 4.84602 3.06324 0
M  V30 4039 H 361.199 5.43782 2.53813 0
M  V30 4040 H 362.269 4.65381 1.36193 0
M  V30 4041 N 363.613 -0.582584 1.46437 0
M  V30 4042 C 364.843 -1.36484 1.55099 0
M  V30 4043 C 365.251 -1.88233 0.191056 0
M  V30 4044 O 364.594 -1.6429 -0.821858 0
M  V30 4045 C 364.656 -2.588 2.49525 0
M  V30 4046 C 364.32 -2.28517 3.95764 0
M  V30 4047 C 365.317 -1.87346 4.84972 0
M  V30 4048 C 363.002 -2.40658 4.40896 0
M  V30 4049 C 364.996 -1.5871 6.17325 0
M  V30 4050 C 362.683 -2.11635 5.73284 0
M  V30 4051 C 363.681 -1.70725 6.61318 0
M  V30 4052 O 363.369 -1.42057 7.91249 0
M  V30 4053 H 363.101 -0.423297 0.527063 0
M  V30 4054 H 365.655 -0.715188 1.92547 0
M  V30 4055 H 363.885 -3.26571 2.07095 0
M  V30 4056 H 365.574 -3.20868 2.48593 0
M  V30 4057 H 366.34 -1.77481 4.5136 0
M  V30 4058 H 362.219 -2.71463 3.72598 0
M  V30 4059 H 365.763 -1.26704 6.85997 0
M  V30 4060 H 361.66 -2.21124 6.06444 0
M  V30 4061 H 362.428 -1.55901 8.03515 0
M  V30 4062 N 365.091 -1.34144 -0.827227 0
M  V30 4063 C 366.339 -1.26009 -1.58007 0
M  V30 4064 C 366.66 0.170971 -1.94249 0
M  V30 4065 O 365.93 1.10256 -1.61927 0
M  V30 4066 H 364.51 -0.463414 -0.585881 0
M  V30 4067 H 367.172 -1.68005 -0.987951 0
M  V30 4068 H 366.268 -1.86187 -2.50481 0
M  V30 4069 N 366.569 1.04691 -1.17803 0
M  V30 4070 C 367.818 1.77176 -0.963931 0
M  V30 4071 C 368.131 1.88888 0.508015 0
M  V30 4072 O 369.337 2.58164 0.840465 0
M  V30 4073 C 367.793 3.18518 -1.67555 0
M  V30 4074 C 367.401 3.14919 -3.18637 0
M  V30 4075 C 369.145 3.95424 -1.54402 0
M  V30 4076 C 367.052 4.51081 -3.82466 0
M  V30 4077 H 365.982 0.664116 -0.357023 0
M  V30 4078 H 368.633 1.17303 -1.4111 0
M  V30 4079 H 367.015 3.78748 -1.15613 0
M  V30 4080 H 368.189 2.64178 -3.77554 0
M  V30 4081 H 366.504 2.51512 -3.31859 0
M  V30 4082 H 369.101 4.96106 -1.99456 0
M  V30 4083 H 369.444 4.13343 -0.495329 0
M  V30 4084 H 369.977 3.41754 -2.0359 0
M  V30 4085 H 366.716 4.38368 -4.87354 0
M  V30 4086 H 366.236 5.01951 -3.28337 0
M  V30 4087 H 367.915 5.2001 -3.84965 0
M  V30 4088 N 368.047 0.979072 1.23499 0
M  V30 4089 C 368.997 0.489378 2.22686 0
M  V30 4090 C 369.981 -0.434871 1.54912 0
M  V30 4091 O 371.173 -0.263941 1.75021 0
M  V30 4092 C 368.302 -0.208178 3.42668 0
M  V30 4093 C 367.388 0.735563 4.17672 0
M  V30 4094 N 367.779 1.87763 4.69658 0
M  V30 4095 C 366.077 0.548625 4.42613 0
M  V30 4096 C 366.778 2.46886 5.26709 0
M  V30 4097 N 365.754 1.75287 5.14563 0
M  V30 4098 H 369.556 1.36062 2.60508 0
M  V30 4099 H 367.07 0.83958 1.39014 0
M  V30 4100 H 369.067 -0.576295 4.12898 0
M  V30 4101 H 367.727 -1.07572 3.06363 0
M  V30 4102 H 368.738 2.25885 4.66043 0
M  V30 4103 H 365.415 -0.274006 4.166 0
M  V30 4104 H 366.805 3.43326 5.77561 0
M  V30 4105 N 369.525 -1.3858 0.750561 0
M  V30 4106 C 370.472 -2.30483 0.120835 0
M  V30 4107 C 371.442 -1.50022 -0.712923 0
M  V30 4108 O 372.627 -1.78662 -0.669676 0
M  V30 4109 C 369.767 -3.36431 -0.768666 0
M  V30 4110 C 368.88 -4.31927 0.0793922 0
M  V30 4111 C 368.015 -5.24944 -0.81283 0
M  V30 4112 C 367.054 -6.12088 0.0390447 0
M  V30 4113 N 366.191 -6.97412 -0.809969 0
M  V30 4114 H 371.031 -2.83761 0.91015 0
M  V30 4115 H 368.568 -1.39707 0.460463 0
M  V30 4116 H 370.526 -3.96462 -1.29898 0
M  V30 4117 H 369.156 -2.8457 -1.5238 0
M  V30 4118 H 368.208 -3.73382 0.727303 0
M  V30 4119 H 369.52 -4.93319 0.737401 0
M  V30 4120 H 368.674 -5.90078 -1.41042 0
M  V30 4121 H 367.413 -4.63911 -1.50458 0
M  V30 4122 H 366.418 -5.45952 0.649328 0
M  V30 4123 H 367.643 -6.75189 0.727809 0
M  V30 4124 H 365.589 -6.38931 -1.48672 0
M  V30 4125 H 365.506 -7.55712 -0.208789 0
M  V30 4126 H 366.774 -7.66959 -1.39263 0
M  V30 4127 N 371.003 -0.499398 -1.49478 0
M  V30 4128 C 371.935 0.316575 -2.27003 0
M  V30 4129 C 372.948 0.932047 -1.33479 0
M  V30 4130 O 374.137 0.815658 -1.58774 0
M  V30 4131 C 371.237 1.46055 -3.05812 0
M  V30 4132 C 370.41 0.952679 -4.26899 0
M  V30 4133 C 369.469 1.97407 -4.87767 0
M  V30 4134 O 368.495 1.54326 -5.4788 0
M  V30 4135 N 369.697 3.30436 -4.77276 0
M  V30 4136 H 372.462 -0.348168 -2.97671 0
M  V30 4137 H 370.023 -0.33185 -1.58463 0
M  V30 4138 H 372.015 2.14135 -3.43407 0
M  V30 4139 H 370.585 2.02948 -2.37762 0
M  V30 4140 H 369.805 0.0968248 -3.94081 0
M  V30 4141 H 371.093 0.59174 -5.05347 0
M  V30 4142 H 370.491 3.68126 -4.29534 0
M  V30 4143 H 369.048 3.94235 -5.19059 0
M  V30 4144 N 372.481 1.55866 -0.233164 0
M  V30 4145 C 373.428 2.20796 0.67215 0
M  V30 4146 C 374.398 1.16731 1.18166 0
M  V30 4147 O 375.583 1.45129 1.23864 0
M  V30 4148 C 372.723 2.90072 1.86955 0
M  V30 4149 C 371.836 4.08759 1.39786 0
M  V30 4150 C 370.971 4.65787 2.55374 0
M  V30 4151 C 370.01 5.76752 2.04998 0
M  V30 4152 N 369.147 6.28021 3.13901 0
M  V30 4153 H 373.987 2.9779 0.111749 0
M  V30 4154 H 371.524 1.47036 0.0434007 0
M  V30 4155 H 373.482 3.28428 2.57276 0
M  V30 4156 H 372.112 2.15575 2.40265 0
M  V30 4157 H 371.164 3.7581 0.589173 0
M  V30 4158 H 372.476 4.88906 0.98856 0
M  V30 4159 H 371.63 5.06646 3.33758 0
M  V30 4160 H 370.369 3.84828 2.99598 0
M  V30 4161 H 369.374 5.35383 1.25079 0
M  V30 4162 H 370.599 6.59553 1.61759 0
M  V30 4163 H 368.545 5.49971 3.57586 0
M  V30 4164 H 368.462 7.03323 2.7726 0
M  V30 4165 H 369.73 6.73538 3.92386 0
M  V30 4166 N 373.959 -0.0401083 1.57549 0
M  V30 4167 C 374.869 -1.06133 2.0922 0
M  V30 4168 C 375.885 -1.40356 1.0284 0
M  V30 4169 O 377.061 -1.49897 1.34509 0
M  V30 4170 C 374.126 -2.34658 2.55218 0
M  V30 4171 C 373.187 -2.07117 3.76033 0
M  V30 4172 C 372.42 -3.29514 4.19829 0
M  V30 4173 O 372.643 -4.39794 3.63232 0
M  V30 4174 O 371.577 -3.15863 5.12362 0
M  V30 4175 H 375.403 -0.652244 2.96613 0
M  V30 4176 H 372.988 -0.256368 1.47184 0
M  V30 4177 H 374.87 -3.10239 2.85184 0
M  V30 4178 H 373.545 -2.74883 1.70941 0
M  V30 4179 H 372.452 -1.29139 3.51104 0
M  V30 4180 H 373.785 -1.71754 4.61261 0
M  V30 4181 N 375.437 -1.54477 -0.31217 0
M  V30 4182 C 376.384 -1.84655 -1.38461 0
M  V30 4183 C 377.354 -0.694536 -1.50882 0
M  V30 4184 O 378.539 -0.942081 -1.6592 0
M  V30 4185 C 375.679 -2.0896 -2.74645 0
M  V30 4186 C 374.792 -3.36618 -2.70763 0
M  V30 4187 C 373.927 -3.50824 -3.98868 0
M  V30 4188 C 372.966 -4.72315 -3.89339 0
M  V30 4189 N 372.103 -4.83387 -5.09197 0
M  V30 4190 H 376.943 -2.76142 -1.12026 0
M  V30 4191 H 374.48 -1.36748 -0.542065 0
M  V30 4192 H 376.438 -2.21045 -3.53829 0
M  V30 4193 H 375.068 -1.20752 -2.99364 0
M  V30 4194 H 374.12 -3.33211 -1.83506 0
M  V30 4195 H 375.432 -4.25917 -2.59608 0
M  V30 4196 H 374.586 -3.62513 -4.86486 0
M  V30 4197 H 373.325 -2.59638 -4.12843 0
M  V30 4198 H 372.33 -4.6067 -3.00105 0
M  V30 4199 H 373.555 -5.64897 -3.76919 0
M  V30 4200 H 371.501 -3.9512 -5.23657 0
M  V30 4201 H 371.418 -5.66669 -5.00422 0
M  V30 4202 H 372.686 -4.9942 -5.98498 0
M  V30 4203 N 376.915 0.57481 -1.46744 0
M  V30 4204 C 378.14 1.36341 -1.56288 0
M  V30 4205 C 378.565 1.86954 -0.207347 0
M  V30 4206 O 377.923 1.62006 0.813871 0
M  V30 4207 C 377.971 2.52147 -2.57787 0
M  V30 4208 O 377.075 3.53834 -2.11838 0
M  V30 4209 H 376.416 0.405713 -0.525636 0
M  V30 4210 H 378.946 0.696453 -1.92382 0
M  V30 4211 H 378.956 2.98958 -2.77648 0
M  V30 4212 H 377.631 2.14663 -3.5622 0
M  V30 4213 H 376.208 3.1345 -2.01999 0
M  V30 4214 N 378.394 1.34581 0.820102 0
M  V30 4215 C 379.81 1.14325 1.11364 0
M  V30 4216 C 380.01 -0.0533648 2.01429 0
M  V30 4217 O 379.066 -0.728044 2.41776 0
M  V30 4218 C 380.379 2.43983 1.75764 0
M  V30 4219 C 381.927 2.50065 1.88246 0
M  V30 4220 C 382.402 3.79732 2.56061 0
M  V30 4221 N 383.893 3.80908 2.63558 0
M  V30 4222 C 384.628 4.77961 3.16766 0
M  V30 4223 N 384.124 5.85397 3.70517 0
M  V30 4224 N 385.917 4.65413 3.15194 0
M  V30 4225 H 378.068 2.11246 0.221096 0
M  V30 4226 H 380.331 0.934289 0.160649 0
M  V30 4227 H 380.037 3.31651 1.1705 0
M  V30 4228 H 379.911 2.57531 2.75604 0
M  V30 4229 H 382.298 1.62834 2.46108 0
M  V30 4230 H 382.379 2.40442 0.873006 0
M  V30 4231 H 382.023 4.67354 1.98853 0
M  V30 4232 H 381.953 3.86639 3.57516 0
M  V30 4233 H 384.444 3.03274 2.25463 0
M  V30 4234 H 384.757 6.55463 4.09376 0
M  V30 4235 H 383.102 5.89107 3.68752 0
M  V30 4236 H 386.293 3.80627 2.72471 0
M  V30 4237 H 386.466 5.41216 3.56356 0
M  V30 4238 N 379.872 -1.04064 1.18357 0
M  V30 4239 C 380.802 -2.14001 0.934113 0
M  V30 4240 C 381.783 -1.69616 -0.128186 0
M  V30 4241 O 382.968 -1.94185 0.0244093 0
M  V30 4242 C 380.098 -3.44253 0.459066 0
M  V30 4243 C 379.052 -4.02261 1.46185 0
M  V30 4244 C 378.378 -5.27992 0.844322 0
M  V30 4245 C 379.678 -4.38432 2.83856 0
M  V30 4246 H 381.372 -2.35127 1.85352 0
M  V30 4247 H 378.918 -1.12998 0.892604 0
M  V30 4248 H 380.871 -4.20522 0.271907 0
M  V30 4249 H 379.595 -3.22813 -0.495912 0
M  V30 4250 H 378.254 -3.28074 1.63595 0
M  V30 4251 H 377.902 -5.02862 -0.117845 0
M  V30 4252 H 377.602 -5.67765 1.51384 0
M  V30 4253 H 379.126 -6.06938 0.667693 0
M  V30 4254 H 380.54 -5.05688 2.70098 0
M  V30 4255 H 378.937 -4.89254 3.47491 0
M  V30 4256 H 380.007 -3.4826 3.37406 0
M  V30 4257 N 381.35 -0.985608 -1.22978 0
M  V30 4258 C 382.282 -0.488154 -2.23941 0
M  V30 4259 C 383.295 0.41282 -1.57479 0
M  V30 4260 O 384.484 0.216121 -1.77187 0
M  V30 4261 C 381.584 0.312611 -3.37455 0
M  V30 4262 C 380.757 -0.582741 -4.33501 0
M  V30 4263 C 379.816 0.165064 -5.25941 0
M  V30 4264 O 378.842 -0.447077 -5.67442 0
M  V30 4265 N 380.044 1.44953 -5.62111 0
M  V30 4266 H 382.809 -1.3563 -2.67254 0
M  V30 4267 H 380.37 -0.859477 -1.37203 0
M  V30 4268 H 382.362 0.821357 -3.96277 0
M  V30 4269 H 380.932 1.0818 -2.93285 0
M  V30 4270 H 380.152 -1.27225 -3.73105 0
M  V30 4271 H 381.44 -1.19275 -4.94622 0
M  V30 4272 H 380.838 1.9683 -5.30353 0
M  V30 4273 H 379.395 1.90361 -6.23383 0
M  V30 4274 N 382.828 1.3818 -0.7579 0
M  V30 4275 C 384.076 1.99624 -0.315361 0
M  V30 4276 C 384.397 1.60464 1.10799 0
M  V30 4277 O 383.667 0.863507 1.75842 0
M  V30 4278 H 382.247 0.73831 -0.113611 0
M  V30 4279 H 384.909 1.68878 -0.972952 0
M  V30 4280 H 384.005 3.09754 -0.381931 0
M  V30 4281 N 384.306 0.507319 1.49211 0
M  V30 4282 C 385.554 -0.0348839 2.0207 0
M  V30 4283 C 385.875 -1.36898 1.38866 0
M  V30 4284 O 385.145 -1.88133 0.546151 0
M  V30 4285 H 383.725 -0.0158812 0.746831 0
M  V30 4286 H 386.387 0.665998 1.83168 0
M  V30 4287 H 385.483 -0.159917 3.1169 0
M  V30 4288 N 385.784 -1.5574 0.241426 0
M  V30 4289 C 387.03 -1.99104 -0.385406 0
M  V30 4290 C 387.363 -1.1293 -1.57988 0
M  V30 4291 O 386.638 -0.191449 -1.93555 0
M  V30 4292 C 386.921 -3.51087 -0.800616 0
M  V30 4293 C 386.774 -4.48028 0.398874 0
M  V30 4294 C 388.093 -4.08015 -1.64959 0
M  V30 4295 H 385.212 -0.723848 -0.138614 0
M  V30 4296 H 387.854 -1.86903 0.341642 0
M  V30 4297 H 386.004 -3.61615 -1.4201 0
M  V30 4298 H 387.676 -4.49487 1.03726 0
M  V30 4299 H 385.919 -4.21077 1.04293 0
M  V30 4300 H 386.59 -5.51962 0.0651056 0
M  V30 4301 H 389.066 -4.00555 -1.12672 0
M  V30 4302 H 387.942 -5.14635 -1.90898 0
M  V30 4303 H 388.203 -3.56131 -2.61961 0
M  V30 4304 N 387.262 0.0317525 -1.57568 0
M  V30 4305 C 388.192 1.03274 -2.0942 0
M  V30 4306 C 389.173 1.3788 -0.996143 0
M  V30 4307 O 390.358 1.46811 -1.27122 0
M  V30 4308 C 387.488 2.33448 -2.57137 0
M  V30 4309 C 386.442 2.13091 -3.71182 0
M  V30 4310 C 385.768 3.49001 -4.05095 0
M  V30 4311 C 387.068 1.51928 -4.99715 0
M  V30 4312 H 388.762 0.60112 -2.93303 0
M  V30 4313 H 386.308 0.287705 -1.41097 0
M  V30 4314 H 388.261 3.03802 -2.92032 0
M  V30 4315 H 386.985 2.78665 -1.70333 0
M  V30 4316 H 385.644 1.45171 -3.36632 0
M  V30 4317 H 385.292 3.91862 -3.15362 0
M  V30 4318 H 384.992 3.36207 -4.81911 0
M  V30 4319 H 386.516 4.20721 -4.42522 0
M  V30 4320 H 387.93 2.12196 -5.32584 0
M  V30 4321 H 386.327 1.49716 -5.81124 0
M  V30 4322 H 387.397 0.484811 -4.8247 0
M  V30 4323 N 388.74 1.54641 0.303973 0
M  V30 4324 C 389.986 1.74038 1.04109 0
M  V30 4325 C 390.319 0.523051 1.87024 0
M  V30 4326 O 389.594 -0.479874 1.88487 0
M  V30 4327 C 389.877 3.02761 1.94955 0
M  V30 4328 C 389.73 4.34787 1.1524 0
M  V30 4329 C 391.049 3.27336 2.94175 0
M  V30 4330 H 388.168 0.63323 0.377079 0
M  V30 4331 H 390.81 1.87354 0.316001 0
M  V30 4332 H 388.96 2.9154 2.56782 0
M  V30 4333 H 390.632 4.57922 0.557236 0
M  V30 4334 H 388.875 4.31407 0.455053 0
M  V30 4335 H 389.546 5.21116 1.8205 0
M  V30 4336 H 392.022 3.38148 2.42477 0
M  V30 4337 H 390.898 4.18726 3.54908 0
M  V30 4338 H 391.159 2.45491 3.67677 0
M  V30 4339 N 390.218 -0.567019 1.47046 0
M  V30 4340 C 391.166 -1.69593 1.59188 0
M  V30 4341 C 392.16 -1.63046 0.459609 0
M  V30 4342 O 393.366 -1.6835 0.637058 0
M  V30 4343 H 389.741 -0.560993 0.500791 0
M  V30 4344 H 391.712 -1.56488 2.54075 0
M  V30 4345 C 390.461 -3.07964 1.61411 0
M  V30 4346 H 389.784 -3.13679 2.47881 0
M  V30 4347 H 391.224 -3.86671 1.73958 0
M  V30 4348 C 389.683 -3.35123 0.34559 0
M  V30 4349 O 390.213 -3.97812 -0.557521 0
M  V30 4350 N 388.419 -2.89699 0.22864 0
M  V30 4351 H 387.966 -2.38863 0.964479 0
M  V30 4352 H 387.924 -3.08242 -0.619192 0
M  V30 4353 N 391.696 -1.35014 -0.812953 0
M  V30 4354 C 392.606 -1.2951 -1.95613 0
M  V30 4355 C 393.622 -0.20107 -1.72834 0
M  V30 4356 O 394.798 -0.42932 -1.96771 0
M  V30 4357 C 391.863 -1.06033 -3.30088 0
M  V30 4358 C 390.924 -2.24688 -3.65805 0
M  V30 4359 C 390.157 -2.02322 -4.93864 0
M  V30 4360 O 390.38 -0.986464 -5.61805 0
M  V30 4361 O 389.314 -2.89525 -5.27692 0
M  V30 4362 H 393.14 -2.25705 -2.03202 0
M  V30 4363 H 390.725 -1.15321 -0.949811 0
M  V30 4364 H 392.607 -0.94763 -4.10607 0
M  V30 4365 H 391.282 -0.128852 -3.23443 0
M  V30 4366 H 390.189 -2.41521 -2.85689 0
M  V30 4367 H 391.522 -3.16261 -3.77147 0
M  V30 4368 N 393.175 1.03435 -1.18907 0
M  V30 4369 C 394.424 1.76143 -0.982669 0
M  V30 4370 C 394.737 1.89416 0.487953 0
M  V30 4371 O 395.943 2.59041 0.813036 0
M  V30 4372 C 394.399 3.16722 -1.70924 0
M  V30 4373 C 394.007 3.11522 -3.21959 0
M  V30 4374 C 395.751 3.93764 -1.58588 0
M  V30 4375 C 393.658 4.46999 -3.87228 0
M  V30 4376 H 392.588 0.660292 -0.364047 0
M  V30 4377 H 395.239 1.158 -1.42347 0
M  V30 4378 H 393.621 3.775 -1.19623 0
M  V30 4379 H 394.795 2.60158 -3.80335 0
M  V30 4380 H 393.11 2.47978 -3.34508 0
M  V30 4381 H 395.707 4.93963 -2.04707 0
M  V30 4382 H 396.05 4.12794 -0.539142 0
M  V30 4383 H 396.583 3.39576 -2.07203 0
M  V30 4384 H 393.322 4.33174 -4.91976 0
M  V30 4385 H 392.842 4.98441 -3.33642 0
M  V30 4386 H 394.521 5.15898 -3.90459 0
M  V30 4387 N 394.653 0.992116 1.22453 0
M  V30 4388 C 395.583 0.561677 2.26644 0
M  V30 4389 C 396.564 -0.411055 1.65059 0
M  V30 4390 O 397.749 -0.301861 1.9184 0
M  V30 4391 C 394.879 -0.125247 3.47074 0
M  V30 4392 C 393.833 0.765948 4.21091 0
M  V30 4393 C 393.159 -0.0538484 5.34673 0
M  V30 4394 C 394.459 2.06242 4.79856 0
M  V30 4395 H 396.153 1.43259 2.62902 0
M  V30 4396 H 393.699 0.690283 1.26377 0
M  V30 4397 H 395.652 -0.437764 4.1912 0
M  V30 4398 H 394.376 -1.03069 3.0991 0
M  V30 4399 H 393.035 1.0621 3.50878 0
M  V30 4400 H 392.683 -0.960188 4.9375 0
M  V30 4401 H 392.383 0.539415 5.85119 0
M  V30 4402 H 393.907 -0.360477 6.09535 0
M  V30 4403 H 395.321 1.8139 5.43848 0
M  V30 4404 H 393.718 2.60444 5.40638 0
M  V30 4405 H 394.788 2.74167 3.99951 0
M  V30 4406 N 396.131 -1.37776 0.765217 0
M  V30 4407 C 397.079 -2.32209 0.134798 0
M  V30 4408 C 398.073 -1.54607 -0.692315 0
M  V30 4409 O 399.279 -1.70052 -0.590109 0
M  V30 4410 H 395.654 -0.751591 0.0248005 0
M  V30 4411 H 397.625 -2.8297 0.947119 0
M  V30 4412 C 396.374 -3.39841 -0.735063 0
M  V30 4413 H 395.697 -3.99654 -0.107991 0
M  V30 4414 H 397.137 -4.08296 -1.14326 0
M  V30 4415 C 395.596 -2.79378 -1.88281 0
M  V30 4416 O 396.126 -2.69608 -2.97783 0
M  V30 4417 N 394.332 -2.37016 -1.68142 0
M  V30 4418 H 393.879 -2.45162 -0.790772 0
M  V30 4419 H 393.837 -1.96905 -2.45104 0
M  V30 4420 N 397.609 -0.515225 -1.4894 0
M  V30 4421 C 398.559 0.275113 -2.26334 0
M  V30 4422 C 399.543 0.923007 -1.31793 0
M  V30 4423 O 400.735 0.828254 -1.56426 0
M  V30 4424 C 397.864 1.33041 -3.16473 0
M  V30 4425 C 396.95 0.688051 -4.18481 0
M  V30 4426 N 397.341 -0.217638 -5.05332 0
M  V30 4427 C 395.639 0.94699 -4.3583 0
M  V30 4428 C 396.34 -0.58676 -5.78733 0
M  V30 4429 N 395.316 0.0486966 -5.43578 0
M  V30 4430 H 399.118 -0.421876 -2.90856 0
M  V30 4431 H 396.632 -0.332249 -1.58965 0
M  V30 4432 H 398.629 1.9102 -3.70563 0
M  V30 4433 H 397.289 2.02894 -2.53504 0
M  V30 4434 H 398.3 -0.589343 -5.14536 0
M  V30 4435 H 394.977 1.63719 -3.8406 0
M  V30 4436 H 396.367 -1.32855 -6.58634 0
M  V30 4437 N 399.087 1.5561 -0.249682 0
M  V30 4438 C 400.02 2.17537 0.689408 0
M  V30 4439 C 400.998 1.12829 1.17083 0
M  V30 4440 O 402.182 1.41229 1.24846 0
M  V30 4441 C 399.309 2.77828 1.93725 0
M  V30 4442 C 398.355 3.95615 1.59346 0
M  V30 4443 S 399.188 5.30988 0.69367 0
M  V30 4444 C 400.344 5.94734 1.95046 0
M  V30 4445 H 400.577 2.96852 0.163142 0
M  V30 4446 H 398.11 1.54362 -0.0341166 0
M  V30 4447 H 400.068 3.13199 2.65361 0
M  V30 4448 H 398.729 1.98454 2.43465 0
M  V30 4449 H 397.922 4.364 2.52132 0
M  V30 4450 H 397.524 3.61535 0.957512 0
M  V30 4451 H 399.816 6.12419 2.89739 0
M  V30 4452 H 400.759 6.90109 1.58604 0
M  V30 4453 H 401.167 5.23832 2.10381 0
M  V30 4454 N 400.565 -0.0233959 1.57583 0
M  V30 4455 C 401.512 -1.02224 2.06927 0
M  V30 4456 C 402.482 -1.35575 0.959617 0
M  V30 4457 O 403.667 -1.45815 1.23055 0
M  V30 4458 C 400.807 -2.31636 2.5581 0
M  V30 4459 C 399.92 -2.04394 3.80588 0
M  V30 4460 C 399.055 -3.27717 4.18061 0
M  V30 4461 C 398.094 -2.96056 5.3574 0
M  V30 4462 N 397.231 -4.11847 5.68618 0
M  V30 4463 H 402.071 -0.594504 2.9201 0
M  V30 4464 H 399.608 -0.281921 1.44373 0
M  V30 4465 H 401.566 -3.07258 2.82221 0
M  V30 4466 H 400.196 -2.72122 1.73636 0
M  V30 4467 H 399.248 -1.19244 3.61227 0
M  V30 4468 H 400.56 -1.77042 4.66323 0
M  V30 4469 H 399.714 -4.11702 4.4563 0
M  V30 4470 H 398.453 -3.58188 3.30988 0
M  V30 4471 H 397.458 -2.10474 5.07918 0
M  V30 4472 H 398.683 -2.66857 6.24471 0
M  V30 4473 H 396.629 -4.42258 4.84504 0
M  V30 4474 H 396.546 -3.87938 6.48876 0
M  V30 4475 H 397.814 -4.96689 6.00766 0
M  V30 4476 N 402.043 -1.548 -0.295768 0
M  V30 4477 C 403.459 -1.4613 -0.641722 0
M  V30 4478 C 403.659 -0.656771 -1.90496 0
M  V30 4479 O 402.715 -0.166547 -2.5195 0
M  V30 4480 C 404.028 -2.90141 -0.789852 0
M  V30 4481 C 405.576 -3.00216 -0.885396 0
M  V30 4482 C 406.051 -4.45434 -1.06548 0
M  V30 4483 N 407.542 -4.49166 -1.13156 0
M  V30 4484 C 408.277 -5.58717 -1.28929 0
M  V30 4485 N 407.773 -6.78182 -1.41567 0
M  V30 4486 N 409.566 -5.46415 -1.31859 0
M  V30 4487 H 401.717 -2.05574 0.534147 0
M  V30 4488 H 403.98 -0.931259 0.177372 0
M  V30 4489 H 403.686 -3.51635 0.0675598 0
M  V30 4490 H 403.56 -3.37859 -1.67724 0
M  V30 4491 H 405.947 -2.38833 -1.73329 0
M  V30 4492 H 406.028 -2.55787 0.0261185 0
M  V30 4493 H 405.672 -5.07413 -0.222335 0
M  V30 4494 H 405.602 -4.87499 -1.9913 0
M  V30 4495 H 408.093 -3.631 -1.04721 0
M  V30 4496 H 408.406 -7.57428 -1.53372 0
M  V30 4497 H 406.751 -6.81037 -1.38613 0
M  V30 4498 H 409.942 -4.5203 -1.21601 0
M  V30 4499 H 410.115 -6.31841 -1.43808 0
M  V30 4500 N 403.521 0.559213 -1.47345 0
M  V30 4501 C 404.484 1.64854 -1.59235 0
M  V30 4502 C 405.484 1.53851 -0.467607 0
M  V30 4503 O 406.674 1.58045 -0.732617 0
M  V30 4504 C 403.806 3.04388 -1.53496 0
M  V30 4505 H 404.999 1.55662 -2.56339 0
M  V30 4506 H 402.552 0.778973 -1.35505 0
M  V30 4507 H 403.287 3.19115 -0.577604 0
M  V30 4508 H 403.072 3.13783 -2.35123 0
M  V30 4509 H 404.562 3.83642 -1.6495 0
M  V30 4510 N 404.999 1.35443 0.805782 0
M  V30 4511 C 406.227 1.31878 1.59423 0
M  V30 4512 C 406.642 -0.103562 1.88516 0
M  V30 4513 O 405.999 -1.05575 1.48863 0
M  V30 4514 C 406.05 2.12426 2.92502 0
M  V30 4515 O 405.771 3.49115 2.6467 0
M  V30 4516 C 407.272 2.16455 3.86862 0
M  V30 4517 H 404.492 0.453002 0.495005 0
M  V30 4518 H 407.036 1.78309 1.00131 0
M  V30 4519 H 405.191 1.69593 3.48306 0
M  V30 4520 H 405.605 3.90957 3.49647 0
M  V30 4521 H 407.079 2.77204 4.77349 0
M  V30 4522 H 407.556 1.16352 4.23508 0
M  V30 4523 H 408.162 2.59453 3.36993 0
M  V30 4524 N 406.477 -1.02803 1.19454 0
M  V30 4525 C 407.409 -2.11181 0.890807 0
M  V30 4526 C 408.422 -1.6238 -0.116829 0
M  V30 4527 O 409.611 -1.78144 0.112694 0
M  V30 4528 C 406.711 -3.37461 0.311942 0
M  V30 4529 C 405.884 -4.15446 1.36834 0
M  V30 4530 C 404.943 -5.20039 0.802864 0
M  V30 4531 O 403.969 -5.49602 1.48077 0
M  V30 4532 N 405.171 -5.79165 -0.393417 0
M  V30 4533 H 407.936 -2.37827 1.82369 0
M  V30 4534 H 405.497 -1.19101 1.09666 0
M  V30 4535 H 407.489 -4.0462 -0.0802225 0
M  V30 4536 H 406.059 -3.08156 -0.52524 0
M  V30 4537 H 405.279 -3.43423 1.93531 0
M  V30 4538 H 406.567 -4.64335 2.08015 0
M  V30 4539 H 405.965 -5.57466 -0.961658 0
M  V30 4540 H 404.522 -6.47729 -0.727351 0
M  V30 4541 N 407.956 -0.998596 -1.21925 0
M  V30 4542 C 409.205 -0.673085 -1.90138 0
M  V30 4543 C 409.518 0.79895 -1.78539 0
M  V30 4544 O 410.724 1.23628 -2.4172 0
M  V30 4545 C 409.18 -1.15339 -3.40918 0
M  V30 4546 C 408.788 -2.65106 -3.61141 0
M  V30 4547 C 410.532 -0.902476 -4.14796 0
M  V30 4548 C 408.439 -3.0671 -5.05651 0
M  V30 4549 H 407.369 -0.248057 -0.712028 0
M  V30 4550 H 410.02 -1.20891 -1.38049 0
M  V30 4551 H 408.402 -0.545658 -3.92223 0
M  V30 4552 H 409.576 -3.31274 -3.20304 0
M  V30 4553 H 407.891 -2.88142 -3.00605 0
M  V30 4554 H 410.488 -1.18895 -5.21314 0
M  V30 4555 H 410.831 0.161349 -4.15987 0
M  V30 4556 H 411.364 -1.47269 -3.69536 0
M  V30 4557 H 408.103 -4.12292 -5.09603 0
M  V30 4558 H 407.623 -2.45249 -5.47369 0
M  V30 4559 H 409.302 -2.9833 -5.74115 0
M  V30 4560 N 409.434 1.37368 -0.772513 0
M  V30 4561 C 410.845 1.8231 -0.402493 0
M  V30 4562 C 411.196 1.6436 1.07146 0
M  V30 4563 O 410.321 1.15514 1.82991 0
M  V30 4564 C 410.916 3.30979 -0.723776 0
M  V30 4565 C 409.475 3.74195 -0.406802 0
M  V30 4566 C 408.622 2.59885 -0.967218 0
M  V30 4567 H 411.573 1.25829 -0.967099 0
M  V30 4568 H 411.594 3.80499 -0.00870832 0
M  V30 4569 H 411.106 3.44011 -1.7966 0
M  V30 4570 H 409.207 3.66732 0.658673 0
M  V30 4571 H 409.32 4.7027 -0.915588 0
M  V30 4572 H 407.684 2.51674 -0.391416 0
M  V30 4573 H 408.467 2.7571 -2.04546 0
M  V30 4574 N 410.912 0.523116 1.48665 0
M  V30 4575 C 412.137 -0.0117284 2.07397 0
M  V30 4576 C 412.562 -1.28031 1.37803 0
M  V30 4577 O 411.92 -1.75836 0.441762 0
M  V30 4578 C 411.968 -0.225786 3.59892 0
M  V30 4579 O 411.072 -1.29592 3.91509 0
M  V30 4580 H 410.413 0.0360673 0.66302 0
M  V30 4581 H 412.943 0.729066 1.9117 0
M  V30 4582 H 412.953 -0.450552 4.05505 0
M  V30 4583 H 411.628 0.700944 4.09951 0
M  V30 4584 H 410.205 -1.05436 3.57684 0
M  V30 4585 N 412.39 -1.55475 0.257931 0
M  V30 4586 C 413.62 -2.03314 -0.367026 0
M  V30 4587 C 414.028 -1.13625 -1.51281 0
M  V30 4588 O 413.371 -0.145334 -1.83124 0
M  V30 4589 C 413.433 -3.47362 -0.926284 0
M  V30 4590 C 413.097 -4.56914 0.0886584 0
M  V30 4591 C 414.094 -5.12013 0.902123 0
M  V30 4592 C 411.779 -5.01827 0.217936 0
M  V30 4593 C 413.773 -6.10529 1.83122 0
M  V30 4594 C 411.46 -6.00172 1.15052 0
M  V30 4595 C 412.458 -6.54402 1.95568 0
M  V30 4596 O 412.146 -7.50827 2.87253 0
M  V30 4597 H 411.878 -0.669976 -0.0900443 0
M  V30 4598 H 414.432 -2.01804 0.382673 0
M  V30 4599 H 412.662 -3.46056 -1.72575 0
M  V30 4600 H 414.351 -3.78637 -1.46249 0
M  V30 4601 H 415.117 -4.78139 0.812891 0
M  V30 4602 H 410.996 -4.59272 -0.398721 0
M  V30 4603 H 414.54 -6.52783 2.46008 0
M  V30 4604 H 410.437 -6.33465 1.24064 0
M  V30 4605 H 411.205 -7.68483 2.81739 0
M  V30 4606 N 413.868 0.0150385 -1.57593 0
M  V30 4607 C 414.815 1.01126 -2.07466 0
M  V30 4608 C 415.785 1.35064 -0.966794 0
M  V30 4609 O 416.97 1.4516 -1.23827 0
M  V30 4610 C 414.11 2.30276 -2.57035 0
M  V30 4611 C 413.223 2.02373 -3.81666 0
M  V30 4612 C 412.358 3.25496 -4.19793 0
M  V30 4613 C 411.397 2.93211 -5.37303 0
M  V30 4614 N 410.534 4.08826 -5.70794 0
M  V30 4615 H 415.374 0.57901 -2.92321 0
M  V30 4616 H 412.911 0.27426 -1.44521 0
M  V30 4617 H 414.869 3.05757 -2.83846 0
M  V30 4618 H 413.499 2.71197 -1.75077 0
M  V30 4619 H 412.551 1.17327 -3.61854 0
M  V30 4620 H 413.863 1.74567 -4.67256 0
M  V30 4621 H 413.017 4.09333 -4.47807 0
M  V30 4622 H 411.756 3.56428 -3.32882 0
M  V30 4623 H 410.761 2.07777 -5.09027 0
M  V30 4624 H 411.986 2.63542 -6.25877 0
M  V30 4625 H 409.932 4.39682 -4.86842 0
M  V30 4626 H 409.849 3.84491 -6.50924 0
M  V30 4627 H 411.117 4.93496 -6.03392 0
M  V30 4628 N 415.346 1.54954 0.287554 0
M  V30 4629 C 416.293 1.86834 1.35505 0
M  V30 4630 C 417.263 0.718452 1.49758 0
M  V30 4631 O 418.448 0.968358 1.644 0
M  V30 4632 C 415.588 2.13303 2.71286 0
M  V30 4633 C 414.701 3.40883 2.65373 0
M  V30 4634 C 413.836 3.57125 3.93236 0
M  V30 4635 C 412.875 4.78449 3.81776 0
M  V30 4636 N 412.012 4.91426 5.01443 0
M  V30 4637 H 416.852 2.77889 1.07619 0
M  V30 4638 H 414.389 1.37593 0.520241 0
M  V30 4639 H 416.347 2.26646 3.50267 0
M  V30 4640 H 414.977 1.25499 2.97405 0
M  V30 4641 H 414.029 3.36088 1.78182 0
M  V30 4642 H 415.341 4.29993 2.52799 0
M  V30 4643 H 414.495 3.70207 4.80658 0
M  V30 4644 H 413.234 2.66173 4.0866 0
M  V30 4645 H 412.239 4.65386 2.92738 0
M  V30 4646 H 413.464 5.70822 3.67884 0
M  V30 4647 H 411.41 4.03401 5.17304 0
M  V30 4648 H 411.327 5.74559 4.91343 0
M  V30 4649 H 412.595 5.08879 5.90477 0
M  V30 4650 N 416.824 -0.551391 1.4764 0
M  V30 4651 C 417.754 -1.66757 1.63445 0
M  V30 4652 C 418.735 -1.63077 0.483742 0
M  V30 4653 O 419.92 -1.80607 0.71377 0
M  V30 4654 C 417.05 -3.05387 1.65396 0
M  V30 4655 C 416.004 -3.23918 2.79752 0
M  V30 4656 C 415.33 -4.63393 2.66779 0
M  V30 4657 C 416.63 -3.08735 4.21284 0
M  V30 4658 H 418.324 -1.53786 2.56886 0
M  V30 4659 H 415.87 -0.738415 1.23626 0
M  V30 4660 H 417.823 -3.83325 1.75043 0
M  V30 4661 H 416.547 -3.19332 0.685195 0
M  V30 4662 H 415.206 -2.48391 2.69625 0
M  V30 4663 H 414.854 -4.74144 1.67918 0
M  V30 4664 H 414.554 -4.7674 3.43501 0
M  V30 4665 H 416.078 -5.43458 2.78364 0
M  V30 4666 H 417.492 -3.76484 4.32357 0
M  V30 4667 H 415.889 -3.33588 4.98838 0
M  V30 4668 H 416.959 -2.0541 4.39243 0
M  V30 4669 N 418.302 -1.35869 -0.798587 0
M  V30 4670 C 419.551 -1.28921 -1.5512 0
M  V30 4671 C 419.864 0.13208 -1.95154 0
M  V30 4672 O 421.07 0.323879 -2.69561 0
M  V30 4673 C 419.526 -2.26141 -2.79979 0
M  V30 4674 C 419.134 -3.73658 -2.47151 0
M  V30 4675 C 420.878 -2.28152 -3.57976 0
M  V30 4676 C 418.785 -4.62679 -3.6835 0
M  V30 4677 H 417.715 -0.479031 -0.582276 0
M  V30 4678 H 420.366 -1.61179 -0.877125 0
M  V30 4679 H 418.748 -1.86865 -3.49138 0
M  V30 4680 H 419.922 -4.21616 -1.85947 0
M  V30 4681 H 418.237 -3.74333 -1.82383 0
M  V30 4682 H 420.834 -2.91875 -4.4801 0
M  V30 4683 H 421.177 -1.28748 -3.95891 0
M  V30 4684 H 421.71 -2.65998 -2.95787 0
M  V30 4685 H 418.449 -5.63111 -3.35538 0
M  V30 4686 H 417.969 -4.19442 -4.28752 0
M  V30 4687 H 419.648 -4.78498 -4.35487 0
M  V30 4688 N 419.78 1.02168 -1.19998 0
M  V30 4689 C 420.713 2.10232 -0.887558 0
M  V30 4690 C 421.691 1.61827 0.158317 0
M  V30 4691 O 422.875 1.88471 0.0330249 0
M  V30 4692 C 420.002 3.37092 -0.32964 0
M  V30 4693 C 419.048 4.0438 -1.3557 0
M  V30 4694 S 419.881 4.48956 -2.91888 0
M  V30 4695 C 421.037 5.79024 -2.37658 0
M  V30 4696 H 421.27 2.36409 -1.80272 0
M  V30 4697 H 418.803 1.15211 -1.0279 0
M  V30 4698 H 420.761 4.10498 -0.0142824 0
M  V30 4699 H 419.422 3.08996 0.563941 0
M  V30 4700 H 418.615 4.95632 -0.9146 0
M  V30 4701 H 418.217 3.37176 -1.61828 0
M  V30 4702 H 420.509 6.53942 -1.77103 0
M  V30 4703 H 421.452 6.27924 -3.27287 0
M  V30 4704 H 421.86 5.35043 -1.79971 0
M  V30 4705 N 421.258 1.00505 1.21394 0
M  V30 4706 C 422.488 0.705584 1.94178 0
M  V30 4707 C 422.896 -0.735846 1.74304 0
M  V30 4708 O 422.239 -1.50954 1.04683 0
M  V30 4709 C 422.301 0.94689 3.46806 0
M  V30 4710 C 421.965 2.37517 3.90429 0
M  V30 4711 C 422.962 3.35539 3.97127 0
M  V30 4712 C 420.647 2.71284 4.22742 0
M  V30 4713 C 422.641 4.65395 4.3553 0
M  V30 4714 C 420.328 4.01356 4.60822 0
M  V30 4715 C 421.326 4.98223 4.67186 0
M  V30 4716 O 421.014 6.25969 5.04399 0
M  V30 4717 H 420.746 0.259216 0.624326 0
M  V30 4718 H 423.3 1.34592 1.55159 0
M  V30 4719 H 421.53 0.249386 3.85895 0
M  V30 4720 H 423.219 0.640804 4.0081 0
M  V30 4721 H 423.985 3.10786 3.7234 0
M  V30 4722 H 419.864 1.96581 4.16985 0
M  V30 4723 H 423.408 5.41002 4.40412 0
M  V30 4724 H 419.305 4.25893 4.85063 0
M  V30 4725 H 420.073 6.30085 5.22431 0
M  V30 4726 N 422.737 -1.36956 0.779787 0
M  V30 4727 C 423.962 -2.04283 0.358224 0
M  V30 4728 C 424.387 -1.58422 -1.01411 0
M  V30 4729 O 423.745 -0.748179 -1.65142 0
M  V30 4730 C 423.793 -3.58152 0.419479 0
M  V30 4731 O 422.897 -4.08342 -0.577142 0
M  V30 4732 H 422.238 -0.645967 0.153698 0
M  V30 4733 H 424.768 -1.75108 1.05822 0
M  V30 4734 H 424.778 -4.07041 0.279636 0
M  V30 4735 H 423.453 -3.90886 1.42061 0
M  V30 4736 H 422.03 -3.70751 -0.399755 0
M  V30 4737 N 424.215 -0.530993 -1.48385 0
M  V30 4738 C 425.178 0.220497 -2.28137 0
M  V30 4739 C 426.178 0.866851 -1.35434 0
M  V30 4740 O 427.368 0.726746 -1.58316 0
M  V30 4741 C 424.5 1.31921 -3.1434 0
M  V30 4742 H 425.693 -0.479714 -2.96038 0
M  V30 4743 H 423.246 -0.286968 -1.53643 0
M  V30 4744 H 423.981 2.05264 -2.51072 0
M  V30 4745 H 423.766 0.86085 -3.82533 0
M  V30 4746 H 425.256 1.84776 -3.74497 0
M  V30 4747 N 425.693 1.55336 -0.266172 0
M  V30 4748 C 426.643 2.18848 0.639497 0
M  V30 4749 C 427.627 1.1503 1.12503 0
M  V30 4750 O 428.819 1.40875 1.0716 0
M  V30 4751 C 425.948 2.90626 1.82733 0
M  V30 4752 C 425.034 4.01723 1.35939 0
M  V30 4753 N 425.425 5.02145 0.606988 0
M  V30 4754 C 423.723 4.1463 1.6431 0
M  V30 4755 C 424.424 5.80572 0.362138 0
M  V30 4756 N 423.4 5.35551 0.931971 0
M  V30 4757 H 427.202 2.93845 0.0567057 0
M  V30 4758 H 424.716 1.62252 -0.0693312 0
M  V30 4759 H 426.713 3.34569 2.48735 0
M  V30 4760 H 425.373 2.17137 2.41416 0
M  V30 4761 H 426.384 5.17271 0.255198 0
M  V30 4762 H 423.061 3.52326 2.23993 0
M  V30 4763 H 424.451 6.71472 -0.239848 0
M  V30 4764 N 427.171 -0.0066808 1.57599 0
M  V30 4765 C 428.448 -0.729586 1.81484 0
M  V30 4766 C 428.828 -1.92359 0.869558 0
M  V30 4767 O 428.176 -2.28348 -0.0832533 0
M  V30 4768 C 428.386 -1.1416 3.29801 0
M  V30 4769 C 429.734 -1.54823 3.95367 0
M  V30 4770 O 430.758 -1.23558 3.34084 0
M  V30 4771 O 429.617 -2.12937 5.03309 0
M  V30 4772 H 426.711 -0.354674 0.747085 0
M  V30 4773 H 429.257 0.0182609 1.6969 0
M  V30 4774 H 428.029 -0.290231 3.90222 0
M  V30 4775 H 427.652 -1.94876 3.46568 0
M  V30 4776 N 428.649 -1.55105 -0.279332 0
M  V30 4777 C 429.877 -1.7943 -1.03017 0
M  V30 4778 C 430.292 -0.564456 -1.80165 0
M  V30 4779 O 429.649 0.466326 -1.76442 0
M  V30 4780 C 429.7 -3.0155 -1.99374 0
M  V30 4781 O 429.421 -4.19784 -1.25352 0
M  V30 4782 C 430.922 -3.3843 -2.86321 0
M  V30 4783 H 428.142 -0.597882 -0.304594 0
M  V30 4784 H 430.686 -2.02105 -0.312035 0
M  V30 4785 H 428.841 -2.81019 -2.66659 0
M  V30 4786 H 429.255 -4.88781 -1.90246 0
M  V30 4787 H 430.729 -4.27066 -3.49741 0
M  V30 4788 H 431.206 -2.57549 -3.5576 0
M  V30 4789 H 431.812 -3.61197 -2.24536 0
M  V30 4790 N 430.127 0.543554 -1.4793 0
M  V30 4791 C 431.355 1.32516 -1.58894 0
M  V30 4792 C 431.77 1.87215 -0.244131 0
M  V30 4793 O 431.127 1.65709 0.764652 0
M  V30 4794 C 431.178 2.48554 -2.62494 0
M  V30 4795 O 430.899 1.96112 -3.91755 0
M  V30 4796 C 432.4 3.40572 -2.8377 0
M  V30 4797 H 429.62 0.403472 -0.536145 0
M  V30 4798 H 432.164 0.657106 -1.93655 0
M  V30 4799 H 430.319 3.1127 -2.30629 0
M  V30 4800 H 430.733 2.71967 -4.4848 0
M  V30 4801 H 432.207 4.18375 -3.60093 0
M  V30 4802 H 432.684 3.94965 -1.92092 0
M  V30 4803 H 433.29 2.8366 -3.16887 0
M  V30 4804 N 431.605 1.3629 0.791371 0
M  V30 4805 C 432.851 1.30605 1.55146 0
M  V30 4806 C 433.184 -0.115042 1.93859 0
M  V30 4807 O 432.459 -1.06798 1.62556 0
M  V30 4808 C 432.742 2.22692 2.82985 0
M  V30 4809 C 432.595 3.73489 2.50651 0
M  V30 4810 C 433.914 2.13588 3.84796 0
M  V30 4811 H 431.033 0.475761 0.562868 0
M  V30 4812 H 433.675 1.66825 0.909358 0
M  V30 4813 H 431.825 1.91933 3.37778 0
M  V30 4814 H 433.497 4.14758 2.01924 0
M  V30 4815 H 431.74 3.93021 1.83622 0
M  V30 4816 H 432.411 4.3333 3.41949 0
M  V30 4817 H 434.887 2.40659 3.39445 0
M  V30 4818 H 433.763 2.80195 4.71998 0
M  V30 4819 H 434.024 1.12256 4.27611 0
M  V30 4820 N 433.083 -1.0153 1.20538 0
M  V30 4821 C 434.308 -1.79283 1.04271 0
M  V30 4822 C 434.733 -1.8372 -0.403544 0
M  V30 4823 O 434.091 -1.27321 -1.2907 0
M  V30 4824 C 434.139 -3.21535 1.63241 0
M  V30 4825 O 433.243 -4.03099 0.870908 0
M  V30 4826 H 432.584 -0.55293 0.367647 0
M  V30 4827 H 435.114 -1.27696 1.59859 0
M  V30 4828 H 435.124 -3.72243 1.6703 0
M  V30 4829 H 433.799 -3.1762 2.68497 0
M  V30 4830 H 432.376 -3.61693 0.907323 0
M  V30 4831 N 434.561 -1.01147 -1.20859 0
M  V30 4832 C 435.809 -0.696486 -1.89719 0
M  V30 4833 C 436.13 0.775788 -1.78904 0
M  V30 4834 O 435.4 1.55759 -1.18811 0
M  V30 4835 H 433.98 -0.254628 -0.702263 0
M  V30 4836 H 436.642 -1.28197 -1.46804 0
M  V30 4837 H 435.738 -0.975357 -2.96468 0
M  V30 4838 N 436.039 1.36541 -0.78704 0
M  V30 4839 C 436.969 2.32659 -0.197992 0
M  V30 4840 C 437.95 1.56533 0.665697 0
M  V30 4841 O 439.135 1.84698 0.60001 0
M  V30 4842 C 436.265 3.40778 0.669901 0
M  V30 4843 C 435.219 4.27897 -0.0937039 0
M  V30 4844 C 434.545 5.27163 0.894629 0
M  V30 4845 C 435.845 5.06334 -1.28154 0
M  V30 4846 H 437.539 2.82171 -1.00099 0
M  V30 4847 H 435.085 1.35665 -0.482793 0
M  V30 4848 H 437.038 4.07008 1.09191 0
M  V30 4849 H 435.762 2.89827 1.50558 0
M  V30 4850 H 434.421 3.6322 -0.49666 0
M  V30 4851 H 434.069 4.72486 1.72527 0
M  V30 4852 H 433.769 5.86317 0.388149 0
M  V30 4853 H 435.293 5.96266 1.31525 0
M  V30 4854 H 436.707 5.65617 -0.93541 0
M  V30 4855 H 435.104 5.74888 -1.72115 0
M  V30 4856 H 436.174 4.38114 -2.07807 0
M  V30 4857 N 437.518 0.538854 1.48102 0
M  V30 4858 C 438.45 -0.256278 2.27763 0
M  V30 4859 C 439.463 -0.89633 1.35904 0
M  V30 4860 O 440.652 -0.773275 1.60881 0
M  V30 4861 C 437.752 -1.37896 3.09577 0
M  V30 4862 C 436.925 -0.839159 4.29275 0
M  V30 4863 C 435.984 -1.84405 4.9283 0
M  V30 4864 O 435.01 -1.39746 5.51779 0
M  V30 4865 N 436.212 -3.17666 4.85869 0
M  V30 4866 H 438.977 0.426968 2.96643 0
M  V30 4867 H 436.538 0.373747 1.57527 0
M  V30 4868 H 438.53 -2.04955 3.48963 0
M  V30 4869 H 437.1 -1.96572 2.4306 0
M  V30 4870 H 436.32 0.00769287 3.94199 0
M  V30 4871 H 437.608 -0.457548 5.06739 0
M  V30 4872 H 437.006 -3.56609 4.39143 0
M  V30 4873 H 435.563 -3.80334 5.29329 0
M  V30 4874 N 438.996 -1.55193 0.274407 0
M  V30 4875 C 439.929 -2.18606 -0.654712 0
M  V30 4876 C 440.907 -1.14677 -1.15273 0
M  V30 4877 O 442.091 -1.43198 -1.22583 0
M  V30 4878 C 439.218 -2.80875 -1.89281 0
M  V30 4879 C 438.264 -3.981 -1.53032 0
M  V30 4880 S 439.097 -5.32025 -0.609107 0
M  V30 4881 C 440.253 -5.97761 -1.85559 0
M  V30 4882 H 440.486 -2.97074 -0.115894 0
M  V30 4883 H 438.019 -1.54288 0.05867 0
M  V30 4884 H 439.977 -3.17381 -2.60345 0
M  V30 4885 H 438.638 -2.02302 -2.40277 0
M  V30 4886 H 437.831 -4.40356 -2.45158 0
M  V30 4887 H 437.433 -3.63013 -0.899874 0
M  V30 4888 H 439.725 -6.16951 -2.7996 0
M  V30 4889 H 440.668 -6.92545 -1.47605 0
M  V30 4890 H 441.076 -5.27113 -2.02021 0
M  V30 4891 N 440.474 -0.00167713 -1.576 0
M  V30 4892 C 441.437 0.974046 -2.07473 0
M  V30 4893 C 442.437 1.27143 -0.984444 0
M  V30 4894 O 443.627 1.21633 -1.24703 0
M  V30 4895 C 440.759 2.29849 -2.51759 0
M  V30 4896 H 441.952 0.54262 -2.9495 0
M  V30 4897 H 439.505 0.245829 -1.54355 0
M  V30 4898 H 440.24 2.77677 -1.67529 0
M  V30 4899 H 440.025 2.09584 -3.31386 0
M  V30 4900 H 441.515 2.9984 -2.90664 0
M  V30 4901 N 441.952 1.55251 0.271103 0
M  V30 4902 C 442.882 1.9127 1.33933 0
M  V30 4903 C 443.863 0.77478 1.5143 0
M  V30 4904 O 445.048 1.03307 1.64442 0
M  V30 4905 C 442.178 2.18627 2.69851 0
M  V30 4906 C 441.132 3.34442 2.67081 0
M  V30 4907 C 440.458 3.47284 4.06569 0
M  V30 4908 C 441.758 4.70784 2.26185 0
M  V30 4909 H 443.452 2.80744 1.04035 0
M  V30 4910 H 440.998 1.35077 0.499017 0
M  V30 4911 H 442.951 2.42413 3.44694 0
M  V30 4912 H 441.675 1.25955 3.01335 0
M  V30 4913 H 440.334 3.10627 1.94695 0
M  V30 4914 H 439.982 2.52074 4.35279 0
M  V30 4915 H 439.682 4.25152 4.0561 0
M  V30 4916 H 441.206 3.73363 4.83148 0
M  V30 4917 H 442.62 4.94102 2.90751 0
M  V30 4918 H 441.017 5.51582 2.36384 0
M  V30 4919 H 442.087 4.69478 1.21319 0
M  V30 4920 N 443.43 -0.535701 1.48216 0
M  V30 4921 C 444.707 -1.29683 1.46429 0
M  V30 4922 C 445.087 -2.10391 0.172852 0
M  V30 4923 O 444.435 -2.12282 -0.845488 0
M  V30 4924 C 444.645 -2.18313 2.72287 0
M  V30 4925 C 445.993 -2.78639 3.20383 0
M  V30 4926 O 447.017 -2.28604 2.73164 0
M  V30 4927 O 445.876 -3.69636 4.02531 0
M  V30 4928 H 442.97 -0.585026 0.584529 0
M  V30 4929 H 445.516 -0.552827 1.60443 0
M  V30 4930 H 444.288 -1.58421 3.57797 0
M  V30 4931 H 443.911 -2.99971 2.60966 0
M  V30 4932 N 444.908 -1.36708 -0.784132 0
M  V30 4933 C 446.154 -1.31426 -1.54451 0
M  V30 4934 C 446.487 0.10476 -1.93917 0
M  V30 4935 O 445.762 1.05934 -1.6312 0
M  V30 4936 C 446.045 -2.24189 -2.818 0
M  V30 4937 C 445.898 -3.74813 -2.48667 0
M  V30 4938 C 447.217 -2.15626 -3.83658 0
M  V30 4939 H 444.336 -0.478739 -0.560337 0
M  V30 4940 H 446.978 -1.67305 -0.900498 0
M  V30 4941 H 445.128 -1.93722 -3.36755 0
M  V30 4942 H 446.8 -4.15823 -1.99722 0
M  V30 4943 H 445.043 -3.93989 -1.81535 0
M  V30 4944 H 445.714 -4.35138 -3.39646 0
M  V30 4945 H 448.19 -2.42456 -3.38163 0
M  V30 4946 H 447.066 -2.82694 -4.70506 0
M  V30 4947 H 447.327 -1.14522 -4.27009 0
M  V30 4948 N 446.386 1.0089 -1.21074 0
M  V30 4949 C 447.616 1.77933 -1.04993 0
M  V30 4950 C 448.024 1.84847 0.403495 0
M  V30 4951 O 447.367 1.30606 1.29181 0
M  V30 4952 C 447.429 3.23541 -1.56722 0
M  V30 4953 C 447.093 3.40214 -3.05129 0
M  V30 4954 C 448.09 3.2881 -4.02716 0
M  V30 4955 C 445.775 3.65781 -3.44252 0
M  V30 4956 C 447.769 3.42732 -5.37414 0
M  V30 4957 C 445.456 3.79346 -4.79103 0
M  V30 4958 C 446.454 3.67827 -5.75493 0
M  V30 4959 O 446.142 3.80965 -7.07899 0
M  V30 4960 H 445.874 0.566157 -0.369381 0
M  V30 4961 H 448.428 1.27826 -1.60779 0
M  V30 4962 H 446.658 3.74766 -0.953285 0
M  V30 4963 H 448.347 3.82245 -1.36543 0
M  V30 4964 H 449.113 3.08986 -3.73835 0
M  V30 4965 H 444.992 3.73831 -2.69762 0
M  V30 4966 H 448.536 3.33658 -6.12632 0
M  V30 4967 H 444.433 3.98672 -5.07672 0
M  V30 4968 H 445.201 3.97937 -7.15254 0
M  V30 4969 N 447.864 1.01787 1.20321 0
M  V30 4970 C 448.812 0.58254 2.25187 0
M  V30 4971 C 449.806 -0.379359 1.65098 0
M  V30 4972 O 451.012 -0.249142 1.78267 0
M  V30 4973 H 447.387 0.170078 0.732514 0
M  V30 4974 H 449.358 1.47788 2.59232 0
M  V30 4975 C 448.107 -0.0620885 3.47645 0
M  V30 4976 H 447.43 0.669069 3.94162 0
M  V30 4977 H 448.87 -0.329784 4.22716 0
M  V30 4978 C 447.329 -1.3053 3.10586 0
M  V30 4979 O 447.859 -2.39848 3.22236 0
M  V30 4980 N 446.065 -1.18988 2.65123 0
M  V30 4981 H 445.612 -0.300341 2.55843 0
M  V30 4982 H 445.57 -2.02267 2.40698 0
M  V30 4983 N 449.342 -1.36122 0.79427 0
M  V30 4984 C 450.59 -1.98718 0.368177 0
M  V30 4985 C 450.911 -1.63345 -1.06506 0
M  V30 4986 O 450.181 -0.909825 -1.73491 0
M  V30 4987 H 448.761 -0.735038 0.133146 0
M  V30 4988 H 451.423 -1.66239 1.01739 0
M  V30 4989 H 450.519 -3.08633 0.463923 0
M  V30 4990 N 450.82 -0.546701 -1.47814 0
M  V30 4991 C 451.75 0.195317 -2.32682 0
M  V30 4992 C 452.731 0.918981 -1.43139 0
M  V30 4993 O 453.916 0.901501 -1.72008 0
M  V30 4994 C 451.046 1.23237 -3.247 0
M  V30 4995 C 450 0.625818 -4.234 0
M  V30 4996 C 449.326 1.76674 -5.04669 0
M  V30 4997 C 450.626 -0.413515 -5.2066 0
M  V30 4998 H 452.32 -0.513184 -2.94969 0
M  V30 4999 H 449.866 -0.248241 -1.41844 0
M  V30 5000 H 451.819 1.75955 -3.82907 0
M  V30 5001 H 450.543 1.97067 -2.60446 0
M  V30 5002 H 449.202 0.120023 -3.66403 0
M  V30 5003 H 448.85 2.49383 -4.36826 0
M  V30 5004 H 448.55 1.36673 -5.71484 0
M  V30 5005 H 450.074 2.29738 -5.65732 0
M  V30 5006 H 451.488 0.0272042 -5.73294 0
M  V30 5007 H 449.885 -0.731825 -5.95621 0
M  V30 5008 H 450.955 -1.31325 -4.66778 0
M  V30 5009 N 452.299 1.55045 -0.282633 0
M  V30 5010 C 453.229 2.2579 0.595066 0
M  V30 5011 C 454.21 1.25074 1.15284 0
M  V30 5012 O 455.395 1.5381 1.18559 0
M  V30 5013 C 452.525 2.98472 1.77572 0
M  V30 5014 C 451.479 4.0618 1.34914 0
M  V30 5015 C 450.805 4.66477 2.6135 0
M  V30 5016 C 452.105 5.1996 0.493821 0
M  V30 5017 H 453.799 2.994 0.00505653 0
M  V30 5018 H 451.345 1.44 0.000992001 0
M  V30 5019 H 453.298 3.46677 2.39568 0
M  V30 5020 H 452.022 2.2241 2.39168 0
M  V30 5021 H 450.681 3.58797 0.752338 0
M  V30 5022 H 450.329 3.87074 3.2122 0
M  V30 5023 H 450.029 5.39207 2.33516 0
M  V30 5024 H 451.553 5.17435 3.24181 0
M  V30 5025 H 452.967 5.64172 1.01898 0
M  V30 5026 H 451.364 5.99299 0.310047 0
M  V30 5027 H 452.434 4.82462 -0.485593 0
M  V30 5028 N 453.777 0.010035 1.57597 0
M  V30 5029 C 455.188 -0.531426 1.78977 0
M  V30 5030 C 455.539 -1.73375 0.918454 0
M  V30 5031 O 454.664 -2.16047 0.123635 0
M  V30 5032 C 455.259 -0.97086 3.24592 0
M  V30 5033 C 453.818 -1.45756 3.47033 0
M  V30 5034 C 452.965 -0.413384 2.74201 0
M  V30 5035 H 455.916 0.236166 1.56933 0
M  V30 5036 H 455.937 -1.83633 3.33255 0
M  V30 5037 H 455.449 -0.0955893 3.87982 0
M  V30 5038 H 453.55 -2.35339 2.88871 0
M  V30 5039 H 453.663 -1.4781 4.55729 0
M  V30 5040 H 452.027 -0.877266 2.39115 0
M  V30 5041 H 452.81 0.453092 3.40297 0
M  V30 5042 N 455.255 -1.55392 -0.262866 0
M  V30 5043 C 456.666 -1.67079 -0.833158 0
M  V30 5044 C 457.017 -0.604539 -1.86654 0
M  V30 5045 O 456.142 0.252138 -2.14926 0
M  V30 5046 C 456.737 -3.02891 -1.51797 0
M  V30 5047 C 455.296 -3.16571 -2.03617 0
M  V30 5048 C 454.443 -2.62909 -0.881701 0
M  V30 5049 H 457.394 -1.58652 -0.0389986 0
M  V30 5050 H 457.415 -2.96445 -2.38538 0
M  V30 5051 H 456.927 -3.80473 -0.765619 0
M  V30 5052 H 455.028 -2.43782 -2.81782 0
M  V30 5053 H 455.141 -4.23271 -2.24452 0
M  V30 5054 H 453.505 -2.20324 -1.27786 0
M  V30 5055 H 454.288 -3.43003 -0.14269 0
M  V30 5056 N 456.733 0.527833 -1.48498 0
M  V30 5057 C 457.963 1.30633 -1.60058 0
M  V30 5058 C 458.371 1.87394 -0.260786 0
M  V30 5059 O 457.714 1.67227 0.760317 0
M  V30 5060 C 457.776 2.49361 -2.58958 0
M  V30 5061 C 457.44 2.13671 -4.03972 0
M  V30 5062 C 458.437 1.69217 -4.91591 0
M  V30 5063 C 456.122 2.24129 -4.49524 0
M  V30 5064 C 458.116 1.35689 -6.2279 0
M  V30 5065 C 455.803 1.90212 -5.80743 0
M  V30 5066 C 456.801 1.46063 -6.67199 0
M  V30 5067 O 456.489 1.12593 -7.95976 0
M  V30 5068 H 456.221 0.403444 -0.54241 0
M  V30 5069 H 458.775 0.643233 -1.95068 0
M  V30 5070 H 457.005 3.18659 -2.19073 0
M  V30 5071 H 458.694 3.11421 -2.6033 0
M  V30 5072 H 459.46 1.60607 -4.57636 0
M  V30 5073 H 455.339 2.57447 -3.82416 0
M  V30 5074 H 458.883 1.01157 -6.90227 0
M  V30 5075 H 454.78 1.98464 -6.14233 0
M  V30 5076 H 455.548 1.25972 -8.08748 0
M  V30 5077 N 458.211 1.37122 0.776871 0
M  V30 5078 C 459.174 1.32301 1.8716 0
M  V30 5079 C 460.174 0.228099 1.59174 0
M  V30 5080 O 461.364 0.483642 1.67352 0
M  V30 5081 C 458.496 1.054 3.24197 0
M  V30 5082 H 459.689 2.29673 1.92848 0
M  V30 5083 H 457.242 1.22077 0.97606 0
M  V30 5084 H 457.977 0.0853872 3.24188 0
M  V30 5085 H 457.762 1.84648 3.45901 0
M  V30 5086 H 459.252 1.04664 4.04271 0
M  V30 5087 N 459.689 -1.00246 1.21608 0
M  V30 5088 C 460.914 -1.78167 1.06167 0
M  V30 5089 C 461.339 -1.84138 -0.384035 0
M  V30 5090 O 460.697 -1.28683 -1.27712 0
M  V30 5091 C 460.745 -3.19786 1.66642 0
M  V30 5092 O 459.849 -4.02153 0.913613 0
M  V30 5093 H 459.19 -0.549 0.37349 0
M  V30 5094 H 461.72 -1.25994 1.61204 0
M  V30 5095 H 461.73 -3.70451 1.70969 0
M  V30 5096 H 460.405 -3.14754 2.7185 0
M  V30 5097 H 458.982 -3.60711 0.945635 0
M  V30 5098 N 461.167 -1.02423 -1.1978 0
M  V30 5099 C 462.407 -0.726635 -1.91048 0
M  V30 5100 C 462.771 0.730947 -1.77542 0
M  V30 5101 O 463.972 1.14141 -2.43362 0
M  V30 5102 C 462.243 -1.15964 -3.38064 0
M  V30 5103 S 463.802 -0.985172 -4.27598 0
M  V30 5104 H 460.62 -0.264679 -0.659899 0
M  V30 5105 H 463.222 -1.31309 -1.44838 0
M  V30 5106 H 461.926 -2.21619 -3.45417 0
M  V30 5107 H 461.457 -0.566274 -3.89303 0
M  V30 5108 H 463.472 0.106946 -4.96085 0
M  V30 5109 N 462.645 1.35699 -0.801477 0
M  V30 5110 C 463.595 2.2728 -0.181073 0
M  V30 5111 C 464.579 1.47533 0.642098 0
M  V30 5112 O 465.771 1.69785 0.500193 0
M  V30 5113 C 462.9 3.36626 0.673612 0
M  V30 5114 C 461.986 4.23802 -0.159008 0
M  V30 5115 N 462.377 4.90879 -1.2195 0
M  V30 5116 C 460.675 4.45959 0.0602005 0
M  V30 5117 C 461.376 5.5546 -1.72738 0
M  V30 5118 N 460.352 5.33663 -1.03465 0
M  V30 5119 H 464.154 2.76632 -0.992582 0
M  V30 5120 H 461.668 1.49166 -0.642127 0
M  V30 5121 H 463.665 4.01179 1.13408 0
M  V30 5122 H 462.325 2.88828 1.48353 0
M  V30 5123 H 463.336 4.92497 -1.60209 0
M  V30 5124 H 460.013 4.08969 0.839664 0
M  V30 5125 H 461.403 6.18991 -2.61342 0
M  V30 5126 N 464.123 0.554532 1.47522 0
M  V30 5127 C 465.053 -0.182974 2.32782 0
M  V30 5128 C 466.034 -0.911377 1.43624 0
M  V30 5129 O 467.219 -0.892366 1.72483 0
M  V30 5130 C 464.349 -1.21513 3.25349 0
M  V30 5131 C 463.303 -0.603355 4.23726 0
M  V30 5132 C 462.629 -1.73995 5.05598 0
M  V30 5133 C 463.929 0.441121 5.20434 0
M  V30 5134 H 465.623 0.52882 2.94693 0
M  V30 5135 H 463.169 0.255759 1.41711 0
M  V30 5136 H 465.122 -1.73922 3.83835 0
M  V30 5137 H 463.846 -1.95683 2.61487 0
M  V30 5138 H 462.505 -0.10059 3.66462 0
M  V30 5139 H 462.153 -2.47063 4.38143 0
M  V30 5140 H 461.853 -1.3364 5.72201 0
M  V30 5141 H 463.377 -2.26735 5.66942 0
M  V30 5142 H 464.791 0.00319931 5.733 0
M  V30 5143 H 463.188 0.763402 5.95224 0
M  V30 5144 H 464.258 1.33799 4.66075 0
M  V30 5145 N 465.601 -1.54893 0.290851 0
M  V30 5146 C 466.829 -2.04343 -0.324288 0
M  V30 5147 C 467.244 -1.16859 -1.48289 0
M  V30 5148 O 466.601 -0.192018 -1.81487 0
M  V30 5149 C 466.652 -3.52756 -0.79026 0
M  V30 5150 O 466.373 -4.36913 0.322213 0
M  V30 5151 C 467.874 -4.18161 -1.4716 0
M  V30 5152 H 465.094 -0.667135 -0.0719173 0
M  V30 5153 H 467.638 -1.99981 0.427529 0
M  V30 5154 H 465.793 -3.57511 -1.49213 0
M  V30 5155 H 466.207 -5.24486 -0.0387372 0
M  V30 5156 H 467.681 -5.23562 -1.7489 0
M  V30 5157 H 468.158 -3.67282 -2.40834 0
M  V30 5158 H 468.764 -4.17454 -0.813178 0
M  V30 5159 N 467.08 -0.0183926 -1.57589 0
M  V30 5160 C 467.99 0.982943 -2.13015 0
M  V30 5161 C 469.006 1.36443 -1.07979 0
M  V30 5162 O 470.182 1.44802 -1.3998 0
M  V30 5163 C 467.247 2.25024 -2.63752 0
M  V30 5164 C 466.308 1.93018 -3.83461 0
M  V30 5165 C 465.541 3.13706 -4.31769 0
M  V30 5166 O 465.764 4.2601 -3.79305 0
M  V30 5167 O 464.698 2.96629 -5.23732 0
M  V30 5168 H 468.524 0.541709 -2.9883 0
M  V30 5169 H 466.109 0.201565 -1.48034 0
M  V30 5170 H 467.991 2.99441 -2.96502 0
M  V30 5171 H 466.666 2.68349 -1.81026 0
M  V30 5172 H 465.573 1.16019 -3.55655 0
M  V30 5173 H 466.906 1.54516 -4.67317 0
M  V30 5174 N 468.558 1.5553 0.254621 0
M  V30 5175 C 469.488 1.9268 1.31897 0
M  V30 5176 C 470.469 0.790797 1.506 0
M  V30 5177 O 471.654 1.05045 1.63337 0
M  V30 5178 C 468.784 2.21477 2.67517 0
M  V30 5179 C 467.738 3.37256 2.63519 0
M  V30 5180 C 467.064 3.51576 4.02862 0
M  V30 5181 C 468.364 4.73157 2.21179 0
M  V30 5182 H 470.058 2.81832 1.01051 0
M  V30 5183 H 467.604 1.35599 0.484662 0
M  V30 5184 H 469.557 2.46055 3.42104 0
M  V30 5185 H 468.281 1.29144 2.99982 0
M  V30 5186 H 466.94 3.12675 1.9139 0
M  V30 5187 H 466.588 2.56676 4.32581 0
M  V30 5188 H 466.288 4.2943 4.01078 0
M  V30 5189 H 467.812 3.78467 4.79161 0
M  V30 5190 H 469.226 4.97158 2.85494 0
M  V30 5191 H 467.623 5.54058 2.30521 0
M  V30 5192 H 468.693 4.70739 1.16332 0
M  V30 5193 N 470.036 -0.519951 1.48776 0
M  V30 5194 C 471.266 -1.29783 1.60748 0
M  V30 5195 C 471.674 -1.87253 0.27072 0
M  V30 5196 O 471.017 -1.67628 -0.751438 0
M  V30 5197 C 471.079 -2.47984 2.60277 0
M  V30 5198 C 470.743 -2.11526 4.051 0
M  V30 5199 C 471.74 -1.66608 4.92481 0
M  V30 5200 C 469.425 -2.21742 4.50706 0
M  V30 5201 C 471.419 -1.32384 6.23501 0
M  V30 5202 C 469.106 -1.87129 5.81744 0
M  V30 5203 C 470.104 -1.42523 6.67964 0
M  V30 5204 O 469.792 -1.0837 7.96562 0
M  V30 5205 H 469.524 -0.400562 0.544542 0
M  V30 5206 H 472.078 -0.632879 1.95407 0
M  V30 5207 H 470.308 -3.17493 2.2076 0
M  V30 5208 H 471.997 -3.10036 2.61978 0
M  V30 5209 H 472.763 -1.58178 4.58481 0
M  V30 5210 H 468.642 -2.55415 3.83776 0
M  V30 5211 H 472.186 -0.974949 6.90754 0
M  V30 5212 H 468.083 -1.95204 6.15277 0
M  V30 5213 H 468.851 -1.21681 8.09405 0
M  V30 5214 N 471.514 -1.37532 -0.769588 0
M  V30 5215 C 472.761 -1.3286 -1.52822 0
M  V30 5216 C 473.089 0.0862597 -1.94309 0
M  V30 5217 O 472.344 1.05995 -1.6451 0
M  V30 5218 C 472.643 -2.21558 -2.8044 0
M  V30 5219 C 472.309 -3.69796 -2.57996 0
M  V30 5220 C 470.971 -4.10194 -2.51583 0
M  V30 5221 C 473.323 -4.63699 -2.37976 0
M  V30 5222 C 470.651 -5.42608 -2.23144 0
M  V30 5223 C 473.003 -5.96353 -2.1106 0
M  V30 5224 C 471.667 -6.35853 -2.03093 0
M  V30 5225 H 470.937 -0.486168 -0.559215 0
M  V30 5226 H 473.584 -1.69757 -0.886277 0
M  V30 5227 H 471.889 -1.77663 -3.49204 0
M  V30 5228 H 473.586 -2.15256 -3.38328 0
M  V30 5229 H 470.176 -3.37759 -2.63851 0
M  V30 5230 H 474.36 -4.33346 -2.41919 0
M  V30 5231 H 469.616 -5.72173 -2.15472 0
M  V30 5232 H 473.79 -6.68667 -1.94568 0
M  V30 5233 H 471.417 -7.38382 -1.8082 0
M  V30 5234 N 472.992 0.995999 -1.22138 0
M  V30 5235 C 473.902 2.11985 -1.00496 0
M  V30 5236 C 474.918 1.7394 0.0457701 0
M  V30 5237 O 476.094 2.00868 -0.146273 0
M  V30 5238 C 473.159 3.41779 -0.582086 0
M  V30 5239 C 472.22 3.93943 -1.70608 0
M  V30 5240 C 471.453 5.17542 -1.30328 0
M  V30 5241 O 471.676 5.70114 -0.180743 0
M  V30 5242 O 470.61 5.63382 -2.11861 0
M  V30 5243 H 474.436 2.33123 -1.94647 0
M  V30 5244 H 472.021 1.10358 -1.00705 0
M  V30 5245 H 473.903 4.1989 -0.356467 0
M  V30 5246 H 472.578 3.22007 0.330592 0
M  V30 5247 H 471.485 3.17019 -1.98619 0
M  V30 5248 H 472.818 4.18141 -2.59651 0
M  V30 5249 N 474.47 1.03057 1.19235 0
M  V30 5250 C 475.417 0.612832 2.22515 0
M  V30 5251 C 476.387 -0.374224 1.61829 0
M  V30 5252 O 477.572 -0.270501 1.88873 0
M  V30 5253 C 474.712 -0.028475 3.45088 0
M  V30 5254 C 473.825 1.00483 4.20151 0
M  V30 5255 C 472.96 0.333102 5.30155 0
M  V30 5256 C 471.999 1.3522 5.96977 0
M  V30 5257 N 471.136 0.70616 6.9854 0
M  V30 5258 H 475.976 1.49812 2.57605 0
M  V30 5259 H 473.513 0.749658 1.26564 0
M  V30 5260 H 475.471 -0.417548 4.15105 0
M  V30 5261 H 474.101 -0.877334 3.10649 0
M  V30 5262 H 473.153 1.51194 3.49062 0
M  V30 5263 H 474.465 1.77929 4.65986 0
M  V30 5264 H 473.619 -0.110725 6.06599 0
M  V30 5265 H 472.358 -0.473547 4.85396 0
M  V30 5266 H 471.363 1.80627 5.19282 0
M  V30 5267 H 472.588 2.16037 6.4382 0
M  V30 5268 H 470.534 -0.0803667 6.55951 0
M  V30 5269 H 470.451 1.41848 7.42573 0
M  V30 5270 H 471.719 0.286391 7.78974 0
M  V30 5271 N 475.948 -1.35272 0.808662 0
M  V30 5272 C 477.196 -1.98316 0.389233 0
M  V30 5273 C 477.517 -1.64465 -1.04767 0
M  V30 5274 O 476.787 -0.928175 -1.72516 0
M  V30 5275 H 475.367 -0.733585 0.140935 0
M  V30 5276 H 478.029 -1.6515 1.03496 0
M  V30 5277 H 477.125 -3.08123 0.496631 0
M  V30 5278 N 477.426 -0.562348 -1.47226 0
M  V30 5279 C 478.336 0.185466 -2.33866 0
M  V30 5280 C 479.352 0.906713 -1.48508 0
M  V30 5281 O 480.528 0.874458 -1.81425 0
M  V30 5282 C 477.593 1.19904 -3.25306 0
M  V30 5283 C 476.654 0.484669 -4.26555 0
M  V30 5284 C 475.887 1.44996 -5.13626 0
M  V30 5285 O 476.11 2.68515 -5.03245 0
M  V30 5286 O 475.044 0.971642 -5.94006 0
M  V30 5287 H 478.87 -0.525361 -2.99121 0
M  V30 5288 H 476.455 -0.322916 -1.45868 0
M  V30 5289 H 478.337 1.78399 -3.81774 0
M  V30 5290 H 477.012 1.8917 -2.62672 0
M  V30 5291 H 475.919 -0.141605 -3.73832 0
M  V30 5292 H 477.252 -0.166634 -4.91918 0
M  V30 5293 N 478.904 1.54736 -0.299062 0
M  V30 5294 C 480.134 2.04215 0.312992 0
M  V30 5295 C 480.542 1.17596 1.48215 0
M  V30 5296 O 479.885 0.193835 1.82674 0
M  V30 5297 C 479.947 3.49696 0.833862 0
M  V30 5298 C 479.611 4.56518 -0.20977 0
M  V30 5299 C 480.608 5.09442 -1.03756 0
M  V30 5300 C 478.293 5.01073 -0.35091 0
M  V30 5301 C 480.287 6.05459 -1.99244 0
M  V30 5302 C 477.974 5.9691 -1.30924 0
M  V30 5303 C 478.972 6.48987 -2.1285 0
M  V30 5304 O 478.66 7.42947 -3.07059 0
M  V30 5305 H 478.392 0.672128 0.0722494 0
M  V30 5306 H 480.946 2.00718 -0.436043 0
M  V30 5307 H 479.176 3.5051 1.63339 0
M  V30 5308 H 480.865 3.82381 1.36159 0
M  V30 5309 H 481.631 4.75816 -0.939376 0
M  V30 5310 H 477.51 4.60168 0.276813 0
M  V30 5311 H 481.054 6.46031 -2.63229 0
M  V30 5312 H 476.951 6.29953 -1.40815 0
M  V30 5313 H 477.719 7.60743 -3.02015 0
M  V30 5314 N 480.382 0.0267497 1.57577 0
M  V30 5315 C 481.629 -0.652404 1.91703 0
M  V30 5316 C 481.957 -1.72271 0.902936 0
M  V30 5317 O 481.212 -1.955 -0.0884843 0
M  V30 5318 C 481.511 -1.30914 3.3256 0
M  V30 5319 C 481.177 -0.369441 4.49384 0
M  V30 5320 C 479.839 -0.110791 4.81072 0
M  V30 5321 C 482.191 0.275971 5.20469 0
M  V30 5322 C 479.519 0.801116 5.81205 0
M  V30 5323 C 481.871 1.17592 6.21575 0
M  V30 5324 C 480.535 1.44348 6.51705 0
M  V30 5325 H 479.805 -0.238732 0.70149 0
M  V30 5326 H 482.452 0.0880091 1.91298 0
M  V30 5327 H 480.757 -2.12425 3.29216 0
M  V30 5328 H 482.454 -1.84115 3.56234 0
M  V30 5329 H 479.044 -0.581211 4.24641 0
M  V30 5330 H 483.228 0.0892 4.9622 0
M  V30 5331 H 478.484 1.01614 6.02897 0
M  V30 5332 H 482.658 1.68223 6.75777 0
M  V30 5333 H 480.285 2.15176 7.29111 0
M  V30 5334 N 481.861 -1.55662 -0.24637 0
M  V30 5335 C 483.107 -1.77782 -0.975779 0
M  V30 5336 C 483.44 -0.592103 -1.84953 0
M  V30 5337 O 482.715 0.409588 -1.90138 0
M  V30 5338 C 482.998 -3.09788 -1.83584 0
M  V30 5339 C 482.851 -4.38764 -0.990241 0
M  V30 5340 C 484.17 -3.38029 -2.81823 0
M  V30 5341 H 481.289 -0.646789 -0.353317 0
M  V30 5342 H 483.931 -1.88398 -0.246248 0
M  V30 5343 H 482.081 -3.00869 -2.45784 0
M  V30 5344 H 483.753 -4.59675 -0.386897 0
M  V30 5345 H 481.996 -4.32798 -0.294626 0
M  V30 5346 H 482.667 -5.27514 -1.62584 0
M  V30 5347 H 485.143 -3.46915 -2.2976 0
M  V30 5348 H 484.019 -4.3161 -3.39122 0
M  V30 5349 H 484.28 -2.58968 -3.58313 0
M  V30 5350 N 483.339 0.512053 -1.4905 0
M  V30 5351 C 484.249 1.64139 -1.67617 0
M  V30 5352 C 485.265 1.64786 -0.558701 0
M  V30 5353 O 486.441 1.8341 -0.832034 0
M  V30 5354 C 483.506 3.00548 -1.72835 0
M  V30 5355 C 482.567 3.10615 -2.96339 0
M  V30 5356 C 481.8 4.40517 -3.01298 0
M  V30 5357 O 482.023 5.28671 -2.14157 0
M  V30 5358 O 480.957 4.55325 -3.93653 0
M  V30 5359 H 484.783 1.51407 -2.63267 0
M  V30 5360 H 482.368 0.687131 -1.32661 0
M  V30 5361 H 484.25 3.81641 -1.78683 0
M  V30 5362 H 482.925 3.13566 -0.803616 0
M  V30 5363 H 481.832 2.2875 -2.96014 0
M  V30 5364 H 483.165 3.0252 -3.88256 0
M  V30 5365 N 484.817 1.37938 0.762283 0
M  V30 5366 C 485.75 1.2884 1.88349 0
M  V30 5367 C 486.728 0.167084 1.61739 0
M  V30 5368 O 487.912 0.34292 1.85355 0
M  V30 5369 C 485.039 0.994257 3.23778 0
M  V30 5370 C 484.085 2.13376 3.69287 0
M  V30 5371 S 484.918 3.75439 3.81845 0
M  V30 5372 C 486.074 3.48195 5.20107 0
M  V30 5373 H 486.307 2.23736 1.95779 0
M  V30 5374 H 483.84 1.23672 0.924368 0
M  V30 5375 H 485.798 0.83138 4.01993 0
M  V30 5376 H 484.459 0.0626251 3.14038 0
M  V30 5377 H 483.652 1.88319 4.67495 0
M  V30 5378 H 483.254 2.25726 2.98201 0
M  V30 5379 H 485.546 3.0377 6.05583 0
M  V30 5380 H 486.489 4.45765 5.50181 0
M  V30 5381 H 486.897 2.82905 4.88493 0
M  V30 5382 N 486.295 -0.989507 1.22664 0
M  V30 5383 C 487.525 -1.7624 1.0781 0
M  V30 5384 C 487.933 -1.85466 -0.374036 0
M  V30 5385 O 487.276 -1.32645 -1.27087 0
M  V30 5386 C 487.338 -3.21007 1.61849 0
M  V30 5387 C 487.002 -3.35316 3.10503 0
M  V30 5388 C 487.999 -3.22362 4.07896 0
M  V30 5389 C 485.684 -3.60258 3.50028 0
M  V30 5390 C 487.678 -3.34139 5.42798 0
M  V30 5391 C 485.365 -3.71676 4.85078 0
M  V30 5392 C 486.363 -3.58625 5.81272 0
M  V30 5393 O 486.051 -3.69655 7.1387 0
M  V30 5394 H 485.783 -0.560209 0.378341 0
M  V30 5395 H 488.337 -1.25252 1.62792 0
M  V30 5396 H 486.567 -3.73202 1.01279 0
M  V30 5397 H 488.256 -3.80024 1.42606 0
M  V30 5398 H 489.022 -3.03 3.78703 0
M  V30 5399 H 484.901 -3.69492 2.75675 0
M  V30 5400 H 488.445 -3.23869 6.17863 0
M  V30 5401 H 484.342 -3.90545 5.1395 0
M  V30 5402 H 485.11 -3.86507 7.21495 0
M  V30 5403 N 487.773 -1.03688 -1.18687 0
M  V30 5404 C 489.003 -0.756819 -1.92239 0
M  V30 5405 C 489.411 0.689374 -1.76194 0
M  V30 5406 O 488.754 1.48126 -1.08648 0
M  V30 5407 C 488.816 -1.03851 -3.44173 0
M  V30 5408 C 488.48 -2.47785 -3.83994 0
M  V30 5409 C 489.477 -3.4595 -3.88091 0
M  V30 5410 C 487.162 -2.82397 -4.154 0
M  V30 5411 C 489.156 -4.76779 -4.23038 0
M  V30 5412 C 486.843 -4.13433 -4.50018 0
M  V30 5413 C 487.841 -5.10434 -4.53813 0
M  V30 5414 O 487.529 -6.39122 -4.87625 0
M  V30 5415 H 487.261 -0.275678 -0.617234 0
M  V30 5416 H 489.815 -1.38658 -1.51536 0
M  V30 5417 H 488.045 -0.351612 -3.85098 0
M  V30 5418 H 489.734 -0.746846 -3.9897 0
M  V30 5419 H 490.5 -3.20549 -3.63969 0
M  V30 5420 H 486.379 -2.07568 -4.11627 0
M  V30 5421 H 489.923 -5.52488 -4.25914 0
M  V30 5422 H 485.82 -4.38604 -4.736 0
M  V30 5423 H 486.588 -6.43715 -5.05542 0
M  V30 5424 N 489.251 1.34841 -0.815825 0
M  V30 5425 C 490.667 1.51543 -0.500697 0
M  V30 5426 C 490.867 1.76261 0.976444 0
M  V30 5427 O 489.923 1.8094 1.76117 0
M  V30 5428 C 491.236 2.68487 -1.35407 0
M  V30 5429 C 492.784 2.82368 -1.35046 0
M  V30 5430 C 493.259 4.02347 -2.18816 0
M  V30 5431 N 494.75 4.09542 -2.16402 0
M  V30 5432 C 495.485 5.01517 -2.77971 0
M  V30 5433 N 494.981 5.98763 -3.48503 0
M  V30 5434 N 496.774 4.94334 -2.67563 0
M  V30 5435 H 488.925 1.17055 -1.77234 0
M  V30 5436 H 491.188 0.573481 -0.754866 0
M  V30 5437 H 490.894 2.56829 -2.40274 0
M  V30 5438 H 490.768 3.63321 -1.01377 0
M  V30 5439 H 493.155 2.93471 -0.309604 0
M  V30 5440 H 493.236 1.88363 -1.73069 0
M  V30 5441 H 492.88 3.92004 -3.22948 0
M  V30 5442 H 492.81 4.95551 -1.78148 0
M  V30 5443 H 495.301 3.39932 -1.65091 0
M  V30 5444 H 495.614 6.6556 -3.92747 0
M  V30 5445 H 493.959 5.98909 -3.52609 0
M  V30 5446 H 497.15 4.1732 -2.12041 0
M  V30 5447 H 497.323 5.6582 -3.15834 0
M  V30 5448 N 490.729 0.570148 1.46925 0
M  V30 5449 C 491.677 -0.183181 2.31878 0
M  V30 5450 C 492.671 -0.896721 1.43719 0
M  V30 5451 O 493.877 -0.816536 1.60414 0
M  V30 5452 H 490.252 -0.077944 0.74795 0
M  V30 5453 H 492.223 0.552312 2.93244 0
M  V30 5454 C 490.972 -1.19172 3.2664 0
M  V30 5455 H 490.295 -0.652088 3.94446 0
M  V30 5456 H 491.735 -1.68946 3.88887 0
M  V30 5457 C 490.194 -2.24627 2.51086 0
M  V30 5458 O 490.724 -3.31773 2.26472 0
M  V30 5459 N 488.93 -1.98898 2.11867 0
M  V30 5460 H 488.477 -1.11777 2.32086 0
M  V30 5461 H 488.435 -2.6967 1.61634 0
M  V30 5462 N 492.207 -1.54576 0.307264 0
M  V30 5463 C 493.117 -2.27435 -0.57536 0
M  V30 5464 C 494.133 -1.31183 -1.14311 0
M  V30 5465 O 495.309 -1.64175 -1.16656 0
M  V30 5466 C 492.374 -3.00566 -1.72803 0
M  V30 5467 C 491.435 -4.12369 -1.19373 0
M  V30 5468 C 490.668 -4.82003 -2.29147 0
M  V30 5469 O 490.891 -4.51038 -3.49171 0
M  V30 5470 O 489.825 -5.69271 -1.95485 0
M  V30 5471 H 493.651 -3.03696 0.0158558 0
M  V30 5472 H 491.236 -1.49219 0.0735064 0
M  V30 5473 H 493.118 -3.46416 -2.39946 0
M  V30 5474 H 491.793 -2.27195 -2.30574 0
M  V30 5475 H 490.7 -3.70905 -0.487851 0
M  V30 5476 H 492.033 -4.87736 -0.661376 0
M  V30 5477 N 493.685 -0.035106 -1.57561 0
M  V30 5478 C 494.913 0.652258 -1.9635 0
M  V30 5479 C 495.328 1.65317 -0.911897 0
M  V30 5480 O 494.685 1.82194 0.105657 0
M  V30 5481 C 494.736 1.35337 -3.35211 0
M  V30 5482 O 494.457 0.392548 -4.36338 0
M  V30 5483 C 495.958 2.13199 -3.88666 0
M  V30 5484 H 493.178 0.179444 -0.646561 0
M  V30 5485 H 495.722 -0.0966459 -2.04271 0
M  V30 5486 H 493.877 2.05362 -3.28489 0
M  V30 5487 H 494.291 0.891097 -5.16875 0
M  V30 5488 H 495.765 2.577 -4.88154 0
M  V30 5489 H 496.242 2.97353 -3.23231 0
M  V30 5490 H 496.848 1.48118 -3.98674 0
M  V30 5491 N 495.163 1.55791 0.238111 0
M  V30 5492 C 496.095 1.87513 1.31802 0
M  V30 5493 C 497.108 0.762053 1.43863 0
M  V30 5494 O 498.297 1.04024 1.45056 0
M  V30 5495 C 495.397 2.05402 2.69561 0
M  V30 5496 C 494.57 3.3632 2.79656 0
M  V30 5497 C 493.629 3.43844 3.98319 0
M  V30 5498 O 492.655 4.16994 3.87433 0
M  V30 5499 N 493.857 2.73777 5.11885 0
M  V30 5500 H 496.622 2.80734 1.04922 0
M  V30 5501 H 494.183 1.56135 0.428196 0
M  V30 5502 H 496.175 2.07769 3.47296 0
M  V30 5503 H 494.745 1.18884 2.89111 0
M  V30 5504 H 493.965 3.46195 1.88528 0
M  V30 5505 H 495.253 4.22594 2.83358 0
M  V30 5506 H 494.651 2.14094 5.23622 0
M  V30 5507 H 493.208 2.81825 5.87723 0
M  V30 5508 N 496.642 -0.504142 1.49319 0
M  V30 5509 C 497.592 -1.60284 1.62151 0
M  V30 5510 C 498.576 -1.53657 0.477315 0
M  V30 5511 O 499.768 -1.6124 0.730108 0
M  V30 5512 C 496.897 -2.98909 1.68844 0
M  V30 5513 C 495.983 -3.10544 2.8883 0
M  V30 5514 N 496.374 -2.92078 4.12946 0
M  V30 5515 C 494.672 -3.4164 2.86702 0
M  V30 5516 C 495.373 -3.07812 4.93585 0
M  V30 5517 N 494.349 -3.36549 4.26891 0
M  V30 5518 H 498.151 -1.44656 2.55835 0
M  V30 5519 H 495.665 -0.710198 1.46048 0
M  V30 5520 H 497.662 -3.77865 1.76134 0
M  V30 5521 H 496.322 -3.15609 0.762943 0
M  V30 5522 H 497.333 -2.68316 4.42975 0
M  V30 5523 H 494.01 -3.64537 2.03517 0
M  V30 5524 H 495.4 -2.98054 6.02174 0
M  V30 5525 N 498.12 -1.38341 -0.754957 0
M  V30 5526 C 499.03 -1.3769 -1.89944 0
M  V30 5527 C 500.046 -0.274194 -1.71826 0
M  V30 5528 O 501.222 -0.512391 -1.94773 0
M  V30 5529 C 498.287 -1.19938 -3.25293 0
M  V30 5530 C 497.348 -2.40001 -3.55946 0
M  V30 5531 C 496.581 -2.23087 -4.84838 0
M  V30 5532 O 496.804 -1.22386 -5.57116 0
M  V30 5533 O 495.738 -3.11646 -5.14937 0
M  V30 5534 H 499.564 -2.3412 -1.93446 0
M  V30 5535 H 497.149 -1.19246 -0.900044 0
M  V30 5536 H 499.031 -1.12093 -4.06218 0
M  V30 5537 H 497.706 -0.265919 -3.22606 0
M  V30 5538 H 496.613 -2.53421 -2.75188 0
M  V30 5539 H 497.946 -3.31973 -3.63394 0
M  V30 5540 N 499.598 0.982988 -1.23187 0
M  V30 5541 C 501.009 1.53847 -1.05773 0
M  V30 5542 C 501.36 1.92568 0.375744 0
M  V30 5543 O 500.485 1.75783 1.26211 0
M  V30 5544 C 501.08 2.79567 -1.91384 0
M  V30 5545 C 499.639 3.31524 -1.78238 0
M  V30 5546 C 498.786 2.04534 -1.87246 0
M  V30 5547 H 501.737 0.802962 -1.36888 0
M  V30 5548 H 501.758 3.52317 -1.43711 0
M  V30 5549 H 501.27 2.51353 -2.95708 0
M  V30 5550 H 499.371 3.64623 -0.766875 0
M  V30 5551 H 499.484 4.01457 -2.61475 0
M  V30 5552 H 497.848 2.1855 -1.30797 0
M  V30 5553 H 498.631 1.78706 -2.9312 0
M  V30 5554 N 501.076 1.04316 1.18135 0
M  V30 5555 C 502.306 0.767003 1.91835 0
M  V30 5556 C 502.714 -0.68002 1.76557 0
M  V30 5557 O 502.057 -1.47548 1.09432 0
M  V30 5558 C 502.119 1.05674 3.43618 0
M  V30 5559 C 501.783 2.49818 3.82675 0
M  V30 5560 C 502.78 3.48003 3.86251 0
M  V30 5561 C 500.465 2.84596 4.13897 0
M  V30 5562 C 502.459 4.79016 4.20503 0
M  V30 5563 C 500.146 4.15813 4.4782 0
M  V30 5564 C 501.144 5.12834 4.51099 0
M  V30 5565 O 500.832 6.41699 4.84229 0
M  V30 5566 H 500.564 0.278948 0.615763 0
M  V30 5567 H 503.118 1.3946 1.50798 0
M  V30 5568 H 501.348 0.372029 3.84906 0
M  V30 5569 H 503.037 0.767994 3.98568 0
M  V30 5570 H 503.803 3.22475 3.62264 0
M  V30 5571 H 499.682 2.09748 4.1052 0
M  V30 5572 H 503.226 5.54739 4.22978 0
M  V30 5573 H 499.123 4.41109 4.71268 0
M  V30 5574 H 499.891 6.46387 5.02121 0
M  V30 5575 N 502.554 -1.34406 0.822964 0
M  V30 5576 C 503.965 -1.8069 0.469879 0
M  V30 5577 C 504.316 -1.68223 -1.00972 0
M  V30 5578 O 503.441 -1.22226 -1.78577 0
M  V30 5579 C 504.036 -3.28064 0.846118 0
M  V30 5580 C 502.595 -3.72428 0.545402 0
M  V30 5581 C 501.742 -2.56116 1.06301 0
M  V30 5582 H 504.693 -1.22153 1.01313 0
M  V30 5583 H 504.714 -3.80205 0.149922 0
M  V30 5584 H 504.226 -3.37107 1.92304 0
M  V30 5585 H 502.327 -3.68924 -0.522109 0
M  V30 5586 H 502.44 -4.66548 1.0895 0
M  V30 5587 H 500.804 -2.50048 0.484554 0
M  V30 5588 H 501.587 -2.67928 2.14638 0
M  V30 5589 N 504.032 -0.577932 -1.46621 0
M  V30 5590 C 504.962 0.145917 -2.33044 0
M  V30 5591 C 505.943 0.888412 -1.45056 0
M  V30 5592 O 507.128 0.864812 -1.73881 0
M  V30 5593 C 504.258 1.16322 -3.27241 0
M  V30 5594 C 503.212 0.535868 -4.24632 0
M  V30 5595 C 502.538 1.65929 -5.08303 0
M  V30 5596 C 503.838 -0.523861 -5.19666 0
M  V30 5597 H 505.532 -0.575636 -2.93814 0
M  V30 5598 H 503.078 -0.278272 -1.41286 0
M  V30 5599 H 505.031 1.67793 -3.86553 0
M  V30 5600 H 503.755 1.91498 -2.64567 0
M  V30 5601 H 502.414 0.0422759 -3.66576 0
M  V30 5602 H 502.062 2.40061 -4.42018 0
M  V30 5603 H 501.762 1.2452 -5.74255 0
M  V30 5604 H 503.286 2.17686 -5.70478 0
M  V30 5605 H 504.7 -0.0944059 -5.73222 0
M  V30 5606 H 503.097 -0.858 -5.93935 0
M  V30 5607 H 504.167 -1.41197 -4.63887 0
M  V30 5608 N 505.51 1.54411 -0.315457 0
M  V30 5609 C 506.443 2.20265 0.596522 0
M  V30 5610 C 507.421 1.17693 1.12192 0
M  V30 5611 O 508.605 1.46397 1.18744 0
M  V30 5612 C 505.732 2.85794 1.81767 0
M  V30 5613 C 504.778 4.02017 1.42424 0
M  V30 5614 S 505.611 5.33452 0.467836 0
M  V30 5615 C 506.767 6.02471 1.69645 0
M  V30 5616 H 507 2.97277 0.0370896 0
M  V30 5617 H 504.533 1.54079 -0.0995562 0
M  V30 5618 H 506.491 3.24172 2.51839 0
M  V30 5619 H 505.152 2.08601 2.34828 0
M  V30 5620 H 504.345 4.46701 2.33396 0
M  V30 5621 H 503.947 3.65271 0.803311 0
M  V30 5622 H 506.239 6.24157 2.63504 0
M  V30 5623 H 507.182 6.96215 1.29192 0
M  V30 5624 H 507.59 5.32284 1.87974 0
M  V30 5625 N 506.988 0.0434614 1.5754 0
M  V30 5626 C 507.918 -0.931651 2.14109 0
M  V30 5627 C 508.899 -1.32971 1.06079 0
M  V30 5628 O 510.084 -1.40579 1.33982 0
M  V30 5629 C 507.214 -2.20914 2.67982 0
M  V30 5630 C 506.168 -1.95139 3.80926 0
M  V30 5631 C 505.494 -3.29276 4.21285 0
M  V30 5632 C 506.794 -1.27913 5.06395 0
M  V30 5633 H 508.488 -0.460497 2.95837 0
M  V30 5634 H 506.034 -0.220058 1.42309 0
M  V30 5635 H 507.987 -2.89522 3.06194 0
M  V30 5636 H 506.711 -2.70221 1.83434 0
M  V30 5637 H 505.37 -1.28945 3.43175 0
M  V30 5638 H 505.018 -3.76369 3.33699 0
M  V30 5639 H 504.718 -3.12831 4.97404 0
M  V30 5640 H 506.242 -3.99129 4.62091 0
M  V30 5641 H 507.656 -1.86544 5.42102 0
M  V30 5642 H 506.053 -1.2182 5.87605 0
M  V30 5643 H 507.123 -0.254066 4.84234 0
M  V30 5644 N 508.466 -1.55915 -0.229846 0
M  V30 5645 C 509.877 -1.68809 -0.797531 0
M  V30 5646 C 510.228 -0.643995 -1.8533 0
M  V30 5647 O 509.353 0.206492 -2.15413 0
M  V30 5648 C 509.948 -3.06043 -1.45338 0
M  V30 5649 C 508.507 -3.20819 -1.96856 0
M  V30 5650 C 507.654 -2.6472 -0.825736 0
M  V30 5651 H 510.605 -1.58699 -0.00533733 0
M  V30 5652 H 510.626 -3.01438 -2.32196 0
M  V30 5653 H 510.138 -3.82012 -0.684743 0
M  V30 5654 H 508.239 -2.49704 -2.76548 0
M  V30 5655 H 508.352 -4.27937 -2.15423 0
M  V30 5656 H 506.716 -2.22985 -1.23084 0
M  V30 5657 H 507.499 -3.43229 -0.0699019 0
M  V30 5658 N 509.944 0.496216 -1.49584 0
M  V30 5659 C 511.192 1.24756 -1.58998 0
M  V30 5660 C 511.513 1.92968 -0.280775 0
M  V30 5661 O 510.783 1.82959 0.700198 0
M  V30 5662 H 509.363 0.463471 -0.585836 0
M  V30 5663 H 512.025 0.574678 -1.86235 0
M  V30 5664 H 511.121 2.00895 -2.38847 0
M  V30 5665 N 511.423 1.38739 0.74761 0
M  V30 5666 C 512.663 1.36695 1.51966 0
M  V30 5667 C 513.027 -0.0411889 1.91956 0
M  V30 5668 O 514.228 -0.186543 2.68152 0
M  V30 5669 C 512.499 2.30119 2.73459 0
M  V30 5670 S 514.058 2.4615 3.63257 0
M  V30 5671 H 510.876 0.484929 0.519966 0
M  V30 5672 H 513.478 1.7472 0.877104 0
M  V30 5673 H 512.182 3.31312 2.422 0
M  V30 5674 H 511.713 1.93265 3.42655 0
M  V30 5675 H 513.728 1.69001 4.66533 0
M  V30 5676 N 512.901 -0.976442 1.23707 0
M  V30 5677 C 514.126 -1.75875 1.09922 0
M  V30 5678 C 514.551 -1.84911 -0.34489 0
M  V30 5679 O 513.909 -1.31363 -1.24954 0
M  V30 5680 C 513.957 -3.16179 1.73388 0
M  V30 5681 O 513.061 -4.00124 0.99871 0
M  V30 5682 H 512.402 -0.540954 0.385052 0
M  V30 5683 H 514.932 -1.22546 1.6384 0
M  V30 5684 H 514.942 -3.66741 1.78788 0
M  V30 5685 H 513.617 -3.08917 2.78466 0
M  V30 5686 H 512.194 -3.58624 1.02193 0
M  V30 5687 N 514.379 -1.04941 -1.1758 0
M  V30 5688 C 515.79 -0.784501 -1.69418 0
M  V30 5689 C 516.141 0.693625 -1.8353 0
M  V30 5690 O 515.266 1.53925 -1.52106 0
M  V30 5691 C 515.861 -1.41746 -3.07723 0
M  V30 5692 C 514.42 -1.20066 -3.56737 0
M  V30 5693 C 513.567 -1.5026 -2.33061 0
M  V30 5694 H 516.518 -1.21469 -1.02133 0
M  V30 5695 H 516.539 -0.825381 -3.7144 0
M  V30 5696 H 516.051 -2.49325 -2.9742 0
M  V30 5697 H 514.152 -0.144006 -3.72322 0
M  V30 5698 H 514.265 -1.90384 -4.39648 0
M  V30 5699 H 512.629 -0.922598 -2.37403 0
M  V30 5700 H 513.412 -2.58967 -2.25368 0
M  V30 5701 N 515.857 1.33968 -0.830081 0
M  V30 5702 C 517.082 2.02813 -0.433796 0
M  V30 5703 C 517.507 1.62076 0.954614 0
M  V30 5704 O 516.865 0.808955 1.62252 0
M  V30 5705 C 516.913 3.56348 -0.552115 0
M  V30 5706 O 516.017 4.10202 0.425191 0
M  V30 5707 H 515.358 0.639817 -0.177567 0
M  V30 5708 H 517.888 1.7106 -1.12248 0
M  V30 5709 H 517.898 4.05722 -0.430513 0
M  V30 5710 H 516.573 3.85344 -1.56471 0
M  V30 5711 H 515.15 3.71979 0.261878 0
M  V30 5712 N 517.335 0.585699 1.46312 0
M  V30 5713 C 518.575 0.0751432 2.04262 0
M  V30 5714 C 518.939 -1.26201 1.44697 0
M  V30 5715 O 520.14 -1.86198 1.93865 0
M  V30 5716 C 518.411 0.013478 3.57397 0
M  V30 5717 S 519.97 -0.439068 4.36598 0
M  V30 5718 H 516.788 0.0389228 0.709934 0
M  V30 5719 H 519.39 0.778871 1.79315 0
M  V30 5720 H 518.094 0.990558 3.98266 0
M  V30 5721 H 517.625 -0.712927 3.86886 0
M  V30 5722 H 519.64 -1.6932 4.66417 0
M  V30 5723 N 518.813 -1.54241 0.323641 0
M  V30 5724 C 520.224 -1.85975 -0.164405 0
M  V30 5725 C 520.575 -1.24529 -1.51615 0
M  V30 5726 O 519.7 -0.551351 -2.09258 0
M  V30 5727 C 520.295 -3.37424 -0.305091 0
M  V30 5728 C 518.854 -3.69107 -0.737358 0
M  V30 5729 C 518.001 -2.76942 0.140884 0
M  V30 5730 H 520.952 -1.49088 0.543922 0
M  V30 5731 H 520.973 -3.63147 -1.13598 0
M  V30 5732 H 520.485 -3.82116 0.678876 0
M  V30 5733 H 518.586 -3.29947 -1.73107 0
M  V30 5734 H 518.699 -4.76035 -0.541053 0
M  V30 5735 H 517.063 -2.51795 -0.383572 0
M  V30 5736 H 517.846 -3.24461 1.12162 0
M  V30 5737 N 520.291 -0.0518155 -1.57515 0
M  V30 5738 C 521.221 0.920283 -2.146 0
M  V30 5739 C 522.202 1.32406 -1.06783 0
M  V30 5740 O 523.387 1.39866 -1.34726 0
M  V30 5741 C 520.517 2.1949 -2.6915 0
M  V30 5742 C 519.471 1.93116 -3.81956 0
M  V30 5743 C 518.797 3.27037 -4.23026 0
M  V30 5744 C 520.097 1.25225 -5.07066 0
M  V30 5745 H 521.791 0.444801 -2.96077 0
M  V30 5746 H 519.337 0.212508 -1.42423 0
M  V30 5747 H 521.29 2.87894 -3.07725 0
M  V30 5748 H 520.014 2.69244 -1.84865 0
M  V30 5749 H 518.673 1.27123 -3.43854 0
M  V30 5750 H 518.321 3.74595 -3.3569 0
M  V30 5751 H 518.021 3.10189 -4.99056 0
M  V30 5752 H 519.545 3.96673 -4.64202 0
M  V30 5753 H 520.959 1.83666 -5.43083 0
M  V30 5754 H 519.356 1.18702 -5.88243 0
M  V30 5755 H 520.426 0.228382 -4.84362 0
M  V30 5756 N 521.769 1.56035 0.221574 0
M  V30 5757 C 522.679 1.95581 1.29558 0
M  V30 5758 C 523.695 0.859639 1.51282 0
M  V30 5759 O 524.871 1.16321 1.64413 0
M  V30 5760 C 521.936 2.26447 2.62531 0
M  V30 5761 C 520.997 3.49632 2.4911 0
M  V30 5762 C 520.23 3.79017 3.75742 0
M  V30 5763 O 520.453 3.10077 4.78757 0
M  V30 5764 O 519.387 4.72507 3.72855 0
M  V30 5765 H 523.213 2.8711 0.990035 0
M  V30 5766 H 520.798 1.43244 0.424434 0
M  V30 5767 H 522.68 2.47494 3.41064 0
M  V30 5768 H 521.355 1.38092 2.92766 0
M  V30 5769 H 520.262 3.33864 1.68777 0
M  V30 5770 H 521.595 4.3837 2.23814 0
M  V30 5771 N 523.247 -0.488276 1.49845 0
M  V30 5772 C 524.663 -0.820566 1.3689 0
M  V30 5773 C 524.863 -1.97248 0.411752 0
M  V30 5774 O 523.919 -2.52042 -0.151931 0
M  V30 5775 C 525.232 -1.1488 2.77891 0
M  V30 5776 C 526.78 -1.25626 2.86683 0
M  V30 5777 C 527.255 -1.61772 4.28479 0
M  V30 5778 N 528.746 -1.68797 4.31349 0
M  V30 5779 C 529.481 -1.98235 5.38043 0
M  V30 5780 N 528.977 -2.2581 6.54967 0
M  V30 5781 N 530.77 -1.99593 5.2547 0
M  V30 5782 H 522.921 0.271123 2.10662 0
M  V30 5783 H 525.184 0.058735 0.946179 0
M  V30 5784 H 524.89 -0.375614 3.49688 0
M  V30 5785 H 524.764 -2.08919 3.14058 0
M  V30 5786 H 527.151 -2.02014 2.15114 0
M  V30 5787 H 527.232 -0.296072 2.54081 0
M  V30 5788 H 526.876 -0.859295 5.00578 0
M  V30 5789 H 526.806 -2.58912 4.58554 0
M  V30 5790 H 529.297 -1.49595 3.4703 0
M  V30 5791 H 529.61 -2.47497 7.32096 0
M  V30 5792 H 527.955 -2.23239 6.58171 0
M  V30 5793 H 531.146 -1.77535 4.33127 0
M  V30 5794 H 531.319 -2.222 6.08713 0
M  V30 5795 N 524.725 -1.39134 -0.740242 0
M  V30 5796 C 525.972 -1.36071 -1.49969 0
M  V30 5797 C 526.3 0.0450245 -1.94448 0
M  V30 5798 O 525.555 1.02482 -1.66721 0
M  V30 5799 C 525.854 -2.27457 -2.75678 0
M  V30 5800 C 525.52 -3.75185 -2.50094 0
M  V30 5801 C 524.182 -4.15439 -2.42825 0
M  V30 5802 C 526.534 -4.68643 -2.28086 0
M  V30 5803 C 523.862 -5.4722 -2.11584 0
M  V30 5804 C 526.214 -6.00695 -1.98363 0
M  V30 5805 C 524.878 -6.40018 -1.8956 0
M  V30 5806 H 524.148 -0.497921 -0.548777 0
M  V30 5807 H 526.795 -1.71599 -0.85007 0
M  V30 5808 H 525.1 -1.8503 -3.45356 0
M  V30 5809 H 526.797 -2.22384 -3.33686 0
M  V30 5810 H 523.387 -3.43279 -2.56627 0
M  V30 5811 H 527.571 -4.3838 -2.32672 0
M  V30 5812 H 522.827 -5.76615 -2.03287 0
M  V30 5813 H 527.001 -6.72644 -1.80341 0
M  V30 5814 H 524.628 -7.42051 -1.65117 0
M  V30 5815 N 526.204 0.969867 -1.24223 0
M  V30 5816 C 527.167 2.04564 -1.03373 0
M  V30 5817 C 528.167 1.60798 0.00819206 0
M  V30 5818 O 529.357 1.72641 -0.232567 0
M  V30 5819 C 526.489 3.36163 -0.566343 0
M  V30 5820 H 527.682 2.24494 -1.98853 0
M  V30 5821 H 525.235 1.1448 -1.06415 0
M  V30 5822 H 525.97 3.21925 0.391751 0
M  V30 5823 H 525.755 3.69273 -1.31834 0
M  V30 5824 H 527.245 4.1526 -0.441435 0
M  V30 5825 N 527.682 1.05563 1.17022 0
M  V30 5826 C 528.592 0.670758 2.24807 0
M  V30 5827 C 529.608 -0.309865 1.71219 0
M  V30 5828 O 530.784 -0.161025 2.00755 0
M  V30 5829 C 527.849 0.055337 3.46656 0
M  V30 5830 C 526.91 1.08688 4.15314 0
M  V30 5831 C 526.143 0.500736 5.31346 0
M  V30 5832 O 526.366 -0.688718 5.66227 0
M  V30 5833 O 525.3 1.23683 5.89055 0
M  V30 5834 H 529.126 1.56914 2.60023 0
M  V30 5835 H 526.711 0.827428 1.24395 0
M  V30 5836 H 528.593 -0.286492 4.20425 0
M  V30 5837 H 527.268 -0.816638 3.13229 0
M  V30 5838 H 526.175 1.48077 3.43546 0
M  V30 5839 H 527.508 1.93014 4.52777 0
M  V30 5840 N 529.16 -1.33526 0.837174 0
M  V30 5841 C 530.09 -2.31764 0.284206 0
M  V30 5842 C 531.071 -1.58896 -0.607142 0
M  V30 5843 O 532.256 -1.86798 -0.531047 0
M  V30 5844 C 529.386 -3.43029 -0.542962 0
M  V30 5845 C 528.34 -4.27255 0.252451 0
M  V30 5846 C 527.666 -5.3012 -0.69836 0
M  V30 5847 C 528.966 -5.01229 1.46858 0
M  V30 5848 H 530.66 -2.78262 1.10502 0
M  V30 5849 H 528.206 -1.3378 0.532812 0
M  V30 5850 H 530.159 -4.1078 -0.940096 0
M  V30 5851 H 528.883 -2.95216 -1.39697 0
M  V30 5852 H 527.542 -3.61127 0.631124 0
M  V30 5853 H 527.19 -4.78564 -1.54872 0
M  V30 5854 H 526.89 -5.87353 -0.170274 0
M  V30 5855 H 528.414 -6.00737 -1.09305 0
M  V30 5856 H 529.828 -5.61756 1.14469 0
M  V30 5857 H 528.225 -5.68104 1.93333 0
M  V30 5858 H 529.295 -4.301 2.23924 0
M  V30 5859 N 530.638 -0.59345 -1.46 0
M  V30 5860 C 531.884 -0.0832754 -2.02629 0
M  V30 5861 C 532.217 1.27749 -1.46266 0
M  V30 5862 O 531.492 1.8395 -0.631866 0
M  V30 5863 C 531.775 -0.0290756 -3.60088 0
M  V30 5864 C 531.628 -1.41951 -4.26814 0
M  V30 5865 C 532.947 0.666055 -4.35031 0
M  V30 5866 H 530.066 -0.031736 -0.736316 0
M  V30 5867 H 532.708 -0.762711 -1.74019 0
M  V30 5868 H 530.858 0.549532 -3.84594 0
M  V30 5869 H 532.53 -2.04411 -4.13538 0
M  V30 5870 H 530.773 -1.98422 -3.8576 0
M  V30 5871 H 531.444 -1.33395 -5.3564 0
M  V30 5872 H 533.92 0.174401 -4.15734 0
M  V30 5873 H 532.796 0.673041 -5.44758 0
M  V30 5874 H 533.057 1.72946 -4.06869 0
M  V30 5875 N 532.116 1.54067 -0.331816 0
M  V30 5876 C 533.364 2.00319 0.267739 0
M  V30 5877 C 533.685 1.22148 1.52003 0
M  V30 5878 O 532.955 0.325494 1.93177 0
M  V30 5879 H 531.535 0.740014 0.101922 0
M  V30 5880 H 534.197 1.89628 -0.450267 0
M  V30 5881 H 533.293 3.07765 0.518385 0
M  V30 5882 N 533.594 0.0601682 1.57485 0
M  V30 5883 C 535.005 -0.474217 1.80577 0
M  V30 5884 C 535.356 -1.70365 0.973147 0
M  V30 5885 O 534.481 -2.15544 0.192306 0
M  V30 5886 C 535.076 -0.867102 3.27516 0
M  V30 5887 C 533.635 -1.34642 3.51495 0
M  V30 5888 C 532.782 -0.32594 2.75378 0
M  V30 5889 H 535.733 0.285973 1.56102 0
M  V30 5890 H 535.754 -1.72938 3.38929 0
M  V30 5891 H 535.266 0.0278927 3.8809 0
M  V30 5892 H 533.367 -2.2603 2.96212 0
M  V30 5893 H 533.48 -1.33237 4.60201 0
M  V30 5894 H 531.844 -0.800749 2.41785 0
M  V30 5895 H 532.627 0.561125 3.38683 0
M  V30 5896 N 535.072 -1.5615 -0.213296 0
M  V30 5897 C 536.318 -1.79812 -0.937849 0
M  V30 5898 C 536.651 -0.631201 -1.83656 0
M  V30 5899 O 535.926 0.369165 -1.90964 0
M  V30 5900 C 536.209 -3.13613 -1.76972 0
M  V30 5901 C 536.062 -4.40766 -0.89695 0
M  V30 5902 C 537.381 -3.43931 -2.7459 0
M  V30 5903 H 534.5 -0.654138 -0.339518 0
M  V30 5904 H 537.142 -1.88877 -0.20623 0
M  V30 5905 H 535.292 -3.06015 -2.39347 0
M  V30 5906 H 536.964 -4.60392 -0.289306 0
M  V30 5907 H 535.207 -4.33326 -0.202756 0
M  V30 5908 H 535.878 -5.30843 -1.51358 0
M  V30 5909 H 538.354 -3.5171 -2.22349 0
M  V30 5910 H 537.23 -4.38706 -3.29891 0
M  V30 5911 H 537.491 -2.6651 -3.52739 0
M  V30 5912 N 536.55 0.480323 -1.50102 0
M  V30 5913 C 537.799 1.22979 -1.59872 0
M  V30 5914 C 538.112 1.93282 -0.30022 0
M  V30 5915 O 539.318 2.70086 -0.276709 0
M  V30 5916 C 537.774 2.23408 -2.82164 0
M  V30 5917 C 537.382 1.5895 -4.18854 0
M  V30 5918 C 539.126 2.99055 -3.01275 0
M  V30 5919 C 537.033 2.57611 -5.32344 0
M  V30 5920 H 535.963 0.462707 -0.59533 0
M  V30 5921 H 538.614 0.501291 -1.7652 0
M  V30 5922 H 536.996 2.99511 -2.59055 0
M  V30 5923 H 538.17 0.887 -4.52182 0
M  V30 5924 H 536.485 0.956191 -4.05273 0
M  V30 5925 H 539.082 3.72876 -3.83233 0
M  V30 5926 H 539.425 3.57897 -2.12639 0
M  V30 5927 H 539.958 2.30066 -3.24522 0
M  V30 5928 H 536.697 2.03521 -6.23105 0
M  V30 5929 H 536.217 3.26041 -5.03445 0
M  V30 5930 H 537.896 3.19627 -5.62537 0
M  V30 5931 N 538.028 1.39524 0.732853 0
M  V30 5932 C 539.439 1.32905 1.31122 0
M  V30 5933 C 539.79 -0.00558708 1.96199 0
M  V30 5934 O 538.915 -0.907706 1.96443 0
M  V30 5935 C 539.51 2.40704 2.38426 0
M  V30 5936 C 538.069 2.37599 2.91931 0
M  V30 5937 C 537.216 2.2248 1.65523 0
M  V30 5938 H 540.167 1.49581 0.530207 0
M  V30 5939 H 540.188 2.07616 3.18867 0
M  V30 5940 H 539.7 3.37829 1.91033 0
M  V30 5941 H 537.801 1.44119 3.43599 0
M  V30 5942 H 537.914 3.32538 3.44899 0
M  V30 5943 H 536.278 1.69691 1.8994 0
M  V30 5944 H 537.061 3.21577 1.20178 0
M  V30 5945 N 539.506 -0.963266 1.24736 0
M  V30 5946 C 540.438 -2.06162 1.0015 0
M  V30 5947 C 541.451 -1.62771 -0.0305905 0
M  V30 5948 O 542.64 -1.77296 0.206966 0
M  V30 5949 C 539.74 -3.35333 0.490385 0
M  V30 5950 C 538.913 -4.07609 1.58663 0
M  V30 5951 C 537.972 -5.15052 1.0774 0
M  V30 5952 O 536.998 -5.4098 1.77002 0
M  V30 5953 N 538.2 -5.80436 -0.0858605 0
M  V30 5954 H 540.965 -2.27825 1.94719 0
M  V30 5955 H 538.526 -1.13121 1.15825 0
M  V30 5956 H 540.518 -4.04477 0.134371 0
M  V30 5957 H 539.088 -3.10507 -0.361155 0
M  V30 5958 H 538.308 -3.32681 2.11463 0
M  V30 5959 H 539.596 -4.52656 2.32336 0
M  V30 5960 H 538.994 -5.6178 -0.664806 0
M  V30 5961 H 537.551 -6.50674 -0.382981 0
M  V30 5962 N 540.985 -1.06182 -1.16461 0
M  V30 5963 C 542.262 -0.691364 -1.82974 0
M  V30 5964 C 542.642 0.827377 -1.9421 0
M  V30 5965 O 541.99 1.73723 -1.48434 0
M  V30 5966 C 542.2 -1.39199 -3.20038 0
M  V30 5967 C 543.548 -1.53647 -3.95825 0
M  V30 5968 O 544.572 -1.35181 -3.29552 0
M  V30 5969 O 543.431 -1.83932 -5.14618 0
M  V30 5970 H 540.525 -0.244605 -0.789998 0
M  V30 5971 H 543.071 -1.16203 -1.23673 0
M  V30 5972 H 541.843 -2.42766 -3.06888 0
M  V30 5973 H 541.466 -0.911335 -3.87015 0
M  V30 5974 N 542.463 1.3308 -0.844243 0
M  V30 5975 C 543.709 1.98304 -0.452453 0
M  V30 5976 C 544.064 1.65645 0.978746 0
M  V30 5977 O 543.357 0.928849 1.6758 0
M  V30 5978 C 543.551 3.52045 -0.616354 0
M  V30 5979 C 543.38 3.99643 -2.06193 0
M  V30 5980 C 542.15 4.27224 -2.69829 0
M  V30 5981 C 544.348 4.15471 -3.03131 0
M  V30 5982 N 542.33 4.60998 -4.05406 0
M  V30 5983 C 543.701 4.52665 -4.23668 0
M  V30 5984 C 545.756 3.97776 -2.99465 0
M  V30 5985 C 544.459 4.74011 -5.41023 0
M  V30 5986 C 546.485 4.20301 -4.16055 0
M  V30 5987 C 545.847 4.57801 -5.35348 0
M  V30 5988 H 541.946 0.752122 -0.214096 0
M  V30 5989 H 544.53 1.61096 -1.09344 0
M  V30 5990 H 542.701 3.884 -0.00513205 0
M  V30 5991 H 544.433 4.04228 -0.19548 0
M  V30 5992 H 541.188 4.18911 -2.20931 0
M  V30 5993 H 541.612 4.82087 -4.75312 0
M  V30 5994 H 546.254 3.67893 -2.08362 0
M  V30 5995 H 543.972 5.02753 -6.32665 0
M  V30 5996 H 547.558 4.08122 -4.14641 0
M  V30 5997 H 546.438 4.74884 -6.24063 0
M  V30 5998 N 543.941 0.601185 1.45683 0
M  V30 5999 C 545.166 0.0982245 2.07167 0
M  V30 6000 C 545.591 -1.20546 1.44396 0
M  V30 6001 O 544.949 -1.73247 0.534347 0
M  V30 6002 C 544.997 -0.0346976 3.60583 0
M  V30 6003 O 544.101 -1.08657 3.97828 0
M  V30 6004 H 543.442 0.0711618 0.660176 0
M  V30 6005 H 545.972 0.829376 1.87036 0
M  V30 6006 H 545.982 -0.234969 4.07323 0
M  V30 6007 H 544.657 0.917265 4.05659 0
M  V30 6008 H 543.234 -0.863275 3.6277 0
M  V30 6009 N 545.419 -1.53889 0.339982 0
M  V30 6010 C 546.647 -2.05271 -0.259114 0
M  V30 6011 C 547.062 -1.21517 -1.44496 0
M  V30 6012 O 546.419 -0.24966 -1.80784 0
M  V30 6013 C 546.47 -3.55092 -0.677634 0
M  V30 6014 O 546.191 -4.35667 0.461051 0
M  V30 6015 C 547.692 -4.22631 -1.33782 0
M  V30 6016 H 544.912 -0.669085 -0.0506566 0
M  V30 6017 H 547.456 -1.9852 0.490935 0
M  V30 6018 H 545.611 -3.62077 -1.37763 0
M  V30 6019 H 546.025 -5.24343 0.128144 0
M  V30 6020 H 547.499 -5.28861 -1.58145 0
M  V30 6021 H 547.976 -3.74758 -2.29027 0
M  V30 6022 H 548.582 -4.19829 -0.679957 0
M  V30 6023 N 546.897 -0.0685191 -1.57451 0
M  V30 6024 C 547.807 0.914677 -2.16034 0
M  V30 6025 C 548.823 1.32938 -1.12265 0
M  V30 6026 O 549.999 1.40275 -1.44516 0
M  V30 6027 C 547.064 2.16519 -2.70777 0
M  V30 6028 C 546.125 1.80721 -3.89408 0
M  V30 6029 C 545.358 2.9981 -4.41531 0
M  V30 6030 O 545.581 4.13727 -3.92666 0
M  V30 6031 O 544.515 2.79817 -5.32903 0
M  V30 6032 H 548.341 0.446364 -3.00402 0
M  V30 6033 H 545.926 0.154367 -1.486 0
M  V30 6034 H 547.808 2.89856 -3.05878 0
M  V30 6035 H 546.483 2.62454 -1.89471 0
M  V30 6036 H 545.39 1.04646 -3.59166 0
M  V30 6037 H 546.723 1.39571 -4.71997 0
M  V30 6038 N 548.375 1.56261 0.205012 0
M  V30 6039 C 549.615 1.81823 0.933806 0
M  V30 6040 C 549.979 0.644534 1.80858 0
M  V30 6041 O 551.18 0.779819 2.5724 0
M  V30 6042 C 549.451 3.12362 1.7368 0
M  V30 6043 S 551.01 3.59296 2.51897 0
M  V30 6044 H 547.828 0.638209 0.313386 0
M  V30 6045 H 550.43 1.94495 0.198001 0
M  V30 6046 H 549.134 3.95809 1.08459 0
M  V30 6047 H 548.665 3.02542 2.5146 0
M  V30 6048 H 550.68 3.23945 3.75864 0
M  V30 6049 N 549.853 -0.472356 1.50355 0
M  V30 6050 C 550.786 -1.58923 1.63764 0
M  V30 6051 C 551.764 -1.55173 0.485793 0
M  V30 6052 O 552.948 -1.74815 0.705132 0
M  V30 6053 C 550.075 -2.97497 1.61905 0
M  V30 6054 C 549.121 -3.19405 2.82635 0
M  V30 6055 S 549.954 -2.99441 4.43954 0
M  V30 6056 C 551.11 -4.40359 4.44786 0
M  V30 6057 H 551.343 -1.47309 2.58239 0
M  V30 6058 H 548.876 -0.659601 1.39602 0
M  V30 6059 H 550.834 -3.77389 1.61518 0
M  V30 6060 H 549.495 -3.06502 0.686683 0
M  V30 6061 H 548.688 -4.20636 2.77636 0
M  V30 6062 H 548.29 -2.47283 2.80583 0
M  V30 6063 H 550.582 -5.32969 4.1827 0
M  V30 6064 H 551.525 -4.50403 5.46391 0
M  V30 6065 H 551.933 -4.22378 3.74509 0
M  V30 6066 N 551.331 -1.39911 -0.725443 0
M  V30 6067 C 552.559 -1.40949 -1.51463 0
M  V30 6068 C 552.974 -0.0065242 -1.88799 0
M  V30 6069 O 552.331 0.967163 -1.54765 0
M  V30 6070 C 552.382 -2.29119 -2.79619 0
M  V30 6071 O 552.103 -3.63952 -2.43866 0
M  V30 6072 C 553.604 -2.38642 -3.73584 0
M  V30 6073 H 550.824 -0.481091 -0.467752 0
M  V30 6074 H 553.368 -1.83843 -0.895651 0
M  V30 6075 H 551.523 -1.89612 -3.37826 0
M  V30 6076 H 551.937 -4.10677 -3.26258 0
M  V30 6077 H 553.411 -3.04563 -4.60375 0
M  V30 6078 H 553.888 -1.40846 -4.16004 0
M  V30 6079 H 554.494 -2.78659 -3.21293 0
M  V30 6080 N 552.809 0.956637 -1.25245 0
M  V30 6081 C 554.037 1.73571 -1.12608 0
M  V30 6082 C 554.452 1.86063 0.320324 0
M  V30 6083 O 553.809 1.35691 1.22042 0
M  V30 6084 C 553.86 3.15053 -1.77268 0
M  V30 6085 O 553.581 3.03174 -3.16255 0
M  V30 6086 C 555.082 4.09248 -1.70386 0
M  V30 6087 H 552.302 0.543955 -0.392879 0
M  V30 6088 H 554.846 1.20031 -1.65568 0
M  V30 6089 H 553.001 3.65543 -1.28284 0
M  V30 6090 H 553.415 3.9241 -3.48015 0
M  V30 6091 H 554.889 5.06138 -2.20291 0
M  V30 6092 H 555.366 4.34102 -0.667239 0
M  V30 6093 H 555.972 3.64672 -2.18849 0
M  V30 6094 N 554.287 1.06798 1.15896 0
M  V30 6095 C 555.235 0.677525 2.22514 0
M  V30 6096 C 556.229 -0.308994 1.66558 0
M  V30 6097 O 557.435 -0.173308 1.79164 0
M  V30 6098 H 553.81 0.200994 0.724642 0
M  V30 6099 H 555.781 1.5865 2.52731 0
M  V30 6100 C 554.53 0.0854153 3.47595 0
M  V30 6101 H 553.853 0.835645 3.90969 0
M  V30 6102 H 555.293 -0.150199 4.23734 0
M  V30 6103 C 553.752 -1.1724 3.15843 0
M  V30 6104 O 554.282 -2.25965 3.32119 0
M  V30 6105 N 552.488 -1.07636 2.69931 0
M  V30 6106 H 552.035 -0.191559 2.56887 0
M  V30 6107 H 551.993 -1.91876 2.4906 0
M  V30 6108 N 555.766 -1.3263 0.851289 0
M  V30 6109 C 556.991 -2.02097 0.466006 0
M  V30 6110 C 557.416 -1.63574 -0.928709 0
M  V30 6111 O 556.774 -0.834665 -1.60944 0
M  V30 6112 C 556.822 -3.55425 0.608737 0
M  V30 6113 O 555.926 -4.10827 -0.359878 0
M  V30 6114 H 555.267 -0.636911 0.187724 0
M  V30 6115 H 557.797 -1.69253 1.14955 0
M  V30 6116 H 557.807 -4.04986 0.495006 0
M  V30 6117 H 556.482 -3.82806 1.62581 0
M  V30 6118 H 555.059 -3.72349 -0.202666 0
M  V30 6119 N 557.244 -0.608902 -1.45362 0
M  V30 6120 C 558.194 0.130616 -2.27626 0
M  V30 6121 C 559.178 0.837323 -1.37396 0
M  V30 6122 O 560.37 0.727096 -1.61376 0
M  V30 6123 C 557.499 1.12646 -3.24293 0
M  V30 6124 C 556.585 0.42052 -4.2201 0
M  V30 6125 N 556.976 -0.538569 -5.02925 0
M  V30 6126 C 555.274 0.667901 -4.40971 0
M  V30 6127 C 555.975 -0.953625 -5.7383 0
M  V30 6128 N 554.951 -0.297097 -5.42788 0
M  V30 6129 H 558.753 -0.605996 -2.87585 0
M  V30 6130 H 556.267 -0.432672 -1.5653 0
M  V30 6131 H 558.264 1.67066 -3.81961 0
M  V30 6132 H 556.924 1.86361 -2.65894 0
M  V30 6133 H 557.935 -0.915375 -5.09746 0
M  V30 6134 H 554.612 1.38963 -3.93695 0
M  V30 6135 H 556.002 -1.74473 -6.48852 0
M  V30 6136 N 558.722 1.53707 -0.348139 0
M  V30 6137 C 559.654 2.22725 0.540946 0
M  V30 6138 C 560.667 1.2354 1.06027 0
M  V30 6139 O 561.856 1.49867 0.96964 0
M  V30 6140 C 558.956 2.89756 1.75768 0
M  V30 6141 C 558.129 4.15297 1.37285 0
M  V30 6142 C 557.188 4.65697 2.44976 0
M  V30 6143 O 556.214 5.29798 2.08092 0
M  V30 6144 N 557.416 4.42017 3.763 0
M  V30 6145 H 560.181 2.99658 -0.0501592 0
M  V30 6146 H 557.742 1.60979 -0.17248 0
M  V30 6147 H 559.734 3.20388 2.47252 0
M  V30 6148 H 558.304 2.16382 2.25605 0
M  V30 6149 H 557.524 3.9116 0.488584 0
M  V30 6150 H 558.812 4.96948 1.09179 0
M  V30 6151 H 558.21 3.9076 4.09051 0
M  V30 6152 H 556.767 4.77242 4.4394 0
M  V30 6153 N 560.2 0.0768682 1.57412 0
M  V30 6154 C 561.448 -0.589918 1.93299 0
M  V30 6155 C 561.769 -1.69842 0.958049 0
M  V30 6156 O 561.039 -1.95899 0.00703261 0
M  V30 6157 H 559.619 -0.220901 0.713591 0
M  V30 6158 H 562.281 0.135917 1.94425 0
M  V30 6159 H 561.377 -1.01195 2.95239 0
M  V30 6160 N 561.678 -1.56367 -0.196722 0
M  V30 6161 C 562.906 -1.84639 -0.933608 0
M  V30 6162 C 563.321 -0.659164 -1.76919 0
M  V30 6163 O 562.678 0.372142 -1.78665 0
M  V30 6164 C 562.729 -3.11694 -1.83109 0
M  V30 6165 O 562.45 -4.25838 -1.02924 0
M  V30 6166 C 563.951 -3.53132 -2.67979 0
M  V30 6167 H 561.171 -0.613188 -0.272473 0
M  V30 6168 H 563.715 -2.03475 -0.204465 0
M  V30 6169 H 561.87 -2.94759 -2.51387 0
M  V30 6170 H 562.284 -4.98178 -1.64069 0
M  V30 6171 H 563.758 -4.45005 -3.26611 0
M  V30 6172 H 564.235 -2.76045 -3.41608 0
M  V30 6173 H 564.841 -3.72592 -2.05074 0
M  V30 6174 N 563.156 0.464375 -1.50603 0
M  V30 6175 C 564.066 1.58723 -1.72754 0
M  V30 6176 C 565.082 1.62925 -0.610844 0
M  V30 6177 O 566.258 1.8067 -0.889963 0
M  V30 6178 C 563.323 2.94897 -1.82309 0
M  V30 6179 C 562.384 3.0103 -3.06071 0
M  V30 6180 C 561.617 4.30708 -3.1516 0
M  V30 6181 O 561.84 5.2159 -2.30868 0
M  V30 6182 O 560.774 4.42571 -4.0794 0
M  V30 6183 H 564.6 1.42954 -2.67951 0
M  V30 6184 H 562.185 0.644579 -1.3478 0
M  V30 6185 H 564.067 3.75764 -1.90735 0
M  V30 6186 H 562.742 3.10851 -0.902967 0
M  V30 6187 H 561.649 2.19217 -3.03142 0
M  V30 6188 H 562.982 2.90014 -3.97684 0
M  V30 6189 N 564.634 1.40294 0.718013 0
M  V30 6190 C 565.911 1.2894 1.47084 0
M  V30 6191 C 566.291 -0.0933625 2.10893 0
M  V30 6192 O 565.639 -1.10598 1.99951 0
M  V30 6193 C 565.849 2.4264 2.50852 0
M  V30 6194 C 567.197 2.8276 3.16752 0
M  V30 6195 O 568.221 2.42215 2.61171 0
M  V30 6196 O 567.08 3.528 4.17366 0
M  V30 6197 H 564.174 0.506236 0.653952 0
M  V30 6198 H 566.72 1.52208 0.750394 0
M  V30 6199 H 565.492 3.35009 2.022 0
M  V30 6200 H 565.115 2.21129 3.30435 0
M  V30 6201 N 566.112 -0.949982 1.2575 0
M  V30 6202 C 567.337 -1.73503 1.13628 0
M  V30 6203 C 567.762 -1.85601 -0.30559 0
M  V30 6204 O 567.12 -1.33984 -1.22139 0
M  V30 6205 C 567.168 -3.1243 1.80055 0
M  V30 6206 O 566.272 -3.97916 1.08336 0
M  V30 6207 H 565.613 -0.532665 0.396439 0
M  V30 6208 H 568.143 -1.19043 1.66403 0
M  V30 6209 H 568.153 -3.62866 1.86527 0
M  V30 6210 H 566.828 -3.02941 2.84956 0
M  V30 6211 H 565.405 -3.56375 1.09777 0
M  V30 6212 N 567.59 -1.07411 -1.15328 0
M  V30 6213 C 568.818 -0.818782 -1.90009 0
M  V30 6214 C 569.233 0.628072 -1.78047 0
M  V30 6215 O 568.59 1.43085 -1.13282 0
M  V30 6216 C 568.641 -1.21874 -3.40337 0
M  V30 6217 O 568.362 -2.60883 -3.51954 0
M  V30 6218 C 569.863 -0.992796 -4.3204 0
M  V30 6219 H 567.083 -0.296007 -0.60218 0
M  V30 6220 H 569.627 -1.43073 -1.46117 0
M  V30 6221 H 567.782 -0.651103 -3.81889 0
M  V30 6222 H 568.196 -2.77216 -4.45255 0
M  V30 6223 H 569.67 -1.32215 -5.35932 0
M  V30 6224 H 570.147 0.0708331 -4.39143 0
M  V30 6225 H 570.753 -1.54537 -3.9623 0
M  V30 6226 N 569.068 1.32177 -0.85831 0
M  V30 6227 C 570.345 1.91781 -0.384624 0
M  V30 6228 C 570.725 1.78171 1.13217 0
M  V30 6229 O 570.073 1.18209 1.95548 0
M  V30 6230 C 570.283 3.38414 -0.853047 0
M  V30 6231 C 571.631 4.15542 -0.872359 0
M  V30 6232 O 572.655 3.47148 -0.797926 0
M  V30 6233 O 571.514 5.37678 -0.978009 0
M  V30 6234 H 568.608 0.819259 -0.112886 0
M  V30 6235 H 571.154 1.40923 -0.945453 0
M  V30 6236 H 569.926 3.4228 -1.89632 0
M  V30 6237 H 569.549 3.96683 -0.269874 0
M  V30 6238 O 570.585 0.756816 1.42669 0
M  V30 6239 H 571.276 0.315719 1.9111 0
M  V30 END ATOM
M  V30 BEGIN BOND
M  V30 END BOND
M  V30 END CTAB
M  END
$$$$
