drugbank_target|Q12791 Calcium-activated potassium channel subunit alpha-1 (DB00356; DB00436; DB00774; DB00999; DB01119; DB01159; DB04209)
 OpenBabel12092119343D

  0  0  0     0  0            999 V3000
M  V30 BEGIN CTAB
M  V30 COUNTS 19228 19436 0 0 0
M  V30 BEGIN ATOM
M  V30 1 H -0.908 1.98254 -0.117106 0
M  V30 2 N 0 1.576 0 0
M  V30 3 C 0.933 2.03868 1.02534 0
M  V30 4 C 1.911 0.928543 1.3348 0
M  V30 5 O 3.095 1.19667 1.45644 0
M  V30 6 C 0.222 2.43627 2.35294 0
M  V30 7 C -0.732 3.65373 2.2001 0
M  V30 8 S 0.101 5.13292 1.52614 0
M  V30 9 C 1.257 5.56322 2.86805 0
M  V30 10 H 1.49 2.90518 0.631377 0
M  V30 11 H -0.977 1.52953 0.210867 0
M  V30 12 H 0.981 2.67203 3.11629 0
M  V30 13 H -0.358 1.57376 2.7183 0
M  V30 14 H -1.165 3.90944 3.18086 0
M  V30 15 H -1.563 3.418 1.51819 0
M  V30 16 H 0.729 5.58782 3.83104 0
M  V30 17 H 1.672 6.56266 2.65933 0
M  V30 18 H 2.08 4.83886 2.90714 0
M  V30 19 N 1.4781 -0.272755 1.55222 0
M  V30 20 C 2.4411 -1.32041 1.87344 0
M  V30 21 C 3.4411 -1.42342 0.74803 0
M  V30 22 O 4.6311 -1.41488 1.0162 0
M  V30 23 C 1.7631 -2.70173 2.07893 0
M  V30 24 H 2.9561 -1.04789 2.80997 0
M  V30 25 H 0.5091 -0.51083 1.47717 0
M  V30 26 H 1.2441 -3.02605 1.16622 0
M  V30 27 H 1.0291 -2.64082 2.89833 0
M  V30 28 H 2.5191 -3.45869 2.34017 0
M  V30 29 N 2.9562 -1.48159 -0.537278 0
M  V30 30 C 3.9042 -1.62573 -1.66352 0
M  V30 31 C 4.8982 -0.492366 -1.62087 0
M  V30 32 O 6.1042 -0.670847 -1.67032 0
M  V30 33 H 2.4792 -0.511992 -0.550789 0
M  V30 34 H 4.4502 -2.57176 -1.51337 0
M  V30 35 C 3.1992 -1.67583 -3.04649 0
M  V30 36 H 2.5222 -2.54151 -3.08622 0
M  V30 37 H 3.9622 -1.81713 -3.83088 0
M  V30 38 C 2.4212 -0.413039 -3.34358 0
M  V30 39 O 2.9512 0.477259 -3.98855 0
M  V30 40 N 1.1572 -0.286961 -2.8918 0
M  V30 41 H 0.7042 -1.01241 -2.36871 0
M  V30 42 H 0.6622 0.556963 -3.09427 0
M  V30 43 N 4.4343 0.785586 -1.36625 0
M  V30 44 C 5.6823 1.54057 -1.30808 0
M  V30 45 C 6.0033 1.94683 0.111157 0
M  V30 46 O 5.2733 1.65241 1.05224 0
M  V30 47 H 3.8533 0.571354 -0.481211 0
M  V30 48 H 6.5153 0.935821 -1.70963 0
M  V30 49 H 5.6113 2.44637 -1.93801 0
M  V30 50 N 5.9124 1.20967 1.01018 0
M  V30 51 C 7.1604 1.02172 1.74371 0
M  V30 52 C 7.4814 -0.446414 1.89821 0
M  V30 53 O 6.7514 -1.32234 1.44537 0
M  V30 54 H 5.3314 0.375066 0.646014 0
M  V30 55 H 7.9934 1.52187 1.21758 0
M  V30 56 H 7.0894 1.48538 2.74487 0
M  V30 57 N 7.3905 -1.2043 1.01659 0
M  V30 58 C 8.6385 -1.89423 0.704522 0
M  V30 59 C 8.9595 -1.79231 -0.768197 0
M  V30 60 O 8.2295 -1.1947 -1.55254 0
M  V30 61 H 6.8095 -0.701178 0.257602 0
M  V30 62 H 9.4715 -1.4626 1.28818 0
M  V30 63 H 8.5675 -2.96052 0.987916 0
M  V30 64 N 8.8686 -0.792821 -1.36206 0
M  V30 65 C 10.1166 -0.366062 -1.98757 0
M  V30 66 C 10.4376 1.0668 -1.63231 0
M  V30 67 O 9.7076 1.73587 -0.907978 0
M  V30 68 H 8.2876 -0.132364 -0.735179 0
M  V30 69 H 10.9496 -1.01562 -1.66347 0
M  V30 70 H 10.0456 -0.460638 -3.08682 0
M  V30 71 N 10.3467 1.47872 -0.545128 0
M  V30 72 C 11.5947 2.02093 -0.016553 0
M  V30 73 C 11.9157 1.42305 1.3332 0
M  V30 74 O 11.1857 0.593853 1.86682 0
M  V30 75 H 9.7657 0.746993 -0.00313038 0
M  V30 76 H 12.4277 1.81414 -0.712397 0
M  V30 77 H 11.5237 3.11996 0.0805422 0
M  V30 78 N 11.8248 0.280983 1.55075 0
M  V30 79 C 13.0728 -0.333455 1.9933 0
M  V30 80 C 13.3938 -1.55937 1.17085 0
M  V30 81 O 12.6638 -1.94143 0.261805 0
M  V30 82 H 11.2438 -0.126197 0.736263 0
M  V30 83 H 13.9058 0.387678 1.91005 0
M  V30 84 H 13.0018 -0.619292 3.05894 0
M  V30 85 N 13.3029 -1.57598 0.00835791 0
M  V30 86 C 14.5509 -1.90551 -0.6734 0
M  V30 87 C 14.8719 -0.883301 -1.73847 0
M  V30 88 O 14.1419 0.0781442 -1.95744 0
M  V30 89 H 12.7219 -0.703312 -0.251717 0
M  V30 90 H 15.3839 -1.94833 0.0512592 0
M  V30 91 H 14.4799 -2.9056 -1.13935 0
M  V30 92 N 14.781 0.264519 -1.55364 0
M  V30 93 C 16.006 1.01726 -1.80739 0
M  V30 94 C 16.431 1.78836 -0.583044 0
M  V30 95 O 15.789 1.75167 0.467566 0
M  V30 96 C 15.837 1.94482 -3.03659 0
M  V30 97 O 14.941 3.03386 -2.7934 0
M  V30 98 H 14.282 0.290395 -0.597132 0
M  V30 99 H 16.812 0.290854 -2.02522 0
M  V30 100 H 16.822 2.36278 -3.32621 0
M  V30 101 H 15.497 1.37772 -3.92418 0
M  V30 102 H 14.074 2.65844 -2.61498 0
M  V30 103 N 16.2591 1.48442 0.529413 0
M  V30 104 C 17.4841 1.60406 1.31471 0
M  V30 105 C 17.9091 0.264738 1.86228 0
M  V30 106 O 17.2671 -0.763668 1.64432 0
M  V30 107 C 17.3151 2.65419 2.44101 0
M  V30 108 O 16.4191 2.22618 3.47153 0
M  V30 109 H 15.7601 0.537863 0.389357 0
M  V30 110 H 18.2901 1.94432 0.636965 0
M  V30 111 H 18.3001 2.86709 2.90279 0
M  V30 112 H 16.9751 3.62652 2.03608 0
M  V30 113 H 15.5521 2.11543 3.0709 0
M  V30 114 N 17.7372 -0.778329 1.37039 0
M  V30 115 C 18.9852 -1.53361 1.31623 0
M  V30 116 C 19.3062 -1.94739 -0.100831 0
M  V30 117 O 18.5762 -1.65797 -1.04347 0
M  V30 118 H 17.1562 -0.568794 0.484234 0
M  V30 119 H 19.8182 -0.926742 1.71457 0
M  V30 120 H 18.9142 -2.43606 1.95096 0
M  V30 121 N 19.2153 -1.21501 -1.00376 0
M  V30 122 C 20.4633 -1.03095 -1.73827 0
M  V30 123 C 20.7843 0.436341 -1.90055 0
M  V30 124 O 20.0543 1.31466 -1.45236 0
M  V30 125 H 18.6343 -0.378487 -0.644016 0
M  V30 126 H 21.2963 -1.52831 -1.20949 0
M  V30 127 H 20.3923 -1.49991 -2.73695 0
M  V30 128 N 20.6934 1.19889 -1.02296 0
M  V30 129 C 21.9414 1.89046 -0.714558 0
M  V30 130 C 22.2624 1.79636 0.758681 0
M  V30 131 O 21.5324 1.20292 1.54618 0
M  V30 132 H 20.1124 0.699802 -0.261317 0
M  V30 133 H 22.7744 1.45574 -1.29592 0
M  V30 134 H 21.8704 2.95524 -1.0036 0
M  V30 135 N 22.1715 0.800033 1.35784 0
M  V30 136 C 23.4195 0.376597 1.9856 0
M  V30 137 C 23.7405 -1.05812 1.63795 0
M  V30 138 O 23.0105 -1.73103 0.917171 0
M  V30 139 H 21.5905 0.136261 0.734467 0
M  V30 140 H 24.2525 1.02442 1.65806 0
M  V30 141 H 23.3485 0.477002 3.08433 0
M  V30 142 N 23.6496 -1.47581 0.552962 0
M  V30 143 C 24.8976 -2.02082 0.0272703 0
M  V30 144 C 25.2186 -1.4301 -1.32563 0
M  V30 145 O 24.4886 -0.603745 -1.86365 0
M  V30 146 H 23.0686 -0.746966 0.00709182 0
M  V30 147 H 25.7306 -1.81033 0.722008 0
M  V30 148 H 24.8266 -3.12034 -0.0639951 0
M  V30 149 N 25.1277 -0.289203 -1.54924 0
M  V30 150 C 26.3757 0.322879 -1.99504 0
M  V30 151 C 26.6967 1.55313 -1.1791 0
M  V30 152 O 25.9667 1.94001 -0.272097 0
M  V30 153 H 24.5467 0.122291 -0.736922 0
M  V30 154 H 27.2087 -0.397802 -1.90797 0
M  V30 155 H 26.3047 0.603061 -3.06218 0
M  V30 156 N 26.6058 1.57591 -0.0167156 0
M  V30 157 C 27.8538 1.90906 0.663285 0
M  V30 158 C 28.1748 0.892509 1.73376 0
M  V30 159 O 27.4448 -0.0677623 1.95783 0
M  V30 160 H 26.0248 0.704637 0.247983 0
M  V30 161 H 28.6868 1.94803 -0.0615909 0
M  V30 162 H 27.7828 2.9116 1.12393 0
M  V30 163 N 28.0839 -0.256276 1.55502 0
M  V30 164 C 29.3319 -0.983672 1.76545 0
M  V30 165 C 29.6529 -1.86206 0.578982 0
M  V30 166 O 28.9229 -1.91656 -0.405577 0
M  V30 167 H 27.5029 -0.366191 0.651086 0
M  V30 168 H 30.1649 -0.276479 1.92929 0
M  V30 169 H 29.2609 -1.61087 2.67315 0
M  V30 170 N 29.562 -1.4872 -0.521534 0
M  V30 171 C 30.787 -1.61101 -1.30618 0
M  V30 172 C 31.212 -0.274611 -1.86085 0
M  V30 173 O 30.57 0.754937 -1.64834 0
M  V30 174 C 30.618 -2.66709 -2.4269 0
M  V30 175 O 29.722 -2.24456 -3.45967 0
M  V30 176 H 29.063 -0.539921 -0.386499 0
M  V30 177 H 31.593 -1.94767 -0.626645 0
M  V30 178 H 31.603 -2.88245 -2.88754 0
M  V30 179 H 30.278 -3.63727 -2.01682 0
M  V30 180 H 28.855 -2.13168 -3.05964 0
M  V30 181 N 31.0401 0.771051 -1.3745 0
M  V30 182 C 32.2651 1.56529 -1.36065 0
M  V30 183 C 32.6901 1.88029 0.0515859 0
M  V30 184 O 32.0481 1.49282 1.02882 0
M  V30 185 C 32.0961 2.85187 -2.20683 0
M  V30 186 O 31.2001 3.79593 -1.61193 0
M  V30 187 H 30.5411 0.47411 -0.464883 0
M  V30 188 H 33.0711 0.954269 -1.80983 0
M  V30 189 H 33.0811 3.34283 -2.33921 0
M  V30 190 H 31.7561 2.61588 -3.23334 0
M  V30 191 H 30.3331 3.38239 -1.56999 0
M  V30 192 N 32.5182 1.22032 0.997298 0
M  V30 193 C 33.4482 1.01065 2.10495 0
M  V30 194 C 34.4292 -0.0669542 1.69968 0
M  V30 195 O 35.6142 0.0943987 1.9397 0
M  V30 196 C 32.7442 0.582874 3.42374 0
M  V30 197 C 31.6982 1.60592 3.96729 0
M  V30 198 C 31.0242 1.03412 5.24605 0
M  V30 199 C 32.3242 2.99478 4.27914 0
M  V30 200 H 34.0182 1.93708 2.28292 0
M  V30 201 H 31.5642 0.932761 1.09707 0
M  V30 202 H 33.5172 0.423332 4.19268 0
M  V30 203 H 32.2412 -0.379213 3.24391 0
M  V30 204 H 30.9002 1.75316 3.21963 0
M  V30 205 H 30.5482 0.063518 5.0296 0
M  V30 206 H 30.2482 1.71754 5.61938 0
M  V30 207 H 31.7722 0.886066 6.04137 0
M  V30 208 H 33.1862 2.88153 4.95622 0
M  V30 209 H 31.5832 3.64903 4.76409 0
M  V30 210 H 32.6532 3.49742 3.3587 0
M  V30 211 N 33.9963 -1.19345 1.0293 0
M  V30 212 C 35.4123 -1.41069 0.746446 0
M  V30 213 C 35.6123 -1.90078 -0.668776 0
M  V30 214 O 34.6683 -2.0778 -1.4347 0
M  V30 215 C 35.9813 -2.42141 1.78292 0
M  V30 216 C 37.5293 -2.55887 1.80252 0
M  V30 217 C 38.0043 -3.60214 2.8286 0
M  V30 218 N 39.4953 -3.67711 2.81679 0
M  V30 219 C 40.2303 -4.48128 3.57727 0
M  V30 220 N 39.7263 -5.32248 4.43491 0
M  V30 221 N 41.5193 -4.42782 3.46267 0
M  V30 222 H 33.6703 -0.858536 1.94275 0
M  V30 223 H 35.9333 -0.439541 0.839945 0
M  V30 224 H 35.6393 -2.13155 2.79746 0
M  V30 225 H 35.5133 -3.41323 1.60557 0
M  V30 226 H 37.9003 -2.84196 0.794757 0
M  V30 227 H 37.9813 -1.56858 2.02062 0
M  V30 228 H 37.6253 -3.32647 3.83807 0
M  V30 229 H 37.5553 -4.58895 2.58307 0
M  V30 230 H 40.0463 -3.07634 2.19476 0
M  V30 231 H 40.3593 -5.90729 4.98256 0
M  V30 232 H 38.7043 -5.31707 4.47564 0
M  V30 233 H 41.8953 -3.76107 2.78677 0
M  V30 234 H 42.0683 -5.05215 4.05785 0
M  V30 235 N 35.4744 -0.807222 -1.35358 0
M  V30 236 C 36.4074 -0.163572 -2.27613 0
M  V30 237 C 37.3854 0.670817 -1.48118 0
M  V30 238 O 38.5694 0.63796 -1.77376 0
M  V30 239 C 35.6964 0.773015 -3.29761 0
M  V30 240 C 34.7424 0.0181653 -4.26496 0
M  V30 241 S 35.5754 -1.31831 -5.19019 0
M  V30 242 C 36.7314 -0.38619 -6.24707 0
M  V30 243 H 36.9644 -0.945757 -2.81856 0
M  V30 244 H 34.4974 -0.602315 -1.42167 0
M  V30 245 H 36.4554 1.30788 -3.89108 0
M  V30 246 H 35.1164 1.52859 -2.74396 0
M  V30 247 H 34.3094 0.729534 -4.98692 0
M  V30 248 H 33.9114 -0.446761 -3.71322 0
M  V30 249 H 36.2034 0.428295 -6.76145 0
M  V30 250 H 37.1464 -1.07736 -6.99856 0
M  V30 251 H 37.5544 0.018398 -5.64497 0
M  V30 252 N 36.9525 1.47285 -0.560781 0
M  V30 253 C 38.1775 2.07359 -0.0410566 0
M  V30 254 C 38.6025 1.41017 1.24483 0
M  V30 255 O 37.9605 0.486368 1.74654 0
M  V30 256 C 38.0085 3.6035 0.134123 0
M  V30 257 O 37.1125 3.94681 1.19587 0
M  V30 258 H 36.4535 0.661887 -0.0529291 0
M  V30 259 H 38.9835 1.89252 -0.777482 0
M  V30 260 H 38.9935 4.0652 0.347207 0
M  V30 261 H 37.6685 4.08034 -0.805047 0
M  V30 262 H 36.2455 3.60251 0.962987 0
M  V30 263 N 38.4306 0.297415 1.54768 0
M  V30 264 C 39.6556 -0.318435 2.04941 0
M  V30 265 C 40.0806 -1.4701 1.17345 0
M  V30 266 O 39.4386 -1.80436 0.176758 0
M  V30 267 C 39.4866 -0.755749 3.52592 0
M  V30 268 O 38.5906 -1.86088 3.68028 0
M  V30 269 H 37.9316 -0.062421 0.661059 0
M  V30 270 H 40.4616 0.438215 1.99852 0
M  V30 271 H 40.4716 -1.04552 3.94376 0
M  V30 272 H 39.1466 0.0867233 4.1581 0
M  V30 273 H 37.7236 -1.57193 3.38149 0
M  V30 274 N 39.9087 -1.5758 0.0250728 0
M  V30 275 C 40.8567 -2.11125 -0.97617 0
M  V30 276 C 41.8507 -1.03689 -1.33959 0
M  V30 277 O 43.0567 -1.22128 -1.3223 0
M  V30 278 H 39.4317 -0.674468 -0.332561 0
M  V30 279 H 41.4027 -2.94194 -0.499223 0
M  V30 280 C 40.1517 -2.65017 -2.2508 0
M  V30 281 H 39.4747 -3.47333 -1.9799 0
M  V30 282 H 40.9147 -3.06133 -2.93357 0
M  V30 283 C 39.3737 -1.57574 -2.97779 0
M  V30 284 O 39.9037 -0.973203 -3.89733 0
M  V30 285 N 38.1097 -1.29716 -2.60043 0
M  V30 286 H 37.6567 -1.789 -1.85345 0
M  V30 287 H 37.6147 -0.58051 -3.08994 0
M  V30 288 N 41.3868 0.248026 -1.55636 0
M  V30 289 C 42.6358 0.974134 -1.76617 0
M  V30 290 C 42.9488 1.86528 -0.588796 0
M  V30 291 O 44.1548 2.62805 -0.681594 0
M  V30 292 C 42.6108 1.78213 -3.12679 0
M  V30 293 C 42.2188 0.93843 -4.38061 0
M  V30 294 C 43.9628 2.50104 -3.42999 0
M  V30 295 C 41.8698 1.74225 -5.65155 0
M  V30 296 H 40.7998 0.36745 -0.658405 0
M  V30 297 H 43.4508 0.22884 -1.82067 0
M  V30 298 H 41.8328 2.56933 -3.01333 0
M  V30 299 H 43.0068 0.193635 -4.60393 0
M  V30 300 H 41.3218 0.332905 -4.15067 0
M  V30 301 H 43.9188 3.10694 -4.3517 0
M  V30 302 H 44.2618 3.21662 -2.64271 0
M  V30 303 H 44.7948 1.78395 -3.55556 0
M  V30 304 H 41.5338 1.07043 -6.46701 0
M  V30 305 H 41.0538 2.46235 -5.46926 0
M  V30 306 H 42.7328 2.30967 -6.0437 0
M  V30 307 N 42.8649 1.48995 0.513639 0
M  V30 308 C 43.8149 1.61127 1.61314 0
M  V30 309 C 44.7989 0.467521 1.53958 0
M  V30 310 O 45.9909 0.719826 1.61702 0
M  V30 311 C 43.1199 1.66937 2.99978 0
M  V30 312 C 42.2059 2.86847 3.12377 0
M  V30 313 N 42.5969 4.11078 2.94701 0
M  V30 314 C 40.8949 2.84521 3.43459 0
M  V30 315 C 41.5959 4.91615 3.10949 0
M  V30 316 N 40.5719 4.24739 3.3926 0
M  V30 317 H 44.3739 2.54909 1.46282 0
M  V30 318 H 41.8879 1.45593 0.719483 0
M  V30 319 H 43.8849 1.73725 3.78979 0
M  V30 320 H 42.5449 0.742831 3.16089 0
M  V30 321 H 43.5559 4.41258 2.71131 0
M  V30 322 H 40.2329 2.01192 3.65825 0
M  V30 323 H 41.6229 6.00264 3.01882 0
M  V30 324 N 44.343 -0.763751 1.37857 0
M  V30 325 C 45.306 -1.85889 1.34081 0
M  V30 326 C 46.306 -1.58949 0.243277 0
M  V30 327 O 47.496 -1.66882 0.499589 0
M  V30 328 C 44.628 -3.23176 1.08489 0
M  V30 329 H 45.821 -1.90648 2.31502 0
M  V30 330 H 43.374 -0.964367 1.23003 0
M  V30 331 H 44.109 -3.24091 0.116318 0
M  V30 332 H 43.894 -3.44124 1.8794 0
M  V30 333 H 45.384 -4.03254 1.08517 0
M  V30 334 N 45.8211 -1.22559 -0.990812 0
M  V30 335 C 46.7691 -0.994798 -2.10253 0
M  V30 336 C 47.7631 0.0627798 -1.69284 0
M  V30 337 O 48.9691 -0.0898392 -1.79776 0
M  V30 338 H 45.3441 -0.304527 -0.687581 0
M  V30 339 H 47.3151 -1.93812 -2.26891 0
M  V30 340 C 46.0641 -0.591439 -3.42633 0
M  V30 341 H 45.3871 -1.3969 -3.74602 0
M  V30 342 H 46.8271 -0.469385 -4.21394 0
M  V30 343 C 45.2861 0.699232 -3.29564 0
M  V30 344 O 45.8161 1.75112 -3.61523 0
M  V30 345 N 44.0221 0.671182 -2.82743 0
M  V30 346 H 43.5691 -0.185136 -2.56934 0
M  V30 347 H 43.5271 1.53502 -2.7438 0
M  V30 348 N 47.2992 1.18797 -1.03562 0
M  V30 349 C 48.2492 2.20161 -0.592724 0
M  V30 350 C 49.2332 1.56772 0.362133 0
M  V30 351 O 50.4252 1.76062 0.182009 0
M  V30 352 C 47.5542 3.43266 0.0481024 0
M  V30 353 C 46.6402 4.13786 -0.9296 0
M  V30 354 N 47.0312 4.60388 -2.09467 0
M  V30 355 C 45.3292 4.39572 -0.754499 0
M  V30 356 C 46.0302 5.14619 -2.71187 0
M  V30 357 N 45.0062 5.05826 -1.991 0
M  V30 358 H 48.8082 2.53877 -1.48066 0
M  V30 359 H 46.3222 1.34946 -0.903514 0
M  V30 360 H 48.3192 4.15136 0.383058 0
M  V30 361 H 46.9792 3.11048 0.931636 0
M  V30 362 H 47.9902 4.54999 -2.47379 0
M  V30 363 H 44.6672 4.17425 0.0793713 0
M  V30 364 H 46.0572 5.60917 -3.69895 0
M  V30 365 N 48.7773 0.814389 1.34928 0
M  V30 366 C 49.7073 0.244827 2.32213 0
M  V30 367 C 50.6883 -0.634024 1.57842 0
M  V30 368 O 51.8733 -0.562676 1.8587 0
M  V30 369 C 49.0033 -0.601106 3.42058 0
M  V30 370 C 47.9573 0.179896 4.27622 0
M  V30 371 C 47.2833 -0.788237 5.28858 0
M  V30 372 C 48.5833 1.38329 5.03649 0
M  V30 373 H 50.2773 1.05763 2.80097 0
M  V30 374 H 47.8233 0.510029 1.34665 0
M  V30 375 H 49.7763 -1.00968 4.09125 0
M  V30 376 H 48.5003 -1.44688 2.92802 0
M  V30 377 H 47.1593 0.569739 3.62146 0
M  V30 378 H 46.8073 -1.62973 4.75866 0
M  V30 379 H 46.5073 -0.269942 5.8698 0
M  V30 380 H 48.0313 -1.19485 5.98795 0
M  V30 381 H 49.4453 1.04918 5.63618 0
M  V30 382 H 47.8423 1.83662 5.71304 0
M  V30 383 H 48.9123 2.16592 4.33839 0
M  V30 384 N 50.2554 -1.46986 0.568584 0
M  V30 385 C 51.4804 -2.07335 0.0520528 0
M  V30 386 C 51.9054 -1.41675 -1.23733 0
M  V30 387 O 51.2634 -0.495623 -1.74394 0
M  V30 388 C 51.3114 -3.60417 -0.11501 0
M  V30 389 O 50.4154 -3.95309 -1.17492 0
M  V30 390 H 49.7564 -0.661597 0.0564385 0
M  V30 391 H 52.2864 -1.88837 0.787507 0
M  V30 392 H 52.2964 -4.06698 -0.325644 0
M  V30 393 H 50.9714 -4.07601 0.826675 0
M  V30 394 H 49.5484 -3.60757 -0.943869 0
M  V30 395 N 51.7335 -0.305618 -1.54608 0
M  V30 396 C 52.6635 0.561482 -2.26649 0
M  V30 397 C 53.6445 1.13415 -1.26772 0
M  V30 398 O 54.8295 1.16262 -1.55553 0
M  V30 399 C 51.9595 1.73122 -3.01075 0
M  V30 400 C 50.9135 1.2887 -4.08138 0
M  V30 401 C 50.2395 2.54396 -4.70305 0
M  V30 402 C 51.5395 0.416578 -5.20636 0
M  V30 403 H 53.2335 -0.0393902 -2.99374 0
M  V30 404 H 50.7795 -0.020385 -1.43986 0
M  V30 405 H 52.7325 2.34396 -3.50195 0
M  V30 406 H 51.4565 2.3584 -2.25936 0
M  V30 407 H 50.1155 0.698991 -3.59875 0
M  V30 408 H 49.7635 3.15439 -3.918 0
M  V30 409 H 49.4635 2.25486 -5.42614 0
M  V30 410 H 50.9875 3.16464 -5.2219 0
M  V30 411 H 52.4015 0.935116 -5.65622 0
M  V30 412 H 50.7985 0.221046 -5.99693 0
M  V30 413 H 51.8685 -0.557162 -4.81688 0
M  V30 414 N 53.2116 1.57565 -0.0334293 0
M  V30 415 C 54.4886 1.83282 0.683163 0
M  V30 416 C 54.8686 0.91823 1.90084 0
M  V30 417 O 54.2166 -0.025113 2.28486 0
M  V30 418 C 54.4266 3.32599 1.0573 0
M  V30 419 C 55.7746 3.99179 1.44711 0
M  V30 420 O 56.7986 3.3712 1.15015 0
M  V30 421 O 55.6576 5.08565 2.0006 0
M  V30 422 H 52.7516 0.755869 0.335546 0
M  V30 423 H 55.2976 1.69589 -0.0614402 0
M  V30 424 H 54.0696 3.90834 0.190828 0
M  V30 425 H 53.6926 3.51415 1.85993 0
M  V30 426 N 54.6897 -0.239769 1.55765 0
M  V30 427 C 55.6527 -1.28038 1.90103 0
M  V30 428 C 56.6527 -1.40723 0.778055 0
M  V30 429 O 57.8427 -1.39301 1.04599 0
M  V30 430 C 54.9747 -2.65702 2.13577 0
M  V30 431 H 56.1677 -0.988048 2.83157 0
M  V30 432 H 53.7207 -0.479382 1.48767 0
M  V30 433 H 54.4557 -3.00063 1.23015 0
M  V30 434 H 54.2407 -2.57875 2.95369 0
M  V30 435 H 55.7307 -3.40828 2.41301 0
M  V30 436 N 56.1678 -1.49265 -0.50573 0
M  V30 437 C 57.3928 -1.62478 -1.28902 0
M  V30 438 C 57.8178 -0.294332 -1.85783 0
M  V30 439 O 57.1758 0.737412 -1.65626 0
M  V30 440 C 57.2238 -2.69268 -2.39848 0
M  V30 441 O 56.3278 -2.28113 -3.43567 0
M  V30 442 H 55.6688 -0.54399 -0.380751 0
M  V30 443 H 58.1988 -1.95421 -0.605952 0
M  V30 444 H 58.2088 -2.91291 -2.85681 0
M  V30 445 H 56.8838 -3.65846 -1.97812 0
M  V30 446 H 55.4608 -2.16401 -3.03685 0
M  V30 447 N 57.6459 0.756429 -1.3826 0
M  V30 448 C 58.8709 1.55077 -1.37717 0
M  V30 449 C 59.2959 1.88073 0.03164 0
M  V30 450 O 58.6539 1.50364 1.01293 0
M  V30 451 C 58.7019 2.8283 -2.23695 0
M  V30 452 O 57.8059 3.77862 -1.6521 0
M  V30 453 H 57.1469 0.469152 -0.469885 0
M  V30 454 H 59.6769 0.935019 -1.81985 0
M  V30 455 H 59.6869 3.31783 -2.37453 0
M  V30 456 H 58.3619 2.58144 -3.2609 0
M  V30 457 H 56.9389 3.36555 -1.60578 0
M  V30 458 N 59.124 1.23083 0.984299 0
M  V30 459 C 60.349 1.088 1.76571 0
M  V30 460 C 60.774 -0.356657 1.84688 0
M  V30 461 O 60.132 -1.25788 1.30565 0
M  V30 462 C 60.18 1.71371 3.17277 0
M  V30 463 O 59.284 0.973213 4.00752 0
M  V30 464 H 58.625 0.381599 0.543395 0
M  V30 465 H 61.155 1.63057 1.23587 0
M  V30 466 H 61.165 1.76449 3.67872 0
M  V30 467 H 59.84 2.76493 3.10684 0
M  V30 468 H 58.417 0.999078 3.59267 0
M  V30 469 N 60.6021 -1.18246 1.0419 0
M  V30 470 C 61.8271 -1.92736 0.765996 0
M  V30 471 C 62.2521 -1.75728 -0.67091 0
M  V30 472 O 61.6101 -1.06825 -1.46486 0
M  V30 473 C 61.6581 -3.42148 1.13875 0
M  V30 474 O 60.7621 -4.11548 0.264954 0
M  V30 475 H 60.1031 -0.601238 0.281797 0
M  V30 476 H 62.6331 -1.49942 1.39207 0
M  V30 477 H 62.6431 -3.92858 1.1012 0
M  V30 478 H 61.3181 -3.53848 2.18551 0
M  V30 479 H 59.8951 -3.71137 0.362226 0
M  V30 480 N 62.0802 -0.821533 -1.34494 0
M  V30 481 C 63.3052 -0.420873 -2.03085 0
M  V30 482 C 63.7302 0.964915 -1.61465 0
M  V30 483 O 63.0882 1.62763 -0.798607 0
M  V30 484 C 63.1362 -0.529414 -3.56693 0
M  V30 485 O 62.2402 0.451302 -4.09923 0
M  V30 486 H 61.5812 -0.173489 -0.640935 0
M  V30 487 H 64.1112 -1.11157 -1.71771 0
M  V30 488 H 64.1212 -0.404671 -4.05988 0
M  V30 489 H 62.7962 -1.54014 -3.86332 0
M  V30 490 H 61.3732 0.285558 -3.71805 0
M  V30 491 N 63.5583 1.46682 -0.576371 0
M  V30 492 C 64.7833 2.07304 -0.0630475 0
M  V30 493 C 65.2083 1.42329 1.2298 0
M  V30 494 O 64.5663 0.504865 1.74129 0
M  V30 495 C 64.6143 3.60472 0.095895 0
M  V30 496 O 63.7183 3.95927 1.15394 0
M  V30 497 H 63.0593 0.661288 -0.0599463 0
M  V30 498 H 65.5893 1.88417 -0.797511 0
M  V30 499 H 65.5993 4.06865 0.304071 0
M  V30 500 H 64.2743 4.07157 -0.84828 0
M  V30 501 H 62.8513 3.61252 0.924724 0
M  V30 502 N 65.0364 0.313813 1.54444 0
M  V30 503 C 66.2614 -0.296681 2.05267 0
M  V30 504 C 66.6864 -1.45757 1.18897 0
M  V30 505 O 66.0444 -1.80239 0.195886 0
M  V30 506 C 66.0924 -0.71831 3.53373 0
M  V30 507 O 65.1964 -1.82175 3.69981 0
M  V30 508 H 64.5374 -0.0554061 0.661684 0
M  V30 509 H 67.0674 0.459387 1.99376 0
M  V30 510 H 67.0774 -1.00364 3.95463 0
M  V30 511 H 65.7524 0.130821 4.15694 0
M  V30 512 H 64.3294 -1.53598 3.39797 0
M  V30 513 N 66.5145 -1.57545 0.0417849 0
M  V30 514 C 67.7395 -1.97035 -0.647455 0
M  V30 515 C 68.1645 -0.918775 -1.64135 0
M  V30 516 O 67.5225 0.119006 -1.80909 0
M  V30 517 C 67.5705 -3.35609 -1.31905 0
M  V30 518 O 66.6745 -3.3287 -2.43457 0
M  V30 519 H 66.0155 -0.64211 -0.169086 0
M  V30 520 H 68.5455 -2.04318 0.107399 0
M  V30 521 H 68.5555 -3.72126 -1.67291 0
M  V30 522 H 67.2305 -4.11685 -0.590586 0
M  V30 523 H 65.8075 -3.08087 -2.10088 0
M  V30 524 N 67.9926 0.231505 -1.5589 0
M  V30 525 C 69.2176 0.978689 -1.82856 0
M  V30 526 C 69.6426 1.77559 -0.620846 0
M  V30 527 O 69.0006 1.76119 0.430305 0
M  V30 528 C 69.0486 1.87997 -3.07716 0
M  V30 529 O 68.1526 2.97393 -2.85712 0
M  V30 530 H 67.4936 0.277663 -0.603158 0
M  V30 531 H 70.0236 0.24783 -2.03093 0
M  V30 532 H 70.0336 2.2917 -3.37558 0
M  V30 533 H 68.7086 1.29417 -3.95252 0
M  V30 534 H 67.2856 2.60238 -2.67078 0
M  V30 535 N 69.4707 1.49531 0.497807 0
M  V30 536 C 70.6957 1.63159 1.28039 0
M  V30 537 C 71.1207 0.30418 1.85624 0
M  V30 538 O 70.4787 -0.728618 1.66015 0
M  V30 539 C 70.5267 2.70537 2.38416 0
M  V30 540 O 69.6307 2.29931 3.42353 0
M  V30 541 H 68.9717 0.546001 0.377861 0
M  V30 542 H 71.5017 1.9574 0.59558 0
M  V30 543 H 71.5117 2.92802 2.84132 0
M  V30 544 H 70.1867 3.6689 1.95869 0
M  V30 545 H 68.7637 2.18009 3.02533 0
M  V30 546 N 70.9488 -0.749086 1.3866 0
M  V30 547 C 72.1738 -1.54344 1.38538 0
M  V30 548 C 72.5988 -1.88088 -0.0216655 0
M  V30 549 O 71.9568 -1.50899 -1.00494 0
M  V30 550 C 72.0048 -2.8164 2.25192 0
M  V30 551 O 71.1088 -3.7698 1.67212 0
M  V30 552 H 70.4498 -0.466654 0.472367 0
M  V30 553 H 72.9798 -0.925355 1.82478 0
M  V30 554 H 72.9898 -3.30519 2.3921 0
M  V30 555 H 71.6648 -2.56411 3.27454 0
M  V30 556 H 70.2418 -3.35699 1.6236 0
M  V30 557 N 72.4269 -1.23603 -0.977757 0
M  V30 558 C 73.6519 -1.09735 -1.75991 0
M  V30 559 C 74.0769 0.346858 -1.84874 0
M  V30 560 O 73.4349 1.25093 -1.3123 0
M  V30 561 C 73.4829 -1.73051 -3.16363 0
M  V30 562 O 72.5869 -0.994452 -4.0023 0
M  V30 563 H 71.9279 -0.384476 -0.541364 0
M  V30 564 H 74.4579 -1.6371 -1.2272 0
M  V30 565 H 74.4679 -1.78398 -3.66931 0
M  V30 566 H 73.1429 -2.78137 -3.09213 0
M  V30 567 H 71.7199 -1.01812 -3.58732 0
M  V30 568 N 73.905 1.17692 -1.04816 0
M  V30 569 C 75.13 1.92327 -0.776207 0
M  V30 570 C 75.555 1.76082 0.661581 0
M  V30 571 O 74.913 1.076 1.45917 0
M  V30 572 C 74.961 3.41539 -1.15687 0
M  V30 573 O 74.065 4.11402 -0.286775 0
M  V30 574 H 73.406 0.599735 -0.284981 0
M  V30 575 H 75.936 1.49201 -1.4 0
M  V30 576 H 75.946 3.92269 -1.12202 0
M  V30 577 H 74.621 3.52684 -2.20425 0
M  V30 578 H 73.198 3.70939 -0.381903 0
M  V30 579 N 75.3831 0.828654 1.34056 0
M  V30 580 C 76.6081 0.431637 2.02859 0
M  V30 581 C 77.0331 -0.956339 1.61975 0
M  V30 582 O 76.3911 -1.62338 0.807228 0
M  V30 583 C 76.4391 0.548323 3.56407 0
M  V30 584 O 75.5431 -0.429556 4.10157 0
M  V30 585 H 74.8841 0.176886 0.640006 0
M  V30 586 H 77.4141 1.12066 1.71179 0
M  V30 587 H 77.4241 0.426196 4.05768 0
M  V30 588 H 76.0991 1.5606 3.8551 0
M  V30 589 H 74.6761 -0.265836 3.71951 0
M  V30 590 N 76.8612 -1.46375 0.584142 0
M  V30 591 C 78.0862 -2.07268 0.0740405 0
M  V30 592 C 78.5112 -1.42979 -1.22223 0
M  V30 593 O 77.8692 -0.514092 -1.73859 0
M  V30 594 C 77.9172 -3.60518 -0.0767769 0
M  V30 595 O 77.0212 -3.96533 -1.13292 0
M  V30 596 H 76.3622 -0.660961 0.0634524 0
M  V30 597 H 78.8922 -1.87991 0.807492 0
M  V30 598 H 78.9022 -4.07021 -0.282489 0
M  V30 599 H 77.5772 -4.06702 0.86986 0
M  V30 600 H 76.1542 -3.61738 -0.905553 0
M  V30 601 N 78.3393 -0.321999 -1.54275 0
M  V30 602 C 79.5643 0.285791 -2.05422 0
M  V30 603 C 79.9893 1.45124 -1.19669 0
M  V30 604 O 79.3473 1.80132 -0.205441 0
M  V30 605 C 79.3953 0.69956 -3.53749 0
M  V30 606 O 78.4993 1.8021 -3.70942 0
M  V30 607 H 77.8403 0.0518962 -0.661969 0
M  V30 608 H 80.3703 -0.469954 -1.9913 0
M  V30 609 H 80.3803 0.982649 -3.9599 0
M  V30 610 H 79.0553 -0.152864 -4.15619 0
M  V30 611 H 77.6323 1.51794 -3.40607 0
M  V30 612 N 79.8174 1.5752 -0.0501392 0
M  V30 613 C 81.0424 1.97376 0.636997 0
M  V30 614 C 81.4674 0.927466 1.63645 0
M  V30 615 O 80.8254 -0.10941 1.8097 0
M  V30 616 C 80.8734 3.36304 1.30123 0
M  V30 617 O 79.9774 3.34156 2.41689 0
M  V30 618 H 79.3184 0.642998 0.165679 0
M  V30 619 H 81.8484 2.04258 -0.118233 0
M  V30 620 H 81.8584 3.73008 1.65315 0
M  V30 621 H 80.5334 4.11993 0.568746 0
M  V30 622 H 79.1104 3.09196 2.08451 0
M  V30 623 N 81.2955 -0.223234 1.56011 0
M  V30 624 C 82.5205 -0.968978 1.83373 0
M  V30 625 C 82.9455 -1.77227 0.630254 0
M  V30 626 O 82.3035 -1.76345 -0.420959 0
M  V30 627 C 82.3515 -1.86363 3.08709 0
M  V30 628 O 81.4555 -2.95873 2.87285 0
M  V30 629 H 80.7965 -0.274461 0.604622 0
M  V30 630 H 83.3265 -0.237056 2.03222 0
M  V30 631 H 83.3365 -2.27376 3.38768 0
M  V30 632 H 82.0115 -1.27319 3.95933 0
M  V30 633 H 80.5885 -2.58818 2.68454 0
M  V30 634 N 82.7736 -1.49793 -0.48987 0
M  V30 635 C 83.9986 -1.63836 -1.27172 0
M  V30 636 C 84.4236 -0.31402 -1.8546 0
M  V30 637 O 83.7816 0.719803 -1.66399 0
M  V30 638 C 83.8296 -2.71797 -2.36978 0
M  V30 639 O 82.9336 -2.31744 -3.41128 0
M  V30 640 H 82.2746 -0.547997 -0.37496 0
M  V30 641 H 84.8046 -1.96053 -0.585191 0
M  V30 642 H 84.8146 -2.94305 -2.82575 0
M  V30 643 H 83.4896 -3.67923 -1.93921 0
M  V30 644 H 82.0666 -2.1961 -3.01373 0
M  V30 645 N 84.2517 0.741722 -1.39055 0
M  V30 646 C 85.4767 1.53607 -1.39354 0
M  V30 647 C 85.9017 1.88096 0.0116905 0
M  V30 648 O 85.2597 1.5143 0.996924 0
M  V30 649 C 85.3077 2.80441 -2.26682 0
M  V30 650 O 84.4117 3.76088 -1.69208 0
M  V30 651 H 83.7527 0.464142 -0.474835 0
M  V30 652 H 86.2827 0.915665 -1.82967 0
M  V30 653 H 86.2927 3.29246 -2.40959 0
M  V30 654 H 84.9677 2.5467 -3.2881 0
M  V30 655 H 83.5447 3.34833 -1.64138 0
M  V30 656 N 85.7298 1.2412 0.971189 0
M  V30 657 C 86.9548 1.10667 1.75407 0
M  V30 658 C 87.3798 -0.337048 1.85056 0
M  V30 659 O 86.7378 -1.24396 1.31892 0
M  V30 660 C 86.7858 1.74726 3.15441 0
M  V30 661 O 85.8898 1.01566 3.99697 0
M  V30 662 H 85.2308 0.387341 0.539317 0
M  V30 663 H 87.7608 1.64358 1.2185 0
M  V30 664 H 87.7708 1.80341 3.6598 0
M  V30 665 H 86.4458 2.79773 3.07734 0
M  V30 666 H 85.0228 1.03713 3.58187 0
M  V30 667 N 87.2079 -1.17134 1.05439 0
M  V30 668 C 88.4329 -1.91913 0.786396 0
M  V30 669 C 88.8579 -1.7643 -0.652234 0
M  V30 670 O 88.2159 -1.08372 -1.45345 0
M  V30 671 C 88.2639 -3.40921 1.17497 0
M  V30 672 O 87.3679 -4.11244 0.308589 0
M  V30 673 H 86.7089 -0.598215 0.288158 0
M  V30 674 H 89.2389 -1.48457 1.4079 0
M  V30 675 H 89.2489 -3.91668 1.14281 0
M  V30 676 H 87.9239 -3.5151 2.22292 0
M  V30 677 H 86.5009 -3.70731 0.40157 0
M  V30 678 N 88.686 -0.835752 -1.33615 0
M  V30 679 C 89.932 -0.430596 -1.98176 0
M  V30 680 C 90.265 1.00684 -1.66061 0
M  V30 681 O 89.54 1.70339 -0.938877 0
M  V30 682 C 89.823 -0.648065 -3.5422 0
M  V30 683 C 89.676 -2.13255 -3.96033 0
M  V30 684 C 90.995 -0.0922113 -4.40003 0
M  V30 685 H 88.114 -0.157924 -0.719881 0
M  V30 686 H 90.756 -1.05069 -1.58305 0
M  V30 687 H 88.906 -0.120237 -3.88314 0
M  V30 688 H 90.578 -2.725 -3.72211 0
M  V30 689 H 88.821 -2.61823 -3.45878 0
M  V30 690 H 89.492 -2.23547 -5.04708 0
M  V30 691 H 91.968 -0.543343 -4.12537 0
M  V30 692 H 90.844 -0.274083 -5.48215 0
M  V30 693 H 91.105 1.00378 -4.30554 0
M  V30 694 N 90.1641 1.46063 -0.591896 0
M  V30 695 C 91.1141 2.27458 0.157172 0
M  V30 696 C 92.0981 1.3641 0.853301 0
M  V30 697 O 93.2901 1.60517 0.74588 0
M  V30 698 C 90.4191 3.22956 1.16423 0
M  V30 699 C 89.5051 4.2149 0.469742 0
M  V30 700 N 89.8961 5.03519 -0.479839 0
M  V30 701 C 88.1941 4.40161 0.719319 0
M  V30 702 C 88.8951 5.74904 -0.886591 0
M  V30 703 N 87.8711 5.43097 -0.233731 0
M  V30 704 H 91.6731 2.88272 -0.572392 0
M  V30 705 H 89.1871 1.57024 -0.414375 0
M  V30 706 H 91.1841 3.79986 1.71513 0
M  V30 707 H 89.8441 2.63701 1.89451 0
M  V30 708 H 90.8551 5.1078 -0.855823 0
M  V30 709 H 87.5321 3.92046 1.43548 0
M  V30 710 H 88.9221 6.50844 -1.66888 0
M  V30 711 N 91.6422 0.330177 1.54103 0
M  V30 712 C 92.5522 -0.541534 2.28264 0
M  V30 713 C 93.5682 -1.12351 1.32866 0
M  V30 714 O 94.7442 -1.14206 1.65888 0
M  V30 715 C 91.8092 -1.68322 3.03098 0
M  V30 716 C 90.8702 -1.13238 4.14096 0
M  V30 717 C 90.1032 -2.21966 4.85352 0
M  V30 718 O 90.3262 -3.42437 4.56172 0
M  V30 719 O 89.2602 -1.87013 5.7211 0
M  V30 720 H 93.0862 0.060938 3.03639 0
M  V30 721 H 90.6712 0.09565 1.49093 0
M  V30 722 H 92.5532 -2.34777 3.49939 0
M  V30 723 H 91.2282 -2.27176 2.30593 0
M  V30 724 H 90.1352 -0.432736 3.71589 0
M  V30 725 H 91.4682 -0.588898 4.88664 0
M  V30 726 N 93.1203 -1.57491 0.0584922 0
M  V30 727 C 94.5313 -1.80526 -0.476138 0
M  V30 728 C 94.8823 -0.971334 -1.70469 0
M  V30 729 O 94.0073 -0.190012 -2.15564 0
M  V30 730 C 94.6023 -3.27424 -0.870587 0
M  V30 731 C 93.1613 -3.51351 -1.35015 0
M  V30 732 C 92.3083 -2.75343 -0.32887 0
M  V30 733 H 95.2593 -1.56133 0.284312 0
M  V30 734 H 95.2803 -3.38745 -1.73299 0
M  V30 735 H 94.7923 -3.88093 0.0237627 0
M  V30 736 H 92.8933 -2.95971 -2.26345 0
M  V30 737 H 93.0063 -4.60059 -1.33726 0
M  V30 738 H 91.3703 -2.417 -0.803321 0
M  V30 739 H 92.1533 -3.38743 0.557521 0
M  V30 740 N 94.5984 0.214957 -1.56127 0
M  V30 741 C 95.5454 1.26642 -1.92952 0
M  V30 742 C 96.5154 1.46244 -0.78753 0
M  V30 743 O 97.7004 1.59704 -1.04399 0
M  V30 744 C 94.8404 2.6104 -2.25726 0
M  V30 745 C 93.9534 2.49183 -3.52891 0
M  V30 746 C 93.0884 3.76149 -3.7508 0
M  V30 747 C 92.1274 3.59041 -4.95738 0
M  V30 748 N 91.2644 4.77972 -5.14283 0
M  V30 749 H 96.1044 0.945384 -2.82607 0
M  V30 750 H 93.6414 0.455489 -1.3987 0
M  V30 751 H 95.5994 3.39313 -2.42739 0
M  V30 752 H 94.2294 2.91227 -1.39236 0
M  V30 753 H 93.2814 1.6231 -3.44034 0
M  V30 754 H 94.5934 2.32466 -4.41318 0
M  V30 755 H 93.7474 4.62865 -3.92226 0
M  V30 756 H 92.4864 3.95799 -2.84947 0
M  V30 757 H 91.4914 2.7071 -4.78535 0
M  V30 758 H 92.7164 3.40856 -5.87362 0
M  V30 759 H 90.6624 4.97923 -4.27093 0
M  V30 760 H 90.5794 4.64006 -5.96853 0
M  V30 761 H 91.8474 5.66096 -5.35869 0
M  V30 762 N 96.0765 1.50051 0.48192 0
M  V30 763 C 97.0095 1.62749 1.59963 0
M  V30 764 C 97.9875 0.475903 1.5548 0
M  V30 765 O 99.1715 0.693986 1.7526 0
M  V30 766 C 96.2985 1.60008 2.98522 0
M  V30 767 C 95.3445 2.80596 3.21198 0
M  V30 768 S 96.1775 4.42038 3.02262 0
M  V30 769 C 97.3335 4.41973 4.43182 0
M  V30 770 H 97.5665 2.57296 1.4895 0
M  V30 771 H 95.0995 1.39179 0.668477 0
M  V30 772 H 97.0575 1.59112 3.78409 0
M  V30 773 H 95.7185 0.667153 3.06933 0
M  V30 774 H 94.9115 2.74952 4.22395 0
M  V30 775 H 94.5135 2.79003 2.49065 0
M  V30 776 H 96.8055 4.14868 5.35622 0
M  V30 777 H 97.7485 5.43512 4.53873 0
M  V30 778 H 98.1565 3.71812 4.24755 0
M  V30 779 N 97.5546 -0.734337 1.39446 0
M  V30 780 C 98.8316 -1.48579 1.27215 0
M  V30 781 C 99.2116 -2.1077 -0.117968 0
M  V30 782 O 98.5596 -1.98646 -1.12924 0
M  V30 783 C 98.7696 -2.53667 2.39696 0
M  V30 784 C 100.118 -3.20031 2.79044 0
M  V30 785 O 101.142 -2.6398 2.39151 0
M  V30 786 O 100.001 -4.21455 3.47905 0
M  V30 787 H 97.0946 -0.659816 0.49857 0
M  V30 788 H 99.6406 -0.768106 1.51322 0
M  V30 789 H 98.4126 -2.06096 3.32626 0
M  V30 790 H 98.0356 -3.32994 2.17258 0
M  V30 791 N 99.0327 -1.24633 -0.964593 0
M  V30 792 C 99.9957 -1.0424 -2.04124 0
M  V30 793 C 100.996 0.00137563 -1.608 0
M  V30 794 O 102.186 -0.239883 -1.7254 0
M  V30 795 C 99.3177 -0.580588 -3.3592 0
M  V30 796 H 100.511 -1.99803 -2.23649 0
M  V30 797 H 98.0637 -1.06899 -1.14027 0
M  V30 798 H 98.7987 0.3781 -3.22088 0
M  V30 799 H 98.5837 -1.33398 -3.6871 0
M  V30 800 H 100.074 -0.459034 -4.15069 0
M  V30 801 N 100.511 1.16574 -1.06058 0
M  V30 802 C 101.441 2.23057 -0.690488 0
M  V30 803 C 102.422 1.67141 0.315901 0
M  V30 804 O 103.607 1.93253 0.191556 0
M  V30 805 C 100.737 3.47222 -0.073625 0
M  V30 806 C 99.6908 4.16016 -1.00573 0
M  V30 807 C 99.0168 5.34104 -0.252289 0
M  V30 808 C 100.317 4.67264 -2.33371 0
M  V30 809 H 102.011 2.54271 -1.58072 0
M  V30 810 H 99.5568 1.22218 -0.76149 0
M  V30 811 H 101.51 4.20939 0.19714 0
M  V30 812 H 100.234 3.15302 0.85161 0
M  V30 813 H 98.8928 3.44223 -1.2612 0
M  V30 814 H 98.5408 4.98437 0.675988 0
M  V30 815 H 98.2408 5.81072 -0.873455 0
M  V30 816 H 99.7648 6.10599 0.0109857 0
M  V30 817 H 101.179 5.32573 -2.12223 0
M  V30 818 H 99.5758 5.24843 -2.90963 0
M  V30 819 H 100.646 3.83602 -2.96611 0
M  V30 820 N 101.989 0.842826 1.3317 0
M  V30 821 C 103.238 0.436738 1.96915 0
M  V30 822 C 103.551 -1.01025 1.67491 0
M  V30 823 O 104.757 -1.5212 2.24881 0
M  V30 824 C 103.213 0.730021 3.52418 0
M  V30 825 C 102.821 2.19195 3.90714 0
M  V30 826 C 104.565 0.391076 4.22695 0
M  V30 827 C 102.472 2.42907 5.39212 0
M  V30 828 H 101.402 0.15958 0.736919 0
M  V30 829 H 104.053 1.03196 1.51733 0
M  V30 830 H 102.435 0.0643755 3.95948 0
M  V30 831 H 103.609 2.8984 3.58231 0
M  V30 832 H 101.924 2.49425 3.33431 0
M  V30 833 H 104.521 0.545817 5.31907 0
M  V30 834 H 104.864 -0.666294 4.10933 0
M  V30 835 H 105.397 1.01212 3.84709 0
M  V30 836 H 102.136 3.47224 5.55982 0
M  V30 837 H 101.656 1.76827 5.73142 0
M  V30 838 H 103.335 2.2626 6.06148 0
M  V30 839 N 103.467 -1.45747 0.599634 0
M  V30 840 C 104.716 -2.01502 0.0893511 0
M  V30 841 C 105.029 -1.4748 -1.28488 0
M  V30 842 O 106.235 -1.95161 -1.88745 0
M  V30 843 C 104.691 -3.59735 0.109082 0
M  V30 844 C 104.299 -4.22754 1.48267 0
M  V30 845 C 106.043 -4.23085 -0.346374 0
M  V30 846 C 103.95 -5.73115 1.45921 0
M  V30 847 H 102.88 -0.753417 0.0296347 0
M  V30 848 H 105.531 -1.67303 0.753788 0
M  V30 849 H 103.913 -3.91087 -0.621854 0
M  V30 850 H 105.087 -4.02987 2.23468 0
M  V30 851 H 103.402 -3.71567 1.87955 0
M  V30 852 H 105.999 -5.33327 -0.38298 0
M  V30 853 H 106.342 -3.93201 -1.36743 0
M  V30 854 H 106.875 -3.9642 0.331038 0
M  V30 855 H 103.614 -6.07685 2.45762 0
M  V30 856 H 103.134 -5.95097 0.749665 0
M  V30 857 H 104.813 -6.3616 1.17941 0
M  V30 858 N 104.945 -0.338344 -1.53925 0
M  V30 859 C 106.356 0.146651 -1.86123 0
M  V30 860 C 106.707 1.5042 -1.2597 0
M  V30 861 O 105.832 2.08723 -0.571294 0
M  V30 862 C 106.427 0.272879 -3.37699 0
M  V30 863 C 104.986 0.702103 -3.69794 0
M  V30 864 C 104.133 -0.167304 -2.76795 0
M  V30 865 H 107.084 -0.558123 -1.48562 0
M  V30 866 H 107.105 1.10128 -3.64214 0
M  V30 867 H 106.617 -0.715307 -3.81451 0
M  V30 868 H 104.718 1.6995 -3.31584 0
M  V30 869 H 104.831 0.495604 -4.7653 0
M  V30 870 H 103.195 0.359527 -2.5215 0
M  V30 871 H 103.978 -1.15253 -3.23375 0
M  V30 872 N 106.423 1.57458 -0.0668435 0
M  V30 873 C 107.669 1.93587 0.6043 0
M  V30 874 C 108.002 0.946722 1.69561 0
M  V30 875 O 107.277 -0.0248516 1.94484 0
M  V30 876 C 107.56 3.40014 1.18585 0
M  V30 877 C 107.413 4.49685 0.101529 0
M  V30 878 C 108.732 3.87154 2.09284 0
M  V30 879 H 105.851 0.703958 0.218202 0
M  V30 880 H 108.493 1.89542 -0.131804 0
M  V30 881 H 106.643 3.43592 1.81319 0
M  V30 882 H 108.315 4.5823 -0.531279 0
M  V30 883 H 106.558 4.30059 -0.568487 0
M  V30 884 H 107.229 5.49266 0.54874 0
M  V30 885 H 109.705 3.85551 1.56491 0
M  V30 886 H 108.581 4.90231 2.46911 0
M  V30 887 H 108.842 3.2481 2.99918 0
M  V30 888 N 107.901 -0.206675 1.56239 0
M  V30 889 C 109.129 -0.945345 1.8404 0
M  V30 890 C 109.544 -1.77336 0.647885 0
M  V30 891 O 108.901 -1.78425 -0.383511 0
M  V30 892 C 108.952 -1.8509 3.10522 0
M  V30 893 O 108.673 -1.05634 4.25174 0
M  V30 894 C 110.174 -2.70222 3.51418 0
M  V30 895 H 107.394 -0.276372 0.61144 0
M  V30 896 H 109.938 -0.217417 2.03341 0
M  V30 897 H 108.093 -2.53259 2.93153 0
M  V30 898 H 108.507 -1.67238 4.97124 0
M  V30 899 H 109.981 -3.29438 4.42916 0
M  V30 900 H 110.458 -3.43358 2.73864 0
M  V30 901 H 111.064 -2.07443 3.71278 0
M  V30 902 N 109.379 -1.50304 -0.473955 0
M  V30 903 C 110.312 -1.63595 -1.59097 0
M  V30 904 C 111.29 -0.484142 -1.55225 0
M  V30 905 O 112.474 -0.703271 -1.7489 0
M  V30 906 C 109.601 -1.61589 -2.97669 0
M  V30 907 C 108.647 -2.82295 -3.19705 0
M  V30 908 S 109.48 -4.43635 -2.99913 0
M  V30 909 C 110.636 -4.44317 -4.40832 0
M  V30 910 H 110.869 -2.58082 -1.47583 0
M  V30 911 H 108.402 -1.39531 -0.661087 0
M  V30 912 H 110.36 -1.61116 -3.7756 0
M  V30 913 H 109.021 -0.683421 -3.06575 0
M  V30 914 H 108.214 -2.77188 -4.20931 0
M  V30 915 H 107.816 -2.8032 -2.47582 0
M  V30 916 H 110.108 -4.17703 -5.33414 0
M  V30 917 H 111.051 -5.45911 -4.50984 0
M  V30 918 H 111.459 -3.74059 -4.22777 0
M  V30 919 N 110.857 0.726932 -1.39834 0
M  V30 920 C 111.767 1.87131 -1.41489 0
M  V30 921 C 112.783 1.71239 -0.308757 0
M  V30 922 O 113.959 1.93701 -0.551529 0
M  V30 923 C 111.024 3.22811 -1.26468 0
M  V30 924 C 110.085 3.51039 -2.47124 0
M  V30 925 C 109.318 4.80245 -2.3281 0
M  V30 926 O 109.541 5.54537 -1.33585 0
M  V30 927 O 108.475 5.08554 -3.21957 0
M  V30 928 H 112.301 1.8869 -2.3797 0
M  V30 929 H 109.886 0.875837 -1.21035 0
M  V30 930 H 111.768 4.03877 -1.20255 0
M  V30 931 H 110.443 3.22005 -0.330862 0
M  V30 932 H 109.35 2.70027 -2.58914 0
M  V30 933 H 110.683 3.56632 -3.39227 0
M  V30 934 N 112.336 1.25143 0.95797 0
M  V30 935 C 113.582 1.09855 1.70469 0
M  V30 936 C 113.915 -0.360187 1.90831 0
M  V30 937 O 113.19 -1.26568 1.47685 0
M  V30 938 C 113.473 1.8497 3.08963 0
M  V30 939 C 113.326 3.38652 2.96032 0
M  V30 940 C 114.645 1.63016 4.08795 0
M  V30 941 H 111.764 0.400465 0.618706 0
M  V30 942 H 114.406 1.53933 1.11376 0
M  V30 943 H 112.556 1.47505 3.59409 0
M  V30 944 H 114.228 3.85772 2.52938 0
M  V30 945 H 112.471 3.66534 2.32025 0
M  V30 946 H 113.142 3.8642 3.94187 0
M  V30 947 H 115.618 1.95625 3.67247 0
M  V30 948 H 114.494 2.18015 5.03747 0
M  V30 949 H 114.755 0.570692 4.38401 0
M  V30 950 N 113.814 -1.1601 1.06675 0
M  V30 951 C 115.225 -1.68235 0.809565 0
M  V30 952 C 115.576 -1.8454 -0.666303 0
M  V30 953 O 114.701 -1.54374 -1.5165 0
M  V30 954 C 115.296 -3.05585 1.46299 0
M  V30 955 C 113.855 -3.54915 1.25349 0
M  V30 956 C 113.002 -2.30804 1.53703 0
M  V30 957 H 115.953 -1.00318 1.22971 0
M  V30 958 H 115.974 -3.70174 0.880431 0
M  V30 959 H 115.486 -2.93686 2.53713 0
M  V30 960 H 113.587 -3.72067 0.199261 0
M  V30 961 H 113.7 -4.36774 1.9689 0
M  V30 962 H 112.064 -2.36007 0.957739 0
M  V30 963 H 112.847 -2.21499 2.62284 0
M  V30 964 N 115.292 -0.849877 -1.32721 0
M  V30 965 C 116.532 -0.457146 -1.99222 0
M  V30 966 C 116.896 0.968038 -1.6581 0
M  V30 967 O 118.097 1.46507 -2.25364 0
M  V30 968 C 116.368 -0.683966 -3.50794 0
M  V30 969 S 117.927 -0.388095 -4.3708 0
M  V30 970 H 114.745 -0.171464 -0.690015 0
M  V30 971 H 117.347 -1.10155 -1.61512 0
M  V30 972 H 116.051 -1.72038 -3.726 0
M  V30 973 H 115.582 -0.0258086 -3.93392 0
M  V30 974 H 117.597 0.787791 -4.89906 0
M  V30 975 N 116.77 1.45427 -0.607355 0
M  V30 976 C 118.047 1.9557 -0.0344566 0
M  V30 977 C 118.427 1.54979 1.43334 0
M  V30 978 O 117.775 0.812241 2.13576 0
M  V30 979 C 117.985 3.48226 -0.232321 0
M  V30 980 C 119.333 4.2445 -0.113001 0
M  V30 981 O 120.357 3.55829 -0.162431 0
M  V30 982 O 119.216 5.465 0.00209442 0
M  V30 983 H 116.31 0.826222 0.0358667 0
M  V30 984 H 118.856 1.55594 -0.6774 0
M  V30 985 H 117.628 3.70739 -1.25174 0
M  V30 986 H 117.251 3.95092 0.445896 0
M  V30 987 N 118.248 0.346503 1.53744 0
M  V30 988 C 119.473 -0.253074 2.0585 0
M  V30 989 C 119.898 -1.43202 1.21962 0
M  V30 990 O 119.256 -1.79783 0.234073 0
M  V30 991 C 119.304 -0.643193 3.54817 0
M  V30 992 O 118.408 -1.74286 3.73762 0
M  V30 993 H 117.749 -0.0413583 0.662711 0
M  V30 994 H 120.279 0.501574 1.98357 0
M  V30 995 H 120.289 -0.919526 3.97503 0
M  V30 996 H 118.964 0.218966 4.15323 0
M  V30 997 H 117.541 -1.46356 3.42979 0
M  V30 998 N 119.726 -1.57421 0.075193 0
M  V30 999 C 121.142 -1.57099 -0.281444 0
M  V30 1000 C 121.342 -1.08486 -1.69803 0
M  V30 1001 O 120.398 -0.752279 -2.41033 0
M  V30 1002 C 121.711 -3.00571 -0.0880041 0
M  V30 1003 C 123.259 -3.12605 -0.157281 0
M  V30 1004 C 123.734 -4.57999 0.0079207 0
M  V30 1005 N 125.225 -4.63176 -0.0475725 0
M  V30 1006 C 125.96 -5.73373 0.0557876 0
M  V30 1007 N 125.456 -6.92473 0.21286 0
M  V30 1008 N 127.249 -5.621 -0.00152098 0
M  V30 1009 H 119.4 -1.87335 1.00098 0
M  V30 1010 H 121.663 -0.86377 0.390646 0
M  V30 1011 H 121.369 -3.40262 0.889629 0
M  V30 1012 H 121.243 -3.67754 -0.838875 0
M  V30 1013 H 123.63 -2.72798 -1.1254 0
M  V30 1014 H 123.711 -2.48053 0.62475 0
M  V30 1015 H 123.355 -4.98496 0.972824 0
M  V30 1016 H 123.285 -5.20586 -0.793556 0
M  V30 1017 H 125.776 -3.7753 -0.167244 0
M  V30 1018 H 126.089 -7.72279 0.283781 0
M  V30 1019 H 124.434 -6.94556 0.248267 0
M  V30 1020 H 127.625 -4.67938 -0.122958 0
M  V30 1021 H 127.798 -6.47948 0.0824844 0
M  V30 1022 N 121.204 0.198386 -1.56346 0
M  V30 1023 C 122.452 0.91747 -1.80075 0
M  V30 1024 C 122.773 1.83929 -0.647692 0
M  V30 1025 O 122.043 1.93029 0.334166 0
M  V30 1026 H 120.623 0.341774 -0.664228 0
M  V30 1027 H 123.285 0.204684 -1.93822 0
M  V30 1028 H 122.381 1.51055 -2.7311 0
M  V30 1029 N 122.682 1.50554 0.465978 0
M  V30 1030 C 123.614 1.65949 1.58093 0
M  V30 1031 C 124.627 0.540827 1.53554 0
M  V30 1032 O 125.816 0.814187 1.5885 0
M  V30 1033 C 122.916 1.63261 2.96983 0
M  V30 1034 C 122.089 2.91245 3.26336 0
M  V30 1035 C 121.148 2.8113 4.44806 0
M  V30 1036 O 120.174 3.55086 4.44862 0
M  V30 1037 N 121.376 1.95032 5.46756 0
M  V30 1038 H 124.141 2.62122 1.45301 0
M  V30 1039 H 121.702 1.48082 0.65448 0
M  V30 1040 H 123.694 1.54101 3.74212 0
M  V30 1041 H 122.264 0.748032 3.03518 0
M  V30 1042 H 121.484 3.14493 2.37672 0
M  V30 1043 H 122.772 3.76022 3.42761 0
M  V30 1044 H 122.17 1.3427 5.49534 0
M  V30 1045 H 120.727 1.91772 6.2295 0
M  V30 1046 N 124.16 -0.719506 1.40217 0
M  V30 1047 C 125.576 -1.02707 1.22161 0
M  V30 1048 C 125.776 -2.0128 0.0940557 0
M  V30 1049 O 124.832 -2.46452 -0.549318 0
M  V30 1050 C 126.145 -1.57454 2.56181 0
M  V30 1051 C 127.693 -1.69458 2.63159 0
M  V30 1052 C 128.168 -2.27611 3.97438 0
M  V30 1053 N 129.659 -2.35002 3.99159 0
M  V30 1054 C 130.394 -2.80972 4.99842 0
M  V30 1055 N 129.89 -3.26723 6.10921 0
M  V30 1056 N 131.683 -2.80321 4.87213 0
M  V30 1057 H 123.834 -0.0660492 2.12297 0
M  V30 1058 H 126.097 -0.0919077 0.943534 0
M  V30 1059 H 125.803 -0.924873 3.39321 0
M  V30 1060 H 125.677 -2.56036 2.76993 0
M  V30 1061 H 128.064 -2.33543 1.80393 0
M  V30 1062 H 128.145 -0.694867 2.46181 0
M  V30 1063 H 127.789 -1.6415 4.80643 0
M  V30 1064 H 127.719 -3.2829 4.11744 0
M  V30 1065 H 130.21 -2.02685 3.18947 0
M  V30 1066 H 130.523 -3.60355 6.8364 0
M  V30 1067 H 128.868 -3.24692 6.14492 0
M  V30 1068 H 132.059 -2.43912 3.9953 0
M  V30 1069 H 132.232 -3.15831 5.65822 0
M  V30 1070 N 125.638 -1.25649 -0.95132 0
M  V30 1071 C 126.571 -1.00644 -2.04807 0
M  V30 1072 C 127.549 0.0654271 -1.62468 0
M  V30 1073 O 128.733 -0.074911 -1.88351 0
M  V30 1074 C 125.86 -0.522052 -3.34653 0
M  V30 1075 C 124.906 -1.58495 -3.95957 0
M  V30 1076 S 125.739 -3.17108 -4.31512 0
M  V30 1077 C 126.895 -2.70412 -5.64471 0
M  V30 1078 H 127.128 -1.93508 -2.25703 0
M  V30 1079 H 124.661 -1.09216 -1.09139 0
M  V30 1080 H 126.619 -0.24923 -4.09743 0
M  V30 1081 H 125.28 0.386146 -3.11717 0
M  V30 1082 H 124.473 -1.1968 -4.89584 0
M  V30 1083 H 124.075 -1.80862 -3.2736 0
M  V30 1084 H 126.367 -2.14245 -6.42733 0
M  V30 1085 H 127.31 -3.62693 -6.08161 0
M  V30 1086 H 127.718 -2.10302 -5.23864 0
M  V30 1087 N 127.117 1.15442 -1.07289 0
M  V30 1088 C 128.363 1.8672 -0.806679 0
M  V30 1089 C 128.718 1.80723 0.660084 0
M  V30 1090 O 128.011 1.21902 1.47819 0
M  V30 1091 C 128.205 3.3489 -1.24834 0
M  V30 1092 C 128.034 3.55313 -2.7565 0
M  V30 1093 C 126.804 3.7082 -3.4325 0
M  V30 1094 C 129.002 3.53188 -3.73848 0
M  V30 1095 N 126.984 3.7929 -4.82713 0
M  V30 1096 C 128.355 3.67765 -4.99149 0
M  V30 1097 C 130.41 3.36459 -3.67015 0
M  V30 1098 C 129.113 3.6734 -6.18428 0
M  V30 1099 C 131.139 3.37333 -4.85758 0
M  V30 1100 C 130.501 3.52438 -6.09891 0
M  V30 1101 H 126.6 0.700433 -0.347733 0
M  V30 1102 H 129.184 1.38441 -1.36902 0
M  V30 1103 H 127.355 3.81786 -0.713713 0
M  V30 1104 H 129.087 3.93875 -0.929745 0
M  V30 1105 H 125.842 3.71568 -2.93656 0
M  V30 1106 H 126.266 3.8727 -5.55294 0
M  V30 1107 H 130.908 3.237 -2.71989 0
M  V30 1108 H 128.626 3.78878 -7.13777 0
M  V30 1109 H 132.212 3.25617 -4.82146 0
M  V30 1110 H 131.092 3.53047 -7.00234 0
M  V30 1111 N 128.595 0.856903 1.32268 0
M  V30 1112 C 129.841 0.471355 1.97863 0
M  V30 1113 C 130.196 -0.962896 1.66572 0
M  V30 1114 O 129.489 -1.66686 0.944797 0
M  V30 1115 C 129.683 0.649919 3.51441 0
M  V30 1116 C 129.512 2.09997 3.97657 0
M  V30 1117 C 128.282 2.73893 4.2463 0
M  V30 1118 C 130.48 3.07081 4.1256 0
M  V30 1119 N 128.462 4.09786 4.57109 0
M  V30 1120 C 129.833 4.27968 4.48602 0
M  V30 1121 C 131.888 3.03247 3.949 0
M  V30 1122 C 130.591 5.45521 4.68827 0
M  V30 1123 C 132.617 4.20046 4.16311 0
M  V30 1124 C 131.979 5.39692 4.52672 0
M  V30 1125 H 128.078 0.221263 0.750044 0
M  V30 1126 H 130.662 1.10876 1.60045 0
M  V30 1127 H 128.833 0.0421938 3.88377 0
M  V30 1128 H 130.565 0.234044 4.04023 0
M  V30 1129 H 127.32 2.24918 4.16784 0
M  V30 1130 H 127.744 4.7989 4.7753 0
M  V30 1131 H 132.386 2.11863 3.65888 0
M  V30 1132 H 130.104 6.37434 4.96693 0
M  V30 1133 H 133.69 4.18517 4.04147 0
M  V30 1134 H 132.57 6.28566 4.68907 0
M  V30 1135 N 130.073 -1.45103 0.615059 0
M  V30 1136 C 131.036 -2.29025 -0.0895485 0
M  V30 1137 C 132.036 -1.40174 -0.787906 0
M  V30 1138 O 133.226 -1.62217 -0.634933 0
M  V30 1139 C 130.358 -3.21376 -1.13711 0
M  V30 1140 H 131.551 -2.92807 0.648382 0
M  V30 1141 H 129.104 -1.51749 0.374444 0
M  V30 1142 H 129.839 -2.6241 -1.90556 0
M  V30 1143 H 129.624 -3.86834 -0.640475 0
M  V30 1144 H 131.114 -3.84459 -1.63036 0
M  V30 1145 N 131.551 -0.354651 -1.53558 0
M  V30 1146 C 132.798 0.238443 -2.01091 0
M  V30 1147 C 133.126 1.49663 -1.24222 0
M  V30 1148 O 132.381 1.93049 -0.321003 0
M  V30 1149 C 132.68 0.587121 -3.52545 0
M  V30 1150 C 132.346 -0.575472 -4.47213 0
M  V30 1151 C 131.008 -0.894497 -4.72813 0
M  V30 1152 C 133.36 -1.35489 -5.03281 0
M  V30 1153 C 130.688 -1.99511 -5.51736 0
M  V30 1154 C 133.04 -2.44583 -5.83405 0
M  V30 1155 C 131.704 -2.77033 -6.07296 0
M  V30 1156 H 130.974 0.0872526 -0.735845 0
M  V30 1157 H 133.621 -0.484859 -1.8526 0
M  V30 1158 H 131.926 1.39129 -3.66265 0
M  V30 1159 H 133.623 1.05809 -3.86789 0
M  V30 1160 H 130.213 -0.316774 -4.27428 0
M  V30 1161 H 134.397 -1.12167 -4.83459 0
M  V30 1162 H 129.653 -2.25063 -5.68469 0
M  V30 1163 H 133.827 -3.05401 -6.25862 0
M  V30 1164 H 131.454 -3.6244 -6.68237 0
M  V30 1165 N 133.029 1.57378 -0.0835403 0
M  V30 1166 C 133.959 2.1641 0.87686 0
M  V30 1167 C 134.94 1.09429 1.30228 0
M  V30 1168 O 136.125 1.37516 1.37124 0
M  V30 1169 C 133.255 2.73517 2.14022 0
M  V30 1170 C 132.209 3.85769 1.85381 0
M  V30 1171 C 131.535 4.29529 3.18448 0
M  V30 1172 C 132.835 5.09486 1.14984 0
M  V30 1173 H 134.529 2.96914 0.385059 0
M  V30 1174 H 132.075 1.42823 0.18377 0
M  V30 1175 H 134.028 3.13463 2.81636 0
M  V30 1176 H 132.752 1.90252 2.65465 0
M  V30 1177 H 131.411 3.46345 1.20169 0
M  V30 1178 H 131.059 3.43169 3.67755 0
M  V30 1179 H 130.759 5.05204 3.00071 0
M  V30 1180 H 132.283 4.72099 3.8724 0
M  V30 1181 H 133.697 5.46674 1.72687 0
M  V30 1182 H 132.094 5.90515 1.06826 0
M  V30 1183 H 133.164 4.84724 0.130749 0
M  V30 1184 N 134.507 -0.190092 1.56449 0
M  V30 1185 C 135.47 -1.21925 1.9408 0
M  V30 1186 C 136.47 -1.38176 0.822431 0
M  V30 1187 O 137.66 -1.35903 1.08977 0
M  V30 1188 C 134.792 -2.58773 2.21922 0
M  V30 1189 H 135.985 -0.897464 2.86157 0
M  V30 1190 H 133.538 -0.43181 1.50217 0
M  V30 1191 H 134.273 -2.95998 1.32499 0
M  V30 1192 H 134.058 -2.48348 3.03424 0
M  V30 1193 H 135.548 -3.32978 2.52022 0
M  V30 1194 N 135.985 -1.50799 -0.457987 0
M  V30 1195 C 137.21 -1.66496 -1.23668 0
M  V30 1196 C 137.635 -0.353288 -1.84752 0
M  V30 1197 O 136.993 0.684346 -1.67888 0
M  V30 1198 C 137.041 -2.76763 -2.3116 0
M  V30 1199 O 136.145 -2.38928 -3.36136 0
M  V30 1200 H 135.486 -0.555828 -0.363252 0
M  V30 1201 H 138.016 -1.9725 -0.543474 0
M  V30 1202 H 138.026 -3.00232 -2.76269 0
M  V30 1203 H 136.701 -3.71954 -1.86073 0
M  V30 1204 H 135.278 -2.25953 -2.96647 0
M  V30 1205 N 137.463 0.71206 -1.40597 0
M  V30 1206 C 138.688 1.50617 -1.42581 0
M  V30 1207 C 139.113 1.88079 -0.0282102 0
M  V30 1208 O 138.471 1.53511 0.964579 0
M  V30 1209 C 138.519 2.7557 -2.3258 0
M  V30 1210 O 137.623 3.72414 -1.77148 0
M  V30 1211 H 136.964 0.453966 -0.484573 0
M  V30 1212 H 139.494 0.876649 -1.84868 0
M  V30 1213 H 139.504 3.2406 -2.47889 0
M  V30 1214 H 138.179 2.47639 -3.34138 0
M  V30 1215 H 136.756 3.31276 -1.71204 0
M  V30 1216 N 138.941 1.26152 0.944643 0
M  V30 1217 C 139.874 1.01729 2.04271 0
M  V30 1218 C 140.852 -0.0568101 1.62501 0
M  V30 1219 O 142.036 0.0848987 1.88309 0
M  V30 1220 C 139.163 0.539792 3.34371 0
M  V30 1221 C 138.209 1.60593 3.9511 0
M  V30 1222 S 139.042 3.19392 4.29825 0
M  V30 1223 C 140.198 2.73402 5.63029 0
M  V30 1224 H 140.431 1.94703 2.24673 0
M  V30 1225 H 137.964 1.09793 1.08558 0
M  V30 1226 H 139.922 0.270956 4.09605 0
M  V30 1227 H 138.583 -0.369609 3.11918 0
M  V30 1228 H 137.776 1.22275 4.88943 0
M  V30 1229 H 137.378 1.82596 3.26397 0
M  V30 1230 H 139.67 2.1765 6.41588 0
M  V30 1231 H 140.613 3.65913 6.06229 0
M  V30 1232 H 141.021 2.13077 5.22741 0
M  V30 1233 N 140.419 -1.14872 1.07899 0
M  V30 1234 C 141.665 -1.86064 0.806725 0
M  V30 1235 C 141.998 -1.82434 -0.665706 0
M  V30 1236 O 141.273 -1.25138 -1.48899 0
M  V30 1237 C 141.556 -3.34929 1.32267 0
M  V30 1238 C 141.409 -3.47161 2.86006 0
M  V30 1239 C 142.728 -4.29863 0.943717 0
M  V30 1240 H 139.847 -0.675591 0.294526 0
M  V30 1241 H 142.489 -1.34925 1.33773 0
M  V30 1242 H 140.639 -3.78611 0.870974 0
M  V30 1243 H 142.311 -3.12302 3.39507 0
M  V30 1244 H 140.554 -2.88539 3.23925 0
M  V30 1245 H 141.225 -4.51777 3.17177 0
M  V30 1246 H 143.701 -3.9417 1.33302 0
M  V30 1247 H 142.577 -5.32494 1.33198 0
M  V30 1248 H 142.838 -4.41846 -0.149796 0
M  V30 1249 N 141.898 -0.863906 -1.31812 0
M  V30 1250 C 143.126 -0.486111 -2.01108 0
M  V30 1251 C 143.541 0.919755 -1.64882 0
M  V30 1252 O 142.898 1.60162 -0.874893 0
M  V30 1253 C 142.949 -0.626435 -3.56031 0
M  V30 1254 O 142.67 -1.97693 -3.90959 0
M  V30 1255 C 144.171 -0.248857 -4.42601 0
M  V30 1256 H 141.391 -0.190052 -0.643523 0
M  V30 1257 H 143.935 -1.1634 -1.68182 0
M  V30 1258 H 142.09 0.00322717 -3.874 0
M  V30 1259 H 142.504 -1.98034 -4.85678 0
M  V30 1260 H 143.978 -0.398016 -5.50563 0
M  V30 1261 H 144.455 0.811489 -4.31638 0
M  V30 1262 H 145.061 -0.853971 -4.16638 0
M  V30 1263 N 143.376 1.44774 -0.622745 0
M  V30 1264 C 144.623 2.02121 -0.1239 0
M  V30 1265 C 144.951 1.48915 1.25118 0
M  V30 1266 O 144.206 0.660045 1.84233 0
M  V30 1267 C 144.505 3.57364 -0.0508323 0
M  V30 1268 C 144.171 4.29787 -1.36358 0
M  V30 1269 C 142.833 4.4929 -1.72314 0
M  V30 1270 C 145.185 4.71062 -2.23048 0
M  V30 1271 C 142.513 5.07325 -2.94682 0
M  V30 1272 C 144.865 5.30452 -3.44679 0
M  V30 1273 C 143.529 5.48175 -3.80868 0
M  V30 1274 H 142.799 0.739612 -0.0453381 0
M  V30 1275 H 145.446 1.73648 -0.807389 0
M  V30 1276 H 143.751 3.85202 0.715991 0
M  V30 1277 H 145.448 3.99456 0.351533 0
M  V30 1278 H 142.038 4.14932 -1.07375 0
M  V30 1279 H 146.222 4.55715 -1.96565 0
M  V30 1280 H 141.478 5.19235 -3.22809 0
M  V30 1281 H 145.652 5.61385 -4.12092 0
M  V30 1282 H 143.279 5.92912 -4.75773 0
M  V30 1283 N 144.854 0.36279 1.53368 0
M  V30 1284 C 146.101 -0.227776 2.01215 0
M  V30 1285 C 146.429 -1.49003 1.25014 0
M  V30 1286 O 145.684 -1.92876 0.331236 0
M  V30 1287 C 145.983 -0.568417 3.52851 0
M  V30 1288 C 145.649 0.59918 4.46901 0
M  V30 1289 C 144.311 0.919559 4.72332 0
M  V30 1290 C 146.663 1.38156 5.02556 0
M  V30 1291 C 143.991 2.02434 5.5067 0
M  V30 1292 C 146.343 2.47674 5.821 0
M  V30 1293 C 145.007 2.8025 6.05819 0
M  V30 1294 H 144.277 -0.083349 0.736297 0
M  V30 1295 H 146.924 0.494677 1.85001 0
M  V30 1296 H 145.229 -1.37185 3.66998 0
M  V30 1297 H 146.926 -1.03756 3.87344 0
M  V30 1298 H 143.516 0.339437 4.27254 0
M  V30 1299 H 147.7 1.14729 4.82857 0
M  V30 1300 H 142.956 2.28075 5.67267 0
M  V30 1301 H 147.13 3.08716 6.24234 0
M  V30 1302 H 144.757 3.65979 6.66306 0
M  V30 1303 N 146.332 -1.57332 0.0918853 0
M  V30 1304 C 147.58 -1.93853 -0.571446 0
M  V30 1305 C 147.901 -0.974212 -1.6892 0
M  V30 1306 O 147.171 -0.0257254 -1.95883 0
M  V30 1307 H 145.751 -0.715666 -0.214082 0
M  V30 1308 H 148.413 -1.94287 0.154464 0
M  V30 1309 H 147.509 -2.96191 -0.983729 0
M  V30 1310 N 147.81 0.181792 -1.56548 0
M  V30 1311 C 149.058 0.89832 -1.81038 0
M  V30 1312 C 149.379 1.83232 -0.667164 0
M  V30 1313 O 148.649 1.93372 0.313673 0
M  V30 1314 H 147.229 0.33471 -0.667816 0
M  V30 1315 H 149.891 0.184116 -1.94028 0
M  V30 1316 H 148.987 1.4815 -2.74696 0
M  V30 1317 N 149.288 1.51039 0.449983 0
M  V30 1318 C 150.218 1.74379 1.55288 0
M  V30 1319 C 151.199 0.593236 1.5942 0
M  V30 1320 O 152.384 0.834625 1.7535 0
M  V30 1321 C 149.514 1.85728 2.93466 0
M  V30 1322 C 148.468 3.01078 3.04197 0
M  V30 1323 C 147.794 2.97595 4.44231 0
M  V30 1324 C 149.094 4.41254 2.7945 0
M  V30 1325 H 150.788 2.66725 1.36008 0
M  V30 1326 H 148.334 1.2835 0.652864 0
M  V30 1327 H 150.287 2.0064 3.70569 0
M  V30 1328 H 149.011 0.900207 3.13949 0
M  V30 1329 H 147.67 2.85851 2.29531 0
M  V30 1330 H 147.318 1.99691 4.61663 0
M  V30 1331 H 147.018 3.75046 4.52343 0
M  V30 1332 H 148.542 3.14583 5.23326 0
M  V30 1333 H 149.956 4.56897 3.46292 0
M  V30 1334 H 148.353 5.20315 2.98985 0
M  V30 1335 H 149.423 4.52164 1.75144 0
M  V30 1336 N 150.766 -0.704594 1.40972 0
M  V30 1337 C 152.013 -1.46458 1.39844 0
M  V30 1338 C 152.341 -1.94499 0.00447594 0
M  V30 1339 O 151.596 -1.69275 -0.982057 0
M  V30 1340 C 151.895 -2.698 2.34399 0
M  V30 1341 C 151.561 -2.40464 3.81429 0
M  V30 1342 C 150.223 -2.32174 4.21484 0
M  V30 1343 C 152.575 -2.16086 4.74296 0
M  V30 1344 C 149.903 -1.97589 5.52427 0
M  V30 1345 C 152.255 -1.83011 6.05549 0
M  V30 1346 C 150.919 -1.7321 6.44635 0
M  V30 1347 H 150.189 -0.535927 0.511725 0
M  V30 1348 H 152.836 -0.806124 1.73706 0
M  V30 1349 H 151.141 -3.40536 1.93759 0
M  V30 1350 H 152.838 -3.27919 2.30804 0
M  V30 1351 H 149.428 -2.47808 3.49699 0
M  V30 1352 H 153.612 -2.2144 4.4416 0
M  V30 1353 H 148.868 -1.88547 5.81601 0
M  V30 1354 H 153.042 -1.63164 6.77016 0
M  V30 1355 H 150.669 -1.46179 7.46013 0
M  V30 1356 N 152.244 -1.26651 -0.937939 0
M  V30 1357 C 153.493 -1.11775 -1.67897 0
M  V30 1358 C 153.806 0.33794 -1.92659 0
M  V30 1359 O 155.012 0.607434 -2.64618 0
M  V30 1360 C 153.468 -1.9523 -3.02346 0
M  V30 1361 C 153.076 -3.45393 -2.8532 0
M  V30 1362 C 154.82 -1.88972 -3.80118 0
M  V30 1363 C 152.727 -4.21083 -4.15263 0
M  V30 1364 H 151.657 -0.414696 -0.629717 0
M  V30 1365 H 154.308 -1.50988 -1.04283 0
M  V30 1366 H 152.69 -1.48853 -3.66959 0
M  V30 1367 H 153.864 -3.99561 -2.29537 0
M  V30 1368 H 152.179 -3.52921 -2.20988 0
M  V30 1369 H 154.776 -2.42805 -4.76392 0
M  V30 1370 H 155.119 -0.86113 -4.07296 0
M  V30 1371 H 155.652 -2.33189 -3.22285 0
M  V30 1372 H 152.391 -5.24425 -3.93267 0
M  V30 1373 H 151.911 -3.71695 -4.70747 0
M  V30 1374 H 153.59 -4.29706 -4.83696 0
M  V30 1375 N 153.722 1.14298 -1.08507 0
M  V30 1376 C 154.971 1.84708 -0.810305 0
M  V30 1377 C 155.284 1.83903 0.666271 0
M  V30 1378 O 156.49 2.50112 1.05624 0
M  V30 1379 C 154.946 3.31572 -1.39957 0
M  V30 1380 C 154.554 3.40791 -2.90801 0
M  V30 1381 C 156.298 4.07087 -1.20334 0
M  V30 1382 C 154.205 4.81872 -3.4286 0
M  V30 1383 H 153.135 0.691985 -0.299454 0
M  V30 1384 H 155.786 1.28841 -1.30661 0
M  V30 1385 H 154.168 3.87183 -0.830976 0
M  V30 1386 H 155.342 2.95225 -3.53806 0
M  V30 1387 H 153.657 2.78732 -3.0935 0
M  V30 1388 H 156.254 5.11225 -1.56693 0
M  V30 1389 H 156.597 4.16054 -0.143237 0
M  V30 1390 H 157.13 3.57779 -1.73893 0
M  V30 1391 H 153.869 4.78094 -4.48449 0
M  V30 1392 H 153.389 5.27972 -2.84615 0
M  V30 1393 H 155.068 5.50765 -3.39509 0
M  V30 1394 N 155.201 0.870884 1.31352 0
M  V30 1395 C 156.131 0.343096 2.30966 0
M  V30 1396 C 157.112 -0.566507 1.60389 0
M  V30 1397 O 158.297 -0.483336 1.88089 0
M  V30 1398 C 155.427 -0.455487 3.443 0
M  V30 1399 C 154.381 0.361103 4.26474 0
M  V30 1400 C 153.707 -0.563221 5.31725 0
M  V30 1401 C 155.007 1.59566 4.97329 0
M  V30 1402 H 156.701 1.17548 2.75359 0
M  V30 1403 H 154.247 0.566686 1.32381 0
M  V30 1404 H 156.2 -0.83525 4.13039 0
M  V30 1405 H 154.924 -1.32139 2.98675 0
M  V30 1406 H 153.583 0.722825 3.59403 0
M  V30 1407 H 153.231 -1.42643 4.82351 0
M  V30 1408 H 152.931 -0.0207409 5.87596 0
M  V30 1409 H 154.455 -0.939808 6.03324 0
M  V30 1410 H 155.869 1.28728 5.58661 0
M  V30 1411 H 154.266 2.07728 5.63 0
M  V30 1412 H 155.336 2.34798 4.24262 0
M  V30 1413 N 156.679 -1.44442 0.630414 0
M  V30 1414 C 157.609 -2.33418 -0.0618083 0
M  V30 1415 C 158.59 -1.48165 -0.835541 0
M  V30 1416 O 159.775 -1.76886 -0.801564 0
M  V30 1417 C 156.905 -3.31222 -1.04449 0
M  V30 1418 C 155.859 -4.26288 -0.382436 0
M  V30 1419 C 155.185 -5.13954 -1.47497 0
M  V30 1420 C 156.485 -5.1744 0.710865 0
M  V30 1421 H 158.179 -2.91548 0.681184 0
M  V30 1422 H 155.725 -1.40191 0.329026 0
M  V30 1423 H 157.678 -3.92351 -1.53748 0
M  V30 1424 H 156.402 -2.71299 -1.81836 0
M  V30 1425 H 155.061 -3.6649 0.0899054 0
M  V30 1426 H 154.709 -4.50385 -2.2397 0
M  V30 1427 H 154.409 -5.7837 -1.03737 0
M  V30 1428 H 155.933 -5.77955 -1.96979 0
M  V30 1429 H 157.347 -5.72509 0.300996 0
M  V30 1430 H 155.744 -5.90455 1.07156 0
M  V30 1431 H 156.814 -4.58496 1.57829 0
M  V30 1432 N 158.157 -0.370918 -1.53173 0
M  V30 1433 C 159.403 0.209976 -2.02313 0
M  V30 1434 C 159.758 1.45987 -1.25322 0
M  V30 1435 O 159.051 1.8856 -0.339965 0
M  V30 1436 C 159.245 0.549696 -3.53147 0
M  V30 1437 C 159.074 -0.665721 -4.44745 0
M  V30 1438 C 157.844 -1.17942 -4.91343 0
M  V30 1439 C 160.042 -1.53255 -4.90935 0
M  V30 1440 N 158.024 -2.35431 -5.66962 0
M  V30 1441 C 159.395 -2.55403 -5.64951 0
M  V30 1442 C 161.45 -1.5548 -4.73002 0
M  V30 1443 C 160.153 -3.5964 -6.22938 0
M  V30 1444 C 162.179 -2.58613 -5.31858 0
M  V30 1445 C 161.541 -3.59485 -6.05764 0
M  V30 1446 H 157.64 0.0394095 -0.781006 0
M  V30 1447 H 160.224 -0.516666 -1.8772 0
M  V30 1448 H 158.395 1.24541 -3.67891 0
M  V30 1449 H 160.127 1.11614 -3.89004 0
M  V30 1450 H 156.882 -0.743228 -4.67732 0
M  V30 1451 H 157.306 -2.94827 -6.09431 0
M  V30 1452 H 161.948 -0.788457 -4.15383 0
M  V30 1453 H 159.666 -4.37153 -6.79649 0
M  V30 1454 H 163.252 -2.61195 -5.19873 0
M  V30 1455 H 162.132 -4.3798 -6.50495 0
M  V30 1456 N 159.635 1.57281 -0.100228 0
M  V30 1457 C 161.051 1.57527 0.256416 0
M  V30 1458 C 161.251 1.11173 1.68056 0
M  V30 1459 O 160.307 0.79053 2.39806 0
M  V30 1460 C 161.62 3.00673 0.0401747 0
M  V30 1461 C 163.168 3.12815 0.107528 0
M  V30 1462 C 163.643 4.57929 -0.0807834 0
M  V30 1463 N 165.134 4.63193 -0.0261207 0
M  V30 1464 C 165.869 5.73212 -0.146999 0
M  V30 1465 N 165.365 6.92047 -0.322999 0
M  V30 1466 N 167.158 5.62031 -0.0879044 0
M  V30 1467 H 159.309 1.85718 -1.03065 0
M  V30 1468 H 161.572 0.857446 -0.404339 0
M  V30 1469 H 161.278 3.38804 -0.943649 0
M  V30 1470 H 161.152 3.69042 0.780262 0
M  V30 1471 H 163.539 2.74554 1.08186 0
M  V30 1472 H 163.62 2.47028 -0.664134 0
M  V30 1473 H 163.264 4.96886 -1.05201 0
M  V30 1474 H 163.194 5.21783 0.710635 0
M  V30 1475 H 165.685 3.77748 0.107161 0
M  V30 1476 H 165.998 7.7173 -0.406608 0
M  V30 1477 H 164.343 6.94074 -0.358733 0
M  V30 1478 H 167.534 4.68075 0.048498 0
M  V30 1479 H 167.707 6.47734 -0.185557 0
M  V30 1480 N 161.113 -0.173488 1.56642 0
M  V30 1481 C 162.341 -0.906095 1.86004 0
M  V30 1482 C 162.756 -1.75921 0.685355 0
M  V30 1483 O 162.113 -1.79198 -0.345578 0
M  V30 1484 C 162.164 -1.78462 3.14378 0
M  V30 1485 O 161.885 -0.965914 4.27319 0
M  V30 1486 C 163.386 -2.62707 3.57071 0
M  V30 1487 H 160.606 -0.263341 0.617165 0
M  V30 1488 H 163.15 -0.174236 2.03756 0
M  V30 1489 H 161.305 -2.46984 2.98459 0
M  V30 1490 H 161.719 -1.56655 5.00559 0
M  V30 1491 H 163.193 -3.19969 4.49804 0
M  V30 1492 H 163.67 -3.37472 2.81086 0
M  V30 1493 H 164.276 -1.99521 3.75595 0
M  V30 1494 N 162.591 -1.51276 -0.441967 0
M  V30 1495 C 163.521 -1.752 -1.54361 0
M  V30 1496 C 164.502 -0.601682 -1.59103 0
M  V30 1497 O 165.687 -0.843913 -1.74905 0
M  V30 1498 C 162.817 -1.87282 -2.92477 0
M  V30 1499 C 161.771 -3.02687 -3.02596 0
M  V30 1500 C 161.097 -2.99947 -4.42647 0
M  V30 1501 C 162.397 -4.4273 -2.77106 0
M  V30 1502 H 164.091 -2.67442 -1.34592 0
M  V30 1503 H 161.637 -1.28694 -0.646048 0
M  V30 1504 H 163.59 -2.02602 -3.695 0
M  V30 1505 H 162.314 -0.916844 -3.13467 0
M  V30 1506 H 160.973 -2.87065 -2.28012 0
M  V30 1507 H 160.621 -2.02136 -4.60597 0
M  V30 1508 H 160.321 -3.77439 -4.50348 0
M  V30 1509 H 161.845 -3.17354 -5.2165 0
M  V30 1510 H 163.259 -4.58727 -3.43864 0
M  V30 1511 H 161.656 -5.21893 -2.96222 0
M  V30 1512 H 162.726 -4.53087 -1.72744 0
M  V30 1513 N 164.069 0.697108 -1.41344 0
M  V30 1514 C 165.016 1.81106 -1.43071 0
M  V30 1515 C 165.986 1.63632 -0.285275 0
M  V30 1516 O 167.171 1.84504 -0.486091 0
M  V30 1517 C 164.311 3.18975 -1.31715 0
M  V30 1518 C 163.424 3.47892 -2.56115 0
M  V30 1519 C 162.559 4.75367 -2.37064 0
M  V30 1520 C 161.598 4.97247 -3.56948 0
M  V30 1521 N 160.735 6.15947 -3.36977 0
M  V30 1522 H 165.575 1.78965 -2.38276 0
M  V30 1523 H 163.112 0.873975 -1.18322 0
M  V30 1524 H 165.07 3.98615 -1.23133 0
M  V30 1525 H 163.7 3.20297 -0.401183 0
M  V30 1526 H 162.752 2.62669 -2.75153 0
M  V30 1527 H 164.064 3.59962 -3.45295 0
M  V30 1528 H 163.218 5.63059 -2.25941 0
M  V30 1529 H 161.957 4.65541 -1.45338 0
M  V30 1530 H 160.962 4.08004 -3.68527 0
M  V30 1531 H 162.187 5.08934 -4.49626 0
M  V30 1532 H 160.133 6.07336 -2.47949 0
M  V30 1533 H 160.05 6.28777 -4.19732 0
M  V30 1534 H 161.318 7.06377 -3.29623 0
M  V30 1535 N 165.547 1.27147 0.931209 0
M  V30 1536 C 166.777 1.15914 1.71019 0
M  V30 1537 C 167.185 -0.287112 1.87009 0
M  V30 1538 O 166.528 -1.20761 1.38429 0
M  V30 1539 C 166.59 1.76647 3.13107 0
M  V30 1540 C 166.254 3.25807 3.20467 0
M  V30 1541 C 167.251 4.22489 3.02983 0
M  V30 1542 C 164.936 3.66452 3.43538 0
M  V30 1543 C 166.93 5.57794 3.08454 0
M  V30 1544 C 164.617 5.01888 3.48643 0
M  V30 1545 C 165.615 5.97369 3.31119 0
M  V30 1546 O 165.303 7.30337 3.35952 0
M  V30 1547 H 165.035 0.404062 0.54195 0
M  V30 1548 H 167.589 1.68457 1.17521 0
M  V30 1549 H 165.819 1.18578 3.68071 0
M  V30 1550 H 167.508 1.60179 3.72958 0
M  V30 1551 H 168.274 3.92425 2.85004 0
M  V30 1552 H 164.153 2.92611 3.5623 0
M  V30 1553 H 167.697 6.32298 2.94694 0
M  V30 1554 H 163.594 5.31609 3.66145 0
M  V30 1555 H 164.362 7.38739 3.5243 0
M  V30 1556 N 167.025 -1.13721 1.09112 0
M  V30 1557 C 167.955 -2.21148 0.749385 0
M  V30 1558 C 168.936 -1.6792 -0.271475 0
M  V30 1559 O 170.121 -1.93693 -0.140251 0
M  V30 1560 C 167.251 -3.46905 0.165659 0
M  V30 1561 C 166.205 -4.13203 1.11567 0
M  V30 1562 C 165.531 -5.33248 0.393809 0
M  V30 1563 C 166.831 -4.60912 2.45678 0
M  V30 1564 H 168.525 -2.4999 1.64758 0
M  V30 1565 H 166.071 -1.20156 0.793626 0
M  V30 1566 H 168.024 -4.21313 -0.085466 0
M  V30 1567 H 166.748 -3.17449 -0.767714 0
M  V30 1568 H 165.407 -3.40758 1.35202 0
M  V30 1569 H 165.055 -5.00054 -0.543599 0
M  V30 1570 H 164.755 -5.78552 1.02721 0
M  V30 1571 H 166.279 -6.10413 0.150908 0
M  V30 1572 H 167.693 -5.26759 2.26269 0
M  V30 1573 H 166.09 -5.16944 3.04776 0
M  V30 1574 H 167.16 -3.75603 3.06677 0
M  V30 1575 N 168.503 -0.877838 -1.30888 0
M  V30 1576 C 169.749 -0.502773 -1.97088 0
M  V30 1577 C 170.104 0.936274 -1.68082 0
M  V30 1578 O 169.397 1.65162 -0.971196 0
M  V30 1579 C 169.591 -0.705748 -3.50363 0
M  V30 1580 C 169.42 -2.16297 -3.94266 0
M  V30 1581 C 168.19 -2.80614 -4.20219 0
M  V30 1582 C 170.388 -3.13606 -4.07622 0
M  V30 1583 N 168.37 -4.17007 -4.50532 0
M  V30 1584 C 169.741 -4.35051 -4.41736 0
M  V30 1585 C 171.796 -3.09491 -3.90026 0
M  V30 1586 C 170.499 -5.52911 -4.60089 0
M  V30 1587 C 172.525 -4.26616 -4.09576 0
M  V30 1588 C 171.887 -5.46825 -4.44029 0
M  V30 1589 H 167.986 -0.233168 -0.746429 0
M  V30 1590 H 170.57 -1.13408 -1.58261 0
M  V30 1591 H 168.741 -0.103976 -3.88261 0
M  V30 1592 H 170.473 -0.298291 -4.03599 0
M  V30 1593 H 167.228 -2.3152 -4.13153 0
M  V30 1594 H 167.652 -4.87426 -4.69834 0
M  V30 1595 H 172.294 -2.17657 -3.62471 0
M  V30 1596 H 170.012 -6.45255 -4.86489 0
M  V30 1597 H 173.598 -4.24894 -3.97438 0
M  V30 1598 H 172.478 -6.35947 -4.58848 0
M  V30 1599 N 169.982 1.44106 -0.638065 0
M  V30 1600 C 171.21 2.06336 -0.152615 0
M  V30 1601 C 171.625 1.47731 1.17563 0
M  V30 1602 O 170.982 0.602806 1.72257 0
M  V30 1603 C 171.033 3.61479 -0.0391491 0
M  V30 1604 O 170.754 4.17903 -1.31487 0
M  V30 1605 C 172.255 4.40757 0.474176 0
M  V30 1606 H 169.475 0.665862 -0.0828776 0
M  V30 1607 H 172.019 1.84862 -0.87443 0
M  V30 1608 H 170.174 3.82191 0.633142 0
M  V30 1609 H 170.588 5.11416 -1.16421 0
M  V30 1610 H 172.062 5.49707 0.502562 0
M  V30 1611 H 172.539 4.12697 1.50258 0
M  V30 1612 H 173.145 4.24979 -0.165102 0
M  V30 1613 N 171.46 0.379036 1.52974 0
M  V30 1614 C 172.706 -0.206727 2.01744 0
M  V30 1615 C 173.039 -1.47314 1.26539 0
M  V30 1616 O 172.314 -1.91084 0.362903 0
M  V30 1617 C 172.597 -0.485066 3.56818 0
M  V30 1618 C 172.45 0.795919 4.42702 0
M  V30 1619 C 173.769 -1.28003 4.21074 0
M  V30 1620 H 170.888 -0.0736607 0.73331 0
M  V30 1621 H 173.53 0.506581 1.83122 0
M  V30 1622 H 171.68 -1.09272 3.72816 0
M  V30 1623 H 173.352 1.43307 4.38476 0
M  V30 1624 H 171.595 1.41344 4.10127 0
M  V30 1625 H 172.266 0.555947 5.49193 0
M  V30 1626 H 174.742 -0.765867 4.08991 0
M  V30 1627 H 173.618 -1.44352 5.29579 0
M  V30 1628 H 173.879 -2.29236 3.78026 0
M  V30 1629 N 172.938 -1.57226 0.108567 0
M  V30 1630 C 174.178 -1.96717 -0.555155 0
M  V30 1631 C 174.542 -0.990003 -1.64508 0
M  V30 1632 O 175.743 -1.2739 -2.36696 0
M  V30 1633 C 174.014 -3.40575 -1.08367 0
M  V30 1634 S 175.573 -4.02072 -1.75737 0
M  V30 1635 H 172.391 -0.687638 -0.180762 0
M  V30 1636 H 174.993 -1.94563 0.191172 0
M  V30 1637 H 173.697 -4.0945 -0.279092 0
M  V30 1638 H 173.228 -3.46356 -1.86551 0
M  V30 1639 H 175.243 -3.91977 -3.04251 0
M  V30 1640 N 174.416 0.165178 -1.56732 0
M  V30 1641 C 175.656 0.887231 -1.8414 0
M  V30 1642 C 176.02 1.79159 -0.690353 0
M  V30 1643 O 177.221 2.55172 -0.845032 0
M  V30 1644 C 175.492 1.65674 -3.16681 0
M  V30 1645 S 177.051 2.42671 -3.6559 0
M  V30 1646 H 173.869 0.297042 -0.645978 0
M  V30 1647 H 176.471 0.148439 -1.94936 0
M  V30 1648 H 175.175 0.983507 -3.98441 0
M  V30 1649 H 174.706 2.43679 -3.08843 0
M  V30 1650 H 176.721 3.67499 -3.33406 0
M  V30 1651 N 175.894 1.51508 0.433938 0
M  V30 1652 C 176.844 1.69451 1.52546 0
M  V30 1653 C 177.828 0.548474 1.51263 0
M  V30 1654 O 179.02 0.804529 1.57659 0
M  V30 1655 C 176.149 1.82604 2.90707 0
M  V30 1656 C 175.235 3.03002 2.96733 0
M  V30 1657 N 175.626 4.26121 2.72496 0
M  V30 1658 C 173.924 3.02327 3.27894 0
M  V30 1659 C 174.625 5.07407 2.84452 0
M  V30 1660 N 173.601 4.42126 3.16269 0
M  V30 1661 H 177.403 2.62305 1.32564 0
M  V30 1662 H 174.917 1.49202 0.641297 0
M  V30 1663 H 176.914 1.93569 3.69238 0
M  V30 1664 H 175.574 0.909339 3.11707 0
M  V30 1665 H 176.585 4.55009 2.4736 0
M  V30 1666 H 173.262 2.20301 3.54646 0
M  V30 1667 H 174.652 6.15422 2.69639 0
M  V30 1668 N 177.372 -0.689602 1.41712 0
M  V30 1669 C 178.612 -1.46184 1.42862 0
M  V30 1670 C 178.976 -1.91962 0.0382204 0
M  V30 1671 O 180.177 -2.68694 -0.0755019 0
M  V30 1672 C 178.448 -2.6371 2.4123 0
M  V30 1673 S 180.007 -3.52768 2.6096 0
M  V30 1674 H 176.825 -0.49947 0.506015 0
M  V30 1675 H 179.427 -0.804107 1.78198 0
M  V30 1676 H 178.131 -2.28293 3.41044 0
M  V30 1677 H 177.662 -3.3437 2.07269 0
M  V30 1678 H 179.677 -4.59146 1.88148 0
M  V30 1679 N 178.85 -1.27639 -0.924453 0
M  V30 1680 C 180.098 -1.13941 -1.66918 0
M  V30 1681 C 180.419 0.314589 -1.92446 0
M  V30 1682 O 179.689 1.21964 -1.53303 0
M  V30 1683 H 178.269 -0.418678 -0.618642 0
M  V30 1684 H 180.931 -1.60213 -1.10985 0
M  V30 1685 H 180.027 -1.67094 -2.63602 0
M  V30 1686 N 180.328 1.1314 -1.09713 0
M  V30 1687 C 181.576 1.84119 -0.833338 0
M  V30 1688 C 181.897 1.84097 0.642904 0
M  V30 1689 O 181.167 1.29881 1.46655 0
M  V30 1690 H 179.747 0.681766 -0.305293 0
M  V30 1691 H 182.409 1.37038 -1.38588 0
M  V30 1692 H 181.505 2.88543 -1.18951 0
M  V30 1693 N 181.806 0.884767 1.30421 0
M  V30 1694 C 182.753 0.349642 2.28136 0
M  V30 1695 C 183.723 -0.560061 1.56373 0
M  V30 1696 O 184.908 -0.488524 1.8444 0
M  V30 1697 C 182.048 -0.42999 3.42411 0
M  V30 1698 C 181.161 0.508907 4.28992 0
M  V30 1699 C 180.296 -0.286301 5.30428 0
M  V30 1700 C 179.335 0.648079 6.08659 0
M  V30 1701 N 178.472 -0.111792 7.02011 0
M  V30 1702 H 183.312 1.18807 2.73293 0
M  V30 1703 H 180.849 0.597231 1.3443 0
M  V30 1704 H 182.807 -0.897923 4.07423 0
M  V30 1705 H 181.437 -1.23299 2.98324 0
M  V30 1706 H 180.489 1.09533 3.64289 0
M  V30 1707 H 181.801 1.22475 4.8353 0
M  V30 1708 H 180.955 -0.816098 6.01186 0
M  V30 1709 H 179.694 -1.03536 4.76583 0
M  V30 1710 H 178.699 1.18951 5.36778 0
M  V30 1711 H 179.924 1.39623 6.64592 0
M  V30 1712 H 177.87 -0.843395 6.50556 0
M  V30 1713 H 177.787 0.544429 7.54037 0
M  V30 1714 H 179.055 -0.622339 7.77012 0
M  V30 1715 N 183.284 -1.43765 0.645699 0
M  V30 1716 C 184.512 -2.06253 0.163556 0
M  V30 1717 C 184.927 -1.48352 -1.16778 0
M  V30 1718 O 184.284 -0.611932 -1.71935 0
M  V30 1719 C 184.335 -3.61453 0.0583186 0
M  V30 1720 O 184.056 -4.172 1.33702 0
M  V30 1721 C 185.557 -4.41002 -0.450795 0
M  V30 1722 H 182.777 -0.665413 0.0864077 0
M  V30 1723 H 185.321 -1.84396 0.884222 0
M  V30 1724 H 183.476 -3.82522 -0.612865 0
M  V30 1725 H 183.89 -5.10791 1.19131 0
M  V30 1726 H 185.364 -5.49966 -0.473403 0
M  V30 1727 H 185.841 -4.13488 -1.48068 0
M  V30 1728 H 186.447 -4.24886 0.187637 0
M  V30 1729 N 184.763 -0.387143 -1.52771 0
M  V30 1730 C 185.71 0.449048 -2.26389 0
M  V30 1731 C 186.68 1.05961 -1.27912 0
M  V30 1732 O 187.865 1.08804 -1.56737 0
M  V30 1733 C 185.005 1.57155 -3.0724 0
M  V30 1734 C 184.118 0.984066 -4.20643 0
M  V30 1735 C 183.253 2.07745 -4.88892 0
M  V30 1736 C 182.292 1.46574 -5.94292 0
M  V30 1737 N 181.429 2.49834 -6.56146 0
M  V30 1738 H 186.269 -0.185205 -2.97424 0
M  V30 1739 H 183.806 -0.103164 -1.46738 0
M  V30 1740 H 185.764 2.23309 -3.52405 0
M  V30 1741 H 184.394 2.17615 -2.38419 0
M  V30 1742 H 183.446 0.212193 -3.79808 0
M  V30 1743 H 184.758 0.497029 -4.96318 0
M  V30 1744 H 183.912 2.81673 -5.3735 0
M  V30 1745 H 182.651 2.59807 -4.12737 0
M  V30 1746 H 181.656 0.711696 -5.45174 0
M  V30 1747 H 182.881 0.953088 -6.72379 0
M  V30 1748 H 180.827 3.0107 -5.82832 0
M  V30 1749 H 180.744 2.05879 -7.27427 0
M  V30 1750 H 182.012 3.23399 -7.09249 0
M  V30 1751 N 186.241 1.57166 -0.116904 0
M  V30 1752 C 187.151 2.18745 0.847812 0
M  V30 1753 C 188.167 1.163 1.29423 0
M  V30 1754 O 189.343 1.48761 1.35765 0
M  V30 1755 C 186.408 2.77307 2.0809 0
M  V30 1756 C 185.469 3.94781 1.68661 0
M  V30 1757 C 184.702 4.50541 2.86091 0
M  V30 1758 O 184.925 4.05202 4.01456 0
M  V30 1759 O 183.859 5.41256 2.63298 0
M  V30 1760 H 187.685 3.01632 0.353778 0
M  V30 1761 H 185.27 1.49005 0.108599 0
M  V30 1762 H 187.152 3.14647 2.80313 0
M  V30 1763 H 185.827 1.97452 2.56504 0
M  V30 1764 H 184.734 3.62214 0.935518 0
M  V30 1765 H 186.067 4.76065 1.24991 0
M  V30 1766 N 187.719 -0.156864 1.56817 0
M  V30 1767 C 188.682 -1.17781 1.96622 0
M  V30 1768 C 189.682 -1.36401 0.851555 0
M  V30 1769 O 190.872 -1.33561 1.11836 0
M  V30 1770 C 188.004 -2.54008 2.27361 0
M  V30 1771 H 189.197 -0.836564 2.87996 0
M  V30 1772 H 186.75 -0.39985 1.51099 0
M  V30 1773 H 187.485 -2.9312 1.38748 0
M  V30 1774 H 187.27 -2.41856 3.08623 0
M  V30 1775 H 188.76 -3.27558 2.59029 0
M  V30 1776 N 189.197 -1.51736 -0.425897 0
M  V30 1777 C 190.129 -1.70083 -1.53638 0
M  V30 1778 C 191.142 -0.581349 -1.52066 0
M  V30 1779 O 192.331 -0.856017 -1.56635 0
M  V30 1780 C 189.431 -1.71078 -2.9255 0
M  V30 1781 C 188.604 -2.99795 -3.185 0
M  V30 1782 C 187.663 -2.92825 -4.37196 0
M  V30 1783 O 186.689 -3.66756 -4.35291 0
M  V30 1784 N 187.891 -2.0946 -5.41393 0
M  V30 1785 H 190.656 -2.65882 -1.383 0
M  V30 1786 H 188.217 -1.49765 -0.614988 0
M  V30 1787 H 190.209 -1.63969 -3.69995 0
M  V30 1788 H 188.779 -0.828242 -3.01428 0
M  V30 1789 H 187.999 -3.20684 -2.2925 0
M  V30 1790 H 189.287 -3.84977 -3.32671 0
M  V30 1791 H 188.685 -1.48792 -5.45781 0
M  V30 1792 H 187.242 -2.08221 -6.17647 0
M  V30 1793 N 190.675 0.682077 -1.42076 0
M  V30 1794 C 191.622 1.79578 -1.44984 0
M  V30 1795 C 192.592 1.6332 -0.302614 0
M  V30 1796 O 193.777 1.83978 -0.505633 0
M  V30 1797 C 190.917 3.1756 -1.35091 0
M  V30 1798 C 190.03 3.45156 -2.59791 0
M  V30 1799 C 189.165 4.72826 -2.42093 0
M  V30 1800 C 188.204 4.93433 -3.62202 0
M  V30 1801 N 187.341 6.12338 -3.43491 0
M  V30 1802 H 192.181 1.76427 -2.40161 0
M  V30 1803 H 189.718 0.861376 -1.19242 0
M  V30 1804 H 191.676 3.97287 -1.27354 0
M  V30 1805 H 190.306 3.19854 -0.435133 0
M  V30 1806 H 189.358 2.59736 -2.77923 0
M  V30 1807 H 190.67 3.5628 -3.49094 0
M  V30 1808 H 189.824 5.60631 -2.319 0
M  V30 1809 H 188.563 4.63973 -1.50268 0
M  V30 1810 H 187.568 4.04073 -3.72834 0
M  V30 1811 H 188.793 5.04136 -4.54998 0
M  V30 1812 H 186.739 6.04672 -2.54377 0
M  V30 1813 H 186.656 6.2429 -4.26377 0
M  V30 1814 H 187.924 7.02841 -3.37097 0
M  V30 1815 N 192.153 1.28127 0.917671 0
M  V30 1816 C 193.402 1.14432 1.66097 0
M  V30 1817 C 193.715 -0.307247 1.93172 0
M  V30 1818 O 194.921 -0.565259 2.65551 0
M  V30 1819 C 193.377 2.00015 2.99202 0
M  V30 1820 C 192.985 3.49889 2.79789 0
M  V30 1821 C 194.729 1.94996 3.77064 0
M  V30 1822 C 192.636 4.27636 4.08511 0
M  V30 1823 H 191.566 0.424662 0.62304 0
M  V30 1824 H 194.217 1.52628 1.01868 0
M  V30 1825 H 192.599 1.54672 3.64544 0
M  V30 1826 H 193.773 4.03162 2.23152 0
M  V30 1827 H 192.088 3.56392 2.15345 0
M  V30 1828 H 194.685 2.50354 4.72469 0
M  V30 1829 H 195.028 0.925819 4.05875 0
M  V30 1830 H 195.561 2.38287 3.18534 0
M  V30 1831 H 192.3 5.30615 3.84874 0
M  V30 1832 H 191.82 3.79137 4.64774 0
M  V30 1833 H 193.499 4.37346 4.76799 0
M  V30 1834 N 193.631 -1.12557 1.10312 0
M  V30 1835 C 194.579 -2.20325 0.745629 0
M  V30 1836 C 195.573 -1.67429 -0.25763 0
M  V30 1837 O 196.779 -1.79612 -0.118132 0
M  V30 1838 H 193.154 -0.718118 0.223182 0
M  V30 1839 H 195.125 -2.47733 1.66346 0
M  V30 1840 C 193.874 -3.47168 0.192262 0
M  V30 1841 H 193.197 -3.88215 0.955475 0
M  V30 1842 H 194.637 -4.23995 -0.0198274 0
M  V30 1843 C 193.096 -3.19298 -1.07472 0
M  V30 1844 O 193.626 -3.3891 -2.15645 0
M  V30 1845 N 191.832 -2.73113 -0.992847 0
M  V30 1846 H 191.379 -2.57354 -0.112474 0
M  V30 1847 H 191.337 -2.54842 -1.84127 0
M  V30 1848 N 195.109 -0.891671 -1.2995 0
M  V30 1849 C 196.057 -0.353066 -2.29905 0
M  V30 1850 C 197.051 0.543509 -1.60444 0
M  V30 1851 O 198.257 0.4272 -1.74857 0
M  V30 1852 H 194.632 -0.095531 -0.745907 0
M  V30 1853 H 196.603 -1.20961 -2.72784 0
M  V30 1854 C 195.352 0.411475 -3.45257 0
M  V30 1855 H 194.675 -0.269182 -3.98893 0
M  V30 1856 H 196.115 0.753328 -4.17254 0
M  V30 1857 C 194.574 1.6111 -2.9588 0
M  V30 1858 O 195.104 2.71045 -2.96475 0
M  V30 1859 N 193.31 1.45054 -2.51809 0
M  V30 1860 H 192.857 0.556175 -2.51524 0
M  V30 1861 H 192.815 2.25453 -2.1913 0
M  V30 1862 N 196.587 1.43421 -0.653314 0
M  V30 1863 C 197.835 2.01414 -0.166415 0
M  V30 1864 C 198.156 1.51803 1.22397 0
M  V30 1865 O 197.426 0.730693 1.81763 0
M  V30 1866 H 196.006 0.744703 -0.0585319 0
M  V30 1867 H 198.668 1.75629 -0.845003 0
M  V30 1868 H 197.764 3.11734 -0.151111 0
M  V30 1869 N 198.065 0.39524 1.52563 0
M  V30 1870 C 199.29 -0.187456 2.06551 0
M  V30 1871 C 199.715 -1.39249 1.26457 0
M  V30 1872 O 199.073 -1.78947 0.291151 0
M  V30 1873 C 199.121 -0.529985 3.56684 0
M  V30 1874 O 198.225 -1.62307 3.79118 0
M  V30 1875 H 197.566 -0.0202537 0.663691 0
M  V30 1876 H 200.096 0.564426 1.96661 0
M  V30 1877 H 200.106 -0.792598 4.00227 0
M  V30 1878 H 198.781 0.350987 4.14416 0
M  V30 1879 H 197.358 -1.3537 3.47461 0
M  V30 1880 N 199.544 -1.57102 0.125237 0
M  V30 1881 C 200.769 -2.0019 -0.542101 0
M  V30 1882 C 201.194 -1.00449 -1.59034 0
M  V30 1883 O 200.552 0.0229423 -1.81285 0
M  V30 1884 C 200.6 -3.42129 -1.13929 0
M  V30 1885 O 199.704 -3.45307 -2.2547 0
M  V30 1886 H 199.045 -0.650171 -0.134812 0
M  V30 1887 H 201.575 -2.03461 0.215553 0
M  V30 1888 H 201.585 -3.80471 -1.4733 0
M  V30 1889 H 200.26 -4.14237 -0.371531 0
M  V30 1890 H 198.837 -3.1879 -1.93462 0
M  V30 1891 N 201.022 0.148545 -1.56898 0
M  V30 1892 C 201.954 1.20852 -1.9475 0
M  V30 1893 C 202.967 1.39265 -0.843152 0
M  V30 1894 O 204.156 1.38864 -1.12156 0
M  V30 1895 C 201.256 2.57362 -2.20495 0
M  V30 1896 C 200.429 2.59947 -3.51776 0
M  V30 1897 C 199.488 3.77984 -3.6608 0
M  V30 1898 O 198.514 3.62929 -4.38487 0
M  V30 1899 N 199.716 4.95375 -3.02629 0
M  V30 1900 H 202.481 0.886804 -2.86279 0
M  V30 1901 H 200.042 0.338121 -1.5833 0
M  V30 1902 H 202.034 3.34833 -2.27307 0
M  V30 1903 H 200.604 2.81832 -1.35238 0
M  V30 1904 H 199.824 1.68403 -3.56419 0
M  V30 1905 H 201.112 2.58704 -4.38121 0
M  V30 1906 H 200.51 5.10509 -2.43715 0
M  V30 1907 H 199.067 5.70627 -3.15004 0
M  V30 1908 N 202.5 1.5196 0.417844 0
M  V30 1909 C 203.463 1.74065 1.49111 0
M  V30 1910 C 204.463 0.610537 1.48758 0
M  V30 1911 O 205.653 0.87832 1.50437 0
M  V30 1912 C 202.785 1.81502 2.88565 0
M  V30 1913 H 203.978 2.69869 1.30807 0
M  V30 1914 H 201.531 1.42244 0.647785 0
M  V30 1915 H 202.266 0.875813 3.1225 0
M  V30 1916 H 202.051 2.63651 2.90225 0
M  V30 1917 H 203.541 2.00376 3.66387 0
M  V30 1918 N 203.978 -0.674533 1.42435 0
M  V30 1919 C 205.255 -1.4305 1.33402 0
M  V30 1920 C 205.635 -2.11081 -0.0284674 0
M  V30 1921 O 204.983 -2.03257 -1.04397 0
M  V30 1922 C 205.193 -2.43272 2.50239 0
M  V30 1923 C 206.541 -3.07907 2.92367 0
M  V30 1924 O 207.565 -2.53599 2.50132 0
M  V30 1925 O 206.424 -4.0632 3.65467 0
M  V30 1926 H 203.518 -0.638076 0.526106 0
M  V30 1927 H 206.064 -0.703235 1.54443 0
M  V30 1928 H 204.836 -1.91803 3.41068 0
M  V30 1929 H 204.459 -3.23479 2.31186 0
M  V30 1930 N 205.456 -1.28612 -0.910864 0
M  V30 1931 C 206.704 -1.15705 -1.65701 0
M  V30 1932 C 207.025 0.29416 -1.92769 0
M  V30 1933 O 206.295 1.20331 -1.54588 0
M  V30 1934 H 204.875 -0.425216 -0.614167 0
M  V30 1935 H 207.537 -1.61381 -1.0928 0
M  V30 1936 H 206.633 -1.6988 -2.61815 0
M  V30 1937 N 206.934 1.1197 -1.10907 0
M  V30 1938 C 208.162 1.87402 -0.876824 0
M  V30 1939 C 208.577 1.79894 0.573025 0
M  V30 1940 O 207.934 1.17629 1.39534 0
M  V30 1941 C 207.985 3.36428 -1.32282 0
M  V30 1942 O 207.706 3.43765 -2.71582 0
M  V30 1943 C 209.207 4.28783 -1.12518 0
M  V30 1944 H 206.427 0.592793 -0.314384 0
M  V30 1945 H 208.971 1.41649 -1.47499 0
M  V30 1946 H 207.126 3.79706 -0.768229 0
M  V30 1947 H 207.54 4.3652 -2.90776 0
M  V30 1948 H 209.014 5.31613 -1.48633 0
M  V30 1949 H 209.491 4.39153 -0.0642394 0
M  V30 1950 H 210.097 3.91291 -1.66648 0
M  V30 1951 N 208.412 0.89855 1.29475 0
M  V30 1952 C 209.342 0.39201 2.30186 0
M  V30 1953 C 210.323 -0.532359 1.61555 0
M  V30 1954 O 211.508 -0.443331 1.89072 0
M  V30 1955 C 208.638 -0.382353 3.45189 0
M  V30 1956 C 207.592 0.451483 4.25612 0
M  V30 1957 C 206.918 -0.450307 5.328 0
M  V30 1958 C 208.218 1.70079 4.93832 0
M  V30 1959 H 209.912 1.23362 2.72804 0
M  V30 1960 H 207.458 0.594638 1.31149 0
M  V30 1961 H 209.411 -0.747451 4.14718 0
M  V30 1962 H 208.135 -1.25774 3.01411 0
M  V30 1963 H 206.794 0.798897 3.57789 0
M  V30 1964 H 206.442 -1.32379 4.85268 0
M  V30 1965 H 206.142 0.103902 5.87508 0
M  V30 1966 H 207.666 -0.811623 6.05182 0
M  V30 1967 H 209.08 1.40549 5.55805 0
M  V30 1968 H 207.477 2.19623 5.58467 0
M  V30 1969 H 208.547 2.43744 4.19186 0
M  V30 1970 N 209.89 -1.43072 0.660911 0
M  V30 1971 C 210.837 -2.30785 -0.0259884 0
M  V30 1972 C 211.807 -1.45184 -0.806888 0
M  V30 1973 O 212.992 -1.74041 -0.781943 0
M  V30 1974 C 210.132 -3.30861 -0.981067 0
M  V30 1975 C 209.245 -4.31558 -0.195458 0
M  V30 1976 C 208.38 -5.18712 -1.14503 0
M  V30 1977 C 207.419 -6.11097 -0.350299 0
M  V30 1978 N 206.556 -6.90849 -1.25186 0
M  V30 1979 H 211.396 -2.88975 0.727846 0
M  V30 1980 H 208.933 -1.42353 0.370682 0
M  V30 1981 H 210.891 -3.87399 -1.54849 0
M  V30 1982 H 209.521 -2.74304 -1.70169 0
M  V30 1983 H 208.573 -3.77252 0.488374 0
M  V30 1984 H 209.885 -4.9701 0.422176 0
M  V30 1985 H 209.039 -5.79914 -1.78284 0
M  V30 1986 H 207.778 -4.53404 -1.79656 0
M  V30 1987 H 206.783 -5.48976 0.300808 0
M  V30 1988 H 208.008 -6.7845 0.296941 0
M  V30 1989 H 205.954 -6.28182 -1.89005 0
M  V30 1990 H 205.871 -7.52854 -0.688971 0
M  V30 1991 H 207.139 -7.5655 -1.87757 0
M  V30 1992 N 211.368 -0.403325 -1.52352 0
M  V30 1993 C 212.779 0.0675782 -1.86578 0
M  V30 1994 C 213.13 1.44941 -1.32236 0
M  V30 1995 O 212.255 2.06112 -0.659307 0
M  V30 1996 C 212.85 0.129404 -3.38553 0
M  V30 1997 C 211.409 0.544629 -3.72439 0
M  V30 1998 C 210.556 -0.284551 -2.75836 0
M  V30 1999 H 213.507 -0.620631 -1.46061 0
M  V30 2000 H 213.528 0.94581 -3.68558 0
M  V30 2001 H 213.04 -0.87645 -3.78074 0
M  V30 2002 H 211.141 1.55734 -3.38493 0
M  V30 2003 H 211.254 0.293046 -4.78203 0
M  V30 2004 H 209.618 0.252258 -2.53448 0
M  V30 2005 H 210.401 -1.28865 -3.18196 0
M  V30 2006 N 212.846 1.57033 -0.133567 0
M  V30 2007 C 214.092 1.95976 0.521649 0
M  V30 2008 C 214.425 1.01779 1.65393 0
M  V30 2009 O 213.7 0.0576581 1.94415 0
M  V30 2010 C 213.983 3.44738 1.04057 0
M  V30 2011 C 213.836 4.49711 -0.0892897 0
M  V30 2012 C 215.155 3.95682 1.92675 0
M  V30 2013 H 212.274 0.712579 0.188149 0
M  V30 2014 H 214.916 1.88813 -0.212076 0
M  V30 2015 H 213.066 3.50973 1.66583 0
M  V30 2016 H 214.738 4.55565 -0.725152 0
M  V30 2017 H 212.981 4.27261 -0.750378 0
M  V30 2018 H 213.652 5.51099 0.315284 0
M  V30 2019 H 216.128 3.91841 1.39998 0
M  V30 2020 H 215.004 5.00262 2.25897 0
M  V30 2021 H 215.265 3.37239 2.85872 0
M  V30 2022 N 214.325 -0.140222 1.56975 0
M  V30 2023 C 215.602 -0.880769 1.74648 0
M  V30 2024 C 215.982 -1.99036 0.703404 0
M  V30 2025 O 215.33 -2.26821 -0.27648 0
M  V30 2026 C 215.54 -1.417 3.18939 0
M  V30 2027 C 216.888 -1.87774 3.80823 0
M  V30 2028 O 217.912 -1.51427 3.2241 0
M  V30 2029 O 216.771 -2.54827 4.83452 0
M  V30 2030 H 213.865 -0.416713 0.714338 0
M  V30 2031 H 216.411 -0.125618 1.69234 0
M  V30 2032 H 215.183 -0.619902 3.86359 0
M  V30 2033 H 214.806 -2.23546 3.28805 0
M  V30 2034 N 215.803 -1.52179 -0.40978 0
M  V30 2035 C 216.713 -1.78364 -1.52392 0
M  V30 2036 C 217.729 -0.669183 -1.60617 0
M  V30 2037 O 218.905 -0.954518 -1.77344 0
M  V30 2038 C 215.97 -1.92822 -2.88133 0
M  V30 2039 C 215.031 -3.16725 -2.898 0
M  V30 2040 C 214.264 -3.30483 -4.19067 0
M  V30 2041 O 214.487 -2.49522 -5.12928 0
M  V30 2042 O 213.421 -4.2363 -4.27576 0
M  V30 2043 H 217.247 -2.72931 -1.33201 0
M  V30 2044 H 214.832 -1.37016 -0.59557 0
M  V30 2045 H 216.714 -2.04157 -3.68643 0
M  V30 2046 H 215.389 -1.01444 -3.07393 0
M  V30 2047 H 214.296 -3.10848 -2.08146 0
M  V30 2048 H 215.629 -4.07881 -2.75489 0
M  V30 2049 N 217.281 0.66697 -1.42791 0
M  V30 2050 C 218.228 1.7803 -1.4688 0
M  V30 2051 C 219.198 1.6299 -0.319919 0
M  V30 2052 O 220.383 1.83432 -0.525118 0
M  V30 2053 C 217.523 3.1611 -1.38451 0
M  V30 2054 C 216.636 3.42381 -2.63437 0
M  V30 2055 C 215.771 4.70232 -2.47094 0
M  V30 2056 C 214.81 4.89564 -3.67415 0
M  V30 2057 N 213.947 6.08661 -3.49966 0
M  V30 2058 H 218.787 1.7387 -2.42019 0
M  V30 2059 H 216.324 0.84868 -1.20149 0
M  V30 2060 H 218.282 3.95914 -1.31561 0
M  V30 2061 H 216.912 3.19374 -0.469033 0
M  V30 2062 H 215.964 2.56774 -2.80662 0
M  V30 2063 H 217.276 3.52557 -3.52853 0
M  V30 2064 H 216.43 5.5814 -2.37834 0
M  V30 2065 H 215.169 4.62353 -1.5518 0
M  V30 2066 H 214.174 4.00096 -3.77099 0
M  V30 2067 H 215.399 4.99282 -4.6032 0
M  V30 2068 H 213.345 6.0194 -2.60776 0
M  V30 2069 H 213.262 6.19733 -4.32975 0
M  V30 2070 H 214.53 6.99226 -3.44532 0
M  V30 2071 N 218.759 1.29093 0.90403 0
M  V30 2072 C 219.669 1.15727 2.0407 0
M  V30 2073 C 220.685 0.0815308 1.73809 0
M  V30 2074 O 221.861 0.292749 1.99261 0
M  V30 2075 C 218.926 0.830424 3.36608 0
M  V30 2076 C 217.987 1.98955 3.80415 0
M  V30 2077 C 217.22 1.6782 5.06628 0
M  V30 2078 O 217.443 0.597105 5.67266 0
M  V30 2079 O 216.377 2.52486 5.46383 0
M  V30 2080 H 220.203 2.11171 2.18267 0
M  V30 2081 H 217.788 1.08504 1.027 0
M  V30 2082 H 219.67 0.662521 4.16159 0
M  V30 2083 H 218.345 -0.0942678 3.23563 0
M  V30 2084 H 217.252 2.21267 3.01648 0
M  V30 2085 H 218.585 2.89529 3.98037 0
M  V30 2086 N 220.237 -1.11381 1.11499 0
M  V30 2087 C 221.147 -2.21019 0.786628 0
M  V30 2088 C 222.163 -1.72597 -0.220507 0
M  V30 2089 O 223.339 -2.01321 -0.0565251 0
M  V30 2090 C 220.404 -3.459 0.235333 0
M  V30 2091 C 219.465 -4.09107 1.30115 0
M  V30 2092 C 218.698 -5.28027 0.776068 0
M  V30 2093 O 218.921 -5.6904 -0.393661 0
M  V30 2094 O 217.855 -5.81835 1.54114 0
M  V30 2095 H 221.681 -2.51521 1.70209 0
M  V30 2096 H 219.266 -1.19928 0.890928 0
M  V30 2097 H 221.148 -4.21346 -0.067715 0
M  V30 2098 H 219.823 -3.17049 -0.652828 0
M  V30 2099 H 218.73 -3.35391 1.65722 0
M  V30 2100 H 220.063 -4.42139 2.16273 0
M  V30 2101 N 221.715 -0.905404 -1.28997 0
M  V30 2102 C 222.678 -0.392253 -2.25819 0
M  V30 2103 C 223.678 0.476753 -1.5357 0
M  V30 2104 O 224.868 0.280994 -1.71919 0
M  V30 2105 C 222 0.438588 -3.38067 0
M  V30 2106 H 223.193 -1.24743 -2.72725 0
M  V30 2107 H 220.746 -0.684051 -1.40536 0
M  V30 2108 H 221.481 1.31352 -2.96508 0
M  V30 2109 H 221.266 -0.184167 -3.91667 0
M  V30 2110 H 222.756 0.78873 -4.10084 0
M  V30 2111 N 223.193 1.4272 -0.668489 0
M  V30 2112 C 224.439 2.01923 -0.188419 0
M  V30 2113 C 224.772 1.52704 1.19979 0
M  V30 2114 O 224.047 0.726566 1.8042 0
M  V30 2115 C 224.33 3.59451 -0.216085 0
M  V30 2116 C 224.183 4.18864 -1.6393 0
M  V30 2117 C 225.502 4.37903 0.439179 0
M  V30 2118 H 222.621 0.733674 -0.0699412 0
M  V30 2119 H 225.263 1.69822 -0.852076 0
M  V30 2120 H 223.413 3.86929 0.349012 0
M  V30 2121 H 225.085 4.02362 -2.25616 0
M  V30 2122 H 223.328 3.74933 -2.18193 0
M  V30 2123 H 223.999 5.27987 -1.61039 0
M  V30 2124 H 226.475 4.16079 -0.0417878 0
M  V30 2125 H 225.351 5.47519 0.389157 0
M  V30 2126 H 225.612 4.15303 1.51577 0
M  V30 2127 N 224.671 0.411399 1.52136 0
M  V30 2128 C 225.634 -0.401089 2.25663 0
M  V30 2129 C 226.634 -0.971732 1.28117 0
M  V30 2130 O 227.824 -0.850254 1.52041 0
M  V30 2131 C 224.956 -1.56483 3.02863 0
M  V30 2132 H 226.149 0.24295 2.98914 0
M  V30 2133 H 223.702 0.163968 1.55438 0
M  V30 2134 H 224.437 -2.24567 2.33967 0
M  V30 2135 H 224.222 -1.16211 3.74483 0
M  V30 2136 H 225.712 -2.13951 3.58629 0
M  V30 2137 N 226.149 -1.5696 0.141893 0
M  V30 2138 C 227.112 -2.15316 -0.785587 0
M  V30 2139 C 228.112 -1.09366 -1.1788 0
M  V30 2140 O 229.302 -1.35031 -1.10056 0
M  V30 2141 C 226.434 -2.71211 -2.06537 0
M  V30 2142 H 227.627 -2.98608 -0.278041 0
M  V30 2143 H 225.18 -1.5593 -0.107519 0
M  V30 2144 H 225.915 -1.91571 -2.6167 0
M  V30 2145 H 225.7 -3.4872 -1.79268 0
M  V30 2146 H 227.19 -3.16189 -2.72789 0
M  V30 2147 N 227.627 0.131896 -1.57047 0
M  V30 2148 C 228.537 1.1815 -2.02676 0
M  V30 2149 C 229.553 1.46113 -0.944824 0
M  V30 2150 O 230.729 1.57485 -1.25541 0
M  V30 2151 C 227.794 2.49139 -2.41103 0
M  V30 2152 C 226.855 2.28688 -3.63318 0
M  V30 2153 C 226.088 3.53431 -3.99903 0
M  V30 2154 O 226.311 4.60223 -3.36973 0
M  V30 2155 O 225.245 3.45198 -4.93074 0
M  V30 2156 H 229.071 0.824069 -2.92306 0
M  V30 2157 H 226.656 0.341745 -1.45439 0
M  V30 2158 H 228.538 3.26338 -2.66611 0
M  V30 2159 H 227.213 2.84382 -1.54624 0
M  V30 2160 H 226.12 1.4939 -3.42977 0
M  V30 2161 H 227.453 1.98355 -4.50462 0
M  V30 2162 N 229.106 1.52395 0.401703 0
M  V30 2163 C 230.352 1.67065 1.14966 0
M  V30 2164 C 230.685 0.403052 1.89971 0
M  V30 2165 O 229.96 -0.598774 1.85054 0
M  V30 2166 C 230.243 2.8975 2.13815 0
M  V30 2167 C 230.096 4.26578 1.42658 0
M  V30 2168 C 231.415 3.07965 3.14397 0
M  V30 2169 H 228.534 0.607968 0.416587 0
M  V30 2170 H 231.176 1.84965 0.434511 0
M  V30 2171 H 229.326 2.74619 2.74803 0
M  V30 2172 H 230.998 4.53451 0.847329 0
M  V30 2173 H 229.241 4.27639 0.72849 0
M  V30 2174 H 229.912 5.08483 2.14823 0
M  V30 2175 H 232.388 3.22043 2.63491 0
M  V30 2176 H 231.264 3.95308 3.80819 0
M  V30 2177 H 231.525 2.21611 3.82545 0
M  V30 2178 N 230.584 -0.659388 1.43143 0
M  V30 2179 C 231.832 -1.41654 1.44147 0
M  V30 2180 C 232.153 -1.94893 0.0645739 0
M  V30 2181 O 231.423 -1.74044 -0.899198 0
M  V30 2182 H 230.003 -0.525708 0.530697 0
M  V30 2183 H 232.665 -0.778097 1.78694 0
M  V30 2184 H 231.761 -2.26195 2.1504 0
M  V30 2185 N 232.062 -1.29571 -0.897171 0
M  V30 2186 C 233.308 -1.18873 -1.65048 0
M  V30 2187 C 233.663 0.256707 -1.9068 0
M  V30 2188 O 232.956 1.18202 -1.50794 0
M  V30 2189 C 233.15 -1.9382 -3.00281 0
M  V30 2190 C 232.979 -3.45503 -2.8785 0
M  V30 2191 C 231.749 -4.14856 -2.88483 0
M  V30 2192 C 233.947 -4.40956 -2.64693 0
M  V30 2193 N 231.929 -5.52886 -2.66815 0
M  V30 2194 C 233.3 -5.66464 -2.5203 0
M  V30 2195 C 235.355 -4.3069 -2.49821 0
M  V30 2196 C 234.058 -6.82871 -2.26008 0
M  V30 2197 C 236.084 -5.46852 -2.25182 0
M  V30 2198 C 235.446 -6.71333 -2.13286 0
M  V30 2199 H 231.545 -0.489998 -0.609447 0
M  V30 2200 H 234.129 -1.63431 -1.05822 0
M  V30 2201 H 232.3 -1.51671 -3.57562 0
M  V30 2202 H 234.032 -1.75366 -3.64731 0
M  V30 2203 H 230.787 -3.66579 -2.99861 0
M  V30 2204 H 231.211 -6.25487 -2.59027 0
M  V30 2205 H 235.853 -3.35141 -2.5776 0
M  V30 2206 H 233.571 -7.78473 -2.16806 0
M  V30 2207 H 237.157 -5.40809 -2.14515 0
M  V30 2208 H 236.037 -7.59701 -1.94485 0
M  V30 2209 N 233.54 1.10788 -1.12088 0
M  V30 2210 C 234.473 2.16237 -0.729168 0
M  V30 2211 C 235.451 1.60207 0.277921 0
M  V30 2212 O 236.635 1.87707 0.172737 0
M  V30 2213 C 233.762 3.38609 -0.0786848 0
M  V30 2214 C 232.808 4.13322 -1.05201 0
M  V30 2215 S 233.641 4.69371 -2.57781 0
M  V30 2216 C 234.797 5.95058 -1.94053 0
M  V30 2217 H 235.03 2.4913 -1.62239 0
M  V30 2218 H 232.563 1.22519 -0.939603 0
M  V30 2219 H 234.521 4.09473 0.290254 0
M  V30 2220 H 233.182 3.03962 0.791593 0
M  V30 2221 H 232.375 5.01051 -0.544433 0
M  V30 2222 H 231.977 3.48251 -1.36371 0
M  V30 2223 H 234.269 6.65278 -1.28107 0
M  V30 2224 H 235.212 6.50472 -2.79807 0
M  V30 2225 H 235.62 5.46918 -1.39787 0
M  V30 2226 N 235.018 0.912232 1.28515 0
M  V30 2227 C 236.246 0.560416 1.99166 0
M  V30 2228 C 236.661 -0.857927 1.68182 0
M  V30 2229 O 236.018 -1.56805 0.933733 0
M  V30 2230 C 236.069 0.758142 3.53461 0
M  V30 2231 O 235.79 2.12067 3.83352 0
M  V30 2232 C 237.291 0.412954 4.41372 0
M  V30 2233 H 234.511 0.213805 0.636026 0
M  V30 2234 H 237.055 1.22502 1.63749 0
M  V30 2235 H 235.21 0.140556 3.87145 0
M  V30 2236 H 235.624 2.15923 4.77993 0
M  V30 2237 H 237.098 0.60208 5.48707 0
M  V30 2238 H 237.575 -0.65073 4.34353 0
M  V30 2239 H 238.181 1.00802 4.13182 0
M  V30 2240 N 236.496 -1.42363 0.676048 0
M  V30 2241 C 237.721 -2.06377 0.205705 0
M  V30 2242 C 238.146 -1.50463 -1.12883 0
M  V30 2243 O 237.504 -0.623619 -1.70237 0
M  V30 2244 C 237.552 -3.60277 0.152655 0
M  V30 2245 O 236.656 -4.02935 -0.87845 0
M  V30 2246 H 235.997 -0.655588 0.105359 0
M  V30 2247 H 238.527 -1.82475 0.925412 0
M  V30 2248 H 238.537 -4.07993 -0.0230675 0
M  V30 2249 H 237.212 -4.00346 1.12675 0
M  V30 2250 H 235.789 -3.66764 -0.673668 0
M  V30 2251 N 237.974 -0.419461 -1.51915 0
M  V30 2252 C 239.22 0.153166 -2.02221 0
M  V30 2253 C 239.553 1.43907 -1.30401 0
M  V30 2254 O 238.828 1.90055 -0.413438 0
M  V30 2255 C 239.111 0.390291 -3.57979 0
M  V30 2256 C 238.964 -0.913014 -4.40436 0
M  V30 2257 C 240.283 1.16794 -4.2432 0
M  V30 2258 H 237.402 0.0541924 -0.735005 0
M  V30 2259 H 240.044 -0.554955 -1.81715 0
M  V30 2260 H 238.194 0.993491 -3.75582 0
M  V30 2261 H 239.866 -1.54882 -4.34522 0
M  V30 2262 H 238.109 -1.52168 -4.06236 0
M  V30 2263 H 238.78 -0.701361 -5.47526 0
M  V30 2264 H 241.256 0.657161 -4.10878 0
M  V30 2265 H 240.132 1.3026 -5.3322 0
M  V30 2266 H 240.393 2.19132 -3.83971 0
M  V30 2267 N 239.452 1.56882 -0.150215 0
M  V30 2268 C 240.399 2.16922 0.788244 0
M  V30 2269 C 241.369 1.10303 1.24187 0
M  V30 2270 O 242.554 1.38359 1.31383 0
M  V30 2271 C 239.694 2.79754 2.02068 0
M  V30 2272 C 238.807 4.00775 1.61257 0
M  V30 2273 C 237.942 4.51595 2.79705 0
M  V30 2274 C 236.981 5.65074 2.35282 0
M  V30 2275 N 236.118 6.10499 3.4675 0
M  V30 2276 H 240.958 2.96779 0.269444 0
M  V30 2277 H 238.495 1.46599 0.12128 0
M  V30 2278 H 240.453 3.14329 2.74323 0
M  V30 2279 H 239.083 2.02536 2.51354 0
M  V30 2280 H 238.135 3.72158 0.787553 0
M  V30 2281 H 239.447 4.82978 1.24633 0
M  V30 2282 H 238.601 4.88242 3.60145 0
M  V30 2283 H 237.34 3.68406 3.19576 0
M  V30 2284 H 236.345 5.28 1.53283 0
M  V30 2285 H 237.57 6.50052 1.96493 0
M  V30 2286 H 235.516 5.30243 3.86236 0
M  V30 2287 H 235.433 6.87637 3.14152 0
M  V30 2288 H 236.701 6.51791 4.27537 0
M  V30 2289 N 240.93 -0.123565 1.57115 0
M  V30 2290 C 242.207 -0.862196 1.75572 0
M  V30 2291 C 242.587 -1.98279 0.724475 0
M  V30 2292 O 241.935 -2.27102 -0.252407 0
M  V30 2293 C 242.145 -1.38309 3.20424 0
M  V30 2294 C 243.493 -1.83724 3.82793 0
M  V30 2295 O 244.517 -1.47999 3.23998 0
M  V30 2296 O 243.376 -2.49685 4.86127 0
M  V30 2297 H 240.47 -0.409113 0.718718 0
M  V30 2298 H 243.016 -0.107661 1.69358 0
M  V30 2299 H 241.788 -0.578889 3.86994 0
M  V30 2300 H 241.411 -2.20046 3.31158 0
M  V30 2301 N 242.408 -1.52605 -0.393616 0
M  V30 2302 C 243.654 -1.68624 -1.13743 0
M  V30 2303 C 244.009 -0.418687 -1.87789 0
M  V30 2304 O 243.302 0.58747 -1.82371 0
M  V30 2305 C 243.496 -2.85721 -2.14705 0
M  V30 2306 C 243.325 -4.23742 -1.50575 0
M  V30 2307 C 242.095 -4.89033 -1.2718 0
M  V30 2308 C 244.293 -5.05293 -0.958311 0
M  V30 2309 N 242.275 -6.11048 -0.591058 0
M  V30 2310 C 243.646 -6.18673 -0.405367 0
M  V30 2311 C 245.701 -4.90517 -0.854274 0
M  V30 2312 C 244.404 -7.18895 0.241434 0
M  V30 2313 C 246.43 -5.90986 -0.221301 0
M  V30 2314 C 245.792 -7.03669 0.320894 0
M  V30 2315 H 241.891 -0.670556 -0.402342 0
M  V30 2316 H 244.475 -1.89946 -0.427607 0
M  V30 2317 H 242.646 -2.65987 -2.83029 0
M  V30 2318 H 244.378 -2.90699 -2.8156 0
M  V30 2319 H 241.133 -4.47672 -1.54554 0
M  V30 2320 H 241.557 -6.76474 -0.266862 0
M  V30 2321 H 246.199 -4.03612 -1.25926 0
M  V30 2322 H 243.917 -8.05413 0.658448 0
M  V30 2323 H 247.503 -5.81626 -0.142111 0
M  V30 2324 H 246.383 -7.80078 0.802956 0
M  V30 2325 N 243.887 0.651787 -1.4349 0
M  V30 2326 C 244.85 1.74647 -1.48429 0
M  V30 2327 C 245.85 1.56513 -0.368817 0
M  V30 2328 O 247.04 1.62385 -0.630623 0
M  V30 2329 C 244.172 3.13533 -1.33827 0
M  V30 2330 H 245.365 1.71649 -2.4592 0
M  V30 2331 H 242.918 0.863573 -1.30277 0
M  V30 2332 H 243.653 3.22142 -0.37349 0
M  V30 2333 H 243.438 3.28101 -2.14691 0
M  V30 2334 H 244.928 3.93356 -1.40218 0
M  V30 2335 N 245.365 1.30045 0.890287 0
M  V30 2336 C 246.613 1.18327 1.63839 0
M  V30 2337 C 246.934 -0.263455 1.93212 0
M  V30 2338 O 246.204 -1.17856 1.56482 0
M  V30 2339 H 244.784 0.434933 0.607324 0
M  V30 2340 H 247.446 1.631 1.06698 0
M  V30 2341 H 246.542 1.74024 2.59079 0
M  V30 2342 N 246.843 -1.10192 1.12674 0
M  V30 2343 C 248.089 -1.82475 0.884915 0
M  V30 2344 C 248.422 -1.85093 -0.58773 0
M  V30 2345 O 247.697 -1.3134 -1.43457 0
M  V30 2346 C 247.98 -3.29018 1.46353 0
M  V30 2347 C 247.833 -3.34718 3.00473 0
M  V30 2348 C 249.152 -4.25473 1.12519 0
M  V30 2349 H 246.271 -0.662492 0.322915 0
M  V30 2350 H 248.913 -1.2913 1.39375 0
M  V30 2351 H 247.063 -3.74576 1.03077 0
M  V30 2352 H 248.735 -2.97622 3.52447 0
M  V30 2353 H 246.978 -2.74541 3.35872 0
M  V30 2354 H 247.649 -4.37918 3.36053 0
M  V30 2355 H 250.125 -3.88161 1.499 0
M  V30 2356 H 249.001 -5.26365 1.55663 0
M  V30 2357 H 249.262 -4.42084 0.0377407 0
M  V30 2358 N 248.321 -0.919034 -1.28029 0
M  V30 2359 C 249.254 -0.355887 -2.25408 0
M  V30 2360 C 250.232 0.542874 -1.5327 0
M  V30 2361 O 251.416 0.485338 -1.82145 0
M  V30 2362 C 248.543 0.490759 -3.35126 0
M  V30 2363 C 247.589 -0.343358 -4.25116 0
M  V30 2364 S 248.422 -1.75344 -5.05979 0
M  V30 2365 C 249.578 -0.914244 -6.19187 0
M  V30 2366 H 249.811 -1.18123 -2.72826 0
M  V30 2367 H 247.344 -0.720636 -1.36551 0
M  V30 2368 H 249.302 0.973404 -3.98792 0
M  V30 2369 H 247.963 1.29054 -2.86363 0
M  V30 2370 H 247.156 0.304266 -5.03081 0
M  V30 2371 H 246.758 -0.759851 -3.662 0
M  V30 2372 H 249.05 -0.146282 -6.77342 0
M  V30 2373 H 249.993 -1.66661 -6.88208 0
M  V30 2374 H 250.401 -0.460082 -5.62622 0
M  V30 2375 N 249.799 1.42003 -0.683588 0
M  V30 2376 C 251.048 2.00638 -0.206681 0
M  V30 2377 C 251.361 1.5472 1.19671 0
M  V30 2378 O 252.567 2.05833 1.77045 0
M  V30 2379 C 251.023 3.58487 -0.318632 0
M  V30 2380 C 250.631 4.1339 -1.72663 0
M  V30 2381 C 252.375 4.24384 0.0991141 0
M  V30 2382 C 250.282 5.63633 -1.79087 0
M  V30 2383 H 249.212 0.750408 -0.0735107 0
M  V30 2384 H 251.863 1.62624 -0.850048 0
M  V30 2385 H 250.245 3.94047 0.392781 0
M  V30 2386 H 251.419 3.89273 -2.46583 0
M  V30 2387 H 249.734 3.59976 -2.09299 0
M  V30 2388 H 252.331 5.34652 0.0713833 0
M  V30 2389 H 252.674 4.00505 1.13586 0
M  V30 2390 H 253.207 3.93816 -0.561599 0
M  V30 2391 H 249.946 5.92323 -2.80774 0
M  V30 2392 H 249.466 5.89714 -1.09535 0
M  V30 2393 H 251.145 6.28201 -1.5483 0
M  V30 2394 N 251.277 0.427512 1.51691 0
M  V30 2395 C 252.502 -0.143601 2.06902 0
M  V30 2396 C 252.927 -1.36536 1.29382 0
M  V30 2397 O 252.285 -1.78289 0.329043 0
M  V30 2398 C 252.333 -0.454207 3.57728 0
M  V30 2399 O 251.437 -1.54228 3.82475 0
M  V30 2400 H 250.778 -0.00617128 0.663971 0
M  V30 2401 H 253.308 0.606014 1.95419 0
M  V30 2402 H 253.318 -0.707525 4.01818 0
M  V30 2403 H 251.993 0.438812 4.13579 0
M  V30 2404 H 250.57 -1.2797 3.50254 0
M  V30 2405 N 252.755 -1.56801 0.158532 0
M  V30 2406 C 253.718 -2.16138 -0.762705 0
M  V30 2407 C 254.718 -1.1061 -1.16713 0
M  V30 2408 O 255.908 -1.36191 -1.08617 0
M  V30 2409 C 253.04 -2.73386 -2.03649 0
M  V30 2410 H 254.233 -2.98886 -0.246354 0
M  V30 2411 H 251.786 -1.56035 -0.0909744 0
M  V30 2412 H 252.521 -1.94335 -2.59623 0
M  V30 2413 H 252.306 -3.50601 -1.75559 0
M  V30 2414 H 253.796 -3.19065 -2.6942 0
M  V30 2415 N 254.233 0.115231 -1.57178 0
M  V30 2416 C 255.165 1.16694 -1.97269 0
M  V30 2417 C 256.178 1.37445 -0.872502 0
M  V30 2418 O 257.367 1.36454 -1.15077 0
M  V30 2419 C 254.467 2.52627 -2.25905 0
M  V30 2420 C 253.64 2.52427 -3.57211 0
M  V30 2421 C 252.699 3.70134 -3.74016 0
M  V30 2422 O 251.725 3.53546 -4.46087 0
M  V30 2423 N 252.927 4.88844 -3.13068 0
M  V30 2424 H 255.692 0.82588 -2.88096 0
M  V30 2425 H 253.253 0.304461 -1.59011 0
M  V30 2426 H 255.245 3.29937 -2.34359 0
M  V30 2427 H 253.815 2.789 -1.41186 0
M  V30 2428 H 253.035 1.60805 -3.5991 0
M  V30 2429 H 254.323 2.49353 -4.43509 0
M  V30 2430 H 253.721 5.05225 -2.54489 0
M  V30 2431 H 252.278 5.63817 -3.27037 0
M  V30 2432 N 255.711 1.52812 0.385517 0
M  V30 2433 C 256.939 1.71907 1.15133 0
M  V30 2434 C 257.354 0.439004 1.83625 0
M  V30 2435 O 256.711 -0.586765 1.7281 0
M  V30 2436 C 256.762 2.87099 2.19673 0
M  V30 2437 O 256.483 4.10151 1.53973 0
M  V30 2438 C 257.984 3.17902 3.08955 0
M  V30 2439 H 255.204 0.575479 0.345057 0
M  V30 2440 H 257.748 1.99476 0.45052 0
M  V30 2441 H 255.903 2.61982 2.85384 0
M  V30 2442 H 256.317 4.74514 2.23465 0
M  V30 2443 H 257.791 4.01959 3.7833 0
M  V30 2444 H 258.268 2.3243 3.72657 0
M  V30 2445 H 258.874 3.44871 2.48885 0
M  V30 2446 N 257.189 -0.644168 1.43834 0
M  V30 2447 C 258.119 -1.76814 1.52509 0
M  V30 2448 C 259.1 -1.65823 0.379052 0
M  V30 2449 O 260.285 -1.84781 0.597466 0
M  V30 2450 C 257.415 -3.15288 1.4564 0
M  V30 2451 C 256.369 -3.41053 2.58586 0
M  V30 2452 C 255.695 -4.79421 2.36769 0
M  V30 2453 C 256.995 -3.34902 4.00797 0
M  V30 2454 H 258.689 -1.69812 2.46586 0
M  V30 2455 H 256.235 -0.815542 1.1868 0
M  V30 2456 H 258.188 -3.93681 1.50311 0
M  V30 2457 H 256.912 -3.23043 0.480725 0
M  V30 2458 H 255.571 -2.65035 2.53282 0
M  V30 2459 H 255.219 -4.83863 1.37424 0
M  V30 2460 H 254.919 -4.9762 3.12487 0
M  V30 2461 H 256.443 -5.6006 2.43238 0
M  V30 2462 H 257.857 -4.03218 4.07539 0
M  V30 2463 H 256.254 -3.64637 4.76613 0
M  V30 2464 H 257.324 -2.32928 4.25291 0
M  V30 2465 N 258.668 -1.30515 -0.883378 0
M  V30 2466 C 259.896 -1.22359 -1.66841 0
M  V30 2467 C 260.311 0.213296 -1.87591 0
M  V30 2468 O 259.668 1.14075 -1.42454 0
M  V30 2469 C 259.719 -1.95011 -3.04389 0
M  V30 2470 O 259.44 -3.3309 -2.84575 0
M  V30 2471 C 260.941 -1.93532 -3.98824 0
M  V30 2472 H 258.161 -0.423371 -0.520575 0
M  V30 2473 H 260.705 -1.72167 -1.10357 0
M  V30 2474 H 258.86 -1.48997 -3.57601 0
M  V30 2475 H 259.274 -3.69907 -3.71846 0
M  V30 2476 H 260.748 -2.48902 -4.92699 0
M  V30 2477 H 261.225 -0.914627 -4.29571 0
M  V30 2478 H 261.831 -2.39364 -3.51547 0
M  V30 2479 N 260.146 1.09593 -1.13257 0
M  V30 2480 C 261.394 1.81375 -0.891492 0
M  V30 2481 C 261.715 1.86049 0.584009 0
M  V30 2482 O 260.985 1.34481 1.42449 0
M  V30 2483 H 259.565 0.671708 -0.326828 0
M  V30 2484 H 262.227 1.3256 -1.42877 0
M  V30 2485 H 261.323 2.84612 -1.28071 0
M  V30 2486 N 261.624 0.925811 1.2754 0
M  V30 2487 C 263.04 0.625767 1.46821 0
M  V30 2488 C 263.24 -0.825506 1.83814 0
M  V30 2489 O 262.296 -1.60356 1.95044 0
M  V30 2490 C 263.609 1.57402 2.56213 0
M  V30 2491 C 265.157 1.58204 2.70075 0
M  V30 2492 C 265.632 2.51721 3.82623 0
M  V30 2493 N 267.123 2.49917 3.89994 0
M  V30 2494 C 267.858 3.18968 4.76494 0
M  V30 2495 N 267.354 3.97391 5.67496 0
M  V30 2496 N 269.147 3.07996 4.70208 0
M  V30 2497 H 261.298 1.86409 1.01811 0
M  V30 2498 H 263.561 0.800213 0.508295 0
M  V30 2499 H 263.267 2.60925 2.35819 0
M  V30 2500 H 263.141 1.31428 3.53563 0
M  V30 2501 H 265.528 0.554124 2.89851 0
M  V30 2502 H 265.609 1.88226 1.73218 0
M  V30 2503 H 265.253 3.54622 3.63601 0
M  V30 2504 H 265.183 2.18996 4.78903 0
M  V30 2505 H 267.674 1.9296 3.24923 0
M  V30 2506 H 267.987 4.4707 6.30356 0
M  V30 2507 H 266.332 4.01495 5.67298 0
M  V30 2508 H 269.523 2.46223 3.9811 0
M  V30 2509 H 269.696 3.6208 5.37403 0
M  V30 2510 N 263.102 -1.41638 0.69111 0
M  V30 2511 C 264.348 -2.01598 0.220519 0
M  V30 2512 C 264.681 -1.54594 -1.17535 0
M  V30 2513 O 263.956 -0.755177 -1.79241 0
M  V30 2514 C 264.239 -3.59062 0.273243 0
M  V30 2515 C 264.092 -4.16203 1.70573 0
M  V30 2516 C 265.411 -4.38546 -0.369457 0
M  V30 2517 H 262.53 -0.732468 0.0816045 0
M  V30 2518 H 265.172 -1.68445 0.878986 0
M  V30 2519 H 263.322 -3.87435 -0.287411 0
M  V30 2520 H 264.994 -3.98722 2.31989 0
M  V30 2521 H 263.237 -3.71414 2.2413 0
M  V30 2522 H 263.908 -5.25358 1.69419 0
M  V30 2523 H 266.384 -4.1596 0.107977 0
M  V30 2524 H 265.26 -5.48069 -0.302002 0
M  V30 2525 H 265.521 -4.17662 -1.44951 0
M  V30 2526 N 264.58 -0.43555 -1.51462 0
M  V30 2527 C 265.51 0.367376 -2.30592 0
M  V30 2528 C 266.491 1.02263 -1.35928 0
M  V30 2529 O 267.676 1.02661 -1.64847 0
M  V30 2530 C 264.806 1.46983 -3.14664 0
M  V30 2531 C 263.76 0.938161 -4.17591 0
M  V30 2532 C 263.086 2.13622 -4.90173 0
M  V30 2533 C 264.386 -0.0261621 -5.22293 0
M  V30 2534 H 266.08 -0.292969 -2.97963 0
M  V30 2535 H 263.626 -0.14234 -1.43295 0
M  V30 2536 H 265.579 2.03873 -3.688 0
M  V30 2537 H 264.303 2.15843 -2.4511 0
M  V30 2538 H 262.962 0.391481 -3.64504 0
M  V30 2539 H 262.61 2.81098 -4.17124 0
M  V30 2540 H 262.31 1.78688 -5.59772 0
M  V30 2541 H 263.834 2.7107 -5.47132 0
M  V30 2542 H 265.248 0.452384 -5.71512 0
M  V30 2543 H 263.645 -0.287992 -5.99409 0
M  V30 2544 H 264.715 -0.963391 -4.75233 0
M  V30 2545 N 266.058 1.56714 -0.166846 0
M  V30 2546 C 267.304 1.97039 0.479962 0
M  V30 2547 C 267.637 1.05264 1.63197 0
M  V30 2548 O 266.912 0.0988833 1.94248 0
M  V30 2549 C 267.195 3.46867 0.967212 0
M  V30 2550 C 267.048 4.49421 -0.18466 0
M  V30 2551 C 268.367 3.9968 1.84238 0
M  V30 2552 H 265.486 0.71641 0.172992 0
M  V30 2553 H 268.128 1.8832 -0.252079 0
M  V30 2554 H 266.278 3.54428 1.59101 0
M  V30 2555 H 267.95 4.53924 -0.821621 0
M  V30 2556 H 266.193 4.25573 -0.840837 0
M  V30 2557 H 266.864 5.51644 0.198317 0
M  V30 2558 H 269.34 3.94723 1.31655 0
M  V30 2559 H 268.216 5.04941 2.15234 0
M  V30 2560 H 268.477 3.43226 2.78654 0
M  V30 2561 N 267.536 -0.106894 1.57237 0
M  V30 2562 C 268.782 -0.81373 1.85759 0
M  V30 2563 C 269.115 -1.78952 0.754315 0
M  V30 2564 O 268.39 -1.93029 -0.23879 0
M  V30 2565 C 268.673 -1.55293 3.24894 0
M  V30 2566 C 268.526 -0.595929 4.45835 0
M  V30 2567 C 269.845 -2.5063 3.61763 0
M  V30 2568 H 266.964 -0.294369 0.67566 0
M  V30 2569 H 269.606 -0.0776472 1.89841 0
M  V30 2570 H 267.756 -2.1804 3.21544 0
M  V30 2571 H 269.428 0.0236262 4.61294 0
M  V30 2572 H 267.671 0.0916191 4.33703 0
M  V30 2573 H 268.342 -1.15004 5.39887 0
M  V30 2574 H 270.818 -1.97982 3.65981 0
M  V30 2575 H 269.694 -2.99376 4.60071 0
M  V30 2576 H 269.955 -3.3385 2.89821 0
M  V30 2577 N 269.014 -1.53014 -0.377408 0
M  V30 2578 C 269.944 -1.81589 -1.46791 0
M  V30 2579 C 270.925 -0.668622 -1.56408 0
M  V30 2580 O 272.11 -0.917337 -1.71168 0
M  V30 2581 C 269.24 -1.99519 -2.8427 0
M  V30 2582 C 268.194 -3.15249 -2.89486 0
M  V30 2583 C 267.52 -3.18451 -4.29527 0
M  V30 2584 C 268.82 -4.54084 -2.58079 0
M  V30 2585 H 270.514 -2.7291 -1.23127 0
M  V30 2586 H 268.06 -1.31319 -0.590883 0
M  V30 2587 H 270.013 -2.18092 -3.60575 0
M  V30 2588 H 268.737 -1.04897 -3.09296 0
M  V30 2589 H 267.396 -2.96477 -2.15631 0
M  V30 2590 H 267.044 -2.2149 -4.5161 0
M  V30 2591 H 266.744 -3.962 -4.33934 0
M  V30 2592 H 268.268 -3.39193 -5.07721 0
M  V30 2593 H 269.682 -4.72899 -3.24098 0
M  V30 2594 H 268.079 -5.33987 -2.7382 0
M  V30 2595 H 269.149 -4.60006 -1.53372 0
M  V30 2596 N 270.492 0.636531 -1.44174 0
M  V30 2597 C 271.738 1.39826 -1.4689 0
M  V30 2598 C 272.071 1.93947 -0.0990585 0
M  V30 2599 O 271.346 1.73325 0.882544 0
M  V30 2600 C 271.629 2.56751 -2.5249 0
M  V30 2601 C 271.482 2.08014 -3.98811 0
M  V30 2602 C 272.801 3.58946 -2.54649 0
M  V30 2603 H 269.92 0.507075 -0.53483 0
M  V30 2604 H 272.562 0.720188 -1.75822 0
M  V30 2605 H 270.712 3.14597 -2.2795 0
M  V30 2606 H 272.384 1.5504 -4.34466 0
M  V30 2607 H 270.627 1.39242 -4.10846 0
M  V30 2608 H 271.298 2.92169 -4.68339 0
M  V30 2609 H 273.774 3.1089 -2.76563 0
M  V30 2610 H 272.65 4.38286 -3.3045 0
M  V30 2611 H 272.911 4.12655 -1.58646 0
M  V30 2612 N 271.97 1.30982 0.876444 0
M  V30 2613 C 273.217 1.20296 1.62896 0
M  V30 2614 C 273.545 -0.240395 1.93009 0
M  V30 2615 O 272.8 -1.18733 1.55567 0
M  V30 2616 C 273.099 1.98572 2.9716 0
M  V30 2617 C 272.765 3.48125 2.86566 0
M  V30 2618 C 271.427 3.88905 2.83383 0
M  V30 2619 C 273.779 4.43322 2.74071 0
M  V30 2620 C 271.107 5.2316 2.65556 0
M  V30 2621 C 273.459 5.77695 2.57781 0
M  V30 2622 C 272.123 6.17704 2.52979 0
M  V30 2623 H 271.393 0.440193 0.59608 0
M  V30 2624 H 274.04 1.62177 1.01837 0
M  V30 2625 H 272.345 1.49352 3.62217 0
M  V30 2626 H 274.042 1.8769 3.54364 0
M  V30 2627 H 270.632 3.15723 2.89856 0
M  V30 2628 H 274.816 4.12752 2.75589 0
M  V30 2629 H 270.072 5.53241 2.60259 0
M  V30 2630 H 274.246 6.51091 2.47089 0
M  V30 2631 H 271.873 7.21678 2.38924 0
M  V30 2632 N 273.449 -1.08991 1.13837 0
M  V30 2633 C 274.412 -2.13925 0.822715 0
M  V30 2634 C 275.412 -1.599 -0.1699 0
M  V30 2635 O 276.602 -1.74104 0.0577251 0
M  V30 2636 C 273.734 -3.40155 0.225318 0
M  V30 2637 H 274.927 -2.43358 1.75262 0
M  V30 2638 H 272.48 -1.24603 0.943594 0
M  V30 2639 H 273.215 -3.16352 -0.713594 0
M  V30 2640 H 273 -3.80661 0.940193 0
M  V30 2641 H 274.49 -4.17594 0.0214784 0
M  V30 2642 N 274.927 -0.932562 -1.27047 0
M  V30 2643 C 275.857 -0.452902 -2.29066 0
M  V30 2644 C 276.838 0.489338 -1.62909 0
M  V30 2645 O 278.023 0.393046 -1.90181 0
M  V30 2646 C 275.153 0.290698 -3.46081 0
M  V30 2647 C 274.107 -0.564168 -4.24265 0
M  V30 2648 C 273.433 0.308886 -5.33807 0
M  V30 2649 C 274.733 -1.83112 -4.89149 0
M  V30 2650 H 276.427 -1.30552 -2.69437 0
M  V30 2651 H 273.973 -0.629201 -1.29526 0
M  V30 2652 H 275.926 0.637233 -4.16554 0
M  V30 2653 H 274.65 1.17738 -3.0464 0
M  V30 2654 H 273.309 -0.893477 -3.55545 0
M  V30 2655 H 272.957 1.19467 -4.88607 0
M  V30 2656 H 272.657 -0.259633 -5.87026 0
M  V30 2657 H 274.181 0.650884 -6.07121 0
M  V30 2658 H 275.595 -1.55236 -5.51883 0
M  V30 2659 H 273.992 -2.34353 -5.52448 0
M  V30 2660 H 275.062 -2.54772 -4.12576 0
M  V30 2661 N 276.405 1.4127 -0.698611 0
M  V30 2662 C 277.63 2.06024 -0.238512 0
M  V30 2663 C 278.055 1.5224 1.10475 0
M  V30 2664 O 277.413 0.650623 1.69223 0
M  V30 2665 C 277.461 3.59988 -0.209952 0
M  V30 2666 O 276.565 4.04282 0.814235 0
M  V30 2667 H 275.906 0.653829 -0.115775 0
M  V30 2668 H 278.436 1.8098 -0.954326 0
M  V30 2669 H 278.446 4.07979 -0.0418436 0
M  V30 2670 H 277.121 3.98503 -1.1903 0
M  V30 2671 H 275.698 3.6779 0.615234 0
M  V30 2672 N 277.883 0.443576 1.51229 0
M  V30 2673 C 279.132 -0.122332 2.01329 0
M  V30 2674 C 279.445 -1.43237 1.33201 0
M  V30 2675 O 280.651 -2.0816 1.74304 0
M  V30 2676 C 279.107 -0.268551 3.58897 0
M  V30 2677 C 278.715 1.03142 4.35965 0
M  V30 2678 C 280.459 -0.787894 4.17124 0
M  V30 2679 C 278.366 0.850504 5.85252 0
M  V30 2680 H 277.296 -0.0494929 0.752374 0
M  V30 2681 H 279.947 0.574289 1.74282 0
M  V30 2682 H 278.329 -1.02832 3.82415 0
M  V30 2683 H 279.503 1.80001 4.24189 0
M  V30 2684 H 277.818 1.47977 3.89219 0
M  V30 2685 H 280.415 -0.939841 5.26375 0
M  V30 2686 H 280.758 -1.77201 3.76703 0
M  V30 2687 H 281.291 -0.0862669 3.97706 0
M  V30 2688 H 278.03 1.80718 6.30096 0
M  V30 2689 H 277.55 0.121825 5.99676 0
M  V30 2690 H 279.229 0.506163 6.45017 0
M  V30 2691 N 279.361 -1.56624 0.175154 0
M  V30 2692 C 280.609 -1.96609 -0.467885 0
M  V30 2693 C 280.93 -1.06238 -1.63519 0
M  V30 2694 O 280.2 -0.129523 -1.95471 0
M  V30 2695 H 278.78 -0.726008 -0.175845 0
M  V30 2696 H 281.442 -1.93195 0.257234 0
M  V30 2697 H 280.538 -3.00989 -0.825342 0
M  V30 2698 N 280.839 0.0985539 -1.57292 0
M  V30 2699 C 281.802 1.10402 -2.00858 0
M  V30 2700 C 282.802 1.33146 -0.901593 0
M  V30 2701 O 283.992 1.29318 -1.16716 0
M  V30 2702 C 281.124 2.45394 -2.36632 0
M  V30 2703 H 282.317 0.729099 -2.90902 0
M  V30 2704 H 279.87 0.343495 -1.52479 0
M  V30 2705 H 280.605 2.87769 -1.49531 0
M  V30 2706 H 280.39 2.30235 -3.17387 0
M  V30 2707 H 281.88 3.17718 -2.71007 0
M  V30 2708 N 282.317 1.53212 0.369288 0
M  V30 2709 C 283.247 1.82365 1.45826 0
M  V30 2710 C 284.228 0.676907 1.56051 0
M  V30 2711 O 285.413 0.926401 1.70679 0
M  V30 2712 C 282.543 2.01023 2.83208 0
M  V30 2713 C 281.497 3.1678 2.8781 0
M  V30 2714 C 280.823 3.20724 4.27832 0
M  V30 2715 C 282.123 4.55447 2.55667 0
M  V30 2716 H 283.817 2.73559 1.21678 0
M  V30 2717 H 281.363 1.3163 0.583911 0
M  V30 2718 H 283.316 2.20001 3.59413 0
M  V30 2719 H 282.04 1.06536 3.08736 0
M  V30 2720 H 280.699 2.97616 2.14056 0
M  V30 2721 H 280.347 2.23882 4.50429 0
M  V30 2722 H 280.047 3.98496 4.31827 0
M  V30 2723 H 281.571 3.41881 5.05915 0
M  V30 2724 H 282.985 4.74611 3.21586 0
M  V30 2725 H 281.382 5.35432 2.70984 0
M  V30 2726 H 282.452 4.60812 1.5093 0
M  V30 2727 N 283.795 -0.628877 1.44509 0
M  V30 2728 C 285.041 -1.39045 1.47629 0
M  V30 2729 C 285.374 -1.93892 0.109343 0
M  V30 2730 O 284.649 -1.7379 -0.87334 0
M  V30 2731 C 284.932 -2.55408 2.53848 0
M  V30 2732 C 284.785 -2.05896 3.99909 0
M  V30 2733 C 286.104 -3.5759 2.56549 0
M  V30 2734 H 283.223 -0.504232 0.537512 0
M  V30 2735 H 285.865 -0.710854 1.76201 0
M  V30 2736 H 284.015 -3.13384 2.29615 0
M  V30 2737 H 285.687 -1.52734 4.35282 0
M  V30 2738 H 283.93 -1.37061 4.11578 0
M  V30 2739 H 284.601 -2.89681 4.69882 0
M  V30 2740 H 287.077 -3.09419 2.78207 0
M  V30 2741 H 285.953 -4.36527 3.32769 0
M  V30 2742 H 286.214 -4.11808 1.60832 0
M  V30 2743 N 285.273 -1.31445 -0.869486 0
M  V30 2744 C 286.522 -1.20517 -1.61736 0
M  V30 2745 C 286.835 0.235341 -1.94179 0
M  V30 2746 O 288.041 0.466312 -2.67465 0
M  V30 2747 C 286.497 -2.10982 -2.91573 0
M  V30 2748 C 286.105 -3.60032 -2.66611 0
M  V30 2749 C 287.849 -2.08856 -3.69567 0
M  V30 2750 C 285.756 -4.42503 -3.92358 0
M  V30 2751 H 284.686 -0.447493 -0.606849 0
M  V30 2752 H 287.337 -1.56303 -0.96133 0
M  V30 2753 H 285.719 -1.68095 -3.58553 0
M  V30 2754 H 286.893 -4.11167 -2.08035 0
M  V30 2755 H 285.208 -3.64139 -2.0197 0
M  V30 2756 H 287.805 -2.67716 -4.62852 0
M  V30 2757 H 288.148 -1.07582 -4.02159 0
M  V30 2758 H 288.681 -2.49945 -3.09471 0
M  V30 2759 H 285.42 -5.44533 -3.64916 0
M  V30 2760 H 284.94 -3.96125 -4.50383 0
M  V30 2761 H 286.619 -4.54741 -4.60238 0
M  V30 2762 N 286.751 1.08385 -1.14413 0
M  V30 2763 C 287.981 1.8425 -0.934644 0
M  V30 2764 C 288.389 1.81907 0.520234 0
M  V30 2765 O 287.732 1.22126 1.37226 0
M  V30 2766 C 287.794 3.32853 -1.35828 0
M  V30 2767 C 287.458 3.5893 -2.82875 0
M  V30 2768 C 288.455 3.53756 -3.80989 0
M  V30 2769 C 286.14 3.86934 -3.20293 0
M  V30 2770 C 288.134 3.76216 -5.14529 0
M  V30 2771 C 285.821 4.09047 -4.54008 0
M  V30 2772 C 286.819 4.03682 -5.50936 0
M  V30 2773 O 286.507 4.25214 -6.82238 0
M  V30 2774 H 286.239 0.588502 -0.332628 0
M  V30 2775 H 288.793 1.37792 -1.52324 0
M  V30 2776 H 287.023 3.8007 -0.713019 0
M  V30 2777 H 288.712 3.90154 -1.11957 0
M  V30 2778 H 289.478 3.32135 -3.53428 0
M  V30 2779 H 285.357 3.9023 -2.45442 0
M  V30 2780 H 288.901 3.71943 -5.90173 0
M  V30 2781 H 284.798 4.30151 -4.8129 0
M  V30 2782 H 285.566 4.42619 -6.88499 0
M  V30 2783 N 288.23 0.939286 1.26551 0
M  V30 2784 C 289.477 0.585847 1.9384 0
M  V30 2785 C 289.805 -0.874784 1.73718 0
M  V30 2786 O 289.06 -1.64092 1.06642 0
M  V30 2787 C 289.359 0.872106 3.46596 0
M  V30 2788 C 289.025 2.31632 3.86856 0
M  V30 2789 C 287.687 2.71111 3.97558 0
M  V30 2790 C 290.039 3.25494 4.07066 0
M  V30 2791 C 287.367 4.03553 4.25866 0
M  V30 2792 C 289.719 4.57531 4.36862 0
M  V30 2793 C 288.383 4.96828 4.45778 0
M  V30 2794 H 287.653 0.214377 0.709312 0
M  V30 2795 H 290.3 1.18544 1.50398 0
M  V30 2796 H 288.605 0.18996 3.91339 0
M  V30 2797 H 290.302 0.577442 3.96821 0
M  V30 2798 H 286.892 2.00008 3.79071 0
M  V30 2799 H 291.076 2.9619 3.98227 0
M  V30 2800 H 286.332 4.33665 4.30981 0
M  V30 2801 H 290.506 5.30254 4.51446 0
M  V30 2802 H 288.133 5.99482 4.67468 0
M  V30 2803 N 289.708 -1.40897 0.706093 0
M  V30 2804 C 290.957 -2.00284 0.238574 0
M  V30 2805 C 291.27 -1.56604 -1.17194 0
M  V30 2806 O 292.476 -2.08624 -1.73748 0
M  V30 2807 C 290.932 -3.57934 0.375623 0
M  V30 2808 C 290.54 -4.10591 1.79217 0
M  V30 2809 C 292.284 -4.24488 -0.0315857 0
M  V30 2810 C 290.191 -5.60712 1.88032 0
M  V30 2811 H 289.121 -0.749144 0.0854398 0
M  V30 2812 H 291.772 -1.61251 0.875813 0
M  V30 2813 H 290.154 -3.94622 -0.330042 0
M  V30 2814 H 291.328 -3.85301 2.52745 0
M  V30 2815 H 289.643 -3.56601 2.15 0
M  V30 2816 H 292.24 -5.34698 0.0136842 0
M  V30 2817 H 292.583 -4.02261 -1.072 0
M  V30 2818 H 293.116 -3.92873 0.624181 0
M  V30 2819 H 289.855 -5.87781 2.90161 0
M  V30 2820 H 289.375 -5.87896 1.18903 0
M  V30 2821 H 291.054 -6.25658 1.64805 0
M  V30 2822 N 291.186 -0.45159 -1.50991 0
M  V30 2823 C 292.463 0.170707 -1.94854 0
M  V30 2824 C 292.843 1.58788 -1.39103 0
M  V30 2825 O 292.191 2.20913 -0.583921 0
M  V30 2826 C 292.401 0.133929 -3.48743 0
M  V30 2827 C 293.749 0.33248 -4.23296 0
M  V30 2828 O 294.773 0.211403 -3.55572 0
M  V30 2829 O 293.632 0.57486 -5.43468 0
M  V30 2830 H 290.726 0.122264 -0.817912 0
M  V30 2831 H 293.272 -0.510594 -1.61836 0
M  V30 2832 H 292.044 -0.856283 -3.81816 0
M  V30 2833 H 291.667 0.857529 -3.88242 0
M  V30 2834 N 292.664 1.56529 -0.183458 0
M  V30 2835 C 293.889 2.02064 0.467428 0
M  V30 2836 C 294.314 1.06282 1.55196 0
M  V30 2837 O 293.672 0.0443565 1.81246 0
M  V30 2838 C 293.72 3.46122 1.01153 0
M  V30 2839 O 292.824 3.53437 2.12499 0
M  V30 2840 H 292.165 0.654726 0.110588 0
M  V30 2841 H 294.695 2.02521 -0.290917 0
M  V30 2842 H 294.705 3.85676 1.33108 0
M  V30 2843 H 293.38 4.15331 0.217533 0
M  V30 2844 H 291.957 3.2575 1.81497 0
M  V30 2845 N 294.142 -0.090211 1.57342 0
M  V30 2846 C 295.367 -0.810082 1.90925 0
M  V30 2847 C 295.792 -1.71248 0.778187 0
M  V30 2848 O 295.15 -1.79278 -0.269991 0
M  V30 2849 C 295.198 -1.59529 3.23393 0
M  V30 2850 O 294.302 -2.70461 3.11327 0
M  V30 2851 H 293.643 -0.222231 0.625707 0
M  V30 2852 H 296.173 -0.0639716 2.045 0
M  V30 2853 H 296.183 -1.97847 3.5682 0
M  V30 2854 H 294.858 -0.933055 4.05299 0
M  V30 2855 H 293.435 -2.35135 2.89423 0
M  V30 2856 N 295.62 -1.53406 -0.361157 0
M  V30 2857 C 296.568 -1.80832 -1.46296 0
M  V30 2858 C 297.562 -0.677699 -1.55253 0
M  V30 2859 O 298.768 -0.860723 -1.58087 0
M  V30 2860 H 295.143 -0.572627 -0.487445 0
M  V30 2861 H 297.114 -2.73045 -1.20371 0
M  V30 2862 C 295.863 -2.01907 -2.8307 0
M  V30 2863 H 295.186 -2.88349 -2.76938 0
M  V30 2864 H 296.626 -2.25072 -3.59331 0
M  V30 2865 C 295.085 -0.799449 -3.27277 0
M  V30 2866 O 295.615 0.00971761 -4.01699 0
M  V30 2867 N 293.821 -0.621637 -2.83873 0
M  V30 2868 H 293.368 -1.28126 -2.23476 0
M  V30 2869 H 293.326 0.19298 -3.13807 0
M  V30 2870 N 297.098 0.621204 -1.44841 0
M  V30 2871 C 298.509 1.20298 -1.42777 0
M  V30 2872 C 298.86 1.95639 -0.148259 0
M  V30 2873 O 297.985 2.02955 0.750892 0
M  V30 2874 C 298.58 2.1882 -2.58657 0
M  V30 2875 C 297.139 2.72403 -2.59756 0
M  V30 2876 C 296.286 1.4757 -2.34773 0
M  V30 2877 H 299.237 0.411297 -1.53278 0
M  V30 2878 H 299.258 3.01607 -2.31977 0
M  V30 2879 H 298.77 1.63957 -3.51766 0
M  V30 2880 H 296.871 3.31242 -1.70615 0
M  V30 2881 H 296.984 3.17765 -3.58556 0
M  V30 2882 H 295.348 1.76051 -1.8406 0
M  V30 2883 H 296.131 0.945954 -3.3001 0
M  V30 2884 N 298.576 1.31904 0.862503 0
M  V30 2885 C 299.825 1.21373 1.61094 0
M  V30 2886 C 300.138 -0.22504 1.94301 0
M  V30 2887 O 301.344 -0.452121 2.67709 0
M  V30 2888 C 299.8 2.12525 2.9045 0
M  V30 2889 C 299.408 3.61441 2.64697 0
M  V30 2890 C 301.152 2.10813 3.68454 0
M  V30 2891 C 299.059 4.44578 3.90006 0
M  V30 2892 H 297.989 0.450705 0.604468 0
M  V30 2893 H 300.64 1.56811 0.953027 0
M  V30 2894 H 299.022 1.69994 3.57656 0
M  V30 2895 H 300.196 4.12264 2.05851 0
M  V30 2896 H 298.511 3.65205 2.00036 0
M  V30 2897 H 301.108 2.70167 4.61426 0
M  V30 2898 H 301.451 1.09713 4.01583 0
M  V30 2899 H 301.984 2.51583 3.08141 0
M  V30 2900 H 298.723 5.46461 3.62023 0
M  V30 2901 H 298.243 3.98508 4.48276 0
M  V30 2902 H 299.922 4.57176 4.5782 0
M  V30 2903 N 300.054 -1.07777 1.14986 0
M  V30 2904 C 300.964 -2.18404 0.856546 0
M  V30 2905 C 301.98 -1.73211 -0.165485 0
M  V30 2906 O 303.156 -2.01399 0.00755219 0
M  V30 2907 C 300.221 -3.44977 0.34526 0
M  V30 2908 C 299.282 -4.0476 1.43065 0
M  V30 2909 C 298.515 -5.25291 0.943663 0
M  V30 2910 O 298.738 -5.70004 -0.212426 0
M  V30 2911 O 297.672 -5.76638 1.72547 0
M  V30 2912 H 301.498 -2.45978 1.78125 0
M  V30 2913 H 299.083 -1.17033 0.928631 0
M  V30 2914 H 300.965 -4.21348 0.0663671 0
M  V30 2915 H 299.64 -3.18965 -0.551631 0
M  V30 2916 H 298.547 -3.29949 1.76309 0
M  V30 2917 H 299.88 -4.35035 2.30229 0
M  V30 2918 N 301.532 -0.945985 -1.26051 0
M  V30 2919 C 302.757 -0.612525 -1.98149 0
M  V30 2920 C 303.182 0.806623 -1.69927 0
M  V30 2921 O 302.54 1.54411 -0.950108 0
M  V30 2922 C 302.588 -0.866981 -3.50023 0
M  V30 2923 O 301.692 0.0585333 -4.12358 0
M  V30 2924 H 301.033 -0.23379 -0.621481 0
M  V30 2925 H 303.563 -1.27023 -1.60395 0
M  V30 2926 H 303.573 -0.789792 -4.00283 0
M  V30 2927 H 302.248 -1.90135 -3.69894 0
M  V30 2928 H 300.825 -0.0701241 -3.72834 0
M  V30 2929 N 303.011 1.40521 -0.713556 0
M  V30 2930 C 304.251 2.02783 -0.256584 0
M  V30 2931 C 304.615 1.55352 1.12827 0
M  V30 2932 O 305.816 2.09663 1.68211 0
M  V30 2933 C 304.087 3.5586 -0.331414 0
M  V30 2934 S 305.646 4.38773 0.0488703 0
M  V30 2935 H 302.464 0.703655 -0.101934 0
M  V30 2936 H 305.066 1.71674 -0.935325 0
M  V30 2937 H 303.77 3.87874 -1.34098 0
M  V30 2938 H 303.301 3.91695 0.365873 0
M  V30 2939 H 305.316 4.79633 1.2715 0
M  V30 2940 N 304.489 0.459591 1.5075 0
M  V30 2941 C 305.421 -0.37665 2.26084 0
M  V30 2942 C 306.434 -0.967109 1.30961 0
M  V30 2943 O 307.623 -0.857468 1.56556 0
M  V30 2944 C 304.723 -1.54112 3.01832 0
M  V30 2945 C 303.896 -1.06553 4.24223 0
M  V30 2946 C 302.955 -2.1027 4.82362 0
M  V30 2947 O 301.981 -1.68798 5.43595 0
M  V30 2948 N 303.183 -3.42974 4.68347 0
M  V30 2949 H 305.948 0.269124 2.98489 0
M  V30 2950 H 303.509 0.28972 1.59287 0
M  V30 2951 H 305.501 -2.23165 3.37608 0
M  V30 2952 H 304.071 -2.0918 2.32298 0
M  V30 2953 H 303.291 -0.201274 3.93686 0
M  V30 2954 H 304.579 -0.725516 5.03601 0
M  V30 2955 H 303.977 -3.79385 4.19623 0
M  V30 2956 H 302.534 -4.07858 5.08424 0
M  V30 2957 N 305.967 -1.56429 0.191757 0
M  V30 2958 C 306.915 -2.20273 -0.747174 0
M  V30 2959 C 307.909 -1.17288 -1.22229 0
M  V30 2960 O 309.115 -1.35441 -1.18557 0
M  V30 2961 H 305.49 -0.705885 -0.259289 0
M  V30 2962 H 307.461 -2.97826 -0.184963 0
M  V30 2963 C 306.21 -2.87356 -1.95759 0
M  V30 2964 H 305.533 -3.66341 -1.60106 0
M  V30 2965 H 306.973 -3.3547 -2.59299 0
M  V30 2966 C 305.432 -1.88213 -2.79423 0
M  V30 2967 O 305.962 -1.38033 -3.7724 0
M  V30 2968 N 304.168 -1.56516 -2.44849 0
M  V30 2969 H 303.715 -1.97516 -1.65364 0
M  V30 2970 H 303.673 -0.904369 -3.01112 0
M  V30 2971 N 307.445 0.0818655 -1.57387 0
M  V30 2972 C 308.692 0.782914 -1.86753 0
M  V30 2973 C 309.02 1.78082 -0.782118 0
M  V30 2974 O 308.275 1.94426 0.22295 0
M  V30 2975 C 308.574 1.53513 -3.22752 0
M  V30 2976 C 308.24 0.678134 -4.45771 0
M  V30 2977 C 306.902 0.441929 -4.79166 0
M  V30 2978 C 309.254 0.0832243 -5.21134 0
M  V30 2979 C 306.582 -0.398833 -5.85343 0
M  V30 2980 C 308.934 -0.744935 -6.28199 0
M  V30 2981 C 307.598 -0.991107 -6.60101 0
M  V30 2982 H 306.868 0.286489 -0.683378 0
M  V30 2983 H 309.515 0.0439808 -1.91449 0
M  V30 2984 H 307.82 2.34599 -3.138 0
M  V30 2985 H 309.517 2.08218 -3.42705 0
M  V30 2986 H 306.107 0.872357 -4.19628 0
M  V30 2987 H 310.291 0.252847 -4.95655 0
M  V30 2988 H 305.547 -0.598405 -6.08465 0
M  V30 2989 H 309.721 -1.21271 -6.8576 0
M  V30 2990 H 307.348 -1.64437 -7.42202 0
M  V30 2991 N 308.923 1.53595 0.353017 0
M  V30 2992 C 310.153 1.74058 1.11299 0
M  V30 2993 C 310.561 0.475205 1.83135 0
M  V30 2994 O 309.904 -0.562344 1.74881 0
M  V30 2995 C 309.966 2.85994 2.17825 0
M  V30 2996 C 309.63 4.25923 1.65647 0
M  V30 2997 C 310.627 5.07829 1.11383 0
M  V30 2998 C 308.312 4.72377 1.7078 0
M  V30 2999 C 310.306 6.34285 0.629439 0
M  V30 3000 C 307.993 5.98808 1.21953 0
M  V30 3001 C 308.991 6.79594 0.681265 0
M  V30 3002 O 308.679 8.03651 0.200248 0
M  V30 3003 H 308.411 0.585327 0.338183 0
M  V30 3004 H 310.965 2.01186 0.413927 0
M  V30 3005 H 309.195 2.54368 2.91262 0
M  V30 3006 H 310.884 2.94515 2.79313 0
M  V30 3007 H 311.65 4.73107 1.06746 0
M  V30 3008 H 307.529 4.0956 2.11617 0
M  V30 3009 H 311.073 6.97288 0.208636 0
M  V30 3010 H 306.97 6.33026 1.26287 0
M  V30 3011 H 307.738 8.1788 0.318416 0
M  V30 3012 N 310.401 -0.613514 1.45168 0
M  V30 3013 C 311.348 -1.72456 1.53387 0
M  V30 3014 C 312.318 -1.6169 0.380191 0
M  V30 3015 O 313.503 -1.81356 0.592836 0
M  V30 3016 C 310.643 -3.10753 1.50088 0
M  V30 3017 C 309.756 -3.32368 2.75963 0
M  V30 3018 C 308.891 -4.60737 2.64376 0
M  V30 3019 C 307.93 -4.7559 3.85332 0
M  V30 3020 N 307.067 -5.95253 3.72315 0
M  V30 3021 H 311.907 -1.64768 2.48305 0
M  V30 3022 H 309.444 -0.803503 1.23216 0
M  V30 3023 H 311.402 -3.90758 1.46164 0
M  V30 3024 H 310.032 -3.17413 0.587243 0
M  V30 3025 H 309.084 -2.4618 2.89999 0
M  V30 3026 H 310.396 -3.39218 3.65695 0
M  V30 3027 H 309.55 -5.48928 2.58385 0
M  V30 3028 H 308.289 -4.56275 1.72233 0
M  V30 3029 H 307.294 -3.85824 3.91688 0
M  V30 3030 H 308.519 -4.81854 4.78533 0
M  V30 3031 H 306.465 -5.91847 2.82937 0
M  V30 3032 H 306.382 -6.03236 4.55677 0
M  V30 3033 H 307.65 -6.85958 3.70246 0
M  V30 3034 N 311.879 -1.3236 -0.855495 0
M  V30 3035 C 313.156 -1.13491 -1.59309 0
M  V30 3036 C 313.536 0.30503 -2.08885 0
M  V30 3037 O 312.884 1.30151 -1.87811 0
M  V30 3038 C 313.094 -2.16176 -2.73987 0
M  V30 3039 C 314.442 -2.49463 -3.43589 0
M  V30 3040 O 315.466 -2.14715 -2.84211 0
M  V30 3041 O 314.325 -3.09027 -4.50738 0
M  V30 3042 H 311.419 -0.437887 -0.701559 0
M  V30 3043 H 313.965 -1.43887 -0.899696 0
M  V30 3044 H 312.737 -3.1297 -2.34873 0
M  V30 3045 H 312.36 -1.86769 -3.51003 0
M  V30 3046 N 313.357 1.07166 -1.15556 0
M  V30 3047 C 314.604 1.79798 -0.931604 0
M  V30 3048 C 314.932 1.8682 0.54115 0
M  V30 3049 O 314.187 1.34942 1.41736 0
M  V30 3050 C 314.486 3.24707 -1.49332 0
M  V30 3051 C 314.152 3.37781 -2.98688 0
M  V30 3052 C 312.814 3.41057 -3.39461 0
M  V30 3053 C 315.166 3.40424 -3.94665 0
M  V30 3054 C 312.494 3.4458 -4.74849 0
M  V30 3055 C 314.846 3.45485 -5.29927 0
M  V30 3056 C 313.51 3.47039 -5.70193 0
M  V30 3057 H 312.78 0.657928 -0.340898 0
M  V30 3058 H 315.427 1.26091 -1.44129 0
M  V30 3059 H 313.732 3.81208 -0.904859 0
M  V30 3060 H 315.429 3.79486 -1.29582 0
M  V30 3061 H 312.019 3.35932 -2.66172 0
M  V30 3062 H 316.203 3.37113 -3.64237 0
M  V30 3063 H 311.459 3.44083 -5.05388 0
M  V30 3064 H 315.633 3.46476 -6.04092 0
M  V30 3065 H 313.26 3.49522 -6.75084 0
M  V30 3066 N 314.835 0.952656 1.25548 0
M  V30 3067 C 316.063 0.623496 1.97282 0
M  V30 3068 C 316.478 -0.803987 1.70826 0
M  V30 3069 O 315.835 -1.53755 0.983147 0
M  V30 3070 C 315.886 0.870209 3.5087 0
M  V30 3071 O 315.607 2.24156 3.76412 0
M  V30 3072 C 317.108 0.553164 4.39835 0
M  V30 3073 H 314.328 0.233931 0.628902 0
M  V30 3074 H 316.872 1.27649 1.59768 0
M  V30 3075 H 315.027 0.263652 3.86502 0
M  V30 3076 H 315.441 2.31021 4.70882 0
M  V30 3077 H 316.915 0.776342 5.46513 0
M  V30 3078 H 317.392 -0.512215 4.36203 0
M  V30 3079 H 317.998 1.13896 4.09766 0
M  V30 3080 N 316.313 -1.40141 0.720998 0
M  V30 3081 C 317.243 -2.33339 0.0867621 0
M  V30 3082 C 318.224 -1.53178 -0.739622 0
M  V30 3083 O 319.409 -1.81625 -0.687449 0
M  V30 3084 C 316.539 -3.37194 -0.831728 0
M  V30 3085 C 315.493 -4.27857 -0.110558 0
M  V30 3086 C 314.819 -5.22294 -1.14513 0
M  V30 3087 C 316.119 -5.11872 1.0385 0
M  V30 3088 H 317.813 -2.86626 0.865219 0
M  V30 3089 H 315.359 -1.37814 0.417516 0
M  V30 3090 H 317.312 -4.01335 -1.28485 0
M  V30 3091 H 316.036 -2.82314 -1.64214 0
M  V30 3092 H 314.695 -3.65176 0.322797 0
M  V30 3093 H 314.343 -4.63717 -1.94874 0
M  V30 3094 H 314.043 -5.83797 -0.667446 0
M  V30 3095 H 315.567 -5.89312 -1.59824 0
M  V30 3096 H 316.981 -5.69436 0.664482 0
M  V30 3097 H 315.378 -5.82445 1.4449 0
M  V30 3098 H 316.448 -4.4753 1.86668 0
M  V30 3099 N 317.792 -0.46758 -1.50504 0
M  V30 3100 C 318.724 0.364655 -2.26281 0
M  V30 3101 C 319.737 0.960151 -1.31472 0
M  V30 3102 O 320.926 0.849153 -1.57008 0
M  V30 3103 C 318.026 1.52509 -3.02645 0
M  V30 3104 C 317.199 1.04302 -4.24782 0
M  V30 3105 C 316.258 2.07709 -4.8347 0
M  V30 3106 O 315.284 1.65913 -5.44483 0
M  V30 3107 N 316.486 3.40485 -4.70159 0
M  V30 3108 H 319.251 -0.28495 -2.98342 0
M  V30 3109 H 316.812 -0.298163 -1.59131 0
M  V30 3110 H 318.804 2.21371 -3.38787 0
M  V30 3111 H 317.374 2.07945 -2.33404 0
M  V30 3112 H 316.594 0.180393 -3.93787 0
M  V30 3113 H 317.882 0.698798 -5.03978 0
M  V30 3114 H 317.28 3.77155 -4.21629 0
M  V30 3115 H 315.837 4.05156 -5.1058 0
M  V30 3116 N 319.27 1.56325 -0.20005 0
M  V30 3117 C 320.519 1.96895 0.437652 0
M  V30 3118 C 320.832 1.08999 1.62415 0
M  V30 3119 O 322.038 1.39372 2.32997 0
M  V30 3120 C 320.494 3.50198 0.830025 0
M  V30 3121 C 320.102 4.46765 -0.332461 0
M  V30 3122 C 321.846 3.99526 1.43453 0
M  V30 3123 C 319.753 5.91344 0.0811468 0
M  V30 3124 H 318.683 0.735209 0.167282 0
M  V30 3125 H 321.334 1.81148 -0.292853 0
M  V30 3126 H 319.716 3.61467 1.61734 0
M  V30 3127 H 320.89 4.47231 -1.11 0
M  V30 3128 H 319.205 4.07657 -0.848789 0
M  V30 3129 H 321.802 5.05025 1.75652 0
M  V30 3130 H 322.145 3.44122 2.34277 0
M  V30 3131 H 322.678 3.91393 0.71109 0
M  V30 3132 H 319.417 6.50685 -0.793033 0
M  V30 3133 H 318.937 5.94121 0.823445 0
M  V30 3134 H 320.616 6.44945 0.515252 0
M  V30 3135 N 320.748 -0.0735177 1.57428 0
M  V30 3136 C 322.025 -0.805903 1.78226 0
M  V30 3137 C 322.405 -1.95874 0.787189 0
M  V30 3138 O 321.753 -2.2779 -0.180029 0
M  V30 3139 C 321.963 -1.28045 3.24662 0
M  V30 3140 C 323.311 -1.71453 3.88444 0
M  V30 3141 O 324.335 -1.37616 3.28543 0
M  V30 3142 O 323.194 -2.34093 4.93825 0
M  V30 3143 H 320.288 -0.386041 0.73137 0
M  V30 3144 H 322.834 -0.0537269 1.69615 0
M  V30 3145 H 321.606 -0.455476 3.8864 0
M  V30 3146 H 321.229 -2.094 3.37991 0
M  V30 3147 N 322.226 -1.5378 -0.344866 0
M  V30 3148 C 323.159 -1.7649 -1.4466 0
M  V30 3149 C 324.137 -0.613954 -1.50563 0
M  V30 3150 O 325.321 -0.84896 -1.683 0
M  V30 3151 C 322.448 -1.86235 -2.82903 0
M  V30 3152 C 321.494 -3.08375 -2.94631 0
M  V30 3153 S 322.327 -4.67457 -2.61236 0
M  V30 3154 C 323.483 -4.80079 -4.0159 0
M  V30 3155 H 323.716 -2.69661 -1.2518 0
M  V30 3156 H 321.249 -1.44632 -0.540455 0
M  V30 3157 H 323.207 -1.92535 -3.62547 0
M  V30 3158 H 321.868 -0.940786 -2.9968 0
M  V30 3159 H 321.061 -3.11865 -3.95925 0
M  V30 3160 H 320.663 -3.00294 -2.22934 0
M  V30 3161 H 322.955 -4.61407 -4.96094 0
M  V30 3162 H 323.898 -5.82168 -4.03095 0
M  V30 3163 H 324.306 -4.08544 -3.89554 0
M  V30 3164 N 323.704 0.605807 -1.45491 0
M  V30 3165 C 324.667 1.69836 -1.5391 0
M  V30 3166 C 325.667 1.55261 -0.418424 0
M  V30 3167 O 326.857 1.60296 -0.681965 0
M  V30 3168 C 323.989 3.09117 -1.43734 0
M  V30 3169 H 325.182 1.63738 -2.51257 0
M  V30 3170 H 322.735 0.821689 -1.32959 0
M  V30 3171 H 323.47 3.20791 -0.475788 0
M  V30 3172 H 323.255 3.21104 -2.25021 0
M  V30 3173 H 324.745 3.88696 -1.52661 0
M  V30 3174 N 325.182 1.32811 0.848464 0
M  V30 3175 C 326.429 1.23724 1.60308 0
M  V30 3176 C 326.757 -0.1994 1.93475 0
M  V30 3177 O 326.012 -1.15406 1.5805 0
M  V30 3178 C 326.311 2.04831 2.92881 0
M  V30 3179 C 325.977 3.54125 2.79117 0
M  V30 3180 C 324.639 3.94829 2.7507 0
M  V30 3181 C 326.991 4.49036 2.64606 0
M  V30 3182 C 324.319 5.28675 2.544 0
M  V30 3183 C 326.671 5.83033 2.4547 0
M  V30 3184 C 325.335 6.22931 2.39819 0
M  V30 3185 H 324.605 0.452737 0.586609 0
M  V30 3186 H 327.252 1.64301 0.983743 0
M  V30 3187 H 325.557 1.57001 3.58968 0
M  V30 3188 H 327.254 1.95164 3.50303 0
M  V30 3189 H 323.844 3.21801 2.83094 0
M  V30 3190 H 328.028 4.18505 2.66772 0
M  V30 3191 H 323.284 5.58637 2.48465 0
M  V30 3192 H 327.458 6.56186 2.33222 0
M  V30 3193 H 325.085 7.26584 2.23562 0
M  V30 3194 N 326.66 -1.06551 1.16123 0
M  V30 3195 C 327.608 -2.16063 0.861371 0
M  V30 3196 C 328.602 -1.6856 -0.168517 0
M  V30 3197 O 329.808 -1.79986 -0.0227579 0
M  V30 3198 H 326.183 -0.705278 0.260934 0
M  V30 3199 H 328.154 -2.38567 1.79244 0
M  V30 3200 C 326.903 -3.45661 0.376018 0
M  V30 3201 H 326.226 -3.82604 1.15992 0
M  V30 3202 H 327.666 -4.23504 0.204951 0
M  V30 3203 C 326.125 -3.24546 -0.903954 0
M  V30 3204 O 326.655 -3.49865 -1.97377 0
M  V30 3205 N 324.861 -2.77992 -0.846679 0
M  V30 3206 H 324.408 -2.57589 0.0241017 0
M  V30 3207 H 324.366 -2.64244 -1.70359 0
M  V30 3208 N 328.138 -0.959301 -1.25041 0
M  V30 3209 C 329.384 -0.617525 -1.9317 0
M  V30 3210 C 329.717 0.843981 -1.74902 0
M  V30 3211 O 328.992 1.60615 -1.09696 0
M  V30 3212 C 329.275 -0.982736 -3.46431 0
M  V30 3213 C 329.128 -2.50032 -3.73904 0
M  V30 3214 C 330.447 -0.511176 -4.37121 0
M  V30 3215 H 327.566 -0.22582 -0.701552 0
M  V30 3216 H 330.208 -1.19679 -1.4757 0
M  V30 3217 H 328.358 -0.489806 -3.854 0
M  V30 3218 H 330.03 -3.06737 -3.44544 0
M  V30 3219 H 328.273 -2.93598 -3.19348 0
M  V30 3220 H 328.944 -2.70635 -4.81103 0
M  V30 3221 H 331.42 -0.934075 -4.0548 0
M  V30 3222 H 330.296 -0.795361 -5.43107 0
M  V30 3223 H 330.557 0.588834 -4.38161 0
M  V30 3224 N 329.616 1.39756 -0.72842 0
M  V30 3225 C 330.863 2.00645 -0.273487 0
M  V30 3226 C 331.191 1.57786 1.13727 0
M  V30 3227 O 330.446 0.794886 1.7883 0
M  V30 3228 C 330.745 3.56002 -0.315776 0
M  V30 3229 C 330.411 4.18489 -1.67863 0
M  V30 3230 C 329.073 4.3527 -2.05166 0
M  V30 3231 C 331.425 4.53219 -2.57375 0
M  V30 3232 C 328.753 4.84069 -3.31503 0
M  V30 3233 C 331.105 5.03423 -3.83077 0
M  V30 3234 C 329.769 5.18413 -4.20481 0
M  V30 3235 H 329.039 0.734211 -0.100076 0
M  V30 3236 H 331.686 1.6718 -0.933972 0
M  V30 3237 H 329.991 3.89452 0.428285 0
M  V30 3238 H 331.688 4.00963 0.0542575 0
M  V30 3239 H 328.278 4.05824 -1.37858 0
M  V30 3240 H 332.462 4.39878 -2.29827 0
M  V30 3241 H 327.718 4.93859 -3.60435 0
M  V30 3242 H 331.892 5.2927 -4.52599 0
M  V30 3243 H 329.519 5.55987 -5.18443 0
M  V30 3244 N 331.094 0.475555 1.50254 0
M  V30 3245 C 332.341 -0.0778919 2.0235 0
M  V30 3246 C 332.669 -1.39319 1.35722 0
M  V30 3247 O 331.924 -1.89888 0.473395 0
M  V30 3248 C 332.223 -0.305114 3.56095 0
M  V30 3249 C 331.889 0.92903 4.41225 0
M  V30 3250 C 330.551 1.26739 4.6421 0
M  V30 3251 C 332.903 1.75054 4.90923 0
M  V30 3252 C 330.231 2.42724 5.34137 0
M  V30 3253 C 332.583 2.9017 5.62125 0
M  V30 3254 C 331.247 3.24416 5.83362 0
M  V30 3255 H 330.517 -0.0285027 0.740452 0
M  V30 3256 H 333.164 0.630543 1.80821 0
M  V30 3257 H 331.469 -1.09584 3.76163 0
M  V30 3258 H 333.166 -0.747377 3.93974 0
M  V30 3259 H 329.756 0.655428 4.23559 0
M  V30 3260 H 333.94 1.50231 4.73016 0
M  V30 3261 H 329.196 2.69525 5.48786 0
M  V30 3262 H 333.37 3.54169 5.99614 0
M  V30 3263 H 330.997 4.14396 6.37323 0
M  V30 3264 N 332.573 -1.56217 0.208337 0
M  V30 3265 C 333.503 -2.22694 -0.702116 0
M  V30 3266 C 334.484 -1.19432 -1.2112 0
M  V30 3267 O 335.669 -1.47978 -1.25762 0
M  V30 3268 C 332.799 -2.8966 -1.9161 0
M  V30 3269 C 331.753 -3.9928 -1.5414 0
M  V30 3270 C 331.079 -4.53476 -2.83308 0
M  V30 3271 C 332.379 -5.17012 -0.741339 0
M  V30 3272 H 334.073 -2.99034 -0.147898 0
M  V30 3273 H 331.619 -1.43831 -0.0696951 0
M  V30 3274 H 333.572 -3.34852 -2.55836 0
M  V30 3275 H 332.296 -2.10746 -2.49507 0
M  V30 3276 H 330.955 -3.54799 -0.922668 0
M  V30 3277 H 330.603 -3.71308 -3.39322 0
M  V30 3278 H 330.303 -5.27451 -2.58976 0
M  V30 3279 H 331.827 -5.01378 -3.485 0
M  V30 3280 H 333.241 -5.58667 -1.28699 0
M  V30 3281 H 331.638 -5.97137 -0.595627 0
M  V30 3282 H 332.708 -4.8423 0.254851 0
M  V30 3283 N 334.051 0.0651679 -1.57465 0
M  V30 3284 C 334.981 1.07693 -2.07182 0
M  V30 3285 C 335.962 1.39962 -0.966673 0
M  V30 3286 O 337.147 1.49475 -1.2398 0
M  V30 3287 C 334.277 2.3885 -2.52127 0
M  V30 3288 C 333.231 2.20917 -3.66579 0
M  V30 3289 C 332.557 3.57515 -3.97601 0
M  V30 3290 C 333.857 1.62493 -4.9638 0
M  V30 3291 H 335.551 0.663199 -2.91962 0
M  V30 3292 H 333.097 0.317569 -1.40455 0
M  V30 3293 H 335.05 3.09928 -2.85522 0
M  V30 3294 H 333.774 2.82215 -1.64384 0
M  V30 3295 H 332.433 1.52279 -3.33477 0
M  V30 3296 H 332.081 3.98463 -3.06979 0
M  V30 3297 H 331.781 3.46353 -4.74672 0
M  V30 3298 H 333.305 4.30013 -4.33499 0
M  V30 3299 H 334.719 2.23445 -5.27963 0
M  V30 3300 H 333.116 1.62009 -5.77818 0
M  V30 3301 H 334.186 0.587041 -4.81333 0
M  V30 3302 N 335.529 1.53961 0.336706 0
M  V30 3303 C 336.759 1.75229 1.09446 0
M  V30 3304 C 337.167 0.494602 1.82621 0
M  V30 3305 O 336.51 -0.543764 1.75468 0
M  V30 3306 C 336.572 2.88288 2.1478 0
M  V30 3307 C 336.236 4.27656 1.6112 0
M  V30 3308 C 337.233 5.08981 1.0599 0
M  V30 3309 C 334.918 4.74161 1.6576 0
M  V30 3310 C 336.912 6.34916 0.562129 0
M  V30 3311 C 334.599 6.00067 1.15595 0
M  V30 3312 C 335.597 6.80278 0.609147 0
M  V30 3313 O 335.285 8.03818 0.114999 0
M  V30 3314 H 335.017 0.588881 0.331956 0
M  V30 3315 H 337.571 2.01614 0.392566 0
M  V30 3316 H 335.801 2.57443 2.88548 0
M  V30 3317 H 337.49 2.97461 2.76174 0
M  V30 3318 H 338.256 4.74213 1.01722 0
M  V30 3319 H 334.135 4.11781 2.07261 0
M  V30 3320 H 337.679 6.9747 0.134668 0
M  V30 3321 H 333.576 6.3433 1.19566 0
M  V30 3322 H 334.344 8.18172 0.231651 0
M  V30 3323 N 337.007 -0.598083 1.45811 0
M  V30 3324 C 338.254 -1.35681 1.50323 0
M  V30 3325 C 338.582 -1.9393 0.148739 0
M  V30 3326 O 337.837 -1.76094 -0.853787 0
M  V30 3327 C 338.136 -2.51669 2.53766 0
M  V30 3328 C 337.802 -2.11508 3.98215 0
M  V30 3329 C 336.464 -2.0027 4.37545 0
M  V30 3330 C 338.816 -1.80308 4.89018 0
M  V30 3331 C 336.144 -1.56067 5.65562 0
M  V30 3332 C 338.496 -1.37589 6.17456 0
M  V30 3333 C 337.16 -1.24916 6.55708 0
M  V30 3334 H 336.43 -0.496492 0.550069 0
M  V30 3335 H 339.077 -0.675052 1.79207 0
M  V30 3336 H 337.382 -3.25225 2.18486 0
M  V30 3337 H 339.079 -3.09895 2.54492 0
M  V30 3338 H 335.669 -2.21185 3.67117 0
M  V30 3339 H 339.853 -1.87884 4.59362 0
M  V30 3340 H 335.109 -1.44886 5.93985 0
M  V30 3341 H 339.283 -1.12495 6.87254 0
M  V30 3342 H 336.91 -0.904386 7.54801 0
M  V30 3343 N 338.485 -1.33259 -0.841409 0
M  V30 3344 C 339.733 -1.24326 -1.59334 0
M  V30 3345 C 340.054 0.191564 -1.94057 0
M  V30 3346 O 339.324 1.11967 -1.60749 0
M  V30 3347 H 337.904 -0.457174 -0.590763 0
M  V30 3348 H 340.566 -1.66947 -1.00571 0
M  V30 3349 H 339.662 -1.8352 -2.52442 0
M  V30 3350 N 339.963 1.05934 -1.16686 0
M  V30 3351 C 340.893 2.1546 -0.899949 0
M  V30 3352 C 341.874 1.69391 0.155154 0
M  V30 3353 O 343.059 1.94199 0.00648693 0
M  V30 3354 C 340.189 3.44939 -0.404241 0
M  V30 3355 C 339.143 4.04536 -1.39767 0
M  V30 3356 C 338.469 5.29268 -0.760216 0
M  V30 3357 C 339.769 4.42893 -2.76845 0
M  V30 3358 H 341.463 2.38046 -1.81588 0
M  V30 3359 H 339.009 1.14404 -0.874514 0
M  V30 3360 H 340.962 4.20901 -0.204971 0
M  V30 3361 H 339.686 3.21983 0.547206 0
M  V30 3362 H 338.345 3.30635 -1.58355 0
M  V30 3363 H 337.993 5.02611 0.197831 0
M  V30 3364 H 337.693 5.70101 -1.42332 0
M  V30 3365 H 339.217 6.07924 -0.57105 0
M  V30 3366 H 340.631 5.09921 -2.62019 0
M  V30 3367 H 339.028 4.94721 -3.39663 0
M  V30 3368 H 340.098 3.53584 -3.31823 0
M  V30 3369 N 341.441 0.965919 1.2453 0
M  V30 3370 C 342.857 0.67216 1.44756 0
M  V30 3371 C 343.057 -0.766609 1.86347 0
M  V30 3372 O 342.113 -1.5407 2.00047 0
M  V30 3373 C 343.426 1.65473 2.51076 0
M  V30 3374 C 344.974 1.66716 2.64905 0
M  V30 3375 C 345.449 2.63766 3.74421 0
M  V30 3376 N 346.94 2.62198 3.81846 0
M  V30 3377 C 347.675 3.33966 4.66106 0
M  V30 3378 N 347.171 4.15245 5.54566 0
M  V30 3379 N 348.964 3.22799 4.60171 0
M  V30 3380 H 341.115 1.89553 0.958293 0
M  V30 3381 H 343.378 0.815979 0.482579 0
M  V30 3382 H 343.084 2.68296 2.27399 0
M  V30 3383 H 342.958 1.4261 3.49202 0
M  V30 3384 H 345.345 0.646057 2.87941 0
M  V30 3385 H 345.426 1.93642 1.67142 0
M  V30 3386 H 345.07 3.6601 3.52135 0
M  V30 3387 H 345 2.34121 4.71694 0
M  V30 3388 H 347.491 2.032 3.18619 0
M  V30 3389 H 347.804 4.66898 6.15814 0
M  V30 3390 H 346.149 4.1934 5.54237 0
M  V30 3391 H 349.34 2.58764 3.90075 0
M  V30 3392 H 349.513 3.78994 5.25612 0
M  V30 3393 N 342.919 -1.39368 0.735821 0
M  V30 3394 C 344.166 -2.00497 0.284123 0
M  V30 3395 C 344.494 -1.58387 -1.12889 0
M  V30 3396 O 343.749 -0.804359 -1.78406 0
M  V30 3397 C 344.048 -3.5583 0.334651 0
M  V30 3398 C 343.714 -4.17593 1.7008 0
M  V30 3399 C 342.376 -4.34176 2.07472 0
M  V30 3400 C 344.728 -4.51848 2.59775 0
M  V30 3401 C 342.056 -4.82304 3.34065 0
M  V30 3402 C 344.408 -5.01384 3.85741 0
M  V30 3403 C 343.072 -5.16175 4.23225 0
M  V30 3404 H 342.342 -0.73367 0.103968 0
M  V30 3405 H 344.989 -1.66683 0.942825 0
M  V30 3406 H 343.294 -3.89674 -0.407625 0
M  V30 3407 H 344.991 -4.00986 -0.0329927 0
M  V30 3408 H 341.581 -4.05087 1.40008 0
M  V30 3409 H 345.765 -4.38653 2.32157 0
M  V30 3410 H 341.021 -4.91941 3.63049 0
M  V30 3411 H 345.195 -5.26863 4.55399 0
M  V30 3412 H 342.822 -5.5323 5.21384 0
M  V30 3413 N 344.397 -0.483516 -1.5 0
M  V30 3414 C 345.646 0.0689102 -2.01582 0
M  V30 3415 C 345.959 1.39655 -1.36952 0
M  V30 3416 O 347.165 2.03465 -1.79762 0
M  V30 3417 C 345.621 0.173302 -3.59483 0
M  V30 3418 C 345.229 -1.14665 -4.33077 0
M  V30 3419 C 346.973 0.677024 -4.19066 0
M  V30 3420 C 344.88 -1.00537 -5.82792 0
M  V30 3421 H 343.81 0.0295277 -0.753422 0
M  V30 3422 H 346.461 -0.620295 -1.72698 0
M  V30 3423 H 344.843 0.926569 -3.85007 0
M  V30 3424 H 346.017 -1.91184 -4.19268 0
M  V30 3425 H 344.332 -1.58244 -3.85159 0
M  V30 3426 H 346.929 0.799952 -5.28682 0
M  V30 3427 H 347.272 1.67151 -3.81269 0
M  V30 3428 H 347.805 -0.0192083 -3.97795 0
M  V30 3429 H 344.544 -1.9736 -6.25083 0
M  V30 3430 H 344.064 -0.280776 -5.99142 0
M  V30 3431 H 345.743 -0.677 -6.43448 0
M  V30 3432 N 345.875 1.56104 -0.216619 0
M  V30 3433 C 346.838 2.18819 0.681962 0
M  V30 3434 C 347.838 1.14866 1.12528 0
M  V30 3435 O 349.028 1.40128 1.03488 0
M  V30 3436 C 346.16 2.80756 1.93362 0
M  V30 3437 H 347.353 2.99595 0.135254 0
M  V30 3438 H 344.906 1.56265 0.0330003 0
M  V30 3439 H 345.641 2.03837 2.52232 0
M  V30 3440 H 345.426 3.56876 1.62426 0
M  V30 3441 H 346.916 3.28844 2.57393 0
M  V30 3442 N 347.353 -0.0568162 1.57498 0
M  V30 3443 C 348.316 -1.05038 2.03715 0
M  V30 3444 C 349.316 -1.30709 0.936577 0
M  V30 3445 O 350.506 -1.26178 1.20103 0
M  V30 3446 C 347.638 -2.39034 2.43055 0
M  V30 3447 H 348.831 -0.651715 2.92733 0
M  V30 3448 H 346.384 -0.302947 1.53336 0
M  V30 3449 H 347.119 -2.83703 1.57108 0
M  V30 3450 H 346.904 -2.21739 3.2338 0
M  V30 3451 H 348.394 -3.10421 2.79336 0
M  V30 3452 N 348.832 -1.54138 -0.328536 0
M  V30 3453 C 349.78 -1.83894 -1.42428 0
M  V30 3454 C 350.774 -0.710478 -1.53781 0
M  V30 3455 O 351.98 -0.894062 -1.56226 0
M  V30 3456 H 348.355 -0.582837 -0.475189 0
M  V30 3457 H 350.326 -2.75537 -1.14552 0
M  V30 3458 C 349.075 -2.07866 -2.78724 0
M  V30 3459 H 348.398 -2.94158 -2.7076 0
M  V30 3460 H 349.838 -2.32644 -3.54476 0
M  V30 3461 C 348.297 -0.868689 -3.25508 0
M  V30 3462 O 348.827 -0.0754908 -4.01629 0
M  V30 3463 N 347.033 -0.681711 -2.82491 0
M  V30 3464 H 346.58 -1.32838 -2.20708 0
M  V30 3465 H 346.538 0.126374 -3.14146 0
M  V30 3466 N 350.31 0.590341 -1.46126 0
M  V30 3467 C 351.587 1.35029 -1.41515 0
M  V30 3468 C 351.967 2.10888 -0.0946472 0
M  V30 3469 O 351.315 2.08998 0.923693 0
M  V30 3470 C 351.525 2.28269 -2.63997 0
M  V30 3471 C 352.873 2.90338 -3.09821 0
M  V30 3472 O 353.897 2.38585 -2.64492 0
M  V30 3473 O 352.756 3.84321 -3.88535 0
M  V30 3474 H 349.85 0.606317 -0.562413 0
M  V30 3475 H 352.396 0.611994 -1.58281 0
M  V30 3476 H 351.168 1.71591 -3.51671 0
M  V30 3477 H 350.791 3.0945 -2.49652 0
M  V30 3478 N 351.788 1.33704 0.83433 0
M  V30 3479 C 352.735 1.24335 1.94447 0
M  V30 3480 C 353.705 0.120991 1.65659 0
M  V30 3481 O 354.89 0.300035 1.88426 0
M  V30 3482 C 352.03 0.993124 3.30501 0
M  V30 3483 C 351.143 2.20217 3.71657 0
M  V30 3484 C 350.278 1.88572 4.96602 0
M  V30 3485 C 349.317 3.05683 5.30306 0
M  V30 3486 N 348.454 2.73997 6.46429 0
M  V30 3487 H 353.294 2.1928 2.01792 0
M  V30 3488 H 350.831 1.09035 0.987404 0
M  V30 3489 H 352.789 0.828467 4.08892 0
M  V30 3490 H 351.419 0.0803902 3.227 0
M  V30 3491 H 350.471 2.47642 2.88752 0
M  V30 3492 H 351.783 3.07752 3.92543 0
M  V30 3493 H 350.937 1.68776 5.82752 0
M  V30 3494 H 349.676 0.982799 4.77695 0
M  V30 3495 H 348.681 3.26088 4.42659 0
M  V30 3496 H 349.906 3.96737 5.51159 0
M  V30 3497 H 347.852 1.86268 6.28999 0
M  V30 3498 H 347.769 3.55064 6.67432 0
M  V30 3499 H 349.037 2.57679 7.35678 0
M  V30 3500 N 353.266 -1.05314 1.17247 0
M  V30 3501 C 354.196 -2.1498 0.911362 0
M  V30 3502 C 355.177 -1.69471 -0.146169 0
M  V30 3503 O 356.362 -1.942 0.003812 0
M  V30 3504 C 353.492 -3.4472 0.422528 0
M  V30 3505 C 352.446 -4.03789 1.4191 0
M  V30 3506 C 351.772 -5.28858 0.788274 0
M  V30 3507 C 353.072 -4.41418 2.7919 0
M  V30 3508 H 354.766 -2.3708 1.82848 0
M  V30 3509 H 352.312 -1.13938 0.880569 0
M  V30 3510 H 354.265 -4.20787 0.227289 0
M  V30 3511 H 352.989 -3.22269 -0.530123 0
M  V30 3512 H 351.648 -3.2979 1.60106 0
M  V30 3513 H 351.296 -5.02709 -0.171173 0
M  V30 3514 H 350.996 -5.69338 1.45353 0
M  V30 3515 H 352.52 -6.07612 0.603282 0
M  V30 3516 H 353.934 -5.08524 2.64719 0
M  V30 3517 H 352.331 -4.92913 3.42282 0
M  V30 3518 H 353.401 -3.51819 3.33693 0
M  V30 3519 N 354.744 -0.972509 -1.24016 0
M  V30 3520 C 355.99 -0.647583 -1.92816 0
M  V30 3521 C 356.345 0.809015 -1.74564 0
M  V30 3522 O 355.638 1.57502 -1.09103 0
M  V30 3523 C 355.832 -0.963694 -3.44162 0
M  V30 3524 C 355.661 -2.44947 -3.77135 0
M  V30 3525 C 354.431 -3.11012 -3.98246 0
M  V30 3526 C 356.629 -3.42978 -3.83237 0
M  V30 3527 N 354.611 -4.49277 -4.18358 0
M  V30 3528 C 355.982 -4.66619 -4.08248 0
M  V30 3529 C 358.037 -3.37569 -3.65994 0
M  V30 3530 C 356.74 -5.85516 -4.17808 0
M  V30 3531 C 358.766 -4.55822 -3.76802 0
M  V30 3532 C 358.128 -5.78256 -4.02243 0
M  V30 3533 H 354.227 -0.287894 -0.727077 0
M  V30 3534 H 356.811 -1.24835 -1.49413 0
M  V30 3535 H 354.982 -0.391692 -3.8642 0
M  V30 3536 H 356.714 -0.596849 -4.00275 0
M  V30 3537 H 353.469 -2.61529 -3.94841 0
M  V30 3538 H 353.893 -5.20935 -4.32384 0
M  V30 3539 H 358.535 -2.43945 -3.45327 0
M  V30 3540 H 356.253 -6.79564 -4.37285 0
M  V30 3541 H 359.839 -4.53204 -3.64825 0
M  V30 3542 H 358.719 -6.68231 -4.10411 0
M  V30 3543 N 356.222 1.38976 -0.743202 0
M  V30 3544 C 357.469 2.00343 -0.294752 0
M  V30 3545 C 357.797 1.58983 1.12047 0
M  V30 3546 O 357.052 0.813809 1.77977 0
M  V30 3547 C 357.351 3.55647 -0.353517 0
M  V30 3548 C 357.017 4.16685 -1.72292 0
M  V30 3549 C 355.679 4.3307 -2.09771 0
M  V30 3550 C 358.031 4.50464 -2.62168 0
M  V30 3551 C 355.359 4.80526 -3.36618 0
M  V30 3552 C 357.711 4.99332 -3.88395 0
M  V30 3553 C 356.375 5.13924 -4.25956 0
M  V30 3554 H 355.645 0.733108 -0.107857 0
M  V30 3555 H 358.292 1.6618 -0.951651 0
M  V30 3556 H 356.597 3.89884 0.386954 0
M  V30 3557 H 358.294 4.00998 0.0117269 0
M  V30 3558 H 354.884 4.04339 -1.42155 0
M  V30 3559 H 359.068 4.37416 -2.3448 0
M  V30 3560 H 354.324 4.90008 -3.65653 0
M  V30 3561 H 358.498 5.2444 -4.58187 0
M  V30 3562 H 356.125 5.50457 -5.2431 0
M  V30 3563 N 357.7 0.491464 1.49741 0
M  V30 3564 C 358.946 -0.0485431 2.03342 0
M  V30 3565 C 359.301 -1.35566 1.36527 0
M  V30 3566 O 358.594 -1.85262 0.488729 0
M  V30 3567 C 358.788 -0.267329 3.56399 0
M  V30 3568 C 358.617 1.01703 4.38049 0
M  V30 3569 C 357.387 1.56614 4.80417 0
M  V30 3570 C 359.585 1.91782 4.77204 0
M  V30 3571 N 357.567 2.7974 5.4646 0
M  V30 3572 C 358.938 2.99489 5.42868 0
M  V30 3573 C 360.993 1.92575 4.5915 0
M  V30 3574 C 359.696 4.08005 5.92389 0
M  V30 3575 C 361.722 3.0006 5.09626 0
M  V30 3576 C 361.084 4.06485 5.75282 0
M  V30 3577 H 357.183 0.0227779 0.781668 0
M  V30 3578 H 359.767 0.664204 1.8302 0
M  V30 3579 H 357.938 -0.949126 3.76625 0
M  V30 3580 H 359.67 -0.803492 3.96644 0
M  V30 3581 H 356.425 1.11256 4.60347 0
M  V30 3582 H 356.849 3.42323 5.84075 0
M  V30 3583 H 361.491 1.11605 4.07804 0
M  V30 3584 H 359.209 4.89779 6.42761 0
M  V30 3585 H 362.795 3.01681 4.97473 0
M  V30 3586 H 361.675 4.88287 6.13633 0
M  V30 3587 N 359.178 -1.55987 0.224894 0
M  V30 3588 C 360.108 -2.23426 -0.678457 0
M  V30 3589 C 361.089 -1.20709 -1.19847 0
M  V30 3590 O 362.274 -1.49304 -1.24186 0
M  V30 3591 C 359.404 -2.91676 -1.88527 0
M  V30 3592 C 358.358 -4.00893 -1.49896 0
M  V30 3593 C 357.684 -4.56455 -2.78483 0
M  V30 3594 C 358.984 -5.17769 -0.686461 0
M  V30 3595 H 360.678 -2.99175 -0.116173 0
M  V30 3596 H 358.224 -1.43897 -0.054436 0
M  V30 3597 H 360.177 -3.37547 -2.5227 0
M  V30 3598 H 358.901 -2.1338 -2.47258 0
M  V30 3599 H 357.56 -3.55758 -0.884985 0
M  V30 3600 H 357.208 -3.74886 -3.35365 0
M  V30 3601 H 356.908 -5.30169 -2.53368 0
M  V30 3602 H 358.432 -5.05047 -3.43162 0
M  V30 3603 H 359.846 -5.60001 -1.22767 0
M  V30 3604 H 358.243 -5.97735 -0.532259 0
M  V30 3605 H 359.313 -4.83932 0.306196 0
M  V30 3606 N 360.656 0.0484629 -1.57525 0
M  V30 3607 C 361.566 1.07241 -2.08654 0
M  V30 3608 C 362.582 1.409 -1.02095 0
M  V30 3609 O 363.758 1.50609 -1.33712 0
M  V30 3610 C 360.823 2.36008 -2.5397 0
M  V30 3611 C 359.884 2.09108 -3.7493 0
M  V30 3612 C 359.117 3.31736 -4.18075 0
M  V30 3613 O 359.34 4.41714 -3.60895 0
M  V30 3614 O 358.274 3.18576 -5.10679 0
M  V30 3615 H 362.1 0.667965 -2.96263 0
M  V30 3616 H 359.685 0.26417 -1.47046 0
M  V30 3617 H 361.567 3.11747 -2.83535 0
M  V30 3618 H 360.242 2.75786 -1.69481 0
M  V30 3619 H 359.149 1.31 -3.50414 0
M  V30 3620 H 360.482 1.74198 -4.60343 0
M  V30 3621 N 362.134 1.5431 0.320358 0
M  V30 3622 C 363.38 1.72924 1.05949 0
M  V30 3623 C 363.713 0.503185 1.87568 0
M  V30 3624 O 362.988 -0.499839 1.87968 0
M  V30 3625 C 363.271 3.00676 1.98156 0
M  V30 3626 C 363.124 4.3354 1.19845 0
M  V30 3627 C 364.443 3.24198 2.9763 0
M  V30 3628 H 361.562 0.629195 0.383774 0
M  V30 3629 H 364.204 1.87008 0.335854 0
M  V30 3630 H 362.354 2.888 2.59859 0
M  V30 3631 H 364.026 4.57305 0.605773 0
M  V30 3632 H 362.269 4.309 0.500784 0
M  V30 3633 H 362.94 5.19156 1.87567 0
M  V30 3634 H 365.416 3.35557 2.4605 0
M  V30 3635 H 364.292 4.14938 3.59329 0
M  V30 3636 H 364.553 2.41577 3.7026 0
M  V30 3637 N 363.613 -0.582584 1.46437 0
M  V30 3638 C 364.561 -1.71272 1.5738 0
M  V30 3639 C 365.555 -1.63524 0.44229 0
M  V30 3640 O 366.761 -1.69016 0.619166 0
M  V30 3641 H 363.136 -0.566273 0.494813 0
M  V30 3642 H 365.107 -1.59174 2.52401 0
M  V30 3643 C 363.856 -3.09658 1.58136 0
M  V30 3644 H 363.179 -3.16291 2.44541 0
M  V30 3645 H 364.619 -3.88494 1.69847 0
M  V30 3646 C 363.078 -3.3547 0.310026 0
M  V30 3647 O 363.608 -3.97199 -0.599683 0
M  V30 3648 N 361.814 -2.89925 0.197901 0
M  V30 3649 H 361.361 -2.39873 0.93909 0
M  V30 3650 H 361.319 -3.07568 -0.65185 0
M  V30 3651 N 365.091 -1.34144 -0.827227 0
M  V30 3652 C 366.316 -1.29476 -1.62021 0
M  V30 3653 C 366.741 0.129292 -1.87655 0
M  V30 3654 O 366.099 1.08967 -1.449 0
M  V30 3655 C 366.147 -2.08702 -2.94068 0
M  V30 3656 O 365.251 -1.45359 -3.85933 0
M  V30 3657 H 364.592 -0.444881 -0.492927 0
M  V30 3658 H 367.122 -1.76882 -1.02829 0
M  V30 3659 H 367.132 -2.19898 -3.43669 0
M  V30 3660 H 365.807 -3.12241 -2.74734 0
M  V30 3661 H 364.384 -1.42879 -3.44442 0
M  V30 3662 N 366.569 1.04691 -1.17803 0
M  V30 3663 C 367.815 1.78045 -0.970969 0
M  V30 3664 C 368.148 1.87686 0.498751 0
M  V30 3665 O 367.423 1.38035 1.37027 0
M  V30 3666 C 367.706 3.2166 -1.61884 0
M  V30 3667 C 367.559 3.20001 -3.161 0
M  V30 3668 C 368.878 4.1962 -1.3269 0
M  V30 3669 H 365.997 0.64633 -0.354155 0
M  V30 3670 H 368.639 1.22333 -1.45378 0
M  V30 3671 H 366.789 3.69232 -1.20831 0
M  V30 3672 H 368.461 2.80467 -3.66246 0
M  V30 3673 H 366.704 2.58203 -3.48588 0
M  V30 3674 H 367.375 4.21386 -3.56564 0
M  V30 3675 H 369.851 3.80567 -1.68249 0
M  V30 3676 H 368.727 5.18339 -1.80599 0
M  V30 3677 H 368.988 4.414 -0.248622 0
M  V30 3678 N 368.047 0.979072 1.23499 0
M  V30 3679 C 369.293 0.648178 1.92163 0
M  V30 3680 C 369.626 -0.816049 1.76222 0
M  V30 3681 O 368.901 -1.58849 1.12237 0
M  V30 3682 C 369.184 1.03773 3.44824 0
M  V30 3683 C 369.037 2.55948 3.69879 0
M  V30 3684 C 370.356 0.580653 4.36253 0
M  V30 3685 H 367.475 0.236952 0.69787 0
M  V30 3686 H 370.117 1.22012 1.45647 0
M  V30 3687 H 368.267 0.551058 3.84572 0
M  V30 3688 H 369.939 3.12179 3.3962 0
M  V30 3689 H 368.182 2.98641 3.14636 0
M  V30 3690 H 368.853 2.78255 4.76737 0
M  V30 3691 H 371.329 0.998465 4.03943 0
M  V30 3692 H 370.205 0.881663 5.41773 0
M  V30 3693 H 370.466 -0.519052 4.39042 0
M  V30 3694 N 369.525 -1.3858 0.750561 0
M  V30 3695 C 370.802 -1.94231 0.231009 0
M  V30 3696 C 371.182 -1.68611 -1.27018 0
M  V30 3697 O 370.53 -1.02296 -2.04323 0
M  V30 3698 C 370.74 -3.44123 0.581428 0
M  V30 3699 C 372.088 -4.2116 0.539389 0
M  V30 3700 O 373.112 -3.52391 0.519541 0
M  V30 3701 O 371.971 -5.43749 0.54765 0
M  V30 3702 H 369.065 -0.825639 0.0474263 0
M  V30 3703 H 371.611 -1.4799 0.830478 0
M  V30 3704 H 370.383 -3.56267 1.61833 0
M  V30 3705 H 370.006 -3.97573 -0.0462047 0
M  V30 3706 N 371.003 -0.499398 -1.49478 0
M  V30 3707 C 372.25 0.0456899 -2.02448 0
M  V30 3708 C 372.578 1.37142 -1.37921 0
M  V30 3709 O 371.833 1.89111 -0.503544 0
M  V30 3710 C 372.132 0.248424 -3.56536 0
M  V30 3711 C 371.798 -0.999107 -4.39692 0
M  V30 3712 C 370.46 -1.34108 -4.62135 0
M  V30 3713 C 372.812 -1.82842 -4.88076 0
M  V30 3714 C 370.14 -2.51191 -5.30208 0
M  V30 3715 C 372.492 -2.99076 -5.57437 0
M  V30 3716 C 371.156 -3.33655 -5.78127 0
M  V30 3717 H 370.426 0.0167191 -0.740811 0
M  V30 3718 H 373.073 -0.65923 -1.79795 0
M  V30 3719 H 371.378 1.03586 -3.77859 0
M  V30 3720 H 373.075 0.684605 -3.95113 0
M  V30 3721 H 369.665 -0.722729 -4.22463 0
M  V30 3722 H 373.849 -1.57737 -4.70566 0
M  V30 3723 H 369.105 -2.78221 -5.44429 0
M  V30 3724 H 373.279 -3.63664 -5.93904 0
M  V30 3725 H 370.906 -4.24483 -6.30649 0
M  V30 3726 N 372.481 1.55866 -0.233164 0
M  V30 3727 C 373.728 1.98603 0.395374 0
M  V30 3728 C 374.056 1.12105 1.58942 0
M  V30 3729 O 373.311 0.168656 1.94972 0
M  V30 3730 C 373.61 3.46856 0.861724 0
M  V30 3731 C 373.276 4.50348 -0.223066 0
M  V30 3732 C 371.938 4.78371 -0.521038 0
M  V30 3733 C 374.29 5.12355 -0.956124 0
M  V30 3734 C 371.618 5.6568 -1.55638 0
M  V30 3735 C 373.97 6.00786 -1.98089 0
M  V30 3736 C 372.634 6.27148 -2.28565 0
M  V30 3737 H 371.904 0.726739 0.144677 0
M  V30 3738 H 374.551 1.88491 -0.338114 0
M  V30 3739 H 372.856 3.5423 1.67418 0
M  V30 3740 H 374.553 3.77302 1.35809 0
M  V30 3741 H 371.143 4.28596 0.0193234 0
M  V30 3742 H 375.327 4.90765 -0.739166 0
M  V30 3743 H 370.583 5.84365 -1.798 0
M  V30 3744 H 374.757 6.4788 -2.55391 0
M  V30 3745 H 372.384 6.94597 -3.08932 0
M  V30 3746 N 373.959 -0.0401083 1.57549 0
M  V30 3747 C 375.187 -0.745196 1.93014 0
M  V30 3748 C 375.602 -1.6948 0.831984 0
M  V30 3749 O 374.959 -1.81482 -0.192463 0
M  V30 3750 C 375.01 -1.51176 3.28372 0
M  V30 3751 O 374.731 -0.600284 4.33968 0
M  V30 3752 C 376.232 -2.315 3.78051 0
M  V30 3753 H 373.452 -0.210088 0.637263 0
M  V30 3754 H 375.996 -0.000924689 2.045 0
M  V30 3755 H 374.151 -2.20801 3.18317 0
M  V30 3756 H 374.565 -1.13669 5.12035 0
M  V30 3757 H 376.039 -2.80697 4.75303 0
M  V30 3758 H 376.516 -3.12436 3.08675 0
M  V30 3759 H 377.122 -1.66971 3.91153 0
M  V30 3760 N 375.437 -1.54477 -0.31217 0
M  V30 3761 C 376.683 -1.73483 -1.0503 0
M  V30 3762 C 377.016 -0.513125 -1.87298 0
M  V30 3763 O 376.291 0.489864 -1.8823 0
M  V30 3764 C 376.574 -3.01723 -1.96558 0
M  V30 3765 C 376.427 -4.3417 -1.17545 0
M  V30 3766 C 377.746 -3.25772 -2.95907 0
M  V30 3767 H 374.865 -0.631222 -0.380432 0
M  V30 3768 H 377.507 -1.87184 -0.325932 0
M  V30 3769 H 375.657 -2.90174 -2.58324 0
M  V30 3770 H 377.329 -4.5762 -0.581513 0
M  V30 3771 H 375.572 -4.31159 -0.477925 0
M  V30 3772 H 376.243 -5.20143 -1.84811 0
M  V30 3773 H 378.719 -3.36857 -2.44267 0
M  V30 3774 H 377.595 -4.16838 -3.57123 0
M  V30 3775 H 377.856 -2.43537 -3.68974 0
M  V30 3776 N 376.915 0.57481 -1.46744 0
M  V30 3777 C 378.326 1.15695 -1.46532 0
M  V30 3778 C 378.677 1.95068 -0.210425 0
M  V30 3779 O 377.802 2.05241 0.685944 0
M  V30 3780 C 378.397 2.1048 -2.65487 0
M  V30 3781 C 376.956 2.64002 -2.68291 0
M  V30 3782 C 376.103 1.40026 -2.39349 0
M  V30 3783 H 379.054 0.362325 -1.54509 0
M  V30 3784 H 379.075 2.94074 -2.41455 0
M  V30 3785 H 378.587 1.52683 -3.56805 0
M  V30 3786 H 376.688 3.25646 -1.81067 0
M  V30 3787 H 376.801 3.06197 -3.68483 0
M  V30 3788 H 375.165 1.70106 -1.89568 0
M  V30 3789 H 375.948 0.840485 -3.32852 0
M  V30 3790 N 378.394 1.34581 0.820102 0
M  V30 3791 C 379.805 1.24298 1.39309 0
M  V30 3792 C 380.156 -0.130351 1.95767 0
M  V30 3793 O 379.281 -1.0308 1.90272 0
M  V30 3794 C 379.876 2.25054 2.53251 0
M  V30 3795 C 378.435 2.18552 3.0645 0
M  V30 3796 C 377.582 2.11503 1.79337 0
M  V30 3797 H 380.533 1.45906 0.624262 0
M  V30 3798 H 380.554 1.86917 3.31425 0
M  V30 3799 H 380.066 3.24996 2.1213 0
M  V30 3800 H 378.167 1.21976 3.52069 0
M  V30 3801 H 378.28 3.0993 3.65349 0
M  V30 3802 H 376.644 1.57268 2.00347 0
M  V30 3803 H 377.427 3.13284 1.40386 0
M  V30 3804 N 379.872 -1.04064 1.18357 0
M  V30 3805 C 381.118 -1.77528 0.980397 0
M  V30 3806 C 381.451 -1.87948 -0.48879 0
M  V30 3807 O 380.726 -1.3876 -1.36293 0
M  V30 3808 C 381.009 -3.20797 1.63588 0
M  V30 3809 C 380.862 -3.1832 3.17793 0
M  V30 3810 C 382.181 -4.18911 1.34914 0
M  V30 3811 H 379.3 -0.644443 0.357578 0
M  V30 3812 H 381.942 -1.2156 1.46024 0
M  V30 3813 H 380.092 -3.68586 1.22788 0
M  V30 3814 H 381.764 -2.78521 3.67728 0
M  V30 3815 H 380.007 -2.56351 3.49952 0
M  V30 3816 H 380.678 -4.19489 3.58794 0
M  V30 3817 H 383.154 -3.7967 1.70265 0
M  V30 3818 H 382.03 -5.17374 1.83346 0
M  V30 3819 H 382.291 -4.41262 0.272027 0
M  V30 3820 N 381.35 -0.985608 -1.22978 0
M  V30 3821 C 382.597 -0.657386 -1.91532 0
M  V30 3822 C 382.925 0.809707 -1.76845 0
M  V30 3823 O 382.18 1.60021 -1.12658 0
M  V30 3824 C 382.479 -1.00014 -3.43121 0
M  V30 3825 C 382.145 -2.4583 -3.77993 0
M  V30 3826 C 380.807 -2.85679 -3.87222 0
M  V30 3827 C 383.159 -3.40378 -3.94705 0
M  V30 3828 C 380.487 -4.19081 -4.10595 0
M  V30 3829 C 382.839 -4.73429 -4.1958 0
M  V30 3830 C 381.503 -5.1303 -4.27032 0
M  V30 3831 H 380.773 -0.240555 -0.700867 0
M  V30 3832 H 383.42 -1.24044 -1.45895 0
M  V30 3833 H 381.725 -0.335072 -3.90365 0
M  V30 3834 H 383.422 -0.724322 -3.94404 0
M  V30 3835 H 380.012 -2.13939 -3.71387 0
M  V30 3836 H 384.196 -3.10766 -3.8696 0
M  V30 3837 H 379.452 -4.49362 -4.14589 0
M  V30 3838 H 383.626 -5.46644 -4.31455 0
M  V30 3839 H 381.253 -6.16418 -4.44896 0
M  V30 3840 N 382.828 1.3818 -0.7579 0
M  V30 3841 C 384.074 2.00316 -0.316453 0
M  V30 3842 C 384.407 1.60026 1.10025 0
M  V30 3843 O 383.682 0.839835 1.75434 0
M  V30 3844 C 383.965 3.57349 -0.444245 0
M  V30 3845 C 383.818 4.07591 -1.90236 0
M  V30 3846 C 385.137 4.3981 0.1598 0
M  V30 3847 H 382.256 0.727741 -0.116459 0
M  V30 3848 H 384.898 1.6406 -0.958352 0
M  V30 3849 H 383.048 3.88365 0.102233 0
M  V30 3850 H 384.72 3.87199 -2.50748 0
M  V30 3851 H 382.963 3.60297 -2.41595 0
M  V30 3852 H 383.634 5.16677 -1.94291 0
M  V30 3853 H 386.11 4.14971 -0.306314 0
M  V30 3854 H 384.986 5.48885 0.0401675 0
M  V30 3855 H 385.247 4.24102 1.24859 0
M  V30 3856 N 384.306 0.507319 1.49211 0
M  V30 3857 C 385.531 -0.033725 2.07373 0
M  V30 3858 C 385.956 -1.29485 1.36437 0
M  V30 3859 O 385.314 -1.76294 0.423087 0
M  V30 3860 C 385.362 -0.263945 3.59633 0
M  V30 3861 O 384.466 -1.33737 3.90113 0
M  V30 3862 H 383.807 0.0290331 0.663365 0
M  V30 3863 H 386.337 0.708749 1.91932 0
M  V30 3864 H 386.347 -0.493536 4.05004 0
M  V30 3865 H 385.022 0.657424 4.10671 0
M  V30 3866 H 383.599 -1.09224 3.56545 0
M  V30 3867 N 385.784 -1.5574 0.241426 0
M  V30 3868 C 387.03 -1.99104 -0.385406 0
M  V30 3869 C 387.363 -1.1293 -1.57988 0
M  V30 3870 O 386.638 -0.191449 -1.93555 0
M  V30 3871 C 386.921 -3.51087 -0.800616 0
M  V30 3872 C 386.774 -4.48028 0.398874 0
M  V30 3873 C 388.093 -4.08015 -1.64959 0
M  V30 3874 H 385.212 -0.723848 -0.138614 0
M  V30 3875 H 387.854 -1.86903 0.341642 0
M  V30 3876 H 386.004 -3.61615 -1.4201 0
M  V30 3877 H 387.676 -4.49487 1.03726 0
M  V30 3878 H 385.919 -4.21077 1.04293 0
M  V30 3879 H 386.59 -5.51962 0.0651056 0
M  V30 3880 H 389.066 -4.00555 -1.12672 0
M  V30 3881 H 387.942 -5.14635 -1.90898 0
M  V30 3882 H 388.203 -3.56131 -2.61961 0
M  V30 3883 N 387.262 0.0317525 -1.57568 0
M  V30 3884 C 388.492 0.733884 -1.93126 0
M  V30 3885 C 388.9 1.69563 -0.839352 0
M  V30 3886 O 388.243 1.82681 0.193175 0
M  V30 3887 C 388.305 1.54798 -3.24465 0
M  V30 3888 C 387.969 0.751304 -4.50782 0
M  V30 3889 C 388.966 0.0527632 -5.19873 0
M  V30 3890 C 386.651 0.706639 -4.97305 0
M  V30 3891 C 388.645 -0.679774 -6.33765 0
M  V30 3892 C 386.332 -0.0296449 -6.11093 0
M  V30 3893 C 387.33 -0.721614 -6.79177 0
M  V30 3894 O 387.018 -1.44595 -7.90789 0
M  V30 3895 H 386.75 0.211459 -0.642076 0
M  V30 3896 H 389.304 -0.00585615 -2.05399 0
M  V30 3897 H 387.534 2.33147 -3.08512 0
M  V30 3898 H 389.223 2.13247 -3.4537 0
M  V30 3899 H 389.989 0.0783188 -4.84937 0
M  V30 3900 H 385.868 1.23474 -4.44157 0
M  V30 3901 H 389.412 -1.22042 -6.86842 0
M  V30 3902 H 385.309 -0.0571331 -6.45475 0
M  V30 3903 H 386.077 -1.35935 -8.07133 0
M  V30 3904 N 388.74 1.54641 0.303973 0
M  V30 3905 C 389.67 1.88386 1.3796 0
M  V30 3906 C 390.651 0.742485 1.5304 0
M  V30 3907 O 391.836 0.997959 1.66597 0
M  V30 3908 C 388.966 2.12854 2.74427 0
M  V30 3909 C 387.92 3.28702 2.74115 0
M  V30 3910 C 387.246 3.38582 4.13844 0
M  V30 3911 C 388.546 4.65881 2.3612 0
M  V30 3912 H 390.24 2.78474 1.09966 0
M  V30 3913 H 387.786 1.33988 0.527556 0
M  V30 3914 H 389.739 2.35047 3.49758 0
M  V30 3915 H 388.463 1.19535 3.03939 0
M  V30 3916 H 387.122 3.06428 2.0124 0
M  V30 3917 H 386.77 2.42784 4.40528 0
M  V30 3918 H 386.47 4.16453 4.14537 0
M  V30 3919 H 387.994 3.63031 4.90959 0
M  V30 3920 H 389.408 4.87823 3.01167 0
M  V30 3921 H 387.805 5.46444 2.48031 0
M  V30 3922 H 388.875 4.66799 1.3125 0
M  V30 3923 N 390.218 -0.567019 1.47046 0
M  V30 3924 C 391.166 -1.69593 1.59188 0
M  V30 3925 C 392.16 -1.63046 0.459609 0
M  V30 3926 O 393.366 -1.6835 0.637058 0
M  V30 3927 H 389.741 -0.560993 0.500791 0
M  V30 3928 H 391.712 -1.56488 2.54075 0
M  V30 3929 C 390.461 -3.07964 1.61411 0
M  V30 3930 H 389.784 -3.13679 2.47881 0
M  V30 3931 H 391.224 -3.86671 1.73958 0
M  V30 3932 C 389.683 -3.35123 0.34559 0
M  V30 3933 O 390.213 -3.97812 -0.557521 0
M  V30 3934 N 388.419 -2.89699 0.22864 0
M  V30 3935 H 387.966 -2.38863 0.964479 0
M  V30 3936 H 387.924 -3.08242 -0.619192 0
M  V30 3937 N 391.696 -1.35014 -0.812953 0
M  V30 3938 C 393.112 -1.14914 -1.10757 0
M  V30 3939 C 393.312 0.0426818 -2.01455 0
M  V30 3940 O 392.368 0.715212 -2.42159 0
M  V30 3941 C 393.681 -2.44911 -1.74468 0
M  V30 3942 C 395.229 -2.5106 -1.86917 0
M  V30 3943 C 395.704 -3.81085 -2.54044 0
M  V30 3944 N 397.195 -3.82301 -2.61535 0
M  V30 3945 C 397.93 -4.79634 -3.14227 0
M  V30 3946 N 397.426 -5.87353 -3.67407 0
M  V30 3947 N 399.219 -4.67078 -3.12721 0
M  V30 3948 H 391.37 -2.1136 -0.20989 0
M  V30 3949 H 393.633 -0.935128 -0.155692 0
M  V30 3950 H 393.339 -3.32267 -1.15289 0
M  V30 3951 H 393.213 -2.58989 -2.74234 0
M  V30 3952 H 395.6 -1.64137 -2.45241 0
M  V30 3953 H 395.681 -2.40901 -0.860242 0
M  V30 3954 H 395.325 -4.68402 -1.96372 0
M  V30 3955 H 395.255 -3.88529 -3.55461 0
M  V30 3956 H 397.746 -3.04465 -2.23851 0
M  V30 3957 H 398.059 -6.57624 -4.05894 0
M  V30 3958 H 396.404 -5.91054 -3.65623 0
M  V30 3959 H 399.595 -3.82067 -2.70449 0
M  V30 3960 H 399.768 -5.43098 -3.53481 0
M  V30 3961 N 393.175 1.03435 -1.18907 0
M  V30 3962 C 394.4 1.80919 -1.01406 0
M  V30 3963 C 394.825 1.83055 0.432721 0
M  V30 3964 O 394.183 1.25252 1.31079 0
M  V30 3965 C 394.231 3.24091 -1.58105 0
M  V30 3966 O 393.335 4.04434 -0.806669 0
M  V30 3967 H 392.676 0.558709 -0.358803 0
M  V30 3968 H 395.206 1.30223 -1.57807 0
M  V30 3969 H 395.216 3.74853 -1.61087 0
M  V30 3970 H 393.891 3.21851 -2.6341 0
M  V30 3971 H 392.468 3.63091 -0.849666 0
M  V30 3972 N 394.653 0.992116 1.22453 0
M  V30 3973 C 395.899 0.678177 1.91761 0
M  V30 3974 C 396.254 -0.781141 1.75829 0
M  V30 3975 O 395.547 -1.55747 1.11595 0
M  V30 3976 C 395.741 1.01832 3.42586 0
M  V30 3977 C 395.57 2.50916 3.73191 0
M  V30 3978 C 394.34 3.17308 3.93248 0
M  V30 3979 C 396.538 3.49032 3.77732 0
M  V30 3980 N 394.52 4.55876 4.11157 0
M  V30 3981 C 395.891 4.73055 4.00773 0
M  V30 3982 C 397.946 3.43349 3.60577 0
M  V30 3983 C 396.649 5.92089 4.0844 0
M  V30 3984 C 398.675 4.61759 3.69503 0
M  V30 3985 C 398.037 5.84582 3.92993 0
M  V30 3986 H 394.136 0.299425 0.722405 0
M  V30 3987 H 396.72 1.27197 1.47408 0
M  V30 3988 H 394.891 0.453118 3.85748 0
M  V30 3989 H 396.623 0.660454 3.99274 0
M  V30 3990 H 393.378 2.67778 3.9063 0
M  V30 3991 H 393.802 5.27748 4.24042 0
M  V30 3992 H 398.444 2.49408 3.41402 0
M  V30 3993 H 396.162 6.86435 4.26418 0
M  V30 3994 H 399.748 4.58951 3.57569 0
M  V30 3995 H 398.628 6.74676 3.99728 0
M  V30 3996 N 396.131 -1.37776 0.765217 0
M  V30 3997 C 397.061 -2.32945 0.160953 0
M  V30 3998 C 398.042 -1.55454 -0.690516 0
M  V30 3999 O 399.227 -1.83721 -0.629318 0
M  V30 4000 C 396.357 -3.39669 -0.724031 0
M  V30 4001 C 395.311 -4.27992 0.0256173 0
M  V30 4002 C 394.637 -5.25673 -0.978383 0
M  V30 4003 C 395.937 -5.08309 1.20082 0
M  V30 4004 H 397.631 -2.83728 0.955969 0
M  V30 4005 H 395.177 -1.36416 0.461149 0
M  V30 4006 H 397.13 -4.05219 -1.15652 0
M  V30 4007 H 395.854 -2.87396 -1.5515 0
M  V30 4008 H 394.513 -3.63964 0.438812 0
M  V30 4009 H 394.161 -4.69682 -1.80022 0
M  V30 4010 H 393.861 -5.85625 -0.481378 0
M  V30 4011 H 395.385 -5.94098 -1.40995 0
M  V30 4012 H 396.799 -5.67034 0.845307 0
M  V30 4013 H 395.196 -5.77554 1.62947 0
M  V30 4014 H 396.266 -4.41365 2.00811 0
M  V30 4015 N 397.609 -0.515225 -1.4894 0
M  V30 4016 C 398.857 0.0241671 -2.02086 0
M  V30 4017 C 399.178 1.3616 -1.3959 0
M  V30 4018 O 398.448 1.87841 -0.556121 0
M  V30 4019 H 397.028 0.0119203 -0.746905 0
M  V30 4020 H 399.69 -0.675702 -1.82812 0
M  V30 4021 H 398.786 0.143385 -3.1177 0
M  V30 4022 N 399.087 1.5561 -0.249682 0
M  V30 4023 C 400.017 2.24477 0.642826 0
M  V30 4024 C 400.998 1.22601 1.17911 0
M  V30 4025 O 402.183 1.5126 1.21795 0
M  V30 4026 C 399.313 2.94638 1.83863 0
M  V30 4027 C 398.267 4.03227 1.435 0
M  V30 4028 C 397.593 4.60828 2.71186 0
M  V30 4029 C 398.893 5.18796 0.604002 0
M  V30 4030 H 400.587 2.99321 0.0685625 0
M  V30 4031 H 398.133 1.43965 0.0315363 0
M  V30 4032 H 400.086 3.41517 2.46868 0
M  V30 4033 H 398.81 2.17287 2.43832 0
M  V30 4034 H 397.469 3.57121 0.828275 0
M  V30 4035 H 397.117 3.80174 3.29358 0
M  V30 4036 H 396.817 5.34132 2.44901 0
M  V30 4037 H 398.341 5.10442 3.35084 0
M  V30 4038 H 399.755 5.61883 1.13842 0
M  V30 4039 H 398.152 5.98506 0.437097 0
M  V30 4040 H 399.222 4.83384 -0.383147 0
M  V30 4041 N 400.565 -0.0233959 1.57583 0
M  V30 4042 C 401.981 -0.379134 1.55031 0
M  V30 4043 C 402.181 -1.76255 0.976548 0
M  V30 4044 O 401.237 -2.45266 0.600078 0
M  V30 4045 C 402.55 -0.275792 2.99433 0
M  V30 4046 C 404.098 -0.352458 3.11009 0
M  V30 4047 C 404.573 -0.278501 4.57152 0
M  V30 4048 N 406.064 -0.337123 4.61972 0
M  V30 4049 C 406.799 -0.302876 5.726 0
M  V30 4050 N 406.295 -0.220589 6.92449 0
M  V30 4051 N 408.088 -0.353023 5.6099 0
M  V30 4052 H 400.239 0.881869 1.93227 0
M  V30 4053 H 402.502 0.335867 0.886509 0
M  V30 4054 H 402.208 0.675108 3.4516 0
M  V30 4055 H 402.082 -1.06721 3.61788 0
M  V30 4056 H 404.469 -1.29379 2.65226 0
M  V30 4057 H 404.55 0.468409 2.51475 0
M  V30 4058 H 404.194 0.659189 5.03604 0
M  V30 4059 H 404.124 -1.11755 5.14605 0
M  V30 4060 H 406.615 -0.403002 3.75745 0
M  V30 4061 H 406.928 -0.199713 7.72542 0
M  V30 4062 H 405.273 -0.186555 6.9475 0
M  V30 4063 H 408.464 -0.415339 4.66254 0
M  V30 4064 H 408.637 -0.322866 6.47195 0
M  V30 4065 N 402.043 -1.548 -0.295768 0
M  V30 4066 C 403.29 -1.74329 -1.03032 0
M  V30 4067 C 403.618 -0.531915 -1.87085 0
M  V30 4068 O 402.873 0.486052 -1.89568 0
M  V30 4069 C 403.172 -2.98797 -1.961 0
M  V30 4070 C 402.838 -4.32356 -1.2798 0
M  V30 4071 C 401.5 -4.68661 -1.09135 0
M  V30 4072 C 403.852 -5.15128 -0.793243 0
M  V30 4073 C 401.18 -5.85312 -0.403269 0
M  V30 4074 C 403.532 -6.32488 -0.118854 0
M  V30 4075 C 402.196 -6.6745 0.0815043 0
M  V30 4076 H 401.466 -0.637916 -0.37702 0
M  V30 4077 H 404.113 -1.8906 -0.304696 0
M  V30 4078 H 402.418 -2.78869 -2.75207 0
M  V30 4079 H 404.115 -3.11102 -2.53015 0
M  V30 4080 H 400.705 -4.03808 -1.43655 0
M  V30 4081 H 404.889 -4.87575 -0.92653 0
M  V30 4082 H 400.145 -6.1094 -0.237098 0
M  V30 4083 H 404.319 -6.95892 0.266035 0
M  V30 4084 H 401.946 -7.57695 0.616685 0
M  V30 4085 N 403.521 0.559213 -1.47345 0
M  V30 4086 C 404.451 1.67622 -1.62558 0
M  V30 4087 C 405.432 1.63331 -0.475087 0
M  V30 4088 O 406.617 1.80983 -0.704182 0
M  V30 4089 C 403.747 3.0626 -1.63774 0
M  V30 4090 C 402.701 3.25397 -2.7803 0
M  V30 4091 C 402.027 4.64801 -2.64318 0
M  V30 4092 C 403.327 3.10965 -4.19641 0
M  V30 4093 H 405.021 1.55146 -2.56067 0
M  V30 4094 H 402.567 0.744961 -1.23233 0
M  V30 4095 H 404.52 3.84247 -1.73008 0
M  V30 4096 H 403.244 3.1969 -0.66825 0
M  V30 4097 H 401.903 2.49817 -2.68304 0
M  V30 4098 H 401.551 4.75028 -1.65401 0
M  V30 4099 H 401.251 4.78555 -3.40968 0
M  V30 4100 H 402.775 5.44926 -2.75478 0
M  V30 4101 H 404.189 3.78772 -4.30354 0
M  V30 4102 H 402.586 3.36229 -4.97062 0
M  V30 4103 H 403.656 2.07736 -4.38148 0
M  V30 4104 N 404.999 1.35443 0.805782 0
M  V30 4105 C 406.415 1.15499 1.10146 0
M  V30 4106 C 406.615 -0.0319975 2.01475 0
M  V30 4107 O 405.671 -0.70236 2.42535 0
M  V30 4108 C 406.984 2.45833 1.73166 0
M  V30 4109 C 408.532 2.52047 1.85583 0
M  V30 4110 C 409.007 3.82427 2.52019 0
M  V30 4111 N 410.498 3.83682 2.59504 0
M  V30 4112 C 411.233 4.81294 3.11679 0
M  V30 4113 N 410.729 5.89294 3.64287 0
M  V30 4114 N 412.522 4.6873 3.1024 0
M  V30 4115 H 404.673 2.11469 0.198678 0
M  V30 4116 H 406.936 0.93594 0.150731 0
M  V30 4117 H 406.642 3.32874 1.13526 0
M  V30 4118 H 406.516 2.6044 2.72857 0
M  V30 4119 H 408.903 1.65435 2.44367 0
M  V30 4120 H 408.984 2.41354 0.847455 0
M  V30 4121 H 408.628 4.69437 1.93885 0
M  V30 4122 H 408.558 3.90409 3.53395 0
M  V30 4123 H 411.049 3.05648 2.22234 0
M  V30 4124 H 411.362 6.59768 4.02401 0
M  V30 4125 H 409.707 5.92985 3.62483 0
M  V30 4126 H 412.898 3.83496 2.68419 0
M  V30 4127 H 413.071 5.44965 3.50596 0
M  V30 4128 N 406.477 -1.02803 1.19454 0
M  V30 4129 C 407.44 -2.09264 0.934955 0
M  V30 4130 C 408.44 -1.60576 -0.0849015 0
M  V30 4131 O 409.63 -1.73554 0.149933 0
M  V30 4132 C 406.762 -3.38482 0.40531 0
M  V30 4133 H 407.955 -2.33726 1.87916 0
M  V30 4134 H 405.508 -1.19426 1.00832 0
M  V30 4135 H 406.243 -3.19689 -0.544899 0
M  V30 4136 H 406.028 -3.75142 1.14065 0
M  V30 4137 H 407.518 -4.16894 0.242806 0
M  V30 4138 N 407.956 -0.998596 -1.21925 0
M  V30 4139 C 408.886 -0.573688 -2.26343 0
M  V30 4140 C 409.867 0.402296 -1.65274 0
M  V30 4141 O 411.052 0.291683 -1.91997 0
M  V30 4142 C 408.182 0.106839 -3.47136 0
M  V30 4143 C 407.136 -0.788269 -4.20678 0
M  V30 4144 C 406.462 0.0254927 -5.34694 0
M  V30 4145 C 407.762 -2.08784 -4.78755 0
M  V30 4146 H 409.456 -1.44651 -2.62138 0
M  V30 4147 H 407.002 -0.696975 -1.26009 0
M  V30 4148 H 408.955 0.415531 -4.19346 0
M  V30 4149 H 407.679 1.01424 -3.10452 0
M  V30 4150 H 406.338 -1.08069 -3.50309 0
M  V30 4151 H 405.986 0.933989 -4.94253 0
M  V30 4152 H 405.686 -0.570437 -5.84825 0
M  V30 4153 H 407.21 0.328147 -6.09718 0
M  V30 4154 H 408.624 -1.84272 -5.42878 0
M  V30 4155 H 407.021 -2.63307 -5.39249 0
M  V30 4156 H 408.091 -2.76284 -3.98491 0
M  V30 4157 N 409.434 1.37368 -0.772513 0
M  V30 4158 C 410.85 1.53059 -0.452231 0
M  V30 4159 C 411.05 1.73065 1.03203 0
M  V30 4160 O 410.106 1.75245 1.81784 0
M  V30 4161 C 411.419 2.72659 -1.26797 0
M  V30 4162 C 412.967 2.86521 -1.25995 0
M  V30 4163 C 413.442 4.09105 -2.05905 0
M  V30 4164 N 414.933 4.16219 -2.03263 0
M  V30 4165 C 415.668 5.10107 -2.61875 0
M  V30 4166 N 415.164 6.09547 -3.29278 0
M  V30 4167 N 416.957 5.02596 -2.51701 0
M  V30 4168 H 409.108 1.22634 -1.7342 0
M  V30 4169 H 411.371 0.597206 -0.736239 0
M  V30 4170 H 411.077 2.64343 -2.31982 0
M  V30 4171 H 410.951 3.66363 -0.897672 0
M  V30 4172 H 413.338 2.94308 -0.216081 0
M  V30 4173 H 413.419 1.93774 -1.66989 0
M  V30 4174 H 413.063 4.0208 -3.10313 0
M  V30 4175 H 412.993 5.00968 -1.62292 0
M  V30 4176 H 415.484 3.45012 -1.54192 0
M  V30 4177 H 415.797 6.77718 -3.71374 0
M  V30 4178 H 414.142 6.09824 -3.33377 0
M  V30 4179 H 417.333 4.23855 -1.98657 0
M  V30 4180 H 417.506 5.75582 -2.97673 0
M  V30 4181 N 410.912 0.523116 1.48665 0
M  V30 4182 C 411.842 -0.23231 2.32342 0
M  V30 4183 C 412.823 -0.941637 1.41659 0
M  V30 4184 O 414.008 -0.928751 1.70552 0
M  V30 4185 C 411.138 -1.28387 3.22698 0
M  V30 4186 C 410.092 -0.693098 4.22351 0
M  V30 4187 C 409.418 -1.8468 5.01794 0
M  V30 4188 C 410.718 0.33063 5.21252 0
M  V30 4189 H 412.412 0.466192 2.95748 0
M  V30 4190 H 409.958 0.225643 1.42221 0
M  V30 4191 H 411.911 -1.82024 3.80059 0
M  V30 4192 H 410.635 -2.01186 2.57278 0
M  V30 4193 H 409.294 -0.178299 3.66166 0
M  V30 4194 H 408.942 -2.56301 4.32804 0
M  V30 4195 H 408.642 -1.45747 5.69238 0
M  V30 4196 H 410.166 -2.38709 5.62006 0
M  V30 4197 H 411.58 -0.118407 5.73178 0
M  V30 4198 H 409.977 0.636974 5.9671 0
M  V30 4199 H 411.047 1.23883 4.68808 0
M  V30 4200 N 412.39 -1.55475 0.257931 0
M  V30 4201 C 413.639 -1.98383 -0.364275 0
M  V30 4202 C 413.952 -1.14952 -1.58258 0
M  V30 4203 O 415.158 -1.47924 -2.27664 0
M  V30 4204 C 413.614 -3.53037 -0.699479 0
M  V30 4205 C 413.222 -4.45223 0.498046 0
M  V30 4206 C 414.966 -4.04575 -1.28526 0
M  V30 4207 C 412.873 -5.91238 0.138383 0
M  V30 4208 H 411.803 -0.740911 -0.13988 0
M  V30 4209 H 414.454 -1.79936 0.359883 0
M  V30 4210 H 412.836 -3.6722 -1.48207 0
M  V30 4211 H 414.01 -4.42803 1.27522 0
M  V30 4212 H 412.325 -4.04226 0.999503 0
M  V30 4213 H 414.922 -5.11196 -1.56788 0
M  V30 4214 H 415.265 -3.5258 -2.21344 0
M  V30 4215 H 415.798 -3.93762 -0.565337 0
M  V30 4216 H 412.537 -6.47294 1.03398 0
M  V30 4217 H 412.057 -5.96768 -0.602374 0
M  V30 4218 H 413.736 -6.46413 -0.27553 0
M  V30 4219 N 413.868 0.0150385 -1.57593 0
M  V30 4220 C 414.8 1.03912 -2.04291 0
M  V30 4221 C 415.813 1.31618 -0.958146 0
M  V30 4222 O 417.002 1.28859 -1.23522 0
M  V30 4223 C 414.102 2.37749 -2.41514 0
M  V30 4224 C 413.275 2.29198 -3.72541 0
M  V30 4225 C 412.334 3.45598 -3.96797 0
M  V30 4226 O 411.36 3.24461 -4.67668 0
M  V30 4227 N 412.562 4.67945 -3.43523 0
M  V30 4228 H 415.327 0.64099 -2.92765 0
M  V30 4229 H 412.888 0.20272 -1.60626 0
M  V30 4230 H 414.88 3.14364 -2.54867 0
M  V30 4231 H 413.45 2.69357 -1.58637 0
M  V30 4232 H 412.67 1.3759 -3.69408 0
M  V30 4233 H 413.958 2.20642 -4.5847 0
M  V30 4234 H 413.356 4.88017 -2.86104 0
M  V30 4235 H 411.913 5.41878 -3.62232 0
M  V30 4236 N 415.346 1.54954 0.287554 0
M  V30 4237 C 416.593 1.74873 1.02106 0
M  V30 4238 C 416.921 0.541829 1.86801 0
M  V30 4239 O 416.176 -0.475992 1.89823 0
M  V30 4240 C 416.475 2.99833 1.94512 0
M  V30 4241 C 416.141 4.33029 1.25686 0
M  V30 4242 C 414.803 4.69233 1.06649 0
M  V30 4243 C 417.155 5.15542 0.765913 0
M  V30 4244 C 414.483 5.85518 0.372222 0
M  V30 4245 C 416.835 6.32542 0.0853101 0
M  V30 4246 C 415.499 6.67398 -0.1169 0
M  V30 4247 H 414.769 0.639906 0.373632 0
M  V30 4248 H 417.416 1.89219 0.294665 0
M  V30 4249 H 415.721 2.80325 2.73725 0
M  V30 4250 H 417.418 3.1244 2.51361 0
M  V30 4251 H 414.008 4.04564 1.41512 0
M  V30 4252 H 418.192 4.88059 0.90066 0
M  V30 4253 H 413.448 6.11057 0.204695 0
M  V30 4254 H 417.622 6.95741 -0.302936 0
M  V30 4255 H 415.249 7.57357 -0.656859 0
M  V30 4256 N 416.824 -0.551391 1.4764 0
M  V30 4257 C 418.049 -1.33837 1.58437 0
M  V30 4258 C 418.474 -1.866 0.237063 0
M  V30 4259 O 417.832 -1.6328 -0.787994 0
M  V30 4260 C 417.88 -2.48014 2.61766 0
M  V30 4261 O 416.984 -3.50419 2.1744 0
M  V30 4262 H 416.325 -0.397299 0.532024 0
M  V30 4263 H 418.855 -0.665759 1.93465 0
M  V30 4264 H 418.865 -2.94503 2.82369 0
M  V30 4265 H 417.54 -2.08969 3.5959 0
M  V30 4266 H 416.117 -3.10196 2.06961 0
M  V30 4267 N 418.302 -1.35869 -0.798587 0
M  V30 4268 C 419.212 -1.31578 -1.94228 0
M  V30 4269 C 420.228 -0.21939 -1.72611 0
M  V30 4270 O 421.404 -0.450167 -1.96305 0
M  V30 4271 C 418.469 -1.09528 -3.28944 0
M  V30 4272 C 417.53 -2.28556 -3.63402 0
M  V30 4273 C 416.763 -2.07549 -4.9169 0
M  V30 4274 O 416.986 -1.046 -5.60727 0
M  V30 4275 O 415.92 -2.95106 -5.24591 0
M  V30 4276 H 419.746 -2.27847 -2.00796 0
M  V30 4277 H 417.331 -1.16322 -0.937526 0
M  V30 4278 H 419.213 -0.991127 -4.09579 0
M  V30 4279 H 417.888 -0.16315 -3.23289 0
M  V30 4280 H 416.795 -2.44538 -2.83112 0
M  V30 4281 H 418.128 -3.20244 -3.73771 0
M  V30 4282 N 419.78 1.02168 -1.19998 0
M  V30 4283 C 421.029 1.75091 -1.0013 0
M  V30 4284 C 421.342 1.89923 0.467835 0
M  V30 4285 O 422.548 2.59888 0.785515 0
M  V30 4286 C 421.004 3.14892 -1.74273 0
M  V30 4287 C 420.612 3.0809 -3.25245 0
M  V30 4288 C 422.356 3.9206 -1.62755 0
M  V30 4289 C 420.263 4.42867 -3.91948 0
M  V30 4290 H 419.193 0.656394 -0.37103 0
M  V30 4291 H 421.844 1.14284 -1.43567 0
M  V30 4292 H 420.226 3.7621 -1.2362 0
M  V30 4293 H 421.4 2.5611 -3.83072 0
M  V30 4294 H 419.715 2.44416 -3.3712 0
M  V30 4295 H 422.312 4.91764 -2.09934 0
M  V30 4296 H 422.655 4.12199 -0.582894 0
M  V30 4297 H 423.188 3.37359 -2.10793 0
M  V30 4298 H 419.927 4.27931 -4.96543 0
M  V30 4299 H 419.447 4.94874 -3.3891 0
M  V30 4300 H 421.126 5.11728 -3.95909 0
M  V30 4301 N 421.258 1.00505 1.21394 0
M  V30 4302 C 422.188 0.585684 2.26035 0
M  V30 4303 C 423.169 -0.393525 1.65485 0
M  V30 4304 O 424.354 -0.281497 1.92149 0
M  V30 4305 C 421.484 -0.0884283 3.47187 0
M  V30 4306 C 420.438 0.810567 4.20254 0
M  V30 4307 C 419.764 0.00286382 5.347 0
M  V30 4308 C 421.064 2.1132 4.77641 0
M  V30 4309 H 422.758 1.46039 2.61368 0
M  V30 4310 H 420.304 0.703648 1.25638 0
M  V30 4311 H 422.257 -0.393286 4.19561 0
M  V30 4312 H 420.981 -0.997766 3.10986 0
M  V30 4313 H 419.64 1.09925 3.49731 0
M  V30 4314 H 419.288 -0.907765 4.94741 0
M  V30 4315 H 418.988 0.601444 5.84514 0
M  V30 4316 H 420.512 -0.295808 6.09883 0
M  V30 4317 H 421.926 1.87148 5.41893 0
M  V30 4318 H 420.323 2.66164 5.37845 0
M  V30 4319 H 421.393 2.78393 3.9702 0
M  V30 4320 N 422.737 -1.36956 0.779787 0
M  V30 4321 C 423.669 -2.28833 0.129639 0
M  V30 4322 C 424.682 -1.4902 -0.655511 0
M  V30 4323 O 425.871 -1.71578 -0.492279 0
M  V30 4324 C 422.971 -3.2833 -0.839792 0
M  V30 4325 C 422.144 -4.3727 -0.10675 0
M  V30 4326 C 421.203 -5.16789 -0.990717 0
M  V30 4327 O 420.229 -5.67406 -0.451516 0
M  V30 4328 N 421.431 -5.32294 -2.3161 0
M  V30 4329 H 424.196 -2.85268 0.918803 0
M  V30 4330 H 421.757 -1.49019 0.632841 0
M  V30 4331 H 423.749 -3.78413 -1.43477 0
M  V30 4332 H 422.319 -2.72605 -1.52988 0
M  V30 4333 H 421.539 -3.88478 0.669216 0
M  V30 4334 H 422.827 -5.07229 0.399464 0
M  V30 4335 H 422.225 -4.92768 -2.77843 0
M  V30 4336 H 420.782 -5.85656 -2.86095 0
M  V30 4337 N 424.215 -0.530993 -1.48385 0
M  V30 4338 C 425.462 0.0027373 -2.025 0
M  V30 4339 C 425.79 1.34186 -1.40799 0
M  V30 4340 O 425.045 1.88 -0.543544 0
M  V30 4341 C 425.344 0.172742 -3.56982 0
M  V30 4342 C 425.01 -1.09215 -4.37473 0
M  V30 4343 C 423.672 -1.43881 -4.59186 0
M  V30 4344 C 426.024 -1.93153 -4.84088 0
M  V30 4345 C 423.352 -2.62381 -5.2476 0
M  V30 4346 C 425.704 -3.10833 -5.50968 0
M  V30 4347 C 424.368 -3.45843 -5.70919 0
M  V30 4348 H 423.638 0.00100165 -0.740999 0
M  V30 4349 H 426.285 -0.697219 -1.78357 0
M  V30 4350 H 424.59 0.955473 -3.79971 0
M  V30 4351 H 426.287 0.600642 -3.96476 0
M  V30 4352 H 422.877 -0.812177 -4.20834 0
M  V30 4353 H 427.061 -1.67683 -4.67115 0
M  V30 4354 H 422.317 -2.89707 -5.38405 0
M  V30 4355 H 426.491 -3.7618 -5.86056 0
M  V30 4356 H 424.118 -4.37764 -6.21503 0
M  V30 4357 N 425.693 1.55336 -0.266172 0
M  V30 4358 C 426.623 2.25146 0.618981 0
M  V30 4359 C 427.604 1.23845 1.16604 0
M  V30 4360 O 428.789 1.52544 1.20183 0
M  V30 4361 C 425.919 2.96572 1.80728 0
M  V30 4362 C 424.873 4.04726 1.39215 0
M  V30 4363 C 424.199 4.63678 2.66283 0
M  V30 4364 C 425.499 5.19407 0.548942 0
M  V30 4365 H 427.193 2.99377 0.0368116 0
M  V30 4366 H 424.739 1.43991 0.0162651 0
M  V30 4367 H 426.692 3.44116 2.43232 0
M  V30 4368 H 425.416 2.19861 2.41514 0
M  V30 4369 H 424.075 3.57979 0.790351 0
M  V30 4370 H 423.723 3.83646 3.25308 0
M  V30 4371 H 423.423 5.367 2.39222 0
M  V30 4372 H 424.947 5.13967 3.29651 0
M  V30 4373 H 426.361 5.63059 1.07876 0
M  V30 4374 H 424.758 5.98936 0.373593 0
M  V30 4375 H 425.828 4.8295 -0.434394 0
M  V30 4376 N 427.171 -0.0066808 1.57599 0
M  V30 4377 C 428.119 -1.01851 2.09115 0
M  V30 4378 C 429.113 -1.36021 1.00969 0
M  V30 4379 O 430.319 -1.34663 1.19439 0
M  V30 4380 H 426.694 -0.346083 0.667631 0
M  V30 4381 H 428.665 -0.558394 2.93129 0
M  V30 4382 C 427.414 -2.30374 2.60429 0
M  V30 4383 H 426.737 -2.04947 3.43273 0
M  V30 4384 H 428.177 -2.99466 3.00161 0
M  V30 4385 C 426.636 -3.00893 1.51542 0
M  V30 4386 O 427.166 -3.91614 0.894484 0
M  V30 4387 N 425.372 -2.62603 1.2445 0
M  V30 4388 H 424.919 -1.88911 1.75129 0
M  V30 4389 H 424.877 -3.10101 0.518137 0
M  V30 4390 N 428.649 -1.55105 -0.279332 0
M  V30 4391 C 429.898 -1.74618 -1.00952 0
M  V30 4392 C 430.211 -0.551096 -1.87676 0
M  V30 4393 O 431.417 -0.628507 -2.64125 0
M  V30 4394 C 429.873 -3.09025 -1.84476 0
M  V30 4395 C 429.481 -4.36081 -1.0265 0
M  V30 4396 C 431.225 -3.37891 -2.56963 0
M  V30 4397 C 429.132 -5.6153 -1.85576 0
M  V30 4398 H 428.062 -0.650868 -0.38064 0
M  V30 4399 H 430.713 -1.81569 -0.265475 0
M  V30 4400 H 429.095 -2.96095 -2.62952 0
M  V30 4401 H 430.269 -4.59909 -0.286354 0
M  V30 4402 H 428.584 -4.14312 -0.416464 0
M  V30 4403 H 431.181 -4.28822 -3.19399 0
M  V30 4404 H 431.524 -2.57737 -3.26921 0
M  V30 4405 H 432.057 -3.5189 -1.85522 0
M  V30 4406 H 428.796 -6.44413 -1.2005 0
M  V30 4407 H 428.316 -5.41854 -2.57204 0
M  V30 4408 H 429.995 -5.99594 -2.43096 0
M  V30 4409 N 430.127 0.543554 -1.4793 0
M  V30 4410 C 431.057 1.65888 -1.64327 0
M  V30 4411 C 432.038 1.62818 -0.492383 0
M  V30 4412 O 433.223 1.80226 -0.723338 0
M  V30 4413 C 430.353 3.04506 -1.67013 0
M  V30 4414 C 429.307 3.2243 -2.81466 0
M  V30 4415 C 428.633 4.61972 -2.69233 0
M  V30 4416 C 429.933 3.06496 -4.22915 0
M  V30 4417 H 431.627 1.52421 -2.57698 0
M  V30 4418 H 429.173 0.731849 -1.24016 0
M  V30 4419 H 431.126 3.82391 -1.77074 0
M  V30 4420 H 429.85 3.18964 -0.70212 0
M  V30 4421 H 428.509 2.46957 -2.70938 0
M  V30 4422 H 428.157 4.73247 -1.7043 0
M  V30 4423 H 427.857 4.74911 -3.46025 0
M  V30 4424 H 429.381 5.41974 -2.81242 0
M  V30 4425 H 430.795 3.74186 -4.34348 0
M  V30 4426 H 429.192 3.30938 -5.006 0
M  V30 4427 H 430.262 2.03077 -4.40327 0
M  V30 4428 N 431.605 1.3629 0.791371 0
M  V30 4429 C 432.552 1.30458 1.90393 0
M  V30 4430 C 433.522 0.173632 1.6519 0
M  V30 4431 O 434.707 0.35983 1.87376 0
M  V30 4432 C 431.847 1.09777 3.27174 0
M  V30 4433 C 430.96 2.31929 3.64462 0
M  V30 4434 C 430.095 2.04276 4.90352 0
M  V30 4435 C 429.134 3.224 5.20312 0
M  V30 4436 N 428.271 2.94424 6.37385 0
M  V30 4437 H 433.111 2.25589 1.94714 0
M  V30 4438 H 430.648 1.12122 0.952216 0
M  V30 4439 H 432.606 0.958133 4.06049 0
M  V30 4440 H 431.236 0.183014 3.22281 0
M  V30 4441 H 430.288 2.56703 2.80727 0
M  V30 4442 H 431.6 3.20085 3.82553 0
M  V30 4443 H 430.754 1.87231 5.77087 0
M  V30 4444 H 429.493 1.13428 4.74326 0
M  V30 4445 H 428.498 3.40005 4.32061 0
M  V30 4446 H 429.723 4.14071 5.38258 0
M  V30 4447 H 427.669 2.06185 6.22755 0
M  V30 4448 H 427.586 3.76118 6.55798 0
M  V30 4449 H 428.854 2.80953 7.27108 0
M  V30 4450 N 433.083 -1.0153 1.20538 0
M  V30 4451 C 434.311 -1.78746 1.04199 0
M  V30 4452 C 434.726 -1.84323 -0.408733 0
M  V30 4453 O 434.083 -1.29714 -1.28377 0
M  V30 4454 C 434.134 -3.23152 1.62035 0
M  V30 4455 O 433.855 -3.17918 3.0143 0
M  V30 4456 C 435.356 -4.16911 1.50666 0
M  V30 4457 H 432.576 -0.56208 0.366479 0
M  V30 4458 H 435.12 -1.27794 1.59653 0
M  V30 4459 H 433.275 -3.71248 1.10697 0
M  V30 4460 H 433.689 -4.08567 3.28897 0
M  V30 4461 H 435.163 -5.16072 1.95892 0
M  V30 4462 H 435.64 -4.36791 0.459363 0
M  V30 4463 H 436.246 -3.74698 2.01201 0
M  V30 4464 N 434.561 -1.01147 -1.20859 0
M  V30 4465 C 435.786 -0.716698 -1.94623 0
M  V30 4466 C 436.211 0.715415 -1.73964 0
M  V30 4467 O 435.569 1.49157 -1.03062 0
M  V30 4468 C 435.617 -1.0513 -3.44935 0
M  V30 4469 O 434.721 -0.160131 -4.12089 0
M  V30 4470 H 434.062 -0.266404 -0.608214 0
M  V30 4471 H 436.592 -1.35346 -1.53436 0
M  V30 4472 H 436.602 -1.00086 -3.95533 0
M  V30 4473 H 435.277 -2.09475 -3.59295 0
M  V30 4474 H 433.854 -0.267657 -3.71938 0
M  V30 4475 N 436.039 1.36541 -0.78704 0
M  V30 4476 C 436.987 2.31965 -0.171724 0
M  V30 4477 C 437.981 1.55689 0.667631 0
M  V30 4478 O 439.187 1.70969 0.562981 0
M  V30 4479 H 435.562 0.751101 -0.0367545 0
M  V30 4480 H 437.533 2.81428 -0.992017 0
M  V30 4481 C 436.282 3.40968 0.680904 0
M  V30 4482 H 435.605 3.99775 0.0443961 0
M  V30 4483 H 437.045 4.10063 1.07815 0
M  V30 4484 C 435.504 2.82338 1.83813 0
M  V30 4485 O 436.034 2.74311 2.93456 0
M  V30 4486 N 434.24 2.39661 1.6435 0
M  V30 4487 H 433.787 2.46389 0.751668 0
M  V30 4488 H 433.745 2.00779 2.4194 0
M  V30 4489 N 437.518 0.538854 1.48102 0
M  V30 4490 C 438.743 0.0102694 2.07397 0
M  V30 4491 C 439.168 -1.26562 1.39153 0
M  V30 4492 O 438.526 -1.75357 0.460387 0
M  V30 4493 C 438.574 -0.187602 3.60112 0
M  V30 4494 O 437.678 -1.25432 3.92862 0
M  V30 4495 H 437.019 0.0430975 0.6626 0
M  V30 4496 H 439.549 0.749301 1.90385 0
M  V30 4497 H 439.559 -0.407517 4.0596 0
M  V30 4498 H 438.234 0.744386 4.09184 0
M  V30 4499 H 436.811 -1.01636 3.58782 0
M  V30 4500 N 438.996 -1.55193 0.274407 0
M  V30 4501 C 440.245 -1.98758 -0.343213 0
M  V30 4502 C 440.558 -1.16624 -1.5703 0
M  V30 4503 O 441.764 -1.5033 -2.26082 0
M  V30 4504 C 440.22 -3.53759 -0.661996 0
M  V30 4505 C 439.828 -4.4467 0.54524 0
M  V30 4506 C 441.572 -4.05916 -1.24228 0
M  V30 4507 C 439.479 -5.91058 0.201084 0
M  V30 4508 H 438.409 -0.742353 -0.132014 0
M  V30 4509 H 441.06 -1.79545 0.378948 0
M  V30 4510 H 439.442 -3.68772 -1.44304 0
M  V30 4511 H 440.616 -4.41426 1.32212 0
M  V30 4512 H 438.931 -4.03143 1.04232 0
M  V30 4513 H 441.528 -5.12831 -1.51357 0
M  V30 4514 H 441.871 -3.54908 -2.17592 0
M  V30 4515 H 442.404 -3.9434 -0.523542 0
M  V30 4516 H 439.143 -6.46161 1.10258 0
M  V30 4517 H 438.663 -5.97373 -0.539045 0
M  V30 4518 H 440.342 -6.46669 -0.206954 0
M  V30 4519 N 440.474 -0.00167713 -1.576 0
M  V30 4520 C 441.421 0.989195 -2.08527 0
M  V30 4521 C 442.391 1.34031 -0.981065 0
M  V30 4522 O 443.576 1.43839 -1.2536 0
M  V30 4523 C 440.716 2.27537 -2.59463 0
M  V30 4524 C 439.829 1.98314 -3.83791 0
M  V30 4525 C 438.964 3.21025 -4.23222 0
M  V30 4526 C 438.003 2.87495 -5.40382 0
M  V30 4527 N 437.14 4.02749 -5.75098 0
M  V30 4528 H 441.98 0.547973 -2.92919 0
M  V30 4529 H 439.517 0.258917 -1.44803 0
M  V30 4530 H 441.475 3.02729 -2.87073 0
M  V30 4531 H 440.105 2.69325 -1.77943 0
M  V30 4532 H 439.157 1.13482 -3.63078 0
M  V30 4533 H 440.469 1.69601 -4.69081 0
M  V30 4534 H 439.623 4.04561 -4.52123 0
M  V30 4535 H 438.362 3.52877 -3.36644 0
M  V30 4536 H 437.367 2.02367 -5.11202 0
M  V30 4537 H 438.592 2.56889 -6.28637 0
M  V30 4538 H 436.538 4.34494 -4.91478 0
M  V30 4539 H 436.455 3.77566 -6.54966 0
M  V30 4540 H 437.723 4.87068 -6.08592 0
M  V30 4541 N 441.952 1.55251 0.271103 0
M  V30 4542 C 442.882 1.9127 1.33933 0
M  V30 4543 C 443.863 0.77478 1.5143 0
M  V30 4544 O 445.048 1.03307 1.64442 0
M  V30 4545 C 442.178 2.18627 2.69851 0
M  V30 4546 C 441.132 3.34442 2.67081 0
M  V30 4547 C 440.458 3.47284 4.06569 0
M  V30 4548 C 441.758 4.70784 2.26185 0
M  V30 4549 H 443.452 2.80744 1.04035 0
M  V30 4550 H 440.998 1.35077 0.499017 0
M  V30 4551 H 442.951 2.42413 3.44694 0
M  V30 4552 H 441.675 1.25955 3.01335 0
M  V30 4553 H 440.334 3.10627 1.94695 0
M  V30 4554 H 439.982 2.52074 4.35279 0
M  V30 4555 H 439.682 4.25152 4.0561 0
M  V30 4556 H 441.206 3.73363 4.83148 0
M  V30 4557 H 442.62 4.94102 2.90751 0
M  V30 4558 H 441.017 5.51582 2.36384 0
M  V30 4559 H 442.087 4.69478 1.21319 0
M  V30 4560 N 443.43 -0.535701 1.48216 0
M  V30 4561 C 444.676 -1.29375 1.56173 0
M  V30 4562 C 445.009 -1.92804 0.232429 0
M  V30 4563 O 444.284 -1.78992 -0.761048 0
M  V30 4564 C 444.567 -2.38747 2.69577 0
M  V30 4565 C 444.42 -1.80046 4.12193 0
M  V30 4566 C 445.739 -3.40551 2.78771 0
M  V30 4567 H 442.858 -0.469027 0.568491 0
M  V30 4568 H 445.5 -0.597358 1.80365 0
M  V30 4569 H 443.65 -2.98147 2.4908 0
M  V30 4570 H 445.322 -1.24742 4.44114 0
M  V30 4571 H 443.565 -1.10609 4.19462 0
M  V30 4572 H 444.236 -2.59212 4.87353 0
M  V30 4573 H 446.712 -2.91099 2.97322 0
M  V30 4574 H 445.588 -4.1448 3.59857 0
M  V30 4575 H 445.849 -4.00746 1.86696 0
M  V30 4576 N 444.908 -1.36708 -0.784132 0
M  V30 4577 C 445.856 -1.31533 -1.91838 0
M  V30 4578 C 446.85 -0.206205 -1.6814 0
M  V30 4579 O 448.056 -0.373519 -1.76082 0
M  V30 4580 H 444.431 -0.409613 -0.630651 0
M  V30 4581 H 446.402 -2.2731 -1.9332 0
M  V30 4582 C 445.151 -1.12679 -3.28936 0
M  V30 4583 H 444.474 -1.97274 -3.4774 0
M  V30 4584 H 445.914 -1.13106 -4.08636 0
M  V30 4585 C 444.373 0.168281 -3.36479 0
M  V30 4586 O 444.903 1.15625 -3.84699 0
M  V30 4587 N 443.109 0.214762 -2.89805 0
M  V30 4588 H 442.656 -0.589852 -2.50756 0
M  V30 4589 H 442.614 1.08094 -2.95234 0
M  V30 4590 N 446.386 1.0089 -1.21074 0
M  V30 4591 C 447.316 2.1145 -0.990523 0
M  V30 4592 C 448.297 1.69897 0.0831699 0
M  V30 4593 O 449.482 1.94052 -0.0758853 0
M  V30 4594 C 446.612 3.42914 -0.550177 0
M  V30 4595 C 445.566 3.98244 -1.56799 0
M  V30 4596 C 444.892 5.25568 -0.984013 0
M  V30 4597 C 446.192 4.30752 -2.95381 0
M  V30 4598 H 447.886 2.3013 -1.91521 0
M  V30 4599 H 445.432 1.10592 -0.92225 0
M  V30 4600 H 447.385 4.19653 -0.383305 0
M  V30 4601 H 446.109 3.24014 0.41015 0
M  V30 4602 H 444.768 3.23621 -1.72236 0
M  V30 4603 H 444.416 5.02998 -0.0155216 0
M  V30 4604 H 444.116 5.63551 -1.66384 0
M  V30 4605 H 445.64 6.04955 -0.828378 0
M  V30 4606 H 447.054 4.98349 -2.8341 0
M  V30 4607 H 445.451 4.79869 -3.60341 0
M  V30 4608 H 446.521 3.39192 -3.46521 0
M  V30 4609 N 447.864 1.01787 1.20321 0
M  V30 4610 C 448.794 0.609625 2.25401 0
M  V30 4611 C 449.775 -0.375951 1.65893 0
M  V30 4612 O 450.96 -0.261101 1.92437 0
M  V30 4613 C 448.09 -0.0515995 3.47262 0
M  V30 4614 C 447.044 0.855095 4.19371 0
M  V30 4615 C 446.37 0.0595757 5.34667 0
M  V30 4616 C 447.67 2.16374 4.75373 0
M  V30 4617 H 449.364 1.48803 2.59804 0
M  V30 4618 H 446.91 0.716934 1.24884 0
M  V30 4619 H 448.863 -0.348764 4.19954 0
M  V30 4620 H 447.587 -0.964726 3.12027 0
M  V30 4621 H 446.246 1.13628 3.48546 0
M  V30 4622 H 445.894 -0.85524 4.95676 0
M  V30 4623 H 445.594 0.663406 5.83843 0
M  V30 4624 H 447.118 -0.231105 6.10162 0
M  V30 4625 H 448.532 1.92885 5.39878 0
M  V30 4626 H 446.929 2.71853 5.34991 0
M  V30 4627 H 447.999 2.82589 3.94045 0
M  V30 4628 N 449.342 -1.36122 0.79427 0
M  V30 4629 C 450.567 -2.03891 0.379871 0
M  V30 4630 C 450.992 -1.59488 -0.997251 0
M  V30 4631 O 450.35 -0.765652 -1.64339 0
M  V30 4632 C 450.398 -3.57687 0.457442 0
M  V30 4633 O 449.502 -4.08931 -0.5338 0
M  V30 4634 H 448.843 -0.6443 0.160541 0
M  V30 4635 H 451.373 -1.73976 1.07673 0
M  V30 4636 H 451.383 -4.06721 0.322792 0
M  V30 4637 H 450.058 -3.89357 1.46199 0
M  V30 4638 H 448.635 -3.71154 -0.360409 0
M  V30 4639 N 450.82 -0.546701 -1.47814 0
M  V30 4640 C 452.069 -0.0166497 -2.01693 0
M  V30 4641 C 452.382 1.33721 -1.42752 0
M  V30 4642 O 453.588 1.95658 -1.8823 0
M  V30 4643 C 452.044 0.0206769 -3.59894 0
M  V30 4644 C 451.652 -1.3293 -4.27824 0
M  V30 4645 C 453.396 0.498674 -4.21561 0
M  V30 4646 C 451.303 -1.25165 -5.78003 0
M  V30 4647 H 450.233 -0.0024541 -0.753996 0
M  V30 4648 H 452.884 -0.692984 -1.69912 0
M  V30 4649 H 451.266 0.76244 -3.88591 0
M  V30 4650 H 452.44 -2.08795 -4.10781 0
M  V30 4651 H 450.755 -1.74438 -3.78101 0
M  V30 4652 H 453.352 0.575 -5.31599 0
M  V30 4653 H 453.695 1.5083 -3.88016 0
M  V30 4654 H 454.228 -0.18791 -3.97356 0
M  V30 4655 H 450.967 -2.23695 -6.1615 0
M  V30 4656 H 450.487 -0.53464 -5.97412 0
M  V30 4657 H 452.166 -0.949299 -6.39998 0
M  V30 4658 N 452.299 1.55045 -0.282633 0
M  V30 4659 C 453.546 1.9976 0.33199 0
M  V30 4660 C 453.874 1.17105 1.55295 0
M  V30 4661 O 453.129 0.230599 1.94337 0
M  V30 4662 C 453.428 3.49422 0.750938 0
M  V30 4663 C 453.094 4.4941 -0.366228 0
M  V30 4664 C 451.756 4.76471 -0.672964 0
M  V30 4665 C 454.108 5.09054 -1.11864 0
M  V30 4666 C 451.436 5.60442 -1.73556 0
M  V30 4667 C 453.788 5.9418 -2.17102 0
M  V30 4668 C 452.452 6.19558 -2.48402 0
M  V30 4669 H 451.722 0.730974 0.121484 0
M  V30 4670 H 454.369 1.8732 -0.39791 0
M  V30 4671 H 452.674 3.59377 1.56063 0
M  V30 4672 H 454.371 3.81432 1.23736 0
M  V30 4673 H 450.961 4.2844 -0.117041 0
M  V30 4674 H 455.145 4.88165 -0.894925 0
M  V30 4675 H 450.401 5.78349 -1.983 0
M  V30 4676 H 454.575 6.39427 -2.75873 0
M  V30 4677 H 452.202 6.84417 -3.30874 0
M  V30 4678 N 453.777 0.010035 1.57597 0
M  V30 4679 C 455.026 -0.671945 1.90178 0
M  V30 4680 C 455.339 -1.74376 0.886131 0
M  V30 4681 O 456.545 -2.48107 1.10252 0
M  V30 4682 C 455.001 -1.24636 3.3763 0
M  V30 4683 C 454.609 -0.208838 4.47513 0
M  V30 4684 C 456.353 -1.90595 3.79307 0
M  V30 4685 C 454.26 -0.793814 5.86048 0
M  V30 4686 H 453.19 -0.25474 0.709665 0
M  V30 4687 H 455.841 0.0722206 1.83358 0
M  V30 4688 H 454.223 -2.04152 3.3932 0
M  V30 4689 H 455.397 0.562463 4.57354 0
M  V30 4690 H 453.712 0.350889 4.14919 0
M  V30 4691 H 456.309 -2.35284 4.80151 0
M  V30 4692 H 456.652 -2.74074 3.13352 0
M  V30 4693 H 457.185 -1.17798 3.79958 0
M  V30 4694 H 453.924 0.00240855 6.555 0
M  V30 4695 H 453.444 -1.53404 5.79851 0
M  V30 4696 H 455.123 -1.2894 6.34022 0
M  V30 4697 N 455.255 -1.55392 -0.262866 0
M  V30 4698 C 456.48 -1.80847 -1.01533 0
M  V30 4699 C 456.905 -0.584946 -1.78774 0
M  V30 4700 O 456.263 0.465701 -1.75217 0
M  V30 4701 C 456.311 -3.03866 -1.94159 0
M  V30 4702 O 455.415 -2.79662 -3.03089 0
M  V30 4703 H 454.756 -0.597441 -0.289759 0
M  V30 4704 H 457.286 -2.02553 -0.288698 0
M  V30 4705 H 457.296 -3.32872 -2.35924 0
M  V30 4706 H 455.971 -3.92564 -1.37354 0
M  V30 4707 H 454.548 -2.61781 -2.65566 0
M  V30 4708 N 456.733 0.527833 -1.48498 0
M  V30 4709 C 457.961 1.30823 -1.6029 0
M  V30 4710 C 458.376 1.86945 -0.263974 0
M  V30 4711 O 457.733 1.6651 0.747034 0
M  V30 4712 C 457.784 2.45756 -2.65116 0
M  V30 4713 O 457.505 1.91946 -3.93813 0
M  V30 4714 C 459.006 3.37543 -2.87367 0
M  V30 4715 H 456.226 0.397763 -0.540394 0
M  V30 4716 H 458.77 0.636529 -1.94341 0
M  V30 4717 H 456.925 3.08806 -2.33917 0
M  V30 4718 H 457.339 2.67195 -4.51339 0
M  V30 4719 H 458.813 4.14532 -3.6451 0
M  V30 4720 H 459.29 3.92905 -1.9627 0
M  V30 4721 H 459.896 2.80283 -3.19878 0
M  V30 4722 N 458.211 1.37122 0.776871 0
M  V30 4723 C 459.457 1.3325 1.53675 0
M  V30 4724 C 459.812 -0.0839891 1.92217 0
M  V30 4725 O 459.105 -1.04145 1.60824 0
M  V30 4726 C 459.299 2.20068 2.81611 0
M  V30 4727 C 459.128 3.70016 2.55574 0
M  V30 4728 C 457.898 4.39144 2.4996 0
M  V30 4729 C 460.096 4.62996 2.23917 0
M  V30 4730 N 458.078 5.74663 2.15953 0
M  V30 4731 C 459.449 5.86854 2.00005 0
M  V30 4732 C 461.504 4.51433 2.1003 0
M  V30 4733 C 460.207 7.00446 1.63609 0
M  V30 4734 C 462.233 5.64905 1.75033 0
M  V30 4735 C 461.595 6.8781 1.51977 0
M  V30 4736 H 457.694 0.542878 0.562856 0
M  V30 4737 H 460.278 1.72295 0.906784 0
M  V30 4738 H 458.449 1.83248 3.42454 0
M  V30 4739 H 460.181 2.07492 3.47461 0
M  V30 4740 H 456.936 3.92088 2.65639 0
M  V30 4741 H 457.36 6.46268 2.0166 0
M  V30 4742 H 462.002 3.56987 2.26539 0
M  V30 4743 H 459.72 7.94831 1.45837 0
M  V30 4744 H 463.306 5.57926 1.64952 0
M  V30 4745 H 462.186 7.74126 1.25296 0
M  V30 4746 N 459.689 -1.00246 1.21608 0
M  V30 4747 C 460.619 -2.10921 1.00172 0
M  V30 4748 C 461.6 -1.69938 -0.0741587 0
M  V30 4749 O 462.785 -1.94009 0.0861753 0
M  V30 4750 C 459.915 -3.42618 0.568355 0
M  V30 4751 C 458.869 -3.97407 1.58909 0
M  V30 4752 C 458.195 -5.25038 1.01187 0
M  V30 4753 C 459.495 -4.2918 2.97661 0
M  V30 4754 H 461.189 -2.29112 1.92739 0
M  V30 4755 H 458.735 -1.10101 0.928102 0
M  V30 4756 H 460.688 -4.19444 0.405555 0
M  V30 4757 H 459.412 -3.24227 -0.392961 0
M  V30 4758 H 458.071 -3.22703 1.73949 0
M  V30 4759 H 457.719 -5.02982 0.0421965 0
M  V30 4760 H 457.419 -5.62661 1.6937 0
M  V30 4761 H 458.943 -6.04507 0.860448 0
M  V30 4762 H 460.357 -4.96839 2.86049 0
M  V30 4763 H 458.754 -4.77952 3.6288 0
M  V30 4764 H 459.824 -3.3735 3.48315 0
M  V30 4765 N 461.167 -1.02423 -1.1978 0
M  V30 4766 C 462.395 -0.737456 -1.93311 0
M  V30 4767 C 462.81 0.703023 -1.75223 0
M  V30 4768 O 462.167 1.47761 -1.07112 0
M  V30 4769 C 462.218 -1.0733 -3.45199 0
M  V30 4770 O 461.939 -2.4572 -3.62702 0
M  V30 4771 C 463.44 -0.80866 -4.35862 0
M  V30 4772 H 460.66 -0.2702 -0.614193 0
M  V30 4773 H 463.204 -1.36747 -1.52054 0
M  V30 4774 H 461.359 -0.488545 -3.84307 0
M  V30 4775 H 461.773 -2.58081 -4.56612 0
M  V30 4776 H 463.247 -1.09365 -5.41057 0
M  V30 4777 H 463.724 0.257025 -4.38447 0
M  V30 4778 H 464.33 -1.37592 -4.02428 0
M  V30 4779 N 462.645 1.35699 -0.801477 0
M  V30 4780 C 463.608 2.28199 -0.213994 0
M  V30 4781 C 464.608 1.49359 0.595691 0
M  V30 4782 O 465.798 1.69186 0.414921 0
M  V30 4783 C 462.93 3.33587 0.702297 0
M  V30 4784 H 464.123 2.81666 -1.02976 0
M  V30 4785 H 461.676 1.45467 -0.571759 0
M  V30 4786 H 462.411 2.85297 1.54195 0
M  V30 4787 H 462.196 3.91906 0.123484 0
M  V30 4788 H 463.686 4.02638 1.10783 0
M  V30 4789 N 464.123 0.554532 1.47522 0
M  V30 4790 C 465.086 -0.184174 2.28459 0
M  V30 4791 C 466.086 -0.845195 1.36796 0
M  V30 4792 O 467.276 -0.701467 1.59452 0
M  V30 4793 C 464.408 -1.26903 3.16399 0
M  V30 4794 H 465.601 0.526751 2.95238 0
M  V30 4795 H 463.154 0.311375 1.53167 0
M  V30 4796 H 463.889 -2.01244 2.54306 0
M  V30 4797 H 463.674 -0.799883 3.83854 0
M  V30 4798 H 465.164 -1.78794 3.77389 0
M  V30 4799 N 465.601 -1.54893 0.290851 0
M  V30 4800 C 466.849 -1.99538 -0.320756 0
M  V30 4801 C 467.17 -1.18075 -1.55188 0
M  V30 4802 O 466.44 -0.274162 -1.93972 0
M  V30 4803 H 465.02 -0.737052 -0.121507 0
M  V30 4804 H 467.682 -1.90755 0.399832 0
M  V30 4805 H 466.778 -3.06282 -0.599802 0
M  V30 4806 N 467.08 -0.0183926 -1.57589 0
M  V30 4807 C 468.327 0.662562 -1.91354 0
M  V30 4808 C 468.655 1.72747 -0.893788 0
M  V30 4809 O 467.91 1.9545 0.0988509 0
M  V30 4810 C 468.209 1.32676 -3.31861 0
M  V30 4811 C 467.875 0.393267 -4.49182 0
M  V30 4812 C 466.537 0.136302 -4.81007 0
M  V30 4813 C 468.889 -0.248366 -5.20608 0
M  V30 4814 C 466.217 -0.770282 -5.81621 0
M  V30 4815 C 468.569 -1.14294 -6.22189 0
M  V30 4816 C 467.233 -1.4089 -6.52462 0
M  V30 4817 H 466.503 0.242448 -0.700214 0
M  V30 4818 H 469.15 -0.0778629 -1.91342 0
M  V30 4819 H 467.455 2.14168 -3.28084 0
M  V30 4820 H 469.152 1.86001 -3.55253 0
M  V30 4821 H 465.742 0.603723 -4.24327 0
M  V30 4822 H 469.926 -0.062883 -4.9626 0
M  V30 4823 H 465.182 -0.984154 -6.03427 0
M  V30 4824 H 469.356 -1.64637 -6.76659 0
M  V30 4825 H 466.983 -2.11306 -7.30242 0
M  V30 4826 N 468.558 1.5553 0.254621 0
M  V30 4827 C 469.807 1.76202 0.981612 0
M  V30 4828 C 470.12 0.580883 1.86776 0
M  V30 4829 O 471.326 0.670448 2.63092 0
M  V30 4830 C 469.782 3.11921 1.79537 0
M  V30 4831 C 469.39 4.37659 0.956991 0
M  V30 4832 C 471.134 3.41936 2.51555 0
M  V30 4833 C 469.041 5.64411 1.76619 0
M  V30 4834 H 467.971 0.656841 0.370237 0
M  V30 4835 H 470.622 1.81969 0.236556 0
M  V30 4836 H 469.004 3.00241 2.58208 0
M  V30 4837 H 470.178 4.60307 0.21315 0
M  V30 4838 H 468.493 4.14922 0.350497 0
M  V30 4839 H 471.09 4.33849 3.12536 0
M  V30 4840 H 471.433 2.62905 3.22779 0
M  V30 4841 H 471.966 3.54797 1.799 0
M  V30 4842 H 468.705 6.46241 1.09783 0
M  V30 4843 H 468.225 5.45877 2.48551 0
M  V30 4844 H 469.904 6.03386 2.33527 0
M  V30 4845 N 470.036 -0.519951 1.48776 0
M  V30 4846 C 470.986 -1.61995 1.60442 0
M  V30 4847 C 471.97 -1.54155 0.460991 0
M  V30 4848 O 473.162 -1.62006 0.712965 0
M  V30 4849 C 470.291 -3.00683 1.65664 0
M  V30 4850 C 469.377 -3.1359 2.8552 0
M  V30 4851 N 469.768 -2.96441 4.09825 0
M  V30 4852 C 468.066 -3.44662 2.83062 0
M  V30 4853 C 468.767 -3.1303 4.90293 0
M  V30 4854 N 467.743 -3.41058 4.23297 0
M  V30 4855 H 471.545 -1.47362 2.54287 0
M  V30 4856 H 469.059 -0.725649 1.45286 0
M  V30 4857 H 471.056 -3.79712 1.72117 0
M  V30 4858 H 469.716 -3.16401 0.729425 0
M  V30 4859 H 470.727 -2.72999 4.40104 0
M  V30 4860 H 467.404 -3.66675 1.9964 0
M  V30 4861 H 468.794 -3.04424 5.98979 0
M  V30 4862 N 471.514 -1.37532 -0.769588 0
M  V30 4863 C 472.444 -1.36172 -1.89682 0
M  V30 4864 C 473.425 -0.23001 -1.68538 0
M  V30 4865 O 474.61 -0.43069 -1.89364 0
M  V30 4866 C 471.74 -1.1701 -3.26995 0
M  V30 4867 C 470.694 -2.27216 -3.62708 0
M  V30 4868 C 470.02 -1.93174 -4.98586 0
M  V30 4869 C 471.32 -3.6941 -3.69234 0
M  V30 4870 H 473.014 -2.30499 -1.91078 0
M  V30 4871 H 470.56 -1.10953 -0.917902 0
M  V30 4872 H 472.513 -1.14688 -4.05493 0
M  V30 4873 H 471.237 -0.191395 -3.26039 0
M  V30 4874 H 469.896 -2.28697 -2.86519 0
M  V30 4875 H 469.544 -0.938281 -4.94171 0
M  V30 4876 H 469.244 -2.66973 -5.23449 0
M  V30 4877 H 470.768 -1.92443 -5.79481 0
M  V30 4878 H 472.182 -3.70047 -4.37879 0
M  V30 4879 H 470.579 -4.4228 -4.05597 0
M  V30 4880 H 471.649 -4.0288 -2.69844 0
M  V30 4881 N 472.992 0.995999 -1.22138 0
M  V30 4882 C 474.238 1.73767 -1.04561 0
M  V30 4883 C 474.571 1.89633 0.418698 0
M  V30 4884 O 473.846 1.43723 1.3105 0
M  V30 4885 C 474.129 3.14505 -1.75382 0
M  V30 4886 C 473.982 3.06306 -3.29388 0
M  V30 4887 C 475.301 4.13615 -1.50369 0
M  V30 4888 H 472.42 0.630728 -0.38125 0
M  V30 4889 H 475.062 1.16057 -1.50435 0
M  V30 4890 H 473.212 3.63775 -1.36383 0
M  V30 4891 H 474.884 2.64681 -3.77812 0
M  V30 4892 H 473.127 2.43186 -3.59226 0
M  V30 4893 H 473.798 4.05884 -3.74116 0
M  V30 4894 H 476.274 3.73089 -1.84239 0
M  V30 4895 H 475.15 5.10212 -2.02421 0
M  V30 4896 H 475.411 4.39949 -0.435611 0
M  V30 4897 N 474.47 1.03057 1.19235 0
M  V30 4898 C 475.38 0.622922 2.26179 0
M  V30 4899 C 476.396 -0.346113 1.70523 0
M  V30 4900 O 477.572 -0.203572 2.00369 0
M  V30 4901 C 474.637 -0.0182063 3.46695 0
M  V30 4902 C 473.698 0.998546 4.17526 0
M  V30 4903 C 472.931 0.387917 5.32288 0
M  V30 4904 O 473.154 -0.808668 5.64639 0
M  V30 4905 O 472.088 1.1116 5.91546 0
M  V30 4906 H 475.914 1.51363 2.63292 0
M  V30 4907 H 473.499 0.800856 1.26122 0
M  V30 4908 H 475.381 -0.375606 4.19723 0
M  V30 4909 H 474.056 -0.882895 3.11427 0
M  V30 4910 H 472.963 1.40756 3.4661 0
M  V30 4911 H 474.296 1.83366 4.56769 0
M  V30 4912 N 475.948 -1.35272 0.808662 0
M  V30 4913 C 476.896 -2.31663 0.208606 0
M  V30 4914 C 477.89 -1.56731 -0.642778 0
M  V30 4915 O 479.096 -1.71843 -0.53571 0
M  V30 4916 H 475.471 -0.750421 0.0486993 0
M  V30 4917 H 477.442 -2.79814 1.03666 0
M  V30 4918 C 476.191 -3.42008 -0.626573 0
M  V30 4919 H 475.514 -3.99795 0.0192103 0
M  V30 4920 H 476.954 -4.11727 -1.01278 0
M  V30 4921 C 475.413 -2.85226 -1.79298 0
M  V30 4922 O 475.943 -2.78945 -2.89055 0
M  V30 4923 N 474.149 -2.42245 -1.60516 0
M  V30 4924 H 473.696 -2.47554 -0.712375 0
M  V30 4925 H 473.654 -2.04603 -2.38715 0
M  V30 4926 N 477.426 -0.562348 -1.47226 0
M  V30 4927 C 478.651 -0.0432632 -2.07355 0
M  V30 4928 C 479.076 1.24332 -1.41149 0
M  V30 4929 O 478.434 1.74603 -0.488226 0
M  V30 4930 C 478.482 0.130288 -3.60365 0
M  V30 4931 O 477.586 1.19166 -3.94808 0
M  V30 4932 H 476.927 -0.0536334 -0.66183 0
M  V30 4933 H 479.457 -0.779495 -1.89169 0
M  V30 4934 H 479.467 0.342881 -4.06557 0
M  V30 4935 H 478.142 -0.809389 -4.07948 0
M  V30 4936 H 476.719 0.959153 -3.60354 0
M  V30 4937 N 478.904 1.54736 -0.299062 0
M  V30 4938 C 480.152 1.99706 0.31017 0
M  V30 4939 C 480.473 1.18896 1.54559 0
M  V30 4940 O 479.743 0.284445 1.93824 0
M  V30 4941 H 478.323 0.737686 0.117596 0
M  V30 4942 H 480.985 1.9054 -0.409943 0
M  V30 4943 H 480.081 3.06596 0.58355 0
M  V30 4944 N 480.382 0.0267497 1.57577 0
M  V30 4945 C 481.659 -0.690926 1.82991 0
M  V30 4946 C 482.039 -1.90471 0.910164 0
M  V30 4947 O 481.387 -2.28474 -0.0347985 0
M  V30 4948 C 481.597 -1.07139 3.32148 0
M  V30 4949 C 482.945 -1.46402 3.98562 0
M  V30 4950 O 483.969 -1.16443 3.36629 0
M  V30 4951 O 482.828 -2.02214 5.07712 0
M  V30 4952 H 479.922 -0.338747 0.75444 0
M  V30 4953 H 482.468 0.0542506 1.69613 0
M  V30 4954 H 481.24 -0.207394 3.9075 0
M  V30 4955 H 480.863 -1.87481 3.50623 0
M  V30 4956 N 481.861 -1.55662 -0.24637 0
M  V30 4957 C 483.272 -1.67953 -0.81539 0
M  V30 4958 C 483.623 -0.624302 -1.86002 0
M  V30 4959 O 482.748 0.229328 -2.15181 0
M  V30 4960 C 483.343 -3.04484 -1.48576 0
M  V30 4961 C 481.902 -3.18713 -2.00248 0
M  V30 4962 C 481.049 -2.6383 -0.853766 0
M  V30 4963 H 484 -1.58685 -0.0221692 0
M  V30 4964 H 484.021 -2.98959 -2.3538 0
M  V30 4965 H 483.533 -3.81264 -0.725222 0
M  V30 4966 H 481.634 -2.46757 -2.79181 0
M  V30 4967 H 481.747 -4.25628 -2.1995 0
M  V30 4968 H 480.111 -2.21667 -1.25442 0
M  V30 4969 H 480.894 -3.43135 -0.106302 0
M  V30 4970 N 483.339 0.512053 -1.4905 0
M  V30 4971 C 484.585 1.26613 -1.59187 0
M  V30 4972 C 484.94 1.90494 -0.270163 0
M  V30 4973 O 484.233 1.77204 0.728648 0
M  V30 4974 C 484.427 2.36446 -2.68008 0
M  V30 4975 C 484.256 1.83334 -4.10632 0
M  V30 4976 C 483.026 1.65131 -4.77556 0
M  V30 4977 C 485.224 1.35153 -4.96224 0
M  V30 4978 N 483.206 1.06833 -6.04533 0
M  V30 4979 C 484.577 0.889186 -6.13591 0
M  V30 4980 C 486.632 1.23623 -4.82309 0
M  V30 4981 C 485.335 0.322953 -7.18575 0
M  V30 4982 C 487.361 0.683978 -5.87431 0
M  V30 4983 C 486.723 0.2318 -7.04018 0
M  V30 4984 H 482.822 0.453678 -0.636946 0
M  V30 4985 H 485.406 0.575217 -1.86009 0
M  V30 4986 H 483.577 3.03012 -2.42978 0
M  V30 4987 H 485.309 3.03485 -2.67729 0
M  V30 4988 H 482.064 1.89178 -4.34176 0
M  V30 4989 H 482.488 0.796425 -6.72299 0
M  V30 4990 H 487.13 1.57184 -3.92496 0
M  V30 4991 H 484.848 -0.024943 -8.08096 0
M  V30 4992 H 488.434 0.597694 -5.78722 0
M  V30 4993 H 487.314 -0.188869 -7.83973 0
M  V30 4994 N 484.817 1.37938 0.762283 0
M  V30 4995 C 485.727 1.36681 1.90671 0
M  V30 4996 C 486.743 0.265078 1.71969 0
M  V30 4997 O 487.919 0.502055 1.95042 0
M  V30 4998 C 484.984 1.18211 3.25925 0
M  V30 4999 C 484.045 2.3811 3.57214 0
M  V30 5000 C 483.278 2.20512 4.86014 0
M  V30 5001 O 483.501 1.19429 5.57757 0
M  V30 5002 O 482.435 3.08911 5.16583 0
M  V30 5003 H 486.261 2.33091 1.94685 0
M  V30 5004 H 483.846 1.18767 0.906356 0
M  V30 5005 H 485.728 1.09937 4.06807 0
M  V30 5006 H 484.403 0.248807 3.22742 0
M  V30 5007 H 483.31 2.51958 2.76529 0
M  V30 5008 H 484.643 3.30041 3.65149 0
M  V30 5009 N 486.295 -0.989507 1.22664 0
M  V30 5010 C 487.243 -2.10148 0.997035 0
M  V30 5011 C 488.237 -1.6929 -0.0609783 0
M  V30 5012 O 489.443 -1.79766 0.0917523 0
M  V30 5013 H 485.818 -0.687256 0.305259 0
M  V30 5014 H 487.789 -2.26685 1.94053 0
M  V30 5015 C 486.538 -3.4257 0.595085 0
M  V30 5016 H 485.861 -3.74453 1.40089 0
M  V30 5017 H 487.301 -4.21344 0.473869 0
M  V30 5018 C 485.76 -3.29638 -0.695725 0
M  V30 5019 O 486.29 -3.61709 -1.74727 0
M  V30 5020 N 484.496 -2.82814 -0.668173 0
M  V30 5021 H 484.043 -2.56914 0.18787 0
M  V30 5022 H 484.001 -2.74544 -1.5321 0
M  V30 5023 N 487.773 -1.03688 -1.18687 0
M  V30 5024 C 489.02 -0.73803 -1.88572 0
M  V30 5025 C 489.348 0.733973 -1.8012 0
M  V30 5026 O 488.603 1.55098 -1.19344 0
M  V30 5027 C 488.902 -1.14477 -3.3857 0
M  V30 5028 C 488.568 -2.61641 -3.67226 0
M  V30 5029 C 487.23 -3.01846 -3.74757 0
M  V30 5030 C 489.582 -3.56812 -3.79914 0
M  V30 5031 C 486.91 -4.36118 -3.92451 0
M  V30 5032 C 489.262 -4.90799 -3.99123 0
M  V30 5033 C 487.926 -5.3068 -4.04888 0
M  V30 5034 H 487.196 -0.270064 -0.690034 0
M  V30 5035 H 489.843 -1.3012 -1.40503 0
M  V30 5036 H 488.148 -0.500337 -3.88592 0
M  V30 5037 H 489.845 -0.89095 -3.90977 0
M  V30 5038 H 486.435 -2.29498 -3.61979 0
M  V30 5039 H 490.619 -3.26899 -3.73431 0
M  V30 5040 H 485.875 -4.66542 -3.95157 0
M  V30 5041 H 490.049 -5.64451 -4.07882 0
M  V30 5042 H 487.676 -6.34733 -4.18351 0
M  V30 5043 N 489.251 1.34841 -0.815825 0
M  V30 5044 C 490.183 2.28409 -0.190265 0
M  V30 5045 C 491.196 1.50705 0.615771 0
M  V30 5046 O 492.385 1.72822 0.446616 0
M  V30 5047 C 489.485 3.30441 0.752446 0
M  V30 5048 C 488.658 4.37399 -0.00922152 0
M  V30 5049 C 487.717 5.19234 0.853351 0
M  V30 5050 O 486.743 5.68404 0.300919 0
M  V30 5051 N 487.945 5.38248 2.17416 0
M  V30 5052 H 490.71 2.82732 -0.994114 0
M  V30 5053 H 488.271 1.47289 -0.672129 0
M  V30 5054 H 490.263 3.82084 1.33394 0
M  V30 5055 H 488.833 2.76565 1.45707 0
M  V30 5056 H 488.053 3.86567 -0.771979 0
M  V30 5057 H 489.341 5.05992 -0.533807 0
M  V30 5058 H 488.739 4.99961 2.6468 0
M  V30 5059 H 487.296 5.93035 2.70467 0
M  V30 5060 N 490.729 0.570148 1.46925 0
M  V30 5061 C 491.677 -0.183181 2.31878 0
M  V30 5062 C 492.671 -0.896721 1.43719 0
M  V30 5063 O 493.877 -0.816536 1.60414 0
M  V30 5064 H 490.252 -0.077944 0.74795 0
M  V30 5065 H 492.223 0.552312 2.93244 0
M  V30 5066 C 490.972 -1.19172 3.2664 0
M  V30 5067 H 490.295 -0.652088 3.94446 0
M  V30 5068 H 491.735 -1.68946 3.88887 0
M  V30 5069 C 490.194 -2.24627 2.51086 0
M  V30 5070 O 490.724 -3.31773 2.26472 0
M  V30 5071 N 488.93 -1.98898 2.11867 0
M  V30 5072 H 488.477 -1.11777 2.32086 0
M  V30 5073 H 488.435 -2.6967 1.61634 0
M  V30 5074 N 492.207 -1.54576 0.307264 0
M  V30 5075 C 493.155 -2.25208 -0.581723 0
M  V30 5076 C 494.149 -1.26031 -1.13192 0
M  V30 5077 O 495.355 -1.43862 -1.08184 0
M  V30 5078 H 491.73 -0.723173 -0.206214 0
M  V30 5079 H 493.701 -2.98378 0.0364663 0
M  V30 5080 C 492.45 -3.01086 -1.73904 0
M  V30 5081 H 491.773 -3.77208 -1.32491 0
M  V30 5082 H 493.213 -3.5378 -2.33701 0
M  V30 5083 C 491.672 -2.08422 -2.64692 0
M  V30 5084 O 492.202 -1.65636 -3.65961 0
M  V30 5085 N 490.408 -1.74247 -2.32564 0
M  V30 5086 H 489.955 -2.09238 -1.50257 0
M  V30 5087 H 489.913 -1.12524 -2.93574 0
M  V30 5088 N 493.685 -0.035106 -1.57561 0
M  V30 5089 C 494.617 0.973604 -2.07494 0
M  V30 5090 C 495.63 1.28504 -0.999534 0
M  V30 5091 O 496.819 1.24864 -1.27559 0
M  V30 5092 C 493.919 2.29945 -2.48955 0
M  V30 5093 C 493.092 2.1723 -3.79644 0
M  V30 5094 C 492.151 3.328 -4.07592 0
M  V30 5095 O 491.177 3.09418 -4.77754 0
M  V30 5096 N 492.379 4.56779 -3.58236 0
M  V30 5097 H 495.144 0.547525 -2.94656 0
M  V30 5098 H 492.705 0.151515 -1.61189 0
M  V30 5099 H 494.697 3.06097 -2.64739 0
M  V30 5100 H 493.267 2.64173 -1.67126 0
M  V30 5101 H 492.487 1.25768 -3.73599 0
M  V30 5102 H 493.775 2.05945 -4.65257 0
M  V30 5103 H 493.173 4.78668 -3.01485 0
M  V30 5104 H 491.73 5.30079 -3.79288 0
M  V30 5105 N 495.163 1.55791 0.238111 0
M  V30 5106 C 496.126 1.90239 1.27835 0
M  V30 5107 C 497.126 0.779552 1.4064 0
M  V30 5108 O 498.316 1.04747 1.3919 0
M  V30 5109 C 495.448 2.13859 2.65475 0
M  V30 5110 H 496.641 2.83262 0.985034 0
M  V30 5111 H 494.194 1.48818 0.477799 0
M  V30 5112 H 494.929 1.23334 2.99932 0
M  V30 5113 H 494.714 2.95643 2.57561 0
M  V30 5114 H 496.204 2.41664 3.40571 0
M  V30 5115 N 496.642 -0.504142 1.49319 0
M  V30 5116 C 497.572 -1.61473 1.68667 0
M  V30 5117 C 498.553 -1.61455 0.535378 0
M  V30 5118 O 499.738 -1.78245 0.770868 0
M  V30 5119 C 496.868 -2.99971 1.75028 0
M  V30 5120 C 495.822 -3.14854 2.89916 0
M  V30 5121 C 495.148 -4.54671 2.81387 0
M  V30 5122 C 496.448 -2.95176 4.30893 0
M  V30 5123 H 498.142 -1.45535 2.61648 0
M  V30 5124 H 495.688 -0.698711 1.25913 0
M  V30 5125 H 497.641 -3.77562 1.8715 0
M  V30 5126 H 496.365 -3.1699 0.786441 0
M  V30 5127 H 495.024 -2.39687 2.77391 0
M  V30 5128 H 494.672 -4.68562 1.82917 0
M  V30 5129 H 494.372 -4.6557 3.58494 0
M  V30 5130 H 495.896 -5.34327 2.95512 0
M  V30 5131 H 497.31 -3.62538 4.44116 0
M  V30 5132 H 495.707 -3.17549 5.09198 0
M  V30 5133 H 496.777 -1.91332 4.45556 0
M  V30 5134 N 498.12 -1.38341 -0.754957 0
M  V30 5135 C 499.348 -1.37704 -1.54419 0
M  V30 5136 C 499.763 0.0335243 -1.8877 0
M  V30 5137 O 499.12 0.999773 -1.52679 0
M  V30 5138 C 499.171 -2.23136 -2.84416 0
M  V30 5139 O 498.892 -3.58697 -2.51531 0
M  V30 5140 C 500.393 -2.30664 -3.78562 0
M  V30 5141 H 497.613 -0.471061 -0.477852 0
M  V30 5142 H 500.157 -1.81902 -0.934446 0
M  V30 5143 H 498.312 -1.82403 -3.41772 0
M  V30 5144 H 498.726 -4.03665 -3.34896 0
M  V30 5145 H 500.2 -2.9473 -4.66732 0
M  V30 5146 H 500.677 -1.3199 -4.18898 0
M  V30 5147 H 501.283 -2.71781 -3.27131 0
M  V30 5148 N 499.598 0.982988 -1.23187 0
M  V30 5149 C 500.828 1.75666 -1.08743 0
M  V30 5150 C 501.236 1.85662 0.364195 0
M  V30 5151 O 500.579 1.33317 1.26382 0
M  V30 5152 C 500.641 3.20144 -1.63549 0
M  V30 5153 C 500.305 3.33665 -3.12277 0
M  V30 5154 C 501.302 3.20194 -4.096 0
M  V30 5155 C 498.987 3.58397 -3.51933 0
M  V30 5156 C 500.981 3.31256 -5.44563 0
M  V30 5157 C 498.668 3.69098 -4.87042 0
M  V30 5158 C 499.666 3.55537 -5.83166 0
M  V30 5159 O 499.354 3.65864 -7.1582 0
M  V30 5160 H 499.086 0.558194 -0.381307 0
M  V30 5161 H 501.64 1.24387 -1.63454 0
M  V30 5162 H 499.87 3.72659 -1.03256 0
M  V30 5163 H 501.559 3.79262 -1.4462 0
M  V30 5164 H 502.325 3.00987 -3.80305 0
M  V30 5165 H 498.204 3.68025 -2.77631 0
M  V30 5166 H 501.748 3.20588 -6.19572 0
M  V30 5167 H 497.645 3.87814 -5.16014 0
M  V30 5168 H 498.413 3.82675 -7.23534 0
M  V30 5169 N 501.076 1.04316 1.18135 0
M  V30 5170 C 502.322 0.758899 1.88712 0
M  V30 5171 C 502.677 -0.705863 1.78984 0
M  V30 5172 O 501.97 -1.50874 1.18101 0
M  V30 5173 C 502.164 1.16271 3.37958 0
M  V30 5174 C 501.993 2.66518 3.62213 0
M  V30 5175 C 500.763 3.33702 3.79436 0
M  V30 5176 C 502.961 3.64739 3.62588 0
M  V30 5177 N 500.943 4.72904 3.91452 0
M  V30 5178 C 502.314 4.89627 3.80348 0
M  V30 5179 C 504.369 3.58333 3.4569 0
M  V30 5180 C 503.072 6.08879 3.8296 0
M  V30 5181 C 505.098 4.77016 3.49586 0
M  V30 5182 C 504.46 6.00724 3.67845 0
M  V30 5183 H 500.559 0.329795 0.709055 0
M  V30 5184 H 503.143 1.33334 1.4188 0
M  V30 5185 H 501.314 0.616319 3.83479 0
M  V30 5186 H 503.046 0.829205 3.96114 0
M  V30 5187 H 499.801 2.84105 3.78921 0
M  V30 5188 H 500.225 5.45258 4.01277 0
M  V30 5189 H 504.867 2.63663 3.30517 0
M  V30 5190 H 502.585 7.03903 3.96921 0
M  V30 5191 H 506.171 4.73703 3.37782 0
M  V30 5192 H 505.051 6.91022 3.70753 0
M  V30 5193 N 502.554 -1.34406 0.822964 0
M  V30 5194 C 503.464 -2.33298 0.246838 0
M  V30 5195 C 504.48 -1.62625 -0.618797 0
M  V30 5196 O 505.656 -1.94391 -0.526685 0
M  V30 5197 C 502.721 -3.41785 -0.581731 0
M  V30 5198 C 501.782 -4.28206 0.306309 0
M  V30 5199 C 501.015 -5.31512 -0.48281 0
M  V30 5200 O 501.238 -5.43973 -1.71607 0
M  V30 5201 O 500.172 -6.01749 0.134884 0
M  V30 5202 H 503.998 -2.84401 1.06534 0
M  V30 5203 H 501.583 -1.37466 0.585108 0
M  V30 5204 H 503.465 -4.08028 -1.05313 0
M  V30 5205 H 502.14 -2.92925 -1.37756 0
M  V30 5206 H 501.047 -3.64885 0.825199 0
M  V30 5207 H 502.38 -4.80507 1.06649 0
M  V30 5208 N 504.032 -0.577932 -1.46621 0
M  V30 5209 C 505.272 -0.0643097 -2.04299 0
M  V30 5210 C 505.636 1.26967 -1.44026 0
M  V30 5211 O 506.837 1.87224 -1.92875 0
M  V30 5212 C 505.108 0.00547588 -3.574 0
M  V30 5213 S 506.667 0.462216 -4.36359 0
M  V30 5214 H 503.485 -0.0351573 -0.71013 0
M  V30 5215 H 506.087 -0.76935 -1.79725 0
M  V30 5216 H 504.791 -0.969423 -3.98786 0
M  V30 5217 H 504.322 0.733435 -3.86503 0
M  V30 5218 H 506.337 1.71791 -4.65513 0
M  V30 5219 N 505.51 1.54411 -0.315457 0
M  V30 5220 C 506.756 2.00716 0.289972 0
M  V30 5221 C 507.089 1.2034 1.5242 0
M  V30 5222 O 506.364 0.283579 1.92422 0
M  V30 5223 C 506.647 3.54507 0.632196 0
M  V30 5224 C 506.5 4.45615 -0.61218 0
M  V30 5225 C 507.819 4.15421 1.45305 0
M  V30 5226 H 504.938 0.729637 0.10392 0
M  V30 5227 H 507.58 1.8506 -0.430427 0
M  V30 5228 H 505.73 3.67979 1.24595 0
M  V30 5229 H 507.402 4.44026 -1.25053 0
M  V30 5230 H 505.645 4.15621 -1.24264 0
M  V30 5231 H 506.316 5.51022 -0.328379 0
M  V30 5232 H 508.792 4.05474 0.934331 0
M  V30 5233 H 507.668 5.23157 1.66127 0
M  V30 5234 H 507.929 3.68223 2.44671 0
M  V30 5235 N 506.988 0.0434614 1.5754 0
M  V30 5236 C 508.218 -0.640905 1.96408 0
M  V30 5237 C 508.626 -1.65365 0.919297 0
M  V30 5238 O 507.969 -1.83395 -0.105795 0
M  V30 5239 C 508.031 -1.39141 3.31482 0
M  V30 5240 C 507.695 -0.535375 4.53853 0
M  V30 5241 C 508.692 0.195335 5.19533 0
M  V30 5242 C 506.377 -0.468564 5.0011 0
M  V30 5243 C 508.371 0.981377 6.298 0
M  V30 5244 C 506.058 0.321171 6.10255 0
M  V30 5245 C 507.056 1.04484 6.74961 0
M  V30 5246 O 506.744 1.8216 7.8299 0
M  V30 5247 H 506.476 -0.180584 0.651433 0
M  V30 5248 H 509.03 0.103848 2.05137 0
M  V30 5249 H 507.26 -2.18162 3.19284 0
M  V30 5250 H 508.949 -1.96526 3.55151 0
M  V30 5251 H 509.715 0.15314 4.84758 0
M  V30 5252 H 505.594 -1.02142 4.49542 0
M  V30 5253 H 509.138 1.54674 6.80237 0
M  V30 5254 H 505.035 0.365032 6.44467 0
M  V30 5255 H 505.803 1.74289 7.99728 0
M  V30 5256 N 508.466 -1.55915 -0.229846 0
M  V30 5257 C 509.396 -1.94754 -1.28815 0
M  V30 5258 C 510.377 -0.814657 -1.49323 0
M  V30 5259 O 511.562 -1.07631 -1.61645 0
M  V30 5260 C 508.692 -2.25705 -2.63959 0
M  V30 5261 C 507.646 -3.41406 -2.5812 0
M  V30 5262 C 506.972 -3.57941 -3.97218 0
M  V30 5263 C 508.272 -4.76616 -2.13623 0
M  V30 5264 H 509.966 -2.83404 -0.965547 0
M  V30 5265 H 507.512 -1.36353 -0.463028 0
M  V30 5266 H 509.465 -2.51467 -3.38146 0
M  V30 5267 H 508.189 -1.339 -2.9789 0
M  V30 5268 H 506.848 -3.1568 -1.86391 0
M  V30 5269 H 506.496 -2.63526 -4.28443 0
M  V30 5270 H 506.196 -4.35757 -3.94195 0
M  V30 5271 H 507.72 -3.86042 -4.73079 0
M  V30 5272 H 509.134 -5.01637 -2.77549 0
M  V30 5273 H 507.531 -5.57655 -2.21677 0
M  V30 5274 H 508.601 -4.7253 -1.08829 0
M  V30 5275 N 509.944 0.496216 -1.49584 0
M  V30 5276 C 510.874 1.60576 -1.69521 0
M  V30 5277 C 511.855 1.61169 -0.543933 0
M  V30 5278 O 513.04 1.77834 -0.78031 0
M  V30 5279 C 510.17 2.99038 -1.76616 0
M  V30 5280 C 509.124 3.13312 -2.91581 0
M  V30 5281 C 508.45 4.53172 -2.83794 0
M  V30 5282 C 509.75 2.92886 -4.32452 0
M  V30 5283 H 511.444 1.44146 -2.62416 0
M  V30 5284 H 508.99 0.692024 -1.26282 0
M  V30 5285 H 510.943 3.76564 -1.8915 0
M  V30 5286 H 509.667 3.16568 -0.80324 0
M  V30 5287 H 508.326 2.38213 -2.78658 0
M  V30 5288 H 507.974 4.67585 -1.854 0
M  V30 5289 H 507.674 4.63662 -3.60958 0
M  V30 5290 H 509.198 5.32752 -2.98342 0
M  V30 5291 H 510.612 3.60178 -4.46032 0
M  V30 5292 H 509.009 3.14844 -5.10875 0
M  V30 5293 H 510.079 1.88966 -4.46565 0
M  V30 5294 N 511.423 1.38739 0.74761 0
M  V30 5295 C 512.356 1.3083 1.86972 0
M  V30 5296 C 513.334 0.184229 1.61553 0
M  V30 5297 O 514.518 0.36256 1.8498 0
M  V30 5298 C 511.645 1.02854 3.22705 0
M  V30 5299 C 510.691 2.17281 3.67003 0
M  V30 5300 S 511.524 3.79468 3.77842 0
M  V30 5301 C 512.68 3.53692 5.16385 0
M  V30 5302 H 512.913 2.258 1.93395 0
M  V30 5303 H 510.446 1.24646 0.911199 0
M  V30 5304 H 512.404 0.87397 4.01089 0
M  V30 5305 H 511.065 0.0959295 3.13953 0
M  V30 5306 H 510.258 1.93267 4.65472 0
M  V30 5307 H 509.86 2.28876 2.9579 0
M  V30 5308 H 512.152 3.10176 6.02327 0
M  V30 5309 H 513.095 4.51576 5.45422 0
M  V30 5310 H 513.503 2.8807 4.85464 0
M  V30 5311 N 512.901 -0.976442 1.23707 0
M  V30 5312 C 514.147 -1.72081 1.07312 0
M  V30 5313 C 514.48 -1.90275 -0.388476 0
M  V30 5314 O 513.755 -1.4579 -1.28746 0
M  V30 5315 C 514.038 -3.11675 1.80363 0
M  V30 5316 C 513.891 -3.01027 3.3422 0
M  V30 5317 C 515.21 -4.1117 1.5693 0
M  V30 5318 H 512.329 -0.624583 0.391236 0
M  V30 5319 H 514.971 -1.13649 1.52263 0
M  V30 5320 H 513.121 -3.61559 1.42153 0
M  V30 5321 H 514.793 -2.58637 3.81975 0
M  V30 5322 H 513.036 -2.3744 3.63049 0
M  V30 5323 H 513.707 -3.9988 3.80525 0
M  V30 5324 H 516.183 -3.7011 1.90151 0
M  V30 5325 H 515.059 -5.06928 2.10513 0
M  V30 5326 H 515.32 -4.392 0.505548 0
M  V30 5327 N 514.379 -1.04941 -1.1758 0
M  V30 5328 C 515.607 -0.778294 -1.91703 0
M  V30 5329 C 516.022 0.665697 -1.76675 0
M  V30 5330 O 515.379 1.45456 -1.10222 0
M  V30 5331 C 515.43 -1.14628 -3.42845 0
M  V30 5332 O 515.151 -2.53359 -3.57409 0
M  V30 5333 C 516.652 -0.900931 -4.34049 0
M  V30 5334 H 513.872 -0.283167 -0.608323 0
M  V30 5335 H 516.416 -1.39942 -1.49119 0
M  V30 5336 H 514.571 -0.569953 -3.83184 0
M  V30 5337 H 514.985 -2.67709 -4.51035 0
M  V30 5338 H 516.459 -1.20817 -5.38616 0
M  V30 5339 H 516.936 0.163966 -4.38894 0
M  V30 5340 H 517.542 -1.46097 -3.99419 0
M  V30 5341 N 515.857 1.33968 -0.830081 0
M  V30 5342 C 516.79 2.27303 -0.202182 0
M  V30 5343 C 517.768 1.49235 0.645581 0
M  V30 5344 O 518.952 1.78433 0.607762 0
M  V30 5345 C 516.079 3.31025 0.716932 0
M  V30 5346 C 515.125 4.26466 -0.0542271 0
M  V30 5347 S 515.958 5.16707 -1.40622 0
M  V30 5348 C 517.114 6.23962 -0.492167 0
M  V30 5349 H 517.347 2.8021 -0.99346 0
M  V30 5350 H 514.88 1.41124 -0.626359 0
M  V30 5351 H 516.838 3.91271 1.24165 0
M  V30 5352 H 515.499 2.76951 1.4818 0
M  V30 5353 H 514.692 4.99858 0.644785 0
M  V30 5354 H 514.294 3.7051 -0.509722 0
M  V30 5355 H 516.586 6.76774 0.31347 0
M  V30 5356 H 517.529 6.97927 -1.19599 0
M  V30 5357 H 517.937 5.64447 -0.0774176 0
M  V30 5358 N 517.335 0.585699 1.46312 0
M  V30 5359 C 518.56 0.0762461 2.0726 0
M  V30 5360 C 518.985 -1.22071 1.43109 0
M  V30 5361 O 518.343 -1.73804 0.515942 0
M  V30 5362 C 518.391 -0.0729404 3.60526 0
M  V30 5363 O 517.495 -1.1287 3.96654 0
M  V30 5364 H 516.836 0.0641558 0.660893 0
M  V30 5365 H 519.366 0.809492 1.87905 0
M  V30 5366 H 519.376 -0.278158 4.07051 0
M  V30 5367 H 518.051 0.874188 4.06609 0
M  V30 5368 H 516.628 -0.901703 3.61834 0
M  V30 5369 N 518.813 -1.54241 0.323641 0
M  V30 5370 C 520.041 -2.04985 -0.280871 0
M  V30 5371 C 520.456 -1.19978 -1.45777 0
M  V30 5372 O 519.813 -0.230471 -1.81039 0
M  V30 5373 C 519.864 -3.54353 -0.715258 0
M  V30 5374 O 519.585 -4.36132 0.414817 0
M  V30 5375 C 521.086 -4.21189 -1.38257 0
M  V30 5376 H 518.306 -0.66851 -0.0577502 0
M  V30 5377 H 520.85 -1.99029 0.469852 0
M  V30 5378 H 519.005 -3.60596 -1.41596 0
M  V30 5379 H 519.419 -5.2445 0.0725227 0
M  V30 5380 H 520.893 -5.27154 -1.63745 0
M  V30 5381 H 521.37 -3.72307 -2.32989 0
M  V30 5382 H 521.976 -4.19085 -0.724447 0
M  V30 5383 N 520.291 -0.0518155 -1.57515 0
M  V30 5384 C 521.537 0.622745 -1.93002 0
M  V30 5385 C 521.87 1.70456 -0.930499 0
M  V30 5386 O 521.145 1.94452 0.0434086 0
M  V30 5387 C 521.428 1.21824 -3.38867 0
M  V30 5388 C 521.281 0.144434 -4.49568 0
M  V30 5389 C 522.6 2.12968 -3.8514 0
M  V30 5390 H 519.719 0.22491 -0.701844 0
M  V30 5391 H 522.361 -0.113711 -1.89659 0
M  V30 5392 H 520.511 1.8459 -3.41846 0
M  V30 5393 H 522.183 -0.48753 -4.58717 0
M  V30 5394 H 520.426 -0.527424 -4.30582 0
M  V30 5395 H 521.097 0.601127 -5.48717 0
M  V30 5396 H 523.573 1.60163 -3.8404 0
M  V30 5397 H 522.449 2.51578 -4.87852 0
M  V30 5398 H 522.71 3.03004 -3.21934 0
M  V30 5399 N 521.769 1.56035 0.221574 0
M  V30 5400 C 523.017 1.78693 0.944102 0
M  V30 5401 C 523.338 0.620317 1.8487 0
M  V30 5402 O 522.608 -0.362784 1.92512 0
M  V30 5403 H 521.188 0.659082 0.351597 0
M  V30 5404 H 523.85 1.93497 0.233435 0
M  V30 5405 H 522.946 2.70837 1.55093 0
M  V30 5406 N 523.247 -0.488276 1.49845 0
M  V30 5407 C 524.477 -1.26344 1.63465 0
M  V30 5408 C 524.885 -1.86637 0.310379 0
M  V30 5409 O 524.228 -1.69184 -0.715712 0
M  V30 5410 C 524.29 -2.42407 2.65479 0
M  V30 5411 C 523.954 -2.02886 4.09495 0
M  V30 5412 C 524.951 -1.56124 4.95904 0
M  V30 5413 C 522.636 -2.12131 4.55308 0
M  V30 5414 C 524.63 -1.19129 6.26169 0
M  V30 5415 C 522.317 -1.74747 5.85582 0
M  V30 5416 C 523.315 -1.28322 6.70837 0
M  V30 5417 O 523.003 -0.914491 7.98682 0
M  V30 5418 H 522.735 -0.388921 0.552916 0
M  V30 5419 H 525.289 -0.591288 1.96705 0
M  V30 5420 H 523.519 -3.12739 2.27445 0
M  V30 5421 H 525.208 -3.04409 2.68495 0
M  V30 5422 H 525.974 -1.48417 4.61733 0
M  V30 5423 H 521.853 -2.47217 3.89107 0
M  V30 5424 H 525.397 -0.828211 6.92666 0
M  V30 5425 H 521.294 -1.82109 6.19279 0
M  V30 5426 H 522.062 -1.04485 8.11804 0
M  V30 5427 N 524.725 -1.39134 -0.740242 0
M  V30 5428 C 525.973 -1.35803 -1.49673 0
M  V30 5429 C 526.294 0.0470897 -1.94943 0
M  V30 5430 O 525.564 0.997347 -1.68611 0
M  V30 5431 H 524.144 -0.499736 -0.555224 0
M  V30 5432 H 526.806 -1.73947 -0.879107 0
M  V30 5433 H 525.902 -2.0174 -2.38133 0
M  V30 5434 N 526.204 0.969867 -1.24223 0
M  V30 5435 C 527.481 1.68774 -0.988664 0
M  V30 5436 C 527.861 2.05342 0.489673 0
M  V30 5437 O 527.209 1.75486 1.46345 0
M  V30 5438 C 527.419 2.92135 -1.90941 0
M  V30 5439 C 528.767 3.64422 -2.17903 0
M  V30 5440 O 529.791 3.02188 -1.88576 0
M  V30 5441 O 528.65 4.76446 -2.67697 0
M  V30 5442 H 525.744 0.737736 -0.37373 0
M  V30 5443 H 528.29 1.02415 -1.35312 0
M  V30 5444 H 527.062 2.61788 -2.90831 0
M  V30 5445 H 526.685 3.66228 -1.54798 0
M  V30 5446 N 527.682 1.05563 1.17022 0
M  V30 5447 C 528.928 0.769074 1.87652 0
M  V30 5448 C 529.261 -0.702326 1.81055 0
M  V30 5449 O 528.536 -1.5139 1.22112 0
M  V30 5450 C 528.819 1.25492 3.37526 0
M  V30 5451 C 528.672 2.78953 3.52853 0
M  V30 5452 C 529.991 0.856919 4.31677 0
M  V30 5453 H 527.11 0.280854 0.681388 0
M  V30 5454 H 529.752 1.31027 1.37593 0
M  V30 5455 H 527.902 0.794516 3.80289 0
M  V30 5456 H 529.574 3.33146 3.19079 0
M  V30 5457 H 527.817 3.18046 2.95007 0
M  V30 5458 H 528.488 3.08011 4.58076 0
M  V30 5459 H 530.964 1.25334 3.96775 0
M  V30 5460 H 529.84 1.22443 5.35069 0
M  V30 5461 H 530.101 -0.238787 4.41455 0
M  V30 5462 N 529.16 -1.33526 0.837174 0
M  V30 5463 C 530.39 -2.01754 0.444848 0
M  V30 5464 C 530.798 -1.63149 -0.958072 0
M  V30 5465 O 530.141 -0.839827 -1.63379 0
M  V30 5466 C 530.203 -3.56228 0.483917 0
M  V30 5467 C 529.867 -4.18205 1.84265 0
M  V30 5468 C 530.864 -4.37699 2.80563 0
M  V30 5469 C 528.549 -4.54667 2.13503 0
M  V30 5470 C 530.543 -4.928 4.04261 0
M  V30 5471 C 528.23 -5.09475 3.37458 0
M  V30 5472 C 529.228 -5.28488 4.32654 0
M  V30 5473 O 528.916 -5.82132 5.54417 0
M  V30 5474 H 528.648 -0.652928 0.175104 0
M  V30 5475 H 531.202 -1.71469 1.13082 0
M  V30 5476 H 529.432 -3.85833 -0.258826 0
M  V30 5477 H 531.121 -4.05752 0.109653 0
M  V30 5478 H 531.887 -4.0988 2.59274 0
M  V30 5479 H 527.766 -4.39164 1.40201 0
M  V30 5480 H 531.31 -5.07555 4.78574 0
M  V30 5481 H 527.207 -5.36725 3.58604 0
M  V30 5482 H 527.975 -6.00548 5.56133 0
M  V30 5483 N 530.638 -0.59345 -1.46 0
M  V30 5484 C 531.601 0.123538 -2.28867 0
M  V30 5485 C 532.601 0.808628 -1.38989 0
M  V30 5486 O 533.791 0.658945 -1.61256 0
M  V30 5487 C 530.923 1.1847 -3.19653 0
M  V30 5488 H 532.116 -0.604843 -2.93737 0
M  V30 5489 H 529.669 -0.351875 -1.52288 0
M  V30 5490 H 530.404 1.94431 -2.59552 0
M  V30 5491 H 530.189 0.69783 -3.8584 0
M  V30 5492 H 531.679 1.68726 -3.81997 0
M  V30 5493 N 532.116 1.54067 -0.331816 0
M  V30 5494 C 533.063 2.24623 0.530372 0
M  V30 5495 C 534.033 1.24009 1.10503 0
M  V30 5496 O 535.218 1.52712 1.14384 0
M  V30 5497 C 532.358 3.01374 1.68129 0
M  V30 5498 C 531.471 4.16821 1.13507 0
M  V30 5499 C 530.606 4.81085 2.25234 0
M  V30 5500 C 529.645 5.88621 1.67903 0
M  V30 5501 N 528.782 6.46713 2.73326 0
M  V30 5502 H 533.622 2.97898 -0.0778607 0
M  V30 5503 H 531.159 1.47014 -0.0501965 0
M  V30 5504 H 533.117 3.44125 2.35868 0
M  V30 5505 H 531.747 2.30419 2.26069 0
M  V30 5506 H 530.799 3.78796 0.348979 0
M  V30 5507 H 532.111 4.94203 0.675633 0
M  V30 5508 H 531.265 5.26846 3.00862 0
M  V30 5509 H 530.004 4.03102 2.74518 0
M  V30 5510 H 529.009 5.42254 0.907773 0
M  V30 5511 H 530.234 6.68506 1.19487 0
M  V30 5512 H 528.18 5.71599 3.21886 0
M  V30 5513 H 528.097 7.19532 2.3197 0
M  V30 5514 H 529.365 6.97129 3.48758 0
M  V30 5515 N 533.594 0.0601682 1.57485 0
M  V30 5516 C 534.822 -0.620937 1.97363 0
M  V30 5517 C 535.237 -1.63846 0.938082 0
M  V30 5518 O 534.594 -1.82339 -0.0766578 0
M  V30 5519 C 534.645 -1.29987 3.37321 0
M  V30 5520 O 534.366 -0.323081 4.36907 0
M  V30 5521 C 535.867 -2.06989 3.92008 0
M  V30 5522 H 533.087 -0.169135 0.649334 0
M  V30 5523 H 535.631 0.129132 2.04092 0
M  V30 5524 H 533.786 -2.0011 3.31715 0
M  V30 5525 H 534.2 -0.808754 5.18227 0
M  V30 5526 H 535.674 -2.49901 4.92192 0
M  V30 5527 H 536.151 -2.92173 3.2792 0
M  V30 5528 H 536.757 -1.41757 4.0098 0
M  V30 5529 N 535.072 -1.5615 -0.213296 0
M  V30 5530 C 536.3 -1.83638 -0.953139 0
M  V30 5531 C 536.715 -0.640362 -1.77609 0
M  V30 5532 O 536.072 0.391071 -1.78261 0
M  V30 5533 C 536.123 -3.09735 -1.86405 0
M  V30 5534 O 535.844 -4.24723 -1.07435 0
M  V30 5535 C 537.345 -3.5027 -2.71709 0
M  V30 5536 H 534.565 -0.610263 -0.278962 0
M  V30 5537 H 537.109 -2.03247 -0.226035 0
M  V30 5538 H 535.264 -2.92077 -2.545 0
M  V30 5539 H 535.678 -4.9641 -1.69343 0
M  V30 5540 H 537.152 -4.41515 -3.31313 0
M  V30 5541 H 537.629 -2.72406 -3.44516 0
M  V30 5542 H 538.235 -3.70396 -2.09015 0
M  V30 5543 N 536.55 0.480323 -1.50102 0
M  V30 5544 C 537.48 1.58769 -1.71215 0
M  V30 5545 C 538.461 1.60583 -0.560997 0
M  V30 5546 O 539.646 1.76996 -0.799127 0
M  V30 5547 C 536.776 2.97148 -1.79778 0
M  V30 5548 C 535.73 3.10201 -2.94888 0
M  V30 5549 C 535.056 4.50137 -2.88584 0
M  V30 5550 C 536.356 2.88283 -4.35534 0
M  V30 5551 H 538.05 1.41354 -2.6393 0
M  V30 5552 H 535.596 0.678591 -1.27008 0
M  V30 5553 H 537.549 3.74536 -1.93133 0
M  V30 5554 H 536.273 3.15699 -0.836772 0
M  V30 5555 H 534.932 2.35244 -2.81169 0
M  V30 5556 H 534.58 4.65593 -1.90349 0
M  V30 5557 H 534.28 4.59808 -3.65856 0
M  V30 5558 H 535.804 5.29558 -3.03976 0
M  V30 5559 H 537.218 3.55427 -4.49827 0
M  V30 5560 H 535.615 3.09408 -5.14186 0
M  V30 5561 H 536.685 1.84219 -4.48544 0
M  V30 5562 N 538.028 1.39524 0.732853 0
M  V30 5563 C 539.276 1.36594 1.48951 0
M  V30 5564 C 539.597 -0.0367507 1.94965 0
M  V30 5565 O 538.867 -0.988391 1.69138 0
M  V30 5566 H 537.447 0.502673 0.552566 0
M  V30 5567 H 540.109 1.74411 0.869869 0
M  V30 5568 H 539.205 2.03 2.3706 0
M  V30 5569 N 539.506 -0.963266 1.24736 0
M  V30 5570 C 540.922 -1.23273 1.01371 0
M  V30 5571 C 541.122 -1.99618 -0.274776 0
M  V30 5572 O 540.178 -2.32293 -0.989769 0
M  V30 5573 C 541.491 -2.01554 2.23152 0
M  V30 5574 C 543.039 -2.14629 2.27823 0
M  V30 5575 C 543.514 -2.96307 3.49237 0
M  V30 5576 N 545.005 -3.03887 3.49581 0
M  V30 5577 C 545.74 -3.67456 4.40186 0
M  V30 5578 N 545.236 -4.32706 5.41052 0
M  V30 5579 N 547.029 -3.64511 4.27888 0
M  V30 5580 H 539.18 -0.452294 2.07528 0
M  V30 5581 H 541.443 -0.262521 0.910926 0
M  V30 5582 H 541.149 -1.52847 3.1675 0
M  V30 5583 H 541.023 -3.02278 2.25628 0
M  V30 5584 H 543.41 -2.62537 1.34753 0
M  V30 5585 H 543.491 -1.13238 2.2937 0
M  V30 5586 H 543.135 -2.49091 4.42624 0
M  V30 5587 H 543.065 -3.97905 3.44933 0
M  V30 5588 H 545.556 -2.57477 2.76611 0
M  V30 5589 H 545.869 -4.79042 6.06415 0
M  V30 5590 H 544.214 -4.31361 5.44934 0
M  V30 5591 H 547.405 -3.12715 3.4832 0
M  V30 5592 H 547.578 -4.13768 4.98698 0
M  V30 5593 N 540.985 -1.06182 -1.16461 0
M  V30 5594 C 541.915 -0.692861 -2.22984 0
M  V30 5595 C 542.896 0.314122 -1.67174 0
M  V30 5596 O 544.081 0.189499 -1.93273 0
M  V30 5597 C 541.211 -0.07732 -3.47214 0
M  V30 5598 C 540.165 -1.01015 -4.15909 0
M  V30 5599 C 539.491 -0.257973 -5.34077 0
M  V30 5600 C 540.791 -2.33868 -4.67015 0
M  V30 5601 H 542.485 -1.58343 -2.54102 0
M  V30 5602 H 540.031 -0.76279 -1.22137 0
M  V30 5603 H 541.984 0.19266 -4.20959 0
M  V30 5604 H 540.708 0.848254 -3.15392 0
M  V30 5605 H 539.367 -1.26486 -3.44088 0
M  V30 5606 H 539.015 0.670684 -4.98509 0
M  V30 5607 H 538.715 -0.879638 -5.80979 0
M  V30 5608 H 540.239 0.00448788 -6.106 0
M  V30 5609 H 541.653 -2.1279 -5.32347 0
M  V30 5610 H 540.05 -2.91522 -5.24533 0
M  V30 5611 H 541.12 -2.97019 -3.83286 0
M  V30 5612 N 542.463 1.3308 -0.844243 0
M  V30 5613 C 543.71 1.97605 -0.44255 0
M  V30 5614 C 544.038 1.66856 0.999458 0
M  V30 5615 O 543.293 0.943586 1.7145 0
M  V30 5616 C 543.592 3.52045 -0.616354 0
M  V30 5617 C 543.258 4.02757 -2.02726 0
M  V30 5618 C 541.92 4.16316 -2.41317 0
M  V30 5619 C 544.272 4.29776 -2.9486 0
M  V30 5620 C 541.6 4.54232 -3.71335 0
M  V30 5621 C 543.952 4.69146 -4.24364 0
M  V30 5622 C 542.616 4.80911 -4.62904 0
M  V30 5623 H 541.886 0.723088 -0.161941 0
M  V30 5624 H 544.533 1.58663 -1.0723 0
M  V30 5625 H 542.838 3.91681 0.0966812 0
M  V30 5626 H 544.535 3.99981 -0.285756 0
M  V30 5627 H 541.125 3.9268 -1.71756 0
M  V30 5628 H 545.309 4.18818 -2.6628 0
M  V30 5629 H 540.565 4.61535 -4.00993 0
M  V30 5630 H 544.739 4.89008 -4.95827 0
M  V30 5631 H 542.366 5.10048 -5.63698 0
M  V30 5632 N 543.941 0.601185 1.45683 0
M  V30 5633 C 544.874 -0.17013 2.27565 0
M  V30 5634 C 545.852 -0.879661 1.36751 0
M  V30 5635 O 547.036 -0.889827 1.66176 0
M  V30 5636 C 544.163 -1.24568 3.14961 0
M  V30 5637 C 543.209 -0.639978 4.21671 0
M  V30 5638 S 544.042 0.547275 5.32696 0
M  V30 5639 C 545.198 -0.529019 6.2366 0
M  V30 5640 H 545.431 0.524583 2.92635 0
M  V30 5641 H 542.964 0.388537 1.49431 0
M  V30 5642 H 544.922 -1.86138 3.65873 0
M  V30 5643 H 543.583 -1.91243 2.49169 0
M  V30 5644 H 542.776 -1.44903 4.8272 0
M  V30 5645 H 542.378 -0.0995558 3.73867 0
M  V30 5646 H 544.67 -1.40981 6.62669 0
M  V30 5647 H 545.613 0.0451599 7.08086 0
M  V30 5648 H 546.021 -0.84147 5.58193 0
M  V30 5649 N 545.419 -1.53889 0.339982 0
M  V30 5650 C 546.665 -2.01152 -0.258003 0
M  V30 5651 C 546.998 -1.22749 -1.50487 0
M  V30 5652 O 546.273 -0.314156 -1.91946 0
M  V30 5653 C 546.556 -3.55468 -0.575717 0
M  V30 5654 C 546.409 -4.44584 0.682996 0
M  V30 5655 C 547.728 -4.1768 -1.38677 0
M  V30 5656 H 544.847 -0.731198 -0.0922992 0
M  V30 5657 H 547.489 -1.84352 0.459814 0
M  V30 5658 H 545.639 -3.69914 -1.18725 0
M  V30 5659 H 547.311 -4.41981 1.32102 0
M  V30 5660 H 545.554 -4.13592 1.3086 0
M  V30 5661 H 546.225 -5.5043 0.416001 0
M  V30 5662 H 548.701 -4.0691 -0.869705 0
M  V30 5663 H 547.577 -5.25734 -1.57783 0
M  V30 5664 H 547.838 -3.72069 -2.38782 0
M  V30 5665 N 546.897 -0.0685191 -1.57451 0
M  V30 5666 C 548.144 0.601348 -1.93365 0
M  V30 5667 C 548.472 1.69816 -0.948294 0
M  V30 5668 O 547.727 1.95666 0.0366199 0
M  V30 5669 C 548.026 1.22051 -3.35914 0
M  V30 5670 C 547.692 0.250165 -4.50205 0
M  V30 5671 C 546.354 -0.0167954 -4.81197 0
M  V30 5672 C 548.706 -0.413867 -5.19554 0
M  V30 5673 C 546.034 -0.95493 -5.78876 0
M  V30 5674 C 548.386 -1.3403 -6.18238 0
M  V30 5675 C 547.05 -1.61576 -6.47649 0
M  V30 5676 H 546.32 0.220049 -0.707573 0
M  V30 5677 H 548.967 -0.138697 -1.90997 0
M  V30 5678 H 547.272 2.03622 -3.34732 0
M  V30 5679 H 548.969 1.74605 -3.6099 0
M  V30 5680 H 545.559 0.468421 -4.26033 0
M  V30 5681 H 549.743 -0.220733 -4.95809 0
M  V30 5682 H 544.999 -1.17563 -5.99991 0
M  V30 5683 H 549.173 -1.86081 -6.71079 0
M  V30 5684 H 546.8 -2.34431 -7.2315 0
M  V30 5685 N 548.375 1.56261 0.205012 0
M  V30 5686 C 549.622 1.8004 0.926927 0
M  V30 5687 C 549.95 0.640086 1.83666 0
M  V30 5688 O 549.205 -0.374702 1.92079 0
M  V30 5689 C 549.504 3.09722 1.78345 0
M  V30 5690 C 549.17 4.39082 1.02555 0
M  V30 5691 C 547.832 4.74226 0.816256 0
M  V30 5692 C 550.184 5.18877 0.491559 0
M  V30 5693 C 547.512 5.86668 0.0613287 0
M  V30 5694 C 549.864 6.32105 -0.250107 0
M  V30 5695 C 548.528 6.6584 -0.470508 0
M  V30 5696 H 547.798 0.658812 0.339187 0
M  V30 5697 H 550.445 1.90515 0.19395 0
M  V30 5698 H 548.75 2.9444 2.5848 0
M  V30 5699 H 550.447 3.25324 2.34446 0
M  V30 5700 H 547.037 4.11497 1.19868 0
M  V30 5701 H 551.221 4.92147 0.640684 0
M  V30 5702 H 546.477 6.11283 -0.119501 0
M  V30 5703 H 550.651 6.93157 -0.671307 0
M  V30 5704 H 548.278 7.5281 -1.05739 0
M  V30 5705 N 549.853 -0.472356 1.50355 0
M  V30 5706 C 551.102 -1.2213 1.60522 0
M  V30 5707 C 551.415 -1.9312 0.310466 0
M  V30 5708 O 552.621 -2.69936 0.291029 0
M  V30 5709 C 551.077 -2.21909 2.83345 0
M  V30 5710 C 550.685 -1.56727 4.19691 0
M  V30 5711 C 552.429 -2.97453 3.02856 0
M  V30 5712 C 550.336 -2.54785 5.33703 0
M  V30 5713 H 549.266 -0.459543 0.597776 0
M  V30 5714 H 551.917 -0.491922 1.76783 0
M  V30 5715 H 550.299 -2.98133 2.60639 0
M  V30 5716 H 551.473 -0.863007 4.52646 0
M  V30 5717 H 549.788 -0.934685 4.05774 0
M  V30 5718 H 552.385 -3.70838 3.85205 0
M  V30 5719 H 552.728 -3.56764 2.14534 0
M  V30 5720 H 553.261 -2.28342 3.25737 0
M  V30 5721 H 550 -2.00214 6.24175 0
M  V30 5722 H 549.52 -3.23367 5.05167 0
M  V30 5723 H 551.199 -3.16639 5.64224 0
M  V30 5724 N 551.331 -1.39911 -0.725443 0
M  V30 5725 C 552.261 -1.42138 -1.85254 0
M  V30 5726 C 553.242 -0.283513 -1.67721 0
M  V30 5727 O 554.427 -0.490717 -1.87898 0
M  V30 5728 C 551.557 -1.27354 -3.23107 0
M  V30 5729 C 550.511 -2.3864 -3.55296 0
M  V30 5730 C 549.837 -2.08939 -4.92188 0
M  V30 5731 C 551.137 -3.8097 -3.57295 0
M  V30 5732 H 552.831 -2.36461 -1.83648 0
M  V30 5733 H 550.377 -1.13817 -0.882138 0
M  V30 5734 H 552.33 -1.2753 -4.01639 0
M  V30 5735 H 551.054 -0.295025 -3.25265 0
M  V30 5736 H 549.713 -2.37696 -2.79099 0
M  V30 5737 H 549.361 -1.09502 -4.90936 0
M  V30 5738 H 549.061 -2.83491 -5.14691 0
M  V30 5739 H 550.585 -2.10781 -5.73065 0
M  V30 5740 H 551.999 -3.8379 -4.25885 0
M  V30 5741 H 550.396 -4.5496 -3.9132 0
M  V30 5742 H 551.466 -4.11261 -2.5689 0
M  V30 5743 N 552.809 0.956637 -1.25245 0
M  V30 5744 C 554.057 1.69764 -1.09657 0
M  V30 5745 C 554.378 1.91583 0.363464 0
M  V30 5746 O 553.648 1.50149 1.25825 0
M  V30 5747 H 552.228 0.629097 -0.402798 0
M  V30 5748 H 554.89 1.15026 -1.57337 0
M  V30 5749 H 553.986 2.67769 -1.60331 0
M  V30 5750 N 554.287 1.06798 1.15896 0
M  V30 5751 C 555.535 0.786211 1.8618 0
M  V30 5752 C 555.856 -0.689547 1.82401 0
M  V30 5753 O 555.126 -1.49913 1.26107 0
M  V30 5754 H 553.706 0.287843 0.689315 0
M  V30 5755 H 556.368 1.35055 1.40521 0
M  V30 5756 H 555.464 1.1157 2.91477 0
M  V30 5757 N 555.766 -1.3263 0.851289 0
M  V30 5758 C 556.696 -2.31449 0.308771 0
M  V30 5759 C 557.677 -1.59531 -0.590255 0
M  V30 5760 O 558.862 -1.87351 -0.511205 0
M  V30 5761 C 555.992 -3.43586 -0.506548 0
M  V30 5762 C 554.946 -4.26963 0.297753 0
M  V30 5763 C 554.272 -5.30831 -0.642094 0
M  V30 5764 C 555.572 -4.99643 1.52166 0
M  V30 5765 H 557.266 -2.77074 1.13447 0
M  V30 5766 H 554.812 -1.33207 0.546971 0
M  V30 5767 H 556.765 -4.11754 -0.896474 0
M  V30 5768 H 555.489 -2.96681 -1.36558 0
M  V30 5769 H 554.148 -3.60437 0.669391 0
M  V30 5770 H 553.796 -4.8018 -1.49788 0
M  V30 5771 H 553.496 -5.87501 -0.107968 0
M  V30 5772 H 555.02 -6.01862 -1.02927 0
M  V30 5773 H 556.434 -5.6051 1.20421 0
M  V30 5774 H 554.831 -5.66022 1.99347 0
M  V30 5775 H 555.901 -4.27701 2.28474 0
M  V30 5776 N 557.244 -0.608902 -1.45362 0
M  V30 5777 C 558.207 0.0992563 -2.28985 0
M  V30 5778 C 559.207 0.793841 -1.39838 0
M  V30 5779 O 560.397 0.641804 -1.61946 0
M  V30 5780 C 557.529 1.15073 -3.20891 0
M  V30 5781 H 558.722 -0.635964 -2.93079 0
M  V30 5782 H 556.275 -0.368007 -1.51906 0
M  V30 5783 H 557.01 1.91667 -2.616 0
M  V30 5784 H 556.795 0.656867 -3.86559 0
M  V30 5785 H 558.285 1.64665 -3.83765 0
M  V30 5786 N 558.722 1.53707 -0.348139 0
M  V30 5787 C 559.655 2.21481 0.549667 0
M  V30 5788 C 560.633 1.20046 1.09671 0
M  V30 5789 O 561.817 1.48883 1.15612 0
M  V30 5790 C 558.944 2.89585 1.75664 0
M  V30 5791 C 557.99 4.04948 1.33864 0
M  V30 5792 S 558.823 5.34325 0.354577 0
M  V30 5793 C 559.979 6.05934 1.56828 0
M  V30 5794 H 560.212 2.97289 -0.0259755 0
M  V30 5795 H 557.745 1.53833 -0.132216 0
M  V30 5796 H 559.703 3.29441 2.44906 0
M  V30 5797 H 558.364 2.13535 2.30351 0
M  V30 5798 H 557.557 4.51552 2.23868 0
M  V30 5799 H 557.159 3.66893 0.725651 0
M  V30 5800 H 559.451 6.29606 2.50205 0
M  V30 5801 H 560.394 6.98799 1.14395 0
M  V30 5802 H 560.802 5.36151 1.76642 0
M  V30 5803 N 560.2 0.0768682 1.57412 0
M  V30 5804 C 561.447 -0.591085 1.93681 0
M  V30 5805 C 561.775 -1.69311 0.957286 0
M  V30 5806 O 561.03 -1.95682 -0.0262428 0
M  V30 5807 C 561.329 -1.20268 3.36557 0
M  V30 5808 C 560.995 -0.226286 4.50332 0
M  V30 5809 C 559.657 0.0423142 4.81181 0
M  V30 5810 C 562.009 0.441415 5.19327 0
M  V30 5811 C 559.337 0.985616 5.78362 0
M  V30 5812 C 561.689 1.37307 6.17519 0
M  V30 5813 C 560.353 1.65009 6.46783 0
M  V30 5814 H 559.623 -0.216293 0.70873 0
M  V30 5815 H 562.27 0.148824 1.90921 0
M  V30 5816 H 560.575 -2.01844 3.35807 0
M  V30 5817 H 562.272 -1.72688 3.61911 0
M  V30 5818 H 558.862 -0.445821 4.26275 0
M  V30 5819 H 563.046 0.247023 4.95685 0
M  V30 5820 H 558.302 1.20743 5.99359 0
M  V30 5821 H 562.476 1.89637 6.70083 0
M  V30 5822 H 560.103 2.38263 7.21897 0
M  V30 5823 N 561.678 -1.56367 -0.196722 0
M  V30 5824 C 562.641 -1.93561 -1.22746 0
M  V30 5825 C 563.641 -0.816566 -1.38524 0
M  V30 5826 O 564.831 -1.084 -1.36363 0
M  V30 5827 C 561.963 -2.20823 -2.59712 0
M  V30 5828 H 563.156 -2.85774 -0.909586 0
M  V30 5829 H 560.709 -1.50032 -0.438174 0
M  V30 5830 H 561.444 -1.31243 -2.96557 0
M  V30 5831 H 561.229 -3.02368 -2.49632 0
M  V30 5832 H 562.719 -2.50608 -3.34044 0
M  V30 5833 N 563.156 0.464375 -1.50603 0
M  V30 5834 C 564.381 1.24372 -1.65971 0
M  V30 5835 C 564.806 1.84901 -0.345453 0
M  V30 5836 O 564.164 1.67596 0.691457 0
M  V30 5837 C 564.212 2.32331 -2.7578 0
M  V30 5838 O 563.316 3.37146 -2.375 0
M  V30 5839 H 562.657 0.365604 -0.554283 0
M  V30 5840 H 565.187 0.55183 -1.97018 0
M  V30 5841 H 565.197 2.77539 -2.99059 0
M  V30 5842 H 563.872 1.87648 -3.71162 0
M  V30 5843 H 562.449 2.97602 -2.24694 0
M  V30 5844 N 564.634 1.40294 0.718013 0
M  V30 5845 C 565.864 1.41544 1.50495 0
M  V30 5846 C 566.272 0.0127877 1.89196 0
M  V30 5847 O 565.615 -0.97305 1.55812 0
M  V30 5848 C 565.677 2.24021 2.81167 0
M  V30 5849 C 565.341 3.72463 2.64803 0
M  V30 5850 C 566.338 4.65154 2.32223 0
M  V30 5851 C 564.023 4.1625 2.81143 0
M  V30 5852 C 566.017 5.99618 2.16189 0
M  V30 5853 C 563.704 5.50784 2.64727 0
M  V30 5854 C 564.702 6.42283 2.32297 0
M  V30 5855 O 564.39 7.74337 2.16004 0
M  V30 5856 H 564.122 0.484819 0.471091 0
M  V30 5857 H 566.676 1.84948 0.893488 0
M  V30 5858 H 564.906 1.75393 3.44636 0
M  V30 5859 H 566.595 2.17243 3.42871 0
M  V30 5860 H 567.361 4.32622 2.19234 0
M  V30 5861 H 563.24 3.45352 3.05373 0
M  V30 5862 H 566.784 6.71 1.90799 0
M  V30 5863 H 562.681 5.82902 2.773 0
M  V30 5864 H 563.449 7.85244 2.30942 0
M  V30 5865 N 566.112 -0.949982 1.2575 0
M  V30 5866 C 567.358 -1.69766 1.10938 0
M  V30 5867 C 567.691 -1.91056 -0.348028 0
M  V30 5868 O 566.966 -1.48488 -1.25625 0
M  V30 5869 C 567.249 -3.07779 1.86933 0
M  V30 5870 C 567.102 -2.9387 3.4053 0
M  V30 5871 C 568.421 -4.07749 1.65616 0
M  V30 5872 H 565.54 -0.616144 0.404396 0
M  V30 5873 H 568.182 -1.10394 1.54639 0
M  V30 5874 H 566.332 -3.58462 1.4979 0
M  V30 5875 H 568.004 -2.50476 3.87375 0
M  V30 5876 H 566.247 -2.29686 3.68004 0
M  V30 5877 H 566.918 -3.91719 3.88922 0
M  V30 5878 H 569.394 -3.65994 1.97959 0
M  V30 5879 H 568.27 -5.02348 2.21218 0
M  V30 5880 H 568.531 -4.38029 0.598595 0
M  V30 5881 N 567.59 -1.07411 -1.15328 0
M  V30 5882 C 569.001 -0.820261 -1.67716 0
M  V30 5883 C 569.352 0.654539 -1.8496 0
M  V30 5884 O 568.477 1.50664 -1.55337 0
M  V30 5885 C 569.072 -1.48242 -3.04647 0
M  V30 5886 C 567.631 -1.27606 -3.5411 0
M  V30 5887 C 566.778 -1.5517 -2.29821 0
M  V30 5888 H 569.729 -1.23608 -0.995332 0
M  V30 5889 H 569.75 -0.903984 -3.69606 0
M  V30 5890 H 569.262 -2.55578 -2.92064 0
M  V30 5891 H 567.363 -0.222948 -3.71932 0
M  V30 5892 H 567.476 -1.99667 -4.35511 0
M  V30 5893 H 565.84 -0.972747 -2.35393 0
M  V30 5894 H 566.623 -2.63689 -2.19824 0
M  V30 5895 N 569.068 1.32177 -0.85831 0
M  V30 5896 C 569.978 2.32561 -0.308606 0
M  V30 5897 C 570.994 1.64209 0.575462 0
M  V30 5898 O 572.17 1.95719 0.474961 0
M  V30 5899 C 569.235 3.43207 0.490909 0
M  V30 5900 C 568.296 4.27243 -0.419733 0
M  V30 5901 C 567.529 5.32605 0.341719 0
M  V30 5902 O 567.752 5.48332 1.57125 0
M  V30 5903 O 566.686 6.0118 -0.294379 0
M  V30 5904 H 570.512 2.81477 -1.14037 0
M  V30 5905 H 568.097 1.35866 -0.621349 0
M  V30 5906 H 569.979 4.10677 0.944574 0
M  V30 5907 H 568.654 2.96474 1.29941 0
M  V30 5908 H 567.561 3.62569 -0.921652 0
M  V30 5909 H 568.894 4.7751 -1.19352 0
M  V30 5910 N 570.547 0.616602 1.45037 0
M  V30 5911 C 571.796 0.112861 2.01384 0
M  V30 5912 C 572.109 -1.26758 1.48969 0
M  V30 5913 O 573.315 -1.86454 1.9735 0
M  V30 5914 C 571.771 0.151057 3.59583 0
M  V30 5915 C 571.379 1.53191 4.20995 0
M  V30 5916 C 573.123 -0.296974 4.2346 0
M  V30 5917 C 571.03 1.526 5.71373 0
M  V30 5918 H 569.96 0.0384254 0.75302 0
M  V30 5919 H 572.611 0.773262 1.66412 0
M  V30 5920 H 570.993 -0.57617 3.91786 0
M  V30 5921 H 572.167 2.28156 4.00352 0
M  V30 5922 H 570.482 1.92279 3.69348 0
M  V30 5923 H 573.079 -0.320712 5.33737 0
M  V30 5924 H 573.422 -1.32145 3.9477 0
M  V30 5925 H 573.955 0.377279 3.96007 0
M  V30 5926 H 570.694 2.52837 6.04776 0
M  V30 5927 H 570.214 0.819064 5.94181 0
M  V30 5928 H 571.893 1.25357 6.3474 0
M  V30 5929 N 572.025 -1.5352 0.356285 0
M  V30 5930 C 573.274 -2.00298 -0.237373 0
M  V30 5931 C 573.587 -1.24784 -1.50627 0
M  V30 5932 O 574.793 -1.62103 -2.17795 0
M  V30 5933 C 573.249 -3.56771 -0.473545 0
M  V30 5934 C 572.857 -4.41154 0.780183 0
M  V30 5935 C 574.601 -4.1193 -1.02537 0
M  V30 5936 C 572.508 -5.89161 0.514108 0
M  V30 5937 H 571.438 -0.748307 -0.092478 0
M  V30 5938 H 574.089 -1.77283 0.473588 0
M  V30 5939 H 572.471 -3.75902 -1.24553 0
M  V30 5940 H 573.645 -4.33797 1.55425 0
M  V30 5941 H 571.96 -3.97052 1.25455 0
M  V30 5942 H 574.557 -5.20133 -1.2396 0
M  V30 5943 H 574.9 -3.65943 -1.98473 0
M  V30 5944 H 575.433 -3.96561 -0.313775 0
M  V30 5945 H 572.172 -6.39408 1.44355 0
M  V30 5946 H 571.692 -5.9939 -0.221632 0
M  V30 5947 H 573.371 -6.46857 0.136122 0
M  V30 5948 N 573.503 -0.0852151 -1.57369 0
M  V30 5949 C 574.413 0.891712 -2.16992 0
M  V30 5950 C 575.429 1.3174 -1.13669 0
M  V30 5951 O 576.605 1.38735 -1.45995 0
M  V30 5952 C 573.67 2.13635 -2.73059 0
M  V30 5953 C 572.731 1.7658 -3.91303 0
M  V30 5954 C 571.964 2.95111 -4.44686 0
M  V30 5955 O 572.187 4.09539 -3.97032 0
M  V30 5956 O 571.121 2.74149 -5.35841 0
M  V30 5957 H 574.947 0.414477 -3.00858 0
M  V30 5958 H 572.532 0.138598 -1.48756 0
M  V30 5959 H 574.414 2.86595 -3.08935 0
M  V30 5960 H 573.089 2.6043 -1.92244 0
M  V30 5961 H 571.996 1.00831 -3.60255 0
M  V30 5962 H 573.329 1.34557 -4.7345 0
M  V30 5963 N 574.981 1.5647 0.188427 0
M  V30 5964 C 575.911 1.98101 1.23606 0
M  V30 5965 C 576.892 0.853961 1.47111 0
M  V30 5966 O 578.077 1.11879 1.58735 0
M  V30 5967 C 575.207 2.32624 2.57882 0
M  V30 5968 C 574.161 3.48129 2.48978 0
M  V30 5969 C 573.487 3.68347 3.87588 0
M  V30 5970 C 574.787 4.82112 2.00911 0
M  V30 5971 H 576.481 2.85864 0.890068 0
M  V30 5972 H 574.027 1.37532 0.426714 0
M  V30 5973 H 575.98 2.60343 3.3136 0
M  V30 5974 H 574.704 1.41751 2.94235 0
M  V30 5975 H 573.363 3.20511 1.77956 0
M  V30 5976 H 573.011 2.74793 4.21305 0
M  V30 5977 H 572.711 4.46055 3.82503 0
M  V30 5978 H 574.235 3.98449 4.62678 0
M  V30 5979 H 575.649 5.08819 2.64151 0
M  V30 5980 H 574.046 5.63337 2.06814 0
M  V30 5981 H 575.116 4.75249 0.96262 0
M  V30 5982 N 576.459 -0.456382 1.50847 0
M  V30 5983 C 577.708 -1.2042 1.61808 0
M  V30 5984 C 578.021 -1.9278 0.330932 0
M  V30 5985 O 579.227 -2.69612 0.319643 0
M  V30 5986 C 577.683 -2.18891 2.85683 0
M  V30 5987 C 577.291 -1.52267 4.2133 0
M  V30 5988 C 579.035 -2.94224 3.05994 0
M  V30 5989 C 576.942 -2.4911 5.36375 0
M  V30 5990 H 575.872 -0.453177 0.602616 0
M  V30 5991 H 578.523 -0.473144 1.77295 0
M  V30 5992 H 576.905 -2.95351 2.63787 0
M  V30 5993 H 578.079 -0.814949 4.53536 0
M  V30 5994 H 576.394 -0.891594 4.06743 0
M  V30 5995 H 578.991 -3.66732 3.89117 0
M  V30 5996 H 579.334 -3.54469 2.18306 0
M  V30 5997 H 579.867 -2.24874 3.28141 0
M  V30 5998 H 576.606 -1.93582 6.26264 0
M  V30 5999 H 576.126 -3.17991 5.08569 0
M  V30 6000 H 577.805 -3.10637 5.67551 0
M  V30 6001 N 577.937 -1.40673 -0.710563 0
M  V30 6002 C 579.185 -1.38947 -1.46759 0
M  V30 6003 C 579.506 0.00572879 -1.94999 0
M  V30 6004 O 578.776 0.961358 -1.70689 0
M  V30 6005 H 577.356 -0.5114 -0.544499 0
M  V30 6006 H 580.018 -1.75773 -0.842012 0
M  V30 6007 H 579.114 -2.06745 -2.33801 0
M  V30 6008 N 579.415 0.9433 -1.26252 0
M  V30 6009 C 580.363 2.06302 -1.07434 0
M  V30 6010 C 581.357 1.694 -0.00189471 0
M  V30 6011 O 582.563 1.79302 -0.158408 0
M  V30 6012 H 578.938 0.675453 -0.330556 0
M  V30 6013 H 580.909 2.19326 -2.02333 0
M  V30 6014 C 579.658 3.40125 -0.721817 0
M  V30 6015 H 578.981 3.68996 -1.5389 0
M  V30 6016 H 580.421 4.19295 -0.629922 0
M  V30 6017 C 578.88 3.31993 0.572902 0
M  V30 6018 O 579.41 3.67945 1.61182 0
M  V30 6019 N 577.616 2.85099 0.562748 0
M  V30 6020 H 577.163 2.5604 -0.283092 0
M  V30 6021 H 577.121 2.80041 1.42915 0
M  V30 6022 N 580.893 1.08022 1.14757 0
M  V30 6023 C 582.309 0.807072 1.3769 0
M  V30 6024 C 582.509 -0.585504 1.92806 0
M  V30 6025 O 581.565 -1.34301 2.13821 0
M  V30 6026 C 582.878 1.88651 2.34161 0
M  V30 6027 C 584.426 1.91206 2.47809 0
M  V30 6028 C 584.901 2.98253 3.47576 0
M  V30 6029 N 586.392 2.974 3.55117 0
M  V30 6030 C 587.127 3.76872 4.32152 0
M  V30 6031 N 586.623 4.66212 5.12463 0
M  V30 6032 N 588.416 3.6519 4.27309 0
M  V30 6033 H 580.567 1.97824 0.77326 0
M  V30 6034 H 582.83 0.85826 0.402608 0
M  V30 6035 H 582.536 2.88749 2.00791 0
M  V30 6036 H 582.41 1.75244 3.3402 0
M  V30 6037 H 584.797 0.917564 2.80472 0
M  V30 6038 H 584.878 2.08691 1.47925 0
M  V30 6039 H 584.522 3.97907 3.15646 0
M  V30 6040 H 584.452 2.78014 4.47231 0
M  V30 6041 H 586.943 2.32643 2.97801 0
M  V30 6042 H 587.256 5.23468 5.68508 0
M  V30 6043 H 585.601 4.70257 5.11745 0
M  V30 6044 H 588.792 2.94765 3.63636 0
M  V30 6045 H 588.965 4.27366 4.87095 0
M  V30 6046 N 582.371 -1.3172 0.865308 0
M  V30 6047 C 583.318 -2.2863 0.315736 0
M  V30 6048 C 584.288 -1.55524 -0.583213 0
M  V30 6049 O 585.473 -1.83694 -0.51585 0
M  V30 6050 C 582.613 -3.41735 -0.480773 0
M  V30 6051 C 581.726 -4.297 0.445167 0
M  V30 6052 C 580.861 -5.29944 -0.365012 0
M  V30 6053 C 579.9 -6.09554 0.557651 0
M  V30 6054 N 579.037 -7.01768 -0.215994 0
M  V30 6055 H 583.877 -2.75026 1.14736 0
M  V30 6056 H 581.414 -1.35302 0.577209 0
M  V30 6057 H 583.372 -4.06045 -0.958306 0
M  V30 6058 H 582.002 -2.96461 -1.27714 0
M  V30 6059 H 581.054 -3.65875 1.04113 0
M  V30 6060 H 582.366 -4.85295 1.15284 0
M  V30 6061 H 581.52 -5.99908 -0.905255 0
M  V30 6062 H 580.259 -4.74994 -1.106 0
M  V30 6063 H 579.264 -5.38485 1.10969 0
M  V30 6064 H 580.489 -6.66591 1.29742 0
M  V30 6065 H 578.435 -6.49232 -0.939878 0
M  V30 6066 H 578.352 -7.54762 0.432431 0
M  V30 6067 H 579.62 -7.76002 -0.737618 0
M  V30 6068 N 583.85 -0.624285 -1.44708 0
M  V30 6069 C 584.797 0.0847135 -2.30644 0
M  V30 6070 C 585.767 0.843575 -1.43084 0
M  V30 6071 O 586.952 0.825982 -1.71995 0
M  V30 6072 C 584.091 1.06495 -3.28257 0
M  V30 6073 C 583.205 0.305224 -4.3092 0
M  V30 6074 C 582.34 1.27667 -5.1563 0
M  V30 6075 C 581.379 0.505706 -6.10007 0
M  V30 6076 N 580.516 1.42727 -6.8744 0
M  V30 6077 H 585.356 -0.654068 -2.90733 0
M  V30 6078 H 582.893 -0.334334 -1.4325 0
M  V30 6079 H 584.851 1.64658 -3.83332 0
M  V30 6080 H 583.481 1.77094 -2.69884 0
M  V30 6081 H 582.533 -0.392207 -3.78373 0
M  V30 6082 H 583.845 -0.295553 -4.97924 0
M  V30 6083 H 582.999 1.92984 -5.75189 0
M  V30 6084 H 581.738 1.91137 -4.48685 0
M  V30 6085 H 580.743 -0.160999 -5.49564 0
M  V30 6086 H 581.968 -0.124183 -6.78986 0
M  V30 6087 H 579.913 2.04931 -6.23169 0
M  V30 6088 H 579.831 0.880345 -7.50857 0
M  V30 6089 H 581.099 2.0695 -7.51526 0
M  V30 6090 N 585.328 1.53329 -0.364422 0
M  V30 6091 C 586.558 2.05359 0.226096 0
M  V30 6092 C 586.966 1.23777 1.43094 0
M  V30 6093 O 586.309 0.271139 1.81688 0
M  V30 6094 C 586.371 3.52918 0.684794 0
M  V30 6095 C 586.035 4.55218 -0.403206 0
M  V30 6096 C 587.032 5.04583 -1.2527 0
M  V30 6097 C 584.717 4.99134 -0.563117 0
M  V30 6098 C 586.711 5.96463 -2.24745 0
M  V30 6099 C 584.398 5.9082 -1.56124 0
M  V30 6100 C 585.396 6.39375 -2.40184 0
M  V30 6101 O 585.084 7.29255 -3.38293 0
M  V30 6102 H 584.816 0.674588 0.0436772 0
M  V30 6103 H 587.37 1.98688 -0.520782 0
M  V30 6104 H 585.6 3.57122 1.48326 0
M  V30 6105 H 587.289 3.87812 1.19818 0
M  V30 6106 H 588.055 4.71403 -1.14034 0
M  V30 6107 H 583.934 4.60928 0.0813909 0
M  V30 6108 H 587.478 6.34285 -2.90393 0
M  V30 6109 H 583.375 6.23414 -1.67407 0
M  V30 6110 H 584.143 7.47249 -3.34009 0
M  V30 6111 N 586.806 0.0935595 1.57322 0
M  V30 6112 C 588.054 -0.569383 1.93913 0
M  V30 6113 C 588.375 -1.68817 0.976009 0
M  V30 6114 O 587.645 -1.9588 0.0278099 0
M  V30 6115 H 586.225 -0.21332 0.715894 0
M  V30 6116 H 588.887 0.156531 1.9427 0
M  V30 6117 H 587.983 -0.980577 2.96296 0
M  V30 6118 N 588.284 -1.56567 -0.180126 0
M  V30 6119 C 589.532 -1.81133 -0.896392 0
M  V30 6120 C 589.853 -0.669114 -1.83161 0
M  V30 6121 O 589.123 0.311616 -1.93406 0
M  V30 6122 H 587.703 -0.668172 -0.333999 0
M  V30 6123 H 590.365 -1.94048 -0.182051 0
M  V30 6124 H 589.461 -2.74854 -1.47857 0
M  V30 6125 N 589.762 0.448376 -1.51087 0
M  V30 6126 C 590.987 1.22605 -1.6728 0
M  V30 6127 C 591.412 1.84524 -0.365045 0
M  V30 6128 O 590.77 1.6832 0.673642 0
M  V30 6129 C 590.818 2.29393 -2.78229 0
M  V30 6130 O 589.922 3.34608 -2.41063 0
M  V30 6131 H 589.263 0.359705 -0.558129 0
M  V30 6132 H 591.793 0.530903 -1.97592 0
M  V30 6133 H 591.803 2.74352 -3.01986 0
M  V30 6134 H 590.478 1.83701 -3.73131 0
M  V30 6135 H 589.055 2.95202 -2.27838 0
M  V30 6136 N 591.24 1.41047 0.703093 0
M  V30 6137 C 592.47 1.43133 1.48985 0
M  V30 6138 C 592.878 0.0328537 1.89171 0
M  V30 6139 O 592.221 -0.956469 1.56835 0
M  V30 6140 C 592.283 2.26991 2.78775 0
M  V30 6141 C 591.947 3.7525 2.60837 0
M  V30 6142 C 592.944 4.67591 2.27276 0
M  V30 6143 C 590.629 4.19208 2.76712 0
M  V30 6144 C 592.623 6.01877 2.09817 0
M  V30 6145 C 590.31 5.53561 2.5887 0
M  V30 6146 C 591.308 6.4471 2.25472 0
M  V30 6147 O 590.996 7.76584 2.07778 0
M  V30 6148 H 590.728 0.489788 0.465922 0
M  V30 6149 H 593.282 1.85886 0.873822 0
M  V30 6150 H 591.512 1.79038 3.42757 0
M  V30 6151 H 593.201 2.20867 3.40547 0
M  V30 6152 H 593.967 4.34923 2.14633 0
M  V30 6153 H 589.846 3.48572 3.01693 0
M  V30 6154 H 593.39 6.72986 1.83671 0
M  V30 6155 H 589.287 5.85811 2.71102 0
M  V30 6156 H 590.055 7.87649 2.22601 0
M  V30 6157 N 592.718 -0.936591 1.26751 0
M  V30 6158 C 593.943 -1.72288 1.15462 0
M  V30 6159 C 594.368 -1.85915 -0.285887 0
M  V30 6160 O 593.726 -1.35272 -1.20711 0
M  V30 6161 C 593.774 -3.10503 1.83359 0
M  V30 6162 O 592.878 -3.96745 1.1255 0
M  V30 6163 H 592.219 -0.52843 0.402067 0
M  V30 6164 H 594.749 -1.17271 1.67656 0
M  V30 6165 H 594.759 -3.60867 1.90365 0
M  V30 6166 H 593.434 -2.99901 2.88153 0
M  V30 6167 H 592.011 -3.55191 1.13551 0
M  V30 6168 N 594.196 -1.08629 -1.14182 0
M  V30 6169 C 595.159 -0.722027 -2.1753 0
M  V30 6170 C 596.159 0.244305 -1.58933 0
M  V30 6171 O 597.349 0.0235545 -1.74184 0
M  V30 6172 C 594.481 -0.0663966 -3.40835 0
M  V30 6173 H 595.674 -1.63719 -2.51269 0
M  V30 6174 H 593.227 -0.884442 -1.28869 0
M  V30 6175 H 593.962 0.860389 -3.12678 0
M  V30 6176 H 593.747 -0.761598 -3.84632 0
M  V30 6177 H 595.237 0.173346 -4.1724 0
M  V30 6178 N 595.674 1.31259 -0.872281 0
M  V30 6179 C 596.92 1.96913 -0.485083 0
M  V30 6180 C 597.253 1.68774 0.960667 0
M  V30 6181 O 596.528 0.985495 1.67685 0
M  V30 6182 C 596.811 3.52299 -0.745502 0
M  V30 6183 C 596.664 3.90002 -2.24095 0
M  V30 6184 C 597.983 4.39582 -0.213516 0
M  V30 6185 H 595.102 0.715252 -0.177716 0
M  V30 6186 H 597.744 1.55347 -1.09395 0
M  V30 6187 H 595.894 3.87835 -0.227276 0
M  V30 6188 H 597.566 3.64555 -2.82661 0
M  V30 6189 H 595.809 3.38526 -2.71261 0
M  V30 6190 H 596.48 4.98352 -2.37381 0
M  V30 6191 H 598.956 4.10882 -0.656902 0
M  V30 6192 H 597.832 5.47251 -0.42516 0
M  V30 6193 H 598.093 4.33158 0.884666 0
M  V30 6194 N 597.152 0.631951 1.44375 0
M  V30 6195 C 598.377 0.142146 2.06912 0
M  V30 6196 C 598.802 -1.17456 1.4692 0
M  V30 6197 O 598.16 -1.72074 0.570975 0
M  V30 6198 C 598.208 0.0417952 3.60576 0
M  V30 6199 O 597.312 -1.00194 4.00044 0
M  V30 6200 H 596.653 0.0851491 0.658518 0
M  V30 6201 H 599.183 0.868863 1.85235 0
M  V30 6202 H 599.193 -0.148517 4.0773 0
M  V30 6203 H 597.868 1.0031 4.03622 0
M  V30 6204 H 596.445 -0.786131 3.64519 0
M  V30 6205 N 598.631 -1.53133 0.372548 0
M  V30 6206 C 599.879 -2.00958 -0.214534 0
M  V30 6207 C 600.2 -1.26135 -1.48711 0
M  V30 6208 O 599.47 -0.376597 -1.92246 0
M  V30 6209 H 598.05 -0.742456 -0.0822664 0
M  V30 6210 H 600.712 -1.88367 0.500385 0
M  V30 6211 H 599.808 -3.09031 -0.436605 0
M  V30 6212 N 600.109 -0.101901 -1.5727 0
M  V30 6213 C 601.525 0.254739 -1.57554 0
M  V30 6214 C 601.725 1.67937 -1.11352 0
M  V30 6215 O 600.781 2.39722 -0.793081 0
M  V30 6216 C 602.094 0.036975 -3.00677 0
M  V30 6217 C 603.642 0.104199 -3.12827 0
M  V30 6218 C 604.117 -0.0856565 -4.5792 0
M  V30 6219 N 605.608 -0.0310498 -4.6319 0
M  V30 6220 C 606.343 -0.153099 -5.73196 0
M  V30 6221 N 605.839 -0.330364 -6.92012 0
M  V30 6222 N 607.632 -0.0938854 -5.62022 0
M  V30 6223 H 599.783 -1.03263 -1.85609 0
M  V30 6224 H 602.046 -0.405251 -0.857016 0
M  V30 6225 H 601.752 -0.947254 -3.38703 0
M  V30 6226 H 601.626 0.776335 -3.69124 0
M  V30 6227 H 604.013 1.07894 -2.74669 0
M  V30 6228 H 604.094 -0.666762 -2.46957 0
M  V30 6229 H 603.738 -1.05729 -4.96773 0
M  V30 6230 H 603.668 0.705082 -5.21858 0
M  V30 6231 H 606.159 0.103141 -3.77759 0
M  V30 6232 H 606.472 -0.41482 -7.71686 0
M  V30 6233 H 604.817 -0.366119 -6.94035 0
M  V30 6234 H 608.008 0.0435168 -4.6808 0
M  V30 6235 H 608.181 -0.19245 -6.47714 0
M  V30 6236 N 601.587 1.56661 0.17182 0
M  V30 6237 C 602.534 1.96371 1.21273 0
M  V30 6238 C 603.504 0.82756 1.44016 0
M  V30 6239 O 604.689 1.08764 1.56764 0
M  V30 6240 C 601.829 2.32838 2.54716 0
M  V30 6241 C 600.942 3.59628 2.39356 0
M  V30 6242 C 600.077 3.85311 3.65662 0
M  V30 6243 C 599.116 5.0545 3.45234 0
M  V30 6244 N 598.253 5.27268 4.63608 0
M  V30 6245 H 603.093 2.85106 0.86709 0
M  V30 6246 H 600.63 1.41073 0.416744 0
M  V30 6247 H 602.588 2.52004 3.3249 0
M  V30 6248 H 601.218 1.47214 2.87277 0
M  V30 6249 H 600.27 3.4838 1.52761 0
M  V30 6250 H 601.582 4.4756 2.20207 0
M  V30 6251 H 600.736 4.04841 4.51872 0
M  V30 6252 H 599.475 2.95753 3.8779 0
M  V30 6253 H 598.48 4.85819 2.5741 0
M  V30 6254 H 599.705 5.96538 3.24529 0
M  V30 6255 H 597.651 4.40662 4.85956 0
M  V30 6256 H 597.568 6.09422 4.4737 0
M  V30 6257 H 598.836 5.51277 5.51103 0
M  V30 6258 N 603.065 -0.440357 1.51323 0
M  V30 6259 C 604.015 -1.53263 1.68803 0
M  V30 6260 C 604.999 -1.51494 0.542057 0
M  V30 6261 O 606.191 -1.57999 0.797839 0
M  V30 6262 C 603.32 -2.91479 1.8137 0
M  V30 6263 C 602.406 -2.98015 3.01742 0
M  V30 6264 N 602.797 -2.743 4.24962 0
M  V30 6265 C 601.095 -3.29173 3.00934 0
M  V30 6266 C 601.796 -2.86601 5.06197 0
M  V30 6267 N 600.772 -3.1814 4.40781 0
M  V30 6268 H 604.574 -1.33675 2.61741 0
M  V30 6269 H 602.088 -0.647616 1.48929 0
M  V30 6270 H 604.085 -3.70055 1.92002 0
M  V30 6271 H 602.745 -3.12089 0.896117 0
M  V30 6272 H 603.756 -2.49287 4.53957 0
M  V30 6273 H 600.433 -3.55577 2.18796 0
M  V30 6274 H 601.823 -2.72246 6.14274 0
M  V30 6275 N 604.543 -1.41418 -0.695603 0
M  V30 6276 C 605.792 -1.40073 -1.4513 0
M  V30 6277 C 606.105 -0.0130439 -1.95596 0
M  V30 6278 O 607.311 0.123032 -2.71221 0
M  V30 6279 C 605.767 -2.46286 -2.62433 0
M  V30 6280 C 605.375 -3.90962 -2.18753 0
M  V30 6281 C 607.119 -2.54077 -3.40066 0
M  V30 6282 C 605.026 -4.88728 -3.33015 0
M  V30 6283 H 603.956 -0.520903 -0.545138 0
M  V30 6284 H 606.607 -1.67242 -0.75515 0
M  V30 6285 H 604.989 -2.12248 -3.34315 0
M  V30 6286 H 606.163 -4.34248 -1.54161 0
M  V30 6287 H 604.478 -3.86831 -1.54114 0
M  V30 6288 H 607.075 -3.24303 -4.25125 0
M  V30 6289 H 607.418 -1.5776 -3.8525 0
M  V30 6290 H 607.951 -2.87206 -2.75241 0
M  V30 6291 H 604.69 -5.86449 -2.92844 0
M  V30 6292 H 604.21 -4.50091 -3.96457 0
M  V30 6293 H 605.889 -5.09483 -3.98793 0
M  V30 6294 N 606.021 0.929856 -1.27246 0
M  V30 6295 C 607.267 1.6798 -1.13625 0
M  V30 6296 C 607.6 1.91586 0.317589 0
M  V30 6297 O 606.875 1.50467 1.23247 0
M  V30 6298 C 607.158 3.04766 -1.91806 0
M  V30 6299 C 607.011 2.88415 -3.45162 0
M  V30 6300 C 608.33 4.05063 -1.72082 0
M  V30 6301 H 605.449 0.609632 -0.414147 0
M  V30 6302 H 608.091 1.0792 -1.56376 0
M  V30 6303 H 606.241 3.56034 -1.55474 0
M  V30 6304 H 607.913 2.44282 -3.91311 0
M  V30 6305 H 606.156 2.23802 -3.71611 0
M  V30 6306 H 606.827 3.85482 -3.95105 0
M  V30 6307 H 609.303 3.62798 -2.03757 0
M  V30 6308 H 608.179 4.98765 -2.29182 0
M  V30 6309 H 608.44 4.37021 -0.668206 0
M  V30 6310 N 607.499 1.09233 1.13605 0
M  V30 6311 C 608.745 0.828385 1.8511 0
M  V30 6312 C 609.078 -0.64437 1.83198 0
M  V30 6313 O 608.353 -1.47428 1.26867 0
M  V30 6314 C 608.636 1.36167 3.33363 0
M  V30 6315 C 608.489 2.90038 3.438 0
M  V30 6316 C 609.808 0.993819 4.28732 0
M  V30 6317 H 606.927 0.30239 0.672108 0
M  V30 6318 H 609.569 1.35339 1.33355 0
M  V30 6319 H 607.719 0.9151 3.77569 0
M  V30 6320 H 609.391 3.43128 3.08319 0
M  V30 6321 H 607.634 3.27271 2.84739 0
M  V30 6322 H 608.305 3.22428 4.48045 0
M  V30 6323 H 610.781 1.37893 3.92587 0
M  V30 6324 H 609.657 1.39403 5.30903 0
M  V30 6325 H 609.918 -0.0982206 4.41991 0
M  V30 6326 N 608.977 -1.30795 0.87923 0
M  V30 6327 C 610.217 -1.98155 0.50141 0
M  V30 6328 C 610.581 -1.67925 -0.930863 0
M  V30 6329 O 611.782 -2.28572 -1.41451 0
M  V30 6330 C 610.053 -3.49184 0.761937 0
M  V30 6331 S 611.612 -4.36107 0.485361 0
M  V30 6332 H 608.43 -0.686025 0.186792 0
M  V30 6333 H 611.032 -1.59018 1.13726 0
M  V30 6334 H 609.736 -3.68676 1.80295 0
M  V30 6335 H 609.267 -3.93236 0.113432 0
M  V30 6336 H 611.282 -4.9154 -0.678467 0
M  V30 6337 N 610.455 -0.639598 -1.44038 0
M  V30 6338 C 611.703 -0.147188 -2.01563 0
M  V30 6339 C 612.024 1.2384 -1.50628 0
M  V30 6340 O 611.294 1.82452 -0.713316 0
M  V30 6341 H 609.874 -0.0514231 -0.745228 0
M  V30 6342 H 612.536 -0.828205 -1.76428 0
M  V30 6343 H 611.632 -0.121358 -3.11864 0
M  V30 6344 N 611.933 1.52934 -0.380664 0
M  V30 6345 C 612.883 2.22989 0.475399 0
M  V30 6346 C 613.867 1.23058 1.03661 0
M  V30 6347 O 615.059 1.48436 0.964146 0
M  V30 6348 C 612.188 3.0338 1.60671 0
M  V30 6349 C 611.274 4.107 1.05766 0
M  V30 6350 N 611.665 5.05264 0.232837 0
M  V30 6351 C 609.963 4.25676 1.33101 0
M  V30 6352 C 610.664 5.81658 -0.0695134 0
M  V30 6353 N 609.64 5.40989 0.532144 0
M  V30 6354 H 613.442 2.93456 -0.161418 0
M  V30 6355 H 610.956 1.61291 -0.189495 0
M  V30 6356 H 612.953 3.52098 2.23232 0
M  V30 6357 H 611.613 2.34446 2.24644 0
M  V30 6358 H 612.624 5.17739 -0.129204 0
M  V30 6359 H 609.301 3.6797 1.97241 0
M  V30 6360 H 610.691 6.67843 -0.737269 0
M  V30 6361 N 613.412 0.11024 1.57214 0
M  V30 6362 C 614.661 -0.549638 1.94067 0
M  V30 6363 C 614.974 -1.68388 0.995234 0
M  V30 6364 O 616.18 -2.40593 1.25807 0
M  V30 6365 C 614.636 -1.02912 3.44873 0
M  V30 6366 C 614.244 0.0761861 4.47935 0
M  V30 6367 C 615.988 -1.66087 3.9066 0
M  V30 6368 C 613.895 -0.419502 5.8991 0
M  V30 6369 H 612.825 -0.209092 0.724428 0
M  V30 6370 H 615.476 0.188683 1.82527 0
M  V30 6371 H 613.858 -1.82159 3.51616 0
M  V30 6372 H 615.032 0.852185 4.52851 0
M  V30 6373 H 613.347 0.614052 4.11847 0
M  V30 6374 H 615.944 -2.04272 4.94143 0
M  V30 6375 H 616.287 -2.53591 3.30148 0
M  V30 6376 H 616.82 -0.933959 3.86681 0
M  V30 6377 H 613.559 0.419277 6.54158 0
M  V30 6378 H 613.079 -1.16217 5.88433 0
M  V30 6379 H 614.758 -0.883577 6.40938 0
M  V30 6380 N 614.89 -1.56749 -0.16351 0
M  V30 6381 C 616.118 -1.86577 -0.894233 0
M  V30 6382 C 616.533 -0.696543 -1.75481 0
M  V30 6383 O 615.89 0.334161 -1.79415 0
M  V30 6384 C 615.941 -3.15508 -1.76456 0
M  V30 6385 O 615.662 -4.27926 -0.938685 0
M  V30 6386 C 617.163 -3.58737 -2.60428 0
M  V30 6387 H 614.383 -0.618829 -0.259405 0
M  V30 6388 H 616.927 -2.03863 -0.161259 0
M  V30 6389 H 615.082 -3.00025 -2.45079 0
M  V30 6390 H 615.496 -5.01546 -1.53465 0
M  V30 6391 H 616.97 -4.51832 -3.17099 0
M  V30 6392 H 617.447 -2.83229 -3.35675 0
M  V30 6393 H 618.053 -3.76858 -1.97125 0
M  V30 6394 N 616.368 0.432326 -1.51554 0
M  V30 6395 C 617.298 1.53242 -1.76179 0
M  V30 6396 C 618.279 1.58717 -0.611801 0
M  V30 6397 O 619.464 1.74364 -0.855033 0
M  V30 6398 C 616.594 2.91278 -1.89141 0
M  V30 6399 C 615.548 3.00663 -3.04608 0
M  V30 6400 C 614.874 4.40728 -3.02759 0
M  V30 6401 C 616.174 2.74281 -4.44485 0
M  V30 6402 H 617.868 1.32886 -2.68294 0
M  V30 6403 H 615.414 0.637841 -1.29103 0
M  V30 6404 H 617.367 3.68203 -2.04951 0
M  V30 6405 H 616.091 3.12877 -0.936785 0
M  V30 6406 H 614.75 2.26179 -2.88511 0
M  V30 6407 H 614.398 4.59301 -2.05065 0
M  V30 6408 H 614.098 4.47936 -3.80299 0
M  V30 6409 H 615.622 5.19619 -3.20669 0
M  V30 6410 H 617.036 3.40936 -4.60907 0
M  V30 6411 H 615.433 2.92893 -5.23769 0
M  V30 6412 H 616.503 1.69856 -4.54177 0
M  V30 6413 N 617.846 1.41785 0.688094 0
M  V30 6414 C 618.756 1.46596 1.83158 0
M  V30 6415 C 619.772 0.355862 1.70322 0
M  V30 6416 O 620.948 0.604737 1.92106 0
M  V30 6417 C 618.013 1.35322 3.192 0
M  V30 6418 C 617.074 2.56711 3.4409 0
M  V30 6419 C 616.307 2.45965 4.73642 0
M  V30 6420 O 616.53 1.48827 5.50642 0
M  V30 6421 O 615.464 3.35859 4.99482 0
M  V30 6422 H 619.29 2.43083 1.82056 0
M  V30 6423 H 616.875 1.23404 0.842126 0
M  V30 6424 H 618.757 1.31347 4.00407 0
M  V30 6425 H 617.432 0.419536 3.2097 0
M  V30 6426 H 616.339 2.66262 2.62784 0
M  V30 6427 H 617.672 3.48933 3.47141 0
M  V30 6428 N 619.324 -0.923095 1.27737 0
M  V30 6429 C 620.549 -1.71054 1.17283 0
M  V30 6430 C 620.974 -1.86208 -0.266153 0
M  V30 6431 O 620.332 -1.36545 -1.1927 0
M  V30 6432 C 620.38 -3.0854 1.86642 0
M  V30 6433 O 619.484 -3.95528 1.16752 0
M  V30 6434 H 618.825 -0.524136 0.407649 0
M  V30 6435 H 621.355 -1.15487 1.6889 0
M  V30 6436 H 621.365 -3.58828 1.94182 0
M  V30 6437 H 620.04 -2.96828 2.91317 0
M  V30 6438 H 618.617 -3.53967 1.17312 0
M  V30 6439 N 620.802 -1.09834 -1.13024 0
M  V30 6440 C 622.048 -0.83819 -1.84668 0
M  V30 6441 C 622.381 0.634645 -1.83537 0
M  V30 6442 O 621.656 1.46753 -1.27647 0
M  V30 6443 C 621.939 -1.37933 -3.32636 0
M  V30 6444 C 621.792 -2.91857 -3.42257 0
M  V30 6445 C 623.111 -1.01654 -4.28199 0
M  V30 6446 H 620.23 -0.30595 -0.670495 0
M  V30 6447 H 622.872 -1.36044 -1.32635 0
M  V30 6448 H 621.022 -0.935111 -3.77078 0
M  V30 6449 H 622.694 -3.44759 -3.06495 0
M  V30 6450 H 620.937 -3.28776 -2.83 0
M  V30 6451 H 621.608 -3.24799 -4.46329 0
M  V30 6452 H 624.084 -1.39973 -3.9185 0
M  V30 6453 H 622.96 -1.42217 -5.30156 0
M  V30 6454 H 623.221 0.0747794 -4.42037 0
M  V30 6455 N 622.28 1.30327 -0.886154 0
M  V30 6456 C 623.505 2.0079 -0.519425 0
M  V30 6457 C 623.93 1.65979 0.885013 0
M  V30 6458 O 623.288 0.877043 1.58675 0
M  V30 6459 C 623.336 3.53686 -0.702758 0
M  V30 6460 O 622.44 4.11637 0.250828 0
M  V30 6461 H 621.781 0.63171 -0.204544 0
M  V30 6462 H 624.311 1.66145 -1.19402 0
M  V30 6463 H 624.321 4.03531 -0.602207 0
M  V30 6464 H 622.996 3.78361 -1.72673 0
M  V30 6465 H 621.573 3.72755 0.103873 0
M  V30 6466 N 623.758 0.647228 1.43697 0
M  V30 6467 C 624.706 -0.0600105 2.32523 0
M  V30 6468 C 625.7 -0.819277 1.48271 0
M  V30 6469 O 626.906 -0.730356 1.64517 0
M  V30 6470 H 623.281 -0.0381872 0.75103 0
M  V30 6471 H 625.252 0.706978 2.89904 0
M  V30 6472 C 624.001 -1.0169 3.32497 0
M  V30 6473 H 623.324 -0.442083 3.97348 0
M  V30 6474 H 624.764 -1.48095 3.97296 0
M  V30 6475 C 623.223 -2.11002 2.6264 0
M  V30 6476 O 623.753 -3.19302 2.4374 0
M  V30 6477 N 621.959 -1.87388 2.22113 0
M  V30 6478 H 621.506 -0.993174 2.37684 0
M  V30 6479 H 621.464 -2.60723 1.75701 0
M  V30 6480 N 625.236 -1.5273 0.388769 0
M  V30 6481 C 626.483 -2.01573 -0.19359 0
M  V30 6482 C 626.811 -1.27525 -1.46859 0
M  V30 6483 O 626.066 -0.363926 -1.92286 0
M  V30 6484 C 626.365 -3.53765 -0.508445 0
M  V30 6485 C 626.031 -4.4582 0.674947 0
M  V30 6486 C 624.693 -4.70703 0.999596 0
M  V30 6487 C 627.045 -5.00138 1.46666 0
M  V30 6488 C 624.373 -5.47155 2.11751 0
M  V30 6489 C 626.725 -5.77812 2.57518 0
M  V30 6490 C 625.389 -6.00975 2.90492 0
M  V30 6491 H 624.659 -0.737606 -0.0708397 0
M  V30 6492 H 627.306 -1.84134 0.526006 0
M  V30 6493 H 625.611 -3.69274 -1.30936 0
M  V30 6494 H 627.308 -3.8905 -0.971664 0
M  V30 6495 H 623.898 -4.26616 0.411906 0
M  V30 6496 H 628.082 -4.8084 1.22909 0
M  V30 6497 H 623.338 -5.63314 2.3767 0
M  V30 6498 H 627.512 -6.18904 3.19267 0
M  V30 6499 H 625.139 -6.59998 3.77236 0
M  V30 6500 N 626.714 -0.118576 -1.57153 0
M  V30 6501 C 627.644 0.828436 -2.1831 0
M  V30 6502 C 628.625 1.27758 -1.12303 0
M  V30 6503 O 629.81 1.34026 -1.40537 0
M  V30 6504 C 626.94 2.07876 -2.78217 0
M  V30 6505 C 625.894 1.76742 -3.89803 0
M  V30 6506 C 625.22 3.08801 -4.36516 0
M  V30 6507 C 626.52 1.03606 -5.11921 0
M  V30 6508 H 628.214 0.318824 -2.97698 0
M  V30 6509 H 625.76 0.151911 -1.43196 0
M  V30 6510 H 627.713 2.74584 -3.19659 0
M  V30 6511 H 626.437 2.61161 -1.96118 0
M  V30 6512 H 625.096 1.12424 -3.48936 0
M  V30 6513 H 624.744 3.6002 -3.51276 0
M  V30 6514 H 624.444 2.88743 -5.11763 0
M  V30 6515 H 625.968 3.76627 -4.80608 0
M  V30 6516 H 627.382 1.60467 -5.50385 0
M  V30 6517 H 625.779 0.936454 -5.92748 0
M  V30 6518 H 626.849 0.0227421 -4.84895 0
M  V30 6519 N 628.193 1.56834 0.155195 0
M  V30 6520 C 629.14 1.97646 1.19184 0
M  V30 6521 C 630.11 0.842788 1.4313 0
M  V30 6522 O 631.295 1.1042 1.55602 0
M  V30 6523 C 628.435 2.35527 2.52232 0
M  V30 6524 C 627.548 3.62147 2.35529 0
M  V30 6525 C 626.683 3.89167 3.61555 0
M  V30 6526 C 625.722 5.09084 3.39853 0
M  V30 6527 N 624.859 5.32156 4.5799 0
M  V30 6528 H 629.699 2.8601 0.836802 0
M  V30 6529 H 627.236 1.41507 0.401758 0
M  V30 6530 H 629.194 2.55516 3.29799 0
M  V30 6531 H 627.824 1.50253 2.85699 0
M  V30 6532 H 626.876 3.4998 1.49057 0
M  V30 6533 H 628.188 4.49871 2.15448 0
M  V30 6534 H 627.342 4.09611 4.47553 0
M  V30 6535 H 626.081 2.9985 3.84632 0
M  V30 6536 H 625.086 4.88522 2.52243 0
M  V30 6537 H 626.311 5.99947 3.18183 0
M  V30 6538 H 624.257 4.45791 4.81255 0
M  V30 6539 H 624.174 6.14133 4.40882 0
M  V30 6540 H 625.442 5.57091 5.45225 0
M  V30 6541 N 629.671 -0.424282 1.51781 0
M  V30 6542 C 630.948 -1.18464 1.55646 0
M  V30 6543 C 631.328 -2.08529 0.328438 0
M  V30 6544 O 630.676 -2.17969 -0.685693 0
M  V30 6545 C 630.886 -1.97514 2.87731 0
M  V30 6546 C 632.234 -2.54106 3.40169 0
M  V30 6547 O 633.258 -2.07711 2.89369 0
M  V30 6548 O 632.117 -3.38759 4.28841 0
M  V30 6549 H 629.211 -0.540055 0.626314 0
M  V30 6550 H 631.757 -0.432291 1.64102 0
M  V30 6551 H 630.529 -1.31444 3.68562 0
M  V30 6552 H 630.152 -2.79787 2.82498 0
M  V30 6553 N 631.149 -1.42148 -0.680565 0
M  V30 6554 C 632.396 -1.4231 -1.44063 0
M  V30 6555 C 632.724 -0.037488 -1.94464 0
M  V30 6556 O 631.979 0.953184 -1.70918 0
M  V30 6557 C 632.278 -2.38945 -2.65782 0
M  V30 6558 C 631.944 -3.85455 -2.33956 0
M  V30 6559 C 630.606 -4.25364 -2.24987 0
M  V30 6560 C 632.958 -4.77895 -2.08004 0
M  V30 6561 C 630.286 -5.55701 -1.88184 0
M  V30 6562 C 632.638 -6.08568 -1.72706 0
M  V30 6563 C 631.302 -6.47482 -1.62244 0
M  V30 6564 H 630.572 -0.520748 -0.527164 0
M  V30 6565 H 633.219 -1.7505 -0.776524 0
M  V30 6566 H 631.524 -1.99511 -3.37198 0
M  V30 6567 H 633.221 -2.36336 -3.23954 0
M  V30 6568 H 629.811 -3.53855 -2.41836 0
M  V30 6569 H 633.995 -4.47854 -2.1387 0
M  V30 6570 H 629.251 -5.84718 -1.78648 0
M  V30 6571 H 633.425 -6.79688 -1.5165 0
M  V30 6572 H 631.052 -7.48387 -1.33496 0
M  V30 6573 N 632.627 0.916307 -1.28225 0
M  V30 6574 C 633.557 2.0352 -1.14464 0
M  V30 6575 C 634.538 1.70045 -0.0430844 0
M  V30 6576 O 635.723 1.92954 -0.219619 0
M  V30 6577 C 632.853 3.37889 -0.803027 0
M  V30 6578 C 631.807 3.85516 -1.85908 0
M  V30 6579 C 631.133 5.1682 -1.37116 0
M  V30 6580 C 632.433 4.07655 -3.26519 0
M  V30 6581 H 634.127 2.1529 -2.08064 0
M  V30 6582 H 631.673 1.03446 -1.00174 0
M  V30 6583 H 633.626 4.15654 -0.693537 0
M  V30 6584 H 632.35 3.26164 0.168674 0
M  V30 6585 H 631.009 3.09953 -1.95767 0
M  V30 6586 H 630.657 5.01497 -0.38859 0
M  V30 6587 H 630.357 5.49657 -2.07728 0
M  V30 6588 H 631.881 5.97143 -1.27484 0
M  V30 6589 H 633.295 4.75953 -3.19596 0
M  V30 6590 H 631.692 4.51818 -3.94943 0
M  V30 6591 H 632.762 3.12553 -3.70727 0
M  V30 6592 N 634.105 1.10431 1.1244 0
M  V30 6593 C 635.055 0.722378 2.16254 0
M  V30 6594 C 636.039 -0.268427 1.58645 0
M  V30 6595 O 637.231 -0.077169 1.76832 0
M  V30 6596 C 634.36 0.155763 3.42946 0
M  V30 6597 C 633.446 1.17361 4.07538 0
M  V30 6598 N 633.837 2.36429 4.47141 0
M  V30 6599 C 632.135 1.01412 4.34317 0
M  V30 6600 C 632.836 3.01259 4.97612 0
M  V30 6601 N 631.812 2.28777 4.93115 0
M  V30 6602 H 635.614 1.62876 2.4464 0
M  V30 6603 H 633.128 0.982031 1.29344 0
M  V30 6604 H 635.125 -0.135936 4.16678 0
M  V30 6605 H 633.785 -0.745339 3.1603 0
M  V30 6606 H 634.796 2.73954 4.39511 0
M  V30 6607 H 631.473 0.168574 4.1716 0
M  V30 6608 H 632.863 4.02541 5.37968 0
M  V30 6609 N 635.583 -1.29855 0.893053 0
M  V30 6610 C 636.53 -2.27909 0.364161 0
M  V30 6611 C 637.5 -1.56726 -0.550093 0
M  V30 6612 O 638.685 -1.84747 -0.47677 0
M  V30 6613 C 635.825 -3.42678 -0.408178 0
M  V30 6614 C 634.938 -4.28659 0.536212 0
M  V30 6615 C 634.073 -5.30599 -0.252521 0
M  V30 6616 C 633.112 -6.08234 0.686822 0
M  V30 6617 N 632.249 -7.02068 -0.0670902 0
M  V30 6618 H 637.089 -2.72531 1.20544 0
M  V30 6619 H 634.626 -1.34047 0.605779 0
M  V30 6620 H 636.584 -4.07986 -0.871962 0
M  V30 6621 H 635.214 -2.99103 -1.21397 0
M  V30 6622 H 634.266 -3.63584 1.1185 0
M  V30 6623 H 635.578 -4.8274 1.25552 0
M  V30 6624 H 634.732 -6.01694 -0.777801 0
M  V30 6625 H 633.471 -4.77233 -1.005 0
M  V30 6626 H 632.476 -5.3601 1.22366 0
M  V30 6627 H 633.701 -6.63689 1.43852 0
M  V30 6628 H 631.647 -6.5108 -0.801955 0
M  V30 6629 H 631.564 -7.53675 0.59243 0
M  V30 6630 H 632.832 -7.77392 -0.572851 0
M  V30 6631 N 637.061 -0.65484 -1.43351 0
M  V30 6632 C 638.338 -0.0987371 -1.95351 0
M  V30 6633 C 638.718 1.38161 -1.59608 0
M  V30 6634 O 638.066 2.10791 -0.882021 0
M  V30 6635 C 638.276 -0.346684 -3.47274 0
M  V30 6636 C 639.624 -0.25249 -4.23849 0
M  V30 6637 O 640.648 -0.279332 -3.55103 0
M  V30 6638 O 639.507 -0.177584 -5.46211 0
M  V30 6639 H 636.601 0.0086829 -0.826954 0
M  V30 6640 H 639.147 -0.728189 -1.53282 0
M  V30 6641 H 637.919 -1.37296 -3.66423 0
M  V30 6642 H 637.542 0.315757 -3.96344 0
M  V30 6643 N 638.539 1.52521 -0.396863 0
M  V30 6644 C 639.955 1.5953 -0.0471659 0
M  V30 6645 C 640.155 1.41044 1.43906 0
M  V30 6646 O 639.211 1.23122 2.20448 0
M  V30 6647 C 640.524 2.95972 -0.531113 0
M  V30 6648 C 642.072 3.09172 -0.488024 0
M  V30 6649 C 642.547 4.48075 -0.948281 0
M  V30 6650 N 644.038 4.54281 -0.9046 0
M  V30 6651 C 644.773 5.60007 -1.23205 0
M  V30 6652 N 644.269 6.73343 -1.63036 0
M  V30 6653 N 646.062 5.50151 -1.15282 0
M  V30 6654 H 638.213 1.62786 -1.36435 0
M  V30 6655 H 640.476 0.76514 -0.559701 0
M  V30 6656 H 640.182 3.14741 -1.56942 0
M  V30 6657 H 640.056 3.77143 0.0657922 0
M  V30 6658 H 642.443 2.90095 0.541211 0
M  V30 6659 H 642.524 2.29937 -1.12083 0
M  V30 6660 H 642.168 4.67894 -1.97578 0
M  V30 6661 H 642.098 5.25788 -0.292412 0
M  V30 6662 H 644.589 3.72918 -0.6116 0
M  V30 6663 H 644.902 7.49992 -1.86365 0
M  V30 6664 H 643.247 6.74655 -1.66929 0
M  V30 6665 H 646.438 4.6049 -0.840602 0
M  V30 6666 H 646.611 6.32444 -1.41133 0
M  V30 6667 N 640.017 0.126909 1.57088 0
M  V30 6668 C 641.294 -0.573152 1.87014 0
M  V30 6669 C 641.674 -1.84297 1.02945 0
M  V30 6670 O 641.022 -2.28232 0.110573 0
M  V30 6671 C 641.232 -0.857984 3.38289 0
M  V30 6672 C 642.58 -1.20759 4.07066 0
M  V30 6673 O 643.604 -0.947992 3.43353 0
M  V30 6674 O 642.463 -1.69516 5.19545 0
M  V30 6675 H 639.557 -0.290082 0.774456 0
M  V30 6676 H 642.103 0.162008 1.68925 0
M  V30 6677 H 640.875 0.0415286 3.91278 0
M  V30 6678 H 640.498 -1.64803 3.61837 0
M  V30 6679 N 641.495 -1.56914 -0.146875 0
M  V30 6680 C 642.772 -1.74273 -0.888165 0
M  V30 6681 C 643.152 -0.69496 -1.99333 0
M  V30 6682 O 642.5 0.286093 -2.26702 0
M  V30 6683 C 642.71 -3.18336 -1.43051 0
M  V30 6684 C 644.058 -3.80024 -1.89387 0
M  V30 6685 O 645.082 -3.21765 -1.52792 0
M  V30 6686 O 643.941 -4.82367 -2.56874 0
M  V30 6687 H 641.035 -0.712565 -0.419738 0
M  V30 6688 H 643.581 -1.6918 -0.132791 0
M  V30 6689 H 642.353 -3.86092 -0.636274 0
M  V30 6690 H 641.976 -3.27854 -2.24938 0
M  V30 6691 N 642.974 0.416227 -1.52004 0
M  V30 6692 C 644.22 1.16555 -1.6596 0
M  V30 6693 C 644.553 1.90347 -0.384906 0
M  V30 6694 O 643.828 1.84474 0.616405 0
M  V30 6695 C 644.111 2.1657 -2.87696 0
M  V30 6696 C 643.964 1.46722 -4.25197 0
M  V30 6697 C 645.283 3.17321 -3.04951 0
M  V30 6698 H 642.402 0.422369 -0.603965 0
M  V30 6699 H 645.044 0.452141 -1.84542 0
M  V30 6700 H 643.194 2.77411 -2.71985 0
M  V30 6701 H 644.866 0.89056 -4.52622 0
M  V30 6702 H 643.109 0.769263 -4.26925 0
M  V30 6703 H 643.78 2.19665 -5.0641 0
M  V30 6704 H 646.256 2.66552 -3.19514 0
M  V30 6705 H 645.132 3.84573 -3.91656 0
M  V30 6706 H 645.393 3.84643 -2.17951 0
M  V30 6707 N 644.452 1.42507 0.673017 0
M  V30 6708 C 645.4 1.46362 1.80779 0
M  V30 6709 C 646.394 0.339166 1.6597 0
M  V30 6710 O 647.6 0.512262 1.72557 0
M  V30 6711 H 643.975 0.458433 0.596107 0
M  V30 6712 H 645.946 2.41953 1.74646 0
M  V30 6713 C 644.695 1.38462 3.18941 0
M  V30 6714 H 644.018 2.24283 3.30964 0
M  V30 6715 H 645.458 1.45221 3.98355 0
M  V30 6716 C 643.917 0.0996354 3.36753 0
M  V30 6717 O 644.447 -0.846894 3.92671 0
M  V30 6718 N 642.653 0.016211 2.90595 0
M  V30 6719 H 642.2 0.78725 2.45276 0
M  V30 6720 H 642.158 -0.84291 3.0289 0
M  V30 6721 N 645.93 -0.909495 1.28709 0
M  V30 6722 C 647.176 -1.66151 1.16283 0
M  V30 6723 C 647.509 -1.92067 -0.287069 0
M  V30 6724 O 646.784 -1.52409 -1.20837 0
M  V30 6725 C 647.067 -3.01676 1.9663 0
M  V30 6726 C 646.92 -2.82888 3.49707 0
M  V30 6727 C 648.239 -4.02274 1.78504 0
M  V30 6728 H 645.358 -0.602966 0.423793 0
M  V30 6729 H 648 -1.05418 1.58073 0
M  V30 6730 H 646.15 -3.53515 1.61119 0
M  V30 6731 H 647.822 -2.38026 3.95147 0
M  V30 6732 H 646.065 -2.17862 3.75125 0
M  V30 6733 H 646.736 -3.79147 4.01187 0
M  V30 6734 H 649.212 -3.59511 2.09503 0
M  V30 6735 H 648.088 -4.95056 2.37088 0
M  V30 6736 H 648.349 -4.35903 0.737647 0
M  V30 6737 N 647.408 -1.11026 -1.11852 0
M  V30 6738 C 648.318 -0.777252 -2.2135 0
M  V30 6739 C 649.334 0.227821 -1.72502 0
M  V30 6740 O 650.51 0.0650587 -2.01295 0
M  V30 6741 C 647.575 -0.220668 -3.45997 0
M  V30 6742 C 646.636 -1.2838 -4.09655 0
M  V30 6743 C 645.869 -0.753678 -5.28352 0
M  V30 6744 O 646.092 0.417779 -5.68868 0
M  V30 6745 O 645.026 -1.51647 -5.82483 0
M  V30 6746 H 648.852 -1.69141 -2.5224 0
M  V30 6747 H 646.437 -0.885836 -1.20305 0
M  V30 6748 H 648.319 0.0855756 -4.21313 0
M  V30 6749 H 646.994 0.666262 -3.16769 0
M  V30 6750 H 645.901 -1.64299 -3.3609 0
M  V30 6751 H 647.234 -2.14396 -4.43052 0
M  V30 6752 N 648.886 1.2938 -0.899927 0
M  V30 6753 C 650.135 1.9483 -0.521937 0
M  V30 6754 C 650.448 1.71725 0.936473 0
M  V30 6755 O 651.654 2.31282 1.42199 0
M  V30 6756 C 650.11 3.48911 -0.88255 0
M  V30 6757 C 649.718 3.80815 -2.35974 0
M  V30 6758 C 651.462 4.20595 -0.57448 0
M  V30 6759 C 649.369 5.28142 -2.66121 0
M  V30 6760 H 648.299 0.729285 -0.191468 0
M  V30 6761 H 650.95 1.47103 -1.09695 0
M  V30 6762 H 649.332 3.95293 -0.236459 0
M  V30 6763 H 650.506 3.45291 -3.05141 0
M  V30 6764 H 648.821 3.22271 -2.63686 0
M  V30 6765 H 651.418 5.29031 -0.776556 0
M  V30 6766 H 651.761 4.13442 0.487005 0
M  V30 6767 H 652.294 3.79945 -1.17842 0
M  V30 6768 H 649.033 5.4036 -3.71068 0
M  V30 6769 H 648.553 5.64913 -2.01578 0
M  V30 6770 H 650.232 5.95738 -2.52399 0
M  V30 6771 N 650.364 0.662433 1.43002 0
M  V30 6772 C 651.61 0.179857 2.02001 0
M  V30 6773 C 651.943 -1.20625 1.52195 0
M  V30 6774 O 651.218 -1.80726 0.718911 0
M  V30 6775 C 651.501 0.200845 3.59539 0
M  V30 6776 C 651.354 1.62153 4.19555 0
M  V30 6777 C 652.673 -0.457738 4.37713 0
M  V30 6778 H 649.792 0.0668305 0.733964 0
M  V30 6779 H 652.434 0.84487 1.70182 0
M  V30 6780 H 650.584 -0.365411 3.86778 0
M  V30 6781 H 652.256 2.23908 4.03315 0
M  V30 6782 H 650.499 2.16601 3.75854 0
M  V30 6783 H 651.17 1.58799 5.28665 0
M  V30 6784 H 653.646 0.0241495 4.16093 0
M  V30 6785 H 652.522 -0.412363 5.47349 0
M  V30 6786 H 652.783 -1.53336 4.14657 0
M  V30 6787 N 651.842 -1.52309 0.404946 0
M  V30 6788 C 653.089 -2.01767 -0.1722 0
M  V30 6789 C 653.417 -1.29075 -1.45498 0
M  V30 6790 O 652.672 -0.3843 -1.9189 0
M  V30 6791 C 652.971 -3.54284 -0.470895 0
M  V30 6792 C 652.637 -4.45079 0.722194 0
M  V30 6793 C 651.299 -4.69617 1.04946 0
M  V30 6794 C 653.651 -4.98555 1.51962 0
M  V30 6795 C 650.979 -5.44878 2.17543 0
M  V30 6796 C 653.331 -5.75049 2.63632 0
M  V30 6797 C 651.995 -5.9786 2.9685 0
M  V30 6798 H 651.265 -0.738316 -0.0630125 0
M  V30 6799 H 653.912 -1.83566 0.545506 0
M  V30 6800 H 652.217 -3.70642 -1.27012 0
M  V30 6801 H 653.914 -3.90058 -0.930346 0
M  V30 6802 H 650.504 -4.26155 0.457131 0
M  V30 6803 H 654.688 -4.79509 1.28002 0
M  V30 6804 H 649.944 -5.60762 2.43631 0
M  V30 6805 H 654.118 -6.15483 3.25813 0
M  V30 6806 H 651.745 -6.5596 3.84215 0
M  V30 6807 N 653.32 -0.135238 -1.57019 0
M  V30 6808 C 654.25 0.805235 -2.19176 0
M  V30 6809 C 655.231 1.2656 -1.13651 0
M  V30 6810 O 656.416 1.32528 -1.4195 0
M  V30 6811 C 653.546 2.04914 -2.80406 0
M  V30 6812 C 652.5 1.72598 -3.91655 0
M  V30 6813 C 651.826 3.04154 -4.39766 0
M  V30 6814 C 653.126 0.981709 -5.12991 0
M  V30 6815 H 654.82 0.287232 -2.98019 0
M  V30 6816 H 652.366 0.136714 -1.4335 0
M  V30 6817 H 654.319 2.71178 -3.22553 0
M  V30 6818 H 653.043 2.59067 -1.98877 0
M  V30 6819 H 651.702 1.08717 -3.50109 0
M  V30 6820 H 651.35 3.56274 -3.55075 0
M  V30 6821 H 651.05 2.83299 -5.14796 0
M  V30 6822 H 652.574 3.71509 -4.84576 0
M  V30 6823 H 653.988 1.5462 -5.52056 0
M  V30 6824 H 652.385 0.873533 -5.93708 0
M  V30 6825 H 653.455 -0.0286887 -4.84892 0
M  V30 6826 N 654.798 1.5699 0.138552 0
M  V30 6827 C 655.748 1.9532 1.17619 0
M  V30 6828 C 656.732 0.825545 1.38107 0
M  V30 6829 O 657.924 1.08908 1.39528 0
M  V30 6830 C 655.053 2.34451 2.50774 0
M  V30 6831 C 654.139 3.53805 2.33844 0
M  V30 6832 N 654.53 4.70088 1.86685 0
M  V30 6833 C 652.828 3.59055 2.64567 0
M  V30 6834 C 653.529 5.52165 1.82998 0
M  V30 6835 N 652.505 4.94108 2.26624 0
M  V30 6836 H 656.307 2.82694 0.803809 0
M  V30 6837 H 653.821 1.5866 0.346519 0
M  V30 6838 H 655.818 2.60119 3.25797 0
M  V30 6839 H 654.478 1.48431 2.88788 0
M  V30 6840 H 655.489 4.93681 1.56523 0
M  V30 6841 H 652.166 2.83596 3.06398 0
M  V30 6842 H 653.556 6.55407 1.47957 0
M  V30 6843 N 656.276 -0.40816 1.52223 0
M  V30 6844 C 657.224 -1.51788 1.76248 0
M  V30 6845 C 658.218 -1.57264 0.629638 0
M  V30 6846 O 659.424 -1.60659 0.811704 0
M  V30 6847 H 655.799 -0.504823 0.557367 0
M  V30 6848 H 657.77 -1.2871 2.69214 0
M  V30 6849 C 656.519 -2.89145 1.93107 0
M  V30 6850 H 655.842 -2.85674 2.79697 0
M  V30 6851 H 657.282 -3.66082 2.13916 0
M  V30 6852 C 655.741 -3.29581 0.698431 0
M  V30 6853 O 656.271 -4.01479 -0.133238 0
M  V30 6854 N 654.477 -2.85651 0.53405 0
M  V30 6855 H 654.024 -2.2731 1.21194 0
M  V30 6856 H 653.982 -3.13065 -0.289387 0
M  V30 6857 N 657.755 -1.42862 -0.66545 0
M  V30 6858 C 659.004 -1.43119 -1.42126 0
M  V30 6859 C 659.317 -0.0545297 -1.95524 0
M  V30 6860 O 660.523 0.0654747 -2.71421 0
M  V30 6861 C 658.979 -2.51797 -2.5715 0
M  V30 6862 C 658.587 -3.95514 -2.10411 0
M  V30 6863 C 660.331 -2.61233 -3.346 0
M  V30 6864 C 658.238 -4.95682 -3.22573 0
M  V30 6865 H 657.168 -0.532349 -0.533966 0
M  V30 6866 H 659.819 -1.68806 -0.719506 0
M  V30 6867 H 658.201 -2.19292 -3.29738 0
M  V30 6868 H 659.375 -4.3742 -1.44915 0
M  V30 6869 H 657.69 -3.90012 -1.45874 0
M  V30 6870 H 660.287 -3.33248 -4.18151 0
M  V30 6871 H 660.63 -1.65896 -3.81817 0
M  V30 6872 H 661.163 -2.9298 -2.69087 0
M  V30 6873 H 657.902 -5.92529 -2.80338 0
M  V30 6874 H 657.422 -4.58399 -3.86821 0
M  V30 6875 H 659.101 -5.17828 -3.87896 0
M  V30 6876 N 659.233 0.902656 -1.29189 0
M  V30 6877 C 660.458 1.69167 -1.19989 0
M  V30 6878 C 660.883 1.86607 0.236495 0
M  V30 6879 O 660.241 1.38425 1.17082 0
M  V30 6880 C 660.289 3.05532 -1.91527 0
M  V30 6881 O 659.393 3.93621 -1.2303 0
M  V30 6882 H 658.734 0.517584 -0.415936 0
M  V30 6883 H 661.264 1.12785 -1.70706 0
M  V30 6884 H 661.274 3.55693 -1.99866 0
M  V30 6885 H 659.949 2.92156 -2.96003 0
M  V30 6886 H 658.526 3.52055 -1.22928 0
M  V30 6887 N 660.711 1.11618 1.11262 0
M  V30 6888 C 662.122 0.881942 1.64556 0
M  V30 6889 C 662.473 -0.585442 1.87262 0
M  V30 6890 O 661.598 -1.44795 1.60821 0
M  V30 6891 C 662.193 1.59446 2.98935 0
M  V30 6892 C 660.752 1.40661 3.4913 0
M  V30 6893 C 659.899 1.63593 2.23903 0
M  V30 6894 H 662.85 1.27217 0.94877 0
M  V30 6895 H 662.871 1.04054 3.65996 0
M  V30 6896 H 662.383 2.66241 2.82378 0
M  V30 6897 H 660.484 0.360835 3.70849 0
M  V30 6898 H 660.597 2.15693 4.27801 0
M  V30 6899 H 658.961 1.05944 2.3162 0
M  V30 6900 H 659.744 2.71666 2.09886 0
M  V30 6901 N 662.189 -1.289 0.906776 0
M  V30 6902 C 663.137 -2.29477 0.379873 0
M  V30 6903 C 664.131 -1.61068 -0.524747 0
M  V30 6904 O 665.337 -1.75344 -0.406765 0
M  V30 6905 H 661.712 -0.744742 0.10423 0
M  V30 6906 H 663.683 -2.71353 1.24137 0
M  V30 6907 C 662.432 -3.45713 -0.371154 0
M  V30 6908 H 661.755 -3.98551 0.315716 0
M  V30 6909 H 663.195 -4.18105 -0.704581 0
M  V30 6910 C 661.654 -2.9774 -1.57646 0
M  V30 6911 O 662.184 -2.99618 -2.67567 0
M  V30 6912 N 660.39 -2.53485 -1.42105 0
M  V30 6913 H 659.937 -2.52156 -0.526783 0
M  V30 6914 H 659.895 -2.21747 -2.22881 0
M  V30 6915 N 663.667 -0.670007 -1.42649 0
M  V30 6916 C 664.597 -0.00258501 -2.335 0
M  V30 6917 C 665.578 0.794364 -1.50412 0
M  V30 6918 O 666.763 0.75248 -1.79029 0
M  V30 6919 C 663.893 0.952748 -3.33976 0
M  V30 6920 C 662.847 0.264733 -4.2718 0
M  V30 6921 C 662.173 1.33267 -5.17826 0
M  V30 6922 C 663.473 -0.853289 -5.15283 0
M  V30 6923 H 665.167 -0.761326 -2.89559 0
M  V30 6924 H 662.713 -0.367561 -1.3923 0
M  V30 6925 H 664.666 1.4287 -3.96442 0
M  V30 6926 H 663.39 1.74285 -2.7621 0
M  V30 6927 H 662.049 -0.190938 -3.66102 0
M  V30 6928 H 661.697 2.11464 -4.5639 0
M  V30 6929 H 661.397 0.877476 -5.81011 0
M  V30 6930 H 662.921 1.80965 -5.83167 0
M  V30 6931 H 664.335 -0.458763 -5.71462 0
M  V30 6932 H 662.732 -1.23398 -5.87276 0
M  V30 6933 H 663.802 -1.70412 -4.53969 0
M  V30 6934 N 665.145 1.52092 -0.413018 0
M  V30 6935 C 666.055 2.30858 0.417318 0
M  V30 6936 C 667.071 1.38746 1.05003 0
M  V30 6937 O 668.247 1.71821 1.05069 0
M  V30 6938 C 665.312 3.11756 1.51687 0
M  V30 6939 C 664.373 4.19613 0.906825 0
M  V30 6940 C 663.606 4.96644 1.95399 0
M  V30 6941 O 663.829 4.7402 3.17271 0
M  V30 6942 O 662.763 5.81385 1.55805 0
M  V30 6943 H 666.589 3.02865 -0.225028 0
M  V30 6944 H 664.174 1.48358 -0.176126 0
M  V30 6945 H 666.056 3.62122 2.15512 0
M  V30 6946 H 664.731 2.42539 2.14375 0
M  V30 6947 H 663.638 3.73385 0.231183 0
M  V30 6948 H 664.971 4.91134 0.323814 0
M  V30 6949 N 666.623 0.143563 1.56945 0
M  V30 6950 C 667.553 -0.7936 2.196 0
M  V30 6951 C 668.534 -1.25955 1.14321 0
M  V30 6952 O 669.719 -1.31773 1.42651 0
M  V30 6953 C 666.849 -2.03424 2.81489 0
M  V30 6954 C 665.803 -1.70519 3.92565 0
M  V30 6955 C 665.129 -3.01817 4.41373 0
M  V30 6956 C 666.429 -0.95449 5.13504 0
M  V30 6957 H 668.123 -0.271423 2.98167 0
M  V30 6958 H 665.669 -0.12911 1.4342 0
M  V30 6959 H 667.622 -2.69463 3.23987 0
M  V30 6960 H 666.346 -2.58008 2.00248 0
M  V30 6961 H 665.005 -1.06859 3.5068 0
M  V30 6962 H 664.653 -3.54386 3.56959 0
M  V30 6963 H 664.353 -2.80565 5.16292 0
M  V30 6964 H 665.877 -3.68934 4.86539 0
M  V30 6965 H 667.291 -1.5169 5.52868 0
M  V30 6966 H 665.688 -0.842035 5.94163 0
M  V30 6967 H 666.758 0.0544033 4.84869 0
M  V30 6968 N 668.101 -1.57061 -0.130224 0
M  V30 6969 C 669.011 -2.02802 -1.17934 0
M  V30 6970 C 670.027 -0.946378 -1.46013 0
M  V30 6971 O 671.203 -1.25708 -1.57351 0
M  V30 6972 C 668.268 -2.41368 -2.48882 0
M  V30 6973 C 667.329 -3.63561 -2.28301 0
M  V30 6974 C 666.562 -4.00279 -3.53005 0
M  V30 6975 O 666.785 -3.37463 -4.59864 0
M  V30 6976 O 665.719 -4.93441 -3.44673 0
M  V30 6977 H 669.545 -2.92394 -0.820958 0
M  V30 6978 H 667.13 -1.45475 -0.340197 0
M  V30 6979 H 669.012 -2.66958 -3.26054 0
M  V30 6980 H 667.687 -1.54926 -2.84217 0
M  V30 6981 H 666.594 -3.43136 -1.49025 0
M  V30 6982 H 667.927 -4.50673 -1.97875 0
M  V30 6983 N 669.579 0.400081 -1.52437 0
M  V30 6984 C 670.542 1.4707 -1.75793 0
M  V30 6985 C 671.542 1.48036 -0.627856 0
M  V30 6986 O 672.732 1.49401 -0.895817 0
M  V30 6987 C 669.864 2.86427 -1.84858 0
M  V30 6988 H 671.057 1.27649 -2.71377 0
M  V30 6989 H 668.61 0.631141 -1.42991 0
M  V30 6990 H 669.345 3.11207 -0.912194 0
M  V30 6991 H 669.13 2.87128 -2.6702 0
M  V30 6992 H 670.62 3.64023 -2.04638 0
M  V30 6993 N 671.057 1.43213 0.657864 0
M  V30 6994 C 671.987 1.50815 1.78262 0
M  V30 6995 C 672.968 0.363211 1.66177 0
M  V30 6996 O 674.153 0.579806 1.85343 0
M  V30 6997 C 671.283 1.42625 3.16663 0
M  V30 6998 C 670.237 2.5532 3.43505 0
M  V30 6999 C 669.563 2.32184 4.81658 0
M  V30 7000 C 670.863 3.97583 3.38711 0
M  V30 7001 H 672.557 2.44954 1.72157 0
M  V30 7002 H 670.103 1.17896 0.82683 0
M  V30 7003 H 672.056 1.46548 3.95097 0
M  V30 7004 H 670.78 0.449877 3.23487 0
M  V30 7005 H 669.439 2.50742 2.6744 0
M  V30 7006 H 669.087 1.32801 4.85153 0
M  V30 7007 H 668.787 3.07724 5.00579 0
M  V30 7008 H 670.311 2.37883 5.62356 0
M  V30 7009 H 671.725 4.03673 4.07089 0
M  V30 7010 H 670.122 4.73112 3.69168 0
M  V30 7011 H 671.192 4.23049 2.36976 0
M  V30 7012 N 672.536 -0.895792 1.29666 0
M  V30 7013 C 673.783 -1.64664 1.17864 0
M  V30 7014 C 674.111 -1.92631 -0.26902 0
M  V30 7015 O 673.366 -1.53787 -1.21029 0
M  V30 7016 C 673.665 -3.00075 1.94139 0
M  V30 7017 C 673.331 -2.91702 3.43833 0
M  V30 7018 C 671.993 -2.89126 3.84656 0
M  V30 7019 C 674.345 -2.80622 4.39205 0
M  V30 7020 C 671.673 -2.73293 5.1916 0
M  V30 7021 C 674.025 -2.66329 5.73805 0
M  V30 7022 C 672.689 -2.62121 6.1388 0
M  V30 7023 H 671.959 -0.602549 0.431295 0
M  V30 7024 H 674.606 -1.04234 1.60648 0
M  V30 7025 H 672.911 -3.64394 1.43958 0
M  V30 7026 H 674.608 -3.57111 1.82408 0
M  V30 7027 H 671.198 -2.94511 3.11386 0
M  V30 7028 H 675.382 -2.81686 4.08615 0
M  V30 7029 H 670.638 -2.68443 5.49316 0
M  V30 7030 H 674.812 -2.56727 6.47352 0
M  V30 7031 H 672.439 -2.49611 7.18052 0
M  V30 7032 N 674.014 -1.12206 -1.10668 0
M  V30 7033 C 674.961 -0.787716 -2.16942 0
M  V30 7034 C 675.931 0.244442 -1.64291 0
M  V30 7035 O 677.116 0.119558 -1.90425 0
M  V30 7036 C 674.256 -0.24584 -3.44223 0
M  V30 7037 C 673.369 -1.33552 -4.10838 0
M  V30 7038 C 672.504 -0.753337 -5.25831 0
M  V30 7039 C 671.543 -1.82231 -5.84344 0
M  V30 7040 N 670.68 -1.25902 -6.90719 0
M  V30 7041 H 675.52 -1.69809 -2.44885 0
M  V30 7042 H 673.057 -0.847862 -1.20207 0
M  V30 7043 H 675.015 0.0863639 -4.17111 0
M  V30 7044 H 673.645 0.627702 -3.16638 0
M  V30 7045 H 672.697 -1.78454 -3.35944 0
M  V30 7046 H 674.009 -2.14396 -4.50373 0
M  V30 7047 H 673.163 -0.37166 -6.05561 0
M  V30 7048 H 671.902 0.0863297 -4.87624 0
M  V30 7049 H 670.907 -2.2132 -5.03287 0
M  V30 7050 H 672.132 -2.66515 -6.24617 0
M  V30 7051 H 670.078 -0.44114 -6.54515 0
M  V30 7052 H 669.995 -2.00408 -7.28953 0
M  V30 7053 H 671.263 -0.904498 -7.74235 0
M  V30 7054 N 675.492 1.28418 -0.913599 0
M  V30 7055 C 676.908 1.47411 -0.611728 0
M  V30 7056 C 677.108 1.83018 0.843008 0
M  V30 7057 O 676.164 1.93505 1.6221 0
M  V30 7058 C 677.477 2.57703 -1.5495 0
M  V30 7059 C 679.025 2.71572 -1.5562 0
M  V30 7060 C 679.5 3.85008 -2.48058 0
M  V30 7061 N 680.991 3.92361 -2.46184 0
M  V30 7062 C 681.726 4.79516 -3.14407 0
M  V30 7063 N 681.222 5.71262 -3.91958 0
M  V30 7064 N 683.015 4.73125 -3.03495 0
M  V30 7065 H 675.166 1.03585 -1.85429 0
M  V30 7066 H 677.429 0.515907 -0.795326 0
M  V30 7067 H 677.135 2.38298 -2.58663 0
M  V30 7068 H 677.009 3.54801 -1.28048 0
M  V30 7069 H 679.396 2.90366 -0.526441 0
M  V30 7070 H 679.477 1.75006 -1.86565 0
M  V30 7071 H 679.121 3.66969 -3.51136 0
M  V30 7072 H 679.051 4.80971 -2.14416 0
M  V30 7073 H 681.542 3.26749 -1.89851 0
M  V30 7074 H 681.855 6.34593 -4.41034 0
M  V30 7075 H 680.2 5.71103 -3.96063 0
M  V30 7076 H 683.391 4.00442 -2.42413 0
M  V30 7077 H 683.564 5.40834 -3.56935 0
M  V30 7078 N 676.97 0.677563 1.42291 0
M  V30 7079 C 677.92 -0.0218641 2.2799 0
M  V30 7080 C 678.904 -0.770816 1.41235 0
M  V30 7081 O 680.096 -0.649273 1.64662 0
M  V30 7082 C 677.225 -0.970449 3.29298 0
M  V30 7083 C 676.311 -0.218695 4.23536 0
M  V30 7084 N 676.702 0.777908 4.99782 0
M  V30 7085 C 675 -0.456748 4.43655 0
M  V30 7086 C 675.701 1.22632 5.68627 0
M  V30 7087 N 674.677 0.55573 5.40752 0
M  V30 7088 H 678.479 0.742516 2.84366 0
M  V30 7089 H 675.993 0.506862 1.54288 0
M  V30 7090 H 677.99 -1.48652 3.89497 0
M  V30 7091 H 676.65 -1.73463 2.74483 0
M  V30 7092 H 677.661 1.15754 5.04798 0
M  V30 7093 H 674.338 -1.20021 3.99877 0
M  V30 7094 H 675.728 2.05231 6.39789 0
M  V30 7095 N 678.448 -1.51871 0.421078 0
M  V30 7096 C 679.695 -2.01938 -0.15079 0
M  V30 7097 C 680.023 -1.30611 -1.44121 0
M  V30 7098 O 679.278 -0.404631 -1.91471 0
M  V30 7099 C 679.577 -3.54764 -0.433292 0
M  V30 7100 C 679.243 -4.44288 0.76936 0
M  V30 7101 C 677.905 -4.68477 1.09921 0
M  V30 7102 C 680.257 -4.96915 1.57242 0
M  V30 7103 C 677.585 -5.4254 2.2331 0
M  V30 7104 C 679.937 -5.7222 2.69716 0
M  V30 7105 C 678.601 -5.94678 3.03174 0
M  V30 7106 H 677.871 -0.738943 -0.0551781 0
M  V30 7107 H 680.518 -1.82977 0.564945 0
M  V30 7108 H 678.823 -3.71968 -1.23074 0
M  V30 7109 H 680.52 -3.91023 -0.888922 0
M  V30 7110 H 677.11 -4.25646 0.502305 0
M  V30 7111 H 681.294 -4.78125 1.3308 0
M  V30 7112 H 676.55 -5.58146 2.49565 0
M  V30 7113 H 680.724 -6.11992 3.32323 0
M  V30 7114 H 678.351 -6.51848 3.9115 0
M  V30 7115 N 679.926 -0.151884 -1.56866 0
M  V30 7116 C 681.154 0.504813 -2.00647 0
M  V30 7117 C 681.569 1.58098 -1.03201 0
M  V30 7118 O 680.926 1.82476 -0.0297814 0
M  V30 7119 C 680.977 1.10099 -3.44326 0
M  V30 7120 O 680.698 0.0678021 -4.38048 0
M  V30 7121 C 682.199 1.83782 -4.03409 0
M  V30 7122 H 679.419 0.130989 -0.65809 0
M  V30 7123 H 681.963 -0.247903 -2.02992 0
M  V30 7124 H 680.118 1.8043 -3.42817 0
M  V30 7125 H 680.532 0.505237 -5.22061 0
M  V30 7126 H 682.006 2.2078 -5.05925 0
M  V30 7127 H 682.483 2.72557 -3.44397 0
M  V30 7128 H 683.089 1.18138 -4.08563 0
M  V30 7129 N 681.404 1.57128 0.121893 0
M  V30 7130 C 682.336 1.96773 1.17529 0
M  V30 7131 C 683.349 0.866668 1.37814 0
M  V30 7132 O 684.538 1.14497 1.3694 0
M  V30 7133 C 681.638 2.24832 2.53582 0
M  V30 7134 C 680.811 3.56138 2.53939 0
M  V30 7135 C 679.87 3.72443 3.71716 0
M  V30 7136 O 678.896 4.44584 3.55434 0
M  V30 7137 N 680.098 3.10993 4.90167 0
M  V30 7138 H 682.863 2.87743 0.838086 0
M  V30 7139 H 680.424 1.58881 0.311199 0
M  V30 7140 H 682.416 2.32958 3.30927 0
M  V30 7141 H 680.986 1.40002 2.79496 0
M  V30 7142 H 680.206 3.59226 1.62329 0
M  V30 7143 H 681.494 4.42448 2.51231 0
M  V30 7144 H 680.892 2.52345 5.06299 0
M  V30 7145 H 679.449 3.24644 5.65198 0
M  V30 7146 N 682.882 -0.391992 1.52647 0
M  V30 7147 C 684.128 -1.139 1.67793 0
M  V30 7148 C 684.461 -1.89711 0.41514 0
M  V30 7149 O 683.736 -1.85431 -0.586979 0
M  V30 7150 C 684.019 -2.11966 2.91105 0
M  V30 7151 C 683.872 -1.39939 4.27478 0
M  V30 7152 C 685.191 -3.1243 3.09961 0
M  V30 7153 H 682.31 -0.412707 0.610608 0
M  V30 7154 H 684.952 -0.422725 1.85238 0
M  V30 7155 H 683.102 -2.73048 2.76364 0
M  V30 7156 H 684.774 -0.818439 4.53982 0
M  V30 7157 H 683.017 -0.701246 4.28095 0
M  V30 7158 H 683.688 -2.1158 5.09841 0
M  V30 7159 H 686.164 -2.61435 3.23714 0
M  V30 7160 H 685.04 -3.78294 3.97725 0
M  V30 7161 H 685.301 -3.81127 2.24042 0
M  V30 7162 N 684.36 -1.4356 -0.65026 0
M  V30 7163 C 685.27 -1.514 -1.79207 0
M  V30 7164 C 686.286 -0.400895 -1.69319 0
M  V30 7165 O 687.462 -0.655458 -1.90436 0
M  V30 7166 C 684.527 -1.43737 -3.155 0
M  V30 7167 C 683.588 -2.65743 -3.37163 0
M  V30 7168 C 682.821 -2.58436 -4.66954 0
M  V30 7169 O 683.044 -1.63374 -5.46503 0
M  V30 7170 O 681.978 -3.48984 -4.90402 0
M  V30 7171 H 685.804 -2.47825 -1.75547 0
M  V30 7172 H 683.389 -1.25594 -0.809111 0
M  V30 7173 H 685.271 -1.41916 -3.96784 0
M  V30 7174 H 683.946 -0.504488 -3.19745 0
M  V30 7175 H 682.853 -2.73136 -2.55632 0
M  V30 7176 H 684.186 -3.58014 -3.37768 0
M  V30 7177 N 685.838 0.888903 -1.30139 0
M  V30 7178 C 687.085 1.64037 -1.18736 0
M  V30 7179 C 687.413 1.92771 0.258801 0
M  V30 7180 O 686.668 1.54427 1.20212 0
M  V30 7181 C 686.967 2.99041 -1.95728 0
M  V30 7182 C 686.633 2.89874 -3.45375 0
M  V30 7183 C 685.295 2.87082 -3.86183 0
M  V30 7184 C 687.647 2.78289 -4.40687 0
M  V30 7185 C 684.975 2.70536 -5.20603 0
M  V30 7186 C 687.327 2.63282 -5.75209 0
M  V30 7187 C 685.991 2.58861 -6.15262 0
M  V30 7188 H 685.261 0.600253 -0.434485 0
M  V30 7189 H 687.908 1.0338 -1.61198 0
M  V30 7190 H 686.213 3.63626 -1.45888 0
M  V30 7191 H 687.91 3.56139 -1.843 0
M  V30 7192 H 684.5 2.92856 -3.12943 0
M  V30 7193 H 688.684 2.79516 -4.10103 0
M  V30 7194 H 683.94 2.65526 -5.50732 0
M  V30 7195 H 688.114 2.5329 -6.48704 0
M  V30 7196 H 685.741 2.45799 -7.19366 0
M  V30 7197 N 687.317 1.12792 1.10072 0
M  V30 7198 C 688.547 0.907189 1.85617 0
M  V30 7199 C 688.955 -0.547181 1.81115 0
M  V30 7200 O 688.298 -1.39024 1.20075 0
M  V30 7201 C 688.36 1.30872 3.34832 0
M  V30 7202 C 688.024 2.77516 3.6309 0
M  V30 7203 C 689.021 3.75696 3.59373 0
M  V30 7204 C 686.706 3.14513 3.91646 0
M  V30 7205 C 688.7 5.08888 3.83812 0
M  V30 7206 C 686.387 4.47886 4.15742 0
M  V30 7207 C 687.385 5.44882 4.11816 0
M  V30 7208 O 687.073 6.7585 4.35295 0
M  V30 7209 H 686.805 0.323855 0.593375 0
M  V30 7210 H 689.359 1.50262 1.40038 0
M  V30 7211 H 687.589 0.656518 3.81086 0
M  V30 7212 H 689.278 1.06153 3.91773 0
M  V30 7213 H 690.044 3.48458 3.37345 0
M  V30 7214 H 685.923 2.39622 3.93831 0
M  V30 7215 H 689.467 5.84586 3.80663 0
M  V30 7216 H 685.364 4.74851 4.37249 0
M  V30 7217 H 686.132 6.81853 4.52791 0
M  V30 7218 N 688.795 -1.27931 0.920396 0
M  V30 7219 C 689.727 -2.26175 0.371169 0
M  V30 7220 C 690.74 -1.55122 -0.494065 0
M  V30 7221 O 691.929 -1.75825 -0.30787 0
M  V30 7222 C 689.029 -3.35376 -0.487481 0
M  V30 7223 C 688.202 -4.35943 0.356772 0
M  V30 7224 C 687.261 -5.24374 -0.438042 0
M  V30 7225 O 686.287 -5.68998 0.151715 0
M  V30 7226 N 687.489 -5.53823 -1.73956 0
M  V30 7227 H 690.254 -2.73938 1.21564 0
M  V30 7228 H 687.815 -1.41482 0.787047 0
M  V30 7229 H 689.807 -3.91476 -1.02609 0
M  V30 7230 H 688.377 -2.87269 -1.23269 0
M  V30 7231 H 687.597 -3.7921 1.07672 0
M  V30 7232 H 688.885 -5.0015 0.934206 0
M  V30 7233 H 688.283 -5.19413 -2.24114 0
M  V30 7234 H 686.84 -6.12653 -2.22486 0
M  V30 7235 N 690.273 -0.685099 -1.4193 0
M  V30 7236 C 691.521 -0.21124 -2.00993 0
M  V30 7237 C 691.842 1.18985 -1.54491 0
M  V30 7238 O 691.112 1.8009 -0.771 0
M  V30 7239 H 689.692 -0.0751059 -0.743215 0
M  V30 7240 H 692.354 -0.883915 -1.73704 0
M  V30 7241 H 691.45 -0.220513 -3.1132 0
M  V30 7242 N 691.751 1.51645 -0.429126 0
M  V30 7243 C 692.976 2.06917 0.141399 0
M  V30 7244 C 693.401 1.29527 1.36398 0
M  V30 7245 O 692.759 0.33094 1.78254 0
M  V30 7246 C 692.807 3.57776 0.4504 0
M  V30 7247 O 691.911 3.82639 1.53821 0
M  V30 7248 H 691.252 0.663978 0.0054647 0
M  V30 7249 H 693.782 1.95355 -0.608093 0
M  V30 7250 H 693.792 4.01894 0.703249 0
M  V30 7251 H 692.467 4.13532 -0.443213 0
M  V30 7252 H 691.044 3.5039 1.27597 0
M  V30 7253 N 693.229 0.160201 1.56784 0
M  V30 7254 C 694.475 -0.48831 1.96833 0
M  V30 7255 C 694.808 -1.63641 1.04571 0
M  V30 7256 O 694.083 -1.94289 0.0906481 0
M  V30 7257 C 694.366 -0.981908 3.46454 0
M  V30 7258 C 694.219 0.165607 4.49495 0
M  V30 7259 C 695.538 -1.85931 3.98896 0
M  V30 7260 H 692.657 -0.176027 0.71567 0
M  V30 7261 H 695.299 0.244093 1.88426 0
M  V30 7262 H 693.449 -1.60602 3.5375 0
M  V30 7263 H 695.121 0.802372 4.54268 0
M  V30 7264 H 693.364 0.822789 4.25926 0
M  V30 7265 H 694.035 -0.221699 5.51555 0
M  V30 7266 H 696.511 -1.33327 3.94161 0
M  V30 7267 H 695.387 -2.17373 5.04024 0
M  V30 7268 H 695.648 -2.80106 3.42042 0
M  V30 7269 N 694.707 -1.5719 -0.113559 0
M  V30 7270 C 695.637 -2.03772 -1.14013 0
M  V30 7271 C 696.618 -0.923176 -1.42869 0
M  V30 7272 O 697.803 -1.19325 -1.53216 0
M  V30 7273 C 694.933 -2.44663 -2.4649 0
M  V30 7274 C 693.887 -3.59612 -2.32085 0
M  V30 7275 C 693.213 -3.8642 -3.69573 0
M  V30 7276 C 694.513 -4.91149 -1.7768 0
M  V30 7277 H 696.207 -2.89785 -0.752665 0
M  V30 7278 H 693.753 -1.39412 -0.360609 0
M  V30 7279 H 695.706 -2.75857 -3.18561 0
M  V30 7280 H 694.43 -1.55628 -2.87137 0
M  V30 7281 H 693.089 -3.28636 -1.62461 0
M  V30 7282 H 692.737 -2.94581 -4.07715 0
M  V30 7283 H 692.437 -4.63797 -3.60786 0
M  V30 7284 H 693.961 -4.2007 -4.4314 0
M  V30 7285 H 695.375 -5.20843 -2.39574 0
M  V30 7286 H 693.772 -5.72562 -1.79701 0
M  V30 7287 H 694.842 -4.79301 -0.734776 0
M  V30 7288 N 696.185 0.383891 -1.52853 0
M  V30 7289 C 697.133 1.48965 -1.7864 0
M  V30 7290 C 698.127 1.56242 -0.654577 0
M  V30 7291 O 699.333 1.59347 -0.83716 0
M  V30 7292 H 695.708 0.495892 -0.565328 0
M  V30 7293 H 697.679 1.24411 -2.71228 0
M  V30 7294 C 696.428 2.86036 -1.97683 0
M  V30 7295 H 695.751 2.81188 -2.84206 0
M  V30 7296 H 697.191 3.62632 -2.19713 0
M  V30 7297 C 695.65 3.28428 -0.750776 0
M  V30 7298 O 696.18 4.0164 0.0693491 0
M  V30 7299 N 694.386 2.84765 -0.579427 0
M  V30 7300 H 693.933 2.25353 -1.24795 0
M  V30 7301 H 693.891 3.13486 0.239544 0
M  V30 7302 N 697.663 1.43903 0.642637 0
M  V30 7303 C 699.074 1.40975 1.22404 0
M  V30 7304 C 699.425 0.1192 1.95838 0
M  V30 7305 O 698.55 -0.780939 2.01818 0
M  V30 7306 C 699.145 2.5538 2.22636 0
M  V30 7307 C 697.704 2.55684 2.76229 0
M  V30 7308 C 696.851 2.32556 1.51039 0
M  V30 7309 H 699.802 1.5265 0.434006 0
M  V30 7310 H 699.823 2.27474 3.05017 0
M  V30 7311 H 699.335 3.49294 1.69161 0
M  V30 7312 H 697.436 1.65679 3.33738 0
M  V30 7313 H 697.549 3.53799 3.23053 0
M  V30 7314 H 695.913 1.81427 1.78764 0
M  V30 7315 H 696.696 3.28569 0.99484 0
M  V30 7316 N 699.141 -0.881989 1.30609 0
M  V30 7317 C 700.091 -1.97539 1.13852 0
M  V30 7318 C 701.075 -1.60813 0.0528428 0
M  V30 7319 O 702.267 -1.74827 0.276484 0
M  V30 7320 C 699.396 -3.32977 0.835519 0
M  V30 7321 C 698.482 -3.76008 1.96159 0
M  V30 7322 N 698.873 -3.91109 3.20729 0
M  V30 7323 C 697.171 -4.05427 1.85863 0
M  V30 7324 C 697.872 -4.27661 3.94311 0
M  V30 7325 N 696.848 -4.37686 3.22385 0
M  V30 7326 H 700.65 -2.07309 2.08327 0
M  V30 7327 H 698.164 -1.072 1.21992 0
M  V30 7328 H 700.161 -4.11041 0.696477 0
M  V30 7329 H 698.821 -3.24542 -0.101135 0
M  V30 7330 H 699.832 -3.7616 3.55984 0
M  V30 7331 H 696.509 -4.05449 0.995847 0
M  V30 7332 H 697.899 -4.47042 5.01601 0
M  V30 7333 N 700.619 -1.13374 -1.09472 0
M  V30 7334 C 701.896 -0.806329 -1.78207 0
M  V30 7335 C 702.276 0.702191 -1.99079 0
M  V30 7336 O 701.624 1.63931 -1.59182 0
M  V30 7337 C 701.834 -1.59271 -3.10538 0
M  V30 7338 C 703.182 -1.78509 -3.85253 0
M  V30 7339 O 704.206 -1.55866 -3.20288 0
M  V30 7340 O 703.065 -2.16287 -5.01879 0
M  V30 7341 H 700.159 -0.29435 -0.772843 0
M  V30 7342 H 702.705 -1.23833 -1.16033 0
M  V30 7343 H 701.477 -2.61792 -2.90828 0
M  V30 7344 H 701.1 -1.15562 -3.80436 0
M  V30 7345 N 702.098 1.27442 -0.927168 0
M  V30 7346 C 703.028 2.29256 -0.443188 0
M  V30 7347 C 704.009 1.62701 0.49624 0
M  V30 7348 O 705.194 1.90013 0.401105 0
M  V30 7349 C 702.324 3.45955 0.305366 0
M  V30 7350 C 701.278 4.24501 -0.546178 0
M  V30 7351 C 700.604 5.33671 0.331512 0
M  V30 7352 C 701.904 4.89921 -1.81037 0
M  V30 7353 H 703.598 2.69988 -1.29409 0
M  V30 7354 H 701.144 1.29792 -0.623705 0
M  V30 7355 H 703.097 4.1628 0.654885 0
M  V30 7356 H 701.821 3.04138 1.19029 0
M  V30 7357 H 700.48 3.55921 -0.878398 0
M  V30 7358 H 700.128 4.88096 1.21537 0
M  V30 7359 H 699.828 5.87131 -0.234746 0
M  V30 7360 H 701.352 6.0684 0.676614 0
M  V30 7361 H 702.766 5.52536 -1.52895 0
M  V30 7362 H 701.163 5.53436 -2.32009 0
M  V30 7363 H 702.233 4.13652 -2.53021 0
M  V30 7364 N 703.576 0.692616 1.41565 0
M  V30 7365 C 704.539 0.0344174 2.29174 0
M  V30 7366 C 705.539 -0.710961 1.44229 0
M  V30 7367 O 706.729 -0.546293 1.65412 0
M  V30 7368 C 703.861 -0.961682 3.27054 0
M  V30 7369 H 705.054 0.805755 2.88873 0
M  V30 7370 H 702.607 0.455947 1.49502 0
M  V30 7371 H 703.342 -1.76089 2.72329 0
M  V30 7372 H 703.127 -0.430375 3.89731 0
M  V30 7373 H 704.617 -1.4201 3.92712 0
M  V30 7374 N 705.054 -1.51416 0.437162 0
M  V30 7375 C 706.47 -1.59349 0.0894459 0
M  V30 7376 C 706.67 -1.44809 -1.40116 0
M  V30 7377 O 705.726 -1.28924 -2.17106 0
M  V30 7378 C 707.039 -2.9446 0.609398 0
M  V30 7379 C 708.587 -3.07769 0.569824 0
M  V30 7380 C 709.062 -4.45404 1.06675 0
M  V30 7381 N 710.553 -4.51723 1.02473 0
M  V30 7382 C 711.288 -5.56544 1.3801 0
M  V30 7383 N 710.784 -6.68784 1.80831 0
M  V30 7384 N 712.577 -5.46901 1.29828 0
M  V30 7385 H 704.728 -1.59112 1.40703 0
M  V30 7386 H 706.991 -0.750031 0.579791 0
M  V30 7387 H 706.697 -3.1047 1.65231 0
M  V30 7388 H 706.571 -3.77184 0.0342236 0
M  V30 7389 H 708.958 -2.91428 -0.464107 0
M  V30 7390 H 709.039 -2.26885 1.1814 0
M  V30 7391 H 708.683 -4.62492 2.09914 0
M  V30 7392 H 708.613 -5.24827 0.431712 0
M  V30 7393 H 711.104 -3.71165 0.710258 0
M  V30 7394 H 711.417 -7.44787 2.06185 0
M  V30 7395 H 709.762 -6.69992 1.84757 0
M  V30 7396 H 712.953 -4.581 0.962397 0
M  V30 7397 H 713.126 -6.2848 1.57851 0
M  V30 7398 N 706.532 -0.168513 -1.56696 0
M  V30 7399 C 707.778 0.477865 -1.9709 0
M  V30 7400 C 708.111 1.63084 -1.05438 0
M  V30 7401 O 707.386 1.94238 -0.10095 0
M  V30 7402 C 707.669 0.963521 -3.4697 0
M  V30 7403 C 707.522 -0.189443 -4.49401 0
M  V30 7404 C 708.841 1.83813 -3.99876 0
M  V30 7405 H 705.96 0.172229 -0.716593 0
M  V30 7406 H 708.602 -0.254083 -1.88293 0
M  V30 7407 H 706.752 1.58724 -3.54597 0
M  V30 7408 H 708.424 -0.826451 -4.53836 0
M  V30 7409 H 706.667 -0.845366 -4.25483 0
M  V30 7410 H 707.338 0.192446 -5.51664 0
M  V30 7411 H 709.814 1.31235 -3.94863 0
M  V30 7412 H 708.69 2.14697 -5.0517 0
M  V30 7413 H 708.951 2.78289 -3.43523 0
M  V30 7414 N 708.01 1.57248 0.105221 0
M  V30 7415 C 708.957 2.01338 1.12835 0
M  V30 7416 C 709.927 0.887897 1.40377 0
M  V30 7417 O 711.112 1.15315 1.5201 0
M  V30 7418 C 708.252 2.43432 2.44611 0
M  V30 7419 C 707.365 3.69457 2.23888 0
M  V30 7420 C 706.5 4.00473 3.48991 0
M  V30 7421 C 705.539 5.19638 3.23485 0
M  V30 7422 N 704.676 5.46457 4.40828 0
M  V30 7423 H 709.516 2.88527 0.745386 0
M  V30 7424 H 707.053 1.42714 0.356535 0
M  V30 7425 H 709.011 2.65879 3.21503 0
M  V30 7426 H 707.641 1.59266 2.80774 0
M  V30 7427 H 706.693 3.54545 1.37847 0
M  V30 7428 H 708.005 4.56497 2.01026 0
M  V30 7429 H 707.159 4.23642 4.34295 0
M  V30 7430 H 705.898 3.11935 3.74897 0
M  V30 7431 H 704.903 4.96299 2.36574 0
M  V30 7432 H 706.128 6.09766 2.98935 0
M  V30 7433 H 704.074 4.60876 4.66829 0
M  V30 7434 H 703.991 6.27849 4.2112 0
M  V30 7435 H 705.259 5.74155 5.27225 0
M  V30 7436 N 709.488 -0.375779 1.53054 0
M  V30 7437 C 710.737 -1.11674 1.67964 0
M  V30 7438 C 711.05 -1.90755 0.432655 0
M  V30 7439 O 712.256 -2.67538 0.462109 0
M  V30 7440 C 710.712 -2.0344 2.96884 0
M  V30 7441 C 710.32 -1.29719 4.28809 0
M  V30 7442 C 712.064 -2.7759 3.2116 0
M  V30 7443 C 709.971 -2.20327 5.48826 0
M  V30 7444 H 708.901 -0.420597 0.625791 0
M  V30 7445 H 711.552 -0.378499 1.79554 0
M  V30 7446 H 709.934 -2.80953 2.79072 0
M  V30 7447 H 711.108 -0.573394 4.57219 0
M  V30 7448 H 709.423 -0.674735 4.10897 0
M  V30 7449 H 712.02 -3.4559 4.0801 0
M  V30 7450 H 712.363 -3.42399 2.36789 0
M  V30 7451 H 712.896 -2.07164 3.396 0
M  V30 7452 H 709.635 -1.60113 6.35645 0
M  V30 7453 H 709.155 -2.90585 5.2471 0
M  V30 7454 H 710.834 -2.80116 5.83219 0
M  V30 7455 N 710.966 -1.44241 -0.634997 0
M  V30 7456 C 711.876 -1.53293 -1.77591 0
M  V30 7457 C 712.892 -0.418831 -1.68884 0
M  V30 7458 O 714.068 -0.675619 -1.8973 0
M  V30 7459 C 711.133 -1.47075 -3.13958 0
M  V30 7460 C 710.194 -2.69304 -3.34326 0
M  V30 7461 C 709.427 -2.63374 -4.64187 0
M  V30 7462 O 709.65 -1.69161 -5.44739 0
M  V30 7463 O 708.584 -3.54166 -4.86673 0
M  V30 7464 H 712.41 -2.49673 -1.72908 0
M  V30 7465 H 709.995 -1.26445 -0.795745 0
M  V30 7466 H 711.877 -1.46117 -3.95257 0
M  V30 7467 H 710.552 -0.538373 -3.19192 0
M  V30 7468 H 709.459 -2.75831 -2.52721 0
M  V30 7469 H 710.792 -3.61576 -3.33951 0
M  V30 7470 N 712.444 0.87505 -1.31075 0
M  V30 7471 C 713.669 1.66583 -1.23551 0
M  V30 7472 C 714.094 1.87067 0.19686 0
M  V30 7473 O 713.452 1.40877 1.1412 0
M  V30 7474 C 713.5 3.01401 -1.97965 0
M  V30 7475 O 712.604 3.90923 -1.31351 0
M  V30 7476 H 711.945 0.508645 -0.426821 0
M  V30 7477 H 714.475 1.09139 -1.7306 0
M  V30 7478 H 714.485 3.51374 -2.07366 0
M  V30 7479 H 713.16 2.85812 -3.02133 0
M  V30 7480 H 711.737 3.49369 -1.30368 0
M  V30 7481 N 713.922 1.13953 1.08869 0
M  V30 7482 C 714.885 0.824991 2.13838 0
M  V30 7483 C 715.885 -0.168198 1.59918 0
M  V30 7484 O 717.075 0.0595778 1.74098 0
M  V30 7485 C 714.207 0.228938 3.4013 0
M  V30 7486 H 715.4 1.75521 2.43171 0
M  V30 7487 H 712.953 0.94492 1.24503 0
M  V30 7488 H 713.688 -0.710227 3.16427 0
M  V30 7489 H 713.473 0.944243 3.80561 0
M  V30 7490 H 714.963 0.0259223 4.17592 0
M  V30 7491 N 715.4 -1.26948 0.933913 0
M  V30 7492 C 716.677 -1.89212 0.495784 0
M  V30 7493 C 717.057 -1.84469 -1.02637 0
M  V30 7494 O 716.405 -1.29409 -1.88323 0
M  V30 7495 C 716.615 -3.32865 1.0489 0
M  V30 7496 C 717.963 -4.09749 1.11315 0
M  V30 7497 O 718.987 -3.41905 0.998966 0
M  V30 7498 O 717.846 -5.31061 1.28983 0
M  V30 7499 H 714.94 -0.811284 0.160459 0
M  V30 7500 H 717.486 -1.35171 1.02601 0
M  V30 7501 H 716.258 -3.30642 2.09265 0
M  V30 7502 H 715.881 -3.94435 0.500692 0
M  V30 7503 N 716.879 -0.700114 -1.41195 0
M  V30 7504 C 717.842 -0.0465706 -2.29153 0
M  V30 7505 C 718.842 0.703302 -1.44604 0
M  V30 7506 O 720.032 0.537513 -1.657 0
M  V30 7507 C 717.164 0.944324 -3.2756 0
M  V30 7508 H 718.357 -0.821064 -2.88442 0
M  V30 7509 H 715.91 -0.463869 -1.49258 0
M  V30 7510 H 716.645 1.74642 -2.73259 0
M  V30 7511 H 716.43 0.409701 -3.89954 0
M  V30 7512 H 717.92 1.39925 -3.9346 0
M  V30 7513 N 718.357 1.51182 -0.445186 0
M  V30 7514 C 719.597 2.04061 0.117717 0
M  V30 7515 C 719.961 1.32158 1.39278 0
M  V30 7516 O 721.162 1.75452 2.03642 0
M  V30 7517 C 719.433 3.55933 0.323445 0
M  V30 7518 S 720.992 4.30516 0.848627 0
M  V30 7519 H 717.81 0.710442 0.028165 0
M  V30 7520 H 720.412 1.85858 -0.606391 0
M  V30 7521 H 719.116 4.0583 -0.610764 0
M  V30 7522 H 718.647 3.78444 1.07441 0
M  V30 7523 H 720.662 4.48382 2.12528 0
M  V30 7524 N 719.835 0.176821 1.56605 0
M  V30 7525 C 720.765 -0.746841 2.21234 0
M  V30 7526 C 721.746 -1.23502 1.16967 0
M  V30 7527 O 722.931 -1.28718 1.45414 0
M  V30 7528 C 720.061 -1.97407 2.8574 0
M  V30 7529 C 719.015 -1.62153 3.96094 0
M  V30 7530 C 718.341 -2.92387 4.47676 0
M  V30 7531 C 719.641 -0.845353 5.15413 0
M  V30 7532 H 721.335 -0.208116 2.98676 0
M  V30 7533 H 718.881 -0.0986594 1.43662 0
M  V30 7534 H 720.834 -2.62531 3.2963 0
M  V30 7535 H 719.558 -2.53703 2.05676 0
M  V30 7536 H 718.217 -0.993964 3.52868 0
M  V30 7537 H 717.865 -3.46734 3.64396 0
M  V30 7538 H 717.565 -2.69551 5.22127 0
M  V30 7539 H 719.089 -3.5853 4.94255 0
M  V30 7540 H 720.503 -1.39929 5.55961 0
M  V30 7541 H 718.9 -0.715814 5.95815 0
M  V30 7542 H 719.97 0.157239 4.84645 0
M  V30 7543 N 721.313 -1.57302 -0.09688 0
M  V30 7544 C 722.562 -1.85183 -0.799388 0
M  V30 7545 C 722.875 -0.765818 -1.79985 0
M  V30 7546 O 724.081 -0.931696 -2.55013 0
M  V30 7547 C 722.537 -3.28399 -1.47249 0
M  V30 7548 C 722.145 -4.45066 -0.511888 0
M  V30 7549 C 723.889 -3.65506 -2.15883 0
M  V30 7550 C 721.796 -5.79315 -1.18948 0
M  V30 7551 H 720.726 -0.690752 -0.302287 0
M  V30 7552 H 723.377 -1.83425 -0.0523104 0
M  V30 7553 H 721.759 -3.24692 -2.26697 0
M  V30 7554 H 722.933 -4.60116 0.250962 0
M  V30 7555 H 721.248 -4.16343 0.0686576 0
M  V30 7556 H 723.845 -4.63087 -2.67309 0
M  V30 7557 H 724.188 -2.94041 -2.94696 0
M  V30 7558 H 724.721 -3.71094 -1.43298 0
M  V30 7559 H 721.46 -6.54007 -0.442198 0
M  V30 7560 H 720.98 -5.68111 -1.9238 0
M  V30 7561 H 722.659 -6.23816 -1.71646 0
M  V30 7562 N 722.791 0.367657 -1.53252 0
M  V30 7563 C 723.721 1.45632 -1.8252 0
M  V30 7564 C 724.702 1.55979 -0.678568 0
M  V30 7565 O 725.887 1.70581 -0.928217 0
M  V30 7566 C 723.017 2.82994 -2.01325 0
M  V30 7567 C 721.971 2.87473 -3.17086 0
M  V30 7568 C 721.297 4.2749 -3.21179 0
M  V30 7569 C 722.597 2.55182 -4.55719 0
M  V30 7570 H 724.291 1.21387 -2.73689 0
M  V30 7571 H 721.837 0.58251 -1.31692 0
M  V30 7572 H 723.79 3.59179 -2.20383 0
M  V30 7573 H 722.514 3.08622 -1.06864 0
M  V30 7574 H 721.173 2.13739 -2.97844 0
M  V30 7575 H 720.821 4.5019 -2.24361 0
M  V30 7576 H 720.521 4.31403 -3.98955 0
M  V30 7577 H 722.045 5.0555 -3.42419 0
M  V30 7578 H 723.459 3.21081 -4.74953 0
M  V30 7579 H 721.856 2.70414 -5.3572 0
M  V30 7580 H 722.926 1.5044 -4.60973 0
M  V30 7581 N 724.269 1.44576 0.627338 0
M  V30 7582 C 725.232 1.51372 1.72102 0
M  V30 7583 C 726.232 0.395329 1.55865 0
M  V30 7584 O 727.422 0.658094 1.61291 0
M  V30 7585 C 724.554 1.39129 3.11217 0
M  V30 7586 H 725.747 2.48798 1.6745 0
M  V30 7587 H 723.3 1.31724 0.841336 0
M  V30 7588 H 724.035 0.428114 3.21462 0
M  V30 7589 H 723.82 2.20229 3.24409 0
M  V30 7590 H 725.31 1.46874 3.90919 0
M  V30 7591 N 725.747 -0.868086 1.31537 0
M  V30 7592 C 726.695 -1.99688 1.1928 0
M  V30 7593 C 727.689 -1.69101 0.100656 0
M  V30 7594 O 728.895 -1.78073 0.262677 0
M  V30 7595 H 725.27 -0.655032 0.369374 0
M  V30 7596 H 727.241 -2.07157 2.14776 0
M  V30 7597 C 725.99 -3.35338 0.918892 0
M  V30 7598 H 725.313 -3.59396 1.75142 0
M  V30 7599 H 726.753 -4.14909 0.873311 0
M  V30 7600 C 725.212 -3.34769 -0.378366 0
M  V30 7601 O 725.742 -3.76716 -1.39456 0
M  V30 7602 N 723.948 -2.87895 -0.39557 0
M  V30 7603 H 723.495 -2.53954 0.431889 0
M  V30 7604 H 723.453 -2.87897 -1.26344 0
M  V30 7605 N 727.225 -1.14528 -1.08264 0
M  V30 7606 C 728.172 -0.833556 -2.15222 0
M  V30 7607 C 729.142 0.209539 -1.64773 0
M  V30 7608 O 730.327 0.0791388 -1.90636 0
M  V30 7609 C 727.467 -0.318799 -3.43624 0
M  V30 7610 C 726.58 -1.42237 -4.07913 0
M  V30 7611 C 725.715 -0.864704 -5.24115 0
M  V30 7612 C 724.754 -1.94585 -5.80347 0
M  V30 7613 N 723.891 -1.40525 -6.87893 0
M  V30 7614 H 728.731 -1.74965 -2.41228 0
M  V30 7615 H 726.268 -0.873169 -1.18381 0
M  V30 7616 H 728.226 -0.00213088 -4.172 0
M  V30 7617 H 726.856 0.560397 -3.17898 0
M  V30 7618 H 725.908 -1.8554 -3.32083 0
M  V30 7619 H 727.22 -2.23901 -4.45724 0
M  V30 7620 H 726.374 -0.500025 -6.04636 0
M  V30 7621 H 725.113 -0.0171219 -4.87697 0
M  V30 7622 H 724.118 -2.31946 -4.98479 0
M  V30 7623 H 725.343 -2.79704 -6.18823 0
M  V30 7624 H 723.289 -0.579873 -6.53432 0
M  V30 7625 H 723.206 -2.15825 -7.24538 0
M  V30 7626 H 724.474 -1.06852 -7.72142 0
M  V30 7627 N 728.703 1.26451 -0.940633 0
M  V30 7628 C 729.933 1.97581 -0.603766 0
M  V30 7629 C 730.341 1.70246 0.825395 0
M  V30 7630 O 729.684 0.967001 1.56188 0
M  V30 7631 C 729.746 3.51256 -0.765463 0
M  V30 7632 C 729.41 4.0224 -2.16915 0
M  V30 7633 C 730.407 4.1402 -3.14457 0
M  V30 7634 C 728.092 4.36263 -2.48958 0
M  V30 7635 C 730.086 4.59117 -4.42143 0
M  V30 7636 C 727.773 4.81048 -3.76877 0
M  V30 7637 C 728.771 4.92436 -4.73282 0
M  V30 7638 O 728.459 5.36234 -5.98923 0
M  V30 7639 H 728.191 0.636948 -0.226436 0
M  V30 7640 H 730.745 1.61941 -1.2635 0
M  V30 7641 H 728.975 3.86669 -0.0485956 0
M  V30 7642 H 730.664 4.03597 -0.431738 0
M  V30 7643 H 731.43 3.87981 -2.91026 0
M  V30 7644 H 727.309 4.26634 -1.74656 0
M  V30 7645 H 730.853 4.6792 -5.17394 0
M  V30 7646 H 726.75 5.06531 -4.00121 0
M  V30 7647 H 727.518 5.54456 -6.02097 0
M  V30 7648 N 730.181 0.707592 1.40822 0
M  V30 7649 C 731.421 0.247986 2.0289 0
M  V30 7650 C 731.785 -1.13484 1.54872 0
M  V30 7651 O 732.986 -1.69098 2.08948 0
M  V30 7652 C 731.257 0.316326 3.55997 0
M  V30 7653 S 732.816 -0.0674698 4.38748 0
M  V30 7654 H 729.634 0.09895 0.704081 0
M  V30 7655 H 732.236 0.928039 1.72069 0
M  V30 7656 H 730.94 1.32453 3.88438 0
M  V30 7657 H 730.471 -0.382474 3.91536 0
M  V30 7658 H 732.486 -1.29182 4.79089 0
M  V30 7659 N 731.66 -1.50943 0.453197 0
M  V30 7660 C 732.623 -2.26684 -0.338705 0
M  V30 7661 C 733.623 -1.30748 -0.936032 0
M  V30 7662 O 734.813 -1.54327 -0.808002 0
M  V30 7663 C 731.945 -3.07063 -1.48071 0
M  V30 7664 H 733.138 -2.98131 0.325289 0
M  V30 7665 H 730.691 -1.54926 0.206771 0
M  V30 7666 H 731.426 -2.4007 -2.18029 0
M  V30 7667 H 731.211 -3.77545 -1.0584 0
M  V30 7668 H 732.701 -3.64393 -2.0398 0
M  V30 7669 N 733.138 -0.185124 -1.56509 0
M  V30 7670 C 734.415 0.503348 -1.89013 0
M  V30 7671 C 734.795 1.80349 -1.09715 0
M  V30 7672 O 734.143 2.27665 -0.195203 0
M  V30 7673 C 734.353 0.731839 -3.41241 0
M  V30 7674 C 735.701 1.05568 -4.11267 0
M  V30 7675 O 736.725 0.819906 -3.46635 0
M  V30 7676 O 735.584 1.50116 -5.25478 0
M  V30 7677 H 732.678 0.261139 -0.784688 0
M  V30 7678 H 735.224 -0.224592 -1.68207 0
M  V30 7679 H 733.996 -0.18672 -3.90854 0
M  V30 7680 H 733.619 1.5126 -3.67704 0
M  V30 7681 N 734.616 1.57351 0.0885366 0
M  V30 7682 C 736.027 1.75303 0.642308 0
M  V30 7683 C 736.378 0.808238 1.78779 0
M  V30 7684 O 735.503 -0.01171 2.16397 0
M  V30 7685 C 736.098 3.17885 1.17194 0
M  V30 7686 C 734.657 3.37239 1.67172 0
M  V30 7687 C 733.804 2.7108 0.584045 0
M  V30 7688 H 736.755 1.58103 -0.137567 0
M  V30 7689 H 736.776 3.2112 2.04114 0
M  V30 7690 H 736.288 3.86625 0.338024 0
M  V30 7691 H 734.389 2.73588 2.52943 0
M  V30 7692 H 734.502 4.45594 1.76019 0
M  V30 7693 H 732.866 2.33161 1.02508 0
M  V30 7694 H 733.649 3.42464 -0.239403 0
M  V30 7695 N 736.094 -0.359525 1.53444 0
M  V30 7696 C 737.371 -1.11756 1.6053 0
M  V30 7697 C 737.751 -2.06949 0.416587 0
M  V30 7698 O 737.099 -2.20681 -0.592628 0
M  V30 7699 C 737.309 -1.85133 2.95849 0
M  V30 7700 C 738.657 -2.3945 3.50641 0
M  V30 7701 O 739.681 -1.95251 2.97918 0
M  V30 7702 O 738.54 -3.20266 4.42823 0
M  V30 7703 H 735.634 -0.513005 0.648656 0
M  V30 7704 H 738.18 -0.362301 1.65787 0
M  V30 7705 H 736.952 -1.15694 3.73806 0
M  V30 7706 H 736.575 -2.67554 2.9411 0
M  V30 7707 N 737.572 -1.44907 -0.619662 0
M  V30 7708 C 738.535 -1.52282 -1.71297 0
M  V30 7709 C 739.535 -0.40359 -1.55653 0
M  V30 7710 O 740.725 -0.666638 -1.6094 0
M  V30 7711 C 737.857 -1.40778 -3.10474 0
M  V30 7712 H 739.05 -2.49683 -1.66128 0
M  V30 7713 H 736.603 -1.32168 -0.834339 0
M  V30 7714 H 737.338 -0.445156 -3.2123 0
M  V30 7715 H 737.123 -2.21947 -3.23237 0
M  V30 7716 H 738.613 -1.48946 -3.90135 0
M  V30 7717 N 739.05 0.861098 -1.31996 0
M  V30 7718 C 739.96 2.00154 -1.22374 0
M  V30 7719 C 740.976 1.73447 -0.138631 0
M  V30 7720 O 742.152 1.98191 -0.358104 0
M  V30 7721 C 739.217 3.33696 -0.940645 0
M  V30 7722 C 738.278 3.73668 -2.11355 0
M  V30 7723 C 737.511 5.00837 -1.84386 0
M  V30 7724 O 737.734 5.64996 -0.783287 0
M  V30 7725 O 736.668 5.37787 -2.70313 0
M  V30 7726 H 740.494 2.11207 -2.18233 0
M  V30 7727 H 738.079 0.990768 -1.11822 0
M  V30 7728 H 739.961 4.13756 -0.798987 0
M  V30 7729 H 738.636 3.23698 -0.0121636 0
M  V30 7730 H 737.543 2.94211 -2.31065 0
M  V30 7731 H 738.876 3.88303 -3.02459 0
M  V30 7732 N 740.528 1.15101 1.07655 0
M  V30 7733 C 741.805 0.834578 1.76902 0
M  V30 7734 C 742.185 -0.670431 2.00171 0
M  V30 7735 O 741.533 -1.61378 1.6177 0
M  V30 7736 C 741.743 1.64191 3.07965 0
M  V30 7737 C 743.091 1.84615 3.82364 0
M  V30 7738 O 744.115 1.60941 3.17768 0
M  V30 7739 O 742.974 2.24244 4.98374 0
M  V30 7740 H 740.068 0.306608 0.768063 0
M  V30 7741 H 742.614 1.25663 1.14048 0
M  V30 7742 H 741.386 2.66386 2.86626 0
M  V30 7743 H 741.009 1.216 3.78549 0
M  V30 7744 N 742.006 -1.2595 0.947325 0
M  V30 7745 C 742.969 -2.24407 0.466285 0
M  V30 7746 C 743.969 -1.55054 -0.426005 0
M  V30 7747 O 745.159 -1.7275 -0.224319 0
M  V30 7748 C 742.291 -3.39326 -0.327201 0
M  V30 7749 H 743.484 -2.68477 1.33642 0
M  V30 7750 H 741.037 -1.38211 0.729887 0
M  V30 7751 H 741.772 -3.00667 -1.21532 0
M  V30 7752 H 741.557 -3.9085 0.312839 0
M  V30 7753 H 743.047 -4.12455 -0.653477 0
M  V30 7754 N 743.484 -0.715051 -1.40445 0
M  V30 7755 C 744.709 -0.26254 -2.05732 0
M  V30 7756 C 745.134 1.08691 -1.53519 0
M  V30 7757 O 744.492 1.68453 -0.670328 0
M  V30 7758 C 744.54 -0.25195 -3.59719 0
M  V30 7759 O 743.644 0.766998 -4.05205 0
M  V30 7760 H 742.985 -0.123398 -0.652433 0
M  V30 7761 H 745.515 -0.975382 -1.79854 0
M  V30 7762 H 745.525 -0.0894537 -4.07902 0
M  V30 7763 H 744.2 -1.23672 -3.97087 0
M  V30 7764 H 742.777 0.572269 -3.68483 0
M  V30 7765 N 744.962 1.50701 -0.461195 0
M  V30 7766 C 745.91 2.29918 0.352231 0
M  V30 7767 C 746.904 1.36778 0.999403 0
M  V30 7768 O 748.11 1.54015 0.931639 0
M  V30 7769 H 744.485 0.740249 0.132423 0
M  V30 7770 H 746.456 2.96497 -0.336424 0
M  V30 7771 C 745.205 3.17052 1.42736 0
M  V30 7772 H 744.528 3.88623 0.938747 0
M  V30 7773 H 745.968 3.75493 1.96928 0
M  V30 7774 C 744.427 2.3399 2.42384 0
M  V30 7775 O 744.957 2.01608 3.47444 0
M  V30 7776 N 743.163 1.96758 2.13857 0
M  V30 7777 H 742.71 2.23292 1.28447 0
M  V30 7778 H 742.668 1.41484 2.80766 0
M  V30 7779 N 746.441 0.193421 1.56409 0
M  V30 7780 C 747.69 -0.445995 1.96707 0
M  V30 7781 C 748.003 -1.62876 1.08309 0
M  V30 7782 O 749.209 -2.33586 1.38383 0
M  V30 7783 C 747.665 -0.844863 3.49843 0
M  V30 7784 C 747.273 0.31352 4.46902 0
M  V30 7785 C 749.017 -1.45146 3.98915 0
M  V30 7786 C 746.924 -0.106214 5.91305 0
M  V30 7787 H 745.854 -0.170398 0.734493 0
M  V30 7788 H 748.505 0.285172 1.81271 0
M  V30 7789 H 746.887 -1.63265 3.60778 0
M  V30 7790 H 748.061 1.09103 4.47698 0
M  V30 7791 H 746.376 0.8315 4.08014 0
M  V30 7792 H 748.973 -1.77792 5.04276 0
M  V30 7793 H 749.316 -2.35734 3.43126 0
M  V30 7794 H 749.849 -0.727675 3.91088 0
M  V30 7795 H 746.588 0.765442 6.51016 0
M  V30 7796 H 746.108 -0.848623 5.93766 0
M  V30 7797 H 747.787 -0.542588 6.44721 0
M  V30 7798 N 747.919 -1.57396 -0.0801906 0
M  V30 7799 C 748.852 -1.98386 -1.12774 0
M  V30 7800 C 749.83 -0.859423 -1.38031 0
M  V30 7801 O 751.014 -1.12101 -1.51544 0
M  V30 7802 C 748.141 -2.3134 -2.47386 0
M  V30 7803 C 747.187 -3.53706 -2.38316 0
M  V30 7804 S 748.02 -5.04862 -1.78534 0
M  V30 7805 C 749.176 -5.41008 -3.1474 0
M  V30 7806 H 749.409 -2.86929 -0.778382 0
M  V30 7807 H 746.942 -1.51682 -0.28842 0
M  V30 7808 H 748.9 -2.51 -3.24822 0
M  V30 7809 H 747.561 -1.4334 -2.79486 0
M  V30 7810 H 746.754 -3.74253 -3.37566 0
M  V30 7811 H 746.356 -3.33632 -1.69014 0
M  V30 7812 H 748.648 -5.38565 -4.1104 0
M  V30 7813 H 749.591 -6.41885 -2.98981 0
M  V30 7814 H 749.999 -4.68467 -3.14958 0
M  V30 7815 N 749.397 0.351382 -1.53633 0
M  V30 7816 C 750.813 0.693987 -1.43722 0
M  V30 7817 C 751.013 1.9274 -0.587669 0
M  V30 7818 O 750.069 2.52387 -0.0756082 0
M  V30 7819 C 751.382 0.893937 -2.87105 0
M  V30 7820 C 752.93 0.993051 -2.96829 0
M  V30 7821 C 753.405 1.22537 -4.41303 0
M  V30 7822 N 754.896 1.29275 -4.44795 0
M  V30 7823 C 755.631 1.48988 -5.53706 0
M  V30 7824 N 755.127 1.65924 -6.72637 0
M  V30 7825 N 756.92 1.51472 -5.41306 0
M  V30 7826 H 749.071 -0.459688 -2.07366 0
M  V30 7827 H 751.334 -0.143684 -0.937048 0
M  V30 7828 H 751.04 0.0592517 -3.5165 0
M  V30 7829 H 750.914 1.79795 -3.31592 0
M  V30 7830 H 753.301 1.81827 -2.32429 0
M  V30 7831 H 753.382 0.0661119 -2.55715 0
M  V30 7832 H 753.026 0.405117 -5.06282 0
M  V30 7833 H 752.956 2.16575 -4.80003 0
M  V30 7834 H 755.447 1.17743 -3.59089 0
M  V30 7835 H 755.76 1.80578 -7.51406 0
M  V30 7836 H 754.105 1.63075 -6.75597 0
M  V30 7837 H 757.296 1.37818 -4.47352 0
M  V30 7838 H 757.469 1.66493 -6.26246 0
M  V30 7839 N 750.875 1.45233 0.611969 0
M  V30 7840 C 752.121 1.49242 1.37312 0
M  V30 7841 C 752.454 0.131963 1.93751 0
M  V30 7842 O 751.729 -0.852999 1.74798 0
M  V30 7843 C 752.012 2.56811 2.52428 0
M  V30 7844 C 751.865 4.02284 2.01215 0
M  V30 7845 C 753.184 2.60705 3.54572 0
M  V30 7846 H 750.303 0.54336 0.497925 0
M  V30 7847 H 752.945 1.77019 0.690242 0
M  V30 7848 H 751.095 2.33256 3.10683 0
M  V30 7849 H 752.767 4.37035 1.47643 0
M  V30 7850 H 751.01 4.1315 1.32248 0
M  V30 7851 H 751.681 4.7323 2.84178 0
M  V30 7852 H 754.157 2.81799 3.06151 0
M  V30 7853 H 753.033 3.37841 4.32614 0
M  V30 7854 H 753.294 1.65627 4.09903 0
M  V30 7855 N 752.353 -0.854086 1.3245 0
M  V30 7856 C 753.602 -1.60318 1.22397 0
M  V30 7857 C 753.915 -1.9444 -0.212664 0
M  V30 7858 O 755.121 -2.67991 -0.435066 0
M  V30 7859 C 753.577 -2.8909 2.1437 0
M  V30 7860 C 753.185 -2.62391 3.63119 0
M  V30 7861 C 754.929 -3.67104 2.13155 0
M  V30 7862 C 752.836 -3.87167 4.47052 0
M  V30 7863 H 751.766 -0.601586 0.454544 0
M  V30 7864 H 754.417 -0.943023 1.57415 0
M  V30 7865 H 752.799 -3.56567 1.72268 0
M  V30 7866 H 753.973 -2.03222 4.13567 0
M  V30 7867 H 752.288 -1.97706 3.66471 0
M  V30 7868 H 754.885 -4.59696 2.731 0
M  V30 7869 H 755.228 -4.00876 1.12268 0
M  V30 7870 H 755.761 -3.06533 2.5354 0
M  V30 7871 H 752.5 -3.58536 5.48755 0
M  V30 7872 H 752.02 -4.45729 4.01355 0
M  V30 7873 H 753.699 -4.549 4.60081 0
M  V30 7874 N 753.831 -1.1567 -1.07043 0
M  V30 7875 C 755.056 -0.957946 -1.83952 0
M  V30 7876 C 755.481 0.488807 -1.81638 0
M  V30 7877 O 754.839 1.34869 -1.21162 0
M  V30 7878 C 754.887 -1.48064 -3.288 0
M  V30 7879 O 753.991 -0.681921 -4.06723 0
M  V30 7880 H 753.332 -0.341453 -0.569479 0
M  V30 7881 H 755.862 -1.53728 -1.35015 0
M  V30 7882 H 755.872 -1.49484 -3.7963 0
M  V30 7883 H 754.547 -2.53388 -3.29799 0
M  V30 7884 H 753.124 -0.737612 -3.65532 0
M  V30 7885 N 755.309 1.25446 -0.953992 0
M  V30 7886 C 756.558 1.92441 -0.604101 0
M  V30 7887 C 756.871 1.75543 0.862796 0
M  V30 7888 O 758.077 2.37106 1.32262 0
M  V30 7889 C 756.533 3.44854 -1.02974 0
M  V30 7890 C 756.141 3.70464 -2.51914 0
M  V30 7891 C 757.885 4.1778 -0.752352 0
M  V30 7892 C 755.792 5.1638 -2.88281 0
M  V30 7893 H 754.722 0.720508 -0.222227 0
M  V30 7894 H 757.373 1.42318 -1.15836 0
M  V30 7895 H 755.755 3.93935 -0.403904 0
M  V30 7896 H 756.929 3.32038 -3.19511 0
M  V30 7897 H 755.244 3.10797 -2.77117 0
M  V30 7898 H 757.841 5.25261 -1.00024 0
M  V30 7899 H 758.184 4.15135 0.311212 0
M  V30 7900 H 758.717 3.74605 -1.33851 0
M  V30 7901 H 755.456 5.24135 -3.93653 0
M  V30 7902 H 754.976 5.55855 -2.25357 0
M  V30 7903 H 756.655 5.84497 -2.77439 0
M  V30 7904 N 756.787 0.722489 1.40064 0
M  V30 7905 C 757.734 0.0743738 2.3068 0
M  V30 7906 C 758.704 -0.743004 1.48555 0
M  V30 7907 O 759.889 -0.705536 1.77276 0
M  V30 7908 C 757.029 -0.836292 3.34814 0
M  V30 7909 C 756.142 -0.00764663 4.31999 0
M  V30 7910 C 755.277 -0.918428 5.232 0
M  V30 7911 C 754.316 -0.0842838 6.12042 0
M  V30 7912 N 753.453 -0.950316 6.95639 0
M  V30 7913 H 758.293 0.852794 2.85537 0
M  V30 7914 H 755.83 0.432222 1.40607 0
M  V30 7915 H 757.788 -1.3786 3.93765 0
M  V30 7916 H 756.418 -1.58082 2.81443 0
M  V30 7917 H 755.47 0.651928 3.74772 0
M  V30 7918 H 756.782 0.63786 4.94705 0
M  V30 7919 H 755.936 -1.52902 5.87116 0
M  V30 7920 H 754.675 -1.59774 4.60786 0
M  V30 7921 H 753.68 0.5392 5.4715 0
M  V30 7922 H 754.905 0.591628 6.76518 0
M  V30 7923 H 752.851 -1.61515 6.35806 0
M  V30 7924 H 752.768 -0.361004 7.55138 0
M  V30 7925 H 754.036 -1.54687 7.63997 0
M  V30 7926 N 758.265 -1.50454 0.469181 0
M  V30 7927 C 759.213 -2.30101 -0.340033 0
M  V30 7928 C 760.207 -1.37306 -0.992135 0
M  V30 7929 O 761.413 -1.54506 -0.923458 0
M  V30 7930 H 757.788 -0.740941 -0.128495 0
M  V30 7931 H 759.759 -2.96315 0.352144 0
M  V30 7932 C 758.508 -3.17804 -1.41052 0
M  V30 7933 H 757.831 -3.89115 -0.918124 0
M  V30 7934 H 759.271 -3.76533 -1.94934 0
M  V30 7935 C 757.73 -2.35272 -2.4114 0
M  V30 7936 O 758.26 -2.03448 -3.4637 0
M  V30 7937 N 756.466 -1.97889 -2.1281 0
M  V30 7938 H 756.013 -2.2397 -1.27261 0
M  V30 7939 H 755.971 -1.42971 -2.80012 0
M  V30 7940 N 759.743 -0.201713 -1.56304 0
M  V30 7941 C 760.973 0.440084 -2.01858 0
M  V30 7942 C 761.381 1.55279 -1.08098 0
M  V30 7943 O 760.724 1.83529 -0.0792216 0
M  V30 7944 C 760.786 1.05091 -3.43797 0
M  V30 7945 C 760.45 0.0761208 -4.56937 0
M  V30 7946 C 761.447 -0.716951 -5.14933 0
M  V30 7947 C 759.132 -0.0368815 -5.02286 0
M  V30 7948 C 761.126 -1.60993 -6.16733 0
M  V30 7949 C 758.813 -0.933409 -6.03929 0
M  V30 7950 C 759.811 -1.71849 -6.61027 0
M  V30 7951 O 759.499 -2.59998 -7.60695 0
M  V30 7952 H 759.231 0.114139 -0.666294 0
M  V30 7953 H 761.785 -0.309672 -2.03052 0
M  V30 7954 H 760.015 1.84938 -3.3961 0
M  V30 7955 H 761.704 1.59804 -3.73118 0
M  V30 7956 H 762.47 -0.63999 -4.80759 0
M  V30 7957 H 758.349 0.564034 -4.57537 0
M  V30 7958 H 761.893 -2.22315 -6.61227 0
M  V30 7959 H 757.79 -1.01146 -6.37526 0
M  V30 7960 H 758.558 -2.53851 -7.7814 0
M  V30 7961 N 761.222 1.57436 0.0718424 0
M  V30 7962 C 762.172 2.00132 1.09229 0
M  V30 7963 C 763.156 0.883379 1.34481 0
M  V30 7964 O 764.348 1.14728 1.34783 0
M  V30 7965 C 761.477 2.44876 2.40605 0
M  V30 7966 C 760.563 3.63405 2.18627 0
M  V30 7967 N 760.954 4.77583 1.66579 0
M  V30 7968 C 759.252 3.69953 2.491 0
M  V30 7969 C 759.953 5.5943 1.59415 0
M  V30 7970 N 758.929 5.03275 2.05464 0
M  V30 7971 H 762.731 2.85849 0.683185 0
M  V30 7972 H 760.245 1.59987 0.278914 0
M  V30 7973 H 762.242 2.73703 3.14471 0
M  V30 7974 H 760.902 1.60546 2.82232 0
M  V30 7975 H 761.913 4.99875 1.35443 0
M  V30 7976 H 758.59 2.96336 2.94094 0
M  V30 7977 H 759.98 6.61093 1.20026 0
M  V30 7978 N 762.7 -0.34323 1.53817 0
M  V30 7979 C 764.111 -0.918823 1.62525 0
M  V30 7980 C 764.462 -1.89542 0.506765 0
M  V30 7981 O 763.587 -2.13326 -0.363441 0
M  V30 7982 C 764.182 -1.67326 2.94597 0
M  V30 7983 C 762.741 -2.19786 3.05567 0
M  V30 7984 C 761.888 -1.01708 2.57974 0
M  V30 7985 H 764.839 -0.121358 1.58235 0
M  V30 7986 H 764.86 -2.53615 2.83654 0
M  V30 7987 H 764.372 -0.962223 3.75983 0
M  V30 7988 H 762.473 -2.94065 2.28816 0
M  V30 7989 H 762.586 -2.46135 4.1104 0
M  V30 7990 H 760.95 -1.39058 2.13389 0
M  V30 7991 H 761.733 -0.320671 3.41799 0
M  V30 7992 N 764.178 -1.45556 -0.604258 0
M  V30 7993 C 765.125 -1.54482 -1.71476 0
M  V30 7994 C 766.095 -0.390479 -1.61445 0
M  V30 7995 O 767.28 -0.604371 -1.80975 0
M  V30 7996 C 764.42 -1.52064 -3.09791 0
M  V30 7997 C 763.533 -2.78073 -3.30604 0
M  V30 7998 C 762.668 -2.67304 -4.59044 0
M  V30 7999 C 761.707 -3.88352 -4.73127 0
M  V30 8000 N 760.844 -3.76098 -5.9287 0
M  V30 8001 H 765.684 -2.49349 -1.63184 0
M  V30 8002 H 763.221 -1.23725 -0.795641 0
M  V30 8003 H 765.179 -1.48649 -3.89819 0
M  V30 8004 H 763.809 -0.607442 -3.17033 0
M  V30 8005 H 762.861 -2.91561 -2.44329 0
M  V30 8006 H 764.173 -3.67847 -3.36883 0
M  V30 8007 H 763.327 -2.61875 -5.47272 0
M  V30 8008 H 762.066 -1.75135 -4.55169 0
M  V30 8009 H 761.071 -3.94137 -3.83322 0
M  V30 8010 H 762.296 -4.81591 -4.78797 0
M  V30 8011 H 760.242 -2.867 -5.90033 0
M  V30 8012 H 760.159 -4.59509 -6.00323 0
M  V30 8013 H 761.427 -3.74607 -6.83586 0
M  V30 8014 N 765.656 0.84705 -1.32902 0
M  V30 8015 C 766.905 1.59667 -1.23245 0
M  V30 8016 C 767.218 1.94551 0.202349 0
M  V30 8017 O 768.424 2.68218 0.420847 0
M  V30 8018 C 766.88 2.8795 -2.15901 0
M  V30 8019 C 766.488 2.60461 -3.64505 0
M  V30 8020 C 768.232 3.65968 -2.15098 0
M  V30 8021 C 766.139 3.84791 -4.49099 0
M  V30 8022 H 765.069 0.599167 -0.457728 0
M  V30 8023 H 767.72 0.934662 -1.57912 0
M  V30 8024 H 766.102 3.55648 -1.74157 0
M  V30 8025 H 767.276 2.01026 -4.14639 0
M  V30 8026 H 765.591 1.9576 -3.67515 0
M  V30 8027 H 768.188 4.58241 -2.75534 0
M  V30 8028 H 768.531 4.00275 -1.14392 0
M  V30 8029 H 769.064 3.05184 -2.55162 0
M  V30 8030 H 765.803 3.55621 -5.50649 0
M  V30 8031 H 765.323 4.43594 -4.03713 0
M  V30 8032 H 767.002 4.52454 -4.62487 0
M  V30 8033 N 767.134 1.16236 1.06428 0
M  V30 8034 C 768.55 0.906983 1.31324 0
M  V30 8035 C 768.75 -0.440872 1.96618 0
M  V30 8036 O 767.806 -1.1807 2.23194 0
M  V30 8037 C 769.119 2.05501 2.19522 0
M  V30 8038 C 770.667 2.09061 2.32943 0
M  V30 8039 C 771.142 3.23214 3.24495 0
M  V30 8040 N 772.633 3.22922 3.32078 0
M  V30 8041 C 773.368 4.07889 4.03006 0
M  V30 8042 N 772.864 5.02941 4.76469 0
M  V30 8043 N 774.657 3.95881 3.99043 0
M  V30 8044 H 766.808 2.03015 0.624388 0
M  V30 8045 H 769.071 0.88576 0.337835 0
M  V30 8046 H 768.777 3.02847 1.78819 0
M  V30 8047 H 768.651 1.99538 3.201 0
M  V30 8048 H 771.038 1.12308 2.72893 0
M  V30 8049 H 771.119 2.19089 1.32037 0
M  V30 8050 H 770.763 4.20225 2.85261 0
M  V30 8051 H 770.693 3.10423 4.25377 0
M  V30 8052 H 773.184 2.54093 2.79724 0
M  V30 8053 H 773.497 5.64196 5.28112 0
M  V30 8054 H 771.842 5.06922 4.75453 0
M  V30 8055 H 775.033 3.20927 3.40769 0
M  V30 8056 H 775.206 4.62321 4.54052 0
M  V30 8057 N 768.612 -1.24939 0.960631 0
M  V30 8058 C 769.861 -1.92118 0.614298 0
M  V30 8059 C 770.174 -1.75998 -0.853474 0
M  V30 8060 O 771.38 -2.37804 -1.31003 0
M  V30 8061 C 769.836 -3.44303 1.04801 0
M  V30 8062 C 769.444 -3.69123 2.53875 0
M  V30 8063 C 771.188 -4.17375 0.774497 0
M  V30 8064 C 769.095 -5.14843 2.91016 0
M  V30 8065 H 768.025 -0.719319 0.226045 0
M  V30 8066 H 770.676 -1.41701 1.16589 0
M  V30 8067 H 769.058 -3.93715 0.42479 0
M  V30 8068 H 770.232 -3.30339 3.21267 0
M  V30 8069 H 768.547 -3.09323 2.78762 0
M  V30 8070 H 771.144 -5.24723 1.02808 0
M  V30 8071 H 771.487 -4.15294 -0.289192 0
M  V30 8072 H 772.02 -3.7389 1.35835 0
M  V30 8073 H 768.759 -5.2204 3.96427 0
M  V30 8074 H 768.279 -5.54652 2.28302 0
M  V30 8075 H 769.958 -5.83017 2.80535 0
M  V30 8076 N 770.09 -0.729906 -1.39679 0
M  V30 8077 C 771.339 -0.272534 -1.9985 0
M  V30 8078 C 771.652 1.14519 -1.58571 0
M  V30 8079 O 772.858 1.70182 -2.11543 0
M  V30 8080 C 771.314 -0.436322 -3.57245 0
M  V30 8081 C 770.922 -1.86161 -4.0749 0
M  V30 8082 C 772.666 -0.0404679 -4.24481 0
M  V30 8083 C 770.573 -1.97522 -5.5744 0
M  V30 8084 H 769.503 -0.0981428 -0.747585 0
M  V30 8085 H 772.154 -0.903056 -1.59741 0
M  V30 8086 H 770.536 0.263015 -3.95126 0
M  V30 8087 H 771.71 -2.59248 -3.80955 0
M  V30 8088 H 770.025 -2.21021 -3.529 0
M  V30 8089 H 772.622 -0.104437 -5.34598 0
M  V30 8090 H 772.965 1.00357 -4.04023 0
M  V30 8091 H 773.498 -0.690774 -3.91757 0
M  V30 8092 H 770.237 -3.00096 -5.82771 0
M  V30 8093 H 769.757 -1.28864 -5.85794 0
M  V30 8094 H 771.436 -1.754 -6.22771 0
M  V30 8095 N 771.568 1.50203 -0.477153 0
M  V30 8096 C 772.796 2.0677 0.0732489 0
M  V30 8097 C 773.211 1.34033 1.32968 0
M  V30 8098 O 772.568 0.411412 1.77802 0
M  V30 8099 C 772.619 3.59751 0.35518 0
M  V30 8100 O 772.34 4.29747 -0.851425 0
M  V30 8101 C 773.841 4.3296 0.951877 0
M  V30 8102 H 771.061 0.670929 -0.00978923 0
M  V30 8103 H 773.605 1.93293 -0.667676 0
M  V30 8104 H 771.76 3.7301 1.04605 0
M  V30 8105 H 772.174 5.2106 -0.599708 0
M  V30 8106 H 773.648 5.40952 1.09888 0
M  V30 8107 H 774.125 3.93856 1.94356 0
M  V30 8108 H 774.731 4.24246 0.299208 0
M  V30 8109 N 773.046 0.209999 1.56195 0
M  V30 8110 C 773.978 -0.736967 2.17029 0
M  V30 8111 C 774.991 -1.16599 1.13616 0
M  V30 8112 O 776.18 -1.09914 1.40646 0
M  V30 8113 C 773.28 -2.00852 2.72969 0
M  V30 8114 C 772.453 -1.73691 4.01435 0
M  V30 8115 C 771.512 -2.85439 4.42053 0
M  V30 8116 O 770.538 -2.54405 5.09183 0
M  V30 8117 N 771.74 -4.14135 4.06783 0
M  V30 8118 H 774.505 -0.216656 2.98916 0
M  V30 8119 H 772.066 0.0285672 1.61875 0
M  V30 8120 H 774.058 -2.74778 2.97118 0
M  V30 8121 H 772.628 -2.43963 1.95451 0
M  V30 8122 H 771.848 -0.834676 3.85262 0
M  V30 8123 H 773.136 -1.52961 4.85263 0
M  V30 8124 H 772.534 -4.42196 3.52816 0
M  V30 8125 H 771.091 -4.84642 4.35851 0
M  V30 8126 N 774.524 -1.57472 -0.0634922 0
M  V30 8127 C 775.457 -1.99571 -1.10664 0
M  V30 8128 C 776.435 -0.874015 -1.37112 0
M  V30 8129 O 777.619 -1.13702 -1.50347 0
M  V30 8130 C 774.746 -2.3395 -2.44918 0
M  V30 8131 C 773.792 -3.56213 -2.34551 0
M  V30 8132 S 774.625 -5.06727 -1.73169 0
M  V30 8133 C 775.781 -5.44316 -3.08984 0
M  V30 8134 H 776.014 -2.87739 -0.747905 0
M  V30 8135 H 773.547 -1.5198 -0.272316 0
M  V30 8136 H 775.505 -2.54431 -3.22141 0
M  V30 8137 H 774.166 -1.46297 -2.7795 0
M  V30 8138 H 773.359 -3.77812 -3.33578 0
M  V30 8139 H 772.961 -3.35406 -1.65466 0
M  V30 8140 H 775.253 -5.42894 -4.05305 0
M  V30 8141 H 776.196 -6.4502 -2.92156 0
M  V30 8142 H 776.604 -4.71781 -3.09972 0
M  V30 8143 N 776.003 0.335068 -1.53997 0
M  V30 8144 C 776.933 1.41727 -1.85568 0
M  V30 8145 C 777.914 1.54505 -0.7115 0
M  V30 8146 O 779.099 1.68573 -0.964191 0
M  V30 8147 C 776.229 2.7866 -2.07282 0
M  V30 8148 C 775.183 2.80682 -3.23112 0
M  V30 8149 C 774.509 4.20581 -3.30175 0
M  V30 8150 C 775.809 2.45458 -4.61029 0
M  V30 8151 H 777.503 1.15555 -2.76202 0
M  V30 8152 H 775.049 0.554445 -1.32898 0
M  V30 8153 H 777.002 3.54423 -2.27952 0
M  V30 8154 H 775.726 3.06286 -1.13387 0
M  V30 8155 H 774.385 2.07373 -3.02311 0
M  V30 8156 H 774.033 4.4533 -2.33859 0
M  V30 8157 H 773.733 4.22843 -4.08016 0
M  V30 8158 H 775.257 4.98174 -3.53066 0
M  V30 8159 H 776.671 3.10934 -4.81656 0
M  V30 8160 H 775.068 2.5899 -5.41336 0
M  V30 8161 H 776.138 1.40628 -4.6406 0
M  V30 8162 N 777.481 1.45874 0.596531 0
M  V30 8163 C 778.413 1.51408 1.7207 0
M  V30 8164 C 779.426 0.403738 1.57714 0
M  V30 8165 O 780.615 0.671384 1.65393 0
M  V30 8166 C 777.715 1.3652 3.10186 0
M  V30 8167 C 776.888 2.61428 3.50677 0
M  V30 8168 C 775.947 2.40937 4.67799 0
M  V30 8169 O 774.973 3.14602 4.74357 0
M  V30 8170 N 776.175 1.4621 5.61785 0
M  V30 8171 H 778.94 2.48333 1.67782 0
M  V30 8172 H 776.501 1.41755 0.782129 0
M  V30 8173 H 778.493 1.20606 3.86311 0
M  V30 8174 H 777.063 0.478302 3.08919 0
M  V30 8175 H 776.283 2.92381 2.644 0
M  V30 8176 H 777.571 3.44432 3.74491 0
M  V30 8177 H 776.969 0.854382 5.59211 0
M  V30 8178 H 775.526 1.36264 6.37397 0
M  V30 8179 N 778.959 -0.83999 1.33349 0
M  V30 8180 C 780.189 -1.62492 1.27593 0
M  V30 8181 C 780.597 -1.88559 -0.155597 0
M  V30 8182 O 779.94 -1.46537 -1.10782 0
M  V30 8183 C 780.002 -2.99984 1.98116 0
M  V30 8184 C 779.666 -2.96892 3.47425 0
M  V30 8185 C 780.663 -2.72688 4.42648 0
M  V30 8186 C 778.348 -3.17063 3.89585 0
M  V30 8187 C 780.342 -2.68681 5.78004 0
M  V30 8188 C 778.029 -3.12682 5.25046 0
M  V30 8189 C 779.027 -2.88522 6.19067 0
M  V30 8190 O 778.715 -2.84042 7.52047 0
M  V30 8191 H 778.447 -0.512358 0.440982 0
M  V30 8192 H 781.001 -1.0545 1.76265 0
M  V30 8193 H 779.231 -3.58875 1.44034 0
M  V30 8194 H 780.92 -3.6084 1.85875 0
M  V30 8195 H 781.686 -2.56856 4.114 0
M  V30 8196 H 777.565 -3.34889 3.16813 0
M  V30 8197 H 781.109 -2.49743 6.51363 0
M  V30 8198 H 777.006 -3.28063 5.55918 0
M  V30 8199 H 777.774 -2.99892 7.61582 0
M  V30 8200 N 780.437 -1.16799 -1.0581 0
M  V30 8201 C 781.387 -0.847231 -2.11674 0
M  V30 8202 C 782.371 0.175476 -1.5994 0
M  V30 8203 O 783.563 -0.0260602 -1.76981 0
M  V30 8204 C 780.692 -0.355446 -3.41455 0
M  V30 8205 C 779.778 -1.40922 -4.00002 0
M  V30 8206 N 780.169 -2.62096 -4.32596 0
M  V30 8207 C 778.467 -1.26562 -4.27666 0
M  V30 8208 C 779.168 -3.29759 -4.79201 0
M  V30 8209 N 778.144 -2.57138 -4.78938 0
M  V30 8210 H 781.946 -1.76862 -2.34727 0
M  V30 8211 H 779.46 -1.05577 -1.23399 0
M  V30 8212 H 781.457 -0.107231 -4.16762 0
M  V30 8213 H 780.117 0.559817 -3.19838 0
M  V30 8214 H 781.128 -2.99113 -4.22791 0
M  V30 8215 H 777.805 -0.411503 -4.15467 0
M  V30 8216 H 779.195 -4.33222 -5.13584 0
M  V30 8217 N 781.915 1.24427 -0.967243 0
M  V30 8218 C 782.863 2.27403 -0.488927 0
M  V30 8219 C 783.857 1.63388 0.447302 0
M  V30 8220 O 785.063 1.77085 0.322643 0
M  V30 8221 H 781.438 0.738921 -0.139643 0
M  V30 8222 H 783.409 2.65122 -1.36942 0
M  V30 8223 C 782.158 3.4709 0.205787 0
M  V30 8224 H 781.481 3.96591 -0.50551 0
M  V30 8225 H 782.921 4.2099 0.504296 0
M  V30 8226 C 781.38 3.04923 1.43261 0
M  V30 8227 O 781.91 3.12043 2.52967 0
M  V30 8228 N 780.116 2.59976 1.29849 0
M  V30 8229 H 779.663 2.54382 0.405876 0
M  V30 8230 H 779.621 2.32128 2.12047 0
M  V30 8231 N 783.393 0.737304 1.3929 0
M  V30 8232 C 784.34 0.0988364 2.30588 0
M  V30 8233 C 785.31 -0.727206 1.49335 0
M  V30 8234 O 786.495 -0.686694 1.78014 0
M  V30 8235 C 783.635 -0.800734 3.35682 0
M  V30 8236 C 782.748 0.0381731 4.31983 0
M  V30 8237 C 781.883 -0.862884 5.24145 0
M  V30 8238 C 780.922 -0.0193639 6.12097 0
M  V30 8239 N 780.059 -0.87648 6.96608 0
M  V30 8240 H 784.899 0.883031 2.84617 0
M  V30 8241 H 782.436 0.447111 1.4014 0
M  V30 8242 H 784.394 -1.33676 3.95205 0
M  V30 8243 H 783.024 -1.55088 2.83103 0
M  V30 8244 H 782.076 0.691641 3.74059 0
M  V30 8245 H 783.388 0.690294 4.94 0
M  V30 8246 H 782.542 -1.46667 5.88705 0
M  V30 8247 H 781.281 -1.54878 4.62454 0
M  V30 8248 H 780.286 0.597202 5.46547 0
M  V30 8249 H 781.511 0.663348 6.75852 0
M  V30 8250 H 779.457 -1.54762 6.37483 0
M  V30 8251 H 779.374 -0.280892 7.55478 0
M  V30 8252 H 780.642 -1.46575 7.65595 0
M  V30 8253 N 784.871 -1.49948 0.485112 0
M  V30 8254 C 785.834 -2.27351 -0.290546 0
M  V30 8255 C 786.834 -1.32704 -0.908087 0
M  V30 8256 O 788.024 -1.56007 -0.775085 0
M  V30 8257 C 785.156 -3.10135 -1.41524 0
M  V30 8258 H 786.349 -2.97374 0.388454 0
M  V30 8259 H 783.902 -1.54453 0.239586 0
M  V30 8260 H 784.637 -2.44641 -2.12888 0
M  V30 8261 H 784.422 -3.79705 -0.978074 0
M  V30 8262 H 785.912 -3.68638 -1.96204 0
M  V30 8263 N 786.349 -0.21828 -1.56081 0
M  V30 8264 C 787.299 0.706492 -2.16778 0
M  V30 8265 C 788.283 1.15987 -1.11516 0
M  V30 8266 O 789.475 1.11441 -1.37513 0
M  V30 8267 C 786.604 1.91583 -2.8487 0
M  V30 8268 C 785.69 1.48228 -3.97353 0
M  V30 8269 N 786.081 0.761113 -5.00041 0
M  V30 8270 C 784.379 1.76982 -4.09382 0
M  V30 8271 C 785.08 0.540496 -5.79184 0
M  V30 8272 N 784.056 1.09622 -5.32432 0
M  V30 8273 H 787.858 0.147038 -2.93532 0
M  V30 8274 H 785.372 -0.0194049 -1.62388 0
M  V30 8275 H 787.369 2.58906 -3.26762 0
M  V30 8276 H 786.029 2.47979 -2.09611 0
M  V30 8277 H 787.04 0.414141 -5.16241 0
M  V30 8278 H 783.717 2.34721 -3.45271 0
M  V30 8279 H 785.107 -0.0332531 -6.71892 0
M  V30 8280 N 787.827 1.57504 0.0551401 0
M  V30 8281 C 788.757 2.07864 1.06372 0
M  V30 8282 C 789.738 0.975565 1.39344 0
M  V30 8283 O 790.923 1.24929 1.48682 0
M  V30 8284 C 788.053 2.53643 2.3724 0
M  V30 8285 C 787.007 3.67978 2.18578 0
M  V30 8286 C 786.333 3.9987 3.54976 0
M  V30 8287 C 787.633 4.97405 1.59329 0
M  V30 8288 H 789.327 2.92379 0.644595 0
M  V30 8289 H 786.873 1.40654 0.308619 0
M  V30 8290 H 788.826 2.8749 3.08103 0
M  V30 8291 H 787.55 1.66177 2.81163 0
M  V30 8292 H 786.209 3.3444 1.50152 0
M  V30 8293 H 785.857 3.0951 3.965 0
M  V30 8294 H 785.557 4.76867 3.43324 0
M  V30 8295 H 787.081 4.36228 4.27244 0
M  V30 8296 H 788.495 5.29375 2.20078 0
M  V30 8297 H 786.892 5.78837 1.58327 0
M  V30 8298 H 787.962 4.81697 0.55638 0
M  V30 8299 N 789.305 -0.326896 1.54172 0
M  V30 8300 C 790.235 -1.40741 1.86317 0
M  V30 8301 C 791.216 -1.54125 0.719684 0
M  V30 8302 O 792.401 -1.6806 0.973117 0
M  V30 8303 C 789.531 -2.77557 2.08757 0
M  V30 8304 C 788.485 -2.78965 3.24596 0
M  V30 8305 C 787.811 -4.18824 3.32401 0
M  V30 8306 C 789.111 -2.4301 4.62324 0
M  V30 8307 H 790.805 -1.14088 2.76811 0
M  V30 8308 H 788.351 -0.547389 1.3319 0
M  V30 8309 H 790.304 -3.53209 2.29829 0
M  V30 8310 H 789.028 -3.0568 1.15009 0
M  V30 8311 H 787.687 -2.05767 3.03406 0
M  V30 8312 H 787.335 -4.44083 2.36218 0
M  V30 8313 H 787.035 -4.20673 4.10253 0
M  V30 8314 H 788.559 -4.96294 3.55703 0
M  V30 8315 H 789.973 -3.08375 4.83299 0
M  V30 8316 H 788.37 -2.56116 5.42701 0
M  V30 8317 H 789.44 -1.38165 4.64799 0
M  V30 8318 N 790.784 -1.46188 -0.588786 0
M  V30 8319 C 791.732 -1.56653 -1.71938 0
M  V30 8320 C 792.726 -0.435354 -1.6371 0
M  V30 8321 O 793.932 -0.611996 -1.69277 0
M  V30 8322 H 790.307 -0.492408 -0.568365 0
M  V30 8323 H 792.278 -2.51724 -1.60242 0
M  V30 8324 C 791.027 -1.56822 -3.10326 0
M  V30 8325 H 790.35 -2.43198 -3.17325 0
M  V30 8326 H 791.79 -1.68199 -3.89211 0
M  V30 8327 C 790.249 -0.295802 -3.35599 0
M  V30 8328 O 790.779 0.616515 -3.96941 0
M  V30 8329 N 788.985 -0.185609 -2.90007 0
M  V30 8330 H 788.532 -0.928914 -2.40269 0
M  V30 8331 H 788.49 0.664883 -3.07289 0
M  V30 8332 N 792.262 0.832906 -1.33792 0
M  V30 8333 C 793.511 1.58351 -1.24932 0
M  V30 8334 C 793.824 1.94754 0.181703 0
M  V30 8335 O 795.03 2.6865 0.392375 0
M  V30 8336 C 793.486 2.85643 -2.18943 0
M  V30 8337 C 793.094 2.56581 -3.67247 0
M  V30 8338 C 794.838 3.63667 -2.18968 0
M  V30 8339 C 792.745 3.80006 -4.53155 0
M  V30 8340 H 791.675 0.594278 -0.464058 0
M  V30 8341 H 794.326 0.91786 -1.58895 0
M  V30 8342 H 792.708 3.53781 -1.77919 0
M  V30 8343 H 793.882 1.96617 -4.16747 0
M  V30 8344 H 792.197 1.91851 -3.6957 0
M  V30 8345 H 794.794 4.55293 -2.80379 0
M  V30 8346 H 795.137 3.99039 -1.18631 0
M  V30 8347 H 795.67 3.0246 -2.58384 0
M  V30 8348 H 792.409 3.4976 -5.5439 0
M  V30 8349 H 791.929 4.39288 -4.08395 0
M  V30 8350 H 793.608 4.47523 -4.6726 0
M  V30 8351 N 793.74 1.17359 1.05189 0
M  V30 8352 C 795.151 0.96793 1.5965 0
M  V30 8353 C 795.502 -0.485355 1.90102 0
M  V30 8354 O 794.627 -1.36066 1.6827 0
M  V30 8355 C 795.222 1.75068 2.90063 0
M  V30 8356 C 793.781 1.58969 3.41183 0
M  V30 8357 C 792.928 1.75231 2.14917 0
M  V30 8358 H 795.879 1.32067 0.880001 0
M  V30 8359 H 795.9 1.23308 3.59966 0
M  V30 8360 H 795.412 2.80835 2.67868 0
M  V30 8361 H 793.513 0.556906 3.68415 0
M  V30 8362 H 793.626 2.38067 4.15766 0
M  V30 8363 H 791.99 1.18073 2.25679 0
M  V30 8364 H 792.773 2.8241 1.95191 0
M  V30 8365 N 795.218 -1.23913 0.973828 0
M  V30 8366 C 796.443 -1.96735 0.656511 0
M  V30 8367 C 796.868 -1.71682 -0.768571 0
M  V30 8368 O 796.226 -0.984267 -1.52256 0
M  V30 8369 C 796.274 -3.48004 0.944735 0
M  V30 8370 O 795.378 -4.12387 0.0333357 0
M  V30 8371 H 794.719 -0.616119 0.247575 0
M  V30 8372 H 797.249 -1.57525 1.30564 0
M  V30 8373 H 797.259 -3.98424 0.87876 0
M  V30 8374 H 795.934 -3.65567 1.98328 0
M  V30 8375 H 794.511 -3.72585 0.153157 0
M  V30 8376 N 796.696 -0.74468 -1.38897 0
M  V30 8377 C 797.942 -0.306249 -2.01081 0
M  V30 8378 C 798.297 1.09724 -1.58046 0
M  V30 8379 O 797.59 1.73923 -0.803834 0
M  V30 8380 C 797.784 -0.357302 -3.55609 0
M  V30 8381 C 797.613 -1.76421 -4.13649 0
M  V30 8382 C 796.383 -2.3787 -4.4581 0
M  V30 8383 C 798.581 -2.71942 -4.36523 0
M  V30 8384 N 796.563 -3.70614 -4.89406 0
M  V30 8385 C 797.934 -3.89437 -4.8243 0
M  V30 8386 C 799.989 -2.69579 -4.18607 0
M  V30 8387 C 798.692 -5.04917 -5.123 0
M  V30 8388 C 800.718 -3.8421 -4.49596 0
M  V30 8389 C 800.08 -5.00442 -4.95719 0
M  V30 8390 H 796.179 -0.158531 -0.765762 0
M  V30 8391 H 798.763 -0.972726 -1.6866 0
M  V30 8392 H 796.934 0.278865 -3.87398 0
M  V30 8393 H 798.666 0.100599 -4.04575 0
M  V30 8394 H 795.421 -1.8971 -4.33943 0
M  V30 8395 H 795.845 -4.38791 -5.1555 0
M  V30 8396 H 800.487 -1.80905 -3.82143 0
M  V30 8397 H 798.205 -5.94213 -5.47665 0
M  V30 8398 H 801.791 -3.83691 -4.37347 0
M  V30 8399 H 800.671 -5.87671 -5.19242 0
M  V30 8400 N 798.174 1.49689 -0.493057 0
M  V30 8401 C 799.122 2.30613 0.303383 0
M  V30 8402 C 800.116 1.38867 0.970165 0
M  V30 8403 O 801.322 1.55956 0.898761 0
M  V30 8404 H 797.697 0.742891 0.116691 0
M  V30 8405 H 799.668 2.95717 -0.39924 0
M  V30 8406 C 798.417 3.20008 1.35978 0
M  V30 8407 H 797.74 3.90526 0.856103 0
M  V30 8408 H 799.18 3.79586 1.88919 0
M  V30 8409 C 797.639 2.39079 2.37367 0
M  V30 8410 O 798.169 2.08933 3.43089 0
M  V30 8411 N 796.375 2.0125 2.09635 0
M  V30 8412 H 795.922 2.25966 1.23682 0
M  V30 8413 H 795.88 1.47408 2.77702 0
M  V30 8414 N 799.652 0.226554 1.55963 0
M  V30 8415 C 800.898 -0.397608 1.99476 0
M  V30 8416 C 801.253 -1.57031 1.11172 0
M  V30 8417 O 800.546 -1.90907 0.162757 0
M  V30 8418 C 800.74 -0.87642 3.46488 0
M  V30 8419 C 800.569 0.248344 4.49014 0
M  V30 8420 C 799.339 0.71638 5.00196 0
M  V30 8421 C 801.537 1.06835 5.03081 0
M  V30 8422 N 799.519 1.81568 5.86435 0
M  V30 8423 C 800.89 2.01641 5.86294 0
M  V30 8424 C 802.945 1.10722 4.85433 0
M  V30 8425 C 801.648 3.0002 6.53743 0
M  V30 8426 C 803.674 2.07921 5.53645 0
M  V30 8427 C 803.036 3.01466 6.3663 0
M  V30 8428 H 799.135 -0.112024 0.773935 0
M  V30 8429 H 801.719 0.339472 1.91718 0
M  V30 8430 H 799.89 -1.58285 3.54684 0
M  V30 8431 H 801.622 -1.47382 3.76909 0
M  V30 8432 H 798.377 0.30409 4.72623 0
M  V30 8433 H 798.801 2.36748 6.34255 0
M  V30 8434 H 803.443 0.397909 4.20923 0
M  V30 8435 H 801.161 3.71911 7.17432 0
M  V30 8436 H 804.747 2.11609 5.41953 0
M  V30 8437 H 803.627 3.75451 6.88481 0
M  V30 8438 N 801.13 -1.57531 -0.0467866 0
M  V30 8439 C 802.077 -2.05387 -1.05285 0
M  V30 8440 C 803.047 -0.939385 -1.36985 0
M  V30 8441 O 804.232 -1.20877 -1.47626 0
M  V30 8442 C 801.372 -2.52343 -2.35408 0
M  V30 8443 C 800.485 -3.77512 -2.10022 0
M  V30 8444 C 799.62 -4.1315 -3.33887 0
M  V30 8445 C 798.659 -5.31286 -3.03976 0
M  V30 8446 N 797.796 -5.62441 -4.20243 0
M  V30 8447 H 802.636 -2.91095 -0.637788 0
M  V30 8448 H 800.173 -1.43939 -0.303322 0
M  V30 8449 H 802.131 -2.77628 -3.11413 0
M  V30 8450 H 800.761 -1.69577 -2.7467 0
M  V30 8451 H 799.813 -3.59417 -1.24594 0
M  V30 8452 H 801.125 -4.63644 -1.83945 0
M  V30 8453 H 800.279 -4.39469 -4.18273 0
M  V30 8454 H 799.018 -3.25634 -3.63062 0
M  V30 8455 H 798.023 -5.04738 -2.17991 0
M  V30 8456 H 799.248 -6.20441 -2.76098 0
M  V30 8457 H 797.194 -4.77885 -4.49402 0
M  V30 8458 H 797.111 -6.43046 -3.97528 0
M  V30 8459 H 798.379 -5.93327 -5.05553 0
M  V30 8460 N 802.608 0.318715 -1.54344 0
M  V30 8461 C 803.518 1.41535 -1.87097 0
M  V30 8462 C 804.534 1.56361 -0.763353 0
M  V30 8463 O 805.71 1.71365 -1.05811 0
M  V30 8464 C 802.775 2.76178 -2.09587 0
M  V30 8465 C 801.836 2.70486 -3.3337 0
M  V30 8466 C 801.069 3.98708 -3.54778 0
M  V30 8467 O 801.292 4.9721 -2.79532 0
M  V30 8468 O 800.226 4.01674 -4.48266 0
M  V30 8469 H 804.052 1.16764 -2.80357 0
M  V30 8470 H 801.637 0.51318 -1.4031 0
M  V30 8471 H 803.519 3.55873 -2.25682 0
M  V30 8472 H 802.194 3.00829 -1.19514 0
M  V30 8473 H 801.101 1.89325 -3.22656 0
M  V30 8474 H 802.434 2.50789 -4.23516 0
M  V30 8475 N 804.086 1.46499 0.581025 0
M  V30 8476 C 805.334 1.51596 1.33653 0
M  V30 8477 C 805.655 0.169859 1.94259 0
M  V30 8478 O 804.925 -0.803776 1.78651 0
M  V30 8479 H 803.505 0.558346 0.496244 0
M  V30 8480 H 806.167 1.8264 0.680338 0
M  V30 8481 H 805.263 2.26956 2.14237 0
M  V30 8482 N 805.565 -0.825799 1.34232 0
M  V30 8483 C 806.842 -1.56741 1.17011 0
M  V30 8484 C 807.222 -2.09512 -0.258425 0
M  V30 8485 O 806.57 -1.90664 -1.25935 0
M  V30 8486 C 806.78 -2.69104 2.22225 0
M  V30 8487 C 808.128 -3.37947 2.57055 0
M  V30 8488 O 809.152 -2.79358 2.20992 0
M  V30 8489 O 808.011 -4.43743 3.1899 0
M  V30 8490 H 805.105 -0.69163 0.453405 0
M  V30 8491 H 807.651 -0.867422 1.45856 0
M  V30 8492 H 806.423 -2.27844 3.18124 0
M  V30 8493 H 806.046 -3.46756 1.94541 0
M  V30 8494 N 807.043 -1.17915 -1.04565 0
M  V30 8495 C 808.32 -0.881187 -1.74627 0
M  V30 8496 C 808.7 0.617123 -2.01878 0
M  V30 8497 O 808.048 1.57032 -1.65991 0
M  V30 8498 C 808.258 -1.72299 -3.03503 0
M  V30 8499 C 809.606 -1.94688 -3.77335 0
M  V30 8500 O 810.63 -1.6931 -3.13389 0
M  V30 8501 O 809.489 -2.37379 -4.92253 0
M  V30 8502 H 806.583 -0.326864 -0.759664 0
M  V30 8503 H 809.129 -1.28642 -1.10676 0
M  V30 8504 H 807.901 -2.73891 -2.79462 0
M  V30 8505 H 807.524 -1.31593 -3.75192 0
M  V30 8506 N 808.521 1.23394 -0.980386 0
M  V30 8507 C 809.484 2.23092 -0.525619 0
M  V30 8508 C 810.484 1.56129 0.384745 0
M  V30 8509 O 811.674 1.73284 0.178439 0
M  V30 8510 C 808.806 3.40074 0.23712 0
M  V30 8511 H 809.999 2.64839 -1.40714 0
M  V30 8512 H 807.552 1.36227 -0.766275 0
M  V30 8513 H 808.287 3.03783 1.13518 0
M  V30 8514 H 808.072 3.89883 -0.416356 0
M  V30 8515 H 809.562 4.14043 0.543892 0
M  V30 8516 N 809.999 0.752036 1.385 0
M  V30 8517 C 811.248 0.304294 1.99391 0
M  V30 8518 C 811.561 -1.11982 1.60373 0
M  V30 8519 O 812.767 -1.66795 2.14223 0
M  V30 8520 C 811.223 0.493101 3.56506 0
M  V30 8521 C 810.831 1.9262 4.04477 0
M  V30 8522 C 812.575 0.107994 4.24363 0
M  V30 8523 C 810.482 2.06365 5.54227 0
M  V30 8524 H 809.412 0.110024 0.745929 0
M  V30 8525 H 812.063 0.928355 1.58284 0
M  V30 8526 H 810.445 -0.20012 3.95494 0
M  V30 8527 H 811.619 2.65276 3.76783 0
M  V30 8528 H 809.934 2.26608 3.49339 0
M  V30 8529 H 812.531 0.189474 5.34364 0
M  V30 8530 H 812.874 -0.939165 4.05568 0
M  V30 8531 H 813.407 0.753011 3.90608 0
M  V30 8532 H 810.146 3.0933 5.77923 0
M  V30 8533 H 809.666 1.38167 5.83669 0
M  V30 8534 H 811.345 1.85286 6.19902 0
M  V30 8535 N 811.477 -1.49425 0.500989 0
M  V30 8536 C 812.717 -2.04357 -0.0419004 0
M  V30 8537 C 813.081 -1.37236 -1.34277 0
M  V30 8538 O 814.282 -1.82889 -1.9699 0
M  V30 8539 C 812.553 -3.56889 -0.19112 0
M  V30 8540 S 814.112 -4.33369 -0.688259 0
M  V30 8541 H 810.93 -0.710998 -0.00177796 0
M  V30 8542 H 813.532 -1.83479 0.674953 0
M  V30 8543 H 812.236 -4.03283 0.760964 0
M  V30 8544 H 811.767 -3.82171 -0.933214 0
M  V30 8545 H 813.782 -4.55961 -1.9574 0
M  V30 8546 N 812.955 -0.234822 -1.55841 0
M  V30 8547 C 813.885 0.664217 -2.23854 0
M  V30 8548 C 814.866 1.19076 -1.2147 0
M  V30 8549 O 816.051 1.23232 -1.50091 0
M  V30 8550 C 813.181 1.86666 -2.9287 0
M  V30 8551 C 812.135 1.47341 -4.01839 0
M  V30 8552 C 811.461 2.75571 -4.58219 0
M  V30 8553 C 812.761 0.653479 -5.18196 0
M  V30 8554 H 814.455 0.0971213 -2.99242 0
M  V30 8555 H 812.001 0.0452724 -1.43929 0
M  V30 8556 H 813.954 2.50116 -3.39146 0
M  V30 8557 H 812.678 2.45894 -2.1495 0
M  V30 8558 H 811.337 0.862314 -3.56314 0
M  V30 8559 H 810.985 3.32971 -3.77014 0
M  V30 8560 H 810.685 2.49987 -5.31771 0
M  V30 8561 H 812.209 3.39939 -5.07221 0
M  V30 8562 H 813.623 1.19198 -5.60771 0
M  V30 8563 H 812.02 0.494188 -5.98062 0
M  V30 8564 H 813.09 -0.337004 -4.83728 0
M  V30 8565 N 814.433 1.57553 0.0384317 0
M  V30 8566 C 815.396 2.04927 1.02653 0
M  V30 8567 C 816.396 0.951768 1.29607 0
M  V30 8568 O 817.586 1.21568 1.24768 0
M  V30 8569 C 814.718 2.45828 2.36181 0
M  V30 8570 H 815.911 2.93474 0.617508 0
M  V30 8571 H 813.464 1.53679 0.285031 0
M  V30 8572 H 814.199 1.60408 2.8185 0
M  V30 8573 H 813.984 3.25945 2.1795 0
M  V30 8574 H 815.474 2.82939 3.0714 0
M  V30 8575 N 815.911 -0.310526 1.54511 0
M  V30 8576 C 816.821 -1.4054 1.87844 0
M  V30 8577 C 817.837 -1.55954 0.771635 0
M  V30 8578 O 819.013 -1.70801 1.06719 0
M  V30 8579 C 816.078 -2.75063 2.11048 0
M  V30 8580 C 815.139 -2.68715 3.348 0
M  V30 8581 C 814.372 -3.96821 3.56887 0
M  V30 8582 O 814.595 -4.95721 2.82165 0
M  V30 8583 O 813.529 -3.99291 4.50389 0
M  V30 8584 H 817.355 -1.15275 2.80972 0
M  V30 8585 H 814.94 -0.505732 1.4058 0
M  V30 8586 H 816.822 -3.54671 2.27566 0
M  V30 8587 H 815.497 -3.00191 1.21108 0
M  V30 8588 H 814.404 -1.87611 3.23655 0
M  V30 8589 H 815.737 -2.4854 4.2484 0
M  V30 8590 N 817.389 -1.46805 -0.573248 0
M  V30 8591 C 818.319 -1.60951 -1.69165 0
M  V30 8592 C 819.3 -0.45948 -1.63777 0
M  V30 8593 O 820.485 -0.68688 -1.81647 0
M  V30 8594 C 817.615 -1.60844 -3.07809 0
M  V30 8595 C 816.569 -2.74913 -3.28035 0
M  V30 8596 C 815.895 -2.59871 -4.67302 0
M  V30 8597 C 817.195 -4.16654 -3.14955 0
M  V30 8598 H 818.889 -2.54574 -1.57582 0
M  V30 8599 H 816.435 -1.22516 -0.756686 0
M  V30 8600 H 818.388 -1.69334 -3.85881 0
M  V30 8601 H 817.112 -0.637714 -3.20314 0
M  V30 8602 H 815.771 -2.65908 -2.52366 0
M  V30 8603 H 815.419 -1.60861 -4.76585 0
M  V30 8604 H 815.119 -3.36386 -4.81786 0
M  V30 8605 H 816.643 -2.70265 -5.4753 0
M  V30 8606 H 818.057 -4.26721 -3.82861 0
M  V30 8607 H 816.454 -4.93831 -3.40956 0
M  V30 8608 H 817.524 -4.36146 -2.11908 0
M  V30 8609 N 818.867 0.818669 -1.34668 0
M  V30 8610 C 819.814 1.92983 -1.26595 0
M  V30 8611 C 820.784 1.65506 -0.140315 0
M  V30 8612 O 821.969 1.88063 -0.322005 0
M  V30 8613 C 819.109 3.2932 -1.03163 0
M  V30 8614 C 818.222 3.69061 -2.24539 0
M  V30 8615 C 817.357 4.94368 -1.94355 0
M  V30 8616 C 816.396 5.26702 -3.11851 0
M  V30 8617 N 815.533 6.43187 -2.81522 0
M  V30 8618 H 820.373 1.99219 -2.2162 0
M  V30 8619 H 817.91 0.974612 -1.1018 0
M  V30 8620 H 819.868 4.07897 -0.87613 0
M  V30 8621 H 818.498 3.22584 -0.118045 0
M  V30 8622 H 817.55 2.85842 -2.50995 0
M  V30 8623 H 818.862 3.88924 -3.12313 0
M  V30 8624 H 818.016 5.80742 -1.75566 0
M  V30 8625 H 816.755 4.76515 -1.03848 0
M  V30 8626 H 815.76 4.38823 -3.31231 0
M  V30 8627 H 816.985 5.46492 -4.03142 0
M  V30 8628 H 814.931 6.26783 -1.93596 0
M  V30 8629 H 814.848 6.63243 -3.62829 0
M  V30 8630 H 816.116 7.32621 -2.66247 0
M  V30 8631 N 820.346 1.18468 1.03938 0
M  V30 8632 C 821.276 0.936389 2.13902 0
M  V30 8633 C 822.257 -0.126381 1.6963 0
M  V30 8634 O 823.442 0.0264757 1.94182 0
M  V30 8635 C 820.572 0.462729 3.44204 0
M  V30 8636 C 819.526 1.46613 4.02105 0
M  V30 8637 C 818.852 0.84994 5.27902 0
M  V30 8638 C 820.152 2.84323 4.3813 0
M  V30 8639 H 821.846 1.85602 2.3493 0
M  V30 8640 H 819.392 0.893806 1.12903 0
M  V30 8641 H 821.345 0.276382 4.20493 0
M  V30 8642 H 820.069 -0.492477 3.22866 0
M  V30 8643 H 818.728 1.63944 3.27899 0
M  V30 8644 H 818.376 -0.112493 5.02874 0
M  V30 8645 H 818.076 1.51988 5.67603 0
M  V30 8646 H 819.6 0.674152 6.06867 0
M  V30 8647 H 821.014 2.70636 5.054 0
M  V30 8648 H 819.411 3.48012 4.88884 0
M  V30 8649 H 820.481 3.37776 3.47901 0
M  V30 8650 N 821.824 -1.22873 0.986916 0
M  V30 8651 C 823.072 -1.91084 0.658121 0
M  V30 8652 C 823.393 -1.77304 -0.811675 0
M  V30 8653 O 822.663 -1.15649 -1.58121 0
M  V30 8654 H 821.243 -0.707251 0.240427 0
M  V30 8655 H 823.905 -1.49357 1.25213 0
M  V30 8656 H 823.001 -2.98373 0.915428 0
M  V30 8657 N 823.302 -0.75937 -1.38099 0
M  V30 8658 C 824.549 -0.318113 -1.99986 0
M  V30 8659 C 824.877 1.10184 -1.6028 0
M  V30 8660 O 824.132 1.77015 -0.834524 0
M  V30 8661 C 824.431 -0.394999 -3.55211 0
M  V30 8662 C 824.097 -1.77143 -4.14646 0
M  V30 8663 C 822.759 -2.14811 -4.30592 0
M  V30 8664 C 825.111 -2.67407 -4.47373 0
M  V30 8665 C 822.439 -3.42203 -4.76565 0
M  V30 8666 C 824.791 -3.94196 -4.94765 0
M  V30 8667 C 823.455 -4.31925 -5.08918 0
M  V30 8668 H 822.725 -0.116406 -0.7318 0
M  V30 8669 H 825.372 -0.97098 -1.65058 0
M  V30 8670 H 823.677 0.341426 -3.9031 0
M  V30 8671 H 825.374 -0.0350722 -4.00985 0
M  V30 8672 H 821.964 -1.46864 -4.02652 0
M  V30 8673 H 826.148 -2.39569 -4.3465 0
M  V30 8674 H 821.404 -3.71346 -4.85708 0
M  V30 8675 H 825.578 -4.64276 -5.19057 0
M  V30 8676 H 823.205 -5.30699 -5.443 0
M  V30 8677 N 824.78 1.49157 -0.508906 0
M  V30 8678 C 826.029 2.0167 0.0346854 0
M  V30 8679 C 826.342 1.39302 1.37311 0
M  V30 8680 O 827.548 1.83189 2.00385 0
M  V30 8681 C 826.004 3.59725 0.112261 0
M  V30 8682 C 825.612 4.31069 -1.21999 0
M  V30 8683 C 827.356 4.20155 0.605798 0
M  V30 8684 C 825.263 5.81001 -1.10415 0
M  V30 8685 H 824.193 0.753814 0.0167355 0
M  V30 8686 H 826.844 1.7162 -0.649518 0
M  V30 8687 H 825.226 3.86525 0.861087 0
M  V30 8688 H 826.4 4.15962 -1.98273 0
M  V30 8689 H 824.715 3.82418 -1.64759 0
M  V30 8690 H 827.312 5.29964 0.710102 0
M  V30 8691 H 827.655 3.84051 1.60656 0
M  V30 8692 H 828.188 3.97705 -0.0867239 0
M  V30 8693 H 824.927 6.21643 -2.07941 0
M  V30 8694 H 824.447 5.9858 -0.382428 0
M  V30 8695 H 826.126 6.42207 -0.786116 0
M  V30 8696 N 826.258 0.243083 1.55714 0
M  V30 8697 C 827.221 -0.644723 2.19945 0
M  V30 8698 C 828.221 -1.10562 1.16759 0
M  V30 8699 O 829.411 -1.01095 1.41865 0
M  V30 8700 C 826.543 -1.88569 2.83997 0
M  V30 8701 H 827.736 -0.0843839 2.99781 0
M  V30 8702 H 825.289 -0.00647246 1.56299 0
M  V30 8703 H 826.024 -2.48736 2.08089 0
M  V30 8704 H 825.809 -1.56345 3.59581 0
M  V30 8705 H 827.299 -2.51774 3.33166 0
M  V30 8706 N 827.736 -1.57571 -0.0300757 0
M  V30 8707 C 828.668 -2.0329 -1.05857 0
M  V30 8708 C 829.681 -0.945543 -1.32527 0
M  V30 8709 O 830.87 -1.22287 -1.30032 0
M  V30 8710 C 827.97 -2.39234 -2.40042 0
M  V30 8711 C 827.143 -3.70337 -2.32743 0
M  V30 8712 C 826.202 -3.93482 -3.49369 0
M  V30 8713 O 825.228 -4.64551 -3.28909 0
M  V30 8714 N 826.43 -3.39042 -4.71201 0
M  V30 8715 H 829.195 -2.9214 -0.668897 0
M  V30 8716 H 826.756 -1.60425 -0.218038 0
M  V30 8717 H 828.748 -2.51856 -3.16782 0
M  V30 8718 H 827.318 -1.5606 -2.70858 0
M  V30 8719 H 826.538 -3.68079 -1.41109 0
M  V30 8720 H 827.826 -4.56343 -2.25007 0
M  V30 8721 H 827.224 -2.81434 -4.90725 0
M  V30 8722 H 825.781 -3.57045 -5.45309 0
M  V30 8723 N 829.214 0.302327 -1.54673 0
M  V30 8724 C 830.439 1.06103 -1.78205 0
M  V30 8725 C 830.864 1.80204 -0.53926 0
M  V30 8726 O 830.222 1.73975 0.510142 0
M  V30 8727 C 830.27 2.01829 -2.98827 0
M  V30 8728 O 829.374 3.10108 -2.71858 0
M  V30 8729 H 828.715 0.30487 -0.589873 0
M  V30 8730 H 831.245 0.340153 -2.01753 0
M  V30 8731 H 831.255 2.44319 -3.2676 0
M  V30 8732 H 829.93 1.473 -3.88942 0
M  V30 8733 H 828.507 2.72142 -2.54937 0
M  V30 8734 N 830.692 1.47107 0.565454 0
M  V30 8735 C 831.932 1.5488 1.33385 0
M  V30 8736 C 832.296 0.202804 1.90926 0
M  V30 8737 O 833.497 0.155345 2.68351 0
M  V30 8738 C 831.768 2.62969 2.42037 0
M  V30 8739 S 833.327 2.90269 3.29074 0
M  V30 8740 H 830.145 0.547008 0.454206 0
M  V30 8741 H 832.747 1.8444 0.648228 0
M  V30 8742 H 831.451 3.59376 1.98185 0
M  V30 8743 H 830.982 2.35197 3.15351 0
M  V30 8744 H 832.997 2.26854 4.41307 0
M  V30 8745 N 832.17 -0.811516 1.35101 0
M  V30 8746 C 833.1 -1.9378 1.30275 0
M  V30 8747 C 834.081 -1.69165 0.178075 0
M  V30 8748 O 835.266 -1.90599 0.372256 0
M  V30 8749 C 832.396 -3.30439 1.06899 0
M  V30 8750 C 831.35 -3.69523 2.15955 0
M  V30 8751 C 830.676 -5.0429 1.77751 0
M  V30 8752 C 831.976 -3.80419 3.57881 0
M  V30 8753 H 833.67 -1.98075 2.24514 0
M  V30 8754 H 831.216 -0.951586 1.08078 0
M  V30 8755 H 833.169 -4.08828 1.02164 0
M  V30 8756 H 831.893 -3.26473 0.0910462 0
M  V30 8757 H 830.552 -2.93416 2.19778 0
M  V30 8758 H 830.2 -4.96823 0.785876 0
M  V30 8759 H 829.9 -5.31411 2.5075 0
M  V30 8760 H 831.424 -5.85125 1.74533 0
M  V30 8761 H 832.838 -4.49051 3.56407 0
M  V30 8762 H 831.235 -4.19005 4.29598 0
M  V30 8763 H 832.305 -2.82105 3.94391 0
M  V30 8764 N 833.648 -1.19017 -1.03309 0
M  V30 8765 C 834.611 -0.926076 -2.09658 0
M  V30 8766 C 835.611 0.0917077 -1.60538 0
M  V30 8767 O 836.801 -0.142574 -1.73616 0
M  V30 8768 C 833.933 -0.390958 -3.38651 0
M  V30 8769 H 835.126 -1.86923 -2.3452 0
M  V30 8770 H 832.679 -1.00325 -1.19853 0
M  V30 8771 H 833.414 0.558446 -3.19456 0
M  V30 8772 H 833.199 -1.12474 -3.75622 0
M  V30 8773 H 834.689 -0.225131 -4.16993 0
M  V30 8774 N 835.127 1.22348 -0.993418 0
M  V30 8775 C 836.059 2.23626 -0.502404 0
M  V30 8776 C 837.072 1.57739 0.402784 0
M  V30 8777 O 838.261 1.77321 0.204835 0
M  V30 8778 C 835.361 3.37647 0.291118 0
M  V30 8779 C 834.534 4.33121 -0.610332 0
M  V30 8780 C 833.593 5.26035 0.131572 0
M  V30 8781 O 832.619 5.67145 -0.483199 0
M  V30 8782 N 833.821 5.63023 1.41371 0
M  V30 8783 H 836.586 2.66385 -1.37329 0
M  V30 8784 H 834.147 1.36653 -0.868196 0
M  V30 8785 H 836.139 3.96792 0.796107 0
M  V30 8786 H 834.709 2.93967 1.0631 0
M  V30 8787 H 833.929 3.72287 -1.29598 0
M  V30 8788 H 835.217 4.93853 -1.22422 0
M  V30 8789 H 834.615 5.31596 1.93449 0
M  V30 8790 H 833.172 6.24582 1.86388 0
M  V30 8791 N 836.605 0.766683 1.37694 0
M  V30 8792 C 837.853 0.328065 1.9942 0
M  V30 8793 C 838.174 -1.09775 1.61166 0
M  V30 8794 O 837.444 -1.75288 0.874686 0
M  V30 8795 H 836.024 0.11831 0.737572 0
M  V30 8796 H 838.686 0.983686 1.68255 0
M  V30 8797 H 837.782 0.401647 3.09505 0
M  V30 8798 N 838.083 -1.48885 0.516809 0
M  V30 8799 C 839.013 -2.32241 -0.242157 0
M  V30 8800 C 839.994 -1.41258 -0.947633 0
M  V30 8801 O 841.179 -1.70156 -0.935973 0
M  V30 8802 C 838.309 -3.22151 -1.29754 0
M  V30 8803 C 837.263 -4.22053 -0.710995 0
M  V30 8804 C 836.589 -5.01007 -1.86806 0
M  V30 8805 C 837.889 -5.21388 0.30853 0
M  V30 8806 H 839.583 -2.95943 0.453651 0
M  V30 8807 H 837.129 -1.42316 0.219612 0
M  V30 8808 H 839.082 -3.79284 -1.83634 0
M  V30 8809 H 837.806 -2.56423 -2.02274 0
M  V30 8810 H 836.465 -3.66087 -0.193819 0
M  V30 8811 H 836.113 -4.31713 -2.58133 0
M  V30 8812 H 835.813 -5.68615 -1.48159 0
M  V30 8813 H 837.337 -5.60989 -2.4109 0
M  V30 8814 H 838.751 -5.73122 -0.142703 0
M  V30 8815 H 837.148 -5.96975 0.611673 0
M  V30 8816 H 838.218 -4.69329 1.21894 0
M  V30 8817 N 839.561 -0.251338 -1.55583 0
M  V30 8818 C 840.786 0.379136 -2.03905 0
M  V30 8819 C 841.211 1.50428 -1.12929 0
M  V30 8820 O 840.569 1.80882 -0.123114 0
M  V30 8821 C 840.617 0.86009 -3.50193 0
M  V30 8822 O 839.721 1.96932 -3.62342 0
M  V30 8823 H 839.062 0.0820183 -0.658915 0
M  V30 8824 H 841.592 -0.378692 -2.01065 0
M  V30 8825 H 841.602 1.16214 -3.91099 0
M  V30 8826 H 840.277 0.0367559 -4.15884 0
M  V30 8827 H 838.854 1.67163 -3.33333 0
M  V30 8828 N 841.039 1.57585 0.0217189 0
M  V30 8829 C 842.267 1.93871 0.722619 0
M  V30 8830 C 842.682 0.851706 1.68498 0
M  V30 8831 O 842.039 -0.17127 1.81695 0
M  V30 8832 C 842.09 3.30114 1.47333 0
M  V30 8833 O 841.811 4.34639 0.549597 0
M  V30 8834 C 843.312 3.80727 2.27072 0
M  V30 8835 H 840.532 0.639671 0.202637 0
M  V30 8836 H 843.076 2.04487 -0.0229414 0
M  V30 8837 H 841.231 3.20872 2.17071 0
M  V30 8838 H 841.645 5.13326 1.07686 0
M  V30 8839 H 843.119 4.78547 2.75131 0
M  V30 8840 H 843.596 3.12301 3.08812 0
M  V30 8841 H 844.202 3.93075 1.62395 0
M  V30 8842 N 842.517 -0.29412 1.54831 0
M  V30 8843 C 843.45 -1.38779 1.81151 0
M  V30 8844 C 844.428 -1.48464 0.663124 0
M  V30 8845 O 845.612 -1.65418 0.903835 0
M  V30 8846 C 842.739 -2.76627 1.95436 0
M  V30 8847 C 841.785 -2.84333 3.17895 0
M  V30 8848 S 842.618 -2.45726 4.75793 0
M  V30 8849 C 843.774 -3.85589 4.93023 0
M  V30 8850 H 844.007 -1.16246 2.73631 0
M  V30 8851 H 841.54 -0.492611 1.46331 0
M  V30 8852 H 843.498 -3.56021 2.04351 0
M  V30 8853 H 842.159 -2.96425 1.03881 0
M  V30 8854 H 841.352 -3.85457 3.24713 0
M  V30 8855 H 840.954 -2.1294 3.07461 0
M  V30 8856 H 843.246 -4.80656 4.77468 0
M  V30 8857 H 844.189 -3.83737 5.95107 0
M  V30 8858 H 844.597 -3.75911 4.21131 0
M  V30 8859 N 843.995 -1.47404 -0.557645 0
M  V30 8860 C 844.925 -1.62736 -1.67449 0
M  V30 8861 C 845.906 -0.476824 -1.6328 0
M  V30 8862 O 847.091 -0.706108 -1.80908 0
M  V30 8863 C 844.221 -1.641 -3.06086 0
M  V30 8864 C 843.175 -2.78377 -3.25101 0
M  V30 8865 C 842.501 -2.64812 -4.6452 0
M  V30 8866 C 843.801 -4.19971 -3.10518 0
M  V30 8867 H 845.495 -2.56232 -1.54873 0
M  V30 8868 H 843.041 -1.23312 -0.743649 0
M  V30 8869 H 844.994 -1.73417 -3.84063 0
M  V30 8870 H 843.718 -0.671652 -3.19619 0
M  V30 8871 H 842.377 -2.6857 -2.49531 0
M  V30 8872 H 842.025 -1.65906 -4.74852 0
M  V30 8873 H 841.725 -3.41477 -4.78191 0
M  V30 8874 H 843.249 -2.76057 -5.44633 0
M  V30 8875 H 844.663 -4.30757 -3.78313 0
M  V30 8876 H 843.06 -4.97419 -3.35699 0
M  V30 8877 H 844.13 -4.38369 -2.0727 0
M  V30 8878 N 845.473 0.80434 -1.35529 0
M  V30 8879 C 846.436 1.89788 -1.28503 0
M  V30 8880 C 847.436 1.59601 -0.195983 0
M  V30 8881 O 848.626 1.68292 -0.449827 0
M  V30 8882 C 845.758 3.26255 -0.98847 0
M  V30 8883 H 846.951 1.97436 -2.25741 0
M  V30 8884 H 844.504 1.00046 -1.20086 0
M  V30 8885 H 845.239 3.24294 -0.0200541 0
M  V30 8886 H 845.024 3.49551 -1.77641 0
M  V30 8887 H 846.514 4.06298 -0.964975 0
M  V30 8888 N 846.951 1.19563 1.02676 0
M  V30 8889 C 847.899 0.931942 2.13114 0
M  V30 8890 C 848.893 -0.113007 1.69023 0
M  V30 8891 O 850.099 0.0364298 1.79963 0
M  V30 8892 H 846.474 0.283981 0.696318 0
M  V30 8893 H 848.445 1.86991 2.32545 0
M  V30 8894 C 847.194 0.489461 3.44238 0
M  V30 8895 H 846.517 1.28508 3.78584 0
M  V30 8896 H 847.957 0.34408 4.22602 0
M  V30 8897 C 846.416 -0.796761 3.27343 0
M  V30 8898 O 846.946 -1.85767 3.56165 0
M  V30 8899 N 845.152 -0.754824 2.80626 0
M  V30 8900 H 844.699 0.108778 2.5737 0
M  V30 8901 H 844.657 -1.6158 2.69702 0
M  V30 8902 N 848.429 -1.21819 0.999893 0
M  V30 8903 C 849.359 -2.26282 0.576096 0
M  V30 8904 C 850.34 -1.65317 -0.400537 0
M  V30 8905 O 851.525 -1.92028 -0.28964 0
M  V30 8906 C 848.655 -3.47147 -0.103145 0
M  V30 8907 C 847.609 -4.20594 0.792745 0
M  V30 8908 C 846.935 -5.34696 -0.0198026 0
M  V30 8909 C 848.235 -4.78533 2.09293 0
M  V30 8910 H 849.929 -2.61984 1.4493 0
M  V30 8911 H 847.475 -1.25935 0.698316 0
M  V30 8912 H 849.428 -4.1939 -0.411068 0
M  V30 8913 H 848.152 -3.1056 -1.01094 0
M  V30 8914 H 846.811 -3.50194 1.08442 0
M  V30 8915 H 846.459 -4.94352 -0.928729 0
M  V30 8916 H 846.159 -5.84764 0.576661 0
M  V30 8917 H 847.683 -6.09752 -0.321659 0
M  V30 8918 H 849.097 -5.42682 1.8485 0
M  V30 8919 H 847.494 -5.38968 2.63881 0
M  V30 8920 H 848.564 -3.98197 2.76708 0
M  V30 8921 N 849.908 -0.773975 -1.37286 0
M  V30 8922 C 851.155 -0.339306 -1.99637 0
M  V30 8923 C 851.483 1.08478 -1.61439 0
M  V30 8924 O 850.738 1.7612 -0.853252 0
M  V30 8925 C 851.037 -0.432651 -3.54772 0
M  V30 8926 C 850.703 -1.81531 -4.12744 0
M  V30 8927 C 849.365 -2.19366 -4.2829 0
M  V30 8928 C 851.717 -2.72137 -4.44512 0
M  V30 8929 C 849.045 -3.47239 -4.72908 0
M  V30 8930 C 851.397 -3.99421 -4.90556 0
M  V30 8931 C 850.061 -4.37298 -5.04308 0
M  V30 8932 H 849.331 -0.124161 -0.730524 0
M  V30 8933 H 851.978 -0.988432 -1.64019 0
M  V30 8934 H 850.283 0.30001 -3.9065 0
M  V30 8935 H 851.98 -0.0776 -4.00925 0
M  V30 8936 H 848.57 -1.51126 -4.01072 0
M  V30 8937 H 852.754 -2.44165 -4.32084 0
M  V30 8938 H 848.01 -3.76477 -4.81742 0
M  V30 8939 H 852.184 -4.69756 -5.14104 0
M  V30 8940 H 849.811 -5.36442 -5.38641 0
M  V30 8941 N 851.386 1.48609 -0.524698 0
M  V30 8942 C 852.611 2.07398 0.00952139 0
M  V30 8943 C 853.036 1.37939 1.27884 0
M  V30 8944 O 852.394 0.443633 1.75788 0
M  V30 8945 C 852.442 3.59916 0.221956 0
M  V30 8946 O 851.546 3.91647 1.29175 0
M  V30 8947 H 850.887 0.662981 -0.0367729 0
M  V30 8948 H 853.417 1.91092 -0.7311 0
M  V30 8949 H 853.427 4.05552 0.446236 0
M  V30 8950 H 852.102 4.09876 -0.705306 0
M  V30 8951 H 850.679 3.57796 1.05055 0
M  V30 8952 N 852.864 0.259585 1.55447 0
M  V30 8953 C 853.797 -0.675542 2.17972 0
M  V30 8954 C 854.775 -1.16362 1.13572 0
M  V30 8955 O 855.959 -1.23944 1.42021 0
M  V30 8956 C 853.086 -1.91952 2.79056 0
M  V30 8957 C 852.132 -1.56824 3.96621 0
M  V30 8958 S 852.965 -0.659846 5.31419 0
M  V30 8959 C 854.121 -1.91255 5.95963 0
M  V30 8960 H 854.354 -0.144236 2.9695 0
M  V30 8961 H 851.887 0.0439448 1.54337 0
M  V30 8962 H 853.845 -2.63362 3.14882 0
M  V30 8963 H 852.506 -2.42196 2 0
M  V30 8964 H 851.699 -2.49348 4.37997 0
M  V30 8965 H 851.301 -0.934472 3.62138 0
M  V30 8966 H 853.593 -2.85834 6.14252 0
M  V30 8967 H 854.536 -1.54207 6.91105 0
M  V30 8968 H 854.944 -2.07042 5.25161 0
M  V30 8969 N 854.342 -1.57594 -0.0133615 0
M  V30 8970 C 855.758 -1.5527 -0.369255 0
M  V30 8971 C 855.958 -0.987751 -1.7563 0
M  V30 8972 O 855.014 -0.615683 -2.44879 0
M  V30 8973 C 856.327 -2.99602 -0.25672 0
M  V30 8974 C 857.875 -3.11227 -0.332647 0
M  V30 8975 C 858.35 -4.57321 -0.249387 0
M  V30 8976 N 859.841 -4.62177 -0.3077 0
M  V30 8977 C 860.576 -5.72781 -0.26641 0
M  V30 8978 N 860.072 -6.92575 -0.176494 0
M  V30 8979 N 861.865 -5.61204 -0.317295 0
M  V30 8980 H 854.016 -1.92662 0.894154 0
M  V30 8981 H 856.279 -0.884352 0.341505 0
M  V30 8982 H 855.985 -3.44723 0.697072 0
M  V30 8983 H 855.859 -3.6246 -1.04415 0
M  V30 8984 H 858.246 -2.66045 -1.27688 0
M  V30 8985 H 858.327 -2.51171 0.484412 0
M  V30 8986 H 857.971 -5.03174 0.691242 0
M  V30 8987 H 857.901 -5.15306 -1.08476 0
M  V30 8988 H 860.392 -3.75994 -0.379069 0
M  V30 8989 H 860.705 -7.72653 -0.150518 0
M  V30 8990 H 859.05 -6.94854 -0.142314 0
M  V30 8991 H 862.241 -4.66509 -0.385643 0
M  V30 8992 H 862.414 -6.47388 -0.28165 0
M  V30 8993 N 855.82 0.285905 -1.54985 0
M  V30 8994 C 857.045 1.04207 -1.7932 0
M  V30 8995 C 857.47 1.79622 -0.558343 0
M  V30 8996 O 856.828 1.74506 0.491661 0
M  V30 8997 C 856.876 1.98648 -3.0095 0
M  V30 8998 O 855.98 3.07207 -2.75132 0
M  V30 8999 H 855.321 0.298596 -0.593074 0
M  V30 9000 H 857.851 0.318736 -2.02102 0
M  V30 9001 H 857.861 2.4084 -3.29333 0
M  V30 9002 H 856.536 1.43167 -3.90482 0
M  V30 9003 H 855.113 2.69423 -2.57809 0
M  V30 9004 N 857.298 1.47698 0.54982 0
M  V30 9005 C 858.545 1.54702 1.30665 0
M  V30 9006 C 858.873 0.212418 1.93337 0
M  V30 9007 O 858.128 -0.79543 1.78805 0
M  V30 9008 C 858.427 2.61903 2.4319 0
M  V30 9009 C 858.093 4.04953 1.98302 0
M  V30 9010 C 856.755 4.43893 1.85776 0
M  V30 9011 C 859.107 4.94682 1.64133 0
M  V30 9012 C 856.435 5.70387 1.37388 0
M  V30 9013 C 858.787 6.21646 1.17214 0
M  V30 9014 C 857.451 6.5946 1.0329 0
M  V30 9015 H 856.721 0.566096 0.478139 0
M  V30 9016 H 859.368 1.8133 0.615767 0
M  V30 9017 H 857.673 2.2906 3.17866 0
M  V30 9018 H 859.37 2.64543 3.0136 0
M  V30 9019 H 855.96 3.74191 2.08995 0
M  V30 9020 H 860.144 4.65291 1.72679 0
M  V30 9021 H 855.4 5.98427 1.25278 0
M  V30 9022 H 859.574 6.90581 0.898391 0
M  V30 9023 H 857.201 7.57367 0.655735 0
M  V30 9024 N 858.776 -0.797141 1.35954 0
M  V30 9025 C 860.025 -1.54983 1.29086 0
M  V30 9026 C 860.338 -1.95167 -0.130003 0
M  V30 9027 O 861.544 -2.69596 -0.32101 0
M  V30 9028 C 860 -2.79738 2.26439 0
M  V30 9029 C 859.608 -2.46753 3.73921 0
M  V30 9030 C 861.352 -3.57733 2.28533 0
M  V30 9031 C 859.259 -3.67858 4.63071 0
M  V30 9032 H 858.189 -0.581766 0.479651 0
M  V30 9033 H 860.84 -0.87541 1.61273 0
M  V30 9034 H 859.222 -3.48939 1.87236 0
M  V30 9035 H 860.396 -1.85499 4.21814 0
M  V30 9036 H 858.711 -1.81985 3.74527 0
M  V30 9037 H 861.308 -4.47699 2.92351 0
M  V30 9038 H 861.651 -3.95754 1.29169 0
M  V30 9039 H 862.184 -2.95504 2.66313 0
M  V30 9040 H 858.923 -3.34939 5.63468 0
M  V30 9041 H 858.443 -4.28305 4.19898 0
M  V30 9042 H 860.122 -4.34977 4.78961 0
M  V30 9043 N 860.254 -1.20106 -1.0204 0
M  V30 9044 C 861.201 -0.946468 -2.10501 0
M  V30 9045 C 862.171 0.121902 -1.65652 0
M  V30 9046 O 863.356 -0.0220244 -1.90787 0
M  V30 9047 C 860.496 -0.500499 -3.41451 0
M  V30 9048 C 859.609 -1.63659 -3.998 0
M  V30 9049 C 858.744 -1.14131 -5.18794 0
M  V30 9050 C 857.783 -2.25074 -5.69217 0
M  V30 9051 N 856.92 -1.76791 -6.79477 0
M  V30 9052 H 861.76 -1.87506 -2.31615 0
M  V30 9053 H 859.297 -0.934693 -1.13587 0
M  V30 9054 H 861.255 -0.223276 -4.16602 0
M  V30 9055 H 859.885 0.391099 -3.20422 0
M  V30 9056 H 858.937 -2.02882 -3.21781 0
M  V30 9057 H 860.249 -2.47213 -4.33229 0
M  V30 9058 H 859.403 -0.819826 -6.01135 0
M  V30 9059 H 858.142 -0.275615 -4.86921 0
M  V30 9060 H 857.147 -2.58043 -4.85483 0
M  V30 9061 H 858.372 -3.12114 -6.03127 0
M  V30 9062 H 856.318 -0.925428 -6.4944 0
M  V30 9063 H 856.235 -2.53928 -7.12079 0
M  V30 9064 H 857.503 -1.47631 -7.65392 0
M  V30 9065 N 861.732 1.21287 -1.00634 0
M  V30 9066 C 862.981 1.89706 -0.685178 0
M  V30 9067 C 863.294 1.79044 0.787566 0
M  V30 9068 O 864.5 2.42502 1.22086 0
M  V30 9069 C 862.956 3.40176 -1.17508 0
M  V30 9070 C 862.564 3.59446 -2.674 0
M  V30 9071 C 864.308 4.14213 -0.928869 0
M  V30 9072 C 862.215 5.03688 -3.09923 0
M  V30 9073 H 861.145 0.710434 -0.252586 0
M  V30 9074 H 863.796 1.37277 -1.21768 0
M  V30 9075 H 862.178 3.91867 -0.570622 0
M  V30 9076 H 863.352 3.18188 -3.33306 0
M  V30 9077 H 861.667 2.98764 -2.9005 0
M  V30 9078 H 864.264 5.20546 -1.22212 0
M  V30 9079 H 864.607 4.16082 0.134859 0
M  V30 9080 H 865.14 3.68591 -1.49619 0
M  V30 9081 H 861.879 5.06968 -4.15529 0
M  V30 9082 H 861.399 5.45796 -2.4873 0
M  V30 9083 H 863.078 5.72204 -3.0198 0
M  V30 9084 N 863.21 0.781244 1.36873 0
M  V30 9085 C 864.12 0.174981 2.33947 0
M  V30 9086 C 865.136 -0.668512 1.60645 0
M  V30 9087 O 866.312 -0.586213 1.9268 0
M  V30 9088 C 863.377 -0.686557 3.39834 0
M  V30 9089 C 862.438 0.174489 4.28945 0
M  V30 9090 C 861.671 -0.646024 5.29776 0
M  V30 9091 O 861.894 -1.88254 5.38439 0
M  V30 9092 O 860.828 -0.0502214 6.01879 0
M  V30 9093 H 864.654 0.977382 2.87543 0
M  V30 9094 H 862.239 0.542559 1.392 0
M  V30 9095 H 864.121 -1.1781 4.04597 0
M  V30 9096 H 862.796 -1.46699 2.8855 0
M  V30 9097 H 861.703 0.712604 3.6725 0
M  V30 9098 H 863.036 0.918232 4.83559 0
M  V30 9099 N 864.689 -1.48329 0.532571 0
M  V30 9100 C 865.599 -2.33445 -0.232546 0
M  V30 9101 C 866.615 -1.46651 -0.93645 0
M  V30 9102 O 867.791 -1.79627 -0.910834 0
M  V30 9103 C 864.856 -3.22824 -1.26434 0
M  V30 9104 C 863.917 -4.25492 -0.570511 0
M  V30 9105 C 863.15 -5.10601 -1.55315 0
M  V30 9106 O 863.373 -4.97733 -2.78599 0
M  V30 9107 O 862.307 -5.91927 -1.09112 0
M  V30 9108 H 866.133 -3.00119 0.464988 0
M  V30 9109 H 863.718 -1.46489 0.293462 0
M  V30 9110 H 865.6 -3.78103 -1.86055 0
M  V30 9111 H 864.275 -2.58807 -1.94424 0
M  V30 9112 H 863.182 -3.74041 0.0662587 0
M  V30 9113 H 864.515 -4.92154 0.0674904 0
M  V30 9114 N 866.167 -0.267825 -1.55308 0
M  V30 9115 C 867.444 0.402449 -1.91415 0
M  V30 9116 C 867.824 1.7428 -1.1912 0
M  V30 9117 O 867.172 2.2631 -0.315609 0
M  V30 9118 C 867.382 0.549926 -3.4464 0
M  V30 9119 C 868.73 0.836188 -4.16285 0
M  V30 9120 O 869.754 0.635009 -3.50494 0
M  V30 9121 O 868.613 1.22051 -5.32697 0
M  V30 9122 H 865.707 0.219177 -0.797427 0
M  V30 9123 H 868.253 -0.313439 -1.6678 0
M  V30 9124 H 867.025 -0.393641 -3.89315 0
M  V30 9125 H 866.648 1.31556 -3.75205 0
M  V30 9126 N 867.645 1.57599 0.00500368 0
M  V30 9127 C 868.873 1.94626 0.702016 0
M  V30 9128 C 869.288 0.86953 1.67585 0
M  V30 9129 O 868.645 -0.15199 1.81866 0
M  V30 9130 C 868.696 3.31658 1.43824 0
M  V30 9131 O 868.417 4.35197 0.503467 0
M  V30 9132 C 869.918 3.83114 2.23021 0
M  V30 9133 H 867.138 0.641785 0.195841 0
M  V30 9134 H 869.682 2.04451 -0.0446287 0
M  V30 9135 H 867.837 3.23156 2.13655 0
M  V30 9136 H 868.251 5.1444 1.02235 0
M  V30 9137 H 869.725 4.81438 2.7004 0
M  V30 9138 H 870.202 3.15559 3.05482 0
M  V30 9139 H 870.808 3.94775 1.58216 0
M  V30 9140 N 869.123 -0.277682 1.55134 0
M  V30 9141 C 870.369 -1.00733 1.76704 0
M  V30 9142 C 870.724 -1.84107 0.55879 0
M  V30 9143 O 870.017 -1.86275 -0.448591 0
M  V30 9144 C 870.211 -1.92599 3.01065 0
M  V30 9145 C 870.04 -1.18266 4.3387 0
M  V30 9146 C 868.81 -0.900254 4.97216 0
M  V30 9147 C 871.008 -0.575419 5.11071 0
M  V30 9148 N 868.99 -0.129637 6.13763 0
M  V30 9149 C 870.361 0.0612637 6.1997 0
M  V30 9150 C 872.416 -0.482794 4.95554 0
M  V30 9151 C 871.119 0.781637 7.15041 0
M  V30 9152 C 873.145 0.223977 5.90976 0
M  V30 9153 C 872.507 0.849416 6.9926 0
M  V30 9154 H 868.606 -0.35075 0.698927 0
M  V30 9155 H 871.19 -0.283482 1.92625 0
M  V30 9156 H 869.361 -2.62214 2.86528 0
M  V30 9157 H 871.093 -2.5889 3.1106 0
M  V30 9158 H 867.848 -1.20434 4.58031 0
M  V30 9159 H 868.272 0.242865 6.76564 0
M  V30 9160 H 872.914 -0.952023 4.11942 0
M  V30 9161 H 870.632 1.26256 7.98176 0
M  V30 9162 H 874.218 0.2959 5.81047 0
M  V30 9163 H 873.098 1.3876 7.71826 0
M  V30 9164 N 870.601 -1.47988 -0.541979 0
M  V30 9165 C 871.533 -1.5769 -1.66332 0
M  V30 9166 C 872.546 -0.461994 -1.56107 0
M  V30 9167 O 873.735 -0.732306 -1.62787 0
M  V30 9168 C 870.835 -1.47939 -3.04905 0
M  V30 9169 C 870.008 -2.74263 -3.40733 0
M  V30 9170 C 869.067 -2.58133 -4.58534 0
M  V30 9171 O 868.093 -3.31991 -4.62354 0
M  V30 9172 N 869.295 -1.6696 -5.55972 0
M  V30 9173 H 872.06 -2.54389 -1.5845 0
M  V30 9174 H 869.621 -1.4456 -0.728979 0
M  V30 9175 H 871.613 -1.34861 -3.81569 0
M  V30 9176 H 870.183 -0.592626 -3.06931 0
M  V30 9177 H 869.403 -3.01992 -2.53366 0
M  V30 9178 H 870.691 -3.58094 -3.6145 0
M  V30 9179 H 870.089 -1.06134 -5.55655 0
M  V30 9180 H 868.646 -1.59826 -6.31901 0
M  V30 9181 N 872.079 0.78992 -1.36375 0
M  V30 9182 C 873.026 1.90254 -1.3066 0
M  V30 9183 C 873.996 1.65171 -0.17539 0
M  V30 9184 O 875.181 1.87338 -0.361824 0
M  V30 9185 C 872.321 3.27057 -1.10125 0
M  V30 9186 C 871.434 3.64215 -2.32317 0
M  V30 9187 C 870.569 4.90134 -2.04798 0
M  V30 9188 C 869.608 5.19969 -3.22953 0
M  V30 9189 N 868.745 6.37071 -2.95102 0
M  V30 9190 H 873.585 1.94474 -2.25796 0
M  V30 9191 H 871.122 0.951022 -1.12223 0
M  V30 9192 H 873.08 4.05947 -0.962453 0
M  V30 9193 H 871.71 3.22261 -0.186444 0
M  V30 9194 H 870.762 2.80454 -2.57002 0
M  V30 9195 H 872.074 3.82212 -3.20492 0
M  V30 9196 H 871.228 5.76888 -1.87845 0
M  V30 9197 H 869.967 4.74205 -1.13932 0
M  V30 9198 H 868.972 4.31699 -3.40465 0
M  V30 9199 H 870.197 5.37817 -4.14644 0
M  V30 9200 H 868.143 6.22535 -2.06848 0
M  V30 9201 H 868.06 6.55398 -3.76815 0
M  V30 9202 H 869.328 7.26808 -2.81727 0
M  V30 9203 N 873.557 1.20646 1.01402 0
M  V30 9204 C 874.787 1.04238 1.78376 0
M  V30 9205 C 875.195 -0.411327 1.84675 0
M  V30 9206 O 874.538 -1.29734 1.30057 0
M  V30 9207 C 874.6 1.55349 3.24202 0
M  V30 9208 C 874.264 3.03684 3.41504 0
M  V30 9209 C 875.261 4.01318 3.30514 0
M  V30 9210 C 872.946 3.42698 3.67237 0
M  V30 9211 C 874.94 5.35956 3.45007 0
M  V30 9212 C 872.627 4.77491 3.81373 0
M  V30 9213 C 873.625 5.73929 3.70263 0
M  V30 9214 O 873.313 7.06277 3.83963 0
M  V30 9215 H 873.045 0.366978 0.567718 0
M  V30 9216 H 875.599 1.60235 1.28506 0
M  V30 9217 H 873.829 0.93739 3.75166 0
M  V30 9218 H 875.518 1.34921 3.8282 0
M  V30 9219 H 876.284 3.72522 3.10568 0
M  V30 9220 H 872.163 2.68175 3.74971 0
M  V30 9221 H 875.707 6.11212 3.36252 0
M  V30 9222 H 871.604 5.05977 4.00821 0
M  V30 9223 H 872.372 7.13561 4.00965 0
M  V30 9224 N 875.035 -1.20752 1.01276 0
M  V30 9225 C 876.265 -1.93725 0.717934 0
M  V30 9226 C 876.673 -1.74769 -0.724732 0
M  V30 9227 O 876.016 -1.05642 -1.50285 0
M  V30 9228 C 876.078 -3.46196 0.968954 0
M  V30 9229 C 875.742 -3.88909 2.39998 0
M  V30 9230 C 876.739 -3.94982 3.38061 0
M  V30 9231 C 874.424 -4.21006 2.7397 0
M  V30 9232 C 876.418 -4.32558 4.68159 0
M  V30 9233 C 874.105 -4.58257 4.04282 0
M  V30 9234 C 875.103 -4.64004 5.01187 0
M  V30 9235 O 874.791 -5.00403 6.29168 0
M  V30 9236 H 874.523 -0.622663 0.263186 0
M  V30 9237 H 877.077 -1.54299 1.35577 0
M  V30 9238 H 875.307 -3.85728 0.273952 0
M  V30 9239 H 876.996 -4.00394 0.666312 0
M  V30 9240 H 877.762 -3.70353 3.13151 0
M  V30 9241 H 873.641 -4.15725 1.99233 0
M  V30 9242 H 877.185 -4.36959 5.43795 0
M  V30 9243 H 873.082 -4.82341 4.28973 0
M  V30 9244 H 873.85 -5.18409 6.33399 0
M  V30 9245 N 876.513 -0.788492 -1.36457 0
M  V30 9246 C 877.443 -0.200468 -2.32638 0
M  V30 9247 C 878.424 0.664031 -1.56603 0
M  V30 9248 O 879.609 0.598045 -1.84762 0
M  V30 9249 C 876.739 0.666274 -3.40849 0
M  V30 9250 C 875.693 -0.0982574 -4.27887 0
M  V30 9251 C 875.019 0.889018 -5.27258 0
M  V30 9252 C 876.319 -1.28692 -5.06197 0
M  V30 9253 H 878.013 -1.00399 -2.82065 0
M  V30 9254 H 875.559 -0.484237 -1.35614 0
M  V30 9255 H 877.512 1.08757 -4.07124 0
M  V30 9256 H 876.236 1.50249 -2.89987 0
M  V30 9257 H 874.895 -0.500525 -3.63167 0
M  V30 9258 H 874.543 1.72024 -4.7267 0
M  V30 9259 H 874.243 0.381909 -5.86358 0
M  V30 9260 H 875.767 1.30891 -5.96406 0
M  V30 9261 H 877.181 -0.941429 -5.65517 0
M  V30 9262 H 875.578 -1.72726 -5.74705 0
M  V30 9263 H 876.648 -2.08273 -4.37893 0
M  V30 9264 N 877.991 1.48044 -0.54043 0
M  V30 9265 C 878.901 2.33565 0.220163 0
M  V30 9266 C 879.917 1.47146 0.928659 0
M  V30 9267 O 881.093 1.80107 0.901295 0
M  V30 9268 C 878.158 3.2349 1.2472 0
M  V30 9269 C 877.219 4.25789 0.547938 0
M  V30 9270 C 876.452 5.11417 1.52605 0
M  V30 9271 O 876.675 4.99204 2.75956 0
M  V30 9272 O 875.609 5.92498 1.05972 0
M  V30 9273 H 879.435 2.99868 -0.480898 0
M  V30 9274 H 877.02 1.46332 -0.301226 0
M  V30 9275 H 878.902 3.79084 1.84047 0
M  V30 9276 H 877.577 2.59835 1.93048 0
M  V30 9277 H 876.484 3.74001 -0.0860941 0
M  V30 9278 H 877.817 4.92111 -0.0935896 0
M  V30 9279 N 879.47 0.276058 1.55163 0
M  V30 9280 C 880.718 -0.339782 1.99223 0
M  V30 9281 C 881.039 -1.56307 1.16589 0
M  V30 9282 O 880.309 -1.94225 0.25564 0
M  V30 9283 H 878.889 -0.128534 0.735859 0
M  V30 9284 H 881.551 0.381612 1.91128 0
M  V30 9285 H 880.647 -0.629 3.05696 0
M  V30 9286 N 880.948 -1.576 0.00335426 0
M  V30 9287 C 882.194 -1.90996 -0.681799 0
M  V30 9288 C 882.527 -0.877643 -1.73237 0
M  V30 9289 O 881.802 0.103183 -1.94226 0
M  V30 9290 C 882.085 -3.34961 -1.32187 0
M  V30 9291 C 881.938 -4.48911 -0.28261 0
M  V30 9292 C 883.257 -3.78408 -2.24711 0
M  V30 9293 H 880.376 -0.694596 -0.246386 0
M  V30 9294 H 883.018 -1.89919 0.055336 0
M  V30 9295 H 881.168 -3.36008 -1.95014 0
M  V30 9296 H 882.84 -4.59999 0.346241 0
M  V30 9297 H 881.083 -4.32 0.394768 0
M  V30 9298 H 881.754 -5.46609 -0.769576 0
M  V30 9299 H 884.23 -3.78934 -1.71897 0
M  V30 9300 H 883.106 -4.79885 -2.66461 0
M  V30 9301 H 883.367 -3.12464 -3.1276 0
M  V30 9302 N 882.426 0.269451 -1.5528 0
M  V30 9303 C 883.651 1.02299 -1.80415 0
M  V30 9304 C 884.076 1.7902 -0.577363 0
M  V30 9305 O 883.434 1.75018 0.473125 0
M  V30 9306 C 883.482 1.95445 -3.0304 0
M  V30 9307 O 882.586 3.04271 -2.78375 0
M  V30 9308 H 881.927 0.292289 -0.596207 0
M  V30 9309 H 884.457 0.297282 -2.02429 0
M  V30 9310 H 884.467 2.37333 -3.31869 0
M  V30 9311 H 883.142 1.39017 -3.91978 0
M  V30 9312 H 881.719 2.66673 -2.60653 0
M  V30 9313 N 883.904 1.48273 0.534124 0
M  V30 9314 C 884.852 1.62926 1.66005 0
M  V30 9315 C 885.846 0.495814 1.61982 0
M  V30 9316 O 887.052 0.6744 1.66889 0
M  V30 9317 H 883.427 0.513163 0.549698 0
M  V30 9318 H 885.398 2.57498 1.50789 0
M  V30 9319 C 884.147 1.68231 3.04292 0
M  V30 9320 H 883.47 2.54807 3.0808 0
M  V30 9321 H 884.91 1.82528 3.827 0
M  V30 9322 C 883.369 0.420154 3.3427 0
M  V30 9323 O 883.899 -0.468769 3.98955 0
M  V30 9324 N 882.105 0.293115 2.89118 0
M  V30 9325 H 881.652 1.01745 2.36655 0
M  V30 9326 H 881.61 -0.550376 3.09545 0
M  V30 9327 N 885.382 -0.782676 1.36792 0
M  V30 9328 C 886.292 -1.92679 1.33835 0
M  V30 9329 C 887.308 -1.72344 0.23952 0
M  V30 9330 O 888.484 -1.95766 0.473045 0
M  V30 9331 C 885.549 -3.27644 1.1336 0
M  V30 9332 C 884.61 -3.6071 2.32781 0
M  V30 9333 C 883.843 -4.89234 2.13273 0
M  V30 9334 O 884.066 -5.59468 1.11136 0
M  V30 9335 O 883 -5.21112 3.01208 0
M  V30 9336 H 886.826 -1.98124 2.30175 0
M  V30 9337 H 884.411 -0.923887 1.17408 0
M  V30 9338 H 886.293 -4.08394 1.03886 0
M  V30 9339 H 884.968 -3.23076 0.200868 0
M  V30 9340 H 883.875 -2.80238 2.47825 0
M  V30 9341 H 885.208 -3.70008 3.24584 0
M  V30 9342 N 886.86 -1.21182 -1.00761 0
M  V30 9343 C 887.793 -0.912033 -2.09182 0
M  V30 9344 C 888.771 0.139421 -1.62001 0
M  V30 9345 O 889.955 0.0110272 -1.88497 0
M  V30 9346 C 887.082 -0.368957 -3.36684 0
M  V30 9347 C 886.128 -1.4028 -4.0277 0
M  V30 9348 S 886.961 -2.97108 -4.45519 0
M  V30 9349 C 888.117 -2.444 -5.76211 0
M  V30 9350 H 888.35 -1.83019 -2.34289 0
M  V30 9351 H 885.883 -1.04127 -1.14004 0
M  V30 9352 H 887.841 -0.0621883 -4.10453 0
M  V30 9353 H 886.502 0.527841 -3.09633 0
M  V30 9354 H 885.695 -0.97238 -4.94531 0
M  V30 9355 H 885.297 -1.65752 -3.35265 0
M  V30 9356 H 887.589 -1.84723 -6.51831 0
M  V30 9357 H 888.532 -3.34593 -6.24062 0
M  V30 9358 H 888.94 -1.86203 -5.32906 0
M  V30 9359 N 888.338 1.20213 -1.01915 0
M  V30 9360 C 889.568 1.93341 -0.728197 0
M  V30 9361 C 889.976 1.75151 0.715454 0
M  V30 9362 O 889.319 1.06437 1.49722 0
M  V30 9363 C 889.381 3.45677 -0.9873 0
M  V30 9364 C 889.045 3.8763 -2.42057 0
M  V30 9365 C 890.042 3.93184 -3.40151 0
M  V30 9366 C 887.727 4.19547 -2.76199 0
M  V30 9367 C 889.721 4.30069 -4.70446 0
M  V30 9368 C 887.408 4.56106 -4.06707 0
M  V30 9369 C 888.406 4.6134 -5.03641 0
M  V30 9370 O 888.094 4.97059 -6.31813 0
M  V30 9371 H 887.826 0.621258 -0.266485 0
M  V30 9372 H 890.38 1.53577 -1.36393 0
M  V30 9373 H 888.61 3.85578 -0.294405 0
M  V30 9374 H 890.299 4.00035 -0.687536 0
M  V30 9375 H 891.065 3.68687 -3.15111 0
M  V30 9376 H 886.944 4.14663 -2.01434 0
M  V30 9377 H 890.488 4.34069 -5.46105 0
M  V30 9378 H 886.385 4.80059 -4.31525 0
M  V30 9379 H 887.153 5.15043 -6.36139 0
M  V30 9380 N 889.816 0.795718 1.36037 0
M  V30 9381 C 891.044 0.383153 2.03321 0
M  V30 9382 C 891.459 -1.00246 1.59988 0
M  V30 9383 O 890.816 -1.64406 0.792265 0
M  V30 9384 C 890.867 0.444467 3.58757 0
M  V30 9385 O 890.588 1.77544 4.00512 0
M  V30 9386 C 892.089 0.0233291 4.43294 0
M  V30 9387 H 889.309 0.157061 0.652359 0
M  V30 9388 H 891.853 1.07632 1.73884 0
M  V30 9389 H 890.008 -0.200341 3.86882 0
M  V30 9390 H 890.422 1.73065 4.95125 0
M  V30 9391 H 891.896 0.117361 5.51875 0
M  V30 9392 H 892.373 -1.03007 4.2695 0
M  V30 9393 H 892.979 0.64087 4.20444 0
M  V30 9394 N 891.294 -1.47756 0.548274 0
M  V30 9395 C 892.204 -2.33678 -0.207773 0
M  V30 9396 C 893.22 -1.47636 -0.920843 0
M  V30 9397 O 894.396 -1.80583 -0.89173 0
M  V30 9398 C 891.461 -3.24147 -1.23003 0
M  V30 9399 C 890.522 -4.26073 -0.52535 0
M  V30 9400 C 889.755 -5.12219 -1.4989 0
M  V30 9401 O 889.978 -5.0066 -2.73305 0
M  V30 9402 O 888.912 -5.93051 -1.02828 0
M  V30 9403 H 892.738 -2.99609 0.496794 0
M  V30 9404 H 890.323 -1.4617 0.308982 0
M  V30 9405 H 892.205 -3.80055 -1.82034 0
M  V30 9406 H 890.88 -2.60855 -1.91668 0
M  V30 9407 H 889.787 -3.7395 0.105927 0
M  V30 9408 H 891.12 -4.92054 0.119686 0
M  V30 9409 N 892.772 -0.284283 -1.55015 0
M  V30 9410 C 894.002 0.332465 -2.03907 0
M  V30 9411 C 894.41 1.49331 -1.16177 0
M  V30 9412 O 893.753 1.82851 -0.176395 0
M  V30 9413 C 893.815 0.867193 -3.48884 0
M  V30 9414 C 893.479 -0.166198 -4.56698 0
M  V30 9415 C 894.476 -0.988898 -5.10408 0
M  V30 9416 C 892.161 -0.303081 -5.01385 0
M  V30 9417 C 894.155 -1.93458 -6.07333 0
M  V30 9418 C 891.842 -1.25223 -5.98133 0
M  V30 9419 C 892.84 -2.06647 -6.50988 0
M  V30 9420 O 892.528 -2.99955 -7.45843 0
M  V30 9421 H 892.26 0.0786597 -0.671408 0
M  V30 9422 H 894.814 -0.416871 -2.01125 0
M  V30 9423 H 893.044 1.66676 -3.48935 0
M  V30 9424 H 894.733 1.39802 -3.81065 0
M  V30 9425 H 895.499 -0.89393 -4.76691 0
M  V30 9426 H 891.378 0.320711 -4.59883 0
M  V30 9427 H 894.922 -2.57053 -6.48513 0
M  V30 9428 H 890.819 -1.34798 -6.31268 0
M  V30 9429 H 891.587 -2.94742 -7.6359 0
M  V30 9430 N 894.251 1.57596 -0.0117121 0
M  V30 9431 C 895.181 2.12188 0.9746 0
M  V30 9432 C 896.162 1.03379 1.35081 0
M  V30 9433 O 897.347 1.31123 1.4325 0
M  V30 9434 C 894.477 2.63477 2.26268 0
M  V30 9435 C 893.431 3.76917 2.02774 0
M  V30 9436 C 892.757 4.14566 3.37697 0
M  V30 9437 C 894.057 5.03715 1.38089 0
M  V30 9438 H 895.751 2.9485 0.520007 0
M  V30 9439 H 893.297 1.41836 0.248685 0
M  V30 9440 H 895.25 3.00299 2.95633 0
M  V30 9441 H 893.974 1.77953 2.73862 0
M  V30 9442 H 892.633 3.40507 1.35832 0
M  V30 9443 H 892.281 3.26048 3.83016 0
M  V30 9444 H 891.981 4.91 3.22789 0
M  V30 9445 H 893.505 4.53956 4.08358 0
M  V30 9446 H 894.919 5.38233 1.97428 0
M  V30 9447 H 893.316 5.85032 1.33634 0
M  V30 9448 H 894.386 4.83624 0.351575 0
M  V30 9449 N 895.729 -0.261212 1.5542 0
M  V30 9450 C 896.954 -1.01341 1.80955 0
M  V30 9451 C 897.379 -1.78711 0.586849 0
M  V30 9452 O 896.737 -1.75266 -0.463837 0
M  V30 9453 C 896.785 -1.93835 3.04073 0
M  V30 9454 O 895.889 -3.02791 2.79985 0
M  V30 9455 H 895.23 -0.289123 0.597749 0
M  V30 9456 H 897.76 -0.286543 2.02584 0
M  V30 9457 H 897.77 -2.3557 3.33123 0
M  V30 9458 H 896.445 -1.36936 3.9271 0
M  V30 9459 H 895.022 -2.65287 2.62063 0
M  V30 9460 N 897.207 -1.48554 -0.526253 0
M  V30 9461 C 898.432 -1.60686 -1.31129 0
M  V30 9462 C 898.857 -0.268701 -1.86171 0
M  V30 9463 O 898.215 0.760167 -1.64594 0
M  V30 9464 C 898.263 -2.65938 -2.43536 0
M  V30 9465 O 897.367 -2.23356 -3.46678 0
M  V30 9466 H 896.708 -0.538691 -0.388211 0
M  V30 9467 H 899.238 -1.94567 -0.632826 0
M  V30 9468 H 899.248 -2.87327 -2.89668 0
M  V30 9469 H 897.923 -3.63085 -2.02835 0
M  V30 9470 H 896.5 -2.12196 -3.06639 0
M  V30 9471 N 898.685 0.775411 -1.37205 0
M  V30 9472 C 899.648 1.8702 -1.325 0
M  V30 9473 C 900.648 1.5915 -0.229793 0
M  V30 9474 O 901.838 1.673 -0.485423 0
M  V30 9475 C 898.97 3.24085 -1.05745 0
M  V30 9476 H 900.163 1.92604 -2.29878 0
M  V30 9477 H 897.716 0.97476 -1.22181 0
M  V30 9478 H 898.451 3.24178 -0.0888371 0
M  V30 9479 H 898.236 3.45705 -1.85016 0
M  V30 9480 H 899.726 4.0416 -1.05094 0
M  V30 9481 N 900.163 1.21714 1.00117 0
M  V30 9482 C 901.41 1.0367 1.73951 0
M  V30 9483 C 901.738 -0.429289 1.89703 0
M  V30 9484 O 900.993 -1.33475 1.43119 0
M  V30 9485 C 901.292 1.68345 3.15269 0
M  V30 9486 C 900.958 3.18214 3.19454 0
M  V30 9487 C 899.62 3.59109 3.20303 0
M  V30 9488 C 901.972 4.14179 3.16394 0
M  V30 9489 C 899.3 4.94467 3.15783 0
M  V30 9490 C 901.652 5.49502 3.13416 0
M  V30 9491 C 900.316 5.8979 3.12577 0
M  V30 9492 H 899.586 0.379355 0.63653 0
M  V30 9493 H 902.233 1.51361 1.17312 0
M  V30 9494 H 900.538 1.12957 3.75164 0
M  V30 9495 H 902.235 1.51882 3.71124 0
M  V30 9496 H 898.825 2.85646 3.19538 0
M  V30 9497 H 903.009 3.83607 3.14895 0
M  V30 9498 H 898.265 5.24923 3.13473 0
M  V30 9499 H 902.439 6.23595 3.10003 0
M  V30 9500 H 900.066 6.94643 3.08829 0
M  V30 9501 N 901.641 -1.19671 1.02551 0
M  V30 9502 C 902.887 -1.89548 0.721069 0
M  V30 9503 C 903.22 -1.79209 -0.748176 0
M  V30 9504 O 902.495 -1.1822 -1.54448 0
M  V30 9505 C 902.778 -3.4061 1.16861 0
M  V30 9506 C 902.631 -3.59838 2.69883 0
M  V30 9507 C 903.95 -4.33718 0.746782 0
M  V30 9508 H 901.069 -0.688315 0.263422 0
M  V30 9509 H 903.711 -1.40883 1.27483 0
M  V30 9510 H 901.861 -3.82188 0.697477 0
M  V30 9511 H 903.533 -3.27454 3.24917 0
M  V30 9512 H 901.776 -3.03005 3.10435 0
M  V30 9513 H 902.447 -4.65766 2.96253 0
M  V30 9514 H 904.923 -3.99837 1.15195 0
M  V30 9515 H 903.799 -5.38012 1.08786 0
M  V30 9516 H 904.06 -4.40704 -0.351057 0
M  V30 9517 N 903.119 -0.802921 -1.35613 0
M  V30 9518 C 904.367 -0.380822 -1.9848 0
M  V30 9519 C 904.688 1.05464 -1.6402 0
M  V30 9520 O 903.958 1.72908 -0.920854 0
M  V30 9521 H 902.538 -0.137824 -0.734176 0
M  V30 9522 H 905.2 -1.02795 -1.65587 0
M  V30 9523 H 904.296 -0.483565 -3.08331 0
M  V30 9524 N 904.597 1.47463 -0.556102 0
M  V30 9525 C 905.527 2.32801 0.180497 0
M  V30 9526 C 906.508 1.43721 0.909848 0
M  V30 9527 O 907.693 1.72578 0.89053 0
M  V30 9528 C 904.823 3.25478 1.21167 0
M  V30 9529 C 903.777 4.2379 0.598846 0
M  V30 9530 C 903.103 5.05783 1.73457 0
M  V30 9531 C 904.403 5.20387 -0.446659 0
M  V30 9532 H 906.097 2.94636 -0.531956 0
M  V30 9533 H 903.643 1.41683 -0.257267 0
M  V30 9534 H 905.596 3.8402 1.73513 0
M  V30 9535 H 904.32 2.61695 1.95405 0
M  V30 9536 H 902.979 3.66472 0.0966897 0
M  V30 9537 H 902.627 4.38405 2.46596 0
M  V30 9538 H 902.327 5.72343 1.33031 0
M  V30 9539 H 903.851 5.67183 2.26131 0
M  V30 9540 H 905.265 5.73299 -0.00930019 0
M  V30 9541 H 903.662 5.95143 -0.769735 0
M  V30 9542 H 904.732 4.65932 -1.34295 0
M  V30 9543 N 906.075 0.2925 1.54862 0
M  V30 9544 C 907.3 -0.32494 2.04839 0
M  V30 9545 C 907.725 -1.47381 1.16877 0
M  V30 9546 O 907.083 -1.80492 0.171028 0
M  V30 9547 C 907.131 -0.76694 3.5235 0
M  V30 9548 O 906.235 -1.87256 3.67436 0
M  V30 9549 H 905.576 -0.0645195 0.660858 0
M  V30 9550 H 908.106 0.431867 1.9999 0
M  V30 9551 H 908.116 -1.05804 3.94043 0
M  V30 9552 H 906.791 0.0735212 4.15835 0
M  V30 9553 H 905.368 -1.58266 3.37648 0
M  V30 9554 N 907.553 -1.57587 0.0200696 0
M  V30 9555 C 908.8 -1.91424 -0.660525 0
M  V30 9556 C 909.128 -0.895626 -1.72652 0
M  V30 9557 O 908.383 0.096771 -1.95461 0
M  V30 9558 C 908.682 -3.32002 -1.32323 0
M  V30 9559 C 908.348 -4.49223 -0.388487 0
M  V30 9560 C 907.01 -4.81021 -0.131184 0
M  V30 9561 C 909.362 -5.20581 0.253906 0
M  V30 9562 C 906.69 -5.81539 0.776471 0
M  V30 9563 C 909.042 -6.22067 1.14956 0
M  V30 9564 C 907.706 -6.52311 1.41584 0
M  V30 9565 H 906.976 -0.700472 -0.241703 0
M  V30 9566 H 909.623 -1.91333 0.0798991 0
M  V30 9567 H 907.928 -3.28312 -2.13819 0
M  V30 9568 H 909.625 -3.5545 -1.85623 0
M  V30 9569 H 906.215 -4.24391 -0.599207 0
M  V30 9570 H 910.399 -4.96253 0.068164 0
M  V30 9571 H 905.655 -6.03322 0.990575 0
M  V30 9572 H 909.829 -6.76484 1.65357 0
M  V30 9573 H 907.456 -7.30017 2.12083 0
M  V30 9574 N 909.032 0.252966 -1.55557 0
M  V30 9575 C 910.443 0.822503 -1.67606 0
M  V30 9576 C 910.794 1.86265 -0.616411 0
M  V30 9577 O 909.919 2.15082 0.238447 0
M  V30 9578 C 910.514 1.49866 -3.03852 0
M  V30 9579 C 909.073 2.01597 -3.17861 0
M  V30 9580 C 908.22 0.864943 -2.63465 0
M  V30 9581 H 911.171 0.0288958 -1.58674 0
M  V30 9582 H 911.192 2.36646 -2.97958 0
M  V30 9583 H 910.704 0.741378 -3.80953 0
M  V30 9584 H 908.805 2.80224 -2.45571 0
M  V30 9585 H 908.918 2.21752 -4.24692 0
M  V30 9586 H 907.282 1.2638 -2.21134 0
M  V30 9587 H 908.065 0.120847 -3.43087 0
M  V30 9588 N 910.51 1.48831 0.518367 0
M  V30 9589 C 911.738 1.6112 1.298 0
M  V30 9590 C 912.153 0.275872 1.86774 0
M  V30 9591 O 911.51 -0.736416 1.66983 0
M  V30 9592 C 911.561 2.66675 2.44063 0
M  V30 9593 O 911.282 3.95027 1.89434 0
M  V30 9594 C 912.783 2.8951 3.35706 0
M  V30 9595 H 910.003 0.542916 0.394314 0
M  V30 9596 H 912.547 1.94743 0.624142 0
M  V30 9597 H 910.702 2.35879 3.07311 0
M  V30 9598 H 911.116 4.53031 2.64316 0
M  V30 9599 H 912.59 3.67142 4.12202 0
M  V30 9600 H 913.067 1.98768 3.91648 0
M  V30 9601 H 913.673 3.21656 2.7824 0
M  V30 9602 N 911.988 -0.768124 1.37614 0
M  V30 9603 C 913.234 -1.52907 1.33219 0
M  V30 9604 C 913.567 -1.94026 -0.0821218 0
M  V30 9605 O 912.842 -1.64345 -1.04023 0
M  V30 9606 C 913.125 -2.79164 2.27463 0
M  V30 9607 C 912.978 -2.44276 3.7769 0
M  V30 9608 C 914.297 -3.81115 2.20089 0
M  V30 9609 H 911.416 -0.554712 0.485246 0
M  V30 9610 H 914.058 -0.880911 1.68345 0
M  V30 9611 H 912.208 -3.34472 1.97639 0
M  V30 9612 H 913.88 -1.94855 4.18126 0
M  V30 9613 H 912.123 -1.76925 3.96081 0
M  V30 9614 H 912.794 -3.34544 4.39072 0
M  V30 9615 H 915.27 -3.35311 2.46386 0
M  V30 9616 H 914.146 -4.67174 2.88166 0
M  V30 9617 H 914.407 -4.25644 1.19498 0
M  V30 9618 N 913.466 -1.22244 -0.994698 0
M  V30 9619 C 914.706 -1.05747 -1.7492 0
M  V30 9620 C 915.07 0.4007 -1.87772 0
M  V30 9621 O 916.271 0.686469 -2.59887 0
M  V30 9622 C 914.542 -1.7471 -3.11787 0
M  V30 9623 S 916.101 -1.73604 -4.02998 0
M  V30 9624 H 912.919 -0.378731 -0.601734 0
M  V30 9625 H 915.521 -1.55155 -1.18942 0
M  V30 9626 H 914.225 -2.79972 -3.00073 0
M  V30 9627 H 913.756 -1.25525 -3.72836 0
M  V30 9628 H 915.771 -0.784445 -4.8996 0
M  V30 9629 N 914.944 1.19125 -1.03184 0
M  V30 9630 C 915.854 2.26112 -0.625329 0
M  V30 9631 C 916.87 1.7056 0.344298 0
M  V30 9632 O 918.046 2.0039 0.20144 0
M  V30 9633 C 915.111 3.46697 0.0145169 0
M  V30 9634 C 914.172 4.17419 -1.00299 0
M  V30 9635 C 913.405 5.32247 -0.393581 0
M  V30 9636 O 913.628 5.64724 0.802659 0
M  V30 9637 O 912.562 5.91428 -1.1179 0
M  V30 9638 H 916.388 2.63131 -1.51643 0
M  V30 9639 H 913.973 1.26036 -0.802197 0
M  V30 9640 H 915.855 4.19762 0.371139 0
M  V30 9641 H 914.53 3.11521 0.879581 0
M  V30 9642 H 913.437 3.4646 -1.41125 0
M  V30 9643 H 914.77 4.56573 -1.83852 0
M  V30 9644 N 916.422 0.810101 1.35185 0
M  V30 9645 C 917.352 0.237453 2.32289 0
M  V30 9646 C 918.333 -0.639032 1.5764 0
M  V30 9647 O 919.518 -0.568575 1.8569 0
M  V30 9648 C 916.648 -0.611964 3.41866 0
M  V30 9649 C 915.602 0.166318 4.27677 0
M  V30 9650 C 914.928 -0.805024 5.28605 0
M  V30 9651 C 916.228 1.36729 5.04086 0
M  V30 9652 H 917.922 1.04874 2.80432 0
M  V30 9653 H 915.468 0.505751 1.34826 0
M  V30 9654 H 917.421 -1.02267 4.08802 0
M  V30 9655 H 916.145 -1.45617 2.92341 0
M  V30 9656 H 914.804 0.558238 3.62325 0
M  V30 9657 H 914.452 -1.64483 4.75347 0
M  V30 9658 H 914.152 -0.288577 5.86891 0
M  V30 9659 H 915.676 -1.21386 5.98413 0
M  V30 9660 H 917.09 1.03128 5.63948 0
M  V30 9661 H 915.487 1.81848 5.71884 0
M  V30 9662 H 916.557 2.15214 4.34524 0
M  V30 9663 N 917.9 -1.47166 0.563914 0
M  V30 9664 C 919.14 -2.04351 0.0448121 0
M  V30 9665 C 919.504 -1.42808 -1.28336 0
M  V30 9666 O 920.705 -1.91079 -1.89056 0
M  V30 9667 C 918.976 -3.57378 -0.0395795 0
M  V30 9668 S 920.535 -4.35898 -0.503833 0
M  V30 9669 H 917.353 -0.710433 0.0283795 0
M  V30 9670 H 919.955 -1.80451 0.752166 0
M  V30 9671 H 918.659 -3.99693 0.931326 0
M  V30 9672 H 918.19 -3.85785 -0.770282 0
M  V30 9673 H 920.205 -4.63852 -1.76225 0
M  V30 9674 N 919.378 -0.300708 -1.54705 0
M  V30 9675 C 920.625 0.308654 -2.00134 0
M  V30 9676 C 920.953 1.53918 -1.1891 0
M  V30 9677 O 920.208 1.94054 -0.253263 0
M  V30 9678 C 920.507 0.710108 -3.50275 0
M  V30 9679 C 920.173 -0.418651 -4.48952 0
M  V30 9680 C 918.835 -0.728524 -4.75653 0
M  V30 9681 C 921.187 -1.17797 -5.07714 0
M  V30 9682 C 918.515 -1.80085 -5.58378 0
M  V30 9683 C 920.867 -2.24022 -5.91606 0
M  V30 9684 C 919.531 -2.55616 -6.16617 0
M  V30 9685 H 918.801 0.112945 -0.732342 0
M  V30 9686 H 921.448 -0.419744 -1.86843 0
M  V30 9687 H 919.753 1.51859 -3.61173 0
M  V30 9688 H 921.45 1.19277 -3.8285 0
M  V30 9689 H 918.04 -0.167034 -4.28274 0
M  V30 9690 H 922.224 -0.951835 -4.87087 0
M  V30 9691 H 917.48 -2.05036 -5.75995 0
M  V30 9692 H 921.654 -2.83317 -6.36164 0
M  V30 9693 H 919.281 -3.38839 -6.80509 0
M  V30 9694 N 920.856 1.57574 -0.0284266 0
M  V30 9695 C 922.102 1.92056 0.651327 0
M  V30 9696 C 922.435 0.905092 1.71819 0
M  V30 9697 O 921.71 -0.0722703 1.94366 0
M  V30 9698 C 921.993 3.37021 1.26841 0
M  V30 9699 C 921.846 4.49304 0.211157 0
M  V30 9700 C 923.165 3.81936 2.18662 0
M  V30 9701 H 920.284 0.698428 0.235304 0
M  V30 9702 H 922.926 1.89807 -0.0855435 0
M  V30 9703 H 921.076 3.39068 1.89644 0
M  V30 9704 H 922.748 4.5939 -0.419379 0
M  V30 9705 H 920.991 4.31317 -0.463445 0
M  V30 9706 H 921.662 5.47764 0.682518 0
M  V30 9707 H 924.138 3.8162 1.65847 0
M  V30 9708 H 923.014 4.84064 2.58792 0
M  V30 9709 H 923.275 3.174 3.07749 0
M  V30 9710 N 922.334 -0.244713 1.55689 0
M  V30 9711 C 923.281 -1.30301 1.905 0
M  V30 9712 C 924.251 -1.4772 0.759478 0
M  V30 9713 O 925.436 -1.61667 1.01333 0
M  V30 9714 C 922.576 -2.653 2.20703 0
M  V30 9715 C 921.689 -2.55872 3.48071 0
M  V30 9716 C 920.824 -3.83238 3.67834 0
M  V30 9717 C 919.863 -3.68436 4.88796 0
M  V30 9718 N 919 -4.877 5.05068 0
M  V30 9719 H 923.84 -0.999143 2.80751 0
M  V30 9720 H 921.377 -0.482099 1.38976 0
M  V30 9721 H 923.335 -3.43884 2.36219 0
M  V30 9722 H 921.965 -2.93831 1.33653 0
M  V30 9723 H 921.017 -1.68846 3.40874 0
M  V30 9724 H 922.329 -2.40845 4.36801 0
M  V30 9725 H 921.483 -4.70266 3.83321 0
M  V30 9726 H 920.222 -4.01165 2.77341 0
M  V30 9727 H 919.227 -2.79793 4.73282 0
M  V30 9728 H 920.452 -3.52003 5.8075 0
M  V30 9729 H 918.398 -5.05983 4.17513 0
M  V30 9730 H 918.315 -4.75312 5.8789 0
M  V30 9731 H 919.583 -5.76219 5.24969 0
M  V30 9732 N 923.813 -1.49104 -0.510467 0
M  V30 9733 C 924.743 -1.67981 -1.62187 0
M  V30 9734 C 925.724 -0.528529 -1.6168 0
M  V30 9735 O 926.909 -0.763305 -1.7857 0
M  V30 9736 C 924.039 -1.73755 -3.0071 0
M  V30 9737 C 922.993 -2.88579 -3.1608 0
M  V30 9738 C 922.319 -2.79457 -4.5586 0
M  V30 9739 C 923.619 -4.29638 -2.97 0
M  V30 9740 H 925.313 -2.61029 -1.46643 0
M  V30 9741 H 922.859 -1.25615 -0.704042 0
M  V30 9742 H 924.812 -1.85548 -3.78352 0
M  V30 9743 H 923.536 -0.772996 -3.17321 0
M  V30 9744 H 922.195 -2.76372 -2.40861 0
M  V30 9745 H 921.843 -1.80929 -4.69333 0
M  V30 9746 H 921.543 -3.56518 -4.67086 0
M  V30 9747 H 923.067 -2.93245 -5.35574 0
M  V30 9748 H 924.481 -4.42575 -3.64418 0
M  V30 9749 H 922.878 -5.07847 -3.19704 0
M  V30 9750 H 923.948 -4.44741 -1.93219 0
M  V30 9751 N 925.291 0.760815 -1.38019 0
M  V30 9752 C 926.238 1.8744 -1.34666 0
M  V30 9753 C 927.208 1.64762 -0.210386 0
M  V30 9754 O 928.393 1.86528 -0.401479 0
M  V30 9755 C 925.533 3.24648 -1.17037 0
M  V30 9756 C 924.646 3.59206 -2.3999 0
M  V30 9757 C 923.781 4.8568 -2.15148 0
M  V30 9758 C 922.82 5.13002 -3.3391 0
M  V30 9759 N 921.957 6.30668 -3.08549 0
M  V30 9760 H 926.797 1.8964 -2.29871 0
M  V30 9761 H 924.334 0.927004 -1.14215 0
M  V30 9762 H 926.292 4.03814 -1.04834 0
M  V30 9763 H 924.922 3.21793 -0.254758 0
M  V30 9764 H 923.974 2.74939 -2.62893 0
M  V30 9765 H 925.286 3.75328 -3.28527 0
M  V30 9766 H 924.44 5.72773 -2.00039 0
M  V30 9767 H 923.179 4.71682 -1.23965 0
M  V30 9768 H 922.184 4.2438 -3.49545 0
M  V30 9769 H 923.409 5.28901 -4.25958 0
M  V30 9770 H 921.355 6.18008 -2.20006 0
M  V30 9771 H 921.272 6.47257 -3.90633 0
M  V30 9772 H 922.54 7.20669 -2.9708 0
M  V30 9773 N 926.769 1.22769 0.988202 0
M  V30 9774 C 927.699 1.02627 2.09738 0
M  V30 9775 C 928.68 -0.0543211 1.70013 0
M  V30 9776 O 929.865 0.108811 1.93895 0
M  V30 9777 C 926.995 0.608302 3.41931 0
M  V30 9778 C 925.949 1.63536 3.95525 0
M  V30 9779 C 925.275 1.07308 5.23822 0
M  V30 9780 C 926.575 3.02649 4.25677 0
M  V30 9781 H 928.269 1.954 2.26847 0
M  V30 9782 H 925.815 0.940888 1.09011 0
M  V30 9783 H 927.768 0.454478 4.18942 0
M  V30 9784 H 926.492 -0.355095 3.24664 0
M  V30 9785 H 925.151 1.77704 3.20651 0
M  V30 9786 H 924.799 0.100894 5.02899 0
M  V30 9787 H 924.499 1.75925 5.60646 0
M  V30 9788 H 926.023 0.930938 6.03462 0
M  V30 9789 H 927.437 2.91828 4.93467 0
M  V30 9790 H 925.834 3.68434 4.73684 0
M  V30 9791 H 926.904 3.52228 3.33262 0
M  V30 9792 N 928.247 -1.18576 1.03814 0
M  V30 9793 C 929.177 -2.24334 0.647795 0
M  V30 9794 C 930.158 -1.66508 -0.34774 0
M  V30 9795 O 931.343 -1.92852 -0.228401 0
M  V30 9796 C 928.473 -3.47299 0.00734922 0
M  V30 9797 C 927.427 -4.17859 0.926152 0
M  V30 9798 C 926.753 -5.34489 0.150317 0
M  V30 9799 C 928.053 -4.71632 2.24411 0
M  V30 9800 H 929.747 -2.57241 1.53191 0
M  V30 9801 H 927.293 -1.23649 0.738028 0
M  V30 9802 H 929.246 -4.20486 -0.277434 0
M  V30 9803 H 927.97 -3.13619 -0.911626 0
M  V30 9804 H 926.629 -3.46567 1.19528 0
M  V30 9805 H 926.277 -4.97056 -0.770985 0
M  V30 9806 H 925.977 -5.82633 0.762407 0
M  V30 9807 H 927.501 -6.10467 -0.127508 0
M  V30 9808 H 928.915 -5.36526 2.02021 0
M  V30 9809 H 927.312 -5.303 2.80894 0
M  V30 9810 H 928.382 -3.89192 2.89236 0
M  V30 9811 N 929.725 -0.817259 -1.34754 0
M  V30 9812 C 930.658 -0.180483 -2.27485 0
M  V30 9813 C 931.636 0.659792 -1.48612 0
M  V30 9814 O 932.82 0.624761 -1.77845 0
M  V30 9815 C 929.947 0.748487 -3.30326 0
M  V30 9816 C 928.993 -0.0135304 -4.26498 0
M  V30 9817 S 929.826 -1.35685 -5.18025 0
M  V30 9818 C 930.982 -0.432605 -6.24403 0
M  V30 9819 H 931.215 -0.966677 -2.81145 0
M  V30 9820 H 928.748 -0.612864 -1.41716 0
M  V30 9821 H 930.706 1.27893 -3.90069 0
M  V30 9822 H 929.367 1.50816 -2.75524 0
M  V30 9823 H 928.56 0.692454 -4.9922 0
M  V30 9824 H 928.162 -0.474344 -3.7098 0
M  V30 9825 H 930.454 0.378035 -6.76444 0
M  V30 9826 H 931.397 -1.12934 -6.99036 0
M  V30 9827 H 931.805 -0.0235533 -5.64495 0
M  V30 9828 N 931.203 1.46865 -0.571711 0
M  V30 9829 C 932.452 2.01636 -0.050881 0
M  V30 9830 C 932.765 1.45001 1.31279 0
M  V30 9831 O 933.971 1.91523 1.92435 0
M  V30 9832 C 932.427 3.59877 -0.0404114 0
M  V30 9833 C 932.035 4.25506 -1.40172 0
M  V30 9834 C 933.779 4.22346 0.42705 0
M  V30 9835 C 931.686 5.75795 -1.34958 0
M  V30 9836 H 930.616 0.753846 -0.0152514 0
M  V30 9837 H 933.267 1.68711 -0.721723 0
M  V30 9838 H 931.649 3.89829 0.696374 0
M  V30 9839 H 932.823 4.07178 -2.15737 0
M  V30 9840 H 931.138 3.75086 -1.8083 0
M  V30 9841 H 933.735 5.32499 0.484688 0
M  V30 9842 H 934.078 3.9052 1.44222 0
M  V30 9843 H 934.611 3.9698 -0.255326 0
M  V30 9844 H 931.35 6.12265 -2.3412 0
M  V30 9845 H 930.87 5.96419 -0.635962 0
M  V30 9846 H 932.549 6.38294 -1.05779 0
M  V30 9847 N 932.681 0.308908 1.54543 0
M  V30 9848 C 933.644 -0.550857 2.22482 0
M  V30 9849 C 934.644 -1.0551 1.21344 0
M  V30 9850 O 935.834 -0.949866 1.46025 0
M  V30 9851 C 932.966 -1.76354 2.9174 0
M  V30 9852 H 934.159 0.0428395 2.99869 0
M  V30 9853 H 931.712 0.059825 1.56185 0
M  V30 9854 H 932.447 -2.39686 2.18451 0
M  V30 9855 H 932.232 -1.40954 3.65889 0
M  V30 9856 H 933.722 -2.37417 3.43545 0
M  V30 9857 N 934.159 -1.57557 0.0367827 0
M  V30 9858 C 935.408 -1.91291 -0.639569 0
M  V30 9859 C 935.721 -0.915601 -1.72847 0
M  V30 9860 O 936.927 -1.14447 -2.46199 0
M  V30 9861 C 935.383 -3.39697 -1.18888 0
M  V30 9862 C 934.991 -4.47803 -0.132851 0
M  V30 9863 C 936.735 -3.82487 -1.8413 0
M  V30 9864 C 934.642 -5.87311 -0.694229 0
M  V30 9865 H 933.572 -0.713886 -0.242658 0
M  V30 9866 H 936.223 -1.83209 0.103332 0
M  V30 9867 H 934.605 -3.42736 -1.98363 0
M  V30 9868 H 935.779 -4.56334 0.640009 0
M  V30 9869 H 934.094 -4.14264 0.421264 0
M  V30 9870 H 936.691 -4.84076 -2.27101 0
M  V30 9871 H 937.034 -3.17959 -2.68716 0
M  V30 9872 H 937.567 -3.81903 -1.11332 0
M  V30 9873 H 934.306 -6.55401 0.113667 0
M  V30 9874 H 933.826 -5.82371 -1.4354 0
M  V30 9875 H 935.505 -6.36119 -1.1816 0
M  V30 9876 N 935.637 0.236453 -1.55816 0
M  V30 9877 C 936.547 1.31418 -1.94336 0
M  V30 9878 C 937.563 1.52095 -0.845164 0
M  V30 9879 O 938.739 1.65515 -1.14746 0
M  V30 9880 C 935.804 2.6468 -2.23932 0
M  V30 9881 C 934.865 2.52435 -3.47239 0
M  V30 9882 C 934.098 3.79342 -3.75414 0
M  V30 9883 O 934.321 4.81694 -3.05495 0
M  V30 9884 O 933.255 3.77347 -4.68927 0
M  V30 9885 H 937.081 1.01739 -2.86152 0
M  V30 9886 H 934.666 0.438084 -1.42833 0
M  V30 9887 H 936.548 3.4341 -2.44228 0
M  V30 9888 H 935.223 2.94071 -1.35292 0
M  V30 9889 H 934.13 1.71955 -3.32238 0
M  V30 9890 H 935.463 2.27987 -4.36214 0
M  V30 9891 N 937.115 1.49373 0.502552 0
M  V30 9892 C 938.345 1.62252 1.27898 0
M  V30 9893 C 938.753 0.292555 1.86924 0
M  V30 9894 O 938.096 -0.731823 1.68493 0
M  V30 9895 C 938.158 2.63153 2.4493 0
M  V30 9896 C 937.822 4.07541 2.06784 0
M  V30 9897 C 938.819 4.94392 1.60849 0
M  V30 9898 C 936.504 4.53263 2.16466 0
M  V30 9899 C 938.498 6.25003 1.25098 0
M  V30 9900 C 936.185 5.83888 1.80327 0
M  V30 9901 C 937.183 6.69582 1.34718 0
M  V30 9902 O 936.871 7.97773 0.990661 0
M  V30 9903 H 936.603 0.54918 0.394179 0
M  V30 9904 H 939.157 1.96132 0.610031 0
M  V30 9905 H 937.387 2.2445 3.14895 0
M  V30 9906 H 939.076 2.65578 3.06957 0
M  V30 9907 H 939.842 4.60296 1.52816 0
M  V30 9908 H 935.721 3.86731 2.50919 0
M  V30 9909 H 939.265 6.91844 0.894269 0
M  V30 9910 H 935.162 6.17513 1.8801 0
M  V30 9911 H 935.93 8.1077 1.12227 0
M  V30 9912 N 938.594 -0.753485 1.38421 0
M  V30 9913 C 939.541 -1.86723 1.35659 0
M  V30 9914 C 940.511 -1.64648 0.219121 0
M  V30 9915 O 941.696 -1.86313 0.411366 0
M  V30 9916 C 938.836 -3.24023 1.18758 0
M  V30 9917 C 937.949 -3.57928 2.41892 0
M  V30 9918 C 937.084 -4.84532 2.17721 0
M  V30 9919 C 936.123 -5.11224 3.36626 0
M  V30 9920 N 935.26 -6.29023 3.11889 0
M  V30 9921 H 940.1 -1.88419 2.30873 0
M  V30 9922 H 937.637 -0.920934 1.14705 0
M  V30 9923 H 939.595 -4.03252 1.06974 0
M  V30 9924 H 938.225 -3.21654 0.27182 0
M  V30 9925 H 937.277 -2.73541 2.64347 0
M  V30 9926 H 938.589 -3.73581 3.30513 0
M  V30 9927 H 937.743 -5.71704 2.03074 0
M  V30 9928 H 936.482 -4.71018 1.26465 0
M  V30 9929 H 935.487 -4.2252 3.51791 0
M  V30 9930 H 936.712 -5.26635 4.28757 0
M  V30 9931 H 934.658 -6.16832 2.2328 0
M  V30 9932 H 934.575 -6.45177 3.9406 0
M  V30 9933 H 935.843 -7.19083 3.00898 0
M  V30 9934 N 940.072 -1.23292 -0.981677 0
M  V30 9935 C 941.297 -1.09176 -1.76339 0
M  V30 9936 C 941.722 0.352726 -1.84763 0
M  V30 9937 O 941.08 1.25509 -1.30832 0
M  V30 9938 C 941.128 -1.72046 -3.16911 0
M  V30 9939 O 940.232 -0.98174 -4.00544 0
M  V30 9940 H 939.573 -0.382755 -0.542581 0
M  V30 9941 H 942.103 -1.63319 -1.23239 0
M  V30 9942 H 942.113 -1.77232 -3.67495 0
M  V30 9943 H 940.788 -2.77154 -3.10095 0
M  V30 9944 H 939.365 -1.00672 -3.59054 0
M  V30 9945 N 941.55 1.18024 -1.04442 0
M  V30 9946 C 942.513 2.19992 -0.643136 0
M  V30 9947 C 943.513 1.57949 0.301444 0
M  V30 9948 O 944.703 1.73986 0.0863341 0
M  V30 9949 C 941.835 3.40853 0.0565208 0
M  V30 9950 H 943.028 2.57008 -1.54554 0
M  V30 9951 H 940.581 1.31974 -0.837408 0
M  V30 9952 H 941.316 3.09373 0.972553 0
M  V30 9953 H 941.101 3.87128 -0.622439 0
M  V30 9954 H 942.591 4.16344 0.323652 0
M  V30 9955 N 943.028 0.824394 1.34319 0
M  V30 9956 C 943.976 0.235628 2.31403 0
M  V30 9957 C 944.97 -0.624443 1.57471 0
M  V30 9958 O 946.176 -0.515618 1.72457 0
M  V30 9959 H 942.551 0.0574537 0.749802 0
M  V30 9960 H 944.522 1.06925 2.78585 0
M  V30 9961 C 943.271 -0.586617 3.42716 0
M  V30 9962 H 942.594 0.0658669 3.99746 0
M  V30 9963 H 944.034 -0.964661 4.1288 0
M  V30 9964 C 942.493 -1.75957 2.87299 0
M  V30 9965 O 943.023 -2.8578 2.82299 0
M  V30 9966 N 941.229 -1.57678 2.44102 0
M  V30 9967 H 940.776 -0.683436 2.48369 0
M  V30 9968 H 940.734 -2.36311 2.07375 0
M  V30 9969 N 944.506 -1.46559 0.579492 0
M  V30 9970 C 945.922 -1.57771 0.240921 0
M  V30 9971 C 946.122 -1.57505 -1.25676 0
M  V30 9972 O 945.178 -1.4903 -2.03829 0
M  V30 9973 C 946.491 -2.87311 0.887285 0
M  V30 9974 C 948.039 -3.00937 0.860576 0
M  V30 9975 C 948.514 -4.33208 1.48642 0
M  V30 9976 N 950.005 -4.39899 1.45062 0
M  V30 9977 C 950.74 -5.40856 1.90428 0
M  V30 9978 N 950.236 -6.48503 2.43752 0
M  V30 9979 N 952.029 -5.32037 1.81364 0
M  V30 9980 H 944.18 -1.44976 1.55228 0
M  V30 9981 H 946.443 -0.691354 0.648639 0
M  V30 9982 H 946.149 -2.93307 1.94071 0
M  V30 9983 H 946.023 -3.75141 0.393577 0
M  V30 9984 H 948.41 -2.94524 -0.184223 0
M  V30 9985 H 948.491 -2.14591 1.39227 0
M  V30 9986 H 948.135 -4.40378 2.5304 0
M  V30 9987 H 948.065 -5.18323 0.92998 0
M  V30 9988 H 950.556 -3.62706 1.0608 0
M  V30 9989 H 950.869 -7.21744 2.76234 0
M  V30 9990 H 949.214 -6.49332 2.47776 0
M  V30 9991 H 952.405 -4.46841 1.39465 0
M  V30 9992 H 952.578 -6.10573 2.17035 0
M  V30 9993 N 945.984 -0.3171 -1.54377 0
M  V30 9994 C 946.894 0.560867 -2.27797 0
M  V30 9995 C 947.91 1.13473 -1.31908 0
M  V30 9996 O 949.086 1.15608 -1.64914 0
M  V30 9997 C 946.151 1.70886 -3.0166 0
M  V30 9998 C 945.212 1.16745 -4.13121 0
M  V30 9999 C 944.445 2.26073 -4.83453 0
M  V30 10000 O 944.668 3.46292 -4.53252 0
M  V30 10001 O 943.602 1.91856 -5.70504 0
M  V30 10002 H 947.428 -0.035193 -3.0368 0
M  V30 10003 H 945.013 -0.0830062 -1.49169 0
M  V30 10004 H 946.895 2.37736 -3.47936 0
M  V30 10005 H 945.57 2.29122 -2.28658 0
M  V30 10006 H 944.477 0.464224 -3.71209 0
M  V30 10007 H 945.81 0.630307 -4.88147 0
M  V30 10008 N 947.462 1.57535 -0.0451378 0
M  V30 10009 C 948.687 1.97172 0.64326 0
M  V30 10010 C 949.112 0.922266 1.63939 0
M  V30 10011 O 948.47 -0.115155 1.80934 0
M  V30 10012 C 948.518 3.35889 1.3119 0
M  V30 10013 O 947.622 3.33387 2.42748 0
M  V30 10014 H 946.963 0.642469 0.167719 0
M  V30 10015 H 949.493 2.04295 -0.111747 0
M  V30 10016 H 949.503 3.72481 1.66499 0
M  V30 10017 H 948.178 4.1181 0.581823 0
M  V30 10018 H 946.755 3.08533 2.09432 0
M  V30 10019 N 948.94 -0.228186 1.55939 0
M  V30 10020 C 950.356 -0.577583 1.48782 0
M  V30 10021 C 950.556 -1.87461 0.738972 0
M  V30 10022 O 949.612 -2.50988 0.275929 0
M  V30 10023 C 950.925 -0.662961 2.93301 0
M  V30 10024 C 952.473 -0.754035 3.03782 0
M  V30 10025 C 952.948 -0.870815 4.49645 0
M  V30 10026 N 954.439 -0.935208 4.53661 0
M  V30 10027 C 955.174 -1.04516 5.63794 0
M  V30 10028 N 954.67 -1.11948 6.83696 0
M  V30 10029 N 956.463 -1.07978 5.51631 0
M  V30 10030 H 948.614 0.623018 2.03057 0
M  V30 10031 H 950.877 0.217692 0.922667 0
M  V30 10032 H 950.583 0.220375 3.51009 0
M  V30 10033 H 950.457 -1.52876 3.44831 0
M  V30 10034 H 952.844 -1.62782 2.46143 0
M  V30 10035 H 952.925 0.137301 2.55431 0
M  V30 10036 H 952.569 -0.0015186 5.079 0
M  V30 10037 H 952.499 -1.77747 4.95695 0
M  V30 10038 H 954.99 -0.88836 3.6731 0
M  V30 10039 H 955.303 -1.20297 7.6338 0
M  V30 10040 H 953.648 -1.08873 6.8642 0
M  V30 10041 H 956.839 -1.01833 4.56889 0
M  V30 10042 H 957.012 -1.16202 6.37496 0
M  V30 10043 N 950.418 -1.49637 -0.494624 0
M  V30 10044 C 951.667 -1.58691 -1.24499 0
M  V30 10045 C 951.98 -0.281763 -1.9356 0
M  V30 10046 O 953.186 -0.250925 -2.70338 0
M  V30 10047 C 951.642 -2.8002 -2.26091 0
M  V30 10048 C 951.25 -4.17318 -1.6294 0
M  V30 10049 C 952.994 -2.98407 -3.01916 0
M  V30 10050 C 950.901 -5.29862 -2.62679 0
M  V30 10051 H 949.831 -0.590888 -0.468367 0
M  V30 10052 H 952.482 -1.76034 -0.518112 0
M  V30 10053 H 950.864 -2.56185 -3.01969 0
M  V30 10054 H 952.038 -4.51315 -0.930108 0
M  V30 10055 H 950.353 -4.04342 -0.994819 0
M  V30 10056 H 952.95 -3.79658 -3.76516 0
M  V30 10057 H 953.293 -2.09214 -3.5991 0
M  V30 10058 H 953.826 -3.22312 -2.33152 0
M  V30 10059 H 950.565 -6.21134 -2.09458 0
M  V30 10060 H 950.085 -5.00311 -3.3083 0
M  V30 10061 H 951.764 -5.59461 -3.2498 0
M  V30 10062 N 951.896 0.746133 -1.38819 0
M  V30 10063 C 952.826 1.87344 -1.39372 0
M  V30 10064 C 953.807 1.68123 -0.258583 0
M  V30 10065 O 954.992 1.88606 -0.462769 0
M  V30 10066 C 952.122 3.24962 -1.22543 0
M  V30 10067 C 951.076 3.58799 -2.33339 0
M  V30 10068 C 950.402 4.95235 -2.01609 0
M  V30 10069 C 951.702 3.62911 -3.75624 0
M  V30 10070 H 953.396 1.87138 -2.33709 0
M  V30 10071 H 950.942 0.898937 -1.12495 0
M  V30 10072 H 952.895 4.03488 -1.21554 0
M  V30 10073 H 951.619 3.25667 -0.246707 0
M  V30 10074 H 950.278 2.82596 -2.33527 0
M  V30 10075 H 949.926 4.92508 -1.02202 0
M  V30 10076 H 949.626 5.18843 -2.75819 0
M  V30 10077 H 951.15 5.76131 -2.02251 0
M  V30 10078 H 952.564 4.31535 -3.77426 0
M  V30 10079 H 950.961 3.98031 -4.491 0
M  V30 10080 H 952.031 2.62967 -4.07402 0
M  V30 10081 N 953.375 1.23811 0.975125 0
M  V30 10082 C 954.624 1.06741 1.71141 0
M  V30 10083 C 954.937 -0.394986 1.9157 0
M  V30 10084 O 956.143 -0.685723 2.62698 0
M  V30 10085 C 954.599 1.86168 3.08009 0
M  V30 10086 C 954.207 3.36771 2.95448 0
M  V30 10087 C 955.951 1.77604 3.85561 0
M  V30 10088 C 953.858 4.0857 4.2758 0
M  V30 10089 H 952.788 0.395819 0.64175 0
M  V30 10090 H 955.439 1.47825 1.0872 0
M  V30 10091 H 953.821 1.37893 3.71216 0
M  V30 10092 H 954.995 3.92571 2.41298 0
M  V30 10093 H 953.31 3.46205 2.31368 0
M  V30 10094 H 955.907 2.28556 4.83391 0
M  V30 10095 H 956.25 0.739837 4.09673 0
M  V30 10096 H 956.783 2.23519 3.29065 0
M  V30 10097 H 953.522 5.12518 4.08663 0
M  V30 10098 H 953.042 3.57556 4.81574 0
M  V30 10099 H 954.721 4.15157 4.9624 0
M  V30 10100 N 954.853 -1.17469 1.05066 0
M  V30 10101 C 955.801 -2.23495 0.644418 0
M  V30 10102 C 956.795 -1.66081 -0.333685 0
M  V30 10103 O 958.001 -1.78887 -0.199886 0
M  V30 10104 H 954.376 -0.727546 0.190214 0
M  V30 10105 H 956.347 -2.55058 1.5488 0
M  V30 10106 C 955.096 -3.47684 0.0338051 0
M  V30 10107 H 954.419 -3.92167 0.777513 0
M  V30 10108 H 955.859 -4.23464 -0.213086 0
M  V30 10109 C 954.318 -3.14067 -1.21915 0
M  V30 10110 O 954.848 -3.28728 -2.3087 0
M  V30 10111 N 953.054 -2.68304 -1.11631 0
M  V30 10112 H 952.601 -2.56574 -0.229673 0
M  V30 10113 H 952.559 -2.46184 -1.95553 0
M  V30 10114 N 956.331 -0.831506 -1.3388 0
M  V30 10115 C 957.742 -0.481375 -1.80388 0
M  V30 10116 C 958.093 0.998993 -1.68863 0
M  V30 10117 O 957.218 1.77795 -1.2336 0
M  V30 10118 C 957.813 -0.86699 -3.27519 0
M  V30 10119 C 956.372 -0.569105 -3.72073 0
M  V30 10120 C 955.519 -1.07929 -2.55434 0
M  V30 10121 H 958.47 -1.02089 -1.21505 0
M  V30 10122 H 958.491 -0.174128 -3.80101 0
M  V30 10123 H 958.003 -1.94447 -3.35875 0
M  V30 10124 H 956.104 0.498607 -3.69249 0
M  V30 10125 H 956.217 -1.11918 -4.65845 0
M  V30 10126 H 954.581 -0.500465 -2.49735 0
M  V30 10127 H 955.364 -2.16339 -2.66556 0
M  V30 10128 N 957.809 1.4625 -0.587256 0
M  V30 10129 C 959.057 2.01963 -0.0744273 0
M  V30 10130 C 959.378 1.46065 1.29189 0
M  V30 10131 O 958.648 0.647077 1.84905 0
M  V30 10132 H 957.228 0.746597 -0.0245236 0
M  V30 10133 H 959.89 1.79299 -0.764063 0
M  V30 10134 H 958.986 3.12099 -0.00884894 0
M  V30 10135 N 959.287 0.325282 1.54207 0
M  V30 10136 C 960.235 -0.5554 2.25872 0
M  V30 10137 C 961.229 -1.11714 1.27344 0
M  V30 10138 O 962.435 -1.06498 1.45115 0
M  V30 10139 H 958.81 -0.19776 0.725531 0
M  V30 10140 H 960.781 0.0712858 2.98315 0
M  V30 10141 C 959.53 -1.70379 3.03095 0
M  V30 10142 H 958.853 -1.2808 3.78729 0
M  V30 10143 H 960.293 -2.29556 3.56483 0
M  V30 10144 C 958.752 -2.62242 2.11496 0
M  V30 10145 O 959.282 -3.64003 1.69895 0
M  V30 10146 N 957.488 -2.30515 1.7695 0
M  V30 10147 H 957.035 -1.47805 2.10978 0
M  V30 10148 H 956.993 -2.92241 1.15942 0
M  V30 10149 N 960.765 -1.57509 0.0534917 0
M  V30 10150 C 961.715 -2.08179 -0.929802 0
M  V30 10151 C 962.699 -0.987451 -1.27036 0
M  V30 10152 O 963.891 -1.25076 -1.2524 0
M  V30 10153 C 961.02 -2.63221 -2.20385 0
M  V30 10154 C 960.106 -3.79629 -1.89058 0
M  V30 10155 N 960.497 -4.8931 -1.28101 0
M  V30 10156 C 958.795 -3.88578 -2.18914 0
M  V30 10157 C 959.496 -5.70329 -1.14455 0
M  V30 10158 N 958.472 -5.18011 -1.64821 0
M  V30 10159 H 962.274 -2.90374 -0.453874 0
M  V30 10160 H 959.788 -1.61697 -0.150899 0
M  V30 10161 H 961.785 -2.97827 -2.91727 0
M  V30 10162 H 960.445 -1.82466 -2.68582 0
M  V30 10163 H 961.456 -5.09058 -0.952924 0
M  V30 10164 H 958.133 -3.18769 -2.69616 0
M  V30 10165 H 959.523 -6.6854 -0.671129 0
M  V30 10166 N 962.243 0.219913 -1.56058 0
M  V30 10167 C 963.173 1.27572 -1.9557 0
M  V30 10168 C 964.154 1.48801 -0.824148 0
M  V30 10169 O 965.339 1.60957 -1.08658 0
M  V30 10170 C 962.469 2.62517 -2.27381 0
M  V30 10171 C 961.423 2.55941 -3.43042 0
M  V30 10172 C 960.749 3.94931 -3.60463 0
M  V30 10173 C 962.049 2.10584 -4.77966 0
M  V30 10174 H 963.743 0.947482 -2.84013 0
M  V30 10175 H 961.289 0.454337 -1.36645 0
M  V30 10176 H 963.242 3.36538 -2.53615 0
M  V30 10177 H 961.966 2.97031 -1.35794 0
M  V30 10178 H 960.625 1.84377 -3.1686 0
M  V30 10179 H 960.273 4.26756 -2.66249 0
M  V30 10180 H 959.973 3.91413 -4.38258 0
M  V30 10181 H 961.497 4.70611 -3.89046 0
M  V30 10182 H 962.911 2.74349 -5.03394 0
M  V30 10183 H 961.308 2.18122 -5.59055 0
M  V30 10184 H 962.378 1.05818 -4.73213 0
M  V30 10185 N 963.721 1.49897 0.486681 0
M  V30 10186 C 964.668 1.67619 1.58658 0
M  V30 10187 C 965.638 0.517537 1.57831 0
M  V30 10188 O 966.823 0.746272 1.756 0
M  V30 10189 C 963.963 1.762 2.96728 0
M  V30 10190 C 963.076 3.03465 3.07462 0
M  V30 10191 C 962.211 3.02937 4.36351 0
M  V30 10192 C 961.25 4.24721 4.4077 0
M  V30 10193 N 960.387 4.22021 5.61108 0
M  V30 10194 H 965.227 2.61528 1.42853 0
M  V30 10195 H 962.764 1.29657 0.694807 0
M  V30 10196 H 964.722 1.79156 3.76774 0
M  V30 10197 H 963.352 0.857452 3.11203 0
M  V30 10198 H 962.404 3.10054 2.20387 0
M  V30 10199 H 963.716 3.93454 3.06586 0
M  V30 10200 H 962.87 3.04536 5.24731 0
M  V30 10201 H 961.609 2.10751 4.39813 0
M  V30 10202 H 960.614 4.23352 3.5079 0
M  V30 10203 H 961.839 5.18116 4.39013 0
M  V30 10204 H 959.785 3.3268 5.65385 0
M  V30 10205 H 959.702 5.05761 5.61909 0
M  V30 10206 H 960.97 4.27743 6.51656 0
M  V30 10207 N 965.199 -0.738761 1.39212 0
M  V30 10208 C 966.448 -1.49368 1.35543 0
M  V30 10209 C 966.761 -1.95543 -0.0471091 0
M  V30 10210 O 967.967 -2.70714 -0.206376 0
M  V30 10211 C 966.423 -2.69882 2.381 0
M  V30 10212 C 966.031 -2.30672 3.8405 0
M  V30 10213 C 967.775 -3.47718 2.435 0
M  V30 10214 C 965.682 -3.47886 4.78256 0
M  V30 10215 H 964.612 -0.560898 0.503894 0
M  V30 10216 H 967.263 -0.806221 1.6484 0
M  V30 10217 H 965.645 -3.40684 2.01867 0
M  V30 10218 H 966.819 -1.67441 4.29302 0
M  V30 10219 H 965.134 -1.65936 3.81909 0
M  V30 10220 H 967.731 -4.34897 3.11077 0
M  V30 10221 H 968.074 -3.89919 1.45838 0
M  V30 10222 H 968.607 -2.83942 2.78606 0
M  V30 10223 H 965.346 -3.10739 5.77167 0
M  V30 10224 H 964.866 -4.10111 4.37686 0
M  V30 10225 H 966.545 -4.14271 4.96979 0
M  V30 10226 N 966.677 -1.24326 -0.968545 0
M  V30 10227 C 967.609 -0.992749 -2.06584 0
M  V30 10228 C 968.622 0.0374902 -1.62757 0
M  V30 10229 O 969.811 -0.199448 -1.77382 0
M  V30 10230 C 966.911 -0.476165 -3.35538 0
M  V30 10231 C 966.084 -1.56934 -4.08277 0
M  V30 10232 C 965.143 -1.05555 -5.15504 0
M  V30 10233 O 964.169 -1.74707 -5.41725 0
M  V30 10234 N 965.371 0.110465 -5.80395 0
M  V30 10235 H 968.136 -1.93752 -2.28649 0
M  V30 10236 H 965.697 -1.15344 -1.13611 0
M  V30 10237 H 967.689 -0.117223 -4.0453 0
M  V30 10238 H 966.259 0.374315 -3.10351 0
M  V30 10239 H 965.479 -2.10051 -3.33575 0
M  V30 10240 H 966.767 -2.30415 -4.53637 0
M  V30 10241 H 966.165 0.688614 -5.61493 0
M  V30 10242 H 964.722 0.41056 -6.50506 0
M  V30 10243 N 968.156 1.1691 -1.05688 0
M  V30 10244 C 969.066 2.24735 -0.67315 0
M  V30 10245 C 970.082 1.71252 0.308043 0
M  V30 10246 O 971.258 2.00772 0.158889 0
M  V30 10247 C 968.323 3.4665 -0.059026 0
M  V30 10248 C 967.384 4.15198 -1.0913 0
M  V30 10249 C 966.617 5.31292 -0.50639 0
M  V30 10250 O 966.84 5.663 0.682692 0
M  V30 10251 O 965.774 5.88923 -1.2431 0
M  V30 10252 H 969.6 2.59855 -1.57191 0
M  V30 10253 H 967.185 1.24306 -0.828751 0
M  V30 10254 H 969.067 4.20455 0.282018 0
M  V30 10255 H 967.742 3.13316 0.813304 0
M  V30 10256 H 966.649 3.43389 -1.48442 0
M  V30 10257 H 967.982 4.52571 -1.93495 0
M  V30 10258 N 969.634 0.838594 1.33437 0
M  V30 10259 C 970.882 0.433312 1.974 0
M  V30 10260 C 971.203 -1.01078 1.66758 0
M  V30 10261 O 970.473 -1.70406 0.966373 0
M  V30 10262 H 969.053 0.15724 0.730263 0
M  V30 10263 H 971.715 1.07149 1.62804 0
M  V30 10264 H 970.811 0.565144 3.06941 0
M  V30 10265 N 971.112 -1.45937 0.595003 0
M  V30 10266 C 972.34 -2.06698 0.091293 0
M  V30 10267 C 972.755 -1.44176 -1.21897 0
M  V30 10268 O 972.112 -0.551402 -1.73971 0
M  V30 10269 C 972.163 -3.61436 -0.0681801 0
M  V30 10270 O 971.884 -4.21622 1.19023 0
M  V30 10271 C 973.385 -4.39155 -0.604814 0
M  V30 10272 H 970.605 -0.668029 0.0630737 0
M  V30 10273 H 973.149 -1.87376 0.819165 0
M  V30 10274 H 971.304 -3.80143 -0.746324 0
M  V30 10275 H 971.718 -5.14647 1.01187 0
M  V30 10276 H 973.192 -5.47973 -0.665532 0
M  V30 10277 H 973.669 -4.08055 -1.62444 0
M  V30 10278 H 974.275 -4.25282 0.0388658 0
M  V30 10279 N 972.59 -0.333456 -1.54032 0
M  V30 10280 C 973.52 0.52051 -2.27625 0
M  V30 10281 C 974.501 1.1111 -1.28797 0
M  V30 10282 O 975.686 1.13438 -1.57625 0
M  V30 10283 C 972.816 1.67663 -3.04149 0
M  V30 10284 C 971.77 1.21487 -4.10396 0
M  V30 10285 C 971.096 2.45872 -4.74817 0
M  V30 10286 C 972.396 0.322603 -5.21303 0
M  V30 10287 H 974.09 -0.0933823 -2.99254 0
M  V30 10288 H 971.636 -0.0463526 -1.43925 0
M  V30 10289 H 973.589 2.28041 -3.54366 0
M  V30 10290 H 972.313 2.31727 -2.30153 0
M  V30 10291 H 970.972 0.633966 -3.61077 0
M  V30 10292 H 970.62 3.0832 -3.97426 0
M  V30 10293 H 970.32 2.15662 -5.46593 0
M  V30 10294 H 971.844 3.06994 -5.27814 0
M  V30 10295 H 973.258 0.832942 -5.67217 0
M  V30 10296 H 971.655 0.112843 -5.99994 0
M  V30 10297 H 972.725 -0.643954 -4.80605 0
M  V30 10298 N 974.068 1.57479 -0.061844 0
M  V30 10299 C 975.316 1.92727 0.608336 0
M  V30 10300 C 975.637 0.941799 1.70749 0
M  V30 10301 O 974.907 -0.0116608 1.95897 0
M  V30 10302 H 973.487 0.71145 0.2277 0
M  V30 10303 H 976.149 1.94546 -0.117359 0
M  V30 10304 H 975.245 2.9426 1.04007 0
M  V30 10305 N 975.546 -0.211634 1.56173 0
M  V30 10306 C 976.793 -0.93455 1.79645 0
M  V30 10307 C 977.121 -1.83936 0.632294 0
M  V30 10308 O 976.376 -1.91919 -0.382841 0
M  V30 10309 C 976.675 -1.79657 3.08963 0
M  V30 10310 C 976.341 -1.04415 4.38644 0
M  V30 10311 C 975.003 -0.836351 4.73876 0
M  V30 10312 C 977.355 -0.51355 5.18664 0
M  V30 10313 C 974.683 -0.0861976 5.86637 0
M  V30 10314 C 977.035 0.223309 6.32206 0
M  V30 10315 C 975.699 0.442279 6.66033 0
M  V30 10316 H 974.969 -0.341976 0.657368 0
M  V30 10317 H 977.616 -0.202024 1.90431 0
M  V30 10318 H 975.921 -2.59726 2.93342 0
M  V30 10319 H 977.618 -2.35823 3.24328 0
M  V30 10320 H 974.208 -1.21611 4.10985 0
M  V30 10321 H 978.392 -0.661541 4.91871 0
M  V30 10322 H 973.648 0.0935866 6.11328 0
M  V30 10323 H 977.822 0.641917 6.93435 0
M  V30 10324 H 975.449 1.02547 7.53252 0
M  V30 10325 N 977.024 -1.50153 -0.478725 0
M  V30 10326 C 978.271 -1.6076 -1.23136 0
M  V30 10327 C 978.599 -0.30442 -1.92103 0
M  V30 10328 O 977.854 0.709213 -1.82397 0
M  V30 10329 C 978.153 -2.73208 -2.30417 0
M  V30 10330 C 977.819 -4.13953 -1.78755 0
M  V30 10331 C 976.481 -4.52251 -1.64386 0
M  V30 10332 C 978.833 -5.01949 -1.40344 0
M  V30 10333 C 976.161 -5.76292 -1.10018 0
M  V30 10334 C 978.513 -6.2653 -0.874206 0
M  V30 10335 C 977.177 -6.63637 -0.717085 0
M  V30 10336 H 976.447 -0.588264 -0.450585 0
M  V30 10337 H 979.094 -1.84061 -0.528551 0
M  V30 10338 H 977.399 -2.43965 -3.06575 0
M  V30 10339 H 979.096 -2.7862 -2.88395 0
M  V30 10340 H 975.686 -3.83736 -1.90904 0
M  V30 10341 H 979.87 -4.73 -1.50283 0
M  V30 10342 H 975.126 -6.03723 -0.965838 0
M  V30 10343 H 979.3 -6.94081 -0.567883 0
M  V30 10344 H 976.927 -7.59633 -0.293639 0
M  V30 10345 N 978.502 0.731368 -1.39602 0
M  V30 10346 C 979.751 1.48647 -1.36334 0
M  V30 10347 C 980.064 1.95565 0.0367383 0
M  V30 10348 O 981.27 2.7082 0.192017 0
M  V30 10349 C 979.726 2.68616 -2.39528 0
M  V30 10350 C 979.334 2.28632 -3.85268 0
M  V30 10351 C 981.078 3.46422 -2.45341 0
M  V30 10352 C 978.985 3.45345 -4.80095 0
M  V30 10353 H 977.915 0.558218 -0.506861 0
M  V30 10354 H 980.566 0.797467 -1.65266 0
M  V30 10355 H 978.948 3.39609 -2.03671 0
M  V30 10356 H 980.122 1.65162 -4.30184 0
M  V30 10357 H 978.437 1.63909 -3.82783 0
M  V30 10358 H 981.034 4.33241 -3.13379 0
M  V30 10359 H 981.377 3.8914 -1.47904 0
M  V30 10360 H 981.91 2.82461 -2.80108 0
M  V30 10361 H 978.649 3.07674 -5.78807 0
M  V30 10362 H 978.169 4.07784 -4.39855 0
M  V30 10363 H 979.848 4.1163 -4.99169 0
M  V30 10364 N 979.98 1.24838 0.961938 0
M  V30 10365 C 980.943 1.04674 2.03902 0
M  V30 10366 C 981.943 0.00204674 1.608 0
M  V30 10367 O 983.133 0.243555 1.72489 0
M  V30 10368 C 980.265 0.587736 3.35795 0
M  V30 10369 H 981.458 2.00278 2.23223 0
M  V30 10370 H 979.011 1.07142 1.138 0
M  V30 10371 H 979.746 -0.371244 3.22168 0
M  V30 10372 H 979.531 1.34182 3.68426 0
M  V30 10373 H 981.021 0.467867 4.14971 0
M  V30 10374 N 981.458 -1.16348 1.06306 0
M  V30 10375 C 982.683 -1.91323 0.800636 0
M  V30 10376 C 983.108 -1.7691 -0.639105 0
M  V30 10377 O 982.466 -1.0945 -1.44535 0
M  V30 10378 C 982.514 -3.40038 1.20027 0
M  V30 10379 O 981.618 -4.11003 0.339142 0
M  V30 10380 H 980.959 -0.596057 0.292595 0
M  V30 10381 H 983.489 -1.47406 1.41889 0
M  V30 10382 H 983.499 -3.90808 1.17188 0
M  V30 10383 H 982.174 -3.49848 2.24898 0
M  V30 10384 H 980.751 -3.70423 0.42911 0
M  V30 10385 N 982.937 -0.845659 -1.3299 0
M  V30 10386 C 984.214 -0.366306 -1.92139 0
M  V30 10387 C 984.594 1.14912 -1.77083 0
M  V30 10388 O 983.942 1.96667 -1.16338 0
M  V30 10389 C 984.152 -0.820716 -3.39213 0
M  V30 10390 C 985.5 -0.832667 -4.16355 0
M  V30 10391 O 986.524 -0.764764 -3.47893 0
M  V30 10392 O 985.383 -0.926658 -5.38586 0
M  V30 10393 H 982.477 -0.105063 -0.820299 0
M  V30 10394 H 985.023 -0.931962 -1.41819 0
M  V30 10395 H 983.795 -1.86357 -3.44074 0
M  V30 10396 H 983.418 -0.232009 -3.96923 0
M  V30 10397 N 984.415 1.45619 -0.602734 0
M  V30 10398 C 985.378 2.28941 0.108962 0
M  V30 10399 C 986.378 1.39501 0.799762 0
M  V30 10400 O 987.568 1.61673 0.648663 0
M  V30 10401 C 984.7 3.204 1.16432 0
M  V30 10402 H 985.893 2.93346 -0.623534 0
M  V30 10403 H 983.446 1.52061 -0.361565 0
M  V30 10404 H 984.181 2.60785 1.92774 0
M  V30 10405 H 983.966 3.86277 0.673248 0
M  V30 10406 H 985.456 3.83063 1.6629 0
M  V30 10407 N 985.893 0.34162 1.53853 0
M  V30 10408 C 986.84 -0.516058 2.24957 0
M  V30 10409 C 987.81 -1.09711 1.2471 0
M  V30 10410 O 988.995 -1.13409 1.53438 0
M  V30 10411 C 986.135 -1.66207 3.02439 0
M  V30 10412 C 985.248 -1.10851 4.17536 0
M  V30 10413 C 984.383 -2.22167 4.82509 0
M  V30 10414 C 983.422 -1.64152 5.89678 0
M  V30 10415 N 982.559 -2.69203 6.4844 0
M  V30 10416 H 987.399 0.0968275 2.97843 0
M  V30 10417 H 984.936 0.0595565 1.46979 0
M  V30 10418 H 986.894 -2.33672 3.4562 0
M  V30 10419 H 985.524 -2.24597 2.31853 0
M  V30 10420 H 984.576 -0.324853 3.7901 0
M  V30 10421 H 985.888 -0.644151 4.94623 0
M  V30 10422 H 985.042 -2.97501 5.28751 0
M  V30 10423 H 983.781 -2.71946 4.04842 0
M  V30 10424 H 982.786 -0.873228 5.42821 0
M  V30 10425 H 984.011 -1.15228 6.69253 0
M  V30 10426 H 981.957 -3.1824 5.73637 0
M  V30 10427 H 981.874 -2.27383 7.20994 0
M  V30 10428 H 983.142 -3.44312 6.99335 0
M  V30 10429 N 987.371 -1.57444 0.0701946 0
M  V30 10430 C 988.281 -2.16132 -0.912377 0
M  V30 10431 C 989.297 -1.12406 -1.32819 0
M  V30 10432 O 990.473 -1.44665 -1.40121 0
M  V30 10433 C 987.538 -2.71008 -2.16231 0
M  V30 10434 C 986.599 -3.896 -1.80306 0
M  V30 10435 C 985.832 -4.4185 -2.9934 0
M  V30 10436 O 986.055 -3.93106 -4.13309 0
M  V30 10437 O 984.989 -5.33201 -2.7925 0
M  V30 10438 H 988.815 -3.00449 -0.443167 0
M  V30 10439 H 986.4 -1.48617 -0.152786 0
M  V30 10440 H 988.282 -3.06186 -2.8953 0
M  V30 10441 H 986.957 -1.8975 -2.62253 0
M  V30 10442 H 985.864 -3.59277 -1.04264 0
M  V30 10443 H 987.197 -4.72145 -1.39068 0
M  V30 10444 N 988.849 0.203349 -1.56283 0
M  V30 10445 C 990.095 0.926381 -1.80405 0
M  V30 10446 C 990.428 1.8325 -0.642883 0
M  V30 10447 O 989.703 1.91196 0.356998 0
M  V30 10448 C 989.986 1.74972 -3.14733 0
M  V30 10449 C 989.839 0.868866 -4.41328 0
M  V30 10450 C 991.158 2.72394 -3.45672 0
M  V30 10451 H 988.277 0.335346 -0.656286 0
M  V30 10452 H 990.919 0.1942 -1.89005 0
M  V30 10453 H 989.069 2.37394 -3.07533 0
M  V30 10454 H 990.741 0.259986 -4.60567 0
M  V30 10455 H 988.984 0.175161 -4.33446 0
M  V30 10456 H 989.655 1.47975 -5.31796 0
M  V30 10457 H 992.131 2.20105 -3.53119 0
M  V30 10458 H 991.007 3.27091 -4.40798 0
M  V30 10459 H 991.268 3.51035 -2.6875 0
M  V30 10460 N 990.327 1.50405 0.470755 0
M  V30 10461 C 991.274 1.69293 1.56871 0
M  V30 10462 C 992.244 0.534248 1.57274 0
M  V30 10463 O 993.429 0.764855 1.74799 0
M  V30 10464 C 990.569 1.79338 2.94842 0
M  V30 10465 C 989.682 3.06709 3.04226 0
M  V30 10466 C 988.817 3.07548 4.33114 0
M  V30 10467 C 987.856 4.29372 4.36241 0
M  V30 10468 N 986.993 4.27949 5.56601 0
M  V30 10469 H 991.833 2.63029 1.40071 0
M  V30 10470 H 989.37 1.30386 0.681016 0
M  V30 10471 H 991.328 1.83143 3.74853 0
M  V30 10472 H 989.958 0.890411 3.10277 0
M  V30 10473 H 989.01 3.12374 2.17086 0
M  V30 10474 H 990.322 3.96684 3.02396 0
M  V30 10475 H 989.476 3.10084 5.21472 0
M  V30 10476 H 988.215 2.15404 4.37553 0
M  V30 10477 H 987.22 4.27048 3.4628 0
M  V30 10478 H 988.445 5.22743 4.33493 0
M  V30 10479 H 986.391 3.38658 5.61824 0
M  V30 10480 H 986.308 5.11692 5.56513 0
M  V30 10481 H 987.576 4.34631 6.47083 0
M  V30 10482 N 991.805 -0.723954 1.39988 0
M  V30 10483 C 993.221 -1.03095 1.21834 0
M  V30 10484 C 993.421 -2.01309 0.0876647 0
M  V30 10485 O 992.477 -2.46277 -0.55714 0
M  V30 10486 C 993.79 -1.58267 2.5568 0
M  V30 10487 C 995.338 -1.70293 2.6262 0
M  V30 10488 C 995.813 -2.28872 3.96713 0
M  V30 10489 N 997.304 -2.36269 3.98411 0
M  V30 10490 C 998.039 -2.82557 4.98948 0
M  V30 10491 N 997.535 -3.28661 6.0988 0
M  V30 10492 N 999.328 -2.81866 4.86321 0
M  V30 10493 H 991.479 -0.0727891 2.12275 0
M  V30 10494 H 993.742 -0.0949029 0.943238 0
M  V30 10495 H 993.448 -0.935642 3.39026 0
M  V30 10496 H 993.322 -2.56914 2.76179 0
M  V30 10497 H 995.709 -2.34115 1.7965 0
M  V30 10498 H 995.79 -0.70268 2.45959 0
M  V30 10499 H 995.434 -1.65675 4.80119 0
M  V30 10500 H 995.364 -3.29595 4.107 0
M  V30 10501 H 997.855 -2.03697 3.18302 0
M  V30 10502 H 998.168 -3.62524 6.82493 0
M  V30 10503 H 996.513 -3.26641 6.13458 0
M  V30 10504 H 999.704 -2.45179 3.98754 0
M  V30 10505 H 999.877 -3.17626 5.64817 0
M  V30 10506 N 993.283 -1.25346 -0.955304 0
M  V30 10507 C 994.246 -1.05754 -2.03344 0
M  V30 10508 C 995.246 -0.0105743 -1.60797 0
M  V30 10509 O 996.436 -0.252699 -1.72357 0
M  V30 10510 C 993.568 -0.605536 -3.35479 0
M  V30 10511 H 994.761 -2.01459 -2.22158 0
M  V30 10512 H 992.314 -1.07744 -1.1323 0
M  V30 10513 H 993.049 0.354154 -3.2236 0
M  V30 10514 H 992.834 -1.36134 -3.67709 0
M  V30 10515 H 994.324 -0.489867 -4.14717 0
M  V30 10516 N 994.761 1.15782 -1.06922 0
M  V30 10517 C 996.008 1.86465 -0.789752 0
M  V30 10518 C 996.336 1.82075 0.684022 0
M  V30 10519 O 995.591 1.23576 1.51748 0
M  V30 10520 C 995.89 3.35284 -1.2377 0
M  V30 10521 C 995.556 3.59871 -2.71668 0
M  V30 10522 C 994.218 3.6629 -3.12066 0
M  V30 10523 C 996.57 3.69929 -3.67154 0
M  V30 10524 C 993.898 3.80275 -4.46775 0
M  V30 10525 C 996.25 3.85436 -5.01619 0
M  V30 10526 C 994.914 3.901 -5.41644 0
M  V30 10527 H 994.184 0.682324 -0.288991 0
M  V30 10528 H 996.831 1.36861 -1.33945 0
M  V30 10529 H 995.136 3.87065 -0.607309 0
M  V30 10530 H 996.833 3.88371 -0.998431 0
M  V30 10531 H 993.423 3.55512 -2.39393 0
M  V30 10532 H 997.607 3.64274 -3.37073 0
M  V30 10533 H 992.863 3.8214 -4.77262 0
M  V30 10534 H 997.037 3.92161 -5.75485 0
M  V30 10535 H 994.664 4.00688 -6.46029 0
M  V30 10536 N 996.239 0.8527 1.3254 0
M  V30 10537 C 997.486 0.455123 1.97319 0
M  V30 10538 C 997.814 -0.988814 1.67489 0
M  V30 10539 O 997.069 -1.70845 0.954483 0
M  V30 10540 C 997.368 0.638757 3.51646 0
M  V30 10541 C 997.034 2.05287 4.01458 0
M  V30 10542 C 995.696 2.43963 4.14771 0
M  V30 10543 C 998.048 2.9759 4.27889 0
M  V30 10544 C 995.376 3.7422 4.51859 0
M  V30 10545 C 997.728 4.27343 4.66434 0
M  V30 10546 C 996.392 4.65957 4.77954 0
M  V30 10547 H 995.662 0.166541 0.722042 0
M  V30 10548 H 998.309 1.08238 1.57977 0
M  V30 10549 H 996.614 -0.0717394 3.91734 0
M  V30 10550 H 998.311 0.311219 3.9979 0
M  V30 10551 H 994.901 1.74253 3.91579 0
M  V30 10552 H 999.085 2.68942 4.17114 0
M  V30 10553 H 994.341 4.03923 4.58973 0
M  V30 10554 H 998.515 4.9893 4.85841 0
M  V30 10555 H 996.142 5.66934 5.06449 0
M  V30 10556 N 997.718 -1.45297 0.610449 0
M  V30 10557 C 998.948 -2.0629 0.113047 0
M  V30 10558 C 999.356 -1.45527 -1.20907 0
M  V30 10559 O 998.699 -0.564837 -1.74801 0
M  V30 10560 C 998.761 -3.59366 -0.0979692 0
M  V30 10561 C 998.425 -4.42481 1.14279 0
M  V30 10562 C 999.422 -4.77277 2.06161 0
M  V30 10563 C 997.107 -4.83187 1.37241 0
M  V30 10564 C 999.101 -5.51639 3.19333 0
M  V30 10565 C 996.788 -5.57303 2.50713 0
M  V30 10566 C 997.786 -5.91445 3.41587 0
M  V30 10567 O 997.474 -6.64056 4.53083 0
M  V30 10568 H 997.206 -0.67264 0.0673159 0
M  V30 10569 H 999.76 -1.87486 0.838937 0
M  V30 10570 H 997.99 -3.76582 -0.878783 0
M  V30 10571 H 999.679 -4.02193 -0.547327 0
M  V30 10572 H 1000.44 -4.46384 1.89647 0
M  V30 10573 H 996.324 -4.56045 0.67407 0
M  V30 10574 H 999.868 -5.78207 3.90286 0
M  V30 10575 H 995.765 -5.8761 2.67179 0
M  V30 10576 H 996.533 -6.82509 4.51801 0
M  V30 10577 N 999.196 -0.349774 -1.5367 0
M  V30 10578 C 1000.44 0.245095 -2.02925 0
M  V30 10579 C 1000.8 1.4727 -1.23189 0
M  V30 10580 O 1002 2.14215 -1.62374 0
M  V30 10581 C 1000.27 0.545392 -3.53214 0
M  V30 10582 S 1001.83 1.11619 -4.24366 0
M  V30 10583 H 998.649 0.0725368 -0.70729 0
M  V30 10584 H 1001.25 -0.488979 -1.89286 0
M  V30 10585 H 999.955 -0.355786 -4.08855 0
M  V30 10586 H 999.486 1.30897 -3.70985 0
M  V30 10587 H 1001.5 2.40151 -4.34214 0
M  V30 10588 N 1000.67 1.57404 -0.0785433 0
M  V30 10589 C 1001.62 2.13104 0.88631 0
M  V30 10590 C 1002.59 1.04527 1.29086 0
M  V30 10591 O 1003.78 1.32226 1.37553 0
M  V30 10592 C 1000.92 2.70252 2.14611 0
M  V30 10593 C 1000.03 3.93007 1.79358 0
M  V30 10594 C 999.164 4.38376 3 0
M  V30 10595 C 998.203 5.53761 2.60796 0
M  V30 10596 N 997.34 5.94058 3.74219 0
M  V30 10597 H 1002.18 2.95243 0.404452 0
M  V30 10598 H 999.717 1.45894 0.187982 0
M  V30 10599 H 1001.67 3.01497 2.88367 0
M  V30 10600 H 1000.3 1.90868 2.60326 0
M  V30 10601 H 999.357 3.68181 0.956384 0
M  V30 10602 H 1000.67 4.76795 1.4652 0
M  V30 10603 H 999.823 4.71317 3.82027 0
M  V30 10604 H 998.562 3.53455 3.36037 0
M  V30 10605 H 997.567 5.20464 1.77192 0
M  V30 10606 H 998.792 6.40419 2.25922 0
M  V30 10607 H 996.738 5.12085 4.10005 0
M  V30 10608 H 996.655 6.72602 3.45171 0
M  V30 10609 H 997.923 6.31624 4.56805 0
M  V30 10610 N 1002.15 -0.195058 1.56388 0
M  V30 10611 C 1003.11 -1.2254 1.93692 0
M  V30 10612 C 1004.11 -1.38437 0.81804 0
M  V30 10613 O 1005.3 -1.36248 1.08545 0
M  V30 10614 C 1002.44 -2.59476 2.21099 0
M  V30 10615 H 1003.63 -0.906544 2.8587 0
M  V30 10616 H 1001.18 -0.436577 1.50079 0
M  V30 10617 H 1001.92 -2.96417 1.31558 0
M  V30 10618 H 1001.7 -2.4931 3.02634 0
M  V30 10619 H 1003.19 -3.33777 2.50964 0
M  V30 10620 N 1003.63 -1.50653 -0.462772 0
M  V30 10621 C 1004.87 -1.637 -1.22399 0
M  V30 10622 C 1005.23 -0.333847 -1.89075 0
M  V30 10623 O 1006.43 -0.339837 -2.66643 0
M  V30 10624 C 1004.71 -2.79018 -2.23347 0
M  V30 10625 S 1006.26 -3.12248 -3.08296 0
M  V30 10626 H 1003.08 -0.576998 -0.415444 0
M  V30 10627 H 1005.68 -1.88468 -0.519631 0
M  V30 10628 H 1004.39 -3.72174 -1.72958 0
M  V30 10629 H 1003.92 -2.56362 -2.98399 0
M  V30 10630 H 1005.93 -2.56716 -4.24631 0
M  V30 10631 N 1005.11 0.71652 -1.4037 0
M  V30 10632 C 1006.06 1.82219 -1.37041 0
M  V30 10633 C 1007.04 1.58975 -0.248116 0
M  V30 10634 O 1008.23 1.70164 -0.487147 0
M  V30 10635 C 1005.36 3.20337 -1.23446 0
M  V30 10636 C 1004.45 3.49347 -2.40452 0
M  V30 10637 N 1004.84 3.49179 -3.65934 0
M  V30 10638 C 1003.14 3.798 -2.33811 0
M  V30 10639 C 1003.84 3.76506 -4.43416 0
M  V30 10640 N 1002.82 3.95209 -3.73244 0
M  V30 10641 H 1006.62 1.80421 -2.32003 0
M  V30 10642 H 1004.13 0.915603 -1.34129 0
M  V30 10643 H 1006.13 3.99513 -1.19143 0
M  V30 10644 H 1004.79 3.23362 -0.294497 0
M  V30 10645 H 1005.8 3.30051 -3.99107 0
M  V30 10646 H 1002.48 3.9032 -1.48177 0
M  V30 10647 H 1003.87 3.82689 -5.52267 0
M  V30 10648 N 1006.59 1.25851 0.948643 0
M  V30 10649 C 1007.86 1.01717 1.67072 0
M  V30 10650 C 1008.24 -0.454749 2.06144 0
M  V30 10651 O 1007.59 -1.43345 1.77945 0
M  V30 10652 C 1007.8 1.95872 2.88852 0
M  V30 10653 C 1009.15 2.24057 3.60671 0
M  V30 10654 O 1010.17 1.93678 2.98944 0
M  V30 10655 O 1009.03 2.75745 4.71833 0
M  V30 10656 H 1006.13 0.386198 0.731287 0
M  V30 10657 H 1008.67 1.37031 1.00104 0
M  V30 10658 H 1007.44 2.95233 2.56814 0
M  V30 10659 H 1007.07 1.60992 3.63548 0
M  V30 10660 N 1008.06 -1.15214 1.07534 0
M  V30 10661 C 1009.34 -1.82155 0.71267 0
M  V30 10662 C 1009.72 -1.95163 -0.804655 0
M  V30 10663 O 1009.07 -1.50451 -1.71979 0
M  V30 10664 C 1009.28 -3.18392 1.42925 0
M  V30 10665 C 1010.63 -3.94005 1.58256 0
M  V30 10666 O 1011.65 -3.27952 1.39018 0
M  V30 10667 O 1010.51 -5.12436 1.89925 0
M  V30 10668 H 1007.6 -0.78709 0.253808 0
M  V30 10669 H 1010.15 -1.22309 1.17638 0
M  V30 10670 H 1008.92 -3.04034 2.46331 0
M  V30 10671 H 1008.55 -3.85925 0.956439 0
M  V30 10672 N 1009.54 -0.859717 -1.32086 0
M  V30 10673 C 1010.79 -0.461779 -1.96343 0
M  V30 10674 C 1011.1 0.988837 -1.68764 0
M  V30 10675 O 1012.31 1.49244 -2.268 0
M  V30 10676 C 1010.77 -0.77484 -3.5146 0
M  V30 10677 C 1010.37 -2.24153 -3.87891 0
M  V30 10678 C 1012.12 -0.444873 -4.22162 0
M  V30 10679 C 1010.03 -2.49754 -5.36075 0
M  V30 10680 H 1008.96 -0.168951 -0.734828 0
M  V30 10681 H 1011.61 -1.0512 -1.50406 0
M  V30 10682 H 1009.99 -0.114792 -3.95834 0
M  V30 10683 H 1011.16 -2.94378 -3.54511 0
M  V30 10684 H 1009.48 -2.53651 -3.30227 0
M  V30 10685 H 1012.07 -0.613508 -5.31169 0
M  V30 10686 H 1012.42 0.61391 -4.11749 0
M  V30 10687 H 1012.95 -1.06103 -3.83389 0
M  V30 10688 H 1009.69 -3.54276 -5.51515 0
M  V30 10689 H 1009.21 -1.84112 -5.70844 0
M  V30 10690 H 1010.89 -2.3396 -6.03218 0
M  V30 10691 N 1011.02 1.44971 -0.618145 0
M  V30 10692 C 1012.25 2.06527 -0.124165 0
M  V30 10693 C 1012.66 1.46097 1.19588 0
M  V30 10694 O 1012.02 0.57901 1.73071 0
M  V30 10695 C 1012.07 3.61498 0.0106701 0
M  V30 10696 O 1011.79 4.19675 -1.25716 0
M  V30 10697 C 1013.29 4.40061 0.534872 0
M  V30 10698 H 1010.51 0.666941 -0.0736935 0
M  V30 10699 H 1013.06 1.8605 -0.848871 0
M  V30 10700 H 1011.21 3.81282 0.685752 0
M  V30 10701 H 1011.63 5.12972 -1.09362 0
M  V30 10702 H 1013.1 5.48963 0.57827 0
M  V30 10703 H 1013.58 4.10587 1.55931 0
M  V30 10704 H 1014.18 4.25167 -0.10652 0
M  V30 10705 N 1012.5 0.357919 1.53482 0
M  V30 10706 C 1013.78 -0.290164 1.93436 0
M  V30 10707 C 1014.16 -1.67039 1.29079 0
M  V30 10708 O 1013.5 -2.24085 0.447017 0
M  V30 10709 C 1013.71 -0.348055 3.4726 0
M  V30 10710 C 1015.06 -0.59206 4.20452 0
M  V30 10711 O 1016.09 -0.429581 3.536 0
M  V30 10712 O 1014.94 -0.907855 5.38907 0
M  V30 10713 H 1012.04 -0.172312 0.80885 0
M  V30 10714 H 1014.58 0.410144 1.64669 0
M  V30 10715 H 1013.36 0.619953 3.86358 0
M  V30 10716 H 1012.98 -1.09457 3.82237 0
M  V30 10717 N 1013.98 -1.5736 0.0868897 0
M  V30 10718 C 1015.39 -1.81356 -0.443499 0
M  V30 10719 C 1015.74 -1.00192 -1.68689 0
M  V30 10720 O 1014.86 -0.228863 -2.15186 0
M  V30 10721 C 1015.46 -3.28941 -0.811387 0
M  V30 10722 C 1014.02 -3.53729 -1.28656 0
M  V30 10723 C 1013.16 -2.75891 -0.279153 0
M  V30 10724 H 1016.12 -1.55594 0.312427 0
M  V30 10725 H 1016.14 -3.41815 -1.6716 0
M  V30 10726 H 1015.65 -3.87987 0.0937598 0
M  V30 10727 H 1013.75 -3.00005 -2.2097 0
M  V30 10728 H 1013.86 -4.62396 -1.25406 0
M  V30 10729 H 1012.23 -2.4311 -0.759595 0
M  V30 10730 H 1013.01 -3.37682 0.618529 0
M  V30 10731 N 1015.45 0.186762 -1.56489 0
M  V30 10732 C 1016.4 1.23141 -1.95205 0
M  V30 10733 C 1017.37 1.44799 -0.81378 0
M  V30 10734 O 1018.56 1.57795 -1.07263 0
M  V30 10735 C 1015.7 2.56926 -2.30397 0
M  V30 10736 C 1014.81 2.42777 -3.57328 0
M  V30 10737 C 1013.94 3.69323 -3.81804 0
M  V30 10738 C 1012.98 3.50041 -5.02133 0
M  V30 10739 N 1012.12 4.68619 -5.2282 0
M  V30 10740 H 1016.96 0.894256 -2.84266 0
M  V30 10741 H 1014.5 0.430187 -1.40669 0
M  V30 10742 H 1016.46 3.3488 -2.4882 0
M  V30 10743 H 1015.09 2.88668 -1.44466 0
M  V30 10744 H 1014.14 1.56078 -3.46906 0
M  V30 10745 H 1015.45 2.24468 -4.45439 0
M  V30 10746 H 1014.6 4.55715 -4.00511 0
M  V30 10747 H 1013.34 3.90595 -2.92039 0
M  V30 10748 H 1012.35 2.62034 -4.8334 0
M  V30 10749 H 1013.57 3.30206 -5.93414 0
M  V30 10750 H 1011.52 4.90139 -4.36005 0
M  V30 10751 H 1011.44 4.53165 -6.05126 0
M  V30 10752 H 1012.7 5.56338 -5.45993 0
M  V30 10753 N 1016.93 1.50896 0.454776 0
M  V30 10754 C 1018.35 1.38684 0.78987 0
M  V30 10755 C 1018.55 0.455587 1.96282 0
M  V30 10756 O 1017.6 -0.0957503 2.52318 0
M  V30 10757 C 1018.92 2.80381 1.08661 0
M  V30 10758 C 1020.47 2.8941 1.19209 0
M  V30 10759 C 1020.94 4.31976 1.52187 0
M  V30 10760 N 1022.43 4.35002 1.59146 0
M  V30 10761 C 1023.17 5.42326 1.862 0
M  V30 10762 N 1022.66 6.59835 2.11164 0
M  V30 10763 N 1024.46 5.29786 1.87838 0
M  V30 10764 H 1016.61 2.10006 -0.317981 0
M  V30 10765 H 1018.87 0.944636 -0.0797969 0
M  V30 10766 H 1018.58 3.50438 0.297626 0
M  V30 10767 H 1018.45 3.18634 2.01872 0
M  V30 10768 H 1020.84 2.19561 1.97173 0
M  V30 10769 H 1020.92 2.54677 0.239401 0
M  V30 10770 H 1020.56 5.02368 0.747576 0
M  V30 10771 H 1020.49 4.64208 2.48633 0
M  V30 10772 H 1022.98 3.50276 1.41828 0
M  V30 10773 H 1023.3 7.37428 2.31128 0
M  V30 10774 H 1021.64 6.62981 2.08522 0
M  V30 10775 H 1024.83 4.36974 1.67843 0
M  V30 10776 H 1025 6.13511 2.08585 0
M  V30 10777 N 1018.41 -0.709066 1.40748 0
M  V30 10778 C 1019.66 -1.4646 1.38681 0
M  V30 10779 C 1019.97 -1.95599 -0.0056209 0
M  V30 10780 O 1021.18 -2.71091 -0.148907 0
M  V30 10781 C 1019.63 -2.64771 2.43771 0
M  V30 10782 C 1019.24 -2.22474 3.88856 0
M  V30 10783 C 1020.99 -3.42475 2.50821 0
M  V30 10784 C 1018.89 -3.37663 4.85528 0
M  V30 10785 H 1017.82 -0.550084 0.515678 0
M  V30 10786 H 1020.47 -0.771074 1.66513 0
M  V30 10787 H 1018.86 -3.36325 2.09048 0
M  V30 10788 H 1020.03 -1.58297 4.32757 0
M  V30 10789 H 1018.35 -1.57798 3.85342 0
M  V30 10790 H 1020.94 -4.28201 3.20232 0
M  V30 10791 H 1021.29 -3.86738 1.54076 0
M  V30 10792 H 1021.82 -2.77969 2.84567 0
M  V30 10793 H 1018.56 -2.98426 5.83628 0
M  V30 10794 H 1018.08 -4.00734 4.46287 0
M  V30 10795 H 1019.76 -4.03636 5.05655 0
M  V30 10796 N 1019.89 -1.26353 -0.941956 0
M  V30 10797 C 1020.84 -1.07842 -2.04056 0
M  V30 10798 C 1021.81 0.0163064 -1.66092 0
M  V30 10799 O 1022.99 -0.143313 -1.90261 0
M  V30 10800 C 1020.13 -0.716636 -3.37577 0
M  V30 10801 C 1019.24 -1.88754 -3.88582 0
M  V30 10802 C 1018.38 -1.46893 -5.10486 0
M  V30 10803 C 1017.42 -2.60819 -5.53751 0
M  V30 10804 N 1016.56 -2.19646 -6.66858 0
M  V30 10805 H 1021.4 -2.01856 -2.19221 0
M  V30 10806 H 1018.93 -1.00504 -1.07412 0
M  V30 10807 H 1020.89 -0.487768 -4.14339 0
M  V30 10808 H 1019.52 0.18653 -3.22261 0
M  V30 10809 H 1018.57 -2.22936 -3.08227 0
M  V30 10810 H 1019.88 -2.74264 -4.1663 0
M  V30 10811 H 1019.04 -1.20047 -5.94705 0
M  V30 10812 H 1017.78 -0.584721 -4.84182 0
M  V30 10813 H 1016.78 -2.88396 -4.6809 0
M  V30 10814 H 1018.01 -3.49838 -5.82057 0
M  V30 10815 H 1015.95 -1.33657 -6.4224 0
M  V30 10816 H 1015.87 -2.987 -6.94489 0
M  V30 10817 H 1017.14 -1.96009 -7.54454 0
M  V30 10818 N 1021.37 1.14642 -1.08144 0
M  V30 10819 C 1022.31 2.1964 -0.708995 0
M  V30 10820 C 1023.28 1.63303 0.303512 0
M  V30 10821 O 1024.47 1.8987 0.18813 0
M  V30 10822 C 1021.61 3.44886 -0.121585 0
M  V30 10823 C 1020.72 4.15386 -1.18654 0
M  V30 10824 C 1019.86 5.28205 -0.56328 0
M  V30 10825 C 1018.9 5.90534 -1.61046 0
M  V30 10826 N 1018.03 6.94809 -1.00919 0
M  V30 10827 H 1022.87 2.50848 -1.6087 0
M  V30 10828 H 1020.41 1.23185 -0.803975 0
M  V30 10829 H 1022.37 4.16528 0.23668 0
M  V30 10830 H 1021 3.14169 0.741445 0
M  V30 10831 H 1020.05 3.42159 -1.66227 0
M  V30 10832 H 1021.36 4.57809 -1.9802 0
M  V30 10833 H 1020.52 6.06507 -0.153109 0
M  V30 10834 H 1019.26 4.86995 0.262066 0
M  V30 10835 H 1018.26 5.10938 -2.03033 0
M  V30 10836 H 1019.49 6.33819 -2.43824 0
M  V30 10837 H 1017.43 6.5568 -0.204894 0
M  V30 10838 H 1017.35 7.35704 -1.73999 0
M  V30 10839 H 1018.62 7.76992 -0.624792 0
M  V30 10840 N 1022.85 0.866709 1.31628 0
M  V30 10841 C 1024.09 0.482479 1.98624 0
M  V30 10842 C 1024.45 -0.946844 1.6703 0
M  V30 10843 O 1025.65 -1.43626 2.27212 0
M  V30 10844 C 1023.92 0.728582 3.49895 0
M  V30 10845 S 1025.48 0.443724 4.36551 0
M  V30 10846 H 1022.3 0.180238 0.687776 0
M  V30 10847 H 1024.9 1.12203 1.60096 0
M  V30 10848 H 1023.6 1.76769 3.70379 0
M  V30 10849 H 1023.14 0.075903 3.93327 0
M  V30 10850 H 1025.15 -0.72534 4.9087 0
M  V30 10851 N 1024.32 -1.44642 0.625825 0
M  V30 10852 C 1025.57 -2.01695 0.127948 0
M  V30 10853 C 1025.89 -1.49439 -1.25271 0
M  V30 10854 O 1025.16 -0.695873 -1.83124 0
M  V30 10855 H 1023.74 -0.745685 0.0443096 0
M  V30 10856 H 1026.4 -1.7721 0.811332 0
M  V30 10857 H 1025.5 -3.11966 0.0915933 0
M  V30 10858 N 1025.8 -0.366053 -1.5329 0
M  V30 10859 C 1027.04 0.223558 -2.03174 0
M  V30 10860 C 1027.41 1.45955 -1.24745 0
M  V30 10861 O 1028.61 2.12481 -1.64637 0
M  V30 10862 C 1026.88 0.507899 -3.53773 0
M  V30 10863 S 1028.44 1.07111 -4.25526 0
M  V30 10864 H 1025.25 0.0650309 -0.70802 0
M  V30 10865 H 1027.86 -0.509028 -1.88757 0
M  V30 10866 H 1026.56 -0.39913 -4.08455 0
M  V30 10867 H 1026.09 1.26954 -3.72352 0
M  V30 10868 H 1028.11 2.35533 -4.36737 0
M  V30 10869 N 1027.28 1.57312 -0.0952337 0
M  V30 10870 C 1028.23 2.14032 0.863657 0
M  V30 10871 C 1029.2 1.0589 1.27971 0
M  V30 10872 O 1030.38 1.33678 1.36143 0
M  V30 10873 C 1027.52 2.72513 2.11733 0
M  V30 10874 C 1026.63 3.94887 1.7518 0
M  V30 10875 C 1025.77 4.41533 2.95334 0
M  V30 10876 C 1024.81 5.56496 2.54908 0
M  V30 10877 N 1023.95 5.97993 3.67897 0
M  V30 10878 H 1028.79 2.95655 0.373115 0
M  V30 10879 H 1026.32 1.46085 0.172497 0
M  V30 10880 H 1028.28 3.04539 2.85153 0
M  V30 10881 H 1026.91 1.93618 2.58287 0
M  V30 10882 H 1025.96 3.69175 0.917279 0
M  V30 10883 H 1027.27 4.78322 1.41455 0
M  V30 10884 H 1026.43 4.75343 3.77007 0
M  V30 10885 H 1025.17 3.56999 3.3227 0
M  V30 10886 H 1024.17 5.22314 1.71662 0
M  V30 10887 H 1025.4 6.42779 2.19117 0
M  V30 10888 H 1023.34 5.16405 4.04551 0
M  V30 10889 H 1023.26 6.76225 3.38018 0
M  V30 10890 H 1024.53 6.36434 4.5008 0
M  V30 10891 N 1028.76 -0.17846 1.56586 0
M  V30 10892 C 1030.17 -0.529957 1.50544 0
M  V30 10893 C 1030.37 -1.85015 0.798237 0
M  V30 10894 O 1029.43 -2.49983 0.355639 0
M  V30 10895 C 1030.74 -0.569314 2.95261 0
M  V30 10896 C 1032.29 -0.657008 3.06027 0
M  V30 10897 C 1032.77 -0.727323 4.52188 0
M  V30 10898 N 1034.26 -0.790406 4.56406 0
M  V30 10899 C 1034.99 -0.865265 5.66834 0
M  V30 10900 N 1034.49 -0.901398 6.86911 0
M  V30 10901 N 1036.28 -0.903736 5.54787 0
M  V30 10902 H 1028.43 0.687304 2.00972 0
M  V30 10903 H 1030.69 0.246936 0.915274 0
M  V30 10904 H 1030.4 0.331934 3.5013 0
M  V30 10905 H 1030.27 -1.41828 3.4952 0
M  V30 10906 H 1032.66 -1.54868 2.51197 0
M  V30 10907 H 1032.74 0.218495 2.54865 0
M  V30 10908 H 1032.39 0.160067 5.07648 0
M  V30 10909 H 1032.32 -1.61887 5.01099 0
M  V30 10910 H 1034.81 -0.771054 3.6995 0
M  V30 10911 H 1035.12 -0.959494 7.6682 0
M  V30 10912 H 1033.47 -0.869795 6.89536 0
M  V30 10913 H 1036.66 -0.872459 4.59898 0
M  V30 10914 H 1036.83 -0.958615 6.4087 0
M  V30 10915 N 1030.24 -1.51135 -0.446768 0
M  V30 10916 C 1031.65 -1.55919 -1.02694 0
M  V30 10917 C 1032 -0.377038 -1.92543 0
M  V30 10918 O 1031.12 0.507295 -2.1037 0
M  V30 10919 C 1031.72 -2.8257 -1.86922 0
M  V30 10920 C 1030.28 -2.89956 -2.40005 0
M  V30 10921 C 1029.42 -2.50482 -1.18971 0
M  V30 10922 H 1032.37 -1.57048 -0.228403 0
M  V30 10923 H 1032.4 -2.65799 -2.7227 0
M  V30 10924 H 1031.91 -3.6859 -1.21502 0
M  V30 10925 H 1030.01 -2.08343 -3.08907 0
M  V30 10926 H 1030.12 -3.93399 -2.73448 0
M  V30 10927 H 1028.49 -2.03466 -1.53211 0
M  V30 10928 H 1029.27 -3.38837 -0.551762 0
M  V30 10929 N 1031.71 0.701592 -1.41122 0
M  V30 10930 C 1032.66 1.81559 -1.42495 0
M  V30 10931 C 1033.63 1.63722 -0.280078 0
M  V30 10932 O 1034.82 1.84658 -0.480231 0
M  V30 10933 C 1031.96 3.19392 -1.30702 0
M  V30 10934 C 1031.07 3.48704 -2.55009 0
M  V30 10935 C 1030.2 4.76118 -2.35554 0
M  V30 10936 C 1029.24 4.98378 -3.55367 0
M  V30 10937 N 1028.38 6.17014 -3.3502 0
M  V30 10938 H 1033.22 1.7972 -2.37707 0
M  V30 10939 H 1030.76 0.877727 -1.18044 0
M  V30 10940 H 1032.71 3.99004 -1.21867 0
M  V30 10941 H 1031.34 3.20423 -0.391012 0
M  V30 10942 H 1030.4 2.63542 -2.74317 0
M  V30 10943 H 1031.71 3.61057 -3.44151 0
M  V30 10944 H 1030.86 5.63774 -2.24152 0
M  V30 10945 H 1029.6 4.66 -1.43859 0
M  V30 10946 H 1028.61 4.09172 -3.6723 0
M  V30 10947 H 1029.83 5.10359 -4.48007 0
M  V30 10948 H 1027.78 6.0812 -2.4602 0
M  V30 10949 H 1027.69 6.30107 -4.17733 0
M  V30 10950 H 1028.96 7.0742 -3.27379 0
M  V30 10951 N 1033.19 1.2685 0.935242 0
M  V30 10952 C 1034.12 1.03244 2.03509 0
M  V30 10953 C 1035.1 -0.0447323 1.62538 0
M  V30 10954 O 1036.29 0.0988905 1.8824 0
M  V30 10955 C 1033.41 0.564626 3.33961 0
M  V30 10956 C 1032.46 1.63524 3.93906 0
M  V30 10957 S 1033.29 3.22577 4.27439 0
M  V30 10958 C 1034.45 2.77579 5.60982 0
M  V30 10959 H 1034.68 1.96367 2.2322 0
M  V30 10960 H 1032.21 1.10597 1.07739 0
M  V30 10961 H 1034.17 0.301388 4.09392 0
M  V30 10962 H 1032.83 -0.346419 3.12184 0
M  V30 10963 H 1032.03 1.25905 4.8802 0
M  V30 10964 H 1031.63 1.85017 3.25031 0
M  V30 10965 H 1033.92 2.22412 6.39952 0
M  V30 10966 H 1034.86 3.70408 6.03493 0
M  V30 10967 H 1035.27 2.16956 5.21143 0
M  V30 10968 N 1034.67 -1.14067 1.0875 0
M  V30 10969 C 1035.9 -1.89582 0.841038 0
M  V30 10970 C 1036.32 -1.78226 -0.601436 0
M  V30 10971 O 1035.68 -1.12491 -1.42181 0
M  V30 10972 C 1035.73 -3.37415 1.27213 0
M  V30 10973 O 1034.83 -4.10191 0.426246 0
M  V30 10974 H 1034.17 -0.589716 0.305173 0
M  V30 10975 H 1036.7 -1.44364 1.44984 0
M  V30 10976 H 1036.71 -3.88234 1.25451 0
M  V30 10977 H 1035.39 -3.44999 2.32268 0
M  V30 10978 H 1033.96 -3.69429 0.507585 0
M  V30 10979 N 1036.15 -0.873678 -1.31166 0
M  V30 10980 C 1037.4 -0.482577 -1.95842 0
M  V30 10981 C 1037.71 0.970881 -1.69804 0
M  V30 10982 O 1038.92 1.4683 -2.28371 0
M  V30 10983 C 1037.37 -0.812074 -3.50619 0
M  V30 10984 C 1036.98 -2.28254 -3.85492 0
M  V30 10985 C 1038.72 -0.489624 -4.21667 0
M  V30 10986 C 1036.63 -2.55426 -5.33396 0
M  V30 10987 H 1035.56 -0.176736 -0.732994 0
M  V30 10988 H 1038.21 -1.06709 -1.49283 0
M  V30 10989 H 1036.59 -0.156769 -3.9569 0
M  V30 10990 H 1037.77 -2.98122 -3.51369 0
M  V30 10991 H 1036.08 -2.5714 -3.27518 0
M  V30 10992 H 1038.68 -0.669811 -5.30488 0
M  V30 10993 H 1039.02 0.570204 -4.12376 0
M  V30 10994 H 1039.56 -1.10163 -3.82242 0
M  V30 10995 H 1036.3 -3.60106 -5.47726 0
M  V30 10996 H 1035.82 -1.90156 -5.68859 0
M  V30 10997 H 1037.49 -2.40345 -6.00702 0
M  V30 10998 N 1037.63 1.44308 -0.633487 0
M  V30 10999 C 1038.86 2.06085 -0.145852 0
M  V30 11000 C 1039.26 1.47432 1.18577 0
M  V30 11001 O 1038.61 0.592575 1.7388 0
M  V30 11002 C 1038.67 3.59477 0.0407848 0
M  V30 11003 C 1038.33 4.40607 -1.21304 0
M  V30 11004 C 1039.33 4.73937 -2.13728 0
M  V30 11005 C 1037.02 4.80943 -1.44911 0
M  V30 11006 C 1039.01 5.46489 -3.28068 0
M  V30 11007 C 1036.7 5.53243 -2.59548 0
M  V30 11008 C 1037.69 5.85936 -3.50953 0
M  V30 11009 O 1037.38 6.56764 -4.6359 0
M  V30 11010 H 1037.11 0.671484 -0.0780085 0
M  V30 11011 H 1039.67 1.86128 -0.868658 0
M  V30 11012 H 1037.9 3.77933 0.818761 0
M  V30 11013 H 1039.59 4.03013 0.483273 0
M  V30 11014 H 1040.35 4.43311 -1.96725 0
M  V30 11015 H 1036.23 4.54915 -0.746537 0
M  V30 11016 H 1039.78 5.71924 -3.99435 0
M  V30 11017 H 1035.67 5.83285 -2.76493 0
M  V30 11018 H 1036.44 6.75234 -4.62602 0
M  V30 11019 N 1039.1 0.374177 1.53094 0
M  V30 11020 C 1040.05 -0.468226 2.26001 0
M  V30 11021 C 1041.02 -1.07041 1.27009 0
M  V30 11022 O 1042.21 -1.10129 1.55809 0
M  V30 11023 C 1039.35 -1.59754 3.05896 0
M  V30 11024 C 1038.46 -1.01969 4.19793 0
M  V30 11025 C 1037.59 -2.11882 4.87113 0
M  V30 11026 C 1036.63 -1.51607 5.93028 0
M  V30 11027 N 1035.77 -2.55388 6.54004 0
M  V30 11028 H 1040.61 0.159983 2.9757 0
M  V30 11029 H 1038.15 0.0907196 1.4682 0
M  V30 11030 H 1040.11 -2.26288 3.50499 0
M  V30 11031 H 1038.74 -2.19628 2.36565 0
M  V30 11032 H 1037.79 -0.244386 3.79614 0
M  V30 11033 H 1039.1 -0.539089 4.95878 0
M  V30 11034 H 1038.25 -2.86218 5.34943 0
M  V30 11035 H 1036.99 -2.63297 4.10519 0
M  V30 11036 H 1036 -0.757891 5.44551 0
M  V30 11037 H 1037.22 -1.01006 6.71546 0
M  V30 11038 H 1035.17 -3.06 5.80258 0
M  V30 11039 H 1035.09 -2.12039 7.25655 0
M  V30 11040 H 1036.35 -3.294 7.06481 0
M  V30 11041 N 1040.58 -1.57259 0.103575 0
M  V30 11042 C 1042 -1.57581 -0.253062 0
M  V30 11043 C 1042.2 -1.11531 -1.67819 0
M  V30 11044 O 1041.25 -0.795632 -2.39637 0
M  V30 11045 C 1042.57 -3.00681 -0.0337753 0
M  V30 11046 C 1044.12 -3.12837 -0.10087 0
M  V30 11047 C 1044.59 -4.57911 0.0905295 0
M  V30 11048 N 1046.08 -4.63186 0.0359789 0
M  V30 11049 C 1046.82 -5.73179 0.159199 0
M  V30 11050 N 1046.31 -6.91976 0.337728 0
M  V30 11051 N 1048.11 -5.62011 0.0998662 0
M  V30 11052 H 1040.26 -1.85499 1.0346 0
M  V30 11053 H 1042.52 -0.856584 0.406163 0
M  V30 11054 H 1042.23 -3.38602 0.950858 0
M  V30 11055 H 1042.1 -3.69207 -0.772406 0
M  V30 11056 H 1044.49 -2.74783 -1.07601 0
M  V30 11057 H 1044.57 -2.46886 0.66939 0
M  V30 11058 H 1044.21 -4.9666 1.06258 0
M  V30 11059 H 1044.14 -5.21933 -0.699528 0
M  V30 11060 H 1046.63 -3.7777 -0.099121 0
M  V30 11061 H 1046.95 -7.71641 0.423032 0
M  V30 11062 H 1045.29 -6.93996 0.373504 0
M  V30 11063 H 1048.48 -4.68084 -0.0385356 0
M  V30 11064 H 1048.65 -6.47693 0.199342 0
M  V30 11065 N 1042.06 0.170153 -1.56679 0
M  V30 11066 C 1042.99 1.23945 -1.91606 0
M  V30 11067 C 1043.97 1.42725 -0.779004 0
M  V30 11068 O 1045.16 1.57712 -1.03243 0
M  V30 11069 C 1042.28 2.60222 -2.168 0
M  V30 11070 C 1041.33 2.58172 -3.39484 0
M  V30 11071 S 1042.16 2.0714 -4.93815 0
M  V30 11072 C 1043.32 3.45192 -5.22105 0
M  V30 11073 H 1043.55 0.941345 -2.82004 0
M  V30 11074 H 1041.08 0.374771 -1.49783 0
M  V30 11075 H 1043.04 3.38656 -2.31996 0
M  V30 11076 H 1041.7 2.87232 -1.27107 0
M  V30 11077 H 1040.9 3.58435 -3.54317 0
M  V30 11078 H 1040.5 1.87834 -3.2341 0
M  V30 11079 H 1042.79 4.41194 -5.14154 0
M  V30 11080 H 1043.73 3.35233 -6.23718 0
M  V30 11081 H 1044.14 3.41257 -4.49671 0
M  V30 11082 N 1043.54 1.5137 0.438746 0
M  V30 11083 C 1044.95 1.39514 0.775116 0
M  V30 11084 C 1045.15 0.47638 1.95788 0
M  V30 11085 O 1044.21 -0.0689832 2.52406 0
M  V30 11086 C 1045.52 2.81517 1.05681 0
M  V30 11087 C 1047.07 2.90658 1.16133 0
M  V30 11088 C 1047.55 4.33566 1.47597 0
M  V30 11089 N 1049.04 4.36665 1.54524 0
M  V30 11090 C 1049.77 5.4427 1.80438 0
M  V30 11091 N 1049.27 6.62037 2.04154 0
M  V30 11092 N 1051.06 5.31749 1.82208 0
M  V30 11093 H 1043.21 2.09657 -0.340237 0
M  V30 11094 H 1045.48 0.943736 -0.0898115 0
M  V30 11095 H 1045.18 3.50734 0.260441 0
M  V30 11096 H 1045.06 3.20757 1.98481 0
M  V30 11097 H 1047.44 2.2164 1.94833 0
M  V30 11098 H 1047.52 2.54917 0.212376 0
M  V30 11099 H 1047.17 5.03133 0.694251 0
M  V30 11100 H 1047.1 4.66819 2.43696 0
M  V30 11101 H 1049.59 3.51761 1.38105 0
M  V30 11102 H 1049.9 7.39838 2.23293 0
M  V30 11103 H 1048.25 6.65155 2.01479 0
M  V30 11104 H 1051.44 4.3873 1.63198 0
M  V30 11105 H 1051.61 6.15689 2.02067 0
M  V30 11106 N 1045.02 -0.694098 1.41492 0
M  V30 11107 C 1046.43 -1.00487 1.23994 0
M  V30 11108 C 1046.63 -2.01078 0.130346 0
M  V30 11109 O 1045.69 -2.47403 -0.504775 0
M  V30 11110 C 1047 -1.52808 2.58979 0
M  V30 11111 C 1048.55 -1.64684 2.66173 0
M  V30 11112 C 1049.02 -2.20406 4.01479 0
M  V30 11113 N 1050.52 -2.27765 4.03333 0
M  V30 11114 C 1051.25 -2.7191 5.04829 0
M  V30 11115 N 1050.75 -3.1565 6.16714 0
M  V30 11116 N 1052.54 -2.71487 4.9219 0
M  V30 11117 H 1044.69 -0.027746 2.12382 0
M  V30 11118 H 1046.95 -0.0748741 0.945039 0
M  V30 11119 H 1046.66 -0.863519 3.40934 0
M  V30 11120 H 1046.53 -2.50998 2.81566 0
M  V30 11121 H 1048.92 -2.30251 1.84576 0
M  V30 11122 H 1049 -0.65035 2.47395 0
M  V30 11123 H 1048.65 -1.55454 4.83525 0
M  V30 11124 H 1048.58 -3.2081 4.17599 0
M  V30 11125 H 1051.07 -1.96899 3.22551 0
M  V30 11126 H 1051.38 -3.47966 6.90029 0
M  V30 11127 H 1049.72 -3.13555 6.20248 0
M  V30 11128 H 1052.92 -2.36666 4.03865 0
M  V30 11129 H 1053.09 -3.05573 5.71427 0
M  V30 11130 N 1046.49 -1.27344 -0.928501 0
M  V30 11131 C 1047.46 -1.10043 -2.01055 0
M  V30 11132 C 1048.46 -0.0446793 -1.60738 0
M  V30 11133 O 1049.65 -0.289202 -1.71783 0
M  V30 11134 C 1046.78 -0.676559 -3.34119 0
M  V30 11135 H 1047.97 -2.06126 -2.17835 0
M  V30 11136 H 1045.53 -1.10121 -1.10919 0
M  V30 11137 H 1046.26 0.285697 -3.23039 0
M  V30 11138 H 1046.05 -1.43903 -3.64739 0
M  V30 11139 H 1047.54 -0.577725 -4.13584 0
M  V30 11140 N 1047.97 1.13488 -1.09353 0
M  V30 11141 C 1049.21 1.86397 -0.83877 0
M  V30 11142 C 1049.58 1.81568 0.624259 0
M  V30 11143 O 1050.78 2.49709 0.994923 0
M  V30 11144 C 1049.05 3.30583 -1.35828 0
M  V30 11145 S 1050.61 4.20995 -1.23728 0
M  V30 11146 H 1047.43 0.643022 -0.303387 0
M  V30 11147 H 1050.03 1.36788 -1.39676 0
M  V30 11148 H 1048.73 3.31652 -2.41734 0
M  V30 11149 H 1048.26 3.85255 -0.796386 0
M  V30 11150 H 1050.28 4.95845 -0.187745 0
M  V30 11151 N 1049.45 0.880621 1.30701 0
M  V30 11152 C 1050.69 0.503519 1.98101 0
M  V30 11153 C 1051.06 -0.929075 1.68024 0
M  V30 11154 O 1052.26 -1.41208 2.28722 0
M  V30 11155 C 1050.53 0.765652 3.49102 0
M  V30 11156 S 1052.09 0.490001 4.36056 0
M  V30 11157 H 1048.9 0.187522 0.685825 0
M  V30 11158 H 1051.51 1.13895 1.58897 0
M  V30 11159 H 1050.21 1.80688 3.68484 0
M  V30 11160 H 1049.74 0.117616 3.93224 0
M  V30 11161 H 1051.76 -0.673236 4.91612 0
M  V30 11162 N 1050.93 -1.4397 0.641131 0
M  V30 11163 C 1052.18 -2.01946 0.149629 0
M  V30 11164 C 1052.5 -1.50496 -1.23212 0
M  V30 11165 O 1051.76 -0.683453 -1.83378 0
M  V30 11166 C 1052.06 -3.5727 0.0963368 0
M  V30 11167 C 1051.72 -4.28016 1.4182 0
M  V30 11168 C 1050.39 -4.47059 1.78021 0
M  V30 11169 C 1052.74 -4.68183 2.29028 0
M  V30 11170 C 1050.07 -5.03532 3.01119 0
M  V30 11171 C 1052.42 -5.26019 3.51406 0
M  V30 11172 C 1051.08 -5.4328 3.87818 0
M  V30 11173 H 1050.35 -0.738974 0.0547531 0
M  V30 11174 H 1053 -1.72605 0.829436 0
M  V30 11175 H 1051.3 -3.86083 -0.666879 0
M  V30 11176 H 1053 -3.99871 -0.300635 0
M  V30 11177 H 1049.59 -4.13531 1.12651 0
M  V30 11178 H 1053.78 -4.53175 2.02353 0
M  V30 11179 H 1049.03 -5.15082 3.29395 0
M  V30 11180 H 1053.21 -5.56092 4.19208 0
M  V30 11181 H 1050.83 -5.86805 4.83284 0
M  V30 11182 N 1052.41 -0.382291 -1.52893 0
M  V30 11183 C 1053.68 0.259354 -1.93873 0
M  V30 11184 C 1054.06 1.64964 -1.3172 0
M  V30 11185 O 1053.41 2.23345 -0.482611 0
M  V30 11186 C 1053.62 0.292765 -3.4777 0
M  V30 11187 C 1054.97 0.525095 -4.21341 0
M  V30 11188 O 1055.99 0.373272 -3.54239 0
M  V30 11189 O 1054.85 0.822004 -5.40283 0
M  V30 11190 H 1051.95 0.159422 -0.811489 0
M  V30 11191 H 1054.49 -0.436289 -1.63996 0
M  V30 11192 H 1053.27 -0.681341 -3.85323 0
M  V30 11193 H 1052.89 1.03362 -3.8393 0
M  V30 11194 N 1053.89 1.57202 -0.111913 0
M  V30 11195 C 1055.13 1.96834 0.550967 0
M  V30 11196 C 1055.49 0.993502 1.64297 0
M  V30 11197 O 1056.69 1.27894 2.36425 0
M  V30 11198 C 1054.96 3.40805 1.07641 0
M  V30 11199 S 1056.52 4.02445 1.74881 0
M  V30 11200 H 1053.34 0.688021 0.179298 0
M  V30 11201 H 1055.94 1.94522 -0.195312 0
M  V30 11202 H 1054.64 4.09508 0.270377 0
M  V30 11203 H 1054.18 3.46752 1.85814 0
M  V30 11204 H 1056.19 3.92623 3.03416 0
M  V30 11205 N 1055.36 -0.161842 1.56767 0
M  V30 11206 C 1056.61 -0.875192 1.82167 0
M  V30 11207 C 1056.93 -1.82367 0.690444 0
M  V30 11208 O 1056.2 -1.93756 -0.289023 0
M  V30 11209 H 1054.78 -0.326178 0.672024 0
M  V30 11210 H 1057.44 -0.159392 1.94247 0
M  V30 11211 H 1056.54 -1.44639 2.76561 0
M  V30 11212 N 1056.84 -1.516 -0.430713 0
M  V30 11213 C 1058.26 -1.39923 -0.767706 0
M  V30 11214 C 1058.46 -0.486756 -1.95532 0
M  V30 11215 O 1057.51 0.0555965 -2.52439 0
M  V30 11216 C 1058.83 -2.82074 -1.04187 0
M  V30 11217 C 1060.37 -2.9127 -1.1459 0
M  V30 11218 C 1060.85 -4.34342 -1.45295 0
M  V30 11219 N 1062.34 -4.37479 -1.52206 0
M  V30 11220 C 1063.08 -5.45219 -1.77549 0
M  V30 11221 N 1062.57 -6.6311 -2.0064 0
M  V30 11222 N 1064.36 -5.32707 -1.79386 0
M  V30 11223 H 1056.52 -2.09474 0.351351 0
M  V30 11224 H 1058.78 -0.943247 0.0948151 0
M  V30 11225 H 1058.48 -3.50868 -0.241837 0
M  V30 11226 H 1058.36 -3.21805 -1.96777 0
M  V30 11227 H 1060.75 -2.2267 -1.93655 0
M  V30 11228 H 1060.83 -2.55026 -0.198854 0
M  V30 11229 H 1060.47 -5.03494 -0.667559 0
M  V30 11230 H 1060.4 -4.68105 -2.41217 0
M  V30 11231 H 1062.89 -3.52488 -1.36237 0
M  V30 11232 H 1063.2 -7.41012 -2.19366 0
M  V30 11233 H 1061.55 -6.66214 -1.97948 0
M  V30 11234 H 1064.74 -4.39589 -1.60869 0
M  V30 11235 H 1064.91 -6.16752 -1.98799 0
M  V30 11236 N 1058.32 0.686584 -1.41858 0
M  V30 11237 C 1059.54 1.4802 -1.45275 0
M  V30 11238 C 1059.97 1.87997 -0.0621297 0
M  V30 11239 O 1059.33 1.55226 0.936733 0
M  V30 11240 C 1059.38 2.7133 -2.37513 0
M  V30 11241 O 1058.48 3.69159 -1.83836 0
M  V30 11242 H 1057.82 0.445152 -0.492682 0
M  V30 11243 H 1060.35 0.843161 -1.86419 0
M  V30 11244 H 1060.36 3.19537 -2.53693 0
M  V30 11245 H 1059.04 2.41571 -3.3855 0
M  V30 11246 H 1057.61 3.28134 -1.77151 0
M  V30 11247 N 1059.8 1.27835 0.921735 0
M  V30 11248 C 1060.71 1.12904 2.05645 0
M  V30 11249 C 1061.72 0.0575704 1.73905 0
M  V30 11250 O 1062.9 0.265261 1.99645 0
M  V30 11251 C 1059.96 0.783957 3.3772 0
M  V30 11252 C 1059.03 1.93694 3.8312 0
M  V30 11253 C 1058.26 1.60823 5.08893 0
M  V30 11254 O 1058.48 0.518873 5.68035 0
M  V30 11255 O 1057.42 2.44932 5.49811 0
M  V30 11256 H 1061.24 2.08143 2.21157 0
M  V30 11257 H 1058.83 1.07078 1.04185 0
M  V30 11258 H 1060.71 0.605107 4.17033 0
M  V30 11259 H 1059.38 -0.138849 3.23402 0
M  V30 11260 H 1058.29 2.17089 3.04669 0
M  V30 11261 H 1059.62 2.84016 4.0199 0
M  V30 11262 N 1061.28 -1.12907 1.09954 0
M  V30 11263 C 1062.69 -1.363 0.830326 0
M  V30 11264 C 1062.89 -1.93772 -0.552694 0
M  V30 11265 O 1061.95 -2.1607 -1.30652 0
M  V30 11266 C 1063.26 -2.30925 1.92598 0
M  V30 11267 C 1064.81 -2.44528 1.95385 0
M  V30 11268 C 1065.28 -3.42464 3.0411 0
M  V30 11269 N 1066.77 -3.50018 3.03384 0
M  V30 11270 C 1067.51 -4.25693 3.84152 0
M  V30 11271 N 1067.01 -5.04476 4.74843 0
M  V30 11272 N 1068.8 -4.21049 3.7239 0
M  V30 11273 H 1060.95 -0.739571 1.99108 0
M  V30 11274 H 1063.21 -0.387983 0.86497 0
M  V30 11275 H 1062.92 -1.95861 2.92115 0
M  V30 11276 H 1062.79 -3.30997 1.80889 0
M  V30 11277 H 1065.18 -2.78875 0.965037 0
M  V30 11278 H 1065.26 -1.44361 2.11172 0
M  V30 11279 H 1064.9 -3.08847 4.03207 0
M  V30 11280 H 1064.83 -4.42448 2.85565 0
M  V30 11281 H 1067.33 -2.93809 2.37665 0
M  V30 11282 H 1067.64 -5.59541 5.33042 0
M  V30 11283 H 1065.98 -5.0369 4.78875 0
M  V30 11284 H 1069.17 -3.5858 3.00895 0
M  V30 11285 H 1069.35 -4.79771 4.35572 0
M  V30 11286 N 1062.75 -0.88754 -1.30232 0
M  V30 11287 C 1064.03 -0.427249 -1.90877 0
M  V30 11288 C 1064.41 1.0922 -1.80649 0
M  V30 11289 O 1063.76 1.92866 -1.22536 0
M  V30 11290 C 1063.97 -0.928219 -3.3643 0
M  V30 11291 C 1065.32 -0.964706 -4.13496 0
M  V30 11292 O 1066.34 -0.875057 -3.45284 0
M  V30 11293 O 1065.2 -1.09754 -5.35366 0
M  V30 11294 H 1062.29 -0.131107 -0.816541 0
M  V30 11295 H 1064.84 -0.976609 -1.38782 0
M  V30 11296 H 1063.61 -1.97209 -3.37971 0
M  V30 11297 H 1063.23 -0.358169 -3.95983 0
M  V30 11298 N 1064.23 1.43628 -0.648757 0
M  V30 11299 C 1065.47 2.03742 -0.163878 0
M  V30 11300 C 1065.84 1.50047 1.19791 0
M  V30 11301 O 1067.04 2.01777 1.77594 0
M  V30 11302 C 1065.31 3.57001 -0.168849 0
M  V30 11303 S 1066.87 4.38094 0.248835 0
M  V30 11304 H 1063.69 0.70757 -0.0697515 0
M  V30 11305 H 1066.29 1.75759 -0.856094 0
M  V30 11306 H 1064.99 3.93583 -1.16277 0
M  V30 11307 H 1064.52 3.8962 0.544048 0
M  V30 11308 H 1066.54 4.73338 1.48882 0
M  V30 11309 N 1065.71 0.390394 1.52688 0
M  V30 11310 C 1066.94 -0.194013 2.06491 0
M  V30 11311 C 1067.36 -1.3965 1.26014 0
M  V30 11312 O 1066.72 -1.79038 0.285468 0
M  V30 11313 C 1066.77 -0.541306 3.56514 0
M  V30 11314 O 1065.87 -1.63509 3.78601 0
M  V30 11315 H 1065.21 -0.0223608 0.663623 0
M  V30 11316 H 1067.74 0.558179 1.96839 0
M  V30 11317 H 1067.75 -0.805301 3.99974 0
M  V30 11318 H 1066.43 0.337828 4.14526 0
M  V30 11319 H 1065 -1.36473 3.4703 0
M  V30 11320 N 1067.19 -1.57141 0.120249 0
M  V30 11321 C 1068.43 -1.97124 -0.540521 0
M  V30 11322 C 1068.79 -1.0022 -1.63768 0
M  V30 11323 O 1069.99 -1.29146 -2.35743 0
M  V30 11324 C 1068.26 -3.41371 -1.05833 0
M  V30 11325 S 1069.82 -4.03367 -1.72745 0
M  V30 11326 H 1066.64 -0.688962 -0.175646 0
M  V30 11327 H 1069.24 -1.94416 0.205625 0
M  V30 11328 H 1067.95 -4.09646 -0.248656 0
M  V30 11329 H 1067.48 -3.47732 -1.83972 0
M  V30 11330 H 1069.49 -3.94227 -3.0133 0
M  V30 11331 N 1068.67 0.153526 -1.5685 0
M  V30 11332 C 1069.6 1.21906 -1.9291 0
M  V30 11333 C 1070.58 1.4189 -0.794098 0
M  V30 11334 O 1071.76 1.56609 -1.0491 0
M  V30 11335 C 1068.89 2.57908 -2.19548 0
M  V30 11336 C 1067.93 2.54557 -3.42203 0
M  V30 11337 S 1068.77 2.01891 -4.95984 0
M  V30 11338 C 1069.92 3.39635 -5.25737 0
M  V30 11339 H 1070.16 0.911382 -2.82986 0
M  V30 11340 H 1067.69 0.358863 -1.50172 0
M  V30 11341 H 1069.65 3.36177 -2.35575 0
M  V30 11342 H 1068.31 2.85868 -1.30147 0
M  V30 11343 H 1067.5 3.54657 -3.58098 0
M  V30 11344 H 1067.1 1.84393 -3.25385 0
M  V30 11345 H 1069.4 4.35716 -5.18804 0
M  V30 11346 H 1070.34 3.28599 -6.27239 0
M  V30 11347 H 1070.75 3.36469 -4.53265 0
M  V30 11348 N 1070.14 1.51827 0.422667 0
M  V30 11349 C 1071.37 1.69337 1.19748 0
M  V30 11350 C 1071.79 0.396312 1.83878 0
M  V30 11351 O 1071.15 -0.644976 1.6944 0
M  V30 11352 C 1071.2 2.82082 2.24637 0
M  V30 11353 O 1070.3 2.46708 3.30468 0
M  V30 11354 H 1069.65 0.564154 0.35018 0
M  V30 11355 H 1072.18 1.98465 0.497289 0
M  V30 11356 H 1072.19 3.06599 2.69186 0
M  V30 11357 H 1070.86 3.76195 1.77341 0
M  V30 11358 H 1069.44 2.32815 2.91293 0
M  V30 11359 N 1071.62 -0.679052 1.4222 0
M  V30 11360 C 1072.87 -1.43627 1.42182 0
M  V30 11361 C 1073.19 -1.94964 0.0377095 0
M  V30 11362 O 1072.46 -1.72788 -0.923098 0
M  V30 11363 H 1071.04 -0.532972 0.523402 0
M  V30 11364 H 1073.7 -0.802649 1.77605 0
M  V30 11365 H 1072.8 -2.29137 2.11902 0
M  V30 11366 N 1073.1 -1.28322 -0.914942 0
M  V30 11367 C 1074.52 -1.06003 -1.19313 0
M  V30 11368 C 1074.72 0.198366 -2.00521 0
M  V30 11369 O 1073.77 0.900364 -2.35902 0
M  V30 11370 C 1075.09 -2.30684 -1.92887 0
M  V30 11371 C 1076.63 -2.35851 -2.05775 0
M  V30 11372 C 1077.11 -3.60295 -2.82757 0
M  V30 11373 N 1078.6 -3.60928 -2.9032 0
M  V30 11374 C 1079.33 -4.53894 -3.50383 0
M  V30 11375 N 1078.83 -5.57178 -4.11734 0
M  V30 11376 N 1080.62 -4.41492 -3.4791 0
M  V30 11377 H 1072.77 -2.09104 -0.372735 0
M  V30 11378 H 1075.04 -0.920285 -0.227552 0
M  V30 11379 H 1074.74 -3.22355 -1.40643 0
M  V30 11380 H 1074.62 -2.37003 -2.93444 0
M  V30 11381 H 1077 -1.44678 -2.57201 0
M  V30 11382 H 1077.09 -2.33526 -1.04399 0
M  V30 11383 H 1076.73 -4.51811 -2.32011 0
M  V30 11384 H 1076.66 -3.59873 -3.84446 0
M  V30 11385 H 1079.15 -2.8624 -2.46729 0
M  V30 11386 H 1079.46 -6.24261 -4.55541 0
M  V30 11387 H 1077.81 -5.61005 -4.10242 0
M  V30 11388 H 1081 -3.60005 -2.99189 0
M  V30 11389 H 1081.17 -5.14132 -3.94427 0
M  V30 11390 N 1074.58 1.12322 -1.10551 0
M  V30 11391 C 1075.82 1.8413 -0.849932 0
M  V30 11392 C 1076.16 1.83938 0.622946 0
M  V30 11393 O 1075.43 1.28579 1.45937 0
M  V30 11394 C 1075.72 3.31751 -1.40048 0
M  V30 11395 C 1075.57 3.40391 -2.9403 0
M  V30 11396 C 1076.89 4.27543 -1.04379 0
M  V30 11397 H 1074.01 0.668533 -0.310213 0
M  V30 11398 H 1076.65 1.31766 -1.36886 0
M  V30 11399 H 1074.8 3.76475 -0.959102 0
M  V30 11400 H 1076.47 3.04294 -3.46703 0
M  V30 11401 H 1074.71 2.809 -3.30571 0
M  V30 11402 H 1075.38 4.44252 -3.27635 0
M  V30 11403 H 1077.86 3.90951 -1.42466 0
M  V30 11404 H 1076.74 5.2924 -1.4559 0
M  V30 11405 H 1077 4.42075 0.0466316 0
M  V30 11406 N 1076.06 0.894434 1.2976 0
M  V30 11407 C 1077.47 0.589778 1.48303 0
M  V30 11408 C 1077.67 -0.870085 1.81746 0
M  V30 11409 O 1076.73 -1.65065 1.91076 0
M  V30 11410 C 1078.04 1.51107 2.59975 0
M  V30 11411 C 1079.59 1.51571 2.73853 0
M  V30 11412 C 1080.06 2.42316 3.88648 0
M  V30 11413 N 1081.56 2.40333 3.95973 0
M  V30 11414 C 1082.29 3.07254 4.84131 0
M  V30 11415 N 1081.79 3.83435 5.77018 0
M  V30 11416 N 1083.58 2.96438 4.77578 0
M  V30 11417 H 1075.73 1.83871 1.06327 0
M  V30 11418 H 1077.99 0.78758 0.527657 0
M  V30 11419 H 1077.7 2.55097 2.42112 0
M  V30 11420 H 1077.57 1.22767 3.56662 0
M  V30 11421 H 1079.96 0.483277 2.91116 0
M  V30 11422 H 1080.04 1.83946 1.77757 0
M  V30 11423 H 1079.69 3.4565 3.72141 0
M  V30 11424 H 1079.62 2.07252 4.84101 0
M  V30 11425 H 1082.11 1.84979 3.29532 0
M  V30 11426 H 1082.42 4.31565 6.4107 0
M  V30 11427 H 1080.76 3.87542 5.7692 0
M  V30 11428 H 1083.96 2.36442 4.03996 0
M  V30 11429 H 1084.13 3.48867 5.46073 0
M  V30 11430 N 1077.53 -1.43282 0.656365 0
M  V30 11431 C 1078.78 -2.01378 0.170702 0
M  V30 11432 C 1079.1 -1.52063 -1.22073 0
M  V30 11433 O 1078.37 -0.73456 -1.81607 0
M  V30 11434 H 1076.95 -0.744577 0.0601168 0
M  V30 11435 H 1079.62 -1.75449 0.848739 0
M  V30 11436 H 1078.71 -3.11701 0.157745 0
M  V30 11437 N 1079.01 -0.398486 -1.52479 0
M  V30 11438 C 1079.96 0.447001 -2.28264 0
M  V30 11439 C 1080.96 1.05511 -1.32529 0
M  V30 11440 O 1082.16 0.994528 -1.5003 0
M  V30 11441 H 1078.54 0.162919 -0.73414 0
M  V30 11442 H 1080.51 -0.213534 -2.97635 0
M  V30 11443 C 1079.26 1.55724 -3.10879 0
M  V30 11444 H 1078.58 1.09864 -3.84409 0
M  V30 11445 H 1080.02 2.12286 -3.67029 0
M  V30 11446 C 1078.48 2.51853 -2.23768 0
M  V30 11447 O 1079.01 3.55483 -1.87069 0
M  V30 11448 N 1077.21 2.2181 -1.87746 0
M  V30 11449 H 1076.76 1.3757 -2.17789 0
M  V30 11450 H 1076.72 2.86376 -1.29753 0
M  V30 11451 N 1080.49 1.57075 -0.12858 0
M  V30 11452 C 1081.74 1.9581 0.527868 0
M  V30 11453 C 1082.07 1.01253 1.65715 0
M  V30 11454 O 1081.35 0.0514853 1.94432 0
M  V30 11455 C 1081.63 3.44406 1.05151 0
M  V30 11456 C 1081.48 4.49737 -0.0750113 0
M  V30 11457 C 1082.8 3.95069 1.9393 0
M  V30 11458 H 1079.92 0.711978 0.19041 0
M  V30 11459 H 1082.56 1.88879 -0.206081 0
M  V30 11460 H 1080.71 3.50443 1.67697 0
M  V30 11461 H 1082.38 4.55793 -0.710685 0
M  V30 11462 H 1080.63 4.27497 -0.736809 0
M  V30 11463 H 1081.3 5.50996 0.332779 0
M  V30 11464 H 1083.77 3.91395 1.41241 0
M  V30 11465 H 1082.65 4.99542 2.27484 0
M  V30 11466 H 1082.91 3.36329 2.86941 0
M  V30 11467 N 1081.97 -0.145205 1.5693 0
M  V30 11468 C 1083.25 -0.88631 1.74367 0
M  V30 11469 C 1083.63 -1.99259 0.697081 0
M  V30 11470 O 1082.97 -2.26732 -0.28368 0
M  V30 11471 C 1083.18 -1.42712 3.18488 0
M  V30 11472 C 1084.53 -1.88982 3.80225 0
M  V30 11473 O 1085.56 -1.5245 3.21928 0
M  V30 11474 O 1084.42 -2.56361 4.8264 0
M  V30 11475 H 1081.51 -0.418979 0.713011 0
M  V30 11476 H 1084.06 -0.130991 1.69194 0
M  V30 11477 H 1082.83 -0.632165 3.8616 0
M  V30 11478 H 1082.45 -2.24589 3.28094 0
M  V30 11479 N 1083.45 -1.52049 -0.414609 0
M  V30 11480 C 1084.68 -1.69679 -1.18392 0
M  V30 11481 C 1085.09 -0.403881 -1.84429 0
M  V30 11482 O 1084.45 0.619636 -1.71659 0
M  V30 11483 C 1084.5 -2.82855 -2.25112 0
M  V30 11484 O 1084.22 -4.07138 -1.61772 0
M  V30 11485 C 1085.72 -3.11948 -3.14965 0
M  V30 11486 H 1082.94 -0.56879 -0.355977 0
M  V30 11487 H 1085.48 -1.9858 -0.488505 0
M  V30 11488 H 1083.64 -2.56488 -2.90332 0
M  V30 11489 H 1084.05 -4.70163 -2.32479 0
M  V30 11490 H 1085.53 -3.94665 -3.85932 0
M  V30 11491 H 1086 -2.25276 -3.77024 0
M  V30 11492 H 1086.61 -3.40059 -2.55421 0
M  V30 11493 N 1084.93 0.6715 -1.42579 0
M  V30 11494 C 1085.86 1.79693 -1.49107 0
M  V30 11495 C 1086.84 1.66516 -0.347338 0
M  V30 11496 O 1088.02 1.85887 -0.562094 0
M  V30 11497 C 1085.15 3.1801 -1.39596 0
M  V30 11498 C 1084.11 3.45926 -2.5203 0
M  V30 11499 C 1083.43 4.83852 -2.27577 0
M  V30 11500 C 1084.73 3.4249 -3.94333 0
M  V30 11501 H 1086.43 1.74486 -2.433 0
M  V30 11502 H 1083.97 0.838042 -1.17102 0
M  V30 11503 H 1085.92 3.96478 -1.42771 0
M  V30 11504 H 1084.65 3.23901 -0.418989 0
M  V30 11505 H 1083.31 2.6982 -2.48178 0
M  V30 11506 H 1082.96 4.86398 -1.28165 0
M  V30 11507 H 1082.66 5.03493 -3.02934 0
M  V30 11508 H 1084.18 5.646 -2.32506 0
M  V30 11509 H 1085.59 4.10922 -3.9977 0
M  V30 11510 H 1083.99 3.73666 -4.69568 0
M  V30 11511 H 1085.06 2.41002 -4.20768 0
M  V30 11512 N 1086.4 1.28806 0.908124 0
M  V30 11513 C 1087.31 1.15079 2.04436 0
M  V30 11514 C 1088.33 0.076012 1.73834 0
M  V30 11515 O 1089.51 0.286421 1.99353 0
M  V30 11516 C 1086.57 0.819733 3.3687 0
M  V30 11517 C 1085.63 1.97746 3.81045 0
M  V30 11518 C 1084.86 1.66211 5.07158 0
M  V30 11519 O 1085.09 0.579092 5.67453 0
M  V30 11520 O 1084.02 2.5075 5.47182 0
M  V30 11521 H 1087.85 2.10477 2.18937 0
M  V30 11522 H 1085.43 1.08177 1.03044 0
M  V30 11523 H 1087.31 0.649304 4.16368 0
M  V30 11524 H 1085.99 -0.10454 3.23531 0
M  V30 11525 H 1084.9 2.20308 3.02349 0
M  V30 11526 H 1086.23 2.88264 3.98955 0
M  V30 11527 N 1087.88 -1.11734 1.11145 0
M  V30 11528 C 1089.3 -1.35412 0.844736 0
M  V30 11529 C 1089.5 -1.94347 -0.532111 0
M  V30 11530 O 1088.55 -2.17443 -1.28353 0
M  V30 11531 C 1089.87 -2.28869 1.95037 0
M  V30 11532 C 1091.41 -2.42442 1.97967 0
M  V30 11533 C 1091.89 -3.39219 3.07725 0
M  V30 11534 N 1093.38 -3.4678 3.07079 0
M  V30 11535 C 1094.12 -4.21595 3.88646 0
M  V30 11536 N 1093.61 -4.99411 4.80167 0
M  V30 11537 N 1095.4 -4.17075 3.76835 0
M  V30 11538 H 1087.56 -0.718412 1.99881 0
M  V30 11539 H 1089.82 -0.378787 0.869037 0
M  V30 11540 H 1089.52 -1.92752 2.94176 0
M  V30 11541 H 1089.4 -3.2906 1.84389 0
M  V30 11542 H 1091.79 -2.77835 0.994561 0
M  V30 11543 H 1091.87 -1.42113 2.12691 0
M  V30 11544 H 1091.51 -3.04553 4.0646 0
M  V30 11545 H 1091.44 -4.39394 2.90242 0
M  V30 11546 H 1093.93 -2.91272 2.40767 0
M  V30 11547 H 1094.24 -5.53856 5.38946 0
M  V30 11548 H 1092.59 -4.98582 4.84191 0
M  V30 11549 H 1095.78 -3.55369 3.04681 0
M  V30 11550 H 1095.95 -4.75125 4.40637 0
M  V30 11551 N 1089.36 -0.901303 -1.29284 0
M  V30 11552 C 1090.32 -0.385081 -2.25942 0
M  V30 11553 C 1091.32 0.481626 -1.53418 0
M  V30 11554 O 1092.51 0.286451 -1.71829 0
M  V30 11555 C 1089.64 0.449319 -3.37926 0
M  V30 11556 H 1090.84 -1.23877 -2.7312 0
M  V30 11557 H 1088.39 -0.679586 -1.40753 0
M  V30 11558 H 1089.13 1.32292 -2.9609 0
M  V30 11559 H 1088.91 -0.171731 -3.91724 0
M  V30 11560 H 1090.4 0.801746 -4.09831 0
M  V30 11561 N 1090.84 1.42931 -0.663954 0
M  V30 11562 C 1092.08 2.01683 -0.181738 0
M  V30 11563 C 1092.41 1.52437 1.20802 0
M  V30 11564 O 1091.67 0.71254 1.82267 0
M  V30 11565 C 1091.97 3.57072 -0.153163 0
M  V30 11566 C 1091.63 4.25706 -1.48612 0
M  V30 11567 C 1090.29 4.4417 -1.85111 0
M  V30 11568 C 1092.65 4.6448 -2.36448 0
M  V30 11569 C 1089.97 4.98677 -3.09092 0
M  V30 11570 C 1092.33 5.20362 -3.5973 0
M  V30 11571 C 1090.99 5.37041 -3.96412 0
M  V30 11572 H 1090.26 0.73801 -0.0665026 0
M  V30 11573 H 1092.91 1.71264 -0.856791 0
M  V30 11574 H 1091.21 3.87095 0.605372 0
M  V30 11575 H 1092.91 4.00299 0.236981 0
M  V30 11576 H 1089.5 4.11686 -1.19215 0
M  V30 11577 H 1093.68 4.49898 -2.09537 0
M  V30 11578 H 1088.94 5.09776 -3.37547 0
M  V30 11579 H 1093.11 5.49352 -4.28001 0
M  V30 11580 H 1090.74 5.79042 -4.92559 0
M  V30 11581 N 1092.32 0.406567 1.52266 0
M  V30 11582 C 1093.73 -0.063607 1.86592 0
M  V30 11583 C 1094.08 -1.4466 1.32544 0
M  V30 11584 O 1093.2 -2.05971 0.663692 0
M  V30 11585 C 1093.8 -0.122198 3.3858 0
M  V30 11586 C 1092.36 -0.536701 3.72554 0
M  V30 11587 C 1091.5 0.290422 2.75775 0
M  V30 11588 H 1094.45 0.623738 1.45929 0
M  V30 11589 H 1094.48 -0.937964 3.68758 0
M  V30 11590 H 1093.99 0.884495 3.77887 0
M  V30 11591 H 1092.09 -1.55013 3.38824 0
M  V30 11592 H 1092.2 -0.282867 4.78264 0
M  V30 11593 H 1090.57 -0.246864 2.53501 0
M  V30 11594 H 1091.35 1.29541 3.17921 0
M  V30 11595 N 1093.79 -1.57004 0.136909 0
M  V30 11596 C 1094.72 -2.19262 -0.802902 0
M  V30 11597 C 1095.71 -1.13786 -1.26439 0
M  V30 11598 O 1096.89 -1.42091 -1.32377 0
M  V30 11599 C 1094.02 -2.80624 -2.04615 0
M  V30 11600 C 1092.97 -3.91839 -1.72181 0
M  V30 11601 C 1092.3 -4.4009 -3.03686 0
M  V30 11602 C 1093.6 -5.13095 -0.976249 0
M  V30 11603 H 1095.29 -2.98049 -0.28406 0
M  V30 11604 H 1092.84 -1.43364 -0.135189 0
M  V30 11605 H 1094.79 -3.22842 -2.70834 0
M  V30 11606 H 1093.52 -1.99153 -2.58855 0
M  V30 11607 H 1092.18 -3.50224 -1.08344 0
M  V30 11608 H 1091.82 -3.55454 -3.55896 0
M  V30 11609 H 1091.52 -5.15098 -2.82751 0
M  V30 11610 H 1093.05 -4.84971 -3.70993 0
M  V30 11611 H 1094.46 -5.5222 -1.54033 0
M  V30 11612 H 1092.86 -5.93801 -0.867214 0
M  V30 11613 H 1093.93 -4.84888 0.0338488 0
M  V30 11614 N 1095.27 0.136881 -1.57004 0
M  V30 11615 C 1096.5 0.866405 -1.88436 0
M  V30 11616 C 1096.92 1.73483 -0.727006 0
M  V30 11617 O 1096.28 1.78398 0.323094 0
M  V30 11618 C 1096.33 1.69059 -3.18514 0
M  V30 11619 O 1095.43 2.79584 -3.03161 0
M  V30 11620 H 1094.77 0.240709 -0.618834 0
M  V30 11621 H 1097.3 0.124653 -2.0422 0
M  V30 11622 H 1097.31 2.08353 -3.50789 0
M  V30 11623 H 1095.99 1.05296 -4.0235 0
M  V30 11624 H 1094.57 2.43623 -2.82315 0
M  V30 11625 N 1096.75 1.52266 0.40654 0
M  V30 11626 C 1097.98 1.70598 1.17945 0
M  V30 11627 C 1098.4 0.415793 1.83447 0
M  V30 11628 O 1097.76 -0.626968 1.70114 0
M  V30 11629 C 1097.81 2.84449 2.21633 0
M  V30 11630 O 1096.91 2.50199 3.27833 0
M  V30 11631 H 1096.25 0.567837 0.344177 0
M  V30 11632 H 1098.78 1.98981 0.476211 0
M  V30 11633 H 1098.79 3.09436 2.65919 0
M  V30 11634 H 1097.47 3.78055 1.73341 0
M  V30 11635 H 1096.04 2.35892 2.88807 0
M  V30 11636 N 1098.23 -0.663929 1.42933 0
M  V30 11637 C 1099.47 -1.42603 1.44195 0
M  V30 11638 C 1099.81 -1.94101 0.0620284 0
M  V30 11639 O 1099.08 -1.71609 -0.91546 0
M  V30 11640 C 1099.37 -2.61522 2.47544 0
M  V30 11641 C 1099.22 -2.15587 3.94769 0
M  V30 11642 C 1100.54 -3.6374 2.47753 0
M  V30 11643 H 1097.66 -0.517189 0.525056 0
M  V30 11644 H 1100.3 -0.75361 1.74415 0
M  V30 11645 H 1098.45 -3.1889 2.21904 0
M  V30 11646 H 1100.12 -1.63303 4.31428 0
M  V30 11647 H 1098.36 -1.47057 4.08114 0
M  V30 11648 H 1099.03 -3.01053 4.62678 0
M  V30 11649 H 1101.51 -3.16111 2.70579 0
M  V30 11650 H 1100.39 -4.44512 3.22025 0
M  V30 11651 H 1100.65 -4.15607 1.50742 0
M  V30 11652 N 1099.71 -1.29285 -0.901281 0
M  V30 11653 C 1100.93 -1.20169 -1.69039 0
M  V30 11654 C 1101.36 0.234509 -1.86632 0
M  V30 11655 O 1100.71 1.16935 -1.38549 0
M  V30 11656 C 1100.76 -1.91852 -3.05328 0
M  V30 11657 O 1099.87 -1.23448 -3.9349 0
M  V30 11658 H 1099.21 -0.416486 -0.517141 0
M  V30 11659 H 1101.74 -1.70826 -1.12603 0
M  V30 11660 H 1101.75 -2.00244 -3.5548 0
M  V30 11661 H 1100.42 -2.96313 -2.91841 0
M  V30 11662 H 1099 -1.23303 -3.51924 0
M  V30 11663 N 1101.18 1.11143 -1.11736 0
M  V30 11664 C 1102.43 1.83219 -0.869413 0
M  V30 11665 C 1102.76 1.84588 0.603402 0
M  V30 11666 O 1102.04 1.30119 1.44566 0
M  V30 11667 C 1102.32 3.30247 -1.43559 0
M  V30 11668 C 1102.17 3.37253 -2.97624 0
M  V30 11669 C 1103.49 4.26412 -1.08907 0
M  V30 11670 H 1100.61 0.665205 -0.317286 0
M  V30 11671 H 1103.25 1.30307 -1.38275 0
M  V30 11672 H 1101.4 3.75437 -0.998978 0
M  V30 11673 H 1103.08 3.00599 -3.49911 0
M  V30 11674 H 1101.32 2.77378 -3.33532 0
M  V30 11675 H 1101.99 4.40752 -3.32328 0
M  V30 11676 H 1104.47 3.89418 -1.46604 0
M  V30 11677 H 1103.34 5.27666 -1.51195 0
M  V30 11678 H 1103.6 4.421 -0.000259009 0
M  V30 11679 N 1102.66 0.908147 1.28804 0
M  V30 11680 C 1103.61 0.382315 2.29437 0
M  V30 11681 C 1104.6 -0.523033 1.61123 0
M  V30 11682 O 1105.81 -0.404898 1.75387 0
M  V30 11683 H 1102.19 0.105022 0.74463 0
M  V30 11684 H 1104.16 1.24425 2.71221 0
M  V30 11685 C 1102.91 -0.367475 3.45753 0
M  V30 11686 H 1102.23 0.319957 3.98518 0
M  V30 11687 H 1103.67 -0.700131 4.1818 0
M  V30 11688 C 1102.13 -1.57329 2.97908 0
M  V30 11689 O 1102.66 -2.67248 2.99902 0
M  V30 11690 N 1100.86 -1.41835 2.53636 0
M  V30 11691 H 1100.41 -0.524099 2.52212 0
M  V30 11692 H 1100.37 -2.22645 2.21984 0
M  V30 11693 N 1104.14 -1.42577 0.671525 0
M  V30 11694 C 1105.42 -1.95222 0.121529 0
M  V30 11695 C 1105.8 -1.61209 -1.36289 0
M  V30 11696 O 1105.15 -0.906561 -2.09747 0
M  V30 11697 C 1105.36 -3.46846 0.387189 0
M  V30 11698 C 1106.7 -4.23525 0.301938 0
M  V30 11699 O 1107.73 -3.54753 0.320755 0
M  V30 11700 O 1106.59 -5.45967 0.241317 0
M  V30 11701 H 1103.68 -0.826999 0.000968615 0
M  V30 11702 H 1106.23 -1.52422 0.746029 0
M  V30 11703 H 1105 -3.64795 1.41563 0
M  V30 11704 H 1104.62 -3.96686 -0.26948 0
M  V30 11705 N 1105.62 -0.414636 -1.52048 0
M  V30 11706 C 1106.86 0.158807 -2.03782 0
M  V30 11707 C 1107.22 1.41912 -1.29325 0
M  V30 11708 O 1108.42 2.07136 -1.71313 0
M  V30 11709 C 1106.69 0.395092 -3.55209 0
M  V30 11710 S 1108.25 0.935193 -4.28719 0
M  V30 11711 H 1105.07 0.0424729 -0.70973 0
M  V30 11712 H 1107.67 -0.568822 -1.87042 0
M  V30 11713 H 1106.38 -0.528875 -4.06978 0
M  V30 11714 H 1105.91 1.15044 -3.76203 0
M  V30 11715 H 1107.92 2.21519 -4.44009 0
M  V30 11716 N 1107.1 1.56929 -0.145233 0
M  V30 11717 C 1108.32 2.00864 0.516564 0
M  V30 11718 C 1108.75 1.02466 1.57741 0
M  V30 11719 O 1108.1 0.000145439 1.813 0
M  V30 11720 C 1108.15 3.43552 1.09563 0
M  V30 11721 O 1107.26 3.4815 2.21055 0
M  V30 11722 H 1106.6 0.651835 0.126521 0
M  V30 11723 H 1109.13 2.0317 -0.241445 0
M  V30 11724 H 1109.14 3.82316 1.42473 0
M  V30 11725 H 1107.81 4.14677 0.318749 0
M  V30 11726 H 1106.39 3.21228 1.89387 0
M  V30 11727 N 1108.58 -0.128553 1.57075 0
M  V30 11728 C 1109.8 -0.85245 1.88523 0
M  V30 11729 C 1110.22 -1.73886 0.735459 0
M  V30 11730 O 1109.58 -1.80114 -0.294113 0
M  V30 11731 C 1109.63 -1.69384 3.19361 0
M  V30 11732 O 1109.35 -0.84313 4.2991 0
M  V30 11733 C 1110.85 -2.52373 3.64449 0
M  V30 11734 H 1108.07 -0.245556 0.624454 0
M  V30 11735 H 1110.61 -0.115807 2.04172 0
M  V30 11736 H 1108.77 -2.38335 3.0541 0
M  V30 11737 H 1109.18 -1.42255 5.0484 0
M  V30 11738 H 1110.66 -3.06955 4.58784 0
M  V30 11739 H 1111.13 -3.29283 2.90636 0
M  V30 11740 H 1111.74 -1.88681 3.81155 0
M  V30 11741 N 1110.05 -1.5248 -0.398459 0
M  V30 11742 C 1111.28 -1.71221 -1.17039 0
M  V30 11743 C 1111.7 -0.425515 -1.83224 0
M  V30 11744 O 1111.06 0.617938 -1.70444 0
M  V30 11745 C 1111.11 -2.8562 -2.20121 0
M  V30 11746 O 1110.21 -2.51934 -3.26501 0
M  V30 11747 H 1109.55 -0.569654 -0.34116 0
M  V30 11748 H 1112.08 -1.99231 -0.465652 0
M  V30 11749 H 1112.09 -3.10842 -2.64275 0
M  V30 11750 H 1110.77 -3.78969 -1.71334 0
M  V30 11751 H 1109.35 -2.3742 -2.87552 0
M  V30 11752 N 1111.53 0.65634 -1.43283 0
M  V30 11753 C 1112.78 1.41627 -1.44734 0
M  V30 11754 C 1113.11 1.94372 -0.0704893 0
M  V30 11755 O 1112.36 1.72511 0.924037 0
M  V30 11756 C 1112.66 2.61688 -2.43421 0
M  V30 11757 C 1112.33 2.2738 -3.8937 0
M  V30 11758 C 1110.99 2.17735 -4.29121 0
M  V30 11759 C 1113.34 1.99863 -4.81357 0
M  V30 11760 C 1110.67 1.78725 -5.58815 0
M  V30 11761 C 1113.02 1.62352 -6.11412 0
M  V30 11762 C 1111.68 1.51231 -6.50143 0
M  V30 11763 H 1110.95 0.51825 -0.529621 0
M  V30 11764 H 1113.6 0.746701 -1.76342 0
M  V30 11765 H 1111.91 3.33763 -2.05206 0
M  V30 11766 H 1113.6 3.19896 -2.41801 0
M  V30 11767 H 1110.19 2.35795 -3.57908 0
M  V30 11768 H 1114.38 2.06237 -4.5142 0
M  V30 11769 H 1109.63 1.68698 -5.87666 0
M  V30 11770 H 1113.81 1.40091 -6.82164 0
M  V30 11771 H 1111.43 1.20774 -7.50545 0
M  V30 11772 N 1113.01 1.29761 0.894412 0
M  V30 11773 C 1114.43 1.07888 1.17611 0
M  V30 11774 C 1114.63 -0.16644 2.00811 0
M  V30 11775 O 1113.68 -0.86272 2.37304 0
M  V30 11776 C 1114.99 2.33723 1.89193 0
M  V30 11777 C 1116.54 2.39095 2.01997 0
M  V30 11778 C 1117.02 3.64747 2.7699 0
M  V30 11779 N 1118.51 3.65501 2.84541 0
M  V30 11780 C 1119.24 4.59411 3.43117 0
M  V30 11781 N 1118.74 5.63657 4.02818 0
M  V30 11782 N 1120.53 4.46971 3.40842 0
M  V30 11783 H 1112.68 2.0967 0.339421 0
M  V30 11784 H 1114.95 0.923788 0.212882 0
M  V30 11785 H 1114.65 3.24551 1.35496 0
M  V30 11786 H 1114.53 2.41642 2.89636 0
M  V30 11787 H 1116.91 1.48751 2.54867 0
M  V30 11788 H 1116.99 2.35158 1.0067 0
M  V30 11789 H 1116.64 4.55445 2.24794 0
M  V30 11790 H 1116.57 3.65944 3.78672 0
M  V30 11791 H 1119.06 2.90129 2.42144 0
M  V30 11792 H 1119.37 6.31429 4.45552 0
M  V30 11793 H 1117.72 5.67461 4.01265 0
M  V30 11794 H 1120.91 3.64719 2.93424 0
M  V30 11795 H 1121.08 5.20341 3.86198 0
M  V30 11796 N 1114.49 -1.10549 1.12324 0
M  V30 11797 C 1115.45 -2.15039 0.793156 0
M  V30 11798 C 1116.45 -1.59651 -0.19192 0
M  V30 11799 O 1117.64 -1.74167 0.0337262 0
M  V30 11800 C 1114.77 -3.40433 0.17842 0
M  V30 11801 H 1115.97 -2.4575 1.71892 0
M  V30 11802 H 1113.52 -1.25892 0.926333 0
M  V30 11803 H 1114.25 -3.15338 -0.757122 0
M  V30 11804 H 1114.04 -3.81921 0.887645 0
M  V30 11805 H 1115.53 -4.17584 -0.0360724 0
M  V30 11806 N 1115.97 -0.914965 -1.28321 0
M  V30 11807 C 1117.21 -0.548749 -1.94923 0
M  V30 11808 C 1117.54 0.907776 -1.72016 0
M  V30 11809 O 1116.8 1.66097 -1.03491 0
M  V30 11810 C 1117.09 -0.805805 -3.48198 0
M  V30 11811 C 1116.76 -2.24207 -3.91206 0
M  V30 11812 C 1115.42 -2.63475 -4.02659 0
M  V30 11813 C 1117.77 -3.17667 -4.13204 0
M  V30 11814 C 1115.1 -3.95353 -4.3349 0
M  V30 11815 C 1117.45 -4.4911 -4.45514 0
M  V30 11816 C 1116.12 -4.8823 -4.55179 0
M  V30 11817 H 1115.39 -0.200801 -0.713274 0
M  V30 11818 H 1118.04 -1.15652 -1.52633 0
M  V30 11819 H 1116.34 -0.115244 -3.9163 0
M  V30 11820 H 1118.04 -0.501609 -3.9785 0
M  V30 11821 H 1114.63 -1.92737 -3.82819 0
M  V30 11822 H 1118.81 -2.88537 -4.03807 0
M  V30 11823 H 1114.07 -4.25362 -4.39178 0
M  V30 11824 H 1118.24 -5.21542 -4.61483 0
M  V30 11825 H 1115.87 -5.90451 -4.78823 0
M  V30 11826 N 1117.44 1.42219 -0.679077 0
M  V30 11827 C 1118.35 2.346 -0.00345919 0
M  V30 11828 C 1119.37 1.55327 0.784181 0
M  V30 11829 O 1120.55 1.87878 0.725524 0
M  V30 11830 C 1117.61 3.33905 0.933194 0
M  V30 11831 C 1116.67 4.29073 0.139607 0
M  V30 11832 C 1115.9 5.23634 1.03165 0
M  V30 11833 O 1116.13 5.23234 2.27119 0
M  V30 11834 O 1115.06 5.99901 0.490159 0
M  V30 11835 H 1118.89 2.9392 -0.764525 0
M  V30 11836 H 1116.47 1.42794 -0.439329 0
M  V30 11837 H 1118.35 3.949 1.47077 0
M  V30 11838 H 1117.03 2.77052 1.67404 0
M  V30 11839 H 1115.94 3.71478 -0.442177 0
M  V30 11840 H 1117.27 4.88979 -0.562214 0
M  V30 11841 N 1118.92 0.422693 1.51826 0
M  V30 11842 C 1120.2 -0.20786 1.94492 0
M  V30 11843 C 1120.58 -1.61414 1.36047 0
M  V30 11844 O 1119.93 -2.21987 0.541657 0
M  V30 11845 C 1120.14 -0.200457 3.48424 0
M  V30 11846 C 1121.48 -0.413199 4.22585 0
M  V30 11847 O 1122.51 -0.27922 3.55104 0
M  V30 11848 O 1121.37 -0.678469 5.42272 0
M  V30 11849 H 1118.46 -0.137851 0.81543 0
M  V30 11850 H 1121.01 0.479617 1.62781 0
M  V30 11851 H 1119.78 0.783263 3.83381 0
M  V30 11852 H 1119.4 -0.931464 3.86535 0
M  V30 11853 N 1120.4 -1.5685 0.153553 0
M  V30 11854 C 1121.31 -2.20664 -0.796528 0
M  V30 11855 C 1122.33 -1.19289 -1.26674 0
M  V30 11856 O 1123.5 -1.51889 -1.32256 0
M  V30 11857 C 1120.57 -2.82088 -2.01561 0
M  V30 11858 C 1119.63 -3.9861 -1.59401 0
M  V30 11859 C 1118.86 -4.57096 -2.75498 0
M  V30 11860 O 1119.08 -4.14462 -3.9189 0
M  V30 11861 O 1118.02 -5.47254 -2.50593 0
M  V30 11862 H 1121.84 -3.02376 -0.283282 0
M  V30 11863 H 1119.43 -1.49218 -0.0737927 0
M  V30 11864 H 1121.31 -3.21103 -2.72893 0
M  V30 11865 H 1119.99 -2.03385 -2.51826 0
M  V30 11866 H 1118.89 -3.64299 -0.850725 0
M  V30 11867 H 1120.23 -4.78853 -1.13845 0
M  V30 11868 N 1121.88 0.120221 -1.57141 0
M  V30 11869 C 1122.81 1.1732 -1.96898 0
M  V30 11870 C 1123.82 1.37722 -0.868134 0
M  V30 11871 O 1125.01 1.36818 -1.14643 0
M  V30 11872 C 1122.11 2.53343 -2.25102 0
M  V30 11873 C 1121.28 2.53559 -3.56408 0
M  V30 11874 C 1120.34 3.71319 -3.72838 0
M  V30 11875 O 1119.37 3.54961 -4.44962 0
M  V30 11876 N 1120.57 4.89836 -3.11514 0
M  V30 11877 H 1123.34 0.835023 -2.87832 0
M  V30 11878 H 1120.9 0.309508 -1.58914 0
M  V30 11879 H 1122.89 3.30679 -2.3331 0
M  V30 11880 H 1121.46 2.79347 -1.403 0
M  V30 11881 H 1120.68 1.61946 -3.59398 0
M  V30 11882 H 1121.97 2.5076 -4.42716 0
M  V30 11883 H 1121.37 5.0603 -2.52884 0
M  V30 11884 H 1119.92 5.64853 -3.25246 0
M  V30 11885 N 1123.36 1.52689 0.390367 0
M  V30 11886 C 1124.77 1.59623 0.968366 0
M  V30 11887 C 1125.12 0.44824 1.91011 0
M  V30 11888 O 1124.24 -0.428868 2.12108 0
M  V30 11889 C 1124.84 2.89312 1.76306 0
M  V30 11890 C 1123.4 2.98664 2.29079 0
M  V30 11891 C 1122.54 2.54725 1.09593 0
M  V30 11892 H 1125.5 1.57787 0.169959 0
M  V30 11893 H 1125.52 2.75721 2.62217 0
M  V30 11894 H 1125.03 3.72846 1.07738 0
M  V30 11895 H 1123.13 2.19665 3.00962 0
M  V30 11896 H 1123.24 4.03277 2.58659 0
M  V30 11897 H 1121.61 2.09012 1.45554 0
M  V30 11898 H 1122.39 3.40651 0.425625 0
M  V30 11899 N 1124.83 -0.648732 1.43629 0
M  V30 11900 C 1126.06 -1.44117 1.49148 0
M  V30 11901 C 1126.48 -1.87767 0.111952 0
M  V30 11902 O 1125.84 -1.57655 -0.895249 0
M  V30 11903 C 1125.89 -2.64938 2.44623 0
M  V30 11904 O 1124.99 -3.64155 1.93559 0
M  V30 11905 H 1124.34 -0.431933 0.504312 0
M  V30 11906 H 1126.87 -0.793439 1.88589 0
M  V30 11907 H 1126.88 -3.12698 2.62076 0
M  V30 11908 H 1125.55 -2.3251 3.44836 0
M  V30 11909 H 1124.13 -3.23322 1.85789 0
M  V30 11910 N 1126.31 -1.30234 -0.887518 0
M  V30 11911 C 1127.54 -1.21829 -1.67229 0
M  V30 11912 C 1127.96 0.219251 -1.87523 0
M  V30 11913 O 1127.31 1.14526 -1.42091 0
M  V30 11914 C 1127.36 -1.94044 -3.05007 0
M  V30 11915 O 1127.08 -3.32185 -2.85631 0
M  V30 11916 C 1128.59 -1.92265 -3.99436 0
M  V30 11917 H 1125.81 -0.421716 -0.521916 0
M  V30 11918 H 1128.35 -1.71816 -1.10903 0
M  V30 11919 H 1126.5 -1.47861 -3.58072 0
M  V30 11920 H 1126.92 -3.68724 -3.73018 0
M  V30 11921 H 1128.39 -2.47336 -4.93486 0
M  V30 11922 H 1128.87 -0.900984 -4.29859 0
M  V30 11923 H 1129.48 -2.38247 -3.52305 0
M  V30 11924 N 1127.79 1.09952 -1.12909 0
M  V30 11925 C 1128.72 2.18477 -0.824014 0
M  V30 11926 C 1129.7 1.68744 0.214324 0
M  V30 11927 O 1130.89 1.94057 0.0744281 0
M  V30 11928 C 1128.02 3.46143 -0.283308 0
M  V30 11929 C 1126.97 4.09178 -1.25528 0
M  V30 11930 C 1126.3 5.31604 -0.574574 0
M  V30 11931 C 1127.6 4.52308 -2.6118 0
M  V30 11932 H 1129.29 2.44254 -1.73148 0
M  V30 11933 H 1126.84 1.17394 -0.833952 0
M  V30 11934 H 1128.79 4.21361 -0.057583 0
M  V30 11935 H 1127.51 3.19872 0.659525 0
M  V30 11936 H 1126.17 3.35973 -1.4669 0
M  V30 11937 H 1125.82 5.01611 0.37356 0
M  V30 11938 H 1125.52 5.74732 -1.22299 0
M  V30 11939 H 1127.04 6.0955 -0.358004 0
M  V30 11940 H 1128.46 5.18776 -2.44017 0
M  V30 11941 H 1126.86 5.06302 -3.22147 0
M  V30 11942 H 1127.93 3.64977 -3.19249 0
M  V30 11943 N 1129.27 0.921757 1.27833 0
M  V30 11944 C 1130.49 0.574599 1.99281 0
M  V30 11945 C 1130.92 -0.838905 1.68357 0
M  V30 11946 O 1130.28 -1.56196 0.920468 0
M  V30 11947 C 1130.32 0.800027 3.51613 0
M  V30 11948 O 1129.43 -0.137215 4.12172 0
M  V30 11949 H 1128.77 0.221887 0.625829 0
M  V30 11950 H 1131.3 1.23939 1.62789 0
M  V30 11951 H 1131.31 0.71326 4.01717 0
M  V30 11952 H 1129.98 1.83042 3.73455 0
M  V30 11953 H 1128.56 -0.00103872 3.729 0
M  V30 11954 N 1130.75 -1.41857 0.686609 0
M  V30 11955 C 1132.16 -1.84439 0.289662 0
M  V30 11956 C 1132.51 -1.57462 -1.17047 0
M  V30 11957 O 1131.63 -1.04046 -1.89745 0
M  V30 11958 C 1132.23 -3.34802 0.518948 0
M  V30 11959 C 1130.79 -3.75988 0.176007 0
M  V30 11960 C 1129.93 -2.65339 0.805632 0
M  V30 11961 H 1132.89 -1.31536 0.88792 0
M  V30 11962 H 1132.91 -3.79833 -0.225209 0
M  V30 11963 H 1132.42 -3.54405 1.58173 0
M  V30 11964 H 1130.52 -3.61989 -0.882865 0
M  V30 11965 H 1130.63 -4.75009 0.624772 0
M  V30 11966 H 1129 -2.53605 0.235966 0
M  V30 11967 H 1129.78 -2.87762 1.8721 0
M  V30 11968 N 1132.22 -0.430739 -1.51599 0
M  V30 11969 C 1133.17 0.384024 -2.27583 0
M  V30 11970 C 1134.14 1.02254 -1.30895 0
M  V30 11971 O 1135.33 1.0427 -1.59789 0
M  V30 11972 C 1132.47 1.48291 -3.11615 0
M  V30 11973 C 1131.58 0.863187 -4.23288 0
M  V30 11974 C 1130.71 1.93657 -4.94642 0
M  V30 11975 C 1129.75 1.29493 -5.98246 0
M  V30 11976 N 1128.89 2.30939 -6.63032 0
M  V30 11977 H 1133.73 -0.270314 -2.96771 0
M  V30 11978 H 1131.27 -0.145148 -1.46382 0
M  V30 11979 H 1133.23 2.13124 -3.58656 0
M  V30 11980 H 1131.86 2.10697 -2.44554 0
M  V30 11981 H 1130.91 0.103326 -3.8026 0
M  V30 11982 H 1132.22 0.354676 -4.97537 0
M  V30 11983 H 1131.37 2.66167 -5.45197 0
M  V30 11984 H 1130.11 2.4788 -4.20008 0
M  V30 11985 H 1129.12 0.555262 -5.46989 0
M  V30 11986 H 1130.34 0.760122 -6.74833 0
M  V30 11987 H 1128.29 2.84254 -5.91216 0
M  V30 11988 H 1128.21 1.84961 -7.33025 0
M  V30 11989 H 1129.47 3.02953 -7.1822 0
M  V30 11990 N 1133.7 1.56767 -0.161869 0
M  V30 11991 C 1134.65 2.17502 0.772102 0
M  V30 11992 C 1135.62 1.11223 1.23364 0
M  V30 11993 O 1136.8 1.39332 1.30351 0
M  V30 11994 C 1133.94 2.81248 1.99984 0
M  V30 11995 C 1133.06 4.01962 1.58274 0
M  V30 11996 C 1132.19 4.53662 2.76341 0
M  V30 11997 C 1131.23 5.66807 2.31076 0
M  V30 11998 N 1130.37 6.13059 3.42203 0
M  V30 11999 H 1135.21 2.96971 0.247382 0
M  V30 12000 H 1132.75 1.46685 0.110382 0
M  V30 12001 H 1134.7 3.16359 2.7198 0
M  V30 12002 H 1133.33 2.04398 2.49842 0
M  V30 12003 H 1132.39 3.72733 0.759874 0
M  V30 12004 H 1133.7 4.83891 1.2104 0
M  V30 12005 H 1132.85 4.90905 3.56507 0
M  V30 12006 H 1131.59 3.7077 3.16829 0
M  V30 12007 H 1130.6 5.29125 1.49354 0
M  V30 12008 H 1131.82 6.51494 1.91657 0
M  V30 12009 H 1129.77 5.33099 3.82285 0
M  V30 12010 H 1129.68 6.89953 3.09033 0
M  V30 12011 H 1130.95 6.54951 4.22682 0
M  V30 12012 N 1135.18 -0.111886 1.57202 0
M  V30 12013 C 1136.13 -1.13688 2.00858 0
M  V30 12014 C 1137.1 -1.40752 0.881939 0
M  V30 12015 O 1138.28 -1.52498 1.14669 0
M  V30 12016 C 1135.42 -2.45641 2.42393 0
M  V30 12017 C 1134.54 -2.25452 3.68504 0
M  V30 12018 C 1133.67 -3.50686 3.9899 0
M  V30 12019 C 1132.71 -3.25685 5.18262 0
M  V30 12020 N 1131.85 -4.4314 5.44583 0
M  V30 12021 H 1136.69 -0.757611 2.88209 0
M  V30 12022 H 1134.22 -0.362582 1.42561 0
M  V30 12023 H 1136.18 -3.22627 2.64514 0
M  V30 12024 H 1134.81 -2.81447 1.58074 0
M  V30 12025 H 1133.86 -1.39349 3.53958 0
M  V30 12026 H 1135.18 -2.0296 4.55641 0
M  V30 12027 H 1134.33 -4.36087 4.21797 0
M  V30 12028 H 1133.07 -3.76216 3.10343 0
M  V30 12029 H 1132.07 -2.38675 4.95292 0
M  V30 12030 H 1133.3 -3.01518 6.08493 0
M  V30 12031 H 1131.24 -4.68778 4.58893 0
M  V30 12032 H 1131.16 -4.23778 6.26058 0
M  V30 12033 H 1132.43 -5.29654 5.71915 0
M  V30 12034 N 1136.66 -1.52894 -0.382264 0
M  V30 12035 C 1137.59 -1.74413 -1.48703 0
M  V30 12036 C 1138.6 -0.624663 -1.50339 0
M  V30 12037 O 1139.79 -0.900527 -1.54119 0
M  V30 12038 C 1136.89 -1.79387 -2.8753 0
M  V30 12039 C 1136.07 -3.08794 -3.09783 0
M  V30 12040 C 1135.12 -3.05226 -4.2863 0
M  V30 12041 O 1134.15 -3.79073 -4.24609 0
M  V30 12042 N 1135.35 -2.2488 -5.35172 0
M  V30 12043 H 1138.12 -2.69734 -1.30628 0
M  V30 12044 H 1135.68 -1.51465 -0.571842 0
M  V30 12045 H 1137.67 -1.74498 -3.65147 0
M  V30 12046 H 1136.24 -0.914233 -2.98932 0
M  V30 12047 H 1135.46 -3.27118 -2.19971 0
M  V30 12048 H 1136.75 -3.94347 -3.21509 0
M  V30 12049 H 1136.15 -1.64363 -5.41296 0
M  V30 12050 H 1134.7 -2.25825 -6.1143 0
M  V30 12051 N 1138.14 0.641106 -1.43971 0
M  V30 12052 C 1139.55 0.958161 -1.27638 0
M  V30 12053 C 1139.75 2.00456 -0.204885 0
M  V30 12054 O 1138.81 2.49106 0.412606 0
M  V30 12055 C 1140.12 1.43091 -2.64472 0
M  V30 12056 C 1141.67 1.54692 -2.72102 0
M  V30 12057 C 1142.15 2.05353 -4.09382 0
M  V30 12058 N 1143.64 2.12638 -4.11509 0
M  V30 12059 C 1144.37 2.52987 -5.14573 0
M  V30 12060 N 1143.87 2.92544 -6.28005 0
M  V30 12061 N 1145.66 2.53033 -5.01927 0
M  V30 12062 H 1137.81 -0.0510973 -2.12339 0
M  V30 12063 H 1140.07 0.039748 -0.947166 0
M  V30 12064 H 1139.78 0.736389 -3.43904 0
M  V30 12065 H 1139.65 2.40375 -2.90688 0
M  V30 12066 H 1142.04 2.23242 -1.92994 0
M  V30 12067 H 1142.12 0.558083 -2.49638 0
M  V30 12068 H 1141.77 1.37401 -4.88962 0
M  V30 12069 H 1141.7 3.0509 -4.29218 0
M  V30 12070 H 1144.19 1.84792 -3.29636 0
M  V30 12071 H 1144.5 3.22116 -7.02468 0
M  V30 12072 H 1142.85 2.90319 -6.31458 0
M  V30 12073 H 1146.04 2.21514 -4.1237 0
M  V30 12074 H 1146.21 2.84155 -5.82375 0
M  V30 12075 N 1139.62 1.30703 0.880598 0
M  V30 12076 C 1140.56 1.17369 2.00817 0
M  V30 12077 C 1141.56 0.0845159 1.69189 0
M  V30 12078 O 1142.76 0.245673 1.78316 0
M  V30 12079 H 1139.14 0.363107 0.658527 0
M  V30 12080 H 1141.11 2.12789 2.09197 0
M  V30 12081 C 1139.86 0.886851 3.362 0
M  V30 12082 H 1139.18 1.71704 3.61051 0
M  V30 12083 H 1140.62 0.83368 4.15723 0
M  V30 12084 C 1139.08 -0.410293 3.34392 0
M  V30 12085 O 1139.61 -1.43044 3.75368 0
M  V30 12086 N 1137.82 -0.423023 2.87505 0
M  V30 12087 H 1137.36 0.407637 2.54354 0
M  V30 12088 H 1137.32 -1.29086 2.86678 0
M  V30 12089 N 1141.09 -1.09351 1.1349 0
M  V30 12090 C 1142.34 -1.81185 0.89535 0
M  V30 12091 C 1142.66 -1.86173 -0.580048 0
M  V30 12092 O 1141.93 -1.34784 -1.42162 0
M  V30 12093 H 1140.51 -0.671011 0.328257 0
M  V30 12094 H 1143.17 -1.32255 1.43159 0
M  V30 12095 H 1142.27 -2.84339 1.28676 0
M  V30 12096 N 1142.57 -0.928524 -1.27343 0
M  V30 12097 C 1143.82 -0.568267 -1.93946 0
M  V30 12098 C 1144.14 0.893501 -1.73325 0
M  V30 12099 O 1143.41 1.63344 -1.08147 0
M  V30 12100 H 1141.99 -0.207173 -0.717696 0
M  V30 12101 H 1144.65 -1.1811 -1.55036 0
M  V30 12102 H 1143.75 -0.775246 -3.02318 0
M  V30 12103 N 1144.05 1.41491 -0.694123 0
M  V30 12104 C 1144.98 2.28189 0.0226347 0
M  V30 12105 C 1145.96 1.42152 0.7894 0
M  V30 12106 O 1147.14 1.71581 0.780519 0
M  V30 12107 C 1144.27 3.22357 1.03942 0
M  V30 12108 C 1143.32 4.24927 0.365994 0
M  V30 12109 S 1144.15 5.28043 -0.890562 0
M  V30 12110 C 1145.31 6.25776 0.124665 0
M  V30 12111 H 1145.54 2.88631 -0.712698 0
M  V30 12112 H 1143.07 1.46607 -0.484344 0
M  V30 12113 H 1145.03 3.77143 1.62091 0
M  V30 12114 H 1143.69 2.61013 1.74732 0
M  V30 12115 H 1142.88 4.9108 1.13388 0
M  V30 12116 H 1142.49 3.73729 -0.142389 0
M  V30 12117 H 1144.78 6.70398 0.978393 0
M  V30 12118 H 1145.72 7.06312 -0.502901 0
M  V30 12119 H 1146.13 5.62466 0.478792 0
M  V30 12120 N 1145.53 0.438773 1.51369 0
M  V30 12121 C 1146.94 0.0911416 1.5934 0
M  V30 12122 C 1147.14 -1.39962 1.44958 0
M  V30 12123 O 1146.2 -2.16968 1.29155 0
M  V30 12124 C 1147.51 0.612531 2.94395 0
M  V30 12125 C 1149.06 0.573098 3.07709 0
M  V30 12126 C 1149.54 1.07149 4.4529 0
M  V30 12127 N 1151.03 1.02953 4.51614 0
M  V30 12128 C 1151.76 1.38602 5.56397 0
M  V30 12129 N 1151.26 1.81543 6.68591 0
M  V30 12130 N 1153.05 1.30409 5.46763 0
M  V30 12131 H 1145.2 1.40872 1.58962 0
M  V30 12132 H 1147.46 0.580589 0.749414 0
M  V30 12133 H 1147.17 1.65562 3.10294 0
M  V30 12134 H 1147.04 0.0382375 3.77181 0
M  V30 12135 H 1149.43 -0.461006 2.91477 0
M  V30 12136 H 1149.51 1.18381 2.26759 0
M  V30 12137 H 1149.16 2.10406 4.62268 0
M  V30 12138 H 1149.09 0.437297 5.24781 0
M  V30 12139 H 1151.58 0.714208 3.7109 0
M  V30 12140 H 1151.89 2.06977 7.44567 0
M  V30 12141 H 1150.24 1.8547 6.69795 0
M  V30 12142 H 1153.43 0.967272 4.57997 0
M  V30 12143 H 1153.6 1.5852 6.28312 0
M  V30 12144 N 1147.01 -1.56678 0.170181 0
M  V30 12145 C 1147.95 -2.19222 -0.777459 0
M  V30 12146 C 1148.95 -1.15592 -1.23834 0
M  V30 12147 O 1150.15 -1.33794 -1.20412 0
M  V30 12148 H 1146.53 -0.702244 -0.268992 0
M  V30 12149 H 1148.5 -2.97543 -0.225989 0
M  V30 12150 C 1147.25 -2.84631 -1.997 0
M  V30 12151 H 1146.57 -3.641 -1.65139 0
M  V30 12152 H 1148.01 -3.31864 -2.63898 0
M  V30 12153 C 1146.47 -1.84345 -2.81991 0
M  V30 12154 O 1147 -1.32821 -3.79106 0
M  V30 12155 N 1145.21 -1.53127 -2.46983 0
M  V30 12156 H 1144.75 -1.95219 -1.6807 0
M  V30 12157 H 1144.71 -0.862787 -3.0233 0
M  V30 12158 N 1148.48 0.103547 -1.57259 0
M  V30 12159 C 1149.71 0.82624 -1.90232 0
M  V30 12160 C 1150.13 1.71902 -0.763641 0
M  V30 12161 O 1149.49 1.79043 0.285181 0
M  V30 12162 C 1149.54 1.62265 -3.22029 0
M  V30 12163 O 1148.64 2.73091 -3.09023 0
M  V30 12164 H 1147.98 0.227528 -0.6238 0
M  V30 12165 H 1150.51 0.081307 -2.04438 0
M  V30 12166 H 1150.52 2.00865 -3.5513 0
M  V30 12167 H 1149.2 0.967383 -4.04493 0
M  V30 12168 H 1147.78 2.3758 -2.8742 0
M  V30 12169 N 1149.96 1.53094 0.37415 0
M  V30 12170 C 1151.37 1.60641 0.951381 0
M  V30 12171 C 1151.72 0.468474 1.90525 0
M  V30 12172 O 1150.85 -0.406347 2.12551 0
M  V30 12173 C 1151.44 2.91166 1.73228 0
M  V30 12174 C 1150 3.01077 2.25898 0
M  V30 12175 C 1149.15 2.55873 1.06885 0
M  V30 12176 H 1152.1 1.57959 0.153214 0
M  V30 12177 H 1152.12 2.78487 2.59278 0
M  V30 12178 H 1151.63 3.73968 1.03778 0
M  V30 12179 H 1149.73 2.22844 2.98615 0
M  V30 12180 H 1149.85 4.05998 2.54367 0
M  V30 12181 H 1148.21 2.10544 1.43329 0
M  V30 12182 H 1148.99 3.41084 0.38947 0
M  V30 12183 N 1151.44 -0.633461 1.44309 0
M  V30 12184 C 1152.39 -1.76674 1.51292 0
M  V30 12185 C 1153.38 -1.64972 0.384807 0
M  V30 12186 O 1154.59 -1.71079 0.559653 0
M  V30 12187 H 1150.96 -0.583238 0.474697 0
M  V30 12188 H 1152.93 -1.67907 2.46678 0
M  V30 12189 C 1151.68 -3.15002 1.47205 0
M  V30 12190 H 1151.01 -3.24653 2.33325 0
M  V30 12191 H 1152.45 -3.94199 1.56151 0
M  V30 12192 C 1150.9 -3.3635 0.192464 0
M  V30 12193 O 1151.43 -3.94857 -0.738285 0
M  V30 12194 N 1149.64 -2.9044 0.0963424 0
M  V30 12195 H 1149.19 -2.43011 0.85459 0
M  V30 12196 H 1149.15 -3.05099 -0.759061 0
M  V30 12197 N 1152.92 -1.31168 -0.873655 0
M  V30 12198 C 1154.15 -1.23595 -1.65927 0
M  V30 12199 C 1154.56 0.199349 -1.87745 0
M  V30 12200 O 1153.92 1.13013 -1.43298 0
M  V30 12201 C 1153.97 -1.97268 -3.02932 0
M  V30 12202 O 1153.69 -3.35196 -2.82091 0
M  V30 12203 C 1155.19 -1.9649 -3.97374 0
M  V30 12204 H 1152.41 -0.427228 -0.517414 0
M  V30 12205 H 1154.96 -1.72983 -1.09074 0
M  V30 12206 H 1153.11 -1.51651 -3.56484 0
M  V30 12207 H 1153.52 -3.7266 -3.69087 0
M  V30 12208 H 1155 -2.52557 -4.90835 0
M  V30 12209 H 1155.48 -0.946525 -4.28879 0
M  V30 12210 H 1156.08 -2.4197 -3.49758 0
M  V30 12211 N 1154.4 1.08748 -1.14068 0
M  V30 12212 C 1155.62 1.85353 -0.930532 0
M  V30 12213 C 1156.05 1.80892 0.515717 0
M  V30 12214 O 1155.4 1.19146 1.36652 0
M  V30 12215 C 1155.45 3.30962 -1.43167 0
M  V30 12216 O 1154.56 4.0769 -0.621468 0
M  V30 12217 H 1153.9 0.574485 -0.332962 0
M  V30 12218 H 1156.43 1.37282 -1.51707 0
M  V30 12219 H 1156.44 3.81807 -1.43832 0
M  V30 12220 H 1155.11 3.33524 -2.48464 0
M  V30 12221 H 1153.69 3.66587 -0.683267 0
M  V30 12222 N 1155.87 0.935264 1.26849 0
M  V30 12223 C 1157.29 0.623198 1.75992 0
M  V30 12224 C 1157.64 -0.861647 1.76267 0
M  V30 12225 O 1156.76 -1.6743 1.37099 0
M  V30 12226 C 1157.36 1.12451 3.19594 0
M  V30 12227 C 1155.92 0.862974 3.66374 0
M  V30 12228 C 1155.06 1.27886 2.4605 0
M  V30 12229 H 1158.01 1.11422 1.13008 0
M  V30 12230 H 1158.03 0.475626 3.77516 0
M  V30 12231 H 1157.55 2.20522 3.19361 0
M  V30 12232 H 1155.65 -0.203606 3.72043 0
M  V30 12233 H 1155.76 1.48582 4.55478 0
M  V30 12234 H 1154.12 0.697335 2.44968 0
M  V30 12235 H 1154.91 2.36837 2.48522 0
M  V30 12236 N 1157.35 -1.41121 0.701616 0
M  V30 12237 C 1158.3 -2.30765 0.040121 0
M  V30 12238 C 1159.27 -1.47436 -0.764975 0
M  V30 12239 O 1160.45 -1.76209 -0.731775 0
M  V30 12240 C 1157.59 -3.33535 -0.885903 0
M  V30 12241 C 1156.71 -4.3194 -0.0717765 0
M  V30 12242 C 1155.84 -5.21779 -0.995996 0
M  V30 12243 C 1154.88 -6.11849 -0.175133 0
M  V30 12244 N 1154.02 -6.94151 -1.05348 0
M  V30 12245 H 1158.86 -2.86772 0.810312 0
M  V30 12246 H 1156.4 -1.41233 0.411301 0
M  V30 12247 H 1158.35 -3.91675 -1.4369 0
M  V30 12248 H 1156.98 -2.79065 -1.62243 0
M  V30 12249 H 1156.04 -3.75698 0.596221 0
M  V30 12250 H 1157.35 -4.95597 0.56435 0
M  V30 12251 H 1156.5 -5.84782 -1.61601 0
M  V30 12252 H 1155.24 -4.58363 -1.66597 0
M  V30 12253 H 1154.25 -5.4789 0.457916 0
M  V30 12254 H 1155.47 -6.77322 0.491133 0
M  V30 12255 H 1153.42 -6.33338 -1.70936 0
M  V30 12256 H 1153.33 -7.54518 -0.473065 0
M  V30 12257 H 1154.6 -7.61617 -1.66012 0
M  V30 12258 N 1158.83 -0.446794 -1.51134 0
M  V30 12259 C 1159.76 0.350229 -2.30858 0
M  V30 12260 C 1160.74 1.0125 -1.36684 0
M  V30 12261 O 1161.93 1.01433 -1.65605 0
M  V30 12262 C 1159.06 1.4464 -3.15748 0
M  V30 12263 C 1158.01 0.907102 -4.18277 0
M  V30 12264 C 1157.34 2.09974 -4.91747 0
M  V30 12265 C 1158.64 -0.0649758 -5.2226 0
M  V30 12266 H 1160.33 -0.315105 -2.97737 0
M  V30 12267 H 1157.88 -0.152985 -1.43185 0
M  V30 12268 H 1159.83 2.01127 -3.70305 0
M  V30 12269 H 1158.55 2.14016 -2.46708 0
M  V30 12270 H 1157.21 0.364382 -3.64785 0
M  V30 12271 H 1156.86 2.77991 -4.19202 0
M  V30 12272 H 1156.56 1.74523 -5.61084 0
M  V30 12273 H 1158.08 2.66996 -5.49131 0
M  V30 12274 H 1159.5 0.4099 -5.71833 0
M  V30 12275 H 1157.9 -0.332529 -5.99178 0
M  V30 12276 H 1158.97 -0.998681 -4.74504 0
M  V30 12277 N 1160.31 1.56586 -0.178487 0
M  V30 12278 C 1161.24 2.14168 0.787856 0
M  V30 12279 C 1162.22 1.07374 1.22105 0
M  V30 12280 O 1163.4 1.35391 1.31154 0
M  V30 12281 C 1160.53 2.68708 2.06189 0
M  V30 12282 C 1159.58 3.8794 1.77215 0
M  V30 12283 S 1160.41 5.27274 0.935002 0
M  V30 12284 C 1161.57 5.85224 2.21954 0
M  V30 12285 H 1161.8 2.958 0.298293 0
M  V30 12286 H 1159.33 1.54357 0.0362853 0
M  V30 12287 H 1161.29 3.00777 2.79363 0
M  V30 12288 H 1159.95 1.87149 2.52258 0
M  V30 12289 H 1159.14 4.24453 2.71764 0
M  V30 12290 H 1158.75 3.56795 1.12132 0
M  V30 12291 H 1161.04 5.98575 3.17355 0
M  V30 12292 H 1161.98 6.82162 1.89898 0
M  V30 12293 H 1162.39 5.13697 2.34042 0
M  V30 12294 N 1161.79 -0.095206 1.57312 0
M  V30 12295 C 1163.2 -0.449411 1.53142 0
M  V30 12296 C 1163.4 -1.80523 0.895187 0
M  V30 12297 O 1162.46 -2.47746 0.487649 0
M  V30 12298 C 1163.77 -0.412002 2.97864 0
M  V30 12299 C 1165.32 -0.493866 3.09079 0
M  V30 12300 C 1165.79 -0.486606 4.55408 0
M  V30 12301 N 1167.29 -0.547363 4.59955 0
M  V30 12302 C 1168.02 -0.563582 5.70624 0
M  V30 12303 N 1167.52 -0.536015 6.90723 0
M  V30 12304 N 1169.31 -0.608385 5.58798 0
M  V30 12305 H 1161.46 0.792869 1.97047 0
M  V30 12306 H 1163.72 0.295106 0.900898 0
M  V30 12307 H 1163.43 0.517064 3.47878 0
M  V30 12308 H 1163.3 -1.23102 3.56547 0
M  V30 12309 H 1165.69 -1.41335 2.59053 0
M  V30 12310 H 1165.77 0.353286 2.53349 0
M  V30 12311 H 1165.42 0.428935 5.06086 0
M  V30 12312 H 1165.35 -1.35097 5.08976 0
M  V30 12313 H 1167.84 -0.573867 3.73517 0
M  V30 12314 H 1168.15 -0.551671 7.70828 0
M  V30 12315 H 1166.49 -0.503064 6.93177 0
M  V30 12316 H 1169.69 -0.627451 4.63876 0
M  V30 12317 H 1169.86 -0.617556 6.45051 0
M  V30 12318 N 1163.26 -1.53291 -0.366026 0
M  V30 12319 C 1164.21 -1.76077 -1.44847 0
M  V30 12320 C 1165.2 -0.615302 -1.4867 0
M  V30 12321 O 1166.39 -0.873952 -1.53919 0
M  V30 12322 C 1163.52 -1.95371 -2.82286 0
M  V30 12323 C 1162.61 -3.15918 -2.82943 0
M  V30 12324 N 1163 -4.37835 -2.53247 0
M  V30 12325 C 1161.29 -3.16631 -3.14103 0
M  V30 12326 C 1162 -5.19573 -2.6157 0
M  V30 12327 N 1160.97 -4.55773 -2.96263 0
M  V30 12328 H 1164.77 -2.67949 -1.2075 0
M  V30 12329 H 1162.29 -1.5191 -0.574206 0
M  V30 12330 H 1164.28 -2.09823 -3.6025 0
M  V30 12331 H 1162.94 -1.04727 -3.07347 0
M  V30 12332 H 1163.96 -4.65575 -2.26848 0
M  V30 12333 H 1160.63 -2.35878 -3.44482 0
M  V30 12334 H 1162.02 -6.26821 -2.41961 0
M  V30 12335 N 1164.74 0.6258 -1.44643 0
M  V30 12336 C 1166.02 1.38439 -1.38181 0
M  V30 12337 C 1166.4 2.11056 -0.0431928 0
M  V30 12338 O 1165.75 2.06683 0.974383 0
M  V30 12339 C 1165.96 2.34639 -2.58352 0
M  V30 12340 C 1167.31 2.97807 -3.02649 0
M  V30 12341 O 1168.33 2.44963 -2.58595 0
M  V30 12342 O 1167.19 3.93682 -3.79048 0
M  V30 12343 H 1164.28 0.619852 -0.54746 0
M  V30 12344 H 1166.83 0.650409 -1.56741 0
M  V30 12345 H 1165.6 1.80116 -3.47382 0
M  V30 12346 H 1165.22 3.15446 -2.42032 0
M  V30 12347 N 1166.22 1.31629 0.866686 0
M  V30 12348 C 1167.63 1.19347 1.43573 0
M  V30 12349 C 1167.98 -0.198765 1.95191 0
M  V30 12350 O 1167.11 -1.09674 1.86549 0
M  V30 12351 C 1167.7 2.16055 2.6097 0
M  V30 12352 C 1166.26 2.07697 3.13909 0
M  V30 12353 C 1165.41 2.05099 1.86627 0
M  V30 12354 H 1168.36 1.43633 0.674929 0
M  V30 12355 H 1168.38 1.75207 3.37761 0
M  V30 12356 H 1167.89 3.17375 2.23371 0
M  V30 12357 H 1165.99 1.09583 3.56121 0
M  V30 12358 H 1166.11 2.96958 3.75969 0
M  V30 12359 H 1164.47 1.50162 2.05727 0
M  V30 12360 H 1165.25 3.0818 1.51261 0
M  V30 12361 N 1167.7 -1.08142 1.14644 0
M  V30 12362 C 1168.63 -2.17139 0.858667 0
M  V30 12363 C 1169.61 -1.69064 -0.187452 0
M  V30 12364 O 1170.8 -1.94151 -0.0435458 0
M  V30 12365 C 1167.93 -3.45648 0.33834 0
M  V30 12366 C 1166.88 -4.07129 1.32021 0
M  V30 12367 C 1166.21 -5.30623 0.659075 0
M  V30 12368 C 1167.51 -4.48095 2.68343 0
M  V30 12369 H 1169.2 -2.41468 1.77012 0
M  V30 12370 H 1166.75 -1.16052 0.852523 0
M  V30 12371 H 1168.7 -4.21216 0.124611 0
M  V30 12372 H 1167.42 -3.2088 -0.608553 0
M  V30 12373 H 1166.08 -3.33596 1.52016 0
M  V30 12374 H 1165.73 -5.02142 -0.293711 0
M  V30 12375 H 1165.43 -5.72714 1.31427 0
M  V30 12376 H 1166.95 -6.08903 0.454933 0
M  V30 12377 H 1168.37 -5.14828 2.5224 0
M  V30 12378 H 1166.76 -5.01113 3.30161 0
M  V30 12379 H 1167.83 -3.59852 3.25015 0
M  V30 12380 N 1169.18 -0.941978 -1.26351 0
M  V30 12381 C 1170.11 -0.469913 -2.28723 0
M  V30 12382 C 1171.09 0.477218 -1.63269 0
M  V30 12383 O 1172.27 0.378902 -1.90468 0
M  V30 12384 C 1169.4 0.264971 -3.46288 0
M  V30 12385 C 1168.36 -0.595682 -4.23834 0
M  V30 12386 C 1167.68 0.269208 -5.34022 0
M  V30 12387 C 1168.98 -1.86743 -4.87775 0
M  V30 12388 H 1170.68 -1.32551 -2.6846 0
M  V30 12389 H 1168.22 -0.638809 -1.29055 0
M  V30 12390 H 1170.18 0.606259 -4.17016 0
M  V30 12391 H 1168.9 1.15471 -3.05506 0
M  V30 12392 H 1167.56 -0.919875 -3.54872 0
M  V30 12393 H 1167.21 1.15832 -4.89481 0
M  V30 12394 H 1166.91 -0.30325 -5.86817 0
M  V30 12395 H 1168.43 0.605748 -6.07588 0
M  V30 12396 H 1169.85 -1.59333 -5.50714 0
M  V30 12397 H 1168.24 -2.38452 -5.50691 0
M  V30 12398 H 1169.31 -2.57831 -4.10671 0
M  V30 12399 N 1170.66 1.40747 -0.709091 0
M  V30 12400 C 1171.9 2.00233 -0.242836 0
M  V30 12401 C 1172.22 1.56853 1.1686 0
M  V30 12402 O 1173.42 2.08993 1.73304 0
M  V30 12403 C 1171.88 3.57854 -0.383241 0
M  V30 12404 C 1171.49 4.10209 -1.80091 0
M  V30 12405 C 1173.23 4.24494 0.0225511 0
M  V30 12406 C 1171.14 5.60311 -1.89225 0
M  V30 12407 H 1170.07 0.74896 -0.087034 0
M  V30 12408 H 1172.72 1.61064 -0.879243 0
M  V30 12409 H 1171.1 3.94692 0.321642 0
M  V30 12410 H 1172.28 3.84762 -2.53564 0
M  V30 12411 H 1170.59 3.56142 -2.15758 0
M  V30 12412 H 1173.19 5.34694 -0.0250644 0
M  V30 12413 H 1173.53 4.02488 1.06344 0
M  V30 12414 H 1174.06 3.92739 -0.632541 0
M  V30 12415 H 1170.8 5.87162 -2.91412 0
M  V30 12416 H 1170.32 5.87642 -1.20154 0
M  V30 12417 H 1172 6.25306 -1.66136 0
M  V30 12418 N 1172.13 0.454803 1.50895 0
M  V30 12419 C 1173.54 -0.00421212 1.867 0
M  V30 12420 C 1173.9 -1.4037 1.3708 0
M  V30 12421 O 1173.02 -2.03755 0.728884 0
M  V30 12422 C 1173.62 -0.0144196 3.38797 0
M  V30 12423 C 1172.17 -0.417905 3.74073 0
M  V30 12424 C 1171.32 0.37801 2.74711 0
M  V30 12425 H 1174.27 0.669849 1.4387 0
M  V30 12426 H 1174.29 -0.820172 3.71555 0
M  V30 12427 H 1173.81 1.00427 3.74881 0
M  V30 12428 H 1171.91 -1.44155 3.43584 0
M  V30 12429 H 1172.02 -0.130568 4.78922 0
M  V30 12430 H 1170.38 -0.166089 2.54158 0
M  V30 12431 H 1171.17 1.3959 3.13639 0
M  V30 12432 N 1173.61 -1.56489 0.186789 0
M  V30 12433 C 1174.86 -1.96952 -0.453261 0
M  V30 12434 C 1175.18 -1.07451 -1.62725 0
M  V30 12435 O 1174.45 -0.144046 -1.9537 0
M  V30 12436 H 1173.03 -0.727295 -0.170445 0
M  V30 12437 H 1175.69 -1.92999 0.271584 0
M  V30 12438 H 1174.79 -3.01594 -0.802951 0
M  V30 12439 N 1175.09 0.086862 -1.5736 0
M  V30 12440 C 1176.04 1.12359 -2.03662 0
M  V30 12441 C 1177.03 1.40982 -0.939169 0
M  V30 12442 O 1178.24 1.40566 -1.12433 0
M  V30 12443 H 1174.61 0.379605 -0.649156 0
M  V30 12444 H 1176.58 0.706822 -2.89908 0
M  V30 12445 C 1175.33 2.43327 -2.48369 0
M  V30 12446 H 1174.66 2.22148 -3.324 0
M  V30 12447 H 1176.1 3.14351 -2.84534 0
M  V30 12448 C 1174.55 3.08214 -1.36036 0
M  V30 12449 O 1175.08 3.95659 -0.694063 0
M  V30 12450 N 1173.29 2.68596 -1.10927 0
M  V30 12451 H 1172.84 1.97578 -1.6529 0
M  V30 12452 H 1172.8 3.12336 -0.359679 0
M  V30 12453 N 1176.57 1.53483 0.357892 0
M  V30 12454 C 1177.84 1.60649 1.11585 0
M  V30 12455 C 1178.22 0.418789 2.06904 0
M  V30 12456 O 1177.57 -0.590279 2.20744 0
M  V30 12457 C 1177.78 2.96046 1.84818 0
M  V30 12458 C 1179.13 3.50895 2.39076 0
M  V30 12459 O 1180.15 2.98126 1.94934 0
M  V30 12460 O 1179.01 4.43163 3.19794 0
M  V30 12461 H 1176.11 0.649202 0.512315 0
M  V30 12462 H 1178.65 1.65826 0.360537 0
M  V30 12463 H 1177.43 3.73929 1.15296 0
M  V30 12464 H 1177.05 2.94395 2.6724 0
M  V30 12465 N 1178.05 -0.61812 1.44973 0
M  V30 12466 C 1178.98 -1.74299 1.48837 0
M  V30 12467 C 1179.99 -1.58296 0.38028 0
M  V30 12468 O 1181.18 -1.66371 0.646757 0
M  V30 12469 C 1178.28 -3.12179 1.31901 0
M  V30 12470 C 1177.45 -3.54519 2.56193 0
M  V30 12471 C 1176.51 -4.71324 2.33966 0
M  V30 12472 O 1175.54 -4.78975 3.07525 0
M  V30 12473 N 1176.74 -5.63894 1.37854 0
M  V30 12474 H 1179.5 -1.7145 2.45815 0
M  V30 12475 H 1177.07 -0.803087 1.40578 0
M  V30 12476 H 1179.06 -3.88059 1.14858 0
M  V30 12477 H 1177.63 -3.09595 0.43239 0
M  V30 12478 H 1176.85 -2.68711 2.88423 0
M  V30 12479 H 1178.14 -3.79563 3.38835 0
M  V30 12480 H 1177.53 -5.60418 0.771273 0
M  V30 12481 H 1176.09 -6.3935 1.26787 0
M  V30 12482 N 1179.52 -1.32087 -0.859693 0
M  V30 12483 C 1180.77 -1.21716 -1.60836 0
M  V30 12484 C 1181.09 0.220904 -1.94349 0
M  V30 12485 O 1182.29 0.446422 -2.67805 0
M  V30 12486 C 1180.75 -2.13143 -2.89997 0
M  V30 12487 C 1180.36 -3.62003 -2.63928 0
M  V30 12488 C 1182.1 -2.11596 -3.68004 0
M  V30 12489 C 1180.01 -4.45407 -3.89059 0
M  V30 12490 H 1178.94 -0.45199 -0.603507 0
M  V30 12491 H 1181.59 -1.57013 -0.949687 0
M  V30 12492 H 1179.97 -1.70755 -3.57294 0
M  V30 12493 H 1181.14 -4.12701 -2.04974 0
M  V30 12494 H 1179.46 -3.6563 -1.99258 0
M  V30 12495 H 1182.06 -2.71149 -4.6085 0
M  V30 12496 H 1182.4 -1.10568 -4.01348 0
M  V30 12497 H 1182.93 -2.52238 -3.07605 0
M  V30 12498 H 1179.67 -5.4723 -3.60859 0
M  V30 12499 H 1179.19 -3.99462 -4.47427 0
M  V30 12500 H 1180.87 -4.58149 -4.56846 0
M  V30 12501 N 1181 1.07532 -1.15215 0
M  V30 12502 C 1182.28 1.76813 -0.83646 0
M  V30 12503 C 1182.66 2.00242 0.6683 0
M  V30 12504 O 1182.01 1.61941 1.61206 0
M  V30 12505 C 1182.22 3.0779 -1.64519 0
M  V30 12506 C 1183.56 3.82168 -1.85022 0
M  V30 12507 O 1184.59 3.17596 -1.61279 0
M  V30 12508 O 1183.45 4.98135 -2.24775 0
M  V30 12509 H 1180.54 0.767736 -0.307426 0
M  V30 12510 H 1183.09 1.13914 -1.25784 0
M  V30 12511 H 1181.86 2.86342 -2.6669 0
M  V30 12512 H 1181.48 3.78419 -1.22002 0
M  V30 12513 N 1182.48 0.948665 1.2585 0
M  V30 12514 C 1183.43 0.455115 2.28104 0
M  V30 12515 C 1184.42 -0.471508 1.62706 0
M  V30 12516 O 1185.63 -0.348895 1.76586 0
M  V30 12517 H 1182 0.128659 0.740912 0
M  V30 12518 H 1183.97 1.32991 2.67125 0
M  V30 12519 C 1182.72 -0.25729 3.46747 0
M  V30 12520 H 1182.05 0.44658 3.97298 0
M  V30 12521 H 1183.49 -0.566736 4.20195 0
M  V30 12522 C 1181.95 -1.47772 3.02762 0
M  V30 12523 O 1182.48 -2.57571 3.08253 0
M  V30 12524 N 1180.68 -1.33694 2.5802 0
M  V30 12525 H 1180.23 -0.443595 2.53752 0
M  V30 12526 H 1180.19 -2.1547 2.28954 0
M  V30 12527 N 1183.96 -1.40369 0.716545 0
M  V30 12528 C 1184.89 -2.28196 0.013671 0
M  V30 12529 C 1185.87 -1.4339 -0.766685 0
M  V30 12530 O 1187.05 -1.72801 -0.753123 0
M  V30 12531 C 1184.18 -3.23969 -0.988006 0
M  V30 12532 C 1183.23 -4.25455 -0.298345 0
M  V30 12533 S 1184.06 -5.26559 0.974456 0
M  V30 12534 C 1185.22 -6.25895 -0.0250932 0
M  V30 12535 H 1185.45 -2.87461 0.758526 0
M  V30 12536 H 1182.98 -1.45817 0.507606 0
M  V30 12537 H 1184.94 -3.79674 -1.56071 0
M  V30 12538 H 1183.6 -2.63759 -1.70557 0
M  V30 12539 H 1182.79 -4.92821 -1.05561 0
M  V30 12540 H 1182.4 -3.73455 0.201828 0
M  V30 12541 H 1184.69 -6.7187 -0.871615 0
M  V30 12542 H 1185.63 -7.05422 0.615206 0
M  V30 12543 H 1186.04 -5.63156 -0.389248 0
M  V30 12544 N 1185.44 -0.462799 -1.50652 0
M  V30 12545 C 1186.71 0.156221 -1.94975 0
M  V30 12546 C 1187.09 1.5775 -1.40279 0
M  V30 12547 O 1186.44 2.20473 -0.600323 0
M  V30 12548 C 1186.65 0.108008 -3.48833 0
M  V30 12549 C 1188 0.301013 -4.23532 0
M  V30 12550 O 1189.02 0.184973 -3.55719 0
M  V30 12551 O 1187.88 0.534457 -5.4388 0
M  V30 12552 H 1184.98 0.116182 -0.818798 0
M  V30 12553 H 1187.52 -0.522607 -1.61453 0
M  V30 12554 H 1186.29 -0.884634 -3.81169 0
M  V30 12555 H 1185.92 0.828653 -3.88869 0
M  V30 12556 N 1186.91 1.56388 -0.195085 0
M  V30 12557 C 1188.14 2.02406 0.452399 0
M  V30 12558 C 1188.56 1.07432 1.54402 0
M  V30 12559 O 1187.92 0.0578246 1.81208 0
M  V30 12560 C 1187.97 3.46864 0.985778 0
M  V30 12561 O 1187.07 3.55007 2.09867 0
M  V30 12562 H 1186.42 0.65553 0.105719 0
M  V30 12563 H 1188.95 2.02299 -0.30596 0
M  V30 12564 H 1188.96 3.86655 1.30238 0
M  V30 12565 H 1187.63 4.15481 0.186662 0
M  V30 12566 H 1186.21 3.2709 1.79071 0
M  V30 12567 N 1188.39 -0.0785156 1.57404 0
M  V30 12568 C 1189.34 -1.11278 2.04255 0
M  V30 12569 C 1190.33 -1.40482 0.946633 0
M  V30 12570 O 1191.54 -1.39968 1.13177 0
M  V30 12571 H 1187.92 -0.376157 0.65116 0
M  V30 12572 H 1189.89 -0.691437 2.90279 0
M  V30 12573 C 1188.64 -2.42006 2.49656 0
M  V30 12574 H 1187.96 -2.20383 3.33574 0
M  V30 12575 H 1189.4 -3.12837 2.86197 0
M  V30 12576 C 1187.86 -3.07488 1.37669 0
M  V30 12577 O 1188.39 -3.95285 0.715036 0
M  V30 12578 N 1186.59 -2.68004 1.1235 0
M  V30 12579 H 1186.14 -1.96698 1.66336 0
M  V30 12580 H 1186.1 -3.12141 0.376238 0
M  V30 12581 N 1189.87 -1.5367 -0.349747 0
M  V30 12582 C 1191.12 -1.7087 -1.0923 0
M  V30 12583 C 1191.45 -0.467299 -1.88494 0
M  V30 12584 O 1190.72 0.535619 -1.8698 0
M  V30 12585 C 1191.01 -2.9684 -2.03858 0
M  V30 12586 C 1190.86 -4.31174 -1.28097 0
M  V30 12587 C 1192.18 -3.18459 -3.03763 0
M  V30 12588 H 1189.3 -0.621757 -0.395711 0
M  V30 12589 H 1191.94 -1.86333 -0.371481 0
M  V30 12590 H 1190.09 -2.83788 -2.65323 0
M  V30 12591 H 1191.76 -4.56066 -0.692933 0
M  V30 12592 H 1190.01 -4.29866 -0.582924 0
M  V30 12593 H 1190.68 -5.15482 -1.9744 0
M  V30 12594 H 1193.15 -3.30801 -2.52409 0
M  V30 12595 H 1192.03 -4.08006 -3.67182 0
M  V30 12596 H 1192.29 -2.34467 -3.74803 0
M  V30 12597 N 1191.35 0.610423 -1.45298 0
M  V30 12598 C 1192.3 1.7213 -1.53753 0
M  V30 12599 C 1193.27 1.61609 -0.383632 0
M  V30 12600 O 1194.45 1.8123 -0.596694 0
M  V30 12601 C 1191.59 3.10433 -1.50749 0
M  V30 12602 C 1190.7 3.3178 -2.76669 0
M  V30 12603 C 1189.84 4.60173 -2.65356 0
M  V30 12604 C 1188.88 4.74769 -3.86343 0
M  V30 12605 N 1188.01 5.94459 -3.73581 0
M  V30 12606 H 1192.85 1.64239 -2.48655 0
M  V30 12607 H 1190.39 0.800879 -1.23387 0
M  V30 12608 H 1192.35 3.90446 -1.46996 0
M  V30 12609 H 1190.98 3.17288 -0.593998 0
M  V30 12610 H 1190.03 2.45563 -2.90522 0
M  V30 12611 H 1191.34 3.38439 -3.66416 0
M  V30 12612 H 1190.5 5.48377 -2.59553 0
M  V30 12613 H 1189.24 4.55907 -1.73204 0
M  V30 12614 H 1188.24 3.8499 -3.92509 0
M  V30 12615 H 1189.47 4.80834 -4.79557 0
M  V30 12616 H 1187.41 5.91243 -2.84196 0
M  V30 12617 H 1187.33 6.02265 -4.5696 0
M  V30 12618 H 1188.6 6.85168 -3.71705 0
M  V30 12619 N 1192.83 1.32541 0.852676 0
M  V30 12620 C 1193.77 1.21643 1.96142 0
M  V30 12621 C 1194.74 0.0981496 1.6581 0
M  V30 12622 O 1195.93 0.27404 1.88822 0
M  V30 12623 C 1193.07 0.947483 3.31838 0
M  V30 12624 C 1192.18 2.15074 3.74656 0
M  V30 12625 C 1191.32 1.81711 4.99154 0
M  V30 12626 C 1190.36 2.98346 5.34468 0
M  V30 12627 N 1189.49 2.65062 6.50143 0
M  V30 12628 H 1194.33 2.16479 2.04795 0
M  V30 12629 H 1191.87 1.07664 1.00234 0
M  V30 12630 H 1193.83 0.772038 4.09994 0
M  V30 12631 H 1192.46 0.0359112 3.2278 0
M  V30 12632 H 1191.51 2.43639 2.92137 0
M  V30 12633 H 1192.82 3.02314 3.96747 0
M  V30 12634 H 1191.98 1.60729 5.85022 0
M  V30 12635 H 1190.71 0.916875 4.79004 0
M  V30 12636 H 1189.72 3.19956 4.47111 0
M  V30 12637 H 1190.94 3.89104 5.56574 0
M  V30 12638 H 1188.89 1.77582 6.31507 0
M  V30 12639 H 1188.81 3.45832 6.72262 0
M  V30 12640 H 1190.08 2.47516 7.39159 0
M  V30 12641 N 1194.3 -1.0692 1.15784 0
M  V30 12642 C 1195.53 -1.83045 0.958031 0
M  V30 12643 C 1195.94 -1.82555 -0.497027 0
M  V30 12644 O 1195.29 -1.23864 -1.35659 0
M  V30 12645 C 1195.35 -3.31096 1.40056 0
M  V30 12646 C 1195.01 -3.55299 2.87423 0
M  V30 12647 C 1196.01 -3.48875 3.85463 0
M  V30 12648 C 1193.69 -3.82824 3.25194 0
M  V30 12649 C 1195.69 -3.69633 5.19279 0
M  V30 12650 C 1193.37 -4.03232 4.59181 0
M  V30 12651 C 1194.37 -3.96633 5.56032 0
M  V30 12652 O 1194.06 -4.16492 6.87597 0
M  V30 12653 H 1193.79 -0.584218 0.340095 0
M  V30 12654 H 1196.35 -1.35841 1.54066 0
M  V30 12655 H 1194.58 -3.79131 0.761361 0
M  V30 12656 H 1196.27 -3.88697 1.16916 0
M  V30 12657 H 1197.03 -3.27608 3.57629 0
M  V30 12658 H 1192.91 -3.87073 2.50391 0
M  V30 12659 H 1196.45 -3.64398 5.94861 0
M  V30 12660 H 1192.35 -4.23988 4.86729 0
M  V30 12661 H 1193.12 -4.33815 6.9408 0
M  V30 12662 N 1195.78 -0.955326 -1.25345 0
M  V30 12663 C 1197.06 -0.527828 -1.88344 0
M  V30 12664 C 1197.44 0.994911 -1.86185 0
M  V30 12665 O 1196.79 1.86099 -1.32587 0
M  V30 12666 C 1197 -1.10525 -3.31037 0
M  V30 12667 C 1198.35 -1.18253 -4.07801 0
M  V30 12668 O 1199.37 -1.05685 -3.4016 0
M  V30 12669 O 1198.23 -1.37978 -5.28795 0
M  V30 12670 H 1195.32 -0.174206 -0.808444 0
M  V30 12671 H 1197.87 -1.0488 -1.3341 0
M  V30 12672 H 1196.64 -2.14847 -3.27042 0
M  V30 12673 H 1196.26 -0.567568 -3.93528 0
M  V30 12674 N 1197.26 1.39987 -0.723979 0
M  V30 12675 C 1198.49 2.0556 -0.275634 0
M  V30 12676 C 1198.91 1.54207 1.07711 0
M  V30 12677 O 1198.27 0.681041 1.68022 0
M  V30 12678 C 1198.32 3.59551 -0.27485 0
M  V30 12679 O 1197.42 4.05685 0.741182 0
M  V30 12680 H 1196.76 0.651634 -0.12755 0
M  V30 12681 H 1199.29 1.79229 -0.986814 0
M  V30 12682 H 1199.3 4.07837 -0.115425 0
M  V30 12683 H 1197.98 3.96291 -1.26198 0
M  V30 12684 H 1196.55 3.6884 0.548795 0
M  V30 12685 N 1198.74 0.470782 1.50404 0
M  V30 12686 C 1199.97 -0.0820134 2.06737 0
M  V30 12687 C 1200.38 -1.33535 1.33468 0
M  V30 12688 O 1199.74 -1.77975 0.403872 0
M  V30 12689 C 1199.79 -0.370427 3.59597 0
M  V30 12690 O 1199.51 0.8332 4.30104 0
M  V30 12691 C 1201.01 -0.970222 4.32552 0
M  V30 12692 H 1198.23 0.00694502 0.670964 0
M  V30 12693 H 1200.78 0.659476 1.93575 0
M  V30 12694 H 1198.93 -1.06185 3.72563 0
M  V30 12695 H 1199.35 0.577614 5.2131 0
M  V30 12696 H 1200.82 -1.1218 5.40481 0
M  V30 12697 H 1201.3 -1.96024 3.93028 0
M  V30 12698 H 1201.9 -0.31719 4.24116 0
M  V30 12699 N 1200.22 -1.56282 0.203376 0
M  V30 12700 C 1201.47 -1.97421 -0.432346 0
M  V30 12701 C 1201.79 -1.0917 -1.61576 0
M  V30 12702 O 1201.06 -0.164759 -1.95206 0
M  V30 12703 H 1199.64 -0.729062 -0.162721 0
M  V30 12704 H 1202.3 -1.927 0.292039 0
M  V30 12705 H 1201.39 -3.02429 -0.770918 0
M  V30 12706 N 1201.7 0.070167 -1.57444 0
M  V30 12707 C 1202.63 1.11509 -1.991 0
M  V30 12708 C 1203.61 1.37481 -0.868194 0
M  V30 12709 O 1204.79 1.50827 -1.13064 0
M  V30 12710 C 1201.92 2.45908 -2.3291 0
M  V30 12711 C 1200.96 2.36059 -3.55216 0
M  V30 12712 S 1201.8 1.75316 -5.05989 0
M  V30 12713 C 1202.95 3.11289 -5.43001 0
M  V30 12714 H 1203.19 0.760096 -2.87419 0
M  V30 12715 H 1200.72 0.278756 -1.51863 0
M  V30 12716 H 1202.68 3.23217 -2.53063 0
M  V30 12717 H 1201.34 2.78567 -1.45117 0
M  V30 12718 H 1200.53 3.35176 -3.76395 0
M  V30 12719 H 1200.13 1.66886 -3.34701 0
M  V30 12720 H 1202.42 4.07603 -5.41171 0
M  V30 12721 H 1203.37 2.94888 -6.43775 0
M  V30 12722 H 1203.78 3.11969 -4.70463 0
M  V30 12723 N 1203.17 1.53854 0.341593 0
M  V30 12724 C 1204.42 1.71194 1.08162 0
M  V30 12725 C 1204.75 0.47614 1.88582 0
M  V30 12726 O 1204 -0.542115 1.88041 0
M  V30 12727 C 1204.3 2.92844 2.04884 0
M  V30 12728 C 1203.97 4.28366 1.40759 0
M  V30 12729 C 1202.63 4.65214 1.23 0
M  V30 12730 C 1204.98 5.12546 0.945819 0
M  V30 12731 C 1202.31 5.83857 0.576852 0
M  V30 12732 C 1204.66 6.31857 0.306568 0
M  V30 12733 C 1203.33 6.67398 0.116677 0
M  V30 12734 H 1202.6 0.626442 0.395792 0
M  V30 12735 H 1205.24 1.88073 0.360688 0
M  V30 12736 H 1203.55 2.70576 2.83365 0
M  V30 12737 H 1205.25 3.03454 2.62139 0
M  V30 12738 H 1201.84 3.99366 1.5558 0
M  V30 12739 H 1206.02 4.84609 1.07087 0
M  V30 12740 H 1201.28 6.09967 0.418363 0
M  V30 12741 H 1205.45 6.96375 -0.0593285 0
M  V30 12742 H 1203.08 7.59191 -0.391477 0
M  V30 12743 N 1204.65 -0.602709 1.4562 0
M  V30 12744 C 1205.6 -1.70753 1.51088 0
M  V30 12745 C 1206.59 -1.56501 0.373662 0
M  V30 12746 O 1207.78 -1.65755 0.620828 0
M  V30 12747 C 1204.91 -3.09515 1.48511 0
M  V30 12748 C 1203.99 -3.29135 2.67453 0
M  V30 12749 N 1204.38 -3.18996 3.92524 0
M  V30 12750 C 1202.68 -3.60019 2.63253 0
M  V30 12751 C 1203.38 -3.40079 4.71933 0
M  V30 12752 N 1202.36 -3.64299 4.03469 0
M  V30 12753 H 1206.16 -1.61414 2.45607 0
M  V30 12754 H 1203.67 -0.806122 1.4098 0
M  V30 12755 H 1205.67 -3.88782 1.50513 0
M  V30 12756 H 1204.33 -3.19999 0.550526 0
M  V30 12757 H 1205.34 -2.97292 4.24073 0
M  V30 12758 H 1202.02 -3.77311 1.78725 0
M  V30 12759 H 1203.41 -3.37593 5.80931 0
M  V30 12760 N 1206.13 -1.32992 -0.845635 0
M  V30 12761 C 1207.38 -1.25258 -1.60256 0
M  V30 12762 C 1207.73 0.181685 -1.9154 0
M  V30 12763 O 1207.02 1.12193 -1.55316 0
M  V30 12764 C 1207.22 -2.05454 -2.92444 0
M  V30 12765 C 1207.05 -3.56533 -2.7407 0
M  V30 12766 C 1205.82 -4.25857 -2.71981 0
M  V30 12767 C 1208.01 -4.51003 -2.47186 0
M  V30 12768 N 1206 -5.6293 -2.44913 0
M  V30 12769 C 1207.37 -5.75917 -2.29607 0
M  V30 12770 C 1209.42 -4.40162 -2.32727 0
M  V30 12771 C 1208.13 -6.91214 -1.99037 0
M  V30 12772 C 1210.15 -5.55267 -2.0355 0
M  V30 12773 C 1209.51 -6.79186 -1.86777 0
M  V30 12774 H 1205.61 -0.513536 -0.58975 0
M  V30 12775 H 1208.2 -1.67458 -0.993277 0
M  V30 12776 H 1206.37 -1.65585 -3.51335 0
M  V30 12777 H 1208.1 -1.89543 -3.57569 0
M  V30 12778 H 1204.85 -3.78064 -2.85245 0
M  V30 12779 H 1205.28 -6.3517 -2.34282 0
M  V30 12780 H 1209.92 -3.44998 -2.4441 0
M  V30 12781 H 1207.64 -7.86381 -1.86091 0
M  V30 12782 H 1211.22 -5.48811 -1.93127 0
M  V30 12783 H 1210.1 -7.66748 -1.64523 0
M  V30 12784 N 1207.61 1.06304 -1.1635 0
M  V30 12785 C 1208.85 1.80686 -0.955614 0
M  V30 12786 C 1209.21 1.85171 0.507525 0
M  V30 12787 O 1210.41 2.55531 0.834103 0
M  V30 12788 C 1208.68 3.21276 -1.56577 0
M  V30 12789 S 1210.24 4.12274 -1.50251 0
M  V30 12790 H 1207.06 0.622426 -0.343666 0
M  V30 12791 H 1209.66 1.27628 -1.48092 0
M  V30 12792 H 1208.37 3.15607 -2.62336 0
M  V30 12793 H 1207.9 3.7941 -1.03978 0
M  V30 12794 H 1209.91 4.93647 -0.502703 0
M  V30 12795 N 1209.09 0.96196 1.24836 0
M  V30 12796 C 1210.05 0.492443 2.23847 0
M  V30 12797 C 1211.05 -0.40788 1.55541 0
M  V30 12798 O 1212.24 -0.204143 1.73 0
M  V30 12799 C 1209.37 -0.287578 3.39685 0
M  V30 12800 H 1210.56 1.36767 2.66899 0
M  V30 12801 H 1208.12 0.745967 1.3735 0
M  V30 12802 H 1208.85 -1.18015 3.02064 0
M  V30 12803 H 1208.64 0.358431 3.90458 0
M  V30 12804 H 1210.13 -0.605297 4.1319 0
M  V30 12805 N 1210.56 -1.39601 0.731392 0
M  V30 12806 C 1211.97 -1.83424 0.348194 0
M  V30 12807 C 1212.33 -1.61106 -1.11979 0
M  V30 12808 O 1211.45 -1.1003 -1.86339 0
M  V30 12809 C 1212.05 -3.32982 0.6252 0
M  V30 12810 C 1210.6 -3.75238 0.295536 0
M  V30 12811 C 1209.75 -2.62642 0.88964 0
M  V30 12812 H 1212.7 -1.28644 0.929318 0
M  V30 12813 H 1212.72 -3.80357 -0.104254 0
M  V30 12814 H 1212.24 -3.49193 1.69368 0
M  V30 12815 H 1210.34 -3.64615 -0.767254 0
M  V30 12816 H 1210.45 -4.72781 0.775576 0
M  V30 12817 H 1208.81 -2.52726 0.316529 0
M  V30 12818 H 1209.6 -2.81661 1.96271 0
M  V30 12819 N 1212.04 -0.478751 -1.50152 0
M  V30 12820 C 1212.99 0.311426 -2.28689 0
M  V30 12821 C 1213.96 0.980375 -1.34082 0
M  V30 12822 O 1215.14 0.991337 -1.63025 0
M  V30 12823 C 1212.28 1.38302 -3.16175 0
M  V30 12824 C 1211.4 0.728084 -4.2582 0
M  V30 12825 C 1210.53 1.77822 -5.00552 0
M  V30 12826 C 1209.57 1.10395 -6.02063 0
M  V30 12827 N 1208.71 2.09728 -6.70044 0
M  V30 12828 H 1213.55 -0.364592 -2.95761 0
M  V30 12829 H 1211.09 -0.191645 -1.45846 0
M  V30 12830 H 1213.04 2.01606 -3.65255 0
M  V30 12831 H 1211.67 2.0281 -2.51133 0
M  V30 12832 H 1210.73 -0.0177026 -3.80396 0
M  V30 12833 H 1212.04 0.196209 -4.98414 0
M  V30 12834 H 1211.19 2.48687 -5.53389 0
M  V30 12835 H 1209.93 2.34392 -4.27682 0
M  V30 12836 H 1208.94 0.38096 -5.48479 0
M  V30 12837 H 1210.16 0.545045 -6.76909 0
M  V30 12838 H 1208.11 2.65301 -5.9996 0
M  V30 12839 H 1208.02 1.61546 -7.38538 0
M  V30 12840 H 1209.29 2.7995 -7.27495 0
M  V30 12841 N 1213.52 1.56172 -0.211661 0
M  V30 12842 C 1214.43 2.23468 0.714081 0
M  V30 12843 C 1215.45 1.23908 1.22159 0
M  V30 12844 O 1216.62 1.56693 1.26528 0
M  V30 12845 C 1213.69 2.89375 1.90953 0
M  V30 12846 C 1212.75 4.04251 1.44497 0
M  V30 12847 C 1211.98 4.67006 2.58343 0
M  V30 12848 O 1212.2 4.28721 3.76237 0
M  V30 12849 O 1211.14 5.56177 2.3011 0
M  V30 12850 H 1214.96 3.03219 0.170862 0
M  V30 12851 H 1212.55 1.49389 0.0183607 0
M  V30 12852 H 1214.43 3.3101 2.60787 0
M  V30 12853 H 1213.11 2.12591 2.44104 0
M  V30 12854 H 1212.01 3.67205 0.714932 0
M  V30 12855 H 1213.35 4.82748 0.959947 0
M  V30 12856 N 1215 -0.0618163 1.57479 0
M  V30 12857 C 1216.25 -0.75794 1.86918 0
M  V30 12858 C 1216.56 -1.78234 0.80572 0
M  V30 12859 O 1217.77 -2.52874 0.98827 0
M  V30 12860 C 1216.22 -1.39898 3.31597 0
M  V30 12861 C 1215.83 -0.412621 4.46096 0
M  V30 12862 C 1217.57 -2.07688 3.70224 0
M  V30 12863 C 1215.48 -1.06014 5.8182 0
M  V30 12864 H 1214.41 -0.286825 0.697314 0
M  V30 12865 H 1217.06 -0.0114386 1.83496 0
M  V30 12866 H 1215.44 -2.19408 3.29661 0
M  V30 12867 H 1216.62 0.353392 4.59443 0
M  V30 12868 H 1214.93 0.161383 4.16087 0
M  V30 12869 H 1217.53 -2.56928 4.68927 0
M  V30 12870 H 1217.87 -2.88073 3.00532 0
M  V30 12871 H 1218.41 -1.34996 3.74194 0
M  V30 12872 H 1215.15 -0.296405 6.5483 0
M  V30 12873 H 1214.67 -1.79677 5.72255 0
M  V30 12874 H 1216.34 -1.57708 6.27485 0
M  V30 12875 N 1216.48 -1.54033 -0.333429 0
M  V30 12876 C 1217.39 -1.85737 -1.43314 0
M  V30 12877 C 1218.4 -0.748398 -1.57083 0
M  V30 12878 O 1219.58 -1.04171 -1.72367 0
M  V30 12879 C 1216.64 -2.06942 -2.78165 0
M  V30 12880 C 1215.7 -3.30774 -2.73655 0
M  V30 12881 C 1214.94 -3.50957 -4.02075 0
M  V30 12882 O 1215.16 -2.74774 -4.99855 0
M  V30 12883 O 1214.09 -4.44412 -4.05933 0
M  V30 12884 H 1217.92 -2.7923 -1.19434 0
M  V30 12885 H 1215.51 -1.39814 -0.526546 0
M  V30 12886 H 1217.39 -2.22276 -3.58011 0
M  V30 12887 H 1216.06 -1.16638 -3.01956 0
M  V30 12888 H 1214.97 -3.20835 -1.92395 0
M  V30 12889 H 1216.3 -4.21103 -2.54819 0
M  V30 12890 N 1217.95 0.594978 -1.45938 0
M  V30 12891 C 1218.9 1.70489 -1.5557 0
M  V30 12892 C 1219.87 1.61193 -0.400751 0
M  V30 12893 O 1221.06 1.80587 -0.615882 0
M  V30 12894 C 1218.2 3.08817 -1.54033 0
M  V30 12895 C 1217.31 3.28827 -2.80173 0
M  V30 12896 C 1216.44 4.57333 -2.70222 0
M  V30 12897 C 1215.48 4.70644 -3.91357 0
M  V30 12898 N 1214.62 5.90463 -3.79865 0
M  V30 12899 H 1219.46 1.61593 -2.50383 0
M  V30 12900 H 1217 0.787747 -1.24229 0
M  V30 12901 H 1218.96 3.88865 -1.51129 0
M  V30 12902 H 1217.59 3.1664 -0.627617 0
M  V30 12903 H 1216.64 2.42467 -2.9311 0
M  V30 12904 H 1217.95 3.34534 -3.69985 0
M  V30 12905 H 1217.1 5.45593 -2.65354 0
M  V30 12906 H 1215.84 4.54045 -1.7803 0
M  V30 12907 H 1214.85 3.80805 -3.9657 0
M  V30 12908 H 1216.07 4.75721 -4.8463 0
M  V30 12909 H 1214.02 5.88196 -2.90451 0
M  V30 12910 H 1213.94 5.97385 -4.63322 0
M  V30 12911 H 1215.2 6.81187 -3.78952 0
M  V30 12912 N 1219.43 1.33438 0.838571 0
M  V30 12913 C 1220.68 1.25097 1.5962 0
M  V30 12914 C 1221.01 -0.182798 1.93338 0
M  V30 12915 O 1220.29 -1.1242 1.5872 0
M  V30 12916 C 1220.57 2.12655 2.90603 0
M  V30 12917 C 1220.42 3.64491 2.63565 0
M  V30 12918 C 1221.74 1.99994 3.92033 0
M  V30 12919 H 1218.86 0.455776 0.579169 0
M  V30 12920 H 1221.5 1.63542 0.967169 0
M  V30 12921 H 1219.65 1.79998 3.44286 0
M  V30 12922 H 1221.32 4.0744 2.16312 0
M  V30 12923 H 1219.57 3.86356 1.9726 0
M  V30 12924 H 1220.24 4.21101 3.569 0
M  V30 12925 H 1222.71 2.28635 3.47657 0
M  V30 12926 H 1221.59 2.63509 4.81512 0
M  V30 12927 H 1221.85 0.972263 4.31277 0
M  V30 12928 N 1220.91 -1.05686 1.16912 0
M  V30 12929 C 1222.16 -1.77987 0.948875 0
M  V30 12930 C 1222.47 -1.8845 -0.524011 0
M  V30 12931 O 1223.68 -2.57442 -0.862322 0
M  V30 12932 C 1222.13 -3.19927 1.64848 0
M  V30 12933 C 1221.74 -3.1761 3.15956 0
M  V30 12934 C 1223.49 -3.96719 1.51044 0
M  V30 12935 C 1221.39 -4.54307 3.78628 0
M  V30 12936 H 1220.32 -0.667119 0.35138 0
M  V30 12937 H 1222.97 -1.18496 1.40111 0
M  V30 12938 H 1221.36 -3.79714 1.12397 0
M  V30 12939 H 1222.53 -2.67369 3.75301 0
M  V30 12940 H 1220.85 -2.54317 3.29715 0
M  V30 12941 H 1223.44 -4.97779 1.95243 0
M  V30 12942 H 1223.79 -4.13748 0.460268 0
M  V30 12943 H 1224.32 -3.43468 2.00685 0
M  V30 12944 H 1221.06 -4.42484 4.8362 0
M  V30 12945 H 1220.58 -5.04717 3.24069 0
M  V30 12946 H 1222.26 -5.23255 3.80543 0
M  V30 12947 N 1222.39 -0.968567 -1.24324 0
M  V30 12948 C 1223.32 -0.518323 -2.27674 0
M  V30 12949 C 1224.3 0.442479 -1.64244 0
M  V30 12950 O 1225.48 0.338416 -1.91229 0
M  V30 12951 C 1222.61 0.191459 -3.46772 0
M  V30 12952 C 1221.57 -0.685449 -4.22476 0
M  V30 12953 C 1220.89 0.155873 -5.34473 0
M  V30 12954 C 1222.19 -1.97047 -4.83704 0
M  V30 12955 H 1223.89 -1.38215 -2.65588 0
M  V30 12956 H 1221.43 -0.66604 -1.27671 0
M  V30 12957 H 1223.39 0.517667 -4.18208 0
M  V30 12958 H 1222.11 1.08965 -3.07887 0
M  V30 12959 H 1220.77 -0.994942 -3.52841 0
M  V30 12960 H 1220.42 1.05424 -4.91828 0
M  V30 12961 H 1220.12 -0.427655 -5.86042 0
M  V30 12962 H 1221.64 0.476733 -6.08736 0
M  V30 12963 H 1223.06 -1.70979 -5.4721 0
M  V30 12964 H 1221.45 -2.50079 -5.45509 0
M  V30 12965 H 1222.52 -2.66484 -4.0511 0
M  V30 12966 N 1223.87 1.39211 -0.738786 0
M  V30 12967 C 1225.09 2.04732 -0.298751 0
M  V30 12968 C 1225.51 1.55706 1.06776 0
M  V30 12969 O 1224.87 0.723605 1.67542 0
M  V30 12970 C 1224.92 3.60288 -0.29574 0
M  V30 12971 O 1224.64 4.07511 -1.60831 0
M  V30 12972 C 1226.14 4.43011 0.159994 0
M  V30 12973 H 1223.36 0.658296 -0.129952 0
M  V30 12974 H 1225.9 1.78186 -1.0035 0
M  V30 12975 H 1224.06 3.85722 0.360146 0
M  V30 12976 H 1224.47 5.01858 -1.52443 0
M  V30 12977 H 1225.95 5.51889 0.110941 0
M  V30 12978 H 1226.42 4.22325 1.20573 0
M  V30 12979 H 1227.03 4.22734 -0.466467 0
M  V30 12980 N 1225.34 0.486708 1.49896 0
M  V30 12981 C 1226.76 0.141788 1.58969 0
M  V30 12982 C 1226.96 -1.35279 1.49338 0
M  V30 12983 O 1226.02 -2.1275 1.35992 0
M  V30 12984 C 1227.33 0.70588 2.92297 0
M  V30 12985 C 1228.88 0.670704 3.0573 0
M  V30 12986 C 1229.35 1.21261 4.41656 0
M  V30 12987 N 1230.84 1.17269 4.4811 0
M  V30 12988 C 1231.58 1.56233 5.51705 0
M  V30 12989 N 1231.07 2.02721 6.62477 0
M  V30 12990 N 1232.87 1.47738 5.42337 0
M  V30 12991 H 1225.02 1.45858 1.544 0
M  V30 12992 H 1227.28 0.604137 0.730563 0
M  V30 12993 H 1226.99 1.7535 3.04869 0
M  V30 12994 H 1226.86 0.158215 3.76868 0
M  V30 12995 H 1229.25 -0.368041 2.92796 0
M  V30 12996 H 1229.33 1.25535 2.22878 0
M  V30 12997 H 1228.97 2.25006 4.5534 0
M  V30 12998 H 1228.9 0.604031 5.23124 0
M  V30 12999 H 1231.39 0.831905 3.6863 0
M  V30 13000 H 1231.71 2.3056 7.37606 0
M  V30 13001 H 1230.05 2.06686 6.63556 0
M  V30 13002 H 1233.24 1.11249 4.54688 0
M  V30 13003 H 1233.42 1.78429 6.2295 0
M  V30 13004 N 1226.82 -1.56058 0.219941 0
M  V30 13005 C 1228.05 -2.031 -0.42014 0
M  V30 13006 C 1228.47 -1.09875 -1.52673 0
M  V30 13007 O 1227.83 -0.0866458 -1.81093 0
M  V30 13008 C 1227.88 -3.48389 -0.93047 0
M  V30 13009 O 1226.98 -3.583 -2.04192 0
M  V30 13010 H 1226.32 -0.657129 -0.0952772 0
M  V30 13011 H 1228.85 -2.01787 0.338105 0
M  V30 13012 H 1228.86 -3.88678 -1.2407 0
M  V30 13013 H 1227.54 -4.15725 -0.120539 0
M  V30 13014 H 1226.12 -3.29898 -1.73845 0
M  V30 13015 N 1228.3 0.053464 -1.57509 0
M  V30 13016 C 1229.21 1.07902 -2.08313 0
M  V30 13017 C 1230.23 1.41223 -1.01647 0
M  V30 13018 O 1231.4 1.51032 -1.33233 0
M  V30 13019 C 1228.47 2.36813 -2.5322 0
M  V30 13020 C 1227.53 2.10297 -3.74264 0
M  V30 13021 C 1226.76 3.33062 -4.1702 0
M  V30 13022 O 1226.99 4.42857 -3.59491 0
M  V30 13023 O 1225.92 3.20195 -5.09665 0
M  V30 13024 H 1229.75 0.677368 -2.9605 0
M  V30 13025 H 1227.33 0.268838 -1.46961 0
M  V30 13026 H 1229.21 3.12645 -2.82544 0
M  V30 13027 H 1227.89 2.76323 -1.68605 0
M  V30 13028 H 1226.79 1.32111 -3.49996 0
M  V30 13029 H 1228.13 1.75658 -4.59788 0
M  V30 13030 N 1229.78 1.54207 0.325255 0
M  V30 13031 C 1230.74 1.82757 1.38321 0
M  V30 13032 C 1231.74 0.699312 1.44797 0
M  V30 13033 O 1232.93 0.96762 1.44854 0
M  V30 13034 C 1230.06 1.98608 2.7707 0
M  V30 13035 H 1231.26 2.7728 1.14261 0
M  V30 13036 H 1228.81 1.45899 0.560647 0
M  V30 13037 H 1229.55 1.0629 3.06387 0
M  V30 13038 H 1229.33 2.80707 2.73763 0
M  V30 13039 H 1230.82 2.2215 3.53609 0
M  V30 13040 N 1231.26 -0.58723 1.46251 0
M  V30 13041 C 1232.22 -1.67863 1.5606 0
M  V30 13042 C 1233.22 -1.54715 0.438162 0
M  V30 13043 O 1234.41 -1.59415 0.702323 0
M  V30 13044 C 1231.54 -3.07262 1.47659 0
M  V30 13045 H 1232.74 -1.60525 2.53321 0
M  V30 13046 H 1230.29 -0.804691 1.33994 0
M  V30 13047 H 1231.02 -3.20159 0.5166 0
M  V30 13048 H 1230.81 -3.18213 2.29092 0
M  V30 13049 H 1232.3 -3.8672 1.57599 0
M  V30 13050 N 1232.74 -1.33881 -0.831482 0
M  V30 13051 C 1233.67 -1.19089 -1.94661 0
M  V30 13052 C 1234.65 -0.0845706 -1.6238 0
M  V30 13053 O 1235.83 -0.248163 -1.86859 0
M  V30 13054 C 1232.96 -0.828223 -3.28418 0
M  V30 13055 C 1232 -1.94309 -3.79666 0
M  V30 13056 S 1232.84 -3.55524 -4.00454 0
M  V30 13057 C 1233.99 -3.21279 -5.3715 0
M  V30 13058 H 1234.23 -2.13484 -2.0691 0
M  V30 13059 H 1231.76 -1.18809 -0.986098 0
M  V30 13060 H 1233.72 -0.625759 -4.05702 0
M  V30 13061 H 1232.38 0.0972457 -3.13949 0
M  V30 13062 H 1231.57 -1.64288 -4.76472 0
M  V30 13063 H 1231.17 -2.1026 -3.093 0
M  V30 13064 H 1233.46 -2.72563 -6.20255 0
M  V30 13065 H 1234.41 -4.17193 -5.7215 0
M  V30 13066 H 1234.82 -2.57683 -5.02255 0
M  V30 13067 N 1234.21 1.05064 -1.1747 0
M  V30 13068 C 1235.44 1.81761 -0.988464 0
M  V30 13069 C 1235.86 1.83028 0.463272 0
M  V30 13070 O 1235.21 1.25846 1.32171 0
M  V30 13071 C 1235.26 3.2782 -1.5237 0
M  V30 13072 O 1234.99 3.26726 -2.91859 0
M  V30 13073 C 1236.49 4.212 -1.38223 0
M  V30 13074 H 1233.71 0.572712 -0.349631 0
M  V30 13075 H 1236.25 1.32477 -1.55789 0
M  V30 13076 H 1234.41 3.7437 -0.996272 0
M  V30 13077 H 1234.82 4.18151 -3.16623 0
M  V30 13078 H 1236.29 5.2166 -1.80485 0
M  V30 13079 H 1236.77 4.37962 -0.329491 0
M  V30 13080 H 1237.38 3.80506 -1.89988 0
M  V30 13081 N 1235.69 0.975146 1.23809 0
M  V30 13082 C 1236.94 0.642074 1.92367 0
M  V30 13083 C 1237.27 -0.82164 1.75962 0
M  V30 13084 O 1236.55 -1.59205 1.11732 0
M  V30 13085 C 1236.83 1.02677 3.45151 0
M  V30 13086 C 1236.68 2.54773 3.7069 0
M  V30 13087 C 1238 0.5668 4.36435 0
M  V30 13088 H 1235.12 0.234735 0.698619 0
M  V30 13089 H 1237.76 1.21549 1.46034 0
M  V30 13090 H 1235.91 0.538846 3.84745 0
M  V30 13091 H 1237.58 3.11099 3.4061 0
M  V30 13092 H 1235.83 2.97641 3.15583 0
M  V30 13093 H 1236.5 2.7674 4.77618 0
M  V30 13094 H 1238.97 0.985635 4.04258 0
M  V30 13095 H 1237.85 0.864458 5.4205 0
M  V30 13096 H 1238.11 -0.532989 4.38875 0
M  V30 13097 N 1237.17 -1.38817 0.746158 0
M  V30 13098 C 1238.1 -2.33144 0.128836 0
M  V30 13099 C 1239.08 -1.54487 -0.711873 0
M  V30 13100 O 1240.27 -1.82836 -0.654577 0
M  V30 13101 C 1237.4 -3.38639 -0.770772 0
M  V30 13102 C 1236.35 -4.27987 -0.0333669 0
M  V30 13103 C 1235.68 -5.24274 -1.05073 0
M  V30 13104 C 1236.98 -5.09915 1.13066 0
M  V30 13105 H 1238.67 -2.85019 0.916778 0
M  V30 13106 H 1236.22 -1.37039 0.442306 0
M  V30 13107 H 1238.17 -4.03587 -1.21225 0
M  V30 13108 H 1236.89 -2.8523 -1.59095 0
M  V30 13109 H 1235.55 -3.64534 0.388612 0
M  V30 13110 H 1235.2 -4.67156 -1.86478 0
M  V30 13111 H 1234.9 -5.84906 -0.562037 0
M  V30 13112 H 1236.42 -5.92099 -1.49169 0
M  V30 13113 H 1237.84 -5.68145 0.767084 0
M  V30 13114 H 1236.23 -5.79744 1.54972 0
M  V30 13115 H 1237.3 -4.4409 1.94709 0
M  V30 13116 N 1238.65 -0.49465 -1.49636 0
M  V30 13117 C 1239.87 0.051305 -2.07337 0
M  V30 13118 C 1240.3 1.30637 -1.35335 0
M  V30 13119 O 1239.66 1.76647 -0.408126 0
M  V30 13120 C 1239.7 0.294425 -3.59396 0
M  V30 13121 O 1238.81 1.3704 -3.88965 0
M  V30 13122 H 1238.15 -0.023408 -0.663587 0
M  V30 13123 H 1240.68 -0.692451 -1.92526 0
M  V30 13124 H 1240.69 0.527854 -4.04571 0
M  V30 13125 H 1239.36 -0.622583 -4.11214 0
M  V30 13126 H 1237.94 1.12242 -3.55607 0
M  V30 13127 N 1240.13 1.55939 -0.228214 0
M  V30 13128 C 1241.37 1.98084 0.400884 0
M  V30 13129 C 1241.69 1.11727 1.59819 0
M  V30 13130 O 1240.96 0.195794 1.94919 0
M  V30 13131 H 1239.54 0.731558 0.151102 0
M  V30 13132 H 1242.21 1.92211 -0.322659 0
M  V30 13133 H 1241.3 3.03617 0.722706 0
M  V30 13134 N 1241.6 -0.0451101 1.57535 0
M  V30 13135 C 1242.55 -1.05817 2.01958 0
M  V30 13136 C 1243.54 -1.32963 0.906077 0
M  V30 13137 O 1244.73 -1.32816 1.16999 0
M  V30 13138 C 1241.86 -2.36414 2.48924 0
M  V30 13139 C 1240.95 -2.12428 3.67063 0
M  V30 13140 N 1241.34 -1.58448 4.80341 0
M  V30 13141 C 1239.63 -2.42785 3.74128 0
M  V30 13142 C 1240.34 -1.49896 5.62055 0
M  V30 13143 N 1239.31 -1.96892 5.0669 0
M  V30 13144 H 1243.11 -0.634569 2.86968 0
M  V30 13145 H 1240.63 -0.251719 1.60437 0
M  V30 13146 H 1242.62 -3.09781 2.79001 0
M  V30 13147 H 1241.28 -2.79467 1.65313 0
M  V30 13148 H 1242.3 -1.26939 5.02102 0
M  V30 13149 H 1238.97 -2.89022 3.01285 0
M  V30 13150 H 1240.36 -1.08788 6.63035 0
M  V30 13151 N 1243.08 -1.54377 -0.317073 0
M  V30 13152 C 1244.33 -1.73149 -1.05581 0
M  V30 13153 C 1244.66 -0.507176 -1.8746 0
M  V30 13154 O 1243.94 0.495837 -1.88074 0
M  V30 13155 C 1244.22 -3.01098 -1.97515 0
M  V30 13156 C 1244.07 -4.33794 -1.18922 0
M  V30 13157 C 1245.39 -3.24831 -2.9694 0
M  V30 13158 H 1242.51 -0.630011 -0.382434 0
M  V30 13159 H 1245.15 -1.87079 -0.331873 0
M  V30 13160 H 1243.3 -2.89352 -2.59244 0
M  V30 13161 H 1244.97 -4.57433 -0.596039 0
M  V30 13162 H 1243.22 -4.31005 -0.491612 0
M  V30 13163 H 1243.89 -5.19554 -1.86462 0
M  V30 13164 H 1246.36 -3.3608 -2.45335 0
M  V30 13165 H 1245.24 -4.15702 -3.58445 0
M  V30 13166 H 1245.5 -2.42365 -3.69745 0
M  V30 13167 N 1244.56 0.579466 -1.4656 0
M  V30 13168 C 1245.81 1.33954 -1.52264 0
M  V30 13169 C 1246.14 1.93409 -0.175089 0
M  V30 13170 O 1245.41 1.76654 0.81385 0
M  V30 13171 C 1245.7 2.46645 -2.6237 0
M  V30 13172 C 1245.55 1.92204 -4.06667 0
M  V30 13173 C 1246.87 3.48676 -2.68538 0
M  V30 13174 H 1243.99 0.485697 -0.554317 0
M  V30 13175 H 1246.63 0.650639 -1.78512 0
M  V30 13176 H 1244.78 3.0541 -2.40119 0
M  V30 13177 H 1246.45 1.37871 -4.40215 0
M  V30 13178 H 1244.7 1.23012 -4.15993 0
M  V30 13179 H 1245.37 2.73566 -4.79443 0
M  V30 13180 H 1247.84 2.99798 -2.88549 0
M  V30 13181 H 1246.72 4.24981 -3.47394 0
M  V30 13182 H 1246.98 4.06112 -1.74716 0
M  V30 13183 N 1246.04 1.3432 0.824371 0
M  V30 13184 C 1247.28 1.26783 1.58284 0
M  V30 13185 C 1247.62 -0.162282 1.93521 0
M  V30 13186 O 1246.89 -1.1073 1.59903 0
M  V30 13187 C 1247.18 2.15725 2.88331 0
M  V30 13188 C 1247.03 3.67266 2.59684 0
M  V30 13189 C 1248.35 2.04141 3.8989 0
M  V30 13190 H 1245.47 0.461893 0.574303 0
M  V30 13191 H 1248.11 1.64558 0.949769 0
M  V30 13192 H 1246.26 1.83639 3.42358 0
M  V30 13193 H 1247.93 4.09711 2.11978 0
M  V30 13194 H 1246.17 3.88426 1.93151 0
M  V30 13195 H 1246.84 4.24863 3.52414 0
M  V30 13196 H 1249.32 2.3231 3.45212 0
M  V30 13197 H 1248.2 2.68601 4.7869 0
M  V30 13198 H 1248.46 1.01795 4.30221 0
M  V30 13199 N 1247.52 -1.0444 1.18026 0
M  V30 13200 C 1248.76 -1.79143 0.984238 0
M  V30 13201 C 1249.12 -1.85955 -0.478002 0
M  V30 13202 O 1250.32 -2.56826 -0.793345 0
M  V30 13203 C 1248.59 -3.18744 1.61669 0
M  V30 13204 S 1250.15 -4.09832 1.56791 0
M  V30 13205 H 1246.97 -0.61688 0.353525 0
M  V30 13206 H 1249.57 -1.25256 1.50104 0
M  V30 13207 H 1248.28 -3.11394 2.67324 0
M  V30 13208 H 1247.81 -3.77708 1.10001 0
M  V30 13209 H 1249.82 -4.92785 0.581175 0
M  V30 13210 N 1248.99 -0.981699 -1.2329 0
M  V30 13211 C 1250.24 -0.646818 -1.91048 0
M  V30 13212 C 1250.56 0.823479 -1.77421 0
M  V30 13213 O 1251.76 1.26948 -2.39993 0
M  V30 13214 C 1250.22 -1.1063 -3.42475 0
M  V30 13215 C 1249.83 -2.60103 -3.6476 0
M  V30 13216 C 1251.57 -0.845227 -4.16 0
M  V30 13217 C 1249.48 -2.99712 -5.0983 0
M  V30 13218 H 1248.41 -0.238221 -0.715379 0
M  V30 13219 H 1251.06 -1.18977 -1.39702 0
M  V30 13220 H 1249.44 -0.491554 -3.92937 0
M  V30 13221 H 1250.61 -3.26828 -3.24839 0
M  V30 13222 H 1248.93 -2.83972 -3.04547 0
M  V30 13223 H 1251.53 -1.11699 -5.22903 0
M  V30 13224 H 1251.87 0.218661 -4.15725 0
M  V30 13225 H 1252.4 -1.42162 -3.7153 0
M  V30 13226 H 1249.14 -4.0523 -5.15237 0
M  V30 13227 H 1248.66 -2.37683 -5.50697 0
M  V30 13228 H 1250.34 -2.9039 -5.78172 0
M  V30 13229 N 1250.47 1.3842 -0.753509 0
M  V30 13230 C 1251.72 2.00119 -0.309633 0
M  V30 13231 C 1252.05 1.59811 1.10863 0
M  V30 13232 O 1251.3 0.827013 1.77367 0
M  V30 13233 C 1251.6 3.55375 -0.379937 0
M  V30 13234 C 1251.27 4.15393 -1.75384 0
M  V30 13235 C 1249.93 4.31499 -2.12984 0
M  V30 13236 C 1252.28 4.48503 -2.65508 0
M  V30 13237 C 1249.61 4.78011 -3.4018 0
M  V30 13238 C 1251.96 4.96431 -3.92095 0
M  V30 13239 C 1250.63 5.10744 -4.29764 0
M  V30 13240 H 1249.9 0.732286 -0.113303 0
M  V30 13241 H 1252.54 1.65468 -0.963975 0
M  V30 13242 H 1250.85 3.90161 0.357969 0
M  V30 13243 H 1252.54 4.00996 -0.0180738 0
M  V30 13244 H 1249.13 4.03271 -1.45156 0
M  V30 13245 H 1253.32 4.35661 -2.37724 0
M  V30 13246 H 1248.57 4.87277 -3.69284 0
M  V30 13247 H 1252.75 5.21021 -4.62072 0
M  V30 13248 H 1250.38 5.46545 -5.28387 0
M  V30 13249 N 1251.95 0.502579 1.49372 0
M  V30 13250 C 1253.2 -0.0412993 2.02058 0
M  V30 13251 C 1253.52 -1.37338 1.38431 0
M  V30 13252 O 1252.79 -1.88305 0.540175 0
M  V30 13253 H 1251.37 -0.0182522 0.746777 0
M  V30 13254 H 1254.03 0.660179 1.83378 0
M  V30 13255 H 1253.13 -0.169812 3.11638 0
M  V30 13256 N 1253.43 -1.55816 0.23648 0
M  V30 13257 C 1254.71 -1.90565 -0.440933 0
M  V30 13258 C 1255.09 -1.15585 -1.76645 0
M  V30 13259 O 1254.43 -0.269949 -2.269 0
M  V30 13260 C 1254.64 -3.43462 -0.61925 0
M  V30 13261 C 1255.99 -4.14516 -0.91989 0
M  V30 13262 O 1257.02 -3.49144 -0.705496 0
M  V30 13263 O 1255.87 -5.3013 -1.32759 0
M  V30 13264 H 1252.97 -0.79285 -0.235199 0
M  V30 13265 H 1255.51 -1.67378 0.279774 0
M  V30 13266 H 1254.29 -3.90029 0.315124 0
M  V30 13267 H 1253.91 -3.72478 -1.39089 0
M  V30 13268 N 1254.91 0.036755 -1.57557 0
M  V30 13269 C 1256.15 0.730186 -1.89199 0
M  V30 13270 C 1256.49 1.75414 -0.833271 0
M  V30 13271 O 1255.76 1.93901 0.152579 0
M  V30 13272 C 1256.04 1.40669 -3.31488 0
M  V30 13273 C 1255.9 0.396764 -4.48047 0
M  V30 13274 C 1257.22 2.34268 -3.72567 0
M  V30 13275 H 1254.33 0.263983 -0.6881 0
M  V30 13276 H 1256.98 -0.0069847 -1.89999 0
M  V30 13277 H 1255.13 2.03502 -3.30937 0
M  V30 13278 H 1256.8 -0.229062 -4.60731 0
M  V30 13279 H 1255.04 -0.284698 -4.32865 0
M  V30 13280 H 1255.71 0.908436 -5.44474 0
M  V30 13281 H 1258.19 1.81485 -3.74436 0
M  V30 13282 H 1257.06 2.78587 -4.72949 0
M  V30 13283 H 1257.33 3.20611 -3.04403 0
M  V30 13284 N 1256.39 1.54543 0.308881 0
M  V30 13285 C 1257.61 1.77753 1.06857 0
M  V30 13286 C 1258.04 0.531616 1.80431 0
M  V30 13287 O 1257.39 -0.517513 1.73757 0
M  V30 13288 C 1257.44 2.97968 2.03094 0
M  V30 13289 O 1256.55 2.70541 3.11257 0
M  V30 13290 H 1255.89 0.588576 0.307368 0
M  V30 13291 H 1258.42 2.01607 0.348703 0
M  V30 13292 H 1258.43 3.25722 2.45702 0
M  V30 13293 H 1257.1 3.88314 1.48948 0
M  V30 13294 H 1255.68 2.53781 2.7322 0
M  V30 13295 N 1257.86 -0.571685 1.46866 0
M  V30 13296 C 1259.09 -1.36008 1.56578 0
M  V30 13297 C 1259.51 -1.86909 0.211326 0
M  V30 13298 O 1258.87 -1.62179 -0.810421 0
M  V30 13299 C 1258.92 -2.51598 2.58323 0
M  V30 13300 O 1258.02 -3.53383 2.1259 0
M  V30 13301 H 1257.36 -0.404593 0.526498 0
M  V30 13302 H 1259.89 -0.692357 1.92529 0
M  V30 13303 H 1259.9 -2.98366 2.78283 0
M  V30 13304 H 1258.58 -2.13904 3.56676 0
M  V30 13305 H 1257.16 -3.13019 2.02666 0
M  V30 13306 N 1259.34 -1.34755 -0.817236 0
M  V30 13307 C 1260.3 -1.26687 -1.91006 0
M  V30 13308 C 1261.3 -0.180745 -1.59781 0
M  V30 13309 O 1262.49 -0.433748 -1.68714 0
M  V30 13310 C 1259.63 -0.957293 -3.27183 0
M  V30 13311 H 1260.82 -2.23846 -1.99582 0
M  V30 13312 H 1258.37 -1.19125 -1.01187 0
M  V30 13313 H 1259.11 0.0108917 -3.24298 0
M  V30 13314 H 1258.89 -1.74297 -3.5123 0
M  V30 13315 H 1260.38 -0.926161 -4.072 0
M  V30 13316 N 1260.82 1.03812 -1.18578 0
M  V30 13317 C 1261.75 2.13802 -0.938665 0
M  V30 13318 C 1262.73 1.69643 0.124575 0
M  V30 13319 O 1263.92 1.94179 -0.0285421 0
M  V30 13320 C 1261.05 3.44154 -0.466392 0
M  V30 13321 C 1260 4.01949 -1.47041 0
M  V30 13322 C 1259.33 5.27811 -0.855558 0
M  V30 13323 C 1260.63 4.37827 -2.84789 0
M  V30 13324 H 1262.32 2.34732 -1.85852 0
M  V30 13325 H 1259.87 1.12808 -0.895007 0
M  V30 13326 H 1261.82 4.20463 -0.280856 0
M  V30 13327 H 1260.54 3.22918 0.489041 0
M  V30 13328 H 1259.2 3.27725 -1.64293 0
M  V30 13329 H 1258.85 5.02886 0.107142 0
M  V30 13330 H 1258.55 5.67441 -1.52592 0
M  V30 13331 H 1260.07 6.06795 -0.680609 0
M  V30 13332 H 1261.49 5.05112 -2.71173 0
M  V30 13333 H 1259.88 4.88514 -3.48532 0
M  V30 13334 H 1260.95 3.47541 -3.38147 0
M  V30 13335 N 1262.3 0.988223 1.22768 0
M  V30 13336 C 1263.55 0.656941 1.90702 0
M  V30 13337 C 1263.86 -0.814058 1.77855 0
M  V30 13338 O 1265.07 -1.25673 2.40663 0
M  V30 13339 C 1263.52 1.12445 3.41883 0
M  V30 13340 C 1263.13 2.62034 3.63376 0
M  V30 13341 C 1264.87 0.867277 4.15546 0
M  V30 13342 C 1262.78 3.02412 5.08233 0
M  V30 13343 H 1261.71 0.242012 0.714105 0
M  V30 13344 H 1264.36 1.19716 1.39069 0
M  V30 13345 H 1262.74 0.512386 3.92671 0
M  V30 13346 H 1263.92 3.28546 3.23101 0
M  V30 13347 H 1262.23 2.85583 3.03037 0
M  V30 13348 H 1264.83 1.14471 5.22303 0
M  V30 13349 H 1265.17 -0.196611 4.15835 0
M  V30 13350 H 1265.71 1.4413 3.70771 0
M  V30 13351 H 1262.44 4.07957 5.1308 0
M  V30 13352 H 1261.96 2.406 5.49429 0
M  V30 13353 H 1263.64 2.93452 5.76624 0
M  V30 13354 N 1263.78 -1.38018 0.760839 0
M  V30 13355 C 1265.02 -1.99557 0.319609 0
M  V30 13356 C 1265.34 -1.60699 -1.10457 0
M  V30 13357 O 1264.61 -0.867248 -1.75658 0
M  V30 13358 H 1263.19 -0.738066 0.115182 0
M  V30 13359 H 1265.86 -1.6867 0.976544 0
M  V30 13360 H 1264.95 -3.09672 0.388523 0
M  V30 13361 N 1265.25 -0.510493 -1.49103 0
M  V30 13362 C 1266.18 0.251999 -2.32136 0
M  V30 13363 C 1267.16 0.953613 -1.40855 0
M  V30 13364 O 1268.35 0.943178 -1.69758 0
M  V30 13365 C 1265.48 1.31118 -3.21598 0
M  V30 13366 C 1264.43 0.72888 -4.21748 0
M  V30 13367 C 1263.76 1.88928 -5.0021 0
M  V30 13368 C 1265.06 -0.286425 -5.21514 0
M  V30 13369 H 1266.75 -0.441102 -2.96133 0
M  V30 13370 H 1264.3 -0.213577 -1.42407 0
M  V30 13371 H 1266.25 1.8524 -3.78503 0
M  V30 13372 H 1264.98 2.0336 -2.55563 0
M  V30 13373 H 1263.64 0.209336 -3.66002 0
M  V30 13374 H 1263.28 2.59961 -4.30615 0
M  V30 13375 H 1262.98 1.50568 -5.67981 0
M  V30 13376 H 1264.51 2.43465 -5.59962 0
M  V30 13377 H 1265.92 0.166997 -5.73057 0
M  V30 13378 H 1264.32 -0.586361 -5.97228 0
M  V30 13379 H 1265.39 -1.19904 -4.69842 0
M  V30 13380 N 1266.73 1.55688 -0.24474 0
M  V30 13381 C 1268.15 1.59219 0.110159 0
M  V30 13382 C 1268.35 1.26187 1.57096 0
M  V30 13383 O 1267.4 1.00815 2.31501 0
M  V30 13384 C 1268.72 2.99764 -0.237075 0
M  V30 13385 C 1270.26 3.12475 -0.181198 0
M  V30 13386 C 1270.74 4.55236 -0.502435 0
M  V30 13387 N 1272.23 4.60981 -0.452855 0
M  V30 13388 C 1272.97 5.69418 -0.674605 0
M  V30 13389 N 1272.46 6.86125 -0.959366 0
M  V30 13390 N 1274.25 5.5883 -0.605459 0
M  V30 13391 H 1266.41 1.7543 -1.19741 0
M  V30 13392 H 1268.67 0.816537 -0.481634 0
M  V30 13393 H 1268.37 3.28666 -1.25185 0
M  V30 13394 H 1268.25 3.74662 0.436859 0
M  V30 13395 H 1270.64 2.83355 0.824248 0
M  V30 13396 H 1270.72 2.39857 -0.888952 0
M  V30 13397 H 1270.36 4.85077 -1.50543 0
M  V30 13398 H 1270.29 5.26111 0.226773 0
M  V30 13399 H 1272.78 3.77128 -0.241401 0
M  V30 13400 H 1273.09 7.64699 -1.11605 0
M  V30 13401 H 1271.44 6.87814 -0.996816 0
M  V30 13402 H 1274.63 4.6653 -0.383053 0
M  V30 13403 H 1274.8 6.43268 -0.781673 0
M  V30 13404 N 1268.21 -0.0283989 1.57574 0
M  V30 13405 C 1269.16 -1.04723 2.07692 0
M  V30 13406 C 1270.15 -1.37399 0.990847 0
M  V30 13407 O 1271.36 -1.36297 1.17572 0
M  V30 13408 H 1267.73 -0.355251 0.662798 0
M  V30 13409 H 1269.7 -0.598737 2.92331 0
M  V30 13410 C 1268.45 -2.33941 2.57229 0
M  V30 13411 H 1267.78 -2.09659 3.40416 0
M  V30 13412 H 1269.22 -3.03574 2.96005 0
M  V30 13413 C 1267.67 -3.02953 1.47381 0
M  V30 13414 O 1268.2 -3.9281 0.840431 0
M  V30 13415 N 1266.41 -2.64294 1.20819 0
M  V30 13416 H 1265.96 -1.91307 1.72509 0
M  V30 13417 H 1265.92 -3.10786 0.475353 0
M  V30 13418 N 1269.69 -1.54705 -0.300681 0
M  V30 13419 C 1270.62 -1.88679 -1.37559 0
M  V30 13420 C 1271.6 -0.74574 -1.52881 0
M  V30 13421 O 1272.78 -1.0015 -1.66384 0
M  V30 13422 C 1269.91 -2.13438 -2.73974 0
M  V30 13423 C 1268.87 -3.29284 -2.73415 0
M  V30 13424 C 1268.19 -3.39462 -4.13122 0
M  V30 13425 C 1269.49 -4.66382 -2.35128 0
M  V30 13426 H 1271.19 -2.78707 -1.09373 0
M  V30 13427 H 1268.73 -1.341 -0.524704 0
M  V30 13428 H 1270.69 -2.35791 -3.49257 0
M  V30 13429 H 1269.41 -1.20181 -3.03684 0
M  V30 13430 H 1268.07 -3.06855 -2.00588 0
M  V30 13431 H 1267.72 -2.43721 -4.4001 0
M  V30 13432 H 1267.42 -4.17334 -4.1365 0
M  V30 13433 H 1268.94 -3.64075 -4.90185 0
M  V30 13434 H 1270.36 -4.88463 -3.00128 0
M  V30 13435 H 1268.75 -5.4697 -2.46867 0
M  V30 13436 H 1269.82 -4.67078 -1.30256 0
M  V30 13437 N 1271.17 0.563888 -1.47167 0
M  V30 13438 C 1272.41 1.32331 -1.53676 0
M  V30 13439 C 1272.75 1.93213 -0.195593 0
M  V30 13440 O 1272.02 1.77508 0.795068 0
M  V30 13441 C 1272.3 2.43848 -2.64972 0
M  V30 13442 C 1272.16 1.8788 -4.08682 0
M  V30 13443 C 1273.48 3.45809 -2.72221 0
M  V30 13444 H 1270.59 0.479791 -0.559437 0
M  V30 13445 H 1273.24 0.631669 -1.79192 0
M  V30 13446 H 1271.39 3.02846 -2.43345 0
M  V30 13447 H 1273.06 1.33195 -4.41652 0
M  V30 13448 H 1271.3 1.18593 -4.17275 0
M  V30 13449 H 1271.97 2.68465 -4.82318 0
M  V30 13450 H 1274.45 2.9672 -2.91713 0
M  V30 13451 H 1273.32 4.21272 -3.51882 0
M  V30 13452 H 1273.59 4.04236 -1.79014 0
M  V30 13453 N 1272.64 1.35187 0.810078 0
M  V30 13454 C 1273.58 1.22171 1.92742 0
M  V30 13455 C 1274.56 0.110393 1.62225 0
M  V30 13456 O 1275.74 0.27786 1.86441 0
M  V30 13457 C 1272.87 0.880367 3.27058 0
M  V30 13458 C 1271.91 2.00325 3.76527 0
M  V30 13459 S 1272.75 3.6185 3.94747 0
M  V30 13460 C 1273.9 3.29784 5.31971 0
M  V30 13461 H 1274.13 2.16749 2.03488 0
M  V30 13462 H 1271.67 1.20362 0.967072 0
M  V30 13463 H 1273.63 0.690224 4.04656 0
M  V30 13464 H 1272.29 -0.0472868 3.14064 0
M  V30 13465 H 1271.48 1.71847 4.73798 0
M  V30 13466 H 1271.08 2.15154 3.05916 0
M  V30 13467 H 1273.37 2.82396 6.1584 0
M  V30 13468 H 1274.32 4.26243 5.6544 0
M  V30 13469 H 1274.72 2.65641 4.98092 0
M  V30 13470 N 1274.12 -1.03182 1.19127 0
M  V30 13471 C 1275.53 -1.57984 0.994888 0
M  V30 13472 C 1275.88 -1.90898 -0.453019 0
M  V30 13473 O 1275.01 -1.70556 -1.33191 0
M  V30 13474 C 1275.6 -2.8705 1.79966 0
M  V30 13475 C 1274.16 -3.38435 1.64737 0
M  V30 13476 C 1273.31 -2.11912 1.78854 0
M  V30 13477 H 1276.26 -0.857458 1.33542 0
M  V30 13478 H 1276.28 -3.57821 1.294 0
M  V30 13479 H 1275.79 -2.63062 2.85341 0
M  V30 13480 H 1273.9 -3.67416 0.619358 0
M  V30 13481 H 1274.01 -4.11665 2.45089 0
M  V30 13482 H 1272.37 -2.23642 1.21886 0
M  V30 13483 H 1273.16 -1.90369 2.85682 0
M  V30 13484 N 1275.6 -0.99472 -1.22242 0
M  V30 13485 C 1276.53 -0.566499 -2.26524 0
M  V30 13486 C 1277.51 0.407541 -1.65146 0
M  V30 13487 O 1278.7 0.297777 -1.91903 0
M  V30 13488 C 1275.83 0.11786 -3.471 0
M  V30 13489 C 1274.78 -0.774908 -4.20927 0
M  V30 13490 C 1274.11 0.0424687 -5.34683 0
M  V30 13491 C 1275.41 -2.07263 -4.79416 0
M  V30 13492 H 1277.1 -1.43818 -2.62596 0
M  V30 13493 H 1274.65 -0.692971 -1.2623 0
M  V30 13494 H 1276.6 0.428842 -4.19212 0
M  V30 13495 H 1275.32 1.0241 -3.10129 0
M  V30 13496 H 1273.98 -1.06956 -3.50651 0
M  V30 13497 H 1273.63 0.949677 -4.93954 0
M  V30 13498 H 1273.33 -0.551867 -5.85003 0
M  V30 13499 H 1274.85 0.347504 -6.0961 0
M  V30 13500 H 1276.27 -1.82548 -5.4346 0
M  V30 13501 H 1274.67 -2.61594 -5.40082 0
M  V30 13502 H 1275.74 -2.75017 -3.99366 0
M  V30 13503 N 1277.08 1.37613 -0.768148 0
M  V30 13504 C 1278.49 1.53202 -0.44737 0
M  V30 13505 C 1278.69 1.72736 1.03752 0
M  V30 13506 O 1277.75 1.74667 1.8234 0
M  V30 13507 C 1279.06 2.7306 -1.25931 0
M  V30 13508 C 1280.61 2.8692 -1.25084 0
M  V30 13509 C 1281.09 4.09757 -2.04605 0
M  V30 13510 N 1282.58 4.16862 -2.0194 0
M  V30 13511 C 1283.31 5.10936 -2.60254 0
M  V30 13512 N 1282.81 6.1059 -3.27341 0
M  V30 13513 N 1284.6 5.03393 -2.50104 0
M  V30 13514 H 1276.75 1.23184 -1.7303 0
M  V30 13515 H 1279.02 0.599541 -0.73434 0
M  V30 13516 H 1278.72 2.65078 -2.31141 0
M  V30 13517 H 1278.6 3.66646 -0.886036 0
M  V30 13518 H 1280.98 2.94375 -0.206736 0
M  V30 13519 H 1281.06 1.94303 -1.66373 0
M  V30 13520 H 1280.71 4.03063 -3.09035 0
M  V30 13521 H 1280.64 5.01481 -1.60701 0
M  V30 13522 H 1283.13 3.455 -1.53096 0
M  V30 13523 H 1283.44 6.78893 -3.6922 0
M  V30 13524 H 1281.79 6.10879 -3.31439 0
M  V30 13525 H 1284.98 4.24483 -1.9731 0
M  V30 13526 H 1285.15 5.76524 -2.95844 0
M  V30 13527 N 1278.56 0.518393 1.4883 0
M  V30 13528 C 1279.52 -0.23983 2.27942 0
M  V30 13529 C 1280.52 -0.878302 1.34694 0
M  V30 13530 O 1281.71 -0.740142 1.57694 0
M  V30 13531 C 1278.84 -1.34581 3.1321 0
M  V30 13532 H 1280.03 0.454599 2.96434 0
M  V30 13533 H 1277.59 0.273932 1.53881 0
M  V30 13534 H 1278.32 -2.07385 2.49323 0
M  V30 13535 H 1278.11 -0.893251 3.8179 0
M  V30 13536 H 1279.6 -1.87944 3.72917 0
M  V30 13537 N 1280.03 -1.55556 0.252993 0
M  V30 13538 C 1281.26 -2.03945 -0.376965 0
M  V30 13539 C 1281.68 -1.13089 -1.50308 0
M  V30 13540 O 1281.04 -0.125039 -1.80868 0
M  V30 13541 C 1281.09 -3.50284 -0.856363 0
M  V30 13542 O 1280.19 -3.62551 -1.96546 0
M  V30 13543 H 1279.54 -0.659002 -0.081317 0
M  V30 13544 H 1282.07 -2.01024 0.380831 0
M  V30 13545 H 1282.08 -3.91222 -1.15798 0
M  V30 13546 H 1280.75 -4.15887 -0.0323302 0
M  V30 13547 H 1279.33 -3.33511 -1.66808 0
M  V30 13548 N 1281.51 0.0200419 -1.57587 0
M  V30 13549 C 1282.46 1.0362 -2.08244 0
M  V30 13550 C 1283.45 1.36872 -0.998119 0
M  V30 13551 O 1284.66 1.35671 -1.18293 0
M  V30 13552 H 1281.04 0.351731 -0.664673 0
M  V30 13553 H 1283.01 0.583226 -2.92645 0
M  V30 13554 C 1281.76 2.32574 -2.58466 0
M  V30 13555 H 1281.08 2.0785 -3.41523 0
M  V30 13556 H 1282.52 3.02 -2.97611 0
M  V30 13557 C 1280.98 3.02167 -1.48986 0
M  V30 13558 O 1281.51 3.92359 -0.861251 0
M  V30 13559 N 1279.71 2.63649 -1.22219 0
M  V30 13560 H 1279.26 1.90389 -1.73521 0
M  V30 13561 H 1279.22 3.10529 -0.491828 0
M  V30 13562 N 1282.99 1.54862 0.292472 0
M  V30 13563 C 1284.24 1.74548 1.02661 0
M  V30 13564 C 1284.57 0.535895 1.86972 0
M  V30 13565 O 1283.82 -0.482016 1.89671 0
M  V30 13566 C 1284.12 2.99214 1.95463 0
M  V30 13567 C 1283.79 4.32628 1.2706 0
M  V30 13568 C 1282.45 4.68892 1.08138 0
M  V30 13569 C 1284.8 5.15296 0.782278 0
M  V30 13570 C 1282.13 5.85397 0.39081 0
M  V30 13571 C 1284.48 6.32512 0.105392 0
M  V30 13572 C 1283.14 6.67431 -0.0957097 0
M  V30 13573 H 1282.41 0.638717 0.375662 0
M  V30 13574 H 1285.06 1.89125 0.300672 0
M  V30 13575 H 1283.37 2.79454 2.74613 0
M  V30 13576 H 1285.06 3.1164 2.52352 0
M  V30 13577 H 1281.65 4.04113 1.42796 0
M  V30 13578 H 1285.84 4.87771 0.916151 0
M  V30 13579 H 1281.09 6.10989 0.224095 0
M  V30 13580 H 1285.27 6.95833 -0.280845 0
M  V30 13581 H 1282.89 7.57562 -0.63281 0
M  V30 13582 N 1284.47 -0.556076 1.47464 0
M  V30 13583 C 1285.42 -1.6586 1.56444 0
M  V30 13584 C 1286.4 -1.55233 0.423262 0
M  V30 13585 O 1287.59 -1.63696 0.673247 0
M  V30 13586 C 1284.72 -3.04633 1.58283 0
M  V30 13587 C 1283.81 -3.2046 2.77788 0
M  V30 13588 N 1284.2 -3.06347 4.02474 0
M  V30 13589 C 1282.5 -3.51462 2.74573 0
M  V30 13590 C 1283.2 -3.24893 4.82514 0
M  V30 13591 N 1282.18 -3.51278 4.14855 0
M  V30 13592 H 1285.98 -1.53519 2.50618 0
M  V30 13593 H 1283.49 -0.760862 1.43474 0
M  V30 13594 H 1285.49 -3.83797 1.62806 0
M  V30 13595 H 1284.15 -3.18085 0.652052 0
M  V30 13596 H 1285.16 -2.8365 4.33316 0
M  V30 13597 H 1281.84 -3.71434 1.90639 0
M  V30 13598 H 1283.23 -3.1894 5.91377 0
M  V30 13599 N 1285.95 -1.35615 -0.802897 0
M  V30 13600 C 1287.18 -1.32025 -1.58911 0
M  V30 13601 C 1287.59 0.103539 -1.88916 0
M  V30 13602 O 1286.93 1.06699 -1.49536 0
M  V30 13603 C 1286.99 -2.06313 -2.94406 0
M  V30 13604 C 1286.65 -3.5548 -2.87198 0
M  V30 13605 C 1287.65 -4.5 -2.60377 0
M  V30 13606 C 1285.34 -3.9818 -3.06199 0
M  V30 13607 C 1287.33 -5.85194 -2.5264 0
M  V30 13608 C 1285.02 -5.33469 -2.98084 0
M  V30 13609 C 1286.02 -6.26788 -2.71341 0
M  V30 13610 O 1285.7 -7.59594 -2.63195 0
M  V30 13611 H 1285.44 -0.454943 -0.500003 0
M  V30 13612 H 1287.99 -1.79106 -1.00549 0
M  V30 13613 H 1286.22 -1.53875 -3.54766 0
M  V30 13614 H 1287.91 -1.95755 -3.55577 0
M  V30 13615 H 1288.67 -4.18327 -2.45413 0
M  V30 13616 H 1284.55 -3.25927 -3.26025 0
M  V30 13617 H 1288.1 -6.58003 -2.31686 0
M  V30 13618 H 1283.99 -5.64754 -3.12607 0
M  V30 13619 H 1284.76 -7.69562 -2.78776 0
M  V30 13620 N 1287.43 1.02549 -1.19673 0
M  V30 13621 C 1288.38 2.09257 -0.905282 0
M  V30 13622 C 1289.36 1.60363 0.131302 0
M  V30 13623 O 1290.55 1.76842 -0.0748563 0
M  V30 13624 C 1287.68 3.40345 -0.449474 0
M  V30 13625 C 1286.77 3.95964 -1.51899 0
M  V30 13626 N 1287.16 4.25203 -2.73926 0
M  V30 13627 C 1285.46 4.24013 -1.38307 0
M  V30 13628 C 1286.16 4.69925 -3.42849 0
M  V30 13629 N 1285.13 4.71664 -2.70248 0
M  V30 13630 H 1288.93 2.29761 -1.83268 0
M  V30 13631 H 1286.45 1.2044 -1.0894 0
M  V30 13632 H 1288.45 4.16308 -0.222121 0
M  V30 13633 H 1287.11 3.2126 0.471402 0
M  V30 13634 H 1288.12 4.14381 -3.10658 0
M  V30 13635 H 1284.79 4.14174 -0.52592 0
M  V30 13636 H 1286.18 5.01442 -4.4722 0
M  V30 13637 N 1288.9 1.00119 1.21713 0
M  V30 13638 C 1289.81 0.567582 2.27631 0
M  V30 13639 C 1290.83 -0.387593 1.69628 0
M  V30 13640 O 1292.01 -0.252372 1.99813 0
M  V30 13641 C 1289.07 -0.102745 3.46548 0
M  V30 13642 C 1288.13 0.896433 4.19836 0
M  V30 13643 C 1287.36 0.258 5.33076 0
M  V30 13644 O 1287.59 -0.946118 5.62499 0
M  V30 13645 O 1286.52 0.967021 5.94081 0
M  V30 13646 H 1290.35 1.44898 2.66905 0
M  V30 13647 H 1287.93 0.769862 1.28037 0
M  V30 13648 H 1289.81 -0.477846 4.18682 0
M  V30 13649 H 1288.49 -0.958576 3.09181 0
M  V30 13650 H 1287.4 1.32262 3.49939 0
M  V30 13651 H 1288.73 1.72173 4.61104 0
M  V30 13652 N 1290.38 -1.37203 0.775435 0
M  V30 13653 C 1291.31 -2.32819 0.17826 0
M  V30 13654 C 1292.29 -1.55963 -0.678944 0
M  V30 13655 O 1293.48 -1.84183 -0.615648 0
M  V30 13656 C 1290.61 -3.40198 -0.698768 0
M  V30 13657 C 1289.56 -4.27961 0.057423 0
M  V30 13658 C 1288.89 -5.26385 -0.93929 0
M  V30 13659 C 1290.19 -5.07402 1.23856 0
M  V30 13660 H 1291.88 -2.8301 0.977028 0
M  V30 13661 H 1289.43 -1.3607 0.471274 0
M  V30 13662 H 1291.38 -4.06067 -1.12637 0
M  V30 13663 H 1290.1 -2.88541 -1.53009 0
M  V30 13664 H 1288.76 -3.63628 0.465848 0
M  V30 13665 H 1288.41 -4.71007 -1.76527 0
M  V30 13666 H 1288.11 -5.85966 -0.437844 0
M  V30 13667 H 1289.64 -5.9513 -1.36576 0
M  V30 13668 H 1291.05 -5.6639 0.887423 0
M  V30 13669 H 1289.45 -5.76327 1.67234 0
M  V30 13670 H 1290.52 -4.3986 2.04085 0
M  V30 13671 N 1291.86 -0.526279 -1.48553 0
M  V30 13672 C 1292.81 0.238513 -2.29564 0
M  V30 13673 C 1293.78 0.937222 -1.37133 0
M  V30 13674 O 1294.96 0.93897 -1.66096 0
M  V30 13675 C 1292.1 1.28173 -3.20415 0
M  V30 13676 C 1291.21 0.592244 -4.27921 0
M  V30 13677 C 1290.35 1.61808 -5.05956 0
M  V30 13678 C 1289.39 0.911846 -6.0527 0
M  V30 13679 N 1288.53 1.88305 -6.76377 0
M  V30 13680 H 1293.37 -0.458502 -2.94452 0
M  V30 13681 H 1290.9 -0.237948 -1.45163 0
M  V30 13682 H 1292.86 1.89883 -3.71484 0
M  V30 13683 H 1291.49 1.94718 -2.57458 0
M  V30 13684 H 1290.54 -0.138714 -3.80147 0
M  V30 13685 H 1291.85 0.0375427 -4.98786 0
M  V30 13686 H 1291.01 2.30956 -5.61021 0
M  V30 13687 H 1289.75 2.20667 -4.34922 0
M  V30 13688 H 1288.75 0.206273 -5.49413 0
M  V30 13689 H 1289.98 0.329415 -6.78301 0
M  V30 13690 H 1287.92 2.46079 -6.08096 0
M  V30 13691 H 1287.84 1.37969 -7.43304 0
M  V30 13692 H 1289.11 2.56663 -7.36033 0
M  V30 13693 N 1293.34 1.5542 -0.261239 0
M  V30 13694 C 1294.29 2.18644 0.646442 0
M  V30 13695 C 1295.27 1.14672 1.12868 0
M  V30 13696 O 1296.46 1.40534 1.07606 0
M  V30 13697 C 1293.59 2.90045 1.83655 0
M  V30 13698 C 1292.68 4.01289 1.37214 0
M  V30 13699 N 1293.07 5.01949 0.622927 0
M  V30 13700 C 1291.37 4.14107 1.65625 0
M  V30 13701 C 1292.07 5.80454 0.380569 0
M  V30 13702 N 1291.04 5.35253 0.94897 0
M  V30 13703 H 1294.85 2.93826 0.0660348 0
M  V30 13704 H 1292.36 1.62273 -0.0641794 0
M  V30 13705 H 1294.36 3.33778 2.49796 0
M  V30 13706 H 1293.02 2.16369 2.42104 0
M  V30 13707 H 1294.03 5.17187 0.271619 0
M  V30 13708 H 1290.71 3.51613 2.2511 0
M  V30 13709 H 1292.1 6.71545 -0.218528 0
M  V30 13710 N 1294.82 -0.0116844 1.57596 0
M  V30 13711 C 1296.06 -0.698089 1.89234 0
M  V30 13712 C 1296.38 -1.75581 0.862016 0
M  V30 13713 O 1297.58 -2.49602 1.06822 0
M  V30 13714 C 1296.04 -1.29277 3.3588 0
M  V30 13715 C 1295.65 -0.27049 4.47183 0
M  V30 13716 C 1297.39 -1.95805 3.76644 0
M  V30 13717 C 1295.3 -0.874502 5.84899 0
M  V30 13718 H 1294.23 -0.264495 0.706087 0
M  V30 13719 H 1296.88 0.0469451 1.8344 0
M  V30 13720 H 1295.26 -2.08809 3.36474 0
M  V30 13721 H 1296.44 0.499381 4.58086 0
M  V30 13722 H 1294.75 0.293676 4.15363 0
M  V30 13723 H 1297.35 -2.41879 4.76863 0
M  V30 13724 H 1297.69 -2.78366 3.09545 0
M  V30 13725 H 1298.22 -1.23023 3.78299 0
M  V30 13726 H 1294.96 -0.0879263 6.55441 0
M  V30 13727 H 1294.48 -1.61381 5.77682 0
M  V30 13728 H 1296.16 -1.37665 6.32185 0
M  V30 13729 N 1296.29 -1.55015 -0.284256 0
M  V30 13730 C 1297.54 -1.7535 -1.01884 0
M  V30 13731 C 1297.87 -0.546825 -1.86342 0
M  V30 13732 O 1297.15 0.455832 -1.89083 0
M  V30 13733 C 1297.43 -3.05219 -1.91084 0
M  V30 13734 C 1297.28 -4.36219 -1.09694 0
M  V30 13735 C 1298.6 -3.31056 -2.89983 0
M  V30 13736 H 1295.72 -0.637981 -0.368984 0
M  V30 13737 H 1298.36 -1.87741 -0.292116 0
M  V30 13738 H 1296.51 -2.94786 -2.53048 0
M  V30 13739 H 1298.19 -4.58594 -0.498876 0
M  V30 13740 H 1296.43 -4.31951 -0.400078 0
M  V30 13741 H 1297.1 -5.23392 -1.75399 0
M  V30 13742 H 1299.58 -3.41209 -2.38151 0
M  V30 13743 H 1298.45 -4.23212 -3.49547 0
M  V30 13744 H 1298.71 -2.50153 -3.64521 0
M  V30 13745 N 1297.77 0.548248 -1.47757 0
M  V30 13746 C 1299.02 1.30501 -1.54841 0
M  V30 13747 C 1299.35 1.93314 -0.214476 0
M  V30 13748 O 1298.6 1.7889 0.793526 0
M  V30 13749 C 1298.9 2.42911 -2.62162 0
M  V30 13750 C 1298.57 1.97871 -4.05164 0
M  V30 13751 C 1297.23 1.85304 -4.4409 0
M  V30 13752 C 1299.58 1.63606 -4.94856 0
M  V30 13753 C 1296.91 1.36781 -5.70533 0
M  V30 13754 C 1299.26 1.16552 -6.2177 0
M  V30 13755 C 1297.92 1.02588 -6.5957 0
M  V30 13756 H 1297.19 0.477536 -0.566604 0
M  V30 13757 H 1299.84 0.613837 -1.81395 0
M  V30 13758 H 1298.15 3.17622 -2.29398 0
M  V30 13759 H 1299.84 3.01078 -2.64864 0
M  V30 13760 H 1296.43 2.08597 -3.74413 0
M  V30 13761 H 1300.62 1.72184 -4.65474 0
M  V30 13762 H 1295.87 1.24641 -5.9856 0
M  V30 13763 H 1300.05 0.891041 -6.90676 0
M  V30 13764 H 1297.67 0.647675 -7.57436 0
M  V30 13765 N 1299.25 1.36039 0.795694 0
M  V30 13766 C 1300.5 1.30112 1.5556 0
M  V30 13767 C 1300.83 -0.121197 1.93821 0
M  V30 13768 O 1300.1 -1.07313 1.62216 0
M  V30 13769 C 1300.39 2.21792 2.8369 0
M  V30 13770 C 1300.24 3.72691 2.51836 0
M  V30 13771 C 1301.56 2.12365 3.85472 0
M  V30 13772 H 1298.68 0.473971 0.564376 0
M  V30 13773 H 1301.32 1.66536 0.91465 0
M  V30 13774 H 1299.47 1.9086 3.38386 0
M  V30 13775 H 1301.14 4.14115 2.0324 0
M  V30 13776 H 1299.38 3.92436 1.84869 0
M  V30 13777 H 1300.06 4.32242 3.43323 0
M  V30 13778 H 1302.53 2.3958 3.40207 0
M  V30 13779 H 1301.41 2.78695 4.72885 0
M  V30 13780 H 1301.67 1.10898 4.27965 0
M  V30 13781 N 1300.73 -1.01913 1.20215 0
M  V30 13782 C 1301.98 -1.75124 1.00876 0
M  V30 13783 C 1302.3 -1.89485 -0.460475 0
M  V30 13784 O 1301.57 -1.43552 -1.33302 0
M  V30 13785 H 1300.15 -0.648777 0.370266 0
M  V30 13786 H 1302.81 -1.22883 1.5128 0
M  V30 13787 H 1301.91 -2.7558 1.46499 0
M  V30 13788 N 1302.21 -1.00763 -1.2118 0
M  V30 13789 C 1303.43 -0.710515 -1.9485 0
M  V30 13790 C 1303.86 0.720934 -1.73736 0
M  V30 13791 O 1303.21 1.49484 -1.02588 0
M  V30 13792 C 1303.26 -1.04035 -3.45267 0
M  V30 13793 O 1302.37 -0.147047 -4.12138 0
M  V30 13794 H 1301.71 -0.264472 -0.609057 0
M  V30 13795 H 1304.24 -1.34858 -1.53865 0
M  V30 13796 H 1304.25 -0.9883 -3.95849 0
M  V30 13797 H 1302.92 -2.08334 -3.59958 0
M  V30 13798 H 1301.5 -0.255847 -3.72021 0
M  V30 13799 N 1303.68 1.3679 -0.7827 0
M  V30 13800 C 1304.93 1.98664 -0.348634 0
M  V30 13801 C 1305.25 1.62827 1.08382 0
M  V30 13802 O 1306.45 2.17886 1.61982 0
M  V30 13803 C 1304.91 3.55319 -0.572392 0
M  V30 13804 C 1304.52 4.00086 -2.01582 0
M  V30 13805 C 1306.26 4.24017 -0.202496 0
M  V30 13806 C 1304.17 5.49493 -2.18659 0
M  V30 13807 H 1303.1 0.743294 -0.126612 0
M  V30 13808 H 1305.75 1.56177 -0.963383 0
M  V30 13809 H 1304.13 3.95842 0.111973 0
M  V30 13810 H 1305.3 3.7078 -2.73603 0
M  V30 13811 H 1303.62 3.44205 -2.34333 0
M  V30 13812 H 1306.22 5.3381 -0.308459 0
M  V30 13813 H 1306.56 4.07559 0.84859 0
M  V30 13814 H 1307.09 3.88834 -0.839834 0
M  V30 13815 H 1303.83 5.7089 -3.22126 0
M  V30 13816 H 1303.35 5.80447 -1.51134 0
M  V30 13817 H 1305.03 6.15621 -1.99048 0
M  V30 13818 N 1305.16 0.53415 1.48272 0
M  V30 13819 C 1306.07 -0.230062 2.33469 0
M  V30 13820 C 1307.09 -0.934889 1.46751 0
M  V30 13821 O 1308.26 -0.908921 1.79724 0
M  V30 13822 C 1305.33 -1.2609 3.22958 0
M  V30 13823 C 1304.39 -0.565983 4.25553 0
M  V30 13824 C 1303.62 -1.54771 5.10766 0
M  V30 13825 O 1303.85 -2.7807 4.9803 0
M  V30 13826 O 1302.78 -1.08482 5.92043 0
M  V30 13827 H 1306.61 0.468182 3.0007 0
M  V30 13828 H 1304.19 0.29502 1.46458 0
M  V30 13829 H 1306.07 -1.85652 3.783 0
M  V30 13830 H 1304.75 -1.94148 2.59014 0
M  V30 13831 H 1303.66 0.0702391 3.74034 0
M  V30 13832 H 1304.99 0.0727277 4.92146 0
M  V30 13833 N 1306.64 -1.55279 0.269478 0
M  V30 13834 C 1307.87 -2.03581 -0.351907 0
M  V30 13835 C 1308.28 -1.14747 -1.50432 0
M  V30 13836 O 1307.62 -0.158939 -1.83011 0
M  V30 13837 C 1307.68 -3.48041 -0.900444 0
M  V30 13838 C 1307.35 -4.56835 0.122612 0
M  V30 13839 C 1308.34 -5.11329 0.940149 0
M  V30 13840 C 1306.03 -5.01651 0.255224 0
M  V30 13841 C 1308.02 -6.09151 1.87654 0
M  V30 13842 C 1305.71 -5.993 1.19509 0
M  V30 13843 C 1306.71 -6.52931 2.00426 0
M  V30 13844 O 1306.4 -7.48671 2.92825 0
M  V30 13845 H 1306.13 -0.670627 -0.0850629 0
M  V30 13846 H 1308.68 -2.01514 0.39766 0
M  V30 13847 H 1306.91 -3.47329 -1.69998 0
M  V30 13848 H 1308.6 -3.79713 -1.43431 0
M  V30 13849 H 1309.37 -4.77522 0.848402 0
M  V30 13850 H 1305.25 -4.59556 -0.364579 0
M  V30 13851 H 1308.79 -6.50937 2.50853 0
M  V30 13852 H 1304.69 -6.32526 1.28768 0
M  V30 13853 H 1305.46 -7.66368 2.87442 0
M  V30 13854 N 1308.12 0.00332656 -1.576 0
M  V30 13855 C 1309.05 0.994803 -2.11248 0
M  V30 13856 C 1310.03 1.36061 -1.02085 0
M  V30 13857 O 1311.21 1.44494 -1.2975 0
M  V30 13858 C 1308.34 2.28772 -2.61306 0
M  V30 13859 C 1307.3 2.06362 -3.74965 0
M  V30 13860 C 1306.62 3.41638 -4.11324 0
M  V30 13861 C 1307.92 1.4289 -5.02374 0
M  V30 13862 H 1309.62 0.548119 -2.9434 0
M  V30 13863 H 1307.16 0.262208 -1.41593 0
M  V30 13864 H 1309.12 2.98485 -2.97464 0
M  V30 13865 H 1307.84 2.75547 -1.75332 0
M  V30 13866 H 1306.5 1.39076 -3.39195 0
M  V30 13867 H 1306.15 3.8611 -3.22379 0
M  V30 13868 H 1305.85 3.2746 -4.87897 0
M  V30 13869 H 1307.37 4.12671 -4.50039 0
M  V30 13870 H 1308.79 2.02555 -5.36325 0
M  V30 13871 H 1307.18 1.3921 -5.8373 0
M  V30 13872 H 1308.25 0.397708 -4.83266 0
M  V30 13873 N 1309.6 1.55164 0.276031 0
M  V30 13874 C 1310.54 1.87836 1.34113 0
M  V30 13875 C 1311.51 0.729562 1.4922 0
M  V30 13876 O 1312.7 0.980549 1.63676 0
M  V30 13877 C 1309.84 2.15313 2.69693 0
M  V30 13878 C 1308.95 3.42845 2.62833 0
M  V30 13879 C 1308.09 3.60038 3.90572 0
M  V30 13880 C 1307.13 4.81273 3.7821 0
M  V30 13881 N 1306.26 4.95139 4.97777 0
M  V30 13882 H 1311.1 2.78681 1.0555 0
M  V30 13883 H 1308.64 1.37976 0.510001 0
M  V30 13884 H 1310.6 2.29243 3.48573 0
M  V30 13885 H 1309.23 1.27706 2.96464 0
M  V30 13886 H 1308.28 3.37403 1.75679 0
M  V30 13887 H 1309.59 4.3186 2.49597 0
M  V30 13888 H 1308.75 3.73769 4.77893 0
M  V30 13889 H 1307.48 2.69203 4.06671 0
M  V30 13890 H 1306.49 4.67549 2.89271 0
M  V30 13891 H 1307.71 5.7354 3.63632 0
M  V30 13892 H 1305.66 4.07234 5.14292 0
M  V30 13893 H 1305.58 5.78194 4.8706 0
M  V30 13894 H 1306.85 5.13253 5.86679 0
M  V30 13895 N 1311.07 -0.540404 1.48045 0
M  V30 13896 C 1312.49 -0.867958 1.33935 0
M  V30 13897 C 1312.69 -1.98568 0.342488 0
M  V30 13898 O 1311.75 -2.51357 -0.240022 0
M  V30 13899 C 1313.06 -1.24532 2.73701 0
M  V30 13900 C 1314.61 -1.3558 2.82112 0
M  V30 13901 C 1315.08 -1.76664 4.22556 0
M  V30 13902 N 1316.57 -1.83785 4.25179 0
M  V30 13903 C 1317.31 -2.16938 5.30778 0
M  V30 13904 N 1316.8 -2.48587 6.46666 0
M  V30 13905 N 1318.6 -2.17855 5.18166 0
M  V30 13906 H 1310.75 0.197251 2.11482 0
M  V30 13907 H 1313.01 0.0255947 0.947654 0
M  V30 13908 H 1312.72 -0.497731 3.4816 0
M  V30 13909 H 1312.59 -2.19779 3.06556 0
M  V30 13910 H 1314.98 -2.09417 2.07915 0
M  V30 13911 H 1315.06 -0.384787 2.52889 0
M  V30 13912 H 1314.7 -1.03391 4.97265 0
M  V30 13913 H 1314.63 -2.74797 4.49215 0
M  V30 13914 H 1317.12 -1.61645 3.41583 0
M  V30 13915 H 1317.44 -2.72959 7.22989 0
M  V30 13916 H 1315.78 -2.4613 6.49958 0
M  V30 13917 H 1318.97 -1.9258 4.2665 0
M  V30 13918 H 1319.15 -2.43361 6.00566 0
M  V30 13919 N 1312.55 -1.36459 -0.788468 0
M  V30 13920 C 1313.46 -1.33017 -1.93245 0
M  V30 13921 C 1314.48 -0.232212 -1.72444 0
M  V30 13922 O 1315.65 -0.464743 -1.95965 0
M  V30 13923 C 1312.72 -1.1197 -3.28121 0
M  V30 13924 C 1311.78 -2.3125 -3.61693 0
M  V30 13925 C 1311.01 -2.11197 -4.90134 0
M  V30 13926 O 1311.24 -1.08764 -5.59934 0
M  V30 13927 O 1310.17 -2.98996 -5.22384 0
M  V30 13928 H 1314 -2.29333 -1.99098 0
M  V30 13929 H 1311.58 -1.17016 -0.928856 0
M  V30 13930 H 1313.46 -1.02154 -4.08831 0
M  V30 13931 H 1312.14 -0.187171 -3.23158 0
M  V30 13932 H 1311.05 -2.46635 -2.81286 0
M  V30 13933 H 1312.38 -3.23012 -3.71381 0
M  V30 13934 N 1314.03 1.01274 -1.20754 0
M  V30 13935 C 1315.28 1.75298 -1.03161 0
M  V30 13936 C 1315.63 1.87504 0.431299 0
M  V30 13937 O 1314.92 1.39262 1.31593 0
M  V30 13938 C 1315.12 3.16862 -1.65329 0
M  V30 13939 C 1314.95 3.18459 -3.17513 0
M  V30 13940 C 1313.72 3.25479 -3.86512 0
M  V30 13941 C 1315.92 3.04195 -4.14693 0
M  V30 13942 N 1313.9 3.1662 -5.25951 0
M  V30 13943 C 1315.27 3.03149 -5.40833 0
M  V30 13944 C 1317.32 2.8844 -4.05841 0
M  V30 13945 C 1316.03 2.87963 -6.59143 0
M  V30 13946 C 1318.05 2.74609 -5.23779 0
M  V30 13947 C 1317.41 2.74232 -6.48827 0
M  V30 13948 H 1313.51 0.652001 -0.431762 0
M  V30 13949 H 1316.1 1.2043 -1.52986 0
M  V30 13950 H 1314.27 3.70015 -1.18082 0
M  V30 13951 H 1316 3.79337 -1.41015 0
M  V30 13952 H 1312.76 3.3236 -3.37392 0
M  V30 13953 H 1313.18 3.15554 -5.98961 0
M  V30 13954 H 1317.82 2.87542 -3.09967 0
M  V30 13955 H 1315.54 2.87609 -7.55186 0
M  V30 13956 H 1319.13 2.6343 -5.18745 0
M  V30 13957 H 1318.01 2.63653 -7.38551 0
M  V30 13958 N 1315.51 1.01404 1.20644 0
M  V30 13959 C 1316.42 0.591693 2.27016 0
M  V30 13960 C 1317.44 -0.36958 1.7003 0
M  V30 13961 O 1318.61 -0.231165 2.00069 0
M  V30 13962 C 1315.68 -0.0659827 3.46637 0
M  V30 13963 C 1314.74 0.940911 4.18862 0
M  V30 13964 C 1313.97 0.314526 5.32772 0
M  V30 13965 O 1314.19 -0.886404 5.63471 0
M  V30 13966 O 1313.13 1.02998 5.93022 0
M  V30 13967 H 1316.95 1.4772 2.65353 0
M  V30 13968 H 1314.54 0.783399 1.27213 0
M  V30 13969 H 1316.42 -0.433412 4.19165 0
M  V30 13970 H 1315.1 -0.925729 3.10181 0
M  V30 13971 H 1314 1.35966 3.48517 0
M  V30 13972 H 1315.34 1.77054 4.59252 0
M  V30 13973 N 1316.99 -1.36373 0.789944 0
M  V30 13974 C 1318.22 -2.03482 0.37453 0
M  V30 13975 C 1318.63 -1.59562 -1.00923 0
M  V30 13976 O 1317.99 -0.785289 -1.64741 0
M  V30 13977 C 1318.04 -3.58942 0.429255 0
M  V30 13978 O 1317.76 -4.01261 1.75845 0
M  V30 13979 C 1319.26 -4.433 0.00453729 0
M  V30 13980 H 1316.48 -0.653019 0.154295 0
M  V30 13981 H 1319.02 -1.74339 1.06894 0
M  V30 13982 H 1317.18 -3.86793 -0.21674 0
M  V30 13983 H 1317.59 -4.95854 1.70964 0
M  V30 13984 H 1319.07 -5.5192 0.0939653 0
M  V30 13985 H 1319.54 -4.26509 -1.04816 0
M  V30 13986 H 1320.15 -4.20712 0.623041 0
M  V30 13987 N 1318.47 -0.542005 -1.47987 0
M  V30 13988 C 1319.4 0.202703 -2.32618 0
M  V30 13989 C 1320.38 0.923521 -1.42846 0
M  V30 13990 O 1321.56 0.906957 -1.7172 0
M  V30 13991 C 1318.69 1.24267 -3.24307 0
M  V30 13992 C 1317.65 0.639257 -4.23199 0
M  V30 13993 C 1316.97 1.78275 -5.04105 0
M  V30 13994 C 1318.27 -0.396982 -5.20789 0
M  V30 13995 H 1319.97 -0.503817 -2.95131 0
M  V30 13996 H 1317.51 -0.243736 -1.41922 0
M  V30 13997 H 1319.46 1.7717 -3.82347 0
M  V30 13998 H 1318.19 1.97893 -2.59819 0
M  V30 13999 H 1316.85 0.131655 -3.66364 0
M  V30 14000 H 1316.5 2.50768 -4.36032 0
M  V30 14001 H 1316.2 1.38487 -5.71047 0
M  V30 14002 H 1317.72 2.31533 -5.65 0
M  V30 14003 H 1319.13 0.0454057 -5.73282 0
M  V30 14004 H 1317.53 -0.712911 -5.9585 0
M  V30 14005 H 1318.6 -1.29843 -4.67193 0
M  V30 14006 N 1319.94 1.55134 -0.277709 0
M  V30 14007 C 1320.89 2.19317 0.623216 0
M  V30 14008 C 1321.88 1.15863 1.11645 0
M  V30 14009 O 1323.07 1.41668 1.0611 0
M  V30 14010 C 1320.2 2.91976 1.80568 0
M  V30 14011 C 1319.28 4.02722 1.3295 0
M  V30 14012 N 1319.68 5.02582 0.569654 0
M  V30 14013 C 1317.97 4.1584 1.61224 0
M  V30 14014 C 1318.67 5.80825 0.318983 0
M  V30 14015 N 1317.65 5.36229 0.892145 0
M  V30 14016 H 1321.45 2.93879 0.0348669 0
M  V30 14017 H 1318.97 1.62196 -0.0813871 0
M  V30 14018 H 1320.96 3.36408 2.46242 0
M  V30 14019 H 1319.62 2.18925 2.39796 0
M  V30 14020 H 1320.63 5.17446 0.216749 0
M  V30 14021 H 1317.31 3.53981 2.21368 0
M  V30 14022 H 1318.7 6.71275 -0.289742 0
M  V30 14023 N 1321.42 0.00503138 1.57599 0
M  V30 14024 C 1322.37 -1.00294 2.09866 0
M  V30 14025 C 1323.36 -1.35267 1.01977 0
M  V30 14026 O 1324.57 -1.33772 1.20437 0
M  V30 14027 H 1320.94 -0.341112 0.670184 0
M  V30 14028 H 1322.92 -0.536595 2.93536 0
M  V30 14029 C 1321.66 -2.28432 2.62133 0
M  V30 14030 H 1320.99 -2.02391 3.44787 0
M  V30 14031 H 1322.43 -2.97227 3.02378 0
M  V30 14032 C 1320.89 -2.99758 1.53774 0
M  V30 14033 O 1321.42 -3.90939 0.923563 0
M  V30 14034 N 1319.62 -2.61671 1.26398 0
M  V30 14035 H 1319.17 -1.87605 1.76528 0
M  V30 14036 H 1319.13 -3.09707 0.541168 0
M  V30 14037 N 1322.9 -1.55308 -0.267798 0
M  V30 14038 C 1324.15 -1.76159 -0.998707 0
M  V30 14039 C 1324.47 -0.565573 -1.86095 0
M  V30 14040 O 1323.73 0.45178 -1.90414 0
M  V30 14041 C 1324.03 -3.02286 -1.90678 0
M  V30 14042 C 1323.69 -4.34594 -1.20161 0
M  V30 14043 C 1322.36 -4.70553 -1.00664 0
M  V30 14044 C 1324.71 -5.16475 -0.7002 0
M  V30 14045 C 1322.04 -5.85945 -0.297629 0
M  V30 14046 C 1324.39 -6.326 -0.00475187 0
M  V30 14047 C 1323.05 -6.67195 0.20188 0
M  V30 14048 H 1322.32 -0.644613 -0.365453 0
M  V30 14049 H 1324.97 -1.89579 -0.270545 0
M  V30 14050 H 1323.27 -2.83788 -2.70133 0
M  V30 14051 H 1324.97 -3.15615 -2.47362 0
M  V30 14052 H 1321.56 -4.06334 -1.36348 0
M  V30 14053 H 1325.75 -4.89167 -0.838435 0
M  V30 14054 H 1321 -6.11268 -0.126864 0
M  V30 14055 H 1325.18 -6.95299 0.39151 0
M  V30 14056 H 1322.8 -7.56459 0.753252 0
M  V30 14057 N 1324.38 0.532545 -1.4833 0
M  V30 14058 C 1325.79 1.11451 -1.49785 0
M  V30 14059 C 1326.14 1.94386 -0.266207 0
M  V30 14060 O 1325.26 2.07121 0.62688 0
M  V30 14061 C 1325.86 2.0279 -2.71407 0
M  V30 14062 C 1324.42 2.56209 -2.75742 0
M  V30 14063 C 1323.57 1.33114 -2.43261 0
M  V30 14064 H 1326.52 0.317924 -1.55483 0
M  V30 14065 H 1326.54 2.87038 -2.49779 0
M  V30 14066 H 1326.05 1.42401 -3.61031 0
M  V30 14067 H 1324.15 3.20327 -1.9032 0
M  V30 14068 H 1324.26 2.95518 -3.77102 0
M  V30 14069 H 1322.63 1.64607 -1.94362 0
M  V30 14070 H 1323.41 0.744809 -3.35123 0
M  V30 14071 N 1325.86 1.36875 0.78122 0
M  V30 14072 C 1326.8 1.31869 1.89418 0
M  V30 14073 C 1327.77 0.185904 1.65056 0
M  V30 14074 O 1328.96 0.373745 1.87104 0
M  V30 14075 C 1326.1 1.12205 3.2635 0
M  V30 14076 C 1325.21 2.34631 3.62729 0
M  V30 14077 C 1324.35 2.07914 4.8882 0
M  V30 14078 C 1323.38 3.26257 5.17902 0
M  V30 14079 N 1322.52 2.99152 6.35179 0
M  V30 14080 H 1327.36 2.2703 1.93032 0
M  V30 14081 H 1324.9 1.12826 0.943857 0
M  V30 14082 H 1326.86 0.988282 4.05326 0
M  V30 14083 H 1325.49 0.206959 3.22136 0
M  V30 14084 H 1324.54 2.58782 2.78812 0
M  V30 14085 H 1325.85 3.22919 3.80164 0
M  V30 14086 H 1325 1.91514 5.7568 0
M  V30 14087 H 1323.74 1.1695 4.7347 0
M  V30 14088 H 1322.75 3.43207 4.29522 0
M  V30 14089 H 1323.97 4.1806 5.35166 0
M  V30 14090 H 1321.92 2.10807 6.21205 0
M  V30 14091 H 1321.84 3.80981 6.52985 0
M  V30 14092 H 1323.1 2.86349 7.25 0
M  V30 14093 N 1327.33 -1.00632 1.21289 0
M  V30 14094 C 1328.58 -1.74647 1.03084 0
M  V30 14095 C 1328.91 -1.89271 -0.43476 0
M  V30 14096 O 1328.19 -1.42607 -1.32263 0
M  V30 14097 C 1328.47 -3.15981 1.72709 0
M  V30 14098 C 1328.32 -3.09088 3.2678 0
M  V30 14099 C 1329.64 -4.14875 1.46857 0
M  V30 14100 H 1326.76 -0.633938 0.375889 0
M  V30 14101 H 1329.4 -1.17328 1.49446 0
M  V30 14102 H 1327.55 -3.64918 1.33294 0
M  V30 14103 H 1329.23 -2.67875 3.75554 0
M  V30 14104 H 1327.47 -2.46223 3.57151 0
M  V30 14105 H 1328.14 -4.09041 3.70661 0
M  V30 14106 H 1330.62 -3.74637 1.81069 0
M  V30 14107 H 1329.49 -5.1191 1.98088 0
M  V30 14108 H 1329.75 -4.40302 0.398296 0
M  V30 14109 N 1328.81 -1.02043 -1.20104 0
M  V30 14110 C 1330.04 -0.731142 -1.94085 0
M  V30 14111 C 1330.46 0.702467 -1.74491 0
M  V30 14112 O 1329.82 1.48387 -1.04168 0
M  V30 14113 C 1329.87 -1.07691 -3.44144 0
M  V30 14114 O 1328.97 -0.190751 -4.11959 0
M  V30 14115 H 1328.31 -0.270917 -0.606218 0
M  V30 14116 H 1330.84 -1.36483 -1.52426 0
M  V30 14117 H 1330.85 -1.03023 -3.94779 0
M  V30 14118 H 1329.53 -2.1214 -3.57728 0
M  V30 14119 H 1328.1 -0.29529 -3.71729 0
M  V30 14120 N 1330.29 1.35952 -0.797165 0
M  V30 14121 C 1331.54 1.98283 -0.369685 0
M  V30 14122 C 1331.85 1.63968 1.06649 0
M  V30 14123 O 1333.06 2.19591 1.59662 0
M  V30 14124 C 1331.51 3.54692 -0.610046 0
M  V30 14125 C 1331.12 3.97925 -2.05814 0
M  V30 14126 C 1332.87 4.23778 -0.247457 0
M  V30 14127 C 1330.77 5.47142 -2.24475 0
M  V30 14128 H 1329.7 0.741909 -0.134489 0
M  V30 14129 H 1332.35 1.55146 -0.979893 0
M  V30 14130 H 1330.74 3.95938 0.0699822 0
M  V30 14131 H 1331.91 3.67857 -2.77521 0
M  V30 14132 H 1330.23 3.417 -2.37971 0
M  V30 14133 H 1332.82 5.33452 -0.365059 0
M  V30 14134 H 1333.17 4.08436 0.805315 0
M  V30 14135 H 1333.7 3.87921 -0.881028 0
M  V30 14136 H 1330.44 5.67441 -3.28163 0
M  V30 14137 H 1329.96 5.78811 -1.57282 0
M  V30 14138 H 1331.64 6.13475 -2.05567 0
M  V30 14139 N 1331.77 0.549846 1.47697 0
M  V30 14140 C 1332.7 -0.190364 2.32723 0
M  V30 14141 C 1333.68 -0.915933 1.43334 0
M  V30 14142 O 1334.86 -0.897838 1.72199 0
M  V30 14143 C 1331.99 -1.22545 3.24961 0
M  V30 14144 C 1330.95 -0.616805 4.23532 0
M  V30 14145 C 1330.27 -1.75599 5.05044 0
M  V30 14146 C 1331.57 0.424595 5.20571 0
M  V30 14147 H 1333.27 0.519461 2.94859 0
M  V30 14148 H 1330.81 0.251259 1.41791 0
M  V30 14149 H 1332.77 -1.75139 3.83281 0
M  V30 14150 H 1331.49 -1.96512 2.60865 0
M  V30 14151 H 1330.15 -0.112224 3.66428 0
M  V30 14152 H 1329.8 -2.48453 4.37356 0
M  V30 14153 H 1329.5 -1.35456 5.71774 0
M  V30 14154 H 1331.02 -2.28533 5.6622 0
M  V30 14155 H 1332.44 -0.0150025 5.73298 0
M  V30 14156 H 1330.83 0.7445 5.95464 0
M  V30 14157 H 1331.9 1.32318 4.66497 0
M  V30 14158 N 1333.25 -1.54984 0.285932 0
M  V30 14159 C 1334.66 -1.85519 -0.209707 0
M  V30 14160 C 1335.01 -1.20794 -1.54606 0
M  V30 14161 O 1334.13 -0.500159 -2.10541 0
M  V30 14162 C 1334.73 -3.36579 -0.387283 0
M  V30 14163 C 1333.29 -3.67199 -0.827148 0
M  V30 14164 C 1332.43 -2.77203 0.073308 0
M  V30 14165 H 1335.39 -1.5037 0.507404 0
M  V30 14166 H 1335.41 -3.60269 -1.2242 0
M  V30 14167 H 1334.92 -3.83658 0.585493 0
M  V30 14168 H 1333.02 -3.25627 -1.81101 0
M  V30 14169 H 1333.13 -4.74574 -0.656976 0
M  V30 14170 H 1331.5 -2.50785 -0.444859 0
M  V30 14171 H 1332.28 -3.27099 1.04216 0
M  V30 14172 N 1334.72 -0.0133892 -1.57594 0
M  V30 14173 C 1335.97 0.667313 -1.90765 0
M  V30 14174 C 1336.29 1.73564 -0.888847 0
M  V30 14175 O 1335.56 1.95768 0.0718946 0
M  V30 14176 H 1334.14 0.24947 -0.704112 0
M  V30 14177 H 1336.81 -0.0574789 -1.94815 0
M  V30 14178 H 1335.9 1.13007 -2.90922 0
M  V30 14179 N 1336.2 1.55448 0.259558 0
M  V30 14180 C 1337.43 1.80727 1.00723 0
M  V30 14181 C 1337.85 0.587354 1.79431 0
M  V30 14182 O 1337.2 -0.443819 1.77021 0
M  V30 14183 C 1337.25 3.04064 1.95517 0
M  V30 14184 O 1336.97 4.21346 1.19996 0
M  V30 14185 C 1338.48 3.42049 2.81988 0
M  V30 14186 H 1335.7 0.601713 0.296956 0
M  V30 14187 H 1338.24 2.02486 0.286273 0
M  V30 14188 H 1336.39 2.84392 2.63058 0
M  V30 14189 H 1336.81 4.91164 1.84006 0
M  V30 14190 H 1338.28 4.31485 3.44274 0
M  V30 14191 H 1338.76 2.62059 3.52451 0
M  V30 14192 H 1339.37 3.64027 2.19918 0
M  V30 14193 N 1337.68 -0.524672 1.4861 0
M  V30 14194 C 1339.09 -1.10655 1.50374 0
M  V30 14195 C 1339.44 -1.94242 0.276512 0
M  V30 14196 O 1338.57 -2.07451 -0.615887 0
M  V30 14197 C 1339.16 -2.01348 2.72478 0
M  V30 14198 C 1337.72 -2.54743 2.77097 0
M  V30 14199 C 1336.87 -1.31822 2.43964 0
M  V30 14200 H 1339.82 -0.309674 1.55649 0
M  V30 14201 H 1339.84 -2.85709 2.51297 0
M  V30 14202 H 1339.35 -1.40485 3.61781 0
M  V30 14203 H 1337.45 -3.19313 1.92016 0
M  V30 14204 H 1337.57 -2.93514 3.78664 0
M  V30 14205 H 1335.93 -1.63574 1.95233 0
M  V30 14206 H 1336.71 -0.727026 3.35513 0
M  V30 14207 N 1339.16 -1.37287 -0.77395 0
M  V30 14208 C 1340.09 -1.35569 -1.90114 0
M  V30 14209 C 1341.07 -0.224658 -1.6861 0
M  V30 14210 O 1342.25 -0.424676 -1.895 0
M  V30 14211 C 1339.38 -1.15971 -3.27365 0
M  V30 14212 C 1338.34 -2.26063 -3.63427 0
M  V30 14213 C 1337.66 -1.9159 -4.99197 0
M  V30 14214 C 1338.96 -3.68236 -3.70405 0
M  V30 14215 H 1340.66 -2.29891 -1.91808 0
M  V30 14216 H 1338.2 -1.10661 -0.92142 0
M  V30 14217 H 1340.16 -1.134 -4.05855 0
M  V30 14218 H 1338.88 -0.181043 -3.26098 0
M  V30 14219 H 1337.54 -2.27786 -2.87244 0
M  V30 14220 H 1337.19 -0.922586 -4.94467 0
M  V30 14221 H 1336.89 -2.65309 -5.24294 0
M  V30 14222 H 1338.41 -1.90602 -5.80089 0
M  V30 14223 H 1339.83 -3.68655 -4.39052 0
M  V30 14224 H 1338.22 -4.4099 -4.06999 0
M  V30 14225 H 1339.29 -4.02021 -2.71122 0
M  V30 14226 N 1340.64 0.999871 -1.21821 0
M  V30 14227 C 1341.86 1.7794 -1.06546 0
M  V30 14228 C 1342.29 1.84219 0.380115 0
M  V30 14229 O 1341.64 1.28955 1.27438 0
M  V30 14230 C 1341.69 3.1943 -1.67322 0
M  V30 14231 O 1340.8 4.01957 -0.922171 0
M  V30 14232 H 1340.14 0.548204 -0.374658 0
M  V30 14233 H 1342.67 1.2565 -1.61472 0
M  V30 14234 H 1342.68 3.70086 -1.71757 0
M  V30 14235 H 1341.35 3.14175 -2.7252 0
M  V30 14236 H 1339.93 3.60509 -0.95331 0
M  V30 14237 N 1342.11 1.02678 1.19562 0
M  V30 14238 C 1343.53 0.743467 1.41226 0
M  V30 14239 C 1343.73 -0.672786 1.89936 0
M  V30 14240 O 1342.79 -1.43908 2.07477 0
M  V30 14241 C 1344.1 1.77781 2.42517 0
M  V30 14242 C 1345.65 1.79711 2.56267 0
M  V30 14243 C 1346.12 2.82099 3.60811 0
M  V30 14244 N 1347.61 2.80902 3.68304 0
M  V30 14245 C 1348.35 3.5678 4.48882 0
M  V30 14246 N 1347.84 4.42367 5.33182 0
M  V30 14247 N 1349.64 3.45331 4.43512 0
M  V30 14248 H 1341.79 1.94094 0.862635 0
M  V30 14249 H 1344.05 0.839015 0.441313 0
M  V30 14250 H 1343.76 2.79295 2.13745 0
M  V30 14251 H 1343.63 1.59836 3.41661 0
M  V30 14252 H 1346.02 0.788756 2.84364 0
M  V30 14253 H 1346.1 2.01731 1.57284 0
M  V30 14254 H 1345.74 3.83104 3.33457 0
M  V30 14255 H 1345.67 2.57338 4.5944 0
M  V30 14256 H 1348.16 2.18826 3.08097 0
M  V30 14257 H 1348.48 4.97008 5.9178 0
M  V30 14258 H 1346.82 4.4644 5.3265 0
M  V30 14259 H 1350.01 2.77883 3.76695 0
M  V30 14260 H 1350.19 4.04718 5.06071 0
M  V30 14261 N 1343.59 -1.35528 0.804364 0
M  V30 14262 C 1344.56 -2.28153 0.21885 0
M  V30 14263 C 1345.56 -1.49486 -0.592511 0
M  V30 14264 O 1346.75 -1.69274 -0.411319 0
M  V30 14265 C 1343.88 -3.33736 -0.695195 0
M  V30 14266 H 1345.07 -2.81446 1.03576 0
M  V30 14267 H 1342.62 -1.45345 0.574854 0
M  V30 14268 H 1343.36 -2.85625 -1.53587 0
M  V30 14269 H 1343.14 -3.91931 -0.115143 0
M  V30 14270 H 1344.63 -4.02872 -1.09925 0
M  V30 14271 N 1345.07 -0.557671 -1.47404 0
M  V30 14272 C 1346.35 0.031908 -1.95574 0
M  V30 14273 C 1346.73 1.48509 -1.50027 0
M  V30 14274 O 1346.08 2.16209 -0.73932 0
M  V30 14275 C 1346.29 -0.114055 -3.48814 0
M  V30 14276 C 1347.63 0.0310533 -4.24589 0
M  V30 14277 O 1348.66 -0.041626 -3.56176 0
M  V30 14278 O 1347.52 0.187487 -5.46178 0
M  V30 14279 H 1344.61 0.0638747 -0.82453 0
M  V30 14280 H 1347.16 -0.624227 -1.57802 0
M  V30 14281 H 1345.93 -1.12525 -3.74772 0
M  V30 14282 H 1345.55 0.57967 -3.93352 0
M  V30 14283 N 1346.55 1.54831 -0.294147 0
M  V30 14284 C 1347.48 2.26226 0.57827 0
M  V30 14285 C 1348.46 1.25928 1.14351 0
M  V30 14286 O 1349.65 1.54687 1.17412 0
M  V30 14287 C 1346.78 2.99783 1.75349 0
M  V30 14288 C 1345.73 4.07171 1.31892 0
M  V30 14289 C 1345.06 4.68406 2.57876 0
M  V30 14290 C 1346.36 5.20313 0.455167 0
M  V30 14291 H 1348.05 2.99395 -0.0171936 0
M  V30 14292 H 1345.6 1.43997 -0.00970944 0
M  V30 14293 H 1347.55 3.48448 2.36986 0
M  V30 14294 H 1346.27 2.24181 2.37509 0
M  V30 14295 H 1344.93 3.59346 0.725653 0
M  V30 14296 H 1344.58 3.89451 3.18335 0
M  V30 14297 H 1344.28 5.40927 2.29502 0
M  V30 14298 H 1345.8 5.1983 3.20327 0
M  V30 14299 H 1347.22 5.64913 0.977026 0
M  V30 14300 H 1345.61 5.99512 0.265501 0
M  V30 14301 H 1346.68 4.82088 -0.521434 0
M  V30 14302 N 1348.03 0.0217466 1.57585 0
M  V30 14303 C 1349.44 -0.334576 1.56054 0
M  V30 14304 C 1349.64 -1.73386 1.02663 0
M  V30 14305 O 1348.7 -2.43447 0.670078 0
M  V30 14306 C 1350.01 -0.189919 3.001 0
M  V30 14307 C 1351.56 -0.263238 3.11891 0
M  V30 14308 C 1352.04 -0.147455 4.57763 0
M  V30 14309 N 1353.53 -0.204672 4.62748 0
M  V30 14310 C 1354.26 -0.138755 5.73232 0
M  V30 14311 N 1353.76 -0.0221762 6.92796 0
M  V30 14312 N 1355.55 -0.192206 5.61771 0
M  V30 14313 H 1347.7 0.936849 1.90622 0
M  V30 14314 H 1349.96 0.361119 0.876526 0
M  V30 14315 H 1349.67 0.773687 3.43084 0
M  V30 14316 H 1349.54 -0.963148 3.64696 0
M  V30 14317 H 1351.93 -1.2173 2.68823 0
M  V30 14318 H 1352.01 0.540241 2.5003 0
M  V30 14319 H 1351.66 0.803155 5.0151 0
M  V30 14320 H 1351.59 -0.969703 5.17595 0
M  V30 14321 H 1354.08 -0.29522 3.76745 0
M  V30 14322 H 1354.39 0.021631 7.72797 0
M  V30 14323 H 1352.74 0.0125033 6.94999 0
M  V30 14324 H 1355.93 -0.28163 4.67252 0
M  V30 14325 H 1356.1 -0.137372 6.47854 0
M  V30 14326 N 1349.51 -1.55583 -0.251311 0
M  V30 14327 C 1350.47 -1.89148 -1.29443 0
M  V30 14328 C 1351.47 -0.7676 -1.41296 0
M  V30 14329 O 1352.66 -1.03563 -1.40073 0
M  V30 14330 C 1349.79 -2.11601 -2.67279 0
M  V30 14331 H 1350.98 -2.82416 -1.00901 0
M  V30 14332 H 1348.54 -1.48407 -0.490398 0
M  V30 14333 H 1349.27 -1.20787 -3.00967 0
M  V30 14334 H 1349.06 -2.93449 -2.60058 0
M  V30 14335 H 1350.55 -2.38768 -3.42607 0
M  V30 14336 N 1350.98 0.516783 -1.48886 0
M  V30 14337 C 1352.23 1.27375 -1.57808 0
M  V30 14338 C 1352.56 1.92492 -0.256963 0
M  V30 14339 O 1351.84 1.79947 0.738193 0
M  V30 14340 C 1352.12 2.35295 -2.72595 0
M  V30 14341 C 1351.97 1.74783 -4.14453 0
M  V30 14342 C 1353.29 3.36973 -2.83085 0
M  V30 14343 H 1350.41 0.46175 -0.574418 0
M  V30 14344 H 1353.05 0.57434 -1.81111 0
M  V30 14345 H 1351.2 2.94951 -2.52857 0
M  V30 14346 H 1352.88 1.19076 -4.45666 0
M  V30 14347 H 1351.12 1.05258 -4.20836 0
M  V30 14348 H 1351.79 2.52985 -4.90615 0
M  V30 14349 H 1354.27 2.87289 -3.01005 0
M  V30 14350 H 1353.14 4.09864 -3.65106 0
M  V30 14351 H 1353.4 3.98336 -1.91784 0
M  V30 14352 N 1352.46 1.37696 0.766659 0
M  V30 14353 C 1353.41 1.33966 1.90147 0
M  V30 14354 C 1354.4 0.2276 1.67864 0
M  V30 14355 O 1355.61 0.395912 1.75592 0
M  V30 14356 H 1351.98 0.417611 0.625384 0
M  V30 14357 H 1353.96 2.29753 1.9041 0
M  V30 14358 C 1352.7 1.16859 3.27474 0
M  V30 14359 H 1352.03 2.01686 3.452 0
M  V30 14360 H 1353.47 1.18301 4.07162 0
M  V30 14361 C 1351.93 -0.125418 3.36666 0
M  V30 14362 O 1352.46 -1.10717 3.86141 0
M  V30 14363 N 1350.66 -0.17784 2.90055 0
M  V30 14364 H 1350.21 0.621737 2.49984 0
M  V30 14365 H 1350.17 -1.04325 2.96587 0
M  V30 14366 N 1353.94 -0.993397 1.22349 0
M  V30 14367 C 1355.19 -1.72707 1.04189 0
M  V30 14368 C 1355.5 -1.90963 -0.423381 0
M  V30 14369 O 1356.71 -2.61651 -0.724645 0
M  V30 14370 C 1355.16 -3.10739 1.81575 0
M  V30 14371 C 1354.77 -3.00415 3.32347 0
M  V30 14372 C 1356.52 -3.88155 1.71861 0
M  V30 14373 C 1354.42 -4.33598 4.02177 0
M  V30 14374 H 1353.35 -0.647556 0.386248 0
M  V30 14375 H 1356 -1.10902 1.46195 0
M  V30 14376 H 1354.39 -3.73222 1.32367 0
M  V30 14377 H 1355.56 -2.47099 3.88946 0
M  V30 14378 H 1353.87 -2.36482 3.42732 0
M  V30 14379 H 1356.47 -4.8673 2.21354 0
M  V30 14380 H 1356.81 -4.10726 0.678939 0
M  V30 14381 H 1357.35 -3.32347 2.18609 0
M  V30 14382 H 1354.09 -4.16226 5.06395 0
M  V30 14383 H 1353.61 -4.86829 3.50367 0
M  V30 14384 H 1355.29 -5.02348 4.07744 0
M  V30 14385 N 1355.42 -1.03311 -1.19015 0
M  V30 14386 C 1356.37 -0.611169 -2.24427 0
M  V30 14387 C 1357.36 0.358303 -1.65567 0
M  V30 14388 O 1358.57 0.22642 -1.7857 0
M  V30 14389 H 1354.94 -0.179393 -0.730289 0
M  V30 14390 H 1356.91 -1.51077 -2.57329 0
M  V30 14391 C 1355.66 0.0178126 -3.47695 0
M  V30 14392 H 1354.98 -0.71921 -3.93278 0
M  V30 14393 H 1356.42 0.275926 -4.23101 0
M  V30 14394 C 1354.88 1.26564 -3.12223 0
M  V30 14395 O 1355.41 2.35725 -3.25264 0
M  V30 14396 N 1353.62 1.15602 -2.66617 0
M  V30 14397 H 1353.17 0.267736 -2.56205 0
M  V30 14398 H 1353.12 1.99186 -2.43254 0
M  V30 14399 N 1356.9 1.35099 -0.81154 0
M  V30 14400 C 1357.83 2.32264 -0.239925 0
M  V30 14401 C 1358.81 1.57708 0.637354 0
M  V30 14402 O 1359.99 1.85751 0.566598 0
M  V30 14403 C 1357.12 3.41931 0.608325 0
M  V30 14404 C 1356.08 4.27659 -0.170869 0
M  V30 14405 C 1355.4 5.28691 0.799398 0
M  V30 14406 C 1356.7 5.0394 -1.37266 0
M  V30 14407 H 1358.4 2.8032 -1.05172 0
M  V30 14408 H 1355.94 1.34773 -0.507185 0
M  V30 14409 H 1357.89 4.08911 1.01832 0
M  V30 14410 H 1356.62 2.92496 1.45306 0
M  V30 14411 H 1355.28 3.62265 -0.562094 0
M  V30 14412 H 1354.93 4.75521 1.63977 0
M  V30 14413 H 1354.63 5.86921 0.282331 0
M  V30 14414 H 1356.15 5.98542 1.20749 0
M  V30 14415 H 1357.56 5.63838 -1.03728 0
M  V30 14416 H 1355.96 5.7169 -1.82456 0
M  V30 14417 H 1357.03 4.34295 -2.15676 0
M  V30 14418 N 1358.37 0.56548 1.47106 0
M  V30 14419 C 1359.61 0.0469867 2.04346 0
M  V30 14420 C 1359.98 -1.28183 1.42944 0
M  V30 14421 O 1361.18 -1.88852 1.91281 0
M  V30 14422 C 1359.45 -0.0357764 3.57382 0
M  V30 14423 S 1361.01 -0.499194 4.35951 0
M  V30 14424 H 1357.83 0.0291355 0.710403 0
M  V30 14425 H 1360.43 0.754085 1.80371 0
M  V30 14426 H 1359.13 0.935578 3.99594 0
M  V30 14427 H 1358.66 -0.766177 3.85867 0
M  V30 14428 H 1360.68 -1.75732 4.6404 0
M  V30 14429 N 1359.85 -1.54672 0.302354 0
M  V30 14430 C 1361.13 -1.92264 -0.359711 0
M  V30 14431 C 1361.51 -1.22973 -1.71583 0
M  V30 14432 O 1360.86 -0.365942 -2.25551 0
M  V30 14433 C 1361.07 -3.4578 -0.473019 0
M  V30 14434 C 1362.42 -4.18044 -0.743252 0
M  V30 14435 O 1363.44 -3.51822 -0.556778 0
M  V30 14436 O 1362.3 -5.35283 -1.10155 0
M  V30 14437 H 1359.39 -0.802112 -0.201359 0
M  V30 14438 H 1361.94 -1.66041 0.350513 0
M  V30 14439 H 1360.71 -3.88342 0.480265 0
M  V30 14440 H 1360.33 -3.78042 -1.23166 0
M  V30 14441 N 1361.33 -0.0301034 -1.57571 0
M  V30 14442 C 1362.26 0.986212 -2.05789 0
M  V30 14443 C 1363.24 1.31682 -0.95387 0
M  V30 14444 O 1364.43 1.43332 -1.22427 0
M  V30 14445 C 1361.55 2.30598 -2.48077 0
M  V30 14446 C 1360.6 2.12991 -3.69509 0
M  V30 14447 S 1361.43 1.42782 -5.16114 0
M  V30 14448 C 1362.59 2.76126 -5.61699 0
M  V30 14449 H 1362.82 0.575769 -2.91671 0
M  V30 14450 H 1360.35 0.181613 -1.53328 0
M  V30 14451 H 1362.31 3.06469 -2.73107 0
M  V30 14452 H 1360.97 2.68775 -1.62539 0
M  V30 14453 H 1360.17 3.1056 -3.96949 0
M  V30 14454 H 1359.77 1.45263 -3.44637 0
M  V30 14455 H 1362.06 3.72361 -5.65998 0
M  V30 14456 H 1363 2.53349 -6.61226 0
M  V30 14457 H 1363.41 2.81418 -4.89351 0
M  V30 14458 N 1362.81 1.55714 0.243056 0
M  V30 14459 C 1364.05 1.79491 0.977867 0
M  V30 14460 C 1364.41 0.600239 1.82376 0
M  V30 14461 O 1365.61 0.716857 2.59065 0
M  V30 14462 C 1363.88 3.08034 1.81245 0
M  V30 14463 S 1365.44 3.53046 2.60583 0
M  V30 14464 H 1362.26 0.630377 0.328855 0
M  V30 14465 H 1364.86 1.93954 0.245371 0
M  V30 14466 H 1363.57 3.93047 1.18079 0
M  V30 14467 H 1363.1 2.9632 2.58763 0
M  V30 14468 H 1365.11 3.14683 3.83652 0
M  V30 14469 N 1364.29 -0.50888 1.49158 0
M  V30 14470 C 1365.53 -1.26537 1.58481 0
M  V30 14471 C 1365.87 -1.92353 0.267168 0
M  V30 14472 O 1365.14 -1.80336 -0.728639 0
M  V30 14473 C 1365.42 -2.33846 2.73839 0
M  V30 14474 C 1365.28 -1.72582 4.15374 0
M  V30 14475 C 1366.6 -3.35467 2.84868 0
M  V30 14476 H 1363.71 -0.458697 0.576859 0
M  V30 14477 H 1366.36 -0.564728 1.81413 0
M  V30 14478 H 1364.51 -2.93605 2.54417 0
M  V30 14479 H 1366.18 -1.16711 4.46292 0
M  V30 14480 H 1364.42 -1.03025 4.21389 0
M  V30 14481 H 1365.09 -2.5038 4.91949 0
M  V30 14482 H 1367.57 -2.85689 3.02524 0
M  V30 14483 H 1366.44 -4.07922 3.67275 0
M  V30 14484 H 1366.71 -3.97313 1.93894 0
M  V30 14485 N 1365.76 -1.381 -0.759346 0
M  V30 14486 C 1367.01 -1.33311 -1.51364 0
M  V30 14487 C 1367.33 0.0761325 -1.95452 0
M  V30 14488 O 1368.53 0.246541 -2.70378 0
M  V30 14489 C 1366.99 -2.34067 -2.73387 0
M  V30 14490 C 1366.6 -3.80583 -2.36348 0
M  V30 14491 C 1368.34 -2.38311 -3.51295 0
M  V30 14492 C 1366.25 -4.73039 -3.54948 0
M  V30 14493 H 1365.18 -0.495512 -0.568317 0
M  V30 14494 H 1367.83 -1.63625 -0.830602 0
M  V30 14495 H 1366.21 -1.96788 -3.43643 0
M  V30 14496 H 1367.38 -4.26769 -1.73796 0
M  V30 14497 H 1365.7 -3.79403 -1.71587 0
M  V30 14498 H 1368.3 -3.04586 -4.39467 0
M  V30 14499 H 1368.64 -1.40034 -3.92041 0
M  V30 14500 H 1369.17 -2.74361 -2.88047 0
M  V30 14501 H 1365.91 -5.7249 -3.19273 0
M  V30 14502 H 1365.43 -4.3155 -4.16563 0
M  V30 14503 H 1367.11 -4.90775 -4.21603 0
M  V30 14504 N 1367.24 0.986894 -1.22875 0
M  V30 14505 C 1368.17 2.09628 -1.0285 0
M  V30 14506 C 1369.15 1.70019 0.0525118 0
M  V30 14507 O 1370.34 1.93883 -0.110874 0
M  V30 14508 C 1367.47 3.41866 -0.61194 0
M  V30 14509 C 1366.42 3.95351 -1.63956 0
M  V30 14510 C 1365.75 5.23707 -1.07865 0
M  V30 14511 C 1367.05 4.25354 -3.03102 0
M  V30 14512 H 1368.74 2.26639 -1.95641 0
M  V30 14513 H 1366.29 1.0891 -0.942048 0
M  V30 14514 H 1368.24 4.18893 -0.458936 0
M  V30 14515 H 1366.97 3.24701 0.35164 0
M  V30 14516 H 1365.62 3.20462 -1.78045 0
M  V30 14517 H 1365.27 5.02888 -0.106246 0
M  V30 14518 H 1364.97 5.60459 -1.76522 0
M  V30 14519 H 1366.5 6.03362 -0.937359 0
M  V30 14520 H 1367.91 4.93156 -2.92353 0
M  V30 14521 H 1366.31 4.73292 -3.68938 0
M  V30 14522 H 1367.38 3.32887 -3.52583 0
M  V30 14523 N 1368.72 1.0394 1.18466 0
M  V30 14524 C 1369.95 0.761926 1.92897 0
M  V30 14525 C 1370.37 -0.674618 1.75586 0
M  V30 14526 O 1369.73 -1.46711 1.06515 0
M  V30 14527 C 1369.78 1.13152 3.42387 0
M  V30 14528 O 1368.88 0.256266 4.11603 0
M  V30 14529 H 1368.22 0.280527 0.601831 0
M  V30 14530 H 1370.75 1.3889 1.50235 0
M  V30 14531 H 1370.76 1.0929 3.9309 0
M  V30 14532 H 1369.44 2.17804 3.54308 0
M  V30 14533 H 1368.01 0.354392 3.71212 0
M  V30 14534 N 1370.2 -1.34667 0.818693 0
M  V30 14535 C 1371.16 -2.27908 0.243037 0
M  V30 14536 C 1372.16 -1.50106 -0.576622 0
M  V30 14537 O 1373.35 -1.69701 -0.393342 0
M  V30 14538 C 1370.48 -3.34455 -0.659759 0
M  V30 14539 H 1371.68 -2.80332 1.06555 0
M  V30 14540 H 1369.23 -1.44727 0.590237 0
M  V30 14541 H 1369.96 -2.87238 -1.50549 0
M  V30 14542 H 1369.75 -3.92031 -0.073567 0
M  V30 14543 H 1371.24 -4.04016 -1.05646 0
M  V30 14544 N 1371.68 -0.573274 -1.46804 0
M  V30 14545 C 1372.62 0.178246 -2.31916 0
M  V30 14546 C 1373.62 0.89366 -1.4391 0
M  V30 14547 O 1374.82 0.81312 -1.60588 0
M  V30 14548 H 1371.2 0.0763519 -0.748114 0
M  V30 14549 H 1373.17 -0.558552 -2.93126 0
M  V30 14550 C 1371.92 1.18476 -3.26892 0
M  V30 14551 H 1371.24 0.643691 -3.94584 0
M  V30 14552 H 1372.68 1.68118 -3.89246 0
M  V30 14553 C 1371.14 2.24092 -2.51564 0
M  V30 14554 O 1371.67 3.3129 -2.27178 0
M  V30 14555 N 1369.88 1.98447 -2.1229 0
M  V30 14556 H 1369.42 1.11283 -2.32323 0
M  V30 14557 H 1369.38 2.69325 -1.62207 0
M  V30 14558 N 1373.15 1.5451 -0.310553 0
M  V30 14559 C 1374.09 2.2134 0.595098 0
M  V30 14560 C 1375.1 1.20917 1.09009 0
M  V30 14561 O 1376.29 1.47458 1.0059 0
M  V30 14562 C 1373.39 2.85384 1.82782 0
M  V30 14563 C 1372.56 4.11826 1.47372 0
M  V30 14564 C 1371.62 4.59584 2.56259 0
M  V30 14565 O 1370.65 5.24567 2.20949 0
M  V30 14566 N 1371.85 4.32709 3.86967 0
M  V30 14567 H 1374.61 2.99691 0.0229291 0
M  V30 14568 H 1372.17 1.61351 -0.133173 0
M  V30 14569 H 1374.17 3.14263 2.54992 0
M  V30 14570 H 1372.74 2.10816 2.30815 0
M  V30 14571 H 1371.96 3.89853 0.583826 0
M  V30 14572 H 1373.24 4.94138 1.21265 0
M  V30 14573 H 1372.64 3.80669 4.18458 0
M  V30 14574 H 1371.2 4.66275 4.55446 0
M  V30 14575 N 1374.63 0.0384594 1.57553 0
M  V30 14576 C 1375.58 -0.958199 2.11946 0
M  V30 14577 C 1376.58 -1.33073 1.04823 0
M  V30 14578 O 1377.78 -1.31187 1.23247 0
M  V30 14579 H 1374.16 -0.326819 0.677269 0
M  V30 14580 H 1376.13 -0.474211 2.94608 0
M  V30 14581 C 1374.88 -2.22821 2.6692 0
M  V30 14582 H 1374.2 -1.95032 3.49002 0
M  V30 14583 H 1375.64 -2.90746 3.08614 0
M  V30 14584 C 1374.1 -2.96429 1.60098 0
M  V30 14585 O 1374.63 -3.88892 1.00628 0
M  V30 14586 N 1372.83 -2.58931 1.3192 0
M  V30 14587 H 1372.38 -1.83818 1.80468 0
M  V30 14588 H 1372.34 -3.0849 0.60674 0
M  V30 14589 N 1376.11 -1.55841 -0.234795 0
M  V30 14590 C 1377.06 -1.92165 -1.31055 0
M  V30 14591 C 1378.05 -0.802106 -1.49207 0
M  V30 14592 O 1379.26 -0.986832 -1.50538 0
M  V30 14593 H 1375.63 -0.610487 -0.439101 0
M  V30 14594 H 1377.61 -2.81955 -0.976926 0
M  V30 14595 C 1376.35 -2.24329 -2.65654 0
M  V30 14596 H 1375.68 -3.09982 -2.5249 0
M  V30 14597 H 1377.12 -2.53639 -3.3977 0
M  V30 14598 C 1375.58 -1.0638 -3.19664 0
M  V30 14599 O 1376.11 -0.318047 -4.00439 0
M  V30 14600 N 1374.31 -0.851167 -2.77855 0
M  V30 14601 H 1373.86 -1.45932 -2.12277 0
M  V30 14602 H 1373.82 -0.0636875 -3.14335 0
M  V30 14603 N 1377.59 0.500963 -1.49426 0
M  V30 14604 C 1378.84 1.25171 -1.58162 0
M  V30 14605 C 1379.15 1.93678 -0.273556 0
M  V30 14606 O 1380.36 2.70442 -0.239462 0
M  V30 14607 C 1378.81 2.27276 -2.79059 0
M  V30 14608 C 1378.42 1.64708 -4.16624 0
M  V30 14609 C 1380.17 3.03178 -2.97125 0
M  V30 14610 C 1378.07 2.64923 -5.28743 0
M  V30 14611 H 1377 0.470867 -0.588897 0
M  V30 14612 H 1379.65 0.525569 -1.75812 0
M  V30 14613 H 1378.04 3.03052 -2.54903 0
M  V30 14614 H 1379.21 0.949231 -4.50917 0
M  V30 14615 H 1377.52 1.01195 -4.03916 0
M  V30 14616 H 1380.12 3.78122 -3.78058 0
M  V30 14617 H 1380.46 3.60793 -2.07687 0
M  V30 14618 H 1381 2.34517 -3.2132 0
M  V30 14619 H 1377.74 2.12089 -6.20241 0
M  V30 14620 H 1377.26 3.32948 -4.98904 0
M  V30 14621 H 1378.94 3.27349 -5.58079 0
M  V30 14622 N 1379.07 1.38501 0.752011 0
M  V30 14623 C 1380.34 1.25315 1.50185 0
M  V30 14624 C 1380.72 -0.144762 2.10603 0
M  V30 14625 O 1380.07 -1.15441 1.97194 0
M  V30 14626 C 1380.28 2.36451 2.56694 0
M  V30 14627 C 1381.63 2.74952 3.23553 0
M  V30 14628 O 1382.65 2.35774 2.67 0
M  V30 14629 O 1381.51 3.42517 4.25845 0
M  V30 14630 H 1378.61 0.490139 0.666103 0
M  V30 14631 H 1381.15 1.50333 0.787288 0
M  V30 14632 H 1379.93 3.29978 2.10309 0
M  V30 14633 H 1379.55 2.13006 3.35729 0
M  V30 14634 N 1380.55 -0.980364 1.23396 0
M  V30 14635 C 1381.82 -1.69607 0.974319 0
M  V30 14636 C 1382.2 -2.0492 -0.507064 0
M  V30 14637 O 1381.55 -1.74239 -1.47827 0
M  V30 14638 C 1381.76 -2.93743 1.88457 0
M  V30 14639 C 1383.11 -3.66256 2.14806 0
M  V30 14640 O 1384.13 -3.03776 1.86007 0
M  V30 14641 O 1382.99 -4.78698 2.63648 0
M  V30 14642 H 1380.09 -0.740878 0.367462 0
M  V30 14643 H 1382.63 -1.03558 1.34439 0
M  V30 14644 H 1381.4 -2.64244 2.88601 0
M  V30 14645 H 1381.03 -3.67528 1.51688 0
M  V30 14646 N 1382.02 -1.04567 -1.17913 0
M  V30 14647 C 1383.25 -0.772204 -1.9195 0
M  V30 14648 C 1383.67 0.671303 -1.76462 0
M  V30 14649 O 1383.02 1.45805 -1.0976 0
M  V30 14650 C 1383.07 -1.13539 -3.43207 0
M  V30 14651 O 1382.8 -2.52223 -3.58211 0
M  V30 14652 C 1384.3 -0.887146 -4.34332 0
M  V30 14653 H 1381.52 -0.281234 -0.609219 0
M  V30 14654 H 1384.06 -1.39467 -1.49563 0
M  V30 14655 H 1382.22 -0.557784 -3.83363 0
M  V30 14656 H 1382.63 -2.66275 -4.51882 0
M  V30 14657 H 1384.1 -1.19107 -5.38997 0
M  V30 14658 H 1384.58 0.1779 -4.3884 0
M  V30 14659 H 1385.19 -1.44829 -3.99881 0
M  V30 14660 N 1383.5 1.34231 -0.825823 0
M  V30 14661 C 1384.73 2.02949 -0.427354 0
M  V30 14662 C 1385.15 1.61772 0.959755 0
M  V30 14663 O 1384.51 0.803799 1.62508 0
M  V30 14664 C 1384.56 3.56522 -0.540799 0
M  V30 14665 O 1383.66 4.10065 0.438213 0
M  V30 14666 H 1383 0.640378 -0.175535 0
M  V30 14667 H 1385.53 1.71416 -1.11704 0
M  V30 14668 H 1385.54 4.05857 -0.41763 0
M  V30 14669 H 1384.22 3.85839 -1.55246 0
M  V30 14670 H 1382.79 3.71894 0.273687 0
M  V30 14671 N 1384.98 0.581051 1.46498 0
M  V30 14672 C 1385.91 -0.140957 2.33074 0
M  V30 14673 C 1386.89 -0.885323 1.45245 0
M  V30 14674 O 1388.08 -0.86111 1.74065 0
M  V30 14675 C 1385.21 -1.15625 3.27488 0
M  V30 14676 C 1384.16 -0.526829 4.24745 0
M  V30 14677 C 1383.49 -1.64847 5.08655 0
M  V30 14678 C 1384.79 0.53492 5.19554 0
M  V30 14679 H 1386.48 0.581888 2.93691 0
M  V30 14680 H 1384.03 0.281278 1.41226 0
M  V30 14681 H 1385.98 -1.6697 3.8691 0
M  V30 14682 H 1384.7 -1.90935 2.64974 0
M  V30 14683 H 1383.36 -0.0344738 3.66584 0
M  V30 14684 H 1383.01 -2.3912 4.42528 0
M  V30 14685 H 1382.71 -1.23298 5.74518 0
M  V30 14686 H 1384.23 -2.16472 5.7094 0
M  V30 14687 H 1385.65 0.106606 5.73201 0
M  V30 14688 H 1384.04 0.870639 5.93751 0
M  V30 14689 H 1385.11 1.42184 4.63586 0
M  V30 14690 N 1386.46 -1.54343 0.318742 0
M  V30 14691 C 1387.39 -2.21652 -0.583351 0
M  V30 14692 C 1388.4 -1.21494 -1.08366 0
M  V30 14693 O 1389.59 -1.4799 -0.998064 0
M  V30 14694 C 1386.69 -2.86349 -1.81266 0
M  V30 14695 C 1385.86 -4.12601 -1.45186 0
M  V30 14696 C 1384.92 -4.60937 -2.53818 0
M  V30 14697 O 1383.95 -5.25731 -2.18164 0
M  V30 14698 N 1385.15 -4.34755 -3.84667 0
M  V30 14699 H 1387.92 -2.99699 -0.00703539 0
M  V30 14700 H 1385.48 -1.61278 0.141728 0
M  V30 14701 H 1387.47 -3.15611 -2.53321 0
M  V30 14702 H 1386.04 -2.12037 -2.29693 0
M  V30 14703 H 1385.26 -3.90157 -0.563143 0
M  V30 14704 H 1386.55 -4.94774 -1.18642 0
M  V30 14705 H 1385.95 -3.82883 -4.16434 0
M  V30 14706 H 1384.5 -4.68683 -4.52967 0
M  V30 14707 N 1387.94 -0.0468143 -1.5753 0
M  V30 14708 C 1389.21 0.667567 -1.83856 0
M  V30 14709 C 1389.59 1.89297 -0.934346 0
M  V30 14710 O 1388.94 2.28499 0.00570067 0
M  V30 14711 C 1389.15 1.029 -3.33485 0
M  V30 14712 C 1390.5 1.41315 -4.00394 0
M  V30 14713 O 1391.52 1.12147 -3.38085 0
M  V30 14714 O 1390.38 1.95732 -5.10246 0
M  V30 14715 H 1387.48 0.329112 -0.758692 0
M  V30 14716 H 1390.02 -0.0758456 -1.6953 0
M  V30 14717 H 1388.79 0.157617 -3.90982 0
M  V30 14718 H 1388.42 1.83 -3.52982 0
M  V30 14719 N 1389.41 1.55964 0.226527 0
M  V30 14720 C 1390.36 1.92007 1.28069 0
M  V30 14721 C 1391.33 0.776666 1.46823 0
M  V30 14722 O 1392.52 1.03213 1.60474 0
M  V30 14723 C 1389.66 2.23784 2.62707 0
M  V30 14724 C 1388.77 3.51034 2.51792 0
M  V30 14725 C 1387.9 3.72281 3.7892 0
M  V30 14726 C 1386.94 4.93062 3.62707 0
M  V30 14727 N 1386.08 5.10725 4.81772 0
M  V30 14728 H 1390.92 2.81898 0.96631 0
M  V30 14729 H 1388.46 1.39529 0.465847 0
M  V30 14730 H 1390.42 2.40217 3.41104 0
M  V30 14731 H 1389.05 1.37073 2.92251 0
M  V30 14732 H 1388.1 3.42822 1.64856 0
M  V30 14733 H 1389.41 4.39582 2.35731 0
M  V30 14734 H 1388.56 3.88783 4.6576 0
M  V30 14735 H 1387.3 2.82004 3.97901 0
M  V30 14736 H 1386.31 4.76515 2.7425 0
M  V30 14737 H 1387.53 5.84819 3.45201 0
M  V30 14738 H 1385.48 4.2339 5.01076 0
M  V30 14739 H 1385.4 5.93397 4.68419 0
M  V30 14740 H 1386.66 5.31658 5.70053 0
M  V30 14741 N 1390.89 -0.493031 1.4969 0
M  V30 14742 C 1391.8 -1.61991 1.69694 0
M  V30 14743 C 1392.82 -1.64061 0.579641 0
M  V30 14744 O 1393.99 -1.82335 0.855323 0
M  V30 14745 C 1391.06 -2.98323 1.76648 0
M  V30 14746 C 1390.12 -3.06816 3.00271 0
M  V30 14747 C 1389.35 -4.36644 3.06883 0
M  V30 14748 O 1389.58 -5.25901 2.20872 0
M  V30 14749 O 1388.51 -4.50275 3.99419 0
M  V30 14750 H 1392.34 -1.48042 2.65174 0
M  V30 14751 H 1389.92 -0.670182 1.33525 0
M  V30 14752 H 1391.8 -3.79335 1.83529 0
M  V30 14753 H 1390.48 -3.12517 0.843482 0
M  V30 14754 H 1389.39 -2.24962 2.98903 0
M  V30 14755 H 1390.72 -2.97551 3.92077 0
M  V30 14756 N 1392.37 -1.38898 -0.744656 0
M  V30 14757 C 1393.61 -1.37019 -1.51675 0
M  V30 14758 C 1393.97 0.0371033 -1.91964 0
M  V30 14759 O 1395.18 0.180835 -2.68191 0
M  V30 14760 C 1393.45 -2.30701 -2.72969 0
M  V30 14761 S 1395.01 -2.46922 -3.62733 0
M  V30 14762 H 1391.82 -0.486035 -0.518933 0
M  V30 14763 H 1394.43 -1.74906 -0.873384 0
M  V30 14764 H 1393.13 -3.31827 -2.41494 0
M  V30 14765 H 1392.66 -1.93994 -3.42242 0
M  V30 14766 H 1394.68 -1.69994 -4.66172 0
M  V30 14767 N 1393.85 0.973806 -1.23914 0
M  V30 14768 C 1395.1 1.71027 -1.06923 0
M  V30 14769 C 1395.41 1.91612 0.392947 0
M  V30 14770 O 1396.62 2.62771 0.682927 0
M  V30 14771 C 1395.07 3.07811 -1.86496 0
M  V30 14772 C 1394.68 2.9509 -3.37085 0
M  V30 14773 C 1396.42 3.85371 -1.78015 0
M  V30 14774 C 1394.33 4.27145 -4.09024 0
M  V30 14775 H 1393.26 0.641329 -0.396501 0
M  V30 14776 H 1395.91 1.08562 -1.47941 0
M  V30 14777 H 1394.29 3.71069 -1.38288 0
M  V30 14778 H 1395.47 2.4088 -3.92827 0
M  V30 14779 H 1393.78 2.30999 -3.46451 0
M  V30 14780 H 1396.38 4.83147 -2.2907 0
M  V30 14781 H 1396.72 4.09594 -0.744196 0
M  V30 14782 H 1397.26 3.28827 -2.23869 0
M  V30 14783 H 1394 4.08117 -5.12953 0
M  V30 14784 H 1393.52 4.81194 -3.58068 0
M  V30 14785 H 1395.19 4.95798 -4.15685 0
M  V30 14786 N 1395.33 1.05191 1.17357 0
M  V30 14787 C 1396.26 0.673931 2.23563 0
M  V30 14788 C 1397.24 -0.328284 1.66902 0
M  V30 14789 O 1398.42 -0.205878 1.93106 0
M  V30 14790 C 1395.55 0.0478801 3.47267 0
M  V30 14791 C 1394.51 0.974855 4.1675 0
M  V30 14792 C 1393.83 0.212684 5.34277 0
M  V30 14793 C 1395.13 2.299 4.68981 0
M  V30 14794 H 1396.83 1.56183 2.55436 0
M  V30 14795 H 1394.37 0.752408 1.2278 0
M  V30 14796 H 1396.33 -0.228343 4.20781 0
M  V30 14797 H 1395.05 -0.874963 3.14662 0
M  V30 14798 H 1393.71 1.23564 3.45148 0
M  V30 14799 H 1393.36 -0.712924 4.97922 0
M  V30 14800 H 1393.06 0.830351 5.81703 0
M  V30 14801 H 1394.58 -0.056255 6.10574 0
M  V30 14802 H 1395.99 2.08269 5.34132 0
M  V30 14803 H 1394.39 2.87064 5.26986 0
M  V30 14804 H 1395.46 2.93759 3.8579 0
M  V30 14805 N 1396.8 -1.33791 0.83293 0
M  V30 14806 C 1397.77 -2.27637 0.267196 0
M  V30 14807 C 1398.77 -1.50709 -0.560669 0
M  V30 14808 O 1399.96 -1.70109 -0.375321 0
M  V30 14809 C 1397.09 -3.35136 -0.624248 0
M  V30 14810 H 1398.28 -2.79186 1.09522 0
M  V30 14811 H 1395.84 -1.44093 0.605554 0
M  V30 14812 H 1396.57 -2.88818 -1.47494 0
M  V30 14813 H 1396.36 -3.92087 -0.0319827 0
M  V30 14814 H 1397.85 -4.05113 -1.01355 0
M  V30 14815 N 1398.28 -0.588812 -1.46187 0
M  V30 14816 C 1399.51 -0.0806571 -2.07243 0
M  V30 14817 C 1399.93 1.21766 -1.43369 0
M  V30 14818 O 1399.29 1.73694 -0.51964 0
M  V30 14819 C 1399.34 0.065267 -3.60541 0
M  V30 14820 O 1398.44 1.12026 -3.96893 0
M  V30 14821 H 1397.78 -0.0655622 -0.660755 0
M  V30 14822 H 1400.31 -0.813489 -1.87733 0
M  V30 14823 H 1400.32 0.269494 -4.07109 0
M  V30 14824 H 1399 -0.88284 -4.06422 0
M  V30 14825 H 1397.58 0.894 -3.62025 0
M  V30 14826 N 1399.76 1.54172 -0.326923 0
M  V30 14827 C 1400.69 2.27402 0.530154 0
M  V30 14828 C 1401.67 1.28325 1.11655 0
M  V30 14829 O 1402.86 1.57142 1.14105 0
M  V30 14830 C 1399.99 3.03435 1.68951 0
M  V30 14831 C 1398.94 4.09877 1.23226 0
M  V30 14832 C 1398.27 4.7377 2.47882 0
M  V30 14833 C 1399.57 5.21161 0.344698 0
M  V30 14834 H 1401.26 2.99291 -0.0806959 0
M  V30 14835 H 1398.81 1.43944 -0.0402511 0
M  V30 14836 H 1400.76 3.53396 2.29541 0
M  V30 14837 H 1399.48 2.29169 2.327 0
M  V30 14838 H 1398.14 3.60805 0.649267 0
M  V30 14839 H 1397.79 3.96116 3.10002 0
M  V30 14840 H 1397.49 5.45674 2.17977 0
M  V30 14841 H 1399.01 5.26507 3.09229 0
M  V30 14842 H 1400.43 5.66859 0.856979 0
M  V30 14843 H 1398.83 5.99941 0.138276 0
M  V30 14844 H 1399.9 4.80874 -0.623575 0
M  V30 14845 N 1401.24 0.0551678 1.57503 0
M  V30 14846 C 1402.19 -0.935665 2.12951 0
M  V30 14847 C 1403.18 -1.31954 1.06229 0
M  V30 14848 O 1404.39 -1.29873 1.24632 0
M  V30 14849 H 1400.76 -0.319618 0.680697 0
M  V30 14850 H 1402.73 -0.442937 2.95094 0
M  V30 14851 C 1401.48 -2.19977 2.69268 0
M  V30 14852 H 1400.8 -1.91319 3.51051 0
M  V30 14853 H 1402.24 -2.87456 3.11681 0
M  V30 14854 C 1400.7 -2.94714 1.63233 0
M  V30 14855 O 1401.23 -3.87803 1.04747 0
M  V30 14856 N 1399.44 -2.57518 1.34659 0
M  V30 14857 H 1398.99 -1.81894 1.82407 0
M  V30 14858 H 1398.94 -3.07829 0.639425 0
M  V30 14859 N 1402.72 -1.56081 -0.218252 0
M  V30 14860 C 1403.97 -1.78445 -0.94022 0
M  V30 14861 C 1404.28 -0.624317 -1.85369 0
M  V30 14862 O 1405.48 -0.731669 -2.61455 0
M  V30 14863 C 1403.94 -3.16026 -1.72208 0
M  V30 14864 C 1403.55 -4.39774 -0.854584 0
M  V30 14865 C 1405.29 -3.47714 -2.43506 0
M  V30 14866 C 1403.2 -5.68379 -1.63398 0
M  V30 14867 H 1402.13 -0.665303 -0.354806 0
M  V30 14868 H 1404.78 -1.82471 -0.194021 0
M  V30 14869 H 1403.16 -3.06185 -2.5113 0
M  V30 14870 H 1404.34 -4.60679 -0.105659 0
M  V30 14871 H 1402.65 -4.15627 -0.253562 0
M  V30 14872 H 1405.25 -4.41026 -3.02325 0
M  V30 14873 H 1405.59 -2.70367 -3.16555 0
M  V30 14874 H 1406.12 -3.58899 -1.71571 0
M  V30 14875 H 1402.86 -6.48628 -0.946704 0
M  V30 14876 H 1402.38 -5.5153 -2.35743 0
M  V30 14877 H 1404.06 -6.08672 -2.1938 0
M  V30 14878 N 1404.2 0.485086 -1.49949 0
M  V30 14879 C 1405.14 1.5848 -1.67788 0
M  V30 14880 C 1406.11 1.57776 -0.519216 0
M  V30 14881 O 1407.3 1.75521 -0.748141 0
M  V30 14882 C 1404.44 2.9654 -1.76516 0
M  V30 14883 C 1403.55 3.07139 -3.03792 0
M  V30 14884 C 1402.69 4.36029 -3.03401 0
M  V30 14885 C 1401.72 4.40318 -4.2519 0
M  V30 14886 N 1400.86 5.60659 -4.22618 0
M  V30 14887 H 1405.7 1.42575 -2.6168 0
M  V30 14888 H 1403.24 0.693426 -1.29731 0
M  V30 14889 H 1405.2 3.76583 -1.79557 0
M  V30 14890 H 1403.83 3.11112 -0.860764 0
M  V30 14891 H 1402.88 2.20057 -3.10289 0
M  V30 14892 H 1404.19 3.06167 -3.9378 0
M  V30 14893 H 1403.34 5.24407 -3.05094 0
M  V30 14894 H 1402.08 4.39588 -2.11219 0
M  V30 14895 H 1401.09 3.50339 -4.23725 0
M  V30 14896 H 1402.31 4.38461 -5.18583 0
M  V30 14897 H 1400.26 5.6503 -3.33282 0
M  V30 14898 H 1400.18 5.61371 -5.06359 0
M  V30 14899 H 1401.44 6.51201 -4.28436 0
M  V30 14900 N 1405.67 1.39291 0.737279 0
M  V30 14901 C 1406.9 1.39844 1.53162 0
M  V30 14902 C 1407.32 -0.00568546 1.88099 0
M  V30 14903 O 1406.68 -0.992085 1.51748 0
M  V30 14904 C 1406.73 2.27577 2.79716 0
M  V30 14905 O 1405.83 1.70408 3.75546 0
M  V30 14906 H 1405.17 0.476314 0.462624 0
M  V30 14907 H 1407.7 1.83258 0.909819 0
M  V30 14908 H 1407.71 2.42009 3.28475 0
M  V30 14909 H 1406.39 3.29621 2.53619 0
M  V30 14910 H 1404.97 1.65206 3.34307 0
M  V30 14911 N 1407.15 -0.967221 1.24429 0
M  V30 14912 C 1408.08 -2.06071 0.980314 0
M  V30 14913 C 1409.06 -1.62372 -0.0860829 0
M  V30 14914 O 1410.25 -1.88431 0.0509524 0
M  V30 14915 C 1407.37 -3.35289 0.479452 0
M  V30 14916 C 1406.42 -3.9794 1.53447 0
M  V30 14917 S 1407.25 -4.3551 3.11595 0
M  V30 14918 C 1408.41 -5.67865 2.63212 0
M  V30 14919 H 1408.64 -2.28145 1.90623 0
M  V30 14920 H 1406.17 -1.10519 1.07819 0
M  V30 14921 H 1408.13 -4.10027 0.197103 0
M  V30 14922 H 1406.79 -3.11201 -0.425755 0
M  V30 14923 H 1405.99 -4.91067 1.13445 0
M  V30 14924 H 1405.59 -3.29634 1.76685 0
M  V30 14925 H 1407.88 -6.45405 2.06054 0
M  V30 14926 H 1408.82 -6.12724 3.5493 0
M  V30 14927 H 1409.23 -5.26496 2.03623 0
M  V30 14928 N 1408.63 -1.05812 -1.16797 0
M  V30 14929 C 1409.56 -0.622584 -2.20582 0
M  V30 14930 C 1410.57 0.316905 -1.59686 0
M  V30 14931 O 1411.76 0.108657 -1.78169 0
M  V30 14932 C 1408.86 0.108124 -3.38727 0
M  V30 14933 C 1408.04 -0.84363 -4.29187 0
M  V30 14934 C 1407.1 -0.15305 -5.25977 0
M  V30 14935 O 1406.12 -0.78915 -5.63703 0
M  V30 14936 N 1407.32 1.10721 -5.69843 0
M  V30 14937 H 1410.09 -1.51532 -2.5857 0
M  V30 14938 H 1407.65 -0.940815 -1.31758 0
M  V30 14939 H 1409.64 0.580395 -4.00517 0
M  V30 14940 H 1408.21 0.902599 -2.99286 0
M  V30 14941 H 1407.43 -1.49538 -3.64735 0
M  V30 14942 H 1408.72 -1.48946 -4.86511 0
M  V30 14943 H 1408.12 1.64423 -5.41278 0
M  V30 14944 H 1406.67 1.52344 -6.33746 0
M  V30 14945 N 1410.11 1.33347 -0.840014 0
M  V30 14946 C 1411.35 1.97745 -0.436274 0
M  V30 14947 C 1411.68 1.66538 1.00475 0
M  V30 14948 O 1410.94 0.938137 1.71748 0
M  V30 14949 C 1411.24 3.52239 -0.605173 0
M  V30 14950 C 1410.9 4.03398 -2.01446 0
M  V30 14951 C 1409.56 4.1708 -2.39994 0
M  V30 14952 C 1411.92 4.3071 -2.93494 0
M  V30 14953 C 1409.24 4.55409 -3.69891 0
M  V30 14954 C 1411.6 4.70491 -4.22873 0
M  V30 14955 C 1410.26 4.82379 -4.61375 0
M  V30 14956 H 1409.53 0.723599 -0.159644 0
M  V30 14957 H 1412.18 1.59003 -1.06725 0
M  V30 14958 H 1410.48 3.91648 0.109116 0
M  V30 14959 H 1412.18 4.00069 -0.273056 0
M  V30 14960 H 1408.77 3.93224 -1.70508 0
M  V30 14961 H 1412.95 4.19661 -2.64949 0
M  V30 14962 H 1408.21 4.62806 -3.99525 0
M  V30 14963 H 1412.38 4.9058 -4.94271 0
M  V30 14964 H 1410.01 5.11835 -5.62075 0
M  V30 14965 N 1411.59 0.596556 1.45873 0
M  V30 14966 C 1412.86 0.0199562 1.9559 0
M  V30 14967 C 1413.24 -1.44479 1.53912 0
M  V30 14968 O 1412.59 -2.14173 0.796384 0
M  V30 14969 C 1412.8 0.206497 3.48389 0
M  V30 14970 C 1414.15 0.0815298 4.24522 0
M  V30 14971 O 1415.17 0.136045 3.5594 0
M  V30 14972 O 1414.03 -0.0426117 5.46483 0
M  V30 14973 H 1411.13 -0.0419913 0.825933 0
M  V30 14974 H 1413.67 0.665846 1.56092 0
M  V30 14975 H 1412.44 1.22422 3.71656 0
M  V30 14976 H 1412.07 -0.475175 3.9475 0
M  V30 14977 N 1413.06 -1.53996 0.335095 0
M  V30 14978 C 1414.34 -1.92984 -0.318848 0
M  V30 14979 C 1414.72 -1.26585 -1.68936 0
M  V30 14980 O 1414.07 -0.413702 -2.24724 0
M  V30 14981 C 1414.28 -3.46705 -0.399568 0
M  V30 14982 C 1415.63 -4.19527 -0.654411 0
M  V30 14983 O 1416.65 -3.52923 -0.482026 0
M  V30 14984 O 1415.51 -5.37499 -0.987756 0
M  V30 14985 H 1412.6 -0.806202 -0.1843 0
M  V30 14986 H 1415.15 -1.6526 0.385653 0
M  V30 14987 H 1413.92 -3.87235 0.56253 0
M  V30 14988 H 1413.54 -3.8057 -1.15119 0
M  V30 14989 N 1414.54 -0.0635198 -1.57472 0
M  V30 14990 C 1415.77 0.620205 -1.9791 0
M  V30 14991 C 1416.19 1.62851 -0.941335 0
M  V30 14992 O 1415.55 1.81056 0.0940313 0
M  V30 14993 C 1415.6 1.27261 -3.37397 0
M  V30 14994 O 1414.7 2.38841 -3.36197 0
M  V30 14995 H 1414.04 0.16021 -0.644382 0
M  V30 14996 H 1416.57 -0.135582 -2.0415 0
M  V30 14997 H 1416.58 1.6214 -3.74399 0
M  V30 14998 H 1415.26 0.533723 -4.12461 0
M  V30 14999 H 1413.83 2.05817 -3.10956 0
M  V30 15000 N 1416.02 1.56195 0.209972 0
M  V30 15001 C 1417.27 1.78941 0.930744 0
M  V30 15002 C 1417.58 0.634139 1.85035 0
M  V30 15003 O 1418.79 0.745524 2.61064 0
M  V30 15004 C 1417.24 3.16935 1.70529 0
M  V30 15005 C 1416.85 4.40221 0.83125 0
M  V30 15006 C 1418.6 3.49 2.41659 0
M  V30 15007 C 1416.5 5.69238 1.60381 0
M  V30 15008 H 1415.43 0.667176 0.351273 0
M  V30 15009 H 1418.08 1.82572 0.184341 0
M  V30 15010 H 1416.47 3.07513 2.49503 0
M  V30 15011 H 1417.64 4.60728 0.081227 0
M  V30 15012 H 1415.95 4.15756 0.231517 0
M  V30 15013 H 1418.55 4.42623 2.99982 0
M  V30 15014 H 1418.89 2.72042 3.15117 0
M  V30 15015 H 1419.43 3.59804 1.69665 0
M  V30 15016 H 1416.17 6.49121 0.912292 0
M  V30 15017 H 1415.69 5.52772 2.32815 0
M  V30 15018 H 1417.37 6.09827 2.16149 0
M  V30 15019 N 1417.5 -0.477127 1.50204 0
M  V30 15020 C 1418.75 -1.22722 1.60573 0
M  V30 15021 C 1419.07 -1.92595 0.305326 0
M  V30 15022 O 1418.34 -1.83836 -0.676842 0
M  V30 15023 H 1416.92 -0.455973 0.591691 0
M  V30 15024 H 1419.58 -0.550915 1.86952 0
M  V30 15025 H 1418.67 -1.97837 2.41385 0
M  V30 15026 N 1418.98 -1.3968 -0.729882 0
M  V30 15027 C 1420.22 -1.37385 -1.49175 0
M  V30 15028 C 1420.56 0.0285839 -1.94179 0
M  V30 15029 O 1419.83 0.994516 -1.67152 0
M  V30 15030 C 1420.11 -2.35075 -2.72785 0
M  V30 15031 C 1419.97 -3.84282 -2.33767 0
M  V30 15032 C 1421.29 -2.30515 -3.74901 0
M  V30 15033 H 1418.4 -0.500359 -0.541119 0
M  V30 15034 H 1421.05 -1.7071 -0.834152 0
M  V30 15035 H 1419.2 -2.06787 -3.28894 0
M  V30 15036 H 1420.87 -4.2334 -1.8325 0
M  V30 15037 H 1419.11 -4.00809 -1.65935 0
M  V30 15038 H 1419.78 -4.48131 -3.22309 0
M  V30 15039 H 1422.26 -2.55539 -3.28389 0
M  V30 15040 H 1421.13 -3.00939 -4.5905 0
M  V30 15041 H 1421.4 -1.3119 -4.22187 0
M  V30 15042 N 1420.45 0.960609 -1.2494 0
M  V30 15043 C 1421.38 2.074 -1.07274 0
M  V30 15044 C 1422.37 1.70092 0.0164365 0
M  V30 15045 O 1423.55 1.93604 -0.151975 0
M  V30 15046 C 1420.68 3.40491 -0.684317 0
M  V30 15047 C 1419.63 3.91784 -1.72306 0
M  V30 15048 C 1418.96 5.21301 -1.18949 0
M  V30 15049 C 1420.26 4.18829 -3.12056 0
M  V30 15050 H 1421.95 2.22438 -2.00404 0
M  V30 15051 H 1419.5 1.06888 -0.964937 0
M  V30 15052 H 1421.45 4.17826 -0.547686 0
M  V30 15053 H 1420.18 3.25374 0.282687 0
M  V30 15054 H 1418.84 3.16613 -1.84802 0
M  V30 15055 H 1418.48 5.02549 -0.212892 0
M  V30 15056 H 1418.18 5.56588 -1.8837 0
M  V30 15057 H 1419.71 6.01238 -1.06513 0
M  V30 15058 H 1421.12 4.86844 -3.02748 0
M  V30 15059 H 1419.52 4.6536 -3.78894 0
M  V30 15060 H 1420.59 3.25333 -3.59564 0
M  V30 15061 N 1421.93 1.0643 1.16234 0
M  V30 15062 C 1422.86 0.634274 2.20249 0
M  V30 15063 C 1423.88 -0.308432 1.59852 0
M  V30 15064 O 1425.07 -0.0992067 1.78224 0
M  V30 15065 C 1422.17 -0.0901593 3.3878 0
M  V30 15066 C 1421.34 0.866379 4.28734 0
M  V30 15067 C 1420.4 0.180942 5.25889 0
M  V30 15068 O 1419.42 0.819034 5.63277 0
M  V30 15069 N 1420.63 -1.07698 5.70422 0
M  V30 15070 H 1423.39 1.52901 2.57762 0
M  V30 15071 H 1420.95 0.947789 1.31258 0
M  V30 15072 H 1422.94 -0.559147 4.00819 0
M  V30 15073 H 1421.51 -0.886715 2.9976 0
M  V30 15074 H 1420.73 1.51471 3.63937 0
M  V30 15075 H 1422.02 1.51524 4.85714 0
M  V30 15076 H 1421.42 -1.6155 5.42142 0
M  V30 15077 H 1419.98 -1.48981 6.34545 0
M  V30 15078 N 1423.41 -1.329 0.847073 0
M  V30 15079 C 1424.37 -2.27341 0.291324 0
M  V30 15080 C 1425.37 -1.51295 -0.544653 0
M  V30 15081 O 1426.56 -1.70497 -0.357258 0
M  V30 15082 C 1423.7 -3.35779 -0.588668 0
M  V30 15083 H 1424.89 -2.78009 1.12477 0
M  V30 15084 H 1422.44 -1.43442 0.620803 0
M  V30 15085 H 1423.18 -2.90366 -1.44423 0
M  V30 15086 H 1422.96 -3.92099 0.00960515 0
M  V30 15087 H 1424.45 -4.06166 -0.970526 0
M  V30 15088 N 1424.89 -0.604284 -1.45555 0
M  V30 15089 C 1425.84 0.129013 -2.32242 0
M  V30 15090 C 1426.83 0.862933 -1.45773 0
M  V30 15091 O 1428.04 0.778874 -1.62276 0
M  V30 15092 H 1424.41 0.0604661 -0.749565 0
M  V30 15093 H 1426.38 -0.620603 -2.91875 0
M  V30 15094 C 1425.13 1.11516 -3.29332 0
M  V30 15095 H 1424.45 0.559849 -3.95861 0
M  V30 15096 H 1425.89 1.59824 -3.92724 0
M  V30 15097 C 1424.35 2.18706 -2.5626 0
M  V30 15098 O 1424.88 3.26397 -2.34154 0
M  V30 15099 N 1423.09 1.93899 -2.16452 0
M  V30 15100 H 1422.64 1.0633 -2.34631 0
M  V30 15101 H 1422.59 2.65824 -1.67884 0
M  V30 15102 N 1426.37 1.53816 -0.343257 0
M  V30 15103 C 1427.59 2.05796 0.257418 0
M  V30 15104 C 1428.02 1.2166 1.43459 0
M  V30 15105 O 1427.37 0.230278 1.79832 0
M  V30 15106 C 1427.42 3.54681 0.65068 0
M  V30 15107 O 1426.53 3.73394 1.75074 0
M  V30 15108 H 1425.87 0.662622 0.042757 0
M  V30 15109 H 1428.4 1.98462 -0.497386 0
M  V30 15110 H 1428.41 3.97308 0.927914 0
M  V30 15111 H 1427.08 4.15368 -0.210199 0
M  V30 15112 H 1425.66 3.42669 1.4708 0
M  V30 15113 N 1427.84 0.0718701 1.57436 0
M  V30 15114 C 1428.78 -0.924911 2.09709 0
M  V30 15115 C 1429.79 -1.26136 1.02925 0
M  V30 15116 O 1430.98 -1.21853 1.30438 0
M  V30 15117 C 1428.08 -2.24072 2.54254 0
M  V30 15118 C 1427.25 -2.0831 3.84611 0
M  V30 15119 C 1426.31 -3.23196 4.15248 0
M  V30 15120 O 1425.34 -2.98184 4.84846 0
M  V30 15121 N 1426.54 -4.48293 3.688 0
M  V30 15122 H 1429.3 -0.478605 2.95854 0
M  V30 15123 H 1426.86 -0.113853 1.61499 0
M  V30 15124 H 1428.86 -2.99835 2.71811 0
M  V30 15125 H 1427.43 -2.60201 1.73246 0
M  V30 15126 H 1426.65 -1.17014 3.76432 0
M  V30 15127 H 1427.93 -1.9503 4.69937 0
M  V30 15128 H 1427.33 -4.71501 3.12575 0
M  V30 15129 H 1425.89 -5.21082 3.91556 0
M  V30 15130 N 1429.32 -1.56304 -0.201686 0
M  V30 15131 C 1430.57 -1.79881 -0.921269 0
M  V30 15132 C 1430.89 -0.643809 -1.84065 0
M  V30 15133 O 1430.16 0.338239 -1.92958 0
M  V30 15134 H 1428.74 -0.663506 -0.343175 0
M  V30 15135 H 1431.4 -1.93779 -0.208775 0
M  V30 15136 H 1430.5 -2.7279 -1.51631 0
M  V30 15137 N 1430.8 0.469154 -1.50455 0
M  V30 15138 C 1432.05 1.22109 -1.61541 0
M  V30 15139 C 1432.38 1.91905 -0.316646 0
M  V30 15140 O 1431.63 1.82845 0.697585 0
M  V30 15141 C 1431.93 2.28673 -2.7467 0
M  V30 15142 C 1431.6 1.76115 -4.15083 0
M  V30 15143 C 1430.26 1.61503 -4.53288 0
M  V30 15144 C 1432.61 1.37145 -5.02833 0
M  V30 15145 C 1429.94 1.06346 -5.76981 0
M  V30 15146 C 1432.29 0.834294 -6.27074 0
M  V30 15147 C 1430.95 0.674814 -6.6408 0
M  V30 15148 H 1430.22 0.44683 -0.591121 0
M  V30 15149 H 1432.87 0.516821 -1.84394 0
M  V30 15150 H 1431.18 3.05015 -2.45912 0
M  V30 15151 H 1432.87 2.86615 -2.80451 0
M  V30 15152 H 1429.46 1.88457 -3.84944 0
M  V30 15153 H 1433.65 1.47268 -4.73947 0
M  V30 15154 H 1428.9 0.927377 -6.04326 0
M  V30 15155 H 1433.08 0.523676 -6.94428 0
M  V30 15156 H 1430.7 0.245264 -7.59804 0
M  V30 15157 N 1432.28 1.40065 0.722464 0
M  V30 15158 C 1433.51 1.41271 1.51163 0
M  V30 15159 C 1433.92 0.0105425 1.88797 0
M  V30 15160 O 1433.28 -0.963867 1.5497 0
M  V30 15161 C 1433.33 2.29713 2.79131 0
M  V30 15162 O 1433.05 3.6447 2.43091 0
M  V30 15163 C 1434.55 2.39437 3.73075 0
M  V30 15164 H 1431.77 0.482086 0.466727 0
M  V30 15165 H 1434.32 1.84033 0.891736 0
M  V30 15166 H 1432.47 1.9033 3.37421 0
M  V30 15167 H 1432.88 4.11371 3.25383 0
M  V30 15168 H 1434.36 3.05543 4.59726 0
M  V30 15169 H 1434.84 1.41731 4.15703 0
M  V30 15170 H 1435.44 2.79342 3.20699 0
M  V30 15171 N 1433.76 -0.95397 1.25448 0
M  V30 15172 C 1435.17 -1.51337 1.09335 0
M  V30 15173 C 1435.52 -1.93393 -0.330698 0
M  V30 15174 O 1434.64 -1.78681 -1.22074 0
M  V30 15175 C 1435.24 -2.75024 1.97857 0
M  V30 15176 C 1433.8 -3.27274 1.85927 0
M  V30 15177 C 1432.95 -2.00108 1.91969 0
M  V30 15178 H 1435.9 -0.770795 1.38724 0
M  V30 15179 H 1435.92 -3.48867 1.51894 0
M  V30 15180 H 1435.43 -2.44383 3.01494 0
M  V30 15181 H 1433.53 -3.62734 0.851767 0
M  V30 15182 H 1433.64 -3.95245 2.70773 0
M  V30 15183 H 1432.01 -2.15438 1.35862 0
M  V30 15184 H 1432.79 -1.71816 2.97211 0
M  V30 15185 N 1435.24 -1.07045 -1.15668 0
M  V30 15186 C 1436.65 -0.814932 -1.67975 0
M  V30 15187 C 1437 0.660408 -1.84751 0
M  V30 15188 O 1436.12 1.51156 -1.54857 0
M  V30 15189 C 1436.72 -1.47274 -3.05116 0
M  V30 15190 C 1435.28 -1.26481 -3.54513 0
M  V30 15191 C 1434.42 -1.54439 -2.30312 0
M  V30 15192 H 1437.37 -1.23291 -0.999251 0
M  V30 15193 H 1437.4 -0.892244 -3.69891 0
M  V30 15194 H 1436.91 -2.54649 -2.92874 0
M  V30 15195 H 1435.01 -0.211138 -3.72001 0
M  V30 15196 H 1435.12 -1.98283 -4.36143 0
M  V30 15197 H 1433.49 -0.965269 -2.357 0
M  V30 15198 H 1434.27 -2.6299 -2.20661 0
M  V30 15199 N 1436.71 1.32449 -0.85411 0
M  V30 15200 C 1437.96 1.96881 -0.45632 0
M  V30 15201 C 1438.28 1.67926 0.991248 0
M  V30 15202 O 1437.55 0.986195 1.69266 0
M  V30 15203 H 1436.13 0.728378 -0.165752 0
M  V30 15204 H 1438.79 1.61542 -1.09042 0
M  V30 15205 H 1437.89 3.0626 -0.600927 0
M  V30 15206 N 1438.19 0.611994 1.45232 0
M  V30 15207 C 1439.12 -0.153214 2.27685 0
M  V30 15208 C 1440.1 -0.869474 1.37401 0
M  V30 15209 O 1441.29 -0.877453 1.66832 0
M  V30 15210 C 1438.41 -1.22224 3.15878 0
M  V30 15211 C 1437.46 -0.608624 4.22135 0
M  V30 15212 S 1438.29 0.586848 5.32275 0
M  V30 15213 C 1439.45 -0.482657 6.24036 0
M  V30 15214 H 1439.68 0.546316 2.92237 0
M  V30 15215 H 1437.21 0.399631 1.49139 0
M  V30 15216 H 1439.17 -1.83413 3.67246 0
M  V30 15217 H 1437.83 -1.89386 2.50583 0
M  V30 15218 H 1437.03 -1.41312 4.83784 0
M  V30 15219 H 1436.63 -0.0717689 3.73931 0
M  V30 15220 H 1438.92 -1.36053 6.63699 0
M  V30 15221 H 1439.86 0.0977803 7.08032 0
M  V30 15222 H 1440.27 -0.799965 5.58803 0
M  V30 15223 N 1439.67 -1.53632 0.351409 0
M  V30 15224 C 1440.95 -1.93311 -0.298362 0
M  V30 15225 C 1441.33 -1.28369 -1.67584 0
M  V30 15226 O 1440.67 -0.437514 -2.24272 0
M  V30 15227 C 1440.88 -3.47109 -0.362773 0
M  V30 15228 C 1442.23 -4.20197 -0.609878 0
M  V30 15229 O 1443.26 -3.53415 -0.444566 0
M  V30 15230 O 1442.12 -5.38517 -0.930691 0
M  V30 15231 H 1439.21 -0.808112 -0.175739 0
M  V30 15232 H 1441.76 -1.64841 0.40316 0
M  V30 15233 H 1440.53 -3.86617 0.60357 0
M  V30 15234 H 1440.15 -3.81769 -1.11076 0
M  V30 15235 N 1441.15 -0.0802183 -1.57396 0
M  V30 15236 C 1442.56 0.276428 -1.57188 0
M  V30 15237 C 1442.76 1.69456 -1.09027 0
M  V30 15238 O 1441.82 2.40792 -0.75997 0
M  V30 15239 C 1443.13 0.0784079 -3.00598 0
M  V30 15240 C 1444.68 0.1473 -3.12653 0
M  V30 15241 C 1445.16 -0.0225423 -4.57994 0
M  V30 15242 N 1446.65 0.0327854 -4.63188 0
M  V30 15243 C 1447.38 -0.0740922 -5.73352 0
M  V30 15244 N 1446.88 -0.234966 -6.92401 0
M  V30 15245 N 1448.67 -0.0164241 -5.62098 0
M  V30 15246 H 1440.82 -1.00695 -1.87014 0
M  V30 15247 H 1443.08 -0.393402 -0.862519 0
M  V30 15248 H 1442.79 -0.900488 -3.39977 0
M  V30 15249 H 1442.66 0.82713 -3.6802 0
M  V30 15250 H 1445.05 1.11669 -2.73156 0
M  V30 15251 H 1445.13 -0.632666 -2.47853 0
M  V30 15252 H 1444.78 -0.988733 -4.98183 0
M  V30 15253 H 1444.71 0.776933 -5.20837 0
M  V30 15254 H 1447.2 0.15519 -3.77581 0
M  V30 15255 H 1447.51 -0.308435 -7.72184 0
M  V30 15256 H 1445.86 -0.270439 -6.94474 0
M  V30 15257 H 1449.05 0.108019 -4.67975 0
M  V30 15258 H 1449.22 -0.10317 -6.47918 0
M  V30 15259 N 1442.63 1.56409 0.193394 0
M  V30 15260 C 1443.85 1.8519 0.933775 0
M  V30 15261 C 1444.28 0.663991 1.75991 0
M  V30 15262 O 1443.63 -0.387198 1.77117 0
M  V30 15263 C 1443.68 3.12212 1.80432 0
M  V30 15264 O 1442.79 2.92884 2.90332 0
M  V30 15265 H 1442.13 0.609754 0.262862 0
M  V30 15266 H 1444.66 2.03638 0.198195 0
M  V30 15267 H 1444.67 3.4305 2.20864 0
M  V30 15268 H 1443.34 3.98292 1.19733 0
M  V30 15269 H 1441.92 2.73349 2.53643 0
M  V30 15270 N 1444.1 -0.461169 1.50702 0
M  V30 15271 C 1445.33 -1.24019 1.66235 0
M  V30 15272 C 1445.75 -1.84827 0.349388 0
M  V30 15273 O 1445.11 -1.67743 -0.687888 0
M  V30 15274 C 1445.16 -2.31743 2.76274 0
M  V30 15275 O 1444.26 -3.3664 2.38217 0
M  V30 15276 H 1443.6 -0.364424 0.55506 0
M  V30 15277 H 1446.13 -0.547636 1.97135 0
M  V30 15278 H 1446.14 -2.76902 2.99649 0
M  V30 15279 H 1444.82 -1.86858 3.7156 0
M  V30 15280 H 1443.4 -2.97123 2.25327 0
M  V30 15281 N 1445.58 -1.40446 -0.715026 0
M  V30 15282 C 1446.99 -1.34564 -1.29419 0
M  V30 15283 C 1447.34 -0.0193984 -1.9619 0
M  V30 15284 O 1446.47 0.882616 -1.97582 0
M  V30 15285 C 1447.06 -2.43721 -2.35342 0
M  V30 15286 C 1445.62 -2.41297 -2.88881 0
M  V30 15287 C 1444.77 -2.2457 -1.62676 0
M  V30 15288 H 1447.72 -1.50244 -0.511116 0
M  V30 15289 H 1447.74 -2.1166 -3.16197 0
M  V30 15290 H 1447.25 -3.40234 -1.86715 0
M  V30 15291 H 1445.35 -1.48483 -3.41736 0
M  V30 15292 H 1445.47 -3.36903 -3.40637 0
M  V30 15293 H 1443.83 -1.72096 -1.87763 0
M  V30 15294 H 1444.61 -3.23082 -1.16074 0
M  V30 15295 N 1447.06 0.947303 -1.25952 0
M  V30 15296 C 1448.34 1.66964 -1.01894 0
M  V30 15297 C 1448.72 2.06192 0.452555 0
M  V30 15298 O 1448.06 1.78098 1.43156 0
M  V30 15299 C 1448.27 2.88643 -1.96179 0
M  V30 15300 C 1449.62 3.60432 -2.24441 0
M  V30 15301 O 1450.65 2.98737 -1.93996 0
M  V30 15302 O 1449.51 4.7154 -2.76247 0
M  V30 15303 H 1446.6 0.730875 -0.386976 0
M  V30 15304 H 1449.15 0.999577 -1.37137 0
M  V30 15305 H 1447.92 2.565 -2.95506 0
M  V30 15306 H 1447.54 3.63377 -1.61379 0
M  V30 15307 N 1448.54 1.07657 1.15099 0
M  V30 15308 C 1449.49 0.694043 2.22004 0
M  V30 15309 C 1450.48 -0.296607 1.66783 0
M  V30 15310 O 1451.69 -0.159989 1.79288 0
M  V30 15311 H 1448.06 0.206374 0.723128 0
M  V30 15312 H 1450.03 1.60523 2.51545 0
M  V30 15313 C 1448.78 0.111245 3.47522 0
M  V30 15314 H 1448.1 0.864677 3.90338 0
M  V30 15315 H 1449.54 -0.118705 4.23834 0
M  V30 15316 C 1448 -1.14889 3.16705 0
M  V30 15317 O 1448.53 -2.2349 3.33789 0
M  V30 15318 N 1446.74 -1.05627 2.70724 0
M  V30 15319 H 1446.29 -0.172463 2.57022 0
M  V30 15320 H 1446.24 -1.9002 2.50479 0
M  V30 15321 N 1450.02 -1.31994 0.861122 0
M  V30 15322 C 1451.24 -2.01745 0.481013 0
M  V30 15323 C 1451.67 -1.6426 -0.916527 0
M  V30 15324 O 1451.02 -0.846603 -1.60319 0
M  V30 15325 C 1451.07 -3.54963 0.635134 0
M  V30 15326 O 1450.18 -4.11083 -0.329337 0
M  V30 15327 H 1449.52 -0.635499 0.192452 0
M  V30 15328 H 1452.05 -1.68394 1.1621 0
M  V30 15329 H 1452.06 -4.04607 0.525089 0
M  V30 15330 H 1450.73 -3.81587 1.65422 0
M  V30 15331 H 1449.31 -3.72489 -0.174989 0
M  V30 15332 N 1451.49 -0.619688 -1.44906 0
M  V30 15333 C 1452.91 -0.203309 -1.8559 0
M  V30 15334 C 1453.26 1.24265 -1.51831 0
M  V30 15335 O 1452.38 1.94392 -0.950819 0
M  V30 15336 C 1452.98 -0.362204 -3.36858 0
M  V30 15337 C 1451.54 -0.000423575 -3.764 0
M  V30 15338 C 1450.68 -0.680979 -2.68808 0
M  V30 15339 H 1453.63 -0.825595 -1.35535 0
M  V30 15340 H 1453.65 0.402149 -3.78369 0
M  V30 15341 H 1453.17 -1.41468 -3.61398 0
M  V30 15342 H 1451.27 1.05077 -3.57477 0
M  V30 15343 H 1451.38 -0.402508 -4.77406 0
M  V30 15344 H 1449.74 -0.117407 -2.54429 0
M  V30 15345 H 1450.53 -1.73583 -2.96182 0
M  V30 15346 N 1452.97 1.53444 -0.359552 0
M  V30 15347 C 1454.22 2.01464 0.232366 0
M  V30 15348 C 1454.55 1.24656 1.48911 0
M  V30 15349 O 1453.83 0.338574 1.9153 0
M  V30 15350 C 1454.11 3.56172 0.530403 0
M  V30 15351 C 1453.96 4.43678 -0.739556 0
M  V30 15352 C 1455.28 4.19412 1.33347 0
M  V30 15353 H 1452.4 0.732314 0.0829802 0
M  V30 15354 H 1455.04 1.83752 -0.483253 0
M  V30 15355 H 1453.19 3.71396 1.14004 0
M  V30 15356 H 1454.86 4.40263 -1.37719 0
M  V30 15357 H 1453.11 4.11892 -1.36117 0
M  V30 15358 H 1453.78 5.49856 -0.486062 0
M  V30 15359 H 1456.25 4.07984 0.817816 0
M  V30 15360 H 1455.13 5.277 1.51075 0
M  V30 15361 H 1455.39 3.7508 2.34024 0
M  V30 15362 N 1454.45 0.0885642 1.57351 0
M  V30 15363 C 1455.4 -0.883199 2.10199 0
M  V30 15364 C 1456.38 -1.24805 1.0155 0
M  V30 15365 O 1457.58 -1.22423 1.27835 0
M  V30 15366 C 1454.71 -2.14467 2.68065 0
M  V30 15367 C 1453.79 -1.80555 3.83746 0
M  V30 15368 N 1454.18 -1.17169 4.92042 0
M  V30 15369 C 1452.48 -2.10204 3.93358 0
M  V30 15370 C 1453.18 -1.01722 5.72737 0
M  V30 15371 N 1452.16 -1.53241 5.21553 0
M  V30 15372 H 1455.96 -0.38908 2.91313 0
M  V30 15373 H 1453.47 -0.114842 1.61993 0
M  V30 15374 H 1455.47 -2.85021 3.04251 0
M  V30 15375 H 1454.13 -2.64451 1.88403 0
M  V30 15376 H 1455.14 -0.839293 5.11054 0
M  V30 15377 H 1451.82 -2.62448 3.24696 0
M  V30 15378 H 1453.21 -0.522042 6.69869 0
M  V30 15379 N 1455.93 -1.56509 -0.185096 0
M  V30 15380 C 1457.18 -1.80848 -0.902139 0
M  V30 15381 C 1457.5 -0.663295 -1.83372 0
M  V30 15382 O 1456.77 0.317754 -1.93306 0
M  V30 15383 H 1455.35 -0.667108 -0.336119 0
M  V30 15384 H 1458.01 -1.93989 -0.188211 0
M  V30 15385 H 1457.11 -2.74383 -1.48729 0
M  V30 15386 N 1457.41 0.45317 -1.50944 0
M  V30 15387 C 1458.34 1.56825 -1.65775 0
M  V30 15388 C 1459.32 1.54542 -0.505515 0
M  V30 15389 O 1460.5 1.73902 -0.727336 0
M  V30 15390 C 1457.63 2.95411 -1.65681 0
M  V30 15391 C 1456.67 3.1578 -2.8668 0
M  V30 15392 S 1457.51 2.93763 -4.47731 0
M  V30 15393 C 1458.66 4.34659 -4.50358 0
M  V30 15394 H 1458.9 1.44008 -2.60094 0
M  V30 15395 H 1456.43 0.64177 -1.4043 0
M  V30 15396 H 1458.39 3.75301 -1.66311 0
M  V30 15397 H 1457.05 3.05603 -0.725659 0
M  V30 15398 H 1456.24 4.17066 -2.8297 0
M  V30 15399 H 1455.84 2.4369 -2.8371 0
M  V30 15400 H 1458.14 5.27599 -4.25024 0
M  V30 15401 H 1459.08 4.43408 -5.52082 0
M  V30 15402 H 1459.49 4.17575 -3.79857 0
M  V30 15403 N 1458.88 1.40823 0.707568 0
M  V30 15404 C 1459.81 1.44485 1.83429 0
M  V30 15405 C 1460.8 0.304848 1.67346 0
M  V30 15406 O 1461.98 0.514605 1.87258 0
M  V30 15407 C 1459.11 1.31458 3.21459 0
M  V30 15408 C 1458.06 2.43145 3.52228 0
M  V30 15409 C 1457.39 2.15189 4.89487 0
M  V30 15410 C 1458.69 3.85489 3.52414 0
M  V30 15411 H 1460.38 2.38781 1.80622 0
M  V30 15412 H 1457.93 1.14931 0.867572 0
M  V30 15413 H 1459.88 1.32635 3.99983 0
M  V30 15414 H 1458.61 0.336422 3.24863 0
M  V30 15415 H 1457.27 2.41231 2.76049 0
M  V30 15416 H 1456.91 1.15745 4.89502 0
M  V30 15417 H 1456.61 2.90022 5.11039 0
M  V30 15418 H 1458.14 2.18062 5.70334 0
M  V30 15419 H 1459.55 3.89183 4.20963 0
M  V30 15420 H 1457.95 4.59906 3.85495 0
M  V30 15421 H 1459.02 4.14499 2.51632 0
M  V30 15422 N 1460.36 -0.94061 1.26453 0
M  V30 15423 C 1461.78 -1.21424 1.03578 0
M  V30 15424 C 1461.98 -2.00081 -0.238726 0
M  V30 15425 O 1461.03 -2.3404 -0.947709 0
M  V30 15426 C 1462.35 -1.97496 2.26751 0
M  V30 15427 C 1463.9 -2.10485 2.31657 0
M  V30 15428 C 1464.37 -2.89959 3.54525 0
M  V30 15429 N 1465.86 -2.97533 3.55005 0
M  V30 15430 C 1466.6 -3.59456 4.46742 0
M  V30 15431 N 1466.09 -4.22876 5.48769 0
M  V30 15432 N 1467.89 -3.56734 4.34393 0
M  V30 15433 H 1460.04 -0.414788 2.08311 0
M  V30 15434 H 1462.3 -0.246047 0.915513 0
M  V30 15435 H 1462.01 -1.47109 3.19456 0
M  V30 15436 H 1461.88 -2.98159 2.31043 0
M  V30 15437 H 1464.27 -2.60064 1.39466 0
M  V30 15438 H 1464.35 -1.09082 2.31376 0
M  V30 15439 H 1463.99 -2.41067 4.47045 0
M  V30 15440 H 1463.92 -3.91619 3.52054 0
M  V30 15441 H 1466.41 -2.52446 2.81211 0
M  V30 15442 H 1466.73 -4.68026 6.14956 0
M  V30 15443 H 1465.07 -4.21461 5.52626 0
M  V30 15444 H 1468.26 -3.06381 3.53904 0
M  V30 15445 H 1468.43 -4.04706 5.0608 0
M  V30 15446 N 1461.84 -1.08266 -1.14527 0
M  V30 15447 C 1462.77 -0.669233 -2.19212 0
M  V30 15448 C 1463.79 0.282962 -1.60322 0
M  V30 15449 O 1464.97 0.0708403 -1.78359 0
M  V30 15450 C 1462.07 0.0362509 -3.38881 0
M  V30 15451 C 1461.25 -0.934477 -4.27301 0
M  V30 15452 C 1460.31 -0.264584 -5.25534 0
M  V30 15453 O 1459.33 -0.908543 -5.61902 0
M  V30 15454 N 1460.53 0.98609 -5.72063 0
M  V30 15455 H 1463.3 -1.56982 -2.55297 0
M  V30 15456 H 1460.86 -0.968551 -1.29733 0
M  V30 15457 H 1462.85 0.495309 -4.01658 0
M  V30 15458 H 1461.42 0.838913 -3.01133 0
M  V30 15459 H 1460.64 -1.57241 -3.61481 0
M  V30 15460 H 1461.93 -1.59232 -4.83242 0
M  V30 15461 H 1461.33 1.52904 -5.44644 0
M  V30 15462 H 1459.89 1.38867 -6.36835 0
M  V30 15463 N 1463.32 1.31536 -0.86811 0
M  V30 15464 C 1464.73 1.78991 -0.530937 0
M  V30 15465 C 1465.08 1.71553 0.952046 0
M  V30 15466 O 1464.21 1.28216 1.74326 0
M  V30 15467 C 1464.8 3.25004 -0.956981 0
M  V30 15468 C 1463.36 3.70362 -0.671495 0
M  V30 15469 C 1462.51 2.52361 -1.14932 0
M  V30 15470 H 1465.46 1.18644 -1.05401 0
M  V30 15471 H 1465.48 3.79477 -0.278883 0
M  V30 15472 H 1464.99 3.30385 -2.03635 0
M  V30 15473 H 1463.09 3.70483 0.39659 0
M  V30 15474 H 1463.21 4.62581 -1.24722 0
M  V30 15475 H 1461.57 2.4826 -0.569144 0
M  V30 15476 H 1462.35 2.60489 -2.23608 0
M  V30 15477 N 1464.8 0.627364 1.44575 0
M  V30 15478 C 1466.02 0.135576 2.06956 0
M  V30 15479 C 1466.45 -1.17922 1.46547 0
M  V30 15480 O 1465.81 -1.72255 0.565509 0
M  V30 15481 C 1465.85 0.030347 3.60587 0
M  V30 15482 O 1464.96 -1.01464 3.99724 0
M  V30 15483 H 1464.3 0.083058 0.658785 0
M  V30 15484 H 1466.83 0.862977 1.8551 0
M  V30 15485 H 1466.84 -0.161461 4.0768 0
M  V30 15486 H 1465.51 0.990285 4.03938 0
M  V30 15487 H 1464.09 -0.797701 3.64268 0
M  V30 15488 N 1466.28 -1.53251 0.367684 0
M  V30 15489 C 1467.52 -2.00469 -0.222481 0
M  V30 15490 C 1467.84 -1.259 -1.49695 0
M  V30 15491 O 1469.04 -1.63717 -2.16585 0
M  V30 15492 C 1467.5 -3.57113 -0.447018 0
M  V30 15493 C 1467.11 -4.40562 0.812946 0
M  V30 15494 C 1468.85 -4.12681 -0.994725 0
M  V30 15495 C 1466.76 -5.88763 0.557877 0
M  V30 15496 H 1465.69 -0.748974 -0.0869144 0
M  V30 15497 H 1468.34 -1.76927 0.48675 0
M  V30 15498 H 1466.72 -3.76818 -1.21756 0
M  V30 15499 H 1467.9 -4.3263 1.58644 0
M  V30 15500 H 1466.21 -3.96108 1.28403 0
M  V30 15501 H 1468.81 -5.2104 -1.20091 0
M  V30 15502 H 1469.15 -3.67408 -1.95748 0
M  V30 15503 H 1469.68 -3.96783 -0.284295 0
M  V30 15504 H 1466.42 -6.38317 1.49102 0
M  V30 15505 H 1465.94 -5.99539 -0.177082 0
M  V30 15506 H 1467.62 -6.46738 0.18419 0
M  V30 15507 N 1467.75 -0.0969077 -1.57302 0
M  V30 15508 C 1468.98 0.574705 -1.98758 0
M  V30 15509 C 1469.4 1.61612 -0.976067 0
M  V30 15510 O 1468.75 1.82468 0.0340803 0
M  V30 15511 C 1468.8 1.22078 -3.40263 0
M  V30 15512 O 1468.53 0.221022 -4.37542 0
M  V30 15513 C 1470.03 1.97783 -3.96732 0
M  V30 15514 H 1467.25 0.153934 -0.653104 0
M  V30 15515 H 1469.79 -0.17673 -2.03735 0
M  V30 15516 H 1467.95 1.92314 -3.36295 0
M  V30 15517 H 1468.36 0.687583 -5.19974 0
M  V30 15518 H 1469.83 2.38346 -4.97891 0
M  V30 15519 H 1470.31 2.8444 -3.3465 0
M  V30 15520 H 1470.92 1.3236 -4.04179 0
M  V30 15521 N 1469.23 1.56605 0.176793 0
M  V30 15522 C 1470.46 1.85812 0.910019 0
M  V30 15523 C 1470.87 0.68164 1.76066 0
M  V30 15524 O 1470.23 -0.34936 1.79125 0
M  V30 15525 C 1470.28 3.14001 1.79125 0
M  V30 15526 O 1470 4.27114 0.974931 0
M  V30 15527 C 1471.5 3.56516 2.6346 0
M  V30 15528 H 1468.72 0.616608 0.264643 0
M  V30 15529 H 1471.27 2.03719 0.178537 0
M  V30 15530 H 1469.42 2.97937 2.47613 0
M  V30 15531 H 1469.84 5.00227 1.57711 0
M  V30 15532 H 1471.31 4.49128 3.20918 0
M  V30 15533 H 1471.79 2.80373 3.38065 0
M  V30 15534 H 1472.39 3.75173 2.00313 0
M  V30 15535 N 1470.71 -0.445159 1.51182 0
M  V30 15536 C 1471.96 -1.19288 1.6314 0
M  V30 15537 C 1472.28 -1.91904 0.346109 0
M  V30 15538 O 1471.55 -1.8523 -0.637695 0
M  V30 15539 H 1470.13 -0.443319 0.601229 0
M  V30 15540 H 1472.79 -0.511136 1.88078 0
M  V30 15541 H 1471.89 -1.92672 2.45528 0
M  V30 15542 N 1472.19 -1.41197 -0.700089 0
M  V30 15543 C 1473.43 -1.40519 -1.46227 0
M  V30 15544 C 1473.77 -0.0126108 -1.94196 0
M  V30 15545 O 1473.04 0.958837 -1.69223 0
M  V30 15546 C 1473.32 -2.40808 -2.67738 0
M  V30 15547 C 1473.18 -3.89154 -2.25563 0
M  V30 15548 C 1474.5 -2.38415 -3.69927 0
M  V30 15549 H 1471.62 -0.511724 -0.530384 0
M  V30 15550 H 1474.26 -1.72441 -0.797754 0
M  V30 15551 H 1472.41 -2.13717 -3.24434 0
M  V30 15552 H 1474.08 -4.27132 -1.74229 0
M  V30 15553 H 1472.32 -4.04239 -1.57395 0
M  V30 15554 H 1472.99 -4.54866 -3.12731 0
M  V30 15555 H 1475.47 -2.62447 -3.22895 0
M  V30 15556 H 1474.35 -3.10609 -4.52563 0
M  V30 15557 H 1474.61 -1.40116 -4.19309 0
M  V30 15558 N 1473.67 0.933891 -1.2695 0
M  V30 15559 C 1474.61 2.05498 -1.08964 0
M  V30 15560 C 1475.61 1.69394 -0.0144837 0
M  V30 15561 O 1476.81 1.79179 -0.171729 0
M  V30 15562 H 1473.19 0.672978 -0.335566 0
M  V30 15563 H 1475.16 2.17817 -2.03957 0
M  V30 15564 C 1473.91 3.39579 -0.747074 0
M  V30 15565 H 1473.23 3.67842 -1.56628 0
M  V30 15566 H 1474.67 4.18815 -0.661064 0
M  V30 15567 C 1473.13 3.3241 0.548214 0
M  V30 15568 O 1473.66 3.69132 1.58443 0
M  V30 15569 N 1471.87 2.85509 0.541545 0
M  V30 15570 H 1471.41 2.55822 -0.302112 0
M  V30 15571 H 1471.37 2.81095 1.4083 0
M  V30 15572 N 1475.14 1.08871 1.13951 0
M  V30 15573 C 1476.39 0.816198 1.84448 0
M  V30 15574 C 1476.71 -0.660396 1.84114 0
M  V30 15575 O 1477.91 -1.04825 2.50448 0
M  V30 15576 C 1476.37 1.41015 3.31123 0
M  V30 15577 C 1475.98 2.91888 3.39861 0
M  V30 15578 C 1477.72 1.21633 4.06701 0
M  V30 15579 C 1475.63 3.44397 4.80775 0
M  V30 15580 H 1474.56 0.301662 0.691025 0
M  V30 15581 H 1477.21 1.31072 1.28423 0
M  V30 15582 H 1475.59 0.843333 3.86916 0
M  V30 15583 H 1476.76 3.54747 2.94094 0
M  V30 15584 H 1475.08 3.10238 2.77743 0
M  V30 15585 H 1477.68 1.58324 5.10723 0
M  V30 15586 H 1478.02 0.156519 4.16006 0
M  V30 15587 H 1478.55 1.75035 3.57222 0
M  V30 15588 H 1475.29 4.49973 4.7666 0
M  V30 15589 H 1474.81 2.86299 5.27061 0
M  V30 15590 H 1476.49 3.41266 5.49679 0
M  V30 15591 N 1476.62 -1.31073 0.875073 0
M  V30 15592 C 1478.03 -1.78707 0.540422 0
M  V30 15593 C 1478.38 -1.72056 -0.942935 0
M  V30 15594 O 1477.51 -1.29139 -1.73643 0
M  V30 15595 C 1478.1 -3.24491 0.974203 0
M  V30 15596 C 1476.66 -3.70001 0.691127 0
M  V30 15597 C 1475.81 -2.51748 1.16269 0
M  V30 15598 H 1478.76 -1.18083 1.06029 0
M  V30 15599 H 1478.78 -3.79323 0.299003 0
M  V30 15600 H 1478.29 -3.29301 2.05384 0
M  V30 15601 H 1476.39 -3.70688 -0.376937 0
M  V30 15602 H 1476.51 -4.61913 1.27173 0
M  V30 15603 H 1474.87 -2.47954 0.582302 0
M  V30 15604 H 1475.65 -2.59299 2.24986 0
M  V30 15605 N 1478.1 -0.635022 -1.4424 0
M  V30 15606 C 1479.35 -0.138497 -2.01224 0
M  V30 15607 C 1479.66 1.2485 -1.50571 0
M  V30 15608 O 1480.87 1.83926 -1.99709 0
M  V30 15609 C 1479.32 -0.196836 -3.59361 0
M  V30 15610 C 1478.93 -1.58539 -4.1901 0
M  V30 15611 C 1480.68 0.243025 -4.23804 0
M  V30 15612 C 1478.58 -1.59864 -5.69384 0
M  V30 15613 H 1477.51 -0.0480117 -0.75247 0
M  V30 15614 H 1480.16 -0.794391 -1.65414 0
M  V30 15615 H 1478.55 0.526231 -3.92488 0
M  V30 15616 H 1479.72 -2.33236 -3.97414 0
M  V30 15617 H 1478.04 -1.96967 -3.66869 0
M  V30 15618 H 1480.63 0.252717 -5.34102 0
M  V30 15619 H 1480.98 1.27107 -3.96421 0
M  V30 15620 H 1481.51 -0.427678 -3.95494 0
M  V30 15621 H 1478.25 -2.60518 -6.01507 0
M  V30 15622 H 1477.77 -0.894664 -5.9309 0
M  V30 15623 H 1479.45 -1.3343 -6.33092 0
M  V30 15624 N 1479.58 1.53054 -0.375806 0
M  V30 15625 C 1480.83 2.00584 0.211847 0
M  V30 15626 C 1481.14 1.26692 1.49025 0
M  V30 15627 O 1482.35 1.64863 2.15713 0
M  V30 15628 C 1480.8 3.57345 0.428074 0
M  V30 15629 C 1480.41 4.40125 -0.836299 0
M  V30 15630 C 1482.15 4.13203 0.972825 0
M  V30 15631 C 1480.06 5.88459 -0.589093 0
M  V30 15632 H 1478.99 0.749424 0.0829412 0
M  V30 15633 H 1481.64 1.76666 -0.496126 0
M  V30 15634 H 1480.02 3.77458 1.19756 0
M  V30 15635 H 1481.2 4.31782 -1.60936 0
M  V30 15636 H 1479.51 3.95422 -1.30501 0
M  V30 15637 H 1482.11 5.21669 1.17326 0
M  V30 15638 H 1482.45 3.68441 1.93797 0
M  V30 15639 H 1482.99 3.96928 0.263249 0
M  V30 15640 H 1479.73 6.37517 -1.52485 0
M  V30 15641 H 1479.25 5.99624 0.145285 0
M  V30 15642 H 1480.92 6.46631 -0.218485 0
M  V30 15643 N 1481.06 0.105248 1.57248 0
M  V30 15644 C 1482.28 -0.564157 1.9906 0
M  V30 15645 C 1482.7 -1.61092 0.984624 0
M  V30 15646 O 1482.06 -1.82484 -0.0244031 0
M  V30 15647 C 1482.11 -1.20272 3.40906 0
M  V30 15648 O 1481.83 -0.197815 4.37653 0
M  V30 15649 C 1483.33 -1.95677 3.97776 0
M  V30 15650 H 1480.55 -0.150468 0.653912 0
M  V30 15651 H 1483.09 0.187532 2.03638 0
M  V30 15652 H 1481.25 -1.90528 3.3731 0
M  V30 15653 H 1481.66 -0.659998 5.20331 0
M  V30 15654 H 1483.14 -2.35702 4.99148 0
M  V30 15655 H 1483.61 -2.82661 3.36154 0
M  V30 15656 H 1484.22 -1.30215 4.04876 0
M  V30 15657 N 1482.53 -1.56697 -0.168486 0
M  V30 15658 C 1483.44 -1.99866 -1.22845 0
M  V30 15659 C 1484.46 -0.910491 -1.48277 0
M  V30 15660 O 1485.64 -1.21834 -1.6037 0
M  V30 15661 C 1482.7 -2.35227 -2.54694 0
M  V30 15662 C 1481.76 -3.57886 -2.37099 0
M  V30 15663 C 1481 -3.91551 -3.62661 0
M  V30 15664 O 1481.22 -3.26148 -4.67957 0
M  V30 15665 O 1480.15 -4.8489 -3.56603 0
M  V30 15666 H 1483.98 -2.90305 -0.892015 0
M  V30 15667 H 1481.56 -1.44602 -0.375571 0
M  V30 15668 H 1483.45 -2.58928 -3.32467 0
M  V30 15669 H 1482.12 -1.4795 -2.87911 0
M  V30 15670 H 1481.03 -3.394 -1.57348 0
M  V30 15671 H 1482.36 -4.45714 -2.08806 0
M  V30 15672 N 1484.01 0.437135 -1.51416 0
M  V30 15673 C 1484.94 1.538 -1.75692 0
M  V30 15674 C 1485.92 1.5891 -0.606759 0
M  V30 15675 O 1487.11 1.74635 -0.849492 0
M  V30 15676 C 1484.24 2.91877 -1.88215 0
M  V30 15677 C 1483.19 3.01628 -3.03652 0
M  V30 15678 C 1482.52 4.41687 -3.01358 0
M  V30 15679 C 1483.82 2.75691 -4.43612 0
M  V30 15680 H 1485.51 1.33737 -2.67871 0
M  V30 15681 H 1483.06 0.641936 -1.289 0
M  V30 15682 H 1485.01 3.68851 -2.03781 0
M  V30 15683 H 1483.74 3.13173 -0.926847 0
M  V30 15684 H 1482.39 2.27094 -2.87791 0
M  V30 15685 H 1482.04 4.5995 -2.03605 0
M  V30 15686 H 1481.74 4.49141 -3.78875 0
M  V30 15687 H 1483.27 5.20634 -3.19018 0
M  V30 15688 H 1484.68 3.42398 -4.59822 0
M  V30 15689 H 1483.08 2.94554 -5.22836 0
M  V30 15690 H 1484.15 1.71297 -4.53636 0
M  V30 15691 N 1485.49 1.41566 0.692592 0
M  V30 15692 C 1486.74 1.41292 1.4548 0
M  V30 15693 C 1487.07 0.0229093 1.94186 0
M  V30 15694 O 1486.34 -0.949849 1.6973 0
M  V30 15695 C 1486.63 2.42225 2.66457 0
M  V30 15696 C 1486.48 3.90345 2.23496 0
M  V30 15697 C 1487.8 2.40374 3.68658 0
M  V30 15698 H 1484.92 0.51453 0.527663 0
M  V30 15699 H 1487.56 1.72862 0.788598 0
M  V30 15700 H 1485.71 2.15435 3.23296 0
M  V30 15701 H 1487.38 4.2805 1.71962 0
M  V30 15702 H 1485.63 4.05068 1.55249 0
M  V30 15703 H 1486.3 4.56518 3.10314 0
M  V30 15704 H 1488.77 2.64156 3.21498 0
M  V30 15705 H 1487.65 3.13004 4.5091 0
M  V30 15706 H 1487.91 1.42338 4.1856 0
M  V30 15707 N 1486.97 -0.927146 1.27443 0
M  V30 15708 C 1487.92 -2.04917 1.10053 0
M  V30 15709 C 1488.91 -1.69384 0.0234668 0
M  V30 15710 O 1490.12 -1.79085 0.181228 0
M  V30 15711 H 1486.49 -0.671189 0.33913 0
M  V30 15712 H 1488.46 -2.16732 2.05109 0
M  V30 15713 C 1487.21 -3.39178 0.765072 0
M  V30 15714 H 1486.53 -3.67006 1.58577 0
M  V30 15715 H 1487.97 -4.18458 0.683266 0
M  V30 15716 C 1486.43 -3.32696 -0.530578 0
M  V30 15717 O 1486.96 -3.69967 -1.56484 0
M  V30 15718 N 1485.17 -2.85793 -0.526396 0
M  V30 15719 H 1484.72 -2.55658 0.315675 0
M  V30 15720 H 1484.67 -2.81838 -1.39337 0
M  V30 15721 N 1488.45 -1.09474 -1.13372 0
M  V30 15722 C 1489.72 -0.743485 -1.80919 0
M  V30 15723 C 1490.1 0.771414 -1.965 0
M  V30 15724 O 1489.45 1.694 -1.53349 0
M  V30 15725 C 1489.66 -1.48309 -3.1592 0
M  V30 15726 C 1491.01 -1.64921 -3.91263 0
M  V30 15727 O 1492.03 -1.44564 -3.25545 0
M  V30 15728 O 1490.89 -1.98595 -5.09139 0
M  V30 15729 H 1487.99 -0.26713 -0.782669 0
M  V30 15730 H 1490.53 -1.19697 -1.20294 0
M  V30 15731 H 1489.3 -2.51456 -2.99809 0
M  V30 15732 H 1488.93 -1.02181 -3.84246 0
M  V30 15733 N 1489.92 1.30607 -0.882012 0
M  V30 15734 C 1491.15 2.00418 -0.513815 0
M  V30 15735 C 1491.57 1.66135 0.896916 0
M  V30 15736 O 1490.92 0.89691 1.5894 0
M  V30 15737 C 1490.98 3.55133 -0.675503 0
M  V30 15738 O 1490.7 3.88194 -2.03069 0
M  V30 15739 C 1492.2 4.42215 -0.309906 0
M  V30 15740 H 1489.42 0.640839 -0.198913 0
M  V30 15741 H 1491.96 1.66561 -1.1865 0
M  V30 15742 H 1490.12 3.87367 -0.0502289 0
M  V30 15743 H 1490.53 4.82899 -2.04717 0
M  V30 15744 H 1492 5.49962 -0.473948 0
M  V30 15745 H 1492.48 4.32717 0.751852 0
M  V30 15746 H 1493.09 4.1542 -0.91138 0
M  V30 15747 N 1491.4 0.642663 1.43901 0
M  V30 15748 C 1492.35 -0.0673926 2.32502 0
M  V30 15749 C 1493.34 -0.823981 1.4801 0
M  V30 15750 O 1494.55 -0.735575 1.64284 0
M  V30 15751 H 1490.93 -0.0405715 0.750905 0
M  V30 15752 H 1492.9 0.69777 2.90127 0
M  V30 15753 C 1491.65 -1.02745 3.32173 0
M  V30 15754 H 1490.97 -0.454697 3.97206 0
M  V30 15755 H 1492.41 -1.49355 3.96824 0
M  V30 15756 C 1490.87 -2.11835 2.61969 0
M  V30 15757 O 1491.4 -3.20074 2.42725 0
M  V30 15758 N 1489.6 -1.88092 2.21517 0
M  V30 15759 H 1489.15 -1.00072 2.37368 0
M  V30 15760 H 1489.11 -2.61279 1.74873 0
M  V30 15761 N 1492.88 -1.52852 0.383918 0
M  V30 15762 C 1494.13 -2.01809 -0.200285 0
M  V30 15763 C 1494.46 -1.27009 -1.46909 0
M  V30 15764 O 1493.74 -0.369002 -1.90968 0
M  V30 15765 C 1494.02 -3.56971 -0.473672 0
M  V30 15766 C 1493.87 -4.42446 0.810048 0
M  V30 15767 C 1495.19 -4.21481 -1.26658 0
M  V30 15768 H 1492.31 -0.733541 -0.0713192 0
M  V30 15769 H 1494.95 -1.8296 0.512425 0
M  V30 15770 H 1493.1 -3.73163 -1.08081 0
M  V30 15771 H 1494.77 -4.38016 1.44706 0
M  V30 15772 H 1493.02 -4.09674 1.42652 0
M  V30 15773 H 1493.69 -5.49013 0.573478 0
M  V30 15774 H 1496.16 -4.09233 -0.752806 0
M  V30 15775 H 1495.04 -5.30037 -1.42661 0
M  V30 15776 H 1495.3 -3.78756 -2.28028 0
M  V30 15777 N 1494.36 -0.113586 -1.5719 0
M  V30 15778 C 1495.29 0.868985 -2.12088 0
M  V30 15779 C 1496.3 1.23362 -1.06233 0
M  V30 15780 O 1497.49 1.18352 -1.33623 0
M  V30 15781 C 1494.59 2.17252 -2.60106 0
M  V30 15782 C 1493.77 1.9804 -3.89999 0
M  V30 15783 C 1492.83 3.12073 -4.23671 0
M  V30 15784 O 1491.85 2.85224 -4.92581 0
M  V30 15785 N 1493.05 4.38358 -3.80556 0
M  V30 15786 H 1495.82 0.399996 -2.97019 0
M  V30 15787 H 1493.38 0.0709947 -1.61744 0
M  V30 15788 H 1495.37 2.92523 -2.79665 0
M  V30 15789 H 1493.94 2.55516 -1.80084 0
M  V30 15790 H 1493.16 1.06993 -3.79402 0
M  V30 15791 H 1494.45 1.82502 -4.74943 0
M  V30 15792 H 1493.85 4.63048 -3.24966 0
M  V30 15793 H 1492.4 5.10518 -4.05234 0
M  V30 15794 N 1495.84 1.56784 0.160173 0
M  V30 15795 C 1497.08 1.82621 0.874982 0
M  V30 15796 C 1497.41 0.692427 1.81757 0
M  V30 15797 O 1496.67 -0.319535 1.93074 0
M  V30 15798 C 1496.97 3.14703 1.69402 0
M  V30 15799 C 1496.63 4.41839 0.899373 0
M  V30 15800 C 1495.29 4.7637 0.680099 0
M  V30 15801 C 1497.65 5.20072 0.342747 0
M  V30 15802 C 1494.97 5.86603 -0.106723 0
M  V30 15803 C 1497.33 6.3113 -0.431044 0
M  V30 15804 C 1495.99 6.64219 -0.661017 0
M  V30 15805 H 1495.26 0.668256 0.320178 0
M  V30 15806 H 1497.91 1.90993 0.139305 0
M  V30 15807 H 1496.21 3.01723 2.49941 0
M  V30 15808 H 1497.91 3.31906 2.25032 0
M  V30 15809 H 1494.5 4.14761 1.08033 0
M  V30 15810 H 1498.68 4.9378 0.499467 0
M  V30 15811 H 1493.94 6.1069 -0.294528 0
M  V30 15812 H 1498.11 6.9095 -0.869557 0
M  V30 15813 H 1495.74 7.49473 -1.27257 0
M  V30 15814 N 1497.32 -0.429099 1.51646 0
M  V30 15815 C 1498.25 -1.52867 1.76505 0
M  V30 15816 C 1499.23 -1.58586 0.615178 0
M  V30 15817 O 1500.41 -1.74182 0.858742 0
M  V30 15818 C 1497.54 -2.90875 1.8976 0
M  V30 15819 C 1496.5 -3.00014 3.05247 0
M  V30 15820 C 1495.82 -4.40082 3.03696 0
M  V30 15821 C 1497.12 -2.73334 4.45068 0
M  V30 15822 H 1498.82 -1.32315 2.68576 0
M  V30 15823 H 1496.36 -0.635091 1.29238 0
M  V30 15824 H 1498.31 -3.67765 2.05734 0
M  V30 15825 H 1497.04 -3.12677 0.943442 0
M  V30 15826 H 1495.7 -2.25565 2.88991 0
M  V30 15827 H 1495.35 -4.58864 2.06042 0
M  V30 15828 H 1495.05 -4.47125 3.81252 0
M  V30 15829 H 1496.57 -5.18935 3.21774 0
M  V30 15830 H 1497.98 -3.39954 4.61632 0
M  V30 15831 H 1496.38 -2.91777 5.24391 0
M  V30 15832 H 1497.45 -1.68889 4.54538 0
M  V30 15833 N 1498.79 -1.41931 -0.685074 0
M  V30 15834 C 1500.07 -1.32338 -1.44035 0
M  V30 15835 C 1500.45 0.0441161 -2.11054 0
M  V30 15836 O 1499.8 1.05901 -2.02478 0
M  V30 15837 C 1500.01 -2.48429 -2.45121 0
M  V30 15838 C 1501.36 -2.90076 -3.10067 0
M  V30 15839 O 1502.38 -2.48245 -2.55447 0
M  V30 15840 O 1501.24 -3.62445 -4.09019 0
M  V30 15841 H 1498.33 -0.521361 -0.641959 0
M  V30 15842 H 1500.88 -1.53918 -0.714666 0
M  V30 15843 H 1499.65 -3.39637 -1.94326 0
M  V30 15844 H 1499.27 -2.28781 -3.25184 0
M  V30 15845 N 1500.27 0.920374 -1.27933 0
M  V30 15846 C 1501.2 2.02644 -1.07089 0
M  V30 15847 C 1502.22 1.62781 -0.024674 0
M  V30 15848 O 1503.41 1.76491 -0.267023 0
M  V30 15849 C 1500.51 3.33476 -0.603919 0
M  V30 15850 C 1499.68 4.01988 -1.72407 0
M  V30 15851 C 1498.74 5.11098 -1.25159 0
M  V30 15852 O 1497.76 5.3466 -1.95261 0
M  V30 15853 N 1498.97 5.80393 -0.111197 0
M  V30 15854 H 1501.73 2.21085 -2.0234 0
M  V30 15855 H 1499.29 1.09124 -1.19597 0
M  V30 15856 H 1501.28 4.03788 -0.271579 0
M  V30 15857 H 1499.85 3.11554 0.255557 0
M  V30 15858 H 1499.07 3.25312 -2.22633 0
M  V30 15859 H 1500.36 4.4451 -2.47566 0
M  V30 15860 H 1499.76 5.63713 0.473746 0
M  V30 15861 H 1498.32 6.51599 0.161912 0
M  V30 15862 N 1501.75 1.10074 1.1279 0
M  V30 15863 C 1503.03 0.753069 1.80522 0
M  V30 15864 C 1503.41 -0.760982 1.96907 0
M  V30 15865 O 1502.75 -1.68584 1.54245 0
M  V30 15866 C 1502.96 1.49982 3.15129 0
M  V30 15867 C 1504.31 1.66993 3.90382 0
M  V30 15868 O 1505.34 1.46289 3.24774 0
M  V30 15869 O 1504.2 2.01293 5.08078 0
M  V30 15870 H 1501.29 0.271277 0.781241 0
M  V30 15871 H 1503.84 1.20333 1.19658 0
M  V30 15872 H 1502.61 2.53043 2.98471 0
M  V30 15873 H 1502.23 1.04217 3.83699 0
M  V30 15874 N 1503.23 -1.30138 0.888926 0
M  V30 15875 C 1504.5 -1.90831 0.42928 0
M  V30 15876 C 1504.88 -1.80765 -1.09028 0
M  V30 15877 O 1504.23 -1.22741 -1.92735 0
M  V30 15878 C 1504.44 -3.36331 0.931798 0
M  V30 15879 C 1505.79 -4.13393 0.969106 0
M  V30 15880 O 1506.81 -3.45191 0.878731 0
M  V30 15881 O 1505.67 -5.35249 1.10323 0
M  V30 15882 H 1502.77 -0.816401 0.131976 0
M  V30 15883 H 1505.31 -1.38678 0.978086 0
M  V30 15884 H 1504.09 -3.37761 1.97568 0
M  V30 15885 H 1503.71 -3.95945 0.362383 0
M  V30 15886 N 1504.71 -0.650285 -1.43559 0
M  V30 15887 C 1505.98 -0.0925343 -1.95381 0
M  V30 15888 C 1506.36 1.38668 -1.59168 0
M  V30 15889 O 1505.71 2.11069 -0.875324 0
M  V30 15890 C 1505.92 -0.335657 -3.47382 0
M  V30 15891 C 1507.27 -0.239032 -4.23927 0
M  V30 15892 O 1508.29 -0.268056 -3.5519 0
M  V30 15893 O 1507.15 -0.160241 -5.46265 0
M  V30 15894 H 1504.25 0.0113084 -0.826923 0
M  V30 15895 H 1506.79 -0.723319 -1.53513 0
M  V30 15896 H 1505.56 -1.36132 -3.66857 0
M  V30 15897 H 1505.19 0.328339 -3.96242 0
M  V30 15898 N 1506.18 1.52647 -0.392018 0
M  V30 15899 C 1507.46 1.94034 0.247004 0
M  V30 15900 C 1507.84 1.32767 1.64122 0
M  V30 15901 O 1507.19 0.496822 2.23033 0
M  V30 15902 C 1507.4 3.47949 0.270615 0
M  V30 15903 C 1508.75 4.21666 0.498256 0
M  V30 15904 O 1509.77 3.54469 0.350708 0
M  V30 15905 O 1508.63 5.40795 0.787586 0
M  V30 15906 H 1505.72 0.812487 0.154251 0
M  V30 15907 H 1508.27 1.63715 -0.446723 0
M  V30 15908 H 1507.04 3.84881 -0.705862 0
M  V30 15909 H 1506.66 3.8458 1.00915 0
M  V30 15910 N 1507.66 0.121921 1.57128 0
M  V30 15911 C 1508.94 -0.579087 1.86831 0
M  V30 15912 C 1509.32 -1.84623 1.0236 0
M  V30 15913 O 1508.67 -2.28266 0.103326 0
M  V30 15914 C 1508.88 -0.86872 3.38015 0
M  V30 15915 C 1510.23 -1.22051 4.0668 0
M  V30 15916 O 1511.25 -0.958889 3.43051 0
M  V30 15917 O 1510.11 -1.71164 5.19004 0
M  V30 15918 H 1507.2 -0.292539 0.773531 0
M  V30 15919 H 1509.75 0.156644 1.68975 0
M  V30 15920 H 1508.52 0.0291056 3.91289 0
M  V30 15921 H 1508.14 -1.65951 3.61312 0
M  V30 15922 N 1509.14 -1.56867 -0.151857 0
M  V30 15923 C 1510.55 -1.72573 -0.712411 0
M  V30 15924 C 1510.9 -0.735557 -1.8189 0
M  V30 15925 O 1510.03 0.09888 -2.16174 0
M  V30 15926 C 1510.62 -3.12906 -1.29905 0
M  V30 15927 C 1509.18 -3.30231 -1.80623 0
M  V30 15928 C 1508.33 -2.68507 -0.692781 0
M  V30 15929 H 1511.28 -1.58528 0.0737603 0
M  V30 15930 H 1511.3 -3.12636 -2.16885 0
M  V30 15931 H 1510.81 -3.84949 -0.493509 0
M  V30 15932 H 1508.91 -2.63176 -2.6376 0
M  V30 15933 H 1509.03 -4.38141 -1.93828 0
M  V30 15934 H 1507.39 -2.28842 -1.11818 0
M  V30 15935 H 1508.17 -3.43151 0.10124 0
M  V30 15936 N 1510.62 0.421051 -1.51871 0
M  V30 15937 C 1511.9 1.18133 -1.55897 0
M  V30 15938 C 1512.28 2.08459 -0.332876 0
M  V30 15939 O 1511.62 2.18114 0.681052 0
M  V30 15940 C 1511.83 1.96902 -2.88151 0
M  V30 15941 C 1513.18 2.53382 -3.4071 0
M  V30 15942 O 1514.21 2.07095 -2.89811 0
M  V30 15943 O 1513.06 3.37846 -4.29561 0
M  V30 15944 H 1510.16 0.538721 -0.627462 0
M  V30 15945 H 1512.7 0.428798 -1.64193 0
M  V30 15946 H 1511.48 1.30659 -3.68841 0
M  V30 15947 H 1511.1 2.79185 -2.83093 0
M  V30 15948 N 1512.1 1.42293 0.677538 0
M  V30 15949 C 1513.32 1.46008 1.46592 0
M  V30 15950 C 1513.74 0.0706015 1.88668 0
M  V30 15951 O 1513.1 -0.914076 1.57959 0
M  V30 15952 C 1513.15 2.38477 2.71682 0
M  V30 15953 O 1512.87 3.72019 2.31372 0
M  V30 15954 C 1514.37 2.51185 3.65269 0
M  V30 15955 H 1511.59 0.49669 0.451154 0
M  V30 15956 H 1514.13 1.86777 0.832736 0
M  V30 15957 H 1512.29 2.00969 3.31195 0
M  V30 15958 H 1512.7 4.21514 3.12131 0
M  V30 15959 H 1514.18 3.20014 4.49772 0
M  V30 15960 H 1514.65 1.54885 4.10983 0
M  V30 15961 H 1515.26 2.89404 3.1165 0
M  V30 15962 N 1513.57 -0.913576 1.28419 0
M  V30 15963 C 1514.48 -2.04922 1.14211 0
M  V30 15964 C 1515.5 -1.73865 0.0686424 0
M  V30 15965 O 1516.68 -1.99473 0.277968 0
M  V30 15966 C 1513.74 -3.37214 0.805445 0
M  V30 15967 C 1512.8 -3.81879 1.96129 0
M  V30 15968 C 1512.04 -5.07858 1.6406 0
M  V30 15969 O 1512.26 -5.67693 0.555032 0
M  V30 15970 O 1511.19 -5.4824 2.48428 0
M  V30 15971 H 1515.02 -2.19827 2.09547 0
M  V30 15972 H 1512.6 -1.03501 1.0774 0
M  V30 15973 H 1514.49 -4.16639 0.631648 0
M  V30 15974 H 1513.16 -3.23484 -0.118254 0
M  V30 15975 H 1512.07 -3.03281 2.19024 0
M  V30 15976 H 1513.4 -4.00173 2.8657 0
M  V30 15977 N 1515.05 -1.1067 -1.12204 0
M  V30 15978 C 1515.98 -0.779829 -2.20093 0
M  V30 15979 C 1516.96 0.248279 -1.68278 0
M  V30 15980 O 1518.15 0.113511 -1.93868 0
M  V30 15981 C 1515.28 -0.213511 -3.46643 0
M  V30 15982 C 1514.23 -1.17258 -4.11624 0
M  V30 15983 C 1513.56 -0.467352 -5.32654 0
M  V30 15984 C 1514.86 -2.52014 -4.57478 0
M  V30 15985 H 1516.55 -1.68192 -2.47693 0
M  V30 15986 H 1514.1 -0.810131 -1.1905 0
M  V30 15987 H 1516.05 0.0273225 -4.21391 0
M  V30 15988 H 1514.78 0.723837 -3.18478 0
M  V30 15989 H 1513.43 -1.39891 -3.3886 0
M  V30 15990 H 1513.08 0.474547 -5.00756 0
M  V30 15991 H 1512.78 -1.10694 -5.77079 0
M  V30 15992 H 1514.31 -0.235122 -6.10147 0
M  V30 15993 H 1515.72 -2.33516 -5.23587 0
M  V30 15994 H 1514.12 -3.1188 -5.1269 0
M  V30 15995 H 1515.19 -3.11831 -3.71335 0
M  V30 15996 N 1516.53 1.29665 -0.895815 0
M  V30 15997 C 1517.76 1.99572 -0.534267 0
M  V30 15998 C 1518.17 1.67254 0.884455 0
M  V30 15999 O 1517.51 0.911762 1.59476 0
M  V30 16000 C 1517.57 3.53719 -0.642099 0
M  V30 16001 C 1517.24 4.09583 -2.02709 0
M  V30 16002 C 1518.23 4.24769 -2.99779 0
M  V30 16003 C 1515.92 4.44706 -2.33542 0
M  V30 16004 C 1517.91 4.74305 -4.25809 0
M  V30 16005 C 1515.6 4.93939 -3.59815 0
M  V30 16006 C 1516.6 5.08693 -4.55763 0
M  V30 16007 O 1516.29 5.5686 -5.79795 0
M  V30 16008 H 1516.02 0.644481 -0.204012 0
M  V30 16009 H 1518.57 1.66262 -1.20607 0
M  V30 16010 H 1516.8 3.86603 0.0867197 0
M  V30 16011 H 1518.49 4.04861 -0.290265 0
M  V30 16012 H 1519.26 3.97925 -2.77273 0
M  V30 16013 H 1515.14 4.32483 -1.59622 0
M  V30 16014 H 1518.68 4.85736 -5.00706 0
M  V30 16015 H 1514.58 5.2022 -3.82154 0
M  V30 16016 H 1515.35 5.75182 -5.82329 0
M  V30 16017 N 1518.01 0.657889 1.43212 0
M  V30 16018 C 1518.94 -0.0172114 2.33494 0
M  V30 16019 C 1519.92 -0.807087 1.49733 0
M  V30 16020 O 1521.1 -0.767631 1.78385 0
M  V30 16021 C 1518.23 -0.981029 3.33156 0
M  V30 16022 C 1517.19 -0.30094 4.26941 0
M  V30 16023 C 1516.51 -1.37653 5.16678 0
M  V30 16024 C 1517.81 0.809572 5.15988 0
M  V30 16025 H 1519.51 0.736749 2.90194 0
M  V30 16026 H 1517.05 0.355744 1.39537 0
M  V30 16027 H 1519.01 -1.46226 3.95216 0
M  V30 16028 H 1517.73 -1.76621 2.74723 0
M  V30 16029 H 1516.39 0.159893 3.66251 0
M  V30 16030 H 1516.04 -2.15326 4.54581 0
M  V30 16031 H 1515.74 -0.926704 5.80246 0
M  V30 16032 H 1517.26 -1.85903 5.81612 0
M  V30 16033 H 1518.68 0.410297 5.7183 0
M  V30 16034 H 1517.07 1.18415 5.88301 0
M  V30 16035 H 1518.14 1.66558 4.55397 0
M  V30 16036 N 1519.49 -1.52437 0.400108 0
M  V30 16037 C 1520.71 -2.0613 -0.178364 0
M  V30 16038 C 1521.13 -1.27094 -1.39616 0
M  V30 16039 O 1520.49 -0.320409 -1.79665 0
M  V30 16040 C 1520.54 -3.57478 -0.53777 0
M  V30 16041 O 1520.26 -4.33522 0.631657 0
M  V30 16042 C 1521.76 -4.27556 -1.17094 0
M  V30 16043 H 1518.98 -0.670558 -0.0243619 0
M  V30 16044 H 1521.52 -1.9644 0.568459 0
M  V30 16045 H 1519.68 -3.67205 -1.23449 0
M  V30 16046 H 1520.09 -5.23437 0.333803 0
M  V30 16047 H 1521.57 -5.3466 -1.3727 0
M  V30 16048 H 1522.04 -3.83456 -2.14145 0
M  V30 16049 H 1522.65 -4.22174 -0.514687 0
M  V30 16050 N 1520.96 -0.130252 -1.57061 0
M  V30 16051 C 1521.9 0.846442 -2.12998 0
M  V30 16052 C 1522.91 1.22229 -1.07536 0
M  V30 16053 O 1524.1 1.16928 -1.34871 0
M  V30 16054 C 1521.2 2.14481 -2.62395 0
M  V30 16055 C 1520.37 1.93892 -3.92077 0
M  V30 16056 C 1519.43 3.07562 -4.26957 0
M  V30 16057 O 1518.46 2.79983 -4.95578 0
M  V30 16058 N 1519.66 4.34297 -3.85184 0
M  V30 16059 H 1522.42 0.368471 -2.97426 0
M  V30 16060 H 1519.98 0.0538355 -1.6181 0
M  V30 16061 H 1521.98 2.8954 -2.82752 0
M  V30 16062 H 1520.55 2.53592 -1.82784 0
M  V30 16063 H 1519.77 1.02962 -3.80516 0
M  V30 16064 H 1521.05 1.77454 -4.76852 0
M  V30 16065 H 1520.45 4.59575 -3.29859 0
M  V30 16066 H 1519.01 5.06191 -4.10626 0
M  V30 16067 N 1522.44 1.56945 0.143535 0
M  V30 16068 C 1523.85 1.72949 0.703249 0
M  V30 16069 C 1524.21 0.745193 1.81497 0
M  V30 16070 O 1523.33 -0.0874144 2.16223 0
M  V30 16071 C 1523.93 3.1359 1.28244 0
M  V30 16072 C 1522.48 3.31184 1.78869 0
M  V30 16073 C 1521.63 2.6887 0.678531 0
M  V30 16074 H 1524.58 1.58487 -0.0821664 0
M  V30 16075 H 1524.6 3.13782 2.15224 0
M  V30 16076 H 1524.12 3.85206 0.473087 0
M  V30 16077 H 1522.22 2.64571 2.6236 0
M  V30 16078 H 1522.33 4.39163 1.91502 0
M  V30 16079 H 1520.69 2.29432 1.10603 0
M  V30 16080 H 1521.48 3.43092 -0.119437 0
M  V30 16081 N 1523.92 -0.412991 1.52093 0
M  V30 16082 C 1525.17 -1.1603 1.65962 0
M  V30 16083 C 1525.5 -1.90598 0.387652 0
M  V30 16084 O 1524.75 -1.85308 -0.629243 0
M  V30 16085 C 1525.05 -2.18321 2.82968 0
M  V30 16086 C 1524.72 -1.60589 4.21334 0
M  V30 16087 C 1523.38 -1.44568 4.5897 0
M  V30 16088 C 1525.73 -1.18388 5.07576 0
M  V30 16089 C 1523.06 -0.848584 5.80531 0
M  V30 16090 C 1525.41 -0.600985 6.29739 0
M  V30 16091 C 1524.07 -0.42788 6.66127 0
M  V30 16092 H 1523.34 -0.424583 0.607297 0
M  V30 16093 H 1525.99 -0.448028 1.86185 0
M  V30 16094 H 1524.3 -2.95678 2.57063 0
M  V30 16095 H 1525.99 -2.76009 2.90895 0
M  V30 16096 H 1522.58 -1.7404 3.91673 0
M  V30 16097 H 1526.77 -1.29576 4.79086 0
M  V30 16098 H 1522.02 -0.702447 6.07351 0
M  V30 16099 H 1526.2 -0.265583 6.95893 0
M  V30 16100 H 1523.82 0.0369013 7.60191 0
M  V30 16101 N 1525.4 -1.4265 -0.669982 0
M  V30 16102 C 1526.36 -1.46196 -1.7652 0
M  V30 16103 C 1527.36 -0.348884 -1.5697 0
M  V30 16104 O 1528.55 -0.609921 -1.63174 0
M  V30 16105 C 1525.68 -1.29829 -3.1521 0
M  V30 16106 H 1526.88 -2.43718 -1.74762 0
M  V30 16107 H 1524.43 -1.29168 -0.88007 0
M  V30 16108 H 1525.17 -0.332493 -3.22591 0
M  V30 16109 H 1524.95 -2.10501 -3.30804 0
M  V30 16110 H 1526.44 -1.35205 -3.95107 0
M  V30 16111 N 1526.88 0.906753 -1.28902 0
M  V30 16112 C 1528.12 1.67094 -1.17724 0
M  V30 16113 C 1528.48 1.90115 0.268373 0
M  V30 16114 O 1529.68 2.64052 0.502998 0
M  V30 16115 C 1527.95 2.98802 -1.96092 0
M  V30 16116 S 1529.51 3.89867 -2.01368 0
M  V30 16117 H 1526.33 0.573768 -0.419894 0
M  V30 16118 H 1528.93 1.07797 -1.63095 0
M  V30 16119 H 1527.64 2.79755 -3.00276 0
M  V30 16120 H 1527.17 3.63143 -1.51298 0
M  V30 16121 H 1529.18 4.83273 -1.12525 0
M  V30 16122 N 1528.36 1.11264 1.11616 0
M  V30 16123 C 1529.6 0.858664 1.82952 0
M  V30 16124 C 1529.92 -0.617439 1.84967 0
M  V30 16125 O 1529.19 -1.44849 1.31893 0
M  V30 16126 H 1527.77 0.314671 0.677489 0
M  V30 16127 H 1530.44 1.40466 1.35113 0
M  V30 16128 H 1529.53 1.22921 2.86874 0
M  V30 16129 N 1529.83 -1.29188 0.902679 0
M  V30 16130 C 1531.06 -1.99576 0.545635 0
M  V30 16131 C 1531.48 -1.67541 -0.870372 0
M  V30 16132 O 1530.83 -0.922082 -1.57493 0
M  V30 16133 C 1530.88 -3.54013 0.731916 0
M  V30 16134 O 1530.61 -3.84914 2.09219 0
M  V30 16135 C 1532.11 -4.41666 0.38022 0
M  V30 16136 H 1529.33 -0.637593 0.209083 0
M  V30 16137 H 1531.87 -1.64652 1.21284 0
M  V30 16138 H 1530.03 -3.87239 0.111849 0
M  V30 16139 H 1530.44 -4.79581 2.12373 0
M  V30 16140 H 1531.91 -5.49138 0.561382 0
M  V30 16141 H 1532.39 -4.33858 -0.682915 0
M  V30 16142 H 1533 -4.13918 0.977354 0
M  V30 16143 N 1531.31 -0.665475 -1.42861 0
M  V30 16144 C 1532.27 0.00932351 -2.29198 0
M  V30 16145 C 1533.27 0.738356 -1.42846 0
M  V30 16146 O 1534.46 0.57776 -1.6434 0
M  V30 16147 C 1531.6 1.02392 -3.25159 0
M  V30 16148 H 1532.79 -0.750481 -2.90358 0
M  V30 16149 H 1530.34 -0.427334 -1.50345 0
M  V30 16150 H 1531.08 1.81254 -2.68919 0
M  V30 16151 H 1530.86 0.504671 -3.88839 0
M  V30 16152 H 1532.35 1.49479 -3.89931 0
M  V30 16153 N 1532.79 1.52222 -0.408187 0
M  V30 16154 C 1534.04 2.01803 0.167905 0
M  V30 16155 C 1534.36 1.29385 1.45223 0
M  V30 16156 O 1533.62 0.388383 1.91807 0
M  V30 16157 C 1533.92 3.54384 0.463353 0
M  V30 16158 C 1533.58 4.44924 -0.731665 0
M  V30 16159 C 1532.25 4.69392 -1.05946 0
M  V30 16160 C 1534.6 4.9823 -1.53023 0
M  V30 16161 C 1531.93 5.44414 -2.18702 0
M  V30 16162 C 1534.28 5.74486 -2.64855 0
M  V30 16163 C 1532.94 5.97227 -2.98121 0
M  V30 16164 H 1532.21 0.738448 0.0614409 0
M  V30 16165 H 1534.86 1.83449 -0.549412 0
M  V30 16166 H 1533.16 3.70911 1.26223 0
M  V30 16167 H 1534.86 3.90256 0.922042 0
M  V30 16168 H 1531.45 4.26057 -0.4662 0
M  V30 16169 H 1535.64 4.79236 -1.29022 0
M  V30 16170 H 1530.89 5.60242 -2.44824 0
M  V30 16171 H 1535.07 6.14788 -3.27122 0
M  V30 16172 H 1532.69 6.5514 -3.8561 0
M  V30 16173 N 1534.27 0.138579 1.5699 0
M  V30 16174 C 1535.23 -0.79013 2.1515 0
M  V30 16175 C 1536.23 -1.1811 1.09117 0
M  V30 16176 O 1537.42 -1.1034 1.34798 0
M  V30 16177 C 1534.55 -2.07109 2.70774 0
M  V30 16178 H 1535.75 -0.284343 2.98549 0
M  V30 16179 H 1533.3 -0.11081 1.55907 0
M  V30 16180 H 1534.03 -2.62074 1.91018 0
M  V30 16181 H 1533.82 -1.80004 3.4834 0
M  V30 16182 H 1535.31 -2.73456 3.15613 0
M  V30 16183 N 1535.75 -1.57019 -0.13521 0
M  V30 16184 C 1536.99 -1.84262 -0.847071 0
M  V30 16185 C 1537.32 -0.721946 -1.80282 0
M  V30 16186 O 1536.6 0.273535 -1.92567 0
M  V30 16187 C 1536.88 -3.22043 -1.61123 0
M  V30 16188 C 1536.74 -4.44689 -0.67617 0
M  V30 16189 C 1538.05 -3.57188 -2.57108 0
M  V30 16190 H 1535.17 -0.670246 -0.306496 0
M  V30 16191 H 1537.82 -1.89671 -0.111843 0
M  V30 16192 H 1535.97 -3.17563 -2.23799 0
M  V30 16193 H 1537.64 -4.61262 -0.0595009 0
M  V30 16194 H 1535.88 -4.33798 0.0134526 0
M  V30 16195 H 1536.55 -5.37727 -1.24714 0
M  V30 16196 H 1539.03 -3.62354 -2.04545 0
M  V30 16197 H 1537.9 -4.54602 -3.07617 0
M  V30 16198 H 1538.16 -2.83758 -3.39019 0
M  V30 16199 N 1537.22 0.404919 -1.52309 0
M  V30 16200 C 1538.45 1.17764 -1.70723 0
M  V30 16201 C 1538.87 1.83403 -0.417744 0
M  V30 16202 O 1538.23 1.70181 0.625157 0
M  V30 16203 C 1538.28 2.2133 -2.84685 0
M  V30 16204 O 1537.38 3.27566 -2.50548 0
M  V30 16205 H 1536.73 0.343572 -0.568203 0
M  V30 16206 H 1539.26 0.474093 -1.99031 0
M  V30 16207 H 1539.27 2.6559 -3.09719 0
M  V30 16208 H 1537.94 1.72939 -3.78239 0
M  V30 16209 H 1536.52 2.88556 -2.36199 0
M  V30 16210 N 1538.7 1.43003 0.662408 0
M  V30 16211 C 1539.95 1.44346 1.4245 0
M  V30 16212 C 1540.28 0.064094 1.94094 0
M  V30 16213 O 1539.56 -0.913633 1.71706 0
M  V30 16214 C 1539.84 2.47822 2.61259 0
M  V30 16215 C 1539.69 3.94998 2.15166 0
M  V30 16216 C 1541.01 2.48139 3.63476 0
M  V30 16217 H 1538.13 0.525606 0.51663 0
M  V30 16218 H 1540.77 1.74495 0.751754 0
M  V30 16219 H 1538.92 2.22244 3.18653 0
M  V30 16220 H 1540.59 4.31601 1.62843 0
M  V30 16221 H 1538.84 4.0827 1.46622 0
M  V30 16222 H 1539.51 4.62998 3.00561 0
M  V30 16223 H 1541.98 2.70916 3.15823 0
M  V30 16224 H 1540.86 3.22498 4.44169 0
M  V30 16225 H 1541.12 1.51184 4.15447 0
M  V30 16226 N 1540.18 -0.899904 1.29381 0
M  V30 16227 C 1541.11 -2.02045 1.17047 0
M  V30 16228 C 1542.09 -1.69977 0.0647354 0
M  V30 16229 O 1543.28 -1.92659 0.244173 0
M  V30 16230 C 1540.41 -3.36839 0.845991 0
M  V30 16231 C 1539.36 -3.83117 1.90802 0
M  V30 16232 C 1538.69 -5.15032 1.43686 0
M  V30 16233 C 1539.99 -4.03464 3.31684 0
M  V30 16234 H 1541.68 -2.12623 2.10789 0
M  V30 16235 H 1539.23 -1.02162 1.01484 0
M  V30 16236 H 1541.18 -4.14737 0.746413 0
M  V30 16237 H 1539.9 -3.26352 -0.127125 0
M  V30 16238 H 1538.56 -3.07435 1.99698 0
M  V30 16239 H 1538.21 -5.00961 0.452422 0
M  V30 16240 H 1537.91 -5.46967 2.14711 0
M  V30 16241 H 1539.43 -5.95472 1.35078 0
M  V30 16242 H 1540.85 -4.71845 3.25631 0
M  V30 16243 H 1539.25 -4.46752 4.00665 0
M  V30 16244 H 1540.32 -3.07807 3.74677 0
M  V30 16245 N 1541.66 -1.11854 -1.11024 0
M  V30 16246 C 1542.94 -0.781693 -1.79301 0
M  V30 16247 C 1543.32 0.72956 -1.98092 0
M  V30 16248 O 1542.66 1.66109 -1.56908 0
M  V30 16249 C 1542.87 -1.54976 -3.12703 0
M  V30 16250 C 1544.22 -1.73183 -3.87676 0
M  V30 16251 O 1545.25 -1.51437 -3.22406 0
M  V30 16252 O 1544.1 -2.0935 -5.04812 0
M  V30 16253 H 1541.2 -0.283672 -0.776826 0
M  V30 16254 H 1543.74 -1.22222 -1.17728 0
M  V30 16255 H 1542.52 -2.57759 -2.94408 0
M  V30 16256 H 1542.14 -1.10308 -3.81992 0
M  V30 16257 N 1543.14 1.28707 -0.909517 0
M  V30 16258 C 1544.36 1.99821 -0.555557 0
M  V30 16259 C 1544.79 1.67549 0.854931 0
M  V30 16260 O 1544.14 0.905521 1.57067 0
M  V30 16261 C 1544.19 3.52361 -0.766438 0
M  V30 16262 O 1543.3 4.12022 0.17654 0
M  V30 16263 H 1542.64 0.627918 -0.215905 0
M  V30 16264 H 1545.17 1.63965 -1.2238 0
M  V30 16265 H 1545.18 4.02379 -0.674894 0
M  V30 16266 H 1543.85 3.75184 -1.7947 0
M  V30 16267 H 1542.43 3.72882 0.0366216 0
M  V30 16268 N 1544.61 0.673042 1.42506 0
M  V30 16269 C 1545.54 0.00755467 2.33499 0
M  V30 16270 C 1546.53 -0.791161 1.50581 0
M  V30 16271 O 1547.71 -0.748668 1.79189 0
M  V30 16272 C 1544.84 -0.945638 3.34178 0
M  V30 16273 C 1543.79 -0.25564 4.27236 0
M  V30 16274 C 1543.12 -1.32165 5.18109 0
M  V30 16275 C 1544.42 0.864254 5.151 0
M  V30 16276 H 1546.11 0.767487 2.89396 0
M  V30 16277 H 1543.66 0.370524 1.39151 0
M  V30 16278 H 1545.61 -1.42026 3.96745 0
M  V30 16279 H 1544.34 -1.73697 2.76581 0
M  V30 16280 H 1543 0.19873 3.66061 0
M  V30 16281 H 1542.64 -2.10492 4.56839 0
M  V30 16282 H 1542.34 -0.865109 5.81197 0
M  V30 16283 H 1543.87 -1.79724 5.83551 0
M  V30 16284 H 1545.28 0.470924 5.71363 0
M  V30 16285 H 1543.68 1.24648 5.87012 0
M  V30 16286 H 1544.75 1.71378 4.53605 0
M  V30 16287 N 1546.09 -1.52004 0.416254 0
M  V30 16288 C 1547.03 -2.2371 -0.450474 0
M  V30 16289 C 1548 -1.24812 -1.04215 0
M  V30 16290 O 1549.19 -1.53885 -1.08866 0
M  V30 16291 C 1546.31 -2.97122 -1.62592 0
M  V30 16292 C 1545.36 -4.10508 -1.15695 0
M  V30 16293 S 1546.19 -5.35374 -0.116239 0
M  V30 16294 C 1547.35 -6.12318 -1.29684 0
M  V30 16295 H 1547.58 -2.96878 0.158361 0
M  V30 16296 H 1545.12 -1.53091 0.200602 0
M  V30 16297 H 1547.07 -3.40022 -2.2999 0
M  V30 16298 H 1545.73 -2.23583 -2.20611 0
M  V30 16299 H 1544.93 -4.61075 -2.03534 0
M  V30 16300 H 1544.53 -3.69761 -0.561518 0
M  V30 16301 H 1546.82 -6.40125 -2.21914 0
M  V30 16302 H 1547.76 -7.032 -0.831569 0
M  V30 16303 H 1548.17 -5.43487 -1.52586 0
M  V30 16304 N 1547.57 -0.146903 -1.56914 0
M  V30 16305 C 1548.8 0.514426 -2.00919 0
M  V30 16306 C 1549.22 1.57632 -1.02634 0
M  V30 16307 O 1548.58 1.813 -0.00207478 0
M  V30 16308 C 1548.63 1.09197 -3.43669 0
M  V30 16309 O 1547.73 2.20684 -3.48385 0
M  V30 16310 H 1547.07 0.125827 -0.651969 0
M  V30 16311 H 1549.6 -0.243607 -2.03145 0
M  V30 16312 H 1549.61 1.42066 -3.82467 0
M  V30 16313 H 1548.29 0.314336 -4.1471 0
M  V30 16314 H 1546.86 1.89045 -3.21429 0
M  V30 16315 N 1549.05 1.57088 0.126881 0
M  V30 16316 C 1550.01 1.98836 1.14003 0
M  V30 16317 C 1551.01 0.877454 1.34749 0
M  V30 16318 O 1552.2 1.14366 1.314 0
M  V30 16319 C 1549.33 2.32171 2.49618 0
M  V30 16320 H 1550.53 2.89541 0.7814 0
M  V30 16321 H 1548.08 1.51835 0.370915 0
M  V30 16322 H 1548.81 1.44321 2.90417 0
M  V30 16323 H 1548.6 3.13187 2.35916 0
M  V30 16324 H 1550.09 2.65238 3.2255 0
M  V30 16325 N 1550.53 -0.396836 1.52522 0
M  V30 16326 C 1551.75 -1.16404 1.71049 0
M  V30 16327 C 1552.17 -1.83946 0.425378 0
M  V30 16328 O 1551.53 -1.7237 -0.599561 0
M  V30 16329 C 1551.58 -2.21796 2.85463 0
M  V30 16330 O 1551.3 -1.57009 4.08998 0
M  V30 16331 C 1552.8 -3.11303 3.15603 0
M  V30 16332 H 1550.02 -0.349314 0.572905 0
M  V30 16333 H 1552.56 -0.465297 1.99136 0
M  V30 16334 H 1550.72 -2.87318 2.59859 0
M  V30 16335 H 1551.13 -2.26977 4.72844 0
M  V30 16336 H 1552.61 -3.81299 3.99143 0
M  V30 16337 H 1553.08 -3.7437 2.2966 0
M  V30 16338 H 1553.69 -2.51435 3.43017 0
M  V30 16339 N 1552.01 -1.43353 -0.654814 0
M  V30 16340 C 1553.24 -1.48107 -1.44041 0
M  V30 16341 C 1553.64 -0.0970423 -1.88951 0
M  V30 16342 O 1552.99 0.902686 -1.59991 0
M  V30 16343 C 1553.05 -2.36322 -2.7091 0
M  V30 16344 C 1552.71 -3.83887 -2.4795 0
M  V30 16345 C 1553.71 -4.75036 -2.11274 0
M  V30 16346 C 1551.39 -4.28359 -2.62324 0
M  V30 16347 C 1553.39 -6.08651 -1.89267 0
M  V30 16348 C 1551.08 -5.62028 -2.39933 0
M  V30 16349 C 1552.07 -6.51992 -2.0346 0
M  V30 16350 O 1551.76 -7.83189 -1.813 0
M  V30 16351 H 1551.49 -0.50532 -0.449029 0
M  V30 16352 H 1554.05 -1.88745 -0.810226 0
M  V30 16353 H 1552.28 -1.90569 -3.36482 0
M  V30 16354 H 1553.97 -2.32298 -3.32855 0
M  V30 16355 H 1554.73 -4.41957 -1.99747 0
M  V30 16356 H 1550.61 -3.58611 -2.89688 0
M  V30 16357 H 1554.16 -6.78833 -1.60723 0
M  V30 16358 H 1550.05 -5.94675 -2.51062 0
M  V30 16359 H 1550.82 -7.94751 -1.95738 0
M  V30 16360 N 1553.48 0.89303 -1.29857 0
M  V30 16361 C 1554.73 1.64413 -1.18214 0
M  V30 16362 C 1555.06 1.92687 0.26492 0
M  V30 16363 O 1554.31 1.54044 1.20702 0
M  V30 16364 C 1554.61 2.99661 -1.94777 0
M  V30 16365 C 1554.28 2.90969 -3.44453 0
M  V30 16366 C 1552.94 2.88306 -3.8527 0
M  V30 16367 C 1555.29 2.79686 -4.39801 0
M  V30 16368 C 1552.62 2.72188 -5.19741 0
M  V30 16369 C 1554.97 2.65107 -5.7437 0
M  V30 16370 C 1553.64 2.60814 -6.14437 0
M  V30 16371 H 1552.91 0.60163 -0.432577 0
M  V30 16372 H 1555.55 1.03891 -1.60869 0
M  V30 16373 H 1553.86 3.64087 -1.44733 0
M  V30 16374 H 1555.56 3.56722 -1.83168 0
M  V30 16375 H 1552.15 2.93848 -3.12012 0
M  V30 16376 H 1556.33 2.80816 -4.09214 0
M  V30 16377 H 1551.59 2.67273 -5.49886 0
M  V30 16378 H 1555.76 2.55349 -6.47897 0
M  V30 16379 H 1553.39 2.48082 -7.18582 0
M  V30 16380 N 1554.96 1.12442 1.10429 0
M  V30 16381 C 1555.91 0.787578 2.18861 0
M  V30 16382 C 1556.9 -0.225602 1.67891 0
M  V30 16383 O 1558.11 -0.0838029 1.79805 0
M  V30 16384 H 1554.48 0.236858 0.713724 0
M  V30 16385 H 1556.46 1.71048 2.4451 0
M  V30 16386 C 1555.2 0.25854 3.46737 0
M  V30 16387 H 1554.53 1.02945 3.86319 0
M  V30 16388 H 1555.97 0.0611642 4.23956 0
M  V30 16389 C 1554.43 -1.01353 3.21293 0
M  V30 16390 O 1554.96 -2.09132 3.42967 0
M  V30 16391 N 1553.16 -0.940498 2.7496 0
M  V30 16392 H 1552.71 -0.0632962 2.57522 0
M  V30 16393 H 1552.67 -1.79226 2.58313 0
M  V30 16394 N 1556.44 -1.28223 0.91633 0
M  V30 16395 C 1557.72 -1.89878 0.469661 0
M  V30 16396 C 1558.1 -1.83037 -1.05169 0
M  V30 16397 O 1557.44 -1.26801 -1.90088 0
M  V30 16398 C 1557.65 -3.34279 1.00293 0
M  V30 16399 C 1559 -4.11244 1.05657 0
M  V30 16400 O 1560.03 -3.43249 0.951753 0
M  V30 16401 O 1558.89 -5.32788 1.21652 0
M  V30 16402 H 1555.98 -0.813418 0.149263 0
M  V30 16403 H 1558.53 -1.36572 1.00728 0
M  V30 16404 H 1557.3 -3.33494 2.04688 0
M  V30 16405 H 1556.92 -3.95087 0.446287 0
M  V30 16406 N 1557.92 -0.68059 -1.42147 0
M  V30 16407 C 1558.87 0.00572503 -2.32599 0
M  V30 16408 C 1559.86 0.784449 -1.50142 0
M  V30 16409 O 1561.07 0.69176 -1.66177 0
M  V30 16410 H 1557.44 0.0206483 -0.751716 0
M  V30 16411 H 1559.41 -0.774447 -2.88175 0
M  V30 16412 C 1558.16 0.939019 -3.3478 0
M  V30 16413 H 1557.48 0.349225 -3.98272 0
M  V30 16414 H 1558.92 1.38782 -4.00644 0
M  V30 16415 C 1557.38 2.04814 -2.67493 0
M  V30 16416 O 1557.91 3.13526 -2.51126 0
M  V30 16417 N 1556.12 1.82153 -2.26426 0
M  V30 16418 H 1555.67 0.93743 -2.39938 0
M  V30 16419 H 1555.62 2.56551 -1.81738 0
M  V30 16420 N 1559.4 1.51781 -0.424309 0
M  V30 16421 C 1560.64 2.01157 0.147925 0
M  V30 16422 C 1560.96 1.31369 1.44919 0
M  V30 16423 O 1562.16 1.71643 2.10359 0
M  V30 16424 C 1560.62 3.58526 0.31417 0
M  V30 16425 C 1560.23 4.37242 -0.975898 0
M  V30 16426 C 1561.97 4.16088 0.840876 0
M  V30 16427 C 1559.88 5.86287 -0.776009 0
M  V30 16428 H 1558.81 0.751684 0.0590568 0
M  V30 16429 H 1561.46 1.74998 -0.552079 0
M  V30 16430 H 1559.84 3.81077 1.07687 0
M  V30 16431 H 1561.02 4.26444 -1.74592 0
M  V30 16432 H 1559.33 3.9107 -1.43015 0
M  V30 16433 H 1561.93 5.25138 1.0067 0
M  V30 16434 H 1562.27 3.7442 1.81977 0
M  V30 16435 H 1562.8 3.97565 0.136836 0
M  V30 16436 H 1559.54 6.32343 -1.7269 0
M  V30 16437 H 1559.06 5.99783 -0.0455544 0
M  V30 16438 H 1560.74 6.45609 -0.424095 0
M  V30 16439 N 1560.87 0.155222 1.56834 0
M  V30 16440 C 1561.8 -0.777258 2.20184 0
M  V30 16441 C 1562.78 -1.25102 1.15254 0
M  V30 16442 O 1563.97 -1.3071 1.43627 0
M  V30 16443 C 1561.1 -2.01326 2.82993 0
M  V30 16444 C 1560.05 -1.67596 3.93822 0
M  V30 16445 C 1559.38 -2.98529 4.43604 0
M  V30 16446 C 1560.68 -0.916302 5.142 0
M  V30 16447 H 1562.37 -0.249257 2.98361 0
M  V30 16448 H 1559.92 -0.118448 1.43512 0
M  V30 16449 H 1561.87 -2.67048 3.2598 0
M  V30 16450 H 1560.6 -2.56513 2.0216 0
M  V30 16451 H 1559.26 -1.0425 3.51465 0
M  V30 16452 H 1558.9 -3.51723 3.59583 0
M  V30 16453 H 1558.6 -2.76721 5.18362 0
M  V30 16454 H 1560.13 -3.65308 4.89267 0
M  V30 16455 H 1561.54 -1.47577 5.5398 0
M  V30 16456 H 1559.94 -0.797856 5.94772 0
M  V30 16457 H 1561.01 0.0904351 4.84816 0
M  V30 16458 N 1562.35 -1.57153 -0.118549 0
M  V30 16459 C 1563.58 -1.89062 -0.840429 0
M  V30 16460 C 1563.99 -0.746516 -1.73414 0
M  V30 16461 O 1563.35 0.282638 -1.80298 0
M  V30 16462 C 1563.4 -3.20433 -1.67347 0
M  V30 16463 O 1563.12 -4.30439 -0.815739 0
M  V30 16464 C 1564.62 -3.66048 -2.50047 0
M  V30 16465 H 1561.84 -0.626005 -0.241575 0
M  V30 16466 H 1564.39 -2.04241 -0.102804 0
M  V30 16467 H 1562.54 -3.06922 -2.36385 0
M  V30 16468 H 1562.96 -5.05736 -1.39037 0
M  V30 16469 H 1564.43 -4.60729 -3.04028 0
M  V30 16470 H 1564.91 -2.92727 -3.27426 0
M  V30 16471 H 1565.51 -3.82349 -1.86251 0
M  V30 16472 N 1563.83 0.388742 -1.5273 0
M  V30 16473 C 1564.76 1.48133 -1.80496 0
M  V30 16474 C 1565.74 1.56899 -0.657008 0
M  V30 16475 O 1566.93 1.71844 -0.904621 0
M  V30 16476 C 1564.06 2.85742 -1.97405 0
M  V30 16477 C 1563.01 2.91815 -3.13094 0
M  V30 16478 C 1562.34 4.31876 -3.15258 0
M  V30 16479 C 1563.64 2.61438 -4.52159 0
M  V30 16480 H 1565.33 1.25147 -2.7199 0
M  V30 16481 H 1562.88 0.600603 -1.30877 0
M  V30 16482 H 1564.83 3.62182 -2.15412 0
M  V30 16483 H 1563.55 3.10065 -1.02601 0
M  V30 16484 H 1562.21 2.17824 -2.9487 0
M  V30 16485 H 1561.86 4.53239 -2.18135 0
M  V30 16486 H 1561.56 4.3686 -3.92972 0
M  V30 16487 H 1563.08 5.10221 -3.3542 0
M  V30 16488 H 1564.5 3.27596 -4.70483 0
M  V30 16489 H 1562.89 2.77771 -5.31943 0
M  V30 16490 H 1563.96 1.56778 -4.58856 0
M  V30 16491 N 1565.31 1.43698 0.647203 0
M  V30 16492 C 1566.56 1.44918 1.40292 0
M  V30 16493 C 1566.87 0.0794243 1.95439 0
M  V30 16494 O 1568.08 -0.0309052 2.71482 0
M  V30 16495 C 1566.53 2.55052 2.53923 0
M  V30 16496 C 1566.14 3.98161 2.05357 0
M  V30 16497 C 1567.88 2.65473 3.31246 0
M  V30 16498 C 1565.79 4.99749 3.16235 0
M  V30 16499 H 1564.72 0.539106 0.527144 0
M  V30 16500 H 1567.37 1.69708 0.697951 0
M  V30 16501 H 1565.75 2.23473 3.26919 0
M  V30 16502 H 1566.93 4.3923 1.39333 0
M  V30 16503 H 1565.24 3.91839 1.40896 0
M  V30 16504 H 1567.84 3.38546 4.13873 0
M  V30 16505 H 1568.18 1.70745 3.79673 0
M  V30 16506 H 1568.72 2.96383 2.65334 0
M  V30 16507 H 1565.45 5.96051 2.7277 0
M  V30 16508 H 1564.97 4.63288 3.80952 0
M  V30 16509 H 1566.65 5.22725 3.81271 0
M  V30 16510 N 1566.79 -0.886131 1.30328 0
M  V30 16511 C 1568.2 -1.16922 1.08634 0
M  V30 16512 C 1568.4 -2.00913 -0.15365 0
M  V30 16513 O 1567.46 -2.37849 -0.847592 0
M  V30 16514 C 1568.77 -1.87701 2.34923 0
M  V30 16515 C 1570.32 -2.0047 2.40376 0
M  V30 16516 C 1570.79 -2.74662 3.66504 0
M  V30 16517 N 1572.29 -2.82208 3.67305 0
M  V30 16518 C 1573.02 -3.40185 4.61586 0
M  V30 16519 N 1572.52 -3.99221 5.66211 0
M  V30 16520 N 1574.31 -3.37989 4.49132 0
M  V30 16521 H 1566.46 -0.326064 2.09882 0
M  V30 16522 H 1568.72 -0.206996 0.925125 0
M  V30 16523 H 1568.43 -1.33427 3.25408 0
M  V30 16524 H 1568.3 -2.88092 2.43481 0
M  V30 16525 H 1570.69 -2.53914 1.50371 0
M  V30 16526 H 1570.77 -0.991709 2.35794 0
M  V30 16527 H 1570.42 -2.2189 4.56867 0
M  V30 16528 H 1570.35 -3.76335 3.68347 0
M  V30 16529 H 1572.84 -2.40292 2.91665 0
M  V30 16530 H 1573.15 -4.41522 6.34254 0
M  V30 16531 H 1571.49 -3.97643 5.70004 0
M  V30 16532 H 1574.69 -2.91096 3.6658 0
M  V30 16533 H 1574.86 -3.82877 5.2279 0
M  V30 16534 N 1568.26 -1.13026 -1.09832 0
M  V30 16535 C 1569.49 -0.91246 -1.85693 0
M  V30 16536 C 1569.91 0.538558 -1.80956 0
M  V30 16537 O 1569.26 1.37262 -1.20273 0
M  V30 16538 C 1569.32 -1.38684 -3.3384 0
M  V30 16539 O 1569.04 -2.78099 -3.38515 0
M  V30 16540 C 1570.54 -1.20688 -4.26555 0
M  V30 16541 H 1567.76 -0.32565 -0.58668 0
M  V30 16542 H 1570.3 -1.50177 -1.38806 0
M  V30 16543 H 1568.46 -0.840617 -3.7817 0
M  V30 16544 H 1568.87 -2.99061 -4.30886 0
M  V30 16545 H 1570.34 -1.5876 -5.28677 0
M  V30 16546 H 1570.82 -0.148111 -4.3895 0
M  V30 16547 H 1571.43 -1.74092 -3.88036 0
M  V30 16548 N 1569.74 1.27735 -0.923117 0
M  V30 16549 C 1570.67 2.29395 -0.435907 0
M  V30 16550 C 1571.65 1.62542 0.501403 0
M  V30 16551 O 1572.84 1.89884 0.407135 0
M  V30 16552 C 1569.97 3.45856 0.316348 0
M  V30 16553 C 1568.92 4.24672 -0.532697 0
M  V30 16554 C 1568.25 5.33563 0.348454 0
M  V30 16555 C 1569.55 4.90494 -1.79481 0
M  V30 16556 H 1571.24 2.70398 -1.28551 0
M  V30 16557 H 1568.79 1.29989 -0.619581 0
M  V30 16558 H 1570.74 4.1607 0.668098 0
M  V30 16559 H 1569.47 3.03758 1.19994 0
M  V30 16560 H 1568.12 3.56198 -0.867093 0
M  V30 16561 H 1567.77 4.87708 1.23086 0
M  V30 16562 H 1567.47 5.87202 -0.216104 0
M  V30 16563 H 1569 6.06622 0.695878 0
M  V30 16564 H 1570.41 5.53019 -1.5114 0
M  V30 16565 H 1568.81 5.5417 -2.30251 0
M  V30 16566 H 1569.88 4.14454 -2.51707 0
M  V30 16567 N 1571.22 0.688118 1.41784 0
M  V30 16568 C 1572.47 0.216263 2.01644 0
M  V30 16569 C 1572.8 -1.17861 1.54345 0
M  V30 16570 O 1572.07 -1.794 0.751392 0
M  V30 16571 C 1572.36 0.265663 3.59119 0
M  V30 16572 C 1572.21 1.69694 4.16562 0
M  V30 16573 C 1573.53 -0.378713 4.38468 0
M  V30 16574 H 1570.65 0.0800582 0.732639 0
M  V30 16575 H 1573.29 0.875428 1.68631 0
M  V30 16576 H 1571.44 -0.295588 3.87374 0
M  V30 16577 H 1573.11 2.31146 3.9921 0
M  V30 16578 H 1571.36 2.23345 3.71886 0
M  V30 16579 H 1572.03 1.68309 5.25715 0
M  V30 16580 H 1574.5 0.0991969 4.15982 0
M  V30 16581 H 1573.38 -0.31357 5.48004 0
M  V30 16582 H 1573.64 -1.45832 4.17355 0
M  V30 16583 N 1572.7 -1.51554 0.432352 0
M  V30 16584 C 1573.93 -2.06462 -0.1346 0
M  V30 16585 C 1574.34 -1.30027 -1.36889 0
M  V30 16586 O 1573.7 -0.358447 -1.78945 0
M  V30 16587 C 1573.75 -3.58538 -0.461822 0
M  V30 16588 O 1573.47 -4.32085 0.723471 0
M  V30 16589 C 1574.97 -4.29943 -1.07999 0
M  V30 16590 H 1572.19 -0.670923 -0.0101329 0
M  V30 16591 H 1574.74 -1.9519 0.609999 0
M  V30 16592 H 1572.89 -3.6974 -1.15632 0
M  V30 16593 H 1573.3 -5.22611 0.444757 0
M  V30 16594 H 1574.78 -5.37451 -1.25898 0
M  V30 16595 H 1575.26 -3.87912 -2.05963 0
M  V30 16596 H 1575.86 -4.23171 -0.425022 0
M  V30 16597 N 1574.18 -0.163538 -1.56749 0
M  V30 16598 C 1575.42 0.482449 -1.96257 0
M  V30 16599 C 1575.75 1.64302 -1.05023 0
M  V30 16600 O 1575.02 1.95562 -0.115027 0
M  V30 16601 H 1573.6 0.181222 -0.724684 0
M  V30 16602 H 1576.26 -0.242903 -1.9338 0
M  V30 16603 H 1575.35 0.847634 -3.00369 0
M  V30 16604 N 1575.65 1.57214 0.110213 0
M  V30 16605 C 1576.9 1.84946 0.814827 0
M  V30 16606 C 1577.22 0.750029 1.79999 0
M  V30 16607 O 1576.49 -0.225164 1.94602 0
M  V30 16608 H 1575.07 0.682385 0.303907 0
M  V30 16609 H 1577.74 1.94666 0.0954415 0
M  V30 16610 H 1576.83 2.81167 1.35469 0
M  V30 16611 N 1577.13 -0.380637 1.52934 0
M  V30 16612 C 1578.1 -1.44819 1.77652 0
M  V30 16613 C 1579.1 -1.47224 0.646657 0
M  V30 16614 O 1580.29 -1.48248 0.91477 0
M  V30 16615 C 1577.42 -2.8405 1.8849 0
M  V30 16616 H 1578.61 -1.24183 2.72981 0
M  V30 16617 H 1576.16 -0.61288 1.43783 0
M  V30 16618 H 1576.9 -3.1002 0.951751 0
M  V30 16619 H 1576.68 -2.83704 2.70655 0
M  V30 16620 H 1578.17 -3.61388 2.09257 0
M  V30 16621 N 1578.61 -1.44039 -0.639573 0
M  V30 16622 C 1579.84 -1.49844 -1.42669 0
M  V30 16623 C 1580.25 -0.120599 -1.88414 0
M  V30 16624 O 1579.61 0.871875 -1.60327 0
M  V30 16625 C 1579.66 -2.45597 -2.65263 0
M  V30 16626 O 1579.38 -3.78023 -2.21427 0
M  V30 16627 C 1580.88 -2.60781 -3.5848 0
M  V30 16628 H 1578.1 -0.508477 -0.437826 0
M  V30 16629 H 1580.65 -1.88919 -0.782923 0
M  V30 16630 H 1578.8 -2.09679 -3.2575 0
M  V30 16631 H 1579.22 -4.29642 -3.00846 0
M  V30 16632 H 1580.69 -3.31826 -4.4113 0
M  V30 16633 H 1581.17 -1.65727 -4.06732 0
M  V30 16634 H 1581.77 -2.97565 -3.03867 0
M  V30 16635 N 1580.09 0.879207 -1.30796 0
M  V30 16636 C 1581.5 1.44705 -1.17972 0
M  V30 16637 C 1581.85 1.94992 0.217381 0
M  V30 16638 O 1580.98 1.85494 1.11449 0
M  V30 16639 C 1581.57 2.6302 -2.13555 0
M  V30 16640 C 1580.13 3.15877 -2.04692 0
M  V30 16641 C 1579.28 1.88576 -2.03309 0
M  V30 16642 H 1582.23 0.688604 -1.42982 0
M  V30 16643 H 1582.25 3.39418 -1.71976 0
M  V30 16644 H 1581.76 2.2639 -3.15229 0
M  V30 16645 H 1579.86 3.57151 -1.0618 0
M  V30 16646 H 1579.97 3.78786 -2.93357 0
M  V30 16647 H 1578.34 2.0715 -1.48192 0
M  V30 16648 H 1579.12 1.54195 -3.06723 0
M  V30 16649 N 1581.57 1.13606 1.09231 0
M  V30 16650 C 1582.48 0.828702 2.19476 0
M  V30 16651 C 1583.49 -0.187499 1.72987 0
M  V30 16652 O 1584.67 -0.0180602 2.01392 0
M  V30 16653 C 1581.73 0.301361 3.45388 0
M  V30 16654 C 1580.8 1.37906 4.06547 0
M  V30 16655 C 1580.03 0.876786 5.26449 0
M  V30 16656 O 1580.25 -0.284896 5.69688 0
M  V30 16657 O 1579.19 1.652 5.78785 0
M  V30 16658 H 1583.01 1.74982 2.48223 0
M  V30 16659 H 1580.6 0.913673 1.18205 0
M  V30 16660 H 1582.48 0.0127792 4.21398 0
M  V30 16661 H 1581.15 -0.592149 3.18238 0
M  V30 16662 H 1580.06 1.72098 3.32164 0
M  V30 16663 H 1581.39 2.24678 4.37927 0
M  V30 16664 N 1583.05 -1.27244 0.929878 0
M  V30 16665 C 1583.98 -2.29161 0.448066 0
M  V30 16666 C 1584.96 -1.62806 -0.492776 0
M  V30 16667 O 1586.14 -1.90098 -0.39706 0
M  V30 16668 C 1583.27 -3.46019 -0.298002 0
M  V30 16669 C 1582.23 -4.24384 0.555211 0
M  V30 16670 C 1581.55 -5.33741 -0.320153 0
M  V30 16671 C 1582.85 -4.89535 1.8208 0
M  V30 16672 H 1584.55 -2.69712 1.29983 0
M  V30 16673 H 1582.09 -1.29659 0.626466 0
M  V30 16674 H 1584.04 -4.16419 -0.646024 0
M  V30 16675 H 1582.77 -3.0439 -1.18381 0
M  V30 16676 H 1581.43 -3.55733 0.885971 0
M  V30 16677 H 1581.08 -4.88354 -1.20498 0
M  V30 16678 H 1580.78 -5.8708 0.247241 0
M  V30 16679 H 1582.3 -6.06982 -0.663697 0
M  V30 16680 H 1583.71 -5.52209 1.54071 0
M  V30 16681 H 1582.11 -5.52941 2.33186 0
M  V30 16682 H 1583.18 -4.13113 2.53901 0
M  V30 16683 N 1584.52 -0.695628 -1.41417 0
M  V30 16684 C 1585.43 -0.0308378 -2.3458 0
M  V30 16685 C 1586.45 0.766 -1.56232 0
M  V30 16686 O 1587.63 0.703548 -1.88712 0
M  V30 16687 C 1584.69 0.894162 -3.34971 0
M  V30 16688 C 1583.75 0.0895231 -4.29207 0
M  V30 16689 C 1582.98 0.970467 -5.24802 0
M  V30 16690 O 1583.21 2.20997 -5.25848 0
M  V30 16691 O 1582.14 0.420114 -6.00432 0
M  V30 16692 H 1585.97 -0.798775 -2.93007 0
M  V30 16693 H 1583.55 -0.455964 -1.42272 0
M  V30 16694 H 1585.43 1.42458 -3.9659 0
M  V30 16695 H 1584.11 1.64159 -2.78987 0
M  V30 16696 H 1583.02 -0.4855 -3.70936 0
M  V30 16697 H 1584.35 -0.619241 -4.88289 0
M  V30 16698 N 1586 1.51322 -0.440383 0
M  V30 16699 C 1586.96 2.26388 0.357911 0
M  V30 16700 C 1587.96 1.2995 0.947083 0
M  V30 16701 O 1589.15 1.53637 0.821057 0
M  V30 16702 C 1586.29 3.05797 1.50669 0
M  V30 16703 H 1587.48 2.98396 -0.300002 0
M  V30 16704 H 1585.03 1.55096 -0.193628 0
M  V30 16705 H 1585.77 2.38213 2.20057 0
M  V30 16706 H 1585.55 3.76634 1.09037 0
M  V30 16707 H 1587.04 3.6265 2.07062 0
M  V30 16708 N 1587.48 0.171848 1.5666 0
M  V30 16709 C 1588.41 -0.753861 2.20996 0
M  V30 16710 C 1589.39 -1.23873 1.16574 0
M  V30 16711 O 1590.58 -1.29179 1.45005 0
M  V30 16712 C 1587.71 -1.98314 2.85112 0
M  V30 16713 C 1586.66 -1.6341 3.95577 0
M  V30 16714 C 1585.99 -2.93807 4.46745 0
M  V30 16715 C 1587.29 -0.861713 5.15142 0
M  V30 16716 H 1588.98 -0.217598 2.98608 0
M  V30 16717 H 1586.53 -0.10322 1.4363 0
M  V30 16718 H 1588.48 -2.63576 3.28794 0
M  V30 16719 H 1587.2 -2.54354 2.04869 0
M  V30 16720 H 1585.86 -1.00516 3.52551 0
M  V30 16721 H 1585.51 -3.47889 3.63293 0
M  V30 16722 H 1585.21 -2.71207 5.21268 0
M  V30 16723 H 1586.73 -3.60098 4.93114 0
M  V30 16724 H 1588.15 -1.41693 5.55514 0
M  V30 16725 H 1586.54 -0.734727 5.95585 0
M  V30 16726 H 1587.61 0.141851 4.84692 0
M  V30 16727 N 1588.96 -1.5727 -0.101874 0
M  V30 16728 C 1590.21 -1.84928 -0.805263 0
M  V30 16729 C 1590.52 -0.760099 -1.80227 0
M  V30 16730 O 1591.73 -0.923594 -2.55308 0
M  V30 16731 C 1590.18 -3.27929 -1.48291 0
M  V30 16732 C 1589.79 -4.44901 -0.526016 0
M  V30 16733 C 1591.53 -3.64819 -2.17043 0
M  V30 16734 C 1589.44 -5.78934 -1.20787 0
M  V30 16735 H 1588.37 -0.689789 -0.304478 0
M  V30 16736 H 1591.02 -1.83408 -0.0581337 0
M  V30 16737 H 1589.4 -3.2397 -2.27726 0
M  V30 16738 H 1590.58 -4.60193 0.236352 0
M  V30 16739 H 1588.89 -4.16363 0.0554387 0
M  V30 16740 H 1591.49 -4.62236 -2.68778 0
M  V30 16741 H 1591.83 -2.93104 -2.95628 0
M  V30 16742 H 1592.37 -3.70637 -1.44476 0
M  V30 16743 H 1589.1 -6.53863 -0.46296 0
M  V30 16744 H 1588.62 -5.67497 -1.94183 0
M  V30 16745 H 1590.3 -6.23268 -1.73626 0
M  V30 16746 N 1590.44 0.372521 -1.53134 0
M  V30 16747 C 1591.4 1.43875 -1.78417 0
M  V30 16748 C 1592.4 1.46879 -0.654455 0
M  V30 16749 O 1593.59 1.47761 -0.922619 0
M  V30 16750 C 1590.72 2.83046 -1.89994 0
M  V30 16751 H 1591.91 1.22733 -2.73636 0
M  V30 16752 H 1589.47 0.605247 -1.44106 0
M  V30 16753 H 1590.2 3.09511 -0.968179 0
M  V30 16754 H 1589.99 2.82265 -2.72156 0
M  V30 16755 H 1591.48 3.60273 -2.11171 0
M  V30 16756 N 1591.91 1.44376 0.631925 0
M  V30 16757 C 1592.82 1.5367 1.77264 0
M  V30 16758 C 1593.84 0.422425 1.68794 0
M  V30 16759 O 1595.02 0.679656 1.89585 0
M  V30 16760 C 1592.08 1.47743 3.13644 0
M  V30 16761 C 1591.14 2.70015 3.33752 0
M  V30 16762 C 1590.37 2.64362 4.63626 0
M  V30 16763 O 1590.6 1.7032 5.44378 0
M  V30 16764 O 1589.53 3.55201 4.85918 0
M  V30 16765 H 1593.36 2.5004 1.72376 0
M  V30 16766 H 1590.94 1.26614 0.793052 0
M  V30 16767 H 1592.82 1.46958 3.94945 0
M  V30 16768 H 1591.5 0.545165 3.19076 0
M  V30 16769 H 1590.41 2.76369 2.52133 0
M  V30 16770 H 1591.74 3.62286 3.33181 0
M  V30 16771 N 1593.39 -0.872258 1.31261 0
M  V30 16772 C 1594.3 -2.01185 1.20673 0
M  V30 16773 C 1595.32 -1.73558 0.123921 0
M  V30 16774 O 1596.49 -1.98487 0.341288 0
M  V30 16775 C 1593.56 -3.34481 0.91232 0
M  V30 16776 C 1592.62 -3.75446 2.08179 0
M  V30 16777 C 1591.85 -5.02382 1.80134 0
M  V30 16778 O 1592.08 -5.6564 0.735358 0
M  V30 16779 O 1591.01 -5.40059 2.65744 0
M  V30 16780 H 1594.84 -2.13049 2.16434 0
M  V30 16781 H 1592.42 -1.00021 1.10978 0
M  V30 16782 H 1594.3 -4.14419 0.763879 0
M  V30 16783 H 1592.98 -3.23696 -0.0152802 0
M  V30 16784 H 1591.88 -2.96159 2.28562 0
M  V30 16785 H 1593.22 -3.90853 2.99156 0
M  V30 16786 N 1594.87 -1.14184 -1.08627 0
M  V30 16787 C 1595.82 -0.822297 -2.1758 0
M  V30 16788 C 1596.81 0.198863 -1.68229 0
M  V30 16789 O 1598.02 0.0551869 -1.79915 0
M  V30 16790 H 1594.39 -0.248183 -0.709866 0
M  V30 16791 H 1596.36 -1.74916 -2.41758 0
M  V30 16792 C 1595.11 -0.313671 -3.46282 0
M  V30 16793 H 1594.44 -1.09078 -3.84632 0
M  V30 16794 H 1595.88 -0.128604 -4.23805 0
M  V30 16795 C 1594.33 0.962289 -3.22865 0
M  V30 16796 O 1594.86 2.03649 -3.46251 0
M  V30 16797 N 1593.07 0.896635 -2.76421 0
M  V30 16798 H 1592.62 0.0223186 -2.5759 0
M  V30 16799 H 1592.58 1.75093 -2.61132 0
M  V30 16800 N 1596.35 1.26749 -0.936613 0
M  V30 16801 C 1597.31 2.24794 -0.447243 0
M  V30 16802 C 1598.31 1.54688 0.439135 0
M  V30 16803 O 1599.5 1.72553 0.238957 0
M  V30 16804 C 1596.63 3.39036 0.355958 0
M  V30 16805 H 1597.83 2.696 -1.31361 0
M  V30 16806 H 1595.38 1.38825 -0.718143 0
M  V30 16807 H 1596.11 2.99625 1.24077 0
M  V30 16808 H 1595.9 3.91101 -0.279691 0
M  V30 16809 H 1597.39 4.11887 0.688421 0
M  V30 16810 N 1597.83 0.703118 1.41046 0
M  V30 16811 C 1598.76 0.0570815 2.3343 0
M  V30 16812 C 1599.74 -0.759042 1.52225 0
M  V30 16813 O 1600.92 -0.710491 1.80736 0
M  V30 16814 C 1598.05 -0.874541 3.36109 0
M  V30 16815 C 1597.01 -0.16496 4.27682 0
M  V30 16816 C 1596.33 -1.21145 5.20795 0
M  V30 16817 C 1597.63 0.97332 5.13151 0
M  V30 16818 H 1599.33 0.828699 2.87703 0
M  V30 16819 H 1596.87 0.399956 1.38334 0
M  V30 16820 H 1598.83 -1.33579 3.99668 0
M  V30 16821 H 1597.55 -1.67791 2.80203 0
M  V30 16822 H 1596.21 0.276332 3.65557 0
M  V30 16823 H 1595.86 -2.00755 4.61201 0
M  V30 16824 H 1595.56 -0.741633 5.82901 0
M  V30 16825 H 1597.08 -1.67305 5.87232 0
M  V30 16826 H 1598.49 0.592013 5.70235 0
M  V30 16827 H 1596.89 1.37071 5.84236 0
M  V30 16828 H 1597.96 1.80961 4.49868 0
M  V30 16829 N 1599.3 -1.51086 0.448402 0
M  V30 16830 C 1600.72 -1.59278 0.101286 0
M  V30 16831 C 1600.92 -1.45847 -1.39036 0
M  V30 16832 O 1599.98 -1.30534 -2.16142 0
M  V30 16833 C 1601.29 -2.93999 0.631264 0
M  V30 16834 C 1602.84 -3.07337 0.59268 0
M  V30 16835 C 1603.31 -4.44599 1.09982 0
M  V30 16836 N 1604.8 -4.50949 1.05827 0
M  V30 16837 C 1605.54 -5.55503 1.42142 0
M  V30 16838 N 1605.03 -6.67422 1.85796 0
M  V30 16839 N 1606.83 -5.45922 1.33888 0
M  V30 16840 H 1598.98 -1.58062 1.41881 0
M  V30 16841 H 1601.24 -0.745702 0.585349 0
M  V30 16842 H 1600.95 -3.09233 1.67534 0
M  V30 16843 H 1600.82 -3.77149 0.0622533 0
M  V30 16844 H 1603.21 -2.91764 -0.442437 0
M  V30 16845 H 1603.29 -2.26 1.19823 0
M  V30 16846 H 1602.93 -4.60919 2.13345 0
M  V30 16847 H 1602.86 -5.24492 0.470703 0
M  V30 16848 H 1605.35 -3.70627 0.737822 0
M  V30 16849 H 1605.67 -7.43234 2.11714 0
M  V30 16850 H 1604.01 -6.68601 1.89731 0
M  V30 16851 H 1607.2 -4.57372 0.996415 0
M  V30 16852 H 1607.38 -6.2729 1.62517 0
M  V30 16853 N 1600.78 -0.180154 -1.56567 0
M  V30 16854 C 1602.03 0.461606 -1.96758 0
M  V30 16855 C 1602.35 1.63179 -1.0676 0
M  V30 16856 O 1601.62 1.95429 -0.135762 0
M  V30 16857 H 1600.2 0.173526 -0.726566 0
M  V30 16858 H 1602.86 -0.2634 -1.93112 0
M  V30 16859 H 1601.96 0.815729 -3.01251 0
M  V30 16860 N 1602.26 1.57322 0.0935319 0
M  V30 16861 C 1603.51 1.858 0.795165 0
M  V30 16862 C 1603.83 0.769078 1.79193 0
M  V30 16863 O 1603.1 -0.204511 1.9483 0
M  V30 16864 H 1601.68 0.68557 0.296653 0
M  V30 16865 H 1604.34 1.94756 0.0747892 0
M  V30 16866 H 1603.44 2.82588 1.32479 0
M  V30 16867 N 1603.74 -0.364395 1.53329 0
M  V30 16868 C 1604.97 -1.12586 1.73228 0
M  V30 16869 C 1605.38 -1.83482 0.461614 0
M  V30 16870 O 1604.72 -1.74459 -0.575295 0
M  V30 16871 C 1604.78 -2.1994 2.84371 0
M  V30 16872 C 1604.45 -1.688 4.24683 0
M  V30 16873 C 1605.44 -1.15145 5.06989 0
M  V30 16874 C 1603.13 -1.74277 4.71097 0
M  V30 16875 C 1605.12 -0.676447 6.338 0
M  V30 16876 C 1602.81 -1.26389 5.97887 0
M  V30 16877 C 1603.81 -0.731632 6.7907 0
M  V30 16878 O 1603.49 -0.259825 8.0348 0
M  V30 16879 H 1603.23 -0.342514 0.582804 0
M  V30 16880 H 1605.78 -0.428832 2.00874 0
M  V30 16881 H 1604.01 -2.9314 2.52202 0
M  V30 16882 H 1605.7 -2.81489 2.92436 0
M  V30 16883 H 1606.47 -1.10251 4.72303 0
M  V30 16884 H 1602.34 -2.14647 4.0798 0
M  V30 16885 H 1605.89 -0.260327 6.97114 0
M  V30 16886 H 1601.79 -1.30977 6.32072 0
M  V30 16887 H 1602.55 -0.379044 8.17622 0
M  V30 16888 N 1605.22 -1.44709 -0.62426 0
M  V30 16889 C 1606.44 -1.51573 -1.41564 0
M  V30 16890 C 1606.87 -0.143806 -1.87549 0
M  V30 16891 O 1606.22 0.868361 -1.59151 0
M  V30 16892 C 1606.27 -2.49085 -2.60747 0
M  V30 16893 O 1605.38 -1.99712 -3.60817 0
M  V30 16894 H 1604.72 -0.51157 -0.423311 0
M  V30 16895 H 1607.25 -1.89908 -0.761316 0
M  V30 16896 H 1607.26 -2.67346 -3.08205 0
M  V30 16897 H 1605.93 -3.48733 -2.26624 0
M  V30 16898 H 1604.51 -1.9125 -3.20122 0
M  V30 16899 N 1606.69 0.865285 -1.31722 0
M  V30 16900 C 1607.92 1.65137 -1.24649 0
M  V30 16901 C 1608.34 1.87868 0.187391 0
M  V30 16902 O 1607.69 1.44015 1.12098 0
M  V30 16903 C 1607.75 3.0167 -1.99193 0
M  V30 16904 O 1607.47 2.79951 -3.36985 0
M  V30 16905 C 1608.97 3.96115 -1.99017 0
M  V30 16906 H 1606.19 0.514683 -0.430514 0
M  V30 16907 H 1608.73 1.07971 -1.73674 0
M  V30 16908 H 1606.89 3.55511 -1.53918 0
M  V30 16909 H 1607.3 3.66706 -3.75002 0
M  V30 16910 H 1608.77 4.89217 -2.55677 0
M  V30 16911 H 1609.25 4.28268 -0.973815 0
M  V30 16912 H 1609.86 3.4821 -2.44192 0
M  V30 16913 N 1608.17 1.14759 1.0802 0
M  V30 16914 C 1609.58 0.928711 1.61963 0
M  V30 16915 C 1609.93 -0.531568 1.88862 0
M  V30 16916 O 1609.06 -1.40129 1.64902 0
M  V30 16917 C 1609.65 1.67943 2.94246 0
M  V30 16918 C 1608.21 1.50602 3.44958 0
M  V30 16919 C 1607.36 1.69938 2.19126 0
M  V30 16920 H 1610.31 1.29882 0.911945 0
M  V30 16921 H 1610.33 1.14493 3.62866 0
M  V30 16922 H 1609.84 2.7422 2.74636 0
M  V30 16923 H 1607.95 0.466901 3.69663 0
M  V30 16924 H 1608.06 2.27857 4.21447 0
M  V30 16925 H 1606.42 1.12534 2.28491 0
M  V30 16926 H 1607.21 2.77566 2.0202 0
M  V30 16927 N 1609.65 -1.26251 0.943322 0
M  V30 16928 C 1610.58 -2.25468 0.411904 0
M  V30 16929 C 1611.6 -1.55988 -0.466005 0
M  V30 16930 O 1612.78 -1.76352 -0.276106 0
M  V30 16931 C 1609.88 -3.362 -0.426909 0
M  V30 16932 C 1609.06 -4.35228 0.435346 0
M  V30 16933 C 1608.12 -5.25078 -0.343388 0
M  V30 16934 O 1607.14 -5.68632 0.254322 0
M  V30 16935 N 1608.34 -5.5687 -1.63939 0
M  V30 16936 H 1611.11 -2.71701 1.26486 0
M  V30 16937 H 1608.67 -1.40039 0.812438 0
M  V30 16938 H 1610.66 -3.93263 -0.955316 0
M  V30 16939 H 1609.23 -2.89446 -1.18067 0
M  V30 16940 H 1608.45 -3.77206 1.14495 0
M  V30 16941 H 1609.74 -4.98384 1.02427 0
M  V30 16942 H 1609.14 -5.2337 -2.14709 0
M  V30 16943 H 1607.7 -6.16566 -2.11399 0
M  V30 16944 N 1611.13 -0.710588 -1.40671 0
M  V30 16945 C 1612.36 -0.257442 -2.05292 0
M  V30 16946 C 1612.77 1.09891 -1.53523 0
M  V30 16947 O 1612.13 1.68966 -0.689703 0
M  V30 16948 C 1612.18 -0.223091 -3.60811 0
M  V30 16949 O 1611.9 -1.52588 -4.10668 0
M  V30 16950 C 1613.4 0.249217 -4.42599 0
M  V30 16951 H 1610.62 -0.116663 -0.66078 0
M  V30 16952 H 1613.17 -0.967391 -1.80172 0
M  V30 16953 H 1611.32 0.437787 -3.84918 0
M  V30 16954 H 1611.74 -1.42301 -5.04827 0
M  V30 16955 H 1613.21 0.22211 -5.51553 0
M  V30 16956 H 1613.69 1.29057 -4.19811 0
M  V30 16957 H 1614.29 -0.381202 -4.23588 0
M  V30 16958 N 1612.61 1.50847 -0.456408 0
M  V30 16959 C 1613.54 2.31077 0.335523 0
M  V30 16960 C 1614.52 1.37326 1.00377 0
M  V30 16961 O 1615.7 1.66247 1.00376 0
M  V30 16962 C 1612.83 3.16662 1.42627 0
M  V30 16963 C 1611.79 4.18846 0.88045 0
M  V30 16964 C 1611.11 4.93074 2.06838 0
M  V30 16965 C 1612.41 5.22208 -0.0982288 0
M  V30 16966 H 1614.11 2.97531 -0.334056 0
M  V30 16967 H 1611.65 1.43085 -0.162099 0
M  V30 16968 H 1613.61 3.71578 1.98765 0
M  V30 16969 H 1612.33 2.48066 2.12441 0
M  V30 16970 H 1610.99 3.65009 0.341147 0
M  V30 16971 H 1610.64 4.20963 2.75316 0
M  V30 16972 H 1610.34 5.62184 1.70947 0
M  V30 16973 H 1611.86 5.5082 2.63494 0
M  V30 16974 H 1613.28 5.72082 0.373481 0
M  V30 16975 H 1611.67 5.98954 -0.370674 0
M  V30 16976 H 1612.74 4.73859 -1.02887 0
M  V30 16977 N 1614.09 0.188454 1.56469 0
M  V30 16978 C 1615.05 -0.721282 2.17555 0
M  V30 16979 C 1616.05 -1.14579 1.1282 0
M  V30 16980 O 1617.24 -1.05996 1.38241 0
M  V30 16981 C 1614.37 -1.9839 2.77226 0
M  V30 16982 H 1615.56 -0.189218 2.99302 0
M  V30 16983 H 1613.12 -0.0611533 1.5618 0
M  V30 16984 H 1613.85 -2.55864 1.99259 0
M  V30 16985 H 1613.64 -1.68831 3.53891 0
M  V30 16986 H 1615.13 -2.63277 3.24153 0
M  V30 16987 N 1615.56 -1.5737 -0.0851874 0
M  V30 16988 C 1616.51 -2.03781 -1.12142 0
M  V30 16989 C 1617.51 -0.940669 -1.40882 0
M  V30 16990 O 1618.71 -1.12582 -1.40447 0
M  V30 16991 H 1615.09 -0.64956 -0.378914 0
M  V30 16992 H 1617.06 -2.89983 -0.703736 0
M  V30 16993 C 1615.81 -2.48628 -2.43062 0
M  V30 16994 H 1615.13 -3.32637 -2.21795 0
M  V30 16995 H 1616.57 -2.84869 -3.14048 0
M  V30 16996 C 1615.03 -1.36364 -3.08069 0
M  V30 16997 O 1615.56 -0.698273 -3.95584 0
M  V30 16998 N 1613.76 -1.11213 -2.68477 0
M  V30 16999 H 1613.31 -1.655 -1.97402 0
M  V30 17000 H 1613.27 -0.363003 -3.12297 0
M  V30 17001 N 1617.04 0.356258 -1.53521 0
M  V30 17002 C 1618.46 0.698546 -1.43501 0
M  V30 17003 C 1618.66 1.92926 -0.581547 0
M  V30 17004 O 1617.71 2.5241 -0.0675947 0
M  V30 17005 C 1619.03 0.903047 -2.8682 0
M  V30 17006 C 1620.57 1.00247 -2.96512 0
M  V30 17007 C 1621.05 1.23938 -4.40912 0
M  V30 17008 N 1622.54 1.30687 -4.44382 0
M  V30 17009 C 1623.28 1.50745 -5.5323 0
M  V30 17010 N 1622.77 1.68058 -6.72107 0
M  V30 17011 N 1624.56 1.5319 -5.40823 0
M  V30 17012 H 1616.72 -0.453102 -2.07511 0
M  V30 17013 H 1618.98 -0.140708 -0.937499 0
M  V30 17014 H 1618.68 0.070416 -3.5163 0
M  V30 17015 H 1618.56 1.80847 -3.3102 0
M  V30 17016 H 1620.95 1.82564 -2.3185 0
M  V30 17017 H 1621.03 0.0742303 -2.55692 0
M  V30 17018 H 1620.67 0.421189 -5.06151 0
M  V30 17019 H 1620.6 2.18098 -4.79313 0
M  V30 17020 H 1623.09 1.18883 -3.58713 0
M  V30 17021 H 1623.4 1.82963 -7.50829 0
M  V30 17022 H 1621.75 1.65219 -6.75076 0
M  V30 17023 H 1624.94 1.39237 -4.46912 0
M  V30 17024 H 1625.11 1.6848 -6.25714 0
M  V30 17025 N 1618.52 1.45038 0.616577 0
M  V30 17026 C 1619.8 1.39059 1.37557 0
M  V30 17027 C 1620.18 0.0566307 2.11024 0
M  V30 17028 O 1619.52 -0.961203 2.073 0
M  V30 17029 C 1619.73 2.59841 2.32989 0
M  V30 17030 C 1621.08 3.04539 2.95874 0
M  V30 17031 O 1622.11 2.6015 2.43312 0
M  V30 17032 O 1620.97 3.81547 3.9126 0
M  V30 17033 H 1618.06 0.551396 0.616353 0
M  V30 17034 H 1620.61 1.57152 0.640416 0
M  V30 17035 H 1619.38 3.48521 1.779 0
M  V30 17036 H 1619 2.44036 3.13899 0
M  V30 17037 N 1620 -0.858287 1.32179 0
M  V30 17038 C 1621.41 -1.14591 1.1109 0
M  V30 17039 C 1621.61 -2.01194 -0.110998 0
M  V30 17040 O 1620.67 -2.39593 -0.79695 0
M  V30 17041 C 1621.98 -1.82675 2.38852 0
M  V30 17042 C 1623.53 -1.95326 2.44574 0
M  V30 17043 C 1624.01 -2.66826 3.72247 0
M  V30 17044 N 1625.5 -2.74353 3.73208 0
M  V30 17045 C 1626.23 -3.30317 4.68698 0
M  V30 17046 N 1625.73 -3.87121 5.74552 0
M  V30 17047 N 1627.52 -3.28386 4.562 0
M  V30 17048 H 1619.67 -0.281471 2.10527 0
M  V30 17049 H 1621.93 -0.187326 0.929308 0
M  V30 17050 H 1621.64 -1.26495 3.28165 0
M  V30 17051 H 1621.51 -2.82862 2.49537 0
M  V30 17052 H 1623.9 -2.50668 1.55723 0
M  V30 17053 H 1623.98 -0.94147 2.37844 0
M  V30 17054 H 1623.63 -2.12149 4.61471 0
M  V30 17055 H 1623.56 -3.68437 3.76247 0
M  V30 17056 H 1626.05 -2.34051 2.96696 0
M  V30 17057 H 1626.36 -4.2797 6.43476 0
M  V30 17058 H 1624.71 -3.85463 5.78311 0
M  V30 17059 H 1627.9 -2.83254 3.72672 0
M  V30 17060 H 1628.07 -3.71701 5.30794 0
M  V30 17061 N 1621.48 -1.1533 -1.07409 0
M  V30 17062 C 1622.72 -0.938329 -1.8159 0
M  V30 17063 C 1623.08 0.525171 -1.84678 0
M  V30 17064 O 1624.28 0.858449 -2.54724 0
M  V30 17065 C 1622.55 -1.53504 -3.22756 0
M  V30 17066 S 1624.11 -1.4631 -4.13689 0
M  V30 17067 H 1620.93 -0.337711 -0.625677 0
M  V30 17068 H 1623.53 -1.46868 -1.29035 0
M  V30 17069 H 1622.23 -2.59313 -3.18096 0
M  V30 17070 H 1621.77 -1.00353 -3.80385 0
M  V30 17071 H 1623.78 -0.455576 -4.94104 0
M  V30 17072 N 1622.95 1.25748 -0.950004 0
M  V30 17073 C 1624.37 1.45599 -0.653697 0
M  V30 17074 C 1624.57 1.85357 0.790245 0
M  V30 17075 O 1623.63 1.98071 1.56601 0
M  V30 17076 C 1624.94 2.5316 -1.62267 0
M  V30 17077 C 1626.49 2.67004 -1.63334 0
M  V30 17078 C 1626.96 3.77745 -2.58984 0
M  V30 17079 N 1628.45 3.8515 -2.57321 0
M  V30 17080 C 1629.19 4.70315 -3.28011 0
M  V30 17081 N 1628.68 5.59802 -4.08159 0
M  V30 17082 N 1630.48 4.64239 -3.16921 0
M  V30 17083 H 1622.63 0.982321 -1.88319 0
M  V30 17084 H 1624.89 0.492917 -0.809776 0
M  V30 17085 H 1624.6 2.30792 -2.65382 0
M  V30 17086 H 1624.47 3.50988 -1.38158 0
M  V30 17087 H 1626.86 2.88739 -0.609388 0
M  V30 17088 H 1626.94 1.69591 -1.915 0
M  V30 17089 H 1626.58 3.56761 -3.61502 0
M  V30 17090 H 1626.51 4.74633 -2.28103 0
M  V30 17091 H 1629 3.21178 -1.99131 0
M  V30 17092 H 1629.32 6.21701 -4.59029 0
M  V30 17093 H 1627.66 5.59525 -4.12258 0
M  V30 17094 H 1630.85 3.93335 -2.53782 0
M  V30 17095 H 1631.03 5.30389 -3.72279 0
M  V30 17096 N 1624.43 0.718038 1.40292 0
M  V30 17097 C 1625.68 0.258986 2.0114 0
M  V30 17098 C 1626.01 -1.1456 1.56811 0
M  V30 17099 O 1625.29 -1.77766 0.789276 0
M  V30 17100 C 1625.57 0.341778 3.58474 0
M  V30 17101 C 1625.42 1.78492 4.12869 0
M  V30 17102 C 1626.74 -0.285622 4.39172 0
M  V30 17103 H 1623.86 0.0955806 0.730776 0
M  V30 17104 H 1626.5 0.911 1.66736 0
M  V30 17105 H 1624.65 -0.213354 3.87914 0
M  V30 17106 H 1626.32 2.39562 3.94218 0
M  V30 17107 H 1624.57 2.31183 3.67065 0
M  V30 17108 H 1625.24 1.79423 5.22026 0
M  V30 17109 H 1627.71 0.187411 4.15678 0
M  V30 17110 H 1626.59 -0.19726 5.48545 0
M  V30 17111 H 1626.85 -1.36947 4.20355 0
M  V30 17112 N 1625.91 -1.50602 0.464402 0
M  V30 17113 C 1626.87 -2.26929 -0.32185 0
M  V30 17114 C 1627.87 -1.3144 -0.926289 0
M  V30 17115 O 1629.06 -1.54924 -0.796511 0
M  V30 17116 C 1626.2 -3.08155 -1.45785 0
M  V30 17117 H 1627.39 -2.97881 0.347436 0
M  V30 17118 H 1624.94 -1.54768 0.218278 0
M  V30 17119 H 1625.68 -2.41684 -2.16239 0
M  V30 17120 H 1625.46 -3.78321 -1.03031 0
M  V30 17121 H 1626.95 -3.65899 -2.01266 0
M  V30 17122 N 1627.39 -0.19675 -1.56367 0
M  V30 17123 C 1628.32 0.75534 -2.16396 0
M  V30 17124 C 1629.33 1.17558 -1.12623 0
M  V30 17125 O 1630.52 1.11102 -1.39709 0
M  V30 17126 C 1627.62 2.03159 -2.71256 0
M  V30 17127 C 1626.8 1.77088 -3.99948 0
M  V30 17128 C 1625.85 2.89176 -4.39618 0
M  V30 17129 O 1624.88 2.58712 -5.07007 0
M  V30 17130 N 1626.08 4.17569 -4.03257 0
M  V30 17131 H 1628.85 0.241991 -2.98721 0
M  V30 17132 H 1626.41 -0.0148423 -1.61893 0
M  V30 17133 H 1628.4 2.77287 -2.94778 0
M  V30 17134 H 1626.97 2.45611 -1.93375 0
M  V30 17135 H 1626.19 0.867309 -3.84541 0
M  V30 17136 H 1627.48 1.5707 -4.83949 0
M  V30 17137 H 1626.88 4.45171 -3.49054 0
M  V30 17138 H 1625.43 4.88319 -4.31726 0
M  V30 17139 N 1628.87 1.57413 0.0768405 0
M  V30 17140 C 1629.8 2.06378 1.09226 0
M  V30 17141 C 1630.78 0.956269 1.40675 0
M  V30 17142 O 1631.96 1.22868 1.5039 0
M  V30 17143 C 1629.09 2.50349 2.40712 0
M  V30 17144 C 1628.05 3.64931 2.23628 0
M  V30 17145 C 1627.37 3.9494 3.60453 0
M  V30 17146 C 1628.67 4.95162 1.66169 0
M  V30 17147 H 1630.37 2.91463 0.684827 0
M  V30 17148 H 1627.91 1.40215 0.327974 0
M  V30 17149 H 1629.87 2.83216 3.12036 0
M  V30 17150 H 1628.59 1.62287 2.83426 0
M  V30 17151 H 1627.25 3.32339 1.54747 0
M  V30 17152 H 1626.9 3.04016 4.00728 0
M  V30 17153 H 1626.6 4.72091 3.49863 0
M  V30 17154 H 1628.12 4.30299 4.33215 0
M  V30 17155 H 1629.53 5.26292 2.27353 0
M  V30 17156 H 1627.93 5.76601 1.66289 0
M  V30 17157 H 1629 4.80885 0.62271 0
M  V30 17158 N 1630.34 -0.348112 1.53707 0
M  V30 17159 C 1631.31 -1.41018 1.80683 0
M  V30 17160 C 1632.31 -1.4582 0.67774 0
M  V30 17161 O 1633.5 -1.46275 0.94601 0
M  V30 17162 C 1630.63 -2.79988 1.94473 0
M  V30 17163 H 1631.82 -1.18365 2.75554 0
M  V30 17164 H 1629.38 -0.582244 1.4505 0
M  V30 17165 H 1630.11 -3.07931 1.0173 0
M  V30 17166 H 1629.9 -2.77899 2.76612 0
M  V30 17167 H 1631.39 -3.56868 2.16876 0
M  V30 17168 N 1631.82 -1.45363 -0.608876 0
M  V30 17169 C 1632.75 -1.56778 -1.7304 0
M  V30 17170 C 1633.73 -0.419405 -1.64848 0
M  V30 17171 O 1634.92 -0.64238 -1.83268 0
M  V30 17172 C 1632.05 -1.5329 -3.1164 0
M  V30 17173 C 1631 -2.66832 -3.34641 0
M  V30 17174 C 1630.33 -2.48398 -4.735 0
M  V30 17175 C 1631.63 -4.0885 -3.25021 0
M  V30 17176 H 1633.32 -2.50656 -1.63743 0
M  V30 17177 H 1630.87 -1.20635 -0.786338 0
M  V30 17178 H 1632.82 -1.59873 -3.89895 0
M  V30 17179 H 1631.55 -0.559414 -3.21773 0
M  V30 17180 H 1630.2 -2.59675 -2.58775 0
M  V30 17181 H 1629.85 -1.49191 -4.80366 0
M  V30 17182 H 1629.55 -3.24537 -4.89846 0
M  V30 17183 H 1631.08 -2.56833 -5.53958 0
M  V30 17184 H 1632.49 -4.17257 -3.93153 0
M  V30 17185 H 1630.89 -4.85369 -3.52897 0
M  V30 17186 H 1631.96 -4.30849 -2.2248 0
M  V30 17187 N 1633.3 0.851265 -1.32632 0
M  V30 17188 C 1634.23 1.97562 -1.24465 0
M  V30 17189 C 1635.21 1.69619 -0.127777 0
M  V30 17190 O 1636.4 1.9162 -0.315509 0
M  V30 17191 C 1633.53 3.33467 -0.970423 0
M  V30 17192 C 1632.48 3.75772 -2.0489 0
M  V30 17193 C 1631.81 5.09345 -1.62702 0
M  V30 17194 C 1633.11 3.90876 -3.4643 0
M  V30 17195 H 1634.8 2.04653 -2.18535 0
M  V30 17196 H 1632.35 0.983252 -1.05205 0
M  V30 17197 H 1634.3 4.11681 -0.899825 0
M  V30 17198 H 1633.02 3.26599 0.00591373 0
M  V30 17199 H 1631.68 2.99812 -2.1097 0
M  V30 17200 H 1631.33 4.98937 -0.638039 0
M  V30 17201 H 1631.03 5.38621 -2.34864 0
M  V30 17202 H 1632.55 5.90048 -1.57085 0
M  V30 17203 H 1633.97 4.59434 -3.42919 0
M  V30 17204 H 1632.37 4.31574 -4.1697 0
M  V30 17205 H 1633.44 2.93689 -3.85843 0
M  V30 17206 N 1634.78 1.15898 1.06796 0
M  V30 17207 C 1636.06 0.847701 1.76276 0
M  V30 17208 C 1636.44 -0.655537 2.00664 0
M  V30 17209 O 1635.78 -1.60171 1.62964 0
M  V30 17210 C 1635.99 1.66475 3.06736 0
M  V30 17211 C 1637.34 1.87452 3.80982 0
M  V30 17212 O 1638.37 1.63298 3.16563 0
M  V30 17213 O 1637.22 2.27942 4.96694 0
M  V30 17214 H 1634.32 0.312308 0.765763 0
M  V30 17215 H 1636.86 1.26507 1.13111 0
M  V30 17216 H 1635.64 2.68508 2.84638 0
M  V30 17217 H 1635.26 1.24409 3.77635 0
M  V30 17218 N 1636.26 -1.25243 0.956659 0
M  V30 17219 C 1637.5 -1.92632 0.611328 0
M  V30 17220 C 1637.83 -1.75272 -0.85467 0
M  V30 17221 O 1637.1 -1.11758 -1.60894 0
M  V30 17222 H 1635.68 -0.712904 0.223109 0
M  V30 17223 H 1638.34 -1.52366 1.21534 0
M  V30 17224 H 1637.43 -3.00516 0.842396 0
M  V30 17225 N 1637.73 -0.725468 -1.3991 0
M  V30 17226 C 1639.15 -0.340415 -1.8357 0
M  V30 17227 C 1639.5 1.1266 -1.6063 0
M  V30 17228 O 1638.62 1.86804 -1.0924 0
M  V30 17229 C 1639.22 -0.611079 -3.33244 0
M  V30 17230 C 1637.78 -0.279627 -3.7536 0
M  V30 17231 C 1636.92 -0.878498 -2.63017 0
M  V30 17232 H 1639.87 -0.923856 -1.29037 0
M  V30 17233 H 1639.89 0.120377 -3.8031 0
M  V30 17234 H 1639.41 -1.67886 -3.49908 0
M  V30 17235 H 1637.51 0.782703 -3.64286 0
M  V30 17236 H 1637.62 -0.755528 -4.73105 0
M  V30 17237 H 1635.98 -0.305813 -2.52857 0
M  V30 17238 H 1636.77 -1.95075 -2.8249 0
M  V30 17239 N 1639.21 1.50354 -0.472382 0
M  V30 17240 C 1640.46 2.02333 0.0821629 0
M  V30 17241 C 1640.79 1.35428 1.39605 0
M  V30 17242 O 1640.04 0.469386 1.89988 0
M  V30 17243 C 1640.34 3.5603 0.31263 0
M  V30 17244 C 1640.01 4.41421 -0.919715 0
M  V30 17245 C 1638.67 4.64476 -1.25759 0
M  V30 17246 C 1641.02 4.91292 -1.74017 0
M  V30 17247 C 1638.35 5.34648 -2.41596 0
M  V30 17248 C 1640.7 5.62736 -2.88983 0
M  V30 17249 C 1639.37 5.84045 -3.23184 0
M  V30 17250 H 1638.64 0.74039 0.0300655 0
M  V30 17251 H 1641.28 1.80954 -0.626725 0
M  V30 17252 H 1639.59 3.75931 1.10378 0
M  V30 17253 H 1641.28 3.93815 0.755691 0
M  V30 17254 H 1637.87 4.23696 -0.646486 0
M  V30 17255 H 1642.06 4.73332 -1.49232 0
M  V30 17256 H 1637.31 5.49354 -2.68366 0
M  V30 17257 H 1641.49 6.0036 -3.52903 0
M  V30 17258 H 1639.12 6.38196 -4.1305 0
M  V30 17259 N 1640.69 0.205039 1.56261 0
M  V30 17260 C 1641.65 -0.698166 2.18308 0
M  V30 17261 C 1642.65 -1.13376 1.14029 0
M  V30 17262 O 1643.84 -1.04524 1.39357 0
M  V30 17263 C 1640.98 -1.95438 2.79315 0
M  V30 17264 H 1642.17 -0.157462 2.99486 0
M  V30 17265 H 1639.72 -0.0445849 1.56236 0
M  V30 17266 H 1640.46 -2.53736 2.01962 0
M  V30 17267 H 1640.24 -1.65068 3.55662 0
M  V30 17268 H 1641.73 -2.59824 3.26927 0
M  V30 17269 N 1642.17 -1.57451 -0.0684915 0
M  V30 17270 C 1643.45 -1.78483 -0.800209 0
M  V30 17271 C 1643.83 -0.793438 -1.95621 0
M  V30 17272 O 1643.17 0.172756 -2.27846 0
M  V30 17273 C 1643.38 -3.25069 -1.27008 0
M  V30 17274 C 1644.73 -3.8899 -1.70212 0
M  V30 17275 O 1645.76 -3.2898 -1.36566 0
M  V30 17276 O 1644.62 -4.94569 -2.32515 0
M  V30 17277 H 1641.71 -0.732598 -0.383704 0
M  V30 17278 H 1644.26 -1.69631 -0.0483117 0
M  V30 17279 H 1643.03 -3.88784 -0.443067 0
M  V30 17280 H 1642.65 -3.38657 -2.08319 0
M  V30 17281 N 1643.65 0.339955 -1.5389 0
M  V30 17282 C 1644.58 1.42316 -1.85117 0
M  V30 17283 C 1645.56 1.5473 -0.706591 0
M  V30 17284 O 1646.74 1.68879 -0.958834 0
M  V30 17285 C 1643.87 2.79317 -2.06396 0
M  V30 17286 C 1642.83 2.81707 -3.22219 0
M  V30 17287 C 1642.15 4.21627 -3.28838 0
M  V30 17288 C 1643.45 2.46921 -4.60247 0
M  V30 17289 H 1645.15 1.16431 -2.75834 0
M  V30 17290 H 1642.69 0.558661 -1.32721 0
M  V30 17291 H 1644.65 3.55145 -2.26826 0
M  V30 17292 H 1643.37 3.06644 -1.12414 0
M  V30 17293 H 1642.03 2.08332 -3.01651 0
M  V30 17294 H 1641.68 4.4607 -2.32444 0
M  V30 17295 H 1641.38 4.24137 -4.06672 0
M  V30 17296 H 1642.9 4.99292 -3.51482 0
M  V30 17297 H 1644.32 3.12462 -4.80667 0
M  V30 17298 H 1642.71 2.60707 -5.40511 0
M  V30 17299 H 1643.78 1.421 -4.63611 0
M  V30 17300 N 1645.13 1.45684 0.601159 0
M  V30 17301 C 1646.37 1.4974 1.35729 0
M  V30 17302 C 1646.69 0.143072 1.94474 0
M  V30 17303 O 1645.96 -0.82832 1.77527 0
M  V30 17304 H 1644.54 0.551455 0.503892 0
M  V30 17305 H 1647.21 1.81685 0.705443 0
M  V30 17306 H 1646.3 2.23982 2.17344 0
M  V30 17307 N 1646.6 -0.84422 1.33082 0
M  V30 17308 C 1647.88 -1.58339 1.1484 0
M  V30 17309 C 1648.26 -2.09136 -0.287273 0
M  V30 17310 O 1647.61 -1.8891 -1.2855 0
M  V30 17311 C 1647.82 -2.72141 2.18496 0
M  V30 17312 C 1649.17 -3.41457 2.52373 0
M  V30 17313 O 1650.19 -2.82377 2.17122 0
M  V30 17314 O 1649.05 -4.48096 3.12845 0
M  V30 17315 H 1646.14 -0.697813 0.443831 0
M  V30 17316 H 1648.69 -0.88744 1.44646 0
M  V30 17317 H 1647.46 -2.32206 3.14954 0
M  V30 17318 H 1647.08 -3.49404 1.89744 0
M  V30 17319 N 1648.08 -1.16463 -1.0618 0
M  V30 17320 C 1649.33 -0.944975 -1.78647 0
M  V30 17321 C 1649.65 0.528486 -1.87702 0
M  V30 17322 O 1648.92 1.38391 -1.38653 0
M  V30 17323 H 1647.5 -0.346637 -0.661704 0
M  V30 17324 H 1650.16 -1.46752 -1.28257 0
M  V30 17325 H 1649.26 -1.36469 -2.80683 0
M  V30 17326 N 1649.56 1.24734 -0.963288 0
M  V30 17327 C 1650.81 1.92305 -0.621536 0
M  V30 17328 C 1651.13 1.75723 0.845363 0
M  V30 17329 O 1650.4 1.1261 1.60299 0
M  V30 17330 H 1648.98 0.71171 -0.226886 0
M  V30 17331 H 1651.64 1.5172 -1.2234 0
M  V30 17332 H 1650.74 3.00065 -0.858322 0
M  V30 17333 N 1651.04 0.732878 1.39523 0
M  V30 17334 C 1652.28 0.284541 2.0241 0
M  V30 17335 C 1652.64 -1.10672 1.56894 0
M  V30 17336 O 1653.84 -1.65302 2.11964 0
M  V30 17337 C 1652.11 0.380486 3.55369 0
M  V30 17338 S 1653.67 0.0116789 4.38798 0
M  V30 17339 H 1650.49 0.111634 0.702182 0
M  V30 17340 H 1653.09 0.958924 1.70367 0
M  V30 17341 H 1651.8 1.39437 3.85986 0
M  V30 17342 H 1651.33 -0.31179 3.92163 0
M  V30 17343 H 1653.34 -1.20519 4.81341 0
M  V30 17344 N 1652.52 -1.50101 0.480349 0
M  V30 17345 C 1653.75 -2.06486 -0.0687482 0
M  V30 17346 C 1654.15 -1.34334 -1.33233 0
M  V30 17347 O 1653.5 -0.408976 -1.7909 0
M  V30 17348 C 1653.56 -3.57114 -0.413522 0
M  V30 17349 C 1653.22 -4.50814 0.749361 0
M  V30 17350 C 1654.22 -4.93554 1.63404 0
M  V30 17351 C 1651.9 -4.93382 0.942313 0
M  V30 17352 C 1653.9 -5.77577 2.696 0
M  V30 17353 C 1651.59 -5.77186 2.00748 0
M  V30 17354 C 1652.58 -6.19185 2.88268 0
M  V30 17355 O 1652.27 -7.01317 3.92949 0
M  V30 17356 H 1652 -0.675954 0.00792111 0
M  V30 17357 H 1654.56 -1.94135 0.670863 0
M  V30 17358 H 1652.79 -3.67399 -1.20645 0
M  V30 17359 H 1654.48 -3.95824 -0.89879 0
M  V30 17360 H 1655.24 -4.61329 1.4967 0
M  V30 17361 H 1651.12 -4.60206 0.270534 0
M  V30 17362 H 1654.67 -6.10279 3.37942 0
M  V30 17363 H 1650.56 -6.08824 2.14486 0
M  V30 17364 H 1651.33 -7.19585 3.9005 0
M  V30 17365 N 1653.99 -0.213323 -1.5615 0
M  V30 17366 C 1655.24 0.419767 -1.97693 0
M  V30 17367 C 1655.56 1.60878 -1.10197 0
M  V30 17368 O 1654.83 1.95097 -0.177185 0
M  V30 17369 H 1653.41 0.158075 -0.730083 0
M  V30 17370 H 1656.07 -0.304303 -1.9251 0
M  V30 17371 H 1655.17 0.751645 -3.02914 0
M  V30 17372 N 1655.47 1.57485 0.0601405 0
M  V30 17373 C 1656.75 1.78904 0.790732 0
M  V30 17374 C 1657.13 0.803802 1.95198 0
M  V30 17375 O 1656.48 -0.16067 2.27934 0
M  V30 17376 C 1656.69 3.25738 1.25282 0
M  V30 17377 C 1658.04 3.89887 1.68147 0
M  V30 17378 O 1659.06 3.297 1.3482 0
M  V30 17379 O 1657.92 4.95796 2.29889 0
M  V30 17380 H 1655.01 0.734623 0.379814 0
M  V30 17381 H 1657.56 1.69654 0.0393151 0
M  V30 17382 H 1656.33 3.89013 0.422442 0
M  V30 17383 H 1655.95 3.39757 2.06521 0
M  V30 17384 N 1656.95 -0.331789 1.54068 0
M  V30 17385 C 1657.88 -1.41332 1.8587 0
M  V30 17386 C 1658.86 -1.54353 0.714787 0
M  V30 17387 O 1660.05 -1.68368 0.967777 0
M  V30 17388 C 1657.18 -2.78218 2.07875 0
M  V30 17389 C 1656.13 -2.79994 3.23709 0
M  V30 17390 C 1655.46 -4.19878 3.31069 0
M  V30 17391 C 1656.76 -2.44476 4.6155 0
M  V30 17392 H 1658.45 -1.14966 2.76447 0
M  V30 17393 H 1656 -0.551615 1.33016 0
M  V30 17394 H 1657.95 -3.53937 2.28706 0
M  V30 17395 H 1656.67 -3.06044 1.14038 0
M  V30 17396 H 1655.33 -2.0673 3.02751 0
M  V30 17397 H 1654.98 -4.44831 2.34807 0
M  V30 17398 H 1654.68 -4.21974 4.08915 0
M  V30 17399 H 1656.2 -4.97421 3.54125 0
M  V30 17400 H 1657.62 -3.09908 4.82317 0
M  V30 17401 H 1656.02 -2.57837 5.41886 0
M  V30 17402 H 1657.09 -1.3964 4.64358 0
M  V30 17403 N 1658.43 -1.46001 -0.593424 0
M  V30 17404 C 1659.68 -1.50755 -1.352 0
M  V30 17405 C 1660 -0.154929 -1.93882 0
M  V30 17406 O 1659.26 0.848161 -1.76365 0
M  V30 17407 C 1659.56 -2.54568 -2.50858 0
M  V30 17408 C 1659.22 -3.98888 -2.10236 0
M  V30 17409 C 1657.89 -4.38182 -1.98872 0
M  V30 17410 C 1660.24 -4.89591 -1.78746 0
M  V30 17411 C 1657.57 -5.66057 -1.5426 0
M  V30 17412 C 1659.92 -6.17892 -1.35617 0
M  V30 17413 C 1658.58 -6.56103 -1.22822 0
M  V30 17414 H 1657.85 -0.551652 -0.494734 0
M  V30 17415 H 1660.5 -1.79422 -0.669327 0
M  V30 17416 H 1658.8 -2.19523 -3.24526 0
M  V30 17417 H 1660.5 -2.5548 -3.09081 0
M  V30 17418 H 1657.09 -3.67822 -2.20012 0
M  V30 17419 H 1661.27 -4.59959 -1.86416 0
M  V30 17420 H 1656.53 -5.94444 -1.42988 0
M  V30 17421 H 1660.7 -6.87609 -1.10301 0
M  V30 17422 H 1658.33 -7.55086 -0.880285 0
M  V30 17423 N 1659.91 0.83715 -1.33527 0
M  V30 17424 C 1661.15 1.60619 -1.26416 0
M  V30 17425 C 1661.51 1.9127 0.16722 0
M  V30 17426 O 1662.71 2.66347 0.362323 0
M  V30 17427 C 1660.98 2.87988 -2.11655 0
M  V30 17428 S 1662.54 3.78645 -2.21751 0
M  V30 17429 H 1659.36 0.550704 -0.449718 0
M  V30 17430 H 1661.96 0.990005 -1.6858 0
M  V30 17431 H 1660.67 2.63444 -3.14683 0
M  V30 17432 H 1660.2 3.54612 -1.70334 0
M  V30 17433 H 1662.21 4.76629 -1.37984 0
M  V30 17434 N 1661.38 1.17024 1.05561 0
M  V30 17435 C 1662.33 0.88356 2.13218 0
M  V30 17436 C 1663.3 -0.171025 1.65217 0
M  V30 17437 O 1664.49 -0.0346242 1.90769 0
M  V30 17438 C 1661.63 0.398912 3.42787 0
M  V30 17439 C 1660.74 1.51718 4.04482 0
M  V30 17440 C 1659.87 0.986793 5.21954 0
M  V30 17441 C 1658.91 2.08077 5.75648 0
M  V30 17442 N 1658.05 1.56542 6.84426 0
M  V30 17443 H 1662.89 1.80548 2.37079 0
M  V30 17444 H 1660.43 0.90056 1.16311 0
M  V30 17445 H 1662.39 0.0995018 4.17081 0
M  V30 17446 H 1661.02 -0.48605 3.1912 0
M  V30 17447 H 1660.07 1.9324 3.27662 0
M  V30 17448 H 1661.38 2.34243 4.40377 0
M  V30 17449 H 1660.53 0.641006 6.03304 0
M  V30 17450 H 1659.27 0.130942 4.87524 0
M  V30 17451 H 1658.28 2.43517 4.9293 0
M  V30 17452 H 1659.5 2.94071 6.12127 0
M  V30 17453 H 1657.45 0.732221 6.51901 0
M  V30 17454 H 1657.37 2.32677 7.19303 0
M  V30 17455 H 1658.63 1.24844 7.69438 0
M  V30 17456 N 1662.86 -1.24221 0.969889 0
M  V30 17457 C 1663.83 -2.23529 0.506686 0
M  V30 17458 C 1664.83 -1.55797 -0.397968 0
M  V30 17459 O 1666.02 -1.73126 -0.193124 0
M  V30 17460 C 1663.15 -3.39861 -0.265943 0
M  V30 17461 H 1664.34 -2.66022 1.38463 0
M  V30 17462 H 1661.89 -1.36872 0.754698 0
M  V30 17463 H 1662.63 -3.0281 -1.16089 0
M  V30 17464 H 1662.41 -3.90222 0.383286 0
M  V30 17465 H 1663.9 -4.13567 -0.578975 0
M  V30 17466 N 1664.34 -0.740267 -1.39132 0
M  V30 17467 C 1665.27 -0.118951 -2.33197 0
M  V30 17468 C 1666.25 0.718416 -1.54184 0
M  V30 17469 O 1667.44 0.662322 -1.82557 0
M  V30 17470 C 1664.57 0.78512 -3.38309 0
M  V30 17471 C 1663.52 0.0515093 -4.27969 0
M  V30 17472 C 1662.85 1.07295 -5.23824 0
M  V30 17473 C 1664.15 -1.10903 -5.1039 0
M  V30 17474 H 1665.84 -0.904687 -2.85405 0
M  V30 17475 H 1663.39 -0.436493 -1.37225 0
M  V30 17476 H 1665.34 1.22935 -4.03069 0
M  V30 17477 H 1664.06 1.60303 -2.84553 0
M  V30 17478 H 1662.72 -0.373156 -3.64696 0
M  V30 17479 H 1662.37 1.88456 -4.66362 0
M  V30 17480 H 1662.07 0.586827 -5.84662 0
M  V30 17481 H 1663.59 1.51677 -5.91461 0
M  V30 17482 H 1665.01 -0.742993 -5.68465 0
M  V30 17483 H 1663.41 -1.52513 -5.80396 0
M  V30 17484 H 1664.48 -1.92825 -4.44912 0
M  V30 17485 N 1665.82 1.49844 -0.488302 0
M  V30 17486 C 1666.77 2.28883 0.296859 0
M  V30 17487 C 1667.74 1.34703 0.971818 0
M  V30 17488 O 1668.92 1.63653 0.980937 0
M  V30 17489 C 1666.06 3.17049 1.36286 0
M  V30 17490 C 1665.17 4.26275 0.700956 0
M  V30 17491 C 1664.31 5.01674 1.74632 0
M  V30 17492 C 1663.35 6.02753 1.06559 0
M  V30 17493 N 1662.48 6.71366 2.05457 0
M  V30 17494 H 1667.32 2.95523 -0.383417 0
M  V30 17495 H 1664.86 1.45721 -0.200928 0
M  V30 17496 H 1666.82 3.66531 1.99276 0
M  V30 17497 H 1665.45 2.52419 2.01207 0
M  V30 17498 H 1664.5 3.80377 -0.0419236 0
M  V30 17499 H 1665.81 4.98529 0.164469 0
M  V30 17500 H 1664.97 5.54961 2.45159 0
M  V30 17501 H 1663.71 4.29166 2.31664 0
M  V30 17502 H 1662.71 5.4871 0.346029 0
M  V30 17503 H 1663.94 6.77243 0.501932 0
M  V30 17504 H 1661.88 6.01637 2.61475 0
M  V30 17505 H 1661.8 7.39552 1.56841 0
M  V30 17506 H 1663.07 7.29262 2.75312 0
M  V30 17507 N 1667.3 0.221601 1.56034 0
M  V30 17508 C 1668.52 -0.414945 2.02696 0
M  V30 17509 C 1668.94 -1.53344 1.10141 0
M  V30 17510 O 1668.3 -1.82162 0.111026 0
M  V30 17511 C 1668.35 -0.946532 3.48888 0
M  V30 17512 O 1668.07 0.12737 4.37915 0
M  V30 17513 C 1669.57 -1.65631 4.11195 0
M  V30 17514 H 1666.79 -0.101548 0.663271 0
M  V30 17515 H 1669.33 0.338069 2.01686 0
M  V30 17516 H 1667.49 -1.64982 3.50514 0
M  V30 17517 H 1667.9 -0.272211 5.23793 0
M  V30 17518 H 1669.38 -1.98027 5.15257 0
M  V30 17519 H 1669.85 -2.56947 3.56195 0
M  V30 17520 H 1670.46 -0.998231 4.13419 0
M  V30 17521 N 1668.77 -1.57515 -0.0517878 0
M  V30 17522 C 1670 -1.92177 -0.758384 0
M  V30 17523 C 1670.41 -0.817721 -1.70616 0
M  V30 17524 O 1669.76 0.216391 -1.82421 0
M  V30 17525 C 1669.82 -3.22471 -1.58912 0
M  V30 17526 C 1669.48 -4.4979 -0.808569 0
M  V30 17527 C 1670.48 -5.19764 -0.118871 0
M  V30 17528 C 1668.16 -4.96366 -0.769824 0
M  V30 17529 C 1670.16 -6.34578 0.599123 0
M  V30 17530 C 1667.84 -6.11081 -0.0480698 0
M  V30 17531 C 1668.84 -6.8004 0.635185 0
M  V30 17532 O 1668.53 -7.92564 1.34527 0
M  V30 17533 H 1668.26 -0.639335 -0.219607 0
M  V30 17534 H 1670.82 -2.0539 -0.0202648 0
M  V30 17535 H 1669.05 -3.05522 -2.37051 0
M  V30 17536 H 1670.74 -3.4263 -2.17622 0
M  V30 17537 H 1671.5 -4.84798 -0.139982 0
M  V30 17538 H 1667.38 -4.42551 -1.29112 0
M  V30 17539 H 1670.92 -6.88338 1.13298 0
M  V30 17540 H 1666.82 -6.45495 -0.0249563 0
M  V30 17541 H 1667.59 -8.08797 1.2566 0
M  V30 17542 N 1670.25 0.323614 -1.54242 0
M  V30 17543 C 1671.2 1.4184 -1.84348 0
M  V30 17544 C 1672.2 1.53553 -0.715384 0
M  V30 17545 O 1673.4 1.5594 -0.899045 0
M  V30 17546 H 1669.78 0.473326 -0.584352 0
M  V30 17547 H 1671.75 1.13672 -2.75901 0
M  V30 17548 C 1670.5 2.78059 -2.08755 0
M  V30 17549 H 1669.82 2.69819 -2.95021 0
M  V30 17550 H 1671.26 3.53731 -2.33774 0
M  V30 17551 C 1669.72 3.25229 -0.879076 0
M  V30 17552 O 1670.25 4.01603 -0.0883125 0
M  V30 17553 N 1668.45 2.82272 -0.690726 0
M  V30 17554 H 1668 2.20283 -1.33542 0
M  V30 17555 H 1667.96 3.14185 0.116344 0
M  V30 17556 N 1671.73 1.46313 0.585673 0
M  V30 17557 C 1672.66 1.51164 1.70952 0
M  V30 17558 C 1673.64 0.366008 1.58427 0
M  V30 17559 O 1674.83 0.569724 1.79684 0
M  V30 17560 C 1671.95 1.3874 3.0898 0
M  V30 17561 C 1671 2.57447 3.40034 0
M  V30 17562 S 1671.83 4.19818 3.32435 0
M  V30 17563 C 1672.99 4.09898 4.73005 0
M  V30 17564 H 1673.22 2.4625 1.66579 0
M  V30 17565 H 1670.75 1.34163 0.764171 0
M  V30 17566 H 1672.71 1.32259 3.8861 0
M  V30 17567 H 1671.37 0.450875 3.10847 0
M  V30 17568 H 1670.57 2.44739 4.40589 0
M  V30 17569 H 1670.17 2.60903 2.67966 0
M  V30 17570 H 1672.46 3.76396 5.63323 0
M  V30 17571 H 1673.4 5.10441 4.9077 0
M  V30 17572 H 1673.81 3.41197 4.49716 0
M  V30 17573 N 1673.21 -0.830057 1.33969 0
M  V30 17574 C 1674.14 -1.95557 1.27592 0
M  V30 17575 C 1675.12 -1.69395 0.154745 0
M  V30 17576 O 1676.31 -1.91094 0.345954 0
M  V30 17577 C 1673.44 -3.31881 1.02335 0
M  V30 17578 C 1672.39 -3.72464 2.10842 0
M  V30 17579 C 1671.72 -5.06692 1.70785 0
M  V30 17580 C 1673.02 -3.85315 3.52604 0
M  V30 17581 H 1674.71 -2.0115 2.21763 0
M  V30 17582 H 1672.26 -0.96639 1.06756 0
M  V30 17583 H 1674.21 -4.10197 0.965206 0
M  V30 17584 H 1672.93 -3.26568 0.0460462 0
M  V30 17585 H 1671.59 -2.96417 2.15714 0
M  V30 17586 H 1671.24 -4.97859 0.717334 0
M  V30 17587 H 1670.94 -5.34817 2.43403 0
M  V30 17588 H 1672.46 -5.87474 1.66452 0
M  V30 17589 H 1673.88 -4.5392 3.50185 0
M  V30 17590 H 1672.27 -4.24886 4.23783 0
M  V30 17591 H 1673.34 -2.87514 3.90466 0
M  V30 17592 N 1674.69 -1.17582 -1.04939 0
M  V30 17593 C 1675.93 -0.976635 -1.79558 0
M  V30 17594 C 1676.29 0.48588 -1.8575 0
M  V30 17595 O 1677.49 0.804225 -2.56487 0
M  V30 17596 C 1675.76 -1.60316 -3.19427 0
M  V30 17597 S 1677.32 -1.55052 -4.10493 0
M  V30 17598 H 1674.14 -0.350907 -0.618373 0
M  V30 17599 H 1676.74 -1.49572 -1.25891 0
M  V30 17600 H 1675.45 -2.66002 -3.12524 0
M  V30 17601 H 1674.98 -1.08399 -3.78171 0
M  V30 17602 H 1676.99 -0.56028 -4.93027 0
M  V30 17603 N 1676.17 1.23705 -0.976463 0
M  V30 17604 C 1677.41 1.92015 -0.643168 0
M  V30 17605 C 1677.74 1.76239 0.822796 0
M  V30 17606 O 1677 1.11469 1.60851 0
M  V30 17607 C 1677.29 3.43853 -0.974676 0
M  V30 17608 C 1676.96 3.79805 -2.43021 0
M  V30 17609 C 1675.62 3.89329 -2.82801 0
M  V30 17610 C 1677.97 3.97218 -3.37442 0
M  V30 17611 C 1675.3 4.13691 -4.16025 0
M  V30 17612 C 1677.65 4.23079 -4.70305 0
M  V30 17613 C 1676.32 4.30824 -5.0985 0
M  V30 17614 H 1675.59 0.702631 -0.235352 0
M  V30 17615 H 1678.24 1.46811 -1.22959 0
M  V30 17616 H 1676.54 3.90602 -0.306121 0
M  V30 17617 H 1678.24 3.9493 -0.695061 0
M  V30 17618 H 1674.83 3.72963 -2.11179 0
M  V30 17619 H 1679.01 3.89254 -3.07889 0
M  V30 17620 H 1674.27 4.17909 -4.46276 0
M  V30 17621 H 1678.44 4.35496 -5.4343 0
M  V30 17622 H 1676.07 4.49454 -6.13103 0
M  V30 17623 N 1677.64 0.747635 1.38738 0
M  V30 17624 C 1678.89 0.300552 1.99853 0
M  V30 17625 C 1679.21 -1.11986 1.59638 0
M  V30 17626 O 1678.48 -1.76477 0.850447 0
M  V30 17627 H 1677.06 0.108134 0.739132 0
M  V30 17628 H 1679.72 0.960405 1.69594 0
M  V30 17629 H 1678.82 0.358956 3.10029 0
M  V30 17630 N 1679.12 -1.49583 0.496242 0
M  V30 17631 C 1680.37 -2.01634 -0.051782 0
M  V30 17632 C 1680.68 -1.38133 -1.38487 0
M  V30 17633 O 1681.89 -1.81484 -2.0193 0
M  V30 17634 C 1680.35 -3.59617 -0.142755 0
M  V30 17635 C 1679.95 -4.32088 1.1834 0
M  V30 17636 C 1681.7 -4.19626 -0.641397 0
M  V30 17637 C 1679.6 -5.81917 1.05485 0
M  V30 17638 H 1678.53 -0.753645 -0.0231258 0
M  V30 17639 H 1681.19 -1.72165 0.634944 0
M  V30 17640 H 1679.57 -3.85781 -0.893826 0
M  V30 17641 H 1680.74 -4.17628 1.94739 0
M  V30 17642 H 1679.06 -3.83801 1.61511 0
M  V30 17643 H 1681.65 -5.29343 -0.755008 0
M  V30 17644 H 1682 -3.82676 -1.63906 0
M  V30 17645 H 1682.53 -3.97765 0.053003 0
M  V30 17646 H 1679.27 -6.23384 2.02664 0
M  V30 17647 H 1678.79 -5.98882 0.331667 0
M  V30 17648 H 1680.47 -6.4285 0.731641 0
M  V30 17649 N 1680.6 -0.229873 -1.55915 0
M  V30 17650 C 1681.83 0.403603 -2.02619 0
M  V30 17651 C 1682.24 1.53304 -1.10881 0
M  V30 17652 O 1681.58 1.83356 -0.112312 0
M  V30 17653 C 1681.64 0.988727 -3.45636 0
M  V30 17654 C 1681.31 -0.00630999 -4.57 0
M  V30 17655 C 1682.3 -0.809714 -5.13556 0
M  V30 17656 C 1679.99 -0.127474 -5.02138 0
M  V30 17657 C 1681.98 -1.7209 -6.13729 0
M  V30 17658 C 1679.67 -1.04219 -6.02148 0
M  V30 17659 C 1680.67 -1.83744 -6.5782 0
M  V30 17660 O 1680.36 -2.73677 -7.55881 0
M  V30 17661 H 1680.09 0.102102 -0.668245 0
M  V30 17662 H 1682.64 -0.346247 -2.02461 0
M  V30 17663 H 1680.87 1.78782 -3.4289 0
M  V30 17664 H 1682.56 1.53048 -3.7594 0
M  V30 17665 H 1683.33 -0.726601 -4.79526 0
M  V30 17666 H 1679.21 0.481415 -4.58479 0
M  V30 17667 H 1682.75 -2.34206 -6.5711 0
M  V30 17668 H 1678.65 -1.12629 -6.35598 0
M  V30 17669 H 1679.41 -2.67846 -7.73435 0
M  V30 17670 N 1682.08 1.5754 0.0434337 0
M  V30 17671 C 1683.49 1.54537 0.398819 0
M  V30 17672 C 1683.69 0.954055 1.77483 0
M  V30 17673 O 1682.75 0.568839 2.46009 0
M  V30 17674 C 1684.06 2.99058 0.313848 0
M  V30 17675 C 1685.61 3.10536 0.39198 0
M  V30 17676 C 1686.09 4.56761 0.336614 0
M  V30 17677 N 1687.58 4.61505 0.395844 0
M  V30 17678 C 1688.31 5.72168 0.375669 0
M  V30 17679 N 1687.81 6.92112 0.30863 0
M  V30 17680 N 1689.6 5.60496 0.424335 0
M  V30 17681 H 1681.75 1.94333 -0.857225 0
M  V30 17682 H 1684.01 0.890708 -0.324566 0
M  V30 17683 H 1683.72 3.4599 -0.631159 0
M  V30 17684 H 1683.59 3.60402 1.11313 0
M  V30 17685 H 1685.98 2.6356 1.32742 0
M  V30 17686 H 1686.06 2.5205 -0.436391 0
M  V30 17687 H 1685.71 5.04402 -0.595093 0
M  V30 17688 H 1685.64 5.13142 1.1829 0
M  V30 17689 H 1688.13 3.75202 0.450753 0
M  V30 17690 H 1688.44 7.72225 0.29794 0
M  V30 17691 H 1686.79 6.94456 0.274891 0
M  V30 17692 H 1689.98 4.65688 0.474599 0
M  V30 17693 H 1690.15 6.46732 0.405143 0
M  V30 17694 N 1683.56 -0.31543 1.54411 0
M  V30 17695 C 1684.49 -1.39353 1.87358 0
M  V30 17696 C 1685.47 -1.53586 0.731118 0
M  V30 17697 O 1686.65 -1.67332 0.98558 0
M  V30 17698 C 1683.78 -2.75998 2.10814 0
M  V30 17699 C 1682.74 -2.76545 3.2666 0
M  V30 17700 C 1682.06 -4.16343 3.35504 0
M  V30 17701 C 1683.36 -2.39567 4.64117 0
M  V30 17702 H 1685.06 -1.12028 2.77651 0
M  V30 17703 H 1682.6 -0.537476 1.33593 0
M  V30 17704 H 1684.55 -3.51491 2.32447 0
M  V30 17705 H 1683.28 -3.04817 1.17278 0
M  V30 17706 H 1681.94 -2.03507 3.04927 0
M  V30 17707 H 1681.59 -4.42316 2.39512 0
M  V30 17708 H 1681.29 -4.17613 4.13368 0
M  V30 17709 H 1682.81 -4.93637 3.59381 0
M  V30 17710 H 1684.22 -3.04775 4.85577 0
M  V30 17711 H 1682.62 -2.52075 5.4459 0
M  V30 17712 H 1683.69 -1.34707 4.65813 0
M  V30 17713 N 1685.03 -1.46622 -0.577906 0
M  V30 17714 C 1686.45 -1.31683 -0.901762 0
M  V30 17715 C 1686.65 -0.291842 -1.99375 0
M  V30 17716 O 1685.71 0.303913 -2.50664 0
M  V30 17717 C 1687.02 -2.70443 -1.31457 0
M  V30 17718 C 1688.57 -2.7857 -1.42715 0
M  V30 17719 C 1689.04 -4.17923 -1.87361 0
M  V30 17720 N 1690.53 -4.20364 -1.94546 0
M  V30 17721 C 1691.27 -5.25085 -2.30376 0
M  V30 17722 N 1690.76 -6.4013 -2.64964 0
M  V30 17723 N 1692.56 -5.12453 -2.30972 0
M  V30 17724 H 1684.71 -2.11916 0.143367 0
M  V30 17725 H 1686.97 -0.947999 0.00146914 0
M  V30 17726 H 1686.68 -3.46781 -0.586174 0
M  V30 17727 H 1686.55 -3.00864 -2.2751 0
M  V30 17728 H 1688.94 -2.02518 -2.14641 0
M  V30 17729 H 1689.02 -2.51828 -0.449021 0
M  V30 17730 H 1688.66 -4.94473 -1.16012 0
M  V30 17731 H 1688.59 -4.42076 -2.8614 0
M  V30 17732 H 1691.08 -3.37359 -1.70286 0
M  V30 17733 H 1691.4 -7.15808 -2.91271 0
M  V30 17734 H 1689.74 -6.43483 -2.62591 0
M  V30 17735 H 1692.93 -4.21611 -2.03376 0
M  V30 17736 H 1693.11 -5.94178 -2.58566 0
M  V30 17737 N 1686.51 0.822941 -1.34408 0
M  V30 17738 C 1687.79 1.56492 -1.17345 0
M  V30 17739 C 1688.17 2.09567 0.253965 0
M  V30 17740 O 1687.52 1.90931 1.25529 0
M  V30 17741 C 1687.73 2.6863 -2.22797 0
M  V30 17742 C 1689.08 3.37399 -2.57773 0
M  V30 17743 O 1690.1 2.78887 -2.21587 0
M  V30 17744 O 1688.96 4.43063 -3.19934 0
M  V30 17745 H 1686.05 0.690664 -0.454876 0
M  V30 17746 H 1688.6 0.864315 -1.4604 0
M  V30 17747 H 1687.37 2.27166 -3.18608 0
M  V30 17748 H 1686.99 3.46341 -1.95279 0
M  V30 17749 N 1687.99 1.18137 1.04314 0
M  V30 17750 C 1688.95 0.908268 2.10436 0
M  V30 17751 C 1689.95 -0.105315 1.60455 0
M  V30 17752 O 1691.14 0.12785 1.7373 0
M  V30 17753 C 1688.28 0.362233 3.3897 0
M  V30 17754 H 1689.47 1.84928 2.36096 0
M  V30 17755 H 1687.02 0.993048 1.20699 0
M  V30 17756 H 1687.76 -0.58551 3.18971 0
M  V30 17757 H 1687.54 1.09285 3.76562 0
M  V30 17758 H 1689.03 0.18977 4.17169 0
M  V30 17759 N 1689.47 -1.23186 0.98301 0
M  V30 17760 C 1690.42 -2.22529 0.496484 0
M  V30 17761 C 1691.4 -1.5505 -0.429923 0
M  V30 17762 O 1692.59 -1.75104 -0.258352 0
M  V30 17763 C 1689.72 -3.42733 -0.197237 0
M  V30 17764 C 1688.81 -4.17435 0.748894 0
M  V30 17765 N 1689.2 -4.69056 1.89261 0
M  V30 17766 C 1687.5 -4.42435 0.562753 0
M  V30 17767 C 1688.2 -5.25918 2.48566 0
M  V30 17768 N 1687.18 -5.14001 1.76929 0
M  V30 17769 H 1690.98 -2.60072 1.36893 0
M  V30 17770 H 1688.49 -1.38745 0.844014 0
M  V30 17771 H 1690.49 -4.1308 -0.56311 0
M  V30 17772 H 1689.15 -3.06705 -1.06593 0
M  V30 17773 H 1690.16 -4.6532 2.27372 0
M  V30 17774 H 1686.84 -4.16685 -0.260705 0
M  V30 17775 H 1688.23 -5.76462 3.45168 0
M  V30 17776 N 1690.95 -0.754982 -1.38339 0
M  V30 17777 C 1691.88 -0.143678 -2.33058 0
M  V30 17778 C 1692.86 0.702022 -1.54938 0
M  V30 17779 O 1694.04 0.642922 -1.83249 0
M  V30 17780 C 1691.17 0.749194 -3.39123 0
M  V30 17781 C 1690.13 0.00611459 -4.28 0
M  V30 17782 C 1689.45 1.01733 -5.24933 0
M  V30 17783 C 1690.75 -1.1631 -5.09185 0
M  V30 17784 H 1692.45 -0.934907 -2.84429 0
M  V30 17785 H 1689.99 -0.451023 -1.36754 0
M  V30 17786 H 1691.95 1.18653 -4.04351 0
M  V30 17787 H 1690.67 1.57276 -2.86237 0
M  V30 17788 H 1689.33 -0.411816 -3.6428 0
M  V30 17789 H 1688.98 1.83499 -4.68334 0
M  V30 17790 H 1688.68 0.524783 -5.85252 0
M  V30 17791 H 1690.2 1.45395 -5.93037 0
M  V30 17792 H 1691.61 -0.803244 -5.67645 0
M  V30 17793 H 1690.01 -1.5866 -5.78746 0
M  V30 17794 H 1691.08 -1.97533 -4.42842 0
M  V30 17795 N 1692.42 1.49318 -0.504168 0
M  V30 17796 C 1693.65 2.07365 0.038102 0
M  V30 17797 C 1694.07 1.36164 1.29773 0
M  V30 17798 O 1693.43 0.419365 1.76383 0
M  V30 17799 C 1693.48 3.59576 0.271535 0
M  V30 17800 O 1692.58 3.8983 1.34561 0
M  V30 17801 H 1691.93 0.663425 -0.0276328 0
M  V30 17802 H 1694.46 1.92081 -0.704696 0
M  V30 17803 H 1694.47 4.04899 0.502083 0
M  V30 17804 H 1693.14 4.10809 -0.648754 0
M  V30 17805 H 1691.72 3.56314 1.09976 0
M  V30 17806 N 1693.9 0.238138 1.5579 0
M  V30 17807 C 1695.13 -0.393422 2.03125 0
M  V30 17808 C 1695.55 -1.52168 1.11761 0
M  V30 17809 O 1694.9 -1.82034 0.130341 0
M  V30 17810 C 1694.95 -0.909474 3.49873 0
M  V30 17811 O 1694.67 0.17381 4.37755 0
M  V30 17812 C 1696.18 -1.61261 4.12928 0
M  V30 17813 H 1693.4 -0.0945077 0.664311 0
M  V30 17814 H 1695.94 0.359442 2.01316 0
M  V30 17815 H 1694.09 -1.61255 3.52244 0
M  V30 17816 H 1694.51 -0.216641 5.24052 0
M  V30 17817 H 1695.98 -1.92551 5.17328 0
M  V30 17818 H 1696.46 -2.53155 3.589 0
M  V30 17819 H 1697.07 -0.954326 4.14455 0
M  V30 17820 N 1695.38 -1.57561 -0.0350783 0
M  V30 17821 C 1696.79 -1.77383 -0.582437 0
M  V30 17822 C 1697.14 -0.868453 -1.75933 0
M  V30 17823 O 1696.27 -0.061745 -2.16312 0
M  V30 17824 C 1696.86 -3.2168 -1.06337 0
M  V30 17825 C 1695.42 -3.42719 -1.55629 0
M  V30 17826 C 1694.57 -2.72906 -0.4917 0
M  V30 17827 H 1697.52 -1.57545 0.19115 0
M  V30 17828 H 1697.54 -3.27863 -1.93097 0
M  V30 17829 H 1697.05 -3.8755 -0.206603 0
M  V30 17830 H 1695.15 -2.82016 -2.43511 0
M  V30 17831 H 1695.27 -4.51312 -1.60794 0
M  V30 17832 H 1693.63 -2.36506 -0.945349 0
M  V30 17833 H 1694.41 -3.41454 0.355502 0
M  V30 17834 N 1696.86 0.307236 -1.54576 0
M  V30 17835 C 1698.08 1.06668 -1.77867 0
M  V30 17836 C 1698.51 1.80375 -0.533536 0
M  V30 17837 O 1697.87 1.73812 0.515663 0
M  V30 17838 C 1697.91 2.02777 -2.98184 0
M  V30 17839 O 1697.02 3.10969 -2.70872 0
M  V30 17840 H 1696.36 0.306741 -0.588902 0
M  V30 17841 H 1698.89 0.346557 -2.01644 0
M  V30 17842 H 1698.9 2.45355 -3.25983 0
M  V30 17843 H 1697.57 1.48534 -3.88472 0
M  V30 17844 H 1696.15 2.7295 -2.54072 0
M  V30 17845 N 1698.34 1.46926 0.570122 0
M  V30 17846 C 1699.27 1.54487 1.69311 0
M  V30 17847 C 1700.28 0.432119 1.5696 0
M  V30 17848 O 1701.47 0.701107 1.64155 0
M  V30 17849 C 1698.57 1.42093 3.07673 0
M  V30 17850 C 1697.74 2.6771 3.45905 0
M  V30 17851 C 1696.8 2.49336 4.63377 0
M  V30 17852 O 1695.83 3.23107 4.68605 0
M  V30 17853 N 1697.03 1.56319 5.59057 0
M  V30 17854 H 1699.8 2.51319 1.63276 0
M  V30 17855 H 1697.36 1.43142 0.756434 0
M  V30 17856 H 1699.35 1.27554 3.84073 0
M  V30 17857 H 1697.92 0.533945 3.08006 0
M  V30 17858 H 1697.14 2.97102 2.59083 0
M  V30 17859 H 1698.43 3.51131 3.68218 0
M  V30 17860 H 1697.82 0.955109 5.57579 0
M  V30 17861 H 1696.38 1.47738 6.34836 0
M  V30 17862 N 1699.82 -0.815801 1.34842 0
M  V30 17863 C 1701.06 -1.58588 1.28955 0
M  V30 17864 C 1701.42 -1.91512 -0.136769 0
M  V30 17865 O 1702.62 -2.6689 -0.319903 0
M  V30 17866 C 1700.89 -2.84584 2.1621 0
M  V30 17867 S 1702.45 -3.75069 2.27747 0
M  V30 17868 H 1699.27 -0.543479 0.458422 0
M  V30 17869 H 1701.87 -0.96306 1.70133 0
M  V30 17870 H 1700.57 -2.58405 3.18834 0
M  V30 17871 H 1700.11 -3.51857 1.75954 0
M  V30 17872 H 1702.12 -4.74373 1.45549 0
M  V30 17873 N 1701.29 -1.18689 -1.03686 0
M  V30 17874 C 1702.52 -1.00961 -1.80595 0
M  V30 17875 C 1702.94 0.44188 -1.83556 0
M  V30 17876 O 1702.29 1.30693 -1.27379 0
M  V30 17877 C 1702.34 -1.56185 -3.26019 0
M  V30 17878 O 1702.07 -2.95652 -3.23298 0
M  V30 17879 C 1703.57 -1.43129 -4.19558 0
M  V30 17880 H 1700.79 -0.356291 -0.568593 0
M  V30 17881 H 1703.33 -1.57324 -1.3065 0
M  V30 17882 H 1701.49 -1.03989 -3.73182 0
M  V30 17883 H 1701.9 -3.21481 -4.14427 0
M  V30 17884 H 1703.37 -1.86561 -5.19518 0
M  V30 17885 H 1703.85 -0.380581 -4.37548 0
M  V30 17886 H 1704.46 -1.94416 -3.78262 0
M  V30 17887 N 1702.77 1.22662 -0.989529 0
M  V30 17888 C 1703.72 2.24466 -0.536994 0
M  V30 17889 C 1704.69 1.60467 0.428907 0
M  V30 17890 O 1705.87 1.87846 0.334418 0
M  V30 17891 C 1703.01 3.44793 0.145526 0
M  V30 17892 C 1702.13 4.23318 -0.861716 0
M  V30 17893 C 1701.26 5.30979 -0.153062 0
M  V30 17894 C 1700.3 6.01221 -1.1489 0
M  V30 17895 N 1699.44 7.00533 -0.468782 0
M  V30 17896 H 1704.28 2.62539 -1.40987 0
M  V30 17897 H 1701.81 1.29035 -0.706291 0
M  V30 17898 H 1703.77 4.1345 0.558128 0
M  V30 17899 H 1702.4 3.07494 0.982213 0
M  V30 17900 H 1701.45 3.5399 -1.39266 0
M  V30 17901 H 1702.77 4.71753 -1.62019 0
M  V30 17902 H 1701.92 6.05874 0.316443 0
M  V30 17903 H 1700.66 4.8351 0.63794 0
M  V30 17904 H 1699.66 5.25111 -1.62907 0
M  V30 17905 H 1700.89 6.50779 -1.94072 0
M  V30 17906 H 1698.84 6.55301 0.302844 0
M  V30 17907 H 1698.75 7.46958 -1.16576 0
M  V30 17908 H 1700.02 7.79497 -0.0219686 0
M  V30 17909 N 1704.25 0.762308 1.37937 0
M  V30 17910 C 1705.67 0.440871 1.5339 0
M  V30 17911 C 1705.87 -1.04483 1.72295 0
M  V30 17912 O 1704.92 -1.83078 1.73892 0
M  V30 17913 C 1706.23 1.24772 2.73592 0
M  V30 17914 C 1707.78 1.23867 2.87447 0
M  V30 17915 C 1708.26 2.02866 4.10621 0
M  V30 17916 N 1709.75 2.00171 4.17715 0
M  V30 17917 C 1710.48 2.58086 5.12034 0
M  V30 17918 N 1709.98 3.2475 6.11972 0
M  V30 17919 N 1711.77 2.47968 5.04449 0
M  V30 17920 H 1703.92 1.72506 1.23916 0
M  V30 17921 H 1706.19 0.731791 0.602649 0
M  V30 17922 H 1705.89 2.30016 2.66056 0
M  V30 17923 H 1705.77 0.870485 3.67018 0
M  V30 17924 H 1708.15 0.194255 2.9446 0
M  V30 17925 H 1708.23 1.65548 1.95007 0
M  V30 17926 H 1707.88 3.07323 4.04369 0
M  V30 17927 H 1707.81 1.58574 5.02157 0
M  V30 17928 H 1710.3 1.5163 3.46146 0
M  V30 17929 H 1710.61 3.66339 6.80453 0
M  V30 17930 H 1708.96 3.28846 6.12279 0
M  V30 17931 H 1712.15 1.95509 4.25316 0
M  V30 17932 H 1712.32 2.93398 5.77773 0
M  V30 17933 N 1705.73 -1.49049 0.51208 0
M  V30 17934 C 1706.96 -2.06585 -0.024934 0
M  V30 17935 C 1707.37 -1.3713 -1.30353 0
M  V30 17936 O 1706.71 -0.446872 -1.78182 0
M  V30 17937 C 1706.77 -3.57911 -0.33768 0
M  V30 17938 C 1706.43 -4.49123 0.844817 0
M  V30 17939 C 1707.43 -4.89977 1.73836 0
M  V30 17940 C 1705.12 -4.91272 1.04675 0
M  V30 17941 C 1707.11 -5.71728 2.8179 0
M  V30 17942 C 1704.8 -5.72798 2.12946 0
M  V30 17943 C 1705.8 -6.12932 3.01337 0
M  V30 17944 O 1705.48 -6.92825 4.07737 0
M  V30 17945 H 1705.22 -0.675633 0.0222573 0
M  V30 17946 H 1707.77 -1.92669 0.711891 0
M  V30 17947 H 1706 -3.69875 -1.12825 0
M  V30 17948 H 1707.69 -3.97641 -0.814628 0
M  V30 17949 H 1708.45 -4.5805 1.59421 0
M  V30 17950 H 1704.33 -4.59528 0.368089 0
M  V30 17951 H 1707.88 -6.02974 3.50811 0
M  V30 17952 H 1703.77 -6.04137 2.27351 0
M  V30 17953 H 1704.54 -7.1115 4.05226 0
M  V30 17954 N 1707.21 -0.246397 -1.55662 0
M  V30 17955 C 1708.45 0.379047 -1.99226 0
M  V30 17956 C 1708.78 1.57627 -1.13434 0
M  V30 17957 O 1708.06 1.93493 -0.197627 0
M  V30 17958 C 1708.34 0.789403 -3.51341 0
M  V30 17959 C 1708.2 -0.413176 -4.47898 0
M  V30 17960 C 1709.51 1.63656 -4.0854 0
M  V30 17961 H 1706.63 0.136302 -0.724286 0
M  V30 17962 H 1709.28 -0.347607 -1.86793 0
M  V30 17963 H 1707.43 1.40854 -3.62067 0
M  V30 17964 H 1709.1 -1.0516 -4.49154 0
M  V30 17965 H 1707.34 -1.05636 -4.20741 0
M  V30 17966 H 1708.01 -0.0827267 -5.51938 0
M  V30 17967 H 1710.49 1.11393 -4.00912 0
M  V30 17968 H 1709.36 1.89254 -5.15242 0
M  V30 17969 H 1709.62 2.60823 -3.56965 0
M  V30 17970 N 1708.68 1.57577 0.026722 0
M  V30 17971 C 1709.93 1.8856 0.716115 0
M  V30 17972 C 1710.25 0.845223 1.76395 0
M  V30 17973 O 1711.45 1.04435 2.5061 0
M  V30 17974 C 1709.91 3.34631 1.32476 0
M  V30 17975 C 1709.52 4.46904 0.313149 0
M  V30 17976 C 1711.26 3.74759 1.9939 0
M  V30 17977 C 1709.17 5.84038 0.930274 0
M  V30 17978 H 1708.1 0.703531 0.271221 0
M  V30 17979 H 1710.75 1.83476 -0.0294388 0
M  V30 17980 H 1709.13 3.34466 2.1201 0
M  V30 17981 H 1710.3 4.58542 -0.455647 0
M  V30 17982 H 1708.62 4.15624 -0.254028 0
M  V30 17983 H 1711.22 4.74534 2.46418 0
M  V30 17984 H 1711.56 3.06875 2.81307 0
M  V30 17985 H 1712.09 3.77108 1.26628 0
M  V30 17986 H 1708.83 6.55327 0.150466 0
M  V30 17987 H 1708.35 5.76116 1.66886 0
M  V30 17988 H 1710.03 6.30842 1.43692 0
M  V30 17989 N 1710.16 -0.299034 1.54737 0
M  V30 17990 C 1711.39 -1.0529 1.78105 0
M  V30 17991 C 1711.8 -1.80868 0.541499 0
M  V30 17992 O 1711.16 -1.75834 -0.488726 0
M  V30 17993 C 1711.21 -2.03192 2.9899 0
M  V30 17994 O 1710.93 -1.30681 4.18156 0
M  V30 17995 C 1712.43 -2.90602 3.34762 0
M  V30 17996 H 1709.65 -0.312173 0.593961 0
M  V30 17997 H 1712.2 -0.337712 2.01692 0
M  V30 17998 H 1710.35 -2.70211 2.77606 0
M  V30 17999 H 1710.77 -1.96446 4.86322 0
M  V30 18000 H 1712.24 -3.55144 4.22584 0
M  V30 18001 H 1712.72 -3.59006 2.53004 0
M  V30 18002 H 1713.32 -2.29112 3.58313 0
M  V30 18003 N 1711.64 -1.47227 -0.562322 0
M  V30 18004 C 1712.59 -1.59729 -1.69084 0
M  V30 18005 C 1713.58 -0.464812 -1.62898 0
M  V30 18006 O 1714.79 -0.642429 -1.68145 0
M  V30 18007 H 1711.16 -0.502579 -0.559391 0
M  V30 18008 H 1713.13 -2.54573 -1.55676 0
M  V30 18009 C 1711.88 -1.62394 -3.07447 0
M  V30 18010 H 1711.21 -2.48882 -3.12887 0
M  V30 18011 H 1712.65 -1.75192 -3.86114 0
M  V30 18012 C 1711.1 -0.356287 -3.35011 0
M  V30 18013 O 1711.63 0.544818 -3.97988 0
M  V30 18014 N 1709.84 -0.237888 -2.89625 0
M  V30 18015 H 1709.39 -0.9721 -2.38554 0
M  V30 18016 H 1709.35 0.609348 -3.08438 0
M  V30 18017 N 1713.12 0.808639 -1.35273 0
M  V30 18018 C 1714.53 1.38248 -1.25477 0
M  V30 18019 C 1714.88 1.9587 0.113715 0
M  V30 18020 O 1714 1.91141 1.0146 0
M  V30 18021 C 1714.6 2.5133 -2.27197 0
M  V30 18022 C 1713.16 3.04582 -2.21148 0
M  V30 18023 C 1712.31 1.77534 -2.13019 0
M  V30 18024 H 1715.26 0.611844 -1.46431 0
M  V30 18025 H 1715.28 3.29825 -1.89726 0
M  V30 18026 H 1714.79 2.09362 -3.26786 0
M  V30 18027 H 1712.89 3.5102 -1.24963 0
M  V30 18028 H 1713 3.62703 -3.13023 0
M  V30 18029 H 1711.37 1.99004 -1.58964 0
M  V30 18030 H 1712.15 1.3772 -3.14465 0
M  V30 18031 N 1714.6 1.19237 1.03055 0
M  V30 18032 C 1716.01 0.996569 1.57878 0
M  V30 18033 C 1716.36 -0.450987 1.90946 0
M  V30 18034 O 1715.48 -1.33009 1.70697 0
M  V30 18035 C 1716.08 1.80272 2.86858 0
M  V30 18036 C 1714.64 1.65097 3.3826 0
M  V30 18037 C 1713.78 1.79079 2.11721 0
M  V30 18038 H 1716.74 1.33633 0.856037 0
M  V30 18039 H 1716.76 1.29781 3.57683 0
M  V30 18040 H 1716.27 2.85621 2.62759 0
M  V30 18041 H 1714.37 0.623267 3.6735 0
M  V30 18042 H 1714.48 2.45527 4.11404 0
M  V30 18043 H 1712.85 1.22124 2.23512 0
M  V30 18044 H 1713.63 2.85885 1.90065 0
M  V30 18045 N 1716.07 -1.22136 0.99602 0
M  V30 18046 C 1717.3 -1.94696 0.691168 0
M  V30 18047 C 1717.71 -1.73754 -0.748749 0
M  V30 18048 O 1717.06 -1.03561 -1.51726 0
M  V30 18049 C 1717.12 -3.47498 0.921152 0
M  V30 18050 C 1716.78 -3.92179 2.34616 0
M  V30 18051 C 1717.78 -3.99603 3.32585 0
M  V30 18052 C 1715.46 -4.24741 2.68142 0
M  V30 18053 C 1717.46 -4.38968 4.62153 0
M  V30 18054 C 1715.14 -4.63785 3.97928 0
M  V30 18055 C 1716.14 -4.70867 4.94745 0
M  V30 18056 O 1715.83 -5.09026 6.22212 0
M  V30 18057 H 1715.56 -0.626231 0.25458 0
M  V30 18058 H 1718.12 -1.56152 1.33438 0
M  V30 18059 H 1716.35 -3.86069 0.220769 0
M  V30 18060 H 1718.04 -4.01274 0.61107 0
M  V30 18061 H 1718.8 -3.74634 3.08017 0
M  V30 18062 H 1714.68 -4.18431 1.93485 0
M  V30 18063 H 1718.22 -4.44411 5.37721 0
M  V30 18064 H 1714.12 -4.88207 4.22285 0
M  V30 18065 H 1714.89 -5.27089 6.26195 0
M  V30 18066 N 1717.55 -0.769612 -1.37531 0
M  V30 18067 C 1718.46 -0.15514 -2.34086 0
M  V30 18068 C 1719.48 0.682108 -1.60073 0
M  V30 18069 O 1720.65 0.602527 -1.92176 0
M  V30 18070 C 1717.72 0.715344 -3.3924 0
M  V30 18071 C 1716.78 -0.138116 -4.29078 0
M  V30 18072 C 1716.01 0.690916 -5.29209 0
M  V30 18073 O 1716.24 1.92812 -5.36824 0
M  V30 18074 O 1715.17 0.101247 -6.01815 0
M  V30 18075 H 1719 -0.952968 -2.88361 0
M  V30 18076 H 1716.58 -0.530738 -1.39655 0
M  V30 18077 H 1718.46 1.21236 -4.03584 0
M  V30 18078 H 1717.14 1.4914 -2.87296 0
M  V30 18079 H 1716.05 -0.681443 -3.67841 0
M  V30 18080 H 1717.38 -0.877202 -4.8432 0
M  V30 18081 N 1719.03 1.48775 -0.519977 0
M  V30 18082 C 1720.28 2.02492 0.0177505 0
M  V30 18083 C 1720.61 1.39801 1.35226 0
M  V30 18084 O 1719.86 0.529591 1.88398 0
M  V30 18085 C 1720.16 3.56844 0.199204 0
M  V30 18086 C 1719.83 4.38271 -1.05968 0
M  V30 18087 C 1718.49 4.6024 -1.40472 0
M  V30 18088 C 1720.84 4.85507 -1.89559 0
M  V30 18089 C 1718.17 5.26691 -2.58483 0
M  V30 18090 C 1720.52 5.53257 -3.0674 0
M  V30 18091 C 1719.18 5.73468 -3.41601 0
M  V30 18092 H 1718.45 0.740972 0.00649536 0
M  V30 18093 H 1721.1 1.78869 -0.683977 0
M  V30 18094 H 1719.41 3.79252 0.983617 0
M  V30 18095 H 1721.1 3.9602 0.63002 0
M  V30 18096 H 1717.69 4.21425 -0.780955 0
M  V30 18097 H 1721.88 4.68345 -1.64215 0
M  V30 18098 H 1717.13 5.40538 -2.85707 0
M  V30 18099 H 1721.31 5.88829 -3.71824 0
M  V30 18100 H 1718.93 6.24732 -4.33144 0
M  V30 18101 N 1720.51 0.254649 1.55529 0
M  V30 18102 C 1721.42 -0.652184 2.25352 0
M  V30 18103 C 1722.43 -1.18695 1.2723 0
M  V30 18104 O 1723.61 -1.22158 1.60123 0
M  V30 18105 C 1720.68 -1.829 2.94531 0
M  V30 18106 C 1719.74 -1.33294 4.08082 0
M  V30 18107 C 1718.97 -2.45367 4.73952 0
M  V30 18108 O 1719.19 -3.64271 4.38933 0
M  V30 18109 O 1718.13 -2.14684 5.62311 0
M  V30 18110 H 1721.95 -0.0871786 3.03575 0
M  V30 18111 H 1719.54 0.0228432 1.49383 0
M  V30 18112 H 1721.42 -2.5156 3.38076 0
M  V30 18113 H 1720.09 -2.38148 2.19242 0
M  V30 18114 H 1719 -0.613396 3.69037 0
M  V30 18115 H 1720.33 -0.826454 4.85212 0
M  V30 18116 N 1721.99 -1.57589 -0.0183649 0
M  V30 18117 C 1722.92 -2.1029 -1.01492 0
M  V30 18118 C 1723.9 -1.00782 -1.37029 0
M  V30 18119 O 1725.08 -1.28365 -1.45726 0
M  V30 18120 C 1722.21 -2.59111 -2.31255 0
M  V30 18121 C 1721.17 -3.72979 -2.0993 0
M  V30 18122 C 1720.49 -4.08046 -3.45547 0
M  V30 18123 C 1721.79 -5.00988 -1.47677 0
M  V30 18124 H 1723.49 -2.93804 -0.57618 0
M  V30 18125 H 1721.03 -1.41336 -0.275708 0
M  V30 18126 H 1722.99 -2.94602 -3.0131 0
M  V30 18127 H 1721.71 -1.72694 -2.77208 0
M  V30 18128 H 1720.37 -3.37853 -1.42306 0
M  V30 18129 H 1720.02 -3.1868 -3.89169 0
M  V30 18130 H 1719.72 -4.8475 -3.32101 0
M  V30 18131 H 1721.24 -4.46081 -4.16947 0
M  V30 18132 H 1722.65 -5.34368 -2.07663 0
M  V30 18133 H 1721.05 -5.82375 -1.44774 0
M  V30 18134 H 1722.12 -4.82865 -0.443804 0
M  V30 18135 N 1723.46 0.290824 -1.54893 0
M  V30 18136 C 1724.71 1.02627 -1.74916 0
M  V30 18137 C 1725.04 1.86572 -0.538921 0
M  V30 18138 O 1724.32 1.88888 0.463844 0
M  V30 18139 C 1724.6 1.92376 -3.04407 0
M  V30 18140 C 1724.45 1.11542 -4.3575 0
M  V30 18141 C 1725.77 2.91383 -3.29824 0
M  V30 18142 H 1722.89 0.371685 -0.636411 0
M  V30 18143 H 1725.53 0.300072 -1.87615 0
M  V30 18144 H 1723.68 2.54295 -2.93711 0
M  V30 18145 H 1725.36 0.518312 -4.58379 0
M  V30 18146 H 1723.6 0.418386 -4.31778 0
M  V30 18147 H 1724.27 1.77616 -5.22644 0
M  V30 18148 H 1726.75 2.39595 -3.40196 0
M  V30 18149 H 1725.62 3.51338 -4.21726 0
M  V30 18150 H 1725.88 3.65579 -2.48606 0
M  V30 18151 N 1724.94 1.47523 0.554506 0
M  V30 18152 C 1726.35 1.48114 1.13662 0
M  V30 18153 C 1726.7 0.237321 1.94759 0
M  V30 18154 O 1725.83 -0.657558 2.06168 0
M  V30 18155 C 1726.42 2.68366 2.06797 0
M  V30 18156 C 1724.98 2.71908 2.60274 0
M  V30 18157 C 1724.13 2.41258 1.3671 0
M  V30 18158 H 1727.08 1.54994 0.34097 0
M  V30 18159 H 1727.1 2.4549 2.90714 0
M  V30 18160 H 1726.61 3.58877 1.47745 0
M  V30 18161 H 1724.72 1.85543 3.23117 0
M  V30 18162 H 1724.83 3.72673 3.01084 0
M  V30 18163 H 1723.19 1.91897 1.67474 0
M  V30 18164 H 1723.98 3.3398 0.794476 0
M  V30 18165 N 1726.42 -0.801453 1.357 0
M  V30 18166 C 1727.65 -1.59001 1.32386 0
M  V30 18167 C 1728.06 -1.88548 -0.0975432 0
M  V30 18168 O 1727.42 -1.49199 -1.05099 0
M  V30 18169 C 1727.47 -2.91822 2.13359 0
M  V30 18170 O 1727.19 -2.63554 3.49958 0
M  V30 18171 C 1728.69 -3.86169 2.17689 0
M  V30 18172 H 1725.91 -0.493557 0.45458 0
M  V30 18173 H 1728.46 -0.995616 1.78627 0
M  V30 18174 H 1726.61 -3.47763 1.70704 0
M  V30 18175 H 1727.03 -3.48397 3.92071 0
M  V30 18176 H 1728.5 -4.76461 2.78727 0
M  V30 18177 H 1728.98 -4.23134 1.17704 0
M  V30 18178 H 1729.58 -3.36163 2.60527 0
M  V30 18179 N 1727.9 -1.19782 -1.02421 0
M  V30 18180 C 1729.18 -0.912541 -1.73009 0
M  V30 18181 C 1729.56 0.58061 -2.02958 0
M  V30 18182 O 1728.9 1.54013 -1.68797 0
M  V30 18183 C 1729.11 -1.77745 -3.00346 0
M  V30 18184 C 1730.46 -2.01462 -3.73762 0
M  V30 18185 O 1731.49 -1.74935 -3.10284 0
M  V30 18186 O 1730.34 -2.46219 -4.87892 0
M  V30 18187 H 1727.44 -0.340513 -0.753644 0
M  V30 18188 H 1729.98 -1.30618 -1.08338 0
M  V30 18189 H 1728.76 -2.78887 -2.74477 0
M  V30 18190 H 1728.38 -1.38339 -3.72757 0
M  V30 18191 N 1729.38 1.21606 -1.00248 0
M  V30 18192 C 1730.31 2.26159 -0.580911 0
M  V30 18193 C 1731.29 1.65402 0.397017 0
M  V30 18194 O 1732.47 1.92089 0.285552 0
M  V30 18195 C 1729.6 3.47168 0.0957564 0
M  V30 18196 C 1728.56 4.20425 -0.801695 0
M  V30 18197 C 1727.88 5.34699 0.00842241 0
M  V30 18198 C 1729.18 4.78086 -2.10311 0
M  V30 18199 H 1730.88 2.61675 -1.45487 0
M  V30 18200 H 1728.42 1.25786 -0.700995 0
M  V30 18201 H 1730.38 4.19477 0.402141 0
M  V30 18202 H 1729.1 3.10775 1.00433 0
M  V30 18203 H 1727.76 3.49963 -1.09187 0
M  V30 18204 H 1727.41 4.94548 0.918206 0
M  V30 18205 H 1727.11 5.84639 -0.589105 0
M  V30 18206 H 1728.63 6.09819 0.30868 0
M  V30 18207 H 1730.05 5.42287 -1.86004 0
M  V30 18208 H 1728.44 5.38405 -2.65028 0
M  V30 18209 H 1729.51 3.97607 -2.77555 0
M  V30 18210 N 1730.86 0.776895 1.37121 0
M  V30 18211 C 1732.1 0.340209 1.9881 0
M  V30 18212 C 1732.42 -1.09071 1.62367 0
M  V30 18213 O 1733.62 -1.62904 2.17197 0
M  V30 18214 C 1732.08 0.557325 3.55559 0
M  V30 18215 C 1731.69 1.99884 4.00937 0
M  V30 18216 C 1733.43 0.184519 4.24099 0
M  V30 18217 C 1731.34 2.16328 5.50415 0
M  V30 18218 H 1730.27 0.12346 0.743824 0
M  V30 18219 H 1732.92 0.956754 1.56584 0
M  V30 18220 H 1731.3 -0.128752 3.95791 0
M  V30 18221 H 1732.48 2.72029 3.71937 0
M  V30 18222 H 1730.79 2.32872 3.45195 0
M  V30 18223 H 1733.39 0.285827 5.33935 0
M  V30 18224 H 1733.73 -0.865859 4.07196 0
M  V30 18225 H 1734.26 0.823343 3.89186 0
M  V30 18226 H 1731 3.19703 5.7225 0
M  V30 18227 H 1730.52 1.48673 5.81082 0
M  V30 18228 H 1732.2 1.96437 6.16459 0
M  V30 18229 N 1732.33 -1.48497 0.527859 0
M  V30 18230 C 1733.58 -2.02499 -0.00701157 0
M  V30 18231 C 1733.91 -1.40516 -1.34483 0
M  V30 18232 O 1733.16 -0.539575 -1.88115 0
M  V30 18233 C 1733.46 -3.56945 -0.180276 0
M  V30 18234 C 1733.13 -4.37703 1.08291 0
M  V30 18235 C 1731.79 -4.59489 1.42911 0
M  V30 18236 C 1734.14 -4.84495 1.92131 0
M  V30 18237 C 1731.47 -5.25313 2.61272 0
M  V30 18238 C 1733.82 -5.51623 3.09669 0
M  V30 18239 C 1732.49 -5.71648 3.44637 0
M  V30 18240 H 1731.76 -0.740996 -0.00256572 0
M  V30 18241 H 1734.4 -1.78503 0.693453 0
M  V30 18242 H 1732.71 -3.79768 -0.963491 0
M  V30 18243 H 1734.41 -3.96348 -0.609009 0
M  V30 18244 H 1731 -4.21005 0.803293 0
M  V30 18245 H 1735.18 -4.67468 1.66696 0
M  V30 18246 H 1730.44 -5.39015 2.8857 0
M  V30 18247 H 1734.61 -5.86849 3.74942 0
M  V30 18248 H 1732.24 -6.22426 4.36451 0
M  V30 18249 N 1733.81 -0.262893 -1.55392 0
M  V30 18250 C 1735.05 0.358707 -2.01228 0
M  V30 18251 C 1735.42 1.53958 -1.14722 0
M  V30 18252 O 1736.62 2.22999 -1.50083 0
M  V30 18253 C 1734.89 0.74296 -3.49592 0
M  V30 18254 S 1736.45 1.35282 -4.17426 0
M  V30 18255 H 1733.26 0.112156 -0.702098 0
M  V30 18256 H 1735.87 -0.38187 -1.91734 0
M  V30 18257 H 1734.57 -0.125537 -4.10208 0
M  V30 18258 H 1734.1 1.51531 -3.63045 0
M  V30 18259 H 1736.12 2.64166 -4.20037 0
M  V30 18260 N 1735.29 1.57597 0.0100073 0
M  V30 18261 C 1736.22 2.10825 1.00375 0
M  V30 18262 C 1737.2 1.01507 1.36493 0
M  V30 18263 O 1738.39 1.29136 1.45043 0
M  V30 18264 C 1735.52 2.60334 2.29878 0
M  V30 18265 C 1734.47 3.74087 2.07949 0
M  V30 18266 C 1733.8 4.09873 3.43378 0
M  V30 18267 C 1735.1 5.01764 1.45018 0
M  V30 18268 H 1736.79 2.94105 0.560591 0
M  V30 18269 H 1734.34 1.4148 0.268208 0
M  V30 18270 H 1736.29 2.96196 2.99743 0
M  V30 18271 H 1735.01 1.74162 2.76288 0
M  V30 18272 H 1733.67 3.38603 1.40512 0
M  V30 18273 H 1733.32 3.20739 3.87473 0
M  V30 18274 H 1733.02 4.86505 3.29525 0
M  V30 18275 H 1734.54 4.48285 4.14575 0
M  V30 18276 H 1735.96 5.35462 2.04826 0
M  V30 18277 H 1734.35 5.83135 1.41683 0
M  V30 18278 H 1735.42 4.83093 0.41819 0
M  V30 18279 N 1736.77 -0.282606 1.55045 0
M  V30 18280 C 1737.7 -1.37429 1.82177 0
M  V30 18281 C 1738.68 -1.47967 0.674139 0
M  V30 18282 O 1739.86 -1.64742 0.916103 0
M  V30 18283 C 1736.99 -2.75167 1.97486 0
M  V30 18284 C 1736.04 -2.81962 3.19999 0
M  V30 18285 S 1736.87 -2.42183 4.77606 0
M  V30 18286 C 1738.02 -3.81915 4.95875 0
M  V30 18287 H 1738.26 -1.1421 2.74488 0
M  V30 18288 H 1735.79 -0.481722 1.46693 0
M  V30 18289 H 1737.75 -3.54493 2.06991 0
M  V30 18290 H 1736.41 -2.95645 1.06081 0
M  V30 18291 H 1735.6 -3.83034 3.27569 0
M  V30 18292 H 1735.2 -2.10649 3.09035 0
M  V30 18293 H 1737.5 -4.77094 4.81027 0
M  V30 18294 H 1738.44 -3.79303 5.97942 0
M  V30 18295 H 1738.85 -3.72771 4.23912 0
M  V30 18296 N 1738.25 -1.47815 -0.546675 0
M  V30 18297 C 1739.18 -1.57161 -1.66832 0
M  V30 18298 C 1740.19 -0.457035 -1.56253 0
M  V30 18299 O 1741.38 -0.727134 -1.63018 0
M  V30 18300 C 1738.48 -1.4697 -3.05374 0
M  V30 18301 C 1737.65 -2.7318 -3.41602 0
M  V30 18302 C 1736.71 -2.56676 -4.59351 0
M  V30 18303 O 1735.74 -3.30521 -4.63405 0
M  V30 18304 N 1736.94 -1.65194 -5.56499 0
M  V30 18305 H 1739.7 -2.53885 -1.59257 0
M  V30 18306 H 1737.27 -1.44328 -0.733565 0
M  V30 18307 H 1739.26 -1.33649 -3.81995 0
M  V30 18308 H 1737.83 -0.582878 -3.07118 0
M  V30 18309 H 1737.05 -3.01186 -2.54323 0
M  V30 18310 H 1738.34 -3.56945 -3.62585 0
M  V30 18311 H 1737.73 -1.04369 -5.55989 0
M  V30 18312 H 1736.29 -1.57819 -6.32405 0
M  V30 18313 N 1739.72 0.794246 -1.36123 0
M  V30 18314 C 1740.97 1.55191 -1.30084 0
M  V30 18315 C 1741.3 1.94122 0.121259 0
M  V30 18316 O 1740.55 1.62573 1.08942 0
M  V30 18317 C 1740.85 2.84387 -2.16469 0
M  V30 18318 C 1740.52 2.64617 -3.65087 0
M  V30 18319 C 1739.18 2.58934 -4.05594 0
M  V30 18320 C 1741.53 2.46293 -4.59336 0
M  V30 18321 C 1738.86 2.32885 -5.38499 0
M  V30 18322 C 1741.21 2.21771 -5.92453 0
M  V30 18323 C 1739.88 2.14518 -6.32091 0
M  V30 18324 H 1739.15 0.567885 -0.476013 0
M  V30 18325 H 1741.79 0.916723 -1.68132 0
M  V30 18326 H 1740.1 3.52348 -1.71342 0
M  V30 18327 H 1741.8 3.42152 -2.09124 0
M  V30 18328 H 1738.39 2.69894 -3.32949 0
M  V30 18329 H 1742.57 2.49688 -4.28917 0
M  V30 18330 H 1737.83 2.25748 -5.68197 0
M  V30 18331 H 1742 2.06586 -6.65053 0
M  V30 18332 H 1739.63 1.94096 -7.35004 0
M  V30 18333 N 1741.2 1.20323 1.01785 0
M  V30 18334 C 1742.48 0.921703 1.72522 0
M  V30 18335 C 1742.86 -0.569838 2.03264 0
M  V30 18336 O 1742.21 -1.53115 1.69611 0
M  V30 18337 C 1742.42 1.79335 2.99399 0
M  V30 18338 C 1743.76 2.03442 3.72688 0
M  V30 18339 O 1744.79 1.76578 3.09352 0
M  V30 18340 O 1743.65 2.48803 4.86579 0
M  V30 18341 H 1740.74 0.344505 0.751828 0
M  V30 18342 H 1743.29 1.31191 1.07644 0
M  V30 18343 H 1742.06 2.80339 2.72994 0
M  V30 18344 H 1741.68 1.40314 3.72018 0
M  V30 18345 N 1742.68 -1.21073 1.00892 0
M  V30 18346 C 1743.63 -2.21426 0.543574 0
M  V30 18347 C 1744.61 -1.55927 -0.396938 0
M  V30 18348 O 1745.81 -1.75613 -0.221152 0
M  V30 18349 C 1742.93 -3.43074 -0.124494 0
M  V30 18350 C 1742.02 -4.15753 0.837269 0
M  V30 18351 N 1742.41 -4.64936 1.99168 0
M  V30 18352 C 1740.71 -4.41142 0.656473 0
M  V30 18353 C 1741.41 -5.20527 2.59666 0
M  V30 18354 N 1740.39 -5.10133 1.87792 0
M  V30 18355 H 1744.19 -2.5711 1.42378 0
M  V30 18356 H 1741.7 -1.36923 0.873254 0
M  V30 18357 H 1743.7 -4.14181 -0.475363 0
M  V30 18358 H 1742.36 -3.08897 -1.00064 0
M  V30 18359 H 1743.37 -4.60392 2.37191 0
M  V30 18360 H 1740.05 -4.17144 -0.172261 0
M  V30 18361 H 1741.44 -5.69011 3.57318 0
M  V30 18362 N 1744.16 -0.784156 -1.36707 0
M  V30 18363 C 1745.11 -0.166827 -2.32001 0
M  V30 18364 C 1746.1 0.670916 -1.55548 0
M  V30 18365 O 1747.31 0.566588 -1.7085 0
M  V30 18366 H 1743.68 -0.0351691 -0.751177 0
M  V30 18367 H 1745.65 -0.986074 -2.81637 0
M  V30 18368 C 1744.4 0.6881 -3.40823 0
M  V30 18369 H 1743.72 0.0528343 -3.99765 0
M  V30 18370 H 1745.16 1.08681 -4.09835 0
M  V30 18371 C 1743.62 1.84408 -2.81949 0
M  V30 18372 O 1744.15 2.94034 -2.73691 0
M  V30 18373 N 1742.36 1.64855 -2.39314 0
M  V30 18374 H 1741.91 0.756867 -2.4623 0
M  V30 18375 H 1741.86 2.42363 -2.00268 0
M  V30 18376 N 1745.64 1.48215 -0.535727 0
M  V30 18377 C 1746.6 2.28206 0.213212 0
M  V30 18378 C 1747.6 1.3571 0.862522 0
M  V30 18379 O 1748.79 1.58547 0.721688 0
M  V30 18380 C 1745.92 3.1476 1.30917 0
M  V30 18381 H 1747.11 2.95884 -0.489163 0
M  V30 18382 H 1744.67 1.53551 -0.291872 0
M  V30 18383 H 1745.4 2.51726 2.04462 0
M  V30 18384 H 1745.19 3.82806 0.848633 0
M  V30 18385 H 1746.68 3.75085 1.83579 0
M  V30 18386 N 1747.11 0.27113 1.5525 0
M  V30 18387 C 1748.36 -0.346106 1.99114 0
M  V30 18388 C 1748.68 -1.56677 1.16092 0
M  V30 18389 O 1747.95 -1.94305 0.249472 0
M  V30 18390 H 1746.53 -0.13087 0.735447 0
M  V30 18391 H 1749.2 0.375542 1.91248 0
M  V30 18392 H 1748.29 -0.638703 3.05495 0
M  V30 18393 N 1748.59 -1.576 -0.00164943 0
M  V30 18394 C 1749.52 -2.05167 -1.02173 0
M  V30 18395 C 1750.54 -0.969293 -1.308 0
M  V30 18396 O 1751.73 -1.24612 -1.27805 0
M  V30 18397 C 1748.83 -2.43525 -2.35688 0
M  V30 18398 C 1748 -3.74475 -2.26025 0
M  V30 18399 C 1747.06 -3.99719 -3.42215 0
M  V30 18400 O 1746.08 -4.70408 -3.20476 0
M  V30 18401 N 1747.29 -3.47486 -4.65009 0
M  V30 18402 H 1750.05 -2.93299 -0.616095 0
M  V30 18403 H 1747.61 -1.60792 -0.189066 0
M  V30 18404 H 1749.6 -2.57528 -3.12188 0
M  V30 18405 H 1748.17 -1.6092 -2.67999 0
M  V30 18406 H 1747.39 -3.70564 -1.34447 0
M  V30 18407 H 1748.68 -4.60328 -2.16739 0
M  V30 18408 H 1748.08 -2.9024 -4.85569 0
M  V30 18409 H 1746.64 -3.66822 -5.38781 0
M  V30 18410 N 1750.07 0.274379 -1.55193 0
M  V30 18411 C 1751.3 1.02871 -1.8009 0
M  V30 18412 C 1751.72 1.79202 -0.571676 0
M  V30 18413 O 1751.08 1.74867 0.478679 0
M  V30 18414 C 1751.13 1.96406 -3.02418 0
M  V30 18415 O 1750.23 3.05154 -2.77408 0
M  V30 18416 H 1749.57 0.294181 -0.595276 0
M  V30 18417 H 1752.1 0.303708 -2.02333 0
M  V30 18418 H 1752.11 2.38385 -3.31114 0
M  V30 18419 H 1750.79 1.40261 -3.91535 0
M  V30 18420 H 1749.36 2.675 -2.59805 0
M  V30 18421 N 1751.55 1.48103 0.538828 0
M  V30 18422 C 1752.96 1.34028 0.866532 0
M  V30 18423 C 1753.16 0.3446 1.98531 0
M  V30 18424 O 1752.22 -0.237347 2.51382 0
M  V30 18425 C 1753.53 2.73833 1.24241 0
M  V30 18426 C 1755.08 2.82256 1.35279 0
M  V30 18427 C 1755.56 4.22744 1.76214 0
M  V30 18428 N 1757.05 4.25374 1.83332 0
M  V30 18429 C 1757.78 5.31009 2.16373 0
M  V30 18430 N 1757.28 6.4693 2.47899 0
M  V30 18431 N 1759.07 5.18397 2.17304 0
M  V30 18432 H 1751.22 2.11461 -0.199502 0
M  V30 18433 H 1753.49 0.947627 -0.0266031 0
M  V30 18434 H 1753.19 3.48213 0.494025 0
M  V30 18435 H 1753.07 3.0679 2.19453 0
M  V30 18436 H 1755.45 2.08137 2.09196 0
M  V30 18437 H 1755.53 2.5293 0.382096 0
M  V30 18438 H 1755.18 4.97375 1.02862 0
M  V30 18439 H 1755.11 4.49507 2.74319 0
M  V30 18440 H 1757.6 3.41755 1.61282 0
M  V30 18441 H 1757.91 7.23279 2.7219 0
M  V30 18442 H 1756.26 6.50219 2.45438 0
M  V30 18443 H 1759.45 4.26855 1.92126 0
M  V30 18444 H 1759.62 6.00824 2.42722 0
M  V30 18445 N 1753.03 -0.787016 1.36542 0
M  V30 18446 C 1753.99 -1.88136 1.3091 0
M  V30 18447 C 1754.99 -1.59339 0.216292 0
M  V30 18448 O 1756.18 -1.67706 0.471222 0
M  V30 18449 C 1753.31 -3.24969 1.02994 0
M  V30 18450 H 1754.5 -1.94546 2.28237 0
M  V30 18451 H 1752.06 -0.985084 1.2135 0
M  V30 18452 H 1752.79 -3.24242 0.0613497 0
M  V30 18453 H 1752.58 -3.47261 1.82078 0
M  V30 18454 H 1754.07 -4.05036 1.01664 0
M  V30 18455 N 1754.5 -1.20861 -1.01145 0
M  V30 18456 C 1755.73 -1.04843 -1.78949 0
M  V30 18457 C 1756.15 0.397676 -1.83848 0
M  V30 18458 O 1755.51 1.28663 -1.27733 0
M  V30 18459 C 1755.56 -1.64267 -3.21012 0
M  V30 18460 O 1754.66 -0.883773 -4.02819 0
M  V30 18461 H 1754.01 -0.36941 -0.551754 0
M  V30 18462 H 1756.54 -1.60266 -1.27185 0
M  V30 18463 H 1756.55 -1.68218 -3.71708 0
M  V30 18464 H 1755.22 -2.69509 -3.16761 0
M  V30 18465 H 1753.8 -0.918866 -3.61402 0
M  V30 18466 N 1755.98 1.20536 -1.01532 0
M  V30 18467 C 1756.91 2.2553 -0.604866 0
M  V30 18468 C 1757.89 1.65814 0.379452 0
M  V30 18469 O 1759.08 1.92381 0.265162 0
M  V30 18470 C 1756.21 3.4725 0.0589292 0
M  V30 18471 C 1755.16 4.19551 -0.846241 0
M  V30 18472 C 1754.49 5.34678 -0.0482901 0
M  V30 18473 C 1755.79 4.75829 -2.1537 0
M  V30 18474 H 1757.48 2.60117 -1.48254 0
M  V30 18475 H 1755.03 1.25035 -0.714297 0
M  V30 18476 H 1756.98 4.1988 0.357627 0
M  V30 18477 H 1755.71 3.11822 0.97131 0
M  V30 18478 H 1754.36 3.48785 -1.12892 0
M  V30 18479 H 1754.01 4.95494 0.8657 0
M  V30 18480 H 1753.71 5.83982 -0.651081 0
M  V30 18481 H 1755.24 6.10112 0.243983 0
M  V30 18482 H 1756.65 5.40284 -1.91745 0
M  V30 18483 H 1755.05 5.35564 -2.70723 0
M  V30 18484 H 1756.12 3.94641 -2.81756 0
M  V30 18485 N 1757.46 0.791395 1.36289 0
M  V30 18486 C 1758.69 0.375566 2.03971 0
M  V30 18487 C 1759.11 -1.00061 1.59277 0
M  V30 18488 O 1758.47 -1.64501 0.762182 0
M  V30 18489 C 1758.52 0.449891 3.57783 0
M  V30 18490 O 1757.62 -0.54243 4.08817 0
M  V30 18491 H 1756.96 0.159181 0.644637 0
M  V30 18492 H 1759.49 1.07306 1.74203 0
M  V30 18493 H 1759.5 0.314206 4.06788 0
M  V30 18494 H 1758.18 1.45377 3.89665 0
M  V30 18495 H 1756.75 -0.368243 3.71077 0
M  V30 18496 N 1758.94 -1.47929 0.54358 0
M  V30 18497 C 1759.89 -2.26818 -0.23183 0
M  V30 18498 C 1760.87 -1.33532 -0.897665 0
M  V30 18499 O 1762.07 -1.57979 -0.798223 0
M  V30 18500 C 1759.19 -3.18956 -1.26972 0
M  V30 18501 C 1758.28 -4.19719 -0.607991 0
M  V30 18502 N 1758.67 -5.04824 0.314122 0
M  V30 18503 C 1756.97 -4.3756 -0.863569 0
M  V30 18504 C 1757.67 -5.77507 0.697198 0
M  V30 18505 N 1756.65 -5.43572 0.055142 0
M  V30 18506 H 1760.45 -2.89997 0.477356 0
M  V30 18507 H 1757.96 -1.58301 0.362553 0
M  V30 18508 H 1759.96 -3.74144 -1.83907 0
M  V30 18509 H 1758.62 -2.57333 -1.98014 0
M  V30 18510 H 1759.63 -5.13316 0.687517 0
M  V30 18511 H 1756.31 -3.87117 -1.56353 0
M  V30 18512 H 1757.7 -6.55977 1.45411 0
M  V30 18513 N 1760.42 -0.27936 -1.55104 0
M  V30 18514 C 1761.64 0.342295 -2.04556 0
M  V30 18515 C 1762.07 1.48367 -1.15624 0
M  V30 18516 O 1761.43 1.8063 -0.15572 0
M  V30 18517 C 1761.47 0.796785 -3.51687 0
M  V30 18518 O 1760.58 1.90364 -3.65835 0
M  V30 18519 H 1759.92 0.07012 -0.660287 0
M  V30 18520 H 1762.45 -0.414896 -2.00349 0
M  V30 18521 H 1762.46 1.09141 -3.93131 0
M  V30 18522 H 1761.13 -0.0382637 -4.15882 0
M  V30 18523 H 1759.71 1.61123 -3.36294 0
M  V30 18524 N 1761.9 1.57599 -0.0067085 0
M  V30 18525 C 1763.12 1.95545 0.69115 0
M  V30 18526 C 1763.55 0.882014 1.66139 0
M  V30 18527 O 1762.9 -0.159242 1.80599 0
M  V30 18528 C 1762.95 3.3259 1.39342 0
M  V30 18529 O 1762.06 3.27368 2.50806 0
M  V30 18530 H 1761.4 0.638188 0.183336 0
M  V30 18531 H 1763.93 2.04506 -0.0618957 0
M  V30 18532 H 1763.94 3.6831 1.75532 0
M  V30 18533 H 1762.61 4.10269 0.682072 0
M  V30 18534 H 1761.19 3.03334 2.16894 0
M  V30 18535 N 1763.37 -0.266145 1.55336 0
M  V30 18536 C 1764.32 -1.33159 1.85075 0
M  V30 18537 C 1765.31 -1.44381 0.710142 0
M  V30 18538 O 1766.5 -1.47946 0.971644 0
M  V30 18539 C 1763.63 -2.69063 2.13214 0
M  V30 18540 C 1762.71 -2.61924 3.33552 0
M  V30 18541 N 1763.11 -2.24407 4.53294 0
M  V30 18542 C 1761.4 -2.92973 3.36278 0
M  V30 18543 C 1762.1 -2.27428 5.35398 0
M  V30 18544 N 1761.08 -2.66173 4.73976 0
M  V30 18545 H 1764.88 -1.03172 2.75196 0
M  V30 18546 H 1762.4 -0.474782 1.55305 0
M  V30 18547 H 1764.39 -3.45929 2.32677 0
M  V30 18548 H 1763.05 -2.99933 1.2438 0
M  V30 18549 H 1764.06 -1.9627 4.79269 0
M  V30 18550 H 1760.74 -3.2851 2.57658 0
M  V30 18551 H 1762.13 -2.00925 6.41154 0
M  V30 18552 N 1764.85 -1.48386 -0.530967 0
M  V30 18553 C 1766.08 -1.60269 -1.31638 0
M  V30 18554 C 1766.5 -0.262789 -1.86255 0
M  V30 18555 O 1765.86 0.765389 -1.64352 0
M  V30 18556 C 1765.91 -2.65163 -2.44379 0
M  V30 18557 O 1765.01 -2.22254 -3.47386 0
M  V30 18558 H 1764.35 -0.537456 -0.38992 0
M  V30 18559 H 1766.88 -1.94366 -0.639 0
M  V30 18560 H 1766.89 -2.86405 -2.90579 0
M  V30 18561 H 1765.57 -3.62439 -2.03987 0
M  V30 18562 H 1764.14 -2.11221 -3.07311 0
M  V30 18563 N 1766.33 0.779763 -1.36958 0
M  V30 18564 C 1767.55 1.57389 -1.35068 0
M  V30 18565 C 1767.98 1.87993 0.0635244 0
M  V30 18566 O 1767.34 1.48625 1.03828 0
M  V30 18567 C 1767.39 2.86582 -2.18868 0
M  V30 18568 O 1766.49 3.80609 -1.58779 0
M  V30 18569 H 1765.83 0.477052 -0.461863 0
M  V30 18570 H 1768.36 0.965741 -1.80373 0
M  V30 18571 H 1768.37 3.35761 -2.31794 0
M  V30 18572 H 1767.05 2.63635 -3.21666 0
M  V30 18573 H 1765.62 3.39229 -1.54848 0
M  V30 18574 N 1767.81 1.21396 1.00503 0
M  V30 18575 C 1768.74 0.930982 2.09441 0
M  V30 18576 C 1769.75 -0.0857912 1.62574 0
M  V30 18577 O 1770.94 0.146701 1.77896 0
M  V30 18578 C 1768.04 0.376344 3.36804 0
M  V30 18579 C 1767.21 1.44744 4.12756 0
M  V30 18580 C 1766.27 0.902051 5.18411 0
M  V30 18581 O 1765.3 1.58548 5.46673 0
M  V30 18582 N 1766.5 -0.282718 5.79811 0
M  V30 18583 H 1769.27 1.86879 2.343 0
M  V30 18584 H 1766.83 1.1192 1.16985 0
M  V30 18585 H 1768.82 -0.00292068 4.047 0
M  V30 18586 H 1767.39 -0.466283 3.09103 0
M  V30 18587 H 1766.61 2.00056 3.39664 0
M  V30 18588 H 1767.9 2.16846 4.60277 0
M  V30 18589 H 1767.3 -0.855 5.59201 0
M  V30 18590 H 1765.85 -0.603494 6.49 0
M  V30 18591 N 1769.29 -1.19996 1.0217 0
M  V30 18592 C 1770.51 -1.94007 0.733207 0
M  V30 18593 C 1770.94 -1.74565 -0.70061 0
M  V30 18594 O 1770.29 -1.04326 -1.48276 0
M  V30 18595 C 1770.34 -3.44029 1.08057 0
M  V30 18596 O 1769.45 -4.11938 0.195135 0
M  V30 18597 H 1768.79 -0.605929 0.271562 0
M  V30 18598 H 1771.32 -1.5228 1.36645 0
M  V30 18599 H 1771.33 -3.94669 1.03443 0
M  V30 18600 H 1770 -3.57502 2.1252 0
M  V30 18601 H 1768.58 -3.71697 0.299246 0
M  V30 18602 N 1770.76 -0.798611 -1.35867 0
M  V30 18603 C 1771.99 -0.386378 -2.03769 0
M  V30 18604 C 1772.41 0.992154 -1.59806 0
M  V30 18605 O 1771.77 1.64094 -0.770895 0
M  V30 18606 C 1771.82 -0.468859 -3.57539 0
M  V30 18607 O 1770.92 0.520742 -4.09099 0
M  V30 18608 H 1770.26 -0.162597 -0.643784 0
M  V30 18609 H 1772.79 -1.08228 -1.73631 0
M  V30 18610 H 1772.8 -0.335775 -4.06616 0
M  V30 18611 H 1771.48 -1.47441 -3.88888 0
M  V30 18612 H 1770.06 0.348559 -3.71267 0
M  V30 18613 N 1772.24 1.47639 -0.551417 0
M  V30 18614 C 1773.47 2.07381 -0.0278888 0
M  V30 18615 C 1773.89 1.40223 1.25375 0
M  V30 18616 O 1773.25 0.475268 1.7496 0
M  V30 18617 C 1773.3 3.60258 0.157001 0
M  V30 18618 O 1772.4 3.93913 1.2209 0
M  V30 18619 H 1771.74 0.66221 -0.0487252 0
M  V30 18620 H 1774.27 1.89742 -0.765449 0
M  V30 18621 H 1774.28 4.06291 0.373013 0
M  V30 18622 H 1772.96 4.08537 -0.779122 0
M  V30 18623 H 1771.53 3.59633 0.985843 0
M  V30 18624 N 1773.72 0.287581 1.54954 0
M  V30 18625 C 1774.67 -0.594449 2.23013 0
M  V30 18626 C 1775.64 -1.14007 1.20795 0
M  V30 18627 O 1776.82 -1.18708 1.49376 0
M  V30 18628 C 1773.96 -1.76687 2.96439 0
M  V30 18629 C 1773.08 -1.25391 4.13402 0
M  V30 18630 C 1772.21 -2.38912 4.74441 0
M  V30 18631 C 1771.25 -1.84683 5.83574 0
M  V30 18632 N 1770.39 -2.91725 6.38624 0
M  V30 18633 H 1775.23 -0.00743921 2.97999 0
M  V30 18634 H 1772.76 0.00809578 1.47098 0
M  V30 18635 H 1774.72 -2.45621 3.37233 0
M  V30 18636 H 1773.35 -2.32571 2.23853 0
M  V30 18637 H 1772.4 -0.45726 3.77642 0
M  V30 18638 H 1773.72 -0.816813 4.92067 0
M  V30 18639 H 1772.87 -3.15818 5.18019 0
M  V30 18640 H 1771.61 -2.85943 3.95079 0
M  V30 18641 H 1770.61 -1.06261 5.39434 0
M  V30 18642 H 1771.84 -1.38572 6.64812 0
M  V30 18643 H 1769.78 -3.38115 5.62152 0
M  V30 18644 H 1769.7 -2.5247 7.12597 0
M  V30 18645 H 1770.97 -3.68569 6.86861 0
M  V30 18646 N 1775.2 -1.57593 0.0150662 0
M  V30 18647 C 1776.15 -2.0936 -0.971443 0
M  V30 18648 C 1777.12 -0.992416 -1.33193 0
M  V30 18649 O 1778.3 -1.26577 -1.42769 0
M  V30 18650 C 1775.44 -2.61386 -2.25324 0
M  V30 18651 C 1774.55 -3.85462 -1.95046 0
M  V30 18652 C 1773.69 -4.25934 -3.17418 0
M  V30 18653 C 1772.73 -5.42805 -2.82894 0
M  V30 18654 N 1771.86 -5.78499 -3.97848 0
M  V30 18655 H 1776.7 -2.93373 -0.523068 0
M  V30 18656 H 1774.24 -1.45018 -0.246605 0
M  V30 18657 H 1776.2 -2.89635 -3.00279 0
M  V30 18658 H 1774.83 -1.80225 -2.67804 0
M  V30 18659 H 1773.88 -3.64029 -1.10394 0
M  V30 18660 H 1775.19 -4.70505 -1.6561 0
M  V30 18661 H 1774.35 -4.55544 -4.00705 0
M  V30 18662 H 1773.09 -3.3963 -3.50004 0
M  V30 18663 H 1772.09 -5.12903 -1.98016 0
M  V30 18664 H 1773.32 -6.30797 -2.51539 0
M  V30 18665 H 1771.26 -4.95152 -4.30303 0
M  V30 18666 H 1771.18 -6.5815 -3.71988 0
M  V30 18667 H 1772.45 -6.12708 -4.8188 0
M  V30 18668 N 1776.68 0.257904 -1.55475 0
M  V30 18669 C 1777.9 1.00955 -1.81171 0
M  V30 18670 C 1778.33 1.78586 -0.590651 0
M  V30 18671 O 1777.68 1.75365 0.460105 0
M  V30 18672 C 1777.73 1.93188 -3.04485 0
M  V30 18673 O 1776.84 3.02194 -2.80628 0
M  V30 18674 H 1776.18 0.28785 -0.598363 0
M  V30 18675 H 1778.71 0.28223 -2.02644 0
M  V30 18676 H 1778.72 2.3486 -3.33624 0
M  V30 18677 H 1777.39 1.361 -3.93001 0
M  V30 18678 H 1775.97 2.64729 -2.62627 0
M  V30 18679 N 1778.15 1.48666 0.52309 0
M  V30 18680 C 1779.38 1.60965 1.30787 0
M  V30 18681 C 1779.8 0.272663 1.86113 0
M  V30 18682 O 1779.16 -0.756662 1.64755 0
M  V30 18683 C 1779.21 2.66455 2.42969 0
M  V30 18684 O 1778.31 2.24094 3.46202 0
M  V30 18685 H 1777.66 0.539516 0.387064 0
M  V30 18686 H 1780.19 1.94702 0.628683 0
M  V30 18687 H 1780.2 2.87942 2.89056 0
M  V30 18688 H 1778.87 3.63516 2.02062 0
M  V30 18689 H 1777.45 2.12848 3.06186 0
M  V30 18690 N 1779.63 -0.772489 1.37369 0
M  V30 18691 C 1780.86 -1.56671 1.35901 0
M  V30 18692 C 1781.28 -1.88024 -0.0535538 0
M  V30 18693 O 1780.64 -1.49174 -1.03038 0
M  V30 18694 C 1780.69 -2.85417 2.20384 0
M  V30 18695 O 1779.79 -3.79761 1.60796 0
M  V30 18696 H 1779.13 -0.474596 0.464386 0
M  V30 18697 H 1781.66 -0.956162 1.80883 0
M  V30 18698 H 1781.67 -3.34527 2.33571 0
M  V30 18699 H 1780.35 -2.61926 3.2306 0
M  V30 18700 H 1778.93 -3.38403 1.56645 0
M  V30 18701 N 1781.11 -1.21927 -0.998575 0
M  V30 18702 C 1782.36 -1.04194 -1.73987 0
M  V30 18703 C 1782.69 0.4227 -1.89544 0
M  V30 18704 O 1781.96 1.31353 -1.43446 0
M  V30 18705 C 1782.25 -1.74717 -3.14874 0
M  V30 18706 C 1782.1 -3.28741 -3.07001 0
M  V30 18707 C 1783.42 -1.49495 -4.13931 0
M  V30 18708 H 1780.54 -0.379918 -0.631531 0
M  V30 18709 H 1783.18 -1.5019 -1.16374 0
M  V30 18710 H 1781.33 -1.35615 -3.64062 0
M  V30 18711 H 1783 -3.77252 -2.65478 0
M  V30 18712 H 1781.25 -3.58711 -2.43944 0
M  V30 18713 H 1781.92 -3.73258 -4.06672 0
M  V30 18714 H 1784.39 -1.83451 -3.73477 0
M  V30 18715 H 1783.27 -2.01344 -5.10639 0
M  V30 18716 H 1783.53 -0.426324 -4.4004 0
M  V30 18717 N 1782.59 1.19452 -1.02805 0
M  V30 18718 C 1783.54 2.20533 -0.578732 0
M  V30 18719 C 1784.52 1.56539 0.372081 0
M  V30 18720 O 1785.71 1.75943 0.193185 0
M  V30 18721 C 1782.84 3.43229 0.0698982 0
M  V30 18722 C 1781.93 4.14368 -0.903306 0
M  V30 18723 N 1782.32 4.61709 -2.0654 0
M  V30 18724 C 1780.62 4.40042 -0.726572 0
M  V30 18725 C 1781.32 5.1633 -2.67914 0
M  V30 18726 N 1780.3 5.0708 -1.95884 0
M  V30 18727 H 1784.1 2.54813 -1.46451 0
M  V30 18728 H 1781.61 1.35517 -0.894927 0
M  V30 18729 H 1783.61 4.14885 0.409411 0
M  V30 18730 H 1782.27 3.1045 0.951368 0
M  V30 18731 H 1783.28 4.5656 -2.44485 0
M  V30 18732 H 1779.96 4.17366 0.105875 0
M  V30 18733 H 1781.35 5.63254 -3.66326 0
M  V30 18734 N 1784.07 0.805805 1.35442 0
M  V30 18735 C 1785.29 0.397179 2.03561 0
M  V30 18736 C 1785.72 -0.983665 1.6033 0
M  V30 18737 O 1785.07 -1.63683 0.779586 0
M  V30 18738 C 1785.12 0.487813 3.57285 0
M  V30 18739 O 1784.23 -0.499039 4.09369 0
M  V30 18740 H 1783.57 0.166009 0.642913 0
M  V30 18741 H 1786.1 1.09147 1.73055 0
M  V30 18742 H 1786.11 0.357334 4.06432 0
M  V30 18743 H 1784.78 1.49501 3.88101 0
M  V30 18744 H 1783.36 -0.328864 3.71447 0
M  V30 18745 N 1785.54 -1.47344 0.559239 0
M  V30 18746 C 1786.79 -2.01672 0.0337843 0
M  V30 18747 C 1787.11 -1.43883 -1.32503 0
M  V30 18748 O 1788.31 -1.89885 -1.94051 0
M  V30 18749 C 1786.77 -3.59899 0.00989925 0
M  V30 18750 C 1786.38 -4.2668 1.3656 0
M  V30 18751 C 1788.12 -4.21969 -0.462842 0
M  V30 18752 C 1786.03 -5.76919 1.30071 0
M  V30 18753 H 1784.96 -0.753948 0.00885972 0
M  V30 18754 H 1787.61 -1.69317 0.707394 0
M  V30 18755 H 1785.99 -3.89225 -0.729399 0
M  V30 18756 H 1787.16 -4.08993 2.12277 0
M  V30 18757 H 1785.48 -3.76605 1.77644 0
M  V30 18758 H 1788.08 -5.32069 -0.529816 0
M  V30 18759 H 1788.42 -3.89283 -1.47528 0
M  V30 18760 H 1788.95 -3.97182 0.221661 0
M  V30 18761 H 1785.69 -6.14227 2.28921 0
M  V30 18762 H 1785.21 -5.96937 0.585375 0
M  V30 18763 H 1786.89 -6.39168 1.00364 0
M  V30 18764 N 1787.02 -0.295795 -1.54799 0
M  V30 18765 C 1788.43 0.19789 -1.85648 0
M  V30 18766 C 1788.78 1.53834 -1.21776 0
M  V30 18767 O 1787.91 2.10218 -0.513554 0
M  V30 18768 C 1788.5 0.365844 -3.36819 0
M  V30 18769 C 1787.06 0.80375 -3.67718 0
M  V30 18770 C 1786.21 -0.0909572 -2.77151 0
M  V30 18771 H 1789.16 -0.516968 -1.50044 0
M  V30 18772 H 1789.18 1.20123 -3.61041 0
M  V30 18773 H 1788.69 -0.60991 -3.83278 0
M  V30 18774 H 1786.8 1.79024 -3.26774 0
M  V30 18775 H 1786.91 0.626745 -4.74983 0
M  V30 18776 H 1785.27 0.428882 -2.51063 0
M  V30 18777 H 1786.06 -1.06297 -3.26429 0
M  V30 18778 N 1788.5 1.57583 -0.0234236 0
M  V30 18779 C 1789.73 1.96267 0.670371 0
M  V30 18780 C 1790.15 0.899586 1.65194 0
M  V30 18781 O 1789.51 -0.140079 1.80758 0
M  V30 18782 C 1789.56 3.34049 1.35806 0
M  V30 18783 O 1788.66 3.3001 2.4732 0
M  V30 18784 H 1788 0.640097 0.176557 0
M  V30 18785 H 1790.53 2.04429 -0.0835829 0
M  V30 18786 H 1790.54 3.70151 1.71616 0
M  V30 18787 H 1789.22 4.10969 0.63852 0
M  V30 18788 H 1787.79 3.05618 2.13664 0
M  V30 18789 N 1789.98 -0.249655 1.5561 0
M  V30 18790 C 1791.21 -0.995707 1.81365 0
M  V30 18791 C 1791.62 -1.79054 0.598767 0
M  V30 18792 O 1790.98 -1.773 -0.432538 0
M  V30 18793 C 1791.03 -1.93577 3.05303 0
M  V30 18794 O 1790.75 -1.17311 4.22102 0
M  V30 18795 C 1792.25 -2.79804 3.43838 0
M  V30 18796 H 1789.47 -0.293118 0.603591 0
M  V30 18797 H 1792.02 -0.273374 2.02665 0
M  V30 18798 H 1790.17 -2.61242 2.86062 0
M  V30 18799 H 1790.59 -1.80875 4.92326 0
M  V30 18800 H 1792.06 -3.4152 4.33668 0
M  V30 18801 H 1792.54 -3.50776 2.64298 0
M  V30 18802 H 1793.14 -2.17596 3.6542 0
M  V30 18803 N 1791.46 -1.48941 -0.515198 0
M  V30 18804 C 1792.42 -1.64062 -1.60051 0
M  V30 18805 C 1793.42 -0.513101 -1.52394 0
M  V30 18806 O 1794.61 -0.77924 -1.558 0
M  V30 18807 C 1791.74 -1.6247 -2.99694 0
M  V30 18808 H 1792.94 -2.60849 -1.47978 0
M  V30 18809 H 1790.49 -1.37759 -0.738378 0
M  V30 18810 H 1791.22 -0.672141 -3.17258 0
M  V30 18811 H 1791.01 -2.4434 -3.0666 0
M  V30 18812 H 1792.5 -1.76273 -3.78573 0
M  V30 18813 N 1792.94 0.765193 -1.37777 0
M  V30 18814 C 1793.88 1.90005 -1.34168 0
M  V30 18815 C 1794.88 1.6784 -0.229387 0
M  V30 18816 O 1796.08 1.7555 -0.39778 0
M  V30 18817 H 1792.46 0.624939 -0.418276 0
M  V30 18818 H 1794.43 1.90165 -2.29956 0
M  V30 18819 C 1793.18 3.27349 -1.17208 0
M  V30 18820 H 1792.5 3.44985 -2.02053 0
M  V30 18821 H 1793.94 4.07036 -1.18734 0
M  V30 18822 C 1792.4 3.3668 0.121835 0
M  V30 18823 O 1792.93 3.86258 1.10306 0
M  V30 18824 N 1791.14 2.90074 0.174753 0
M  V30 18825 H 1790.68 2.49918 -0.624397 0
M  V30 18826 H 1790.64 2.96697 1.0401 0
M  V30 18827 N 1794.41 1.22455 0.992094 0
M  V30 18828 C 1795.83 0.984682 1.25603 0
M  V30 18829 C 1796.03 -0.321255 1.98923 0
M  V30 18830 O 1795.09 -1.04367 2.29921 0
M  V30 18831 C 1796.4 2.1839 2.06703 0
M  V30 18832 C 1797.95 2.22755 2.19884 0
M  V30 18833 C 1798.42 3.42232 3.04371 0
M  V30 18834 N 1799.91 3.42398 3.11958 0
M  V30 18835 C 1800.65 4.31497 3.77622 0
M  V30 18836 N 1800.14 5.30814 4.45206 0
M  V30 18837 N 1801.94 4.1927 3.74391 0
M  V30 18838 H 1794.09 2.06417 0.50057 0
M  V30 18839 H 1796.35 0.904556 0.283693 0
M  V30 18840 H 1796.06 3.13099 1.60192 0
M  V30 18841 H 1795.93 2.18517 3.07458 0
M  V30 18842 H 1798.32 1.28593 2.65608 0
M  V30 18843 H 1798.4 2.26667 1.18557 0
M  V30 18844 H 1798.04 4.36694 2.59346 0
M  V30 18845 H 1797.97 3.3556 4.05841 0
M  V30 18846 H 1800.46 2.70531 2.63858 0
M  V30 18847 H 1800.78 5.95078 4.93054 0
M  V30 18848 H 1799.12 5.34726 4.43952 0
M  V30 18849 H 1802.31 3.40932 3.20753 0
M  V30 18850 H 1802.49 4.88913 4.25286 0
M  V30 18851 N 1795.89 -1.18905 1.03437 0
M  V30 18852 C 1796.82 -2.21792 0.578016 0
M  V30 18853 C 1797.84 -1.59015 -0.349014 0
M  V30 18854 O 1799.03 -1.77914 -0.144532 0
M  V30 18855 C 1796.13 -3.38441 -0.176348 0
M  V30 18856 C 1795.3 -4.308 0.756988 0
M  V30 18857 C 1794.36 -5.26179 0.0470478 0
M  V30 18858 O 1793.38 -5.65179 0.675418 0
M  V30 18859 N 1794.59 -5.67497 -1.2218 0
M  V30 18860 H 1797.35 -2.6157 1.46291 0
M  V30 18861 H 1794.91 -1.33627 0.914078 0
M  V30 18862 H 1796.9 -3.99266 -0.660972 0
M  V30 18863 H 1795.47 -2.97406 -0.962715 0
M  V30 18864 H 1794.69 -3.67674 1.4216 0
M  V30 18865 H 1795.98 -4.89413 1.39113 0
M  V30 18866 H 1795.38 -5.37855 -1.75295 0
M  V30 18867 H 1793.94 -6.30548 -1.65081 0
M  V30 18868 N 1797.37 -0.812977 -1.35013 0
M  V30 18869 C 1798.32 -0.216001 -2.31595 0
M  V30 18870 C 1799.31 0.637771 -1.56936 0
M  V30 18871 O 1800.52 0.530221 -1.72014 0
M  V30 18872 H 1796.89 -0.0510947 -0.750262 0
M  V30 18873 H 1798.86 -1.04559 -2.79482 0
M  V30 18874 C 1797.61 0.615651 -3.42206 0
M  V30 18875 H 1796.94 -0.0319737 -3.99787 0
M  V30 18876 H 1798.38 0.99963 -4.12048 0
M  V30 18877 C 1796.83 1.78386 -2.85797 0
M  V30 18878 O 1797.36 2.88163 -2.79866 0
M  V30 18879 N 1795.57 1.59742 -2.42757 0
M  V30 18880 H 1795.12 0.704468 -2.4778 0
M  V30 18881 H 1795.08 2.38061 -2.05364 0
M  V30 18882 N 1798.85 1.47045 -0.567045 0
M  V30 18883 C 1800.26 1.5797 -0.227536 0
M  V30 18884 C 1800.46 1.56434 1.27006 0
M  V30 18885 O 1799.52 1.47297 2.05085 0
M  V30 18886 C 1800.83 2.88053 -0.862894 0
M  V30 18887 C 1802.38 3.01656 -0.835032 0
M  V30 18888 C 1802.86 4.34453 -1.44964 0
M  V30 18889 N 1804.35 4.41113 -1.41327 0
M  V30 18890 C 1805.08 5.42451 -1.85835 0
M  V30 18891 N 1804.58 6.50547 -2.38245 0
M  V30 18892 N 1806.37 5.33556 -1.76847 0
M  V30 18893 H 1798.52 1.46287 -1.53993 0
M  V30 18894 H 1800.78 0.696829 -0.642755 0
M  V30 18895 H 1800.49 2.94942 -1.91578 0
M  V30 18896 H 1800.36 3.75461 -0.361758 0
M  V30 18897 H 1802.75 2.94358 0.209187 0
M  V30 18898 H 1802.83 2.15764 -1.37403 0
M  V30 18899 H 1802.48 4.42508 -2.49298 0
M  V30 18900 H 1802.41 5.19093 -0.886003 0
M  V30 18901 H 1804.9 3.63592 -1.03001 0
M  V30 18902 H 1805.21 7.2406 -2.70105 0
M  V30 18903 H 1803.56 6.51409 -2.42262 0
M  V30 18904 H 1806.75 4.48008 -1.35671 0
M  V30 18905 H 1806.92 6.12391 -2.11851 0
M  V30 18906 N 1800.33 0.304 1.5464 0
M  V30 18907 C 1801.74 -0.188042 1.85751 0
M  V30 18908 C 1802.09 -1.53186 1.22591 0
M  V30 18909 O 1801.21 -2.09943 0.524696 0
M  V30 18910 C 1801.81 -0.347976 3.37008 0
M  V30 18911 C 1800.37 -0.784238 3.68139 0
M  V30 18912 C 1799.51 0.105654 2.77099 0
M  V30 18913 H 1802.46 0.524918 1.49767 0
M  V30 18914 H 1802.49 -1.18207 3.61673 0
M  V30 18915 H 1802 0.630227 3.82949 0
M  V30 18916 H 1800.1 -1.77288 3.27719 0
M  V30 18917 H 1800.21 -0.601546 4.75309 0
M  V30 18918 H 1798.58 -0.415561 2.51287 0
M  V30 18919 H 1799.36 1.08027 3.25861 0
M  V30 18920 N 1801.8 -1.57568 0.0317802 0
M  V30 18921 C 1802.75 -2.10379 -0.949183 0
M  V30 18922 C 1803.72 -1.00649 -1.32133 0
M  V30 18923 O 1804.91 -1.28084 -1.41418 0
M  V30 18924 C 1802.05 -2.63762 -2.22539 0
M  V30 18925 C 1801.16 -3.87509 -1.90946 0
M  V30 18926 C 1800.29 -4.29276 -3.12882 0
M  V30 18927 C 1799.33 -5.45775 -2.77121 0
M  V30 18928 N 1798.47 -5.82686 -3.9169 0
M  V30 18929 H 1803.31 -2.93912 -0.491922 0
M  V30 18930 H 1800.85 -1.45272 -0.23121 0
M  V30 18931 H 1802.8 -2.92803 -2.9719 0
M  V30 18932 H 1801.43 -1.83055 -2.65877 0
M  V30 18933 H 1800.49 -3.6518 -1.06526 0
M  V30 18934 H 1801.8 -4.72235 -1.6061 0
M  V30 18935 H 1800.95 -4.59768 -3.95851 0
M  V30 18936 H 1799.69 -3.43323 -3.46382 0
M  V30 18937 H 1798.7 -5.14974 -1.92565 0
M  V30 18938 H 1799.92 -6.3343 -2.44834 0
M  V30 18939 H 1797.87 -4.99688 -4.25027 0
M  V30 18940 H 1797.78 -6.62058 -3.64986 0
M  V30 18941 H 1799.05 -6.17785 -4.75355 0
M  V30 18942 N 1803.28 0.241399 -1.5574 0
M  V30 18943 C 1804.51 0.99028 -1.82231 0
M  V30 18944 C 1804.93 1.77949 -0.609559 0
M  V30 18945 O 1804.29 1.75843 0.44148 0
M  V30 18946 C 1804.34 1.89947 -3.06516 0
M  V30 18947 O 1803.44 2.99201 -2.83818 0
M  V30 18948 H 1802.78 0.281488 -0.601382 0
M  V30 18949 H 1805.31 0.260721 -2.02932 0
M  V30 18950 H 1805.32 2.31308 -3.36096 0
M  V30 18951 H 1804 1.31924 -3.94422 0
M  V30 18952 H 1802.58 2.61929 -2.6542 0
M  V30 18953 N 1804.76 1.49212 0.507292 0
M  V30 18954 C 1806.18 1.35835 0.837908 0
M  V30 18955 C 1806.38 0.386634 1.97756 0
M  V30 18956 O 1805.43 -0.183971 2.51829 0
M  V30 18957 C 1806.75 2.76407 1.18404 0
M  V30 18958 C 1808.29 2.85062 1.29262 0
M  V30 18959 C 1808.77 4.26387 1.67208 0
M  V30 18960 N 1810.26 4.29168 1.74268 0
M  V30 18961 C 1810.99 5.35479 2.05061 0
M  V30 18962 N 1810.49 6.52042 2.34121 0
M  V30 18963 N 1812.28 5.2289 2.06259 0
M  V30 18964 H 1804.43 2.1099 -0.244311 0
M  V30 18965 H 1806.7 0.946849 -0.0466977 0
M  V30 18966 H 1806.4 3.49183 0.420053 0
M  V30 18967 H 1806.28 3.11376 2.12896 0
M  V30 18968 H 1808.66 2.12528 2.04734 0
M  V30 18969 H 1808.75 2.53684 0.328359 0
M  V30 18970 H 1808.39 4.99445 0.922884 0
M  V30 18971 H 1808.32 4.55225 2.64723 0
M  V30 18972 H 1810.81 3.45099 1.53996 0
M  V30 18973 H 1811.12 7.2889 2.56787 0
M  V30 18974 H 1809.47 6.55279 2.31591 0
M  V30 18975 H 1812.66 4.30834 1.83028 0
M  V30 18976 H 1812.83 6.05838 2.29923 0
M  V30 18977 N 1806.24 -0.757876 1.38181 0
M  V30 18978 C 1807.15 -1.90234 1.37289 0
M  V30 18979 C 1808.16 -1.71883 0.270567 0
M  V30 18980 O 1809.34 -1.94881 0.508279 0
M  V30 18981 C 1806.41 -3.25546 1.19251 0
M  V30 18982 C 1805.47 -3.56452 2.39249 0
M  V30 18983 C 1804.7 -4.85308 2.22063 0
M  V30 18984 O 1804.92 -5.57373 1.2121 0
M  V30 18985 O 1803.86 -5.15594 3.10558 0
M  V30 18986 H 1807.68 -1.9394 2.33711 0
M  V30 18987 H 1805.27 -0.902559 1.19056 0
M  V30 18988 H 1807.15 -4.06454 1.11235 0
M  V30 18989 H 1805.82 -3.22661 0.259109 0
M  V30 18990 H 1804.73 -2.75723 2.52839 0
M  V30 18991 H 1806.06 -3.64094 3.31205 0
M  V30 18992 N 1807.72 -1.22979 -0.985586 0
M  V30 18993 C 1808.94 -1.08615 -1.76685 0
M  V30 18994 C 1809.37 0.35859 -1.8465 0
M  V30 18995 O 1808.72 1.25924 -1.30433 0
M  V30 18996 C 1808.77 -1.71039 -3.17456 0
M  V30 18997 O 1807.88 -0.969018 -4.00854 0
M  V30 18998 H 1807.22 -0.38103 -0.543794 0
M  V30 18999 H 1809.75 -1.62927 -1.23757 0
M  V30 19000 H 1809.76 -1.76064 -3.68056 0
M  V30 19001 H 1808.43 -2.76168 -3.10973 0
M  V30 19002 H 1807.01 -0.995318 -3.59371 0
M  V30 19003 N 1809.19 1.18355 -1.04066 0
M  V30 19004 C 1810.61 1.40349 -0.759898 0
M  V30 19005 C 1810.81 1.90709 0.650574 0
M  V30 19006 O 1809.87 2.09142 1.41477 0
M  V30 19007 C 1811.18 2.40426 -1.80599 0
M  V30 19008 C 1812.73 2.54153 -1.8269 0
M  V30 19009 C 1813.2 3.57494 -2.8629 0
M  V30 19010 N 1814.69 3.65001 -2.85181 0
M  V30 19011 C 1815.43 4.44688 -3.61995 0
M  V30 19012 N 1814.92 5.27984 -4.48559 0
M  V30 19013 N 1816.72 4.39451 -3.50484 0
M  V30 19014 H 1808.87 0.839924 -1.95087 0
M  V30 19015 H 1811.13 0.431492 -0.844108 0
M  V30 19016 H 1810.84 2.10471 -2.81771 0
M  V30 19017 H 1810.71 3.39773 -1.63812 0
M  V30 19018 H 1813.1 2.83424 -0.821889 0
M  V30 19019 H 1813.18 1.54919 -2.03553 0
M  V30 19020 H 1812.82 3.28963 -3.8697 0
M  V30 19021 H 1812.75 4.56405 -2.62682 0
M  V30 19022 H 1815.24 3.05522 -2.22407 0
M  V30 19023 H 1815.56 5.85939 -5.0388 0
M  V30 19024 H 1813.9 5.27404 -4.52626 0
M  V30 19025 H 1817.09 3.73426 -2.8226 0
M  V30 19026 H 1817.27 5.01313 -4.10596 0
M  V30 19027 N 1810.67 0.820125 1.3458 0
M  V30 19028 C 1811.95 0.329573 1.92803 0
M  V30 19029 C 1812.33 -1.18271 1.74858 0
M  V30 19030 O 1811.68 -1.98851 1.12564 0
M  V30 19031 C 1811.89 0.755833 3.40717 0
M  V30 19032 C 1813.24 0.75306 4.17869 0
M  V30 19033 O 1814.26 0.698235 3.49289 0
M  V30 19034 O 1813.12 0.823708 5.40257 0
M  V30 19035 H 1810.21 0.0893898 0.822155 0
M  V30 19036 H 1812.76 0.904729 1.43571 0
M  V30 19037 H 1811.53 1.79757 3.47568 0
M  V30 19038 H 1811.15 0.15622 3.97293 0
M  V30 19039 N 1812.15 -1.46743 0.574835 0
M  V30 19040 C 1813.1 -2.30224 -0.162908 0
M  V30 19041 C 1814.07 -1.4014 -0.891629 0
M  V30 19042 O 1815.25 -1.69094 -0.883854 0
M  V30 19043 C 1812.39 -3.24456 -1.1757 0
M  V30 19044 C 1811.51 -4.29637 -0.451233 0
M  V30 19045 C 1810.64 -5.11003 -1.45085 0
M  V30 19046 C 1809.68 -6.07941 -0.712353 0
M  V30 19047 N 1808.82 -6.82202 -1.65965 0
M  V30 19048 H 1813.66 -2.92785 0.555063 0
M  V30 19049 H 1811.19 -1.44302 0.285546 0
M  V30 19050 H 1813.15 -3.77526 -1.77567 0
M  V30 19051 H 1811.78 -2.63721 -1.86148 0
M  V30 19052 H 1810.83 -3.79485 0.263623 0
M  V30 19053 H 1812.15 -4.9864 0.126468 0
M  V30 19054 H 1811.3 -5.68311 -2.12386 0
M  V30 19055 H 1810.04 -4.41942 -2.06248 0
M  V30 19056 H 1809.04 -5.49794 -0.0255266 0
M  V30 19057 H 1810.27 -6.79017 -0.106227 0
M  V30 19058 H 1808.21 -6.15858 -2.25953 0
M  V30 19059 H 1808.13 -7.47438 -1.13456 0
M  V30 19060 H 1809.4 -7.44073 -2.32325 0
M  V30 19061 N 1813.63 -0.312197 -1.54477 0
M  V30 19062 C 1814.56 0.592742 -2.21403 0
M  V30 19063 C 1815.57 1.0888 -1.21033 0
M  V30 19064 O 1816.76 1.00433 -1.47565 0
M  V30 19065 C 1813.86 1.82478 -2.85578 0
M  V30 19066 C 1813.04 1.46933 -4.11982 0
M  V30 19067 C 1812.09 2.5577 -4.59857 0
M  V30 19068 O 1811.12 2.20391 -5.24801 0
M  V30 19069 N 1812.32 3.86506 -4.3312 0
M  V30 19070 H 1815.09 0.0197398 -2.99693 0
M  V30 19071 H 1812.65 -0.13489 -1.61337 0
M  V30 19072 H 1814.64 2.54657 -3.14534 0
M  V30 19073 H 1813.21 2.3059 -2.11062 0
M  V30 19074 H 1812.43 0.579677 -3.89915 0
M  V30 19075 H 1813.72 1.20739 -4.94267 0
M  V30 19076 H 1813.12 4.18053 -3.81114 0
M  V30 19077 H 1811.67 4.5495 -4.66759 0
M  V30 19078 N 1815.11 1.57549 -0.040136 0
M  V30 19079 C 1816.05 2.10879 0.938013 0
M  V30 19080 C 1817.02 1.01348 1.31597 0
M  V30 19081 O 1818.21 1.28832 1.40737 0
M  V30 19082 C 1815.35 2.64938 2.21138 0
M  V30 19083 C 1814.46 3.88516 1.88889 0
M  V30 19084 C 1813.6 4.3093 3.10601 0
M  V30 19085 C 1812.64 5.47237 2.74223 0
M  V30 19086 N 1811.77 5.84755 3.88594 0
M  V30 19087 H 1816.61 2.94169 0.476328 0
M  V30 19088 H 1814.15 1.45392 0.223503 0
M  V30 19089 H 1816.11 2.94375 2.95633 0
M  V30 19090 H 1814.74 1.84463 2.64903 0
M  V30 19091 H 1813.79 3.6574 1.04588 0
M  V30 19092 H 1815.1 4.7308 1.58103 0
M  V30 19093 H 1814.26 4.61861 3.93407 0
M  V30 19094 H 1812.99 3.45155 3.44557 0
M  V30 19095 H 1812 5.15988 1.89831 0
M  V30 19096 H 1813.22 6.34719 2.41472 0
M  V30 19097 H 1811.17 5.01935 4.22371 0
M  V30 19098 H 1811.09 6.63984 3.6147 0
M  V30 19099 H 1812.36 6.20297 4.72072 0
M  V30 19100 N 1816.58 -0.233136 1.55866 0
M  V30 19101 C 1817.81 -0.974999 1.82146 0
M  V30 19102 C 1818.22 -1.7891 0.615456 0
M  V30 19103 O 1817.57 -1.78707 -0.42537 0
M  V30 19104 C 1817.63 -1.95048 3.01988 0
M  V30 19105 C 1817.29 -1.32201 4.37461 0
M  V30 19106 C 1818.29 -0.717627 5.14923 0
M  V30 19107 C 1815.97 -1.33725 4.84173 0
M  V30 19108 C 1817.97 -0.136864 6.37253 0
M  V30 19109 C 1815.65 -0.752633 6.06448 0
M  V30 19110 C 1816.65 -0.153484 6.82828 0
M  V30 19111 O 1816.34 0.422063 8.02791 0
M  V30 19112 H 1816.07 -0.291889 0.609735 0
M  V30 19113 H 1818.63 -0.257048 2.03785 0
M  V30 19114 H 1816.86 -2.70711 2.76138 0
M  V30 19115 H 1818.55 -2.55692 3.1524 0
M  V30 19116 H 1819.31 -0.698263 4.79947 0
M  V30 19117 H 1815.19 -1.79298 4.24704 0
M  V30 19118 H 1818.73 0.331417 6.96812 0
M  V30 19119 H 1814.63 -0.769371 6.40899 0
M  V30 19120 H 1815.4 0.315258 8.17893 0
M  V30 19121 N 1818.06 -1.49479 -0.499372 0
M  V30 19122 C 1819.31 -1.59284 -1.25525 0
M  V30 19123 C 1819.64 -0.27941 -1.92179 0
M  V30 19124 O 1818.92 0.717142 -1.80796 0
M  V30 19125 C 1819.2 -2.75323 -2.32098 0
M  V30 19126 C 1819.05 -4.16464 -1.69934 0
M  V30 19127 C 1820.37 -2.86998 -3.33646 0
M  V30 19128 H 1817.49 -0.579768 -0.455015 0
M  V30 19129 H 1820.13 -1.81769 -0.553165 0
M  V30 19130 H 1818.28 -2.56282 -2.91979 0
M  V30 19131 H 1819.96 -4.47026 -1.13867 0
M  V30 19132 H 1818.2 -4.22036 -1.0034 0
M  V30 19133 H 1818.87 -4.93534 -2.47242 0
M  V30 19134 H 1821.35 -3.04337 -2.83757 0
M  V30 19135 H 1820.22 -3.69865 -4.05575 0
M  V30 19136 H 1820.48 -1.96419 -3.9607 0
M  V30 19137 N 1819.54 0.750537 -1.38581 0
M  V30 19138 C 1820.47 1.87411 -1.31946 0
M  V30 19139 C 1821.49 1.61151 -0.231101 0
M  V30 19140 O 1822.68 1.71674 -0.488893 0
M  V30 19141 C 1819.78 3.23112 -1.02233 0
M  V30 19142 C 1818.95 3.76852 -2.22039 0
M  V30 19143 C 1818.01 4.91077 -1.89023 0
M  V30 19144 O 1817.03 5.0555 -2.61549 0
M  V30 19145 N 1818.24 5.74287 -0.847021 0
M  V30 19146 H 1821 1.93613 -2.28767 0
M  V30 19147 H 1818.56 0.930603 -1.32482 0
M  V30 19148 H 1820.55 3.97074 -0.78193 0
M  V30 19149 H 1819.12 3.12277 -0.141981 0
M  V30 19150 H 1818.34 2.94421 -2.62126 0
M  V30 19151 H 1819.63 4.09489 -3.01987 0
M  V30 19152 H 1819.03 5.65166 -0.245635 0
M  V30 19153 H 1817.59 6.48383 -0.666505 0
M  V30 19154 N 1821.02 1.235 0.979051 0
M  V30 19155 C 1821.93 1.03412 2.10578 0
M  V30 19156 C 1822.95 -0.0217644 1.73986 0
M  V30 19157 O 1824.12 0.173977 2.00647 0
M  V30 19158 C 1821.19 0.629192 3.40943 0
M  V30 19159 C 1820.25 1.76028 3.91552 0
M  V30 19160 C 1819.48 1.37457 5.15695 0
M  V30 19161 O 1819.7 0.259393 5.6981 0
M  V30 19162 O 1818.64 2.19614 5.60404 0
M  V30 19163 H 1822.46 1.97845 2.30415 0
M  V30 19164 H 1820.05 1.02218 1.08958 0
M  V30 19165 H 1821.93 0.414372 4.19358 0
M  V30 19166 H 1820.61 -0.286128 3.22433 0
M  V30 19167 H 1819.51 2.02975 3.14248 0
M  V30 19168 H 1820.85 2.65396 4.14519 0
M  V30 19169 N 1822.5 -1.17802 1.04693 0
M  V30 19170 C 1823.41 -2.25298 0.654072 0
M  V30 19171 C 1824.42 -1.70984 -0.32255 0
M  V30 19172 O 1825.6 -2.0063 -0.175904 0
M  V30 19173 C 1822.66 -3.46687 0.0296345 0
M  V30 19174 C 1821.73 -4.16108 1.05606 0
M  V30 19175 C 1820.96 -5.31702 0.461329 0
M  V30 19176 O 1821.18 -5.65701 -0.730679 0
M  V30 19177 O 1820.12 -5.89956 1.19312 0
M  V30 19178 H 1823.94 -2.61179 1.54982 0
M  V30 19179 H 1821.53 -1.25005 0.818182 0
M  V30 19180 H 1823.41 -4.20201 -0.317654 0
M  V30 19181 H 1822.08 -3.12615 -0.839839 0
M  V30 19182 H 1820.99 -3.44635 1.45526 0
M  V30 19183 H 1822.32 -4.54195 1.89651 0
M  V30 19184 N 1823.98 -0.827251 -1.34143 0
M  V30 19185 C 1825.39 -0.513554 -1.51112 0
M  V30 19186 C 1825.59 0.961434 -1.77084 0
M  V30 19187 O 1824.65 1.74573 -1.82429 0
M  V30 19188 C 1825.96 -1.37683 -2.67327 0
M  V30 19189 C 1827.51 -1.3744 -2.8121 0
M  V30 19190 C 1827.98 -2.22226 -4.00474 0
M  V30 19191 N 1829.47 -2.19873 -4.07689 0
M  V30 19192 C 1830.21 -2.82222 -4.99138 0
M  V30 19193 N 1829.71 -3.53578 -5.95781 0
M  V30 19194 N 1831.5 -2.71753 -4.92043 0
M  V30 19195 H 1823.65 -1.78222 -1.15545 0
M  V30 19196 H 1825.91 -0.759711 -0.567047 0
M  V30 19197 H 1825.62 -2.42448 -2.54778 0
M  V30 19198 H 1825.49 -1.0446 -3.62447 0
M  V30 19199 H 1827.88 -0.334525 -2.93198 0
M  V30 19200 H 1827.96 -1.74663 -1.86886 0
M  V30 19201 H 1827.6 -3.26266 -3.89246 0
M  V30 19202 H 1827.53 -1.82352 -4.9402 0
M  V30 19203 H 1830.03 -1.67972 -3.38517 0
M  V30 19204 H 1830.34 -3.98387 -6.62199 0
M  V30 19205 H 1828.68 -3.57685 -5.95892 0
M  V30 19206 H 1831.87 -2.15579 -4.15504 0
M  V30 19207 H 1832.05 -3.2063 -5.63117 0
M  V30 19208 N 1825.45 1.46436 -0.582609 0
M  V30 19209 C 1826.38 2.33089 0.138477 0
M  V30 19210 C 1827.36 1.45339 0.883777 0
M  V30 19211 O 1828.55 1.74156 0.859257 0
M  V30 19212 C 1825.68 3.27611 1.15276 0
M  V30 19213 C 1824.63 4.24801 0.522308 0
M  V30 19214 C 1823.96 5.0883 1.64306 0
M  V30 19215 C 1825.26 5.19496 -0.540449 0
M  V30 19216 H 1826.95 2.93629 -0.585013 0
M  V30 19217 H 1824.5 1.41196 -0.282781 0
M  V30 19218 H 1826.45 3.87087 1.66558 0
M  V30 19219 H 1825.18 2.65177 1.90653 0
M  V30 19220 H 1823.84 3.66587 0.0305728 0
M  V30 19221 H 1823.48 4.42782 2.38649 0
M  V30 19222 H 1823.18 5.74649 1.22686 0
M  V30 19223 H 1824.71 5.7117 2.15864 0
M  V30 19224 H 1826.12 5.73189 -0.112706 0
M  V30 19225 H 1824.52 5.93658 -0.876957 0
M  V30 19226 H 1825.59 4.63434 -1.42677 0
M  V30 19227 O 1826.97 0.46252 1.54735 0
M  V30 19228 H 1827.66 -0.0649612 1.93591 0
M  V30 END ATOM
M  V30 BEGIN BOND
M  V30 END BOND
M  V30 END CTAB
M  END
$$$$
