drugbank_target|Q03431 Parathyroid hormone/parathyroid hormone-related peptide receptor (DB05084; DB05829; DB06285)
 OpenBabel12092120333D

  0  0  0     0  0            999 V3000
M  V30 BEGIN CTAB
M  V30 COUNTS 9325 9457 0 0 0
M  V30 BEGIN ATOM
M  V30 1 H -0.908 1.98254 -0.117106 0
M  V30 2 N 0 1.576 0 0
M  V30 3 C 0.933 2.03868 1.02534 0
M  V30 4 C 1.911 0.928543 1.3348 0
M  V30 5 O 3.095 1.19667 1.45644 0
M  V30 6 C 0.222 2.43627 2.35294 0
M  V30 7 C -0.732 3.65373 2.2001 0
M  V30 8 S 0.101 5.13292 1.52614 0
M  V30 9 C 1.257 5.56322 2.86805 0
M  V30 10 H 1.49 2.90518 0.631377 0
M  V30 11 H -0.977 1.52953 0.210867 0
M  V30 12 H 0.981 2.67203 3.11629 0
M  V30 13 H -0.358 1.57376 2.7183 0
M  V30 14 H -1.165 3.90944 3.18086 0
M  V30 15 H -1.563 3.418 1.51819 0
M  V30 16 H 0.729 5.58782 3.83104 0
M  V30 17 H 1.672 6.56266 2.65933 0
M  V30 18 H 2.08 4.83886 2.90714 0
M  V30 19 N 1.4781 -0.272755 1.55222 0
M  V30 20 C 2.7261 -1.00234 1.75492 0
M  V30 21 C 3.0471 -1.8681 0.5592 0
M  V30 22 O 2.3171 -1.91215 -0.425882 0
M  V30 23 H 0.8971 -0.373076 0.647166 0
M  V30 24 H 3.5591 -0.296926 1.92625 0
M  V30 25 H 2.6551 -1.63913 2.65592 0
M  V30 26 N 2.9562 -1.48159 -0.537278 0
M  V30 27 C 4.1842 -1.59454 -1.31841 0
M  V30 28 C 4.5992 -0.252065 -1.8711 0
M  V30 29 O 3.9562 0.757621 -1.66031 0
M  V30 30 C 4.0072 -2.63546 -2.47439 0
M  V30 31 O 3.7282 -3.92583 -1.94449 0
M  V30 32 C 5.2292 -2.85212 -3.39366 0
M  V30 33 H 2.4492 -0.53785 -0.401196 0
M  V30 34 H 4.9932 -1.93932 -0.648891 0
M  V30 35 H 3.1482 -2.31946 -3.1029 0
M  V30 36 H 3.5622 -4.49629 -2.70063 0
M  V30 37 H 5.0362 -3.61863 -4.16844 0
M  V30 38 H 5.5132 -1.93765 -3.94147 0
M  V30 39 H 6.1192 -3.18086 -2.82314 0
M  V30 40 N 4.4343 0.785586 -1.36625 0
M  V30 41 C 5.3973 1.87999 -1.31107 0
M  V30 42 C 6.3973 1.59316 -0.217959 0
M  V30 43 O 7.5873 1.67656 -0.472977 0
M  V30 44 C 4.7193 3.24861 -1.03334 0
M  V30 45 H 5.9123 1.94307 -2.2844 0
M  V30 46 H 3.4653 0.983813 -1.21453 0
M  V30 47 H 4.2003 3.24235 -0.0647432 0
M  V30 48 H 3.9853 3.4707 -1.82441 0
M  V30 49 H 5.4753 4.04929 -1.02088 0
M  V30 50 N 5.9124 1.20967 1.01018 0
M  V30 51 C 7.3284 0.965905 1.27053 0
M  V30 52 C 7.5284 -0.350785 1.98423 0
M  V30 53 O 6.5844 -1.07773 2.28344 0
M  V30 54 C 7.8974 2.15294 2.09926 0
M  V30 55 C 9.4454 2.19463 2.23171 0
M  V30 56 C 9.9204 3.3767 3.09424 0
M  V30 57 N 11.4114 3.37724 3.17012 0
M  V30 58 C 12.1464 4.25837 3.83993 0
M  V30 59 N 11.6424 5.24138 4.53047 0
M  V30 60 N 13.4354 4.1366 3.80581 0
M  V30 61 H 5.5864 2.0565 0.531194 0
M  V30 62 H 7.8494 0.90024 0.297106 0
M  V30 63 H 7.5554 3.10684 1.64828 0
M  V30 64 H 7.4294 2.13923 3.10672 0
M  V30 65 H 9.8164 1.24632 2.6749 0
M  V30 66 H 9.8974 2.2488 1.21912 0
M  V30 67 H 9.5414 4.32791 2.65808 0
M  V30 68 H 9.4714 3.29491 4.10784 0
M  V30 69 H 11.9624 2.6658 2.6785 0
M  V30 70 H 12.2754 5.87684 5.01844 0
M  V30 71 H 10.6204 5.28068 4.5185 0
M  V30 72 H 13.8114 3.36127 3.25785 0
M  V30 73 H 13.9844 4.82538 4.32505 0
M  V30 74 N 7.3905 -1.2043 1.01659 0
M  V30 75 C 8.6395 -1.89118 0.701237 0
M  V30 76 C 8.9525 -1.79705 -0.772358 0
M  V30 77 O 10.1585 -2.43528 -1.20026 0
M  V30 78 C 8.6145 -3.39168 1.20388 0
M  V30 79 C 8.2225 -3.57166 2.70438 0
M  V30 80 C 9.9665 -4.1341 0.963953 0
M  V30 81 C 7.8735 -5.01042 3.14183 0
M  V30 82 H 6.8035 -0.708267 0.2586 0
M  V30 83 H 9.4545 -1.36239 1.22927 0
M  V30 84 H 7.8365 -3.91369 0.603824 0
M  V30 85 H 9.0105 -3.15351 3.35992 0
M  V30 86 H 7.3255 -2.96294 2.92572 0
M  V30 87 H 9.9225 -5.19491 1.26621 0
M  V30 88 H 10.2655 -4.16181 -0.099578 0
M  V30 89 H 10.7985 -3.67309 1.52738 0
M  V30 90 H 7.5375 -5.03426 4.19812 0
M  V30 91 H 7.0575 -5.43668 2.53348 0
M  V30 92 H 8.7365 -5.69623 3.0682 0
M  V30 93 N 8.8686 -0.792821 -1.36206 0
M  V30 94 C 9.8316 -0.199459 -2.2833 0
M  V30 95 C 10.8316 0.605189 -1.48977 0
M  V30 96 O 12.0216 0.425685 -1.68919 0
M  V30 97 C 9.1536 0.723523 -3.33134 0
M  V30 98 H 10.3466 -1.01181 -2.82316 0
M  V30 99 H 7.8996 -0.562485 -1.45828 0
M  V30 100 H 8.6346 1.56008 -2.84309 0
M  V30 101 H 8.4196 0.148436 -3.91819 0
M  V30 102 H 9.9096 1.13344 -4.01924 0
M  V30 103 N 10.3467 1.47872 -0.545128 0
M  V30 104 C 11.7577 1.86384 -0.108581 0
M  V30 105 C 12.1087 1.45309 1.31832 0
M  V30 106 O 11.2337 0.850641 1.9898 0
M  V30 107 C 11.8287 3.38265 -0.190274 0
M  V30 108 C 10.3877 3.75914 0.191164 0
M  V30 109 C 9.5347 2.71926 -0.543273 0
M  V30 110 H 12.4857 1.39561 -0.755537 0
M  V30 111 H 12.5067 3.75831 0.594217 0
M  V30 112 H 12.0187 3.6813 -1.2289 0
M  V30 113 H 10.1197 3.51665 1.23136 0
M  V30 114 H 10.2327 4.78836 -0.158987 0
M  V30 115 H 8.5967 2.54697 0.0122495 0
M  V30 116 H 9.3797 3.04634 -1.58282 0
M  V30 117 N 11.8248 0.280983 1.55075 0
M  V30 118 C 13.0728 -0.333455 1.9933 0
M  V30 119 C 13.3938 -1.55937 1.17085 0
M  V30 120 O 12.6638 -1.94143 0.261805 0
M  V30 121 H 11.2438 -0.126197 0.736263 0
M  V30 122 H 13.9058 0.387678 1.91005 0
M  V30 123 H 13.0018 -0.619292 3.05894 0
M  V30 124 N 13.3029 -1.57598 0.00835791 0
M  V30 125 C 14.2329 -2.1198 -0.979113 0
M  V30 126 C 15.2139 -1.03091 -1.35301 0
M  V30 127 O 16.3989 -1.30818 -1.43528 0
M  V30 128 C 13.5289 -2.62995 -2.26828 0
M  V30 129 C 12.4829 -3.76485 -2.03576 0
M  V30 130 C 11.8089 -4.13846 -3.38579 0
M  V30 131 C 13.1089 -5.0342 -1.39161 0
M  V30 132 H 14.8029 -2.94738 -0.526281 0
M  V30 133 H 12.3489 -1.41783 -0.251704 0
M  V30 134 H 14.3019 -2.99669 -2.96271 0
M  V30 135 H 13.0259 -1.7737 -2.7424 0
M  V30 136 H 11.6849 -3.40217 -1.36557 0
M  V30 137 H 11.3329 -3.25232 -3.83709 0
M  V30 138 H 11.0329 -4.90312 -3.23834 0
M  V30 139 H 12.5569 -4.53086 -4.09323 0
M  V30 140 H 13.9709 -5.37812 -1.98573 0
M  V30 141 H 12.3679 -5.84746 -1.34878 0
M  V30 142 H 13.4379 -4.83548 -0.361868 0
M  V30 143 N 14.781 0.264519 -1.55364 0
M  V30 144 C 15.744 1.31046 -1.88042 0
M  V30 145 C 16.744 1.41943 -0.755569 0
M  V30 146 O 17.934 1.40947 -1.02369 0
M  V30 147 C 15.066 2.69067 -2.09323 0
M  V30 148 H 16.259 1.03297 -2.81549 0
M  V30 149 H 13.812 0.502989 -1.47986 0
M  V30 150 H 14.547 3.01982 -1.18226 0
M  V30 151 H 14.332 2.62542 -2.91229 0
M  V30 152 H 15.822 3.44623 -2.35848 0
M  V30 153 N 16.2591 1.48442 0.529413 0
M  V30 154 C 17.1891 1.65902 1.64313 0
M  V30 155 C 18.1701 0.507897 1.6234 0
M  V30 156 O 19.3551 0.740503 1.79528 0
M  V30 157 C 16.4851 1.69911 3.02898 0
M  V30 158 C 15.4391 2.8453 3.19729 0
M  V30 159 C 14.7651 2.73629 4.59381 0
M  V30 160 C 16.0651 4.25821 3.02447 0
M  V30 161 H 17.7591 2.5914 1.49955 0
M  V30 162 H 15.3051 1.24709 0.719982 0
M  V30 163 H 17.2581 1.80715 3.80684 0
M  V30 164 H 15.9821 0.732524 3.18279 0
M  V30 165 H 14.6411 2.73283 2.44361 0
M  V30 166 H 14.2891 1.74938 4.71599 0
M  V30 167 H 13.9891 3.50541 4.71588 0
M  V30 168 H 15.5131 2.86401 5.39265 0
M  V30 169 H 16.9271 4.37898 3.70024 0
M  V30 170 H 15.3241 5.03735 3.26146 0
M  V30 171 H 16.3941 4.42244 1.98867 0
M  V30 172 N 17.7372 -0.778329 1.37039 0
M  V30 173 C 18.6672 -1.90546 1.34962 0
M  V30 174 C 19.6482 -1.68681 0.219274 0
M  V30 175 O 20.8332 -1.89634 0.418624 0
M  V30 176 C 17.9632 -3.27734 1.14925 0
M  V30 177 C 16.9172 -3.64147 2.24902 0
M  V30 178 C 16.2432 -4.99806 1.89996 0
M  V30 179 C 17.5432 -3.71579 3.67051 0
M  V30 180 H 19.2372 -1.92541 2.29277 0
M  V30 181 H 16.7832 -0.924948 1.10366 0
M  V30 182 H 18.7362 -4.06215 1.12104 0
M  V30 183 H 17.4602 -3.26154 0.170631 0
M  V30 184 H 16.1192 -2.8797 2.26868 0
M  V30 185 H 15.7672 -4.94759 0.906796 0
M  V30 186 H 15.4672 -5.25139 2.63634 0
M  V30 187 H 16.9912 -5.80694 1.88749 0
M  V30 188 H 18.4052 -4.40227 3.67251 0
M  V30 189 H 16.8022 -4.08405 4.39688 0
M  V30 190 H 17.8722 -2.72404 4.01154 0
M  V30 191 N 19.2153 -1.21501 -1.00376 0
M  V30 192 C 20.1453 -0.999478 -2.11028 0
M  V30 193 C 21.1263 0.0759671 -1.6993 0
M  V30 194 O 22.3113 -0.0841106 -1.94018 0
M  V30 195 C 19.4413 -0.564709 -3.42678 0
M  V30 196 C 18.3953 -1.58486 -3.97576 0
M  V30 197 C 17.7213 -1.00628 -5.25146 0
M  V30 198 C 19.0213 -2.97204 -4.29496 0
M  V30 199 H 20.7153 -1.92495 -2.29317 0
M  V30 200 H 18.2613 -0.92693 -1.102 0
M  V30 201 H 20.2143 -0.401091 -4.19487 0
M  V30 202 H 18.9383 0.396411 -3.24185 0
M  V30 203 H 17.5973 -1.73606 -3.22888 0
M  V30 204 H 17.2453 -0.0368439 -5.02987 0
M  V30 205 H 16.9453 -1.68771 -5.62841 0
M  V30 206 H 18.4693 -0.854015 -6.04598 0
M  V30 207 H 19.8833 -2.8552 -4.97143 0
M  V30 208 H 18.2803 -3.62372 -4.78338 0
M  V30 209 H 19.3503 -3.47956 -3.3772 0
M  V30 210 N 20.6934 1.19889 -1.02296 0
M  V30 211 C 21.9334 1.91125 -0.724602 0
M  V30 212 C 22.2974 1.77464 0.732835 0
M  V30 213 O 23.4984 2.43241 1.144 0
M  V30 214 C 21.7694 3.38187 -1.15604 0
M  V30 215 S 23.3284 4.27702 -0.980621 0
M  V30 216 H 20.1464 0.66018 -0.263976 0
M  V30 217 H 22.7484 1.44978 -1.31155 0
M  V30 218 H 21.4524 3.45653 -2.21251 0
M  V30 219 H 20.9834 3.89363 -0.562131 0
M  V30 220 H 22.9984 4.96073 0.112225 0
M  V30 221 N 22.1715 0.800033 1.35784 0
M  V30 222 C 23.4115 0.382891 2.00782 0
M  V30 223 C 23.7755 -1.02891 1.62103 0
M  V30 224 O 24.9765 -1.54771 2.19771 0
M  V30 225 C 23.2475 0.553299 3.53091 0
M  V30 226 S 24.8065 0.225608 4.3822 0
M  V30 227 H 21.6245 0.145737 0.695904 0
M  V30 228 H 24.2265 1.04085 1.65489 0
M  V30 229 H 22.9305 1.58091 3.78729 0
M  V30 230 H 22.4615 -0.120214 3.93216 0
M  V30 231 H 24.4765 -0.969074 4.86645 0
M  V30 232 N 23.6496 -1.47581 0.552962 0
M  V30 233 C 25.0606 -1.86324 0.118463 0
M  V30 234 C 25.4116 -1.46006 -1.3106 0
M  V30 235 O 24.5366 -0.861182 -1.98526 0
M  V30 236 C 25.1316 -3.3816 0.20821 0
M  V30 237 C 23.6906 -3.7601 -0.171226 0
M  V30 238 C 22.8376 -2.71634 0.557686 0
M  V30 239 H 25.7886 -1.39159 0.762928 0
M  V30 240 H 25.8096 -3.76141 -0.574278 0
M  V30 241 H 25.3216 -3.67473 1.24841 0
M  V30 242 H 23.4226 -3.52313 -1.21269 0
M  V30 243 H 23.5356 -4.78745 0.184379 0
M  V30 244 H 21.8996 -2.547 0.00125792 0
M  V30 245 H 22.6826 -3.0379 1.59896 0
M  V30 246 N 25.1277 -0.289203 -1.54924 0
M  V30 247 C 26.3737 0.323998 -2.00195 0
M  V30 248 C 26.7067 1.54441 -1.17735 0
M  V30 249 O 25.9817 1.92875 -0.250878 0
M  V30 250 C 26.2647 0.692276 -3.53383 0
M  V30 251 C 26.1177 -0.536457 -4.46589 0
M  V30 252 C 27.4367 1.52335 -4.12895 0
M  V30 253 H 24.5557 0.116289 -0.727768 0
M  V30 254 H 27.1977 -0.398954 -1.85764 0
M  V30 255 H 25.3477 1.30822 -3.65811 0
M  V30 256 H 27.0197 -1.17499 -4.46085 0
M  V30 257 H 25.2627 -1.17192 -4.1767 0
M  V30 258 H 25.9337 -0.234806 -5.515 0
M  V30 259 H 28.4097 1.00302 -4.0383 0
M  V30 260 H 27.2857 1.74982 -5.20262 0
M  V30 261 H 27.5467 2.50886 -3.64018 0
M  V30 262 N 26.6058 1.57591 -0.0167156 0
M  V30 263 C 27.5358 2.12496 0.967858 0
M  V30 264 C 28.5168 1.03807 1.34752 0
M  V30 265 O 29.7018 1.31577 1.42833 0
M  V30 266 C 26.8318 2.64194 2.25431 0
M  V30 267 C 25.7858 3.77559 2.01576 0
M  V30 268 C 25.1118 4.15636 3.36379 0
M  V30 269 C 26.4118 5.04151 1.36489 0
M  V30 270 H 28.1058 2.95013 0.510643 0
M  V30 271 H 25.6518 1.41915 0.244181 0
M  V30 272 H 27.6048 3.01236 2.94678 0
M  V30 273 H 26.3288 1.78821 2.73296 0
M  V30 274 H 24.9878 3.40937 1.34751 0
M  V30 275 H 24.6358 3.27263 3.81979 0
M  V30 276 H 24.3358 4.92022 3.21229 0
M  V30 277 H 25.8598 4.5525 4.06915 0
M  V30 278 H 27.2738 5.38857 1.95718 0
M  V30 279 H 25.6708 5.85453 1.31776 0
M  V30 280 H 26.7408 4.83733 0.336219 0
M  V30 281 N 28.0839 -0.256276 1.55502 0
M  V30 282 C 29.3089 -1.00766 1.81276 0
M  V30 283 C 29.7339 -1.78524 0.59252 0
M  V30 284 O 29.0919 -1.75413 -0.45827 0
M  V30 285 C 29.1399 -1.92869 3.04687 0
M  V30 286 O 28.2439 -3.019 2.80945 0
M  V30 287 H 27.5849 -0.287224 0.598664 0
M  V30 288 H 30.1149 -0.280109 2.02674 0
M  V30 289 H 30.1249 -2.34511 3.33869 0
M  V30 290 H 28.7999 -1.35689 3.93143 0
M  V30 291 H 27.3769 -2.64454 2.62904 0
M  V30 292 N 29.562 -1.4872 -0.521534 0
M  V30 293 C 30.787 -1.61101 -1.30618 0
M  V30 294 C 31.212 -0.274611 -1.86085 0
M  V30 295 O 30.57 0.754937 -1.64834 0
M  V30 296 C 30.618 -2.66709 -2.4269 0
M  V30 297 O 29.722 -2.24456 -3.45967 0
M  V30 298 H 29.063 -0.539921 -0.386499 0
M  V30 299 H 31.593 -1.94767 -0.626645 0
M  V30 300 H 31.603 -2.88245 -2.88754 0
M  V30 301 H 30.278 -3.63727 -2.01682 0
M  V30 302 H 28.855 -2.13168 -3.05964 0
M  V30 303 N 31.0401 0.771051 -1.3745 0
M  V30 304 C 32.0031 1.86598 -1.33093 0
M  V30 305 C 33.0031 1.59076 -0.234845 0
M  V30 306 O 34.1931 1.67145 -0.490732 0
M  V30 307 C 31.3251 3.23747 -1.06773 0
M  V30 308 H 32.5181 1.91873 -2.30488 0
M  V30 309 H 30.0711 0.970876 -1.2249 0
M  V30 310 H 30.8061 3.24148 -0.099129 0
M  V30 311 H 30.5911 3.45115 -1.86112 0
M  V30 312 H 32.0811 4.03824 -1.06377 0
M  V30 313 N 32.5182 1.22032 0.997298 0
M  V30 314 C 33.7482 1.06686 1.76923 0
M  V30 315 C 34.1562 -0.385838 1.85224 0
M  V30 316 O 33.4992 -1.27929 1.31833 0
M  V30 317 C 33.5612 1.59802 3.22031 0
M  V30 318 C 33.2252 3.08362 3.37286 0
M  V30 319 C 34.2222 4.05835 3.24952 0
M  V30 320 C 31.9072 3.47727 3.6248 0
M  V30 321 C 33.9012 5.4066 3.37588 0
M  V30 322 C 31.5882 4.82701 3.74757 0
M  V30 323 C 32.5862 5.78977 3.62319 0
M  V30 324 O 32.2742 7.11502 3.74193 0
M  V30 325 H 32.0062 0.374767 0.562606 0
M  V30 326 H 34.5602 1.61991 1.26286 0
M  V30 327 H 32.7902 0.989003 3.73839 0
M  V30 328 H 34.4792 1.40184 3.80924 0
M  V30 329 H 35.2452 3.76766 3.05405 0
M  V30 330 H 31.1242 2.73317 3.7124 0
M  V30 331 H 34.6682 6.15788 3.27796 0
M  V30 332 H 30.5652 5.11453 3.9381 0
M  V30 333 H 31.3332 7.19019 3.91093 0
M  V30 334 N 33.9963 -1.19345 1.0293 0
M  V30 335 C 34.9593 -2.20793 0.615069 0
M  V30 336 C 35.9593 -1.57553 -0.321533 0
M  V30 337 O 37.1493 -1.73862 -0.108483 0
M  V30 338 C 34.2813 -3.40754 -0.0999222 0
M  V30 339 H 35.4743 -2.58955 1.51269 0
M  V30 340 H 33.0273 -1.3303 0.820534 0
M  V30 341 H 33.7623 -3.0811 -1.01187 0
M  V30 342 H 33.5473 -3.87889 0.57309 0
M  V30 343 H 35.0373 -4.15898 -0.376645 0
M  V30 344 N 35.4744 -0.807222 -1.35358 0
M  V30 345 C 36.4044 -0.232509 -2.3234 0
M  V30 346 C 37.3854 0.642386 -1.57504 0
M  V30 347 O 38.5704 0.572526 -1.85569 0
M  V30 348 C 35.7004 0.619238 -3.41735 0
M  V30 349 C 34.6544 -0.157215 -4.27711 0
M  V30 350 C 33.9804 0.816273 -5.28433 0
M  V30 351 C 35.2804 -1.35656 -5.04376 0
M  V30 352 H 36.9744 -1.04276 -2.80654 0
M  V30 353 H 34.5204 -0.50288 -1.34934 0
M  V30 354 H 36.4734 1.03137 -4.08584 0
M  V30 355 H 35.1974 1.46239 -2.92031 0
M  V30 356 H 33.8564 -0.550525 -3.62443 0
M  V30 357 H 33.5044 1.65494 -4.74996 0
M  V30 358 H 33.2044 0.301067 -5.86828 0
M  V30 359 H 34.7284 1.22659 -5.98153 0
M  V30 360 H 36.1424 -1.01927 -5.64166 0
M  V30 361 H 34.5394 -1.8063 -5.7227 0
M  V30 362 H 35.6094 -2.14288 -4.34981 0
M  V30 363 N 36.9525 1.47285 -0.560781 0
M  V30 364 C 38.1985 2.02764 -0.0381184 0
M  V30 365 C 38.5315 1.43384 1.30976 0
M  V30 366 O 37.8065 0.590733 1.85312 0
M  V30 367 C 38.0895 3.60064 0.0511427 0
M  V30 368 C 37.9425 4.2987 -1.32408 0
M  V30 369 C 39.2615 4.33439 0.762795 0
M  V30 370 H 36.3805 0.736841 -0.0153264 0
M  V30 371 H 39.0225 1.75675 -0.723759 0
M  V30 372 H 37.1725 3.83274 0.635065 0
M  V30 373 H 38.8445 4.17989 -1.95148 0
M  V30 374 H 37.0875 3.90085 -1.8978 0
M  V30 375 H 37.7585 5.38478 -1.21431 0
M  V30 376 H 40.2345 4.15243 0.266965 0
M  V30 377 H 39.1105 5.43124 0.794221 0
M  V30 378 H 39.3715 4.02915 1.81966 0
M  V30 379 N 38.4306 0.297415 1.54768 0
M  V30 380 C 39.7076 -0.365847 1.92148 0
M  V30 381 C 40.0876 -1.71975 1.22424 0
M  V30 382 O 39.4356 -2.25666 0.358739 0
M  V30 383 C 39.6456 -0.484056 3.45627 0
M  V30 384 C 40.9936 -0.756594 4.17805 0
M  V30 385 O 42.0176 -0.568007 3.51642 0
M  V30 386 O 40.8766 -1.11863 5.34929 0
M  V30 387 H 37.9706 -0.203919 0.801465 0
M  V30 388 H 40.5166 0.34521 1.66152 0
M  V30 389 H 39.2886 0.467865 3.88493 0
M  V30 390 H 38.9116 -1.24372 3.77647 0
M  V30 391 N 39.9087 -1.5758 0.0250728 0
M  V30 392 C 40.8717 -2.08896 -0.943139 0
M  V30 393 C 41.8717 -1.00321 -1.25668 0
M  V30 394 O 43.0617 -1.26495 -1.19769 0
M  V30 395 C 40.1937 -2.55143 -2.26086 0
M  V30 396 H 41.3867 -2.95723 -0.498775 0
M  V30 397 H 38.9397 -1.54703 -0.222888 0
M  V30 398 H 39.6747 -1.71633 -2.75159 0
M  V30 399 H 39.4597 -3.34461 -2.04641 0
M  V30 400 H 40.9497 -2.95083 -2.95492 0
M  V30 401 N 41.3868 0.248026 -1.55636 0
M  V30 402 C 42.6638 0.998988 -1.68165 0
M  V30 403 C 43.0438 2.03409 -0.564621 0
M  V30 404 O 42.3918 2.24378 0.432076 0
M  V30 405 C 42.6018 1.63334 -3.0842 0
M  V30 406 C 43.9498 2.13562 -3.66983 0
M  V30 407 O 44.9738 1.73277 -3.11213 0
M  V30 408 O 43.8328 2.87526 -4.64749 0
M  V30 409 H 40.9268 0.464933 -0.683935 0
M  V30 410 H 43.4728 0.241902 -1.67967 0
M  V30 411 H 42.2448 0.884583 -3.8117 0
M  V30 412 H 41.8678 2.45666 -3.12624 0
M  V30 413 N 42.8649 1.48995 0.513639 0
M  V30 414 C 44.1419 1.48338 1.27495 0
M  V30 415 C 44.5219 0.204065 2.10111 0
M  V30 416 O 43.8699 -0.813881 2.13514 0
M  V30 417 C 44.0799 2.75498 2.14247 0
M  V30 418 C 45.4279 3.24484 2.73852 0
M  V30 419 O 46.4519 2.76528 2.24523 0
M  V30 420 O 45.3109 4.07974 3.6362 0
M  V30 421 H 42.4049 0.593149 0.576284 0
M  V30 422 H 44.9509 1.61246 0.528948 0
M  V30 423 H 43.7229 3.60109 1.53092 0
M  V30 424 H 43.3459 2.6539 2.96064 0
M  V30 425 N 44.343 -0.763751 1.37857 0
M  V30 426 C 45.589 -1.52483 1.33704 0
M  V30 427 C 45.922 -1.94051 -0.0759612 0
M  V30 428 O 45.197 -1.64675 -1.03501 0
M  V30 429 C 45.48 -2.78441 2.28348 0
M  V30 430 C 45.333 -2.43075 3.78463 0
M  V30 431 C 46.652 -3.80415 2.21298 0
M  V30 432 H 43.771 -0.553169 0.487005 0
M  V30 433 H 46.413 -0.875562 1.68624 0
M  V30 434 H 44.563 -3.33842 1.987 0
M  V30 435 H 46.235 -1.93527 4.18742 0
M  V30 436 H 44.478 -1.75666 3.96641 0
M  V30 437 H 45.149 -3.33149 4.40132 0
M  V30 438 H 47.625 -3.34527 2.47449 0
M  V30 439 H 46.501 -4.66257 2.89647 0
M  V30 440 H 46.762 -4.25262 1.20849 0
M  V30 441 N 45.8211 -1.22559 -0.990812 0
M  V30 442 C 46.7541 -0.940773 -2.07905 0
M  V30 443 C 47.7321 0.117082 -1.62178 0
M  V30 444 O 48.9161 -0.0149506 -1.88494 0
M  V30 445 C 46.0431 -0.415321 -3.36144 0
M  V30 446 C 45.0891 -1.45818 -4.00799 0
M  V30 447 S 45.9221 -3.03219 -4.41382 0
M  V30 448 C 47.0781 -2.52317 -5.72789 0
M  V30 449 H 47.3111 -1.8623 -2.31745 0
M  V30 450 H 44.8441 -1.05688 -1.12558 0
M  V30 451 H 46.8021 -0.118747 -4.10328 0
M  V30 452 H 45.4631 0.485121 -3.10331 0
M  V30 453 H 44.6561 -1.04044 -4.93144 0
M  V30 454 H 44.2581 -1.70356 -3.32949 0
M  V30 455 H 46.5501 -1.93688 -6.49224 0
M  V30 456 H 47.4931 -3.43161 -6.19392 0
M  V30 457 H 47.9011 -1.93529 -5.30289 0
M  V30 458 N 47.2992 1.18797 -1.03562 0
M  V30 459 C 48.5272 1.92599 -0.755869 0
M  V30 460 C 48.9422 1.75886 0.686271 0
M  V30 461 O 48.2992 1.08517 1.46732 0
M  V30 462 C 48.3502 3.44159 -1.10619 0
M  V30 463 O 48.0712 3.60341 -2.4917 0
M  V30 464 C 49.5722 4.3507 -0.850214 0
M  V30 465 H 46.7922 0.611587 -0.276048 0
M  V30 466 H 49.3362 1.50742 -1.38192 0
M  V30 467 H 47.4912 3.83823 -0.525194 0
M  V30 468 H 47.9052 4.54128 -2.62427 0
M  V30 469 H 49.3792 5.39989 -1.14523 0
M  V30 470 H 49.8562 4.38673 0.215176 0
M  V30 471 H 50.4622 4.01097 -1.41426 0
M  V30 472 N 48.7773 0.814389 1.34928 0
M  V30 473 C 49.7243 0.22822 2.29669 0
M  V30 474 C 50.6943 -0.642164 1.53184 0
M  V30 475 O 51.8793 -0.585605 1.81591 0
M  V30 476 C 49.0193 -0.61089 3.3965 0
M  V30 477 C 48.1323 0.280792 4.31086 0
M  V30 478 C 47.2673 -0.567067 5.28165 0
M  V30 479 C 46.3063 0.324531 6.11239 0
M  V30 480 N 45.4433 -0.483756 7.00431 0
M  V30 481 H 50.2833 1.04153 2.79206 0
M  V30 482 H 47.8203 0.525133 1.37407 0
M  V30 483 H 49.7783 -1.11263 4.0209 0
M  V30 484 H 48.4083 -1.38939 2.91369 0
M  V30 485 H 47.4603 0.900688 3.69583 0
M  V30 486 H 48.7723 0.966723 4.89342 0
M  V30 487 H 47.9263 -1.13363 5.96015 0
M  V30 488 H 46.6653 -1.28654 4.70425 0
M  V30 489 H 45.6703 0.903298 5.42329 0
M  V30 490 H 46.8953 1.04198 6.71059 0
M  V30 491 H 44.8413 -1.18706 6.45171 0
M  V30 492 H 44.7583 0.143965 7.55863 0
M  V30 493 H 46.0263 -1.03334 7.7262 0
M  V30 494 N 50.2554 -1.46986 0.568584 0
M  V30 495 C 51.1654 -2.33942 -0.17555 0
M  V30 496 C 52.1814 -1.48891 -0.90041 0
M  V30 497 O 53.3574 -1.81794 -0.86676 0
M  V30 498 C 50.4224 -3.25811 -1.18524 0
M  V30 499 C 49.4834 -4.26757 -0.466582 0
M  V30 500 C 48.7164 -5.14236 -1.42817 0
M  V30 501 O 48.9394 -5.04379 -2.66379 0
M  V30 502 O 47.8734 -5.94412 -0.946453 0
M  V30 503 H 51.6994 -2.98896 0.538036 0
M  V30 504 H 49.2844 -1.4573 0.329097 0
M  V30 505 H 51.1664 -3.82527 -1.76779 0
M  V30 506 H 49.8414 -2.63471 -1.88055 0
M  V30 507 H 48.7484 -3.73769 0.157451 0
M  V30 508 H 50.0814 -4.91843 0.187485 0
M  V30 509 N 51.7335 -0.305618 -1.54608 0
M  V30 510 C 52.6435 0.57778 -2.27374 0
M  V30 511 C 53.6595 1.14451 -1.31061 0
M  V30 512 O 54.8355 1.16831 -1.6405 0
M  V30 513 C 51.9005 1.73123 -3.00382 0
M  V30 514 C 50.9615 1.19812 -4.12242 0
M  V30 515 C 50.1945 2.2966 -4.81759 0
M  V30 516 O 50.4175 3.49651 -4.50666 0
M  V30 517 O 49.3515 1.96091 -5.69062 0
M  V30 518 H 53.1775 -0.012624 -3.03697 0
M  V30 519 H 50.7625 -0.0719184 -1.49227 0
M  V30 520 H 52.6445 2.40315 -3.4616 0
M  V30 521 H 51.3195 2.30815 -2.26949 0
M  V30 522 H 50.2265 0.491798 -3.70853 0
M  V30 523 H 51.5595 0.666566 -4.87666 0
M  V30 524 N 53.2116 1.57565 -0.0334293 0
M  V30 525 C 54.1436 2.0739 0.975811 0
M  V30 526 C 55.1566 0.998166 1.2861 0
M  V30 527 O 56.3456 1.27426 1.25 0
M  V30 528 C 53.4456 2.4871 2.30209 0
M  V30 529 C 52.6186 3.79413 2.17634 0
M  V30 530 C 51.6776 4.07237 3.33233 0
M  V30 531 O 50.7036 4.77425 3.09927 0
M  V30 532 N 51.9056 3.5775 4.5716 0
M  V30 533 H 54.6706 2.94598 0.55066 0
M  V30 534 H 52.2316 1.61173 0.15323 0
M  V30 535 H 54.2236 2.64413 3.06378 0
M  V30 536 H 52.7936 1.66845 2.64351 0
M  V30 537 H 52.0136 3.73465 1.26165 0
M  V30 538 H 53.3016 4.65038 2.0644 0
M  V30 539 H 52.6996 3.00976 4.78989 0
M  V30 540 H 51.2566 3.78724 5.30482 0
M  V30 541 N 54.6897 -0.239769 1.55765 0
M  V30 542 C 55.9387 -0.964754 1.77131 0
M  V30 543 C 56.2517 -1.86213 0.59868 0
M  V30 544 O 57.4577 -2.6244 0.695522 0
M  V30 545 C 55.9137 -1.76552 3.1362 0
M  V30 546 C 55.5217 -0.915185 4.38553 0
M  V30 547 C 57.2657 -2.48281 3.44321 0
M  V30 548 C 55.1727 -1.71225 5.66071 0
M  V30 549 H 54.1027 -0.363953 0.660344 0
M  V30 550 H 56.7537 -0.219181 1.82186 0
M  V30 551 H 55.1357 -2.55331 3.02691 0
M  V30 552 H 56.3097 -0.169217 4.60489 0
M  V30 553 H 54.6247 -0.310889 4.15238 0
M  V30 554 H 57.2217 -3.08382 4.36812 0
M  V30 555 H 57.5647 -3.20256 2.65973 0
M  V30 556 H 58.0977 -1.76507 3.56497 0
M  V30 557 H 54.8367 -1.03612 6.4726 0
M  V30 558 H 54.3567 -2.43331 5.48224 0
M  V30 559 H 56.0357 -2.27758 6.05587 0
M  V30 560 N 56.1678 -1.49265 -0.50573 0
M  V30 561 C 57.4148 -1.58513 -1.26015 0
M  V30 562 C 57.7428 -0.26972 -1.92621 0
M  V30 563 O 56.9978 0.741997 -1.81088 0
M  V30 564 C 57.2968 -2.69008 -2.35308 0
M  V30 565 C 56.9628 -4.10662 -1.86192 0
M  V30 566 C 55.6248 -4.49212 -1.72516 0
M  V30 567 C 57.9768 -4.99336 -1.49375 0
M  V30 568 C 55.3048 -5.74214 -1.20394 0
M  V30 569 C 57.6568 -6.24852 -0.987072 0
M  V30 570 C 56.3208 -6.62236 -0.836669 0
M  V30 571 H 55.5908 -0.580041 -0.461122 0
M  V30 572 H 58.2378 -1.83078 -0.561665 0
M  V30 573 H 56.5428 -2.38396 -3.10926 0
M  V30 574 H 58.2398 -2.73373 -2.93374 0
M  V30 575 H 54.8298 -3.8023 -1.97795 0
M  V30 576 H 59.0138 -4.70212 -1.5879 0
M  V30 577 H 54.2698 -6.01883 -1.07458 0
M  V30 578 H 58.4438 -6.92944 -0.692983 0
M  V30 579 H 56.0708 -7.58979 -0.430607 0
M  V30 580 N 57.6459 0.756429 -1.3826 0
M  V30 581 C 58.5759 1.88374 -1.37976 0
M  V30 582 C 59.5569 1.68311 -0.246082 0
M  V30 583 O 60.7419 1.88944 -0.44874 0
M  V30 584 C 57.8719 3.25864 -1.20125 0
M  V30 585 C 56.8259 3.60523 -2.30666 0
M  V30 586 C 56.1519 4.9672 -1.97923 0
M  V30 587 C 57.4519 3.65692 -3.72916 0
M  V30 588 H 59.1459 1.88869 -2.32312 0
M  V30 589 H 56.6919 0.907272 -1.11824 0
M  V30 590 H 58.6449 4.0438 -1.18552 0
M  V30 591 H 57.3689 3.25841 -0.222498 0
M  V30 592 H 56.0279 2.84324 -2.3142 0
M  V30 593 H 55.6759 4.93253 -0.985393 0
M  V30 594 H 55.3759 5.20878 -2.71955 0
M  V30 595 H 56.8999 5.77618 -1.97964 0
M  V30 596 H 58.3139 4.34328 -3.74208 0
M  V30 597 H 56.7109 4.01358 -4.4613 0
M  V30 598 H 57.7809 2.65987 -4.05436 0
M  V30 599 N 59.124 1.23083 0.984299 0
M  V30 600 C 60.054 1.03292 2.09411 0
M  V30 601 C 61.035 -0.048923 1.7003 0
M  V30 602 O 62.22 0.114967 1.93859 0
M  V30 603 C 59.35 0.619155 3.41736 0
M  V30 604 C 58.304 1.64791 3.95004 0
M  V30 605 C 57.63 1.0897 5.23478 0
M  V30 606 C 58.93 3.03999 4.24714 0
M  V30 607 H 60.624 1.96119 2.26225 0
M  V30 608 H 58.17 0.944344 1.08711 0
M  V30 609 H 60.123 0.467777 4.18796 0
M  V30 610 H 58.847 -0.344786 3.24775 0
M  V30 611 H 57.506 1.78721 3.20085 0
M  V30 612 H 57.154 0.11686 5.02864 0
M  V30 613 H 56.854 1.77704 5.60085 0
M  V30 614 H 58.378 0.950093 6.03163 0
M  V30 615 H 59.792 2.93393 4.92538 0
M  V30 616 H 58.189 3.69936 4.72512 0
M  V30 617 H 59.259 3.53285 3.32142 0
M  V30 618 N 60.6021 -1.18246 1.0419 0
M  V30 619 C 61.5521 -2.19843 0.604392 0
M  V30 620 C 62.5361 -1.56962 -0.353814 0
M  V30 621 O 63.7281 -1.76156 -0.17267 0
M  V30 622 C 60.8571 -3.43287 -0.0298975 0
M  V30 623 C 59.9431 -4.13288 0.951531 0
M  V30 624 N 60.3341 -4.59271 2.11906 0
M  V30 625 C 58.6321 -4.39165 0.7778 0
M  V30 626 C 59.3331 -5.13173 2.73912 0
M  V30 627 N 58.3091 -5.04763 2.01779 0
M  V30 628 H 62.1111 -2.53089 1.4941 0
M  V30 629 H 59.6251 -1.34465 0.910658 0
M  V30 630 H 61.6221 -4.15334 -0.361037 0
M  V30 631 H 60.2821 -3.11537 -0.915127 0
M  V30 632 H 61.2931 -4.5368 2.49789 0
M  V30 633 H 57.9701 -4.17461 -0.0572331 0
M  V30 634 H 59.3601 -5.58947 3.72864 0
M  V30 635 N 62.0802 -0.821533 -1.34494 0
M  V30 636 C 63.4962 -0.507117 -1.51329 0
M  V30 637 C 63.6962 0.968964 -1.76673 0
M  V30 638 O 62.7522 1.75348 -1.81685 0
M  V30 639 C 64.0652 -1.36544 -2.67911 0
M  V30 640 C 65.6132 -1.36242 -2.81793 0
M  V30 641 C 66.0882 -2.2052 -4.01416 0
M  V30 642 N 67.5792 -2.18136 -4.08621 0
M  V30 643 C 68.3142 -2.80095 -5.00334 0
M  V30 644 N 67.8102 -3.51039 -5.9728 0
M  V30 645 N 69.6032 -2.69656 -4.93196 0
M  V30 646 H 61.7542 -1.77729 -1.16302 0
M  V30 647 H 64.0172 -0.757291 -0.570276 0
M  V30 648 H 63.7232 -2.41361 -2.55808 0
M  V30 649 H 63.5972 -1.02917 -3.62888 0
M  V30 650 H 65.9842 -0.322041 -2.93338 0
M  V30 651 H 66.0652 -1.73866 -1.87628 0
M  V30 652 H 65.7092 -3.24607 -3.90631 0
M  V30 653 H 65.6392 -1.80247 -4.94791 0
M  V30 654 H 68.1302 -1.6653 -3.39229 0
M  V30 655 H 68.4432 -3.95565 -6.63889 0
M  V30 656 H 66.7882 -3.55145 -5.97409 0
M  V30 657 H 69.9792 -2.13808 -4.16418 0
M  V30 658 H 70.1522 -3.1823 -5.64476 0
M  V30 659 N 63.5583 1.46682 -0.576371 0
M  V30 660 C 64.5213 2.28707 0.150239 0
M  V30 661 C 65.5213 1.38035 0.824794 0
M  V30 662 O 66.7113 1.60476 0.677719 0
M  V30 663 C 63.8433 3.18248 1.22192 0
M  V30 664 H 65.0363 2.94423 -0.570521 0
M  V30 665 H 62.5893 1.52688 -0.334078 0
M  V30 666 H 63.3243 2.57265 1.97447 0
M  V30 667 H 63.1093 3.85 0.742812 0
M  V30 668 H 64.5993 3.80001 1.73172 0
M  V30 669 N 65.0364 0.313813 1.54444 0
M  V30 670 C 65.9684 -0.590425 2.21465 0
M  V30 671 C 66.9814 -1.08753 1.21147 0
M  V30 672 O 68.1704 -1.00278 1.4767 0
M  V30 673 C 65.2704 -1.82179 2.85769 0
M  V30 674 C 64.4434 -1.46502 4.12136 0
M  V30 675 C 63.5024 -2.55288 4.60124 0
M  V30 676 O 62.5284 -2.19842 5.25032 0
M  V30 677 N 63.7304 -3.86053 4.33525 0
M  V30 678 H 66.4954 -0.0166033 2.99695 0
M  V30 679 H 64.0564 0.136578 1.61323 0
M  V30 680 H 66.0484 -2.54328 3.14801 0
M  V30 681 H 64.6184 -2.30369 2.11303 0
M  V30 682 H 63.8384 -0.575595 3.89975 0
M  V30 683 H 65.1264 -1.20221 4.94393 0
M  V30 684 H 64.5244 -4.17654 3.81552 0
M  V30 685 H 63.0814 -4.54461 4.67235 0
M  V30 686 N 66.5145 -1.57545 0.0417849 0
M  V30 687 C 67.4775 -2.09885 -0.92093 0
M  V30 688 C 68.4775 -1.01648 -1.24596 0
M  V30 689 O 69.6675 -1.27759 -1.1842 0
M  V30 690 C 66.7995 -2.57527 -2.23367 0
M  V30 691 H 67.9925 -2.96236 -0.467382 0
M  V30 692 H 65.5455 -1.5493 -0.206467 0
M  V30 693 H 66.2805 -1.74542 -2.73323 0
M  V30 694 H 66.0655 -3.36613 -2.01083 0
M  V30 695 H 67.5555 -2.98201 -2.92346 0
M  V30 696 N 67.9926 0.231505 -1.5589 0
M  V30 697 C 68.9246 1.31006 -1.8807 0
M  V30 698 C 69.9376 1.43539 -0.768145 0
M  V30 699 O 71.1266 1.44614 -1.04638 0
M  V30 700 C 68.2266 2.68688 -2.06543 0
M  V30 701 C 67.3996 2.78228 -3.37502 0
M  V30 702 C 66.4586 3.96857 -3.4553 0
M  V30 703 O 65.4846 3.85662 -4.18633 0
M  V30 704 N 66.6866 5.1072 -2.75944 0
M  V30 705 H 69.4516 1.03731 -2.81176 0
M  V30 706 H 67.0126 0.421573 -1.56315 0
M  V30 707 H 69.0046 3.46412 -2.09239 0
M  V30 708 H 67.5746 2.88605 -1.20109 0
M  V30 709 H 66.7946 1.87059 -3.46991 0
M  V30 710 H 68.0826 2.81564 -4.23791 0
M  V30 711 H 67.4806 5.2271 -2.16311 0
M  V30 712 H 66.0376 5.86523 -2.84314 0
M  V30 713 N 69.4707 1.49531 0.497807 0
M  V30 714 C 70.7107 1.60799 1.26187 0
M  V30 715 C 71.0747 0.289627 1.89803 0
M  V30 716 O 72.2757 0.277512 2.67364 0
M  V30 717 C 70.5467 2.73729 2.29798 0
M  V30 718 S 72.1057 3.04968 3.155 0
M  V30 719 H 68.9237 0.567145 0.428798 0
M  V30 720 H 71.5257 1.87204 0.563477 0
M  V30 721 H 70.2297 3.68036 1.81597 0
M  V30 722 H 69.7607 2.49328 3.04301 0
M  V30 723 H 71.7757 2.46735 4.30507 0
M  V30 724 N 70.9488 -0.749086 1.3866 0
M  V30 725 C 71.8588 -1.89358 1.38494 0
M  V30 726 C 72.8748 -1.71708 0.281476 0
M  V30 727 O 74.0508 -1.94554 0.520643 0
M  V30 728 C 71.1158 -3.24782 1.21316 0
M  V30 729 C 70.1768 -3.54926 2.41508 0
M  V30 730 C 69.4098 -4.83888 2.2514 0
M  V30 731 O 69.6328 -5.56592 1.24746 0
M  V30 732 O 68.5668 -5.13612 3.13826 0
M  V30 733 H 72.3928 -1.92452 2.34938 0
M  V30 734 H 69.9778 -0.894981 1.19626 0
M  V30 735 H 71.8598 -4.05739 1.13814 0
M  V30 736 H 70.5348 -3.2249 0.279592 0
M  V30 737 H 69.4418 -2.74112 2.54585 0
M  V30 738 H 70.7748 -3.61983 3.3351 0
M  V30 739 N 72.4269 -1.23603 -0.977757 0
M  V30 740 C 73.3739 -1.01954 -2.07061 0
M  V30 741 C 74.3439 0.0638697 -1.65977 0
M  V30 742 O 75.5289 -0.0887624 -1.90593 0
M  V30 743 C 72.6689 -0.619658 -3.39491 0
M  V30 744 C 71.7819 -1.77547 -3.93829 0
M  V30 745 C 70.9169 -1.32212 -5.14484 0
M  V30 746 C 69.9559 -2.44852 -5.60994 0
M  V30 747 N 69.0929 -2.00456 -6.72876 0
M  V30 748 H 73.9329 -1.95495 -2.24913 0
M  V30 749 H 71.4699 -0.973861 -1.10247 0
M  V30 750 H 73.4279 -0.368898 -4.15566 0
M  V30 751 H 72.0579 0.278752 -3.21594 0
M  V30 752 H 71.1099 -2.14016 -3.14486 0
M  V30 753 H 72.4219 -2.62219 -4.24314 0
M  V30 754 H 71.5759 -1.02965 -5.97899 0
M  V30 755 H 70.3149 -0.445808 -4.85658 0
M  V30 756 H 69.3199 -2.74871 -4.76157 0
M  V30 757 H 70.5449 -3.33024 -5.91837 0
M  V30 758 H 68.4909 -1.15208 -6.45804 0
M  V30 759 H 68.4079 -2.78687 -7.02759 0
M  V30 760 H 69.6759 -1.7432 -7.59758 0
M  V30 761 N 73.905 1.17692 -1.04816 0
M  V30 762 C 75.321 1.39863 -0.768794 0
M  V30 763 C 75.521 1.91118 0.638451 0
M  V30 764 O 74.577 2.10036 1.40146 0
M  V30 765 C 75.89 2.39274 -1.82122 0
M  V30 766 C 77.438 2.52987 -1.843 0
M  V30 767 C 77.913 3.55669 -2.88555 0
M  V30 768 N 79.404 3.63183 -2.87493 0
M  V30 769 C 80.139 4.42381 -3.64811 0
M  V30 770 N 79.635 5.25125 -4.51903 0
M  V30 771 N 81.428 4.37217 -3.53267 0
M  V30 772 H 73.579 0.82752 -1.95617 0
M  V30 773 H 75.842 0.426123 -0.846831 0
M  V30 774 H 75.548 2.08678 -2.83102 0
M  V30 775 H 75.422 3.38725 -1.65967 0
M  V30 776 H 77.809 2.82896 -0.839869 0
M  V30 777 H 77.89 1.53623 -2.04532 0
M  V30 778 H 77.534 3.26499 -3.89051 0
M  V30 779 H 77.464 4.54728 -2.65575 0
M  V30 780 H 79.955 3.04103 -2.24343 0
M  V30 781 H 80.268 5.82728 -5.07591 0
M  V30 782 H 78.613 5.24519 -4.55966 0
M  V30 783 H 81.804 3.71626 -2.84625 0
M  V30 784 H 81.977 4.98696 -4.13771 0
M  V30 785 N 75.3831 0.828654 1.34056 0
M  V30 786 C 76.3131 0.269443 2.3194 0
M  V30 787 C 77.2941 -0.617247 1.58506 0
M  V30 788 O 78.4791 -0.542931 1.86456 0
M  V30 789 C 75.6091 -0.564793 3.42677 0
M  V30 790 C 74.5631 0.225241 4.27407 0
M  V30 791 C 73.8891 -0.7321 5.29664 0
M  V30 792 C 75.1891 1.43663 5.02154 0
M  V30 793 H 76.8831 1.08728 2.7896 0
M  V30 794 H 74.4291 0.524283 1.34117 0
M  V30 795 H 76.3821 -0.966233 4.10173 0
M  V30 796 H 75.1061 -1.41574 2.9432 0
M  V30 797 H 73.7651 0.608117 3.61521 0
M  V30 798 H 73.4131 -1.57916 4.77568 0
M  V30 799 H 73.1131 -0.20767 5.87233 0
M  V30 800 H 74.6371 -1.13128 6.00029 0
M  V30 801 H 76.0511 1.1089 5.62473 0
M  V30 802 H 74.4481 1.89711 5.69324 0
M  V30 803 H 75.5181 2.21181 4.31517 0
M  V30 804 N 76.8612 -1.46375 0.584142 0
M  V30 805 C 77.8082 -2.30323 -0.148286 0
M  V30 806 C 78.7782 -1.40703 -0.882713 0
M  V30 807 O 79.9632 -1.69651 -0.873099 0
M  V30 808 C 77.1032 -3.25196 -1.15507 0
M  V30 809 C 76.2162 -4.29915 -0.423943 0
M  V30 810 C 75.3512 -5.11914 -1.41838 0
M  V30 811 C 74.3902 -6.08381 -0.673736 0
M  V30 812 N 73.5272 -6.83242 -1.6163 0
M  V30 813 H 78.3672 -2.92427 0.573644 0
M  V30 814 H 75.9042 -1.44118 0.294703 0
M  V30 815 H 77.8622 -3.78646 -1.75166 0
M  V30 816 H 76.4922 -2.64898 -1.8447 0
M  V30 817 H 75.5442 -3.7931 0.287714 0
M  V30 818 H 76.8562 -4.98549 0.158128 0
M  V30 819 H 76.0102 -5.69648 -2.08773 0
M  V30 820 H 74.7492 -4.43243 -2.03438 0
M  V30 821 H 73.7542 -5.49799 0.00938483 0
M  V30 822 H 74.9792 -6.79071 -0.0631082 0
M  V30 823 H 72.9252 -6.1728 -2.22038 0
M  V30 824 H 72.8422 -7.48144 -1.08707 0
M  V30 825 H 74.1102 -7.45534 -2.27596 0
M  V30 826 N 78.3393 -0.321999 -1.54275 0
M  V30 827 C 79.2493 0.553631 -2.27974 0
M  V30 828 C 80.2653 1.13054 -1.32268 0
M  V30 829 O 81.4413 1.15084 -1.6528 0
M  V30 830 C 78.5063 1.69927 -3.02201 0
M  V30 831 C 77.5673 1.15433 -4.1349 0
M  V30 832 C 76.8003 2.24537 -4.84168 0
M  V30 833 O 77.0233 3.44852 -4.5435 0
M  V30 834 O 75.9573 1.90044 -5.7111 0
M  V30 835 H 79.7833 -0.0448345 -3.03667 0
M  V30 836 H 77.3683 -0.0877418 -1.49142 0
M  V30 837 H 79.2503 2.3663 -3.48689 0
M  V30 838 H 77.9253 2.28395 -2.29385 0
M  V30 839 H 76.8323 0.452436 -3.71354 0
M  V30 840 H 78.1653 0.614805 -4.88345 0
M  V30 841 N 79.8174 1.5752 -0.0501392 0
M  V30 842 C 81.0634 1.92936 0.624798 0
M  V30 843 C 81.3964 0.928685 1.70555 0
M  V30 844 O 80.6714 -0.0454779 1.94447 0
M  V30 845 C 80.9544 3.38737 1.22185 0
M  V30 846 C 80.8074 4.49552 0.149218 0
M  V30 847 C 82.1264 3.84913 2.13378 0
M  V30 848 H 79.2454 0.701604 0.225657 0
M  V30 849 H 81.8874 1.89671 -0.111693 0
M  V30 850 H 80.0374 3.4165 1.84953 0
M  V30 851 H 81.7094 4.58768 -0.482648 0
M  V30 852 H 79.9524 4.30638 -0.522841 0
M  V30 853 H 80.6234 5.48653 0.606966 0
M  V30 854 H 83.0994 3.8387 1.60572 0
M  V30 855 H 81.9754 4.87584 2.52097 0
M  V30 856 H 82.2364 3.21611 3.03346 0
M  V30 857 N 81.2955 -0.223234 1.56011 0
M  V30 858 C 82.2255 -1.27988 1.95298 0
M  V30 859 C 83.2065 -1.48976 0.820979 0
M  V30 860 O 84.3915 -1.61188 1.08315 0
M  V30 861 C 81.5215 -2.63 2.26822 0
M  V30 862 C 80.4755 -2.56671 3.42497 0
M  V30 863 C 79.8015 -3.95697 3.59622 0
M  V30 864 C 81.1015 -2.11601 4.77517 0
M  V30 865 H 82.7955 -0.953525 2.8381 0
M  V30 866 H 80.3415 -0.457244 1.36548 0
M  V30 867 H 82.2945 -3.37077 2.52898 0
M  V30 868 H 81.0185 -2.9732 1.35161 0
M  V30 869 H 79.6775 -1.85051 3.16467 0
M  V30 870 H 79.3255 -4.27322 2.6534 0
M  V30 871 H 79.0255 -3.92345 4.37424 0
M  V30 872 H 80.5495 -4.71438 3.88044 0
M  V30 873 H 81.9635 -2.7542 5.02809 0
M  V30 874 H 80.3605 -2.19311 5.5859 0
M  V30 875 H 81.4305 -1.06824 4.72987 0
M  V30 876 N 82.7736 -1.49793 -0.48987 0
M  V30 877 C 83.7056 -1.63413 -1.60713 0
M  V30 878 C 84.7186 -0.516329 -1.54395 0
M  V30 879 O 85.9076 -0.788812 -1.60125 0
M  V30 880 C 83.0076 -1.58516 -2.99543 0
M  V30 881 C 82.1806 -2.86016 -3.30928 0
M  V30 882 C 81.2396 -2.74018 -4.49222 0
M  V30 883 O 80.2656 -3.47964 -4.50455 0
M  V30 884 N 81.4676 -1.86309 -5.4979 0
M  V30 885 H 84.2326 -2.59777 -1.49452 0
M  V30 886 H 81.7936 -1.47022 -0.677955 0
M  V30 887 H 83.7856 -1.48128 -3.76617 0
M  V30 888 H 82.3556 -0.69965 -3.0467 0
M  V30 889 H 81.5756 -3.10672 -2.42645 0
M  V30 890 H 82.8636 -3.70521 -3.487 0
M  V30 891 H 82.2616 -1.2551 -5.51601 0
M  V30 892 H 80.8186 -1.81837 -6.25922 0
M  V30 893 N 84.2517 0.741722 -1.39055 0
M  V30 894 C 85.6677 1.04638 -1.20512 0
M  V30 895 C 85.8677 2.01405 -0.0620218 0
M  V30 896 O 84.9237 2.45547 0.588457 0
M  V30 897 C 86.2367 1.6151 -2.53643 0
M  V30 898 C 87.7847 1.73623 -2.6043 0
M  V30 899 C 88.2597 2.33906 -3.93767 0
M  V30 900 N 89.7507 2.41323 -3.9537 0
M  V30 901 C 90.4857 2.88888 -4.95309 0
M  V30 902 N 89.9817 3.36401 -6.05645 0
M  V30 903 N 91.7747 2.88037 -4.82692 0
M  V30 904 H 83.9257 0.0998155 -2.12165 0
M  V30 905 H 86.1887 0.106907 -0.941953 0
M  V30 906 H 85.8947 0.978739 -3.37807 0
M  V30 907 H 85.7687 2.60411 -2.72885 0
M  V30 908 H 88.1557 2.36384 -1.76655 0
M  V30 909 H 88.2367 0.733945 -2.45045 0
M  V30 910 H 87.8807 1.71776 -4.7797 0
M  V30 911 H 87.8107 3.34799 -4.06469 0
M  V30 912 H 90.3017 2.07734 -3.15682 0
M  V30 913 H 90.6147 3.71186 -6.77821 0
M  V30 914 H 88.9597 3.34427 -6.09248 0
M  V30 915 H 92.1507 2.50237 -3.95599 0
M  V30 916 H 92.3237 3.24792 -5.60726 0
M  V30 917 N 85.7298 1.2412 0.971189 0
M  V30 918 C 87.1408 1.07236 1.52831 0
M  V30 919 C 87.4918 -0.357352 1.92918 0
M  V30 920 O 86.6168 -1.24528 1.76979 0
M  V30 921 C 87.2118 1.94043 2.77728 0
M  V30 922 C 85.7708 1.81394 3.29808 0
M  V30 923 C 84.9178 1.89189 2.02738 0
M  V30 924 H 87.8688 1.37648 0.789864 0
M  V30 925 H 87.8898 1.47066 3.5093 0
M  V30 926 H 87.4018 2.98093 2.4852 0
M  V30 927 H 85.5028 0.801634 3.63874 0
M  V30 928 H 85.6158 2.65294 3.98944 0
M  V30 929 H 83.9798 1.32877 2.17292 0
M  V30 930 H 84.7628 2.94812 1.759 0
M  V30 931 N 87.2079 -1.17134 1.05439 0
M  V30 932 C 88.1709 -2.19439 0.661764 0
M  V30 933 C 89.1709 -1.58199 -0.288042 0
M  V30 934 O 90.3609 -1.74053 -0.0715803 0
M  V30 935 C 87.4929 -3.40889 -0.0276209 0
M  V30 936 H 88.6859 -2.55688 1.56728 0
M  V30 937 H 86.2389 -1.31259 0.848567 0
M  V30 938 H 86.9739 -3.10187 -0.94629 0
M  V30 939 H 86.7589 -3.86586 0.655238 0
M  V30 940 H 88.2489 -4.16603 -0.288342 0
M  V30 941 N 88.686 -0.835752 -1.33615 0
M  V30 942 C 89.911 -0.442389 -2.02627 0
M  V30 943 C 90.336 0.947735 -1.62479 0
M  V30 944 O 89.694 1.61907 -0.815826 0
M  V30 945 C 89.742 -0.567216 -3.56111 0
M  V30 946 O 88.846 0.407799 -4.10379 0
M  V30 947 H 88.187 -0.180278 -0.639059 0
M  V30 948 H 90.717 -1.12972 -1.70583 0
M  V30 949 H 90.727 -0.447708 -4.05536 0
M  V30 950 H 89.402 -1.58103 -3.84677 0
M  V30 951 H 87.979 0.246107 -3.72087 0
M  V30 952 N 90.1641 1.46063 -0.591896 0
M  V30 953 C 91.4131 2.01547 -0.0786637 0
M  V30 954 C 91.7261 1.46796 1.29268 0
M  V30 955 O 92.9321 1.94157 1.89777 0
M  V30 956 C 91.3881 3.59787 -0.0900024 0
M  V30 957 C 90.9961 4.23534 -1.46023 0
M  V30 958 C 92.7401 4.22895 0.368806 0
M  V30 959 C 90.6471 5.73881 -1.4288 0
M  V30 960 H 89.5771 0.753564 -0.0256388 0
M  V30 961 H 92.2281 1.677 -0.744905 0
M  V30 962 H 90.6101 3.90752 0.642586 0
M  V30 963 H 91.7841 4.04167 -2.21328 0
M  V30 964 H 90.0991 3.72558 -1.85982 0
M  V30 965 H 92.6961 5.33116 0.411258 0
M  V30 966 H 93.0391 3.9247 1.38827 0
M  V30 967 H 93.5721 3.9659 -0.31001 0
M  V30 968 H 90.3111 6.0898 -2.42536 0
M  V30 969 H 89.8311 5.95486 -0.718095 0
M  V30 970 H 91.5101 6.36776 -1.14565 0
M  V30 971 N 91.6422 0.330177 1.54103 0
M  V30 972 C 92.5752 -0.575477 2.20825 0
M  V30 973 C 93.5532 -1.11064 1.18758 0
M  V30 974 O 94.7372 -1.17341 1.47524 0
M  V30 975 C 91.8642 -1.79032 2.87516 0
M  V30 976 C 90.9102 -1.38581 4.03358 0
M  V30 977 S 91.7432 -0.416911 5.33875 0
M  V30 978 C 92.8992 -1.63889 6.04062 0
M  V30 979 H 93.1322 -0.00872114 2.97299 0
M  V30 980 H 90.6652 0.114254 1.53977 0
M  V30 981 H 92.6232 -2.48734 3.2656 0
M  V30 982 H 91.2842 -2.32827 2.10832 0
M  V30 983 H 90.4772 -2.29123 4.48908 0
M  V30 984 H 90.0792 -0.768419 3.66021 0
M  V30 985 H 92.3712 -2.57536 6.26643 0
M  V30 986 H 93.3142 -1.22542 6.97416 0
M  V30 987 H 93.7222 -1.82887 5.34053 0
M  V30 988 N 93.1203 -1.57491 0.0584922 0
M  V30 989 C 94.0303 -2.15448 -0.928414 0
M  V30 990 C 95.0463 -1.11416 -1.3365 0
M  V30 991 O 96.2223 -1.4362 -1.41193 0
M  V30 992 C 93.2873 -2.69393 -2.18239 0
M  V30 993 C 92.3483 -3.88249 -1.83196 0
M  V30 994 C 91.5813 -4.39613 -3.02616 0
M  V30 995 O 91.8043 -3.90023 -4.16219 0
M  V30 996 O 90.7383 -5.31111 -2.83204 0
M  V30 997 H 94.5643 -3.00112 -0.465483 0
M  V30 998 H 92.1493 -1.48499 -0.163826 0
M  V30 999 H 94.0313 -3.04026 -2.91798 0
M  V30 1000 H 92.7063 -1.87796 -2.63656 0
M  V30 1001 H 91.6133 -3.58492 -1.06931 0
M  V30 1002 H 92.9463 -4.71098 -1.42573 0
M  V30 1003 N 94.5984 0.214957 -1.56127 0
M  V30 1004 C 95.8234 0.95924 -1.83884 0
M  V30 1005 C 96.2484 1.7689 -0.639644 0
M  V30 1006 O 95.6064 1.76566 0.411601 0
M  V30 1007 C 95.6544 1.84723 -3.09693 0
M  V30 1008 O 94.7584 2.94346 -2.8885 0
M  V30 1009 H 94.0994 0.27125 -0.606069 0
M  V30 1010 H 96.6294 0.226276 -2.03345 0
M  V30 1011 H 96.6394 2.25576 -3.39969 0
M  V30 1012 H 95.3144 1.25218 -3.96602 0
M  V30 1013 H 93.8914 2.57391 -2.69823 0
M  V30 1014 N 96.0765 1.50051 0.48192 0
M  V30 1015 C 97.3535 1.51009 1.2432 0
M  V30 1016 C 97.7335 0.248587 2.09631 0
M  V30 1017 O 97.0815 -0.768409 2.15192 0
M  V30 1018 C 97.2915 2.79981 2.08355 0
M  V30 1019 C 98.6395 3.3022 2.66908 0
M  V30 1020 O 99.6635 2.81228 2.18607 0
M  V30 1021 O 98.5225 4.15595 3.54884 0
M  V30 1022 H 95.6165 0.605239 0.563573 0
M  V30 1023 H 98.1625 1.62332 0.494627 0
M  V30 1024 H 96.9345 3.63275 1.45419 0
M  V30 1025 H 96.5575 2.7161 2.90368 0
M  V30 1026 N 97.5546 -0.734337 1.39446 0
M  V30 1027 C 98.5016 -1.84835 1.38219 0
M  V30 1028 C 99.4716 -1.64331 0.24179 0
M  V30 1029 O 100.657 -1.85728 0.437002 0
M  V30 1030 C 97.7966 -3.22355 1.23212 0
M  V30 1031 C 96.9096 -3.5456 2.46801 0
M  V30 1032 C 96.0446 -4.81485 2.24377 0
M  V30 1033 C 95.0836 -5.06536 3.43639 0
M  V30 1034 N 94.2206 -6.24665 3.20528 0
M  V30 1035 H 99.0606 -1.85219 2.33448 0
M  V30 1036 H 96.5976 -0.905039 1.15963 0
M  V30 1037 H 98.5556 -4.0174 1.12522 0
M  V30 1038 H 97.1856 -3.21248 0.316121 0
M  V30 1039 H 96.2376 -2.69872 2.68092 0
M  V30 1040 H 97.5496 -3.6899 3.3563 0
M  V30 1041 H 96.7036 -5.68852 2.10933 0
M  V30 1042 H 95.4426 -4.6923 1.32944 0
M  V30 1043 H 94.4476 -4.17632 3.5758 0
M  V30 1044 H 95.6726 -5.20676 4.35974 0
M  V30 1045 H 93.6186 -6.13696 2.3176 0
M  V30 1046 H 93.5356 -6.39685 4.02913 0
M  V30 1047 H 94.8036 -7.14868 3.10779 0
M  V30 1048 N 99.0327 -1.24633 -0.964593 0
M  V30 1049 C 100.281 -1.08573 -1.70459 0
M  V30 1050 C 100.602 0.375655 -1.91347 0
M  V30 1051 O 99.8717 1.26779 -1.49345 0
M  V30 1052 H 98.4517 -0.398784 -0.631649 0
M  V30 1053 H 101.114 -1.56601 -1.16026 0
M  V30 1054 H 100.21 -1.58623 -2.68785 0
M  V30 1055 N 100.511 1.16574 -1.06058 0
M  V30 1056 C 101.757 1.87565 -0.78683 0
M  V30 1057 C 102.112 1.80012 0.679214 0
M  V30 1058 O 101.405 1.20327 1.49104 0
M  V30 1059 C 101.599 3.36195 -1.21275 0
M  V30 1060 C 101.428 3.58216 -2.71866 0
M  V30 1061 C 100.198 3.7444 -3.39298 0
M  V30 1062 C 102.396 3.57134 -3.70081 0
M  V30 1063 N 100.378 3.84389 -4.78663 0
M  V30 1064 C 101.749 3.73038 -4.9522 0
M  V30 1065 C 103.804 3.40332 -3.63426 0
M  V30 1066 C 102.507 3.73879 -6.14497 0
M  V30 1067 C 104.533 3.42466 -4.82153 0
M  V30 1068 C 103.895 3.58887 -6.06118 0
M  V30 1069 H 99.9938 0.704081 -0.340284 0
M  V30 1070 H 102.578 1.39885 -1.35426 0
M  V30 1071 H 100.749 3.82522 -0.673179 0
M  V30 1072 H 102.481 3.94839 -0.887917 0
M  V30 1073 H 99.2358 3.74662 -2.89699 0
M  V30 1074 H 99.6598 3.93138 -5.51155 0
M  V30 1075 H 104.302 3.26566 -2.68541 0
M  V30 1076 H 102.02 3.86427 -7.09718 0
M  V30 1077 H 105.606 3.30712 -4.78666 0
M  V30 1078 H 104.486 3.60454 -6.9645 0
M  V30 1079 N 101.989 0.842826 1.3317 0
M  V30 1080 C 103.217 0.454055 2.01856 0
M  V30 1081 C 103.632 -0.94587 1.63397 0
M  V30 1082 O 102.989 -1.61534 0.849302 0
M  V30 1083 C 103.04 0.569715 3.56982 0
M  V30 1084 O 102.761 1.91448 3.94055 0
M  V30 1085 C 104.262 0.178412 4.42941 0
M  V30 1086 H 101.482 0.17979 0.646465 0
M  V30 1087 H 104.026 1.1365 1.70012 0
M  V30 1088 H 102.181 -0.0648587 3.87346 0
M  V30 1089 H 102.595 1.90282 4.88767 0
M  V30 1090 H 104.069 0.310376 5.51127 0
M  V30 1091 H 104.546 -0.880056 4.30293 0
M  V30 1092 H 105.152 0.787579 4.17944 0
M  V30 1093 N 103.467 -1.45747 0.599634 0
M  V30 1094 C 104.692 -2.07178 0.0960198 0
M  V30 1095 C 105.117 -1.44268 -1.207 0
M  V30 1096 O 104.475 -0.532503 -1.73303 0
M  V30 1097 C 104.523 -3.60579 -0.0385348 0
M  V30 1098 O 103.627 -3.97713 -1.0908 0
M  V30 1099 H 102.968 -0.660251 0.0704593 0
M  V30 1100 H 105.498 -1.87124 0.827385 0
M  V30 1101 H 105.508 -4.07298 -0.239304 0
M  V30 1102 H 104.183 -4.05756 0.912947 0
M  V30 1103 H 102.76 -3.62678 -0.867135 0
M  V30 1104 N 104.945 -0.338344 -1.53925 0
M  V30 1105 C 105.908 0.508299 -2.23493 0
M  V30 1106 C 106.908 1.03175 -1.23335 0
M  V30 1107 O 108.098 0.921826 -1.47811 0
M  V30 1108 C 105.23 1.70754 -2.95052 0
M  V30 1109 H 106.423 -0.100058 -2.99733 0
M  V30 1110 H 103.976 -0.0896198 -1.56043 0
M  V30 1111 H 104.711 2.35474 -2.22986 0
M  V30 1112 H 104.496 1.33946 -3.68512 0
M  V30 1113 H 105.986 2.30818 -3.48013 0
M  V30 1114 N 106.423 1.57458 -0.0668435 0
M  V30 1115 C 107.648 1.9804 0.616027 0
M  V30 1116 C 108.073 0.944771 1.62652 0
M  V30 1117 O 107.431 -0.0902094 1.81075 0
M  V30 1118 C 107.479 3.37665 1.26549 0
M  V30 1119 O 106.583 3.36701 2.38131 0
M  V30 1120 H 105.924 0.644719 0.158849 0
M  V30 1121 H 108.454 2.04121 -0.139891 0
M  V30 1122 H 108.464 3.7474 1.6135 0
M  V30 1123 H 107.139 4.12573 0.525016 0
M  V30 1124 H 105.716 3.1139 2.0516 0
M  V30 1125 N 107.901 -0.206675 1.56239 0
M  V30 1126 C 109.129 -0.945345 1.8404 0
M  V30 1127 C 109.544 -1.77336 0.647885 0
M  V30 1128 O 108.901 -1.78425 -0.383511 0
M  V30 1129 C 108.952 -1.8509 3.10522 0
M  V30 1130 O 108.673 -1.05634 4.25174 0
M  V30 1131 C 110.174 -2.70222 3.51418 0
M  V30 1132 H 107.394 -0.276372 0.61144 0
M  V30 1133 H 109.938 -0.217417 2.03341 0
M  V30 1134 H 108.093 -2.53259 2.93153 0
M  V30 1135 H 108.507 -1.67238 4.97124 0
M  V30 1136 H 109.981 -3.29438 4.42916 0
M  V30 1137 H 110.458 -3.43358 2.73864 0
M  V30 1138 H 111.064 -2.07443 3.71278 0
M  V30 1139 N 109.379 -1.50304 -0.473955 0
M  V30 1140 C 110.604 -1.65175 -1.25427 0
M  V30 1141 C 111.029 -0.333673 -1.85117 0
M  V30 1142 O 110.387 0.702114 -1.67153 0
M  V30 1143 C 110.435 -2.74295 -2.34082 0
M  V30 1144 O 109.539 -2.35349 -3.38651 0
M  V30 1145 H 108.88 -0.551944 -0.369126 0
M  V30 1146 H 111.41 -1.96662 -0.564364 0
M  V30 1147 H 111.42 -2.97285 -2.79438 0
M  V30 1148 H 110.095 -3.69959 -1.90008 0
M  V30 1149 H 108.672 -2.22794 -2.99027 0
M  V30 1150 N 110.857 0.726932 -1.39834 0
M  V30 1151 C 112.105 1.4837 -1.37225 0
M  V30 1152 C 112.426 1.94979 0.0284857 0
M  V30 1153 O 111.696 1.69555 0.981213 0
M  V30 1154 H 110.276 0.55043 -0.505011 0
M  V30 1155 H 112.938 0.862468 -1.74778 0
M  V30 1156 H 112.034 2.36198 -2.04003 0
M  V30 1157 N 112.336 1.25143 0.95797 0
M  V30 1158 C 113.283 1.05235 2.05412 0
M  V30 1159 C 114.253 -0.0374561 1.66058 0
M  V30 1160 O 115.438 0.119073 1.90428 0
M  V30 1161 C 112.578 0.673589 3.38462 0
M  V30 1162 C 111.691 1.8379 3.90954 0
M  V30 1163 C 110.826 1.40381 5.12315 0
M  V30 1164 C 109.865 2.53746 5.57027 0
M  V30 1165 N 109.002 2.11136 6.69601 0
M  V30 1166 H 113.842 1.99048 2.21774 0
M  V30 1167 H 111.379 0.991277 1.08683 0
M  V30 1168 H 113.337 0.434964 4.14926 0
M  V30 1169 H 111.967 -0.227554 3.21997 0
M  V30 1170 H 111.019 2.18992 3.11041 0
M  V30 1171 H 112.331 2.68937 4.20089 0
M  V30 1172 H 111.485 1.12464 5.96185 0
M  V30 1173 H 110.224 0.523015 4.84887 0
M  V30 1174 H 109.229 2.82412 4.71724 0
M  V30 1175 H 110.454 3.42398 5.86464 0
M  V30 1176 H 108.4 1.25468 6.4389 0
M  V30 1177 H 108.317 2.89832 6.98236 0
M  V30 1178 H 109.585 1.86385 7.56889 0
M  V30 1179 N 113.814 -1.1601 1.06675 0
M  V30 1180 C 115.225 -1.68235 0.809565 0
M  V30 1181 C 115.576 -1.8454 -0.666303 0
M  V30 1182 O 114.701 -1.54374 -1.5165 0
M  V30 1183 C 115.296 -3.05585 1.46299 0
M  V30 1184 C 113.855 -3.54915 1.25349 0
M  V30 1185 C 113.002 -2.30804 1.53703 0
M  V30 1186 H 115.953 -1.00318 1.22971 0
M  V30 1187 H 115.974 -3.70174 0.880431 0
M  V30 1188 H 115.486 -2.93686 2.53713 0
M  V30 1189 H 113.587 -3.72067 0.199261 0
M  V30 1190 H 113.7 -4.36774 1.9689 0
M  V30 1191 H 112.064 -2.36007 0.957739 0
M  V30 1192 H 112.847 -2.21499 2.62284 0
M  V30 1193 N 115.292 -0.849877 -1.32721 0
M  V30 1194 C 116.708 -0.539102 -1.50219 0
M  V30 1195 C 116.908 0.931271 -1.78689 0
M  V30 1196 O 115.964 1.71455 -1.85363 0
M  V30 1197 C 117.277 -1.42196 -2.64954 0
M  V30 1198 C 118.825 -1.42189 -2.78839 0
M  V30 1199 C 119.3 -2.28985 -3.96648 0
M  V30 1200 N 120.791 -2.26754 -4.03902 0
M  V30 1201 C 121.526 -2.90644 -4.94281 0
M  V30 1202 N 121.022 -3.63629 -5.897 0
M  V30 1203 N 122.815 -2.80057 -4.87365 0
M  V30 1204 H 114.966 -1.80156 -1.12506 0
M  V30 1205 H 117.229 -0.769217 -0.554085 0
M  V30 1206 H 116.935 -2.46733 -2.50631 0
M  V30 1207 H 116.809 -1.10591 -3.60624 0
M  V30 1208 H 119.196 -0.38419 -2.92588 0
M  V30 1209 H 119.277 -1.77807 -1.83898 0
M  V30 1210 H 118.921 -3.32819 -3.83658 0
M  V30 1211 H 118.851 -1.90702 -4.90857 0
M  V30 1212 H 121.342 -1.73688 -3.3562 0
M  V30 1213 H 121.655 -4.09558 -6.55349 0
M  V30 1214 H 120 -3.67737 -5.89741 0
M  V30 1215 H 123.191 -2.22593 -4.11789 0
M  V30 1216 H 123.364 -3.30132 -5.57599 0
M  V30 1217 N 116.77 1.45427 -0.607355 0
M  V30 1218 C 117.717 2.3053 0.111625 0
M  V30 1219 C 118.687 1.4209 0.860216 0
M  V30 1220 O 119.872 1.71019 0.845998 0
M  V30 1221 C 117.012 3.26992 1.10319 0
M  V30 1222 C 116.125 4.30535 0.355493 0
M  V30 1223 C 115.26 5.14105 1.33676 0
M  V30 1224 C 114.299 6.09376 0.576862 0
M  V30 1225 N 113.436 6.85727 1.5074 0
M  V30 1226 H 118.276 2.91477 -0.620093 0
M  V30 1227 H 115.813 1.43631 -0.317594 0
M  V30 1228 H 117.771 3.81385 1.6912 0
M  V30 1229 H 116.401 2.67799 1.80232 0
M  V30 1230 H 115.453 3.78805 -0.348023 0
M  V30 1231 H 116.765 4.98235 -0.237423 0
M  V30 1232 H 115.919 5.72897 1.99684 0
M  V30 1233 H 114.658 4.46423 1.9636 0
M  V30 1234 H 113.663 5.49715 -0.0968519 0
M  V30 1235 H 114.888 6.79085 -0.0449341 0
M  V30 1236 H 112.834 6.20735 2.12189 0
M  V30 1237 H 112.751 7.49778 0.967913 0
M  V30 1238 H 114.019 7.4906 2.15706 0
M  V30 1239 N 118.248 0.346503 1.53744 0
M  V30 1240 C 119.525 -0.304532 1.93215 0
M  V30 1241 C 119.905 -1.67993 1.27834 0
M  V30 1242 O 119.253 -2.24411 0.430352 0
M  V30 1243 C 119.463 -0.373852 3.46992 0
M  V30 1244 C 120.811 -0.62329 4.2 0
M  V30 1245 O 121.835 -0.455847 3.53271 0
M  V30 1246 O 120.694 -0.947879 5.38217 0
M  V30 1247 H 117.788 -0.178318 0.807547 0
M  V30 1248 H 120.334 0.397895 1.64969 0
M  V30 1249 H 119.106 0.591224 3.86808 0
M  V30 1250 H 118.729 -1.12294 3.81413 0
M  V30 1251 N 119.726 -1.57421 0.075193 0
M  V30 1252 C 120.673 -2.12915 -0.890843 0
M  V30 1253 C 121.643 -1.04252 -1.29309 0
M  V30 1254 O 122.828 -1.31933 -1.37834 0
M  V30 1255 C 119.968 -2.69795 -2.15186 0
M  V30 1256 C 119.081 -3.92624 -1.80194 0
M  V30 1257 C 118.216 -4.37736 -3.00933 0
M  V30 1258 C 117.255 -5.53205 -2.61974 0
M  V30 1259 N 116.392 -5.9326 -3.75483 0
M  V30 1260 H 121.232 -2.95156 -0.410735 0
M  V30 1261 H 118.769 -1.45854 -0.191086 0
M  V30 1262 H 120.727 -3.00883 -2.89008 0
M  V30 1263 H 119.357 -1.90313 -2.60731 0
M  V30 1264 H 118.409 -3.67977 -0.964218 0
M  V30 1265 H 119.721 -4.76482 -1.47534 0
M  V30 1266 H 118.875 -4.70503 -3.8303 0
M  V30 1267 H 117.614 -3.52739 -3.36789 0
M  V30 1268 H 116.619 -5.20086 -1.783 0
M  V30 1269 H 117.844 -6.39936 -2.27284 0
M  V30 1270 H 115.79 -5.11212 -4.11094 0
M  V30 1271 H 115.707 -6.71865 -3.46602 0
M  V30 1272 H 116.975 -6.30651 -4.58148 0
M  V30 1273 N 121.204 0.198386 -1.56346 0
M  V30 1274 C 122.167 1.22952 -1.93431 0
M  V30 1275 C 123.167 1.38611 -0.815092 0
M  V30 1276 O 124.357 1.36479 -1.08255 0
M  V30 1277 C 121.489 2.59946 -2.20546 0
M  V30 1278 H 122.682 0.912626 -2.85677 0
M  V30 1279 H 120.235 0.43977 -1.49986 0
M  V30 1280 H 120.97 2.96696 -1.30927 0
M  V30 1281 H 120.755 2.49953 -3.02102 0
M  V30 1282 H 122.245 3.3431 -2.50253 0
M  V30 1283 N 122.682 1.50554 0.465978 0
M  V30 1284 C 123.907 1.65838 1.24549 0
M  V30 1285 C 124.332 0.343486 1.84937 0
M  V30 1286 O 123.69 -0.69324 1.67523 0
M  V30 1287 C 123.738 2.75533 2.32624 0
M  V30 1288 O 122.842 2.37142 3.37398 0
M  V30 1289 H 122.183 0.553893 0.366194 0
M  V30 1290 H 124.713 1.96959 0.553927 0
M  V30 1291 H 124.723 2.98763 2.77857 0
M  V30 1292 H 123.398 3.70962 1.88043 0
M  V30 1293 H 121.975 2.24377 2.97841 0
M  V30 1294 N 124.16 -0.719506 1.40217 0
M  V30 1295 C 125.408 -1.47641 1.3801 0
M  V30 1296 C 125.729 -1.94992 -0.018145 0
M  V30 1297 O 124.999 -1.70073 -0.972207 0
M  V30 1298 H 123.579 -0.547744 0.507923 0
M  V30 1299 H 126.241 -0.853187 1.75233 0
M  V30 1300 H 125.337 -2.35112 2.05253 0
M  V30 1301 N 125.638 -1.25649 -0.95132 0
M  V30 1302 C 126.585 -1.06323 -2.04851 0
M  V30 1303 C 127.555 0.0286491 -1.66075 0
M  V30 1304 O 128.74 -0.12917 -1.90362 0
M  V30 1305 C 125.88 -0.691529 -3.381 0
M  V30 1306 C 124.993 -1.85861 -3.89974 0
M  V30 1307 C 124.128 -1.43096 -5.11563 0
M  V30 1308 C 123.167 -2.56696 -5.55674 0
M  V30 1309 N 122.304 -2.14684 -6.68472 0
M  V30 1310 H 127.144 -2.00222 -2.20715 0
M  V30 1311 H 124.681 -0.997027 -1.08156 0
M  V30 1312 H 126.639 -0.456963 -4.1469 0
M  V30 1313 H 125.269 0.210474 -3.22113 0
M  V30 1314 H 124.321 -2.20639 -3.09875 0
M  V30 1315 H 125.633 -2.71161 -4.18657 0
M  V30 1316 H 124.787 -1.15624 -5.9558 0
M  V30 1317 H 123.526 -0.548722 -4.84603 0
M  V30 1318 H 122.531 -2.84909 -4.7022 0
M  V30 1319 H 123.756 -3.45503 -5.8464 0
M  V30 1320 H 121.702 -1.28881 -6.43215 0
M  V30 1321 H 121.619 -2.9353 -6.96689 0
M  V30 1322 H 122.887 -1.90397 -7.5589 0
M  V30 1323 N 127.117 1.15442 -1.07289 0
M  V30 1324 C 128.047 2.22312 -0.714107 0
M  V30 1325 C 129.028 1.67467 0.298155 0
M  V30 1326 O 130.213 1.93445 0.171048 0
M  V30 1327 C 127.343 3.47124 -0.110448 0
M  V30 1328 C 126.297 4.14926 -1.04979 0
M  V30 1329 C 125.623 5.33807 -0.308924 0
M  V30 1330 C 126.923 4.64762 -2.38314 0
M  V30 1331 H 128.617 2.5258 -1.6076 0
M  V30 1332 H 126.163 1.21404 -0.77441 0
M  V30 1333 H 128.116 4.21124 0.152482 0
M  V30 1334 H 126.84 3.16187 0.81812 0
M  V30 1335 H 125.499 3.42866 -1.29764 0
M  V30 1336 H 125.147 4.99126 0.623084 0
M  V30 1337 H 124.847 5.80113 -0.935036 0
M  V30 1338 H 126.371 6.10576 -0.0537771 0
M  V30 1339 H 127.785 5.30292 -2.1786 0
M  V30 1340 H 126.182 5.21728 -2.96514 0
M  V30 1341 H 127.252 3.80434 -3.00663 0
M  V30 1342 N 128.595 0.856903 1.32268 0
M  V30 1343 C 129.825 0.47475 2.01071 0
M  V30 1344 C 130.233 -0.933746 1.64553 0
M  V30 1345 O 129.576 -1.62114 0.863989 0
M  V30 1346 C 129.638 0.536746 3.55471 0
M  V30 1347 C 129.302 1.90453 4.15423 0
M  V30 1348 C 130.299 2.87029 4.33486 0
M  V30 1349 C 127.984 2.20229 4.51447 0
M  V30 1350 C 129.978 4.11532 4.86744 0
M  V30 1351 C 127.665 3.44984 5.0441 0
M  V30 1352 C 128.663 4.40452 5.22007 0
M  V30 1353 O 128.351 5.62998 5.73837 0
M  V30 1354 H 128.083 0.184778 0.650256 0
M  V30 1355 H 130.637 1.15615 1.69771 0
M  V30 1356 H 128.867 -0.20152 3.86175 0
M  V30 1357 H 130.556 0.169875 4.05544 0
M  V30 1358 H 131.322 2.6533 4.05986 0
M  V30 1359 H 127.201 1.46705 4.37034 0
M  V30 1360 H 130.745 4.86056 5.00395 0
M  V30 1361 H 126.642 3.66532 5.31342 0
M  V30 1362 H 127.41 5.64987 5.92226 0
M  V30 1363 N 130.073 -1.45103 0.615059 0
M  V30 1364 C 131.484 -1.85654 0.197383 0
M  V30 1365 C 131.835 -1.51433 -1.24749 0
M  V30 1366 O 130.96 -0.944608 -1.94695 0
M  V30 1367 C 131.555 -3.36972 0.351448 0
M  V30 1368 C 130.114 -3.76398 -0.011593 0
M  V30 1369 C 129.261 -2.69024 0.672394 0
M  V30 1370 H 132.212 -1.35797 0.821263 0
M  V30 1371 H 132.233 -3.78239 -0.414227 0
M  V30 1372 H 131.745 -3.61847 1.40314 0
M  V30 1373 H 129.846 -3.5714 -1.06217 0
M  V30 1374 H 129.959 -4.77532 0.387265 0
M  V30 1375 H 128.323 -2.54465 0.109284 0
M  V30 1376 H 129.106 -2.96735 1.72636 0
M  V30 1377 N 131.551 -0.354651 -1.53558 0
M  V30 1378 C 132.461 0.50515 -2.29097 0
M  V30 1379 C 133.477 1.10223 -1.34636 0
M  V30 1380 O 134.653 1.11553 -1.67684 0
M  V30 1381 C 131.718 1.63479 -3.05738 0
M  V30 1382 C 130.779 1.06636 -4.15845 0
M  V30 1383 C 130.012 2.14217 -4.88822 0
M  V30 1384 O 130.235 3.35137 -4.61562 0
M  V30 1385 O 129.169 1.77887 -5.75013 0
M  V30 1386 H 132.995 -0.109237 -3.03503 0
M  V30 1387 H 130.58 -0.119357 -1.48922 0
M  V30 1388 H 132.462 2.2918 -3.5363 0
M  V30 1389 H 131.137 2.23478 -2.34178 0
M  V30 1390 H 130.044 0.373565 -3.7223 0
M  V30 1391 H 131.377 0.511081 -4.89539 0
M  V30 1392 N 133.029 1.57378 -0.0835403 0
M  V30 1393 C 134.254 1.98682 0.594987 0
M  V30 1394 C 134.679 0.961969 1.61641 0
M  V30 1395 O 134.037 -0.0709989 1.81161 0
M  V30 1396 C 134.085 3.38988 1.2296 0
M  V30 1397 O 133.189 3.39208 2.34546 0
M  V30 1398 H 132.53 0.646368 0.152002 0
M  V30 1399 H 135.06 2.03961 -0.161533 0
M  V30 1400 H 135.07 3.76431 1.57366 0
M  V30 1401 H 133.745 4.13107 0.481228 0
M  V30 1402 H 132.322 3.13548 2.01846 0
M  V30 1403 N 134.507 -0.190092 1.56449 0
M  V30 1404 C 135.417 -1.25591 1.98152 0
M  V30 1405 C 136.433 -1.49519 0.889944 0
M  V30 1406 O 137.609 -1.62036 1.19609 0
M  V30 1407 C 134.674 -2.57916 2.3169 0
M  V30 1408 C 133.735 -2.42015 3.5458 0
M  V30 1409 C 132.968 -3.6803 3.8651 0
M  V30 1410 O 133.191 -4.72413 3.1966 0
M  V30 1411 O 132.125 -3.6326 4.79923 0
M  V30 1412 H 135.951 -0.931988 2.89046 0
M  V30 1413 H 133.536 -0.395488 1.4407 0
M  V30 1414 H 135.418 -3.36008 2.54316 0
M  V30 1415 H 134.093 -2.89925 1.43963 0
M  V30 1416 H 133 -1.62017 3.37196 0
M  V30 1417 H 134.333 -2.14937 4.4279 0
M  V30 1418 N 135.985 -1.50799 -0.457987 0
M  V30 1419 C 136.895 -1.73426 -1.57989 0
M  V30 1420 C 137.911 -0.617745 -1.62665 0
M  V30 1421 O 139.087 -0.897614 -1.80291 0
M  V30 1422 C 136.152 -1.83557 -2.94122 0
M  V30 1423 C 135.213 -3.07345 -2.99729 0
M  V30 1424 C 134.446 -3.16983 -4.29368 0
M  V30 1425 O 134.669 -2.33077 -5.20607 0
M  V30 1426 O 133.603 -4.09812 -4.40837 0
M  V30 1427 H 137.429 -2.68555 -1.41817 0
M  V30 1428 H 135.014 -1.35052 -0.638859 0
M  V30 1429 H 136.896 -1.92326 -3.74952 0
M  V30 1430 H 135.571 -0.916137 -3.10465 0
M  V30 1431 H 134.478 -3.04068 -2.1793 0
M  V30 1432 H 135.811 -3.9891 -2.88326 0
M  V30 1433 N 137.463 0.71206 -1.40597 0
M  V30 1434 C 138.74 1.46536 -1.29563 0
M  V30 1435 C 139.12 2.10931 0.0844217 0
M  V30 1436 O 138.468 2.00418 1.0975 0
M  V30 1437 C 138.678 2.49821 -2.43701 0
M  V30 1438 C 140.026 3.15551 -2.841 0
M  V30 1439 O 141.05 2.60142 -2.4332 0
M  V30 1440 O 139.909 4.15867 -3.54566 0
M  V30 1441 H 137.003 0.651801 -0.509004 0
M  V30 1442 H 139.549 0.743935 -1.52524 0
M  V30 1443 H 138.321 2.00778 -3.35863 0
M  V30 1444 H 137.944 3.29495 -2.22528 0
M  V30 1445 N 138.941 1.26152 0.944643 0
M  V30 1446 C 139.888 1.07408 2.04285 0
M  V30 1447 C 140.858 -0.0198413 1.66088 0
M  V30 1448 O 142.043 0.139264 1.90291 0
M  V30 1449 C 139.183 0.70945 3.37729 0
M  V30 1450 C 138.296 1.87926 3.88983 0
M  V30 1451 C 137.431 1.45807 5.10797 0
M  V30 1452 C 136.47 2.5964 5.54305 0
M  V30 1453 N 135.607 2.18226 6.67324 0
M  V30 1454 H 140.447 2.01389 2.1965 0
M  V30 1455 H 137.984 1.00275 1.07626 0
M  V30 1456 H 139.942 0.478948 4.14442 0
M  V30 1457 H 138.572 -0.193389 3.2222 0
M  V30 1458 H 137.624 2.22279 3.08701 0
M  V30 1459 H 138.936 2.73377 4.17213 0
M  V30 1460 H 138.09 1.18781 5.94959 0
M  V30 1461 H 136.829 0.574414 4.84305 0
M  V30 1462 H 135.834 2.87399 4.68702 0
M  V30 1463 H 137.059 3.48599 5.828 0
M  V30 1464 H 135.005 1.3229 6.42523 0
M  V30 1465 H 134.922 2.97221 6.95123 0
M  V30 1466 H 136.19 1.94403 7.54869 0
M  V30 1467 N 140.419 -1.14872 1.07899 0
M  V30 1468 C 141.329 -2.2341 0.715915 0
M  V30 1469 C 142.345 -1.71808 -0.275306 0
M  V30 1470 O 143.521 -2.01039 -0.120545 0
M  V30 1471 C 140.586 -3.46474 0.125168 0
M  V30 1472 C 139.647 -4.13039 1.17034 0
M  V30 1473 C 138.88 -5.30229 0.607688 0
M  V30 1474 O 139.103 -5.675 -0.574497 0
M  V30 1475 O 138.037 -5.86444 1.35526 0
M  V30 1476 H 141.863 -2.56808 1.62121 0
M  V30 1477 H 139.448 -1.22702 0.852322 0
M  V30 1478 H 141.33 -4.20917 -0.201729 0
M  V30 1479 H 140.005 -3.14811 -0.753364 0
M  V30 1480 H 138.912 -3.40493 1.54968 0
M  V30 1481 H 140.245 -4.48796 2.02097 0
M  V30 1482 N 141.898 -0.863906 -1.31812 0
M  V30 1483 C 142.861 -0.320212 -2.26952 0
M  V30 1484 C 143.861 0.525369 -1.51975 0
M  V30 1485 O 145.051 0.335547 -1.70938 0
M  V30 1486 C 142.183 0.545919 -3.365 0
M  V30 1487 H 143.376 -1.16004 -2.76556 0
M  V30 1488 H 140.929 -0.638995 -1.42641 0
M  V30 1489 H 141.664 1.40718 -2.92179 0
M  V30 1490 H 141.449 -0.0594674 -3.92055 0
M  V30 1491 H 142.939 0.918796 -4.07367 0
M  V30 1492 N 143.376 1.44774 -0.622745 0
M  V30 1493 C 144.787 1.85546 -0.207226 0
M  V30 1494 C 145.138 1.52093 1.23944 0
M  V30 1495 O 144.263 0.95492 1.94191 0
M  V30 1496 C 144.858 3.36781 -0.369313 0
M  V30 1497 C 143.417 3.76399 -0.00836847 0
M  V30 1498 C 142.564 2.68664 -0.686651 0
M  V30 1499 H 145.515 1.3536 -0.828454 0
M  V30 1500 H 145.536 3.78453 0.394162 0
M  V30 1501 H 145.048 3.61098 -1.42231 0
M  V30 1502 H 143.149 3.57698 1.04322 0
M  V30 1503 H 143.262 4.7732 -0.412584 0
M  V30 1504 H 141.626 2.54404 -0.122777 0
M  V30 1505 H 142.409 2.95815 -1.74208 0
M  V30 1506 N 144.854 0.36279 1.53368 0
M  V30 1507 C 146.082 -0.228613 2.05633 0
M  V30 1508 C 146.497 -1.42676 1.23649 0
M  V30 1509 O 145.854 -1.80394 0.27647 0
M  V30 1510 C 145.905 -0.624845 3.56059 0
M  V30 1511 O 145.626 0.525675 4.34935 0
M  V30 1512 C 147.127 -1.27493 4.24571 0
M  V30 1513 H 144.347 -0.0407183 0.669763 0
M  V30 1514 H 146.891 0.520352 1.97769 0
M  V30 1515 H 145.046 -1.32373 3.64083 0
M  V30 1516 H 145.46 0.205969 5.24095 0
M  V30 1517 H 146.934 -1.50277 5.31151 0
M  V30 1518 H 147.411 -2.23439 3.78116 0
M  V30 1519 H 148.017 -0.617558 4.20792 0
M  V30 1520 N 146.332 -1.57332 0.0918853 0
M  V30 1521 C 147.58 -1.93853 -0.571446 0
M  V30 1522 C 147.901 -0.974212 -1.6892 0
M  V30 1523 O 147.171 -0.0257254 -1.95883 0
M  V30 1524 H 145.751 -0.715666 -0.214082 0
M  V30 1525 H 148.413 -1.94287 0.154464 0
M  V30 1526 H 147.509 -2.96191 -0.983729 0
M  V30 1527 N 147.81 0.181792 -1.56548 0
M  V30 1528 C 149.035 0.920019 -1.85877 0
M  V30 1529 C 149.46 1.75494 -0.677021 0
M  V30 1530 O 148.818 1.77399 0.374056 0
M  V30 1531 C 148.866 1.78112 -3.13542 0
M  V30 1532 O 147.97 2.88152 -2.95029 0
M  V30 1533 H 147.311 0.258334 -0.611686 0
M  V30 1534 H 149.841 0.183092 -2.03779 0
M  V30 1535 H 149.851 2.18314 -3.44678 0
M  V30 1536 H 148.526 1.16777 -3.99169 0
M  V30 1537 H 147.103 2.51609 -2.75222 0
M  V30 1538 N 149.288 1.51039 0.449983 0
M  V30 1539 C 150.704 1.38934 0.785462 0
M  V30 1540 C 150.904 0.461817 1.96136 0
M  V30 1541 O 149.96 -0.0877389 2.52348 0
M  V30 1542 C 151.273 2.80724 1.0777 0
M  V30 1543 C 152.821 2.89787 1.1829 0
M  V30 1544 C 153.296 4.32457 1.50815 0
M  V30 1545 N 154.787 4.35505 1.57764 0
M  V30 1546 C 155.522 5.42914 1.84477 0
M  V30 1547 N 155.018 6.60502 2.09068 0
M  V30 1548 N 156.811 5.3038 1.86155 0
M  V30 1549 H 148.962 2.09904 -0.324647 0
M  V30 1550 H 151.225 0.944378 -0.0827957 0
M  V30 1551 H 150.931 3.50531 0.286498 0
M  V30 1552 H 150.805 3.19273 2.00859 0
M  V30 1553 H 153.192 2.20186 1.96474 0
M  V30 1554 H 153.273 2.54752 0.231314 0
M  V30 1555 H 152.917 5.02603 0.731622 0
M  V30 1556 H 152.847 4.64995 2.47158 0
M  V30 1557 H 155.338 3.50724 1.40715 0
M  V30 1558 H 155.651 7.38158 2.28785 0
M  V30 1559 H 153.996 6.63639 2.06416 0
M  V30 1560 H 157.187 4.37505 1.66454 0
M  V30 1561 H 157.36 6.1417 2.06637 0
M  V30 1562 N 150.766 -0.704594 1.40972 0
M  V30 1563 C 151.996 -1.49138 1.42974 0
M  V30 1564 C 152.404 -1.89175 0.0308406 0
M  V30 1565 O 151.747 -1.56734 -0.958138 0
M  V30 1566 C 151.809 -2.79016 2.26694 0
M  V30 1567 C 151.473 -2.61236 3.74973 0
M  V30 1568 C 152.47 -2.27773 4.67349 0
M  V30 1569 C 150.155 -2.77158 4.18914 0
M  V30 1570 C 152.149 -2.10457 6.01653 0
M  V30 1571 C 149.836 -2.59459 5.53285 0
M  V30 1572 C 150.834 -2.26158 6.4447 0
M  V30 1573 O 150.522 -2.08605 7.76363 0
M  V30 1574 H 150.254 -0.466443 0.489292 0
M  V30 1575 H 152.808 -0.8758 1.85793 0
M  V30 1576 H 151.038 -3.42947 1.78673 0
M  V30 1577 H 152.727 -3.40782 2.20504 0
M  V30 1578 H 153.493 -2.15095 4.34694 0
M  V30 1579 H 149.372 -3.02064 3.48251 0
M  V30 1580 H 152.916 -1.84387 6.72791 0
M  V30 1581 H 148.813 -2.71725 5.85522 0
M  V30 1582 H 149.581 -2.23439 7.87412 0
M  V30 1583 N 152.244 -1.26651 -0.937939 0
M  V30 1584 C 153.66 -1.03834 -1.21205 0
M  V30 1585 C 153.86 0.234502 -2.00131 0
M  V30 1586 O 152.916 0.942767 -2.3424 0
M  V30 1587 C 154.229 -2.27167 -1.97017 0
M  V30 1588 C 155.777 -2.32101 -2.09996 0
M  V30 1589 C 156.252 -3.55136 -2.8921 0
M  V30 1590 N 157.743 -3.55632 -2.96783 0
M  V30 1591 C 158.478 -4.475 -3.58512 0
M  V30 1592 N 157.974 -5.4966 -4.21717 0
M  V30 1593 N 159.767 -4.35145 -3.55816 0
M  V30 1594 H 151.918 -2.08398 -0.410391 0
M  V30 1595 H 154.181 -0.916031 -0.244114 0
M  V30 1596 H 153.887 -3.19765 -1.46434 0
M  V30 1597 H 153.761 -2.31672 -2.97671 0
M  V30 1598 H 156.148 -1.40015 -2.59769 0
M  V30 1599 H 156.229 -2.31605 -1.08594 0
M  V30 1600 H 155.873 -4.47553 -2.40123 0
M  V30 1601 H 155.803 -3.5288 -3.90875 0
M  V30 1602 H 158.294 -2.81743 -2.51852 0
M  V30 1603 H 158.607 -6.15943 -4.66727 0
M  V30 1604 H 156.952 -5.53514 -4.20294 0
M  V30 1605 H 160.143 -3.5455 -3.05634 0
M  V30 1606 H 160.316 -5.06934 -4.03636 0
M  V30 1607 N 153.722 1.14298 -1.08507 0
M  V30 1608 C 154.97 1.84993 -0.813763 0
M  V30 1609 C 155.291 1.83405 0.662393 0
M  V30 1610 O 154.561 1.28319 1.48024 0
M  V30 1611 H 153.141 0.684966 -0.298045 0
M  V30 1612 H 155.803 1.385 -1.37126 0
M  V30 1613 H 154.899 2.89788 -1.15884 0
M  V30 1614 N 155.201 0.870884 1.31352 0
M  V30 1615 C 156.617 0.562932 1.49343 0
M  V30 1616 C 156.817 -0.902725 1.80148 0
M  V30 1617 O 155.873 -1.68484 1.88067 0
M  V30 1618 C 157.186 1.46393 2.62659 0
M  V30 1619 C 158.734 1.46607 2.76542 0
M  V30 1620 C 159.209 2.35266 3.92955 0
M  V30 1621 N 160.7 2.33151 4.00243 0
M  V30 1622 C 161.435 2.98471 4.89594 0
M  V30 1623 N 160.931 3.72964 5.8384 0
M  V30 1624 N 162.724 2.87775 4.82848 0
M  V30 1625 H 154.875 1.81923 1.09626 0
M  V30 1626 H 157.138 0.777934 0.541777 0
M  V30 1627 H 156.844 2.50689 2.46674 0
M  V30 1628 H 156.718 1.16314 3.58819 0
M  V30 1629 H 159.105 0.43069 2.9194 0
M  V30 1630 H 159.186 1.8071 1.81046 0
M  V30 1631 H 158.83 3.38881 3.78315 0
M  V30 1632 H 158.76 1.98487 4.87761 0
M  V30 1633 H 161.251 1.79006 3.32814 0
M  V30 1634 H 161.564 4.19932 6.4875 0
M  V30 1635 H 159.909 3.77073 5.83816 0
M  V30 1636 H 163.1 2.29116 4.08195 0
M  V30 1637 H 163.273 3.38961 5.52277 0
M  V30 1638 N 156.679 -1.44442 0.630414 0
M  V30 1639 C 158.09 -1.85434 0.217063 0
M  V30 1640 C 158.441 -1.52748 -1.23136 0
M  V30 1641 O 157.566 -0.965205 -1.93682 0
M  V30 1642 C 158.161 -3.36581 0.387168 0
M  V30 1643 C 156.72 -3.76389 0.0283297 0
M  V30 1644 C 155.867 -2.68296 0.700889 0
M  V30 1645 H 158.818 -1.34919 0.83562 0
M  V30 1646 H 158.839 -3.78657 -0.374086 0
M  V30 1647 H 158.351 -3.60339 1.44144 0
M  V30 1648 H 156.452 -3.58246 -1.02423 0
M  V30 1649 H 156.565 -4.77095 0.437892 0
M  V30 1650 H 154.929 -2.54335 0.136267 0
M  V30 1651 H 155.712 -2.94887 1.75774 0
M  V30 1652 N 158.157 -0.370918 -1.53173 0
M  V30 1653 C 159.397 0.217106 -2.03244 0
M  V30 1654 C 159.761 1.45558 -1.25207 0
M  V30 1655 O 160.962 2.11957 -1.65311 0
M  V30 1656 C 159.233 0.496664 -3.53932 0
M  V30 1657 S 160.792 1.0576 -4.25864 0
M  V30 1658 H 157.61 0.0627827 -0.708223 0
M  V30 1659 H 160.212 -0.515019 -1.88594 0
M  V30 1660 H 158.916 -0.412096 -4.08326 0
M  V30 1661 H 158.447 1.25772 -3.72753 0
M  V30 1662 H 160.462 2.34145 -4.37482 0
M  V30 1663 N 159.635 1.57281 -0.100228 0
M  V30 1664 C 160.565 2.17328 0.853857 0
M  V30 1665 C 161.546 1.10804 1.2906 0
M  V30 1666 O 162.731 1.38963 1.35657 0
M  V30 1667 C 159.861 2.75772 2.11109 0
M  V30 1668 C 158.815 3.87713 1.81279 0
M  V30 1669 C 158.141 4.32882 3.13874 0
M  V30 1670 C 159.441 5.10677 1.09574 0
M  V30 1671 H 161.135 2.97305 0.353545 0
M  V30 1672 H 158.681 1.43009 0.168612 0
M  V30 1673 H 160.634 3.16433 2.78296 0
M  V30 1674 H 159.358 1.93057 2.63432 0
M  V30 1675 H 158.017 3.476 1.16489 0
M  V30 1676 H 157.665 3.47051 3.64095 0
M  V30 1677 H 157.365 5.08358 2.94696 0
M  V30 1678 H 158.889 4.7618 3.82211 0
M  V30 1679 H 160.303 5.48474 1.66879 0
M  V30 1680 H 158.7 5.91615 1.00557 0
M  V30 1681 H 159.77 4.84835 0.0793299 0
M  V30 1682 N 161.113 -0.173488 1.56642 0
M  V30 1683 C 162.524 -0.736155 1.71574 0
M  V30 1684 C 162.875 -1.82888 0.710389 0
M  V30 1685 O 162 -2.16017 -0.1287 0
M  V30 1686 C 162.595 -1.34211 3.11083 0
M  V30 1687 C 161.154 -1.85162 3.27707 0
M  V30 1688 C 160.301 -0.729765 2.67525 0
M  V30 1689 H 163.252 0.0518786 1.58615 0
M  V30 1690 H 163.273 -2.21178 3.09613 0
M  V30 1691 H 162.785 -0.546579 3.84232 0
M  V30 1692 H 160.886 -2.67366 2.59512 0
M  V30 1693 H 160.999 -1.99855 4.35425 0
M  V30 1694 H 159.363 -1.14965 2.27278 0
M  V30 1695 H 160.146 0.0538806 3.43258 0
M  V30 1696 N 162.591 -1.51276 -0.441967 0
M  V30 1697 C 163.501 -1.75092 -1.56141 0
M  V30 1698 C 164.517 -0.634963 -1.62001 0
M  V30 1699 O 165.693 -0.916686 -1.79329 0
M  V30 1700 C 162.758 -1.86666 -2.92158 0
M  V30 1701 C 161.819 -3.10506 -2.96453 0
M  V30 1702 C 161.052 -3.21519 -4.25982 0
M  V30 1703 O 161.275 -2.38586 -5.18105 0
M  V30 1704 O 160.209 -4.14465 -4.36466 0
M  V30 1705 H 164.035 -2.70044 -1.38961 0
M  V30 1706 H 161.62 -1.35722 -0.624499 0
M  V30 1707 H 163.502 -1.96292 -3.72891 0
M  V30 1708 H 162.177 -0.949014 -3.09476 0
M  V30 1709 H 161.084 -3.06363 -2.14692 0
M  V30 1710 H 162.417 -4.01945 -2.84079 0
M  V30 1711 N 164.069 0.697108 -1.41344 0
M  V30 1712 C 165.315 1.45796 -1.41828 0
M  V30 1713 C 165.67 1.92382 -0.0261743 0
M  V30 1714 O 164.963 1.66522 0.947688 0
M  V30 1715 C 165.157 2.68553 -2.35826 0
M  V30 1716 C 164.986 2.33975 -3.84039 0
M  V30 1717 C 163.756 2.24414 -4.52732 0
M  V30 1718 C 165.954 1.97048 -4.75054 0
M  V30 1719 N 163.936 1.82705 -5.86082 0
M  V30 1720 C 165.307 1.66086 -5.9734 0
M  V30 1721 C 167.362 1.83845 -4.62715 0
M  V30 1722 C 166.065 1.23246 -7.08663 0
M  V30 1723 C 168.091 1.4241 -5.73998 0
M  V30 1724 C 167.453 1.12357 -6.95381 0
M  V30 1725 H 163.552 0.530859 -0.574206 0
M  V30 1726 H 166.136 0.806674 -1.77203 0
M  V30 1727 H 164.307 3.31404 -2.02549 0
M  V30 1728 H 166.039 3.35015 -2.2704 0
M  V30 1729 H 162.794 2.4276 -4.0665 0
M  V30 1730 H 163.218 1.64337 -6.56751 0
M  V30 1731 H 167.86 2.05734 -3.69369 0
M  V30 1732 H 165.578 1.00102 -8.01876 0
M  V30 1733 H 169.164 1.32746 -5.66454 0
M  V30 1734 H 168.044 0.807795 -7.80028 0
M  V30 1735 N 165.547 1.27147 0.931209 0
M  V30 1736 C 166.824 1.0401 1.65654 0
M  V30 1737 C 167.204 -0.426297 2.06751 0
M  V30 1738 O 166.552 -1.40879 1.79904 0
M  V30 1739 C 166.762 1.99834 2.86125 0
M  V30 1740 C 168.11 2.29007 3.57549 0
M  V30 1741 O 169.134 1.97779 2.96246 0
M  V30 1742 O 167.993 2.82222 4.67989 0
M  V30 1743 H 165.087 0.396239 0.725895 0
M  V30 1744 H 167.633 1.38397 0.982056 0
M  V30 1745 H 166.405 2.98744 2.52721 0
M  V30 1746 H 166.028 1.65987 3.61295 0
M  V30 1747 N 167.025 -1.13721 1.09112 0
M  V30 1748 C 167.975 -2.17082 0.697091 0
M  V30 1749 C 168.959 -1.58321 -0.286923 0
M  V30 1750 O 170.151 -1.7673 -0.0978008 0
M  V30 1751 C 167.28 -3.43105 0.115729 0
M  V30 1752 C 166.366 -4.0888 1.12596 0
M  V30 1753 N 166.757 -4.4987 2.31195 0
M  V30 1754 C 165.055 -4.35471 0.963366 0
M  V30 1755 C 165.756 -5.01094 2.95431 0
M  V30 1756 N 164.732 -4.95751 2.23006 0
M  V30 1757 H 168.534 -2.46524 1.6001 0
M  V30 1758 H 166.048 -1.30481 0.966869 0
M  V30 1759 H 168.045 -4.16491 -0.184555 0
M  V30 1760 H 166.705 -3.15138 -0.78217 0
M  V30 1761 H 167.716 -4.42678 2.68806 0
M  V30 1762 H 164.393 -4.17328 0.119878 0
M  V30 1763 H 165.783 -5.4263 3.96236 0
M  V30 1764 N 168.503 -0.877838 -1.30888 0
M  V30 1765 C 169.752 -0.488793 -1.95688 0
M  V30 1766 C 170.065 0.965485 -1.70111 0
M  V30 1767 O 171.271 1.46104 -2.28836 0
M  V30 1768 C 169.727 -0.823201 -3.50359 0
M  V30 1769 C 169.335 -2.29477 -3.84765 0
M  V30 1770 C 171.079 -0.503009 -4.21509 0
M  V30 1771 C 168.986 -2.57118 -5.32583 0
M  V30 1772 H 167.916 -0.179062 -0.732429 0
M  V30 1773 H 170.567 -1.07183 -1.48943 0
M  V30 1774 H 168.949 -0.169331 -3.95638 0
M  V30 1775 H 170.123 -2.99236 -3.5042 0
M  V30 1776 H 168.438 -2.58178 -3.267 0
M  V30 1777 H 171.035 -0.68665 -5.30273 0
M  V30 1778 H 171.378 0.557109 -4.12555 0
M  V30 1779 H 171.911 -1.11376 -3.8189 0
M  V30 1780 H 168.65 -3.61843 -5.4658 0
M  V30 1781 H 168.17 -1.91961 -5.68253 0
M  V30 1782 H 169.849 -2.42251 -5.99936 0
M  V30 1783 N 169.982 1.44106 -0.638065 0
M  V30 1784 C 170.912 2.33448 0.0494287 0
M  V30 1785 C 171.893 1.48606 0.827672 0
M  V30 1786 O 173.078 1.77308 0.792173 0
M  V30 1787 C 170.208 3.31771 1.02691 0
M  V30 1788 C 169.162 4.26485 0.359823 0
M  V30 1789 C 168.488 5.14729 1.44769 0
M  V30 1790 C 169.788 5.17056 -0.738296 0
M  V30 1791 H 171.482 2.91183 -0.696636 0
M  V30 1792 H 169.028 1.40014 -0.336456 0
M  V30 1793 H 170.981 3.93161 1.51666 0
M  V30 1794 H 169.705 2.7226 1.80395 0
M  V30 1795 H 168.364 3.66437 -0.10934 0
M  V30 1796 H 168.012 4.51566 2.21578 0
M  V30 1797 H 167.712 5.78913 1.00668 0
M  V30 1798 H 169.236 5.78991 1.93911 0
M  V30 1799 H 170.65 5.72342 -0.331354 0
M  V30 1800 H 169.047 5.89879 -1.10286 0
M  V30 1801 H 170.117 4.57652 -1.60258 0
M  V30 1802 N 171.46 0.379036 1.52974 0
M  V30 1803 C 172.7 -0.206325 2.03356 0
M  V30 1804 C 173.064 -1.44892 1.25977 0
M  V30 1805 O 174.265 -2.11078 1.66432 0
M  V30 1806 C 172.536 -0.477887 3.54191 0
M  V30 1807 S 174.095 -1.035 4.26419 0
M  V30 1808 H 170.913 -0.0590259 0.708546 0
M  V30 1809 H 173.515 0.525013 1.88319 0
M  V30 1810 H 172.219 0.433745 4.08101 0
M  V30 1811 H 171.75 -1.23793 3.73415 0
M  V30 1812 H 173.765 -2.31821 4.38718 0
M  V30 1813 N 172.938 -1.57226 0.108567 0
M  V30 1814 C 174.184 -1.95919 -0.546564 0
M  V30 1815 C 174.539 -0.990417 -1.6495 0
M  V30 1816 O 173.832 -0.0186593 -1.91591 0
M  V30 1817 C 174.026 -3.38911 -1.13463 0
M  V30 1818 C 173.855 -4.4961 -0.0901926 0
M  V30 1819 C 172.625 -5.04168 0.338008 0
M  V30 1820 C 174.823 -5.09693 0.686808 0
M  V30 1821 N 172.805 -5.98434 1.36931 0
M  V30 1822 C 174.176 -5.99804 1.56958 0
M  V30 1823 C 176.231 -4.92388 0.738846 0
M  V30 1824 C 174.934 -6.74463 2.49983 0
M  V30 1825 C 176.96 -5.67719 1.65676 0
M  V30 1826 C 176.322 -6.57507 2.52713 0
M  V30 1827 H 172.421 -0.763312 -0.169936 0
M  V30 1828 H 175.005 -1.93728 0.194264 0
M  V30 1829 H 173.176 -3.41769 -1.84522 0
M  V30 1830 H 174.908 -3.64752 -1.75322 0
M  V30 1831 H 171.663 -4.73571 -0.0523673 0
M  V30 1832 H 172.087 -6.5027 1.88356 0
M  V30 1833 H 176.729 -4.22724 0.080084 0
M  V30 1834 H 174.447 -7.4338 3.16878 0
M  V30 1835 H 178.033 -5.56338 1.70233 0
M  V30 1836 H 176.913 -7.14778 3.22586 0
M  V30 1837 N 174.416 0.165178 -1.56732 0
M  V30 1838 C 175.827 0.727046 -1.71962 0
M  V30 1839 C 176.178 1.82508 -0.720078 0
M  V30 1840 O 175.303 2.16082 0.117242 0
M  V30 1841 C 175.898 1.32559 -3.11791 0
M  V30 1842 C 174.457 1.83422 -3.28684 0
M  V30 1843 C 173.604 0.715567 -2.67908 0
M  V30 1844 H 176.555 -0.0602896 -1.58585 0
M  V30 1845 H 176.576 2.19533 -3.10782 0
M  V30 1846 H 176.088 0.526195 -3.84516 0
M  V30 1847 H 174.189 2.65986 -2.60926 0
M  V30 1848 H 174.302 1.97543 -4.36478 0
M  V30 1849 H 172.666 1.13758 -2.27884 0
M  V30 1850 H 173.449 -0.0720836 -3.43224 0
M  V30 1851 N 175.894 1.51508 0.433938 0
M  V30 1852 C 176.824 1.76016 1.53429 0
M  V30 1853 C 177.805 0.610112 1.58782 0
M  V30 1854 O 178.99 0.853177 1.74455 0
M  V30 1855 C 176.12 1.88831 2.9148 0
M  V30 1856 C 175.074 3.04288 3.00987 0
M  V30 1857 C 174.4 3.0229 4.4105 0
M  V30 1858 C 175.7 4.44193 2.74754 0
M  V30 1859 H 177.394 2.68152 1.33171 0
M  V30 1860 H 174.94 1.29035 0.639214 0
M  V30 1861 H 176.893 2.04559 3.6842 0
M  V30 1862 H 175.617 0.933455 3.12976 0
M  V30 1863 H 174.276 2.8827 2.26486 0
M  V30 1864 H 173.924 2.04576 4.59519 0
M  V30 1865 H 173.624 3.79822 4.4834 0
M  V30 1866 H 175.148 3.20116 5.1996 0
M  V30 1867 H 176.562 4.60544 3.41426 0
M  V30 1868 H 174.959 5.23457 2.9345 0
M  V30 1869 H 176.029 4.53996 1.70339 0
M  V30 1870 N 177.372 -0.689602 1.41712 0
M  V30 1871 C 178.62 -1.4468 1.4111 0
M  V30 1872 C 178.941 -1.94986 0.0232196 0
M  V30 1873 O 178.211 -1.72097 -0.935913 0
M  V30 1874 H 176.791 -0.536847 0.519427 0
M  V30 1875 H 179.453 -0.815825 1.77004 0
M  V30 1876 H 178.549 -2.30706 2.10193 0
M  V30 1877 N 178.85 -1.27639 -0.924453 0
M  V30 1878 C 179.813 -1.10681 -2.00705 0
M  V30 1879 C 180.813 -0.0497823 -1.60723 0
M  V30 1880 O 182.003 -0.294654 -1.7169 0
M  V30 1881 C 179.135 -0.687164 -3.33902 0
M  V30 1882 H 180.328 -2.06817 -2.17179 0
M  V30 1883 H 177.881 -1.10473 -1.10569 0
M  V30 1884 H 178.616 0.275439 -3.23128 0
M  V30 1885 H 178.401 -1.45061 -3.6428 0
M  V30 1886 H 179.891 -0.590853 -4.13399 0
M  V30 1887 N 180.328 1.1314 -1.09713 0
M  V30 1888 C 181.739 1.66029 -0.853885 0
M  V30 1889 C 182.09 1.86241 0.617142 0
M  V30 1890 O 181.215 1.5834 1.47503 0
M  V30 1891 C 181.81 3.01599 -1.5435 0
M  V30 1892 C 180.369 3.51467 -1.34714 0
M  V30 1893 C 179.516 2.26648 -1.59769 0
M  V30 1894 H 182.467 0.970226 -1.25588 0
M  V30 1895 H 182.488 3.67709 -0.978267 0
M  V30 1896 H 182 2.86856 -2.6141 0
M  V30 1897 H 180.101 3.71408 -0.297838 0
M  V30 1898 H 180.214 4.314 -2.08401 0
M  V30 1899 H 178.578 2.33385 -1.01998 0
M  V30 1900 H 179.361 2.14467 -2.68065 0
M  V30 1901 N 181.806 0.884767 1.30421 0
M  V30 1902 C 183.054 0.502112 1.95763 0
M  V30 1903 C 183.375 -0.951815 1.70192 0
M  V30 1904 O 182.645 -1.6692 1.0254 0
M  V30 1905 H 181.225 0.182694 0.724315 0
M  V30 1906 H 183.887 1.1278 1.58955 0
M  V30 1907 H 182.983 0.672188 3.04775 0
M  V30 1908 N 183.284 -1.43765 0.645699 0
M  V30 1909 C 184.194 -2.34544 -0.0512957 0
M  V30 1910 C 185.21 -1.53455 -0.82022 0
M  V30 1911 O 186.386 -1.86133 -0.769176 0
M  V30 1912 C 183.451 -3.31636 -1.01087 0
M  V30 1913 C 182.512 -4.2863 -0.239712 0
M  V30 1914 C 181.745 -5.21084 -1.15358 0
M  V30 1915 O 181.968 -5.1779 -2.39269 0
M  V30 1916 O 180.902 -5.98593 -0.630038 0
M  V30 1917 H 184.728 -2.95624 0.695718 0
M  V30 1918 H 182.313 -1.43781 0.405882 0
M  V30 1919 H 184.195 -3.9136 -1.56254 0
M  V30 1920 H 182.87 -2.73069 -1.73824 0
M  V30 1921 H 181.777 -3.72408 0.355356 0
M  V30 1922 H 183.11 -4.90157 0.447936 0
M  V30 1923 N 184.763 -0.387143 -1.52771 0
M  V30 1924 C 186.009 0.196025 -2.0185 0
M  V30 1925 C 186.342 1.46641 -1.27319 0
M  V30 1926 O 185.617 1.90889 -0.373032 0
M  V30 1927 C 185.9 0.466136 -3.5707 0
M  V30 1928 C 185.753 -0.819385 -4.42274 0
M  V30 1929 C 187.072 1.25768 -4.21747 0
M  V30 1930 H 184.191 0.0697708 -0.73369 0
M  V30 1931 H 186.833 -0.516286 -1.82851 0
M  V30 1932 H 184.983 1.07293 -3.7339 0
M  V30 1933 H 186.655 -1.4563 -4.37709 0
M  V30 1934 H 184.898 -1.43517 -4.09372 0
M  V30 1935 H 185.569 -0.585065 -5.48891 0
M  V30 1936 H 188.045 0.744167 -4.09391 0
M  V30 1937 H 186.921 1.41541 -5.30337 0
M  V30 1938 H 187.182 2.27228 -3.79236 0
M  V30 1939 N 186.241 1.57166 -0.116904 0
M  V30 1940 C 187.487 1.95412 0.542405 0
M  V30 1941 C 187.82 1.00019 1.66463 0
M  V30 1942 O 187.095 0.0370346 1.94465 0
M  V30 1943 C 187.378 3.43615 1.07708 0
M  V30 1944 C 187.231 4.49781 -0.0415868 0
M  V30 1945 C 188.55 3.93616 1.96861 0
M  V30 1946 H 185.669 0.710543 0.195696 0
M  V30 1947 H 188.311 1.89027 -0.192038 0
M  V30 1948 H 186.461 3.49187 1.70296 0
M  V30 1949 H 188.133 4.56308 -0.676793 0
M  V30 1950 H 186.376 4.28033 -0.705019 0
M  V30 1951 H 187.047 5.50733 0.373717 0
M  V30 1952 H 189.523 3.90335 1.44146 0
M  V30 1953 H 188.399 4.97838 2.3119 0
M  V30 1954 H 188.66 3.34188 2.89432 0
M  V30 1955 N 187.719 -0.156864 1.56817 0
M  V30 1956 C 188.682 -1.17781 1.96622 0
M  V30 1957 C 189.682 -1.36401 0.851555 0
M  V30 1958 O 190.872 -1.33561 1.11836 0
M  V30 1959 C 188.004 -2.54008 2.27361 0
M  V30 1960 H 189.197 -0.836564 2.87996 0
M  V30 1961 H 186.75 -0.39985 1.51099 0
M  V30 1962 H 187.485 -2.9312 1.38748 0
M  V30 1963 H 187.27 -2.41856 3.08623 0
M  V30 1964 H 188.76 -3.27558 2.59029 0
M  V30 1965 N 189.197 -1.51736 -0.425897 0
M  V30 1966 C 190.443 -1.65214 -1.1761 0
M  V30 1967 C 190.776 -0.372778 -1.90589 0
M  V30 1968 O 190.051 0.628139 -1.84078 0
M  V30 1969 C 190.334 -2.86312 -2.18398 0
M  V30 1970 C 190.187 -4.24254 -1.49426 0
M  V30 1971 C 191.506 -3.02925 -3.19256 0
M  V30 1972 H 188.625 -0.601263 -0.426206 0
M  V30 1973 H 191.267 -1.8425 -0.463882 0
M  V30 1974 H 189.417 -2.70213 -2.79137 0
M  V30 1975 H 191.089 -4.52046 -0.919362 0
M  V30 1976 H 189.332 -4.26426 -0.796432 0
M  V30 1977 H 190.003 -5.05001 -2.22885 0
M  V30 1978 H 192.479 -3.1781 -2.68581 0
M  V30 1979 H 191.355 -3.89199 -3.8706 0
M  V30 1980 H 191.616 -2.15497 -3.86023 0
M  V30 1981 N 190.675 0.682077 -1.42076 0
M  V30 1982 C 192.086 1.26246 -1.37546 0
M  V30 1983 C 192.437 1.96092 -0.0651481 0
M  V30 1984 O 191.562 1.99587 0.836297 0
M  V30 1985 C 192.157 2.29594 -2.49143 0
M  V30 1986 C 190.716 2.83175 -2.47969 0
M  V30 1987 C 189.863 1.57395 -2.28303 0
M  V30 1988 H 192.814 0.475937 -1.51395 0
M  V30 1989 H 192.835 3.11175 -2.18976 0
M  V30 1990 H 192.347 1.78729 -3.44496 0
M  V30 1991 H 190.448 3.3818 -1.56413 0
M  V30 1992 H 190.561 3.32687 -3.44755 0
M  V30 1993 H 188.925 1.83699 -1.76428 0
M  V30 1994 H 189.708 1.08507 -3.25701 0
M  V30 1995 N 192.153 1.28127 0.917671 0
M  V30 1996 C 193.393 1.163 1.68088 0
M  V30 1997 C 193.757 -0.284515 1.8988 0
M  V30 1998 O 194.958 -0.525413 2.63615 0
M  V30 1999 C 193.229 1.93546 3.00457 0
M  V30 2000 S 194.788 1.98048 3.91564 0
M  V30 2001 H 191.606 0.415005 0.577315 0
M  V30 2002 H 194.208 1.62173 1.09179 0
M  V30 2003 H 192.912 2.97888 2.82295 0
M  V30 2004 H 192.443 1.48207 3.64415 0
M  V30 2005 H 194.458 1.08415 4.84211 0
M  V30 2006 N 193.631 -1.12557 1.10312 0
M  V30 2007 C 195.042 -1.65574 0.862678 0
M  V30 2008 C 195.393 -1.86566 -0.607256 0
M  V30 2009 O 194.518 -1.59121 -1.46662 0
M  V30 2010 C 195.113 -3.00776 1.55947 0
M  V30 2011 C 193.672 -3.50748 1.36576 0
M  V30 2012 C 192.819 -2.25797 1.60968 0
M  V30 2013 H 195.77 -0.963552 1.26101 0
M  V30 2014 H 195.791 -3.67185 0.997753 0
M  V30 2015 H 195.303 -2.85465 2.62928 0
M  V30 2016 H 193.404 -3.71245 0.317531 0
M  V30 2017 H 193.517 -4.30289 2.10686 0
M  V30 2018 H 191.881 -2.32841 1.03234 0
M  V30 2019 H 192.664 -2.13043 2.69198 0
M  V30 2020 N 195.109 -0.891671 -1.2995 0
M  V30 2021 C 196.386 -0.433307 -1.9074 0
M  V30 2022 C 196.766 1.08646 -1.80995 0
M  V30 2023 O 196.114 1.92476 -1.23147 0
M  V30 2024 C 196.324 -0.938895 -3.36134 0
M  V30 2025 C 197.672 -0.977829 -4.13187 0
M  V30 2026 O 198.696 -0.886015 -3.45005 0
M  V30 2027 O 197.555 -1.11453 -5.35015 0
M  V30 2028 H 194.649 -0.133699 -0.816121 0
M  V30 2029 H 197.195 -0.981011 -1.38471 0
M  V30 2030 H 195.967 -1.98281 -3.37343 0
M  V30 2031 H 195.59 -0.37074 -3.95868 0
M  V30 2032 N 196.587 1.43421 -0.653314 0
M  V30 2033 C 197.817 2.05864 -0.174238 0
M  V30 2034 C 198.225 1.49052 1.16534 0
M  V30 2035 O 197.568 0.616481 1.73047 0
M  V30 2036 C 197.63 3.59499 -0.00875873 0
M  V30 2037 C 197.294 4.38893 -1.27364 0
M  V30 2038 C 198.291 4.70947 -2.20239 0
M  V30 2039 C 195.976 4.789 -1.51525 0
M  V30 2040 C 197.97 5.41916 -3.35568 0
M  V30 2041 C 195.657 5.49614 -2.67147 0
M  V30 2042 C 196.655 5.81044 -3.58994 0
M  V30 2043 O 196.343 6.50313 -4.72597 0
M  V30 2044 H 196.075 0.670345 -0.0872549 0
M  V30 2045 H 198.629 1.84913 -0.894226 0
M  V30 2046 H 196.859 3.79025 0.7666 0
M  V30 2047 H 198.548 4.0364 0.427687 0
M  V30 2048 H 199.314 4.40558 -2.02815 0
M  V30 2049 H 195.193 4.53843 -0.809158 0
M  V30 2050 H 198.737 5.66365 -4.07279 0
M  V30 2051 H 194.634 5.79419 -2.84505 0
M  V30 2052 H 195.402 6.68795 -4.71864 0
M  V30 2053 N 198.065 0.39524 1.52563 0
M  V30 2054 C 199.314 -0.186321 2.00838 0
M  V30 2055 C 199.627 -1.47402 1.28577 0
M  V30 2056 O 200.833 -2.13599 1.67593 0
M  V30 2057 C 199.289 -0.382595 3.57861 0
M  V30 2058 C 198.897 0.892202 4.39026 0
M  V30 2059 C 200.641 -0.9202 4.14406 0
M  V30 2060 C 198.548 0.66388 5.87662 0
M  V30 2061 H 197.478 -0.0734041 0.750418 0
M  V30 2062 H 200.129 0.518552 1.76021 0
M  V30 2063 H 198.511 -1.14946 3.7895 0
M  V30 2064 H 199.685 1.66414 4.29701 0
M  V30 2065 H 198 1.35519 3.9373 0
M  V30 2066 H 200.597 -1.10683 5.23119 0
M  V30 2067 H 200.94 -1.89096 3.70875 0
M  V30 2068 H 201.473 -0.212751 3.97231 0
M  V30 2069 H 198.212 1.6058 6.35527 0
M  V30 2070 H 197.732 -0.0690193 5.9976 0
M  V30 2071 H 199.411 0.300699 6.46301 0
M  V30 2072 N 199.544 -1.57102 0.125237 0
M  V30 2073 C 200.774 -1.99472 -0.538015 0
M  V30 2074 C 201.182 -1.00395 -1.60366 0
M  V30 2075 O 200.525 0.0103875 -1.83697 0
M  V30 2076 C 200.587 -3.38262 -1.21734 0
M  V30 2077 C 200.251 -4.56021 -0.298897 0
M  V30 2078 C 201.248 -5.17817 0.464943 0
M  V30 2079 C 198.933 -5.01869 -0.208149 0
M  V30 2080 C 200.927 -6.23852 1.3072 0
M  V30 2081 C 198.614 -6.07763 0.637736 0
M  V30 2082 C 199.612 -6.68622 1.39403 0
M  V30 2083 O 199.3 -7.7247 2.22586 0
M  V30 2084 H 199.032 -0.659934 -0.146501 0
M  V30 2085 H 201.586 -2.04321 0.210267 0
M  V30 2086 H 199.816 -3.30185 -2.01282 0
M  V30 2087 H 201.505 -3.6488 -1.77813 0
M  V30 2088 H 202.271 -4.83308 0.404741 0
M  V30 2089 H 198.15 -4.54241 -0.786522 0
M  V30 2090 H 201.694 -6.71284 1.898 0
M  V30 2091 H 197.591 -6.41701 0.699309 0
M  V30 2092 H 198.359 -7.89595 2.15596 0
M  V30 2093 N 201.022 0.148545 -1.56898 0
M  V30 2094 C 202.299 0.890019 -1.74178 0
M  V30 2095 C 202.679 1.99407 -0.692839 0
M  V30 2096 O 202.027 2.26671 0.288505 0
M  V30 2097 C 202.237 1.43389 -3.18183 0
M  V30 2098 C 203.585 1.89791 -3.79822 0
M  V30 2099 O 204.609 1.53134 -3.21603 0
M  V30 2100 O 203.468 2.57387 -4.82093 0
M  V30 2101 H 200.562 0.420496 -0.712118 0
M  V30 2102 H 203.108 0.134591 -1.69165 0
M  V30 2103 H 201.88 0.640383 -3.86024 0
M  V30 2104 H 201.503 2.25287 -3.27615 0
M  V30 2105 N 202.5 1.5196 0.417844 0
M  V30 2106 C 203.747 1.65591 1.16559 0
M  V30 2107 C 204.075 0.381565 1.90721 0
M  V30 2108 O 203.33 -0.635156 1.85106 0
M  V30 2109 C 203.629 2.82269 2.19223 0
M  V30 2110 C 203.295 4.20819 1.61933 0
M  V30 2111 C 201.957 4.58506 1.46033 0
M  V30 2112 C 204.309 5.07196 1.20008 0
M  V30 2113 C 201.637 5.80257 0.867113 0
M  V30 2114 C 203.989 6.29544 0.621086 0
M  V30 2115 C 202.653 6.65987 0.449144 0
M  V30 2116 H 201.923 0.605939 0.42652 0
M  V30 2117 H 204.57 1.86041 0.45397 0
M  V30 2118 H 202.875 2.56118 2.96498 0
M  V30 2119 H 204.572 2.90012 2.76936 0
M  V30 2120 H 201.162 3.91116 1.7529 0
M  V30 2121 H 205.346 4.7867 1.31105 0
M  V30 2122 H 200.602 6.07124 0.721833 0
M  V30 2123 H 204.776 6.95805 0.287798 0
M  V30 2124 H 202.403 7.60199 -0.012632 0
M  V30 2125 N 203.978 -0.674533 1.42435 0
M  V30 2126 C 204.926 -1.80934 1.46169 0
M  V30 2127 C 205.92 -1.66006 0.3374 0
M  V30 2128 O 207.126 -1.72611 0.510425 0
M  V30 2129 H 203.501 -0.596594 0.457798 0
M  V30 2130 H 205.472 -1.74903 2.41767 0
M  V30 2131 C 204.221 -3.19088 1.38123 0
M  V30 2132 H 203.544 -3.31203 2.23931 0
M  V30 2133 H 204.984 -3.9851 1.44797 0
M  V30 2134 C 203.443 -3.36763 0.0960517 0
M  V30 2135 O 203.973 -3.92581 -0.851073 0
M  V30 2136 N 202.179 -2.90597 0.0131186 0
M  V30 2137 H 201.726 -2.45359 0.784639 0
M  V30 2138 H 201.684 -3.028 -0.846133 0
M  V30 2139 N 205.456 -1.28612 -0.910864 0
M  V30 2140 C 206.406 -1.09423 -2.00026 0
M  V30 2141 C 207.39 -0.0170079 -1.60891 0
M  V30 2142 O 208.582 -0.237472 -1.754 0
M  V30 2143 C 205.711 -0.76114 -3.34756 0
M  V30 2144 C 204.797 -1.87735 -3.80285 0
M  V30 2145 N 205.188 -3.11938 -3.98156 0
M  V30 2146 C 203.486 -1.76786 -4.09467 0
M  V30 2147 C 204.187 -3.84687 -4.36338 0
M  V30 2148 N 203.163 -3.12555 -4.44759 0
M  V30 2149 H 206.965 -2.03658 -2.11898 0
M  V30 2150 H 204.479 -1.19573 -1.09891 0
M  V30 2151 H 206.476 -0.604743 -4.12491 0
M  V30 2152 H 205.136 0.173403 -3.24237 0
M  V30 2153 H 206.147 -3.47516 -3.83996 0
M  V30 2154 H 202.824 -0.905284 -4.07567 0
M  V30 2155 H 204.214 -4.91518 -4.58104 0
M  V30 2156 N 206.934 1.1197 -1.10907 0
M  V30 2157 C 207.881 2.17846 -0.762345 0
M  V30 2158 C 208.851 1.63995 0.263599 0
M  V30 2159 O 210.036 1.90273 0.141773 0
M  V30 2160 C 207.176 3.44487 -0.205651 0
M  V30 2161 C 206.289 4.12369 -1.28748 0
M  V30 2162 C 205.424 5.26674 -0.691919 0
M  V30 2163 C 204.463 5.86431 -1.75399 0
M  V30 2164 N 203.6 6.92142 -1.17833 0
M  V30 2165 H 208.44 2.46851 -1.6694 0
M  V30 2166 H 205.977 1.21188 -0.833776 0
M  V30 2167 H 207.935 4.16981 0.135037 0
M  V30 2168 H 206.565 3.15884 0.664613 0
M  V30 2169 H 205.617 3.38003 -1.74522 0
M  V30 2170 H 206.929 4.52844 -2.09125 0
M  V30 2171 H 206.083 6.05953 -0.300963 0
M  V30 2172 H 204.822 4.8749 0.143232 0
M  V30 2173 H 203.827 5.05835 -2.15432 0
M  V30 2174 H 205.052 6.27685 -2.59208 0
M  V30 2175 H 202.998 6.54985 -0.364725 0
M  V30 2176 H 202.915 7.31242 -1.91887 0
M  V30 2177 H 204.183 7.75237 -0.81408 0
M  V30 2178 N 208.412 0.89855 1.29475 0
M  V30 2179 C 209.66 0.522847 1.9522 0
M  V30 2180 C 209.981 -0.93371 1.71192 0
M  V30 2181 O 209.251 -1.65823 1.04305 0
M  V30 2182 H 207.831 0.190366 0.722336 0
M  V30 2183 H 210.493 1.14459 1.5775 0
M  V30 2184 H 209.589 0.704476 3.04045 0
M  V30 2185 N 209.89 -1.43072 0.660911 0
M  V30 2186 C 210.84 -2.27948 -0.04847 0
M  V30 2187 C 211.824 -1.40325 -0.787246 0
M  V30 2188 O 213.016 -1.63893 -0.668446 0
M  V30 2189 C 210.145 -3.28143 -1.00881 0
M  V30 2190 C 209.231 -4.23252 -0.268108 0
M  V30 2191 N 209.622 -5.00656 0.719528 0
M  V30 2192 C 207.92 -4.43092 -0.508493 0
M  V30 2193 C 208.621 -5.70019 1.15988 0
M  V30 2194 N 207.597 -5.41364 0.492584 0
M  V30 2195 H 211.399 -2.85213 0.709279 0
M  V30 2196 H 208.913 -1.54869 0.488822 0
M  V30 2197 H 210.91 -3.87736 -1.53188 0
M  V30 2198 H 209.57 -2.7244 -1.76654 0
M  V30 2199 H 210.581 -5.06115 1.09855 0
M  V30 2200 H 207.258 -3.98449 -1.24679 0
M  V30 2201 H 208.648 -6.4214 1.97751 0
M  V30 2202 N 211.368 -0.403325 -1.52352 0
M  V30 2203 C 212.331 0.413051 -2.25447 0
M  V30 2204 C 213.331 0.978513 -1.276 0
M  V30 2205 O 214.521 0.858305 -1.51587 0
M  V30 2206 C 211.653 1.58087 -3.02029 0
M  V30 2207 H 212.846 -0.227094 -2.99039 0
M  V30 2208 H 210.399 -0.155722 -1.55522 0
M  V30 2209 H 211.134 2.25804 -2.32772 0
M  V30 2210 H 210.919 1.18195 -3.73861 0
M  V30 2211 H 212.409 2.1585 -3.57489 0
M  V30 2212 N 212.846 1.57033 -0.133567 0
M  V30 2213 C 214.076 1.99754 0.527429 0
M  V30 2214 C 214.484 1.01245 1.59832 0
M  V30 2215 O 213.827 -0.000645496 1.837 0
M  V30 2216 C 213.889 3.38903 1.19939 0
M  V30 2217 C 213.553 4.56174 0.274709 0
M  V30 2218 C 214.55 5.17563 -0.492398 0
M  V30 2219 C 212.235 5.01972 0.18153 0
M  V30 2220 C 214.229 6.2315 -1.34027 0
M  V30 2221 C 211.916 6.07416 -0.669958 0
M  V30 2222 C 212.914 6.67874 -1.42947 0
M  V30 2223 O 212.602 7.71279 -2.2668 0
M  V30 2224 H 212.334 0.660702 0.142999 0
M  V30 2225 H 214.888 2.04207 -0.221099 0
M  V30 2226 H 213.118 3.31248 1.99528 0
M  V30 2227 H 214.807 3.65818 1.75875 0
M  V30 2228 H 215.573 4.83087 -0.430367 0
M  V30 2229 H 211.452 4.54652 0.762422 0
M  V30 2230 H 214.996 6.70268 -1.93357 0
M  V30 2231 H 210.893 6.41321 -0.73333 0
M  V30 2232 H 211.661 7.88441 -2.1978 0
M  V30 2233 N 214.325 -0.140222 1.56975 0
M  V30 2234 C 215.741 -0.493088 1.51792 0
M  V30 2235 C 215.941 -1.83013 0.843116 0
M  V30 2236 O 214.997 -2.49041 0.416493 0
M  V30 2237 C 216.31 -0.497144 2.96562 0
M  V30 2238 C 217.858 -0.582186 3.07538 0
M  V30 2239 C 218.333 -0.616838 4.53827 0
M  V30 2240 N 219.824 -0.678873 4.58198 0
M  V30 2241 C 220.559 -0.726782 5.68775 0
M  V30 2242 N 220.055 -0.733623 6.88905 0
M  V30 2243 N 221.848 -0.768179 5.56826 0
M  V30 2244 H 213.999 0.736108 1.99237 0
M  V30 2245 H 216.262 0.269182 0.90898 0
M  V30 2246 H 215.968 0.417217 3.49217 0
M  V30 2247 H 215.842 -1.33263 3.52875 0
M  V30 2248 H 218.229 -1.48697 2.54899 0
M  V30 2249 H 218.31 0.280581 2.54257 0
M  V30 2250 H 217.954 0.283812 5.07106 0
M  V30 2251 H 217.884 -1.49619 5.04898 0
M  V30 2252 H 220.375 -0.68061 3.7172 0
M  V30 2253 H 220.688 -0.772215 7.68932 0
M  V30 2254 H 219.033 -0.701389 6.91452 0
M  V30 2255 H 222.224 -0.760051 4.61888 0
M  V30 2256 H 222.397 -0.80205 6.43017 0
M  V30 2257 N 215.803 -1.52179 -0.40978 0
M  V30 2258 C 217.219 -1.40968 -0.74835 0
M  V30 2259 C 217.419 -0.513657 -1.94843 0
M  V30 2260 O 216.475 0.0208026 -2.52491 0
M  V30 2261 C 217.788 -2.83483 -1.0029 0
M  V30 2262 C 219.336 -2.92821 -1.10565 0
M  V30 2263 C 219.811 -4.36303 -1.39296 0
M  V30 2264 N 221.302 -4.39535 -1.46162 0
M  V30 2265 C 222.037 -5.47614 -1.70018 0
M  V30 2266 N 221.533 -6.65812 -1.91483 0
M  V30 2267 N 223.326 -5.35129 -1.72027 0
M  V30 2268 H 215.477 -2.0897 0.380186 0
M  V30 2269 H 217.74 -0.94185 0.107805 0
M  V30 2270 H 217.446 -3.51168 -0.193461 0
M  V30 2271 H 217.32 -3.24487 -1.92323 0
M  V30 2272 H 219.707 -2.25318 -1.90568 0
M  V30 2273 H 219.788 -2.55276 -0.16369 0
M  V30 2274 H 219.432 -5.04366 -0.598109 0
M  V30 2275 H 219.362 -4.71385 -2.34743 0
M  V30 2276 H 221.853 -3.54332 -1.31367 0
M  V30 2277 H 222.166 -7.43964 -2.09134 0
M  V30 2278 H 220.511 -6.68879 -1.88749 0
M  V30 2279 H 223.702 -4.41764 -1.54796 0
M  V30 2280 H 223.875 -6.19433 -1.9028 0
M  V30 2281 N 217.281 0.66697 -1.42791 0
M  V30 2282 C 218.521 1.43892 -1.4517 0
M  V30 2283 C 218.885 1.91877 -0.0687551 0
M  V30 2284 O 220.086 2.6878 0.0327455 0
M  V30 2285 C 218.357 2.59839 -2.45395 0
M  V30 2286 S 219.916 3.48572 -2.66539 0
M  V30 2287 H 216.734 0.491356 -0.513897 0
M  V30 2288 H 219.336 0.775656 -1.79454 0
M  V30 2289 H 218.04 2.22838 -3.44632 0
M  V30 2290 H 217.571 3.3103 -2.12562 0
M  V30 2291 H 219.586 4.56094 -1.95429 0
M  V30 2292 N 218.759 1.29093 0.90403 0
M  V30 2293 C 220.036 1.075 1.63411 0
M  V30 2294 C 220.416 -0.382346 2.07609 0
M  V30 2295 O 219.764 -1.37031 1.82851 0
M  V30 2296 C 219.974 2.05858 2.81822 0
M  V30 2297 C 221.322 2.36539 3.52611 0
M  V30 2298 O 222.346 2.04019 2.91984 0
M  V30 2299 O 221.205 2.92085 4.61897 0
M  V30 2300 H 218.299 0.411547 0.717327 0
M  V30 2301 H 220.845 1.40449 0.952479 0
M  V30 2302 H 219.617 3.04037 2.46327 0
M  V30 2303 H 219.24 1.73613 3.57693 0
M  V30 2304 N 220.237 -1.11381 1.11499 0
M  V30 2305 C 221.653 -1.35143 0.849031 0
M  V30 2306 C 221.853 -1.94515 -0.525938 0
M  V30 2307 O 220.909 -2.1785 -1.27662 0
M  V30 2308 C 222.222 -2.28249 1.95762 0
M  V30 2309 C 223.77 -2.41812 1.98736 0
M  V30 2310 C 224.245 -3.3824 3.088 0
M  V30 2311 N 225.736 -3.45803 3.08179 0
M  V30 2312 C 226.471 -4.20358 3.89982 0
M  V30 2313 N 225.967 -4.97884 4.8175 0
M  V30 2314 N 227.76 -4.15877 3.78157 0
M  V30 2315 H 219.911 -0.712062 2.00109 0
M  V30 2316 H 222.174 -0.376025 0.870235 0
M  V30 2317 H 221.88 -1.91817 2.94787 0
M  V30 2318 H 221.754 -3.28473 1.85433 0
M  V30 2319 H 224.141 -2.77518 1.00338 0
M  V30 2320 H 224.222 -1.41437 2.13141 0
M  V30 2321 H 223.866 -3.03261 4.07425 0
M  V30 2322 H 223.796 -4.38471 2.91635 0
M  V30 2323 H 226.287 -2.90506 2.41691 0
M  V30 2324 H 226.6 -5.52142 5.40702 0
M  V30 2325 H 224.945 -4.97043 4.85771 0
M  V30 2326 H 228.136 -3.544 3.05808 0
M  V30 2327 H 228.309 -4.73723 4.42143 0
M  V30 2328 N 221.715 -0.905404 -1.28997 0
M  V30 2329 C 222.663 -0.377431 -2.29517 0
M  V30 2330 C 223.657 0.526461 -1.61012 0
M  V30 2331 O 224.863 0.40863 -1.753 0
M  V30 2332 H 221.238 -0.103437 -0.744852 0
M  V30 2333 H 223.209 -1.23848 -2.71485 0
M  V30 2334 C 221.958 0.374833 -3.45674 0
M  V30 2335 H 221.281 -0.311474 -3.98585 0
M  V30 2336 H 222.721 0.70903 -4.1803 0
M  V30 2337 C 221.18 1.57963 -2.97572 0
M  V30 2338 O 221.71 2.67886 -2.99333 0
M  V30 2339 N 219.916 1.42375 -2.53333 0
M  V30 2340 H 219.463 0.529466 -2.521 0
M  V30 2341 H 219.421 2.23117 -2.21509 0
M  V30 2342 N 223.193 1.4272 -0.668489 0
M  V30 2343 C 224.441 2.01226 -0.187769 0
M  V30 2344 C 224.762 1.53092 1.2078 0
M  V30 2345 O 224.032 0.74993 1.80977 0
M  V30 2346 H 222.612 0.744041 -0.0664272 0
M  V30 2347 H 225.274 1.74723 -0.863583 0
M  V30 2348 H 224.37 3.11556 -0.184166 0
M  V30 2349 N 224.671 0.411399 1.52136 0
M  V30 2350 C 225.896 -0.165538 2.06738 0
M  V30 2351 C 226.321 -1.379 1.27926 0
M  V30 2352 O 225.679 -1.78628 0.310114 0
M  V30 2353 C 225.727 -0.492124 3.57226 0
M  V30 2354 O 224.831 -1.58276 3.80818 0
M  V30 2355 H 224.172 -0.0132132 0.663869 0
M  V30 2356 H 226.702 0.585253 1.96051 0
M  V30 2357 H 226.712 -0.750104 4.01045 0
M  V30 2358 H 225.387 0.394922 4.14021 0
M  V30 2359 H 223.964 -1.31677 3.48877 0
M  V30 2360 N 226.149 -1.5696 0.141893 0
M  V30 2361 C 227.395 -1.97034 -0.504884 0
M  V30 2362 C 227.75 -1.02518 -1.62812 0
M  V30 2363 O 227.043 -0.0592943 -1.91508 0
M  V30 2364 C 227.237 -3.41242 -1.06249 0
M  V30 2365 C 227.066 -4.497 0.00519653 0
M  V30 2366 C 225.836 -5.03338 0.444873 0
M  V30 2367 C 228.034 -5.08122 0.794767 0
M  V30 2368 N 226.016 -5.95395 1.49593 0
M  V30 2369 C 227.387 -5.96339 1.69645 0
M  V30 2370 C 229.442 -4.9071 0.843122 0
M  V30 2371 C 228.145 -6.69009 2.64233 0
M  V30 2372 C 230.171 -5.64077 1.77681 0
M  V30 2373 C 229.533 -6.51999 2.66603 0
M  V30 2374 H 225.632 -0.766745 -0.153707 0
M  V30 2375 H 228.216 -1.93273 0.235313 0
M  V30 2376 H 226.387 -3.45606 -1.77231 0
M  V30 2377 H 228.119 -3.68389 -1.67546 0
M  V30 2378 H 224.874 -4.73576 0.0480959 0
M  V30 2379 H 225.298 -6.46128 2.02107 0
M  V30 2380 H 229.94 -4.22459 0.169732 0
M  V30 2381 H 227.658 -7.36492 3.32575 0
M  V30 2382 H 231.244 -5.52602 1.81996 0
M  V30 2383 H 230.124 -7.07775 3.37675 0
M  V30 2384 N 227.627 0.131896 -1.57047 0
M  V30 2385 C 228.537 1.1815 -2.02676 0
M  V30 2386 C 229.553 1.46113 -0.944824 0
M  V30 2387 O 230.729 1.57485 -1.25541 0
M  V30 2388 C 227.794 2.49139 -2.41103 0
M  V30 2389 C 226.855 2.28688 -3.63318 0
M  V30 2390 C 226.088 3.53431 -3.99903 0
M  V30 2391 O 226.311 4.60223 -3.36973 0
M  V30 2392 O 225.245 3.45198 -4.93074 0
M  V30 2393 H 229.071 0.824069 -2.92306 0
M  V30 2394 H 226.656 0.341745 -1.45439 0
M  V30 2395 H 228.538 3.26338 -2.66611 0
M  V30 2396 H 227.213 2.84382 -1.54624 0
M  V30 2397 H 226.12 1.4939 -3.42977 0
M  V30 2398 H 227.453 1.98355 -4.50462 0
M  V30 2399 N 229.106 1.52395 0.401703 0
M  V30 2400 C 230.036 1.79231 1.49661 0
M  V30 2401 C 231.017 0.643654 1.57452 0
M  V30 2402 O 232.202 0.889989 1.72606 0
M  V30 2403 C 229.332 1.94971 2.87409 0
M  V30 2404 C 228.286 3.10604 2.94465 0
M  V30 2405 C 227.612 3.11577 4.34538 0
M  V30 2406 C 228.912 4.49921 2.6527 0
M  V30 2407 H 230.606 2.70917 1.27454 0
M  V30 2408 H 228.152 1.30362 0.6117 0
M  V30 2409 H 230.105 2.12328 3.63999 0
M  V30 2410 H 228.829 0.999632 3.10926 0
M  V30 2411 H 227.488 2.93009 2.20321 0
M  V30 2412 H 227.136 2.14277 4.55076 0
M  V30 2413 H 226.836 3.89247 4.40183 0
M  V30 2414 H 228.36 3.31073 5.13053 0
M  V30 2415 H 229.774 4.67683 3.31581 0
M  V30 2416 H 228.171 5.29564 2.82281 0
M  V30 2417 H 229.241 4.57507 1.60671 0
M  V30 2418 N 230.584 -0.659388 1.43143 0
M  V30 2419 C 231.83 -1.42145 1.44647 0
M  V30 2420 C 232.163 -1.9408 0.0681907 0
M  V30 2421 O 231.438 -1.71899 -0.910007 0
M  V30 2422 C 231.721 -2.60735 2.48373 0
M  V30 2423 C 231.574 -2.14332 3.95451 0
M  V30 2424 C 232.893 -3.62951 2.48906 0
M  V30 2425 H 230.012 -0.51552 0.526696 0
M  V30 2426 H 232.654 -0.748069 1.74654 0
M  V30 2427 H 230.804 -3.18184 2.22916 0
M  V30 2428 H 232.476 -1.61932 4.31944 0
M  V30 2429 H 230.719 -1.4576 4.08578 0
M  V30 2430 H 231.39 -2.99583 4.63631 0
M  V30 2431 H 233.866 -3.1525 2.71582 0
M  V30 2432 H 232.742 -4.43487 3.23435 0
M  V30 2433 H 233.003 -4.15126 1.52061 0
M  V30 2434 N 232.062 -1.29571 -0.897171 0
M  V30 2435 C 233.473 -1.15964 -1.46319 0
M  V30 2436 C 233.824 0.244267 -1.94674 0
M  V30 2437 O 232.949 1.13998 -1.83939 0
M  V30 2438 C 233.544 -2.09906 -2.65942 0
M  V30 2439 C 232.103 -2.00314 -3.18671 0
M  V30 2440 C 231.25 -2.00687 -1.91363 0
M  V30 2441 H 234.201 -1.42019 -0.708268 0
M  V30 2442 H 234.222 -1.67276 -3.41759 0
M  V30 2443 H 233.734 -3.12075 -2.30718 0
M  V30 2444 H 231.835 -1.01242 -3.58582 0
M  V30 2445 H 231.948 -2.88102 -3.82798 0
M  V30 2446 H 230.312 -1.45319 -2.09175 0
M  V30 2447 H 231.095 -3.04566 -1.58413 0
M  V30 2448 N 233.54 1.10788 -1.12088 0
M  V30 2449 C 234.788 1.8231 -0.872205 0
M  V30 2450 C 235.109 1.85419 0.603709 0
M  V30 2451 O 234.379 1.32963 1.43867 0
M  V30 2452 H 232.959 0.675137 -0.319686 0
M  V30 2453 H 235.621 1.34068 -1.41463 0
M  V30 2454 H 234.717 2.85955 -1.25045 0
M  V30 2455 N 235.018 0.912232 1.28515 0
M  V30 2456 C 235.968 0.370649 2.24967 0
M  V30 2457 C 236.952 -0.516375 1.52389 0
M  V30 2458 O 238.144 -0.356345 1.73376 0
M  V30 2459 C 235.273 -0.389526 3.41083 0
M  V30 2460 C 234.359 0.51313 4.20984 0
M  V30 2461 N 234.75 1.62604 4.78951 0
M  V30 2462 C 233.048 0.313235 4.44899 0
M  V30 2463 C 233.749 2.18619 5.39055 0
M  V30 2464 N 232.725 1.47765 5.23132 0
M  V30 2465 H 236.527 1.22061 2.67354 0
M  V30 2466 H 234.041 0.764712 1.43269 0
M  V30 2467 H 236.038 -0.794353 4.09262 0
M  V30 2468 H 234.698 -1.2366 3.0023 0
M  V30 2469 H 235.709 2.00864 4.77362 0
M  V30 2470 H 232.386 -0.494452 4.14562 0
M  V30 2471 H 233.776 3.12228 5.94948 0
M  V30 2472 N 236.496 -1.42363 0.676048 0
M  V30 2473 C 237.444 -2.32596 -0.0131507 0
M  V30 2474 C 238.438 -1.49891 -0.789238 0
M  V30 2475 O 239.644 -1.65955 -0.697061 0
M  V30 2476 H 236.019 -0.751647 -0.0230481 0
M  V30 2477 H 237.99 -2.88421 0.765243 0
M  V30 2478 C 236.739 -3.34479 -0.949702 0
M  V30 2479 H 236.062 -3.98158 -0.361938 0
M  V30 2480 H 237.502 -4.00199 -1.4006 0
M  V30 2481 C 235.961 -2.66838 -2.05667 0
M  V30 2482 O 236.491 -2.50124 -3.14326 0
M  V30 2483 N 234.697 -2.25843 -1.82875 0
M  V30 2484 H 234.244 -2.39637 -0.945085 0
M  V30 2485 H 234.202 -1.80918 -2.5713 0
M  V30 2486 N 237.974 -0.419461 -1.51915 0
M  V30 2487 C 239.39 -0.0708431 -1.59443 0
M  V30 2488 C 239.59 1.41796 -1.43164 0
M  V30 2489 O 238.646 2.18596 -1.26381 0
M  V30 2490 C 239.959 -0.574991 -2.95151 0
M  V30 2491 C 241.507 -0.533867 -3.08413 0
M  V30 2492 C 241.982 -1.01469 -4.46618 0
M  V30 2493 N 243.473 -0.971939 -4.52888 0
M  V30 2494 C 244.208 -1.31505 -5.58116 0
M  V30 2495 N 243.704 -1.73014 -6.70849 0
M  V30 2496 N 245.497 -1.23436 -5.48379 0
M  V30 2497 H 237.648 -1.38836 -1.60743 0
M  V30 2498 H 239.911 -0.570998 -0.756747 0
M  V30 2499 H 239.617 -1.61597 -3.12377 0
M  V30 2500 H 239.491 0.00979777 -3.77199 0
M  V30 2501 H 241.878 0.498086 -2.90866 0
M  V30 2502 H 241.959 -1.15484 -2.28248 0
M  V30 2503 H 241.603 -2.04502 -4.6491 0
M  V30 2504 H 241.533 -0.370433 -5.25295 0
M  V30 2505 H 244.024 -0.666893 -3.71969 0
M  V30 2506 H 244.337 -1.97479 -7.47143 0
M  V30 2507 H 242.682 -1.76926 -6.72103 0
M  V30 2508 H 245.873 -0.908869 -4.59192 0
M  V30 2509 H 246.046 -1.50506 -6.30279 0
M  V30 2510 N 239.452 1.56882 -0.150215 0
M  V30 2511 C 240.68 2.00593 0.506948 0
M  V30 2512 C 241.095 1.03033 1.58208 0
M  V30 2513 O 240.452 0.0278396 1.82479 0
M  V30 2514 C 240.503 3.44209 1.10465 0
M  V30 2515 O 240.224 4.3804 0.0724636 0
M  V30 2516 C 241.725 4.03214 1.84211 0
M  V30 2517 H 238.945 0.65795 0.13169 0
M  V30 2518 H 241.489 2.03018 -0.245743 0
M  V30 2519 H 239.644 3.42625 1.80795 0
M  V30 2520 H 240.058 5.22007 0.510793 0
M  V30 2521 H 241.532 5.0569 2.21318 0
M  V30 2522 H 242.009 3.44107 2.72923 0
M  V30 2523 H 242.615 4.08437 1.18572 0
M  V30 2524 N 240.93 -0.123565 1.57115 0
M  V30 2525 C 242.176 -0.828428 1.85765 0
M  V30 2526 C 242.531 -1.77709 0.737371 0
M  V30 2527 O 241.824 -1.89787 -0.262978 0
M  V30 2528 C 242.018 -1.62016 3.18568 0
M  V30 2529 C 241.847 -0.749663 4.43407 0
M  V30 2530 C 240.617 -0.406251 5.03664 0
M  V30 2531 C 242.815 -0.0693505 5.14253 0
M  V30 2532 N 240.797 0.475389 6.12057 0
M  V30 2533 C 242.168 0.671474 6.16353 0
M  V30 2534 C 244.223 0.00754393 4.97899 0
M  V30 2535 C 242.926 1.48197 7.03868 0
M  V30 2536 C 244.952 0.804845 5.85898 0
M  V30 2537 C 244.314 1.53388 6.87497 0
M  V30 2538 H 240.413 -0.280219 0.73007 0
M  V30 2539 H 242.997 -0.0924183 1.94481 0
M  V30 2540 H 241.168 -2.32724 3.10957 0
M  V30 2541 H 242.9 -2.27 3.35042 0
M  V30 2542 H 239.655 -0.747446 4.67665 0
M  V30 2543 H 240.079 0.907924 6.70884 0
M  V30 2544 H 244.721 -0.541741 4.19315 0
M  V30 2545 H 242.439 2.04242 7.81864 0
M  V30 2546 H 246.025 0.866642 5.75309 0
M  V30 2547 H 244.905 2.1409 7.5441 0
M  V30 2548 N 242.408 -1.52605 -0.393616 0
M  V30 2549 C 243.371 -1.76415 -1.46323 0
M  V30 2550 C 244.371 -0.634126 -1.47768 0
M  V30 2551 O 245.561 -0.902142 -1.4902 0
M  V30 2552 C 242.693 -1.8607 -2.85641 0
M  V30 2553 H 243.886 -2.71916 -1.26498 0
M  V30 2554 H 241.439 -1.43257 -0.625073 0
M  V30 2555 H 242.174 -0.925378 -3.10817 0
M  V30 2556 H 241.959 -2.68235 -2.85993 0
M  V30 2557 H 243.449 -2.06179 -3.63153 0
M  V30 2558 N 243.887 0.651787 -1.4349 0
M  V30 2559 C 244.835 1.78586 -1.49029 0
M  V30 2560 C 245.829 1.65448 -0.363767 0
M  V30 2561 O 247.035 1.71777 -0.537821 0
M  V30 2562 H 243.41 0.589236 -0.467231 0
M  V30 2563 H 245.381 1.71035 -2.44519 0
M  V30 2564 C 244.13 3.16851 -1.43181 0
M  V30 2565 H 243.453 3.27598 -2.29171 0
M  V30 2566 H 244.893 3.96156 -1.51118 0
M  V30 2567 C 243.352 3.36568 -0.149616 0
M  V30 2568 O 243.882 3.93885 0.788509 0
M  V30 2569 N 242.088 2.90539 -0.0593484 0
M  V30 2570 H 241.635 2.4408 -0.823575 0
M  V30 2571 H 241.593 3.04108 0.797853 0
M  V30 2572 N 245.365 1.30045 0.890287 0
M  V30 2573 C 246.595 1.21296 1.67245 0
M  V30 2574 C 247.003 -0.227471 1.87828 0
M  V30 2575 O 246.346 -1.16296 1.422 0
M  V30 2576 C 246.408 1.86519 3.07329 0
M  V30 2577 C 246.072 3.35837 3.09939 0
M  V30 2578 C 247.069 4.31915 2.89389 0
M  V30 2579 C 244.754 3.77196 3.31706 0
M  V30 2580 C 246.748 5.67325 2.90552 0
M  V30 2581 C 244.435 5.12725 3.32499 0
M  V30 2582 C 245.433 6.076 3.11947 0
M  V30 2583 O 245.121 7.40655 3.12547 0
M  V30 2584 H 244.853 0.4211 0.528821 0
M  V30 2585 H 247.407 1.72111 1.12103 0
M  V30 2586 H 245.637 1.30228 3.64112 0
M  V30 2587 H 247.326 1.71963 3.67673 0
M  V30 2588 H 248.092 4.01294 2.72375 0
M  V30 2589 H 243.971 3.03796 3.4674 0
M  V30 2590 H 247.515 6.41354 2.74429 0
M  V30 2591 H 243.412 5.42988 3.49047 0
M  V30 2592 H 244.18 7.49577 3.28749 0
M  V30 2593 N 246.843 -1.10192 1.12674 0
M  V30 2594 C 248.068 -1.86523 0.906853 0
M  V30 2595 C 248.493 -1.80221 -0.538711 0
M  V30 2596 O 247.851 -1.17396 -1.38158 0
M  V30 2597 C 247.899 -3.32758 1.3894 0
M  V30 2598 O 247.003 -4.08449 0.5695 0
M  V30 2599 H 246.344 -0.578678 0.325619 0
M  V30 2600 H 248.874 -1.39203 1.49946 0
M  V30 2601 H 248.884 -3.83608 1.38958 0
M  V30 2602 H 247.559 -3.36661 2.44197 0
M  V30 2603 H 246.136 -3.67427 0.636528 0
M  V30 2604 N 248.321 -0.919034 -1.28029 0
M  V30 2605 C 249.231 -0.416756 -2.30869 0
M  V30 2606 C 250.247 0.498235 -1.66714 0
M  V30 2607 O 251.423 0.383144 -1.97722 0
M  V30 2608 C 248.488 0.330274 -3.45123 0
M  V30 2609 C 247.549 -0.618578 -4.2482 0
M  V30 2610 C 246.782 0.0928959 -5.33619 0
M  V30 2611 O 247.005 1.31375 -5.55065 0
M  V30 2612 O 245.939 -0.574499 -5.99152 0
M  V30 2613 H 249.765 -1.27043 -2.75851 0
M  V30 2614 H 247.35 -0.684052 -1.3282 0
M  V30 2615 H 249.232 0.751972 -4.14636 0
M  V30 2616 H 247.907 1.1597 -3.02213 0
M  V30 2617 H 246.814 -1.08978 -3.57875 0
M  V30 2618 H 248.147 -1.41497 -4.71423 0
M  V30 2619 N 249.799 1.42003 -0.683588 0
M  V30 2620 C 251.039 2.03282 -0.213513 0
M  V30 2621 C 251.403 1.52924 1.16097 0
M  V30 2622 O 252.604 2.06048 1.7262 0
M  V30 2623 C 250.875 3.56483 -0.255856 0
M  V30 2624 S 252.434 4.3857 0.14193 0
M  V30 2625 H 249.252 0.705659 -0.0869853 0
M  V30 2626 H 251.854 1.73619 -0.8987 0
M  V30 2627 H 250.558 3.90631 -1.25841 0
M  V30 2628 H 250.089 3.90831 0.448875 0
M  V30 2629 H 252.104 4.76828 1.37295 0
M  V30 2630 N 251.277 0.427512 1.51691 0
M  V30 2631 C 252.523 -0.142439 2.02299 0
M  V30 2632 C 252.856 -1.43214 1.31162 0
M  V30 2633 O 252.131 -1.89833 0.423511 0
M  V30 2634 C 252.414 -0.371301 3.58181 0
M  V30 2635 C 252.267 0.936358 4.39946 0
M  V30 2636 C 253.586 -1.14542 4.24933 0
M  V30 2637 H 250.705 -0.0502937 0.735282 0
M  V30 2638 H 253.347 0.564584 1.81418 0
M  V30 2639 H 251.497 -0.973559 3.76104 0
M  V30 2640 H 253.169 1.57184 4.33694 0
M  V30 2641 H 251.412 1.5432 4.05423 0
M  V30 2642 H 252.083 0.730388 5.47147 0
M  V30 2643 H 254.559 -0.635362 4.11221 0
M  V30 2644 H 253.435 -1.27431 5.33903 0
M  V30 2645 H 253.696 -2.17093 3.85127 0
M  V30 2646 N 252.755 -1.56801 0.158532 0
M  V30 2647 C 253.702 -2.17337 -0.776729 0
M  V30 2648 C 254.672 -1.1096 -1.23601 0
M  V30 2649 O 255.857 -1.39054 -1.30647 0
M  V30 2650 C 252.997 -2.80822 -2.00582 0
M  V30 2651 C 252.11 -4.01624 -1.59129 0
M  V30 2652 C 251.245 -4.53072 -2.77306 0
M  V30 2653 C 250.284 -5.66314 -2.32282 0
M  V30 2654 N 249.421 -6.12329 -3.43508 0
M  V30 2655 H 254.261 -2.96918 -0.253701 0
M  V30 2656 H 251.798 -1.46661 -0.113504 0
M  V30 2657 H 253.756 -3.15779 -2.72652 0
M  V30 2658 H 252.386 -2.03866 -2.50277 0
M  V30 2659 H 251.438 -3.72571 -0.767806 0
M  V30 2660 H 252.75 -4.83633 -1.2207 0
M  V30 2661 H 251.904 -4.90145 -3.57551 0
M  V30 2662 H 250.643 -3.70095 -3.17617 0
M  V30 2663 H 249.648 -5.28806 -1.5048 0
M  V30 2664 H 250.873 -6.51085 -1.93043 0
M  V30 2665 H 248.819 -5.32284 -3.83418 0
M  V30 2666 H 248.736 -6.89293 -3.105 0
M  V30 2667 H 250.004 -6.5405 -4.24075 0
M  V30 2668 N 254.233 0.115231 -1.57178 0
M  V30 2669 C 255.48 0.822351 -1.8505 0
M  V30 2670 C 255.808 1.79701 -0.744168 0
M  V30 2671 O 255.063 1.93909 0.26414 0
M  V30 2672 C 255.362 1.60324 -3.19423 0
M  V30 2673 C 255.028 0.772536 -4.44233 0
M  V30 2674 C 253.69 0.543468 -4.78121 0
M  V30 2675 C 256.042 0.193746 -5.2084 0
M  V30 2676 C 253.37 -0.274583 -5.86057 0
M  V30 2677 C 255.722 -0.611517 -6.29637 0
M  V30 2678 C 254.386 -0.850867 -6.62055 0
M  V30 2679 H 253.656 0.30092 -0.677147 0
M  V30 2680 H 256.303 0.0845802 -1.91313 0
M  V30 2681 H 254.608 2.41203 -3.08753 0
M  V30 2682 H 256.305 2.1544 -3.38211 0
M  V30 2683 H 252.895 0.96117 -4.17683 0
M  V30 2684 H 257.079 0.357926 -4.95008 0
M  V30 2685 H 252.335 -0.469206 -6.09597 0
M  V30 2686 H 256.509 -1.06697 -6.88178 0
M  V30 2687 H 254.136 -1.48657 -7.45523 0
M  V30 2688 N 255.711 1.52812 0.385517 0
M  V30 2689 C 256.641 1.80808 1.47752 0
M  V30 2690 C 257.622 0.660318 1.5676 0
M  V30 2691 O 258.807 0.908246 1.71652 0
M  V30 2692 C 255.937 1.98008 2.85324 0
M  V30 2693 C 254.891 3.13709 2.91154 0
M  V30 2694 C 254.217 3.16169 4.31209 0
M  V30 2695 C 255.517 4.52709 2.60483 0
M  V30 2696 H 257.211 2.72253 1.24573 0
M  V30 2697 H 254.757 1.31003 0.597839 0
M  V30 2698 H 256.71 2.16176 3.61726 0
M  V30 2699 H 255.434 1.03255 3.09848 0
M  V30 2700 H 254.093 2.95329 2.17201 0
M  V30 2701 H 253.741 2.19092 4.52778 0
M  V30 2702 H 253.441 3.93894 4.36029 0
M  V30 2703 H 254.965 3.36496 5.09512 0
M  V30 2704 H 256.379 4.71173 3.26602 0
M  V30 2705 H 254.776 5.32528 2.76648 0
M  V30 2706 H 255.846 4.59186 1.55809 0
M  V30 2707 N 257.189 -0.644168 1.43834 0
M  V30 2708 C 258.417 -1.43147 1.49387 0
M  V30 2709 C 258.832 -1.88452 0.114583 0
M  V30 2710 O 258.189 -1.60047 -0.876989 0
M  V30 2711 C 258.24 -2.66046 2.44748 0
M  V30 2712 O 257.961 -2.22633 3.77314 0
M  V30 2713 C 259.462 -3.59311 2.59635 0
M  V30 2714 H 256.682 -0.439447 0.507077 0
M  V30 2715 H 259.226 -0.78895 1.88669 0
M  V30 2716 H 257.381 -3.26418 2.08638 0
M  V30 2717 H 257.795 -3.02216 4.28679 0
M  V30 2718 H 259.269 -4.42187 3.30416 0
M  V30 2719 H 259.746 -4.07259 1.64427 0
M  V30 2720 H 260.352 -3.04816 2.96593 0
M  V30 2721 N 258.668 -1.30515 -0.883378 0
M  V30 2722 C 259.616 -1.16941 -2.01066 0
M  V30 2723 C 260.61 -0.0809148 -1.69207 0
M  V30 2724 O 261.816 -0.241877 -1.78367 0
M  V30 2725 H 258.191 -0.361705 -0.659298 0
M  V30 2726 H 260.162 -2.12344 -2.09649 0
M  V30 2727 C 258.911 -0.879694 -3.36388 0
M  V30 2728 H 258.234 -1.70936 -3.61415 0
M  V30 2729 H 259.674 -0.82483 -4.159 0
M  V30 2730 C 258.133 0.417409 -3.34304 0
M  V30 2731 O 258.663 1.43843 -3.75063 0
M  V30 2732 N 256.869 0.429141 -2.87414 0
M  V30 2733 H 256.416 -0.402222 -2.5444 0
M  V30 2734 H 256.374 1.29696 -2.86403 0
M  V30 2735 N 260.146 1.09593 -1.13257 0
M  V30 2736 C 261.056 2.19739 -0.821691 0
M  V30 2737 C 262.072 1.72926 0.19302 0
M  V30 2738 O 263.248 2.01385 0.0244895 0
M  V30 2739 C 260.313 3.45482 -0.290333 0
M  V30 2740 C 259.374 4.06985 -1.36607 0
M  V30 2741 C 258.607 5.26726 -0.859975 0
M  V30 2742 O 258.83 5.69594 0.303082 0
M  V30 2743 O 257.764 5.7931 -1.63351 0
M  V30 2744 H 261.59 2.48781 -1.74189 0
M  V30 2745 H 259.175 1.18496 -0.909894 0
M  V30 2746 H 261.057 4.214 0.000674022 0
M  V30 2747 H 259.732 3.18047 0.602306 0
M  V30 2748 H 258.639 3.32712 -1.71037 0
M  V30 2749 H 259.972 4.38643 -2.23279 0
M  V30 2750 N 261.624 0.925811 1.2754 0
M  V30 2751 C 262.852 0.581509 1.9856 0
M  V30 2752 C 263.267 -0.840041 1.69082 0
M  V30 2753 O 262.624 -1.55805 0.950312 0
M  V30 2754 C 262.675 0.795589 3.52637 0
M  V30 2755 O 262.396 2.16121 3.81082 0
M  V30 2756 C 263.897 0.459744 4.4091 0
M  V30 2757 H 261.117 0.220538 0.633722 0
M  V30 2758 H 263.661 1.24232 1.6244 0
M  V30 2759 H 261.816 0.18161 3.86974 0
M  V30 2760 H 262.23 2.2098 4.75676 0
M  V30 2761 H 263.704 0.660244 5.48037 0
M  V30 2762 H 264.181 -0.604625 4.35018 0
M  V30 2763 H 264.787 1.05178 4.12089 0
M  V30 2764 N 263.102 -1.41638 0.69111 0
M  V30 2765 C 264.518 -1.55435 0.362224 0
M  V30 2766 C 264.718 -1.66754 -1.13117 0
M  V30 2767 O 263.774 -1.64348 -1.91692 0
M  V30 2768 C 265.087 -2.79588 1.10684 0
M  V30 2769 C 266.635 -2.9338 1.09075 0
M  V30 2770 C 267.11 -4.20414 1.81703 0
M  V30 2771 N 268.601 -4.27362 1.7865 0
M  V30 2772 C 269.336 -5.24507 2.31689 0
M  V30 2773 N 268.832 -6.27708 2.93179 0
M  V30 2774 N 270.625 -5.16416 2.2197 0
M  V30 2775 H 262.776 -1.32536 1.65976 0
M  V30 2776 H 265.039 -0.639115 0.700168 0
M  V30 2777 H 264.745 -2.77419 2.16175 0
M  V30 2778 H 264.619 -3.70973 0.682545 0
M  V30 2779 H 267.006 -2.95067 0.0441238 0
M  V30 2780 H 267.087 -2.0318 1.55407 0
M  V30 2781 H 266.731 -4.19488 2.86343 0
M  V30 2782 H 266.661 -5.09578 1.32808 0
M  V30 2783 H 269.152 -3.53415 1.33815 0
M  V30 2784 H 269.465 -6.98217 3.31229 0
M  V30 2785 H 267.81 -6.28223 2.97255 0
M  V30 2786 H 271.001 -4.34716 1.73607 0
M  V30 2787 H 271.174 -5.91958 2.63609 0
M  V30 2788 N 264.58 -0.43555 -1.51462 0
M  V30 2789 C 265.49 0.383001 -2.31453 0
M  V30 2790 C 266.506 1.02931 -1.4029 0
M  V30 2791 O 267.682 1.02507 -1.73362 0
M  V30 2792 C 264.747 1.47043 -3.13973 0
M  V30 2793 C 263.808 0.844433 -4.20913 0
M  V30 2794 C 263.041 1.88004 -4.9949 0
M  V30 2795 O 263.264 3.10199 -4.78678 0
M  V30 2796 O 262.198 1.47157 -5.83634 0
M  V30 2797 H 266.024 -0.269964 -3.02498 0
M  V30 2798 H 263.609 -0.19813 -1.4808 0
M  V30 2799 H 265.491 2.10113 -3.65281 0
M  V30 2800 H 264.166 2.10751 -2.45695 0
M  V30 2801 H 263.073 0.175729 -3.73687 0
M  V30 2802 H 264.406 0.250869 -4.9156 0
M  V30 2803 N 266.058 1.56714 -0.166846 0
M  V30 2804 C 267.474 1.58473 0.189372 0
M  V30 2805 C 267.674 1.18201 1.63189 0
M  V30 2806 O 266.73 0.891528 2.36237 0
M  V30 2807 C 268.043 3.00573 -0.0873872 0
M  V30 2808 C 269.591 3.1299 -0.0252443 0
M  V30 2809 C 270.066 4.57174 -0.274934 0
M  V30 2810 N 271.557 4.62665 -0.222553 0
M  V30 2811 C 272.292 5.72072 -0.389985 0
M  V30 2812 N 271.788 6.90054 -0.616229 0
M  V30 2813 N 273.581 5.61153 -0.326202 0
M  V30 2814 H 265.732 1.8118 -1.10849 0
M  V30 2815 H 267.995 0.839525 -0.440342 0
M  V30 2816 H 267.701 3.34497 -1.0865 0
M  V30 2817 H 267.575 3.72019 0.623037 0
M  V30 2818 H 269.962 2.78895 0.96444 0
M  V30 2819 H 270.043 2.43989 -0.768309 0
M  V30 2820 H 269.687 4.91976 -1.26181 0
M  V30 2821 H 269.617 5.24328 0.48869 0
M  V30 2822 H 272.108 3.77863 -0.0531512 0
M  V30 2823 H 272.421 7.69311 -0.733559 0
M  V30 2824 H 270.766 6.91927 -0.652791 0
M  V30 2825 H 273.957 4.67859 -0.150072 0
M  V30 2826 H 274.13 6.46364 -0.460116 0
M  V30 2827 N 267.536 -0.106894 1.57237 0
M  V30 2828 C 268.446 -1.14911 2.0453 0
M  V30 2829 C 269.462 -1.44592 0.96795 0
M  V30 2830 O 270.638 -1.55468 1.2803 0
M  V30 2831 C 267.703 -2.45272 2.45036 0
M  V30 2832 C 266.764 -2.22879 3.66911 0
M  V30 2833 C 265.997 -3.47024 4.05475 0
M  V30 2834 O 266.22 -4.54804 3.44252 0
M  V30 2835 O 265.154 -3.3731 4.98504 0
M  V30 2836 H 268.98 -0.777461 2.9358 0
M  V30 2837 H 266.565 -0.318563 1.45964 0
M  V30 2838 H 268.447 -3.22055 2.71769 0
M  V30 2839 H 267.122 -2.81886 1.59129 0
M  V30 2840 H 266.029 -1.43915 3.45311 0
M  V30 2841 H 267.362 -1.91163 4.53561 0
M  V30 2842 N 269.014 -1.53014 -0.377408 0
M  V30 2843 C 270.26 -1.68872 -1.12294 0
M  V30 2844 C 270.593 -0.433224 -1.89306 0
M  V30 2845 O 269.868 0.569258 -1.85983 0
M  V30 2846 C 270.151 -2.93115 -2.09179 0
M  V30 2847 C 270.004 -4.28794 -1.35853 0
M  V30 2848 C 271.323 -3.12928 -3.09458 0
M  V30 2849 H 268.442 -0.614518 -0.406862 0
M  V30 2850 H 271.084 -1.85633 -0.40503 0
M  V30 2851 H 269.234 -2.78956 -2.70399 0
M  V30 2852 H 270.906 -4.54742 -0.775082 0
M  V30 2853 H 269.149 -4.28744 -0.660364 0
M  V30 2854 H 269.82 -5.11837 -2.06706 0
M  V30 2855 H 272.296 -3.26194 -2.58334 0
M  V30 2856 H 271.172 -4.01316 -3.74482 0
M  V30 2857 H 271.433 -2.27669 -3.78971 0
M  V30 2858 N 270.492 0.636531 -1.44174 0
M  V30 2859 C 271.739 1.39619 -1.46672 0
M  V30 2860 C 272.067 1.94257 -0.0972691 0
M  V30 2861 O 271.322 1.73768 0.900175 0
M  V30 2862 C 271.621 2.58309 -2.47005 0
M  V30 2863 C 271.287 2.21992 -3.92467 0
M  V30 2864 C 269.949 2.118 -4.32081 0
M  V30 2865 C 272.301 1.9321 -4.84065 0
M  V30 2866 C 269.629 1.71007 -5.61225 0
M  V30 2867 C 271.981 1.53911 -6.13591 0
M  V30 2868 C 270.645 1.42257 -6.52165 0
M  V30 2869 H 269.915 0.510902 -0.536712 0
M  V30 2870 H 272.562 0.722328 -1.77355 0
M  V30 2871 H 270.867 3.30903 -2.09786 0
M  V30 2872 H 272.564 3.16533 -2.46186 0
M  V30 2873 H 269.154 2.30841 -3.61124 0
M  V30 2874 H 273.338 1.99997 -4.54219 0
M  V30 2875 H 268.594 1.60583 -5.89935 0
M  V30 2876 H 272.768 1.30677 -6.8403 0
M  V30 2877 H 270.395 1.10419 -7.52138 0
M  V30 2878 N 271.97 1.30982 0.876444 0
M  V30 2879 C 273.247 1.10942 1.61094 0
M  V30 2880 C 273.627 -0.338223 2.08373 0
M  V30 2881 O 272.975 -1.33122 1.85717 0
M  V30 2882 C 273.185 2.11789 2.77392 0
M  V30 2883 C 274.533 2.43965 3.47514 0
M  V30 2884 O 275.557 2.10166 2.87591 0
M  V30 2885 O 274.416 3.01817 4.55597 0
M  V30 2886 H 271.51 0.42667 0.708436 0
M  V30 2887 H 274.056 1.42438 0.922474 0
M  V30 2888 H 272.828 3.09194 2.39823 0
M  V30 2889 H 272.451 1.81161 3.5393 0
M  V30 2890 N 273.449 -1.08991 1.13837 0
M  V30 2891 C 274.865 -1.33312 0.877506 0
M  V30 2892 C 275.065 -1.95587 -0.48456 0
M  V30 2893 O 274.121 -2.20509 -1.23013 0
M  V30 2894 C 275.434 -2.24045 2.0056 0
M  V30 2895 C 276.982 -2.37542 2.03821 0
M  V30 2896 C 277.457 -3.31614 3.15905 0
M  V30 2897 N 278.948 -3.39189 3.15445 0
M  V30 2898 C 279.683 -4.11992 3.98811 0
M  V30 2899 N 279.179 -4.87553 4.92203 0
M  V30 2900 N 280.972 -4.07762 3.86894 0
M  V30 2901 H 273.123 -0.669456 2.01574 0
M  V30 2902 H 275.386 -0.357482 0.878015 0
M  V30 2903 H 275.092 -1.85521 2.98789 0
M  V30 2904 H 274.966 -3.24466 1.92359 0
M  V30 2905 H 277.353 -2.75327 1.06202 0
M  V30 2906 H 277.434 -1.36884 2.16093 0
M  V30 2907 H 277.078 -2.94551 4.13766 0
M  V30 2908 H 277.008 -4.32186 3.0087 0
M  V30 2909 H 279.499 -2.85314 2.47799 0
M  V30 2910 H 279.812 -5.40549 5.52292 0
M  V30 2911 H 278.157 -4.86627 4.96205 0
M  V30 2912 H 281.348 -3.47833 3.13257 0
M  V30 2913 H 281.521 -4.64238 4.52092 0
M  V30 2914 N 274.927 -0.932562 -1.27047 0
M  V30 2915 C 275.857 -0.452902 -2.29066 0
M  V30 2916 C 276.838 0.489338 -1.62909 0
M  V30 2917 O 278.023 0.393046 -1.90181 0
M  V30 2918 C 275.153 0.290698 -3.46081 0
M  V30 2919 C 274.107 -0.564168 -4.24265 0
M  V30 2920 C 273.433 0.308886 -5.33807 0
M  V30 2921 C 274.733 -1.83112 -4.89149 0
M  V30 2922 H 276.427 -1.30552 -2.69437 0
M  V30 2923 H 273.973 -0.629201 -1.29526 0
M  V30 2924 H 275.926 0.637233 -4.16554 0
M  V30 2925 H 274.65 1.17738 -3.0464 0
M  V30 2926 H 273.309 -0.893477 -3.55545 0
M  V30 2927 H 272.957 1.19467 -4.88607 0
M  V30 2928 H 272.657 -0.259633 -5.87026 0
M  V30 2929 H 274.181 0.650884 -6.07121 0
M  V30 2930 H 275.595 -1.55236 -5.51883 0
M  V30 2931 H 273.992 -2.34353 -5.52448 0
M  V30 2932 H 275.062 -2.54772 -4.12576 0
M  V30 2933 N 276.405 1.4127 -0.698611 0
M  V30 2934 C 277.653 2.00782 -0.230409 0
M  V30 2935 C 277.974 1.5562 1.17505 0
M  V30 2936 O 277.244 0.78815 1.79346 0
M  V30 2937 H 275.824 0.742464 -0.0821944 0
M  V30 2938 H 278.486 1.72852 -0.90045 0
M  V30 2939 H 277.582 3.11095 -0.25021 0
M  V30 2940 N 277.883 0.443576 1.51229 0
M  V30 2941 C 278.816 -0.410089 2.24485 0
M  V30 2942 C 279.794 -1.01949 1.26669 0
M  V30 2943 O 280.978 -1.06075 1.55821 0
M  V30 2944 C 278.105 -1.57211 3.00004 0
M  V30 2945 C 277.151 -1.08279 4.12526 0
M  V30 2946 S 277.984 -0.0197476 5.35496 0
M  V30 2947 C 279.14 -1.18629 6.14555 0
M  V30 2948 H 279.373 0.211832 2.96544 0
M  V30 2949 H 276.906 0.228156 1.52705 0
M  V30 2950 H 278.864 -2.23825 3.44111 0
M  V30 2951 H 277.525 -2.16547 2.27522 0
M  V30 2952 H 276.718 -1.95193 4.64667 0
M  V30 2953 H 276.32 -0.494797 3.70713 0
M  V30 2954 H 278.612 -2.10344 6.4402 0
M  V30 2955 H 279.555 -0.70472 7.04584 0
M  V30 2956 H 279.963 -1.42768 5.46148 0
M  V30 2957 N 279.361 -1.56624 0.175154 0
M  V30 2958 C 280.61 -1.96173 -0.468921 0
M  V30 2959 C 280.923 -1.06401 -1.64128 0
M  V30 2960 O 282.129 -1.35648 -2.35185 0
M  V30 2961 C 280.585 -3.48833 -0.885633 0
M  V30 2962 C 280.193 -4.47237 0.261343 0
M  V30 2963 C 281.937 -3.97194 -1.49791 0
M  V30 2964 C 279.844 -5.9114 -0.175214 0
M  V30 2965 H 278.774 -0.732455 -0.178958 0
M  V30 2966 H 281.425 -1.81591 0.263997 0
M  V30 2967 H 279.807 -3.58848 -1.67464 0
M  V30 2968 H 280.981 -4.4894 1.03871 0
M  V30 2969 H 279.296 -4.08956 0.783827 0
M  V30 2970 H 281.893 -5.02167 -1.83665 0
M  V30 2971 H 282.236 -3.40351 -2.39722 0
M  V30 2972 H 282.769 -3.90212 -0.773267 0
M  V30 2973 H 279.508 -6.51865 0.689414 0
M  V30 2974 H 279.028 -5.92735 -0.91786 0
M  V30 2975 H 280.707 -6.44044 -0.617792 0
M  V30 2976 N 280.839 0.0985539 -1.57292 0
M  V30 2977 C 282.069 0.815135 -1.8984 0
M  V30 2978 C 282.477 1.7297 -0.766679 0
M  V30 2979 O 281.82 1.81698 0.270483 0
M  V30 2980 C 281.882 1.6842 -3.17608 0
M  V30 2981 C 281.546 0.94182 -4.4719 0
M  V30 2982 C 282.543 0.273212 -5.19182 0
M  V30 2983 C 280.228 0.916927 -4.9386 0
M  V30 2984 C 282.222 -0.410361 -6.36078 0
M  V30 2985 C 279.909 0.229567 -6.10669 0
M  V30 2986 C 280.907 -0.432902 -6.81627 0
M  V30 2987 O 280.595 -1.10925 -7.9621 0
M  V30 2988 H 280.327 0.238501 -0.632529 0
M  V30 2989 H 282.881 0.0812659 -2.05239 0
M  V30 2990 H 281.111 2.46022 -2.98345 0
M  V30 2991 H 282.8 2.27704 -3.36015 0
M  V30 2992 H 283.566 0.283927 -4.84168 0
M  V30 2993 H 279.445 1.42201 -4.3852 0
M  V30 2994 H 282.989 -0.928013 -6.914 0
M  V30 2995 H 278.886 0.216686 -6.45136 0
M  V30 2996 H 279.654 -1.01579 -8.12172 0
M  V30 2997 N 282.317 1.53212 0.369288 0
M  V30 2998 C 283.545 1.73119 1.13303 0
M  V30 2999 C 283.96 0.458455 1.83149 0
M  V30 3000 O 283.317 -0.568403 1.73423 0
M  V30 3001 C 283.368 2.89413 2.16616 0
M  V30 3002 O 283.089 4.11761 1.49614 0
M  V30 3003 C 284.59 3.21161 3.05566 0
M  V30 3004 H 281.81 0.579107 0.338934 0
M  V30 3005 H 284.354 1.99942 0.429338 0
M  V30 3006 H 282.509 2.64994 2.82589 0
M  V30 3007 H 282.923 4.76858 2.18419 0
M  V30 3008 H 284.397 4.05949 3.74045 0
M  V30 3009 H 284.874 2.36369 3.70171 0
M  V30 3010 H 285.48 3.47492 2.45213 0
M  V30 3011 N 283.795 -0.628877 1.44509 0
M  V30 3012 C 285.041 -1.39045 1.47629 0
M  V30 3013 C 285.374 -1.93892 0.109343 0
M  V30 3014 O 284.649 -1.7379 -0.87334 0
M  V30 3015 C 284.932 -2.55408 2.53848 0
M  V30 3016 C 284.785 -2.05896 3.99909 0
M  V30 3017 C 286.104 -3.5759 2.56549 0
M  V30 3018 H 283.223 -0.504232 0.537512 0
M  V30 3019 H 285.865 -0.710854 1.76201 0
M  V30 3020 H 284.015 -3.13384 2.29615 0
M  V30 3021 H 285.687 -1.52734 4.35282 0
M  V30 3022 H 283.93 -1.37061 4.11578 0
M  V30 3023 H 284.601 -2.89681 4.69882 0
M  V30 3024 H 287.077 -3.09419 2.78207 0
M  V30 3025 H 285.953 -4.36527 3.32769 0
M  V30 3026 H 286.214 -4.11808 1.60832 0
M  V30 3027 N 285.273 -1.31445 -0.869486 0
M  V30 3028 C 286.521 -1.20918 -1.61936 0
M  V30 3029 C 286.842 0.232683 -1.93607 0
M  V30 3030 O 286.112 1.15352 -1.58338 0
M  V30 3031 H 284.692 -0.44454 -0.600328 0
M  V30 3032 H 287.354 -1.64776 -1.0409 0
M  V30 3033 H 286.45 -1.78124 -2.56278 0
M  V30 3034 N 286.751 1.08385 -1.14413 0
M  V30 3035 C 287.981 1.8425 -0.934644 0
M  V30 3036 C 288.389 1.81907 0.520234 0
M  V30 3037 O 287.732 1.22126 1.37226 0
M  V30 3038 C 287.794 3.32853 -1.35828 0
M  V30 3039 C 287.458 3.5893 -2.82875 0
M  V30 3040 C 288.455 3.53756 -3.80989 0
M  V30 3041 C 286.14 3.86934 -3.20293 0
M  V30 3042 C 288.134 3.76216 -5.14529 0
M  V30 3043 C 285.821 4.09047 -4.54008 0
M  V30 3044 C 286.819 4.03682 -5.50936 0
M  V30 3045 O 286.507 4.25214 -6.82238 0
M  V30 3046 H 286.239 0.588502 -0.332628 0
M  V30 3047 H 288.793 1.37792 -1.52324 0
M  V30 3048 H 287.023 3.8007 -0.713019 0
M  V30 3049 H 288.712 3.90154 -1.11957 0
M  V30 3050 H 289.478 3.32135 -3.53428 0
M  V30 3051 H 285.357 3.9023 -2.45442 0
M  V30 3052 H 288.901 3.71943 -5.90173 0
M  V30 3053 H 284.798 4.30151 -4.8129 0
M  V30 3054 H 285.566 4.42619 -6.88499 0
M  V30 3055 N 288.23 0.939286 1.26551 0
M  V30 3056 C 289.455 0.602008 1.98471 0
M  V30 3057 C 289.88 -0.815624 1.69497 0
M  V30 3058 O 289.238 -1.54912 0.941905 0
M  V30 3059 C 289.286 0.848407 3.50477 0
M  V30 3060 O 288.39 -0.0804009 4.12322 0
M  V30 3061 H 287.731 0.23049 0.622712 0
M  V30 3062 H 290.261 1.2617 1.61066 0
M  V30 3063 H 290.271 0.768553 4.00696 0
M  V30 3064 H 288.946 1.88171 3.70897 0
M  V30 3065 H 287.523 0.0503508 3.72866 0
M  V30 3066 N 289.708 -1.40897 0.706093 0
M  V30 3067 C 290.954 -2.01352 0.241889 0
M  V30 3068 C 291.287 -1.55832 -1.15888 0
M  V30 3069 O 290.562 -0.774145 -1.7843 0
M  V30 3070 C 290.845 -3.58752 0.311311 0
M  V30 3071 C 290.698 -4.1437 1.74978 0
M  V30 3072 C 292.017 -4.38914 -0.322922 0
M  V30 3073 H 289.136 -0.731562 0.0893687 0
M  V30 3074 H 291.778 -1.67504 0.896802 0
M  V30 3075 H 289.928 -3.87718 -0.246302 0
M  V30 3076 H 291.6 -3.96239 2.36205 0
M  V30 3077 H 289.843 -3.69016 2.28057 0
M  V30 3078 H 290.514 -5.23532 1.74981 0
M  V30 3079 H 292.99 -4.15822 0.152089 0
M  V30 3080 H 291.866 -5.48358 -0.243855 0
M  V30 3081 H 292.127 -4.19176 -1.40513 0
M  V30 3082 N 291.186 -0.45159 -1.50991 0
M  V30 3083 C 292.411 0.110667 -2.07105 0
M  V30 3084 C 292.836 1.3446 -1.31538 0
M  V30 3085 O 292.194 1.77743 -0.357365 0
M  V30 3086 C 292.242 0.397238 -3.58405 0
M  V30 3087 O 291.346 1.48124 -3.84881 0
M  V30 3088 H 290.687 -0.00439271 -0.663985 0
M  V30 3089 H 293.217 -0.637026 -1.9443 0
M  V30 3090 H 293.227 0.64351 -4.02893 0
M  V30 3091 H 291.902 -0.504553 -4.12828 0
M  V30 3092 H 290.479 1.22381 -3.52246 0
M  V30 3093 N 292.664 1.56529 -0.183458 0
M  V30 3094 C 293.594 2.21549 0.737456 0
M  V30 3095 C 294.575 1.17489 1.23005 0
M  V30 3096 O 295.76 1.45959 1.281 0
M  V30 3097 C 292.89 2.86575 1.96194 0
M  V30 3098 C 291.844 3.96778 1.60473 0
M  V30 3099 C 291.17 4.48911 2.90487 0
M  V30 3100 C 292.47 5.15767 0.823497 0
M  V30 3101 H 294.164 2.98761 0.195453 0
M  V30 3102 H 291.71 1.43702 0.0925686 0
M  V30 3103 H 293.663 3.30739 2.61131 0
M  V30 3104 H 292.387 2.06749 2.52828 0
M  V30 3105 H 291.046 3.53286 0.978997 0
M  V30 3106 H 290.694 3.65862 3.45186 0
M  V30 3107 H 290.394 5.23265 2.67335 0
M  V30 3108 H 291.918 4.95771 3.56432 0
M  V30 3109 H 293.332 5.56549 1.37571 0
M  V30 3110 H 291.729 5.96114 0.690551 0
M  V30 3111 H 292.799 4.84574 -0.177782 0
M  V30 3112 N 294.142 -0.090211 1.57342 0
M  V30 3113 C 295.105 -1.09335 2.01441 0
M  V30 3114 C 296.105 -1.32666 0.908641 0
M  V30 3115 O 297.295 -1.28697 1.174 0
M  V30 3116 C 294.427 -2.44136 2.3793 0
M  V30 3117 H 295.62 -0.713662 2.91285 0
M  V30 3118 H 293.173 -0.335404 1.52659 0
M  V30 3119 H 293.908 -2.86972 1.51055 0
M  V30 3120 H 293.693 -2.28548 3.18603 0
M  V30 3121 H 295.183 -3.16277 2.72688 0
M  V30 3122 N 295.62 -1.53406 -0.361157 0
M  V30 3123 C 296.845 -1.74024 -1.12829 0
M  V30 3124 C 297.27 -0.470069 -1.82132 0
M  V30 3125 O 296.628 0.57619 -1.719 0
M  V30 3126 C 296.676 -2.90903 -2.13091 0
M  V30 3127 O 295.78 -2.59821 -3.20261 0
M  V30 3128 H 295.121 -0.577804 -0.327168 0
M  V30 3129 H 297.651 -2.00307 -0.41693 0
M  V30 3130 H 297.661 -3.17194 -2.56616 0
M  V30 3131 H 296.336 -3.83034 -1.62042 0
M  V30 3132 H 294.913 -2.44362 -2.81677 0
M  V30 3133 N 297.098 0.621204 -1.44841 0
M  V30 3134 C 298.028 1.74366 -1.55303 0
M  V30 3135 C 299.009 1.65199 -0.405385 0
M  V30 3136 O 300.194 1.83807 -0.626787 0
M  V30 3137 C 297.324 3.12931 -1.50637 0
M  V30 3138 C 296.278 3.36896 -2.63979 0
M  V30 3139 C 295.604 4.75594 -2.44366 0
M  V30 3140 C 296.904 3.28483 -4.06074 0
M  V30 3141 H 298.598 1.65867 -2.49256 0
M  V30 3142 H 296.144 0.796558 -1.19962 0
M  V30 3143 H 298.097 3.9124 -1.56555 0
M  V30 3144 H 296.821 3.22237 -0.532057 0
M  V30 3145 H 295.48 2.60972 -2.57467 0
M  V30 3146 H 295.128 4.81616 -1.45105 0
M  V30 3147 H 294.828 4.92586 -3.20364 0
M  V30 3148 H 296.352 5.5612 -2.52117 0
M  V30 3149 H 297.766 3.96684 -4.13902 0
M  V30 3150 H 296.163 3.57008 -4.82354 0
M  V30 3151 H 297.233 2.26133 -4.28943 0
M  V30 3152 N 298.576 1.31904 0.862503 0
M  V30 3153 C 299.804 1.24998 1.64873 0
M  V30 3154 C 300.219 -0.183425 1.87907 0
M  V30 3155 O 299.576 -1.11794 1.44251 0
M  V30 3156 C 299.627 1.99829 3.01248 0
M  V30 3157 O 299.348 3.37575 2.79239 0
M  V30 3158 C 300.849 1.99852 3.95694 0
M  V30 3159 H 298.069 0.431599 0.513773 0
M  V30 3160 H 300.613 1.73901 1.07604 0
M  V30 3161 H 298.768 1.54668 3.55185 0
M  V30 3162 H 299.182 3.75776 3.65914 0
M  V30 3163 H 300.656 2.56709 4.88676 0
M  V30 3164 H 301.133 0.982852 4.28062 0
M  V30 3165 H 301.739 2.44926 3.47694 0
M  V30 3166 N 300.054 -1.07777 1.14986 0
M  V30 3167 C 301.3 -1.80557 0.923422 0
M  V30 3168 C 301.633 -1.86298 -0.548337 0
M  V30 3169 O 300.908 -1.34354 -1.40639 0
M  V30 3170 C 301.191 -3.25839 1.53299 0
M  V30 3171 C 301.044 -3.28269 3.07505 0
M  V30 3172 C 302.363 -4.22991 1.21518 0
M  V30 3173 H 299.482 -0.655493 0.336894 0
M  V30 3174 H 302.124 -1.26144 1.42083 0
M  V30 3175 H 300.274 -3.72306 1.10999 0
M  V30 3176 H 301.946 -2.90079 3.58681 0
M  V30 3177 H 300.189 -2.67355 3.4162 0
M  V30 3178 H 300.86 -4.30691 3.45266 0
M  V30 3179 H 303.336 -3.84894 1.581 0
M  V30 3180 H 302.212 -5.22945 1.66793 0
M  V30 3181 H 302.473 -4.41904 0.131505 0
M  V30 3182 N 301.532 -0.945985 -1.26051 0
M  V30 3183 C 302.495 -0.463897 -2.24456 0
M  V30 3184 C 303.495 0.427655 -1.55009 0
M  V30 3185 O 304.685 0.226157 -1.72726 0
M  V30 3186 C 301.817 0.330812 -3.39291 0
M  V30 3187 H 303.01 -1.33357 -2.68619 0
M  V30 3188 H 300.563 -0.728416 -1.38289 0
M  V30 3189 H 301.298 1.21852 -3.00537 0
M  V30 3190 H 301.083 -0.308679 -3.90883 0
M  V30 3191 H 302.573 0.657865 -4.12386 0
M  V30 3192 N 303.011 1.40521 -0.713556 0
M  V30 3193 C 304.257 2.01221 -0.252564 0
M  V30 3194 C 304.59 1.56444 1.1506 0
M  V30 3195 O 303.865 0.783597 1.78017 0
M  V30 3196 C 304.148 3.58582 -0.330332 0
M  V30 3197 C 304.001 4.13437 -1.77173 0
M  V30 3198 C 305.32 4.39079 0.299641 0
M  V30 3199 H 302.439 0.731077 -0.0932471 0
M  V30 3200 H 305.081 1.67026 -0.905673 0
M  V30 3201 H 303.231 3.87844 0.225737 0
M  V30 3202 H 304.903 3.9498 -2.38303 0
M  V30 3203 H 303.146 3.67801 -2.3001 0
M  V30 3204 H 303.817 5.22597 -1.77755 0
M  V30 3205 H 306.293 4.15735 -0.174139 0
M  V30 3206 H 305.169 5.4848 0.214771 0
M  V30 3207 H 305.43 4.19915 1.38288 0
M  V30 3208 N 304.489 0.459591 1.5075 0
M  V30 3209 C 305.419 -0.330644 2.31147 0
M  V30 3210 C 306.4 -1.00087 1.37538 0
M  V30 3211 O 307.585 -1.00025 1.66459 0
M  V30 3212 C 304.715 -1.41958 3.16962 0
M  V30 3213 C 303.669 -0.871608 4.19031 0
M  V30 3214 C 302.995 -2.05797 4.9351 0
M  V30 3215 C 304.295 0.109251 5.22186 0
M  V30 3216 H 305.989 0.340336 2.97459 0
M  V30 3217 H 303.535 0.165119 1.4305 0
M  V30 3218 H 305.488 -1.9798 3.71997 0
M  V30 3219 H 304.212 -2.11917 2.48513 0
M  V30 3220 H 302.871 -0.333442 3.6508 0
M  V30 3221 H 302.519 -2.74427 4.21544 0
M  V30 3222 H 302.219 -1.6976 5.62544 0
M  V30 3223 H 303.743 -2.62331 5.51375 0
M  V30 3224 H 305.157 -0.361405 5.7216 0
M  V30 3225 H 303.554 0.383316 5.98875 0
M  V30 3226 H 304.624 1.03887 4.73641 0
M  V30 3227 N 305.967 -1.56429 0.191757 0
M  V30 3228 C 307.216 -1.9666 -0.448088 0
M  V30 3229 C 307.529 -1.08136 -1.62991 0
M  V30 3230 O 308.735 -1.38135 -2.33733 0
M  V30 3231 C 307.191 -3.49753 -0.848585 0
M  V30 3232 C 306.799 -4.46935 0.308764 0
M  V30 3233 C 308.543 -3.9876 -1.4557 0
M  V30 3234 C 306.45 -5.91293 -0.112506 0
M  V30 3235 H 305.38 -0.734312 -0.171179 0
M  V30 3236 H 308.031 -1.81301 0.283242 0
M  V30 3237 H 306.413 -3.60604 -1.63649 0
M  V30 3238 H 307.587 -4.47813 1.08627 0
M  V30 3239 H 305.902 -4.08102 0.827158 0
M  V30 3240 H 308.499 -5.04086 -1.78328 0
M  V30 3241 H 308.842 -3.42875 -2.36099 0
M  V30 3242 H 309.375 -3.9101 -0.731836 0
M  V30 3243 H 306.114 -6.51097 0.758514 0
M  V30 3244 H 305.634 -5.93676 -0.854941 0
M  V30 3245 H 307.313 -6.44663 -0.549448 0
M  V30 3246 N 307.445 0.0818655 -1.57387 0
M  V30 3247 C 308.375 1.09885 -2.06028 0
M  V30 3248 C 309.356 1.4098 -0.951774 0
M  V30 3249 O 310.541 1.50781 -1.22387 0
M  V30 3250 C 307.671 2.4151 -2.4958 0
M  V30 3251 C 306.625 2.24792 -3.64215 0
M  V30 3252 C 305.951 3.61712 -3.93787 0
M  V30 3253 C 307.251 1.67749 -4.94629 0
M  V30 3254 H 308.945 0.694128 -2.91243 0
M  V30 3255 H 306.491 0.332448 -1.4011 0
M  V30 3256 H 308.444 3.12939 -2.82219 0
M  V30 3257 H 307.168 2.83943 -1.61381 0
M  V30 3258 H 305.827 1.55807 -3.31843 0
M  V30 3259 H 305.475 4.01697 -3.02735 0
M  V30 3260 H 305.175 3.51368 -4.70971 0
M  V30 3261 H 306.699 4.34587 -4.28913 0
M  V30 3262 H 308.113 2.29032 -5.25564 0
M  V30 3263 H 306.51 1.68128 -5.76067 0
M  V30 3264 H 307.58 0.638059 -4.80684 0
M  V30 3265 N 308.923 1.53595 0.353017 0
M  V30 3266 C 309.886 1.80232 1.41594 0
M  V30 3267 C 310.886 0.673081 1.46035 0
M  V30 3268 O 312.076 0.941335 1.46576 0
M  V30 3269 C 309.208 1.93578 2.80607 0
M  V30 3270 H 310.401 2.75174 1.19244 0
M  V30 3271 H 307.954 1.44864 0.586872 0
M  V30 3272 H 308.689 1.00746 3.08254 0
M  V30 3273 H 308.474 2.75724 2.78781 0
M  V30 3274 H 309.964 2.15735 3.57558 0
M  V30 3275 N 310.401 -0.613514 1.45168 0
M  V30 3276 C 311.631 -1.39743 1.52169 0
M  V30 3277 C 312.039 -1.88596 0.151086 0
M  V30 3278 O 311.382 -1.6251 -0.856521 0
M  V30 3279 C 311.444 -2.64035 2.43979 0
M  V30 3280 C 311.108 -2.36861 3.90827 0
M  V30 3281 C 312.105 -1.97591 4.80889 0
M  V30 3282 C 309.79 -2.49956 4.35692 0
M  V30 3283 C 311.784 -1.71768 6.1382 0
M  V30 3284 C 309.471 -2.23747 5.68665 0
M  V30 3285 C 310.469 -1.84714 6.57548 0
M  V30 3286 O 310.157 -1.58809 7.88058 0
M  V30 3287 H 309.889 -0.434382 0.517966 0
M  V30 3288 H 312.443 -0.75587 1.90986 0
M  V30 3289 H 310.673 -3.3089 2.00122 0
M  V30 3290 H 312.362 -3.26069 2.41731 0
M  V30 3291 H 313.128 -1.87015 4.47493 0
M  V30 3292 H 309.007 -2.79305 3.66756 0
M  V30 3293 H 312.551 -1.41227 6.83155 0
M  V30 3294 H 308.448 -2.33938 6.01617 0
M  V30 3295 H 309.216 -1.7291 8.00028 0
M  V30 3296 N 311.879 -1.3236 -0.855495 0
M  V30 3297 C 313.126 -1.22872 -1.60962 0
M  V30 3298 C 313.454 0.209658 -1.93367 0
M  V30 3299 O 312.709 1.16243 -1.57436 0
M  V30 3300 C 313.008 -2.03275 -2.93963 0
M  V30 3301 C 312.674 -3.5264 -2.80991 0
M  V30 3302 C 311.336 -3.93364 -2.7716 0
M  V30 3303 C 313.688 -4.47626 -2.66983 0
M  V30 3304 C 311.016 -5.27319 -2.572 0
M  V30 3305 C 313.368 -5.81723 -2.48558 0
M  V30 3306 C 312.032 -6.2165 -2.4312 0
M  V30 3307 H 311.302 -0.44962 -0.589001 0
M  V30 3308 H 313.949 -1.63777 -0.992442 0
M  V30 3309 H 312.254 -1.55095 -3.59795 0
M  V30 3310 H 313.951 -1.93303 -3.51333 0
M  V30 3311 H 310.541 -3.20295 -2.84797 0
M  V30 3312 H 314.725 -4.17084 -2.68988 0
M  V30 3313 H 309.981 -5.57311 -2.51424 0
M  V30 3314 H 314.155 -6.5494 -2.36699 0
M  V30 3315 H 311.782 -7.25388 -2.27412 0
M  V30 3316 N 313.357 1.07166 -1.15556 0
M  V30 3317 C 314.773 1.31899 -0.898603 0
M  V30 3318 C 314.973 1.96333 0.453383 0
M  V30 3319 O 314.029 2.22438 1.19489 0
M  V30 3320 C 315.342 2.20826 -2.04099 0
M  V30 3321 C 316.89 2.34269 -2.07574 0
M  V30 3322 C 317.365 3.26546 -3.21141 0
M  V30 3323 N 318.856 3.34127 -3.20801 0
M  V30 3324 C 319.591 4.05595 -4.05315 0
M  V30 3325 N 319.087 4.79661 -4.99897 0
M  V30 3326 N 320.88 4.01555 -3.93332 0
M  V30 3327 H 313.031 0.637302 -2.02613 0
M  V30 3328 H 315.294 0.343468 -0.883591 0
M  V30 3329 H 315 1.80744 -3.01703 0
M  V30 3330 H 314.874 3.21364 -1.97496 0
M  V30 3331 H 317.261 2.73603 -1.10568 0
M  V30 3332 H 317.342 1.33429 -2.18244 0
M  V30 3333 H 316.986 2.87931 -4.184 0
M  V30 3334 H 316.916 4.27345 -3.07708 0
M  V30 3335 H 319.407 2.81336 -2.52306 0
M  V30 3336 H 319.72 5.31694 -5.60822 0
M  V30 3337 H 318.065 4.78671 -5.03884 0
M  V30 3338 H 321.256 3.42806 -3.18751 0
M  V30 3339 H 321.429 4.56987 -4.5942 0
M  V30 3340 N 314.835 0.952656 1.25548 0
M  V30 3341 C 316.251 0.656769 1.4546 0
M  V30 3342 C 316.451 -0.78633 1.85524 0
M  V30 3343 O 315.507 -1.56183 1.98402 0
M  V30 3344 C 316.82 1.62801 2.52817 0
M  V30 3345 C 318.368 1.63897 2.66659 0
M  V30 3346 C 318.843 2.5978 3.77198 0
M  V30 3347 N 320.334 2.58133 3.84606 0
M  V30 3348 C 321.069 3.29003 4.69621 0
M  V30 3349 N 320.565 4.09339 5.58939 0
M  V30 3350 N 322.358 3.179 4.63569 0
M  V30 3351 H 314.509 1.88526 0.978344 0
M  V30 3352 H 316.772 0.810815 0.491206 0
M  V30 3353 H 316.478 2.65869 2.30232 0
M  V30 3354 H 316.352 1.38898 3.50695 0
M  V30 3355 H 318.739 0.615481 2.8861 0
M  V30 3356 H 318.82 1.91858 1.69187 0
M  V30 3357 H 318.464 3.62254 3.55997 0
M  V30 3358 H 318.394 2.29105 4.7415 0
M  V30 3359 H 320.885 1.99809 3.20757 0
M  V30 3360 H 321.198 4.6034 6.20731 0
M  V30 3361 H 319.543 4.13438 5.58654 0
M  V30 3362 H 322.734 2.54612 3.92798 0
M  V30 3363 H 322.907 3.73398 5.29602 0
M  V30 3364 N 316.313 -1.40141 0.720998 0
M  V30 3365 C 317.243 -2.33339 0.0867621 0
M  V30 3366 C 318.224 -1.53178 -0.739622 0
M  V30 3367 O 319.409 -1.81625 -0.687449 0
M  V30 3368 C 316.539 -3.37194 -0.831728 0
M  V30 3369 C 315.493 -4.27857 -0.110558 0
M  V30 3370 C 314.819 -5.22294 -1.14513 0
M  V30 3371 C 316.119 -5.11872 1.0385 0
M  V30 3372 H 317.813 -2.86626 0.865219 0
M  V30 3373 H 315.359 -1.37814 0.417516 0
M  V30 3374 H 317.312 -4.01335 -1.28485 0
M  V30 3375 H 316.036 -2.82314 -1.64214 0
M  V30 3376 H 314.695 -3.65176 0.322797 0
M  V30 3377 H 314.343 -4.63717 -1.94874 0
M  V30 3378 H 314.043 -5.83797 -0.667446 0
M  V30 3379 H 315.567 -5.89312 -1.59824 0
M  V30 3380 H 316.981 -5.69436 0.664482 0
M  V30 3381 H 315.378 -5.82445 1.4449 0
M  V30 3382 H 316.448 -4.4753 1.86668 0
M  V30 3383 N 317.792 -0.46758 -1.50504 0
M  V30 3384 C 318.742 0.34698 -2.25344 0
M  V30 3385 C 319.726 0.964469 -1.2879 0
M  V30 3386 O 320.918 0.8776 -1.53711 0
M  V30 3387 C 318.047 1.43042 -3.1208 0
M  V30 3388 C 317.133 0.82084 -4.16081 0
M  V30 3389 N 317.524 -0.0567602 -5.05768 0
M  V30 3390 C 315.822 1.08517 -4.32597 0
M  V30 3391 C 316.523 -0.402343 -5.80307 0
M  V30 3392 N 315.499 0.221607 -5.43148 0
M  V30 3393 H 319.301 -0.329129 -2.92051 0
M  V30 3394 H 316.815 -0.281508 -1.59942 0
M  V30 3395 H 318.812 2.02712 -3.64299 0
M  V30 3396 H 317.472 2.10856 -2.46921 0
M  V30 3397 H 318.483 -0.425349 -5.1615 0
M  V30 3398 H 315.16 1.75855 -3.78657 0
M  V30 3399 H 316.55 -1.11834 -6.62528 0
M  V30 3400 N 319.27 1.56325 -0.20005 0
M  V30 3401 C 320.51 1.99619 0.439519 0
M  V30 3402 C 320.874 1.08423 1.58456 0
M  V30 3403 O 322.075 1.40973 2.28867 0
M  V30 3404 C 320.346 3.46314 0.883258 0
M  V30 3405 S 321.905 4.11634 1.51997 0
M  V30 3406 H 318.723 0.697007 0.140363 0
M  V30 3407 H 321.325 1.93118 -0.304282 0
M  V30 3408 H 320.029 4.10381 0.0398967 0
M  V30 3409 H 319.56 3.56643 1.6604 0
M  V30 3410 H 321.575 4.09049 2.8088 0
M  V30 3411 N 320.748 -0.0735177 1.57428 0
M  V30 3412 C 321.976 -0.785969 1.9139 0
M  V30 3413 C 322.391 -1.71207 0.795847 0
M  V30 3414 O 321.748 -1.81033 -0.230915 0
M  V30 3415 C 321.799 -1.58107 3.25091 0
M  V30 3416 O 321.52 -0.6922 4.32597 0
M  V30 3417 C 323.021 -2.39467 3.73055 0
M  V30 3418 H 320.241 -0.223558 0.632663 0
M  V30 3419 H 322.785 -0.044302 2.04452 0
M  V30 3420 H 320.94 -2.27503 3.13562 0
M  V30 3421 H 321.354 -1.24504 5.09508 0
M  V30 3422 H 322.828 -2.90716 4.69242 0
M  V30 3423 H 323.305 -3.18913 3.01979 0
M  V30 3424 H 323.911 -1.7523 3.87523 0
M  V30 3425 N 322.226 -1.5378 -0.344866 0
M  V30 3426 C 323.642 -1.44015 -0.687888 0
M  V30 3427 C 323.842 -0.595834 -1.92489 0
M  V30 3428 O 322.898 -0.0863064 -2.52352 0
M  V30 3429 C 324.211 -2.87481 -0.881758 0
M  V30 3430 C 325.759 -2.97247 -0.980459 0
M  V30 3431 C 326.234 -4.41819 -1.20665 0
M  V30 3432 N 327.725 -4.45339 -1.27389 0
M  V30 3433 C 328.46 -5.54333 -1.46639 0
M  V30 3434 N 327.956 -6.73335 -1.63071 0
M  V30 3435 N 329.749 -5.41944 -1.49176 0
M  V30 3436 H 321.9 -2.07169 0.468475 0
M  V30 3437 H 324.163 -0.93643 0.147655 0
M  V30 3438 H 323.869 -3.51672 -0.0443444 0
M  V30 3439 H 323.743 -3.32352 -1.78388 0
M  V30 3440 H 326.13 -2.33197 -1.8084 0
M  V30 3441 H 326.211 -2.5574 -0.0552713 0
M  V30 3442 H 325.855 -5.06449 -0.383652 0
M  V30 3443 H 325.785 -4.80917 -2.14539 0
M  V30 3444 H 328.276 -3.59585 -1.1622 0
M  V30 3445 H 328.589 -7.52165 -1.77391 0
M  V30 3446 H 326.934 -6.76282 -1.60209 0
M  V30 3447 H 330.125 -4.47932 -1.3592 0
M  V30 3448 H 330.298 -6.26946 -1.63837 0
M  V30 3449 N 323.704 0.605807 -1.45491 0
M  V30 3450 C 324.652 1.73754 -1.54636 0
M  V30 3451 C 325.646 1.64207 -0.416219 0
M  V30 3452 O 326.852 1.69979 -0.592199 0
M  V30 3453 H 323.227 0.574073 -0.485741 0
M  V30 3454 H 325.198 1.63169 -2.49837 0
M  V30 3455 C 323.947 3.12135 -1.53189 0
M  V30 3456 H 323.27 3.20141 -2.39478 0
M  V30 3457 H 324.71 3.91147 -1.63645 0
M  V30 3458 C 323.169 3.35921 -0.256616 0
M  V30 3459 O 323.699 3.96194 0.662798 0
M  V30 3460 N 321.905 2.90204 -0.151751 0
M  V30 3461 H 321.452 2.41336 -0.90081 0
M  V30 3462 H 321.41 3.06492 0.700699 0
M  V30 3463 N 325.182 1.32811 0.848464 0
M  V30 3464 C 326.412 1.26556 1.63301 0
M  V30 3465 C 326.82 -0.1676 1.88456 0
M  V30 3466 O 326.163 -1.11713 1.45828 0
M  V30 3467 C 326.225 1.96202 3.01239 0
M  V30 3468 C 325.889 3.45528 2.99098 0
M  V30 3469 C 326.886 4.40903 2.75501 0
M  V30 3470 C 324.571 3.87558 3.19537 0
M  V30 3471 C 326.565 5.76282 2.72356 0
M  V30 3472 C 324.252 5.23044 3.16019 0
M  V30 3473 C 325.25 6.17217 2.92458 0
M  V30 3474 O 324.938 7.50223 2.88825 0
M  V30 3475 H 324.67 0.43771 0.515156 0
M  V30 3476 H 327.224 1.7559 1.0657 0
M  V30 3477 H 325.454 1.41746 3.59785 0
M  V30 3478 H 327.143 1.83573 3.62016 0
M  V30 3479 H 327.909 4.09756 2.5947 0
M  V30 3480 H 323.788 3.14674 3.369 0
M  V30 3481 H 327.332 6.4976 2.53886 0
M  V30 3482 H 323.229 5.53818 3.31596 0
M  V30 3483 H 323.997 7.59657 3.04735 0
M  V30 3484 N 326.66 -1.06551 1.16123 0
M  V30 3485 C 327.909 -1.78687 0.935622 0
M  V30 3486 C 328.222 -1.88056 -0.538001 0
M  V30 3487 O 329.428 -2.56794 -0.88143 0
M  V30 3488 C 327.884 -3.21143 1.62466 0
M  V30 3489 C 327.492 -3.19949 3.13587 0
M  V30 3490 C 329.236 -3.9783 1.48092 0
M  V30 3491 C 327.143 -4.57108 3.75241 0
M  V30 3492 H 326.073 -0.669712 0.346412 0
M  V30 3493 H 328.724 -1.19534 1.39226 0
M  V30 3494 H 327.106 -3.80539 1.09572 0
M  V30 3495 H 328.28 -2.70151 3.73303 0
M  V30 3496 H 326.595 -2.5676 3.27816 0
M  V30 3497 H 329.192 -4.99217 1.91538 0
M  V30 3498 H 329.535 -4.14078 0.429507 0
M  V30 3499 H 330.068 -3.4495 1.98127 0
M  V30 3500 H 326.807 -4.46065 4.80319 0
M  V30 3501 H 326.327 -5.07111 3.20309 0
M  V30 3502 H 328.006 -5.26069 3.76644 0
M  V30 3503 N 328.138 -0.959301 -1.25041 0
M  V30 3504 C 329.088 -0.453888 -2.23436 0
M  V30 3505 C 330.072 0.459461 -1.542 0
M  V30 3506 O 331.264 0.291752 -1.74579 0
M  V30 3507 C 328.393 0.262667 -3.42294 0
M  V30 3508 C 327.479 -0.669022 -4.1879 0
M  V30 3509 N 327.87 -1.80267 -4.72586 0
M  V30 3510 C 326.168 -0.47814 -4.4343 0
M  V30 3511 C 326.869 -2.38475 -5.3057 0
M  V30 3512 N 325.845 -1.67078 -5.17287 0
M  V30 3513 H 329.647 -1.319 -2.6264 0
M  V30 3514 H 327.161 -0.817358 -1.40332 0
M  V30 3515 H 329.158 0.641911 -4.11929 0
M  V30 3516 H 327.818 1.12432 -3.04613 0
M  V30 3517 H 328.829 -2.18442 -4.69578 0
M  V30 3518 H 325.506 0.340249 -4.16111 0
M  V30 3519 H 326.896 -3.34094 -5.8295 0
M  V30 3520 N 329.616 1.39756 -0.72842 0
M  V30 3521 C 330.549 2.28176 -0.0330172 0
M  V30 3522 C 331.527 1.44035 0.754501 0
M  V30 3523 O 332.711 1.73434 0.738445 0
M  V30 3524 C 329.838 3.24795 0.960504 0
M  V30 3525 C 328.884 4.25693 0.262264 0
M  V30 3526 S 329.717 5.25714 -1.01906 0
M  V30 3527 C 330.873 6.25894 -0.0279717 0
M  V30 3528 H 331.106 2.86807 -0.78287 0
M  V30 3529 H 328.639 1.45382 -0.519951 0
M  V30 3530 H 330.597 3.80983 1.52846 0
M  V30 3531 H 329.258 2.65196 1.68315 0
M  V30 3532 H 328.451 4.93699 1.01379 0
M  V30 3533 H 328.053 3.7327 -0.233482 0
M  V30 3534 H 330.345 6.72585 0.814621 0
M  V30 3535 H 331.288 7.04876 -0.67499 0
M  V30 3536 H 331.696 5.63466 0.341489 0
M  V30 3537 N 331.094 0.475555 1.50254 0
M  V30 3538 C 332.044 -0.335025 2.25525 0
M  V30 3539 C 333.028 -0.957625 1.29299 0
M  V30 3540 O 334.22 -0.869436 1.54175 0
M  V30 3541 C 331.349 -1.41385 3.12834 0
M  V30 3542 C 330.435 -0.798762 4.1651 0
M  V30 3543 N 330.826 0.0835815 5.05731 0
M  V30 3544 C 329.124 -1.06221 4.33166 0
M  V30 3545 C 329.825 0.433113 5.80085 0
M  V30 3546 N 328.801 -0.1928 5.43258 0
M  V30 3547 H 332.603 0.344612 2.91873 0
M  V30 3548 H 330.117 0.289986 1.5979 0
M  V30 3549 H 332.114 -2.00777 3.65368 0
M  V30 3550 H 330.774 -2.09543 2.48036 0
M  V30 3551 H 331.785 0.452715 5.15918 0
M  V30 3552 H 328.462 -1.73844 3.79585 0
M  V30 3553 H 329.852 1.15346 6.61925 0
M  V30 3554 N 332.573 -1.56217 0.208337 0
M  V30 3555 C 333.503 -2.22694 -0.702116 0
M  V30 3556 C 334.484 -1.19432 -1.2112 0
M  V30 3557 O 335.669 -1.47978 -1.25762 0
M  V30 3558 C 332.799 -2.8966 -1.9161 0
M  V30 3559 C 331.753 -3.9928 -1.5414 0
M  V30 3560 C 331.079 -4.53476 -2.83308 0
M  V30 3561 C 332.379 -5.17012 -0.741339 0
M  V30 3562 H 334.073 -2.99034 -0.147898 0
M  V30 3563 H 331.619 -1.43831 -0.0696951 0
M  V30 3564 H 333.572 -3.34852 -2.55836 0
M  V30 3565 H 332.296 -2.10746 -2.49507 0
M  V30 3566 H 330.955 -3.54799 -0.922668 0
M  V30 3567 H 330.603 -3.71308 -3.39322 0
M  V30 3568 H 330.303 -5.27451 -2.58976 0
M  V30 3569 H 331.827 -5.01378 -3.485 0
M  V30 3570 H 333.241 -5.58667 -1.28699 0
M  V30 3571 H 331.638 -5.97137 -0.595627 0
M  V30 3572 H 332.708 -4.8423 0.254851 0
M  V30 3573 N 334.051 0.0651679 -1.57465 0
M  V30 3574 C 335.298 0.763063 -1.87573 0
M  V30 3575 C 335.626 1.77242 -0.800961 0
M  V30 3576 O 334.881 1.94651 0.202316 0
M  V30 3577 C 335.18 1.50081 -3.24362 0
M  V30 3578 C 334.846 0.630816 -4.46466 0
M  V30 3579 C 333.508 0.391082 -4.79608 0
M  V30 3580 C 335.86 0.0279465 -5.21193 0
M  V30 3581 C 333.188 -0.460894 -5.84887 0
M  V30 3582 C 335.54 -0.811522 -6.27373 0
M  V30 3583 C 334.204 -1.06106 -6.59013 0
M  V30 3584 H 333.474 0.279224 -0.686378 0
M  V30 3585 H 336.121 0.0236726 -1.91485 0
M  V30 3586 H 334.426 2.31258 -3.16271 0
M  V30 3587 H 336.123 2.04571 -3.44894 0
M  V30 3588 H 332.713 0.8278 -4.2053 0
M  V30 3589 H 336.897 0.200262 -4.95896 0
M  V30 3590 H 332.153 -0.662907 -6.07796 0
M  V30 3591 H 336.327 -1.28537 -6.84435 0
M  V30 3592 H 333.954 -1.723 -7.40417 0
M  V30 3593 N 335.529 1.53961 0.336706 0
M  V30 3594 C 336.459 1.85417 1.41925 0
M  V30 3595 C 337.44 0.709856 1.5458 0
M  V30 3596 O 338.625 0.962396 1.68676 0
M  V30 3597 C 335.755 2.06985 2.78881 0
M  V30 3598 C 334.709 3.22813 2.81026 0
M  V30 3599 C 334.035 3.29727 4.20932 0
M  V30 3600 C 335.335 4.60767 2.45949 0
M  V30 3601 H 337.029 2.76079 1.15848 0
M  V30 3602 H 334.575 1.32839 0.555859 0
M  V30 3603 H 336.528 2.27575 3.54665 0
M  V30 3604 H 335.252 1.13061 3.06406 0
M  V30 3605 H 333.911 3.0209 2.07695 0
M  V30 3606 H 333.559 2.33385 4.45579 0
M  V30 3607 H 333.259 4.07566 4.23277 0
M  V30 3608 H 334.783 3.52536 4.98549 0
M  V30 3609 H 336.197 4.81325 3.11446 0
M  V30 3610 H 334.594 5.4106 2.59566 0
M  V30 3611 H 335.664 4.6391 1.41122 0
M  V30 3612 N 337.007 -0.598083 1.45811 0
M  V30 3613 C 338.232 -1.3881 1.54099 0
M  V30 3614 C 338.657 -1.8726 0.177578 0
M  V30 3615 O 338.015 -1.6069 -0.839541 0
M  V30 3616 C 338.063 -2.56217 2.53743 0
M  V30 3617 O 337.167 -3.5716 2.06182 0
M  V30 3618 H 336.508 -0.414024 0.519115 0
M  V30 3619 H 339.038 -0.726971 1.91249 0
M  V30 3620 H 339.048 -3.03337 2.72856 0
M  V30 3621 H 337.723 -2.20303 3.5276 0
M  V30 3622 H 336.3 -3.16624 1.96987 0
M  V30 3623 N 338.485 -1.33259 -0.841409 0
M  V30 3624 C 339.732 -1.24572 -1.5965 0
M  V30 3625 C 340.06 0.189137 -1.93578 0
M  V30 3626 O 339.315 1.14566 -1.5866 0
M  V30 3627 C 339.614 -2.06381 -2.9179 0
M  V30 3628 C 339.28 -3.556 -2.77235 0
M  V30 3629 C 337.942 -3.96282 -2.72973 0
M  V30 3630 C 340.294 -4.50433 -2.62221 0
M  V30 3631 C 337.622 -5.30017 -2.51592 0
M  V30 3632 C 339.974 -5.84327 -2.42374 0
M  V30 3633 C 338.638 -6.24194 -2.36512 0
M  V30 3634 H 337.908 -0.455842 -0.5842 0
M  V30 3635 H 340.555 -1.6482 -0.975016 0
M  V30 3636 H 338.86 -1.58903 -3.5813 0
M  V30 3637 H 340.557 -1.97019 -3.49263 0
M  V30 3638 H 337.147 -3.23298 -2.81384 0
M  V30 3639 H 341.331 -4.19914 -2.64549 0
M  V30 3640 H 336.587 -5.59947 -2.45499 0
M  V30 3641 H 340.761 -6.57414 -2.29739 0
M  V30 3642 H 338.388 -7.27759 -2.19706 0
M  V30 3643 N 339.963 1.05934 -1.16686 0
M  V30 3644 C 340.896 2.1295 -0.820225 0
M  V30 3645 C 341.874 1.61242 0.209722 0
M  V30 3646 O 343.058 1.88271 0.0929688 0
M  V30 3647 C 340.185 3.3797 -0.22223 0
M  V30 3648 C 339.231 4.08488 -1.22637 0
M  V30 3649 S 340.064 4.58015 -2.77457 0
M  V30 3650 C 341.22 5.86292 -2.19117 0
M  V30 3651 H 341.453 2.42025 -1.72659 0
M  V30 3652 H 338.986 1.18423 -0.990722 0
M  V30 3653 H 340.944 4.10335 0.116322 0
M  V30 3654 H 339.605 3.07045 0.66196 0
M  V30 3655 H 338.798 4.98291 -0.756455 0
M  V30 3656 H 338.4 3.42154 -1.51019 0
M  V30 3657 H 340.692 6.59246 -1.56209 0
M  V30 3658 H 341.635 6.38019 -3.07144 0
M  V30 3659 H 342.043 5.40497 -1.62858 0
M  V30 3660 N 341.441 0.965919 1.2453 0
M  V30 3661 C 342.371 0.513476 2.27784 0
M  V30 3662 C 343.352 -0.445974 1.6415 0
M  V30 3663 O 344.537 -0.342485 1.91156 0
M  V30 3664 C 341.667 -0.198839 3.4673 0
M  V30 3665 C 340.621 0.676456 4.2262 0
M  V30 3666 C 339.947 -0.167248 5.34438 0
M  V30 3667 C 341.247 1.96017 4.84123 0
M  V30 3668 H 342.941 1.3765 2.65881 0
M  V30 3669 H 340.487 0.663321 1.27813 0
M  V30 3670 H 342.44 -0.526567 4.18097 0
M  V30 3671 H 341.164 -1.0962 3.07654 0
M  V30 3672 H 339.823 0.98743 3.53052 0
M  V30 3673 H 339.471 -1.0647 4.91603 0
M  V30 3674 H 339.171 0.415181 5.86131 0
M  V30 3675 H 340.695 -0.489688 6.08633 0
M  V30 3676 H 342.109 1.69814 5.47573 0
M  V30 3677 H 340.506 2.48918 5.4604 0
M  V30 3678 H 341.576 2.65622 4.05676 0
M  V30 3679 N 342.919 -1.39368 0.735821 0
M  V30 3680 C 344.335 -1.54204 0.411492 0
M  V30 3681 C 344.535 -1.70268 -1.07755 0
M  V30 3682 O 343.591 -1.70364 -1.86366 0
M  V30 3683 C 344.904 -2.75925 1.19523 0
M  V30 3684 C 346.452 -2.89761 1.18354 0
M  V30 3685 C 346.927 -4.14421 1.94986 0
M  V30 3686 N 348.418 -4.21462 1.92156 0
M  V30 3687 C 349.153 -5.16871 2.48258 0
M  V30 3688 N 348.649 -6.18063 3.13001 0
M  V30 3689 N 350.442 -5.09093 2.38287 0
M  V30 3690 H 342.593 -1.27189 1.70108 0
M  V30 3691 H 344.856 -0.616517 0.720147 0
M  V30 3692 H 344.562 -2.70401 2.24892 0
M  V30 3693 H 344.436 -3.68614 0.800222 0
M  V30 3694 H 346.823 -2.94777 0.137975 0
M  V30 3695 H 346.904 -1.98133 1.61793 0
M  V30 3696 H 346.548 -4.10166 2.99543 0
M  V30 3697 H 346.478 -5.05095 1.48953 0
M  V30 3698 H 348.969 -3.48979 1.44991 0
M  V30 3699 H 349.282 -6.87326 3.53275 0
M  V30 3700 H 347.627 -6.18448 3.17091 0
M  V30 3701 H 350.818 -4.28973 1.8735 0
M  V30 3702 H 350.991 -5.83272 2.82308 0
M  V30 3703 N 344.397 -0.483516 -1.5 0
M  V30 3704 C 345.36 0.292965 -2.2732 0
M  V30 3705 C 346.36 0.909499 -1.32608 0
M  V30 3706 O 347.55 0.776745 -1.55924 0
M  V30 3707 C 344.682 1.41854 -3.09984 0
M  V30 3708 H 345.875 -0.385289 -2.97415 0
M  V30 3709 H 343.428 -0.237942 -1.54478 0
M  V30 3710 H 344.163 2.13148 -2.44414 0
M  V30 3711 H 343.948 0.982114 -3.79601 0
M  V30 3712 H 345.438 1.96597 -3.68429 0
M  V30 3713 N 345.875 1.56104 -0.216619 0
M  V30 3714 C 347.121 1.98466 0.417033 0
M  V30 3715 C 347.454 1.10403 1.59765 0
M  V30 3716 O 346.729 0.160632 1.93836 0
M  V30 3717 C 347.012 3.49769 0.85637 0
M  V30 3718 C 346.865 4.48606 -0.327546 0
M  V30 3719 C 348.184 4.05339 1.7143 0
M  V30 3720 H 345.303 0.721551 0.150112 0
M  V30 3721 H 347.945 1.87423 -0.311864 0
M  V30 3722 H 346.095 3.5931 1.47745 0
M  V30 3723 H 347.767 4.5108 -0.965618 0
M  V30 3724 H 346.01 4.22682 -0.975805 0
M  V30 3725 H 346.681 5.51995 0.0227149 0
M  V30 3726 H 349.157 3.98712 1.19031 0
M  V30 3727 H 348.033 5.11533 1.99061 0
M  V30 3728 H 348.294 3.51918 2.67593 0
M  V30 3729 N 347.353 -0.0568162 1.57498 0
M  V30 3730 C 348.578 -0.769402 1.92601 0
M  V30 3731 C 349.003 -1.69559 0.814336 0
M  V30 3732 O 348.361 -1.79811 -0.231903 0
M  V30 3733 C 348.409 -1.52634 3.26704 0
M  V30 3734 O 347.513 -2.63797 3.16994 0
M  V30 3735 H 346.854 -0.208909 0.63028 0
M  V30 3736 H 349.384 -0.0205798 2.0459 0
M  V30 3737 H 349.394 -1.90234 3.60936 0
M  V30 3738 H 348.069 -0.846875 4.07186 0
M  V30 3739 H 346.646 -2.28943 2.94346 0
M  V30 3740 N 348.832 -1.54138 -0.328536 0
M  V30 3741 C 350.081 -1.71318 -1.06456 0
M  V30 3742 C 350.394 -0.491109 -1.89334 0
M  V30 3743 O 351.6 -0.54416 -2.65991 0
M  V30 3744 C 350.056 -3.03 -1.94214 0
M  V30 3745 C 349.664 -4.32595 -1.16471 0
M  V30 3746 C 351.408 -3.29544 -2.67583 0
M  V30 3747 C 349.315 -5.55341 -2.03347 0
M  V30 3748 H 348.245 -0.638429 -0.401155 0
M  V30 3749 H 350.896 -1.80633 -0.323106 0
M  V30 3750 H 349.278 -2.87579 -2.72239 0
M  V30 3751 H 350.452 -4.58766 -0.432525 0
M  V30 3752 H 348.767 -4.12777 -0.548063 0
M  V30 3753 H 351.364 -4.18444 -3.3288 0
M  V30 3754 H 351.707 -2.47206 -3.34955 0
M  V30 3755 H 352.24 -3.45809 -1.96623 0
M  V30 3756 H 348.979 -6.40268 -1.40491 0
M  V30 3757 H 348.499 -5.33397 -2.74313 0
M  V30 3758 H 350.178 -5.91557 -2.62049 0
M  V30 3759 N 350.31 0.590341 -1.46126 0
M  V30 3760 C 351.557 1.34882 -1.5104 0
M  V30 3761 C 351.885 1.93849 -0.159021 0
M  V30 3762 O 351.14 1.76544 0.844436 0
M  V30 3763 C 351.439 2.5032 -2.55097 0
M  V30 3764 C 351.105 2.09394 -3.99331 0
M  V30 3765 C 349.767 1.97947 -4.38601 0
M  V30 3766 C 352.119 1.77712 -4.89967 0
M  V30 3767 C 349.447 1.53065 -5.66381 0
M  V30 3768 C 351.799 1.34312 -6.18177 0
M  V30 3769 C 350.463 1.21436 -6.56361 0
M  V30 3770 H 349.733 0.493568 -0.552695 0
M  V30 3771 H 352.38 0.665539 -1.79563 0
M  V30 3772 H 350.685 3.24062 -2.20207 0
M  V30 3773 H 352.382 3.08541 -2.56132 0
M  V30 3774 H 348.972 2.19235 -3.68285 0
M  V30 3775 H 353.156 1.85445 -4.60352 0
M  V30 3776 H 348.412 1.41733 -5.94745 0
M  V30 3777 H 352.586 1.08849 -6.87841 0
M  V30 3778 H 350.213 0.864345 -7.5527 0
M  V30 3779 N 351.788 1.33704 0.83433 0
M  V30 3780 C 353.034 1.25603 1.59222 0
M  V30 3781 C 353.367 -0.176659 1.93395 0
M  V30 3782 O 352.642 -1.11915 1.59076 0
M  V30 3783 C 352.925 2.13576 2.89926 0
M  V30 3784 C 352.778 3.65326 2.62406 0
M  V30 3785 C 354.097 2.01238 3.91397 0
M  V30 3786 H 351.216 0.457613 0.577719 0
M  V30 3787 H 353.858 1.63848 0.961972 0
M  V30 3788 H 352.008 1.8109 3.43713 0
M  V30 3789 H 353.68 4.08124 2.15017 0
M  V30 3790 H 351.923 3.8698 1.96033 0
M  V30 3791 H 352.594 4.22232 3.55562 0
M  V30 3792 H 355.07 2.29738 3.46929 0
M  V30 3793 H 353.946 2.65036 4.80673 0
M  V30 3794 H 354.207 0.985951 4.30966 0
M  V30 3795 N 353.266 -1.05314 1.17247 0
M  V30 3796 C 354.213 -2.13031 0.888058 0
M  V30 3797 C 355.183 -1.65253 -0.167537 0
M  V30 3798 O 356.368 -1.90775 -0.0305974 0
M  V30 3799 C 353.508 -3.42702 0.406147 0
M  V30 3800 C 352.621 -4.04161 1.52572 0
M  V30 3801 C 351.756 -5.21744 0.997808 0
M  V30 3802 C 350.795 -5.75207 2.09291 0
M  V30 3803 N 349.932 -6.84094 1.57986 0
M  V30 3804 H 354.772 -2.36698 1.81048 0
M  V30 3805 H 352.309 -1.16121 0.903013 0
M  V30 3806 H 354.267 -4.17059 0.108305 0
M  V30 3807 H 352.897 -3.19222 -0.479313 0
M  V30 3808 H 351.949 -3.27253 1.93931 0
M  V30 3809 H 353.261 -4.39881 2.35172 0
M  V30 3810 H 352.415 -6.03168 0.653739 0
M  V30 3811 H 351.154 -4.87495 0.141232 0
M  V30 3812 H 350.159 -4.92414 2.44557 0
M  V30 3813 H 351.384 -6.11505 2.95362 0
M  V30 3814 H 349.33 -6.51745 0.74598 0
M  V30 3815 H 349.247 -7.18811 2.34195 0
M  V30 3816 H 350.515 -7.69172 1.26468 0
M  V30 3817 N 354.744 -0.972509 -1.24016 0
M  V30 3818 C 356.021 -0.553733 -1.87598 0
M  V30 3819 C 356.401 0.969158 -1.87538 0
M  V30 3820 O 355.749 1.84255 -1.35139 0
M  V30 3821 C 355.959 -1.15076 -3.29482 0
M  V30 3822 C 357.307 -1.23862 -4.06132 0
M  V30 3823 O 358.331 -1.10363 -3.38672 0
M  V30 3824 O 357.19 -1.45252 -5.26844 0
M  V30 3825 H 354.284 -0.185331 -0.805966 0
M  V30 3826 H 356.83 -1.06709 -1.31952 0
M  V30 3827 H 355.602 -2.19333 -3.2405 0
M  V30 3828 H 355.225 -0.621746 -3.92709 0
M  V30 3829 N 356.222 1.38976 -0.743202 0
M  V30 3830 C 357.185 2.28901 -0.117014 0
M  V30 3831 C 358.185 1.46698 0.658503 0
M  V30 3832 O 359.375 1.67274 0.486305 0
M  V30 3833 C 356.507 3.30309 0.84315 0
M  V30 3834 H 357.7 2.8578 -0.909373 0
M  V30 3835 H 355.253 1.47761 -0.509547 0
M  V30 3836 H 355.988 2.785 1.66157 0
M  V30 3837 H 355.773 3.91029 0.289594 0
M  V30 3838 H 357.263 3.97577 1.2776 0
M  V30 3839 N 357.7 0.491464 1.49741 0
M  V30 3840 C 358.946 -0.0565092 2.02721 0
M  V30 3841 C 359.279 -1.37522 1.37118 0
M  V30 3842 O 358.554 -1.87866 0.503645 0
M  V30 3843 C 358.837 -0.219051 3.59433 0
M  V30 3844 C 358.69 1.12211 4.35579 0
M  V30 3845 C 360.009 -0.964157 4.29409 0
M  V30 3846 H 357.128 -0.0190627 0.736753 0
M  V30 3847 H 359.77 0.641021 1.7886 0
M  V30 3848 H 357.92 -0.813165 3.79895 0
M  V30 3849 H 359.592 1.75437 4.26637 0
M  V30 3850 H 357.835 1.71377 3.98513 0
M  V30 3851 H 358.506 0.961794 5.43556 0
M  V30 3852 H 360.982 -0.460378 4.13545 0
M  V30 3853 H 359.858 -1.04671 5.38828 0
M  V30 3854 H 360.119 -2.00563 3.93988 0
M  V30 3855 N 359.178 -1.55987 0.224894 0
M  V30 3856 C 360.108 -2.23426 -0.678457 0
M  V30 3857 C 361.089 -1.20709 -1.19847 0
M  V30 3858 O 362.274 -1.49304 -1.24186 0
M  V30 3859 C 359.404 -2.91676 -1.88527 0
M  V30 3860 C 358.358 -4.00893 -1.49896 0
M  V30 3861 C 357.684 -4.56455 -2.78483 0
M  V30 3862 C 358.984 -5.17769 -0.686461 0
M  V30 3863 H 360.678 -2.99175 -0.116173 0
M  V30 3864 H 358.224 -1.43897 -0.054436 0
M  V30 3865 H 360.177 -3.37547 -2.5227 0
M  V30 3866 H 358.901 -2.1338 -2.47258 0
M  V30 3867 H 357.56 -3.55758 -0.884985 0
M  V30 3868 H 357.208 -3.74886 -3.35365 0
M  V30 3869 H 356.908 -5.30169 -2.53368 0
M  V30 3870 H 358.432 -5.05047 -3.43162 0
M  V30 3871 H 359.846 -5.60001 -1.22767 0
M  V30 3872 H 358.243 -5.97735 -0.532259 0
M  V30 3873 H 359.313 -4.83932 0.306196 0
M  V30 3874 N 360.656 0.0484629 -1.57525 0
M  V30 3875 C 361.886 0.754326 -1.92337 0
M  V30 3876 C 362.294 1.70443 -0.82132 0
M  V30 3877 O 361.637 1.82466 0.21254 0
M  V30 3878 C 361.699 1.58231 -3.22805 0
M  V30 3879 C 361.363 0.799074 -4.4996 0
M  V30 3880 C 362.36 0.1079 -5.19788 0
M  V30 3881 C 360.045 0.759345 -4.96527 0
M  V30 3882 C 362.039 -0.612516 -6.3445 0
M  V30 3883 C 359.726 0.0351713 -6.1109 0
M  V30 3884 C 360.724 -0.649537 -6.79904 0
M  V30 3885 O 360.412 -1.36199 -7.92278 0
M  V30 3886 H 360.144 0.218257 -0.639797 0
M  V30 3887 H 362.698 0.0159295 -2.05394 0
M  V30 3888 H 360.928 2.36406 -3.06021 0
M  V30 3889 H 362.617 2.16898 -3.43089 0
M  V30 3890 H 363.383 0.129748 -4.84826 0
M  V30 3891 H 359.262 1.28177 -4.42822 0
M  V30 3892 H 362.806 -1.14751 -6.88097 0
M  V30 3893 H 358.703 0.0113314 -6.45499 0
M  V30 3894 H 359.471 -1.27366 -8.0853 0
M  V30 3895 N 362.134 1.5431 0.320358 0
M  V30 3896 C 363.359 1.76954 1.08175 0
M  V30 3897 C 363.784 0.518193 1.80821 0
M  V30 3898 O 363.142 -0.530411 1.73368 0
M  V30 3899 C 363.19 2.96451 2.05303 0
M  V30 3900 O 362.294 2.68221 3.13259 0
M  V30 3901 H 361.635 0.586275 0.311733 0
M  V30 3902 H 364.165 2.01342 0.363676 0
M  V30 3903 H 364.175 3.23887 2.48116 0
M  V30 3904 H 362.85 3.87196 1.51829 0
M  V30 3905 H 361.427 2.51744 2.75099 0
M  V30 3906 N 363.613 -0.582584 1.46437 0
M  V30 3907 C 364.861 -1.33814 1.51453 0
M  V30 3908 C 365.182 -1.94277 0.167792 0
M  V30 3909 O 364.452 -1.78566 -0.805677 0
M  V30 3910 H 363.032 -0.496838 0.557818 0
M  V30 3911 H 365.694 -0.682281 1.82568 0
M  V30 3912 H 364.79 -2.14479 2.26728 0
M  V30 3913 N 365.091 -1.34144 -0.827227 0
M  V30 3914 C 366.054 -1.25264 -1.91942 0
M  V30 3915 C 367.054 -0.168866 -1.59911 0
M  V30 3916 O 368.244 -0.421198 -1.69031 0
M  V30 3917 C 365.376 -0.932952 -3.27885 0
M  V30 3918 H 366.569 -2.22357 -2.0124 0
M  V30 3919 H 364.122 -1.1837 -1.0207 0
M  V30 3920 H 364.857 0.0349917 -3.24281 0
M  V30 3921 H 364.642 -1.71682 -3.52516 0
M  V30 3922 H 366.132 -0.895874 -4.07877 0
M  V30 3923 N 366.569 1.04691 -1.17803 0
M  V30 3924 C 367.797 1.81446 -0.99423 0
M  V30 3925 C 368.212 1.83174 0.457459 0
M  V30 3926 O 367.569 1.26265 1.31771 0
M  V30 3927 C 367.62 3.27334 -1.5341 0
M  V30 3928 O 367.341 3.25798 -2.92895 0
M  V30 3929 C 368.842 4.20759 -1.39559 0
M  V30 3930 H 366.062 0.571599 -0.351447 0
M  V30 3931 H 368.606 1.31982 -1.56208 0
M  V30 3932 H 366.761 3.74052 -1.00815 0
M  V30 3933 H 367.175 4.17144 -3.17949 0
M  V30 3934 H 368.649 5.21084 -1.82141 0
M  V30 3935 H 369.126 4.37856 -0.343394 0
M  V30 3936 H 369.732 3.79901 -1.91195 0
M  V30 3937 N 368.047 0.979072 1.23499 0
M  V30 3938 C 368.977 0.537606 2.27227 0
M  V30 3939 C 369.958 -0.428539 1.64613 0
M  V30 3940 O 371.143 -0.322191 1.91509 0
M  V30 3941 C 368.273 -0.162052 3.46922 0
M  V30 3942 C 367.227 0.721242 4.21879 0
M  V30 3943 C 366.553 -0.110555 5.34586 0
M  V30 3944 C 367.853 2.01141 4.82016 0
M  V30 3945 H 369.547 1.40462 2.64406 0
M  V30 3946 H 367.093 0.67684 1.27102 0
M  V30 3947 H 369.046 -0.482192 4.18632 0
M  V30 3948 H 367.77 -1.06351 3.08799 0
M  V30 3949 H 366.429 1.02482 3.51984 0
M  V30 3950 H 366.077 -1.0125 4.92704 0
M  V30 3951 H 365.777 0.477325 5.85658 0
M  V30 3952 H 367.301 -0.425107 6.09118 0
M  V30 3953 H 368.715 1.75612 5.45741 0
M  V30 3954 H 367.112 2.54695 5.43369 0
M  V30 3955 H 368.182 2.69909 4.02836 0
M  V30 3956 N 369.525 -1.3858 0.750561 0
M  V30 3957 C 370.802 -1.94231 0.231009 0
M  V30 3958 C 371.182 -1.68611 -1.27018 0
M  V30 3959 O 370.53 -1.02296 -2.04323 0
M  V30 3960 C 370.74 -3.44123 0.581428 0
M  V30 3961 C 372.088 -4.2116 0.539389 0
M  V30 3962 O 373.112 -3.52391 0.519541 0
M  V30 3963 O 371.971 -5.43749 0.54765 0
M  V30 3964 H 369.065 -0.825639 0.0474263 0
M  V30 3965 H 371.611 -1.4799 0.830478 0
M  V30 3966 H 370.383 -3.56267 1.61833 0
M  V30 3967 H 370.006 -3.97573 -0.0462047 0
M  V30 3968 N 371.003 -0.499398 -1.49478 0
M  V30 3969 C 371.913 0.284489 -2.32869 0
M  V30 3970 C 372.929 0.968885 -1.44529 0
M  V30 3971 O 374.105 0.95062 -1.77553 0
M  V30 3972 C 371.17 1.33594 -3.19928 0
M  V30 3973 C 370.231 0.665149 -4.24116 0
M  V30 3974 C 369.464 1.6665 -5.07014 0
M  V30 3975 O 369.687 2.89618 -4.91404 0
M  V30 3976 O 368.621 1.22271 -5.8935 0
M  V30 3977 H 372.447 -0.39802 -3.01081 0
M  V30 3978 H 370.032 -0.260758 -1.47107 0
M  V30 3979 H 371.914 1.94431 -3.73864 0
M  V30 3980 H 370.589 2.0014 -2.54412 0
M  V30 3981 H 369.496 0.0170769 -3.74096 0
M  V30 3982 H 370.829 0.0421555 -4.92182 0
M  V30 3983 N 372.481 1.55866 -0.233164 0
M  V30 3984 C 373.444 2.1953 0.658715 0
M  V30 3985 C 374.444 1.16053 1.11303 0
M  V30 3986 O 375.634 1.41218 1.01996 0
M  V30 3987 C 372.766 2.82791 1.90373 0
M  V30 3988 H 373.959 2.99721 0.10347 0
M  V30 3989 H 371.512 1.56291 0.0164245 0
M  V30 3990 H 372.247 2.06501 2.50056 0
M  V30 3991 H 372.032 3.58578 1.58632 0
M  V30 3992 H 373.522 3.31556 2.53891 0
M  V30 3993 N 373.959 -0.0401083 1.57549 0
M  V30 3994 C 374.869 -1.06133 2.0922 0
M  V30 3995 C 375.885 -1.40356 1.0284 0
M  V30 3996 O 377.061 -1.49897 1.34509 0
M  V30 3997 C 374.126 -2.34658 2.55218 0
M  V30 3998 C 373.187 -2.07117 3.76033 0
M  V30 3999 C 372.42 -3.29514 4.19829 0
M  V30 4000 O 372.643 -4.39794 3.63232 0
M  V30 4001 O 371.577 -3.15863 5.12362 0
M  V30 4002 H 375.403 -0.652244 2.96613 0
M  V30 4003 H 372.988 -0.256368 1.47184 0
M  V30 4004 H 374.87 -3.10239 2.85184 0
M  V30 4005 H 373.545 -2.74883 1.70941 0
M  V30 4006 H 372.452 -1.29139 3.51104 0
M  V30 4007 H 373.785 -1.71754 4.61261 0
M  V30 4008 N 375.437 -1.54477 -0.31217 0
M  V30 4009 C 376.853 -1.45442 -0.657185 0
M  V30 4010 C 377.053 -0.63653 -1.91182 0
M  V30 4011 O 376.109 -0.139815 -2.52113 0
M  V30 4012 C 377.422 -2.89287 -0.82058 0
M  V30 4013 C 378.97 -2.9926 -0.917188 0
M  V30 4014 C 379.445 -4.44279 -1.11267 0
M  V30 4015 N 380.936 -4.4794 -1.17914 0
M  V30 4016 C 381.671 -5.57318 -1.34848 0
M  V30 4017 N 381.167 -6.76642 -1.48752 0
M  V30 4018 N 382.96 -5.44986 -1.37647 0
M  V30 4019 H 375.111 -2.06129 0.512313 0
M  V30 4020 H 377.374 -0.933088 0.167485 0
M  V30 4021 H 377.08 -3.51687 0.0302604 0
M  V30 4022 H 376.954 -3.36061 -1.71298 0
M  V30 4023 H 379.341 -2.36981 -1.75852 0
M  V30 4024 H 379.422 -2.558 -0.00101257 0
M  V30 4025 H 379.066 -5.07149 -0.27614 0
M  V30 4026 H 378.996 -4.85359 -2.04289 0
M  V30 4027 H 381.487 -3.61969 -1.08567 0
M  V30 4028 H 381.8 -7.55758 -1.61397 0
M  V30 4029 H 380.145 -6.79529 -1.45828 0
M  V30 4030 H 383.336 -4.50715 -1.26388 0
M  V30 4031 H 383.509 -6.3028 -1.50501 0
M  V30 4032 N 376.915 0.57481 -1.46744 0
M  V30 4033 C 377.845 1.69337 -1.60771 0
M  V30 4034 C 378.826 1.63825 -0.457736 0
M  V30 4035 O 380.011 1.8172 -0.684947 0
M  V30 4036 C 377.141 3.0798 -1.60517 0
M  V30 4037 C 376.095 3.28327 -2.74564 0
M  V30 4038 C 375.421 4.67578 -2.59373 0
M  V30 4039 C 376.721 3.15398 -4.16319 0
M  V30 4040 H 378.415 1.57853 -2.54407 0
M  V30 4041 H 375.961 0.75799 -1.22436 0
M  V30 4042 H 377.914 3.86061 -1.68923 0
M  V30 4043 H 376.638 3.20381 -0.634305 0
M  V30 4044 H 375.297 2.52649 -2.65639 0
M  V30 4045 H 374.945 4.76755 -1.60353 0
M  V30 4046 H 374.645 4.82144 -3.35873 0
M  V30 4047 H 376.169 5.47817 -2.69682 0
M  V30 4048 H 377.583 3.83315 -4.26313 0
M  V30 4049 H 375.98 3.41482 -4.93468 0
M  V30 4050 H 377.05 2.12372 -4.3592 0
M  V30 4051 N 378.394 1.34581 0.820102 0
M  V30 4052 C 379.622 1.3018 1.60813 0
M  V30 4053 C 380.037 -0.123551 1.88395 0
M  V30 4054 O 379.394 -1.07148 1.47735 0
M  V30 4055 C 379.445 2.09312 2.94739 0
M  V30 4056 O 379.166 3.46288 2.68358 0
M  V30 4057 C 380.667 2.1234 3.89136 0
M  V30 4058 H 377.887 0.447726 0.499782 0
M  V30 4059 H 380.431 1.77237 1.02017 0
M  V30 4060 H 378.586 1.65889 3.50085 0
M  V30 4061 H 379 3.87227 3.53774 0
M  V30 4062 H 380.474 2.72126 4.80262 0
M  V30 4063 H 380.951 1.11854 4.24718 0
M  V30 4064 H 381.557 2.55864 3.39726 0
M  V30 4065 N 379.872 -1.04064 1.18357 0
M  V30 4066 C 380.782 -2.15569 0.925596 0
M  V30 4067 C 381.798 -1.7365 -0.110295 0
M  V30 4068 O 382.974 -2.01273 0.0716218 0
M  V30 4069 C 380.039 -3.43704 0.454836 0
M  V30 4070 C 379.1 -4.00004 1.55869 0
M  V30 4071 C 378.333 -5.22023 1.1103 0
M  V30 4072 O 378.556 -5.70392 -0.0309756 0
M  V30 4073 O 377.49 -5.70856 1.90805 0
M  V30 4074 H 381.316 -2.40187 1.8586 0
M  V30 4075 H 378.901 -1.1402 0.965394 0
M  V30 4076 H 380.783 -4.20923 0.200382 0
M  V30 4077 H 379.458 -3.20559 -0.449876 0
M  V30 4078 H 378.365 -3.24172 1.86716 0
M  V30 4079 H 379.698 -4.2749 2.43953 0
M  V30 4080 N 381.35 -0.985608 -1.22978 0
M  V30 4081 C 382.26 -0.538548 -2.28335 0
M  V30 4082 C 383.276 0.409163 -1.69121 0
M  V30 4083 O 384.452 0.277797 -1.99475 0
M  V30 4084 C 381.517 0.146867 -3.46389 0
M  V30 4085 C 380.578 -0.842896 -4.20944 0
M  V30 4086 C 379.811 -0.190095 -5.33361 0
M  V30 4087 O 380.034 1.01767 -5.61248 0
M  V30 4088 O 378.968 -0.891289 -5.95264 0
M  V30 4089 H 382.794 -1.41487 -2.68729 0
M  V30 4090 H 380.379 -0.753495 -1.29007 0
M  V30 4091 H 382.261 0.531125 -4.1804 0
M  V30 4092 H 380.936 0.997871 -3.07935 0
M  V30 4093 H 379.843 -1.27795 -3.51595 0
M  V30 4094 H 381.176 -1.66287 -4.6326 0
M  V30 4095 N 382.828 1.3818 -0.7579 0
M  V30 4096 C 383.738 2.3421 -0.135247 0
M  V30 4097 C 384.754 1.59487 0.695683 0
M  V30 4098 O 385.93 1.91657 0.618832 0
M  V30 4099 C 382.995 3.3862 0.744139 0
M  V30 4100 C 382.056 4.2918 -0.101658 0
M  V30 4101 C 381.289 5.28603 0.735851 0
M  V30 4102 O 381.512 5.35166 1.97366 0
M  V30 4103 O 380.446 6.01707 0.152372 0
M  V30 4104 H 384.272 2.8916 -0.928436 0
M  V30 4105 H 381.857 1.40101 -0.518855 0
M  V30 4106 H 383.739 4.02539 1.2466 0
M  V30 4107 H 382.414 2.86019 1.51575 0
M  V30 4108 H 381.321 3.68407 -0.650167 0
M  V30 4109 H 382.654 4.85048 -0.836024 0
M  V30 4110 N 384.306 0.507319 1.49211 0
M  V30 4111 C 385.236 -0.256939 2.32082 0
M  V30 4112 C 386.217 -0.956609 1.40652 0
M  V30 4113 O 387.402 -0.946788 1.69557 0
M  V30 4114 C 384.532 -1.31802 3.21318 0
M  V30 4115 C 383.486 -0.737855 4.21592 0
M  V30 4116 C 382.812 -1.89992 4.99807 0
M  V30 4117 C 384.112 0.275325 5.21574 0
M  V30 4118 H 385.806 0.434798 2.96226 0
M  V30 4119 H 383.352 0.210546 1.42452 0
M  V30 4120 H 385.305 -1.86045 3.78107 0
M  V30 4121 H 384.029 -2.03903 2.5513 0
M  V30 4122 H 382.688 -0.217126 3.65956 0
M  V30 4123 H 382.336 -2.60877 4.30061 0
M  V30 4124 H 382.036 -1.51777 5.6766 0
M  V30 4125 H 383.56 -2.44657 5.59442 0
M  V30 4126 H 384.974 -0.179193 5.7302 0
M  V30 4127 H 383.371 0.573649 5.97352 0
M  V30 4128 H 384.441 1.18903 4.70096 0
M  V30 4129 N 385.784 -1.5574 0.241426 0
M  V30 4130 C 387.2 -1.59196 -0.113548 0
M  V30 4131 C 387.4 -1.25852 -1.57364 0
M  V30 4132 O 386.456 -1.00322 -2.31715 0
M  V30 4133 C 387.769 -2.99814 0.230695 0
M  V30 4134 C 389.317 -3.12513 0.174547 0
M  V30 4135 C 389.792 -4.55342 0.492744 0
M  V30 4136 N 391.283 -4.61076 0.443043 0
M  V30 4137 C 392.018 -5.6956 0.662484 0
M  V30 4138 N 391.514 -6.86328 0.944761 0
M  V30 4139 N 393.307 -5.58957 0.593564 0
M  V30 4140 H 385.458 -1.75685 1.19368 0
M  V30 4141 H 387.721 -0.81756 0.479896 0
M  V30 4142 H 387.427 -3.28932 1.24485 0
M  V30 4143 H 387.301 -3.74568 -0.444833 0
M  V30 4144 H 389.688 -2.83179 -0.830277 0
M  V30 4145 H 389.769 -2.40045 0.883845 0
M  V30 4146 H 389.413 -4.85396 1.4951 0
M  V30 4147 H 389.343 -5.26062 -0.23797 0
M  V30 4148 H 391.834 -3.77179 0.233374 0
M  V30 4149 H 392.147 -7.64935 1.09977 0
M  V30 4150 H 390.492 -6.88025 0.982175 0
M  V30 4151 H 393.683 -4.66611 0.373123 0
M  V30 4152 H 393.856 -6.43433 0.767981 0
M  V30 4153 N 387.262 0.0317525 -1.57568 0
M  V30 4154 C 388.225 1.01783 -2.0536 0
M  V30 4155 C 389.225 1.29203 -0.957253 0
M  V30 4156 O 390.415 1.24251 -1.22095 0
M  V30 4157 C 387.547 2.35137 -2.46827 0
M  V30 4158 H 388.74 0.605062 -2.93733 0
M  V30 4159 H 386.293 0.278514 -1.53799 0
M  V30 4160 H 387.028 2.81168 -1.61602 0
M  V30 4161 H 386.813 2.16566 -3.26866 0
M  V30 4162 H 388.303 3.05938 -2.84239 0
M  V30 4163 N 388.74 1.54641 0.303973 0
M  V30 4164 C 389.989 1.7299 1.03717 0
M  V30 4165 C 390.302 0.521168 1.88529 0
M  V30 4166 O 391.508 0.586408 2.65092 0
M  V30 4167 C 389.964 3.06051 1.89369 0
M  V30 4168 C 389.572 4.34393 1.09574 0
M  V30 4169 C 391.316 3.3376 2.62306 0
M  V30 4170 C 389.223 5.58506 1.94486 0
M  V30 4171 H 388.153 0.64473 0.390947 0
M  V30 4172 H 390.804 1.81124 0.294328 0
M  V30 4173 H 389.186 2.91874 2.67629 0
M  V30 4174 H 390.36 4.59396 0.359485 0
M  V30 4175 H 388.675 4.13597 0.482324 0
M  V30 4176 H 391.272 4.23687 3.26181 0
M  V30 4177 H 391.615 2.52503 3.3098 0
M  V30 4178 H 392.148 3.48894 1.91097 0
M  V30 4179 H 388.887 6.42422 1.30287 0
M  V30 4180 H 388.407 5.37694 2.65792 0
M  V30 4181 H 390.086 5.95651 2.52605 0
M  V30 4182 N 390.218 -0.567019 1.47046 0
M  V30 4183 C 391.181 -1.65696 1.58359 0
M  V30 4184 C 392.181 -1.54097 0.459441 0
M  V30 4185 O 393.371 -1.58432 0.724225 0
M  V30 4186 C 390.503 -3.05197 1.51879 0
M  V30 4187 H 391.696 -1.57019 2.5551 0
M  V30 4188 H 389.249 -0.786148 1.3509 0
M  V30 4189 H 389.984 -3.19417 0.560673 0
M  V30 4190 H 389.769 -3.15025 2.33455 0
M  V30 4191 H 391.259 -3.84511 1.62913 0
M  V30 4192 N 391.696 -1.35014 -0.812953 0
M  V30 4193 C 392.628 -1.23262 -1.93233 0
M  V30 4194 C 393.641 -0.157371 -1.62038 0
M  V30 4195 O 394.83 -0.410096 -1.73725 0
M  V30 4196 C 391.93 -0.87392 -3.27438 0
M  V30 4197 C 391.103 -2.04622 -3.86586 0
M  V30 4198 C 390.162 -1.66432 -4.99186 0
M  V30 4199 O 389.188 -2.38222 -5.16951 0
M  V30 4200 N 390.39 -0.584248 -5.77552 0
M  V30 4201 H 393.155 -2.19699 -2.03844 0
M  V30 4202 H 390.716 -1.281 -0.99005 0
M  V30 4203 H 392.708 -0.600039 -4.00227 0
M  V30 4204 H 391.278 0.00057392 -3.126 0
M  V30 4205 H 390.498 -2.48427 -3.06068 0
M  V30 4206 H 391.786 -2.82999 -4.22835 0
M  V30 4207 H 391.184 0.0123526 -5.65699 0
M  V30 4208 H 389.741 -0.37013 -6.50748 0
M  V30 4209 N 393.175 1.03435 -1.18907 0
M  V30 4210 C 394.138 2.09756 -0.923844 0
M  V30 4211 C 395.138 1.60528 0.093416 0
M  V30 4212 O 396.328 1.73631 -0.140727 0
M  V30 4213 C 393.46 3.38692 -0.387354 0
M  V30 4214 H 394.653 2.34719 -1.86674 0
M  V30 4215 H 392.206 1.19959 -1.00197 0
M  V30 4216 H 392.941 3.19396 0.561845 0
M  V30 4217 H 392.726 3.75742 -1.12074 0
M  V30 4218 H 394.216 4.17016 -0.220694 0
M  V30 4219 N 394.653 0.992116 1.22453 0
M  V30 4220 C 396.064 0.702776 1.72968 0
M  V30 4221 C 396.415 -0.780399 1.80012 0
M  V30 4222 O 395.54 -1.61007 1.44589 0
M  V30 4223 C 396.135 1.26903 3.14135 0
M  V30 4224 C 394.694 1.02909 3.62059 0
M  V30 4225 C 393.841 1.38969 2.39964 0
M  V30 4226 H 396.792 1.16457 1.07812 0
M  V30 4227 H 396.813 0.647223 3.74955 0
M  V30 4228 H 396.325 2.34851 3.08977 0
M  V30 4229 H 394.426 -0.0337979 3.72585 0
M  V30 4230 H 394.539 1.69191 4.48231 0
M  V30 4231 H 392.903 0.808279 2.41535 0
M  V30 4232 H 393.686 2.4792 2.37467 0
M  V30 4233 N 396.131 -1.37776 0.765217 0
M  V30 4234 C 397.542 -1.82521 0.392819 0
M  V30 4235 C 397.893 -1.63789 -1.08017 0
M  V30 4236 O 397.018 -1.14542 -1.83601 0
M  V30 4237 C 397.613 -3.31358 0.706214 0
M  V30 4238 C 396.172 -3.74406 0.386952 0
M  V30 4239 C 395.319 -2.60394 0.953422 0
M  V30 4240 H 398.27 -1.2634 0.960412 0
M  V30 4241 H 398.291 -3.80498 -0.0114706 0
M  V30 4242 H 397.803 -3.44959 1.77833 0
M  V30 4243 H 395.904 -3.66377 -0.678112 0
M  V30 4244 H 396.017 -4.70749 0.890636 0
M  V30 4245 H 394.381 -2.51878 0.378064 0
M  V30 4246 H 395.164 -2.76791 2.03081 0
M  V30 4247 N 397.609 -0.515225 -1.4894 0
M  V30 4248 C 399.02 -0.0710067 -1.86565 0
M  V30 4249 C 399.371 1.34733 -1.42623 0
M  V30 4250 O 398.496 2.00653 -0.810379 0
M  V30 4251 C 399.091 -0.122083 -3.3858 0
M  V30 4252 C 397.65 0.266863 -3.75453 0
M  V30 4253 C 396.797 -0.488376 -2.72966 0
M  V30 4254 H 399.748 -0.727266 -1.41055 0
M  V30 4255 H 399.769 0.669818 -3.74558 0
M  V30 4256 H 399.281 -1.15448 -3.70531 0
M  V30 4257 H 397.382 1.30196 -3.49113 0
M  V30 4258 H 397.495 -0.0624811 -4.79059 0
M  V30 4259 H 395.859 0.0635622 -2.54621 0
M  V30 4260 H 396.642 -1.52113 -3.07761 0
M  V30 4261 N 399.087 1.5561 -0.249682 0
M  V30 4262 C 400.498 1.84979 0.252949 0
M  V30 4263 C 400.849 1.17153 1.57384 0
M  V30 4264 O 399.974 0.450884 2.11651 0
M  V30 4265 C 400.569 3.35584 0.465732 0
M  V30 4266 C 399.128 3.65169 0.912624 0
M  V30 4267 C 398.275 2.77299 -0.00859085 0
M  V30 4268 H 401.226 1.51513 -0.47217 0
M  V30 4269 H 401.247 3.57313 1.30795 0
M  V30 4270 H 400.759 3.8492 -0.49579 0
M  V30 4271 H 398.86 3.21312 1.88652 0
M  V30 4272 H 398.973 4.72912 0.767559 0
M  V30 4273 H 397.337 2.49678 0.50327 0
M  V30 4274 H 398.12 3.29442 -0.965537 0
M  V30 4275 N 400.565 -0.0233959 1.57583 0
M  V30 4276 C 401.528 -1.00693 2.05897 0
M  V30 4277 C 402.528 -1.28693 0.964092 0
M  V30 4278 O 403.718 -1.23602 1.22753 0
M  V30 4279 C 400.85 -2.33825 2.4807 0
M  V30 4280 H 402.043 -0.589476 2.9405 0
M  V30 4281 H 399.596 -0.270354 1.53944 0
M  V30 4282 H 400.331 -2.80307 1.6309 0
M  V30 4283 H 400.116 -2.1483 3.2801 0
M  V30 4284 H 401.606 -3.04426 2.85857 0
M  V30 4285 N 402.043 -1.548 -0.295768 0
M  V30 4286 C 403.271 -1.78327 -1.04914 0
M  V30 4287 C 403.686 -0.545316 -1.80753 0
M  V30 4288 O 403.043 0.485013 -1.75937 0
M  V30 4289 C 403.094 -2.99418 -2.02561 0
M  V30 4290 O 402.815 -4.18431 -1.29798 0
M  V30 4291 C 404.316 -3.35375 -2.89895 0
M  V30 4292 H 401.536 -0.594618 -0.310918 0
M  V30 4293 H 404.08 -2.01763 -0.333454 0
M  V30 4294 H 402.235 -2.78175 -2.69624 0
M  V30 4295 H 402.649 -4.86736 -1.95419 0
M  V30 4296 H 404.123 -4.23332 -3.54251 0
M  V30 4297 H 404.6 -2.53761 -3.58472 0
M  V30 4298 H 405.206 -3.58796 -2.28355 0
M  V30 4299 N 403.521 0.559213 -1.47345 0
M  V30 4300 C 404.484 1.64854 -1.59235 0
M  V30 4301 C 405.484 1.53851 -0.467607 0
M  V30 4302 O 406.674 1.58045 -0.732617 0
M  V30 4303 C 403.806 3.04388 -1.53496 0
M  V30 4304 H 404.999 1.55662 -2.56339 0
M  V30 4305 H 402.552 0.778973 -1.35505 0
M  V30 4306 H 403.287 3.19115 -0.577604 0
M  V30 4307 H 403.072 3.13783 -2.35123 0
M  V30 4308 H 404.562 3.83642 -1.6495 0
M  V30 4309 N 404.999 1.35443 0.805782 0
M  V30 4310 C 405.962 1.28301 1.89925 0
M  V30 4311 C 406.962 0.194285 1.59622 0
M  V30 4312 O 408.152 0.448036 1.6834 0
M  V30 4313 C 405.284 0.984997 3.2636 0
M  V30 4314 H 406.477 2.2553 1.97677 0
M  V30 4315 H 404.03 1.19979 1.00173 0
M  V30 4316 H 404.765 0.016603 3.24296 0
M  V30 4317 H 404.55 1.77269 3.4974 0
M  V30 4318 H 406.04 0.960651 4.064 0
M  V30 4319 N 406.477 -1.02803 1.19454 0
M  V30 4320 C 407.44 -2.09264 0.934955 0
M  V30 4321 C 408.44 -1.60576 -0.0849015 0
M  V30 4322 O 409.63 -1.73554 0.149933 0
M  V30 4323 C 406.762 -3.38482 0.40531 0
M  V30 4324 H 407.955 -2.33726 1.87916 0
M  V30 4325 H 405.508 -1.19426 1.00832 0
M  V30 4326 H 406.243 -3.19689 -0.544899 0
M  V30 4327 H 406.028 -3.75142 1.14065 0
M  V30 4328 H 407.518 -4.16894 0.242806 0
M  V30 4329 N 407.956 -0.998596 -1.21925 0
M  V30 4330 C 409.204 -0.676325 -1.90448 0
M  V30 4331 C 409.525 0.794719 -1.78071 0
M  V30 4332 O 408.795 1.5701 -1.17152 0
M  V30 4333 H 407.375 -0.247165 -0.704925 0
M  V30 4334 H 410.037 -1.26633 -1.48156 0
M  V30 4335 H 409.133 -0.943858 -2.97486 0
M  V30 4336 N 409.434 1.37368 -0.772513 0
M  V30 4337 C 410.664 2.03647 -0.348082 0
M  V30 4338 C 411.072 1.58392 1.03482 0
M  V30 4339 O 410.415 0.760921 1.672 0
M  V30 4340 C 410.477 3.58131 -0.313404 0
M  V30 4341 C 410.141 4.2652 -1.64102 0
M  V30 4342 C 411.138 4.50587 -2.5936 0
M  V30 4343 C 408.823 4.64335 -1.91567 0
M  V30 4344 C 410.817 5.11526 -3.80289 0
M  V30 4345 C 408.504 5.24996 -3.12766 0
M  V30 4346 C 409.502 5.48529 -4.06946 0
M  V30 4347 O 409.19 6.07921 -5.26011 0
M  V30 4348 H 408.922 0.660538 -0.143753 0
M  V30 4349 H 411.476 1.76669 -1.04772 0
M  V30 4350 H 409.706 3.84159 0.442617 0
M  V30 4351 H 411.395 4.05813 0.0840613 0
M  V30 4352 H 412.161 4.21784 -2.39423 0
M  V30 4353 H 408.04 4.45353 -1.19088 0
M  V30 4354 H 411.584 5.29811 -4.53813 0
M  V30 4355 H 407.481 5.53223 -3.32588 0
M  V30 4356 H 408.249 6.26398 -5.26847 0
M  V30 4357 N 410.912 0.523116 1.48665 0
M  V30 4358 C 411.875 -0.232592 2.28017 0
M  V30 4359 C 412.875 -0.874021 1.34972 0
M  V30 4360 O 414.065 -0.735132 1.57929 0
M  V30 4361 C 411.197 -1.33586 3.13636 0
M  V30 4362 H 412.39 0.464008 2.96289 0
M  V30 4363 H 409.943 0.278816 1.53793 0
M  V30 4364 H 410.678 -2.06593 2.4998 0
M  V30 4365 H 410.463 -0.881125 3.82071 0
M  V30 4366 H 411.953 -1.86759 3.73511 0
M  V30 4367 N 412.39 -1.55475 0.257931 0
M  V30 4368 C 413.638 -1.98813 -0.363009 0
M  V30 4369 C 413.959 -1.14757 -1.57657 0
M  V30 4370 O 413.229 -0.232956 -1.9451 0
M  V30 4371 H 411.809 -0.734308 -0.137113 0
M  V30 4372 H 414.471 -1.9156 0.359281 0
M  V30 4373 H 413.567 -3.04941 -0.664634 0
M  V30 4374 N 413.868 0.0150385 -1.57593 0
M  V30 4375 C 415.108 0.70768 -1.91758 0
M  V30 4376 C 415.472 1.71764 -0.857974 0
M  V30 4377 O 416.673 2.45956 -1.0844 0
M  V30 4378 C 414.944 1.34736 -3.3103 0
M  V30 4379 S 416.503 2.06721 -3.87056 0
M  V30 4380 H 413.321 0.234119 -0.671349 0
M  V30 4381 H 415.923 -0.0380373 -1.95463 0
M  V30 4382 H 414.627 0.59926 -4.06001 0
M  V30 4383 H 414.158 2.13133 -3.30663 0
M  V30 4384 H 416.173 3.34047 -3.66915 0
M  V30 4385 N 415.346 1.54954 0.287554 0
M  V30 4386 C 416.762 1.46469 0.633964 0
M  V30 4387 C 416.962 0.666865 1.90145 0
M  V30 4388 O 416.018 0.179906 2.51858 0
M  V30 4389 C 417.331 2.90556 0.774454 0
M  V30 4390 C 418.879 3.00681 0.869462 0
M  V30 4391 C 419.354 4.45993 1.04184 0
M  V30 4392 N 420.845 4.4976 1.10772 0
M  V30 4393 C 421.58 5.59393 1.25964 0
M  V30 4394 N 421.076 6.78923 1.37968 0
M  V30 4395 N 422.869 5.47107 1.28959 0
M  V30 4396 H 415.02 2.05288 -0.545041 0
M  V30 4397 H 417.283 0.930305 -0.182308 0
M  V30 4398 H 416.989 3.51594 -0.086207 0
M  V30 4399 H 416.863 3.38743 1.6593 0
M  V30 4400 H 419.25 2.39749 1.7206 0
M  V30 4401 H 419.331 2.55769 -0.0396831 0
M  V30 4402 H 418.975 5.07524 0.195422 0
M  V30 4403 H 418.905 4.88548 1.96542 0
M  V30 4404 H 421.396 3.63651 1.02794 0
M  V30 4405 H 421.709 7.58231 1.49353 0
M  V30 4406 H 420.054 6.81763 1.34999 0
M  V30 4407 H 423.245 4.52668 1.19202 0
M  V30 4408 H 423.418 6.32595 1.40455 0
M  V30 4409 N 416.824 -0.551391 1.4764 0
M  V30 4410 C 418.07 -1.31024 1.54792 0
M  V30 4411 C 418.403 -1.9304 0.211967 0
M  V30 4412 O 417.678 -1.78175 -0.77999 0
M  V30 4413 C 417.961 -2.41593 2.67029 0
M  V30 4414 C 417.814 -1.84408 4.10261 0
M  V30 4415 C 419.133 -3.43488 2.75143 0
M  V30 4416 H 416.252 -0.475031 0.563485 0
M  V30 4417 H 418.894 -0.616454 1.79722 0
M  V30 4418 H 417.044 -3.00772 2.45904 0
M  V30 4419 H 418.716 -1.29445 4.42766 0
M  V30 4420 H 416.959 -1.15051 4.18265 0
M  V30 4421 H 417.63 -2.64367 4.84576 0
M  V30 4422 H 420.106 -2.94236 2.94218 0
M  V30 4423 H 418.982 -4.18274 3.55441 0
M  V30 4424 H 419.243 -4.02703 1.82435 0
M  V30 4425 N 418.302 -1.35869 -0.798587 0
M  V30 4426 C 419.265 -1.29307 -1.89242 0
M  V30 4427 C 420.265 -0.202747 -1.59517 0
M  V30 4428 O 421.455 -0.456957 -1.681 0
M  V30 4429 C 418.587 -1.00229 -3.25833 0
M  V30 4430 H 419.78 -2.26576 -1.96478 0
M  V30 4431 H 417.333 -1.20509 -0.995358 0
M  V30 4432 H 418.068 -0.033801 -3.24282 0
M  V30 4433 H 417.853 -1.79121 -3.48795 0
M  V30 4434 H 419.343 -0.98219 -4.05885 0
M  V30 4435 N 419.78 1.02168 -1.19998 0
M  V30 4436 C 421.026 1.75945 -1.00852 0
M  V30 4437 C 421.359 1.88702 0.458828 0
M  V30 4438 O 420.634 1.40911 1.34069 0
M  V30 4439 C 420.917 3.18154 -1.68671 0
M  V30 4440 C 420.77 3.13224 -3.22817 0
M  V30 4441 C 422.089 4.16711 -1.41561 0
M  V30 4442 H 419.208 0.638673 -0.367785 0
M  V30 4443 H 421.85 1.19222 -1.4794 0
M  V30 4444 H 420 3.66586 -1.28636 0
M  V30 4445 H 421.672 2.72635 -3.72112 0
M  V30 4446 H 419.915 2.50751 -3.53986 0
M  V30 4447 H 420.586 4.13728 -3.65422 0
M  V30 4448 H 423.062 3.76913 -1.76284 0
M  V30 4449 H 421.938 5.14391 -1.91553 0
M  V30 4450 H 422.199 4.40774 -0.342193 0
M  V30 4451 N 421.258 1.00505 1.21394 0
M  V30 4452 C 422.486 0.706609 1.9446 0
M  V30 4453 C 422.901 -0.73081 1.74082 0
M  V30 4454 O 422.258 -1.49446 1.04747 0
M  V30 4455 C 422.309 1.01824 3.46863 0
M  V30 4456 O 422.03 2.39919 3.66566 0
M  V30 4457 C 423.531 0.739216 4.37093 0
M  V30 4458 H 420.751 0.260394 0.618414 0
M  V30 4459 H 423.295 1.34311 1.54211 0
M  V30 4460 H 421.45 0.427343 3.85036 0
M  V30 4461 H 421.864 2.50784 4.6066 0
M  V30 4462 H 423.338 1.00744 5.42729 0
M  V30 4463 H 423.815 -0.326746 4.37983 0
M  V30 4464 H 424.421 1.31173 4.04566 0
M  V30 4465 N 422.737 -1.36956 0.779787 0
M  V30 4466 C 423.984 -1.99491 0.347766 0
M  V30 4467 C 424.312 -1.61898 -1.07793 0
M  V30 4468 O 423.567 -0.86071 -1.75756 0
M  V30 4469 C 423.866 -3.54585 0.447686 0
M  V30 4470 C 423.532 -4.1197 1.83279 0
M  V30 4471 C 422.194 -4.27356 2.2118 0
M  V30 4472 C 424.546 -4.43354 2.74019 0
M  V30 4473 C 421.874 -4.71432 3.4924 0
M  V30 4474 C 424.226 -4.88858 4.01497 0
M  V30 4475 C 422.89 -5.0245 4.39432 0
M  V30 4476 H 422.16 -0.729991 0.127257 0
M  V30 4477 H 424.807 -1.63599 0.995376 0
M  V30 4478 H 423.112 -3.90773 -0.283447 0
M  V30 4479 H 424.809 -4.00888 0.0945948 0
M  V30 4480 H 421.399 -4.00428 1.52825 0
M  V30 4481 H 425.583 -4.31045 2.45995 0
M  V30 4482 H 420.839 -4.80141 3.78516 0
M  V30 4483 H 425.013 -5.12108 4.71931 0
M  V30 4484 H 422.64 -5.36362 5.38721 0
M  V30 4485 N 424.215 -0.530993 -1.48385 0
M  V30 4486 C 425.462 0.0027373 -2.025 0
M  V30 4487 C 425.79 1.34186 -1.40799 0
M  V30 4488 O 425.045 1.88 -0.543544 0
M  V30 4489 C 425.344 0.172742 -3.56982 0
M  V30 4490 C 425.01 -1.09215 -4.37473 0
M  V30 4491 C 423.672 -1.43881 -4.59186 0
M  V30 4492 C 426.024 -1.93153 -4.84088 0
M  V30 4493 C 423.352 -2.62381 -5.2476 0
M  V30 4494 C 425.704 -3.10833 -5.50968 0
M  V30 4495 C 424.368 -3.45843 -5.70919 0
M  V30 4496 H 423.638 0.00100165 -0.740999 0
M  V30 4497 H 426.285 -0.697219 -1.78357 0
M  V30 4498 H 424.59 0.955473 -3.79971 0
M  V30 4499 H 426.287 0.600642 -3.96476 0
M  V30 4500 H 422.877 -0.812177 -4.20834 0
M  V30 4501 H 427.061 -1.67683 -4.67115 0
M  V30 4502 H 422.317 -2.89707 -5.38405 0
M  V30 4503 H 426.491 -3.7618 -5.86056 0
M  V30 4504 H 424.118 -4.37764 -6.21503 0
M  V30 4505 N 425.693 1.55336 -0.266172 0
M  V30 4506 C 426.623 2.25146 0.618981 0
M  V30 4507 C 427.604 1.23845 1.16604 0
M  V30 4508 O 428.789 1.52544 1.20183 0
M  V30 4509 C 425.919 2.96572 1.80728 0
M  V30 4510 C 424.873 4.04726 1.39215 0
M  V30 4511 C 424.199 4.63678 2.66283 0
M  V30 4512 C 425.499 5.19407 0.548942 0
M  V30 4513 H 427.193 2.99377 0.0368116 0
M  V30 4514 H 424.739 1.43991 0.0162651 0
M  V30 4515 H 426.692 3.44116 2.43232 0
M  V30 4516 H 425.416 2.19861 2.41514 0
M  V30 4517 H 424.075 3.57979 0.790351 0
M  V30 4518 H 423.723 3.83646 3.25308 0
M  V30 4519 H 423.423 5.367 2.39222 0
M  V30 4520 H 424.947 5.13967 3.29651 0
M  V30 4521 H 426.361 5.63059 1.07876 0
M  V30 4522 H 424.758 5.98936 0.373593 0
M  V30 4523 H 425.828 4.8295 -0.434394 0
M  V30 4524 N 427.171 -0.0066808 1.57599 0
M  V30 4525 C 428.401 -0.703066 1.94269 0
M  V30 4526 C 428.809 -1.68206 0.866222 0
M  V30 4527 O 428.152 -1.82966 -0.164087 0
M  V30 4528 C 428.214 -1.49616 3.26887 0
M  V30 4529 C 427.878 -0.679494 4.5192 0
M  V30 4530 C 428.875 0.0299508 5.19891 0
M  V30 4531 C 426.56 -0.627433 4.98366 0
M  V30 4532 C 428.554 0.780514 6.32603 0
M  V30 4533 C 426.241 0.126861 6.10968 0
M  V30 4534 C 427.239 0.829574 6.77943 0
M  V30 4535 O 426.927 1.57157 7.88389 0
M  V30 4536 H 426.659 -0.201217 0.645359 0
M  V30 4537 H 429.213 0.0385326 2.05364 0
M  V30 4538 H 427.443 -2.28209 3.12182 0
M  V30 4539 H 429.132 -2.07726 3.48719 0
M  V30 4540 H 429.898 -0.00115963 4.85 0
M  V30 4541 H 425.777 -1.16392 4.46065 0
M  V30 4542 H 429.321 1.32954 6.84813 0
M  V30 4543 H 425.218 0.159815 6.45302 0
M  V30 4544 H 425.986 1.48758 8.04868 0
M  V30 4545 N 428.649 -1.55105 -0.279332 0
M  V30 4546 C 429.896 -1.75412 -1.01177 0
M  V30 4547 C 430.224 -0.551728 -1.86511 0
M  V30 4548 O 429.479 0.465919 -1.90073 0
M  V30 4549 C 429.778 -3.0086 -1.92919 0
M  V30 4550 C 429.444 -4.33689 -1.23387 0
M  V30 4551 C 428.106 -4.69792 -1.04159 0
M  V30 4552 C 430.458 -5.15941 -0.738562 0
M  V30 4553 C 427.786 -5.85707 -0.341166 0
M  V30 4554 C 430.138 -6.32579 -0.0517636 0
M  V30 4555 C 428.802 -6.67326 0.152292 0
M  V30 4556 H 428.072 -0.641879 -0.370233 0
M  V30 4557 H 430.719 -1.89373 -0.284627 0
M  V30 4558 H 429.024 -2.81773 -2.72234 0
M  V30 4559 H 430.721 -3.13768 -2.49701 0
M  V30 4560 H 427.311 -4.05309 -1.39364 0
M  V30 4561 H 431.495 -4.8853 -0.874764 0
M  V30 4562 H 426.751 -6.11157 -0.172287 0
M  V30 4563 H 430.925 -6.9557 0.339828 0
M  V30 4564 H 428.552 -7.56998 0.697014 0
M  V30 4565 N 430.127 0.543554 -1.4793 0
M  V30 4566 C 431.057 1.65888 -1.64327 0
M  V30 4567 C 432.038 1.62818 -0.492383 0
M  V30 4568 O 433.223 1.80226 -0.723338 0
M  V30 4569 C 430.353 3.04506 -1.67013 0
M  V30 4570 C 429.307 3.2243 -2.81466 0
M  V30 4571 C 428.633 4.61972 -2.69233 0
M  V30 4572 C 429.933 3.06496 -4.22915 0
M  V30 4573 H 431.627 1.52421 -2.57698 0
M  V30 4574 H 429.173 0.731849 -1.24016 0
M  V30 4575 H 431.126 3.82391 -1.77074 0
M  V30 4576 H 429.85 3.18964 -0.70212 0
M  V30 4577 H 428.509 2.46957 -2.70938 0
M  V30 4578 H 428.157 4.73247 -1.7043 0
M  V30 4579 H 427.857 4.74911 -3.46025 0
M  V30 4580 H 429.381 5.41974 -2.81242 0
M  V30 4581 H 430.795 3.74186 -4.34348 0
M  V30 4582 H 429.192 3.30938 -5.006 0
M  V30 4583 H 430.262 2.03077 -4.40327 0
M  V30 4584 N 431.605 1.3629 0.791371 0
M  V30 4585 C 432.568 1.30309 1.88553 0
M  V30 4586 C 433.568 0.211204 1.59407 0
M  V30 4587 O 434.758 0.465865 1.67855 0
M  V30 4588 C 431.89 1.01956 3.25297 0
M  V30 4589 H 433.083 2.27614 1.95273 0
M  V30 4590 H 430.636 1.21035 0.988953 0
M  V30 4591 H 431.371 0.050998 3.2426 0
M  V30 4592 H 431.156 1.80968 3.4784 0
M  V30 4593 H 432.646 1.0037 4.05359 0
M  V30 4594 N 433.083 -1.0153 1.20538 0
M  V30 4595 C 434.311 -1.78746 1.04199 0
M  V30 4596 C 434.726 -1.84323 -0.408733 0
M  V30 4597 O 434.083 -1.29714 -1.28377 0
M  V30 4598 C 434.134 -3.23152 1.62035 0
M  V30 4599 O 433.855 -3.17918 3.0143 0
M  V30 4600 C 435.356 -4.16911 1.50666 0
M  V30 4601 H 432.576 -0.56208 0.366479 0
M  V30 4602 H 435.12 -1.27794 1.59653 0
M  V30 4603 H 433.275 -3.71248 1.10697 0
M  V30 4604 H 433.689 -4.08567 3.28897 0
M  V30 4605 H 435.163 -5.16072 1.95892 0
M  V30 4606 H 435.64 -4.36791 0.459363 0
M  V30 4607 H 436.246 -3.74698 2.01201 0
M  V30 4608 N 434.561 -1.01147 -1.20859 0
M  V30 4609 C 435.509 -0.57059 -2.25493 0
M  V30 4610 C 436.503 0.388109 -1.64894 0
M  V30 4611 O 437.709 0.258592 -1.78133 0
M  V30 4612 H 434.084 -0.166191 -0.733406 0
M  V30 4613 H 436.055 -1.46411 -2.60012 0
M  V30 4614 C 434.804 0.0805241 -3.47607 0
M  V30 4615 H 434.127 -0.648156 -3.94511 0
M  V30 4616 H 435.567 0.352197 -4.22535 0
M  V30 4617 C 434.026 1.32175 -3.09889 0
M  V30 4618 O 434.556 2.41553 -3.20959 0
M  V30 4619 N 432.762 1.20392 -2.64488 0
M  V30 4620 H 432.309 0.313905 -2.5568 0
M  V30 4621 H 432.267 2.03541 -2.39621 0
M  V30 4622 N 436.039 1.36541 -0.78704 0
M  V30 4623 C 437.269 2.03266 -0.369662 0
M  V30 4624 C 437.677 1.59481 1.01796 0
M  V30 4625 O 437.02 0.778612 1.66383 0
M  V30 4626 C 437.082 3.57779 -0.351371 0
M  V30 4627 C 436.746 4.24756 -1.68617 0
M  V30 4628 C 437.743 4.47811 -2.64124 0
M  V30 4629 C 435.428 4.62277 -1.96481 0
M  V30 4630 C 437.422 5.07464 -3.85693 0
M  V30 4631 C 435.109 5.21649 -3.18317 0
M  V30 4632 C 436.107 5.44182 -4.12741 0
M  V30 4633 O 435.795 6.02307 -5.32429 0
M  V30 4634 H 435.527 0.658977 -0.150751 0
M  V30 4635 H 438.081 1.75548 -1.0664 0
M  V30 4636 H 436.311 3.84606 0.401847 0
M  V30 4637 H 438 4.05879 0.0410147 0
M  V30 4638 H 438.766 4.19221 -2.43883 0
M  V30 4639 H 434.645 4.44065 -1.23805 0
M  V30 4640 H 438.189 5.24968 -4.59407 0
M  V30 4641 H 434.086 5.49664 -3.38437 0
M  V30 4642 H 434.854 6.20775 -5.33461 0
M  V30 4643 N 437.518 0.538854 1.48102 0
M  V30 4644 C 438.748 0.0122958 2.06596 0
M  V30 4645 C 439.156 -1.27861 1.39457 0
M  V30 4646 O 438.499 -1.77348 0.478907 0
M  V30 4647 C 438.561 -0.273131 3.58461 0
M  V30 4648 C 438.225 0.92561 4.47528 0
M  V30 4649 C 439.222 1.82637 4.86765 0
M  V30 4650 C 436.907 1.13511 4.89306 0
M  V30 4651 C 438.901 2.92047 5.66558 0
M  V30 4652 C 436.588 2.23233 5.68868 0
M  V30 4653 C 437.586 3.12333 6.07402 0
M  V30 4654 O 437.274 4.20155 6.85365 0
M  V30 4655 H 437.006 0.0344283 0.675123 0
M  V30 4656 H 439.56 0.746494 1.91355 0
M  V30 4657 H 437.79 -1.06141 3.71848 0
M  V30 4658 H 439.479 -0.742842 3.99045 0
M  V30 4659 H 440.245 1.67649 4.55103 0
M  V30 4660 H 436.124 0.450835 4.5879 0
M  V30 4661 H 439.668 3.6162 5.96554 0
M  V30 4662 H 435.565 2.38201 5.99942 0
M  V30 4663 H 436.333 4.17975 7.03732 0
M  V30 4664 N 438.996 -1.55193 0.274407 0
M  V30 4665 C 440.242 -2.00604 -0.33608 0
M  V30 4666 C 440.597 -1.15948 -1.53538 0
M  V30 4667 O 439.89 -0.221385 -1.90317 0
M  V30 4668 C 440.084 -3.49019 -0.769458 0
M  V30 4669 C 439.913 -4.48038 0.386301 0
M  V30 4670 C 438.683 -4.97757 0.869854 0
M  V30 4671 C 440.881 -4.99558 1.22254 0
M  V30 4672 N 438.863 -5.80575 1.99515 0
M  V30 4673 C 440.234 -5.79816 2.19575 0
M  V30 4674 C 442.289 -4.81799 1.25597 0
M  V30 4675 C 440.992 -6.44208 3.19981 0
M  V30 4676 C 443.018 -5.46989 2.24848 0
M  V30 4677 C 442.38 -6.27058 3.20901 0
M  V30 4678 H 438.479 -0.777013 -0.088172 0
M  V30 4679 H 441.063 -1.90583 0.398266 0
M  V30 4680 H 439.234 -3.59383 -1.47303 0
M  V30 4681 H 440.966 -3.81263 -1.35722 0
M  V30 4682 H 437.721 -4.71464 0.449281 0
M  V30 4683 H 438.145 -6.26675 2.5614 0
M  V30 4684 H 442.787 -4.19501 0.527158 0
M  V30 4685 H 440.505 -7.05656 3.93796 0
M  V30 4686 H 444.091 -5.35189 2.28174 0
M  V30 4687 H 442.971 -6.7661 3.96445 0
M  V30 4688 N 440.474 -0.00167713 -1.576 0
M  V30 4689 C 441.723 0.682021 -1.89819 0
M  V30 4690 C 442.036 1.74844 -0.876871 0
M  V30 4691 O 443.242 2.48688 -1.08934 0
M  V30 4692 C 441.698 1.26425 -3.36964 0
M  V30 4693 C 441.306 0.232568 -4.47396 0
M  V30 4694 C 443.05 1.92604 -3.78291 0
M  V30 4695 C 440.957 0.824882 -5.85619 0
M  V30 4696 H 439.887 0.258499 -0.708304 0
M  V30 4697 H 442.538 -0.0624957 -1.83394 0
M  V30 4698 H 440.92 2.05949 -3.38232 0
M  V30 4699 H 442.094 -0.5382 -4.57646 0
M  V30 4700 H 440.409 -0.32888 -4.15099 0
M  V30 4701 H 443.006 2.37827 -4.78897 0
M  V30 4702 H 443.349 2.75732 -3.11894 0
M  V30 4703 H 443.882 1.19812 -3.79328 0
M  V30 4704 H 440.621 0.0323542 -6.55492 0
M  V30 4705 H 440.141 1.56477 -5.79029 0
M  V30 4706 H 441.82 1.32301 -6.33329 0
M  V30 4707 N 441.952 1.55251 0.271103 0
M  V30 4708 C 442.882 1.9127 1.33933 0
M  V30 4709 C 443.863 0.77478 1.5143 0
M  V30 4710 O 445.048 1.03307 1.64442 0
M  V30 4711 C 442.178 2.18627 2.69851 0
M  V30 4712 C 441.132 3.34442 2.67081 0
M  V30 4713 C 440.458 3.47284 4.06569 0
M  V30 4714 C 441.758 4.70784 2.26185 0
M  V30 4715 H 443.452 2.80744 1.04035 0
M  V30 4716 H 440.998 1.35077 0.499017 0
M  V30 4717 H 442.951 2.42413 3.44694 0
M  V30 4718 H 441.675 1.25955 3.01335 0
M  V30 4719 H 440.334 3.10627 1.94695 0
M  V30 4720 H 439.982 2.52074 4.35279 0
M  V30 4721 H 439.682 4.25152 4.0561 0
M  V30 4722 H 441.206 3.73363 4.83148 0
M  V30 4723 H 442.62 4.94102 2.90751 0
M  V30 4724 H 441.017 5.51582 2.36384 0
M  V30 4725 H 442.087 4.69478 1.21319 0
M  V30 4726 N 443.43 -0.535701 1.48216 0
M  V30 4727 C 444.676 -1.29375 1.56173 0
M  V30 4728 C 445.009 -1.92804 0.232429 0
M  V30 4729 O 444.284 -1.78992 -0.761048 0
M  V30 4730 C 444.567 -2.38747 2.69577 0
M  V30 4731 C 444.42 -1.80046 4.12193 0
M  V30 4732 C 445.739 -3.40551 2.78771 0
M  V30 4733 H 442.858 -0.469027 0.568491 0
M  V30 4734 H 445.5 -0.597358 1.80365 0
M  V30 4735 H 443.65 -2.98147 2.4908 0
M  V30 4736 H 445.322 -1.24742 4.44114 0
M  V30 4737 H 443.565 -1.10609 4.19462 0
M  V30 4738 H 444.236 -2.59212 4.87353 0
M  V30 4739 H 446.712 -2.91099 2.97322 0
M  V30 4740 H 445.588 -4.1448 3.59857 0
M  V30 4741 H 445.849 -4.00746 1.86696 0
M  V30 4742 N 444.908 -1.36708 -0.784132 0
M  V30 4743 C 445.818 -1.3363 -1.92822 0
M  V30 4744 C 446.834 -0.237686 -1.72369 0
M  V30 4745 O 448.01 -0.470962 -1.95816 0
M  V30 4746 C 445.075 -1.13011 -3.27764 0
M  V30 4747 C 444.136 -2.32397 -3.60957 0
M  V30 4748 C 443.369 -2.12752 -4.89461 0
M  V30 4749 O 443.592 -1.10541 -5.59586 0
M  V30 4750 O 442.526 -3.00653 -5.21432 0
M  V30 4751 H 446.352 -2.29964 -1.98369 0
M  V30 4752 H 443.937 -1.1731 -0.925136 0
M  V30 4753 H 445.819 -1.03451 -4.08504 0
M  V30 4754 H 444.494 -0.19743 -3.23097 0
M  V30 4755 H 443.401 -2.47527 -2.80502 0
M  V30 4756 H 444.734 -3.2419 -3.70354 0
M  V30 4757 N 446.386 1.0089 -1.21074 0
M  V30 4758 C 447.634 1.74262 -1.02358 0
M  V30 4759 C 447.955 1.89869 0.444393 0
M  V30 4760 O 447.225 1.44677 1.32081 0
M  V30 4761 H 445.805 0.645615 -0.375754 0
M  V30 4762 H 448.467 1.21596 -1.52317 0
M  V30 4763 H 447.563 2.74328 -1.4883 0
M  V30 4764 N 447.864 1.01787 1.20321 0
M  V30 4765 C 448.794 0.609625 2.25401 0
M  V30 4766 C 449.775 -0.375951 1.65893 0
M  V30 4767 O 450.96 -0.261101 1.92437 0
M  V30 4768 C 448.09 -0.0515995 3.47262 0
M  V30 4769 C 447.044 0.855095 4.19371 0
M  V30 4770 C 446.37 0.0595757 5.34667 0
M  V30 4771 C 447.67 2.16374 4.75373 0
M  V30 4772 H 449.364 1.48803 2.59804 0
M  V30 4773 H 446.91 0.716934 1.24884 0
M  V30 4774 H 448.863 -0.348764 4.19954 0
M  V30 4775 H 447.587 -0.964726 3.12027 0
M  V30 4776 H 446.246 1.13628 3.48546 0
M  V30 4777 H 445.894 -0.85524 4.95676 0
M  V30 4778 H 445.594 0.663406 5.83843 0
M  V30 4779 H 447.118 -0.231105 6.10162 0
M  V30 4780 H 448.532 1.92885 5.39878 0
M  V30 4781 H 446.929 2.71853 5.34991 0
M  V30 4782 H 447.999 2.82589 3.94045 0
M  V30 4783 N 449.342 -1.36122 0.79427 0
M  V30 4784 C 450.572 -2.03067 0.380437 0
M  V30 4785 C 450.98 -1.60018 -1.00949 0
M  V30 4786 O 450.323 -0.787425 -1.65968 0
M  V30 4787 C 450.385 -3.57587 0.37034 0
M  V30 4788 C 450.049 -4.23855 1.70867 0
M  V30 4789 C 451.046 -4.46404 2.66496 0
M  V30 4790 C 448.731 -4.61229 1.9893 0
M  V30 4791 C 450.725 -5.05412 3.88378 0
M  V30 4792 C 448.412 -5.19953 3.21079 0
M  V30 4793 C 449.41 -5.41985 4.15621 0
M  V30 4794 O 449.098 -5.99475 5.35616 0
M  V30 4795 H 448.83 -0.658168 0.154243 0
M  V30 4796 H 451.384 -1.7498 1.0757 0
M  V30 4797 H 449.614 -3.84814 -0.381444 0
M  V30 4798 H 451.303 -4.05895 -0.0194894 0
M  V30 4799 H 452.069 -4.17921 2.46103 0
M  V30 4800 H 447.948 -4.43402 1.26158 0
M  V30 4801 H 451.492 -5.22524 4.62185 0
M  V30 4802 H 447.389 -5.47862 3.41347 0
M  V30 4803 H 448.157 -6.17937 5.36745 0
M  V30 4804 N 450.82 -0.546701 -1.47814 0
M  V30 4805 C 451.75 0.195317 -2.32682 0
M  V30 4806 C 452.731 0.918981 -1.43139 0
M  V30 4807 O 453.916 0.901501 -1.72008 0
M  V30 4808 C 451.046 1.23237 -3.247 0
M  V30 4809 C 450 0.625818 -4.234 0
M  V30 4810 C 449.326 1.76674 -5.04669 0
M  V30 4811 C 450.626 -0.413515 -5.2066 0
M  V30 4812 H 452.32 -0.513184 -2.94969 0
M  V30 4813 H 449.866 -0.248241 -1.41844 0
M  V30 4814 H 451.819 1.75955 -3.82907 0
M  V30 4815 H 450.543 1.97067 -2.60446 0
M  V30 4816 H 449.202 0.120023 -3.66403 0
M  V30 4817 H 448.85 2.49383 -4.36826 0
M  V30 4818 H 448.55 1.36673 -5.71484 0
M  V30 4819 H 450.074 2.29738 -5.65732 0
M  V30 4820 H 451.488 0.0272042 -5.73294 0
M  V30 4821 H 449.885 -0.731825 -5.95621 0
M  V30 4822 H 450.955 -1.31325 -4.66778 0
M  V30 4823 N 452.299 1.55045 -0.282633 0
M  V30 4824 C 453.249 2.19514 0.616249 0
M  V30 4825 C 454.233 1.16216 1.11277 0
M  V30 4826 O 455.425 1.42004 1.05659 0
M  V30 4827 C 452.554 2.92548 1.7964 0
M  V30 4828 C 451.64 4.03142 1.31671 0
M  V30 4829 N 452.031 5.0276 0.553695 0
M  V30 4830 C 450.329 4.1635 1.59903 0
M  V30 4831 C 451.03 5.80923 0.30054 0
M  V30 4832 N 450.006 5.3651 0.875116 0
M  V30 4833 H 453.808 2.93889 0.0255363 0
M  V30 4834 H 451.322 1.62169 -0.0865362 0
M  V30 4835 H 453.319 3.37188 2.45173 0
M  V30 4836 H 451.979 2.19685 2.39099 0
M  V30 4837 H 452.99 5.17512 0.20032 0
M  V30 4838 H 449.667 3.54682 2.20243 0
M  V30 4839 H 451.057 6.7118 -0.311053 0
M  V30 4840 N 453.777 0.010035 1.57597 0
M  V30 4841 C 455.002 -0.687021 1.95691 0
M  V30 4842 C 455.427 -1.65952 0.885519 0
M  V30 4843 O 454.785 -1.80633 -0.15543 0
M  V30 4844 C 454.833 -1.3864 3.32884 0
M  V30 4845 O 453.937 -2.50115 3.27897 0
M  V30 4846 H 453.278 -0.181989 0.638573 0
M  V30 4847 H 455.808 0.0662122 2.04493 0
M  V30 4848 H 455.818 -1.74754 3.6868 0
M  V30 4849 H 454.493 -0.673411 4.10412 0
M  V30 4850 H 453.07 -2.16253 3.03791 0
M  V30 4851 N 455.255 -1.55392 -0.262866 0
M  V30 4852 C 456.185 -1.91978 -1.32917 0
M  V30 4853 C 457.166 -0.7828 -1.51017 0
M  V30 4854 O 458.351 -1.04178 -1.63892 0
M  V30 4855 C 455.481 -2.20055 -2.68687 0
M  V30 4856 C 454.435 -3.35854 -2.65304 0
M  V30 4857 C 453.761 -3.49435 -4.04721 0
M  V30 4858 C 455.061 -4.71977 -2.23685 0
M  V30 4859 H 456.755 -2.81292 -1.02544 0
M  V30 4860 H 454.301 -1.3534 -0.491846 0
M  V30 4861 H 456.254 -2.44237 -3.43404 0
M  V30 4862 H 454.978 -1.27551 -3.00663 0
M  V30 4863 H 453.637 -3.11655 -1.93045 0
M  V30 4864 H 453.285 -2.54379 -4.33936 0
M  V30 4865 H 452.985 -4.27297 -4.0335 0
M  V30 4866 H 454.509 -3.7592 -4.81161 0
M  V30 4867 H 455.923 -4.95637 -2.88127 0
M  V30 4868 H 454.32 -5.52828 -2.33456 0
M  V30 4869 H 455.39 -4.70115 -1.18827 0
M  V30 4870 N 456.733 0.527833 -1.48498 0
M  V30 4871 C 457.982 1.28003 -1.55878 0
M  V30 4872 C 458.295 1.9414 -0.238577 0
M  V30 4873 O 459.501 2.7083 -0.190643 0
M  V30 4874 C 457.957 2.32272 -2.74914 0
M  V30 4875 C 457.565 1.72196 -4.13585 0
M  V30 4876 C 459.309 3.08488 -2.91608 0
M  V30 4877 C 457.216 2.74417 -5.23879 0
M  V30 4878 H 456.146 0.481413 -0.580308 0
M  V30 4879 H 458.797 0.557195 -1.74836 0
M  V30 4880 H 457.179 3.07601 -2.49395 0
M  V30 4881 H 458.353 1.03041 -4.49132 0
M  V30 4882 H 456.668 1.08464 -4.02025 0
M  V30 4883 H 459.265 3.84879 -3.71177 0
M  V30 4884 H 459.608 3.64481 -2.01145 0
M  V30 4885 H 460.141 2.40274 -3.17038 0
M  V30 4886 H 456.88 2.23242 -6.16314 0
M  V30 4887 H 456.4 3.41893 -4.92818 0
M  V30 4888 H 458.079 3.37362 -5.52083 0
M  V30 4889 N 458.211 1.37122 0.776871 0
M  V30 4890 C 459.458 1.32047 1.53524 0
M  V30 4891 C 459.786 -0.0965631 1.9426 0
M  V30 4892 O 459.041 -1.06866 1.63945 0
M  V30 4893 C 459.34 2.20068 2.81611 0
M  V30 4894 C 459.006 3.68423 2.59953 0
M  V30 4895 C 457.668 4.08854 2.53755 0
M  V30 4896 C 460.02 4.62431 2.40431 0
M  V30 4897 C 457.348 5.41417 2.26018 0
M  V30 4898 C 459.7 5.95225 2.14219 0
M  V30 4899 C 458.364 6.34767 2.06462 0
M  V30 4900 H 457.634 0.483196 0.561785 0
M  V30 4901 H 460.281 1.69284 0.895268 0
M  V30 4902 H 458.586 1.75809 3.50141 0
M  V30 4903 H 460.283 2.13458 3.39465 0
M  V30 4904 H 456.873 3.36354 2.65638 0
M  V30 4905 H 461.057 4.32057 2.44213 0
M  V30 4906 H 456.313 5.71022 2.18504 0
M  V30 4907 H 460.487 6.67626 1.98112 0
M  V30 4908 H 458.114 7.37413 1.84733 0
M  V30 4909 N 459.689 -1.00246 1.21608 0
M  V30 4910 C 460.622 -2.08794 0.920892 0
M  V30 4911 C 461.6 -1.62059 -0.132552 0
M  V30 4912 O 462.784 -1.885 -0.0030366 0
M  V30 4913 C 459.911 -3.36525 0.383226 0
M  V30 4914 C 458.957 -4.02172 1.41987 0
M  V30 4915 S 459.79 -4.44256 2.98994 0
M  V30 4916 C 460.946 -5.7517 2.4684 0
M  V30 4917 H 461.179 -2.33511 1.8401 0
M  V30 4918 H 458.712 -1.13562 1.04609 0
M  V30 4919 H 460.67 -4.10423 0.0795871 0
M  V30 4920 H 459.331 -3.09854 -0.514711 0
M  V30 4921 H 458.524 -4.94114 0.993335 0
M  V30 4922 H 458.126 -3.34559 1.67171 0
M  V30 4923 H 460.418 -6.51042 1.87484 0
M  V30 4924 H 461.361 -6.22638 3.37235 0
M  V30 4925 H 461.769 -5.32112 1.88461 0
M  V30 4926 N 461.167 -1.02423 -1.1978 0
M  V30 4927 C 462.13 -0.605703 -2.21052 0
M  V30 4928 C 463.13 0.328209 -1.57415 0
M  V30 4929 O 464.32 0.115853 -1.73814 0
M  V30 4930 C 461.452 0.114366 -3.40708 0
M  V30 4931 H 462.645 -1.5017 -2.59594 0
M  V30 4932 H 460.198 -0.814888 -1.33376 0
M  V30 4933 H 460.933 1.02492 -3.07678 0
M  V30 4934 H 460.718 -0.556641 -3.88129 0
M  V30 4935 H 462.208 0.394272 -4.15735 0
M  V30 4936 N 462.645 1.35699 -0.801477 0
M  V30 4937 C 463.892 1.98913 -0.379459 0
M  V30 4938 C 464.22 1.63592 1.05204 0
M  V30 4939 O 463.475 0.888563 1.74365 0
M  V30 4940 C 463.774 3.53828 -0.504041 0
M  V30 4941 C 463.44 4.09002 -1.8981 0
M  V30 4942 C 462.102 4.23783 -2.27951 0
M  V30 4943 C 464.454 4.38939 -2.81038 0
M  V30 4944 C 461.782 4.65816 -3.56696 0
M  V30 4945 C 464.134 4.82409 -4.09224 0
M  V30 4946 C 462.798 4.95395 -4.4737 0
M  V30 4947 H 462.068 0.727874 -0.138854 0
M  V30 4948 H 464.715 1.61994 -1.02128 0
M  V30 4949 H 463.02 3.91175 0.221242 0
M  V30 4950 H 464.717 4.00687 -0.158361 0
M  V30 4951 H 461.307 3.97946 -1.59176 0
M  V30 4952 H 465.491 4.27077 -2.52821 0
M  V30 4953 H 460.747 4.74059 -3.86106 0
M  V30 4954 H 464.921 5.04535 -4.80018 0
M  V30 4955 H 462.548 5.27724 -5.47185 0
M  V30 4956 N 464.123 0.554532 1.47522 0
M  V30 4957 C 465.37 0.029479 2.02479 0
M  V30 4958 C 465.698 -1.31929 1.42916 0
M  V30 4959 O 464.953 -1.87112 0.573385 0
M  V30 4960 C 465.252 -0.115927 3.57212 0
M  V30 4961 C 464.918 1.16161 4.3568 0
M  V30 4962 C 463.58 1.51168 4.56839 0
M  V30 4963 C 465.932 2.0083 4.80954 0
M  V30 4964 C 463.26 2.70696 5.2052 0
M  V30 4965 C 465.612 3.19559 5.45953 0
M  V30 4966 C 464.276 3.54882 5.65345 0
M  V30 4967 H 463.546 0.0107871 0.740921 0
M  V30 4968 H 466.193 0.725506 1.77225 0
M  V30 4969 H 464.498 -0.894902 3.81443 0
M  V30 4970 H 466.195 -0.53749 3.97381 0
M  V30 4971 H 462.785 0.879026 4.19489 0
M  V30 4972 H 466.969 1.75093 4.64388 0
M  V30 4973 H 462.225 2.98236 5.33728 0
M  V30 4974 H 466.399 3.85456 5.79997 0
M  V30 4975 H 464.026 4.47596 6.1446 0
M  V30 4976 N 465.601 -1.54893 0.290851 0
M  V30 4977 C 466.826 -2.04804 -0.32712 0
M  V30 4978 C 467.251 -1.16721 -1.47506 0
M  V30 4979 O 466.609 -0.169107 -1.8051 0
M  V30 4980 C 466.657 -3.52268 -0.770689 0
M  V30 4981 O 465.761 -3.67236 -1.87647 0
M  V30 4982 H 465.102 -0.660789 -0.0652227 0
M  V30 4983 H 467.632 -2.00036 0.429739 0
M  V30 4984 H 467.642 -3.9393 -1.06223 0
M  V30 4985 H 466.317 -4.15843 0.069096 0
M  V30 4986 H 464.894 -3.37479 -1.58626 0
M  V30 4987 N 467.08 -0.0183926 -1.57589 0
M  V30 4988 C 467.99 0.982943 -2.13015 0
M  V30 4989 C 469.006 1.36443 -1.07979 0
M  V30 4990 O 470.182 1.44802 -1.3998 0
M  V30 4991 C 467.247 2.25024 -2.63752 0
M  V30 4992 C 466.308 1.93018 -3.83461 0
M  V30 4993 C 465.541 3.13706 -4.31769 0
M  V30 4994 O 465.764 4.2601 -3.79305 0
M  V30 4995 O 464.698 2.96629 -5.23732 0
M  V30 4996 H 468.524 0.541709 -2.9883 0
M  V30 4997 H 466.109 0.201565 -1.48034 0
M  V30 4998 H 467.991 2.99441 -2.96502 0
M  V30 4999 H 466.666 2.68349 -1.81026 0
M  V30 5000 H 465.573 1.16019 -3.55655 0
M  V30 5001 H 466.906 1.54516 -4.67317 0
M  V30 5002 N 468.558 1.5553 0.254621 0
M  V30 5003 C 469.505 1.89666 1.31512 0
M  V30 5004 C 470.475 0.750057 1.482 0
M  V30 5005 O 471.66 1.00301 1.62309 0
M  V30 5006 C 468.8 2.19009 2.667 0
M  V30 5007 C 467.913 3.46435 2.58083 0
M  V30 5008 C 467.048 3.65386 3.85573 0
M  V30 5009 C 466.087 4.8644 3.71541 0
M  V30 5010 N 465.224 5.01952 4.90906 0
M  V30 5011 H 470.064 2.80109 1.017 0
M  V30 5012 H 467.601 1.38666 0.490938 0
M  V30 5013 H 469.559 2.34025 3.45381 0
M  V30 5014 H 468.189 1.31779 2.94676 0
M  V30 5015 H 467.241 3.39792 1.71013 0
M  V30 5016 H 468.553 4.35258 2.43622 0
M  V30 5017 H 467.707 3.80319 4.72697 0
M  V30 5018 H 466.446 2.74781 4.02922 0
M  V30 5019 H 465.451 4.71491 2.82801 0
M  V30 5020 H 466.676 5.78497 3.55694 0
M  V30 5021 H 464.622 4.14283 5.08631 0
M  V30 5022 H 464.539 5.84851 4.79046 0
M  V30 5023 H 465.807 5.21289 5.7955 0
M  V30 5024 N 470.036 -0.519951 1.48776 0
M  V30 5025 C 470.983 -1.62352 1.64044 0
M  V30 5026 C 471.953 -1.58945 0.482251 0
M  V30 5027 O 473.138 -1.77219 0.706971 0
M  V30 5028 C 470.278 -3.00579 1.69547 0
M  V30 5029 C 469.391 -3.14145 2.96541 0
M  V30 5030 C 468.526 -4.42991 2.93142 0
M  V30 5031 C 467.565 -4.50122 4.14797 0
M  V30 5032 N 466.702 -5.7037 4.09418 0
M  V30 5033 H 471.542 -1.48643 2.58281 0
M  V30 5034 H 469.079 -0.723516 1.28077 0
M  V30 5035 H 471.037 -3.80671 1.70719 0
M  V30 5036 H 469.667 -3.13036 0.787918 0
M  V30 5037 H 468.719 -2.27239 3.05068 0
M  V30 5038 H 470.031 -3.15275 3.86527 0
M  V30 5039 H 469.185 -5.31385 2.92772 0
M  V30 5040 H 467.924 -4.44398 2.00902 0
M  V30 5041 H 466.929 -3.60133 4.15433 0
M  V30 5042 H 468.154 -4.50445 5.08208 0
M  V30 5043 H 466.1 -5.72655 3.20004 0
M  V30 5044 H 466.017 -5.73036 4.93119 0
M  V30 5045 H 467.285 -6.61023 4.13121 0
M  V30 5046 N 471.514 -1.37532 -0.769588 0
M  V30 5047 C 472.744 -1.35861 -1.55645 0
M  V30 5048 C 473.152 0.0574398 -1.89113 0
M  V30 5049 O 472.495 1.03021 -1.52093 0
M  V30 5050 C 472.557 -2.13431 -2.89288 0
M  V30 5051 C 472.221 -3.62378 -2.78444 0
M  V30 5052 C 473.218 -4.56215 -2.49326 0
M  V30 5053 C 470.903 -4.05529 -2.96398 0
M  V30 5054 C 472.897 -5.91181 -2.38294 0
M  V30 5055 C 470.584 -5.40579 -2.84987 0
M  V30 5056 C 471.582 -6.33218 -2.55975 0
M  V30 5057 O 471.27 -7.65787 -2.44594 0
M  V30 5058 H 471.002 -0.467001 -0.48876 0
M  V30 5059 H 473.556 -1.81505 -0.961515 0
M  V30 5060 H 471.786 -1.62481 -3.50909 0
M  V30 5061 H 473.475 -2.04368 -3.50697 0
M  V30 5062 H 474.241 -4.24187 -2.35139 0
M  V30 5063 H 470.12 -3.33781 -3.1798 0
M  V30 5064 H 473.664 -6.63457 -2.15571 0
M  V30 5065 H 469.561 -5.72209 -2.98743 0
M  V30 5066 H 470.329 -7.76132 -2.59927 0
M  V30 5067 N 472.992 0.995999 -1.22138 0
M  V30 5068 C 473.922 2.10387 -1.01289 0
M  V30 5069 C 474.903 1.69975 0.0651454 0
M  V30 5070 O 476.088 1.9396 -0.0964628 0
M  V30 5071 C 473.218 3.42312 -0.586517 0
M  V30 5072 C 472.172 3.96558 -1.61014 0
M  V30 5073 C 471.498 5.24494 -1.0397 0
M  V30 5074 C 472.798 4.27595 -2.99933 0
M  V30 5075 H 474.492 2.28086 -1.93951 0
M  V30 5076 H 472.038 1.09607 -0.933928 0
M  V30 5077 H 473.991 4.19223 -0.427793 0
M  V30 5078 H 472.715 3.24431 0.375761 0
M  V30 5079 H 471.374 3.21776 -1.75658 0
M  V30 5080 H 471.022 5.02953 -0.0688703 0
M  V30 5081 H 470.722 5.61755 -1.72352 0
M  V30 5082 H 472.246 6.04042 -0.892494 0
M  V30 5083 H 473.66 4.95315 -2.8868 0
M  V30 5084 H 472.057 4.76021 -3.6541 0
M  V30 5085 H 473.127 3.35498 -3.50099 0
M  V30 5086 N 474.47 1.03057 1.19235 0
M  V30 5087 C 475.716 0.738841 1.89506 0
M  V30 5088 C 476.071 -0.724807 1.78225 0
M  V30 5089 O 475.364 -1.52118 1.16494 0
M  V30 5090 C 475.558 1.1268 3.39172 0
M  V30 5091 C 475.387 2.62662 3.65019 0
M  V30 5092 C 474.157 3.29658 3.82954 0
M  V30 5093 C 476.355 3.60873 3.66436 0
M  V30 5094 N 474.337 4.68726 3.96446 0
M  V30 5095 C 475.708 4.85566 3.8552 0
M  V30 5096 C 477.763 3.54647 3.49471 0
M  V30 5097 C 476.466 6.04783 3.89397 0
M  V30 5098 C 478.492 4.73281 3.54625 0
M  V30 5099 C 477.854 5.96789 3.74196 0
M  V30 5100 H 473.953 0.322256 0.712513 0
M  V30 5101 H 476.537 1.31822 1.43287 0
M  V30 5102 H 474.708 0.575612 3.84111 0
M  V30 5103 H 476.44 0.787145 3.96971 0
M  V30 5104 H 473.195 2.8007 3.81913 0
M  V30 5105 H 473.619 5.40971 4.07037 0
M  V30 5106 H 478.261 2.60143 3.33295 0
M  V30 5107 H 475.979 6.99654 4.04364 0
M  V30 5108 H 479.565 4.70094 3.42787 0
M  V30 5109 H 478.445 6.87051 3.78061 0
M  V30 5110 N 475.948 -1.35272 0.808662 0
M  V30 5111 C 477.196 -1.98316 0.389233 0
M  V30 5112 C 477.517 -1.64465 -1.04767 0
M  V30 5113 O 476.787 -0.928175 -1.72516 0
M  V30 5114 H 475.367 -0.733585 0.140935 0
M  V30 5115 H 478.029 -1.6515 1.03496 0
M  V30 5116 H 477.125 -3.08123 0.496631 0
M  V30 5117 N 477.426 -0.562348 -1.47226 0
M  V30 5118 C 478.673 -0.0402165 -2.0246 0
M  V30 5119 C 479.001 1.31169 -1.43614 0
M  V30 5120 O 478.256 1.86805 -0.5833 0
M  V30 5121 C 478.555 0.0969817 -3.57268 0
M  V30 5122 C 478.221 -1.1847 -4.35058 0
M  V30 5123 C 476.883 -1.53588 -4.56031 0
M  V30 5124 C 479.235 -2.03378 -4.79882 0
M  V30 5125 C 476.563 -2.73452 -5.19077 0
M  V30 5126 C 478.915 -3.2245 -5.44251 0
M  V30 5127 C 477.579 -3.57876 -5.63455 0
M  V30 5128 H 476.849 -0.0147163 -0.740854 0
M  V30 5129 H 479.496 -0.734895 -1.76838 0
M  V30 5130 H 477.801 0.87466 -3.81912 0
M  V30 5131 H 479.498 0.516408 -3.97661 0
M  V30 5132 H 476.088 -0.90126 -4.19017 0
M  V30 5133 H 480.272 -1.77553 -4.63453 0
M  V30 5134 H 475.528 -3.01062 -5.32139 0
M  V30 5135 H 479.702 -3.88526 -5.77945 0
M  V30 5136 H 477.329 -4.50849 -6.12078 0
M  V30 5137 N 478.904 1.54736 -0.299062 0
M  V30 5138 C 480.132 2.04512 0.313447 0
M  V30 5139 C 480.547 1.17643 1.47667 0
M  V30 5140 O 479.904 0.20164 1.81383 0
M  V30 5141 C 479.955 3.53171 0.771542 0
M  V30 5142 O 479.676 4.36736 -0.345379 0
M  V30 5143 C 481.177 4.18936 1.4494 0
M  V30 5144 H 478.397 0.667507 0.0683784 0
M  V30 5145 H 480.941 1.99752 -0.438129 0
M  V30 5146 H 479.096 3.58298 1.47314 0
M  V30 5147 H 479.51 5.24499 0.0109219 0
M  V30 5148 H 480.984 5.24482 1.72111 0
M  V30 5149 H 481.461 3.68554 2.38883 0
M  V30 5150 H 482.067 4.17879 0.791028 0
M  V30 5151 N 480.382 0.0267497 1.57577 0
M  V30 5152 C 481.628 -0.653371 1.91987 0
M  V30 5153 C 481.961 -1.71915 0.903263 0
M  V30 5154 O 481.236 -1.94358 -0.0743387 0
M  V30 5155 C 481.519 -1.272 3.36886 0
M  V30 5156 C 481.372 -0.215938 4.49281 0
M  V30 5157 C 482.691 -2.19069 3.81703 0
M  V30 5158 H 479.81 -0.236047 0.698177 0
M  V30 5159 H 482.452 0.0835236 1.89816 0
M  V30 5160 H 480.602 -1.90005 3.38866 0
M  V30 5161 H 482.274 0.41449 4.59434 0
M  V30 5162 H 480.517 0.458855 4.31366 0
M  V30 5163 H 481.188 -0.688347 5.47691 0
M  V30 5164 H 483.664 -1.66253 3.81444 0
M  V30 5165 H 482.54 -2.59307 4.83788 0
M  V30 5166 H 482.801 -3.08087 3.17072 0
M  V30 5167 N 481.861 -1.55662 -0.24637 0
M  V30 5168 C 483.108 -1.77519 -0.974335 0
M  V30 5169 C 483.436 -0.591165 -1.85298 0
M  V30 5170 O 482.691 0.425497 -1.91018 0
M  V30 5171 C 482.99 -3.04885 -1.86494 0
M  V30 5172 C 482.656 -4.36209 -1.14161 0
M  V30 5173 C 481.318 -4.71896 -0.941701 0
M  V30 5174 C 483.67 -5.17391 -0.628957 0
M  V30 5175 C 480.998 -5.86299 -0.216852 0
M  V30 5176 C 483.35 -6.32546 0.0824273 0
M  V30 5177 C 482.014 -6.66853 0.293807 0
M  V30 5178 H 481.284 -0.649588 -0.356535 0
M  V30 5179 H 483.931 -1.89934 -0.244394 0
M  V30 5180 H 482.236 -2.87484 -2.66196 0
M  V30 5181 H 483.933 -3.18994 -2.42989 0
M  V30 5182 H 480.523 -4.08174 -1.30736 0
M  V30 5183 H 484.707 -4.90276 -0.770943 0
M  V30 5184 H 479.963 -6.11385 -0.0426124 0
M  V30 5185 H 484.137 -6.94693 0.487292 0
M  V30 5186 H 481.764 -7.55349 0.857428 0
M  V30 5187 N 483.339 0.512053 -1.4905 0
M  V30 5188 C 484.587 1.26436 -1.57665 0
M  V30 5189 C 484.908 1.93255 -0.260293 0
M  V30 5190 O 484.178 1.82206 0.719564 0
M  V30 5191 H 482.758 0.469658 -0.580888 0
M  V30 5192 H 485.42 0.594398 -1.85615 0
M  V30 5193 H 484.516 2.03417 -2.36702 0
M  V30 5194 N 484.817 1.37938 0.762283 0
M  V30 5195 C 486.063 1.34873 1.52253 0
M  V30 5196 C 486.418 -0.0635972 1.92295 0
M  V30 5197 O 485.711 -1.02434 1.61919 0
M  V30 5198 C 485.905 2.23042 2.79261 0
M  V30 5199 C 485.734 3.72706 2.51635 0
M  V30 5200 C 484.504 4.41771 2.45289 0
M  V30 5201 C 486.702 4.65345 2.18994 0
M  V30 5202 N 484.684 5.76921 2.09846 0
M  V30 5203 C 486.055 5.88943 1.9377 0
M  V30 5204 C 488.11 4.53636 2.0523 0
M  V30 5205 C 486.813 7.02142 1.5617 0
M  V30 5206 C 488.839 5.6673 1.69031 0
M  V30 5207 C 488.201 6.89383 1.44673 0
M  V30 5208 H 484.3 0.548818 0.557067 0
M  V30 5209 H 486.884 1.73247 0.888458 0
M  V30 5210 H 485.055 1.8687 3.40491 0
M  V30 5211 H 486.787 2.11165 3.45241 0
M  V30 5212 H 483.542 3.94883 2.61465 0
M  V30 5213 H 483.966 6.4837 1.94794 0
M  V30 5214 H 488.608 3.5937 2.2274 0
M  V30 5215 H 486.326 7.96334 1.37399 0
M  V30 5216 H 489.912 5.59645 1.59026 0
M  V30 5217 H 488.792 7.75411 1.17079 0
M  V30 5218 N 486.295 -0.989507 1.22664 0
M  V30 5219 C 487.543 -1.72612 1.05117 0
M  V30 5220 C 487.864 -1.90552 -0.414131 0
M  V30 5221 O 487.134 -1.4676 -1.29762 0
M  V30 5222 H 485.714 -0.639555 0.385977 0
M  V30 5223 H 488.376 -1.19158 1.54232 0
M  V30 5224 H 487.472 -2.71926 1.53175 0
M  V30 5225 N 487.773 -1.03688 -1.18687 0
M  V30 5226 C 488.703 -0.645407 -2.24403 0
M  V30 5227 C 489.684 0.349511 -1.66471 0
M  V30 5228 O 490.869 0.230453 -1.92828 0
M  V30 5229 C 487.999 -0.00365337 -3.473 0
M  V30 5230 C 486.953 -0.921705 -4.17958 0
M  V30 5231 C 486.279 -0.144629 -5.34504 0
M  V30 5232 C 487.579 -2.23909 -4.71871 0
M  V30 5233 H 489.273 -1.52917 -2.57404 0
M  V30 5234 H 486.819 -0.736711 -1.23728 0
M  V30 5235 H 488.772 0.281908 -4.20456 0
M  V30 5236 H 487.496 0.914963 -3.13522 0
M  V30 5237 H 486.155 -1.19159 -3.46694 0
M  V30 5238 H 485.803 0.776274 -4.96974 0
M  V30 5239 H 485.503 -0.756206 -5.82714 0
M  V30 5240 H 487.027 0.134004 -6.10453 0
M  V30 5241 H 488.441 -2.0145 -5.36741 0
M  V30 5242 H 486.838 -2.8033 -5.30599 0
M  V30 5243 H 487.908 -2.88822 -3.895 0
M  V30 5244 N 489.251 1.34841 -0.815825 0
M  V30 5245 C 490.662 1.80937 -0.46029 0
M  V30 5246 C 491.013 1.67685 1.01863 0
M  V30 5247 O 490.138 1.21277 1.79223 0
M  V30 5248 C 490.733 3.28509 -0.828708 0
M  V30 5249 C 489.292 3.72712 -0.525644 0
M  V30 5250 C 488.439 2.56676 -1.04941 0
M  V30 5251 H 491.39 1.22688 -1.00664 0
M  V30 5252 H 491.411 3.80279 -0.129757 0
M  V30 5253 H 490.923 3.38122 -1.90513 0
M  V30 5254 H 489.024 3.68642 0.541666 0
M  V30 5255 H 489.137 4.67119 -1.06474 0
M  V30 5256 H 487.501 2.50302 -0.471286 0
M  V30 5257 H 488.284 2.69063 -2.13214 0
M  V30 5258 N 490.729 0.570148 1.46925 0
M  V30 5259 C 491.692 -0.159933 2.28641 0
M  V30 5260 C 492.692 -0.830638 1.37685 0
M  V30 5261 O 493.882 -0.684516 1.60187 0
M  V30 5262 C 491.014 -1.2354 3.17727 0
M  V30 5263 H 492.207 0.558035 2.94662 0
M  V30 5264 H 489.76 0.327603 1.52828 0
M  V30 5265 H 490.495 -1.98535 2.56426 0
M  V30 5266 H 490.28 -0.759125 3.84681 0
M  V30 5267 H 491.77 -1.74782 3.79264 0
M  V30 5268 N 492.207 -1.54576 0.307264 0
M  V30 5269 C 493.453 -2.0056 -0.300612 0
M  V30 5270 C 493.786 -1.1953 -1.53057 0
M  V30 5271 O 493.061 -0.27337 -1.92569 0
M  V30 5272 C 493.344 -3.54167 -0.650987 0
M  V30 5273 C 493.197 -4.45933 0.588539 0
M  V30 5274 C 494.516 -4.14645 -1.47506 0
M  V30 5275 H 491.635 -0.729075 -0.107788 0
M  V30 5276 H 494.277 -1.85286 0.420606 0
M  V30 5277 H 492.427 -3.67313 -1.26544 0
M  V30 5278 H 494.099 -4.44683 1.22697 0
M  V30 5279 H 492.342 -4.16274 1.22058 0
M  V30 5280 H 493.013 -5.51189 0.299153 0
M  V30 5281 H 495.489 -4.04973 -0.955821 0
M  V30 5282 H 494.365 -5.22269 -1.68899 0
M  V30 5283 H 494.626 -3.66921 -2.4662 0
M  V30 5284 N 493.685 -0.035106 -1.57561 0
M  V30 5285 C 494.932 0.642229 -1.92046 0
M  V30 5286 C 495.26 1.7179 -0.91206 0
M  V30 5287 O 494.515 1.95544 0.0781153 0
M  V30 5288 C 494.814 1.29149 -3.3325 0
M  V30 5289 C 494.48 0.345604 -4.49574 0
M  V30 5290 C 493.142 0.0852775 -4.81124 0
M  V30 5291 C 495.494 -0.303569 -5.20315 0
M  V30 5292 C 492.822 -0.831927 -5.80772 0
M  V30 5293 C 495.174 -1.20886 -6.20942 0
M  V30 5294 C 493.838 -1.47802 -6.50931 0
M  V30 5295 H 493.108 0.235008 -0.702746 0
M  V30 5296 H 495.755 -0.0981529 -1.91248 0
M  V30 5297 H 494.06 2.10676 -3.30337 0
M  V30 5298 H 495.757 1.82223 -3.57205 0
M  V30 5299 H 492.347 0.558683 -4.24943 0
M  V30 5300 H 496.531 -0.115515 -4.96166 0
M  V30 5301 H 491.787 -1.0481 -6.02349 0
M  V30 5302 H 495.961 -1.71804 -6.74875 0
M  V30 5303 H 493.588 -2.19039 -7.2796 0
M  V30 5304 N 495.163 1.55791 0.238111 0
M  V30 5305 C 496.409 1.78297 0.966337 0
M  V30 5306 C 496.742 0.601903 1.84637 0
M  V30 5307 O 496.017 -0.399499 1.90353 0
M  V30 5308 C 496.3 3.10758 1.81939 0
M  V30 5309 C 496.153 4.39283 0.966958 0
M  V30 5310 C 497.472 3.39519 2.80027 0
M  V30 5311 H 494.591 0.648654 0.349882 0
M  V30 5312 H 497.233 1.88525 0.236253 0
M  V30 5313 H 495.383 3.02168 2.44185 0
M  V30 5314 H 497.055 4.59873 0.362514 0
M  V30 5315 H 495.298 4.32948 0.271669 0
M  V30 5316 H 495.969 5.28368 1.59784 0
M  V30 5317 H 498.445 3.48128 2.27917 0
M  V30 5318 H 497.321 4.33402 3.36829 0
M  V30 5319 H 497.582 2.60864 3.56934 0
M  V30 5320 N 496.642 -0.504142 1.49319 0
M  V30 5321 C 497.605 -1.5883 1.65244 0
M  V30 5322 C 498.605 -1.52009 0.524386 0
M  V30 5323 O 499.795 -1.55218 0.79077 0
M  V30 5324 C 496.927 -2.98481 1.64687 0
M  V30 5325 H 498.12 -1.4604 2.61939 0
M  V30 5326 H 495.673 -0.728144 1.38303 0
M  V30 5327 H 496.408 -3.16751 0.695644 0
M  V30 5328 H 496.193 -3.0484 2.46607 0
M  V30 5329 H 497.683 -3.77256 1.79075 0
M  V30 5330 N 498.12 -1.38341 -0.754957 0
M  V30 5331 C 499.366 -1.34672 -1.51628 0
M  V30 5332 C 499.699 0.0636036 -1.94096 0
M  V30 5333 O 498.974 1.0245 -1.6533 0
M  V30 5334 C 499.257 -2.30116 -2.76981 0
M  V30 5335 C 499.11 -3.80003 -2.4066 0
M  V30 5336 C 500.429 -2.23715 -3.78998 0
M  V30 5337 H 497.548 -0.490517 -0.550056 0
M  V30 5338 H 500.19 -1.69178 -0.864807 0
M  V30 5339 H 498.34 -2.00821 -3.3257 0
M  V30 5340 H 500.012 -4.19966 -1.90856 0
M  V30 5341 H 498.255 -3.97751 -1.73137 0
M  V30 5342 H 498.926 -4.42244 -3.30339 0
M  V30 5343 H 501.402 -2.49574 -3.32945 0
M  V30 5344 H 500.278 -2.9261 -4.64403 0
M  V30 5345 H 500.539 -1.23554 -4.24484 0
M  V30 5346 N 499.598 0.982988 -1.23187 0
M  V30 5347 C 500.844 1.7273 -1.07405 0
M  V30 5348 C 501.199 1.885 0.385447 0
M  V30 5349 O 500.492 1.4243 1.28157 0
M  V30 5350 C 500.686 3.12736 -1.73006 0
M  V30 5351 C 500.515 3.10621 -3.25184 0
M  V30 5352 C 499.285 3.15957 -3.94334 0
M  V30 5353 C 501.483 2.93992 -4.21987 0
M  V30 5354 N 499.465 3.03701 -5.33516 0
M  V30 5355 C 500.836 2.8987 -5.48065 0
M  V30 5356 C 502.891 2.78457 -4.12754 0
M  V30 5357 C 501.594 2.71804 -6.65969 0
M  V30 5358 C 503.62 2.61754 -5.30319 0
M  V30 5359 C 502.982 2.58328 -6.55321 0
M  V30 5360 H 499.081 0.641279 -0.447533 0
M  V30 5361 H 501.665 1.16664 -1.55877 0
M  V30 5362 H 499.836 3.67026 -1.2707 0
M  V30 5363 H 501.568 3.75786 -1.50224 0
M  V30 5364 H 498.323 3.24034 -3.45397 0
M  V30 5365 H 498.747 3.00855 -6.06478 0
M  V30 5366 H 503.389 2.79898 -3.16886 0
M  V30 5367 H 501.107 2.69108 -7.61975 0
M  V30 5368 H 504.693 2.50702 -5.25014 0
M  V30 5369 H 503.573 2.45564 -7.4476 0
M  V30 5370 N 501.076 1.04316 1.18135 0
M  V30 5371 C 502.322 0.749128 1.88457 0
M  V30 5372 C 502.655 -0.72149 1.803 0
M  V30 5373 O 501.93 -1.52676 1.205 0
M  V30 5374 C 502.213 1.21905 3.38838 0
M  V30 5375 C 502.066 2.75195 3.55792 0
M  V30 5376 C 503.385 0.811085 4.32561 0
M  V30 5377 H 500.504 0.273611 0.684329 0
M  V30 5378 H 503.146 1.29561 1.38975 0
M  V30 5379 H 501.296 0.754137 3.8111 0
M  V30 5380 H 502.968 3.29743 3.22595 0
M  V30 5381 H 501.211 3.14899 2.98364 0
M  V30 5382 H 501.882 3.03135 4.61317 0
M  V30 5383 H 504.358 1.21118 3.98082 0
M  V30 5384 H 503.234 1.16761 5.36338 0
M  V30 5385 H 503.495 -0.285596 4.41177 0
M  V30 5386 N 502.554 -1.34406 0.822964 0
M  V30 5387 C 503.779 -2.0304 0.423034 0
M  V30 5388 C 504.204 -1.61568 -0.963196 0
M  V30 5389 O 503.562 -0.800339 -1.62678 0
M  V30 5390 C 503.61 -3.56636 0.53321 0
M  V30 5391 O 502.714 -4.09971 -0.446939 0
M  V30 5392 H 502.055 -0.64075 0.174171 0
M  V30 5393 H 504.585 -1.71653 1.11339 0
M  V30 5394 H 504.595 -4.05945 0.408991 0
M  V30 5395 H 503.27 -3.86168 1.54425 0
M  V30 5396 H 501.847 -3.71835 -0.281601 0
M  V30 5397 N 504.032 -0.577932 -1.46621 0
M  V30 5398 C 505.278 -0.0617793 -2.02706 0
M  V30 5399 C 505.611 1.29294 -1.44903 0
M  V30 5400 O 504.886 1.8461 -0.61232 0
M  V30 5401 C 505.169 0.00911824 -3.60099 0
M  V30 5402 C 505.022 -1.37416 -4.28295 0
M  V30 5403 C 506.341 0.712159 -4.343 0
M  V30 5404 H 503.46 -0.0239246 -0.736612 0
M  V30 5405 H 506.102 -0.744211 -1.74818 0
M  V30 5406 H 504.252 0.590292 -3.83989 0
M  V30 5407 H 505.924 -2.00013 -4.15683 0
M  V30 5408 H 504.167 -1.94319 -3.87843 0
M  V30 5409 H 504.838 -1.27707 -5.37024 0
M  V30 5410 H 507.314 0.218486 -4.15526 0
M  V30 5411 H 506.19 0.730782 -5.44014 0
M  V30 5412 H 506.451 1.77251 -4.05012 0
M  V30 5413 N 505.51 1.54411 -0.315457 0
M  V30 5414 C 506.926 1.59556 0.037464 0
M  V30 5415 C 507.126 1.33217 1.5118 0
M  V30 5416 O 506.182 1.11264 2.26664 0
M  V30 5417 C 507.495 2.98372 -0.373477 0
M  V30 5418 C 509.043 3.11324 -0.323452 0
M  V30 5419 C 509.518 4.52472 -0.709433 0
M  V30 5420 N 511.009 4.58437 -0.662524 0
M  V30 5421 C 511.744 5.65751 -0.933474 0
M  V30 5422 N 511.24 6.81039 -1.27114 0
M  V30 5423 N 513.033 5.55489 -0.859573 0
M  V30 5424 H 505.184 1.6979 -1.27614 0
M  V30 5425 H 507.447 0.793732 -0.518356 0
M  V30 5426 H 507.153 3.22618 -1.40037 0
M  V30 5427 H 507.027 3.76264 0.265615 0
M  V30 5428 H 509.414 2.86818 0.694223 0
M  V30 5429 H 509.495 2.35555 -0.997367 0
M  V30 5430 H 509.139 4.7771 -1.72498 0
M  V30 5431 H 509.069 5.26598 -0.0132923 0
M  V30 5432 H 511.56 3.75636 -0.413065 0
M  V30 5433 H 511.873 7.58816 -1.46348 0
M  V30 5434 H 510.218 6.82555 -1.30932 0
M  V30 5435 H 513.409 4.64299 -0.595324 0
M  V30 5436 H 513.582 6.39036 -1.0741 0
M  V30 5437 N 506.988 0.0434614 1.5754 0
M  V30 5438 C 507.951 -0.918696 2.09982 0
M  V30 5439 C 508.951 -1.24488 1.01781 0
M  V30 5440 O 510.141 -1.18284 1.27885 0
M  V30 5441 C 507.273 -2.23093 2.57764 0
M  V30 5442 H 508.466 -0.464229 2.96285 0
M  V30 5443 H 506.019 -0.204818 1.54952 0
M  V30 5444 H 506.754 -2.73137 1.74832 0
M  V30 5445 H 506.539 -2.00724 3.36827 0
M  V30 5446 H 508.029 -2.92028 2.98512 0
M  V30 5447 N 508.466 -1.55915 -0.229846 0
M  V30 5448 C 509.694 -1.82617 -0.972562 0
M  V30 5449 C 510.109 -0.621488 -1.78278 0
M  V30 5450 O 509.466 0.409956 -1.77836 0
M  V30 5451 C 509.517 -3.0774 -1.89679 0
M  V30 5452 O 509.238 -4.23559 -1.11934 0
M  V30 5453 C 510.739 -3.47368 -2.75409 0
M  V30 5454 H 507.959 -0.60727 -0.285419 0
M  V30 5455 H 510.503 -2.02996 -0.247579 0
M  V30 5456 H 508.658 -2.89361 -2.57583 0
M  V30 5457 H 509.072 -4.94586 -1.74599 0
M  V30 5458 H 510.546 -4.37977 -3.35977 0
M  V30 5459 H 511.023 -2.68737 -3.47386 0
M  V30 5460 H 511.629 -3.68158 -2.12931 0
M  V30 5461 N 509.944 0.496216 -1.49584 0
M  V30 5462 C 510.874 1.60576 -1.69521 0
M  V30 5463 C 511.855 1.61169 -0.543933 0
M  V30 5464 O 513.04 1.77834 -0.78031 0
M  V30 5465 C 510.17 2.99038 -1.76616 0
M  V30 5466 C 509.124 3.13312 -2.91581 0
M  V30 5467 C 508.45 4.53172 -2.83794 0
M  V30 5468 C 509.75 2.92886 -4.32452 0
M  V30 5469 H 511.444 1.44146 -2.62416 0
M  V30 5470 H 508.99 0.692024 -1.26282 0
M  V30 5471 H 510.943 3.76564 -1.8915 0
M  V30 5472 H 509.667 3.16568 -0.80324 0
M  V30 5473 H 508.326 2.38213 -2.78658 0
M  V30 5474 H 507.974 4.67585 -1.854 0
M  V30 5475 H 507.674 4.63662 -3.60958 0
M  V30 5476 H 509.198 5.32752 -2.98342 0
M  V30 5477 H 510.612 3.60178 -4.46032 0
M  V30 5478 H 509.009 3.14844 -5.10875 0
M  V30 5479 H 510.079 1.88966 -4.46565 0
M  V30 5480 N 511.423 1.38739 0.74761 0
M  V30 5481 C 512.386 1.36241 1.84312 0
M  V30 5482 C 513.386 0.261811 1.58654 0
M  V30 5483 O 514.576 0.519031 1.66288 0
M  V30 5484 C 511.708 1.12253 3.21888 0
M  V30 5485 H 512.901 2.33712 1.87933 0
M  V30 5486 H 510.454 1.2412 0.949946 0
M  V30 5487 H 511.189 0.154133 3.23934 0
M  V30 5488 H 510.974 1.91943 3.41907 0
M  V30 5489 H 512.464 1.13215 4.0196 0
M  V30 5490 N 512.901 -0.976442 1.23707 0
M  V30 5491 C 513.849 -2.09078 1.01927 0
M  V30 5492 C 514.843 -1.69345 -0.0430193 0
M  V30 5493 O 516.049 -1.79659 0.110814 0
M  V30 5494 H 512.424 -0.68398 0.312531 0
M  V30 5495 H 514.395 -2.24614 1.96447 0
M  V30 5496 C 513.144 -3.41919 0.631385 0
M  V30 5497 H 512.467 -3.72946 1.44053 0
M  V30 5498 H 513.907 -4.20817 0.518532 0
M  V30 5499 C 512.366 -3.30357 -0.660723 0
M  V30 5500 O 512.896 -3.63542 -1.70881 0
M  V30 5501 N 511.102 -2.83507 -0.638139 0
M  V30 5502 H 510.649 -2.567 0.215108 0
M  V30 5503 H 510.607 -2.76153 -1.50289 0
M  V30 5504 N 514.379 -1.04941 -1.1758 0
M  V30 5505 C 515.607 -0.778294 -1.91703 0
M  V30 5506 C 516.022 0.665697 -1.76675 0
M  V30 5507 O 515.379 1.45456 -1.10222 0
M  V30 5508 C 515.43 -1.14628 -3.42845 0
M  V30 5509 O 515.151 -2.53359 -3.57409 0
M  V30 5510 C 516.652 -0.900931 -4.34049 0
M  V30 5511 H 513.872 -0.283167 -0.608323 0
M  V30 5512 H 516.416 -1.39942 -1.49119 0
M  V30 5513 H 514.571 -0.569953 -3.83184 0
M  V30 5514 H 514.985 -2.67709 -4.51035 0
M  V30 5515 H 516.459 -1.20817 -5.38616 0
M  V30 5516 H 516.936 0.163966 -4.38894 0
M  V30 5517 H 517.542 -1.46097 -3.99419 0
M  V30 5518 N 515.857 1.33968 -0.830081 0
M  V30 5519 C 517.105 1.97672 -0.420734 0
M  V30 5520 C 517.426 1.66111 1.02138 0
M  V30 5521 O 516.696 0.955503 1.71017 0
M  V30 5522 H 515.276 0.73125 -0.152587 0
M  V30 5523 H 517.938 1.63483 -1.0611 0
M  V30 5524 H 517.034 3.07294 -0.545588 0
M  V30 5525 N 517.335 0.585699 1.46312 0
M  V30 5526 C 518.575 0.0751432 2.04262 0
M  V30 5527 C 518.939 -1.26201 1.44697 0
M  V30 5528 O 520.14 -1.86198 1.93865 0
M  V30 5529 C 518.411 0.013478 3.57397 0
M  V30 5530 S 519.97 -0.439068 4.36598 0
M  V30 5531 H 516.788 0.0389228 0.709934 0
M  V30 5532 H 519.39 0.778871 1.79315 0
M  V30 5533 H 518.094 0.990558 3.98266 0
M  V30 5534 H 517.625 -0.712927 3.86886 0
M  V30 5535 H 519.64 -1.6932 4.66417 0
M  V30 5536 N 518.813 -1.54241 0.323641 0
M  V30 5537 C 520.059 -2.01572 -0.272089 0
M  V30 5538 C 520.414 -1.20774 -1.49771 0
M  V30 5539 O 519.707 -0.281821 -1.89516 0
M  V30 5540 C 519.901 -3.5129 -0.658031 0
M  V30 5541 C 519.73 -4.46582 0.528645 0
M  V30 5542 C 518.5 -4.94737 1.02777 0
M  V30 5543 C 520.698 -4.95416 1.38086 0
M  V30 5544 N 518.68 -5.73933 2.17885 0
M  V30 5545 C 520.051 -5.72537 2.3791 0
M  V30 5546 C 522.106 -4.77559 1.40861 0
M  V30 5547 C 520.809 -6.33702 3.40314 0
M  V30 5548 C 522.835 -5.39559 2.42136 0
M  V30 5549 C 522.197 -6.16532 3.40688 0
M  V30 5550 H 518.296 -0.779425 -0.0634072 0
M  V30 5551 H 520.88 -1.8922 0.458697 0
M  V30 5552 H 519.051 -3.63888 -1.35795 0
M  V30 5553 H 520.783 -3.85388 -1.23524 0
M  V30 5554 H 517.538 -4.69796 0.599046 0
M  V30 5555 H 517.962 -6.18209 2.75947 0
M  V30 5556 H 522.604 -4.17611 0.660352 0
M  V30 5557 H 520.322 -6.9277 4.16047 0
M  V30 5558 H 523.908 -5.27659 2.45086 0
M  V30 5559 H 522.788 -6.63655 4.1777 0
M  V30 5560 N 520.291 -0.0518155 -1.57515 0
M  V30 5561 C 521.568 0.661727 -1.84067 0
M  V30 5562 C 521.948 1.88999 -0.940351 0
M  V30 5563 O 521.296 2.285 -0.00155404 0
M  V30 5564 C 521.506 1.01841 -3.3381 0
M  V30 5565 C 522.854 1.40043 -4.00841 0
M  V30 5566 O 523.878 1.11073 -3.38439 0
M  V30 5567 O 522.737 1.94111 -5.10865 0
M  V30 5568 H 519.831 0.326702 -0.759733 0
M  V30 5569 H 522.377 -0.0812277 -1.69505 0
M  V30 5570 H 521.149 0.145202 -3.91031 0
M  V30 5571 H 520.772 1.81879 -3.53562 0
M  V30 5572 N 521.769 1.56035 0.221574 0
M  V30 5573 C 522.699 1.95434 1.2778 0
M  V30 5574 C 523.68 0.822564 1.48889 0
M  V30 5575 O 524.865 1.08486 1.61072 0
M  V30 5576 C 521.995 2.27102 2.62759 0
M  V30 5577 C 520.949 3.4277 2.56306 0
M  V30 5578 C 520.275 3.60043 3.95314 0
M  V30 5579 C 521.575 4.77742 2.11093 0
M  V30 5580 H 523.269 2.83912 0.950504 0
M  V30 5581 H 520.815 1.36596 0.455791 0
M  V30 5582 H 522.768 2.53256 3.36807 0
M  V30 5583 H 521.492 1.35478 2.97176 0
M  V30 5584 H 520.151 3.16664 1.84715 0
M  V30 5585 H 519.799 2.65794 4.27039 0
M  V30 5586 H 519.499 4.37841 3.91879 0
M  V30 5587 H 521.023 3.88545 4.71025 0
M  V30 5588 H 522.437 5.03102 2.74885 0
M  V30 5589 H 520.834 5.58823 2.18716 0
M  V30 5590 H 521.904 4.731 1.06321 0
M  V30 5591 N 523.247 -0.488276 1.49845 0
M  V30 5592 C 524.472 -1.26997 1.63971 0
M  V30 5593 C 524.897 -1.85427 0.315994 0
M  V30 5594 O 524.255 -1.66475 -0.718032 0
M  V30 5595 C 524.303 -2.36689 2.72049 0
M  V30 5596 O 523.407 -3.40882 2.32107 0
M  V30 5597 H 522.748 -0.374376 0.548396 0
M  V30 5598 H 525.278 -0.583104 1.96115 0
M  V30 5599 H 525.288 -2.82262 2.94605 0
M  V30 5600 H 523.963 -1.93529 3.68129 0
M  V30 5601 H 522.54 -3.01139 2.19931 0
M  V30 5602 N 524.725 -1.39134 -0.740242 0
M  V30 5603 C 525.95 -1.39518 -1.53459 0
M  V30 5604 C 526.375 0.00968883 -1.88098 0
M  V30 5605 O 525.733 0.995312 -1.51536 0
M  V30 5606 C 525.781 -2.26981 -2.802 0
M  V30 5607 O 524.885 -1.69609 -3.75908 0
M  V30 5608 H 524.226 -0.475328 -0.463637 0
M  V30 5609 H 526.756 -1.83064 -0.913717 0
M  V30 5610 H 526.766 -2.41309 -3.28989 0
M  V30 5611 H 525.441 -3.29081 -2.5432 0
M  V30 5612 H 524.018 -1.64495 -3.34658 0
M  V30 5613 N 526.204 0.969867 -1.24223 0
M  V30 5614 C 527.452 1.70918 -1.0785 0
M  V30 5615 C 527.773 1.91186 0.383763 0
M  V30 5616 O 527.043 1.48806 1.27411 0
M  V30 5617 H 525.623 0.633334 -0.396103 0
M  V30 5618 H 528.285 1.16689 -1.56108 0
M  V30 5619 H 527.381 2.69455 -1.57482 0
M  V30 5620 N 527.682 1.05563 1.17022 0
M  V30 5621 C 528.63 0.653887 2.2322 0
M  V30 5622 C 529.624 -0.326642 1.66221 0
M  V30 5623 O 530.83 -0.192301 1.7897 0
M  V30 5624 H 527.205 0.193297 0.726733 0
M  V30 5625 H 529.176 1.5596 2.54399 0
M  V30 5626 C 527.925 0.0485434 3.47666 0
M  V30 5627 H 527.248 0.79413 3.91834 0
M  V30 5628 H 528.688 -0.195133 4.23551 0
M  V30 5629 C 527.147 -1.20583 3.14581 0
M  V30 5630 O 527.677 -2.29475 3.29703 0
M  V30 5631 N 525.883 -1.10493 2.68774 0
M  V30 5632 H 525.43 -0.218795 2.56669 0
M  V30 5633 H 525.388 -1.94507 2.47011 0
M  V30 5634 N 529.16 -1.33526 0.837174 0
M  V30 5635 C 530.107 -2.29248 0.267169 0
M  V30 5636 C 531.077 -1.54252 -0.616071 0
M  V30 5637 O 532.262 -1.82559 -0.554699 0
M  V30 5638 C 529.402 -3.40638 -0.553152 0
M  V30 5639 C 528.515 -4.30548 0.353921 0
M  V30 5640 C 527.65 -5.29051 -0.477339 0
M  V30 5641 C 526.689 -6.106 0.42823 0
M  V30 5642 N 525.826 -7.01152 -0.364801 0
M  V30 5643 H 530.666 -2.77398 1.08877 0
M  V30 5644 H 528.203 -1.36496 0.54838 0
M  V30 5645 H 530.161 -4.03921 -1.04422 0
M  V30 5646 H 528.791 -2.93685 -1.33973 0
M  V30 5647 H 527.843 -3.68001 0.963289 0
M  V30 5648 H 529.155 -4.87631 1.04964 0
M  V30 5649 H 528.309 -5.97853 -1.0323 0
M  V30 5650 H 527.048 -4.72541 -1.2065 0
M  V30 5651 H 526.053 -5.40718 0.995219 0
M  V30 5652 H 527.278 -6.69193 1.15573 0
M  V30 5653 H 525.224 -6.47092 -1.07738 0
M  V30 5654 H 525.141 -7.5551 0.272238 0
M  V30 5655 H 526.409 -7.74263 -0.902054 0
M  V30 5656 N 530.638 -0.59345 -1.46 0
M  V30 5657 C 531.585 0.133618 -2.30413 0
M  V30 5658 C 532.555 0.873736 -1.41262 0
M  V30 5659 O 533.74 0.862279 -1.70204 0
M  V30 5660 C 530.88 1.13434 -3.25924 0
M  V30 5661 C 529.993 0.39656 -4.30176 0
M  V30 5662 C 529.128 1.38575 -5.12806 0
M  V30 5663 C 528.167 0.634984 -6.08797 0
M  V30 5664 N 527.304 1.57276 -6.84258 0
M  V30 5665 H 532.144 -0.592252 -2.92055 0
M  V30 5666 H 529.681 -0.303874 -1.43927 0
M  V30 5667 H 531.639 1.72752 -3.79753 0
M  V30 5668 H 530.269 1.82779 -2.66067 0
M  V30 5669 H 529.321 -0.311861 -3.79119 0
M  V30 5670 H 530.633 -0.189869 -4.98438 0
M  V30 5671 H 529.787 2.05141 -5.70966 0
M  V30 5672 H 528.526 2.00611 -4.44529 0
M  V30 5673 H 527.531 -0.0443925 -5.49782 0
M  V30 5674 H 528.756 0.0198678 -6.79097 0
M  V30 5675 H 526.702 2.18103 -6.18682 0
M  V30 5676 H 526.619 1.03941 -7.48821 0
M  V30 5677 H 527.887 2.22844 -7.46968 0
M  V30 5678 N 532.116 1.54067 -0.331816 0
M  V30 5679 C 533.362 2.01713 0.261395 0
M  V30 5680 C 533.717 1.21566 1.49129 0
M  V30 5681 O 533.01 0.291867 1.89364 0
M  V30 5682 C 533.204 3.51634 0.639392 0
M  V30 5683 C 533.033 4.46295 -0.552321 0
M  V30 5684 C 531.803 4.94185 -1.05399 0
M  V30 5685 C 534.001 4.94677 -1.40711 0
M  V30 5686 N 531.983 5.7277 -2.20925 0
M  V30 5687 C 533.354 5.71267 -2.40943 0
M  V30 5688 C 535.409 4.76805 -1.43392 0
M  V30 5689 C 534.112 6.31889 -3.4367 0
M  V30 5690 C 536.138 5.38268 -2.44994 0
M  V30 5691 C 535.5 6.14716 -3.43952 0
M  V30 5692 H 531.599 0.77975 0.0592729 0
M  V30 5693 H 534.183 1.88974 -0.468726 0
M  V30 5694 H 532.354 3.64603 1.33863 0
M  V30 5695 H 534.086 3.86038 1.21478 0
M  V30 5696 H 530.841 4.69472 -0.623952 0
M  V30 5697 H 531.265 6.16737 -2.79222 0
M  V30 5698 H 535.907 4.17255 -0.682489 0
M  V30 5699 H 533.625 6.90554 -4.19715 0
M  V30 5700 H 537.211 5.26352 -2.4788 0
M  V30 5701 H 536.091 6.6143 -4.21283 0
M  V30 5702 N 533.594 0.0601682 1.57485 0
M  V30 5703 C 534.843 -0.611101 1.9222 0
M  V30 5704 C 535.156 -1.71469 0.941159 0
M  V30 5705 O 536.362 -2.44473 1.18089 0
M  V30 5706 C 534.818 -1.13832 3.41424 0
M  V30 5707 C 534.426 -0.0663596 4.47951 0
M  V30 5708 C 536.17 -1.78432 3.85178 0
M  V30 5709 C 534.077 -0.606965 5.88277 0
M  V30 5710 H 533.007 -0.232033 0.71741 0
M  V30 5711 H 535.658 0.130518 1.83035 0
M  V30 5712 H 534.04 -1.93254 3.45643 0
M  V30 5713 H 535.214 0.707682 4.55333 0
M  V30 5714 H 533.529 0.482715 4.13593 0
M  V30 5715 H 536.126 -2.1989 4.87394 0
M  V30 5716 H 536.469 -2.63966 3.21913 0
M  V30 5717 H 537.002 -1.05651 3.83514 0
M  V30 5718 H 533.741 0.21095 6.5516 0
M  V30 5719 H 533.261 -1.34879 5.84438 0
M  V30 5720 H 534.94 -1.08704 6.37803 0
M  V30 5721 N 535.072 -1.5615 -0.213296 0
M  V30 5722 C 536.321 -1.78743 -0.93455 0
M  V30 5723 C 536.634 -0.630199 -1.8517 0
M  V30 5724 O 537.84 -0.739966 -2.61222 0
M  V30 5725 C 536.296 -3.16571 -1.71203 0
M  V30 5726 C 535.904 -4.40043 -0.840617 0
M  V30 5727 C 537.648 -3.48485 -2.42401 0
M  V30 5728 C 535.555 -5.68895 -1.61592 0
M  V30 5729 H 534.485 -0.666426 -0.352692 0
M  V30 5730 H 537.136 -1.82532 -0.188227 0
M  V30 5731 H 535.518 -3.06981 -2.50157 0
M  V30 5732 H 536.692 -4.6071 -0.0910326 0
M  V30 5733 H 535.007 -4.15706 -0.240365 0
M  V30 5734 H 537.604 -4.41983 -3.00924 0
M  V30 5735 H 537.947 -2.71371 -3.15695 0
M  V30 5736 H 538.48 -3.59442 -1.7043 0
M  V30 5737 H 535.219 -6.48925 -0.926106 0
M  V30 5738 H 534.739 -5.52275 -2.33991 0
M  V30 5739 H 536.418 -6.09365 -2.17447 0
M  V30 5740 N 536.55 0.480323 -1.50102 0
M  V30 5741 C 537.482 1.59669 -1.64433 0
M  V30 5742 C 538.495 1.54063 -0.52615 0
M  V30 5743 O 539.684 1.59619 -0.798992 0
M  V30 5744 C 536.784 2.98527 -1.6042 0
M  V30 5745 C 535.957 3.291 -2.88117 0
M  V30 5746 C 535.016 4.47468 -2.76873 0
M  V30 5747 O 534.042 4.4823 -3.50825 0
M  V30 5748 N 535.244 5.48593 -1.89806 0
M  V30 5749 H 538.009 1.47795 -2.60723 0
M  V30 5750 H 535.57 0.66858 -1.4745 0
M  V30 5751 H 537.562 3.75666 -1.50523 0
M  V30 5752 H 536.132 3.04218 -0.719036 0
M  V30 5753 H 535.352 2.40662 -3.12211 0
M  V30 5754 H 536.64 3.46334 -3.72734 0
M  V30 5755 H 536.038 5.50791 -1.2902 0
M  V30 5756 H 534.595 6.24752 -1.85819 0
M  V30 5757 N 538.028 1.39524 0.732853 0
M  V30 5758 C 539.274 1.37068 1.49467 0
M  V30 5759 C 539.607 -0.0327166 1.94172 0
M  V30 5760 O 538.882 -0.998071 1.66939 0
M  V30 5761 C 539.165 2.34494 2.73285 0
M  V30 5762 C 539.018 3.83784 2.34585 0
M  V30 5763 C 540.337 2.29717 3.75391 0
M  V30 5764 H 537.456 0.499206 0.542183 0
M  V30 5765 H 540.098 1.70532 0.837783 0
M  V30 5766 H 538.248 2.06087 3.29333 0
M  V30 5767 H 539.92 4.22949 1.84151 0
M  V30 5768 H 538.163 4.00455 1.66787 0
M  V30 5769 H 538.834 4.47444 3.23262 0
M  V30 5770 H 541.31 2.54839 3.28932 0
M  V30 5771 H 540.186 2.99962 4.59689 0
M  V30 5772 H 540.447 1.30291 4.22465 0
M  V30 5773 N 539.506 -0.963266 1.24736 0
M  V30 5774 C 540.917 -1.52145 1.08207 0
M  V30 5775 C 541.268 -1.93142 -0.345061 0
M  V30 5776 O 540.393 -1.77769 -1.23399 0
M  V30 5777 C 540.988 -2.76486 1.95808 0
M  V30 5778 C 539.547 -3.28646 1.8349 0
M  V30 5779 C 538.694 -2.01529 1.90476 0
M  V30 5780 H 541.645 -0.781083 1.38148 0
M  V30 5781 H 541.666 -3.49986 1.49297 0
M  V30 5782 H 541.178 -2.46617 2.99669 0
M  V30 5783 H 539.279 -3.63357 0.824787 0
M  V30 5784 H 539.392 -3.97246 2.67829 0
M  V30 5785 H 537.756 -2.16442 1.34258 0
M  V30 5786 H 538.539 -1.7402 2.95926 0
M  V30 5787 N 540.985 -1.06182 -1.16461 0
M  V30 5788 C 542.234 -0.772927 -1.86303 0
M  V30 5789 C 542.547 0.703187 -1.82523 0
M  V30 5790 O 543.753 1.10641 -2.47933 0
M  V30 5791 C 542.209 -1.33249 -3.34324 0
M  V30 5792 C 541.817 -2.83876 -3.46581 0
M  V30 5793 C 543.561 -1.12108 -4.09429 0
M  V30 5794 C 541.468 -3.33082 -4.88682 0
M  V30 5795 H 540.398 -0.285452 -0.697878 0
M  V30 5796 H 543.049 -1.28039 -1.31447 0
M  V30 5797 H 541.431 -0.7528 -3.88779 0
M  V30 5798 H 542.605 -3.47786 -3.02293 0
M  V30 5799 H 540.92 -3.03671 -2.84909 0
M  V30 5800 H 543.517 -1.46361 -5.14279 0
M  V30 5801 H 543.86 -0.0593832 -4.16258 0
M  V30 5802 H 544.393 -1.6665 -3.6121 0
M  V30 5803 H 541.132 -4.38726 -4.87032 0
M  V30 5804 H 540.652 -2.73919 -5.33599 0
M  V30 5805 H 542.331 -3.28344 -5.57494 0
M  V30 5806 N 542.463 1.3308 -0.844243 0
M  V30 5807 C 543.393 2.3161 -0.296493 0
M  V30 5808 C 544.374 1.59215 0.598707 0
M  V30 5809 O 545.559 1.87077 0.521134 0
M  V30 5810 C 542.689 3.43313 0.524762 0
M  V30 5811 C 541.643 4.27115 -0.275106 0
M  V30 5812 C 540.969 5.30483 0.670236 0
M  V30 5813 C 542.269 5.00443 -1.49514 0
M  V30 5814 H 543.963 2.77672 -1.11976 0
M  V30 5815 H 541.509 1.33496 -0.539899 0
M  V30 5816 H 543.462 4.11273 0.918298 0
M  V30 5817 H 542.186 2.95952 1.3813 0
M  V30 5818 H 540.845 3.60787 -0.650267 0
M  V30 5819 H 540.493 4.79379 1.52332 0
M  V30 5820 H 540.193 5.87435 0.139123 0
M  V30 5821 H 541.717 6.01308 1.06117 0
M  V30 5822 H 543.131 5.61141 -1.17447 0
M  V30 5823 H 541.528 5.67071 -1.96343 0
M  V30 5824 H 542.598 4.28906 -2.26202 0
M  V30 5825 N 543.941 0.601185 1.45683 0
M  V30 5826 C 544.904 -0.111398 2.28929 0
M  V30 5827 C 545.904 -0.801246 1.39416 0
M  V30 5828 O 547.094 -0.650383 1.61603 0
M  V30 5829 C 544.226 -1.16773 3.20276 0
M  V30 5830 H 545.419 0.620412 2.93413 0
M  V30 5831 H 542.972 0.359946 1.52099 0
M  V30 5832 H 543.707 -1.93051 2.60579 0
M  V30 5833 H 543.492 -0.677358 3.86205 0
M  V30 5834 H 544.982 -1.66698 3.82886 0
M  V30 5835 N 545.419 -1.53889 0.339982 0
M  V30 5836 C 546.644 -2.05741 -0.261798 0
M  V30 5837 C 547.069 -1.21354 -1.43718 0
M  V30 5838 O 546.427 -0.22645 -1.7988 0
M  V30 5839 C 546.475 -3.54542 -0.658228 0
M  V30 5840 O 545.579 -3.7302 -1.75869 0
M  V30 5841 H 544.92 -0.662529 -0.0441672 0
M  V30 5842 H 547.45 -1.98568 0.493161 0
M  V30 5843 H 547.46 -3.9711 -0.936368 0
M  V30 5844 H 546.135 -4.15412 0.201358 0
M  V30 5845 H 544.712 -3.42355 -1.47809 0
M  V30 5846 N 546.897 -0.0685191 -1.57451 0
M  V30 5847 C 548.146 0.600898 -1.92541 0
M  V30 5848 C 548.459 1.70967 -0.950239 0
M  V30 5849 O 549.665 2.43844 -1.19384 0
M  V30 5850 C 548.121 1.12019 -3.42023 0
M  V30 5851 C 547.729 0.0426028 -4.4798 0
M  V30 5852 C 549.473 1.76386 -3.86119 0
M  V30 5853 C 547.38 0.575759 -5.88591 0
M  V30 5854 H 546.31 0.228225 -0.71863 0
M  V30 5855 H 548.961 -0.140223 -1.82963 0
M  V30 5856 H 547.343 1.91418 -3.46663 0
M  V30 5857 H 548.517 -0.73182 -4.54952 0
M  V30 5858 H 546.832 -0.504642 -4.13331 0
M  V30 5859 H 549.429 2.17302 -4.88553 0
M  V30 5860 H 549.772 2.62255 -3.23308 0
M  V30 5861 H 550.305 1.03615 -3.84069 0
M  V30 5862 H 547.044 -0.245691 -6.55039 0
M  V30 5863 H 546.564 1.31778 -5.85145 0
M  V30 5864 H 548.243 1.0532 -6.3837 0
M  V30 5865 N 548.375 1.56261 0.205012 0
M  V30 5866 C 549.621 1.80306 0.9283 0
M  V30 5867 C 549.954 0.640932 1.83319 0
M  V30 5868 O 549.229 -0.359032 1.91158 0
M  V30 5869 C 549.512 3.14547 1.75306 0
M  V30 5870 C 549.365 4.41236 0.873562 0
M  V30 5871 C 550.684 3.45382 2.72762 0
M  V30 5872 H 547.803 0.655929 0.336044 0
M  V30 5873 H 550.445 1.88984 0.196211 0
M  V30 5874 H 548.595 3.0728 2.37721 0
M  V30 5875 H 550.267 4.60539 0.264887 0
M  V30 5876 H 548.51 4.33427 0.179773 0
M  V30 5877 H 549.181 5.31639 1.48541 0
M  V30 5878 H 551.657 3.52884 2.20481 0
M  V30 5879 H 550.533 4.40449 3.2756 0
M  V30 5880 H 550.794 2.68377 3.51321 0
M  V30 5881 N 549.853 -0.472356 1.50355 0
M  V30 5882 C 550.783 -1.57859 1.72055 0
M  V30 5883 C 551.764 -1.60283 0.569505 0
M  V30 5884 O 552.949 -1.7657 0.808503 0
M  V30 5885 C 550.079 -2.96191 1.81351 0
M  V30 5886 C 549.033 -3.08633 2.96529 0
M  V30 5887 C 548.359 -4.486 2.90968 0
M  V30 5888 C 549.659 -2.85969 4.37057 0
M  V30 5889 H 551.353 -1.39953 2.64676 0
M  V30 5890 H 548.899 -0.671846 1.27367 0
M  V30 5891 H 550.852 -3.73507 1.95117 0
M  V30 5892 H 549.576 -3.15251 0.853502 0
M  V30 5893 H 548.235 -2.33749 2.82413 0
M  V30 5894 H 547.883 -4.64577 1.92815 0
M  V30 5895 H 547.583 -4.57861 3.68289 0
M  V30 5896 H 549.107 -5.27938 3.0678 0
M  V30 5897 H 550.521 -3.53036 4.51706 0
M  V30 5898 H 548.918 -3.06677 5.15819 0
M  V30 5899 H 549.988 -1.81838 4.49514 0
M  V30 5900 N 551.331 -1.39911 -0.725443 0
M  V30 5901 C 552.279 -1.39552 -1.86086 0
M  V30 5902 C 553.273 -0.277334 -1.67114 0
M  V30 5903 O 554.479 -0.447865 -1.74339 0
M  V30 5904 H 550.854 -0.435993 -0.612711 0
M  V30 5905 H 552.825 -2.35305 -1.83505 0
M  V30 5906 C 551.574 -1.26529 -3.2386 0
M  V30 5907 H 550.897 -2.11845 -3.3906 0
M  V30 5908 H 552.337 -1.30336 -4.03471 0
M  V30 5909 C 550.796 0.0254168 -3.3689 0
M  V30 5910 O 551.326 0.992048 -3.89257 0
M  V30 5911 N 549.532 0.0916528 -2.90455 0
M  V30 5912 H 549.079 -0.695675 -2.48028 0
M  V30 5913 H 549.037 0.954745 -2.99553 0
M  V30 5914 N 552.809 0.956637 -1.25245 0
M  V30 5915 C 554.056 1.701 -1.09874 0
M  V30 5916 C 554.384 1.91128 0.36062 0
M  V30 5917 O 553.639 1.47837 1.28229 0
M  V30 5918 C 553.938 3.08996 -1.79601 0
M  V30 5919 C 553.604 3.07774 -3.29523 0
M  V30 5920 C 552.266 3.07149 -3.70423 0
M  V30 5921 C 554.618 3.01257 -4.25316 0
M  V30 5922 C 551.946 2.97752 -5.0553 0
M  V30 5923 C 554.298 2.93403 -5.60444 0
M  V30 5924 C 552.962 2.91111 -6.00675 0
M  V30 5925 H 552.232 0.62244 -0.402056 0
M  V30 5926 H 554.879 1.1178 -1.55491 0
M  V30 5927 H 553.184 3.70848 -1.26408 0
M  V30 5928 H 554.881 3.65407 -1.65162 0
M  V30 5929 H 551.471 3.09032 -2.9698 0
M  V30 5930 H 555.655 3.00861 -3.9471 0
M  V30 5931 H 550.911 2.94346 -5.35883 0
M  V30 5932 H 555.085 2.87321 -6.34366 0
M  V30 5933 H 552.712 2.83586 -7.05325 0
M  V30 5934 N 554.287 1.06798 1.15896 0
M  V30 5935 C 555.536 0.782796 1.8589 0
M  V30 5936 C 555.849 -0.693498 1.82893 0
M  V30 5937 O 557.055 -1.09325 2.48516 0
M  V30 5938 C 555.511 1.3502 3.33613 0
M  V30 5939 C 555.119 2.8571 3.45071 0
M  V30 5940 C 556.863 1.14278 4.08829 0
M  V30 5941 C 554.77 3.35669 4.86909 0
M  V30 5942 H 553.7 0.289149 0.696354 0
M  V30 5943 H 556.351 1.28734 1.30766 0
M  V30 5944 H 554.733 0.773407 3.88374 0
M  V30 5945 H 555.907 3.49385 3.00445 0
M  V30 5946 H 554.222 3.05178 2.83294 0
M  V30 5947 H 556.819 1.49087 5.13495 0
M  V30 5948 H 557.162 0.0814575 4.1622 0
M  V30 5949 H 557.695 1.68563 3.60321 0
M  V30 5950 H 554.434 4.41302 4.84698 0
M  V30 5951 H 553.954 2.76745 5.32139 0
M  V30 5952 H 555.633 3.31296 5.55745 0
M  V30 5953 N 555.766 -1.3263 0.851289 0
M  V30 5954 C 556.696 -2.31449 0.308771 0
M  V30 5955 C 557.677 -1.59531 -0.590255 0
M  V30 5956 O 558.862 -1.87351 -0.511205 0
M  V30 5957 C 555.992 -3.43586 -0.506548 0
M  V30 5958 C 554.946 -4.26963 0.297753 0
M  V30 5959 C 554.272 -5.30831 -0.642094 0
M  V30 5960 C 555.572 -4.99643 1.52166 0
M  V30 5961 H 557.266 -2.77074 1.13447 0
M  V30 5962 H 554.812 -1.33207 0.546971 0
M  V30 5963 H 556.765 -4.11754 -0.896474 0
M  V30 5964 H 555.489 -2.96681 -1.36558 0
M  V30 5965 H 554.148 -3.60437 0.669391 0
M  V30 5966 H 553.796 -4.8018 -1.49788 0
M  V30 5967 H 553.496 -5.87501 -0.107968 0
M  V30 5968 H 555.02 -6.01862 -1.02927 0
M  V30 5969 H 556.434 -5.6051 1.20421 0
M  V30 5970 H 554.831 -5.66022 1.99347 0
M  V30 5971 H 555.901 -4.27701 2.28474 0
M  V30 5972 N 557.244 -0.608902 -1.45362 0
M  V30 5973 C 558.491 -0.104607 -2.0223 0
M  V30 5974 C 558.819 1.26534 -1.47714 0
M  V30 5975 O 558.074 1.84855 -0.642435 0
M  V30 5976 C 558.373 -0.0167296 -3.57396 0
M  V30 5977 C 558.039 -1.32251 -4.31069 0
M  V30 5978 C 556.701 -1.68019 -4.50914 0
M  V30 5979 C 559.053 -2.18542 -4.73169 0
M  V30 5980 C 556.381 -2.89828 -5.10114 0
M  V30 5981 C 558.733 -3.39602 -5.33717 0
M  V30 5982 C 557.397 -3.7562 -5.51784 0
M  V30 5983 H 556.667 -0.0382785 -0.740011 0
M  V30 5984 H 559.314 -0.790782 -1.7441 0
M  V30 5985 H 557.619 0.752715 -3.84502 0
M  V30 5986 H 559.316 0.389634 -3.99103 0
M  V30 5987 H 555.906 -1.03411 -4.15938 0
M  V30 5988 H 560.09 -1.92208 -4.5757 0
M  V30 5989 H 555.346 -3.17839 -5.22291 0
M  V30 5990 H 559.52 -4.06716 -5.65292 0
M  V30 5991 H 557.147 -4.70093 -5.97425 0
M  V30 5992 N 558.722 1.53707 -0.348139 0
M  V30 5993 C 559.971 2.0017 0.247992 0
M  V30 5994 C 560.284 1.23983 1.51286 0
M  V30 5995 O 561.49 1.60946 2.18652 0
M  V30 5996 C 559.946 3.56515 0.492459 0
M  V30 5997 C 559.554 4.41562 -0.756777 0
M  V30 5998 C 561.298 4.11381 1.0472 0
M  V30 5999 C 559.205 5.89426 -0.482856 0
M  V30 6000 H 558.135 0.747806 0.0964452 0
M  V30 6001 H 560.786 1.77532 -0.464179 0
M  V30 6002 H 559.168 3.75236 1.26545 0
M  V30 6003 H 560.342 4.34615 -1.53122 0
M  V30 6004 H 558.657 3.97711 -1.23348 0
M  V30 6005 H 561.254 5.19468 1.26717 0
M  V30 6006 H 561.597 3.64885 2.00411 0
M  V30 6007 H 562.13 3.96389 0.334801 0
M  V30 6008 H 558.869 6.40164 -1.40962 0
M  V30 6009 H 558.389 5.99264 0.253416 0
M  V30 6010 H 560.068 6.4692 -0.101816 0
M  V30 6011 N 560.2 0.0768682 1.57412 0
M  V30 6012 C 561.148 -0.906229 2.1422 0
M  V30 6013 C 562.142 -1.30477 1.08037 0
M  V30 6014 O 563.348 -1.28143 1.2641 0
M  V30 6015 H 559.723 -0.310207 0.685037 0
M  V30 6016 H 561.694 -0.402228 2.95677 0
M  V30 6017 C 560.443 -2.16245 2.72274 0
M  V30 6018 H 559.766 -1.86463 3.53655 0
M  V30 6019 H 561.206 -2.83134 3.15613 0
M  V30 6020 C 559.665 -2.92437 1.67279 0
M  V30 6021 O 560.195 -3.86322 1.10081 0
M  V30 6022 N 558.401 -2.55637 1.38195 0
M  V30 6023 H 557.948 -1.79363 1.84897 0
M  V30 6024 H 557.906 -3.06919 0.681787 0
M  V30 6025 N 561.678 -1.56367 -0.196722 0
M  V30 6026 C 562.927 -1.79724 -0.915539 0
M  V30 6027 C 563.24 -0.649804 -1.84491 0
M  V30 6028 O 564.446 -0.767631 -2.60422 0
M  V30 6029 C 562.902 -3.18369 -1.67836 0
M  V30 6030 C 562.51 -4.4091 -0.793897 0
M  V30 6031 C 564.254 -3.51037 -2.38691 0
M  V30 6032 C 562.161 -5.70577 -1.55549 0
M  V30 6033 H 561.091 -0.67013 -0.345604 0
M  V30 6034 H 563.742 -1.82721 -0.168856 0
M  V30 6035 H 562.124 -3.09617 -2.46887 0
M  V30 6036 H 563.298 -4.60781 -0.042163 0
M  V30 6037 H 561.613 -4.15937 -0.19626 0
M  V30 6038 H 564.21 -4.4515 -2.96219 0
M  V30 6039 H 564.553 -2.74704 -3.12799 0
M  V30 6040 H 565.086 -3.61229 -1.66608 0
M  V30 6041 H 561.825 -6.49871 -0.857226 0
M  V30 6042 H 561.345 -5.54726 -2.2812 0
M  V30 6043 H 563.024 -6.11637 -2.10971 0
M  V30 6044 N 563.156 0.464375 -1.50603 0
M  V30 6045 C 564.402 1.21776 -1.62168 0
M  V30 6046 C 564.735 1.91476 -0.324154 0
M  V30 6047 O 564.01 1.8242 0.674782 0
M  V30 6048 C 564.293 2.25614 -2.80661 0
M  V30 6049 C 564.146 1.60175 -4.20314 0
M  V30 6050 C 565.465 3.26862 -2.94702 0
M  V30 6051 H 562.584 0.44137 -0.590222 0
M  V30 6052 H 565.226 0.510623 -1.8301 0
M  V30 6053 H 563.376 2.85923 -2.63021 0
M  V30 6054 H 565.048 1.03411 -4.4956 0
M  V30 6055 H 563.291 0.904697 -4.24261 0
M  V30 6056 H 563.962 2.35665 -4.99165 0
M  V30 6057 H 566.438 2.76582 -3.10872 0
M  V30 6058 H 565.314 3.96839 -3.79223 0
M  V30 6059 H 565.575 3.91382 -2.05603 0
M  V30 6060 N 564.634 1.40294 0.718013 0
M  V30 6061 C 566.05 1.2227 1.02577 0
M  V30 6062 C 566.25 0.0961976 2.0127 0
M  V30 6063 O 565.306 -0.546695 2.46511 0
M  V30 6064 C 566.619 2.56348 1.57182 0
M  V30 6065 C 568.167 2.6334 1.69178 0
M  V30 6066 C 568.642 3.9768 2.27188 0
M  V30 6067 N 570.133 3.99409 2.34578 0
M  V30 6068 C 570.868 5.00141 2.8044 0
M  V30 6069 N 570.364 6.11268 3.26073 0
M  V30 6070 N 572.157 4.87511 2.79802 0
M  V30 6071 H 564.308 2.12304 0.0637899 0
M  V30 6072 H 566.571 0.943632 0.0909036 0
M  V30 6073 H 566.277 3.3942 0.921262 0
M  V30 6074 H 566.151 2.77266 2.55741 0
M  V30 6075 H 568.538 1.80641 2.33351 0
M  V30 6076 H 568.619 2.46255 0.692247 0
M  V30 6077 H 568.263 4.80817 1.63638 0
M  V30 6078 H 568.193 4.12093 3.27852 0
M  V30 6079 H 570.684 3.19162 2.02346 0
M  V30 6080 H 570.997 6.84023 3.59628 0
M  V30 6081 H 569.342 6.14837 3.24038 0
M  V30 6082 H 572.533 3.9979 2.43487 0
M  V30 6083 H 572.706 5.66158 3.15228 0
M  V30 6084 N 566.112 -0.949982 1.2575 0
M  V30 6085 C 567.358 -1.69766 1.10938 0
M  V30 6086 C 567.691 -1.91056 -0.348028 0
M  V30 6087 O 566.966 -1.48488 -1.25625 0
M  V30 6088 C 567.249 -3.07779 1.86933 0
M  V30 6089 C 567.102 -2.9387 3.4053 0
M  V30 6090 C 568.421 -4.07749 1.65616 0
M  V30 6091 H 565.54 -0.616144 0.404396 0
M  V30 6092 H 568.182 -1.10394 1.54639 0
M  V30 6093 H 566.332 -3.58462 1.4979 0
M  V30 6094 H 568.004 -2.50476 3.87375 0
M  V30 6095 H 566.247 -2.29686 3.68004 0
M  V30 6096 H 566.918 -3.91719 3.88922 0
M  V30 6097 H 569.394 -3.65994 1.97959 0
M  V30 6098 H 568.27 -5.02348 2.21218 0
M  V30 6099 H 568.531 -4.38029 0.598595 0
M  V30 6100 N 567.59 -1.07411 -1.15328 0
M  V30 6101 C 568.52 -0.716472 -2.22236 0
M  V30 6102 C 569.501 0.296373 -1.67498 0
M  V30 6103 O 570.686 0.168989 -1.93463 0
M  V30 6104 C 567.816 -0.114142 -3.47112 0
M  V30 6105 C 566.77 -1.05421 -4.14814 0
M  V30 6106 C 566.096 -0.314604 -5.33774 0
M  V30 6107 C 567.396 -2.38808 -4.64508 0
M  V30 6108 H 569.09 -1.61029 -2.52408 0
M  V30 6109 H 566.636 -0.775702 -1.21321 0
M  V30 6110 H 568.589 0.148001 -4.2114 0
M  V30 6111 H 567.313 0.814755 -3.16274 0
M  V30 6112 H 565.972 -1.30128 -3.42728 0
M  V30 6113 H 565.62 0.617772 -4.99192 0
M  V30 6114 H 565.32 -0.941209 -5.80013 0
M  V30 6115 H 566.844 -0.0602747 -6.1057 0
M  V30 6116 H 568.258 -2.18424 -5.3006 0
M  V30 6117 H 566.655 -2.97069 -5.21412 0
M  V30 6118 H 567.725 -3.01067 -3.80114 0
M  V30 6119 N 569.068 1.32177 -0.85831 0
M  V30 6120 C 570.031 2.27086 -0.310588 0
M  V30 6121 C 571.031 1.51751 0.531806 0
M  V30 6122 O 572.221 1.70794 0.34279 0
M  V30 6123 C 569.353 3.36266 0.560179 0
M  V30 6124 H 570.546 2.77045 -1.1483 0
M  V30 6125 H 568.099 1.42911 -0.632942 0
M  V30 6126 H 568.834 2.9158 1.41956 0
M  V30 6127 H 568.619 3.92077 -0.0428473 0
M  V30 6128 H 570.109 4.06974 0.936056 0
M  V30 6129 N 570.547 0.616602 1.45037 0
M  V30 6130 C 571.775 0.121968 2.0654 0
M  V30 6131 C 572.19 -1.19743 1.45969 0
M  V30 6132 O 571.547 -1.73133 0.577168 0
M  V30 6133 C 571.598 -0.0145171 3.61497 0
M  V30 6134 O 571.319 1.25269 4.19809 0
M  V30 6135 C 572.82 -0.539555 4.40004 0
M  V30 6136 H 570.04 0.0729837 0.667019 0
M  V30 6137 H 572.584 0.846891 1.8614 0
M  V30 6138 H 570.739 -0.689809 3.81209 0
M  V30 6139 H 571.153 1.08816 5.13088 0
M  V30 6140 H 572.627 -0.584112 5.48901 0
M  V30 6141 H 573.104 -1.56368 4.10421 0
M  V30 6142 H 573.71 0.101995 4.25178 0
M  V30 6143 N 572.025 -1.5352 0.356285 0
M  V30 6144 C 572.972 -2.25439 -0.494569 0
M  V30 6145 C 573.942 -1.25752 -1.08516 0
M  V30 6146 O 575.127 -1.54513 -1.1194 0
M  V30 6147 C 572.267 -3.04011 -1.63313 0
M  V30 6148 C 571.38 -4.18574 -1.06862 0
M  V30 6149 C 570.515 -4.84607 -2.17552 0
M  V30 6150 C 569.554 -5.91218 -1.58518 0
M  V30 6151 N 568.691 -6.50979 -2.63003 0
M  V30 6152 H 573.531 -2.97737 0.125244 0
M  V30 6153 H 571.068 -1.46916 0.0735789 0
M  V30 6154 H 573.026 -3.47834 -2.30363 0
M  V30 6155 H 571.656 -2.33986 -2.22374 0
M  V30 6156 H 570.708 -3.79303 -0.288672 0
M  V30 6157 H 572.02 -4.95215 -0.596924 0
M  V30 6158 H 571.174 -5.31566 -2.92442 0
M  V30 6159 H 569.913 -4.07418 -2.6807 0
M  V30 6160 H 568.918 -5.4363 -0.821391 0
M  V30 6161 H 570.143 -6.70322 -1.08836 0
M  V30 6162 H 568.089 -5.76648 -3.12751 0
M  V30 6163 H 568.006 -7.23131 -2.20493 0
M  V30 6164 H 569.274 -7.02589 -3.37623 0
M  V30 6165 N 573.503 -0.0852151 -1.57369 0
M  V30 6166 C 574.433 0.874556 -2.16503 0
M  V30 6167 C 575.414 1.30111 -1.09568 0
M  V30 6168 O 576.599 1.36977 -1.37662 0
M  V30 6169 C 573.729 2.13731 -2.73745 0
M  V30 6170 C 572.683 1.84971 -3.85966 0
M  V30 6171 C 572.009 3.17991 -4.29867 0
M  V30 6172 C 573.309 1.14442 -5.09608 0
M  V30 6173 H 575.003 0.381899 -2.96954 0
M  V30 6174 H 572.549 0.18225 -1.42842 0
M  V30 6175 H 574.502 2.81302 -3.13763 0
M  V30 6176 H 573.226 2.65263 -1.90534 0
M  V30 6177 H 571.885 1.19801 -3.46473 0
M  V30 6178 H 571.533 3.6739 -3.4356 0
M  V30 6179 H 571.233 2.99534 -5.05523 0
M  V30 6180 H 572.757 3.86737 -4.72511 0
M  V30 6181 H 574.171 1.72105 -5.46857 0
M  V30 6182 H 572.568 1.06197 -5.90629 0
M  V30 6183 H 573.638 0.12559 -4.84737 0
M  V30 6184 N 574.981 1.5647 0.188427 0
M  V30 6185 C 576.397 1.50204 0.539532 0
M  V30 6186 C 576.597 0.78644 1.85519 0
M  V30 6187 O 575.653 0.339714 2.50204 0
M  V30 6188 C 576.966 2.94893 0.588103 0
M  V30 6189 C 578.514 3.05602 0.67648 0
M  V30 6190 C 578.989 4.51716 0.756101 0
M  V30 6191 N 580.48 4.55894 0.819451 0
M  V30 6192 C 581.215 5.66272 0.90134 0
M  V30 6193 N 580.711 6.86323 0.945118 0
M  V30 6194 N 582.504 5.54201 0.939043 0
M  V30 6195 H 574.655 2.01406 -0.674493 0
M  V30 6196 H 576.918 0.916828 -0.241103 0
M  V30 6197 H 576.624 3.50334 -0.309633 0
M  V30 6198 H 576.498 3.4861 1.44051 0
M  V30 6199 H 578.885 2.50206 1.56465 0
M  V30 6200 H 578.966 2.54999 -0.202262 0
M  V30 6201 H 578.61 5.07739 -0.12774 0
M  V30 6202 H 578.54 5.00058 1.65074 0
M  V30 6203 H 581.031 3.69452 0.794594 0
M  V30 6204 H 581.344 7.66194 1.0083 0
M  V30 6205 H 579.689 6.88968 0.913683 0
M  V30 6206 H 582.88 4.59333 0.901725 0
M  V30 6207 H 583.053 6.40247 0.999402 0
M  V30 6208 N 576.459 -0.456382 1.50847 0
M  V30 6209 C 577.369 -1.57805 1.73594 0
M  V30 6210 C 578.385 -1.62599 0.619476 0
M  V30 6211 O 579.561 -1.80195 0.899532 0
M  V30 6212 C 576.626 -2.93926 1.8387 0
M  V30 6213 C 575.687 -2.99402 3.07663 0
M  V30 6214 C 574.92 -4.29031 3.1744 0
M  V30 6215 O 575.143 -5.20358 2.33631 0
M  V30 6216 O 574.077 -4.40401 4.10281 0
M  V30 6217 H 577.903 -1.41531 2.68705 0
M  V30 6218 H 575.488 -0.637422 1.3512 0
M  V30 6219 H 577.37 -3.74747 1.92725 0
M  V30 6220 H 576.045 -3.10368 0.91944 0
M  V30 6221 H 574.952 -2.17606 3.043 0
M  V30 6222 H 576.285 -2.87901 3.99216 0
M  V30 6223 N 577.937 -1.40673 -0.710563 0
M  V30 6224 C 579.165 -1.42547 -1.4996 0
M  V30 6225 C 579.58 -0.0265485 -1.88781 0
M  V30 6226 O 578.937 0.950694 -1.55782 0
M  V30 6227 C 578.988 -2.32071 -2.77173 0
M  V30 6228 O 578.709 -3.66518 -2.39992 0
M  V30 6229 C 580.21 -2.42591 -3.71032 0
M  V30 6230 H 577.43 -0.486025 -0.462623 0
M  V30 6231 H 579.974 -1.84783 -0.876102 0
M  V30 6232 H 578.129 -1.93184 -3.35795 0
M  V30 6233 H 578.543 -4.14115 -3.21884 0
M  V30 6234 H 580.017 -3.09429 -4.57119 0
M  V30 6235 H 580.494 -1.4525 -4.14486 0
M  V30 6236 H 581.1 -2.82051 -3.18319 0
M  V30 6237 N 579.415 0.9433 -1.26252 0
M  V30 6238 C 580.363 2.06302 -1.07434 0
M  V30 6239 C 581.357 1.694 -0.00189471 0
M  V30 6240 O 582.563 1.79302 -0.158408 0
M  V30 6241 H 578.938 0.675453 -0.330556 0
M  V30 6242 H 580.909 2.19326 -2.02333 0
M  V30 6243 C 579.658 3.40125 -0.721817 0
M  V30 6244 H 578.981 3.68996 -1.5389 0
M  V30 6245 H 580.421 4.19295 -0.629922 0
M  V30 6246 C 578.88 3.31993 0.572902 0
M  V30 6247 O 579.41 3.67945 1.61182 0
M  V30 6248 N 577.616 2.85099 0.562748 0
M  V30 6249 H 577.163 2.5604 -0.283092 0
M  V30 6250 H 577.121 2.80041 1.42915 0
M  V30 6251 N 580.893 1.08022 1.14757 0
M  V30 6252 C 581.856 0.71048 2.1791 0
M  V30 6253 C 582.856 -0.252731 1.58801 0
M  V30 6254 O 584.046 -0.0327915 1.74169 0
M  V30 6255 C 581.178 0.0483203 3.40866 0
M  V30 6256 H 582.371 1.62384 2.52134 0
M  V30 6257 H 579.924 0.877595 1.29337 0
M  V30 6258 H 580.659 -0.876959 3.12218 0
M  V30 6259 H 580.444 0.741189 3.85031 0
M  V30 6260 H 581.934 -0.195471 4.17142 0
M  V30 6261 N 582.371 -1.3172 0.865308 0
M  V30 6262 C 583.619 -1.96487 0.472995 0
M  V30 6263 C 583.94 -1.68761 -0.976975 0
M  V30 6264 O 583.21 -1.00051 -1.68424 0
M  V30 6265 H 581.79 -0.726947 0.171922 0
M  V30 6266 H 584.452 -1.60612 1.10407 0
M  V30 6267 H 583.548 -3.0574 0.62687 0
M  V30 6268 N 583.85 -0.624285 -1.44708 0
M  V30 6269 C 585.266 -0.289322 -1.56956 0
M  V30 6270 C 585.466 1.20773 -1.61295 0
M  V30 6271 O 584.522 1.9915 -1.55227 0
M  V30 6272 C 585.835 -0.975215 -2.84447 0
M  V30 6273 C 587.383 -0.952709 -2.98148 0
M  V30 6274 C 587.858 -1.61893 -4.28433 0
M  V30 6275 N 589.349 -1.5852 -4.35231 0
M  V30 6276 C 590.084 -2.06969 -5.34744 0
M  V30 6277 N 589.58 -2.63579 -6.40701 0
M  V30 6278 N 591.373 -1.97638 -5.26209 0
M  V30 6279 H 583.524 -1.59612 -1.40135 0
M  V30 6280 H 585.787 -0.669592 -0.671081 0
M  V30 6281 H 585.493 -2.02999 -2.87201 0
M  V30 6282 H 585.367 -0.508749 -3.73753 0
M  V30 6283 H 587.754 0.093568 -2.94952 0
M  V30 6284 H 587.835 -1.4576 -2.10209 0
M  V30 6285 H 587.479 -2.66463 -4.32389 0
M  V30 6286 H 587.409 -1.08893 -5.15218 0
M  V30 6287 H 589.899 -1.17183 -3.59272 0
M  V30 6288 H 590.213 -2.98298 -7.12908 0
M  V30 6289 H 588.558 -2.67626 -6.41406 0
M  V30 6290 H 591.749 -1.5314 -4.42341 0
M  V30 6291 H 591.922 -2.35708 -6.03611 0
M  V30 6292 N 585.328 1.53329 -0.364422 0
M  V30 6293 C 586.568 2.0315 0.22572 0
M  V30 6294 C 586.932 1.24589 1.46087 0
M  V30 6295 O 588.133 1.64411 2.12656 0
M  V30 6296 C 586.404 3.53718 0.511663 0
M  V30 6297 S 587.963 4.25412 1.07564 0
M  V30 6298 H 584.781 0.70795 0.0657843 0
M  V30 6299 H 587.383 1.88811 -0.507019 0
M  V30 6300 H 586.087 4.08497 -0.394784 0
M  V30 6301 H 585.618 3.72217 1.27351 0
M  V30 6302 H 587.633 4.36486 2.35997 0
M  V30 6303 N 586.806 0.0935595 1.57322 0
M  V30 6304 C 588.083 -0.612692 1.85756 0
M  V30 6305 C 588.463 -1.86439 0.99013 0
M  V30 6306 O 587.811 -2.28416 0.0621362 0
M  V30 6307 C 588.021 -0.929547 3.36393 0
M  V30 6308 C 589.369 -1.29366 4.04413 0
M  V30 6309 O 590.393 -1.02061 3.41265 0
M  V30 6310 O 589.252 -1.80498 5.15832 0
M  V30 6311 H 586.346 -0.306444 0.768128 0
M  V30 6312 H 588.892 0.126141 1.69231 0
M  V30 6313 H 587.664 -0.0414766 3.91278 0
M  V30 6314 H 587.287 -1.72441 3.5826 0
M  V30 6315 N 588.284 -1.56567 -0.180126 0
M  V30 6316 C 589.512 -1.85618 -0.913972 0
M  V30 6317 C 589.927 -0.677892 -1.7621 0
M  V30 6318 O 589.284 0.353171 -1.7905 0
M  V30 6319 C 589.335 -3.13619 -1.79793 0
M  V30 6320 O 589.056 -4.26906 -0.98402 0
M  V30 6321 C 590.557 -3.55954 -2.64219 0
M  V30 6322 H 587.777 -0.616043 -0.265954 0
M  V30 6323 H 590.321 -2.03681 -0.182872 0
M  V30 6324 H 588.476 -2.97409 -2.48247 0
M  V30 6325 H 588.89 -4.9989 -1.58776 0
M  V30 6326 H 590.364 -4.48444 -3.21873 0
M  V30 6327 H 590.841 -2.79653 -3.38661 0
M  V30 6328 H 591.447 -3.74746 -2.01111 0
M  V30 6329 N 589.762 0.448376 -1.51087 0
M  V30 6330 C 591.178 0.783984 -1.39017 0
M  V30 6331 C 591.378 1.96087 -0.463904 0
M  V30 6332 O 590.434 2.52357 0.0850534 0
M  V30 6333 C 591.747 1.07471 -2.80839 0
M  V30 6334 C 593.295 1.17981 -2.89913 0
M  V30 6335 C 593.77 1.50354 -4.32617 0
M  V30 6336 N 595.261 1.57301 -4.35673 0
M  V30 6337 C 595.996 1.839 -5.4311 0
M  V30 6338 N 595.492 2.08365 -6.60724 0
M  V30 6339 N 597.285 1.8559 -5.30578 0
M  V30 6340 H 589.436 -0.326881 -2.0987 0
M  V30 6341 H 591.699 -0.0838006 -0.944289 0
M  V30 6342 H 591.405 0.282768 -3.50561 0
M  V30 6343 H 591.279 2.00519 -3.19487 0
M  V30 6344 H 593.666 1.9624 -2.20395 0
M  V30 6345 H 593.747 0.228603 -2.54776 0
M  V30 6346 H 593.391 0.726273 -5.0268 0
M  V30 6347 H 593.321 2.46663 -4.65258 0
M  V30 6348 H 595.812 1.40342 -3.50874 0
M  V30 6349 H 596.125 2.27999 -7.38401 0
M  V30 6350 H 594.47 2.0571 -6.63859 0
M  V30 6351 H 597.661 1.65989 -4.37682 0
M  V30 6352 H 597.834 2.05983 -6.1439 0
M  V30 6353 N 591.24 1.41047 0.703093 0
M  V30 6354 C 592.172 1.38228 1.82827 0
M  V30 6355 C 593.185 0.285637 1.60275 0
M  V30 6356 O 594.374 0.54685 1.69917 0
M  V30 6357 C 591.474 1.13136 3.19458 0
M  V30 6358 C 590.647 2.34695 3.69103 0
M  V30 6359 C 589.706 2.05574 4.84382 0
M  V30 6360 O 588.732 2.78549 4.96386 0
M  V30 6361 N 589.934 1.04135 5.71083 0
M  V30 6362 H 592.699 2.35203 1.85741 0
M  V30 6363 H 590.26 1.35562 0.885125 0
M  V30 6364 H 592.252 0.916183 3.94193 0
M  V30 6365 H 590.822 0.247836 3.11616 0
M  V30 6366 H 590.042 2.71963 2.85359 0
M  V30 6367 H 591.33 3.15705 3.99009 0
M  V30 6368 H 590.728 0.43722 5.64008 0
M  V30 6369 H 589.285 0.886078 6.45749 0
M  V30 6370 N 592.718 -0.936591 1.26751 0
M  V30 6371 C 593.65 -2.03991 1.045 0
M  V30 6372 C 594.663 -1.628 0.00394261 0
M  V30 6373 O 595.852 -1.76817 0.244526 0
M  V30 6374 C 592.952 -3.34218 0.561403 0
M  V30 6375 C 592.125 -4.04151 1.67274 0
M  V30 6376 C 591.184 -5.12651 1.1864 0
M  V30 6377 O 590.21 -5.37104 1.88437 0
M  V30 6378 N 591.412 -5.80488 0.037278 0
M  V30 6379 H 594.177 -2.23644 1.99508 0
M  V30 6380 H 591.738 -1.10638 1.18198 0
M  V30 6381 H 593.73 -4.04101 0.220136 0
M  V30 6382 H 592.3 -3.11203 -0.295211 0
M  V30 6383 H 591.52 -3.28121 2.18472 0
M  V30 6384 H 592.808 -4.47626 2.41885 0
M  V30 6385 H 592.206 -5.63064 -0.545494 0
M  V30 6386 H 590.763 -6.5134 -0.244877 0
M  V30 6387 N 594.196 -1.08629 -1.14182 0
M  V30 6388 C 595.426 -0.837673 -1.88856 0
M  V30 6389 C 595.834 0.614024 -1.78959 0
M  V30 6390 O 595.177 1.43384 -1.14833 0
M  V30 6391 C 595.239 -1.18355 -3.39459 0
M  V30 6392 C 594.903 -2.63848 -3.73139 0
M  V30 6393 C 595.9 -3.62099 -3.73069 0
M  V30 6394 C 593.585 -2.99761 -4.03049 0
M  V30 6395 C 595.579 -4.94292 -4.02435 0
M  V30 6396 C 593.266 -4.32147 -4.32078 0
M  V30 6397 C 594.264 -5.29223 -4.31755 0
M  V30 6398 O 593.952 -6.59229 -4.60079 0
M  V30 6399 H 593.684 -0.301609 -0.604986 0
M  V30 6400 H 596.238 -1.44961 -1.45518 0
M  V30 6401 H 594.468 -0.514628 -3.8326 0
M  V30 6402 H 596.157 -0.915391 -3.95443 0
M  V30 6403 H 596.923 -3.35698 -3.50046 0
M  V30 6404 H 592.802 -2.2484 -4.02453 0
M  V30 6405 H 596.346 -5.70055 -4.02098 0
M  V30 6406 H 592.243 -4.58296 -4.54571 0
M  V30 6407 H 593.011 -6.64578 -4.77785 0
M  V30 6408 N 595.674 1.31259 -0.872281 0
M  V30 6409 C 597.09 1.49283 -0.564521 0
M  V30 6410 C 597.29 1.80243 0.900807 0
M  V30 6411 O 596.346 1.88246 1.68284 0
M  V30 6412 C 597.659 2.62503 -1.46673 0
M  V30 6413 C 599.207 2.76386 -1.46901 0
M  V30 6414 C 599.682 3.92705 -2.35684 0
M  V30 6415 N 601.173 3.99995 -2.33577 0
M  V30 6416 C 601.908 4.89276 -2.98992 0
M  V30 6417 N 601.404 5.83443 -3.73585 0
M  V30 6418 N 603.197 4.82541 -2.88289 0
M  V30 6419 H 595.348 1.09432 -1.82039 0
M  V30 6420 H 597.611 0.540949 -0.77851 0
M  V30 6421 H 597.317 2.46407 -2.50951 0
M  V30 6422 H 597.191 3.58695 -1.16696 0
M  V30 6423 H 599.578 2.91894 -0.433796 0
M  V30 6424 H 599.659 1.80853 -1.80903 0
M  V30 6425 H 599.303 3.77954 -3.39283 0
M  V30 6426 H 599.233 4.87549 -1.99006 0
M  V30 6427 H 601.724 3.32624 -1.7936 0
M  V30 6428 H 602.037 6.48303 -4.20622 0
M  V30 6429 H 600.382 5.83415 -3.77694 0
M  V30 6430 H 603.573 4.07951 -2.2955 0
M  V30 6431 H 603.746 5.51916 -3.39549 0
M  V30 6432 N 597.152 0.631951 1.44375 0
M  V30 6433 C 598.099 -0.0724807 2.30686 0
M  V30 6434 C 599.069 -0.835975 1.43529 0
M  V30 6435 O 600.254 -0.816849 1.7243 0
M  V30 6436 C 597.394 -1.04753 3.28817 0
M  V30 6437 C 596.507 -0.282367 4.31076 0
M  V30 6438 C 595.642 -1.2493 5.163 0
M  V30 6439 C 594.681 -0.473349 6.10267 0
M  V30 6440 N 593.818 -1.39079 6.88187 0
M  V30 6441 H 598.658 0.669477 2.90383 0
M  V30 6442 H 596.195 0.341927 1.43071 0
M  V30 6443 H 598.153 -1.62623 3.842 0
M  V30 6444 H 596.783 -1.75661 2.70819 0
M  V30 6445 H 595.835 0.412268 3.78159 0
M  V30 6446 H 597.147 0.321955 4.9776 0
M  V30 6447 H 596.301 -1.89931 5.76204 0
M  V30 6448 H 595.04 -1.88755 4.49692 0
M  V30 6449 H 594.045 0.190142 5.49471 0
M  V30 6450 H 595.27 0.16019 6.78911 0
M  V30 6451 H 593.216 -2.01623 6.24247 0
M  V30 6452 H 593.133 -0.840513 7.51313 0
M  V30 6453 H 594.401 -2.02961 7.52613 0
M  V30 6454 N 598.631 -1.53133 0.372548 0
M  V30 6455 C 599.561 -2.28876 -0.462412 0
M  V30 6456 C 600.542 -1.31583 -1.07796 0
M  V30 6457 O 601.727 -1.60461 -1.09389 0
M  V30 6458 C 598.857 -3.08317 -1.59868 0
M  V30 6459 C 597.811 -4.13355 -1.11003 0
M  V30 6460 C 597.137 -4.8092 -2.33708 0
M  V30 6461 C 598.437 -5.21955 -0.18983 0
M  V30 6462 H 600.131 -2.9892 0.169511 0
M  V30 6463 H 597.677 -1.43761 0.0829658 0
M  V30 6464 H 599.63 -3.60055 -2.18949 0
M  V30 6465 H 598.354 -2.35976 -2.25794 0
M  V30 6466 H 597.013 -3.62573 -0.541869 0
M  V30 6467 H 596.661 -4.05144 -2.98106 0
M  V30 6468 H 596.361 -5.51904 -2.01682 0
M  V30 6469 H 597.885 -5.35455 -2.93462 0
M  V30 6470 H 599.299 -5.69153 -0.688319 0
M  V30 6471 H 597.696 -6.00087 0.0398887 0
M  V30 6472 H 598.766 -4.78811 0.766057 0
M  V30 6473 N 600.109 -0.101901 -1.5727 0
M  V30 6474 C 601.039 0.851544 -2.17419 0
M  V30 6475 C 602.02 1.28942 -1.10941 0
M  V30 6476 O 603.205 1.35509 -1.39107 0
M  V30 6477 C 600.335 2.10816 -2.75996 0
M  V30 6478 C 599.289 1.80867 -3.87906 0
M  V30 6479 C 598.615 3.13413 -4.33216 0
M  V30 6480 C 599.915 1.0903 -5.10793 0
M  V30 6481 H 601.609 0.350381 -2.97343 0
M  V30 6482 H 599.155 0.16709 -1.43027 0
M  V30 6483 H 601.108 2.77959 -3.16729 0
M  V30 6484 H 599.832 2.63227 -1.93337 0
M  V30 6485 H 598.491 1.16119 -3.47724 0
M  V30 6486 H 598.139 3.63725 -3.47438 0
M  V30 6487 H 597.839 2.94155 -5.08671 0
M  V30 6488 H 599.363 3.81704 -4.76586 0
M  V30 6489 H 600.777 1.66295 -5.48652 0
M  V30 6490 H 599.174 0.99927 -5.91722 0
M  V30 6491 H 600.244 0.0741704 -4.84843 0
M  V30 6492 N 601.587 1.56661 0.17182 0
M  V30 6493 C 602.534 1.96371 1.21273 0
M  V30 6494 C 603.504 0.82756 1.44016 0
M  V30 6495 O 604.689 1.08764 1.56764 0
M  V30 6496 C 601.829 2.32838 2.54716 0
M  V30 6497 C 600.942 3.59628 2.39356 0
M  V30 6498 C 600.077 3.85311 3.65662 0
M  V30 6499 C 599.116 5.0545 3.45234 0
M  V30 6500 N 598.253 5.27268 4.63608 0
M  V30 6501 H 603.093 2.85106 0.86709 0
M  V30 6502 H 600.63 1.41073 0.416744 0
M  V30 6503 H 602.588 2.52004 3.3249 0
M  V30 6504 H 601.218 1.47214 2.87277 0
M  V30 6505 H 600.27 3.4838 1.52761 0
M  V30 6506 H 601.582 4.4756 2.20207 0
M  V30 6507 H 600.736 4.04841 4.51872 0
M  V30 6508 H 599.475 2.95753 3.8779 0
M  V30 6509 H 598.48 4.85819 2.5741 0
M  V30 6510 H 599.705 5.96538 3.24529 0
M  V30 6511 H 597.651 4.40662 4.85956 0
M  V30 6512 H 597.568 6.09422 4.4737 0
M  V30 6513 H 598.836 5.51277 5.51103 0
M  V30 6514 N 603.065 -0.440357 1.51323 0
M  V30 6515 C 604.29 -1.21716 1.67928 0
M  V30 6516 C 604.715 -1.84328 0.374826 0
M  V30 6517 O 604.073 -1.68675 -0.664706 0
M  V30 6518 C 604.121 -2.27914 2.79442 0
M  V30 6519 O 603.225 -3.33325 2.42834 0
M  V30 6520 H 602.566 -0.35674 0.560029 0
M  V30 6521 H 605.096 -0.520417 1.97871 0
M  V30 6522 H 605.106 -2.72746 3.03436 0
M  V30 6523 H 603.781 -1.8172 3.741 0
M  V30 6524 H 602.358 -2.9399 2.294 0
M  V30 6525 N 604.543 -1.41418 -0.695603 0
M  V30 6526 C 605.771 -1.4413 -1.48439 0
M  V30 6527 C 606.186 -0.0465698 -1.88743 0
M  V30 6528 O 605.543 0.934117 -1.56782 0
M  V30 6529 C 605.594 -2.34998 -2.74696 0
M  V30 6530 O 605.315 -3.69043 -2.36091 0
M  V30 6531 C 606.816 -2.46513 -3.68438 0
M  V30 6532 H 604.036 -0.490905 -0.457442 0
M  V30 6533 H 606.58 -1.85702 -0.856454 0
M  V30 6534 H 604.735 -1.96735 -3.33728 0
M  V30 6535 H 605.149 -4.17505 -3.17474 0
M  V30 6536 H 606.623 -3.1426 -4.53811 0
M  V30 6537 H 607.1 -1.49638 -4.12922 0
M  V30 6538 H 607.706 -2.85412 -3.1531 0
M  V30 6539 N 606.021 0.929856 -1.27246 0
M  V30 6540 C 606.951 2.04722 -1.12299 0
M  V30 6541 C 607.932 1.70082 -0.0250464 0
M  V30 6542 O 609.117 1.93176 -0.199141 0
M  V30 6543 C 606.247 3.38721 -0.767145 0
M  V30 6544 C 605.201 3.87466 -1.81808 0
M  V30 6545 C 604.527 5.18246 -1.31626 0
M  V30 6546 C 605.827 4.11095 -3.22177 0
M  V30 6547 H 607.521 2.17485 -2.05769 0
M  V30 6548 H 605.067 1.04503 -0.990715 0
M  V30 6549 H 607.02 4.16366 -0.649413 0
M  V30 6550 H 605.744 3.25967 0.203259 0
M  V30 6551 H 604.403 3.12012 -1.92468 0
M  V30 6552 H 604.051 5.01881 -0.335378 0
M  V30 6553 H 603.751 5.51829 -2.01887 0
M  V30 6554 H 605.275 5.98462 -1.21143 0
M  V30 6555 H 606.689 4.79316 -3.1453 0
M  V30 6556 H 605.086 4.55982 -3.90129 0
M  V30 6557 H 606.156 3.16468 -3.67391 0
M  V30 6558 N 607.499 1.09233 1.13605 0
M  V30 6559 C 608.745 0.828385 1.8511 0
M  V30 6560 C 609.078 -0.64437 1.83198 0
M  V30 6561 O 608.353 -1.47428 1.26867 0
M  V30 6562 C 608.636 1.36167 3.33363 0
M  V30 6563 C 608.489 2.90038 3.438 0
M  V30 6564 C 609.808 0.993819 4.28732 0
M  V30 6565 H 606.927 0.30239 0.672108 0
M  V30 6566 H 609.569 1.35339 1.33355 0
M  V30 6567 H 607.719 0.9151 3.77569 0
M  V30 6568 H 609.391 3.43128 3.08319 0
M  V30 6569 H 607.634 3.27271 2.84739 0
M  V30 6570 H 608.305 3.22428 4.48045 0
M  V30 6571 H 610.781 1.37893 3.92587 0
M  V30 6572 H 609.657 1.39403 5.30903 0
M  V30 6573 H 609.918 -0.0982206 4.41991 0
M  V30 6574 N 608.977 -1.30795 0.87923 0
M  V30 6575 C 609.907 -2.30742 0.357796 0
M  V30 6576 C 610.888 -1.60747 -0.556283 0
M  V30 6577 O 612.073 -1.88393 -0.47135 0
M  V30 6578 C 609.203 -3.44583 -0.433555 0
M  V30 6579 C 608.157 -4.26235 0.388251 0
M  V30 6580 C 607.483 -5.32073 -0.529352 0
M  V30 6581 C 608.783 -4.96303 1.62729 0
M  V30 6582 H 610.477 -2.74605 1.19299 0
M  V30 6583 H 608.023 -1.32017 0.575104 0
M  V30 6584 H 609.976 -4.13563 -0.808934 0
M  V30 6585 H 608.7 -2.99511 -1.30234 0
M  V30 6586 H 607.359 -3.58936 0.745695 0
M  V30 6587 H 607.007 -4.83249 -1.39569 0
M  V30 6588 H 606.707 -5.87598 0.0166741 0
M  V30 6589 H 608.231 -6.0391 -0.901373 0
M  V30 6590 H 609.645 -5.5783 1.32283 0
M  V30 6591 H 608.042 -5.61666 2.11309 0
M  V30 6592 H 609.112 -4.22758 2.37494 0
M  V30 6593 N 610.455 -0.639598 -1.44038 0
M  V30 6594 C 611.388 0.109736 -2.27936 0
M  V30 6595 C 612.366 0.843095 -1.39035 0
M  V30 6596 O 613.55 0.845456 -1.68476 0
M  V30 6597 C 610.677 1.16173 -3.18153 0
M  V30 6598 C 609.723 0.527954 -4.2322 0
M  V30 6599 S 610.556 -0.688318 -5.31058 0
M  V30 6600 C 611.712 0.363481 -6.24844 0
M  V30 6601 H 611.945 -0.601986 -2.91142 0
M  V30 6602 H 609.478 -0.42802 -1.48349 0
M  V30 6603 H 611.436 1.76372 -3.7068 0
M  V30 6604 H 610.097 1.84569 -2.54151 0
M  V30 6605 H 609.29 1.32054 -4.86393 0
M  V30 6606 H 608.892 0.000396444 -3.74 0
M  V30 6607 H 611.184 1.23362 -6.66174 0
M  V30 6608 H 612.127 -0.23288 -7.07717 0
M  V30 6609 H 612.535 0.693179 -5.60228 0
M  V30 6610 N 611.933 1.52934 -0.380664 0
M  V30 6611 C 613.344 1.86457 0.0952684 0
M  V30 6612 C 613.695 1.3007 1.46889 0
M  V30 6613 O 612.82 0.628636 2.07068 0
M  V30 6614 C 613.415 3.38323 0.179648 0
M  V30 6615 C 611.974 3.71589 0.599858 0
M  V30 6616 C 611.121 2.76228 -0.243572 0
M  V30 6617 H 614.072 1.46966 -0.59888 0
M  V30 6618 H 614.093 3.67113 1.00042 0
M  V30 6619 H 613.605 3.79333 -0.820228 0
M  V30 6620 H 611.706 3.36144 1.60742 0
M  V30 6621 H 611.819 4.77715 0.364003 0
M  V30 6622 H 610.183 2.53045 0.289855 0
M  V30 6623 H 610.966 3.20074 -1.24127 0
M  V30 6624 N 613.412 0.11024 1.57214 0
M  V30 6625 C 614.342 -0.840002 2.17867 0
M  V30 6626 C 615.323 -1.28352 1.11624 0
M  V30 6627 O 616.508 -1.3477 1.39824 0
M  V30 6628 C 613.638 -2.09349 2.77111 0
M  V30 6629 C 612.592 -1.78807 3.8886 0
M  V30 6630 C 611.918 -3.11112 4.34872 0
M  V30 6631 C 613.218 -1.0632 5.11364 0
M  V30 6632 H 614.912 -0.334608 2.97524 0
M  V30 6633 H 612.458 -0.159502 1.43114 0
M  V30 6634 H 614.411 -2.76275 3.18198 0
M  V30 6635 H 613.135 -2.62198 1.9473 0
M  V30 6636 H 611.794 -1.14273 3.48335 0
M  V30 6637 H 611.442 -3.61877 3.49362 0
M  V30 6638 H 611.142 -2.91453 5.10224 0
M  V30 6639 H 612.666 -3.79171 4.78604 0
M  V30 6640 H 614.08 -1.63383 5.49526 0
M  V30 6641 H 612.477 -0.967876 5.92243 0
M  V30 6642 H 613.547 -0.0484569 4.84876 0
M  V30 6643 N 614.89 -1.56749 -0.16351 0
M  V30 6644 C 616.137 -1.82434 -0.878866 0
M  V30 6645 C 616.465 -0.688557 -1.81904 0
M  V30 6646 O 615.72 0.323644 -1.93005 0
M  V30 6647 C 616.019 -3.14342 -1.70071 0
M  V30 6648 C 615.685 -4.41647 -0.908775 0
M  V30 6649 C 614.347 -4.76224 -0.690236 0
M  V30 6650 C 616.699 -5.19998 -0.353815 0
M  V30 6651 C 614.027 -5.86624 0.0942374 0
M  V30 6652 C 616.379 -6.3122 0.41761 0
M  V30 6653 C 615.043 -6.64358 0.646879 0
M  V30 6654 H 614.313 -0.667574 -0.3216 0
M  V30 6655 H 616.96 -1.90963 -0.14337 0
M  V30 6656 H 615.265 -3.0119 -2.50583 0
M  V30 6657 H 616.962 -3.31426 -2.25738 0
M  V30 6658 H 613.552 -4.1453 -1.08916 0
M  V30 6659 H 617.736 -4.93673 -0.509975 0
M  V30 6660 H 612.992 -6.10751 0.281529 0
M  V30 6661 H 617.166 -6.91133 0.854849 0
M  V30 6662 H 614.793 -7.49742 1.25662 0
M  V30 6663 N 616.368 0.432326 -1.51554 0
M  V30 6664 C 617.616 1.17901 -1.64146 0
M  V30 6665 C 617.937 1.91604 -0.362367 0
M  V30 6666 O 617.207 1.85764 0.621968 0
M  V30 6667 H 615.787 0.438206 -0.604966 0
M  V30 6668 H 618.449 0.495172 -1.88505 0
M  V30 6669 H 617.545 1.90584 -2.47152 0
M  V30 6670 N 617.846 1.41785 0.688094 0
M  V30 6671 C 619.092 1.41753 1.4503 0
M  V30 6672 C 619.425 0.0290745 1.94178 0
M  V30 6673 O 618.7 -0.944456 1.7003 0
M  V30 6674 C 618.983 2.43069 2.65686 0
M  V30 6675 C 618.836 3.91053 2.22256 0
M  V30 6676 C 620.155 2.41543 3.67893 0
M  V30 6677 H 617.274 0.516202 0.526027 0
M  V30 6678 H 619.916 1.73111 0.783105 0
M  V30 6679 H 618.066 2.1646 3.2261 0
M  V30 6680 H 619.738 4.28594 1.70602 0
M  V30 6681 H 617.981 4.05559 1.53963 0
M  V30 6682 H 618.652 4.57501 3.08863 0
M  V30 6683 H 621.128 2.65175 3.20658 0
M  V30 6684 H 620.004 3.14434 4.49914 0
M  V30 6685 H 620.265 1.43666 4.18106 0
M  V30 6686 N 619.324 -0.923095 1.27737 0
M  V30 6687 C 620.274 -2.01061 1.0751 0
M  V30 6688 C 621.258 -1.609 0.00165451 0
M  V30 6689 O 622.45 -1.75618 0.220724 0
M  V30 6690 C 619.579 -3.35467 0.729162 0
M  V30 6691 C 618.665 -3.82059 1.84098 0
M  V30 6692 N 619.056 -4.01115 3.08124 0
M  V30 6693 C 617.354 -4.11135 1.7287 0
M  V30 6694 C 618.055 -4.39989 3.80506 0
M  V30 6695 N 617.031 -4.47721 3.08297 0
M  V30 6696 H 620.833 -2.13832 2.01626 0
M  V30 6697 H 618.347 -1.11027 1.18519 0
M  V30 6698 H 620.344 -4.13049 0.565355 0
M  V30 6699 H 619.004 -3.24056 -0.204334 0
M  V30 6700 H 620.015 -3.87294 3.43836 0
M  V30 6701 H 616.692 -4.08412 0.866352 0
M  V30 6702 H 618.082 -4.62773 4.87125 0
M  V30 6703 N 620.802 -1.09834 -1.13024 0
M  V30 6704 C 622.032 -0.857657 -1.87957 0
M  V30 6705 C 622.44 0.595008 -1.796 0
M  V30 6706 O 621.783 1.42158 -1.16347 0
M  V30 6707 C 621.845 -1.21949 -3.38185 0
M  V30 6708 C 621.509 -2.67791 -3.7032 0
M  V30 6709 C 622.506 -3.66036 -3.69207 0
M  V30 6710 C 620.191 -3.04019 -3.99847 0
M  V30 6711 C 622.185 -4.98533 -3.9717 0
M  V30 6712 C 619.872 -4.36706 -4.27471 0
M  V30 6713 C 620.87 -5.33772 -4.26118 0
M  V30 6714 O 620.558 -6.64072 -4.53061 0
M  V30 6715 H 620.29 -0.308009 -0.601753 0
M  V30 6716 H 622.844 -1.46496 -1.43973 0
M  V30 6717 H 621.074 -0.555249 -3.82693 0
M  V30 6718 H 622.763 -0.957281 -3.9445 0
M  V30 6719 H 623.529 -3.39392 -3.46465 0
M  V30 6720 H 619.408 -2.29096 -4.00045 0
M  V30 6721 H 622.952 -5.74288 -3.96029 0
M  V30 6722 H 618.849 -4.63091 -4.49685 0
M  V30 6723 H 619.617 -6.69608 -4.7071 0
M  V30 6724 N 622.28 1.30327 -0.886154 0
M  V30 6725 C 623.529 1.95373 -0.501243 0
M  V30 6726 C 623.842 1.70722 0.954634 0
M  V30 6727 O 625.048 2.29761 1.44644 0
M  V30 6728 C 623.504 3.49828 -0.845493 0
M  V30 6729 C 623.112 3.83296 -2.31922 0
M  V30 6730 C 624.856 4.2118 -0.529838 0
M  V30 6731 C 622.763 5.30935 -2.60504 0
M  V30 6732 H 621.693 0.731274 -0.183722 0
M  V30 6733 H 624.344 1.48258 -1.08129 0
M  V30 6734 H 622.726 3.95522 -0.19452 0
M  V30 6735 H 623.9 3.48508 -3.01461 0
M  V30 6736 H 622.215 3.2505 -2.60253 0
M  V30 6737 H 624.812 5.29825 -0.720401 0
M  V30 6738 H 625.155 4.12902 0.530828 0
M  V30 6739 H 625.688 3.81173 -1.13806 0
M  V30 6740 H 622.427 5.44265 -3.65316 0
M  V30 6741 H 621.947 5.67019 -1.95575 0
M  V30 6742 H 623.626 5.98381 -2.46066 0
M  V30 6743 N 623.758 0.647228 1.43697 0
M  V30 6744 C 625.004 0.158422 2.0218 0
M  V30 6745 C 625.337 -1.22233 1.50907 0
M  V30 6746 O 624.612 -1.81478 0.699702 0
M  V30 6747 C 624.895 0.1627 3.59732 0
M  V30 6748 C 624.748 1.57694 4.21251 0
M  V30 6749 C 626.067 -0.504138 4.37203 0
M  V30 6750 H 623.186 0.059042 0.734631 0
M  V30 6751 H 625.828 0.826772 1.71069 0
M  V30 6752 H 623.978 -0.406414 3.86368 0
M  V30 6753 H 625.65 2.19618 4.05667 0
M  V30 6754 H 623.893 2.12603 3.7813 0
M  V30 6755 H 624.564 1.53183 5.3032 0
M  V30 6756 H 627.04 -0.0199841 4.16095 0
M  V30 6757 H 625.916 -0.470394 5.46881 0
M  V30 6758 H 626.177 -1.57726 4.13007 0
M  V30 6759 N 625.236 -1.5273 0.388769 0
M  V30 6760 C 626.483 -2.01573 -0.19359 0
M  V30 6761 C 626.811 -1.27525 -1.46859 0
M  V30 6762 O 626.066 -0.363926 -1.92286 0
M  V30 6763 C 626.365 -3.53765 -0.508445 0
M  V30 6764 C 626.031 -4.4582 0.674947 0
M  V30 6765 C 624.693 -4.70703 0.999596 0
M  V30 6766 C 627.045 -5.00138 1.46666 0
M  V30 6767 C 624.373 -5.47155 2.11751 0
M  V30 6768 C 626.725 -5.77812 2.57518 0
M  V30 6769 C 625.389 -6.00975 2.90492 0
M  V30 6770 H 624.659 -0.737606 -0.0708397 0
M  V30 6771 H 627.306 -1.84134 0.526006 0
M  V30 6772 H 625.611 -3.69274 -1.30936 0
M  V30 6773 H 627.308 -3.8905 -0.971664 0
M  V30 6774 H 623.898 -4.26616 0.411906 0
M  V30 6775 H 628.082 -4.8084 1.22909 0
M  V30 6776 H 623.338 -5.63314 2.3767 0
M  V30 6777 H 627.512 -6.18904 3.19267 0
M  V30 6778 H 625.139 -6.59998 3.77236 0
M  V30 6779 N 626.714 -0.118576 -1.57153 0
M  V30 6780 C 627.647 0.869046 -2.11004 0
M  V30 6781 C 628.625 1.26115 -1.02634 0
M  V30 6782 O 629.809 1.36228 -1.30285 0
M  V30 6783 C 626.936 2.16297 -2.6064 0
M  V30 6784 C 625.982 1.91896 -3.80891 0
M  V30 6785 S 626.815 1.13562 -5.2332 0
M  V30 6786 C 627.971 2.44135 -5.76324 0
M  V30 6787 H 628.204 0.411005 -2.94445 0
M  V30 6788 H 625.737 0.0951891 -1.54106 0
M  V30 6789 H 627.695 2.90642 -2.89892 0
M  V30 6790 H 626.356 2.59219 -1.77382 0
M  V30 6791 H 625.549 2.8777 -4.13768 0
M  V30 6792 H 625.151 1.25672 -3.52253 0
M  V30 6793 H 627.443 3.39976 -5.86022 0
M  V30 6794 H 628.386 2.15803 -6.74414 0
M  V30 6795 H 628.794 2.53483 -5.04387 0
M  V30 6796 N 628.193 1.56834 0.155195 0
M  V30 6797 C 629.156 1.96748 1.17571 0
M  V30 6798 C 630.156 0.853006 1.3631 0
M  V30 6799 O 631.346 1.11978 1.33441 0
M  V30 6800 C 628.478 2.27631 2.53765 0
M  V30 6801 H 629.671 2.88085 0.833498 0
M  V30 6802 H 627.224 1.51141 0.398242 0
M  V30 6803 H 627.959 1.39059 2.92973 0
M  V30 6804 H 627.744 3.0888 2.41527 0
M  V30 6805 H 629.234 2.59377 3.27282 0
M  V30 6806 N 629.671 -0.424282 1.51781 0
M  V30 6807 C 630.899 -1.1947 1.68921 0
M  V30 6808 C 631.314 -1.84683 0.39213 0
M  V30 6809 O 630.671 -1.71261 -0.630554 0
M  V30 6810 C 630.722 -2.26909 2.81416 0
M  V30 6811 O 630.443 -1.64361 4.061 0
M  V30 6812 C 631.944 -3.16945 3.09937 0
M  V30 6813 H 629.164 -0.359591 0.566511 0
M  V30 6814 H 631.708 -0.501139 1.98265 0
M  V30 6815 H 629.863 -2.91959 2.54635 0
M  V30 6816 H 630.277 -2.35468 4.68674 0
M  V30 6817 H 631.751 -3.88437 3.922 0
M  V30 6818 H 632.228 -3.78451 2.22871 0
M  V30 6819 H 632.834 -2.57581 3.38426 0
M  V30 6820 N 631.149 -1.42148 -0.680565 0
M  V30 6821 C 632.56 -1.3768 -1.26099 0
M  V30 6822 C 632.911 -0.0672348 -1.96085 0
M  V30 6823 O 632.036 0.834172 -1.99676 0
M  V30 6824 C 632.631 -2.49387 -2.29328 0
M  V30 6825 C 631.19 -2.4827 -2.82911 0
M  V30 6826 C 630.337 -2.2847 -1.57152 0
M  V30 6827 H 633.288 -1.51446 -0.474326 0
M  V30 6828 H 633.309 -2.19307 -3.10941 0
M  V30 6829 H 632.821 -3.44686 -1.78363 0
M  V30 6830 H 630.922 -1.56773 -3.38013 0
M  V30 6831 H 631.035 -3.45109 -3.3232 0
M  V30 6832 H 629.399 -1.76623 -1.83511 0
M  V30 6833 H 630.182 -3.25816 -1.0816 0
M  V30 6834 N 632.627 0.916307 -1.28225 0
M  V30 6835 C 633.857 1.69654 -1.17902 0
M  V30 6836 C 634.265 1.87331 0.265268 0
M  V30 6837 O 633.608 1.39828 1.19137 0
M  V30 6838 C 633.67 3.11024 -1.80289 0
M  V30 6839 C 633.334 3.16643 -3.29525 0
M  V30 6840 C 634.331 2.98032 -4.25997 0
M  V30 6841 C 632.016 3.39238 -3.70436 0
M  V30 6842 C 634.01 3.01924 -5.61356 0
M  V30 6843 C 631.697 3.42762 -5.05922 0
M  V30 6844 C 632.695 3.24125 -6.01192 0
M  V30 6845 O 632.383 3.27406 -7.34208 0
M  V30 6846 H 632.115 0.537197 -0.41036 0
M  V30 6847 H 634.669 1.15547 -1.69817 0
M  V30 6848 H 632.899 3.66662 -1.22865 0
M  V30 6849 H 634.588 3.71063 -1.6452 0
M  V30 6850 H 635.354 2.80405 -3.95725 0
M  V30 6851 H 631.233 3.52791 -2.96749 0
M  V30 6852 H 634.777 2.87295 -6.35694 0
M  V30 6853 H 630.674 3.59916 -5.35846 0
M  V30 6854 H 631.442 3.43784 -7.42802 0
M  V30 6855 N 634.105 1.10431 1.1244 0
M  V30 6856 C 635.333 0.868872 1.87772 0
M  V30 6857 C 635.748 -0.580645 1.7965 0
M  V30 6858 O 635.105 -1.40031 1.17036 0
M  V30 6859 C 635.156 1.30855 3.36986 0
M  V30 6860 O 634.877 2.70123 3.44914 0
M  V30 6861 C 636.378 1.107 4.29256 0
M  V30 6862 H 633.598 0.311868 0.59412 0
M  V30 6863 H 636.142 1.46897 1.42273 0
M  V30 6864 H 634.297 0.752126 3.80029 0
M  V30 6865 H 634.711 2.88923 4.37748 0
M  V30 6866 H 636.185 1.46378 5.32238 0
M  V30 6867 H 636.662 0.0456228 4.39176 0
M  V30 6868 H 637.268 1.64988 3.91994 0
M  V30 6869 N 635.583 -1.29855 0.893053 0
M  V30 6870 C 636.493 -2.31661 0.370157 0
M  V30 6871 C 637.509 -1.65677 -0.531723 0
M  V30 6872 O 638.685 -1.9691 -0.422902 0
M  V30 6873 C 635.75 -3.44388 -0.399741 0
M  V30 6874 C 634.811 -4.2598 0.532861 0
M  V30 6875 C 634.044 -5.33324 -0.200388 0
M  V30 6876 O 634.267 -5.52305 -1.42531 0
M  V30 6877 O 633.201 -6.00188 0.453668 0
M  V30 6878 H 637.027 -2.78354 1.2146 0
M  V30 6879 H 634.612 -1.34171 0.657153 0
M  V30 6880 H 636.494 -4.13037 -0.835358 0
M  V30 6881 H 635.169 -2.99815 -1.22035 0
M  V30 6882 H 634.076 -3.59998 1.01746 0
M  V30 6883 H 635.409 -4.74178 1.3197 0
M  V30 6884 N 637.061 -0.65484 -1.43351 0
M  V30 6885 C 638.307 -0.169142 -2.02093 0
M  V30 6886 C 638.64 1.21431 -1.51553 0
M  V30 6887 O 637.915 1.81105 -0.709317 0
M  V30 6888 C 638.198 -0.181775 -3.59641 0
M  V30 6889 C 638.051 -1.59926 -4.20409 0
M  V30 6890 C 639.37 0.480945 -4.37464 0
M  V30 6891 H 636.489 -0.0629371 -0.734308 0
M  V30 6892 H 639.131 -0.835833 -1.70628 0
M  V30 6893 H 637.281 0.385918 -3.86578 0
M  V30 6894 H 638.953 -2.21766 -4.04497 0
M  V30 6895 H 637.196 -2.14605 -3.76998 0
M  V30 6896 H 637.867 -1.55994 -5.295 0
M  V30 6897 H 640.343 -0.00208273 -4.161 0
M  V30 6898 H 639.219 0.441384 -5.47122 0
M  V30 6899 H 639.48 1.55533 -4.13838 0
M  V30 6900 N 638.539 1.52521 -0.396863 0
M  V30 6901 C 639.764 2.06571 0.185258 0
M  V30 6902 C 640.189 1.26605 1.39115 0
M  V30 6903 O 639.547 0.293055 1.78916 0
M  V30 6904 C 639.595 3.5674 0.526189 0
M  V30 6905 O 638.699 3.7929 1.61903 0
M  V30 6906 H 638.04 0.663712 0.0195474 0
M  V30 6907 H 640.57 1.966 -0.566519 0
M  V30 6908 H 640.58 4.00311 0.788338 0
M  V30 6909 H 639.255 4.14379 -0.355397 0
M  V30 6910 H 637.832 3.47605 1.35 0
M  V30 6911 N 640.017 0.126909 1.57088 0
M  V30 6912 C 641.265 -0.528123 1.95078 0
M  V30 6913 C 641.586 -1.66708 1.0116 0
M  V30 6914 O 640.856 -1.95777 0.0693527 0
M  V30 6915 H 639.436 -0.198087 0.720257 0
M  V30 6916 H 642.098 0.197703 1.93895 0
M  V30 6917 H 641.194 -0.917507 2.98309 0
M  V30 6918 N 641.495 -1.56914 -0.146875 0
M  V30 6919 C 642.723 -1.87515 -0.874394 0
M  V30 6920 C 643.138 -0.715116 -1.74733 0
M  V30 6921 O 642.495 0.315113 -1.79759 0
M  V30 6922 C 642.546 -3.17362 -1.731 0
M  V30 6923 O 642.267 -4.28897 -0.893245 0
M  V30 6924 C 643.768 -3.61479 -2.56609 0
M  V30 6925 H 640.988 -0.621546 -0.252827 0
M  V30 6926 H 643.532 -2.04023 -0.139627 0
M  V30 6927 H 641.687 -3.02608 -2.41883 0
M  V30 6928 H 642.101 -5.03146 -1.48137 0
M  V30 6929 H 643.575 -4.5517 -3.12289 0
M  V30 6930 H 644.052 -2.86773 -3.32653 0
M  V30 6931 H 644.658 -3.78927 -1.93117 0
M  V30 6932 N 642.974 0.416227 -1.52004 0
M  V30 6933 C 643.904 1.51365 -1.77795 0
M  V30 6934 C 644.885 1.58059 -0.628601 0
M  V30 6935 O 646.07 1.73447 -0.873478 0
M  V30 6936 C 643.2 2.89256 -1.92219 0
M  V30 6937 C 642.154 2.97415 -3.0778 0
M  V30 6938 C 641.48 4.37492 -3.07417 0
M  V30 6939 C 642.78 2.69551 -4.47369 0
M  V30 6940 H 644.474 1.30033 -2.69688 0
M  V30 6941 H 642.02 0.624112 -1.29772 0
M  V30 6942 H 643.973 3.66008 -2.08845 0
M  V30 6943 H 642.697 3.11866 -0.969917 0
M  V30 6944 H 641.356 2.23107 -2.90893 0
M  V30 6945 H 641.004 4.571 -2.09925 0
M  V30 6946 H 640.704 4.43877 -3.85029 0
M  V30 6947 H 642.228 5.16188 -3.26162 0
M  V30 6948 H 643.642 3.36028 -4.64497 0
M  V30 6949 H 642.039 2.87321 -5.26846 0
M  V30 6950 H 643.109 1.65029 -4.55953 0
M  V30 6951 N 644.452 1.42507 0.673017 0
M  V30 6952 C 645.698 1.44282 1.43367 0
M  V30 6953 C 646.053 0.0588239 1.9231 0
M  V30 6954 O 645.346 -0.919288 1.68106 0
M  V30 6955 C 645.54 2.40351 2.64511 0
M  V30 6956 C 645.369 3.87955 2.27423 0
M  V30 6957 C 644.139 4.56476 2.16697 0
M  V30 6958 C 646.337 4.7833 1.88957 0
M  V30 6959 N 644.319 5.89099 1.72731 0
M  V30 6960 C 645.69 6.00073 1.55923 0
M  V30 6961 C 647.745 4.65769 1.75965 0
M  V30 6962 C 646.448 7.10652 1.112 0
M  V30 6963 C 648.474 5.76332 1.32647 0
M  V30 6964 C 647.836 6.97188 1.00538 0
M  V30 6965 H 643.935 0.583134 0.521036 0
M  V30 6966 H 646.519 1.78547 0.776481 0
M  V30 6967 H 644.69 2.08145 3.27918 0
M  V30 6968 H 646.422 2.32694 3.31113 0
M  V30 6969 H 643.177 4.10712 2.35823 0
M  V30 6970 H 643.601 6.59446 1.53166 0
M  V30 6971 H 648.243 3.72808 1.99435 0
M  V30 6972 H 645.961 8.0346 0.864768 0
M  V30 6973 H 649.547 5.68625 1.23112 0
M  V30 6974 H 648.427 7.81287 0.675283 0
M  V30 6975 N 645.93 -0.909495 1.28709 0
M  V30 6976 C 646.862 -2.01729 1.08804 0
M  V30 6977 C 647.875 -1.62755 0.0384739 0
M  V30 6978 O 649.064 -1.76259 0.281977 0
M  V30 6979 C 646.164 -3.32952 0.63217 0
M  V30 6980 C 645.337 -4.00512 1.75809 0
M  V30 6981 C 644.396 -5.10019 1.29488 0
M  V30 6982 O 643.422 -5.32986 1.99787 0
M  V30 6983 N 644.624 -5.80278 0.1604 0
M  V30 6984 H 647.389 -2.19362 2.04207 0
M  V30 6985 H 644.95 -1.08106 1.20518 0
M  V30 6986 H 646.942 -4.03543 0.305802 0
M  V30 6987 H 645.512 -3.11759 -0.229134 0
M  V30 6988 H 644.732 -3.23413 2.25383 0
M  V30 6989 H 646.02 -4.42395 2.51325 0
M  V30 6990 H 645.418 -5.64094 -0.425937 0
M  V30 6991 H 643.975 -6.51713 -0.106663 0
M  V30 6992 N 647.408 -1.11026 -1.11852 0
M  V30 6993 C 648.654 -0.857729 -1.83768 0
M  V30 6994 C 648.987 0.615143 -1.842 0
M  V30 6995 O 648.262 1.45391 -1.29196 0
M  V30 6996 C 648.545 -1.41453 -3.31154 0
M  V30 6997 C 648.398 -2.95471 -3.39142 0
M  V30 6998 C 649.717 -1.0619 -4.27097 0
M  V30 6999 H 646.836 -0.313044 -0.667212 0
M  V30 7000 H 649.478 -1.37443 -1.31185 0
M  V30 7001 H 647.628 -0.975052 -3.76065 0
M  V30 7002 H 649.3 -3.4799 -3.02821 0
M  V30 7003 H 647.543 -3.31759 -2.79497 0
M  V30 7004 H 648.214 -3.29515 -4.42859 0
M  V30 7005 H 650.69 -1.44122 -3.90344 0
M  V30 7006 H 649.566 -1.47832 -5.28618 0
M  V30 7007 H 649.827 0.0278912 -4.42091 0
M  V30 7008 N 648.886 1.2938 -0.899927 0
M  V30 7009 C 649.818 2.26737 -0.335139 0
M  V30 7010 C 650.831 1.54316 0.518681 0
M  V30 7011 O 652.02 1.75313 0.335803 0
M  V30 7012 C 649.12 3.34558 0.540774 0
M  V30 7013 C 648.293 4.36455 -0.287372 0
M  V30 7014 C 647.352 5.2361 0.52141 0
M  V30 7015 O 646.378 5.69167 -0.0611735 0
M  V30 7016 N 647.58 5.50985 1.82745 0
M  V30 7017 H 650.345 2.75838 -1.17191 0
M  V30 7018 H 647.906 1.42716 -0.764438 0
M  V30 7019 H 649.898 3.89794 1.08825 0
M  V30 7020 H 648.468 2.85272 1.27823 0
M  V30 7021 H 647.688 3.80875 -1.01626 0
M  V30 7022 H 648.976 5.01573 -0.854518 0
M  V30 7023 H 648.374 5.15781 2.32349 0
M  V30 7024 H 646.931 6.09036 2.32204 0
M  V30 7025 N 650.364 0.662433 1.43002 0
M  V30 7026 C 651.297 -0.073459 2.28082 0
M  V30 7027 C 652.275 -0.820869 1.40358 0
M  V30 7028 O 653.459 -0.818545 1.698 0
M  V30 7029 C 650.586 -1.11097 3.19961 0
M  V30 7030 C 649.632 -0.460557 4.24006 0
M  V30 7031 S 650.465 0.772717 5.29896 0
M  V30 7032 C 651.621 -0.264028 6.25343 0
M  V30 7033 H 651.854 0.648227 2.90147 0
M  V30 7034 H 649.387 0.451566 1.47649 0
M  V30 7035 H 651.345 -1.70452 3.73439 0
M  V30 7036 H 650.006 -1.80503 2.57056 0
M  V30 7037 H 649.199 -1.24299 4.88432 0
M  V30 7038 H 648.801 0.0591038 3.73953 0
M  V30 7039 H 651.093 -1.12748 6.68052 0
M  V30 7040 H 652.036 0.345443 7.07257 0
M  V30 7041 H 652.444 -0.603964 5.6126 0
M  V30 7042 N 651.842 -1.52309 0.404946 0
M  V30 7043 C 652.792 -2.23717 -0.439864 0
M  V30 7044 C 653.776 -1.24692 -1.0169 0
M  V30 7045 O 654.968 -1.49951 -0.940409 0
M  V30 7046 C 652.097 -3.05898 -1.55825 0
M  V30 7047 C 651.183 -4.12331 -0.992188 0
M  V30 7048 N 651.574 -5.0557 -0.152424 0
M  V30 7049 C 649.872 -4.2774 -1.26312 0
M  V30 7050 C 650.573 -5.81474 0.162041 0
M  V30 7051 N 649.549 -5.41767 -0.44601 0
M  V30 7052 H 653.351 -2.93162 0.208084 0
M  V30 7053 H 650.865 -1.60969 0.215131 0
M  V30 7054 H 652.862 -3.55605 -2.17603 0
M  V30 7055 H 651.522 -2.37991 -2.20886 0
M  V30 7056 H 652.533 -5.17468 0.211556 0
M  V30 7057 H 649.21 -3.71062 -1.91362 0
M  V30 7058 H 650.6 -6.66585 0.843423 0
M  V30 7059 N 653.32 -0.135238 -1.57019 0
M  V30 7060 C 654.55 0.525303 -1.9981 0
M  V30 7061 C 654.958 1.59724 -1.01415 0
M  V30 7062 O 654.301 1.837 -0.00130938 0
M  V30 7063 C 654.363 1.19578 -3.3903 0
M  V30 7064 C 654.027 0.269855 -4.56203 0
M  V30 7065 C 655.024 -0.497905 -5.1751 0
M  V30 7066 C 652.709 0.176188 -5.01991 0
M  V30 7067 C 654.703 -1.3469 -6.23007 0
M  V30 7068 C 652.39 -0.676422 -6.07345 0
M  V30 7069 C 653.388 -1.43658 -6.67721 0
M  V30 7070 O 653.076 -2.27501 -7.71037 0
M  V30 7071 H 652.808 0.142296 -0.660854 0
M  V30 7072 H 655.362 -0.223272 -2.04183 0
M  V30 7073 H 653.592 1.99176 -3.3146 0
M  V30 7074 H 655.281 1.75486 -3.66005 0
M  V30 7075 H 656.047 -0.435507 -4.83041 0
M  V30 7076 H 651.926 0.757583 -4.54733 0
M  V30 7077 H 655.47 -1.9407 -6.70062 0
M  V30 7078 H 651.367 -0.740154 -6.41243 0
M  V30 7079 H 652.135 -2.20619 -7.88206 0
M  V30 7080 N 654.798 1.5699 0.138552 0
M  V30 7081 C 655.708 2.02174 1.19008 0
M  V30 7082 C 656.724 0.938622 1.46512 0
M  V30 7083 O 657.9 1.24872 1.58016 0
M  V30 7084 C 654.965 2.40045 2.50159 0
M  V30 7085 C 654.026 3.62346 2.30226 0
M  V30 7086 C 653.259 3.98401 3.55123 0
M  V30 7087 O 653.482 3.35019 4.61647 0
M  V30 7088 O 652.416 4.91606 3.47285 0
M  V30 7089 H 656.242 2.91954 0.836452 0
M  V30 7090 H 653.827 1.45293 0.347907 0
M  V30 7091 H 655.709 2.65225 3.27465 0
M  V30 7092 H 654.384 1.53417 2.85035 0
M  V30 7093 H 653.291 3.42341 1.50843 0
M  V30 7094 H 654.624 4.49617 2.00262 0
M  V30 7095 N 656.276 -0.40816 1.52223 0
M  V30 7096 C 657.209 -1.51834 1.70357 0
M  V30 7097 C 658.187 -1.52973 0.551171 0
M  V30 7098 O 659.371 -1.71667 0.778642 0
M  V30 7099 C 656.498 -2.90362 1.74378 0
M  V30 7100 C 655.544 -3.0713 2.95928 0
M  V30 7101 S 656.377 -2.80342 4.56255 0
M  V30 7102 C 657.533 -4.21098 4.63063 0
M  V30 7103 H 657.766 -1.36223 2.64255 0
M  V30 7104 H 655.299 -0.599798 1.42274 0
M  V30 7105 H 657.257 -3.70199 1.77379 0
M  V30 7106 H 655.918 -3.03314 0.816063 0
M  V30 7107 H 655.111 -4.08482 2.95226 0
M  V30 7108 H 654.713 -2.3516 2.90819 0
M  V30 7109 H 657.005 -5.14749 4.40499 0
M  V30 7110 H 657.948 -4.26823 5.65002 0
M  V30 7111 H 658.356 -4.06114 3.92086 0
M  V30 7112 N 657.755 -1.42862 -0.66545 0
M  V30 7113 C 658.685 -1.49867 -1.79059 0
M  V30 7114 C 659.666 -0.354394 -1.66367 0
M  V30 7115 O 660.851 -0.569969 -1.85647 0
M  V30 7116 C 657.981 -1.40943 -3.17415 0
M  V30 7117 C 656.935 -2.53495 -3.44854 0
M  V30 7118 C 656.261 -2.29626 -4.82883 0
M  V30 7119 C 657.561 -3.95781 -3.40815 0
M  V30 7120 H 659.255 -2.44037 -1.73453 0
M  V30 7121 H 656.801 -1.17456 -0.833071 0
M  V30 7122 H 658.754 -1.4445 -3.95869 0
M  V30 7123 H 657.478 -0.432716 -3.23721 0
M  V30 7124 H 656.137 -2.4932 -2.68766 0
M  V30 7125 H 655.785 -1.30226 -4.8585 0
M  V30 7126 H 655.485 -3.05065 -5.02204 0
M  V30 7127 H 657.009 -2.34897 -5.63609 0
M  V30 7128 H 658.423 -4.01508 -4.09224 0
M  V30 7129 H 656.82 -4.71148 -3.71672 0
M  V30 7130 H 657.89 -4.21786 -2.39216 0
M  V30 7131 N 659.233 0.902656 -1.29189 0
M  V30 7132 C 660.48 1.65287 -1.16989 0
M  V30 7133 C 660.808 1.92485 0.279232 0
M  V30 7134 O 660.063 1.53143 1.21843 0
M  V30 7135 C 660.362 3.011 -1.92545 0
M  V30 7136 C 660.028 2.93521 -3.42281 0
M  V30 7137 C 658.69 2.91161 -3.83117 0
M  V30 7138 C 661.042 2.82947 -4.3771 0
M  V30 7139 C 658.37 2.76043 -5.17704 0
M  V30 7140 C 660.722 2.69368 -5.72384 0
M  V30 7141 C 659.386 2.65373 -6.12482 0
M  V30 7142 H 658.656 0.604828 -0.428094 0
M  V30 7143 H 661.303 1.05084 -1.60092 0
M  V30 7144 H 659.608 3.65153 -1.42024 0
M  V30 7145 H 661.305 3.58073 -1.80512 0
M  V30 7146 H 657.895 2.96158 -3.09819 0
M  V30 7147 H 662.079 2.83849 -4.07116 0
M  V30 7148 H 657.335 2.71352 -5.47885 0
M  V30 7149 H 661.509 2.60156 -6.45981 0
M  V30 7150 H 659.136 2.53415 -7.16718 0
M  V30 7151 N 660.711 1.11618 1.11262 0
M  V30 7152 C 661.659 0.771291 2.1944 0
M  V30 7153 C 662.653 -0.238073 1.67719 0
M  V30 7154 O 663.859 -0.0971628 1.79738 0
M  V30 7155 H 660.234 0.231548 0.715465 0
M  V30 7156 H 662.205 1.69226 2.45775 0
M  V30 7157 C 660.954 0.232765 3.4692 0
M  V30 7158 H 660.277 1.00072 3.87073 0
M  V30 7159 H 661.717 0.0296561 4.2399 0
M  V30 7160 C 660.176 -1.03738 3.20531 0
M  V30 7161 O 660.706 -2.11675 3.41404 0
M  V30 7162 N 658.912 -0.960906 2.74253 0
M  V30 7163 H 658.459 -0.0824323 2.57468 0
M  V30 7164 H 658.417 -1.8114 2.56974 0
M  V30 7165 N 662.189 -1.289 0.906776 0
M  V30 7166 C 663.414 -1.99939 0.551303 0
M  V30 7167 C 663.839 -1.67366 -0.858496 0
M  V30 7168 O 663.197 -0.902176 -1.57259 0
M  V30 7169 C 663.245 -3.52523 0.758937 0
M  V30 7170 O 662.349 -4.11983 -0.185308 0
M  V30 7171 H 661.69 -0.628376 0.214568 0
M  V30 7172 H 664.22 -1.64225 1.2203 0
M  V30 7173 H 664.23 -4.02522 0.666329 0
M  V30 7174 H 662.905 -3.75566 1.78671 0
M  V30 7175 H 661.482 -3.72873 -0.0445577 0
M  V30 7176 N 663.667 -0.670007 -1.42649 0
M  V30 7177 C 664.914 -0.190286 -2.01604 0
M  V30 7178 C 665.242 1.20155 -1.52948 0
M  V30 7179 O 664.497 1.81964 -0.72026 0
M  V30 7180 C 664.796 -0.168298 -3.57004 0
M  V30 7181 C 664.462 -1.50415 -4.25072 0
M  V30 7182 C 663.124 -1.86992 -4.43382 0
M  V30 7183 C 665.476 -2.38414 -4.63474 0
M  V30 7184 C 662.804 -3.11203 -4.97363 0
M  V30 7185 C 665.156 -3.61933 -5.18833 0
M  V30 7186 C 663.82 -3.98685 -5.35356 0
M  V30 7187 H 663.09 -0.0696305 -0.737721 0
M  V30 7188 H 665.737 -0.864044 -1.70899 0
M  V30 7189 H 664.042 0.588958 -3.87348 0
M  V30 7190 H 665.739 0.22001 -4.00396 0
M  V30 7191 H 662.329 -1.20959 -4.11177 0
M  V30 7192 H 666.513 -2.11442 -4.49006 0
M  V30 7193 H 661.769 -3.39705 -5.08341 0
M  V30 7194 H 665.943 -4.30326 -5.47533 0
M  V30 7195 H 663.57 -4.95009 -5.76949 0
M  V30 7196 N 665.145 1.52092 -0.413018 0
M  V30 7197 C 666.077 2.24819 0.445994 0
M  V30 7198 C 667.09 1.27925 1.00692 0
M  V30 7199 O 668.279 1.53845 0.905204 0
M  V30 7200 C 665.379 2.96951 1.6332 0
M  V30 7201 C 664.552 4.20746 1.19548 0
M  V30 7202 C 663.611 4.75668 2.25003 0
M  V30 7203 O 662.637 5.38148 1.85434 0
M  V30 7204 N 663.839 4.57579 3.57214 0
M  V30 7205 H 666.604 2.99176 -0.177209 0
M  V30 7206 H 664.165 1.60102 -0.240601 0
M  V30 7207 H 666.157 3.30586 2.33441 0
M  V30 7208 H 664.727 2.25756 2.16225 0
M  V30 7209 H 663.947 3.92881 0.32224 0
M  V30 7210 H 665.235 5.01132 0.880033 0
M  V30 7211 H 664.633 4.07758 3.92109 0
M  V30 7212 H 663.19 4.95642 4.23299 0
M  V30 7213 N 666.623 0.143563 1.56945 0
M  V30 7214 C 667.871 -0.507402 1.95627 0
M  V30 7215 C 668.192 -1.65626 1.02922 0
M  V30 7216 O 667.462 -1.95693 0.0901136 0
M  V30 7217 H 666.042 -0.190436 0.722318 0
M  V30 7218 H 668.704 0.218257 1.93674 0
M  V30 7219 H 667.8 -0.885816 2.99265 0
M  V30 7220 N 668.101 -1.57061 -0.130224 0
M  V30 7221 C 669.348 -1.84257 -0.839972 0
M  V30 7222 C 669.676 -0.726986 -1.80403 0
M  V30 7223 O 668.931 0.282632 -1.93648 0
M  V30 7224 C 669.23 -3.17878 -1.63365 0
M  V30 7225 C 668.896 -4.43475 -0.814891 0
M  V30 7226 C 667.558 -4.77581 -0.589066 0
M  V30 7227 C 669.91 -5.20631 -0.243437 0
M  V30 7228 C 667.238 -5.86292 0.218648 0
M  V30 7229 C 669.59 -6.30192 0.551408 0
M  V30 7230 C 668.254 -6.62837 0.787653 0
M  V30 7231 H 667.524 -0.674245 -0.307367 0
M  V30 7232 H 670.171 -1.91224 -0.102832 0
M  V30 7233 H 668.476 -3.06437 -2.44138 0
M  V30 7234 H 670.173 -3.3614 -2.18658 0
M  V30 7235 H 666.763 -4.16747 -1.00098 0
M  V30 7236 H 670.947 -4.94644 -0.405145 0
M  V30 7237 H 666.203 -6.10017 0.411016 0
M  V30 7238 H 670.377 -6.89165 1.00126 0
M  V30 7239 H 668.004 -7.46908 1.41537 0
M  V30 7240 N 669.579 0.400081 -1.52437 0
M  V30 7241 C 670.826 1.14619 -1.6694 0
M  V30 7242 C 671.154 1.90262 -0.403797 0
M  V30 7243 O 670.409 1.85835 0.61351 0
M  V30 7244 C 670.708 2.15914 -2.84808 0
M  V30 7245 C 670.374 1.57011 -4.2268 0
M  V30 7246 C 669.036 1.40672 -4.60179 0
M  V30 7247 C 671.388 1.14081 -5.08562 0
M  V30 7248 C 668.716 0.799335 -5.81229 0
M  V30 7249 C 671.068 0.547573 -6.30226 0
M  V30 7250 C 669.732 0.371389 -6.66466 0
M  V30 7251 H 669.002 0.419419 -0.610875 0
M  V30 7252 H 671.649 0.432227 -1.86558 0
M  V30 7253 H 669.954 2.93488 -2.59561 0
M  V30 7254 H 671.651 2.73533 -2.93225 0
M  V30 7255 H 668.241 1.70713 -3.93135 0
M  V30 7256 H 672.425 1.2551 -4.80168 0
M  V30 7257 H 667.681 0.65093 -6.07925 0
M  V30 7258 H 671.855 0.206575 -6.96094 0
M  V30 7259 H 669.482 -0.10135 -7.60132 0
M  V30 7260 N 671.057 1.43213 0.657864 0
M  V30 7261 C 672.303 1.44798 1.41991 0
M  V30 7262 C 672.636 0.070256 1.94073 0
M  V30 7263 O 671.911 -0.908177 1.71995 0
M  V30 7264 C 672.194 2.4865 2.60471 0
M  V30 7265 C 672.047 3.95679 2.13911 0
M  V30 7266 C 673.366 2.49292 3.62686 0
M  V30 7267 H 670.485 0.527244 0.514959 0
M  V30 7268 H 673.127 1.74733 0.74621 0
M  V30 7269 H 671.277 2.23254 3.17946 0
M  V30 7270 H 672.949 4.32116 1.61472 0
M  V30 7271 H 671.192 4.08733 1.45325 0
M  V30 7272 H 671.863 4.6395 2.99089 0
M  V30 7273 H 674.339 2.71917 3.14961 0
M  V30 7274 H 673.215 3.23907 4.43143 0
M  V30 7275 H 673.476 1.52502 4.14964 0
M  V30 7276 N 672.536 -0.895792 1.29666 0
M  V30 7277 C 673.499 -1.98189 1.15124 0
M  V30 7278 C 674.499 -1.60572 0.0855717 0
M  V30 7279 O 675.689 -1.70991 0.332826 0
M  V30 7280 C 672.821 -3.32289 0.761372 0
M  V30 7281 H 674.014 -2.12518 2.11603 0
M  V30 7282 H 671.567 -1.0808 1.12908 0
M  V30 7283 H 672.302 -3.23662 -0.203393 0
M  V30 7284 H 672.087 -3.60958 1.53139 0
M  V30 7285 H 673.577 -4.1198 0.682792 0
M  V30 7286 N 674.014 -1.12206 -1.10668 0
M  V30 7287 C 675.263 -0.870595 -1.81944 0
M  V30 7288 C 675.576 0.605447 -1.85994 0
M  V30 7289 O 676.782 0.973433 -2.53449 0
M  V30 7290 C 675.238 -1.50783 -3.26791 0
M  V30 7291 C 674.846 -3.01849 -3.31046 0
M  V30 7292 C 676.59 -1.33653 -4.02911 0
M  V30 7293 C 674.497 -3.58518 -4.70339 0
M  V30 7294 H 673.427 -0.322043 -0.681765 0
M  V30 7295 H 676.078 -1.34827 -1.24475 0
M  V30 7296 H 674.46 -0.957825 -3.84242 0
M  V30 7297 H 675.634 -3.63321 -2.83433 0
M  V30 7298 H 673.949 -3.18346 -2.68411 0
M  V30 7299 H 676.546 -1.73416 -5.05797 0
M  V30 7300 H 676.889 -0.279949 -4.15358 0
M  V30 7301 H 677.422 -1.85562 -3.51868 0
M  V30 7302 H 674.161 -4.63925 -4.63091 0
M  V30 7303 H 673.681 -3.01819 -5.18329 0
M  V30 7304 H 675.36 -3.57434 -5.39305 0
M  V30 7305 N 675.492 1.28418 -0.913599 0
M  V30 7306 C 676.741 1.94265 -0.542572 0
M  V30 7307 C 677.054 1.72709 0.918207 0
M  V30 7308 O 678.26 2.32778 1.39738 0
M  V30 7309 C 676.716 3.47956 -0.919507 0
M  V30 7310 C 676.324 3.78291 -2.4 0
M  V30 7311 C 678.068 4.19962 -0.619057 0
M  V30 7312 C 675.975 5.2529 -2.71707 0
M  V30 7313 H 674.905 0.727213 -0.199192 0
M  V30 7314 H 677.556 1.45931 -1.11249 0
M  V30 7315 H 675.938 3.9502 -0.278372 0
M  V30 7316 H 677.112 3.42035 -3.08786 0
M  V30 7317 H 675.427 3.19456 -2.67089 0
M  V30 7318 H 678.024 5.28178 -0.832623 0
M  V30 7319 H 678.367 4.13935 0.443126 0
M  V30 7320 H 678.9 3.78674 -1.21865 0
M  V30 7321 H 675.639 5.36394 -3.76778 0
M  V30 7322 H 675.159 5.62743 -2.07559 0
M  V30 7323 H 676.838 5.93027 -2.58703 0
M  V30 7324 N 676.97 0.677563 1.42291 0
M  V30 7325 C 678.2 0.209155 2.05539 0
M  V30 7326 C 678.608 -1.13987 1.51009 0
M  V30 7327 O 677.951 -1.71976 0.645764 0
M  V30 7328 C 678.013 0.0697758 3.59432 0
M  V30 7329 C 677.677 1.34795 4.36668 0
M  V30 7330 C 678.674 2.28201 4.67141 0
M  V30 7331 C 676.359 1.59632 4.76259 0
M  V30 7332 C 678.353 3.44718 5.36142 0
M  V30 7333 C 676.04 2.76437 5.45 0
M  V30 7334 C 677.038 3.68805 5.74867 0
M  V30 7335 O 676.726 4.83567 6.42198 0
M  V30 7336 H 676.458 0.0986202 0.668768 0
M  V30 7337 H 679.012 0.925483 1.83368 0
M  V30 7338 H 677.242 -0.702157 3.80272 0
M  V30 7339 H 678.931 -0.359115 4.04308 0
M  V30 7340 H 679.697 2.10264 4.37052 0
M  V30 7341 H 675.576 0.886073 4.52404 0
M  V30 7342 H 679.12 4.16833 5.59371 0
M  V30 7343 H 675.017 2.94299 5.74507 0
M  V30 7344 H 675.785 4.83147 6.6069 0
M  V30 7345 N 678.448 -1.51871 0.421078 0
M  V30 7346 C 679.688 -2.03848 -0.150167 0
M  V30 7347 C 680.052 -1.29925 -1.41363 0
M  V30 7348 O 681.253 -1.7219 -2.06408 0
M  V30 7349 C 679.524 -3.55374 -0.38003 0
M  V30 7350 S 681.083 -4.29111 -0.917011 0
M  V30 7351 H 677.901 -0.709904 -0.0394639 0
M  V30 7352 H 680.503 -1.86799 0.576746 0
M  V30 7353 H 679.207 -4.0675 0.546122 0
M  V30 7354 H 678.738 -3.76687 -1.13448 0
M  V30 7355 H 680.753 -4.44944 -2.19635 0
M  V30 7356 N 679.926 -0.151884 -1.56866 0
M  V30 7357 C 681.173 0.498004 -1.96281 0
M  V30 7358 C 681.501 1.64551 -1.03698 0
M  V30 7359 O 680.756 1.95585 -0.0671497 0
M  V30 7360 C 681.055 1.04074 -3.41911 0
M  V30 7361 C 680.721 0.0111688 -4.50899 0
M  V30 7362 C 679.383 -0.271844 -4.80432 0
M  V30 7363 C 681.735 -0.68869 -5.1663 0
M  V30 7364 C 679.063 -1.26044 -5.73001 0
M  V30 7365 C 681.415 -1.66613 -6.10264 0
M  V30 7366 C 680.079 -1.9568 -6.38174 0
M  V30 7367 H 679.349 0.182233 -0.718242 0
M  V30 7368 H 681.996 -0.239746 -1.89993 0
M  V30 7369 H 680.301 1.85592 -3.45055 0
M  V30 7370 H 681.998 1.55224 -3.69738 0
M  V30 7371 H 678.588 0.241932 -4.27917 0
M  V30 7372 H 682.772 -0.48324 -4.93942 0
M  V30 7373 H 678.028 -1.49202 -5.92915 0
M  V30 7374 H 682.202 -2.21392 -6.60272 0
M  V30 7375 H 679.829 -2.72434 -7.09707 0
M  V30 7376 N 681.404 1.57128 0.121893 0
M  V30 7377 C 682.644 1.86517 0.836113 0
M  V30 7378 C 683.008 0.739497 1.77188 0
M  V30 7379 O 684.209 0.91508 2.52744 0
M  V30 7380 C 682.48 3.21129 1.56878 0
M  V30 7381 S 684.039 3.72143 2.32497 0
M  V30 7382 H 680.857 0.653923 0.279115 0
M  V30 7383 H 683.459 1.95271 0.0946254 0
M  V30 7384 H 682.163 4.01002 0.873255 0
M  V30 7385 H 681.694 3.15446 2.35069 0
M  V30 7386 H 683.709 3.43413 3.58164 0
M  V30 7387 N 682.882 -0.391992 1.52647 0
M  V30 7388 C 683.83 -1.4991 1.77848 0
M  V30 7389 C 684.824 -1.56587 0.646282 0
M  V30 7390 O 686.03 -1.59789 0.828698 0
M  V30 7391 H 682.405 -0.498883 0.56269 0
M  V30 7392 H 684.376 -1.25847 2.70564 0
M  V30 7393 C 683.125 -2.87081 1.96163 0
M  V30 7394 H 682.448 -2.82692 2.82711 0
M  V30 7395 H 683.888 -3.63792 2.17787 0
M  V30 7396 C 682.347 -3.28822 0.733348 0
M  V30 7397 O 682.877 -4.01598 -0.0906481 0
M  V30 7398 N 681.083 -2.85068 0.564317 0
M  V30 7399 H 680.63 -2.26012 1.23598 0
M  V30 7400 H 680.588 -3.13355 -0.256166 0
M  V30 7401 N 684.36 -1.4356 -0.65026 0
M  V30 7402 C 685.608 -1.45046 -1.40734 0
M  V30 7403 C 685.929 -0.0769822 -1.94848 0
M  V30 7404 O 685.199 0.888098 -1.74613 0
M  V30 7405 H 683.779 -0.534034 -0.522318 0
M  V30 7406 H 686.441 -1.79186 -0.766703 0
M  V30 7407 H 685.537 -2.16476 -2.24822 0
M  V30 7408 N 685.838 0.888903 -1.30139 0
M  V30 7409 C 686.748 2.02705 -1.18101 0
M  V30 7410 C 687.764 1.73702 -0.101809 0
M  V30 7411 O 688.94 1.98906 -0.315984 0
M  V30 7412 C 686.005 3.35616 -0.869651 0
M  V30 7413 C 685.066 3.78067 -2.03381 0
M  V30 7414 C 684.299 5.04635 -1.73721 0
M  V30 7415 O 684.522 5.66531 -0.663267 0
M  V30 7416 O 683.456 5.43399 -2.58845 0
M  V30 7417 H 687.282 2.15788 -2.13704 0
M  V30 7418 H 684.867 1.01426 -1.09695 0
M  V30 7419 H 686.749 4.15358 -0.711043 0
M  V30 7420 H 685.424 3.23651 0.0565002 0
M  V30 7421 H 684.331 2.99046 -2.24772 0
M  V30 7422 H 685.664 3.94631 -2.94155 0
M  V30 7423 N 687.317 1.12792 1.10072 0
M  V30 7424 C 688.563 0.886857 1.82381 0
M  V30 7425 C 688.896 -0.58576 1.85155 0
M  V30 7426 O 688.171 -1.43317 1.31493 0
M  V30 7427 C 688.454 1.46703 3.28862 0
M  V30 7428 C 688.307 3.00829 3.34398 0
M  V30 7429 C 689.626 1.12971 4.25353 0
M  V30 7430 H 686.745 0.32362 0.662148 0
M  V30 7431 H 689.387 1.39513 1.28982 0
M  V30 7432 H 687.537 1.03476 3.74466 0
M  V30 7433 H 689.209 3.52764 2.97247 0
M  V30 7434 H 687.452 3.36164 2.74183 0
M  V30 7435 H 688.123 3.36519 4.3756 0
M  V30 7436 H 690.599 1.50313 3.88001 0
M  V30 7437 H 689.475 1.56223 5.26199 0
M  V30 7438 H 689.736 0.0424452 4.4208 0
M  V30 7439 N 688.795 -1.27931 0.920396 0
M  V30 7440 C 689.727 -2.26175 0.371169 0
M  V30 7441 C 690.74 -1.55122 -0.494065 0
M  V30 7442 O 691.929 -1.75825 -0.30787 0
M  V30 7443 C 689.029 -3.35376 -0.487481 0
M  V30 7444 C 688.202 -4.35943 0.356772 0
M  V30 7445 C 687.261 -5.24374 -0.438042 0
M  V30 7446 O 686.287 -5.68998 0.151715 0
M  V30 7447 N 687.489 -5.53823 -1.73956 0
M  V30 7448 H 690.254 -2.73938 1.21564 0
M  V30 7449 H 687.815 -1.41482 0.787047 0
M  V30 7450 H 689.807 -3.91476 -1.02609 0
M  V30 7451 H 688.377 -2.87269 -1.23269 0
M  V30 7452 H 687.597 -3.7921 1.07672 0
M  V30 7453 H 688.885 -5.0015 0.934206 0
M  V30 7454 H 688.283 -5.19413 -2.24114 0
M  V30 7455 H 686.84 -6.12653 -2.22486 0
M  V30 7456 N 690.273 -0.685099 -1.4193 0
M  V30 7457 C 691.236 -0.0222632 -2.29189 0
M  V30 7458 C 692.236 0.7186 -1.4385 0
M  V30 7459 O 693.426 0.555058 -1.6512 0
M  V30 7460 C 690.558 0.979013 -3.2654 0
M  V30 7461 H 691.751 -0.790424 -2.89296 0
M  V30 7462 H 689.304 -0.448012 -1.49742 0
M  V30 7463 H 690.039 1.77531 -2.71392 0
M  V30 7464 H 689.824 0.451037 -3.89497 0
M  V30 7465 H 691.314 1.44091 -3.91954 0
M  V30 7466 N 691.751 1.51645 -0.429126 0
M  V30 7467 C 692.661 2.31288 0.392809 0
M  V30 7468 C 693.677 1.39852 1.03525 0
M  V30 7469 O 694.853 1.72926 1.03241 0
M  V30 7470 C 691.918 3.13347 1.48372 0
M  V30 7471 C 690.979 4.20551 0.862268 0
M  V30 7472 C 690.212 4.98688 1.9012 0
M  V30 7473 O 690.435 4.77359 3.12225 0
M  V30 7474 O 689.369 5.83005 1.4963 0
M  V30 7475 H 693.195 3.02609 -0.257138 0
M  V30 7476 H 690.78 1.48163 -0.191851 0
M  V30 7477 H 692.662 3.64387 2.1166 0
M  V30 7478 H 691.337 2.44799 2.1179 0
M  V30 7479 H 690.244 3.73609 0.191568 0
M  V30 7480 H 691.577 4.91449 0.271704 0
M  V30 7481 N 693.229 0.160201 1.56784 0
M  V30 7482 C 694.478 -0.487619 1.95717 0
M  V30 7483 C 694.791 -1.65136 1.0483 0
M  V30 7484 O 695.997 -2.36468 1.33398 0
M  V30 7485 C 694.453 -0.91888 3.47972 0
M  V30 7486 C 694.061 0.218655 4.47466 0
M  V30 7487 C 695.805 -1.53575 3.95746 0
M  V30 7488 C 693.712 -0.231614 5.90946 0
M  V30 7489 H 692.642 -0.185939 0.730714 0
M  V30 7490 H 695.293 0.246657 1.81835 0
M  V30 7491 H 693.675 -1.70881 3.57234 0
M  V30 7492 H 694.849 0.995825 4.49911 0
M  V30 7493 H 693.164 0.744767 4.09685 0
M  V30 7494 H 695.761 -1.88448 5.00391 0
M  V30 7495 H 696.104 -2.42959 3.38048 0
M  V30 7496 H 696.637 -0.810467 3.89456 0
M  V30 7497 H 693.376 0.62718 6.52493 0
M  V30 7498 H 692.896 -0.974379 5.91833 0
M  V30 7499 H 694.575 -0.67922 6.43425 0
M  V30 7500 N 694.707 -1.5719 -0.113559 0
M  V30 7501 C 695.654 -2.00736 -1.13901 0
M  V30 7502 C 696.624 -0.88044 -1.40846 0
M  V30 7503 O 697.809 -1.14507 -1.5262 0
M  V30 7504 C 694.949 -2.42132 -2.45899 0
M  V30 7505 C 694.062 -3.68264 -2.25844 0
M  V30 7506 C 693.197 -3.98617 -3.5111 0
M  V30 7507 C 692.236 -5.17915 -3.26236 0
M  V30 7508 N 691.373 -5.44111 -4.4372 0
M  V30 7509 H 696.213 -2.88128 -0.760677 0
M  V30 7510 H 693.75 -1.42523 -0.364099 0
M  V30 7511 H 695.708 -2.6417 -3.22908 0
M  V30 7512 H 694.338 -1.57775 -2.81615 0
M  V30 7513 H 693.39 -3.53809 -1.39726 0
M  V30 7514 H 694.702 -4.55425 -2.03444 0
M  V30 7515 H 693.856 -4.21333 -4.36536 0
M  V30 7516 H 692.595 -3.09942 -3.76546 0
M  V30 7517 H 691.6 -4.95038 -2.39202 0
M  V30 7518 H 692.825 -6.08172 -3.02165 0
M  V30 7519 H 690.771 -4.58394 -4.69266 0
M  V30 7520 H 690.688 -6.25606 -4.24444 0
M  V30 7521 H 691.956 -5.71351 -5.30263 0
M  V30 7522 N 696.185 0.383891 -1.52853 0
M  V30 7523 C 697.132 1.46924 -1.77995 0
M  V30 7524 C 698.102 1.53958 -0.623396 0
M  V30 7525 O 699.287 1.70134 -0.863657 0
M  V30 7526 C 696.427 2.84093 -1.95921 0
M  V30 7527 C 695.54 2.86171 -3.23621 0
M  V30 7528 C 694.675 4.14799 -3.31836 0
M  V30 7529 C 693.714 4.10948 -4.53639 0
M  V30 7530 N 692.851 5.31192 -4.59107 0
M  V30 7531 H 697.691 1.24786 -2.70615 0
M  V30 7532 H 695.228 0.605265 -1.34071 0
M  V30 7533 H 697.186 3.63755 -2.04299 0
M  V30 7534 H 695.816 3.04671 -1.06656 0
M  V30 7535 H 694.868 1.9885 -3.24288 0
M  V30 7536 H 696.18 2.79194 -4.13343 0
M  V30 7537 H 695.334 5.02867 -3.39425 0
M  V30 7538 H 694.073 4.24505 -2.40097 0
M  V30 7539 H 693.078 3.21268 -4.46169 0
M  V30 7540 H 694.303 4.0286 -5.467 0
M  V30 7541 H 692.249 5.41518 -3.70262 0
M  V30 7542 H 692.166 5.26311 -5.42708 0
M  V30 7543 H 693.434 6.21143 -4.70958 0
M  V30 7544 N 697.663 1.43903 0.642637 0
M  V30 7545 C 698.888 1.49758 1.43483 0
M  V30 7546 C 699.313 0.119911 1.87717 0
M  V30 7547 O 698.671 -0.888558 1.58033 0
M  V30 7548 C 698.719 2.45744 2.63898 0
M  V30 7549 O 697.823 1.95101 3.63331 0
M  V30 7550 H 697.164 0.506138 0.429791 0
M  V30 7551 H 699.694 1.88923 0.785438 0
M  V30 7552 H 699.704 2.63399 3.11584 0
M  V30 7553 H 698.379 3.45818 2.31046 0
M  V30 7554 H 696.956 1.87158 3.22531 0
M  V30 7555 N 699.141 -0.881989 1.30609 0
M  V30 7556 C 700.387 -1.63649 1.20791 0
M  V30 7557 C 700.742 -1.90966 -0.234437 0
M  V30 7558 O 700.035 -1.52163 -1.16434 0
M  V30 7559 C 700.229 -2.97999 1.97311 0
M  V30 7560 C 700.058 -2.83798 3.48839 0
M  V30 7561 C 698.828 -2.83622 4.18195 0
M  V30 7562 C 701.026 -2.59529 4.44015 0
M  V30 7563 N 699.008 -2.60344 5.55962 0
M  V30 7564 C 700.379 -2.45401 5.69366 0
M  V30 7565 C 702.434 -2.44777 4.33576 0
M  V30 7566 C 701.137 -2.18023 6.85462 0
M  V30 7567 C 703.163 -2.18785 5.49443 0
M  V30 7568 C 702.525 -2.05436 6.73777 0
M  V30 7569 H 698.624 -0.603687 0.497077 0
M  V30 7570 H 701.208 -1.03908 1.64655 0
M  V30 7571 H 699.379 -3.55767 1.55834 0
M  V30 7572 H 701.111 -3.6266 1.79611 0
M  V30 7573 H 697.866 -2.95562 3.70054 0
M  V30 7574 H 698.29 -2.51709 6.28468 0
M  V30 7575 H 702.932 -2.53831 3.38126 0
M  V30 7576 H 700.65 -2.07707 7.8095 0
M  V30 7577 H 704.236 -2.08188 5.43276 0
M  V30 7578 H 703.116 -1.85605 7.61919 0
M  V30 7579 N 700.619 -1.13374 -1.09472 0
M  V30 7580 C 701.844 -0.918711 -1.85942 0
M  V30 7581 C 702.269 0.527225 -1.8056 0
M  V30 7582 O 701.627 1.37408 -1.18274 0
M  V30 7583 C 701.675 -1.41056 -3.31867 0
M  V30 7584 O 700.779 -0.595496 -4.08078 0
M  V30 7585 H 700.12 -0.329297 -0.576593 0
M  V30 7586 H 702.65 -1.50829 -1.38245 0
M  V30 7587 H 702.66 -1.41398 -3.82715 0
M  V30 7588 H 701.335 -2.46335 -3.35099 0
M  V30 7589 H 699.912 -0.659911 -3.67014 0
M  V30 7590 N 702.098 1.27442 -0.927168 0
M  V30 7591 C 703.514 1.46754 -0.627329 0
M  V30 7592 C 703.714 1.83902 0.823549 0
M  V30 7593 O 702.77 1.95215 1.60148 0
M  V30 7594 C 704.083 2.56045 -1.57674 0
M  V30 7595 C 705.631 2.69906 -1.58491 0
M  V30 7596 C 706.106 3.82355 -2.52128 0
M  V30 7597 N 707.597 3.89728 -2.50332 0
M  V30 7598 C 708.332 4.76155 -3.19475 0
M  V30 7599 N 707.828 5.67073 -3.97995 0
M  V30 7600 N 709.621 4.6988 -3.08496 0
M  V30 7601 H 701.772 1.01613 -1.86517 0
M  V30 7602 H 704.035 0.507443 -0.800753 0
M  V30 7603 H 703.741 2.35542 -2.61176 0
M  V30 7604 H 703.615 3.53423 -1.31804 0
M  V30 7605 H 706.002 2.89792 -0.557208 0
M  V30 7606 H 706.083 1.73018 -1.8841 0
M  V30 7607 H 705.727 3.63224 -3.55008 0
M  V30 7608 H 705.657 4.7867 -2.19505 0
M  V30 7609 H 708.148 3.24717 -1.93306 0
M  V30 7610 H 708.461 6.2988 -4.4774 0
M  V30 7611 H 706.806 5.6687 -4.02098 0
M  V30 7612 H 709.997 3.97848 -2.46646 0
M  V30 7613 H 710.17 5.37017 -3.62652 0
M  V30 7614 N 703.576 0.692616 1.41565 0
M  V30 7615 C 704.822 0.231408 2.02079 0
M  V30 7616 C 705.177 -1.15514 1.53864 0
M  V30 7617 O 704.47 -1.76786 0.73873 0
M  V30 7618 C 704.664 0.225073 3.56691 0
M  V30 7619 C 704.493 1.60947 4.19912 0
M  V30 7620 C 703.263 2.2116 4.54331 0
M  V30 7621 C 705.461 2.55553 4.46315 0
M  V30 7622 N 703.443 3.52195 5.02824 0
M  V30 7623 C 704.814 3.71263 4.96552 0
M  V30 7624 C 706.869 2.53857 4.28323 0
M  V30 7625 C 705.572 4.85555 5.30687 0
M  V30 7626 C 707.598 3.67259 4.63546 0
M  V30 7627 C 706.96 4.81699 5.13951 0
M  V30 7628 H 703.059 0.130001 0.771119 0
M  V30 7629 H 705.643 0.909459 1.72154 0
M  V30 7630 H 703.814 -0.422453 3.86096 0
M  V30 7631 H 705.546 -0.250685 4.03923 0
M  V30 7632 H 702.301 1.73474 4.40685 0
M  V30 7633 H 702.725 4.19354 5.3148 0
M  V30 7634 H 707.367 1.66598 3.88594 0
M  V30 7635 H 705.085 5.73477 5.69341 0
M  V30 7636 H 708.671 3.67195 4.51286 0
M  V30 7637 H 707.551 5.67995 5.40695 0
M  V30 7638 N 705.054 -1.51416 0.437162 0
M  V30 7639 C 706.282 -2.06503 -0.128045 0
M  V30 7640 C 706.697 -1.30461 -1.36475 0
M  V30 7641 O 706.054 -0.364127 -1.78831 0
M  V30 7642 C 706.105 -3.58683 -0.450437 0
M  V30 7643 O 705.826 -4.31853 0.737186 0
M  V30 7644 C 707.327 -4.30284 -1.06633 0
M  V30 7645 H 704.547 -0.670952 -0.00800269 0
M  V30 7646 H 707.091 -1.94996 0.616193 0
M  V30 7647 H 705.246 -3.70106 -1.14457 0
M  V30 7648 H 705.66 -5.22467 0.461347 0
M  V30 7649 H 707.134 -5.37848 -1.24191 0
M  V30 7650 H 707.611 -3.88564 -2.0473 0
M  V30 7651 H 708.217 -4.23304 -0.411585 0
M  V30 7652 N 706.532 -0.168513 -1.56696 0
M  V30 7653 C 707.462 0.758563 -2.20835 0
M  V30 7654 C 708.443 1.24121 -1.1631 0
M  V30 7655 O 709.628 1.29487 -1.4473 0
M  V30 7656 C 706.758 1.9892 -2.8469 0
M  V30 7657 C 705.712 1.64252 -3.95228 0
M  V30 7658 C 705.038 2.94757 -4.46119 0
M  V30 7659 C 706.338 0.872675 -5.14958 0
M  V30 7660 H 708.032 0.223953 -2.98561 0
M  V30 7661 H 705.578 0.106277 -1.43607 0
M  V30 7662 H 707.531 2.64275 -3.28233 0
M  V30 7663 H 706.255 2.5479 -2.04327 0
M  V30 7664 H 704.914 1.01266 -3.52336 0
M  V30 7665 H 704.562 3.48662 -3.62552 0
M  V30 7666 H 704.262 2.72316 -5.2069 0
M  V30 7667 H 705.786 3.61147 -4.92347 0
M  V30 7668 H 707.2 1.42875 -5.55211 0
M  V30 7669 H 705.597 0.747402 -5.95428 0
M  V30 7670 H 706.667 -0.131535 -4.84722 0
M  V30 7671 N 708.01 1.57248 0.105221 0
M  V30 7672 C 708.973 2.00388 1.11252 0
M  V30 7673 C 709.973 0.89594 1.33527 0
M  V30 7674 O 711.163 1.16166 1.29811 0
M  V30 7675 C 708.295 2.35589 2.46395 0
M  V30 7676 H 709.488 2.90591 0.741424 0
M  V30 7677 H 707.041 1.52332 0.349956 0
M  V30 7678 H 707.776 1.4831 2.884 0
M  V30 7679 H 707.561 3.16408 2.31578 0
M  V30 7680 H 709.051 2.69658 3.18864 0
M  V30 7681 N 709.488 -0.375779 1.53054 0
M  V30 7682 C 710.418 -1.46598 1.81745 0
M  V30 7683 C 711.399 -1.56337 0.670286 0
M  V30 7684 O 712.584 -1.71071 0.919158 0
M  V30 7685 C 709.714 -2.84058 1.99821 0
M  V30 7686 C 708.668 -2.8915 3.15557 0
M  V30 7687 C 707.994 -4.29187 3.18908 0
M  V30 7688 C 709.294 -2.57595 4.54359 0
M  V30 7689 H 710.988 -1.22837 2.73041 0
M  V30 7690 H 708.534 -0.589485 1.31381 0
M  V30 7691 H 710.487 -3.60342 2.18475 0
M  V30 7692 H 709.211 -3.09184 1.05226 0
M  V30 7693 H 707.87 -2.15316 2.96706 0
M  V30 7694 H 707.518 -4.51374 2.2197 0
M  V30 7695 H 707.218 -4.33512 3.96662 0
M  V30 7696 H 708.742 -5.07359 3.39734 0
M  V30 7697 H 710.156 -3.23595 4.73243 0
M  V30 7698 H 708.553 -2.73252 5.34279 0
M  V30 7699 H 709.623 -1.52882 4.60169 0
M  V30 7700 N 710.966 -1.44241 -0.634997 0
M  V30 7701 C 712.243 -1.37296 -1.39317 0
M  V30 7702 C 712.623 -0.0297532 -2.11079 0
M  V30 7703 O 711.971 0.987524 -2.06059 0
M  V30 7704 C 712.181 -2.56853 -2.36279 0
M  V30 7705 C 713.529 -3.00747 -2.99728 0
M  V30 7706 O 714.553 -2.5703 -2.46605 0
M  V30 7707 O 713.412 -3.76533 -3.96087 0
M  V30 7708 H 710.506 -0.543503 -0.623325 0
M  V30 7709 H 713.052 -1.56324 -0.660376 0
M  V30 7710 H 711.824 -3.46228 -1.82324 0
M  V30 7711 H 711.447 -2.40019 -3.16981 0
M  V30 7712 N 712.444 0.87505 -1.31075 0
M  V30 7713 C 713.691 1.62768 -1.20469 0
M  V30 7714 C 714.019 1.93034 0.23834 0
M  V30 7715 O 713.274 1.55693 1.18567 0
M  V30 7716 C 713.573 2.96948 -1.98888 0
M  V30 7717 C 713.239 2.86195 -3.4843 0
M  V30 7718 C 711.901 2.82969 -3.89207 0
M  V30 7719 C 714.253 2.73599 -4.43614 0
M  V30 7720 C 711.581 2.64999 -5.23443 0
M  V30 7721 C 713.933 2.57166 -5.77969 0
M  V30 7722 C 712.597 2.52321 -6.17973 0
M  V30 7723 H 711.867 0.595611 -0.440827 0
M  V30 7724 H 714.514 1.01665 -1.62285 0
M  V30 7725 H 712.819 3.62058 -1.49737 0
M  V30 7726 H 714.516 3.54164 -1.88067 0
M  V30 7727 H 711.106 2.8952 -3.16032 0
M  V30 7728 H 715.29 2.7515 -4.13045 0
M  V30 7729 H 710.546 2.5967 -5.53517 0
M  V30 7730 H 714.72 2.46396 -6.51354 0
M  V30 7731 H 712.347 2.38156 -7.21932 0
M  V30 7732 N 713.922 1.13953 1.08869 0
M  V30 7733 C 714.869 0.82213 2.15661 0
M  V30 7734 C 715.839 -0.218274 1.6466 0
M  V30 7735 O 717.024 -0.0892475 1.90591 0
M  V30 7736 C 714.164 0.300572 3.43789 0
M  V30 7737 C 713.277 1.40071 4.08661 0
M  V30 7738 C 712.412 0.836897 5.24566 0
M  V30 7739 C 711.451 1.91504 5.81371 0
M  V30 7740 N 710.588 1.36875 6.88629 0
M  V30 7741 H 715.428 1.73683 2.42153 0
M  V30 7742 H 712.965 0.866879 1.18843 0
M  V30 7743 H 714.923 -0.0199943 4.17195 0
M  V30 7744 H 713.553 -0.577248 3.17597 0
M  V30 7745 H 712.605 1.83776 3.33062 0
M  V30 7746 H 713.917 2.21534 4.46905 0
M  V30 7747 H 713.071 0.467953 6.04893 0
M  V30 7748 H 711.81 -0.00874207 4.87699 0
M  V30 7749 H 710.815 2.29299 4.99702 0
M  V30 7750 H 712.04 2.76419 6.20298 0
M  V30 7751 H 709.986 0.545211 6.5373 0
M  V30 7752 H 709.903 2.1198 7.25672 0
M  V30 7753 H 711.171 1.02756 7.72698 0
M  V30 7754 N 715.4 -1.26948 0.933913 0
M  V30 7755 C 716.816 -1.46419 0.635103 0
M  V30 7756 C 717.016 -1.84336 -0.813785 0
M  V30 7757 O 716.072 -1.96061 -1.59111 0
M  V30 7758 C 717.385 -2.55206 1.5903 0
M  V30 7759 C 718.933 -2.69062 1.5992 0
M  V30 7760 C 719.408 -3.81013 2.54152 0
M  V30 7761 N 720.899 -3.88395 2.52395 0
M  V30 7762 C 721.634 -4.74454 3.21996 0
M  V30 7763 N 721.13 -5.64954 4.00997 0
M  V30 7764 N 722.923 -4.68237 3.10983 0
M  V30 7765 H 715.074 -1.00622 1.87053 0
M  V30 7766 H 717.337 -0.503189 0.803433 0
M  V30 7767 H 717.043 -2.34153 2.62422 0
M  V30 7768 H 716.917 -3.52719 1.33677 0
M  V30 7769 H 719.304 -2.89492 0.572569 0
M  V30 7770 H 719.385 -1.72016 1.89325 0
M  V30 7771 H 719.029 -3.61336 3.5693 0
M  V30 7772 H 718.959 -4.77499 2.22041 0
M  V30 7773 H 721.45 -3.23687 1.95025 0
M  V30 7774 H 721.763 -6.27496 4.51074 0
M  V30 7775 H 720.108 -5.6473 4.05099 0
M  V30 7776 H 723.299 -3.96535 2.48753 0
M  V30 7777 H 723.472 -5.35087 3.65494 0
M  V30 7778 N 716.879 -0.700114 -1.41195 0
M  V30 7779 C 717.826 -0.0376652 -2.30769 0
M  V30 7780 C 718.796 0.766544 -1.47354 0
M  V30 7781 O 719.981 0.73365 -1.76131 0
M  V30 7782 C 717.121 0.889452 -3.33441 0
M  V30 7783 C 716.234 0.076373 -4.31932 0
M  V30 7784 C 715.369 1.00155 -5.21673 0
M  V30 7785 C 714.408 0.181644 -6.1183 0
M  V30 7786 N 713.545 1.06087 -6.94039 0
M  V30 7787 H 718.385 -0.80726 -2.86858 0
M  V30 7788 H 715.922 -0.409798 -1.41277 0
M  V30 7789 H 717.88 1.44107 -3.91522 0
M  V30 7790 H 716.51 1.6254 -2.78892 0
M  V30 7791 H 715.562 -0.592223 -3.75762 0
M  V30 7792 H 716.874 -0.559076 -4.95657 0
M  V30 7793 H 716.028 1.62223 -5.8461 0
M  V30 7794 H 714.767 1.67085 -4.58186 0
M  V30 7795 H 713.772 -0.452085 -5.47938 0
M  V30 7796 H 714.997 -0.483925 -6.77374 0
M  V30 7797 H 712.943 1.7161 -6.33156 0
M  V30 7798 H 712.86 0.481094 -7.54468 0
M  V30 7799 H 714.128 1.66822 -7.6144 0
M  V30 7800 N 718.357 1.51182 -0.445186 0
M  V30 7801 C 719.32 2.26501 0.350722 0
M  V30 7802 C 720.32 1.3025 0.942952 0
M  V30 7803 O 721.51 1.53897 0.816175 0
M  V30 7804 C 718.642 3.06274 1.49697 0
M  V30 7805 H 719.835 2.98299 -0.309474 0
M  V30 7806 H 717.388 1.55034 -0.198551 0
M  V30 7807 H 718.123 2.38911 2.19299 0
M  V30 7808 H 717.908 3.76979 1.0784 0
M  V30 7809 H 719.398 3.63306 2.05909 0
M  V30 7810 N 719.835 0.176821 1.56605 0
M  V30 7811 C 721.251 -0.179278 1.5859 0
M  V30 7812 C 721.451 -1.62433 1.19238 0
M  V30 7813 O 720.507 -2.35665 0.906552 0
M  V30 7814 C 721.82 0.106524 3.00511 0
M  V30 7815 C 723.368 0.0451731 3.12967 0
M  V30 7816 C 723.843 0.304038 4.5699 0
M  V30 7817 N 725.334 0.252008 4.62514 0
M  V30 7818 C 726.069 0.426404 5.71812 0
M  V30 7819 N 725.565 0.660155 6.89648 0
M  V30 7820 N 727.358 0.361926 5.60934 0
M  V30 7821 H 719.509 1.12001 1.8047 0
M  V30 7822 H 721.772 0.445679 0.836704 0
M  V30 7823 H 721.478 1.10778 3.33798 0
M  V30 7824 H 721.352 -0.599337 3.72408 0
M  V30 7825 H 723.739 -0.946662 2.79504 0
M  V30 7826 H 723.82 0.78383 2.43495 0
M  V30 7827 H 723.464 1.29311 4.91163 0
M  V30 7828 H 723.394 -0.455294 5.24628 0
M  V30 7829 H 725.885 0.0772102 3.77821 0
M  V30 7830 H 726.198 0.782529 7.68828 0
M  V30 7831 H 724.543 0.696835 6.91498 0
M  V30 7832 H 727.734 0.17986 4.67754 0
M  V30 7833 H 727.907 0.501263 6.46058 0
M  V30 7834 N 721.313 -1.57302 -0.09688 0
M  V30 7835 C 722.538 -1.9058 -0.818169 0
M  V30 7836 C 722.963 -0.770921 -1.71576 0
M  V30 7837 O 722.321 0.277588 -1.79162 0
M  V30 7838 C 722.369 -3.22714 -1.60898 0
M  V30 7839 O 721.473 -3.10178 -2.71779 0
M  V30 7840 H 720.814 -0.624759 -0.224882 0
M  V30 7841 H 723.344 -2.04471 -0.07264 0
M  V30 7842 H 723.354 -3.55978 -1.99358 0
M  V30 7843 H 722.029 -4.04899 -0.950227 0
M  V30 7844 H 720.606 -2.88424 -2.3636 0
M  V30 7845 N 722.791 0.367657 -1.53252 0
M  V30 7846 C 724.039 1.10832 -1.68999 0
M  V30 7847 C 724.36 1.89894 -0.443306 0
M  V30 7848 O 723.63 1.88235 0.54262 0
M  V30 7849 H 722.21 0.412153 -0.623008 0
M  V30 7850 H 724.872 0.414775 -1.90435 0
M  V30 7851 H 723.968 1.7993 -2.55013 0
M  V30 7852 N 724.269 1.44576 0.627338 0
M  V30 7853 C 725.494 1.51271 1.41887 0
M  V30 7854 C 725.919 0.139814 1.8758 0
M  V30 7855 O 725.277 -0.871746 1.58966 0
M  V30 7856 C 725.325 2.48529 2.61277 0
M  V30 7857 O 724.429 1.98944 3.61241 0
M  V30 7858 H 723.77 0.510668 0.424399 0
M  V30 7859 H 726.3 1.89746 0.765356 0
M  V30 7860 H 726.31 2.66689 3.08773 0
M  V30 7861 H 724.985 3.48249 2.27366 0
M  V30 7862 H 723.562 1.90568 3.20528 0
M  V30 7863 N 725.747 -0.868086 1.31537 0
M  V30 7864 C 726.972 -1.65926 1.24432 0
M  V30 7865 C 727.397 -1.87169 -0.186936 0
M  V30 7866 O 726.755 -1.4148 -1.13371 0
M  V30 7867 C 726.803 -3.00347 1.9956 0
M  V30 7868 O 725.907 -3.90221 1.33422 0
M  V30 7869 H 725.248 -0.506375 0.429512 0
M  V30 7870 H 727.778 -1.0822 1.73637 0
M  V30 7871 H 727.788 -3.50269 2.09226 0
M  V30 7872 H 726.463 -2.84205 3.03645 0
M  V30 7873 H 725.04 -3.48672 1.32219 0
M  V30 7874 N 727.225 -1.14528 -1.08264 0
M  V30 7875 C 728.45 -0.938381 -1.84957 0
M  V30 7876 C 728.875 0.508044 -1.81109 0
M  V30 7877 O 728.233 1.36146 -1.19724 0
M  V30 7878 C 728.281 -1.44568 -3.30352 0
M  V30 7879 O 727.385 -0.638745 -4.07423 0
M  V30 7880 H 726.726 -0.335394 -0.573068 0
M  V30 7881 H 729.256 -1.52287 -1.36637 0
M  V30 7882 H 729.266 -1.45449 -3.81194 0
M  V30 7883 H 727.941 -2.49876 -3.32468 0
M  V30 7884 H 726.518 -0.698801 -3.66294 0
M  V30 7885 N 728.703 1.26451 -0.940633 0
M  V30 7886 C 729.933 1.97581 -0.603766 0
M  V30 7887 C 730.341 1.70246 0.825395 0
M  V30 7888 O 729.684 0.967001 1.56188 0
M  V30 7889 C 729.746 3.51256 -0.765463 0
M  V30 7890 C 729.41 4.0224 -2.16915 0
M  V30 7891 C 730.407 4.1402 -3.14457 0
M  V30 7892 C 728.092 4.36263 -2.48958 0
M  V30 7893 C 730.086 4.59117 -4.42143 0
M  V30 7894 C 727.773 4.81048 -3.76877 0
M  V30 7895 C 728.771 4.92436 -4.73282 0
M  V30 7896 O 728.459 5.36234 -5.98923 0
M  V30 7897 H 728.191 0.636948 -0.226436 0
M  V30 7898 H 730.745 1.61941 -1.2635 0
M  V30 7899 H 728.975 3.86669 -0.0485956 0
M  V30 7900 H 730.664 4.03597 -0.431738 0
M  V30 7901 H 731.43 3.87981 -2.91026 0
M  V30 7902 H 727.309 4.26634 -1.74656 0
M  V30 7903 H 730.853 4.6792 -5.17394 0
M  V30 7904 H 726.75 5.06531 -4.00121 0
M  V30 7905 H 727.518 5.54456 -6.02097 0
M  V30 7906 N 730.181 0.707592 1.40822 0
M  V30 7907 C 731.406 0.251626 2.05868 0
M  V30 7908 C 731.831 -1.09503 1.5294 0
M  V30 7909 O 731.189 -1.68806 0.661385 0
M  V30 7910 C 731.237 0.23287 3.59847 0
M  V30 7911 O 730.341 -0.788477 4.04792 0
M  V30 7912 H 729.682 0.119936 0.653078 0
M  V30 7913 H 732.212 0.96583 1.80369 0
M  V30 7914 H 732.222 0.0678204 4.07944 0
M  V30 7915 H 730.897 1.21565 3.97737 0
M  V30 7916 H 729.474 -0.591802 3.68174 0
M  V30 7917 N 731.66 -1.50943 0.453197 0
M  V30 7918 C 732.89 -2.06328 -0.105981 0
M  V30 7919 C 733.298 -1.31909 -1.35634 0
M  V30 7920 O 732.641 -0.376607 -1.79798 0
M  V30 7921 C 732.703 -3.5631 -0.477868 0
M  V30 7922 C 732.367 -4.52093 0.667925 0
M  V30 7923 C 733.364 -4.96421 1.54475 0
M  V30 7924 C 731.049 -4.95001 0.853168 0
M  V30 7925 C 733.043 -5.82346 2.59138 0
M  V30 7926 C 730.73 -5.80713 1.90305 0
M  V30 7927 C 731.728 -6.24284 2.77053 0
M  V30 7928 O 731.416 -7.08291 3.80236 0
M  V30 7929 H 731.148 -0.675986 -0.00427247 0
M  V30 7930 H 733.702 -1.95314 0.635738 0
M  V30 7931 H 731.932 -3.65163 -1.27252 0
M  V30 7932 H 733.621 -3.94138 -0.970039 0
M  V30 7933 H 734.387 -4.63953 1.41324 0
M  V30 7934 H 730.266 -4.60619 0.187482 0
M  V30 7935 H 733.81 -6.16276 3.2688 0
M  V30 7936 H 729.707 -6.12593 2.03469 0
M  V30 7937 H 730.475 -7.26504 3.77007 0
M  V30 7938 N 733.138 -0.185124 -1.56509 0
M  V30 7939 C 734.386 0.455357 -1.96903 0
M  V30 7940 C 734.707 1.62839 -1.07277 0
M  V30 7941 O 733.977 1.95385 -0.141966 0
M  V30 7942 H 732.557 0.171218 -0.727113 0
M  V30 7943 H 735.219 -0.26953 -1.93027 0
M  V30 7944 H 734.315 0.80616 -3.01509 0
M  V30 7945 N 734.616 1.57351 0.0885366 0
M  V30 7946 C 736.027 1.75303 0.642308 0
M  V30 7947 C 736.378 0.808238 1.78779 0
M  V30 7948 O 735.503 -0.01171 2.16397 0
M  V30 7949 C 736.098 3.17885 1.17194 0
M  V30 7950 C 734.657 3.37239 1.67172 0
M  V30 7951 C 733.804 2.7108 0.584045 0
M  V30 7952 H 736.755 1.58103 -0.137567 0
M  V30 7953 H 736.776 3.2112 2.04114 0
M  V30 7954 H 736.288 3.86625 0.338024 0
M  V30 7955 H 734.389 2.73588 2.52943 0
M  V30 7956 H 734.502 4.45594 1.76019 0
M  V30 7957 H 732.866 2.33161 1.02508 0
M  V30 7958 H 733.649 3.42464 -0.239403 0
M  V30 7959 N 736.094 -0.359525 1.53444 0
M  V30 7960 C 737.027 -1.46338 1.75101 0
M  V30 7961 C 738.005 -1.51142 0.599559 0
M  V30 7962 O 739.189 -1.69102 0.832862 0
M  V30 7963 C 736.316 -2.84667 1.83527 0
M  V30 7964 C 735.362 -2.9756 3.05549 0
M  V30 7965 S 736.195 -2.65685 4.64943 0
M  V30 7966 C 737.351 -4.06153 4.76225 0
M  V30 7967 H 737.584 -1.27747 2.68455 0
M  V30 7968 H 735.117 -0.554231 1.4411 0
M  V30 7969 H 737.075 -3.64368 1.89067 0
M  V30 7970 H 735.736 -3.00564 0.912147 0
M  V30 7971 H 734.929 -3.98883 3.08072 0
M  V30 7972 H 734.531 -2.25789 2.98153 0
M  V30 7973 H 736.823 -5.00475 4.56652 0
M  V30 7974 H 737.766 -4.08632 5.78295 0
M  V30 7975 H 738.174 -3.93435 4.04808 0
M  V30 7976 N 737.572 -1.44907 -0.619662 0
M  V30 7977 C 738.818 -1.48512 -1.38102 0
M  V30 7978 C 739.151 -0.121686 -1.93818 0
M  V30 7979 O 738.426 0.862256 -1.74343 0
M  V30 7980 C 738.709 -2.55469 -2.53787 0
M  V30 7981 C 738.562 -4.01212 -2.03345 0
M  V30 7982 C 739.881 -2.58821 -3.55949 0
M  V30 7983 H 737 -0.540712 -0.500799 0
M  V30 7984 H 739.642 -1.7665 -0.69962 0
M  V30 7985 H 737.792 -2.31606 -3.11915 0
M  V30 7986 H 739.464 -4.36245 -1.49959 0
M  V30 7987 H 737.707 -4.12443 -1.34438 0
M  V30 7988 H 738.378 -4.71717 -2.86683 0
M  V30 7989 H 740.854 -2.80172 -3.07641 0
M  V30 7990 H 739.73 -3.35542 -4.34399 0
M  V30 7991 H 739.991 -1.63451 -4.10775 0
M  V30 7992 N 739.05 0.861098 -1.31996 0
M  V30 7993 C 740.275 1.65264 -1.2531 0
M  V30 7994 C 740.7 1.87265 0.177007 0
M  V30 7995 O 740.058 1.4208 1.12619 0
M  V30 7996 C 740.106 2.99284 -2.0115 0
M  V30 7997 O 739.21 3.89508 -1.3549 0
M  V30 7998 H 738.551 0.50409 -0.432192 0
M  V30 7999 H 741.081 1.07297 -1.74208 0
M  V30 8000 H 741.091 3.49154 -2.11081 0
M  V30 8001 H 739.766 2.82591 -3.05148 0
M  V30 8002 H 738.343 3.47966 -1.34066 0
M  V30 8003 N 740.528 1.15101 1.07655 0
M  V30 8004 C 741.478 0.813448 2.12995 0
M  V30 8005 C 742.462 -0.200899 1.59641 0
M  V30 8006 O 743.654 -0.00209918 1.77 0
M  V30 8007 C 740.783 0.301078 3.41977 0
M  V30 8008 C 739.869 1.3454 4.02194 0
M  V30 8009 N 740.26 2.55181 4.36711 0
M  V30 8010 C 738.558 1.19742 4.29625 0
M  V30 8011 C 739.259 3.22094 4.84387 0
M  V30 8012 N 738.235 2.49486 4.82968 0
M  V30 8013 H 742.037 1.73105 2.37511 0
M  V30 8014 H 739.551 1.03601 1.25063 0
M  V30 8015 H 741.548 0.040914 4.1688 0
M  V30 8016 H 740.208 -0.610629 3.18907 0
M  V30 8017 H 741.219 2.92349 4.27496 0
M  V30 8018 H 737.896 0.345353 4.16069 0
M  V30 8019 H 739.286 4.24996 5.20411 0
M  V30 8020 N 742.006 -1.2595 0.947325 0
M  V30 8021 C 743.234 -1.97544 0.615127 0
M  V30 8022 C 743.649 -1.70484 -0.811221 0
M  V30 8023 O 743.006 -0.97662 -1.5417 0
M  V30 8024 C 743.057 -3.51236 0.855328 0
M  V30 8025 O 742.778 -3.77359 2.22558 0
M  V30 8026 C 744.279 -4.40066 0.534515 0
M  V30 8027 H 741.499 -0.629888 0.231263 0
M  V30 8028 H 744.043 -1.60308 1.26971 0
M  V30 8029 H 742.198 -3.8661 0.247266 0
M  V30 8030 H 742.612 -4.71857 2.29022 0
M  V30 8031 H 744.086 -5.46838 0.753168 0
M  V30 8032 H 744.563 -4.35982 -0.530701 0
M  V30 8033 H 745.169 -4.10245 1.12158 0
M  V30 8034 N 743.484 -0.715051 -1.40445 0
M  V30 8035 C 744.709 -0.26254 -2.05732 0
M  V30 8036 C 745.134 1.08691 -1.53519 0
M  V30 8037 O 744.492 1.68453 -0.670328 0
M  V30 8038 C 744.54 -0.25195 -3.59719 0
M  V30 8039 O 743.644 0.766998 -4.05205 0
M  V30 8040 H 742.985 -0.123398 -0.652433 0
M  V30 8041 H 745.515 -0.975382 -1.79854 0
M  V30 8042 H 745.525 -0.0894537 -4.07902 0
M  V30 8043 H 744.2 -1.23672 -3.97087 0
M  V30 8044 H 742.777 0.572269 -3.68483 0
M  V30 8045 N 744.962 1.50701 -0.461195 0
M  V30 8046 C 746.208 2.02566 0.0973411 0
M  V30 8047 C 746.541 1.3432 1.40257 0
M  V30 8048 O 745.816 0.465692 1.88843 0
M  V30 8049 C 746.099 3.58919 0.291423 0
M  V30 8050 C 745.952 4.37751 -1.03413 0
M  V30 8051 C 747.271 4.27379 1.05048 0
M  V30 8052 H 744.39 0.73622 0.0339026 0
M  V30 8053 H 747.032 1.80115 -0.604855 0
M  V30 8054 H 745.182 3.78179 0.889539 0
M  V30 8055 H 746.854 4.30085 -1.66806 0
M  V30 8056 H 745.097 4.01885 -1.63313 0
M  V30 8057 H 745.768 5.45384 -0.852085 0
M  V30 8058 H 748.244 4.12534 0.543603 0
M  V30 8059 H 747.12 5.36609 1.15506 0
M  V30 8060 H 747.381 3.89868 2.0846 0
M  V30 8061 N 746.441 0.193421 1.56409 0
M  V30 8062 C 747.669 -0.451438 2.01915 0
M  V30 8063 C 748.084 -1.55306 1.07357 0
M  V30 8064 O 747.441 -1.82333 0.0781512 0
M  V30 8065 C 747.492 -1.00931 3.47124 0
M  V30 8066 O 747.213 0.0483623 4.38073 0
M  V30 8067 C 748.714 -1.73021 4.0814 0
M  V30 8068 H 745.934 -0.113495 0.661332 0
M  V30 8069 H 748.478 0.301636 2.02263 0
M  V30 8070 H 746.633 -1.71277 3.47481 0
M  V30 8071 H 747.047 -0.366644 5.23217 0
M  V30 8072 H 748.521 -2.07289 5.11601 0
M  V30 8073 H 748.998 -2.6333 3.51502 0
M  V30 8074 H 749.604 -1.07264 4.11551 0
M  V30 8075 N 747.919 -1.57396 -0.0801906 0
M  V30 8076 C 748.867 -2.04136 -1.11495 0
M  V30 8077 C 749.861 -0.945137 -1.40583 0
M  V30 8078 O 751.067 -1.13028 -1.40088 0
M  V30 8079 H 747.442 -0.65076 -0.37685 0
M  V30 8080 H 749.413 -2.90205 -0.694526 0
M  V30 8081 C 748.162 -2.49399 -2.42272 0
M  V30 8082 H 747.485 -3.33339 -2.20737 0
M  V30 8083 H 748.925 -2.85864 -3.13142 0
M  V30 8084 C 747.384 -1.37341 -3.07635 0
M  V30 8085 O 747.914 -0.710829 -3.95361 0
M  V30 8086 N 746.12 -1.12064 -2.68123 0
M  V30 8087 H 745.667 -1.66126 -1.96875 0
M  V30 8088 H 745.625 -0.372916 -3.12181 0
M  V30 8089 N 749.397 0.351382 -1.53633 0
M  V30 8090 C 750.643 1.09411 -1.70754 0
M  V30 8091 C 750.976 1.88544 -0.465293 0
M  V30 8092 O 750.251 1.86923 0.537608 0
M  V30 8093 C 750.534 2.04173 -2.96623 0
M  V30 8094 C 750.387 1.28556 -4.31038 0
M  V30 8095 C 751.706 3.04102 -3.18136 0
M  V30 8096 H 748.825 0.396373 -0.621335 0
M  V30 8097 H 751.467 0.373464 -1.86293 0
M  V30 8098 H 749.617 2.65625 -2.83506 0
M  V30 8099 H 751.289 0.697786 -4.55992 0
M  V30 8100 H 749.532 0.587498 -4.29803 0
M  V30 8101 H 750.203 1.97989 -5.15271 0
M  V30 8102 H 752.679 2.5276 -3.30532 0
M  V30 8103 H 751.555 3.67616 -4.07615 0
M  V30 8104 H 751.816 3.75053 -2.34068 0
M  V30 8105 N 750.875 1.45233 0.611969 0
M  V30 8106 C 752.123 1.48727 1.36838 0
M  V30 8107 C 752.444 0.128616 1.94575 0
M  V30 8108 O 751.714 -0.84149 1.76906 0
M  V30 8109 H 750.294 0.547695 0.507976 0
M  V30 8110 H 752.956 1.81156 0.718925 0
M  V30 8111 H 752.052 2.2236 2.19003 0
M  V30 8112 N 752.353 -0.854086 1.3245 0
M  V30 8113 C 753.764 -1.42427 1.20712 0
M  V30 8114 C 754.115 -1.95371 -0.18013 0
M  V30 8115 O 753.24 -1.87587 -1.07889 0
M  V30 8116 C 753.835 -2.58897 2.18536 0
M  V30 8117 C 752.394 -3.11913 2.10683 0
M  V30 8118 C 751.541 -1.84661 2.06871 0
M  V30 8119 H 754.492 -0.661192 1.4427 0
M  V30 8120 H 754.513 -3.36074 1.78422 0
M  V30 8121 H 754.025 -2.20333 3.19492 0
M  V30 8122 H 752.126 -3.55059 1.12977 0
M  V30 8123 H 752.239 -3.73119 3.00532 0
M  V30 8124 H 750.603 -2.04285 1.52118 0
M  V30 8125 H 751.386 -1.48314 3.09609 0
M  V30 8126 N 753.831 -1.1567 -1.07043 0
M  V30 8127 C 755.247 -0.900006 -1.31803 0
M  V30 8128 C 755.447 0.451293 -1.96381 0
M  V30 8129 O 754.503 1.19252 -2.22565 0
M  V30 8130 C 755.816 -2.04334 -2.20609 0
M  V30 8131 C 757.364 -2.07823 -2.34048 0
M  V30 8132 C 757.839 -3.21488 -3.26204 0
M  V30 8133 N 759.33 -3.21156 -3.33786 0
M  V30 8134 C 760.065 -4.05746 -4.05163 0
M  V30 8135 N 759.561 -5.00407 -4.79129 0
M  V30 8136 N 761.354 -3.93759 -4.01136 0
M  V30 8137 H 753.505 -2.02681 -0.635146 0
M  V30 8138 H 755.768 -0.883956 -0.342528 0
M  V30 8139 H 755.474 -3.01895 -1.80423 0
M  V30 8140 H 755.348 -1.97838 -3.21154 0
M  V30 8141 H 757.735 -1.1086 -2.73485 0
M  V30 8142 H 757.816 -2.18386 -1.33197 0
M  V30 8143 H 757.46 -4.18706 -2.87485 0
M  V30 8144 H 757.39 -3.08162 -4.27017 0
M  V30 8145 H 759.881 -2.52606 -2.81067 0
M  V30 8146 H 760.194 -5.61387 -5.31097 0
M  V30 8147 H 758.539 -5.04393 -4.78135 0
M  V30 8148 H 761.73 -3.19115 -3.42466 0
M  V30 8149 H 761.903 -4.59906 -4.56498 0
M  V30 8150 N 755.309 1.25446 -0.953992 0
M  V30 8151 C 756.555 1.9343 -0.60933 0
M  V30 8152 C 756.888 1.74542 0.851388 0
M  V30 8153 O 756.163 1.09014 1.61078 0
M  V30 8154 C 756.446 3.46844 -0.968041 0
M  V30 8155 C 756.299 3.74961 -2.48444 0
M  V30 8156 C 757.618 4.37334 -0.492641 0
M  V30 8157 H 754.737 0.702502 -0.222844 0
M  V30 8158 H 757.379 1.48076 -1.19053 0
M  V30 8159 H 755.529 3.85604 -0.473465 0
M  V30 8160 H 757.201 3.45841 -3.05273 0
M  V30 8161 H 755.444 3.20589 -2.92241 0
M  V30 8162 H 756.115 4.82246 -2.68594 0
M  V30 8163 H 758.591 4.05873 -0.916878 0
M  V30 8164 H 757.467 5.43439 -0.772331 0
M  V30 8165 H 757.728 4.37908 0.607403 0
M  V30 8166 N 756.787 0.722489 1.40064 0
M  V30 8167 C 758.035 0.264455 2.00362 0
M  V30 8168 C 758.356 -1.14847 1.57592 0
M  V30 8169 O 757.626 -1.77982 0.818477 0
M  V30 8170 H 756.206 0.0947846 0.740962 0
M  V30 8171 H 758.868 0.929659 1.71299 0
M  V30 8172 H 757.964 0.302977 3.10626 0
M  V30 8173 N 758.265 -1.50454 0.469181 0
M  V30 8174 C 759.195 -2.31353 -0.31592 0
M  V30 8175 C 760.176 -1.38172 -0.992094 0
M  V30 8176 O 761.361 -1.67093 -0.989633 0
M  V30 8177 C 758.491 -3.1786 -1.39937 0
M  V30 8178 C 757.445 -4.19578 -0.844909 0
M  V30 8179 C 756.771 -4.9481 -2.0265 0
M  V30 8180 C 758.071 -5.22106 0.142499 0
M  V30 8181 H 759.765 -2.97237 0.359269 0
M  V30 8182 H 757.311 -1.42942 0.174224 0
M  V30 8183 H 759.264 -3.7325 -1.95607 0
M  V30 8184 H 757.988 -2.49858 -2.1033 0
M  V30 8185 H 756.647 -3.65285 -0.310189 0
M  V30 8186 H 756.295 -4.23282 -2.71737 0
M  V30 8187 H 755.995 -5.63613 -1.66174 0
M  V30 8188 H 757.519 -5.53035 -2.58815 0
M  V30 8189 H 758.933 -5.72378 -0.324966 0
M  V30 8190 H 757.33 -5.98618 0.421441 0
M  V30 8191 H 758.4 -4.7297 1.06901 0
M  V30 8192 N 759.743 -0.201713 -1.56304 0
M  V30 8193 C 760.991 0.434447 -1.97375 0
M  V30 8194 C 761.312 1.61692 -1.08998 0
M  V30 8195 O 760.582 1.95223 -0.162682 0
M  V30 8196 H 759.162 0.163497 -0.728888 0
M  V30 8197 H 761.824 -0.289988 -1.92731 0
M  V30 8198 H 760.92 0.774136 -3.02347 0
M  V30 8199 N 761.222 1.57436 0.0718424 0
M  V30 8200 C 762.152 2.06724 1.08571 0
M  V30 8201 C 763.133 0.960731 1.40371 0
M  V30 8202 O 764.318 1.23345 1.49999 0
M  V30 8203 C 761.448 2.51112 2.39916 0
M  V30 8204 C 760.402 3.65639 2.22469 0
M  V30 8205 C 759.728 3.96082 3.59198 0
M  V30 8206 C 761.028 4.95687 1.64596 0
M  V30 8207 H 762.722 2.91679 0.675569 0
M  V30 8208 H 760.268 1.40319 0.32352 0
M  V30 8209 H 762.221 2.84206 3.11135 0
M  V30 8210 H 760.945 1.63186 2.8291 0
M  V30 8211 H 759.604 3.32828 1.53691 0
M  V30 8212 H 759.252 3.05287 3.99761 0
M  V30 8213 H 758.952 4.73199 3.48362 0
M  V30 8214 H 760.476 4.31672 4.31847 0
M  V30 8215 H 761.89 5.27011 2.25681 0
M  V30 8216 H 760.287 5.77126 1.64457 0
M  V30 8217 H 761.357 4.8108 0.60744 0
M  V30 8218 N 762.7 -0.34323 1.53817 0
M  V30 8219 C 764.111 -0.918823 1.62525 0
M  V30 8220 C 764.462 -1.89542 0.506765 0
M  V30 8221 O 763.587 -2.13326 -0.363441 0
M  V30 8222 C 764.182 -1.67326 2.94597 0
M  V30 8223 C 762.741 -2.19786 3.05567 0
M  V30 8224 C 761.888 -1.01708 2.57974 0
M  V30 8225 H 764.839 -0.121358 1.58235 0
M  V30 8226 H 764.86 -2.53615 2.83654 0
M  V30 8227 H 764.372 -0.962223 3.75983 0
M  V30 8228 H 762.473 -2.94065 2.28816 0
M  V30 8229 H 762.586 -2.46135 4.1104 0
M  V30 8230 H 760.95 -1.39058 2.13389 0
M  V30 8231 H 761.733 -0.320671 3.41799 0
M  V30 8232 N 764.178 -1.45556 -0.604258 0
M  V30 8233 C 765.108 -1.57327 -1.72541 0
M  V30 8234 C 766.089 -0.424637 -1.64714 0
M  V30 8235 O 767.274 -0.648196 -1.83063 0
M  V30 8236 C 764.404 -1.54279 -3.11152 0
M  V30 8237 C 763.358 -2.67893 -3.33792 0
M  V30 8238 C 762.684 -2.499 -4.72709 0
M  V30 8239 C 763.984 -4.0988 -3.23722 0
M  V30 8240 H 765.678 -2.51175 -1.62947 0
M  V30 8241 H 763.224 -1.20884 -0.782504 0
M  V30 8242 H 765.177 -1.6111 -3.89386 0
M  V30 8243 H 763.901 -0.569627 -3.21594 0
M  V30 8244 H 762.56 -2.60495 -2.57949 0
M  V30 8245 H 762.208 -1.50715 -4.79889 0
M  V30 8246 H 761.908 -3.26091 -4.88813 0
M  V30 8247 H 763.432 -2.5859 -5.5314 0
M  V30 8248 H 764.846 -4.18503 -3.91826 0
M  V30 8249 H 763.243 -4.86487 -3.51355 0
M  V30 8250 H 764.313 -4.31553 -2.21111 0
M  V30 8251 N 765.656 0.84705 -1.32902 0
M  V30 8252 C 766.881 1.63925 -1.27056 0
M  V30 8253 C 767.306 1.87443 0.157136 0
M  V30 8254 O 766.664 1.43266 1.11106 0
M  V30 8255 C 766.712 2.97134 -2.04313 0
M  V30 8256 O 765.816 3.88049 -1.39614 0
M  V30 8257 H 765.157 0.499477 -0.437514 0
M  V30 8258 H 767.687 1.05443 -1.75336 0
M  V30 8259 H 767.697 3.46896 -2.14772 0
M  V30 8260 H 766.372 2.79339 -3.08128 0
M  V30 8261 H 764.949 3.46525 -1.3775 0
M  V30 8262 N 767.134 1.16236 1.06428 0
M  V30 8263 C 768.545 0.950942 1.60667 0
M  V30 8264 C 768.896 -0.505491 1.89576 0
M  V30 8265 O 768.021 -1.37843 1.66818 0
M  V30 8266 C 768.616 1.71982 2.91904 0
M  V30 8267 C 767.175 1.55342 3.4285 0
M  V30 8268 C 766.322 1.72942 2.16763 0
M  V30 8269 H 769.273 1.31126 0.893959 0
M  V30 8270 H 769.294 1.19483 3.61253 0
M  V30 8271 H 768.806 2.77978 2.70831 0
M  V30 8272 H 766.907 0.5178 3.68985 0
M  V30 8273 H 767.02 2.33643 4.18267 0
M  V30 8274 H 765.384 1.15673 2.26918 0
M  V30 8275 H 766.167 2.80324 1.98175 0
M  V30 8276 N 768.612 -1.24939 0.960631 0
M  V30 8277 C 770.028 -1.45039 0.666018 0
M  V30 8278 C 770.228 -1.86021 -0.774501 0
M  V30 8279 O 769.284 -1.99392 -1.54916 0
M  V30 8280 C 770.597 -2.51775 1.64408 0
M  V30 8281 C 772.145 -2.6561 1.65592 0
M  V30 8282 C 772.62 -3.75536 2.62177 0
M  V30 8283 N 774.111 -3.82954 2.60577 0
M  V30 8284 C 774.846 -4.67517 3.31987 0
M  V30 8285 N 774.342 -5.56321 4.1289 0
M  V30 8286 N 776.135 -4.61535 3.20845 0
M  V30 8287 H 768.286 -0.96632 1.89145 0
M  V30 8288 H 770.549 -0.486034 0.813926 0
M  V30 8289 H 770.255 -2.28534 2.67329 0
M  V30 8290 H 770.129 -3.49804 1.41128 0
M  V30 8291 H 772.516 -2.88212 0.633846 0
M  V30 8292 H 772.597 -1.67962 1.92931 0
M  V30 8293 H 772.241 -3.53684 3.64514 0
M  V30 8294 H 772.171 -4.72682 2.32119 0
M  V30 8295 H 774.662 -3.19478 2.01847 0
M  V30 8296 H 774.975 -6.17787 4.64283 0
M  V30 8297 H 773.32 -5.5601 4.16987 0
M  V30 8298 H 776.511 -3.91169 2.57108 0
M  V30 8299 H 776.684 -5.27214 3.76762 0
M  V30 8300 N 770.09 -0.729906 -1.39679 0
M  V30 8301 C 771.02 -0.101618 -2.33279 0
M  V30 8302 C 772.001 0.729854 -1.53646 0
M  V30 8303 O 773.186 0.67587 -1.82059 0
M  V30 8304 C 770.316 0.81024 -3.37716 0
M  V30 8305 C 769.27 0.0833126 -4.27919 0
M  V30 8306 C 768.596 1.11185 -5.23012 0
M  V30 8307 C 769.896 -1.07107 -5.112 0
M  V30 8308 H 771.59 -0.883452 -2.86069 0
M  V30 8309 H 769.136 -0.426283 -1.37546 0
M  V30 8310 H 771.089 1.25927 -4.02145 0
M  V30 8311 H 769.813 1.62413 -2.83354 0
M  V30 8312 H 768.472 -0.346043 -3.64963 0
M  V30 8313 H 768.12 1.91917 -4.64948 0
M  V30 8314 H 767.82 0.63026 -5.8421 0
M  V30 8315 H 769.344 1.56068 -5.90318 0
M  V30 8316 H 770.758 -0.700726 -5.69002 0
M  V30 8317 H 769.155 -1.48196 -5.81514 0
M  V30 8318 H 770.225 -1.89513 -4.46332 0
M  V30 8319 N 771.568 1.50203 -0.477153 0
M  V30 8320 C 772.498 2.31517 0.303646 0
M  V30 8321 C 773.479 1.38696 0.984753 0
M  V30 8322 O 774.664 1.67615 0.980758 0
M  V30 8323 C 771.794 3.18598 1.38249 0
M  V30 8324 C 770.748 4.2002 0.822645 0
M  V30 8325 C 770.074 4.95878 2.00024 0
M  V30 8326 C 771.374 5.22023 -0.170185 0
M  V30 8327 H 773.068 2.97042 -0.375027 0
M  V30 8328 H 770.614 1.42848 -0.181802 0
M  V30 8329 H 772.567 3.74282 1.93625 0
M  V30 8330 H 771.291 2.5097 2.09002 0
M  V30 8331 H 769.95 3.65445 0.290813 0
M  V30 8332 H 769.598 4.24717 2.69489 0
M  V30 8333 H 769.298 5.64487 1.63183 0
M  V30 8334 H 770.822 5.54399 2.55878 0
M  V30 8335 H 772.236 5.72543 0.294606 0
M  V30 8336 H 770.633 5.98386 -0.453181 0
M  V30 8337 H 771.703 4.72396 -1.09408 0
M  V30 8338 N 773.046 0.209999 1.56195 0
M  V30 8339 C 774.457 -0.299943 1.84275 0
M  V30 8340 C 774.808 -1.60314 1.1311 0
M  V30 8341 O 773.933 -2.1273 0.396874 0
M  V30 8342 C 774.528 -0.550986 3.3429 0
M  V30 8343 C 773.087 -1.00526 3.62728 0
M  V30 8344 C 772.234 -0.0619828 2.77231 0
M  V30 8345 H 775.185 0.433458 1.52666 0
M  V30 8346 H 775.206 -1.39846 3.53869 0
M  V30 8347 H 774.718 0.397669 3.86057 0
M  V30 8348 H 772.819 -1.96768 3.16407 0
M  V30 8349 H 772.932 -0.887664 4.70805 0
M  V30 8350 H 771.296 -0.566648 2.48317 0
M  V30 8351 H 772.079 0.881383 3.31793 0
M  V30 8352 N 774.524 -1.57472 -0.0634922 0
M  V30 8353 C 775.752 -1.91887 -0.773767 0
M  V30 8354 C 776.167 -0.806733 -1.70696 0
M  V30 8355 O 775.524 0.219383 -1.81177 0
M  V30 8356 C 775.575 -3.26092 -1.56034 0
M  V30 8357 O 775.296 -4.33029 -0.66464 0
M  V30 8358 C 776.797 -3.74573 -2.37087 0
M  V30 8359 H 774.017 -0.634074 -0.219525 0
M  V30 8360 H 776.561 -2.04476 -0.0312828 0
M  V30 8361 H 774.716 -3.15004 -2.25502 0
M  V30 8362 H 775.13 -5.10291 -1.21258 0
M  V30 8363 H 776.604 -4.71084 -2.87722 0
M  V30 8364 H 777.081 -3.04003 -3.16984 0
M  V30 8365 H 777.687 -3.88631 -1.72759 0
M  V30 8366 N 776.003 0.335068 -1.53997 0
M  V30 8367 C 776.966 1.39481 -1.81872 0
M  V30 8368 C 777.966 1.4524 -0.690078 0
M  V30 8369 O 779.156 1.45467 -0.958377 0
M  V30 8370 C 776.288 2.78329 -1.9684 0
M  V30 8371 H 777.481 1.16024 -2.76547 0
M  V30 8372 H 775.034 0.569926 -1.45539 0
M  V30 8373 H 775.769 3.07058 -1.04337 0
M  V30 8374 H 775.554 2.75544 -2.78958 0
M  V30 8375 H 777.044 3.55016 -2.19894 0
M  V30 8376 N 777.481 1.45874 0.596531 0
M  V30 8377 C 778.709 1.54013 1.38158 0
M  V30 8378 C 779.124 0.17648 1.87973 0
M  V30 8379 O 778.481 -0.823895 1.62844 0
M  V30 8380 C 778.532 2.53363 2.57855 0
M  V30 8381 O 778.253 3.8443 2.10108 0
M  V30 8382 C 779.754 2.71308 3.50581 0
M  V30 8383 H 776.974 0.521251 0.422538 0
M  V30 8384 H 779.518 1.9116 0.726493 0
M  V30 8385 H 777.673 2.19257 3.19382 0
M  V30 8386 H 778.087 4.38384 2.87958 0
M  V30 8387 H 779.561 3.44776 4.31084 0
M  V30 8388 H 780.038 1.77728 4.01633 0
M  V30 8389 H 780.644 3.06455 2.94899 0
M  V30 8390 N 778.959 -0.83999 1.33349 0
M  V30 8391 C 780.187 -1.62728 1.27778 0
M  V30 8392 C 780.602 -1.88191 -0.151505 0
M  V30 8393 O 779.959 -1.46128 -1.09329 0
M  V30 8394 C 780.01 -2.97813 2.04913 0
M  V30 8395 O 779.731 -2.73469 3.42266 0
M  V30 8396 C 781.232 -3.92245 2.0654 0
M  V30 8397 H 778.452 -0.506374 0.440257 0
M  V30 8398 H 780.996 -1.04637 1.75703 0
M  V30 8399 H 779.151 -3.52509 1.60674 0
M  V30 8400 H 779.565 -3.59483 3.81932 0
M  V30 8401 H 781.039 -4.84249 2.64966 0
M  V30 8402 H 781.516 -4.26332 1.05537 0
M  V30 8403 H 782.122 -3.43487 2.50793 0
M  V30 8404 N 780.437 -1.16799 -1.0581 0
M  V30 8405 C 781.385 -0.875111 -2.1551 0
M  V30 8406 C 782.379 0.157781 -1.68664 0
M  V30 8407 O 783.585 0.011297 -1.79996 0
M  V30 8408 H 779.96 -0.26542 -0.703602 0
M  V30 8409 H 781.931 -1.8076 -2.37421 0
M  V30 8410 C 780.68 -0.39802 -3.45414 0
M  V30 8411 H 780.003 -1.18425 -3.81858 0
M  V30 8412 H 781.443 -0.231913 -4.23365 0
M  V30 8413 C 779.902 0.88327 -3.25115 0
M  V30 8414 O 780.432 1.95145 -3.51114 0
M  V30 8415 N 778.638 0.828961 -2.78526 0
M  V30 8416 H 778.185 -0.0405029 -2.57568 0
M  V30 8417 H 778.143 1.68673 -2.65324 0
M  V30 8418 N 781.915 1.24427 -0.967243 0
M  V30 8419 C 783.163 1.92107 -0.627638 0
M  V30 8420 C 783.484 1.75991 0.83978 0
M  V30 8421 O 782.754 1.13118 1.59941 0
M  V30 8422 H 781.334 0.710986 -0.229145 0
M  V30 8423 H 783.996 1.51331 -1.22821 0
M  V30 8424 H 783.092 2.99791 -0.867844 0
M  V30 8425 N 783.393 0.737304 1.3929 0
M  V30 8426 C 784.343 0.0748537 2.27877 0
M  V30 8427 C 785.327 -0.71022 1.44377 0
M  V30 8428 O 786.519 -0.578851 1.67267 0
M  V30 8429 C 783.648 -0.82991 3.33118 0
M  V30 8430 C 782.734 -0.0388619 4.24082 0
M  V30 8431 N 783.125 0.989182 4.96033 0
M  V30 8432 C 781.423 -0.268167 4.45193 0
M  V30 8433 C 782.124 1.46639 5.62914 0
M  V30 8434 N 781.1 0.784581 5.37908 0
M  V30 8435 H 784.902 0.862457 2.80961 0
M  V30 8436 H 782.416 0.571845 1.51999 0
M  V30 8437 H 784.413 -1.31999 3.95452 0
M  V30 8438 H 783.073 -1.61665 2.81593 0
M  V30 8439 H 784.084 1.3706 4.99435 0
M  V30 8440 H 780.761 -1.02953 4.04607 0
M  V30 8441 H 782.151 2.32182 6.30508 0
M  V30 8442 N 784.871 -1.49948 0.485112 0
M  V30 8443 C 786.282 -1.8667 0.0334041 0
M  V30 8444 C 786.633 -1.3988 -1.37579 0
M  V30 8445 O 785.758 -0.769788 -2.02245 0
M  V30 8446 C 786.353 -3.38757 0.0538426 0
M  V30 8447 C 784.912 -3.74839 -0.342453 0
M  V30 8448 C 784.059 -2.73894 0.433281 0
M  V30 8449 H 787.01 -1.42492 0.698699 0
M  V30 8450 H 787.031 -3.73132 -0.745146 0
M  V30 8451 H 786.543 -3.72782 1.07959 0
M  V30 8452 H 784.644 -3.46419 -1.37203 0
M  V30 8453 H 784.757 -4.79088 -0.0340503 0
M  V30 8454 H 783.121 -2.54441 -0.114849 0
M  V30 8455 H 783.904 -3.10763 1.45881 0
M  V30 8456 N 786.349 -0.21828 -1.56081 0
M  V30 8457 C 787.281 0.725447 -2.17416 0
M  V30 8458 C 788.294 1.15995 -1.14233 0
M  V30 8459 O 789.483 1.09166 -1.41227 0
M  V30 8460 C 786.583 1.99401 -2.7403 0
M  V30 8461 C 785.756 1.7156 -4.02351 0
M  V30 8462 C 784.815 2.8309 -4.43561 0
M  V30 8463 O 783.841 2.51701 -5.10525 0
M  V30 8464 N 785.043 4.11972 -4.08973 0
M  V30 8465 H 787.808 0.200801 -2.99027 0
M  V30 8466 H 785.369 -0.0371514 -1.61857 0
M  V30 8467 H 787.361 2.73198 -2.98571 0
M  V30 8468 H 785.931 2.42923 -1.96742 0
M  V30 8469 H 785.151 0.814233 -3.85699 0
M  V30 8470 H 786.439 1.50385 -4.86068 0
M  V30 8471 H 785.837 4.40319 -3.55156 0
M  V30 8472 H 784.394 4.82323 -4.38415 0
M  V30 8473 N 787.827 1.57504 0.0551401 0
M  V30 8474 C 788.757 2.07864 1.06372 0
M  V30 8475 C 789.738 0.975565 1.39344 0
M  V30 8476 O 790.923 1.24929 1.48682 0
M  V30 8477 C 788.053 2.53643 2.3724 0
M  V30 8478 C 787.007 3.67978 2.18578 0
M  V30 8479 C 786.333 3.9987 3.54976 0
M  V30 8480 C 787.633 4.97405 1.59329 0
M  V30 8481 H 789.327 2.92379 0.644595 0
M  V30 8482 H 786.873 1.40654 0.308619 0
M  V30 8483 H 788.826 2.8749 3.08103 0
M  V30 8484 H 787.55 1.66177 2.81163 0
M  V30 8485 H 786.209 3.3444 1.50152 0
M  V30 8486 H 785.857 3.0951 3.965 0
M  V30 8487 H 785.557 4.76867 3.43324 0
M  V30 8488 H 787.081 4.36228 4.27244 0
M  V30 8489 H 788.495 5.29375 2.20078 0
M  V30 8490 H 786.892 5.78837 1.58327 0
M  V30 8491 H 787.962 4.81697 0.55638 0
M  V30 8492 N 789.305 -0.326896 1.54172 0
M  V30 8493 C 790.716 -0.901533 1.63491 0
M  V30 8494 C 791.067 -1.88994 0.52684 0
M  V30 8495 O 790.192 -2.137 -0.340794 0
M  V30 8496 C 790.787 -1.64192 2.96355 0
M  V30 8497 C 789.346 -2.16533 3.07881 0
M  V30 8498 C 788.493 -0.98966 2.59039 0
M  V30 8499 H 791.444 -0.104568 1.58355 0
M  V30 8500 H 791.465 -2.50592 2.86328 0
M  V30 8501 H 790.977 -0.922291 3.76982 0
M  V30 8502 H 789.078 -2.91622 2.31922 0
M  V30 8503 H 789.191 -2.41762 4.13628 0
M  V30 8504 H 787.555 -1.36787 2.14852 0
M  V30 8505 H 788.338 -0.284401 3.4212 0
M  V30 8506 N 790.784 -1.46188 -0.588786 0
M  V30 8507 C 792.032 -1.50885 -1.34455 0
M  V30 8508 C 792.353 -0.159555 -1.94346 0
M  V30 8509 O 791.623 0.813239 -1.78222 0
M  V30 8510 H 790.203 -0.555707 -0.499198 0
M  V30 8511 H 792.865 -1.82277 -0.690014 0
M  V30 8512 H 791.961 -2.25816 -2.15438 0
M  V30 8513 N 792.262 0.832906 -1.33792 0
M  V30 8514 C 793.212 1.93178 -1.21105 0
M  V30 8515 C 794.196 1.60506 -0.112491 0
M  V30 8516 O 795.388 1.73681 -0.341179 0
M  V30 8517 C 792.517 3.29647 -0.958526 0
M  V30 8518 C 791.603 3.68469 -2.0998 0
M  V30 8519 N 791.994 3.78936 -3.35024 0
M  V30 8520 C 790.292 3.98249 -2.00782 0
M  V30 8521 C 790.993 4.12731 -4.09912 0
M  V30 8522 N 789.969 4.25419 -3.38407 0
M  V30 8523 H 793.771 1.99434 -2.15878 0
M  V30 8524 H 791.285 1.02598 -1.25886 0
M  V30 8525 H 793.282 4.08173 -0.848552 0
M  V30 8526 H 791.942 3.24694 -0.019387 0
M  V30 8527 H 792.953 3.62688 -3.69699 0
M  V30 8528 H 789.63 4.01474 -1.14564 0
M  V30 8529 H 791.02 4.28117 -5.17847 0
M  V30 8530 N 793.74 1.17359 1.05189 0
M  V30 8531 C 794.703 0.892604 2.11105 0
M  V30 8532 C 795.703 -0.117236 1.60372 0
M  V30 8533 O 796.893 0.114936 1.7382 0
M  V30 8534 C 794.025 0.337032 3.3923 0
M  V30 8535 H 795.218 1.83169 2.37464 0
M  V30 8536 H 792.771 0.984051 1.21434 0
M  V30 8537 H 793.506 -0.609198 3.18527 0
M  V30 8538 H 793.291 1.06484 3.77364 0
M  V30 8539 H 794.781 0.158763 4.17298 0
M  V30 8540 N 795.218 -1.23913 0.973828 0
M  V30 8541 C 796.165 -2.25132 0.508366 0
M  V30 8542 C 797.135 -1.59908 -0.449307 0
M  V30 8543 O 798.32 -1.87405 -0.358313 0
M  V30 8544 C 795.46 -3.4458 -0.189422 0
M  V30 8545 C 794.573 -4.24381 0.807738 0
M  V30 8546 C 793.708 -5.31131 0.0854315 0
M  V30 8547 C 792.747 -6.02635 1.07225 0
M  V30 8548 N 791.884 -7.01073 0.379535 0
M  V30 8549 H 796.724 -2.64313 1.37632 0
M  V30 8550 H 794.261 -1.29924 0.689802 0
M  V30 8551 H 796.219 -4.12706 -0.610733 0
M  V30 8552 H 794.849 -3.06218 -1.02129 0
M  V30 8553 H 793.901 -3.55735 1.34747 0
M  V30 8554 H 795.213 -4.73778 1.55998 0
M  V30 8555 H 794.367 -6.05422 -0.393572 0
M  V30 8556 H 793.106 -4.82658 -0.699461 0
M  V30 8557 H 792.111 -5.27143 1.56207 0
M  V30 8558 H 793.336 -6.53197 1.85769 0
M  V30 8559 H 791.282 -6.54862 -0.386269 0
M  V30 8560 H 791.199 -7.48382 1.07054 0
M  V30 8561 H 792.467 -7.79462 -0.0772984 0
M  V30 8562 N 796.696 -0.74468 -1.38897 0
M  V30 8563 C 798.107 -0.36568 -1.83084 0
M  V30 8564 C 798.458 1.10436 -1.62168 0
M  V30 8565 O 797.583 1.85281 -1.11804 0
M  V30 8566 C 798.178 -0.656946 -3.3237 0
M  V30 8567 C 796.737 -0.331329 -3.74939 0
M  V30 8568 C 795.884 -0.914661 -2.61781 0
M  V30 8569 H 798.835 -0.941551 -1.27752 0
M  V30 8570 H 798.856 0.0679546 -3.80439 0
M  V30 8571 H 798.368 -1.72693 -3.47561 0
M  V30 8572 H 796.469 0.732426 -3.6533 0
M  V30 8573 H 796.582 -0.820655 -4.72019 0
M  V30 8574 H 794.946 -0.34063 -2.52412 0
M  V30 8575 H 795.729 -1.98949 -2.79775 0
M  V30 8576 N 798.174 1.49689 -0.493057 0
M  V30 8577 C 799.422 2.02027 0.0541642 0
M  V30 8578 C 799.743 1.37554 1.38217 0
M  V30 8579 O 799.013 0.528174 1.88646 0
M  V30 8580 H 797.593 0.746646 0.0230069 0
M  V30 8581 H 800.255 1.83795 -0.648489 0
M  V30 8582 H 799.351 3.11523 0.189652 0
M  V30 8583 N 799.652 0.226554 1.55963 0
M  V30 8584 C 800.88 -0.408507 2.02827 0
M  V30 8585 C 801.295 -1.52994 1.10627 0
M  V30 8586 O 800.652 -1.82126 0.116809 0
M  V30 8587 C 800.703 -0.93545 3.49187 0
M  V30 8588 O 800.424 0.141273 4.37872 0
M  V30 8589 C 801.925 -1.64325 4.11719 0
M  V30 8590 H 799.145 -0.099442 0.66359 0
M  V30 8591 H 801.689 0.344471 2.01578 0
M  V30 8592 H 799.844 -1.63868 3.51036 0
M  V30 8593 H 800.258 -0.25558 5.23877 0
M  V30 8594 H 801.732 -1.9639 5.15883 0
M  V30 8595 H 802.209 -2.55815 3.57009 0
M  V30 8596 H 802.815 -0.9851 4.13734 0
M  V30 8597 N 801.13 -1.57531 -0.0467866 0
M  V30 8598 C 802.541 -1.76945 -0.595603 0
M  V30 8599 C 802.892 -0.855354 -1.76573 0
M  V30 8600 O 802.017 -0.045668 -2.16352 0
M  V30 8601 C 802.612 -3.20881 -1.08725 0
M  V30 8602 C 801.171 -3.41553 -1.58172 0
M  V30 8603 C 800.318 -2.72533 -0.511968 0
M  V30 8604 H 803.269 -1.57682 0.179436 0
M  V30 8605 H 803.29 -3.26419 -1.95528 0
M  V30 8606 H 802.802 -3.87385 -0.235398 0
M  V30 8607 H 800.903 -2.80199 -2.456 0
M  V30 8608 H 801.016 -4.50104 -1.64143 0
M  V30 8609 H 799.38 -2.35797 -0.962899 0
M  V30 8610 H 800.163 -3.41709 0.330117 0
M  V30 8611 N 802.608 0.318715 -1.54344 0
M  V30 8612 C 803.571 1.37545 -1.83342 0
M  V30 8613 C 804.571 1.445 -0.705444 0
M  V30 8614 O 805.761 1.44443 -0.973752 0
M  V30 8615 C 802.893 2.76225 -1.99781 0
M  V30 8616 H 804.086 1.13084 -2.77762 0
M  V30 8617 H 801.639 0.554457 -1.46135 0
M  V30 8618 H 802.374 3.05934 -1.07588 0
M  V30 8619 H 802.159 2.7257 -2.81865 0
M  V30 8620 H 803.649 3.52664 -2.23647 0
M  V30 8621 N 804.086 1.46499 0.581025 0
M  V30 8622 C 805.016 1.60052 1.70017 0
M  V30 8623 C 805.997 0.450788 1.64018 0
M  V30 8624 O 807.182 0.677237 1.82009 0
M  V30 8625 C 804.312 1.5921 3.08658 0
M  V30 8626 C 803.266 2.73169 3.29488 0
M  V30 8627 C 802.592 2.57389 4.68674 0
M  V30 8628 C 803.892 4.14978 3.1716 0
M  V30 8629 H 805.586 2.53735 1.5893 0
M  V30 8630 H 803.132 1.22113 0.763173 0
M  V30 8631 H 805.085 1.67285 3.86773 0
M  V30 8632 H 803.809 0.620718 3.20647 0
M  V30 8633 H 802.468 2.64566 2.53773 0
M  V30 8634 H 802.116 1.58331 4.77431 0
M  V30 8635 H 801.816 3.33826 4.83564 0
M  V30 8636 H 803.34 2.67358 5.48956 0
M  V30 8637 H 804.754 4.24684 3.85119 0
M  V30 8638 H 803.151 4.92016 3.4357 0
M  V30 8639 H 804.221 4.35016 2.14218 0
M  V30 8640 N 805.565 -0.825799 1.34232 0
M  V30 8641 C 806.475 -1.9684 1.27638 0
M  V30 8642 C 807.491 -1.73018 0.184569 0
M  V30 8643 O 808.667 -1.97172 0.410525 0
M  V30 8644 C 805.732 -3.31084 1.02879 0
M  V30 8645 C 804.793 -3.67933 2.21188 0
M  V30 8646 C 804.026 -4.95772 1.976 0
M  V30 8647 O 804.249 -5.62721 0.93281 0
M  V30 8648 O 803.183 -5.30431 2.84477 0
M  V30 8649 H 807.009 -2.05346 2.23756 0
M  V30 8650 H 804.594 -0.960772 1.1441 0
M  V30 8651 H 806.476 -4.11492 0.908406 0
M  V30 8652 H 805.151 -3.23552 0.0979821 0
M  V30 8653 H 804.058 -2.87981 2.38784 0
M  V30 8654 H 805.391 -3.80147 3.12648 0
M  V30 8655 N 807.043 -1.17915 -1.04565 0
M  V30 8656 C 808.271 -0.99616 -1.8134 0
M  V30 8657 C 808.686 0.455509 -1.83223 0
M  V30 8658 O 808.043 1.31636 -1.26405 0
M  V30 8659 C 808.094 -1.53758 -3.27171 0
M  V30 8660 O 807.815 -2.93241 -3.25486 0
M  V30 8661 C 809.316 -1.40007 -4.2061 0
M  V30 8662 H 806.536 -0.352055 -0.571225 0
M  V30 8663 H 809.08 -1.56349 -1.31815 0
M  V30 8664 H 807.235 -1.01213 -3.73945 0
M  V30 8665 H 807.649 -3.18392 -4.16805 0
M  V30 8666 H 809.123 -1.82695 -5.2089 0
M  V30 8667 H 809.6 -0.348054 -4.37819 0
M  V30 8668 H 810.206 -1.916 -3.79697 0
M  V30 8669 N 808.521 1.23394 -0.980386 0
M  V30 8670 C 809.451 2.2717 -0.540024 0
M  V30 8671 C 810.432 1.64659 0.426787 0
M  V30 8672 O 811.617 1.91543 0.320153 0
M  V30 8673 C 808.747 3.46939 0.15836 0
M  V30 8674 C 807.701 4.21802 -0.725732 0
M  V30 8675 C 807.027 5.34597 0.104866 0
M  V30 8676 C 808.327 4.81802 -2.01654 0
M  V30 8677 H 810.021 2.64257 -1.40743 0
M  V30 8678 H 807.567 1.2703 -0.678193 0
M  V30 8679 H 809.52 4.18683 0.477737 0
M  V30 8680 H 808.244 3.08912 1.06022 0
M  V30 8681 H 806.903 3.51875 -1.02857 0
M  V30 8682 H 806.551 4.92812 1.00726 0
M  V30 8683 H 806.251 5.85607 -0.483557 0
M  V30 8684 H 807.775 6.09163 0.418624 0
M  V30 8685 H 809.189 5.45554 -1.76193 0
M  V30 8686 H 807.586 5.43098 -2.55273 0
M  V30 8687 H 808.656 4.02549 -2.70338 0
M  V30 8688 N 809.999 0.752036 1.385 0
M  V30 8689 C 810.909 0.125318 2.34265 0
M  V30 8690 C 811.925 -0.702437 1.59191 0
M  V30 8691 O 813.101 -0.626951 1.91393 0
M  V30 8692 C 810.166 -0.758486 3.38301 0
M  V30 8693 C 809.227 0.0834636 4.29219 0
M  V30 8694 C 808.46 -0.758252 5.28286 0
M  V30 8695 O 808.683 -1.99632 5.34325 0
M  V30 8696 O 807.617 -0.177878 6.01637 0
M  V30 8697 H 811.443 0.91617 2.89551 0
M  V30 8698 H 809.028 0.512911 1.4032 0
M  V30 8699 H 810.91 -1.26365 4.02007 0
M  V30 8700 H 809.585 -1.52786 2.85374 0
M  V30 8701 H 808.492 0.634545 3.68679 0
M  V30 8702 H 809.825 0.815455 4.85398 0
M  V30 8703 N 811.477 -1.49425 0.500989 0
M  V30 8704 C 812.705 -2.06861 -0.0403443 0
M  V30 8705 C 813.12 -1.36132 -1.30819 0
M  V30 8706 O 812.477 -0.439647 -1.77125 0
M  V30 8707 C 812.528 -3.6027 -0.297902 0
M  V30 8708 O 812.249 -4.28338 0.919686 0
M  V30 8709 C 813.75 -4.34419 -0.882876 0
M  V30 8710 H 810.97 -0.670688 0.0204619 0
M  V30 8711 H 813.514 -1.92207 0.698342 0
M  V30 8712 H 811.669 -3.74627 -0.98657 0
M  V30 8713 H 812.083 -5.2004 0.682528 0
M  V30 8714 H 813.557 -5.42631 -1.01268 0
M  V30 8715 H 814.034 -3.96898 -1.88066 0
M  V30 8716 H 814.64 -4.24669 -0.231677 0
M  V30 8717 N 812.955 -0.234822 -1.55841 0
M  V30 8718 C 814.183 0.397745 -2.03041 0
M  V30 8719 C 814.598 1.52405 -1.11437 0
M  V30 8720 O 813.955 1.82061 -0.126466 0
M  V30 8721 C 814.006 0.916919 -3.49678 0
M  V30 8722 O 813.727 -0.164493 -4.37791 0
M  V30 8723 C 815.228 1.62139 -4.12584 0
M  V30 8724 H 812.448 0.0959214 -0.664108 0
M  V30 8725 H 814.992 -0.355156 -2.01392 0
M  V30 8726 H 813.147 1.62004 -3.519 0
M  V30 8727 H 813.561 0.227794 -5.24005 0
M  V30 8728 H 815.035 1.93651 -5.16917 0
M  V30 8729 H 815.512 2.53918 -3.58361 0
M  V30 8730 H 816.118 0.963145 -4.14251 0
M  V30 8731 N 814.433 1.57553 0.0384317 0
M  V30 8732 C 815.844 1.77258 0.586211 0
M  V30 8733 C 816.195 0.864706 1.76117 0
M  V30 8734 O 815.32 0.057141 2.16325 0
M  V30 8735 C 815.915 3.21453 1.07021 0
M  V30 8736 C 814.474 3.42387 1.56358 0
M  V30 8737 C 813.621 2.72801 0.497508 0
M  V30 8738 H 816.572 1.57585 -0.187796 0
M  V30 8739 H 816.593 3.27451 1.93794 0
M  V30 8740 H 816.105 3.87505 0.214851 0
M  V30 8741 H 814.206 2.81497 2.44111 0
M  V30 8742 H 814.319 4.50968 1.61754 0
M  V30 8743 H 812.683 2.36305 0.95038 0
M  V30 8744 H 813.466 3.41529 -0.348234 0
M  V30 8745 N 815.911 -0.310526 1.54511 0
M  V30 8746 C 817.322 -0.884142 1.64438 0
M  V30 8747 C 817.673 -1.88425 0.546855 0
M  V30 8748 O 816.798 -2.14049 -0.31811 0
M  V30 8749 C 817.393 -1.6104 2.9808 0
M  V30 8750 C 815.952 -2.13255 3.1016 0
M  V30 8751 C 815.099 -0.96213 2.60074 0
M  V30 8752 H 818.05 -0.0877666 1.58457 0
M  V30 8753 H 818.071 -2.47541 2.8897 0
M  V30 8754 H 817.583 -0.882255 3.77939 0
M  V30 8755 H 815.684 -2.89145 2.35002 0
M  V30 8756 H 815.797 -2.37361 4.16169 0
M  V30 8757 H 814.161 -1.34501 2.16291 0
M  V30 8758 H 814.944 -0.248098 3.42402 0
M  V30 8759 N 817.389 -1.46805 -0.573248 0
M  V30 8760 C 818.352 -1.57655 -1.66366 0
M  V30 8761 C 819.352 -0.452905 -1.5429 0
M  V30 8762 O 820.542 -0.717502 -1.58737 0
M  V30 8763 C 817.674 -1.50584 -3.05839 0
M  V30 8764 H 818.867 -2.54842 -1.581 0
M  V30 8765 H 816.42 -1.34756 -0.791868 0
M  V30 8766 H 817.155 -0.547127 -3.19651 0
M  V30 8767 H 816.94 -2.32118 -3.16012 0
M  V30 8768 H 818.43 -1.61282 -3.85199 0
M  V30 8769 N 818.867 0.818669 -1.34668 0
M  V30 8770 C 819.8 1.93516 -1.20941 0
M  V30 8771 C 820.778 1.62292 -0.100061 0
M  V30 8772 O 821.962 1.86614 -0.265983 0
M  V30 8773 C 819.089 3.27612 -0.859524 0
M  V30 8774 C 818.135 3.77794 -1.97923 0
M  V30 8775 S 818.968 3.97043 -3.59329 0
M  V30 8776 C 820.124 5.3406 -3.2639 0
M  V30 8777 H 820.357 2.04864 -2.15449 0
M  V30 8778 H 817.89 0.974716 -1.19744 0
M  V30 8779 H 819.848 4.05087 -0.664444 0
M  V30 8780 H 818.509 3.14028 0.0672835 0
M  V30 8781 H 817.702 4.74883 -1.68827 0
M  V30 8782 H 817.304 3.0728 -2.13202 0
M  V30 8783 H 819.596 6.17626 -2.78469 0
M  V30 8784 H 820.539 5.68143 -4.22634 0
M  V30 8785 H 820.947 4.99773 -2.62464 0
M  V30 8786 N 820.346 1.18468 1.03938 0
M  V30 8787 C 821.309 0.914944 2.10146 0
M  V30 8788 C 822.309 -0.10022 1.60487 0
M  V30 8789 O 823.499 0.133365 1.73689 0
M  V30 8790 C 820.631 0.372993 3.38853 0
M  V30 8791 H 821.824 1.85677 2.35508 0
M  V30 8792 H 819.377 0.996876 1.20383 0
M  V30 8793 H 820.112 -0.57538 3.19155 0
M  V30 8794 H 819.897 1.1048 3.76213 0
M  V30 8795 H 821.387 0.203014 4.17106 0
M  V30 8796 N 821.824 -1.22873 0.986916 0
M  V30 8797 C 822.787 -2.2281 0.537442 0
M  V30 8798 C 823.787 -1.56331 -0.37646 0
M  V30 8799 O 824.977 -1.73376 -0.169247 0
M  V30 8800 C 822.109 -3.40195 -0.219082 0
M  V30 8801 H 823.302 -2.64089 1.42116 0
M  V30 8802 H 820.855 -1.35819 0.773488 0
M  V30 8803 H 821.59 -3.04381 -1.11905 0
M  V30 8804 H 821.375 -3.89657 0.437026 0
M  V30 8805 H 822.865 -4.14326 -0.521926 0
M  V30 8806 N 823.302 -0.75937 -1.38099 0
M  V30 8807 C 824.713 -0.385078 -1.82686 0
M  V30 8808 C 825.064 1.0871 -1.6333 0
M  V30 8809 O 824.189 1.84084 -1.13762 0
M  V30 8810 C 824.784 -0.692161 -3.31654 0
M  V30 8811 C 823.343 -0.371077 -3.74566 0
M  V30 8812 C 822.49 -0.942375 -2.60796 0
M  V30 8813 H 825.441 -0.955048 -1.26746 0
M  V30 8814 H 825.462 0.0276001 -3.8049 0
M  V30 8815 H 824.974 -1.76369 -3.4571 0
M  V30 8816 H 823.075 0.693637 -3.66087 0
M  V30 8817 H 823.188 -0.870672 -4.71122 0
M  V30 8818 H 821.552 -0.367383 -2.52036 0
M  V30 8819 H 822.335 -2.01905 -2.77649 0
M  V30 8820 N 824.78 1.49157 -0.508906 0
M  V30 8821 C 825.727 2.2927 0.265288 0
M  V30 8822 C 826.697 1.3603 0.953162 0
M  V30 8823 O 827.882 1.64989 0.958291 0
M  V30 8824 C 825.022 3.18897 1.31904 0
M  V30 8825 C 824.135 4.27201 0.642144 0
M  V30 8826 C 823.27 5.04033 1.67701 0
M  V30 8827 C 822.309 6.04165 0.982422 0
M  V30 8828 N 821.446 6.74133 1.96186 0
M  V30 8829 H 826.286 2.94967 -0.424107 0
M  V30 8830 H 823.823 1.45431 -0.220991 0
M  V30 8831 H 825.781 3.69242 1.94206 0
M  V30 8832 H 824.411 2.55168 1.97709 0
M  V30 8833 H 823.463 3.80283 -0.0943395 0
M  V30 8834 H 824.775 4.98708 0.0957507 0
M  V30 8835 H 823.929 5.58287 2.37487 0
M  V30 8836 H 822.668 4.32317 2.25728 0
M  V30 8837 H 821.673 5.49135 0.270378 0
M  V30 8838 H 822.898 6.7787 0.408554 0
M  V30 8839 H 820.844 6.05183 2.53159 0
M  V30 8840 H 820.761 7.41643 1.46634 0
M  V30 8841 H 822.029 7.32987 2.65236 0
M  V30 8842 N 826.258 0.243083 1.55714 0
M  V30 8843 C 827.535 -0.432851 1.90751 0
M  V30 8844 C 827.915 -1.76153 1.16333 0
M  V30 8845 O 827.263 -2.26783 0.279565 0
M  V30 8846 C 827.473 -0.604685 3.43722 0
M  V30 8847 C 828.821 -0.90231 4.14902 0
M  V30 8848 O 829.845 -0.690689 3.49439 0
M  V30 8849 O 828.704 -1.3051 5.30688 0
M  V30 8850 H 825.798 -0.231835 0.79384 0
M  V30 8851 H 828.344 0.286867 1.67258 0
M  V30 8852 H 827.116 0.331655 3.89892 0
M  V30 8853 H 826.739 -1.37509 3.73065 0
M  V30 8854 N 827.736 -1.57571 -0.0300757 0
M  V30 8855 C 829.013 -1.80381 -0.756447 0
M  V30 8856 C 829.393 -0.840906 -1.93628 0
M  V30 8857 O 828.741 0.117143 -2.282 0
M  V30 8858 C 828.951 -3.2807 -1.19043 0
M  V30 8859 C 830.299 -3.93025 -1.60676 0
M  V30 8860 O 831.323 -3.32213 -1.28503 0
M  V30 8861 O 830.182 -5.00092 -2.20386 0
M  V30 8862 H 827.276 -0.741737 -0.365725 0
M  V30 8863 H 829.822 -1.69699 -0.00693177 0
M  V30 8864 H 828.594 -3.89748 -0.348128 0
M  V30 8865 H 828.217 -3.43637 -1.99999 0
M  V30 8866 N 829.214 0.302327 -1.54673 0
M  V30 8867 C 830.462 1.03565 -1.73547 0
M  V30 8868 C 830.783 1.87843 -0.523448 0
M  V30 8869 O 830.053 1.90367 0.462295 0
M  V30 8870 H 828.633 0.385358 -0.639928 0
M  V30 8871 H 831.295 0.333632 -1.92023 0
M  V30 8872 H 830.391 1.68952 -2.62415 0
M  V30 8873 N 830.692 1.47107 0.565454 0
M  V30 8874 C 831.939 1.53308 1.32299 0
M  V30 8875 C 832.267 0.1919 1.93551 0
M  V30 8876 O 831.522 -0.81435 1.77952 0
M  V30 8877 C 831.821 2.59309 2.45954 0
M  V30 8878 C 831.487 4.02827 2.02586 0
M  V30 8879 C 830.149 4.41897 1.90474 0
M  V30 8880 C 832.501 4.92913 1.6937 0
M  V30 8881 C 829.829 5.68898 1.4343 0
M  V30 8882 C 832.181 6.20368 1.238 0
M  V30 8883 C 830.845 6.58327 1.10278 0
M  V30 8884 H 830.115 0.560993 0.484116 0
M  V30 8885 H 832.762 1.80667 0.634965 0
M  V30 8886 H 831.067 2.25676 3.20277 0
M  V30 8887 H 832.764 2.61332 3.04149 0
M  V30 8888 H 829.354 3.71953 2.12952 0
M  V30 8889 H 833.538 4.63433 1.77605 0
M  V30 8890 H 828.794 5.97065 1.31618 0
M  V30 8891 H 832.968 6.89589 0.971586 0
M  V30 8892 H 830.595 7.56628 0.736027 0
M  V30 8893 N 832.17 -0.811516 1.35101 0
M  V30 8894 C 833.1 -1.9378 1.30275 0
M  V30 8895 C 834.081 -1.69165 0.178075 0
M  V30 8896 O 835.266 -1.90599 0.372256 0
M  V30 8897 C 832.396 -3.30439 1.06899 0
M  V30 8898 C 831.35 -3.69523 2.15955 0
M  V30 8899 C 830.676 -5.0429 1.77751 0
M  V30 8900 C 831.976 -3.80419 3.57881 0
M  V30 8901 H 833.67 -1.98075 2.24514 0
M  V30 8902 H 831.216 -0.951586 1.08078 0
M  V30 8903 H 833.169 -4.08828 1.02164 0
M  V30 8904 H 831.893 -3.26473 0.0910462 0
M  V30 8905 H 830.552 -2.93416 2.19778 0
M  V30 8906 H 830.2 -4.96823 0.785876 0
M  V30 8907 H 829.9 -5.31411 2.5075 0
M  V30 8908 H 831.424 -5.85125 1.74533 0
M  V30 8909 H 832.838 -4.49051 3.56407 0
M  V30 8910 H 831.235 -4.19005 4.29598 0
M  V30 8911 H 832.305 -2.82105 3.94391 0
M  V30 8912 N 833.648 -1.19017 -1.03309 0
M  V30 8913 C 834.596 -0.920627 -2.13605 0
M  V30 8914 C 835.59 0.121969 -1.6896 0
M  V30 8915 O 836.796 -0.0268854 -1.7998 0
M  V30 8916 H 833.171 -0.280284 -0.697814 0
M  V30 8917 H 835.142 -1.85755 -2.33533 0
M  V30 8918 C 833.891 -0.471198 -3.44492 0
M  V30 8919 H 833.214 -1.26499 -3.7926 0
M  V30 8920 H 834.654 -0.321663 -4.22778 0
M  V30 8921 C 833.113 0.81411 -3.26916 0
M  V30 8922 O 833.643 1.87654 -3.55175 0
M  V30 8923 N 831.849 0.769695 -2.80221 0
M  V30 8924 H 831.396 -0.0951278 -2.57424 0
M  V30 8925 H 831.354 1.63008 -2.68842 0
M  V30 8926 N 835.127 1.22348 -0.993418 0
M  V30 8927 C 836.375 1.90733 -0.668246 0
M  V30 8928 C 836.696 1.77732 0.802261 0
M  V30 8929 O 835.966 1.16486 1.57505 0
M  V30 8930 H 834.546 0.705966 -0.244174 0
M  V30 8931 H 837.208 1.48691 -1.26004 0
M  V30 8932 H 836.304 2.97883 -0.931239 0
M  V30 8933 N 836.605 0.766683 1.37694 0
M  V30 8934 C 837.83 0.338715 2.04615 0
M  V30 8935 C 838.255 -1.02918 1.57447 0
M  V30 8936 O 837.613 -1.65849 0.732386 0
M  V30 8937 C 837.661 0.385284 3.58536 0
M  V30 8938 O 836.765 -0.616081 4.07772 0
M  V30 8939 H 836.106 0.147527 0.647404 0
M  V30 8940 H 838.636 1.04146 1.7611 0
M  V30 8941 H 838.646 0.240782 4.07289 0
M  V30 8942 H 837.321 1.38325 3.92223 0
M  V30 8943 H 835.898 -0.435115 3.70353 0
M  V30 8944 N 838.083 -1.48885 0.516809 0
M  V30 8945 C 839.323 -2.0439 -0.0202232 0
M  V30 8946 C 839.687 -1.38652 -1.32814 0
M  V30 8947 O 840.888 -1.84968 -1.95039 0
M  V30 8948 C 839.159 -3.57071 -0.153257 0
M  V30 8949 S 840.718 -4.34074 -0.642256 0
M  V30 8950 H 837.536 -0.710977 0.00576322 0
M  V30 8951 H 840.138 -1.82753 0.694376 0
M  V30 8952 H 838.842 -4.02454 0.803695 0
M  V30 8953 H 838.373 -3.83139 -0.892627 0
M  V30 8954 H 840.388 -4.58011 -1.90893 0
M  V30 8955 N 839.561 -0.251338 -1.55583 0
M  V30 8956 C 840.786 0.379136 -2.03905 0
M  V30 8957 C 841.211 1.50428 -1.12929 0
M  V30 8958 O 840.569 1.80882 -0.123114 0
M  V30 8959 C 840.617 0.86009 -3.50193 0
M  V30 8960 O 839.721 1.96932 -3.62342 0
M  V30 8961 H 839.062 0.0820183 -0.658915 0
M  V30 8962 H 841.592 -0.378692 -2.01065 0
M  V30 8963 H 841.602 1.16214 -3.91099 0
M  V30 8964 H 840.277 0.0367559 -4.15884 0
M  V30 8965 H 838.854 1.67163 -3.33333 0
M  V30 8966 N 841.039 1.57585 0.0217189 0
M  V30 8967 C 842.287 1.89231 0.709641 0
M  V30 8968 C 842.608 0.849964 1.75501 0
M  V30 8969 O 841.878 -0.115485 1.95559 0
M  V30 8970 H 840.458 0.69838 0.265092 0
M  V30 8971 H 843.12 1.94895 -0.0140688 0
M  V30 8972 H 842.216 2.88333 1.19459 0
M  V30 8973 N 842.517 -0.29412 1.54831 0
M  V30 8974 C 843.447 -1.36757 1.89261 0
M  V30 8975 C 844.428 -1.52564 0.752214 0
M  V30 8976 O 845.613 -1.65958 1.00855 0
M  V30 8977 C 842.743 -2.73066 2.14597 0
M  V30 8978 C 841.697 -2.72017 3.3044 0
M  V30 8979 C 841.023 -4.11679 3.4121 0
M  V30 8980 C 842.323 -2.33149 4.67375 0
M  V30 8981 H 844.017 -1.08191 2.79169 0
M  V30 8982 H 841.563 -0.519014 1.34321 0
M  V30 8983 H 843.516 -3.48255 2.37269 0
M  V30 8984 H 842.24 -3.03172 1.21467 0
M  V30 8985 H 840.899 -1.99285 3.07703 0
M  V30 8986 H 840.547 -4.38973 2.45584 0
M  V30 8987 H 840.247 -4.11877 4.19084 0
M  V30 8988 H 841.771 -4.88637 3.6615 0
M  V30 8989 H 843.185 -2.98054 4.89731 0
M  V30 8990 H 841.582 -2.44546 5.48012 0
M  V30 8991 H 842.652 -1.28275 4.67626 0
M  V30 8992 N 843.995 -1.47404 -0.557645 0
M  V30 8993 C 845.272 -1.44488 -1.31843 0
M  V30 8994 C 845.652 -0.1416 -2.10625 0
M  V30 8995 O 845 0.876908 -2.11004 0
M  V30 8996 C 845.21 -2.69016 -2.22331 0
M  V30 8997 C 846.558 -3.16212 -2.83364 0
M  V30 8998 O 847.582 -2.69741 -2.32634 0
M  V30 8999 O 846.441 -3.96999 -3.75571 0
M  V30 9000 H 843.535 -0.57578 -0.593639 0
M  V30 9001 H 846.081 -1.59605 -0.576584 0
M  V30 9002 H 844.853 -3.55406 -1.63715 0
M  V30 9003 H 844.476 -2.56484 -3.03812 0
M  V30 9004 N 845.473 0.80434 -1.35529 0
M  V30 9005 C 846.383 1.94784 -1.30753 0
M  V30 9006 C 847.399 1.72703 -0.212071 0
M  V30 9007 O 848.575 1.96494 -0.441841 0
M  V30 9008 C 845.64 3.29406 -1.08133 0
M  V30 9009 C 844.701 3.64367 -2.27013 0
M  V30 9010 C 843.934 4.92566 -2.05463 0
M  V30 9011 O 844.157 5.61166 -1.02222 0
M  V30 9012 O 843.091 5.25838 -2.92879 0
M  V30 9013 H 846.917 2.01761 -2.26994 0
M  V30 9014 H 844.502 0.942448 -1.15924 0
M  V30 9015 H 846.384 4.09995 -0.973756 0
M  V30 9016 H 845.059 3.23355 -0.149444 0
M  V30 9017 H 843.966 2.84146 -2.43335 0
M  V30 9018 H 845.299 3.75125 -3.18656 0
M  V30 9019 N 846.951 1.19563 1.02676 0
M  V30 9020 C 847.861 0.950691 2.14474 0
M  V30 9021 C 848.877 -0.0900219 1.73767 0
M  V30 9022 O 850.053 0.0951063 2.01175 0
M  V30 9023 C 847.118 0.494917 3.43149 0
M  V30 9024 C 846.179 1.60527 3.98158 0
M  V30 9025 C 845.412 1.17115 5.20692 0
M  V30 9026 O 845.635 0.0355937 5.70389 0
M  V30 9027 O 844.569 1.97454 5.68591 0
M  V30 9028 H 848.395 1.88651 2.38001 0
M  V30 9029 H 845.98 0.978635 1.12885 0
M  V30 9030 H 847.862 0.249492 4.20661 0
M  V30 9031 H 846.537 -0.412434 3.21062 0
M  V30 9032 H 845.444 1.90487 3.21971 0
M  V30 9033 H 846.777 2.48925 4.24614 0
M  V30 9034 N 848.429 -1.21819 0.999893 0
M  V30 9035 C 849.392 -2.22227 0.561044 0
M  V30 9036 C 850.392 -1.56722 -0.359858 0
M  V30 9037 O 851.582 -1.73546 -0.150848 0
M  V30 9038 C 848.714 -3.40409 -0.182987 0
M  V30 9039 H 849.907 -2.62567 1.44909 0
M  V30 9040 H 847.46 -1.34991 0.78785 0
M  V30 9041 H 848.195 -3.05551 -1.08671 0
M  V30 9042 H 847.98 -3.89171 0.47833 0
M  V30 9043 H 849.47 -4.14856 -0.477952 0
M  V30 9044 N 849.908 -0.773975 -1.37286 0
M  V30 9045 C 851.133 -0.349561 -2.04433 0
M  V30 9046 C 851.558 1.02082 -1.5799 0
M  V30 9047 O 850.916 1.65458 -0.741172 0
M  V30 9048 C 850.964 -0.404292 -3.58326 0
M  V30 9049 O 850.068 0.594447 -4.08093 0
M  V30 9050 H 849.409 -0.150959 -0.646612 0
M  V30 9051 H 851.939 -1.05079 -1.75555 0
M  V30 9052 H 851.949 -0.262378 -4.07155 0
M  V30 9053 H 850.624 -1.40403 -3.91484 0
M  V30 9054 H 849.201 0.415468 -3.70578 0
M  V30 9055 N 851.386 1.48609 -0.524698 0
M  V30 9056 C 852.634 2.02097 0.0112991 0
M  V30 9057 C 852.955 1.40455 1.35268 0
M  V30 9058 O 852.225 0.56807 1.87483 0
M  V30 9059 H 850.805 0.746966 0.00716426 0
M  V30 9060 H 853.467 1.82378 -0.687329 0
M  V30 9061 H 852.563 3.11855 0.123531 0
M  V30 9062 N 852.864 0.259585 1.55447 0
M  V30 9063 C 854.275 -0.241165 1.85136 0
M  V30 9064 C 854.626 -1.56634 1.18153 0
M  V30 9065 O 853.751 -2.11359 0.464351 0
M  V30 9066 C 854.346 -0.444355 3.35873 0
M  V30 9067 C 852.905 -0.889354 3.65742 0
M  V30 9068 C 852.052 0.0262474 2.77288 0
M  V30 9069 H 855.003 0.481808 1.51209 0
M  V30 9070 H 855.024 -1.28517 3.58139 0
M  V30 9071 H 854.536 0.520289 3.84597 0
M  V30 9072 H 852.637 -1.86602 3.22507 0
M  V30 9073 H 852.75 -0.737432 4.73391 0
M  V30 9074 H 851.114 -0.487361 2.49994 0
M  V30 9075 H 851.897 0.986494 3.28821 0
M  V30 9076 N 854.342 -1.57594 -0.0133615 0
M  V30 9077 C 855.252 -2.10991 -1.02566 0
M  V30 9078 C 856.268 -1.05208 -1.3859 0
M  V30 9079 O 857.444 -1.37034 -1.47593 0
M  V30 9080 C 854.509 -2.59165 -2.30292 0
M  V30 9081 C 853.57 -3.79495 -2.00704 0
M  V30 9082 C 852.803 -4.25361 -3.22341 0
M  V30 9083 O 853.026 -3.70645 -4.33565 0
M  V30 9084 O 851.96 -5.17649 -3.07121 0
M  V30 9085 H 855.786 -2.97678 -0.601806 0
M  V30 9086 H 853.371 -1.47598 -0.23135 0
M  V30 9087 H 855.253 -2.90409 -3.05354 0
M  V30 9088 H 853.928 -1.75582 -2.71942 0
M  V30 9089 H 852.835 -3.53245 -1.23161 0
M  V30 9090 H 854.168 -4.64109 -1.639 0
M  V30 9091 N 855.82 0.285905 -1.54985 0
M  V30 9092 C 857.236 0.632405 -1.46536 0
M  V30 9093 C 857.436 1.90074 -0.668888 0
M  V30 9094 O 856.492 2.51839 -0.182586 0
M  V30 9095 C 857.805 0.771361 -2.90638 0
M  V30 9096 C 859.353 0.866262 -3.00774 0
M  V30 9097 C 859.828 1.0371 -4.46103 0
M  V30 9098 N 861.319 1.10294 -4.49877 0
M  V30 9099 C 862.054 1.25369 -5.59527 0
M  V30 9100 N 861.55 1.37246 -6.7907 0
M  V30 9101 N 863.343 1.28377 -5.47244 0
M  V30 9102 H 855.494 -0.547226 -2.0523 0
M  V30 9103 H 857.757 -0.183298 -0.930111 0
M  V30 9104 H 857.463 -0.0899485 -3.51585 0
M  V30 9105 H 857.337 1.65569 -3.3892 0
M  V30 9106 H 859.724 1.71805 -2.39931 0
M  V30 9107 H 859.805 -0.0424049 -2.55765 0
M  V30 9108 H 859.449 0.190021 -5.07544 0
M  V30 9109 H 859.379 1.96022 -4.88757 0
M  V30 9110 H 861.87 1.02407 -3.6376 0
M  V30 9111 H 862.183 1.48546 -7.58389 0
M  V30 9112 H 860.528 1.34274 -6.81906 0
M  V30 9113 H 863.719 1.1872 -4.52795 0
M  V30 9114 H 863.892 1.39782 -6.32744 0
M  V30 9115 N 857.298 1.47698 0.54982 0
M  V30 9116 C 858.709 1.48474 1.13191 0
M  V30 9117 C 859.06 0.243504 1.94683 0
M  V30 9118 O 858.185 -0.651009 2.06375 0
M  V30 9119 C 858.78 2.69022 2.05944 0
M  V30 9120 C 857.339 2.72733 2.5941 0
M  V30 9121 C 856.486 2.41691 1.35944 0
M  V30 9122 H 859.437 1.55101 0.336048 0
M  V30 9123 H 859.458 2.46412 2.89934 0
M  V30 9124 H 858.97 3.59345 1.46605 0
M  V30 9125 H 857.071 1.86568 3.22526 0
M  V30 9126 H 857.184 3.73628 2.99899 0
M  V30 9127 H 855.548 1.92428 1.66864 0
M  V30 9128 H 856.331 3.34231 0.783869 0
M  V30 9129 N 858.776 -0.797141 1.35954 0
M  V30 9130 C 860.187 -1.37179 1.26644 0
M  V30 9131 C 860.538 -1.9596 -0.0971046 0
M  V30 9132 O 859.663 -1.91994 -0.998355 0
M  V30 9133 C 860.258 -2.49395 2.2932 0
M  V30 9134 C 858.817 -3.02697 2.23722 0
M  V30 9135 C 857.964 -1.75721 2.14517 0
M  V30 9136 H 860.915 -0.599407 1.46945 0
M  V30 9137 H 860.936 -3.28204 1.92515 0
M  V30 9138 H 860.448 -2.06584 3.2855 0
M  V30 9139 H 858.549 -3.49948 1.27934 0
M  V30 9140 H 858.662 -3.60036 3.16087 0
M  V30 9141 H 857.026 -1.97649 1.60646 0
M  V30 9142 H 857.809 -1.35049 3.15621 0
M  V30 9143 N 860.254 -1.20106 -1.0204 0
M  V30 9144 C 861.217 -0.948261 -2.08664 0
M  V30 9145 C 862.217 0.0746753 -1.60627 0
M  V30 9146 O 863.407 -0.160981 -1.73455 0
M  V30 9147 C 860.539 -0.426854 -3.38217 0
M  V30 9148 H 861.732 -1.894 -2.32524 0
M  V30 9149 H 859.285 -1.0159 -1.18782 0
M  V30 9150 H 860.02 0.524532 -3.2003 0
M  V30 9151 H 859.805 -1.16451 -3.74408 0
M  V30 9152 H 861.295 -0.269346 -4.1673 0
M  V30 9153 N 861.732 1.21287 -1.00634 0
M  V30 9154 C 862.662 2.25973 -0.588089 0
M  V30 9155 C 863.643 1.65527 0.391764 0
M  V30 9156 O 864.828 1.92179 0.279452 0
M  V30 9157 C 861.958 3.47197 0.0847336 0
M  V30 9158 C 860.912 4.20168 -0.815039 0
M  V30 9159 C 860.238 5.34699 -0.00855393 0
M  V30 9160 C 861.538 4.77416 -2.11828 0
M  V30 9161 H 863.232 2.61212 -1.46317 0
M  V30 9162 H 860.778 1.25563 -0.704985 0
M  V30 9163 H 862.731 4.19602 0.388821 0
M  V30 9164 H 861.455 3.11092 0.994456 0
M  V30 9165 H 860.114 3.49614 -1.10297 0
M  V30 9166 H 859.762 4.94837 0.902499 0
M  V30 9167 H 859.462 5.84449 -0.607664 0
M  V30 9168 H 860.986 6.09914 0.289317 0
M  V30 9169 H 862.4 5.41694 -1.87725 0
M  V30 9170 H 860.797 5.37561 -2.66736 0
M  V30 9171 H 861.867 3.96724 -2.78816 0
M  V30 9172 N 863.21 0.781244 1.36873 0
M  V30 9173 C 864.14 0.188128 2.32741 0
M  V30 9174 C 865.121 -0.672326 1.56249 0
M  V30 9175 O 866.306 -0.607835 1.84442 0
M  V30 9176 C 863.436 -0.684341 3.40491 0
M  V30 9177 C 862.39 0.0755641 4.27933 0
M  V30 9178 C 861.716 -0.916968 5.26779 0
M  V30 9179 C 863.016 1.26006 5.06873 0
M  V30 9180 H 864.71 0.989016 2.82593 0
M  V30 9181 H 862.256 0.477038 1.35869 0
M  V30 9182 H 864.209 -1.10915 4.06541 0
M  V30 9183 H 862.933 -1.51785 2.89187 0
M  V30 9184 H 861.592 0.481258 3.63427 0
M  V30 9185 H 861.24 -1.74528 4.71751 0
M  V30 9186 H 860.94 -0.413 5.86147 0
M  V30 9187 H 862.464 -1.34052 5.95703 0
M  V30 9188 H 863.878 0.911425 5.66009 0
M  V30 9189 H 862.275 1.69676 5.75613 0
M  V30 9190 H 863.345 2.05948 4.38991 0
M  V30 9191 N 864.689 -1.48329 0.532571 0
M  V30 9192 C 865.621 -2.27652 -0.265931 0
M  V30 9193 C 866.634 -1.35522 -0.902083 0
M  V30 9194 O 867.823 -1.60552 -0.780088 0
M  V30 9195 C 864.923 -3.0899 -1.39207 0
M  V30 9196 C 864.096 -4.28915 -0.857349 0
M  V30 9197 C 863.155 -4.92044 -1.86493 0
M  V30 9198 O 862.181 -5.51181 -1.42084 0
M  V30 9199 N 863.383 -4.84518 -3.19723 0
M  V30 9200 H 866.148 -2.96821 0.414389 0
M  V30 9201 H 863.709 -1.57684 0.367066 0
M  V30 9202 H 865.701 -3.48091 -2.06433 0
M  V30 9203 H 864.271 -2.42224 -1.97601 0
M  V30 9204 H 863.491 -3.94199 -0.00901765 0
M  V30 9205 H 864.779 -5.0654 -0.479025 0
M  V30 9206 H 864.177 -4.37628 -3.58467 0
M  V30 9207 H 862.734 -5.27712 -3.82575 0
M  V30 9208 N 866.167 -0.267825 -1.55308 0
M  V30 9209 C 867.077 0.633055 -2.25897 0
M  V30 9210 C 868.093 1.17613 -1.28231 0
M  V30 9211 O 869.269 1.20797 -1.61153 0
M  V30 9212 C 866.334 1.80397 -2.96071 0
M  V30 9213 C 865.395 1.29829 -4.09198 0
M  V30 9214 C 864.628 2.4134 -4.76016 0
M  V30 9215 O 864.851 3.60537 -4.42006 0
M  V30 9216 O 863.785 2.09909 -5.64111 0
M  V30 9217 H 867.611 0.0614381 -3.03638 0
M  V30 9218 H 865.196 -0.0355072 -1.49358 0
M  V30 9219 H 867.078 2.48685 -3.40197 0
M  V30 9220 H 865.753 2.36281 -2.21253 0
M  V30 9221 H 864.66 0.582086 -3.69544 0
M  V30 9222 H 865.993 0.785288 -4.85895 0
M  V30 9223 N 867.645 1.57599 0.00500368 0
M  V30 9224 C 868.555 2.11532 1.01446 0
M  V30 9225 C 869.571 1.05941 1.3803 0
M  V30 9226 O 870.747 1.37815 1.46864 0
M  V30 9227 C 867.812 2.60382 2.28915 0
M  V30 9228 C 866.873 3.80554 1.98689 0
M  V30 9229 C 866.106 4.27064 3.20081 0
M  V30 9230 O 866.329 3.72939 4.31593 0
M  V30 9231 O 865.263 5.1927 3.04371 0
M  V30 9232 H 869.089 2.97993 0.586011 0
M  V30 9233 H 866.674 1.47718 0.223519 0
M  V30 9234 H 868.556 2.92024 3.03809 0
M  V30 9235 H 867.231 1.77022 2.71007 0
M  V30 9236 H 866.138 3.53893 1.21286 0
M  V30 9237 H 867.471 4.64972 1.61437 0
M  V30 9238 N 869.123 -0.277682 1.55134 0
M  V30 9239 C 870.369 -1.00733 1.76704 0
M  V30 9240 C 870.724 -1.84107 0.55879 0
M  V30 9241 O 870.017 -1.86275 -0.448591 0
M  V30 9242 C 870.211 -1.92599 3.01065 0
M  V30 9243 C 870.04 -1.18266 4.3387 0
M  V30 9244 C 868.81 -0.900254 4.97216 0
M  V30 9245 C 871.008 -0.575419 5.11071 0
M  V30 9246 N 868.99 -0.129637 6.13763 0
M  V30 9247 C 870.361 0.0612637 6.1997 0
M  V30 9248 C 872.416 -0.482794 4.95554 0
M  V30 9249 C 871.119 0.781637 7.15041 0
M  V30 9250 C 873.145 0.223977 5.90976 0
M  V30 9251 C 872.507 0.849416 6.9926 0
M  V30 9252 H 868.606 -0.35075 0.698927 0
M  V30 9253 H 871.19 -0.283482 1.92625 0
M  V30 9254 H 869.361 -2.62214 2.86528 0
M  V30 9255 H 871.093 -2.5889 3.1106 0
M  V30 9256 H 867.848 -1.20434 4.58031 0
M  V30 9257 H 868.272 0.242865 6.76564 0
M  V30 9258 H 872.914 -0.952023 4.11942 0
M  V30 9259 H 870.632 1.26256 7.98176 0
M  V30 9260 H 874.218 0.2959 5.81047 0
M  V30 9261 H 873.098 1.3876 7.71826 0
M  V30 9262 N 870.601 -1.47988 -0.541979 0
M  V30 9263 C 871.511 -1.64276 -1.67483 0
M  V30 9264 C 872.527 -0.525387 -1.65879 0
M  V30 9265 O 873.703 -0.794912 -1.85049 0
M  V30 9266 C 870.768 -1.66744 -3.03969 0
M  V30 9267 C 869.829 -2.90021 -3.16522 0
M  V30 9268 C 869.062 -2.92362 -4.46498 0
M  V30 9269 O 869.285 -2.03462 -5.32878 0
M  V30 9270 O 868.219 -3.84399 -4.63164 0
M  V30 9271 H 872.045 -2.60164 -1.5668 0
M  V30 9272 H 869.63 -1.31249 -0.71372 0
M  V30 9273 H 871.512 -1.70958 -3.85164 0
M  V30 9274 H 870.187 -0.740277 -3.15122 0
M  V30 9275 H 869.094 -2.91345 -2.34667 0
M  V30 9276 H 870.427 -3.82082 -3.10281 0
M  V30 9277 N 872.079 0.78992 -1.36375 0
M  V30 9278 C 873.307 1.57873 -1.3373 0
M  V30 9279 C 873.722 1.88624 0.0815544 0
M  V30 9280 O 873.079 1.50085 1.03831 0
M  V30 9281 C 873.13 2.90003 -2.15825 0
M  V30 9282 O 872.851 2.60578 -3.5218 0
M  V30 9283 C 874.352 3.84309 -2.20955 0
M  V30 9284 H 871.572 0.489685 -0.458748 0
M  V30 9285 H 874.116 0.980436 -1.79465 0
M  V30 9286 H 872.271 3.46303 -1.73646 0
M  V30 9287 H 872.685 3.4506 -3.95011 0
M  V30 9288 H 874.159 4.74081 -2.82756 0
M  V30 9289 H 874.636 4.22121 -1.21287 0
M  V30 9290 H 875.242 3.33942 -2.63368 0
M  V30 9291 N 873.557 1.20646 1.01402 0
M  V30 9292 C 874.803 1.0197 1.753 0
M  V30 9293 C 875.136 -0.446803 1.8899 0
M  V30 9294 O 874.411 -1.33169 1.41762 0
M  V30 9295 C 874.694 1.70693 3.17074 0
M  V30 9296 C 874.547 3.24805 3.11162 0
M  V30 9297 C 875.866 1.44212 4.15802 0
M  V30 9298 H 872.985 0.371844 0.636318 0
M  V30 9299 H 875.627 1.48696 1.18277 0
M  V30 9300 H 873.777 1.30968 3.65759 0
M  V30 9301 H 875.449 3.73841 2.70261 0
M  V30 9302 H 873.692 3.55576 2.48492 0
M  V30 9303 H 874.363 3.68049 4.11393 0
M  V30 9304 H 876.839 1.7868 3.75783 0
M  V30 9305 H 875.715 1.94825 5.13161 0
M  V30 9306 H 875.976 0.370252 4.40547 0
M  V30 9307 N 875.035 -1.20752 1.01276 0
M  V30 9308 C 875.968 -2.22091 0.524472 0
M  V30 9309 C 876.946 -1.5692 -0.426017 0
M  V30 9310 O 878.13 -1.8528 -0.346919 0
M  V30 9311 C 875.257 -3.37868 -0.237224 0
M  V30 9312 C 874.303 -4.21327 0.662236 0
M  V30 9313 S 875.136 -4.91352 2.12916 0
M  V30 9314 C 876.292 -6.10553 1.37752 0
M  V30 9315 H 876.525 -2.63166 1.38315 0
M  V30 9316 H 874.058 -1.30742 0.821332 0
M  V30 9317 H 876.016 -4.04985 -0.670599 0
M  V30 9318 H 874.677 -2.95261 -1.07143 0
M  V30 9319 H 873.87 -5.03944 0.0751085 0
M  V30 9320 H 873.472 -3.59445 1.03322 0
M  V30 9321 H 875.764 -6.74322 0.655491 0
M  V30 9322 H 876.707 -6.73717 2.17969 0
M  V30 9323 H 877.115 -5.57566 0.882088 0
M  V30 9324 O 876.552 -0.924783 -1.32401 0
M  V30 9325 H 877.243 -0.545902 -1.85848 0
M  V30 END ATOM
M  V30 BEGIN BOND
M  V30 END BOND
M  V30 END CTAB
M  END
$$$$
