drugbank_target|Q9Y697 Cysteine desulfurase, mitochondrial (DB00114; DB00151; DB00160)
 OpenBabel12092119253D

  0  0  0     0  0            999 V3000
M  V30 BEGIN CTAB
M  V30 COUNTS 7087 7155 0 0 0
M  V30 BEGIN ATOM
M  V30 1 H -0.908 1.98254 -0.117106 0
M  V30 2 N 0 1.576 0 0
M  V30 3 C 0.933 2.03868 1.02534 0
M  V30 4 C 1.911 0.928543 1.3348 0
M  V30 5 O 3.095 1.19667 1.45644 0
M  V30 6 C 0.222 2.43627 2.35294 0
M  V30 7 C -0.732 3.65373 2.2001 0
M  V30 8 S 0.101 5.13292 1.52614 0
M  V30 9 C 1.257 5.56322 2.86805 0
M  V30 10 H 1.49 2.90518 0.631377 0
M  V30 11 H -0.977 1.52953 0.210867 0
M  V30 12 H 0.981 2.67203 3.11629 0
M  V30 13 H -0.358 1.57376 2.7183 0
M  V30 14 H -1.165 3.90944 3.18086 0
M  V30 15 H -1.563 3.418 1.51819 0
M  V30 16 H 0.729 5.58782 3.83104 0
M  V30 17 H 1.672 6.56266 2.65933 0
M  V30 18 H 2.08 4.83886 2.90714 0
M  V30 19 N 1.4781 -0.272755 1.55222 0
M  V30 20 C 2.4081 -1.34136 1.91127 0
M  V30 21 C 3.3891 -1.51513 0.773168 0
M  V30 22 O 4.5741 -1.64552 1.03132 0
M  V30 23 C 1.7041 -2.70083 2.1834 0
M  V30 24 C 0.6581 -2.67437 3.34158 0
M  V30 25 C -0.0159 -4.06938 3.46851 0
M  V30 26 C 1.2841 -2.26686 4.70543 0
M  V30 27 H 2.9781 -1.04333 2.80633 0
M  V30 28 H 0.5241 -0.500454 1.35024 0
M  V30 29 H 2.4771 -3.44952 2.42046 0
M  V30 30 H 1.2011 -3.01469 1.25634 0
M  V30 31 H -0.1399 -1.95026 3.1042 0
M  V30 32 H -0.4919 -4.35547 2.51611 0
M  V30 33 H -0.7919 -4.06062 4.2472 0
M  V30 34 H 0.7321 -4.83545 3.72849 0
M  V30 35 H 2.1461 -2.91277 4.93792 0
M  V30 36 H 0.5431 -2.36971 5.5133 0
M  V30 37 H 1.6131 -1.21818 4.69349 0
M  V30 38 N 2.9562 -1.48159 -0.537278 0
M  V30 39 C 3.8862 -1.65029 -1.6519 0
M  V30 40 C 4.8672 -0.499281 -1.62607 0
M  V30 41 O 6.0522 -0.730972 -1.79918 0
M  V30 42 C 3.1822 -1.68303 -3.03795 0
M  V30 43 C 2.1362 -2.8283 -3.21234 0
M  V30 44 C 1.4622 -2.71189 -4.60826 0
M  V30 45 C 2.7622 -4.24211 -3.04701 0
M  V30 46 H 4.4562 -2.58341 -1.51328 0
M  V30 47 H 2.0022 -1.24325 -0.726585 0
M  V30 48 H 3.9552 -1.78693 -3.81637 0
M  V30 49 H 2.6792 -0.715635 -3.18663 0
M  V30 50 H 1.3382 -2.71983 -2.45807 0
M  V30 51 H 0.9862 -1.72435 -4.7252 0
M  V30 52 H 0.6862 -3.48035 -4.7344 0
M  V30 53 H 2.2102 -2.83537 -5.40777 0
M  V30 54 H 3.6242 -4.3593 -3.72341 0
M  V30 55 H 2.0212 -5.01998 -3.28813 0
M  V30 56 H 3.0912 -4.41184 -2.01209 0
M  V30 57 N 4.4343 0.785586 -1.36625 0
M  V30 58 C 5.8503 1.08419 -1.17122 0
M  V30 59 C 6.0503 2.015 0.00208491 0
M  V30 60 O 5.1063 2.43551 0.666278 0
M  V30 61 C 6.4193 1.69498 -2.48377 0
M  V30 62 C 7.9673 1.81821 -2.54775 0
M  V30 63 C 8.4423 2.46315 -3.86126 0
M  V30 64 N 9.9333 2.53779 -3.87492 0
M  V30 65 C 10.6683 3.045 -4.85868 0
M  V30 66 N 10.1643 3.55499 -5.94637 0
M  V30 67 N 11.9573 3.03247 -4.73284 0
M  V30 68 H 4.1083 0.167264 -2.1174 0
M  V30 69 H 6.3713 0.13682 -0.938075 0
M  V30 70 H 6.0773 1.08571 -3.34522 0
M  V30 71 H 5.9513 2.6896 -2.64462 0
M  V30 72 H 8.3383 2.41884 -1.69045 0
M  V30 73 H 8.4193 0.811532 -2.42586 0
M  V30 74 H 8.0633 1.86895 -4.72263 0
M  V30 75 H 7.9933 3.47561 -3.95612 0
M  V30 76 H 10.4843 2.17672 -3.08913 0
M  V30 77 H 10.7973 3.92562 -6.65669 0
M  V30 78 H 9.1423 3.5364 -5.98301 0
M  V30 79 H 12.3333 2.62696 -3.87438 0
M  V30 80 H 12.5063 3.42467 -5.50109 0
M  V30 81 N 5.9124 1.20967 1.01018 0
M  V30 82 C 6.8754 0.965918 2.07853 0
M  V30 83 C 7.8754 -0.0610545 1.60684 0
M  V30 84 O 9.0654 0.175681 1.73312 0
M  V30 85 C 6.1974 0.455513 3.37843 0
M  V30 86 H 7.3904 1.91365 2.3091 0
M  V30 87 H 4.9434 1.02594 1.17916 0
M  V30 88 H 5.6784 -0.497381 3.20463 0
M  V30 89 H 5.4634 1.19622 3.73407 0
M  V30 90 H 6.9534 0.304667 4.16487 0
M  V30 91 N 7.3905 -1.2043 1.01659 0
M  V30 92 C 8.3535 -2.21433 0.591616 0
M  V30 93 C 9.3535 -1.57203 -0.338226 0
M  V30 94 O 10.5435 -1.73737 -0.126918 0
M  V30 95 C 7.6755 -3.40628 -0.136058 0
M  V30 96 H 8.8685 -2.60545 1.48514 0
M  V30 97 H 6.4215 -1.33893 0.806379 0
M  V30 98 H 7.1565 -3.07019 -1.04449 0
M  V30 99 H 6.9415 -3.88475 0.531917 0
M  V30 100 H 8.4315 -4.15475 -0.420735 0
M  V30 101 N 8.8686 -0.792821 -1.36206 0
M  V30 102 C 10.1146 -0.376415 -1.99887 0
M  V30 103 C 10.4696 1.04127 -1.61788 0
M  V30 104 O 9.7626 1.71004 -0.864193 0
M  V30 105 C 9.9566 -0.481501 -3.54142 0
M  V30 106 C 9.7856 -1.90786 -4.07223 0
M  V30 107 C 8.5556 -2.53322 -4.37214 0
M  V30 108 C 10.7536 -2.87048 -4.26741 0
M  V30 109 N 8.7356 -3.8751 -4.7614 0
M  V30 110 C 10.1066 -4.06077 -4.6851 0
M  V30 111 C 12.1616 -2.8406 -4.08918 0
M  V30 112 C 10.8646 -5.22532 -4.94321 0
M  V30 113 C 12.8906 -3.99705 -4.35878 0
M  V30 114 C 12.2526 -5.1748 -4.77906 0
M  V30 115 H 8.3516 -0.185226 -0.759747 0
M  V30 116 H 10.9356 -1.03114 -1.65153 0
M  V30 117 H 9.1066 0.143154 -3.88136 0
M  V30 118 H 10.8386 -0.0410128 -4.04679 0
M  V30 119 H 7.5936 -2.04777 -4.2704 0
M  V30 120 H 8.0176 -4.5656 -4.99882 0
M  V30 121 H 12.6596 -1.94165 -3.75579 0
M  V30 122 H 10.3776 -6.1301 -5.2654 0
M  V30 123 H 13.9636 -3.98758 -4.23655 0
M  V30 124 H 12.8436 -6.05478 -4.98363 0
M  V30 125 N 10.3467 1.47872 -0.545128 0
M  V30 126 C 11.7627 1.5829 -0.204032 0
M  V30 127 C 11.9627 1.54529 1.29317 0
M  V30 128 O 11.0187 1.44232 2.07252 0
M  V30 129 C 12.3317 2.89304 -0.819987 0
M  V30 130 C 13.8797 3.02864 -0.790105 0
M  V30 131 C 14.3547 4.3656 -1.38491 0
M  V30 132 N 15.8457 4.43165 -1.34755 0
M  V30 133 C 16.5807 5.45153 -1.77753 0
M  V30 134 N 16.0767 6.54016 -2.2855 0
M  V30 135 N 17.8697 5.36125 -1.68897 0
M  V30 136 H 10.0207 1.4856 -1.51802 0
M  V30 137 H 12.2837 0.706305 -0.632327 0
M  V30 138 H 11.9897 2.97757 -1.87173 0
M  V30 139 H 11.8637 3.75957 -0.305915 0
M  V30 140 H 14.2507 2.94014 0.252913 0
M  V30 141 H 14.3317 2.17782 -1.34181 0
M  V30 142 H 13.9757 4.46164 -2.42693 0
M  V30 143 H 13.9057 5.20353 -0.808754 0
M  V30 144 H 16.3967 3.65083 -0.975855 0
M  V30 145 H 16.7097 7.27994 -2.59314 0
M  V30 146 H 15.0547 6.54938 -2.32553 0
M  V30 147 H 18.2457 4.49975 -1.28998 0
M  V30 148 H 18.4187 6.15472 -2.02726 0
M  V30 149 N 11.8248 0.280983 1.55075 0
M  V30 150 C 13.2408 -0.0729964 1.59433 0
M  V30 151 C 13.4408 -1.5411 1.29817 0
M  V30 152 O 12.4968 -2.29086 1.06187 0
M  V30 153 C 13.8098 0.306921 2.9913 0
M  V30 154 C 15.3578 0.254023 3.11968 0
M  V30 155 C 15.8328 0.608467 4.5394 0
M  V30 156 N 17.3238 0.560241 4.59799 0
M  V30 157 C 18.0588 0.80722 5.6769 0
M  V30 158 N 17.5548 1.11912 6.83701 0
M  V30 159 N 19.3478 0.735623 5.57266 0
M  V30 160 H 11.4988 1.238 1.7259 0
M  V30 161 H 13.7618 0.500547 0.805082 0
M  V30 162 H 13.4678 1.32816 3.25657 0
M  V30 163 H 13.3418 -0.349363 3.75579 0
M  V30 164 H 15.7288 -0.75794 2.852 0
M  V30 165 H 15.8098 0.944649 2.37718 0
M  V30 166 H 15.4538 1.61814 4.81434 0
M  V30 167 H 15.3838 -0.104013 5.26497 0
M  V30 168 H 17.8748 0.329288 3.76463 0
M  V30 169 H 18.1878 1.29409 7.61888 0
M  V30 170 H 16.5328 1.15695 6.85303 0
M  V30 171 H 19.7238 0.491752 4.6551 0
M  V30 172 H 19.8968 0.931482 6.4127 0
M  V30 173 N 13.3029 -1.57598 0.00835791 0
M  V30 174 C 14.2659 -2.07884 -0.965242 0
M  V30 175 C 15.2659 -0.989825 -1.26725 0
M  V30 176 O 16.4559 -1.25218 -1.21104 0
M  V30 177 C 13.5879 -2.52731 -2.28779 0
M  V30 178 H 14.7809 -2.95178 -0.530112 0
M  V30 179 H 12.3339 -1.54458 -0.239283 0
M  V30 180 H 13.0689 -1.68705 -2.76964 0
M  V30 181 H 12.8539 -3.32272 -2.08177 0
M  V30 182 H 14.3439 -2.91933 -2.98605 0
M  V30 183 N 14.781 0.264519 -1.55364 0
M  V30 184 C 15.744 1.31046 -1.88042 0
M  V30 185 C 16.744 1.41943 -0.755569 0
M  V30 186 O 17.934 1.40947 -1.02369 0
M  V30 187 C 15.066 2.69067 -2.09323 0
M  V30 188 H 16.259 1.03297 -2.81549 0
M  V30 189 H 13.812 0.502989 -1.47986 0
M  V30 190 H 14.547 3.01982 -1.18226 0
M  V30 191 H 14.332 2.62542 -2.91229 0
M  V30 192 H 15.822 3.44623 -2.35848 0
M  V30 193 N 16.2591 1.48442 0.529413 0
M  V30 194 C 17.5051 1.5672 1.28711 0
M  V30 195 C 17.8381 0.2406 1.92704 0
M  V30 196 O 17.1131 -0.753454 1.79313 0
M  V30 197 C 17.3961 2.70587 2.37603 0
M  V30 198 C 17.2491 4.12953 1.78297 0
M  V30 199 C 18.5681 2.80212 3.39366 0
M  V30 200 H 15.6871 0.570474 0.466613 0
M  V30 201 H 18.3291 1.80617 0.589706 0
M  V30 202 H 16.4791 2.50342 2.97088 0
M  V30 203 H 18.1511 4.44639 1.22858 0
M  V30 204 H 16.3941 4.19927 1.0883 0
M  V30 205 H 17.0651 4.88448 2.57144 0
M  V30 206 H 19.5411 2.98553 2.89836 0
M  V30 207 H 18.4171 3.61611 4.12951 0
M  V30 208 H 18.6781 1.88393 3.99951 0
M  V30 209 N 17.7372 -0.778329 1.37039 0
M  V30 210 C 18.7002 -1.87301 1.32102 0
M  V30 211 C 19.7002 -1.59198 0.226405 0
M  V30 212 O 20.8902 -1.67403 0.481861 0
M  V30 213 C 18.0222 -3.24309 1.05055 0
M  V30 214 H 19.2152 -1.93093 2.29467 0
M  V30 215 H 16.7682 -0.977358 1.21973 0
M  V30 216 H 17.5032 -3.24196 0.0819373 0
M  V30 217 H 17.2882 -3.46098 1.84279 0
M  V30 218 H 18.7782 -4.04382 1.04234 0
M  V30 219 N 19.2153 -1.21501 -1.00376 0
M  V30 220 C 20.4613 -1.03452 -1.74429 0
M  V30 221 C 20.7943 0.430764 -1.89362 0
M  V30 222 O 20.0693 1.31962 -1.42886 0
M  V30 223 C 20.3523 -1.73375 -3.15615 0
M  V30 224 C 20.2053 -3.27431 -3.08397 0
M  V30 225 C 21.5243 -1.47732 -4.14564 0
M  V30 226 H 18.6433 -0.377226 -0.633143 0
M  V30 227 H 21.2853 -1.49693 -1.17013 0
M  V30 228 H 19.4353 -1.34064 -3.64636 0
M  V30 229 H 21.1073 -3.76119 -2.67081 0
M  V30 230 H 19.3503 -3.5767 -2.45468 0
M  V30 231 H 20.0213 -3.71524 -4.08258 0
M  V30 232 H 22.4973 -1.8186 -3.74254 0
M  V30 233 H 21.3733 -1.99169 -5.11491 0
M  V30 234 H 21.6343 -0.407589 -4.40217 0
M  V30 235 N 20.6934 1.19889 -1.02296 0
M  V30 236 C 21.9214 1.9339 -0.735399 0
M  V30 237 C 22.3364 1.75148 0.704887 0
M  V30 238 O 21.6934 1.06954 1.47875 0
M  V30 239 C 21.7444 3.45313 -1.06962 0
M  V30 240 O 21.4654 3.62964 -2.45334 0
M  V30 241 C 22.9664 4.35948 -0.804021 0
M  V30 242 H 20.1864 0.61448 -0.269546 0
M  V30 243 H 22.7304 1.522 -1.36585 0
M  V30 244 H 20.8854 3.84359 -0.484455 0
M  V30 245 H 21.2994 4.56886 -2.57595 0
M  V30 246 H 22.7734 5.41174 -1.0879 0
M  V30 247 H 23.2504 4.3842 0.261691 0
M  V30 248 H 23.8564 4.02574 -1.37164 0
M  V30 249 N 22.1715 0.800033 1.35784 0
M  V30 250 C 23.1345 0.211565 2.28221 0
M  V30 251 C 24.1345 -0.59728 1.49296 0
M  V30 252 O 25.3245 -0.416721 1.69142 0
M  V30 253 C 22.4565 -0.705846 3.33513 0
M  V30 254 H 23.6495 1.02677 2.81776 0
M  V30 255 H 21.2025 0.570211 1.45528 0
M  V30 256 H 21.9375 -1.54498 2.85133 0
M  V30 257 H 21.7225 -0.127655 3.91892 0
M  V30 258 H 23.2125 -1.11211 4.02519 0
M  V30 259 N 23.6496 -1.47581 0.552962 0
M  V30 260 C 24.6126 -2.28439 -0.186605 0
M  V30 261 C 25.6126 -1.36706 -0.84665 0
M  V30 262 O 26.8026 -1.59378 -0.703164 0
M  V30 263 C 23.9346 -3.16264 -1.2724 0
M  V30 264 H 25.1276 -2.95294 0.523609 0
M  V30 265 H 22.6806 -1.532 0.309745 0
M  V30 266 H 23.4156 -2.54091 -2.01514 0
M  V30 267 H 23.2006 -3.83769 -0.803968 0
M  V30 268 H 24.6906 -3.77198 -1.79196 0
M  V30 269 N 25.1277 -0.289203 -1.54924 0
M  V30 270 C 26.5387 0.205791 -1.85562 0
M  V30 271 C 26.8897 1.54351 -1.2112 0
M  V30 272 O 26.0147 2.10435 -0.504601 0
M  V30 273 C 26.6097 0.380177 -3.3666 0
M  V30 274 C 25.1687 0.819395 -3.67373 0
M  V30 275 C 24.3157 -0.079159 -2.77187 0
M  V30 276 H 27.2667 -0.510577 -1.50262 0
M  V30 277 H 27.2877 1.21659 -3.60526 0
M  V30 278 H 26.7997 -0.593589 -3.83534 0
M  V30 279 H 24.9007 1.80413 -3.26009 0
M  V30 280 H 25.0137 0.646957 -4.74712 0
M  V30 281 H 23.3777 0.439565 -2.50878 0
M  V30 282 H 24.1607 -1.04906 -3.26878 0
M  V30 283 N 26.6058 1.57591 -0.0167156 0
M  V30 284 C 27.8538 1.90906 0.663285 0
M  V30 285 C 28.1748 0.892509 1.73376 0
M  V30 286 O 27.4448 -0.0677623 1.95783 0
M  V30 287 H 26.0248 0.704637 0.247983 0
M  V30 288 H 28.6868 1.94803 -0.0615909 0
M  V30 289 H 27.7828 2.9116 1.12393 0
M  V30 290 N 28.0839 -0.256276 1.55502 0
M  V30 291 C 29.4949 -0.826068 1.67431 0
M  V30 292 C 29.8459 -1.86396 0.612446 0
M  V30 293 O 28.9709 -2.15031 -0.243025 0
M  V30 294 C 29.5659 -1.50512 3.03532 0
M  V30 295 C 28.1249 -2.02273 3.17431 0
M  V30 296 C 27.2719 -0.870548 2.63281 0
M  V30 297 H 30.2229 -0.0322728 1.58667 0
M  V30 298 H 30.2439 -2.37279 2.97454 0
M  V30 299 H 29.7559 -0.749484 3.80794 0
M  V30 300 H 27.8569 -2.80746 2.44974 0
M  V30 301 H 27.9699 -2.22655 4.24219 0
M  V30 302 H 26.3339 -1.26851 2.20864 0
M  V30 303 H 27.1169 -0.128149 3.43061 0
M  V30 304 N 29.562 -1.4872 -0.521534 0
M  V30 305 C 30.509 -1.63871 -1.62527 0
M  V30 306 C 31.479 -0.480559 -1.58996 0
M  V30 307 O 32.664 -0.705085 -1.77294 0
M  V30 308 C 29.804 -1.69227 -3.00759 0
M  V30 309 C 28.917 -2.96207 -3.14461 0
M  V30 310 C 28.052 -2.92671 -4.43303 0
M  V30 311 C 27.091 -4.14318 -4.50563 0
M  V30 312 N 26.228 -4.0881 -5.70805 0
M  V30 313 H 31.068 -2.58123 -1.48918 0
M  V30 314 H 28.605 -1.28 -0.724878 0
M  V30 315 H 30.563 -1.70314 -3.80853 0
M  V30 316 H 29.193 -0.784586 -3.1312 0
M  V30 317 H 28.245 -3.04826 -2.27564 0
M  V30 318 H 29.557 -3.86192 -3.15686 0
M  V30 319 H 28.711 -2.92206 -5.31696 0
M  V30 320 H 27.45 -2.00429 -4.44612 0
M  V30 321 H 26.455 -4.15049 -3.60575 0
M  V30 322 H 27.68 -5.07729 -4.50986 0
M  V30 323 H 25.626 -3.19394 -5.72995 0
M  V30 324 H 25.543 -4.92509 -5.7356 0
M  V30 325 H 26.811 -4.12418 -6.61462 0
M  V30 326 N 31.0401 0.771051 -1.3745 0
M  V30 327 C 32.4511 1.34737 -1.29239 0
M  V30 328 C 32.8021 1.96109 0.0596908 0
M  V30 329 O 31.9271 1.93865 0.961534 0
M  V30 330 C 32.5221 2.44973 -2.34037 0
M  V30 331 C 31.0811 2.98372 -2.29458 0
M  V30 332 C 30.2281 1.71595 -2.17831 0
M  V30 333 H 33.1791 0.571256 -1.48062 0
M  V30 334 H 33.2001 3.24471 -1.98744 0
M  V30 335 H 32.7121 2.00276 -3.32432 0
M  V30 336 H 30.8131 3.47443 -1.34589 0
M  V30 337 H 30.9261 3.53939 -3.229 0
M  V30 338 H 29.2901 1.94547 -1.64388 0
M  V30 339 H 30.0731 1.29001 -3.18141 0
M  V30 340 N 32.5182 1.22032 0.997298 0
M  V30 341 C 33.4812 0.987909 2.06816 0
M  V30 342 C 34.4812 -0.0440084 1.6074 0
M  V30 343 O 35.6712 0.194053 1.73116 0
M  V30 344 C 32.8032 0.49132 3.37341 0
M  V30 345 H 33.9962 1.93803 2.28868 0
M  V30 346 H 31.5492 1.03838 1.16822 0
M  V30 347 H 32.2842 -0.463364 3.20973 0
M  V30 348 H 32.0692 1.23575 3.72118 0
M  V30 349 H 33.5592 0.348824 4.16141 0
M  V30 350 N 33.9963 -1.19345 1.0293 0
M  V30 351 C 34.9593 -2.20793 0.615069 0
M  V30 352 C 35.9593 -1.57553 -0.321533 0
M  V30 353 O 37.1493 -1.73862 -0.108483 0
M  V30 354 C 34.2813 -3.40754 -0.0999222 0
M  V30 355 H 35.4743 -2.58955 1.51269 0
M  V30 356 H 33.0273 -1.3303 0.820534 0
M  V30 357 H 33.7623 -3.0811 -1.01187 0
M  V30 358 H 33.5473 -3.87889 0.57309 0
M  V30 359 H 35.0373 -4.15898 -0.376645 0
M  V30 360 N 35.4744 -0.807222 -1.35358 0
M  V30 361 C 36.8854 -0.44876 -1.81226 0
M  V30 362 C 37.2364 1.02929 -1.67033 0
M  V30 363 O 36.3614 1.79991 -1.20133 0
M  V30 364 C 36.9564 -0.807774 -3.2903 0
M  V30 365 C 35.5154 -0.501901 -3.73039 0
M  V30 366 C 34.6624 -1.03304 -2.57339 0
M  V30 367 H 37.6134 -0.998808 -1.23327 0
M  V30 368 H 37.6344 -0.10554 -3.80354 0
M  V30 369 H 37.1464 -1.88357 -3.39328 0
M  V30 370 H 35.2474 0.565128 -3.68289 0
M  V30 371 H 35.3604 -1.03497 -4.67787 0
M  V30 372 H 33.7244 -0.455339 -2.50597 0
M  V30 373 H 34.5074 -2.11496 -2.70415 0
M  V30 374 N 36.9525 1.47285 -0.560781 0
M  V30 375 C 38.1805 2.06855 -0.0430262 0
M  V30 376 C 38.5955 1.41291 1.25229 0
M  V30 377 O 37.9525 0.510648 1.7521 0
M  V30 378 C 38.0035 3.61178 0.152518 0
M  V30 379 O 37.7245 4.24285 -1.0915 0
M  V30 380 C 39.2255 4.37624 0.707145 0
M  V30 381 H 36.4455 0.669319 -0.0474652 0
M  V30 382 H 38.9895 1.89237 -0.77521 0
M  V30 383 H 37.1445 3.78298 0.834843 0
M  V30 384 H 37.5585 5.16868 -0.891482 0
M  V30 385 H 39.0325 5.46271 0.793244 0
M  V30 386 H 39.5095 4.04152 1.71923 0
M  V30 387 H 40.1155 4.25257 0.0604027 0
M  V30 388 N 38.4306 0.297415 1.54768 0
M  V30 389 C 39.8466 -0.0560823 1.59501 0
M  V30 390 C 40.0466 -1.52725 1.31444 0
M  V30 391 O 39.1026 -2.27947 1.08611 0
M  V30 392 C 40.4156 0.338631 2.98787 0
M  V30 393 C 41.9636 0.287097 3.11681 0
M  V30 394 C 42.4386 0.656579 4.53269 0
M  V30 395 N 43.9296 0.608977 4.59179 0
M  V30 396 C 44.6646 0.867385 5.66802 0
M  V30 397 N 44.1606 1.19157 6.82476 0
M  V30 398 N 45.9536 0.794687 5.56454 0
M  V30 399 H 38.1046 1.25624 1.71267 0
M  V30 400 H 40.3676 0.509057 0.799728 0
M  V30 401 H 40.0736 1.36263 3.2423 0
M  V30 402 H 39.9476 -0.309508 3.75928 0
M  V30 403 H 42.3346 -0.727649 2.85988 0
M  V30 404 H 42.4156 0.969809 2.36703 0
M  V30 405 H 42.0596 1.66912 4.7969 0
M  V30 406 H 41.9896 -0.0481649 5.26578 0
M  V30 407 H 44.4806 0.369198 3.76092 0
M  V30 408 H 44.7936 1.37482 7.60473 0
M  V30 409 H 43.1386 1.22958 6.84037 0
M  V30 410 H 46.3296 0.541098 4.64962 0
M  V30 411 H 46.5026 0.999445 6.40246 0
M  V30 412 N 39.9087 -1.5758 0.0250728 0
M  V30 413 C 41.1567 -1.91255 -0.653151 0
M  V30 414 C 41.4777 -0.901691 -1.729 0
M  V30 415 O 40.7477 0.0573785 -1.95816 0
M  V30 416 H 39.3277 -0.705942 -0.244243 0
M  V30 417 H 41.9897 -1.94767 0.0719209 0
M  V30 418 H 41.0857 -2.91752 -1.10847 0
M  V30 419 N 41.3868 0.248026 -1.55636 0
M  V30 420 C 42.3168 1.31079 -1.93237 0
M  V30 421 C 43.2978 1.50264 -0.797174 0
M  V30 422 O 44.4828 1.62891 -1.05737 0
M  V30 423 C 41.6128 2.66575 -2.22609 0
M  V30 424 C 40.5668 2.62087 -3.3837 0
M  V30 425 C 39.8928 4.01369 -3.53281 0
M  V30 426 C 41.1928 2.19171 -4.7409 0
M  V30 427 H 42.8868 0.998556 -2.82257 0
M  V30 428 H 40.4328 0.47891 -1.35803 0
M  V30 429 H 42.3858 3.41057 -2.47503 0
M  V30 430 H 41.1098 2.99432 -1.30414 0
M  V30 431 H 39.7688 1.90063 -3.13483 0
M  V30 432 H 39.4168 4.31489 -2.58508 0
M  V30 433 H 39.1168 3.99254 -4.31127 0
M  V30 434 H 40.6408 4.77552 -3.80495 0
M  V30 435 H 42.0548 2.83384 -4.98363 0
M  V30 436 H 40.4518 2.2817 -5.5503 0
M  V30 437 H 41.5218 1.14336 -4.71227 0
M  V30 438 N 42.8649 1.48995 0.513639 0
M  V30 439 C 44.2809 1.35478 0.843682 0
M  V30 440 C 44.4809 0.378213 1.97919 0
M  V30 441 O 43.5369 -0.194689 2.51748 0
M  V30 442 C 44.8499 2.75901 1.1958 0
M  V30 443 C 46.3979 2.84509 1.30474 0
M  V30 444 C 46.8729 4.25671 1.69021 0
M  V30 445 N 48.3639 4.28422 1.76094 0
M  V30 446 C 49.0989 5.34601 2.07338 0
M  V30 447 N 48.5949 6.5104 2.36894 0
M  V30 448 N 50.3879 5.22007 2.08483 0
M  V30 449 H 42.5389 2.11092 -0.235328 0
M  V30 450 H 44.8019 0.947039 -0.0426669 0
M  V30 451 H 44.5079 3.49001 0.434913 0
M  V30 452 H 44.3819 3.10467 2.1422 0
M  V30 453 H 46.7689 2.11655 2.05637 0
M  V30 454 H 46.8499 2.53542 0.339155 0
M  V30 455 H 46.4939 4.99048 0.944135 0
M  V30 456 H 46.4239 4.54094 2.66658 0
M  V30 457 H 48.9149 3.44441 1.55464 0
M  V30 458 H 49.2279 7.2779 2.59887 0
M  V30 459 H 47.5729 6.54287 2.34378 0
M  V30 460 H 50.7639 4.30051 1.84861 0
M  V30 461 H 50.9369 6.04854 2.325 0
M  V30 462 N 44.343 -0.763751 1.37857 0
M  V30 463 C 45.273 -1.89103 1.36975 0
M  V30 464 C 46.254 -1.68439 0.237152 0
M  V30 465 O 47.439 -1.8918 0.438713 0
M  V30 466 C 44.569 -3.26496 1.18395 0
M  V30 467 C 43.523 -3.61741 2.28751 0
M  V30 468 C 42.849 -4.97762 1.95286 0
M  V30 469 C 44.149 -3.67665 3.70972 0
M  V30 470 H 45.843 -1.90099 2.31307 0
M  V30 471 H 43.389 -0.91319 1.11341 0
M  V30 472 H 45.342 -4.05003 1.16406 0
M  V30 473 H 44.066 -3.25955 0.205215 0
M  V30 474 H 42.725 -2.85547 2.29909 0
M  V30 475 H 42.373 -4.93769 0.959221 0
M  V30 476 H 42.073 -5.22313 2.69189 0
M  V30 477 H 43.597 -5.7866 1.94898 0
M  V30 478 H 45.011 -4.36307 3.719 0
M  V30 479 H 43.408 -4.03718 4.43995 0
M  V30 480 H 44.478 -2.68134 4.0402 0
M  V30 481 N 45.8211 -1.22559 -0.990812 0
M  V30 482 C 47.2371 -0.985996 -1.255 0
M  V30 483 C 47.4371 0.319173 -1.98956 0
M  V30 484 O 46.4931 1.04127 -2.3003 0
M  V30 485 C 47.8061 -2.18607 -2.06474 0
M  V30 486 C 49.3541 -2.22985 -2.19651 0
M  V30 487 C 49.8291 -3.4255 -3.04012 0
M  V30 488 N 51.3201 -3.42725 -3.11599 0
M  V30 489 C 52.0551 -4.31892 -3.7717 0
M  V30 490 N 51.5511 -5.31279 -4.44651 0
M  V30 491 N 53.3441 -4.19662 -3.73952 0
M  V30 492 H 45.4951 -2.06469 -0.49841 0
M  V30 493 H 47.7581 -0.904853 -0.282747 0
M  V30 494 H 47.4641 -3.13267 -1.59865 0
M  V30 495 H 47.3381 -2.18838 -3.07229 0
M  V30 496 H 49.7251 -1.28871 -2.65474 0
M  V30 497 H 49.8061 -2.26791 -1.18319 0
M  V30 498 H 49.4501 -4.36965 -2.58889 0
M  V30 499 H 49.3801 -3.35984 -4.0549 0
M  V30 500 H 51.8711 -2.70807 -2.63575 0
M  V30 501 H 52.1841 -5.95593 -4.92431 0
M  V30 502 H 50.5291 -5.3519 -4.43392 0
M  V30 503 H 53.7201 -3.41268 -3.20396 0
M  V30 504 H 53.8931 -4.89358 -4.24774 0
M  V30 505 N 47.2992 1.18797 -1.03562 0
M  V30 506 C 48.5452 1.8893 -0.737113 0
M  V30 507 C 48.8782 1.79837 0.732956 0
M  V30 508 O 48.1532 1.19525 1.5344 0
M  V30 509 C 48.4362 3.39607 -1.19745 0
M  V30 510 C 48.2892 3.57537 -2.72924 0
M  V30 511 C 49.6082 4.33069 -0.783526 0
M  V30 512 H 46.7272 0.686057 -0.269249 0
M  V30 513 H 49.3692 1.39797 -1.28673 0
M  V30 514 H 47.5192 3.81583 -0.729855 0
M  V30 515 H 49.1912 3.24688 -3.27682 0
M  V30 516 H 47.4342 3.00363 -3.12993 0
M  V30 517 H 48.1052 4.63238 -3.00191 0
M  V30 518 H 50.5812 3.98846 -1.18581 0
M  V30 519 H 49.4572 5.3707 -1.13343 0
M  V30 520 H 49.7182 4.40986 0.313681 0
M  V30 521 N 48.7773 0.814389 1.34928 0
M  V30 522 C 50.0253 0.397636 1.9815 0
M  V30 523 C 50.3463 -1.04069 1.64908 0
M  V30 524 O 49.6163 -1.72121 0.93548 0
M  V30 525 H 48.1963 0.144043 0.732981 0
M  V30 526 H 50.8583 1.04195 1.6471 0
M  V30 527 H 49.9543 0.509688 3.0791 0
M  V30 528 N 50.2554 -1.46986 0.568584 0
M  V30 529 C 51.5324 -1.95592 -0.0174074 0
M  V30 530 C 51.9124 -1.51124 -1.47393 0
M  V30 531 O 51.2604 -0.755329 -2.15655 0
M  V30 532 C 51.4704 -3.48719 0.139913 0
M  V30 533 C 52.8184 -4.246 0.000426376 0
M  V30 534 O 53.8424 -3.56135 0.0680316 0
M  V30 535 O 52.7014 -5.46302 -0.146988 0
M  V30 536 H 49.7954 -0.82498 -0.0577599 0
M  V30 537 H 52.3414 -1.57335 0.635909 0
M  V30 538 H 51.1134 -3.73927 1.15301 0
M  V30 539 H 50.7364 -3.93771 -0.550491 0
M  V30 540 N 51.7335 -0.305618 -1.54608 0
M  V30 541 C 53.1495 0.0476228 -1.59529 0
M  V30 542 C 53.3495 1.52025 -1.32252 0
M  V30 543 O 52.4055 2.27368 -1.09818 0
M  V30 544 C 53.7185 -0.354471 -2.98603 0
M  V30 545 C 55.2665 -0.303622 -3.11524 0
M  V30 546 C 55.7415 -0.680608 -4.52915 0
M  V30 547 N 57.2325 -0.63332 -4.5885 0
M  V30 548 C 57.9675 -0.897432 -5.66334 0
M  V30 549 N 57.4635 -1.22775 -6.81834 0
M  V30 550 N 59.2565 -0.824186 -5.56025 0
M  V30 551 H 51.4075 -1.2653 -1.70599 0
M  V30 552 H 53.6705 -0.513291 -0.797017 0
M  V30 553 H 53.3765 -1.3798 -3.23503 0
M  V30 554 H 53.2505 0.289568 -3.76087 0
M  V30 555 H 55.6375 0.712472 -2.8637 0
M  V30 556 H 55.7185 -0.982348 -2.36185 0
M  V30 557 H 55.3625 -1.69453 -4.78799 0
M  V30 558 H 55.2925 0.0202385 -5.26596 0
M  V30 559 H 57.7835 -0.389138 -3.75891 0
M  V30 560 H 58.0965 -1.41513 -7.59733 0
M  V30 561 H 56.4415 -1.26583 -6.83375 0
M  V30 562 H 59.6325 -0.565748 -4.64669 0
M  V30 563 H 59.8055 -1.03338 -6.39707 0
M  V30 564 N 53.2116 1.57565 -0.0334293 0
M  V30 565 C 54.1746 2.09393 0.932048 0
M  V30 566 C 55.1746 1.00986 1.25134 0
M  V30 567 O 56.3646 1.27129 1.19096 0
M  V30 568 C 53.4966 2.56338 2.2473 0
M  V30 569 H 54.6896 2.95984 0.483085 0
M  V30 570 H 52.2426 1.54819 0.21468 0
M  V30 571 H 52.9776 1.7309 2.74245 0
M  V30 572 H 52.7626 3.35542 2.02865 0
M  V30 573 H 54.2526 2.96646 2.93923 0
M  V30 574 N 54.6897 -0.239769 1.55765 0
M  V30 575 C 56.1007 -0.808263 1.68297 0
M  V30 576 C 56.4517 -1.85736 0.632181 0
M  V30 577 O 55.5767 -2.15277 -0.220204 0
M  V30 578 C 56.1717 -1.47284 3.05111 0
M  V30 579 C 54.7307 -1.98895 3.19559 0
M  V30 580 C 53.8777 -0.842575 2.64189 0
M  V30 581 H 56.8287 -0.0154422 1.58692 0
M  V30 582 H 56.8497 -2.34111 2.99954 0
M  V30 583 H 56.3617 -0.709053 3.81568 0
M  V30 584 H 54.4627 -2.78132 2.47938 0
M  V30 585 H 54.5757 -2.18143 4.26556 0
M  V30 586 H 52.9397 -1.24501 2.22197 0
M  V30 587 H 53.7227 -0.0917552 3.43177 0
M  V30 588 N 56.1678 -1.49265 -0.50573 0
M  V30 589 C 57.0998 -1.617 -1.62437 0
M  V30 590 C 58.1128 -0.499924 -1.54934 0
M  V30 591 O 59.3018 -0.771785 -1.60953 0
M  V30 592 C 56.4018 -1.5533 -3.01207 0
M  V30 593 C 55.5748 -2.8249 -3.33943 0
M  V30 594 C 54.6338 -2.69238 -4.52103 0
M  V30 595 O 53.6598 -3.43167 -4.5412 0
M  V30 596 N 54.8618 -1.80468 -5.51735 0
M  V30 597 H 57.6268 -2.58177 -1.52199 0
M  V30 598 H 55.1878 -1.46294 -0.693511 0
M  V30 599 H 57.1798 -1.44125 -3.78167 0
M  V30 600 H 55.7498 -0.667297 -3.05395 0
M  V30 601 H 54.9698 -3.08081 -2.45926 0
M  V30 602 H 56.2578 -3.66802 -3.5261 0
M  V30 603 H 55.6558 -1.19653 -5.52901 0
M  V30 604 H 54.2128 -1.75188 -6.27816 0
M  V30 605 N 57.6459 0.756429 -1.3826 0
M  V30 606 C 58.8709 1.55077 -1.37717 0
M  V30 607 C 59.2959 1.88073 0.03164 0
M  V30 608 O 58.6539 1.50364 1.01293 0
M  V30 609 C 58.7019 2.8283 -2.23695 0
M  V30 610 O 57.8059 3.77862 -1.6521 0
M  V30 611 H 57.1469 0.469152 -0.469885 0
M  V30 612 H 59.6769 0.935019 -1.81985 0
M  V30 613 H 59.6869 3.31783 -2.37453 0
M  V30 614 H 58.3619 2.58144 -3.2609 0
M  V30 615 H 56.9389 3.36555 -1.60578 0
M  V30 616 N 59.124 1.23083 0.984299 0
M  V30 617 C 60.087 1.00979 2.05757 0
M  V30 618 C 61.087 -0.0269573 1.60777 0
M  V30 619 O 62.277 0.212403 1.729 0
M  V30 620 C 59.409 0.527072 3.36801 0
M  V30 621 H 60.602 1.9622 2.26799 0
M  V30 622 H 58.155 1.05072 1.15714 0
M  V30 623 H 58.89 -0.429294 3.21446 0
M  V30 624 H 58.675 1.27515 3.70786 0
M  V30 625 H 60.165 0.392942 4.15747 0
M  V30 626 N 60.6021 -1.18246 1.0419 0
M  V30 627 C 61.8481 -1.88536 0.747122 0
M  V30 628 C 62.1811 -1.80223 -0.723409 0
M  V30 629 O 61.4561 -1.20337 -1.52804 0
M  V30 630 C 61.7391 -3.38968 1.21544 0
M  V30 631 C 61.5921 -3.56084 2.74816 0
M  V30 632 C 62.9111 -4.32648 0.806482 0
M  V30 633 H 60.0301 -0.684619 0.272883 0
M  V30 634 H 62.6721 -1.39113 1.29413 0
M  V30 635 H 60.8221 -3.8119 0.750081 0
M  V30 636 H 62.4941 -3.22946 3.29399 0
M  V30 637 H 60.7371 -2.98699 3.14582 0
M  V30 638 H 61.4081 -4.61639 3.02644 0
M  V30 639 H 63.8841 -3.98211 1.20695 0
M  V30 640 H 62.7601 -5.36462 1.1619 0
M  V30 641 H 63.0211 -4.41146 -0.29029 0
M  V30 642 N 62.0802 -0.821533 -1.34494 0
M  V30 643 C 63.4912 -0.467956 -1.8074 0
M  V30 644 C 63.8422 1.01151 -1.68116 0
M  V30 645 O 62.9672 1.78707 -1.22036 0
M  V30 646 C 63.5622 -0.842627 -3.28154 0
M  V30 647 C 62.1212 -0.541439 -3.72485 0
M  V30 648 C 61.2682 -1.06028 -2.56229 0
M  V30 649 H 64.2192 -1.01183 -1.22261 0
M  V30 650 H 64.2402 -0.145876 -3.8022 0
M  V30 651 H 63.7522 -1.91945 -3.37311 0
M  V30 652 H 61.8532 0.526034 -3.68868 0
M  V30 653 H 61.9662 -1.08453 -4.66663 0
M  V30 654 H 60.3302 -0.481892 -2.501 0
M  V30 655 H 61.1132 -2.14352 -2.68157 0
M  V30 656 N 63.5583 1.46682 -0.576371 0
M  V30 657 C 64.5213 2.28707 0.150239 0
M  V30 658 C 65.5213 1.38035 0.824794 0
M  V30 659 O 66.7113 1.60476 0.677719 0
M  V30 660 C 63.8433 3.18248 1.22192 0
M  V30 661 H 65.0363 2.94423 -0.570521 0
M  V30 662 H 62.5893 1.52688 -0.334078 0
M  V30 663 H 63.3243 2.57265 1.97447 0
M  V30 664 H 63.1093 3.85 0.742812 0
M  V30 665 H 64.5993 3.80001 1.73172 0
M  V30 666 N 65.0364 0.313813 1.54444 0
M  V30 667 C 66.3134 -0.345447 1.92525 0
M  V30 668 C 66.6934 -1.70667 1.24242 0
M  V30 669 O 66.0414 -2.25273 0.382654 0
M  V30 670 C 66.2514 -0.44737 3.46121 0
M  V30 671 C 67.5994 -0.712238 4.18584 0
M  V30 672 O 68.6234 -0.530678 3.52225 0
M  V30 673 O 67.4824 -1.06183 5.36085 0
M  V30 674 H 64.5764 -0.195407 0.803583 0
M  V30 675 H 67.1224 0.362813 1.65776 0
M  V30 676 H 65.8944 0.509043 3.87975 0
M  V30 677 H 65.5174 -1.20359 3.78945 0
M  V30 678 N 66.5145 -1.57545 0.0417849 0
M  V30 679 C 67.7425 -1.96624 -0.643928 0
M  V30 680 C 68.1575 -0.918897 -1.64929 0
M  V30 681 O 67.5145 0.0979323 -1.82237 0
M  V30 682 C 67.5655 -3.35781 -1.33914 0
M  V30 683 O 67.2865 -4.365 -0.374048 0
M  V30 684 C 68.7875 -3.89566 -2.1155 0
M  V30 685 H 66.0075 -0.647316 -0.176702 0
M  V30 686 H 68.5515 -2.04229 0.105304 0
M  V30 687 H 66.7065 -3.29357 -2.03968 0
M  V30 688 H 67.1205 -5.17248 -0.869179 0
M  V30 689 H 68.5945 -4.89242 -2.55628 0
M  V30 690 H 69.0715 -3.24488 -2.9598 0
M  V30 691 H 69.6775 -3.99298 -1.46427 0
M  V30 692 N 67.9926 0.231505 -1.5589 0
M  V30 693 C 68.9556 1.27028 -1.90779 0
M  V30 694 C 69.9556 1.40308 -0.785507 0
M  V30 695 O 71.1456 1.38744 -1.05336 0
M  V30 696 C 68.2776 2.64566 -2.14983 0
M  V30 697 H 69.4706 0.973017 -2.83677 0
M  V30 698 H 67.0236 0.471486 -1.49019 0
M  V30 699 H 67.7586 2.99406 -1.24604 0
M  V30 700 H 67.5436 2.56305 -2.96732 0
M  V30 701 H 69.0336 3.39543 -2.43105 0
M  V30 702 N 69.4707 1.49531 0.497807 0
M  V30 703 C 70.4337 1.65916 1.58128 0
M  V30 704 C 71.4337 0.530825 1.51786 0
M  V30 705 O 72.6237 0.797342 1.54881 0
M  V30 706 C 69.7557 1.65951 2.9778 0
M  V30 707 H 70.9487 2.62556 1.44929 0
M  V30 708 H 68.5017 1.38611 0.722275 0
M  V30 709 H 69.2367 0.709065 3.16453 0
M  V30 710 H 69.0217 2.47897 3.03792 0
M  V30 711 H 70.5117 1.80673 3.76493 0
M  V30 712 N 70.9488 -0.749086 1.3866 0
M  V30 713 C 71.9118 -1.84457 1.36045 0
M  V30 714 C 72.9118 -1.58682 0.260122 0
M  V30 715 O 74.1018 -1.66343 0.517261 0
M  V30 716 C 71.2338 -3.22008 1.11911 0
M  V30 717 H 72.4268 -1.88182 2.33512 0
M  V30 718 H 69.9798 -0.951266 1.24019 0
M  V30 719 H 70.7148 -3.2395 0.150686 0
M  V30 720 H 70.4998 -3.42111 1.91579 0
M  V30 721 H 71.9898 -4.0208 1.12788 0
M  V30 722 N 72.4269 -1.23603 -0.977757 0
M  V30 723 C 73.8379 -1.06424 -1.53398 0
M  V30 724 C 74.1889 0.367578 -1.92726 0
M  V30 725 O 73.3139 1.25465 -1.76316 0
M  V30 726 C 73.9089 -1.92568 -2.78753 0
M  V30 727 C 72.4679 -1.79642 -3.30765 0
M  V30 728 C 71.6149 -1.88111 -2.03739 0
M  V30 729 H 74.5659 -1.37227 -0.797152 0
M  V30 730 H 74.5869 -1.45203 -3.51705 0
M  V30 731 H 74.0989 -2.96771 -2.50098 0
M  V30 732 H 72.1999 -0.782325 -3.64294 0
M  V30 733 H 72.3129 -2.63174 -4.00345 0
M  V30 734 H 70.6769 -1.31723 -2.17994 0
M  V30 735 H 71.4599 -2.93875 -1.77461 0
M  V30 736 N 73.905 1.17692 -1.04816 0
M  V30 737 C 74.815 2.25229 -0.65643 0
M  V30 738 C 75.831 1.71018 0.320761 0
M  V30 739 O 77.007 2.00649 0.173805 0
M  V30 740 C 74.072 3.46684 -0.0332629 0
M  V30 741 C 73.133 4.15997 -1.06042 0
M  V30 742 C 72.366 5.31654 -0.466893 0
M  V30 743 O 72.589 5.65777 0.724758 0
M  V30 744 O 71.523 5.89831 -1.1993 0
M  V30 745 H 75.349 2.61016 -1.55255 0
M  V30 746 H 72.934 1.24919 -0.81949 0
M  V30 747 H 74.816 4.20234 0.313256 0
M  V30 748 H 73.491 3.12703 0.836566 0
M  V30 749 H 72.398 3.44482 -1.45886 0
M  V30 750 H 73.731 4.53996 -1.90127 0
M  V30 751 N 75.3831 0.828654 1.34056 0
M  V30 752 C 76.6291 0.42008 1.98402 0
M  V30 753 C 76.9621 -1.01564 1.65525 0
M  V30 754 O 76.2371 -1.70834 0.929831 0
M  V30 755 C 76.5201 0.62927 3.54559 0
M  V30 756 C 76.3731 2.11152 3.97159 0
M  V30 757 C 77.6921 0.0688756 4.40046 0
M  V30 758 H 74.8111 0.154104 0.720709 0
M  V30 759 H 77.4531 1.04228 1.5886 0
M  V30 760 H 75.6031 0.0996418 3.88372 0
M  V30 761 H 77.2751 2.70522 3.73651 0
M  V30 762 H 75.5181 2.59985 3.47261 0
M  V30 763 H 76.1891 2.20868 5.05887 0
M  V30 764 H 78.6651 0.521458 4.1282 0
M  V30 765 H 77.5411 0.245006 5.48353 0
M  V30 766 H 77.8021 -1.0266 4.30015 0
M  V30 767 N 76.8612 -1.46375 0.584142 0
M  V30 768 C 78.1092 -2.01978 0.0701287 0
M  V30 769 C 78.4302 -1.4579 -1.295 0
M  V30 770 O 77.7002 -0.64314 -1.85042 0
M  V30 771 H 76.2802 -0.746648 0.0229345 0
M  V30 772 H 78.9422 -1.79461 0.760245 0
M  V30 773 H 78.0382 -3.121 0.0022064 0
M  V30 774 N 78.3393 -0.321999 -1.54275 0
M  V30 775 C 79.7503 0.166384 -1.85957 0
M  V30 776 C 80.1013 1.51747 -1.24367 0
M  V30 777 O 79.2263 2.09317 -0.549124 0
M  V30 778 C 79.8213 0.308681 -3.37391 0
M  V30 779 C 78.3803 0.741286 -3.69028 0
M  V30 780 C 77.5273 -0.137937 -2.76957 0
M  V30 781 H 80.4783 -0.542335 -1.49146 0
M  V30 782 H 80.4993 1.13984 -3.63026 0
M  V30 783 H 80.0113 -0.674809 -3.82188 0
M  V30 784 H 78.1123 1.73458 -3.29762 0
M  V30 785 H 78.2253 0.546118 -4.75977 0
M  V30 786 H 76.5893 0.386251 -2.51754 0
M  V30 787 H 77.3723 -1.11816 -3.2458 0
M  V30 788 N 79.8174 1.5752 -0.0501392 0
M  V30 789 C 81.0634 1.92936 0.624798 0
M  V30 790 C 81.3964 0.928685 1.70555 0
M  V30 791 O 80.6714 -0.0454779 1.94447 0
M  V30 792 C 80.9544 3.38737 1.22185 0
M  V30 793 C 80.8074 4.49552 0.149218 0
M  V30 794 C 82.1264 3.84913 2.13378 0
M  V30 795 H 79.2454 0.701604 0.225657 0
M  V30 796 H 81.8874 1.89671 -0.111693 0
M  V30 797 H 80.0374 3.4165 1.84953 0
M  V30 798 H 81.7094 4.58768 -0.482648 0
M  V30 799 H 79.9524 4.30638 -0.522841 0
M  V30 800 H 80.6234 5.48653 0.606966 0
M  V30 801 H 83.0994 3.8387 1.60572 0
M  V30 802 H 81.9754 4.87584 2.52097 0
M  V30 803 H 82.2364 3.21611 3.03346 0
M  V30 804 N 81.2955 -0.223234 1.56011 0
M  V30 805 C 82.2255 -1.27988 1.95298 0
M  V30 806 C 83.2065 -1.48976 0.820979 0
M  V30 807 O 84.3915 -1.61188 1.08315 0
M  V30 808 C 81.5215 -2.63 2.26822 0
M  V30 809 C 80.4755 -2.56671 3.42497 0
M  V30 810 C 79.8015 -3.95697 3.59622 0
M  V30 811 C 81.1015 -2.11601 4.77517 0
M  V30 812 H 82.7955 -0.953525 2.8381 0
M  V30 813 H 80.3415 -0.457244 1.36548 0
M  V30 814 H 82.2945 -3.37077 2.52898 0
M  V30 815 H 81.0185 -2.9732 1.35161 0
M  V30 816 H 79.6775 -1.85051 3.16467 0
M  V30 817 H 79.3255 -4.27322 2.6534 0
M  V30 818 H 79.0255 -3.92345 4.37424 0
M  V30 819 H 80.5495 -4.71438 3.88044 0
M  V30 820 H 81.9635 -2.7542 5.02809 0
M  V30 821 H 80.3605 -2.19311 5.5859 0
M  V30 822 H 81.4305 -1.06824 4.72987 0
M  V30 823 N 82.7736 -1.49793 -0.48987 0
M  V30 824 C 84.1896 -1.36803 -0.822022 0
M  V30 825 C 84.3896 -0.409652 -1.97292 0
M  V30 826 O 83.4456 0.154614 -2.52026 0
M  V30 827 C 84.7586 -2.77768 -1.15175 0
M  V30 828 C 86.3066 -2.86549 -1.25931 0
M  V30 829 C 86.7816 -4.28306 -1.62228 0
M  V30 830 N 88.2726 -4.31169 -1.69256 0
M  V30 831 C 89.0076 -5.37832 -1.98807 0
M  V30 832 N 88.5036 -6.54726 -2.26507 0
M  V30 833 N 90.2966 -5.25258 -2.00152 0
M  V30 834 H 82.4476 -2.10691 0.268881 0
M  V30 835 H 84.7106 -0.946241 0.057728 0
M  V30 836 H 84.4166 -3.49648 -0.379335 0
M  V30 837 H 84.2906 -3.13836 -2.09253 0
M  V30 838 H 86.6776 -2.14899 -2.02243 0
M  V30 839 H 86.7586 -2.54049 -0.298776 0
M  V30 840 H 86.4026 -5.00486 -0.864622 0
M  V30 841 H 86.3326 -4.58279 -2.594 0
M  V30 842 H 88.8236 -3.4687 -1.49965 0
M  V30 843 H 89.1366 -7.31833 -2.48276 0
M  V30 844 H 87.4816 -6.57933 -2.23939 0
M  V30 845 H 90.6726 -4.32938 -1.77996 0
M  V30 846 H 90.8456 -6.08476 -2.22848 0
M  V30 847 N 84.2517 0.741722 -1.39055 0
M  V30 848 C 85.6627 1.31966 -1.32068 0
M  V30 849 C 86.0137 1.96192 0.0180797 0
M  V30 850 O 85.1387 1.95861 0.920196 0
M  V30 851 C 85.7337 2.39954 -2.39181 0
M  V30 852 C 84.2927 2.93438 -2.35735 0
M  V30 853 C 83.4397 1.66936 -2.21422 0
M  V30 854 H 86.3907 0.539721 -1.4924 0
M  V30 855 H 86.4117 3.20182 -2.05581 0
M  V30 856 H 85.9237 1.9318 -3.36605 0
M  V30 857 H 84.0247 3.4451 -1.41929 0
M  V30 858 H 84.1377 3.4701 -3.30335 0
M  V30 859 H 82.5017 1.91016 -1.68478 0
M  V30 860 H 83.2847 1.22224 -3.20806 0
M  V30 861 N 85.7298 1.2412 0.971189 0
M  V30 862 C 86.6598 1.05508 2.08304 0
M  V30 863 C 87.6408 -0.0308864 1.70072 0
M  V30 864 O 88.8258 0.135521 1.93727 0
M  V30 865 C 85.9558 0.655365 3.4106 0
M  V30 866 C 84.9098 1.68971 3.93234 0
M  V30 867 C 84.2358 1.14516 5.22293 0
M  V30 868 C 85.5358 3.08487 4.21465 0
M  V30 869 H 87.2298 1.98507 2.24132 0
M  V30 870 H 84.7758 0.955821 1.07704 0
M  V30 871 H 86.7288 0.51217 4.18276 0
M  V30 872 H 85.4528 -0.31032 3.25122 0
M  V30 873 H 84.1118 1.82106 3.18171 0
M  V30 874 H 83.7598 0.170189 5.02712 0
M  V30 875 H 83.4598 1.83635 5.58168 0
M  V30 876 H 84.9838 1.01401 6.02121 0
M  V30 877 H 86.3978 2.98601 4.89398 0
M  V30 878 H 84.7948 3.74926 4.68562 0
M  V30 879 H 85.8648 3.56787 3.28376 0
M  V30 880 N 87.2079 -1.17134 1.05439 0
M  V30 881 C 88.4379 -1.91094 0.785274 0
M  V30 882 C 88.8459 -1.77198 -0.663142 0
M  V30 883 O 88.1889 -1.10835 -1.46497 0
M  V30 884 C 88.2509 -3.42594 1.08949 0
M  V30 885 C 87.9149 -3.80274 2.53458 0
M  V30 886 C 88.9119 -3.82912 3.51673 0
M  V30 887 C 86.5969 -4.11162 2.88532 0
M  V30 888 C 88.5909 -4.15913 4.83006 0
M  V30 889 C 86.2779 -4.43831 4.20068 0
M  V30 890 C 87.2759 -4.46185 5.17115 0
M  V30 891 O 86.9639 -4.78083 6.46291 0
M  V30 892 H 86.6959 -0.613073 0.284811 0
M  V30 893 H 89.2499 -1.49461 1.40893 0
M  V30 894 H 87.4799 -3.84534 0.408741 0
M  V30 895 H 89.1689 -3.97817 0.805991 0
M  V30 896 H 89.9349 -3.5917 3.25917 0
M  V30 897 H 85.8139 -4.085 2.13656 0
M  V30 898 H 89.3579 -4.17665 5.5875 0
M  V30 899 H 85.2549 -4.67037 4.45586 0
M  V30 900 H 86.0229 -4.9593 6.51149 0
M  V30 901 N 88.686 -0.835752 -1.33615 0
M  V30 902 C 89.619 -0.211815 -2.27215 0
M  V30 903 C 90.597 0.639249 -1.49507 0
M  V30 904 O 91.781 0.600193 -1.78689 0
M  V30 905 C 88.908 0.702893 -3.31326 0
M  V30 906 C 87.954 -0.0723049 -4.26439 0
M  V30 907 S 88.787 -1.42811 -5.16106 0
M  V30 908 C 89.943 -0.518613 -6.23748 0
M  V30 909 H 90.176 -1.00533 -2.79786 0
M  V30 910 H 87.709 -0.632336 -1.40858 0
M  V30 911 H 89.667 1.22505 -3.91794 0
M  V30 912 H 88.328 1.47004 -2.77576 0
M  V30 913 H 87.521 0.62359 -5.00127 0
M  V30 914 H 87.123 -0.525424 -3.70291 0
M  V30 915 H 89.415 0.284778 -6.76901 0
M  V30 916 H 90.358 -1.22556 -6.97413 0
M  V30 917 H 90.766 -0.101344 -5.64409 0
M  V30 918 N 90.1641 1.46063 -0.591896 0
M  V30 919 C 91.4411 1.95595 -0.0137119 0
M  V30 920 C 91.8211 1.5345 1.4497 0
M  V30 921 O 91.1691 0.789543 2.14426 0
M  V30 922 C 91.3791 3.48453 -0.195373 0
M  V30 923 C 92.7271 4.24546 -0.0679765 0
M  V30 924 O 93.7511 3.55982 -0.124681 0
M  V30 925 O 92.6101 5.46467 0.0600579 0
M  V30 926 H 89.7041 0.825795 0.0446279 0
M  V30 927 H 92.2501 1.56303 -0.660859 0
M  V30 928 H 91.0221 3.72045 -1.21235 0
M  V30 929 H 90.6451 3.94597 0.487775 0
M  V30 930 N 91.6422 0.330177 1.54103 0
M  V30 931 C 92.8882 -0.270806 2.00984 0
M  V30 932 C 93.2212 -1.51265 1.21789 0
M  V30 933 O 92.4962 -1.92142 0.301927 0
M  V30 934 C 92.7792 -0.598339 3.55094 0
M  V30 935 C 92.6322 0.654674 4.4501 0
M  V30 936 C 93.9512 -1.41334 4.16789 0
M  V30 937 H 91.0702 -0.0969531 0.730595 0
M  V30 938 H 93.7122 0.448066 1.84641 0
M  V30 939 H 91.8622 -1.21078 3.69151 0
M  V30 940 H 93.5342 1.29285 4.42813 0
M  V30 941 H 91.7772 1.28224 4.14416 0
M  V30 942 H 92.4482 0.380944 5.50684 0
M  V30 943 H 94.9242 -0.895597 4.06347 0
M  V30 944 H 93.8002 -1.61127 5.24718 0
M  V30 945 H 94.0612 -2.41146 3.70541 0
M  V30 946 N 93.1203 -1.57491 0.0584922 0
M  V30 947 C 94.0523 -2.08916 -0.942694 0
M  V30 948 C 95.0653 -1.0185 -1.27006 0
M  V30 949 O 96.2543 -1.29398 -1.22957 0
M  V30 950 C 93.3543 -2.52341 -2.26224 0
M  V30 951 C 92.5273 -3.82827 -2.1157 0
M  V30 952 C 91.5863 -4.12487 -3.26712 0
M  V30 953 O 90.6123 -4.82295 -3.02292 0
M  V30 954 N 91.8143 -3.64978 -4.5141 0
M  V30 955 H 94.5793 -2.95437 -0.503722 0
M  V30 956 H 92.1403 -1.61397 -0.12757 0
M  V30 957 H 94.1323 -2.69254 -3.02133 0
M  V30 958 H 92.7023 -1.7103 -2.61663 0
M  V30 959 H 91.9223 -3.75425 -1.20208 0
M  V30 960 H 93.2103 -4.68263 -1.99015 0
M  V30 961 H 92.6083 -3.08558 -4.7414 0
M  V30 962 H 91.1653 -3.87115 -5.2439 0
M  V30 963 N 94.5984 0.214957 -1.56127 0
M  V30 964 C 95.5614 1.24997 -1.92116 0
M  V30 965 C 96.5614 1.39467 -0.800344 0
M  V30 966 O 97.7514 1.37619 -1.06802 0
M  V30 967 C 94.8834 2.62271 -2.17777 0
M  V30 968 H 96.0764 0.942875 -2.84693 0
M  V30 969 H 93.6294 0.455654 -1.49511 0
M  V30 970 H 94.3644 2.98068 -1.27773 0
M  V30 971 H 94.1494 2.53143 -2.99434 0
M  V30 972 H 95.6394 3.36946 -2.46693 0
M  V30 973 N 96.0765 1.50051 0.48192 0
M  V30 974 C 97.3045 1.64237 1.25832 0
M  V30 975 C 97.7195 0.321336 1.86045 0
M  V30 976 O 97.0765 -0.695478 1.68729 0
M  V30 977 C 97.1275 2.72548 2.37487 0
M  V30 978 O 96.8485 3.99529 1.79745 0
M  V30 979 C 98.3495 2.9761 3.28547 0
M  V30 980 H 95.5695 0.55237 0.380957 0
M  V30 981 H 98.1135 1.96207 0.576467 0
M  V30 982 H 96.2685 2.43303 3.01467 0
M  V30 983 H 96.6825 4.59342 2.5319 0
M  V30 984 H 98.1565 3.77084 4.03127 0
M  V30 985 H 98.6335 2.0826 3.86684 0
M  V30 986 H 99.2395 3.28345 2.70314 0
M  V30 987 N 97.5546 -0.734337 1.39446 0
M  V30 988 C 98.7826 -1.52358 1.39981 0
M  V30 989 C 99.1976 -1.88799 -0.0054975 0
M  V30 990 O 98.5546 -1.54146 -0.976998 0
M  V30 991 C 98.6056 -2.81072 2.27333 0
M  V30 992 O 98.3266 -2.46178 3.62392 0
M  V30 993 C 99.8276 -3.75096 2.36259 0
M  V30 994 H 97.0476 -0.470806 0.478103 0
M  V30 995 H 99.5916 -0.907339 1.83269 0
M  V30 996 H 97.7466 -3.39026 1.87457 0
M  V30 997 H 98.1606 -3.28866 4.08592 0
M  V30 998 H 99.6346 -4.62305 3.01626 0
M  V30 999 H 100.112 -4.16892 1.38194 0
M  V30 1000 H 100.718 -3.23061 2.76608 0
M  V30 1001 N 99.0327 -1.24633 -0.964593 0
M  V30 1002 C 100.444 -1.08045 -1.5226 0
M  V30 1003 C 100.795 0.347116 -1.93105 0
M  V30 1004 O 99.9197 1.23588 -1.77637 0
M  V30 1005 C 100.515 -1.95514 -2.76695 0
M  V30 1006 C 99.0737 -1.8314 -3.28841 0
M  V30 1007 C 98.2207 -1.90262 -2.01732 0
M  V30 1008 H 101.172 -1.38064 -0.782553 0
M  V30 1009 H 101.193 -1.48925 -3.50145 0
M  V30 1010 H 100.705 -2.99407 -2.46936 0
M  V30 1011 H 98.8057 -0.82092 -3.63444 0
M  V30 1012 H 98.9187 -2.67406 -3.97531 0
M  V30 1013 H 97.2827 -1.34027 -2.16584 0
M  V30 1014 H 98.0657 -2.9574 -1.74334 0
M  V30 1015 N 100.511 1.16574 -1.06058 0
M  V30 1016 C 101.441 2.23057 -0.690488 0
M  V30 1017 C 102.422 1.67141 0.315901 0
M  V30 1018 O 103.607 1.93253 0.191556 0
M  V30 1019 C 100.737 3.47222 -0.073625 0
M  V30 1020 C 99.6908 4.16016 -1.00573 0
M  V30 1021 C 99.0168 5.34104 -0.252289 0
M  V30 1022 C 100.317 4.67264 -2.33371 0
M  V30 1023 H 102.011 2.54271 -1.58072 0
M  V30 1024 H 99.5568 1.22218 -0.76149 0
M  V30 1025 H 101.51 4.20939 0.19714 0
M  V30 1026 H 100.234 3.15302 0.85161 0
M  V30 1027 H 98.8928 3.44223 -1.2612 0
M  V30 1028 H 98.5408 4.98437 0.675988 0
M  V30 1029 H 98.2408 5.81072 -0.873455 0
M  V30 1030 H 99.7648 6.10599 0.0109857 0
M  V30 1031 H 101.179 5.32573 -2.12223 0
M  V30 1032 H 99.5758 5.24843 -2.90963 0
M  V30 1033 H 100.646 3.83602 -2.96611 0
M  V30 1034 N 101.989 0.842826 1.3317 0
M  V30 1035 C 103.266 0.362216 1.92217 0
M  V30 1036 C 103.646 -1.15289 1.76838 0
M  V30 1037 O 102.994 -1.96914 1.15919 0
M  V30 1038 C 103.204 0.813495 3.39387 0
M  V30 1039 C 104.552 0.823804 4.16532 0
M  V30 1040 O 105.576 0.757358 3.48055 0
M  V30 1041 O 104.435 0.915193 5.38782 0
M  V30 1042 H 101.529 0.103317 0.820521 0
M  V30 1043 H 104.075 0.928942 1.42017 0
M  V30 1044 H 102.847 1.85624 3.4447 0
M  V30 1045 H 102.47 0.223561 3.96971 0
M  V30 1046 N 103.467 -1.45747 0.599634 0
M  V30 1047 C 104.878 -1.85853 0.177681 0
M  V30 1048 C 105.229 -1.50102 -1.26348 0
M  V30 1049 O 104.354 -0.923905 -1.95686 0
M  V30 1050 C 104.949 -3.37326 0.315688 0
M  V30 1051 C 103.508 -3.76365 -0.0515144 0
M  V30 1052 C 102.655 -2.69722 0.643822 0
M  V30 1053 H 105.606 -1.36661 0.806814 0
M  V30 1054 H 105.627 -3.77778 -0.454321 0
M  V30 1055 H 105.139 -3.63315 1.36468 0
M  V30 1056 H 103.24 -3.55993 -1.09999 0
M  V30 1057 H 103.353 -4.77916 0.336594 0
M  V30 1058 H 101.717 -2.54567 0.0822881 0
M  V30 1059 H 102.5 -2.98549 1.6948 0
M  V30 1060 N 104.945 -0.338344 -1.53925 0
M  V30 1061 C 106.361 0.0137736 -1.59594 0
M  V30 1062 C 106.561 1.49186 -1.35447 0
M  V30 1063 O 105.617 2.24987 -1.14616 0
M  V30 1064 C 106.93 -0.41773 -2.97784 0
M  V30 1065 C 108.478 -0.369633 -3.1081 0
M  V30 1066 C 108.953 -0.776524 -4.51369 0
M  V30 1067 N 110.444 -0.730506 -4.57403 0
M  V30 1068 C 111.179 -1.01736 -5.64303 0
M  V30 1069 N 110.675 -1.3721 -6.79077 0
M  V30 1070 N 112.468 -0.941942 -5.54151 0
M  V30 1071 H 104.619 -1.3012 -1.67876 0
M  V30 1072 H 106.882 -0.530082 -0.78595 0
M  V30 1073 H 106.588 -1.44811 -3.20504 0
M  V30 1074 H 106.462 0.209729 -3.76616 0
M  V30 1075 H 108.849 0.651568 -2.87817 0
M  V30 1076 H 108.93 -1.03223 -2.34049 0
M  V30 1077 H 108.574 -1.79571 -4.75096 0
M  V30 1078 H 108.504 -0.0914649 -5.26521 0
M  V30 1079 H 110.995 -0.468783 -3.74981 0
M  V30 1080 H 111.308 -1.57597 -7.5656 0
M  V30 1081 H 109.653 -1.4105 -6.80536 0
M  V30 1082 H 112.844 -0.664184 -4.63364 0
M  V30 1083 H 113.017 -1.16884 -6.37371 0
M  V30 1084 N 106.423 1.57458 -0.0668435 0
M  V30 1085 C 107.669 1.93587 0.6043 0
M  V30 1086 C 108.002 0.946722 1.69561 0
M  V30 1087 O 107.277 -0.0248516 1.94484 0
M  V30 1088 C 107.56 3.40014 1.18585 0
M  V30 1089 C 107.413 4.49685 0.101529 0
M  V30 1090 C 108.732 3.87154 2.09284 0
M  V30 1091 H 105.851 0.703958 0.218202 0
M  V30 1092 H 108.493 1.89542 -0.131804 0
M  V30 1093 H 106.643 3.43592 1.81319 0
M  V30 1094 H 108.315 4.5823 -0.531279 0
M  V30 1095 H 106.558 4.30059 -0.568487 0
M  V30 1096 H 107.229 5.49266 0.54874 0
M  V30 1097 H 109.705 3.85551 1.56491 0
M  V30 1098 H 108.581 4.90231 2.46911 0
M  V30 1099 H 108.842 3.2481 2.99918 0
M  V30 1100 N 107.901 -0.206675 1.56239 0
M  V30 1101 C 108.831 -1.25909 1.96645 0
M  V30 1102 C 109.812 -1.48097 0.836734 0
M  V30 1103 O 110.997 -1.6003 1.10019 0
M  V30 1104 C 108.127 -2.6058 2.29599 0
M  V30 1105 C 107.081 -2.53024 3.452 0
M  V30 1106 C 106.407 -3.91861 3.63798 0
M  V30 1107 C 107.707 -2.06524 4.79734 0
M  V30 1108 H 109.401 -0.923369 2.84806 0
M  V30 1109 H 106.947 -0.442735 1.37025 0
M  V30 1110 H 108.9 -3.34375 2.56459 0
M  V30 1111 H 107.624 -2.95869 1.38307 0
M  V30 1112 H 106.283 -1.81684 3.18412 0
M  V30 1113 H 105.931 -4.24483 2.69857 0
M  V30 1114 H 105.631 -3.87683 4.4156 0
M  V30 1115 H 107.155 -4.67296 3.93022 0
M  V30 1116 H 108.569 -2.70072 5.05702 0
M  V30 1117 H 106.966 -2.13374 5.60885 0
M  V30 1118 H 108.036 -1.01802 4.74093 0
M  V30 1119 N 109.379 -1.50304 -0.473955 0
M  V30 1120 C 110.656 -1.51667 -1.23518 0
M  V30 1121 C 111.036 -0.259701 -2.09496 0
M  V30 1122 O 110.384 0.756986 -2.15597 0
M  V30 1123 C 110.594 -2.81082 -2.06868 0
M  V30 1124 C 111.942 -3.31631 -2.65153 0
M  V30 1125 O 112.966 -2.82384 -2.17113 0
M  V30 1126 O 111.825 -4.17471 -3.52675 0
M  V30 1127 H 108.919 -0.60822 -0.560355 0
M  V30 1128 H 111.465 -1.62592 -0.486011 0
M  V30 1129 H 110.237 -3.64041 -1.4349 0
M  V30 1130 H 109.86 -2.73146 -2.88924 0
M  V30 1131 N 110.857 0.726932 -1.39834 0
M  V30 1132 C 111.82 1.82269 -1.38962 0
M  V30 1133 C 112.82 1.58248 -0.285334 0
M  V30 1134 O 114.01 1.65499 -0.54366 0
M  V30 1135 C 111.142 3.20186 -1.17019 0
M  V30 1136 H 112.335 1.84443 -2.36476 0
M  V30 1137 H 109.888 0.931416 -1.25516 0
M  V30 1138 H 110.623 3.23669 -0.202204 0
M  V30 1139 H 110.408 3.3902 -1.96998 0
M  V30 1140 H 111.898 4.00235 -1.1917 0
M  V30 1141 N 112.336 1.25143 0.95797 0
M  V30 1142 C 113.269 0.995565 2.05338 0
M  V30 1143 C 114.247 -0.0740423 1.62431 0
M  V30 1144 O 115.431 0.0649212 1.88388 0
M  V30 1145 C 112.558 0.504298 3.34925 0
M  V30 1146 C 111.604 1.56393 3.96792 0
M  V30 1147 S 112.437 3.14815 4.33188 0
M  V30 1148 C 113.593 2.67415 5.65898 0
M  V30 1149 H 113.826 1.92309 2.26726 0
M  V30 1150 H 111.359 1.08635 1.09716 0
M  V30 1151 H 113.317 0.227497 4.09869 0
M  V30 1152 H 111.978 -0.402671 3.11508 0
M  V30 1153 H 111.171 1.17082 4.90212 0
M  V30 1154 H 110.773 1.79124 3.28315 0
M  V30 1155 H 113.065 2.10833 6.4386 0
M  V30 1156 H 114.008 3.59463 6.10076 0
M  V30 1157 H 114.416 2.07521 5.24972 0
M  V30 1158 N 113.814 -1.1601 1.06675 0
M  V30 1159 C 114.744 -2.22688 0.702307 0
M  V30 1160 C 115.725 -1.67306 -0.307032 0
M  V30 1161 O 116.91 -1.93352 -0.181305 0
M  V30 1162 C 114.04 -3.47178 0.092038 0
M  V30 1163 C 112.994 -4.15477 1.02777 0
M  V30 1164 C 112.32 -5.33963 0.28061 0
M  V30 1165 C 113.62 -4.66019 2.35846 0
M  V30 1166 H 115.314 -2.53429 1.59419 0
M  V30 1167 H 112.86 -1.21813 0.767961 0
M  V30 1168 H 114.813 -4.21037 -0.174814 0
M  V30 1169 H 113.537 -3.15749 -0.834877 0
M  V30 1170 H 112.196 -3.43549 1.27944 0
M  V30 1171 H 111.844 -4.98788 -0.649545 0
M  V30 1172 H 111.544 -5.806 0.904258 0
M  V30 1173 H 113.068 -6.10596 0.021396 0
M  V30 1174 H 114.482 -5.3144 2.15045 0
M  V30 1175 H 112.879 -5.23293 2.93743 0
M  V30 1176 H 113.949 -3.82023 2.98641 0
M  V30 1177 N 115.292 -0.849877 -1.32721 0
M  V30 1178 C 116.703 -0.506188 -1.79707 0
M  V30 1179 C 117.054 0.975627 -1.70223 0
M  V30 1180 O 116.179 1.76078 -1.25799 0
M  V30 1181 C 116.774 -0.912044 -3.26293 0
M  V30 1182 C 115.333 -0.620326 -3.71253 0
M  V30 1183 C 114.48 -1.11439 -2.53922 0
M  V30 1184 H 117.431 -1.03754 -1.20087 0
M  V30 1185 H 117.452 -0.226493 -3.79825 0
M  V30 1186 H 116.964 -1.99057 -3.33164 0
M  V30 1187 H 115.065 0.447674 -3.69901 0
M  V30 1188 H 115.178 -1.18327 -4.64258 0
M  V30 1189 H 113.542 -0.534834 -2.49021 0
M  V30 1190 H 114.325 -2.19992 -2.6355 0
M  V30 1191 N 116.77 1.45427 -0.607355 0
M  V30 1192 C 118 2.06314 -0.108656 0
M  V30 1193 C 118.408 1.45269 1.21217 0
M  V30 1194 O 117.751 0.561115 1.74921 0
M  V30 1195 C 117.813 3.59345 0.105618 0
M  V30 1196 C 117.477 4.42723 -1.13337 0
M  V30 1197 C 118.474 4.77715 -2.05145 0
M  V30 1198 C 116.159 4.83478 -1.36213 0
M  V30 1199 C 118.153 5.52317 -3.18158 0
M  V30 1200 C 115.84 5.57835 -2.49527 0
M  V30 1201 C 116.838 5.92171 -3.40327 0
M  V30 1202 O 116.526 6.65019 -4.51669 0
M  V30 1203 H 116.258 0.672782 -0.0658842 0
M  V30 1204 H 118.812 1.87664 -0.834945 0
M  V30 1205 H 117.042 3.76394 0.886796 0
M  V30 1206 H 118.731 4.02076 0.555886 0
M  V30 1207 H 119.497 4.46787 -1.88697 0
M  V30 1208 H 115.376 4.56188 -0.664362 0
M  V30 1209 H 118.92 5.79036 -3.89054 0
M  V30 1210 H 114.817 5.88177 -2.65928 0
M  V30 1211 H 115.585 6.83469 -4.50348 0
M  V30 1212 N 118.248 0.346503 1.53744 0
M  V30 1213 C 119.178 -0.501193 2.28058 0
M  V30 1214 C 120.159 -1.10014 1.29734 0
M  V30 1215 O 121.344 -1.12097 1.58581 0
M  V30 1216 C 118.474 -1.65078 3.05559 0
M  V30 1217 C 117.428 -1.18003 4.11411 0
M  V30 1218 C 116.754 -2.41837 4.76884 0
M  V30 1219 C 118.054 -0.278394 5.21558 0
M  V30 1220 H 119.748 0.11875 2.99164 0
M  V30 1221 H 117.294 0.0585531 1.43881 0
M  V30 1222 H 119.247 -2.25028 3.56287 0
M  V30 1223 H 117.971 -2.29767 2.32109 0
M  V30 1224 H 116.63 -0.603331 3.61601 0
M  V30 1225 H 116.278 -3.0494 4.00026 0
M  V30 1226 H 115.978 -2.1102 5.48402 0
M  V30 1227 H 117.502 -3.02508 5.30397 0
M  V30 1228 H 118.916 -0.784823 5.67903 0
M  V30 1229 H 117.313 -0.0619707 6.00068 0
M  V30 1230 H 118.383 0.684677 4.80042 0
M  V30 1231 N 119.726 -1.57421 0.075193 0
M  V30 1232 C 120.975 -1.92794 -0.592731 0
M  V30 1233 C 121.288 -0.957478 -1.70563 0
M  V30 1234 O 122.494 -1.20417 -2.43335 0
M  V30 1235 C 120.95 -3.42495 -1.10569 0
M  V30 1236 C 120.558 -4.47994 -0.0236121 0
M  V30 1237 C 122.302 -3.86864 -1.74748 0
M  V30 1238 C 120.209 -5.88829 -0.550803 0
M  V30 1239 H 119.139 -0.719591 -0.225177 0
M  V30 1240 H 121.79 -1.82902 0.147978 0
M  V30 1241 H 120.172 -3.47471 -1.89947 0
M  V30 1242 H 121.346 -4.54637 0.751099 0
M  V30 1243 H 119.661 -4.13113 0.522159 0
M  V30 1244 H 122.258 -4.8947 -2.15229 0
M  V30 1245 H 122.601 -3.24417 -2.60882 0
M  V30 1246 H 123.134 -3.84504 -1.01986 0
M  V30 1247 H 119.873 -6.54929 0.273457 0
M  V30 1248 H 119.393 -5.85698 -1.29296 0
M  V30 1249 H 121.072 -6.38811 -1.02613 0
M  V30 1250 N 121.204 0.198386 -1.56346 0
M  V30 1251 C 122.152 1.26538 -1.95169 0
M  V30 1252 C 123.146 1.47295 -0.836685 0
M  V30 1253 O 124.352 1.48195 -1.02167 0
M  V30 1254 H 120.727 0.424744 -0.620561 0
M  V30 1255 H 122.698 0.910904 -2.84157 0
M  V30 1256 C 121.447 2.6035 -2.30463 0
M  V30 1257 H 120.77 2.45192 -3.15786 0
M  V30 1258 H 122.21 3.33762 -2.61494 0
M  V30 1259 C 120.669 3.17096 -1.13806 0
M  V30 1260 O 121.199 3.99588 -0.41135 0
M  V30 1261 N 119.405 2.75795 -0.915736 0
M  V30 1262 H 118.952 2.08816 -1.50843 0
M  V30 1263 H 118.91 3.14101 -0.136979 0
M  V30 1264 N 122.682 1.50554 0.465978 0
M  V30 1265 C 123.912 1.65323 1.23903 0
M  V30 1266 C 124.32 0.338051 1.86155 0
M  V30 1267 O 123.663 -0.690518 1.70228 0
M  V30 1268 C 123.725 2.69048 2.3844 0
M  V30 1269 C 123.389 4.12462 1.96784 0
M  V30 1270 C 124.386 4.98168 1.48745 0
M  V30 1271 C 122.071 4.58407 2.05349 0
M  V30 1272 C 124.065 6.27868 1.0982 0
M  V30 1273 C 121.752 5.88112 1.66035 0
M  V30 1274 C 122.75 6.72668 1.18349 0
M  V30 1275 O 122.438 7.99951 0.795825 0
M  V30 1276 H 122.17 0.558629 0.38067 0
M  V30 1277 H 124.724 1.97561 0.562022 0
M  V30 1278 H 122.954 2.32062 3.09328 0
M  V30 1279 H 124.643 2.72985 3.0039 0
M  V30 1280 H 125.409 4.63885 1.41546 0
M  V30 1281 H 121.288 3.92735 2.41414 0
M  V30 1282 H 124.832 6.93819 0.725293 0
M  V30 1283 H 120.729 6.21914 1.72895 0
M  V30 1284 H 121.497 8.13265 0.924222 0
M  V30 1285 N 124.16 -0.719506 1.40217 0
M  V30 1286 C 125.39 -1.50646 1.41384 0
M  V30 1287 C 125.798 -1.89197 0.0107743 0
M  V30 1288 O 125.141 -1.55709 -0.974708 0
M  V30 1289 C 125.203 -2.81405 2.23722 0
M  V30 1290 C 124.867 -2.65199 3.72181 0
M  V30 1291 C 125.864 -2.32717 4.64907 0
M  V30 1292 C 123.549 -2.81586 4.1595 0
M  V30 1293 C 125.543 -2.16827 5.99387 0
M  V30 1294 C 123.23 -2.65313 5.50502 0
M  V30 1295 C 124.228 -2.32981 6.42035 0
M  V30 1296 O 123.916 -2.16827 7.74107 0
M  V30 1297 H 123.648 -0.471606 0.484318 0
M  V30 1298 H 126.202 -0.895456 1.84853 0
M  V30 1299 H 124.432 -3.44823 1.75026 0
M  V30 1300 H 126.121 -3.43102 2.16878 0
M  V30 1301 H 126.887 -2.19694 4.32388 0
M  V30 1302 H 122.766 -3.0574 3.45027 0
M  V30 1303 H 126.31 -1.91513 6.70797 0
M  V30 1304 H 122.207 -2.7792 5.82607 0
M  V30 1305 H 122.975 -2.31778 7.84998 0
M  V30 1306 N 125.638 -1.25649 -0.95132 0
M  V30 1307 C 126.886 -1.10375 -1.69298 0
M  V30 1308 C 127.207 0.355339 -1.91735 0
M  V30 1309 O 126.477 1.25188 -1.50681 0
M  V30 1310 H 125.057 -0.405461 -0.627384 0
M  V30 1311 H 127.719 -1.57823 -1.14358 0
M  V30 1312 H 126.815 -1.61465 -2.67087 0
M  V30 1313 N 127.117 1.15442 -1.07289 0
M  V30 1314 C 128.065 2.22225 -0.686952 0
M  V30 1315 C 129.059 1.66688 0.30193 0
M  V30 1316 O 130.265 1.79236 0.165712 0
M  V30 1317 H 126.64 0.723783 -0.204064 0
M  V30 1318 H 128.611 2.52056 -1.5972 0
M  V30 1319 C 127.36 3.47556 -0.100149 0
M  V30 1320 H 126.683 3.90612 -0.852211 0
M  V30 1321 H 128.123 4.23794 0.132235 0
M  V30 1322 C 126.582 3.16337 1.159 0
M  V30 1323 O 127.112 3.33074 2.24555 0
M  V30 1324 N 125.318 2.70385 1.06491 0
M  V30 1325 H 124.865 2.56966 0.180668 0
M  V30 1326 H 124.823 2.49871 1.90819 0
M  V30 1327 N 128.595 0.856903 1.32268 0
M  V30 1328 C 130.006 0.515711 1.79436 0
M  V30 1329 C 130.357 -0.966586 1.70738 0
M  V30 1330 O 129.482 -1.75409 1.26731 0
M  V30 1331 C 130.077 0.929335 3.25805 0
M  V30 1332 C 128.636 0.640006 3.70919 0
M  V30 1333 C 127.783 1.12784 2.53328 0
M  V30 1334 H 130.734 1.04389 1.19535 0
M  V30 1335 H 130.755 0.246633 3.797 0
M  V30 1336 H 130.267 2.00821 3.32103 0
M  V30 1337 H 128.368 -0.428051 3.70133 0
M  V30 1338 H 128.481 1.20788 4.63624 0
M  V30 1339 H 126.845 0.548033 2.48734 0
M  V30 1340 H 127.628 2.21387 2.62379 0
M  V30 1341 N 130.073 -1.45103 0.615059 0
M  V30 1342 C 131.023 -2.27679 -0.120966 0
M  V30 1343 C 132.007 -1.3775 -0.831491 0
M  V30 1344 O 133.199 -1.61683 -0.720249 0
M  V30 1345 C 130.328 -3.24767 -1.1127 0
M  V30 1346 C 129.414 -4.22184 -0.402627 0
M  V30 1347 N 129.805 -5.02692 0.559884 0
M  V30 1348 C 128.103 -4.4125 -0.649202 0
M  V30 1349 C 128.804 -5.73421 0.977942 0
M  V30 1350 N 127.78 -5.42657 0.320104 0
M  V30 1351 H 131.582 -2.87325 0.618181 0
M  V30 1352 H 129.096 -1.56345 0.439304 0
M  V30 1353 H 131.093 -3.82666 -1.65446 0
M  V30 1354 H 129.753 -2.66682 -1.85232 0
M  V30 1355 H 130.764 -5.09354 0.936976 0
M  V30 1356 H 127.441 -3.9428 -1.37293 0
M  V30 1357 H 128.831 -6.48107 1.77222 0
M  V30 1358 N 131.551 -0.354651 -1.53558 0
M  V30 1359 C 132.776 0.242153 -2.05981 0
M  V30 1360 C 133.201 1.42553 -1.2272 0
M  V30 1361 O 132.559 1.79656 -0.243604 0
M  V30 1362 C 132.607 0.624367 -3.55154 0
M  V30 1363 O 131.711 1.72301 -3.74681 0
M  V30 1364 H 131.052 0.0378432 -0.662921 0
M  V30 1365 H 133.582 -0.512087 -1.98088 0
M  V30 1366 H 133.592 0.898433 -3.97985 0
M  V30 1367 H 132.267 -0.240989 -4.15201 0
M  V30 1368 H 130.844 1.44535 -3.4375 0
M  V30 1369 N 133.029 1.57378 -0.0835403 0
M  V30 1370 C 134.445 1.57246 0.273109 0
M  V30 1371 C 134.645 1.09385 1.69225 0
M  V30 1372 O 133.701 0.765051 2.40631 0
M  V30 1373 C 135.014 3.00614 0.0720628 0
M  V30 1374 C 136.562 3.12684 0.1407 0
M  V30 1375 C 137.037 4.57989 -0.0322094 0
M  V30 1376 N 138.528 4.63194 0.0230085 0
M  V30 1377 C 139.263 5.73335 -0.0861941 0
M  V30 1378 N 138.759 6.9235 -0.24958 0
M  V30 1379 N 140.552 5.62093 -0.0282886 0
M  V30 1380 H 132.703 1.86801 -1.0109 0
M  V30 1381 H 134.966 0.861687 -0.395222 0
M  V30 1382 H 134.672 3.39786 -0.907662 0
M  V30 1383 H 134.546 3.68193 0.81936 0
M  V30 1384 H 136.933 2.73391 1.11092 0
M  V30 1385 H 137.014 2.47719 -0.637896 0
M  V30 1386 H 136.658 4.97973 -0.999247 0
M  V30 1387 H 136.588 5.21 0.765937 0
M  V30 1388 H 139.079 3.77613 0.14722 0
M  V30 1389 H 139.392 7.72117 -0.324733 0
M  V30 1390 H 137.737 6.94415 -0.285097 0
M  V30 1391 H 140.928 4.67997 0.0981408 0
M  V30 1392 H 141.101 6.47895 -0.116845 0
M  V30 1393 N 134.507 -0.190092 1.56449 0
M  V30 1394 C 135.735 -0.925772 1.85033 0
M  V30 1395 C 136.15 -1.76638 0.666658 0
M  V30 1396 O 135.507 -1.78822 -0.364565 0
M  V30 1397 C 135.558 -1.81786 3.12468 0
M  V30 1398 O 135.279 -1.01118 4.26271 0
M  V30 1399 C 136.78 -2.6648 3.54265 0
M  V30 1400 H 134 -0.269872 0.614337 0
M  V30 1401 H 136.544 -0.195837 2.0356 0
M  V30 1402 H 134.699 -2.50136 2.95822 0
M  V30 1403 H 135.113 -1.61956 4.98869 0
M  V30 1404 H 136.587 -3.24722 4.46385 0
M  V30 1405 H 137.064 -3.40434 2.77491 0
M  V30 1406 H 137.67 -2.03493 3.73458 0
M  V30 1407 N 135.985 -1.50799 -0.457987 0
M  V30 1408 C 136.935 -1.67003 -1.55222 0
M  V30 1409 C 137.919 -0.52434 -1.52117 0
M  V30 1410 O 139.111 -0.779345 -1.58919 0
M  V30 1411 C 136.24 -1.77956 -2.93576 0
M  V30 1412 C 135.326 -2.98243 -3.01516 0
M  V30 1413 N 135.717 -4.21732 -2.79241 0
M  V30 1414 C 134.015 -2.97072 -3.32662 0
M  V30 1415 C 134.716 -5.02817 -2.92489 0
M  V30 1416 N 133.692 -4.37038 -3.23262 0
M  V30 1417 H 137.494 -2.60163 -1.36721 0
M  V30 1418 H 135.008 -1.48163 -0.664952 0
M  V30 1419 H 137.005 -1.87671 -3.72271 0
M  V30 1420 H 135.665 -0.859634 -3.13114 0
M  V30 1421 H 136.676 -4.51016 -2.54567 0
M  V30 1422 H 133.353 -2.14631 -3.58106 0
M  V30 1423 H 134.743 -6.11054 -2.79396 0
M  V30 1424 N 137.463 0.71206 -1.40597 0
M  V30 1425 C 138.426 1.80785 -1.40888 0
M  V30 1426 C 139.426 1.57937 -0.302103 0
M  V30 1427 O 140.616 1.64913 -0.561182 0
M  V30 1428 C 137.748 3.18927 -1.20409 0
M  V30 1429 H 138.941 1.81924 -2.38419 0
M  V30 1430 H 136.494 0.91805 -1.26497 0
M  V30 1431 H 137.229 3.23436 -0.236522 0
M  V30 1432 H 137.014 3.36911 -2.00582 0
M  V30 1433 H 138.504 3.98949 -1.23408 0
M  V30 1434 N 138.941 1.26152 0.944643 0
M  V30 1435 C 140.171 1.14094 1.72239 0
M  V30 1436 C 140.579 -0.306931 1.86694 0
M  V30 1437 O 139.922 -1.22222 1.3714 0
M  V30 1438 C 139.984 1.73316 3.14963 0
M  V30 1439 C 139.648 3.2239 3.23904 0
M  V30 1440 C 140.645 4.19252 3.07447 0
M  V30 1441 C 138.33 3.62788 3.47405 0
M  V30 1442 C 140.324 5.54491 3.14353 0
M  V30 1443 C 138.011 4.98162 3.53947 0
M  V30 1444 C 139.009 5.93823 3.37436 0
M  V30 1445 O 138.697 7.26732 3.43679 0
M  V30 1446 H 138.429 0.398292 0.546205 0
M  V30 1447 H 140.983 1.67201 1.19301 0
M  V30 1448 H 139.213 1.14667 3.69308 0
M  V30 1449 H 140.902 1.56214 3.74636 0
M  V30 1450 H 141.668 3.8938 2.8915 0
M  V30 1451 H 137.547 2.88816 3.59313 0
M  V30 1452 H 141.091 6.29137 3.01384 0
M  V30 1453 H 136.988 5.27695 3.71763 0
M  V30 1454 H 137.756 7.3496 3.60245 0
M  V30 1455 N 140.419 -1.14872 1.07899 0
M  V30 1456 C 141.667 -1.85422 0.803941 0
M  V30 1457 C 141.988 -1.83051 -0.67211 0
M  V30 1458 O 141.258 -1.27532 -1.48703 0
M  V30 1459 H 139.838 -0.686537 0.294408 0
M  V30 1460 H 142.5 -1.39226 1.3639 0
M  V30 1461 H 141.596 -2.90399 1.14346 0
M  V30 1462 N 141.898 -0.863906 -1.31812 0
M  V30 1463 C 143.144 -0.481841 -1.9761 0
M  V30 1464 C 143.499 0.954048 -1.6708 0
M  V30 1465 O 142.792 1.66182 -0.953624 0
M  V30 1466 C 142.986 -0.668547 -3.51091 0
M  V30 1467 C 142.815 -2.12103 -3.96538 0
M  V30 1468 C 141.585 -2.76141 -4.23171 0
M  V30 1469 C 143.783 -3.09265 -4.10925 0
M  V30 1470 N 141.765 -4.12205 -4.54929 0
M  V30 1471 C 143.136 -4.30341 -4.46326 0
M  V30 1472 C 145.191 -3.05337 -3.93286 0
M  V30 1473 C 143.894 -5.48 -4.65928 0
M  V30 1474 C 145.92 -4.22248 -4.14078 0
M  V30 1475 C 145.282 -5.42085 -4.49804 0
M  V30 1476 H 141.381 -0.225238 -0.74886 0
M  V30 1477 H 143.965 -1.11723 -1.59455 0
M  V30 1478 H 142.136 -0.0627898 -3.88349 0
M  V30 1479 H 143.868 -0.255467 -4.03893 0
M  V30 1480 H 140.623 -2.27125 -4.15585 0
M  V30 1481 H 141.047 -4.82416 -4.74978 0
M  V30 1482 H 145.689 -2.138 -3.64759 0
M  V30 1483 H 143.407 -6.40059 -4.93305 0
M  V30 1484 H 146.993 -4.20654 -4.01922 0
M  V30 1485 H 145.873 -6.31044 -4.65567 0
M  V30 1486 N 143.376 1.44774 -0.622745 0
M  V30 1487 C 144.286 2.34433 0.0886031 0
M  V30 1488 C 145.302 1.52131 0.844529 0
M  V30 1489 O 146.478 1.84886 0.798691 0
M  V30 1490 C 143.543 3.29986 1.0635 0
M  V30 1491 C 142.604 4.28195 0.307873 0
M  V30 1492 C 141.837 5.19183 1.23633 0
M  V30 1493 O 142.06 5.13918 2.47476 0
M  V30 1494 O 140.994 5.97515 0.725189 0
M  V30 1495 H 144.82 2.96693 -0.648599 0
M  V30 1496 H 142.405 1.44408 -0.382957 0
M  V30 1497 H 144.287 3.88825 1.6246 0
M  V30 1498 H 142.962 2.70269 1.78146 0
M  V30 1499 H 141.869 3.72927 -0.296064 0
M  V30 1500 H 143.202 4.90808 -0.3699 0
M  V30 1501 N 144.854 0.36279 1.53368 0
M  V30 1502 C 146.079 -0.231226 2.06107 0
M  V30 1503 C 146.504 -1.419 1.23474 0
M  V30 1504 O 145.862 -1.79524 0.253128 0
M  V30 1505 C 145.91 -0.605523 3.5548 0
M  V30 1506 O 145.014 -1.70312 3.7559 0
M  V30 1507 H 144.355 -0.034327 0.663112 0
M  V30 1508 H 146.885 0.522584 1.97814 0
M  V30 1509 H 146.895 -0.877314 3.98456 0
M  V30 1510 H 145.57 0.263004 4.15068 0
M  V30 1511 H 144.147 -1.4271 3.44512 0
M  V30 1512 N 146.332 -1.57332 0.0918853 0
M  V30 1513 C 147.242 -2.17368 -0.882505 0
M  V30 1514 C 148.258 -1.14226 -1.31257 0
M  V30 1515 O 149.434 -1.46582 -1.38115 0
M  V30 1516 C 146.499 -2.73962 -2.12476 0
M  V30 1517 C 145.56 -3.92048 -1.7492 0
M  V30 1518 C 144.793 -4.45933 -2.93223 0
M  V30 1519 O 145.016 -3.98764 -4.07852 0
M  V30 1520 O 143.95 -5.36999 -2.71875 0
M  V30 1521 H 147.776 -3.01031 -0.40172 0
M  V30 1522 H 145.361 -1.48813 -0.132291 0
M  V30 1523 H 147.243 -3.10147 -2.85283 0
M  V30 1524 H 145.918 -1.93347 -2.59613 0
M  V30 1525 H 144.825 -3.6068 -0.993025 0
M  V30 1526 H 146.158 -4.74017 -1.32548 0
M  V30 1527 N 147.81 0.181792 -1.56548 0
M  V30 1528 C 148.773 1.20894 -1.94724 0
M  V30 1529 C 149.773 1.37738 -0.829747 0
M  V30 1530 O 150.963 1.35323 -1.09697 0
M  V30 1531 C 148.095 2.57593 -2.23291 0
M  V30 1532 H 149.288 0.882275 -2.86629 0
M  V30 1533 H 146.841 0.423838 -1.50444 0
M  V30 1534 H 147.576 2.95291 -1.34067 0
M  V30 1535 H 147.361 2.46735 -3.04736 0
M  V30 1536 H 148.851 3.31637 -2.53785 0
M  V30 1537 N 149.288 1.51039 0.449983 0
M  V30 1538 C 150.251 1.70863 1.5277 0
M  V30 1539 C 151.251 0.578846 1.5002 0
M  V30 1540 O 152.441 0.846213 1.52266 0
M  V30 1541 C 149.573 1.75341 2.9235 0
M  V30 1542 H 150.766 2.67034 1.36502 0
M  V30 1543 H 148.319 1.40838 0.677812 0
M  V30 1544 H 149.054 0.809383 3.14037 0
M  V30 1545 H 148.839 2.57436 2.95752 0
M  V30 1546 H 150.329 1.92559 3.70555 0
M  V30 1547 N 150.766 -0.704594 1.40972 0
M  V30 1548 C 151.699 -1.82861 1.36518 0
M  V30 1549 C 152.677 -1.6091 0.23382 0
M  V30 1550 O 153.861 -1.83778 0.419271 0
M  V30 1551 C 150.988 -3.1939 1.12729 0
M  V30 1552 C 150.034 -3.60148 2.28463 0
M  V30 1553 S 150.867 -3.65994 3.90907 0
M  V30 1554 C 152.023 -5.05264 3.69403 0
M  V30 1555 H 152.256 -1.86361 2.3164 0
M  V30 1556 H 149.789 -0.872439 1.27389 0
M  V30 1557 H 151.747 -3.98211 0.996893 0
M  V30 1558 H 150.408 -3.1351 0.192427 0
M  V30 1559 H 149.601 -4.59309 2.07489 0
M  V30 1560 H 149.203 -2.88612 2.37863 0
M  V30 1561 H 151.495 -5.92504 3.28551 0
M  V30 1562 H 152.438 -5.31278 4.68134 0
M  V30 1563 H 152.846 -4.76377 3.02862 0
M  V30 1564 N 152.244 -1.26651 -0.937939 0
M  V30 1565 C 153.154 -1.10276 -2.07066 0
M  V30 1566 C 154.17 -0.0354197 -1.73964 0
M  V30 1567 O 155.346 -0.239816 -1.99967 0
M  V30 1568 C 152.411 -0.740887 -3.38691 0
M  V30 1569 C 151.472 -1.88799 -3.85556 0
M  V30 1570 C 150.705 -1.54329 -5.10899 0
M  V30 1571 O 150.928 -0.446494 -5.6865 0
M  V30 1572 O 149.862 -2.37911 -5.52885 0
M  V30 1573 H 153.688 -2.05309 -2.23789 0
M  V30 1574 H 151.273 -1.05743 -1.0554 0
M  V30 1575 H 153.155 -0.55195 -4.1777 0
M  V30 1576 H 151.83 0.180022 -3.23199 0
M  V30 1577 H 150.737 -2.13191 -3.07409 0
M  V30 1578 H 152.07 -2.78874 -4.05574 0
M  V30 1579 N 153.722 1.14298 -1.08507 0
M  V30 1580 C 155.138 1.37347 -0.812901 0
M  V30 1581 C 155.338 1.93052 0.577325 0
M  V30 1582 O 154.394 2.14389 1.33393 0
M  V30 1583 C 155.707 2.33359 -1.89642 0
M  V30 1584 C 157.255 2.46996 -1.92255 0
M  V30 1585 C 157.73 3.46309 -2.99724 0
M  V30 1586 N 159.221 3.53853 -2.98902 0
M  V30 1587 C 159.956 4.3055 -3.787 0
M  V30 1588 N 159.452 5.10482 -4.6838 0
M  V30 1589 N 161.245 4.25757 -3.66998 0
M  V30 1590 H 153.396 0.764867 -1.9815 0
M  V30 1591 H 155.659 0.398966 -0.859959 0
M  V30 1592 H 155.365 1.99565 -2.89597 0
M  V30 1593 H 155.239 3.33274 -1.76659 0
M  V30 1594 H 157.626 2.80081 -0.929445 0
M  V30 1595 H 157.707 1.47039 -2.09316 0
M  V30 1596 H 157.351 3.13957 -3.99241 0
M  V30 1597 H 157.281 4.46049 -2.79907 0
M  V30 1598 H 159.772 2.96812 -2.33904 0
M  V30 1599 H 160.085 5.66284 -5.25873 0
M  V30 1600 H 158.43 5.09747 -4.72422 0
M  V30 1601 H 161.621 3.62383 -2.96304 0
M  V30 1602 H 161.794 4.85279 -4.29427 0
M  V30 1603 N 155.201 0.870884 1.31352 0
M  V30 1604 C 156.164 0.332243 2.26779 0
M  V30 1605 C 157.164 -0.517302 1.52252 0
M  V30 1606 O 158.354 -0.326477 1.71113 0
M  V30 1607 C 155.486 -0.528066 3.36785 0
M  V30 1608 H 156.679 1.17469 2.75937 0
M  V30 1609 H 154.232 0.64655 1.423 0
M  V30 1610 H 154.967 -1.39167 2.92922 0
M  V30 1611 H 154.752 0.0802582 3.92018 0
M  V30 1612 H 156.242 -0.897179 4.07849 0
M  V30 1613 N 156.679 -1.44442 0.630414 0
M  V30 1614 C 158.095 -1.56832 0.295973 0
M  V30 1615 C 158.295 -1.61806 -1.20088 0
M  V30 1616 O 157.351 -1.5607 -1.9849 0
M  V30 1617 C 158.664 -2.84031 0.987264 0
M  V30 1618 C 160.212 -2.97742 0.96534 0
M  V30 1619 C 160.687 -4.27743 1.63708 0
M  V30 1620 N 162.178 -4.34555 1.60364 0
M  V30 1621 C 162.913 -5.33862 2.09234 0
M  V30 1622 N 162.409 -6.39578 2.66292 0
M  V30 1623 N 164.202 -5.25366 1.99867 0
M  V30 1624 H 156.353 -1.39457 1.60205 0
M  V30 1625 H 158.616 -0.668237 0.672431 0
M  V30 1626 H 158.322 -2.86338 2.04215 0
M  V30 1627 H 158.196 -3.73534 0.524588 0
M  V30 1628 H 160.583 -2.94989 -0.0810639 0
M  V30 1629 H 160.664 -2.09589 1.4665 0
M  V30 1630 H 160.308 -4.31255 2.68293 0
M  V30 1631 H 160.238 -5.14752 1.11076 0
M  V30 1632 H 162.729 -3.58772 1.18705 0
M  V30 1633 H 163.042 -7.11637 3.01317 0
M  V30 1634 H 161.387 -6.40265 2.70343 0
M  V30 1635 H 164.578 -4.41688 1.55013 0
M  V30 1636 H 164.751 -6.02606 2.38265 0
M  V30 1637 N 158.157 -0.370918 -1.53173 0
M  V30 1638 C 159.089 0.507823 -2.23503 0
M  V30 1639 C 160.102 1.04182 -1.251 0
M  V30 1640 O 161.291 0.947286 -1.5129 0
M  V30 1641 C 158.391 1.71447 -2.92334 0
M  V30 1642 C 157.564 1.31105 -4.17289 0
M  V30 1643 C 156.623 2.38035 -4.69282 0
M  V30 1644 O 155.649 2.00204 -5.32829 0
M  V30 1645 N 156.851 3.69697 -4.47554 0
M  V30 1646 H 159.616 -0.0946382 -2.99551 0
M  V30 1647 H 157.177 -0.196358 -1.60705 0
M  V30 1648 H 159.169 2.42469 -3.24023 0
M  V30 1649 H 157.739 2.22368 -2.19707 0
M  V30 1650 H 156.959 0.430462 -3.91843 0
M  V30 1651 H 158.247 1.0179 -4.98514 0
M  V30 1652 H 157.645 4.03205 -3.9679 0
M  V30 1653 H 156.202 4.36807 -4.8378 0
M  V30 1654 N 159.635 1.57281 -0.100228 0
M  V30 1655 C 160.567 2.11342 0.886972 0
M  V30 1656 C 161.58 1.05182 1.24261 0
M  V30 1657 O 162.769 1.32613 1.19483 0
M  V30 1658 C 159.869 2.5825 2.19454 0
M  V30 1659 C 159.042 3.88302 2.01346 0
M  V30 1660 C 158.101 4.21004 3.15661 0
M  V30 1661 O 157.127 4.9014 2.89398 0
M  V30 1662 N 158.329 3.76818 4.41575 0
M  V30 1663 H 161.094 2.96668 0.425216 0
M  V30 1664 H 158.655 1.61678 0.0847334 0
M  V30 1665 H 160.647 2.7717 2.94888 0
M  V30 1666 H 159.217 1.77907 2.57037 0
M  V30 1667 H 158.437 3.7848 1.10212 0
M  V30 1668 H 159.725 4.73375 1.8653 0
M  V30 1669 H 159.123 3.2102 4.65792 0
M  V30 1670 H 157.68 4.00882 5.13942 0
M  V30 1671 N 161.113 -0.173488 1.56642 0
M  V30 1672 C 162.359 -0.891784 1.8214 0
M  V30 1673 C 162.692 -1.8199 0.677736 0
M  V30 1674 O 161.967 -1.91842 -0.320446 0
M  V30 1675 C 162.25 -1.68933 3.18015 0
M  V30 1676 C 162.103 -0.784487 4.42906 0
M  V30 1677 C 163.422 -2.65748 3.50808 0
M  V30 1678 H 160.541 -0.322761 0.662567 0
M  V30 1679 H 163.183 -0.158095 1.89341 0
M  V30 1680 H 161.333 -2.31482 3.12007 0
M  V30 1681 H 163.005 -0.172046 4.60979 0
M  V30 1682 H 161.248 -0.0924117 4.33702 0
M  V30 1683 H 161.919 -1.37799 5.34524 0
M  V30 1684 H 164.395 -2.13327 3.57255 0
M  V30 1685 H 163.271 -3.18619 4.4696 0
M  V30 1686 H 163.532 -3.45842 2.75401 0
M  V30 1687 N 162.591 -1.51276 -0.441967 0
M  V30 1688 C 163.554 -1.7167 -1.51862 0
M  V30 1689 C 164.554 -0.586793 -1.49711 0
M  V30 1690 O 165.744 -0.854276 -1.51815 0
M  V30 1691 C 162.876 -1.76889 -2.91416 0
M  V30 1692 H 164.069 -2.67754 -1.35084 0
M  V30 1693 H 161.622 -1.41196 -0.670333 0
M  V30 1694 H 162.357 -0.826026 -3.13604 0
M  V30 1695 H 162.142 -2.59001 -2.94382 0
M  V30 1696 H 163.632 -1.94522 -3.69528 0
M  V30 1697 N 164.069 0.697108 -1.41344 0
M  V30 1698 C 165.294 1.49096 -1.44171 0
M  V30 1699 C 165.719 1.88038 -0.0481568 0
M  V30 1700 O 165.077 1.54525 0.948243 0
M  V30 1701 C 165.125 2.73088 -2.3549 0
M  V30 1702 O 164.229 3.70514 -1.81088 0
M  V30 1703 H 163.57 0.448801 -0.489361 0
M  V30 1704 H 166.1 0.856992 -1.85787 0
M  V30 1705 H 166.11 3.21413 -2.51312 0
M  V30 1706 H 164.785 2.44081 -3.36745 0
M  V30 1707 H 163.362 3.29441 -1.74708 0
M  V30 1708 N 165.547 1.27147 0.931209 0
M  V30 1709 C 166.477 1.12081 2.04842 0
M  V30 1710 C 167.458 0.0232364 1.70084 0
M  V30 1711 O 168.643 0.197085 1.93197 0
M  V30 1712 C 165.773 0.76354 3.38803 0
M  V30 1713 C 164.727 1.81396 3.87659 0
M  V30 1714 C 164.053 1.31075 5.18385 0
M  V30 1715 C 165.353 3.21739 4.11438 0
M  V30 1716 H 167.047 2.05537 2.17703 0
M  V30 1717 H 164.593 0.989603 1.04608 0
M  V30 1718 H 166.546 0.644982 4.16435 0
M  V30 1719 H 165.27 -0.206727 3.25945 0
M  V30 1720 H 163.929 1.92136 3.12217 0
M  V30 1721 H 163.577 0.330037 5.01916 0
M  V30 1722 H 163.277 2.013 5.52044 0
M  V30 1723 H 164.801 1.20506 5.98591 0
M  V30 1724 H 166.215 3.14019 4.79651 0
M  V30 1725 H 164.612 3.89644 4.56397 0
M  V30 1726 H 165.682 3.67054 3.16859 0
M  V30 1727 N 167.025 -1.13721 1.09112 0
M  V30 1728 C 168.274 -1.84275 0.82009 0
M  V30 1729 C 168.587 -1.84253 -0.656509 0
M  V30 1730 O 169.793 -2.50668 -1.04296 0
M  V30 1731 C 168.249 -3.30825 1.41714 0
M  V30 1732 C 167.857 -3.39244 2.92605 0
M  V30 1733 C 169.601 -4.06443 1.22492 0
M  V30 1734 C 167.508 -4.80047 3.45411 0
M  V30 1735 H 166.438 -0.690387 0.30312 0
M  V30 1736 H 169.089 -1.28146 1.31343 0
M  V30 1737 H 167.471 -3.86737 0.851498 0
M  V30 1738 H 168.645 -2.93344 3.55367 0
M  V30 1739 H 166.96 -2.77088 3.10823 0
M  V30 1740 H 169.557 -5.10387 1.59402 0
M  V30 1741 H 169.9 -4.15972 0.165299 0
M  V30 1742 H 170.433 -3.56852 1.75788 0
M  V30 1743 H 167.172 -4.75709 4.50978 0
M  V30 1744 H 166.692 -5.26455 2.87411 0
M  V30 1745 H 168.371 -5.48957 3.42425 0
M  V30 1746 N 168.503 -0.877838 -1.30888 0
M  V30 1747 C 169.751 -0.491723 -1.96027 0
M  V30 1748 C 170.072 0.960827 -1.69685 0
M  V30 1749 O 169.342 1.67462 -1.01654 0
M  V30 1750 H 167.922 -0.17885 -0.725273 0
M  V30 1751 H 170.584 -1.11935 -1.59551 0
M  V30 1752 H 169.68 -0.656016 -3.05128 0
M  V30 1753 N 169.982 1.44106 -0.638065 0
M  V30 1754 C 170.945 2.29138 0.0531013 0
M  V30 1755 C 171.945 1.41409 0.765506 0
M  V30 1756 O 173.135 1.63206 0.609046 0
M  V30 1757 C 170.267 3.23144 1.08584 0
M  V30 1758 H 171.46 2.91739 -0.694883 0
M  V30 1759 H 169.013 1.51134 -0.398538 0
M  V30 1760 H 169.748 2.65408 1.86357 0
M  V30 1761 H 169.533 3.87804 0.578852 0
M  V30 1762 H 171.023 3.87004 1.56899 0
M  V30 1763 N 171.46 0.379036 1.52974 0
M  V30 1764 C 172.737 -0.263479 1.93817 0
M  V30 1765 C 173.117 -1.65244 1.31368 0
M  V30 1766 O 172.465 -2.23448 0.477856 0
M  V30 1767 C 172.675 -0.300166 3.47707 0
M  V30 1768 C 174.023 -0.534061 4.21228 0
M  V30 1769 O 175.047 -0.38081 3.54159 0
M  V30 1770 O 173.906 -0.833501 5.40106 0
M  V30 1771 H 171 -0.161149 0.811147 0
M  V30 1772 H 173.546 0.432798 1.64088 0
M  V30 1773 H 172.318 0.673138 3.85467 0
M  V30 1774 H 171.941 -1.04179 3.83709 0
M  V30 1775 N 172.938 -1.57226 0.108567 0
M  V30 1776 C 174.349 -1.8195 -0.418464 0
M  V30 1777 C 174.7 -1.02508 -1.67292 0
M  V30 1778 O 173.825 -0.258496 -2.14851 0
M  V30 1779 C 174.42 -3.30028 -0.765979 0
M  V30 1780 C 172.979 -3.55469 -1.23769 0
M  V30 1781 C 172.126 -2.7625 -0.241106 0
M  V30 1782 H 175.077 -1.55149 0.33384 0
M  V30 1783 H 175.098 -3.44086 -1.62434 0
M  V30 1784 H 174.61 -3.87821 0.147219 0
M  V30 1785 H 172.711 -3.03022 -2.16814 0
M  V30 1786 H 172.824 -4.6408 -1.19022 0
M  V30 1787 H 171.188 -2.44133 -0.72602 0
M  V30 1788 H 171.971 -3.36797 0.665007 0
M  V30 1789 N 174.416 0.165178 -1.56732 0
M  V30 1790 C 175.832 0.517174 -1.50988 0
M  V30 1791 C 176.032 1.84331 -0.813894 0
M  V30 1792 O 175.088 2.49672 -0.37682 0
M  V30 1793 C 176.401 0.544261 -2.95733 0
M  V30 1794 C 177.949 0.631039 -3.06573 0
M  V30 1795 C 178.424 0.68896 -4.52788 0
M  V30 1796 N 179.915 0.751683 -4.5706 0
M  V30 1797 C 180.65 0.817177 -5.67547 0
M  V30 1798 N 180.146 0.843129 -6.8765 0
M  V30 1799 N 181.939 0.856668 -5.55534 0
M  V30 1800 H 174.09 -0.704318 -2.00382 0
M  V30 1801 H 176.353 -0.254687 -0.913148 0
M  V30 1802 H 176.059 -0.361607 -3.49836 0
M  V30 1803 H 175.933 1.3886 -3.5071 0
M  V30 1804 H 178.32 1.52733 -2.52501 0
M  V30 1805 H 178.401 -0.240095 -2.54671 0
M  V30 1806 H 178.045 -0.2031 -5.07494 0
M  V30 1807 H 177.975 1.57633 -5.02454 0
M  V30 1808 H 180.466 0.739661 -3.70591 0
M  V30 1809 H 180.779 0.894448 -7.67606 0
M  V30 1810 H 179.124 0.811304 -6.90248 0
M  V30 1811 H 182.315 0.833437 -4.60621 0
M  V30 1812 H 182.488 0.904247 -6.4166 0
M  V30 1813 N 175.894 1.51508 0.433938 0
M  V30 1814 C 176.804 1.75917 1.5521 0
M  V30 1815 C 177.82 0.643545 1.61662 0
M  V30 1816 O 178.996 0.926183 1.7884 0
M  V30 1817 C 176.061 1.88213 2.91164 0
M  V30 1818 C 175.122 3.12074 2.94802 0
M  V30 1819 C 174.355 3.23774 4.24271 0
M  V30 1820 O 174.578 2.4133 5.16833 0
M  V30 1821 O 173.512 4.16774 4.34262 0
M  V30 1822 H 177.338 2.70777 1.37527 0
M  V30 1823 H 174.923 1.36051 0.617293 0
M  V30 1824 H 176.805 1.98267 3.71845 0
M  V30 1825 H 175.48 0.965413 3.08968 0
M  V30 1826 H 174.387 3.07497 2.13065 0
M  V30 1827 H 175.72 4.03446 2.81943 0
M  V30 1828 N 177.372 -0.689602 1.41712 0
M  V30 1829 C 178.621 -1.44534 1.40686 0
M  V30 1830 C 178.934 -1.95588 0.0213352 0
M  V30 1831 O 180.14 -2.71271 -0.111534 0
M  V30 1832 C 178.596 -2.61387 2.47396 0
M  V30 1833 C 178.204 -2.17094 3.91885 0
M  V30 1834 C 179.948 -3.38986 2.55517 0
M  V30 1835 C 177.855 -3.3094 4.90135 0
M  V30 1836 H 176.785 -0.542925 0.52321 0
M  V30 1837 H 179.436 -0.748054 1.6756 0
M  V30 1838 H 177.818 -3.33412 2.13664 0
M  V30 1839 H 178.992 -1.52318 4.34897 0
M  V30 1840 H 177.307 -1.52473 3.8748 0
M  V30 1841 H 179.904 -4.23747 3.26102 0
M  V30 1842 H 180.247 -3.84578 1.59391 0
M  V30 1843 H 180.78 -2.74021 2.8837 0
M  V30 1844 H 177.519 -2.90355 5.87685 0
M  V30 1845 H 177.039 -3.94546 4.51767 0
M  V30 1846 H 178.718 -3.9663 5.11169 0
M  V30 1847 N 178.85 -1.27639 -0.924453 0
M  V30 1848 C 180.099 -1.13549 -1.66702 0
M  V30 1849 C 180.412 0.317487 -1.93006 0
M  V30 1850 O 181.618 0.579333 -2.65247 0
M  V30 1851 C 180.074 -1.98426 -3.00259 0
M  V30 1852 C 179.682 -3.484 -2.81641 0
M  V30 1853 C 181.426 -1.92993 -3.78092 0
M  V30 1854 C 179.333 -4.25464 -4.10773 0
M  V30 1855 H 178.263 -0.421351 -0.625283 0
M  V30 1856 H 180.914 -1.52085 -1.02676 0
M  V30 1857 H 179.296 -1.52736 -3.6536 0
M  V30 1858 H 180.47 -4.01973 -2.25287 0
M  V30 1859 H 178.785 -3.55245 -2.17232 0
M  V30 1860 H 181.382 -2.47844 -4.7379 0
M  V30 1861 H 181.725 -0.904281 -4.0636 0
M  V30 1862 H 182.258 -2.36595 -3.19793 0
M  V30 1863 H 178.997 -5.28566 -3.87683 0
M  V30 1864 H 178.517 -3.76667 -4.66779 0
M  V30 1865 H 180.196 -4.34812 -4.79111 0
M  V30 1866 N 180.328 1.1314 -1.09713 0
M  V30 1867 C 181.575 1.84484 -0.834987 0
M  V30 1868 C 181.903 1.83689 0.639418 0
M  V30 1869 O 181.158 1.2724 1.4869 0
M  V30 1870 C 181.457 3.32167 -1.3191 0
M  V30 1871 C 181.123 3.53139 -2.80363 0
M  V30 1872 C 179.785 3.58571 -3.20905 0
M  V30 1873 C 182.137 3.60866 -3.76065 0
M  V30 1874 C 179.465 3.69267 -4.55916 0
M  V30 1875 C 181.817 3.73089 -5.10869 0
M  V30 1876 C 180.481 3.76775 -5.50996 0
M  V30 1877 H 179.751 0.675073 -0.305544 0
M  V30 1878 H 182.398 1.33554 -1.37243 0
M  V30 1879 H 180.703 3.85469 -0.701517 0
M  V30 1880 H 182.4 3.85821 -1.09284 0
M  V30 1881 H 178.99 3.49569 -2.47991 0
M  V30 1882 H 183.174 3.55946 -3.45855 0
M  V30 1883 H 178.43 3.70388 -4.86438 0
M  V30 1884 H 182.604 3.78011 -5.84877 0
M  V30 1885 H 180.231 3.84815 -6.55608 0
M  V30 1886 N 181.806 0.884767 1.30421 0
M  V30 1887 C 183.034 0.518044 2.0031 0
M  V30 1888 C 183.449 -0.893408 1.66324 0
M  V30 1889 O 182.806 -1.5875 0.900262 0
M  V30 1890 C 182.857 0.682997 3.54989 0
M  V30 1891 O 182.578 2.03888 3.87764 0
M  V30 1892 C 184.079 0.31924 4.42149 0
M  V30 1893 H 181.299 0.200265 0.640418 0
M  V30 1894 H 183.843 1.19001 1.6631 0
M  V30 1895 H 181.998 0.0584052 3.87356 0
M  V30 1896 H 182.412 2.05735 4.82466 0
M  V30 1897 H 183.886 0.485555 5.4986 0
M  V30 1898 H 184.363 -0.742717 4.32875 0
M  V30 1899 H 184.969 0.920147 4.15227 0
M  V30 1900 N 183.284 -1.43765 0.645699 0
M  V30 1901 C 184.509 -2.06767 0.161883 0
M  V30 1902 C 184.934 -1.48034 -1.16049 0
M  V30 1903 O 184.292 -0.587369 -1.71522 0
M  V30 1904 C 184.34 -3.60519 0.0762003 0
M  V30 1905 O 183.444 -4.00982 -0.963721 0
M  V30 1906 H 182.785 -0.657675 0.091429 0
M  V30 1907 H 185.315 -1.84397 0.886499 0
M  V30 1908 H 185.325 -4.07853 -0.109604 0
M  V30 1909 H 184 -4.02646 1.04157 0
M  V30 1910 H 182.577 -3.65253 -0.751312 0
M  V30 1911 N 184.763 -0.387143 -1.52771 0
M  V30 1912 C 186.011 0.195349 -2.01154 0
M  V30 1913 C 186.332 1.475 -1.27549 0
M  V30 1914 O 185.602 1.91878 -0.394924 0
M  V30 1915 H 184.182 0.075178 -0.743207 0
M  V30 1916 H 186.844 -0.518337 -1.87881 0
M  V30 1917 H 185.94 0.407096 -3.09434 0
M  V30 1918 N 186.241 1.57166 -0.116904 0
M  V30 1919 C 187.204 2.14039 0.819742 0
M  V30 1920 C 188.204 1.07477 1.19605 0
M  V30 1921 O 189.394 1.33263 1.1219 0
M  V30 1922 C 186.526 2.67891 2.10826 0
M  V30 1923 H 187.719 2.98128 0.325511 0
M  V30 1924 H 185.272 1.55739 0.132312 0
M  V30 1925 H 186.007 1.87384 2.64685 0
M  V30 1926 H 185.792 3.45823 1.84793 0
M  V30 1927 H 187.282 3.11809 2.77785 0
M  V30 1928 N 187.719 -0.156864 1.56817 0
M  V30 1929 C 188.947 -0.886316 1.86955 0
M  V30 1930 C 189.362 -1.75185 0.703975 0
M  V30 1931 O 188.719 -1.79555 -0.326552 0
M  V30 1932 C 188.77 -1.75117 3.16253 0
M  V30 1933 O 188.491 -0.920537 4.2832 0
M  V30 1934 C 189.992 -2.58905 3.59837 0
M  V30 1935 H 187.212 -0.25678 0.619923 0
M  V30 1936 H 189.756 -0.152615 2.0393 0
M  V30 1937 H 187.911 -2.43805 3.01062 0
M  V30 1938 H 188.325 -1.51337 5.02192 0
M  V30 1939 H 189.799 -3.1518 4.53172 0
M  V30 1940 H 190.276 -3.34472 2.84649 0
M  V30 1941 H 190.882 -1.95526 3.7769 0
M  V30 1942 N 189.197 -1.51736 -0.425897 0
M  V30 1943 C 190.107 -1.76738 -1.54275 0
M  V30 1944 C 191.123 -0.65211 -1.61318 0
M  V30 1945 O 192.299 -0.935654 -1.78346 0
M  V30 1946 C 189.364 -1.89755 -2.90162 0
M  V30 1947 C 188.425 -3.13633 -2.93143 0
M  V30 1948 C 187.658 -3.2602 -4.22548 0
M  V30 1949 O 187.881 -2.44067 -5.15546 0
M  V30 1950 O 186.815 -4.19071 -4.32046 0
M  V30 1951 H 190.641 -2.71502 -1.36089 0
M  V30 1952 H 188.226 -1.36376 -0.610069 0
M  V30 1953 H 190.108 -2.00236 -3.70788 0
M  V30 1954 H 188.783 -0.981785 -3.08452 0
M  V30 1955 H 187.69 -3.08622 -2.11431 0
M  V30 1956 H 189.023 -4.04936 -2.798 0
M  V30 1957 N 190.675 0.682077 -1.42076 0
M  V30 1958 C 191.9 1.47558 -1.45744 0
M  V30 1959 C 192.325 1.87977 -0.0680981 0
M  V30 1960 O 191.683 1.55522 0.9318 0
M  V30 1961 C 191.731 2.70575 -2.38373 0
M  V30 1962 O 190.835 3.68573 -1.85007 0
M  V30 1963 H 190.176 0.443585 -0.494093 0
M  V30 1964 H 192.706 0.837238 -1.86686 0
M  V30 1965 H 192.716 3.18729 -2.54707 0
M  V30 1966 H 191.391 2.40495 -3.39315 0
M  V30 1967 H 189.968 3.2757 -1.78192 0
M  V30 1968 N 192.153 1.28127 0.917671 0
M  V30 1969 C 193.101 1.11569 2.04096 0
M  V30 1970 C 194.095 0.0360242 1.69362 0
M  V30 1971 O 195.301 0.194501 1.78946 0
M  V30 1972 H 191.676 0.344097 0.668656 0
M  V30 1973 H 193.647 2.06711 2.15205 0
M  V30 1974 C 192.396 0.790197 3.38602 0
M  V30 1975 H 191.719 1.61293 3.6582 0
M  V30 1976 H 193.159 0.714271 4.1794 0
M  V30 1977 C 191.618 -0.505897 3.3308 0
M  V30 1978 O 192.148 -1.53736 3.71117 0
M  V30 1979 N 190.354 -0.505193 2.86175 0
M  V30 1980 H 189.901 0.334621 2.55417 0
M  V30 1981 H 189.859 -1.37243 2.82863 0
M  V30 1982 N 193.631 -1.12557 1.10312 0
M  V30 1983 C 194.579 -2.20325 0.745629 0
M  V30 1984 C 195.573 -1.67429 -0.25763 0
M  V30 1985 O 196.779 -1.79612 -0.118132 0
M  V30 1986 H 193.154 -0.718118 0.223182 0
M  V30 1987 H 195.125 -2.47733 1.66346 0
M  V30 1988 C 193.874 -3.47168 0.192262 0
M  V30 1989 H 193.197 -3.88215 0.955475 0
M  V30 1990 H 194.637 -4.23995 -0.0198274 0
M  V30 1991 C 193.096 -3.19298 -1.07472 0
M  V30 1992 O 193.626 -3.3891 -2.15645 0
M  V30 1993 N 191.832 -2.73113 -0.992847 0
M  V30 1994 H 191.379 -2.57354 -0.112474 0
M  V30 1995 H 191.337 -2.54842 -1.84127 0
M  V30 1996 N 195.109 -0.891671 -1.2995 0
M  V30 1997 C 196.358 -0.509521 -1.95158 0
M  V30 1998 C 196.671 0.947388 -1.71125 0
M  V30 1999 O 197.877 1.43669 -2.30372 0
M  V30 2000 C 196.333 -0.860315 -3.49466 0
M  V30 2001 C 195.941 -2.33545 -3.8231 0
M  V30 2002 C 197.685 -0.547687 -4.20952 0
M  V30 2003 C 195.592 -2.62752 -5.29826 0
M  V30 2004 H 194.522 -0.18682 -0.730489 0
M  V30 2005 H 197.173 -1.08756 -1.47798 0
M  V30 2006 H 195.555 -0.211285 -3.95436 0
M  V30 2007 H 196.729 -3.02936 -3.47227 0
M  V30 2008 H 195.044 -2.61629 -3.23944 0
M  V30 2009 H 197.641 -0.742854 -5.29515 0
M  V30 2010 H 197.984 0.51332 -4.13123 0
M  V30 2011 H 198.517 -1.1542 -3.80688 0
M  V30 2012 H 195.256 -3.6762 -5.42712 0
M  V30 2013 H 194.776 -1.97977 -5.66185 0
M  V30 2014 H 196.455 -2.48601 -5.97333 0
M  V30 2015 N 196.587 1.43421 -0.653314 0
M  V30 2016 C 197.55 2.29182 0.0287951 0
M  V30 2017 C 198.55 1.42213 0.750465 0
M  V30 2018 O 199.74 1.63843 0.591701 0
M  V30 2019 C 196.872 3.24278 1.05151 0
M  V30 2020 H 198.065 2.90985 -0.725786 0
M  V30 2021 H 195.618 1.50702 -0.414545 0
M  V30 2022 H 196.353 2.6737 1.83532 0
M  V30 2023 H 196.138 3.88396 0.537687 0
M  V30 2024 H 197.628 3.88647 1.52786 0
M  V30 2025 N 198.065 0.39524 1.52563 0
M  V30 2026 C 199.314 -0.186321 2.00838 0
M  V30 2027 C 199.627 -1.47402 1.28577 0
M  V30 2028 O 200.833 -2.13599 1.67593 0
M  V30 2029 C 199.289 -0.382595 3.57861 0
M  V30 2030 C 198.897 0.892202 4.39026 0
M  V30 2031 C 200.641 -0.9202 4.14406 0
M  V30 2032 C 198.548 0.66388 5.87662 0
M  V30 2033 H 197.478 -0.0734041 0.750418 0
M  V30 2034 H 200.129 0.518552 1.76021 0
M  V30 2035 H 198.511 -1.14946 3.7895 0
M  V30 2036 H 199.685 1.66414 4.29701 0
M  V30 2037 H 198 1.35519 3.9373 0
M  V30 2038 H 200.597 -1.10683 5.23119 0
M  V30 2039 H 200.94 -1.89096 3.70875 0
M  V30 2040 H 201.473 -0.212751 3.97231 0
M  V30 2041 H 198.212 1.6058 6.35527 0
M  V30 2042 H 197.732 -0.0690193 5.9976 0
M  V30 2043 H 199.411 0.300699 6.46301 0
M  V30 2044 N 199.544 -1.57102 0.125237 0
M  V30 2045 C 200.491 -2.15641 -0.822655 0
M  V30 2046 C 201.461 -1.08313 -1.25927 0
M  V30 2047 O 202.646 -1.36251 -1.33567 0
M  V30 2048 C 199.786 -2.76504 -2.06494 0
M  V30 2049 C 198.899 -3.98158 -1.67612 0
M  V30 2050 C 198.034 -4.47088 -2.86854 0
M  V30 2051 C 197.073 -5.6126 -2.44242 0
M  V30 2052 N 196.21 -6.04905 -3.56419 0
M  V30 2053 H 201.05 -2.96313 -0.316625 0
M  V30 2054 H 198.587 -1.46388 -0.144588 0
M  V30 2055 H 200.545 -3.09925 -2.79289 0
M  V30 2056 H 199.175 -1.98512 -2.54545 0
M  V30 2057 H 198.227 -3.70858 -0.846661 0
M  V30 2058 H 199.539 -4.80934 -1.32301 0
M  V30 2059 H 198.693 -4.82451 -3.67867 0
M  V30 2060 H 197.432 -3.63275 -3.25396 0
M  V30 2061 H 196.437 -5.25495 -1.61663 0
M  V30 2062 H 197.662 -6.46843 -2.0681 0
M  V30 2063 H 195.608 -5.24032 -3.94623 0
M  V30 2064 H 195.525 -6.82552 -3.25051 0
M  V30 2065 H 196.793 -6.44907 -4.37853 0
M  V30 2066 N 201.022 0.148545 -1.56898 0
M  V30 2067 C 202.27 0.859717 -1.82902 0
M  V30 2068 C 202.591 1.81775 -0.70588 0
M  V30 2069 O 201.861 1.93994 0.272586 0
M  V30 2070 H 200.441 0.320469 -0.674766 0
M  V30 2071 H 203.103 0.142918 -1.94375 0
M  V30 2072 H 202.199 1.4229 -2.77777 0
M  V30 2073 N 202.5 1.5196 0.417844 0
M  V30 2074 C 203.746 1.65836 1.16732 0
M  V30 2075 C 204.079 0.382881 1.90388 0
M  V30 2076 O 203.354 -0.618368 1.84408 0
M  V30 2077 C 203.637 2.87466 2.16876 0
M  V30 2078 C 203.49 4.25041 1.47174 0
M  V30 2079 C 204.809 3.04613 3.17646 0
M  V30 2080 H 201.928 0.603515 0.423011 0
M  V30 2081 H 204.57 1.84494 0.454105 0
M  V30 2082 H 202.72 2.71689 2.777 0
M  V30 2083 H 204.392 4.52527 0.895376 0
M  V30 2084 H 202.635 4.26843 0.773806 0
M  V30 2085 H 203.306 5.06176 2.20204 0
M  V30 2086 H 205.782 3.1923 2.66892 0
M  V30 2087 H 204.658 3.91247 3.8499 0
M  V30 2088 H 204.919 2.17541 3.84874 0
M  V30 2089 N 203.978 -0.674533 1.42435 0
M  V30 2090 C 204.941 -1.76986 1.45632 0
M  V30 2091 C 205.941 -1.5708 0.343871 0
M  V30 2092 O 207.131 -1.63367 0.604709 0
M  V30 2093 C 204.263 -3.15623 1.28822 0
M  V30 2094 H 205.456 -1.75539 2.43158 0
M  V30 2095 H 203.009 -0.884189 1.28887 0
M  V30 2096 H 203.744 -3.22696 0.322193 0
M  V30 2097 H 203.529 -3.31475 2.09444 0
M  V30 2098 H 205.019 -3.95537 1.33942 0
M  V30 2099 N 205.456 -1.28612 -0.910864 0
M  V30 2100 C 206.872 -1.06381 -1.18976 0
M  V30 2101 C 207.072 0.191998 -2.00583 0
M  V30 2102 O 206.128 0.892869 -2.36187 0
M  V30 2103 C 207.441 -2.31295 -1.92154 0
M  V30 2104 C 208.989 -2.36503 -2.05025 0
M  V30 2105 C 209.464 -3.61191 -2.81612 0
M  V30 2106 N 210.955 -3.61847 -2.89172 0
M  V30 2107 C 211.69 -4.55004 -3.4894 0
M  V30 2108 N 211.186 -5.58482 -4.09963 0
M  V30 2109 N 212.979 -4.42594 -3.46506 0
M  V30 2110 H 205.13 -2.09221 -0.366094 0
M  V30 2111 H 207.393 -0.921003 -0.224629 0
M  V30 2112 H 207.099 -3.228 -1.39618 0
M  V30 2113 H 206.973 -2.37934 -2.9269 0
M  V30 2114 H 209.36 -1.45494 -2.5674 0
M  V30 2115 H 209.441 -2.33857 -1.03657 0
M  V30 2116 H 209.085 -4.52545 -2.30576 0
M  V30 2117 H 209.015 -3.61092 -3.83302 0
M  V30 2118 H 211.506 -2.87022 -2.45819 0
M  V30 2119 H 211.819 -6.25704 -4.53557 0
M  V30 2120 H 210.164 -5.62305 -4.08459 0
M  V30 2121 H 213.355 -3.60953 -2.98045 0
M  V30 2122 H 213.528 -5.15381 -3.92793 0
M  V30 2123 N 206.934 1.1197 -1.10907 0
M  V30 2124 C 208.181 1.83588 -0.854507 0
M  V30 2125 C 208.509 1.84357 0.6199 0
M  V30 2126 O 207.764 1.28809 1.47332 0
M  V30 2127 C 208.063 3.30749 -1.35425 0
M  V30 2128 C 207.729 3.50146 -2.84093 0
M  V30 2129 C 206.391 3.55148 -3.2469 0
M  V30 2130 C 208.743 3.56857 -3.79872 0
M  V30 2131 C 206.071 3.6441 -4.59806 0
M  V30 2132 C 208.423 3.6765 -5.14797 0
M  V30 2133 C 207.087 3.7091 -5.54961 0
M  V30 2134 H 206.357 0.671795 -0.312686 0
M  V30 2135 H 209.004 1.32091 -1.38652 0
M  V30 2136 H 207.309 3.84703 -0.742361 0
M  V30 2137 H 209.006 3.8464 -1.1337 0
M  V30 2138 H 205.596 3.46919 -2.51685 0
M  V30 2139 H 209.78 3.52258 -3.49611 0
M  V30 2140 H 205.036 3.65208 -4.9034 0
M  V30 2141 H 209.21 3.71786 -5.88853 0
M  V30 2142 H 206.837 3.7784 -6.59652 0
M  V30 2143 N 208.412 0.89855 1.29475 0
M  V30 2144 C 209.642 0.538479 1.99459 0
M  V30 2145 C 210.05 -0.880922 1.67441 0
M  V30 2146 O 209.393 -1.59283 0.915127 0
M  V30 2147 C 209.455 0.649564 3.53583 0
M  V30 2148 C 209.119 2.03573 4.09154 0
M  V30 2149 C 210.116 3.00675 4.24135 0
M  V30 2150 C 207.801 2.3448 4.44212 0
M  V30 2151 C 209.795 4.26809 4.73405 0
M  V30 2152 C 207.482 3.60857 4.93179 0
M  V30 2153 C 208.48 4.56836 5.0773 0
M  V30 2154 O 208.168 5.80969 5.55635 0
M  V30 2155 H 207.9 0.205372 0.644048 0
M  V30 2156 H 210.454 1.20958 1.66007 0
M  V30 2157 H 208.684 -0.0785592 3.8662 0
M  V30 2158 H 210.373 0.29881 4.04799 0
M  V30 2159 H 211.139 2.78112 3.97339 0
M  V30 2160 H 207.018 1.60534 4.32145 0
M  V30 2161 H 210.562 5.0173 4.84678 0
M  V30 2162 H 206.459 3.83251 5.19412 0
M  V30 2163 H 207.227 5.83542 5.73952 0
M  V30 2164 N 209.89 -1.43072 0.660911 0
M  V30 2165 C 211.306 -1.56169 0.329173 0
M  V30 2166 C 211.506 -1.64317 -1.16629 0
M  V30 2167 O 210.562 -1.60245 -1.95135 0
M  V30 2168 C 211.875 -2.81873 1.04729 0
M  V30 2169 C 213.423 -2.95627 1.02828 0
M  V30 2170 C 213.898 -4.24174 1.72744 0
M  V30 2171 N 215.389 -4.31055 1.69545 0
M  V30 2172 C 216.124 -5.29304 2.20511 0
M  V30 2173 N 215.62 -6.33786 2.79799 0
M  V30 2174 N 217.413 -5.21008 2.10966 0
M  V30 2175 H 209.564 -1.36027 1.63127 0
M  V30 2176 H 211.827 -0.653823 0.686454 0
M  V30 2177 H 211.533 -2.81942 2.10242 0
M  V30 2178 H 211.407 -3.72338 0.603702 0
M  V30 2179 H 213.794 -2.95094 -0.0184742 0
M  V30 2180 H 213.875 -2.06431 1.51063 0
M  V30 2181 H 213.519 -4.25467 2.7738 0
M  V30 2182 H 213.449 -5.1228 1.2197 0
M  V30 2183 H 215.94 -3.56174 1.26288 0
M  V30 2184 H 216.253 -7.05086 3.16344 0
M  V30 2185 H 214.598 -6.34387 2.83863 0
M  V30 2186 H 217.789 -4.38301 1.64347 0
M  V30 2187 H 217.962 -5.97416 2.50993 0
M  V30 2188 N 211.368 -0.403325 -1.52352 0
M  V30 2189 C 212.593 0.176499 -2.06648 0
M  V30 2190 C 213.018 1.38577 -1.27193 0
M  V30 2191 O 212.376 1.7879 -0.300637 0
M  V30 2192 C 212.424 0.511061 -3.5696 0
M  V30 2193 O 211.528 1.60294 -3.79973 0
M  V30 2194 H 210.869 0.0167337 -0.663789 0
M  V30 2195 H 213.399 -0.574848 -1.96359 0
M  V30 2196 H 213.409 0.771362 -4.00642 0
M  V30 2197 H 212.084 -0.37296 -4.14224 0
M  V30 2198 H 210.661 1.33526 -3.48174 0
M  V30 2199 N 212.846 1.57033 -0.133567 0
M  V30 2200 C 214.262 1.58035 0.222944 0
M  V30 2201 C 214.462 1.14713 1.6566 0
M  V30 2202 O 213.518 0.841218 2.38075 0
M  V30 2203 C 214.831 3.00691 -0.0236116 0
M  V30 2204 C 216.379 3.12973 0.0411512 0
M  V30 2205 C 216.854 4.57654 -0.177899 0
M  V30 2206 N 218.345 4.63033 -0.124365 0
M  V30 2207 C 219.08 5.72771 -0.268553 0
M  V30 2208 N 218.576 6.91206 -0.46972 0
M  V30 2209 N 220.369 5.61718 -0.2071 0
M  V30 2210 H 212.52 1.8349 -1.06981 0
M  V30 2211 H 214.783 0.848677 -0.422436 0
M  V30 2212 H 214.489 3.36726 -1.0153 0
M  V30 2213 H 214.363 3.70614 0.701808 0
M  V30 2214 H 216.75 2.76787 1.02338 0
M  V30 2215 H 216.831 2.45564 -0.716383 0
M  V30 2216 H 216.475 4.94542 -1.15717 0
M  V30 2217 H 216.405 5.23173 0.599797 0
M  V30 2218 H 218.896 3.7789 0.027011 0
M  V30 2219 H 219.209 7.70693 -0.570212 0
M  V30 2220 H 217.554 6.93156 -0.505876 0
M  V30 2221 H 220.745 4.68072 -0.0507986 0
M  V30 2222 H 220.918 6.47195 -0.322909 0
M  V30 2223 N 214.325 -0.140222 1.56975 0
M  V30 2224 C 215.272 -1.17292 1.98774 0
M  V30 2225 C 216.242 -1.4232 0.856408 0
M  V30 2226 O 217.427 -1.54541 1.119 0
M  V30 2227 C 214.567 -2.49973 2.37923 0
M  V30 2228 C 213.68 -2.32062 3.64378 0
M  V30 2229 C 212.815 -3.57825 3.926 0
M  V30 2230 C 211.854 -3.3498 5.12303 0
M  V30 2231 N 210.991 -4.52891 5.36502 0
M  V30 2232 H 215.831 -0.809472 2.86795 0
M  V30 2233 H 213.368 -0.388237 1.41884 0
M  V30 2234 H 215.326 -3.27346 2.58652 0
M  V30 2235 H 213.956 -2.84252 1.52972 0
M  V30 2236 H 213.008 -1.45711 3.51387 0
M  V30 2237 H 214.32 -2.11145 4.51906 0
M  V30 2238 H 213.474 -4.43624 4.13863 0
M  V30 2239 H 212.213 -3.81753 3.03506 0
M  V30 2240 H 211.218 -2.4757 4.90906 0
M  V30 2241 H 212.443 -3.12444 6.02956 0
M  V30 2242 H 210.389 -4.76979 4.50363 0
M  V30 2243 H 210.306 -4.35001 6.18312 0
M  V30 2244 H 211.574 -5.39884 5.62268 0
M  V30 2245 N 215.803 -1.52179 -0.40978 0
M  V30 2246 C 216.75 -1.75475 -1.49924 0
M  V30 2247 C 217.72 -0.597175 -1.54994 0
M  V30 2248 O 218.905 -0.834655 -1.71575 0
M  V30 2249 C 216.045 -1.9107 -2.87378 0
M  V30 2250 C 215.158 -3.18717 -2.91622 0
M  V30 2251 C 214.293 -3.24747 -4.20372 0
M  V30 2252 C 213.332 -4.46598 -4.18588 0
M  V30 2253 N 212.469 -4.50025 -5.38908 0
M  V30 2254 H 217.309 -2.68458 -1.29361 0
M  V30 2255 H 214.846 -1.33024 -0.627934 0
M  V30 2256 H 216.804 -1.98096 -3.6717 0
M  V30 2257 H 215.434 -1.01469 -3.06437 0
M  V30 2258 H 214.486 -3.20866 -2.04326 0
M  V30 2259 H 215.798 -4.08544 -2.86169 0
M  V30 2260 H 214.952 -3.30841 -5.08556 0
M  V30 2261 H 213.691 -2.32857 -4.28519 0
M  V30 2262 H 212.696 -4.40652 -3.28794 0
M  V30 2263 H 213.921 -5.39783 -4.12081 0
M  V30 2264 H 211.867 -3.61017 -5.47725 0
M  V30 2265 H 211.784 -5.33697 -5.35447 0
M  V30 2266 H 213.052 -4.60347 -6.29048 0
M  V30 2267 N 217.281 0.66697 -1.42791 0
M  V30 2268 C 218.231 1.77313 -1.43332 0
M  V30 2269 C 219.215 1.5801 -0.303586 0
M  V30 2270 O 220.407 1.68356 -0.546385 0
M  V30 2271 C 217.536 3.15822 -1.34578 0
M  V30 2272 C 216.622 3.40721 -2.52528 0
M  V30 2273 N 217.013 3.36162 -3.77927 0
M  V30 2274 C 215.311 3.71387 -2.46956 0
M  V30 2275 C 216.012 3.60762 -4.56318 0
M  V30 2276 N 214.988 3.81908 -3.86843 0
M  V30 2277 H 218.79 1.72193 -2.38174 0
M  V30 2278 H 216.304 0.868114 -1.3725 0
M  V30 2279 H 218.301 3.951 -1.33048 0
M  V30 2280 H 216.961 3.22133 -0.407453 0
M  V30 2281 H 217.972 3.15885 -4.10411 0
M  V30 2282 H 214.649 3.84897 -1.61743 0
M  V30 2283 H 216.039 3.63132 -5.65318 0
M  V30 2284 N 218.759 1.29093 0.90403 0
M  V30 2285 C 219.689 1.16401 2.02418 0
M  V30 2286 C 220.67 0.0593085 1.69997 0
M  V30 2287 O 221.855 0.238021 1.92736 0
M  V30 2288 C 218.985 0.835233 3.37107 0
M  V30 2289 C 217.939 1.89578 3.83724 0
M  V30 2290 C 217.265 1.42041 5.15489 0
M  V30 2291 C 218.565 3.30394 4.04521 0
M  V30 2292 H 220.259 2.10109 2.13295 0
M  V30 2293 H 217.805 1.01157 1.02486 0
M  V30 2294 H 219.758 0.733169 4.14973 0
M  V30 2295 H 218.482 -0.137543 3.2631 0
M  V30 2296 H 217.141 1.98715 3.08071 0
M  V30 2297 H 216.789 0.436426 5.01103 0
M  V30 2298 H 216.489 2.12964 5.4765 0
M  V30 2299 H 218.013 1.33176 5.959 0
M  V30 2300 H 219.427 3.24123 4.72882 0
M  V30 2301 H 217.824 3.99237 4.48029 0
M  V30 2302 H 218.894 3.73692 3.09002 0
M  V30 2303 N 220.237 -1.11381 1.11499 0
M  V30 2304 C 221.486 -1.82494 0.858993 0
M  V30 2305 C 221.799 -1.85605 -0.617278 0
M  V30 2306 O 223.005 -2.52824 -0.989552 0
M  V30 2307 C 221.461 -3.27745 1.48699 0
M  V30 2308 C 221.069 -3.32961 2.99735 0
M  V30 2309 C 222.813 -4.03754 1.31085 0
M  V30 2310 C 220.72 -4.72612 3.55516 0
M  V30 2311 H 219.65 -0.683802 0.317696 0
M  V30 2312 H 222.301 -1.25331 1.34031 0
M  V30 2313 H 220.683 -3.84844 0.933339 0
M  V30 2314 H 221.857 -2.85741 3.61509 0
M  V30 2315 H 220.172 -2.70433 3.16631 0
M  V30 2316 H 222.769 -5.06891 1.70192 0
M  V30 2317 H 223.112 -4.15527 0.253496 0
M  V30 2318 H 223.645 -3.53043 1.83318 0
M  V30 2319 H 220.384 -4.66036 4.60967 0
M  V30 2320 H 219.904 -5.2024 2.98513 0
M  V30 2321 H 221.583 -5.4157 3.53992 0
M  V30 2322 N 221.715 -0.905404 -1.28997 0
M  V30 2323 C 222.943 -0.549846 -1.9946 0
M  V30 2324 C 223.358 0.866834 -1.67724 0
M  V30 2325 O 222.715 1.57298 -0.925404 0
M  V30 2326 C 222.766 -0.739387 -3.53858 0
M  V30 2327 O 222.487 -2.10031 -3.84472 0
M  V30 2328 C 223.988 -0.389541 -4.41585 0
M  V30 2329 H 221.208 -0.210429 -0.637151 0
M  V30 2330 H 223.752 -1.21632 -1.64396 0
M  V30 2331 H 221.907 -0.120023 -3.87214 0
M  V30 2332 H 222.321 -2.13385 -4.79132 0
M  V30 2333 H 223.795 -0.572972 -5.49018 0
M  V30 2334 H 224.272 0.673756 -4.34001 0
M  V30 2335 H 224.878 -0.986089 -4.1371 0
M  V30 2336 N 223.193 1.4272 -0.668489 0
M  V30 2337 C 224.421 2.05966 -0.196348 0
M  V30 2338 C 224.836 1.50191 1.14403 0
M  V30 2339 O 224.193 0.639208 1.7094 0
M  V30 2340 C 224.244 3.61314 -0.115815 0
M  V30 2341 O 223.965 4.1502 -1.40322 0
M  V30 2342 C 225.466 4.41663 0.380579 0
M  V30 2343 H 222.686 0.663954 -0.0969829 0
M  V30 2344 H 225.23 1.82966 -0.913446 0
M  V30 2345 H 223.385 3.83448 0.551931 0
M  V30 2346 H 223.799 5.08832 -1.27243 0
M  V30 2347 H 225.273 5.5065 0.385848 0
M  V30 2348 H 225.75 4.15792 1.41471 0
M  V30 2349 H 226.356 4.24534 -0.255209 0
M  V30 2350 N 224.671 0.411399 1.52136 0
M  V30 2351 C 225.603 -0.448386 2.24771 0
M  V30 2352 C 226.616 -1.00828 1.27818 0
M  V30 2353 O 227.805 -0.906841 1.53749 0
M  V30 2354 C 224.905 -1.63636 2.96777 0
M  V30 2355 C 224.078 -1.19995 4.20618 0
M  V30 2356 C 223.137 -2.25509 4.75428 0
M  V30 2357 O 222.163 -1.86007 5.3795 0
M  V30 2358 N 223.365 -3.577 4.57199 0
M  V30 2359 H 226.13 0.174025 2.99194 0
M  V30 2360 H 223.691 0.238897 1.60128 0
M  V30 2361 H 225.683 -2.33793 3.30338 0
M  V30 2362 H 224.253 -2.16465 2.25526 0
M  V30 2363 H 223.473 -0.326421 3.92846 0
M  V30 2364 H 224.761 -0.885365 5.01038 0
M  V30 2365 H 224.159 -3.92543 4.07341 0
M  V30 2366 H 222.716 -4.23827 4.95191 0
M  V30 2367 N 226.149 -1.5696 0.141893 0
M  V30 2368 C 227.377 -2.00322 -0.517579 0
M  V30 2369 C 227.792 -1.02193 -1.58752 0
M  V30 2370 O 227.149 -0.0181619 -1.82491 0
M  V30 2371 C 227.2 -3.43618 -1.12289 0
M  V30 2372 O 226.921 -4.37995 -0.0956929 0
M  V30 2373 C 228.422 -4.02231 -1.86347 0
M  V30 2374 H 225.642 -0.657243 -0.135177 0
M  V30 2375 H 228.186 -2.03146 0.234973 0
M  V30 2376 H 226.341 -3.41662 -1.82609 0
M  V30 2377 H 226.755 -5.21729 -0.538469 0
M  V30 2378 H 228.229 -5.04509 -2.23997 0
M  V30 2379 H 228.706 -3.42655 -2.74744 0
M  V30 2380 H 229.312 -4.07802 -1.20737 0
M  V30 2381 N 227.627 0.131896 -1.57047 0
M  V30 2382 C 228.537 1.1815 -2.02676 0
M  V30 2383 C 229.553 1.46113 -0.944824 0
M  V30 2384 O 230.729 1.57485 -1.25541 0
M  V30 2385 C 227.794 2.49139 -2.41103 0
M  V30 2386 C 226.855 2.28688 -3.63318 0
M  V30 2387 C 226.088 3.53431 -3.99903 0
M  V30 2388 O 226.311 4.60223 -3.36973 0
M  V30 2389 O 225.245 3.45198 -4.93074 0
M  V30 2390 H 229.071 0.824069 -2.92306 0
M  V30 2391 H 226.656 0.341745 -1.45439 0
M  V30 2392 H 228.538 3.26338 -2.66611 0
M  V30 2393 H 227.213 2.84382 -1.54624 0
M  V30 2394 H 226.12 1.4939 -3.42977 0
M  V30 2395 H 227.453 1.98355 -4.50462 0
M  V30 2396 N 229.106 1.52395 0.401703 0
M  V30 2397 C 230.056 1.72649 1.48917 0
M  V30 2398 C 231.04 0.580436 1.50066 0
M  V30 2399 O 232.232 0.83779 1.55917 0
M  V30 2400 C 229.361 1.88729 2.86769 0
M  V30 2401 C 228.447 3.09228 2.90239 0
M  V30 2402 N 228.838 4.31805 2.63396 0
M  V30 2403 C 227.136 3.09214 3.21408 0
M  V30 2404 C 227.837 5.13326 2.73625 0
M  V30 2405 N 226.813 4.48735 3.06819 0
M  V30 2406 H 230.615 2.65058 1.26971 0
M  V30 2407 H 228.129 1.50528 0.609504 0
M  V30 2408 H 230.126 2.01358 3.65049 0
M  V30 2409 H 228.786 0.975252 3.09708 0
M  V30 2410 H 229.797 4.60154 2.37653 0
M  V30 2411 H 226.474 2.27774 3.49893 0
M  V30 2412 H 227.864 6.21003 2.56524 0
M  V30 2413 N 230.584 -0.659388 1.43143 0
M  V30 2414 C 231.531 -1.77249 1.47822 0
M  V30 2415 C 232.501 -1.62818 0.328558 0
M  V30 2416 O 233.686 -1.83151 0.534838 0
M  V30 2417 C 230.826 -3.15371 1.40126 0
M  V30 2418 C 229.939 -3.4098 2.65249 0
M  V30 2419 C 229.074 -4.68915 2.49584 0
M  V30 2420 C 228.113 -4.87608 3.70006 0
M  V30 2421 N 227.25 -6.06796 3.53189 0
M  V30 2422 H 232.09 -1.72584 2.42938 0
M  V30 2423 H 229.627 -0.842297 1.20598 0
M  V30 2424 H 231.585 -3.9521 1.33659 0
M  V30 2425 H 230.215 -3.19121 0.485964 0
M  V30 2426 H 229.267 -2.55282 2.8202 0
M  V30 2427 H 230.579 -3.50681 3.54717 0
M  V30 2428 H 229.733 -5.56871 2.4079 0
M  V30 2429 H 228.472 -4.61524 1.5763 0
M  V30 2430 H 227.477 -3.9809 3.79215 0
M  V30 2431 H 228.702 -4.96834 4.62961 0
M  V30 2432 H 226.648 -6.00549 2.63965 0
M  V30 2433 H 226.565 -6.17428 4.36255 0
M  V30 2434 H 227.833 -6.9739 3.48236 0
M  V30 2435 N 232.062 -1.29571 -0.897171 0
M  V30 2436 C 233.302 -1.18959 -1.66217 0
M  V30 2437 C 233.666 0.254271 -1.90309 0
M  V30 2438 O 234.867 0.483407 -2.64417 0
M  V30 2439 C 233.138 -1.98302 -2.9734 0
M  V30 2440 S 234.697 -2.04253 -3.88364 0
M  V30 2441 H 231.515 -0.424137 -0.570639 0
M  V30 2442 H 234.117 -1.6389 -1.06585 0
M  V30 2443 H 232.821 -3.02342 -2.77521 0
M  V30 2444 H 232.352 -1.53986 -3.62011 0
M  V30 2445 H 234.367 -1.16105 -4.82425 0
M  V30 2446 N 233.54 1.10788 -1.12088 0
M  V30 2447 C 234.786 1.82942 -0.875226 0
M  V30 2448 C 235.119 1.84779 0.597538 0
M  V30 2449 O 234.394 1.30578 1.44152 0
M  V30 2450 C 234.677 3.29789 -1.44606 0
M  V30 2451 C 234.53 3.36307 -2.98693 0
M  V30 2452 C 235.849 4.26064 -1.10261 0
M  V30 2453 H 232.968 0.664195 -0.319397 0
M  V30 2454 H 235.61 1.29867 -1.38689 0
M  V30 2455 H 233.76 3.75118 -1.01089 0
M  V30 2456 H 235.432 2.99487 -3.50864 0
M  V30 2457 H 233.675 2.76318 -3.34411 0
M  V30 2458 H 234.346 4.39694 -3.33726 0
M  V30 2459 H 236.822 3.88951 -1.4784 0
M  V30 2460 H 235.698 5.27183 -1.52869 0
M  V30 2461 H 235.959 4.42098 -0.0142953 0
M  V30 2462 N 235.018 0.912232 1.28515 0
M  V30 2463 C 235.948 0.416403 2.29757 0
M  V30 2464 C 236.929 -0.515194 1.6211 0
M  V30 2465 O 238.114 -0.423253 1.89532 0
M  V30 2466 C 235.244 -0.34572 3.45575 0
M  V30 2467 C 234.198 0.496599 4.25109 0
M  V30 2468 C 233.524 -0.393771 5.33248 0
M  V30 2469 C 234.824 1.75307 4.92001 0
M  V30 2470 H 236.518 1.26249 2.7148 0
M  V30 2471 H 234.064 0.608515 1.30511 0
M  V30 2472 H 236.017 -0.703422 4.15488 0
M  V30 2473 H 234.741 -1.2257 3.02728 0
M  V30 2474 H 233.4 0.8368 3.56922 0
M  V30 2475 H 233.048 -1.27225 4.86644 0
M  V30 2476 H 232.748 0.166209 5.87365 0
M  V30 2477 H 234.272 -0.747389 6.06009 0
M  V30 2478 H 235.686 1.46437 5.54283 0
M  V30 2479 H 234.083 2.25534 5.56106 0
M  V30 2480 H 235.153 2.48176 4.16577 0
M  V30 2481 N 236.496 -1.42363 0.676048 0
M  V30 2482 C 237.773 -1.95183 0.127726 0
M  V30 2483 C 238.153 -1.61641 -1.35777 0
M  V30 2484 O 237.501 -0.913216 -2.09458 0
M  V30 2485 C 237.711 -3.46721 0.398199 0
M  V30 2486 C 239.059 -4.23427 0.315383 0
M  V30 2487 O 240.083 -3.54649 0.332016 0
M  V30 2488 O 238.942 -5.45888 0.25865 0
M  V30 2489 H 236.036 -0.826992 0.00359427 0
M  V30 2490 H 238.582 -1.52184 0.750864 0
M  V30 2491 H 237.354 -3.64344 1.4272 0
M  V30 2492 H 236.977 -3.96769 -0.256885 0
M  V30 2493 N 237.974 -0.419461 -1.51915 0
M  V30 2494 C 239.199 0.154572 -2.06823 0
M  V30 2495 C 239.624 1.3722 -1.28656 0
M  V30 2496 O 238.982 1.78461 -0.319583 0
M  V30 2497 C 239.03 0.473172 -3.57482 0
M  V30 2498 O 238.134 1.56255 -3.81652 0
M  V30 2499 H 237.475 0.0096924 -0.663929 0
M  V30 2500 H 240.005 -0.595642 -1.95738 0
M  V30 2501 H 240.015 0.728825 -4.01438 0
M  V30 2502 H 238.69 -0.416873 -4.13805 0
M  V30 2503 H 237.267 1.29825 -3.49571 0
M  V30 2504 N 239.452 1.56882 -0.150215 0
M  V30 2505 C 240.692 1.98119 0.502804 0
M  V30 2506 C 241.056 1.03327 1.61826 0
M  V30 2507 O 242.257 1.33621 2.33236 0
M  V30 2508 C 240.528 3.43329 0.992988 0
M  V30 2509 S 242.087 4.0659 1.65015 0
M  V30 2510 H 238.905 0.692189 0.162467 0
M  V30 2511 H 241.507 1.93988 -0.242689 0
M  V30 2512 H 240.211 4.10046 0.170436 0
M  V30 2513 H 239.742 3.5118 1.77303 0
M  V30 2514 H 241.757 3.99906 2.93752 0
M  V30 2515 N 240.93 -0.123565 1.57115 0
M  V30 2516 C 242.346 -0.476961 1.52306 0
M  V30 2517 C 242.546 -1.82109 0.86248 0
M  V30 2518 O 241.602 -2.48586 0.442884 0
M  V30 2519 C 242.915 -0.465661 2.97073 0
M  V30 2520 C 244.463 -0.549534 3.08138 0
M  V30 2521 C 244.938 -0.568669 4.54456 0
M  V30 2522 N 246.429 -0.630237 4.58892 0
M  V30 2523 C 247.164 -0.666415 5.69514 0
M  V30 2524 N 246.66 -0.660514 6.89644 0
M  V30 2525 N 248.453 -0.709077 5.5761 0
M  V30 2526 H 240.604 0.757198 1.98445 0
M  V30 2527 H 242.867 0.278808 0.906074 0
M  V30 2528 H 242.573 0.454232 3.48754 0
M  V30 2529 H 242.447 -1.29513 3.54269 0
M  V30 2530 H 244.834 -1.45985 2.56461 0
M  V30 2531 H 244.915 0.307532 2.53945 0
M  V30 2532 H 244.559 0.337581 5.06777 0
M  V30 2533 H 244.489 -1.44256 5.06456 0
M  V30 2534 H 246.98 -0.641146 3.72421 0
M  V30 2535 H 247.293 -0.690616 7.69708 0
M  V30 2536 H 245.638 -0.628012 6.92157 0
M  V30 2537 H 248.829 -0.711019 4.62668 0
M  V30 2538 H 249.002 -0.733804 6.43832 0
M  V30 2539 N 242.408 -1.52605 -0.393616 0
M  V30 2540 C 243.633 -1.71592 -1.16495 0
M  V30 2541 C 244.058 -0.43133 -1.83088 0
M  V30 2542 O 243.416 0.612523 -1.7064 0
M  V30 2543 C 243.464 -2.86318 -2.19213 0
M  V30 2544 O 242.568 -2.52969 -3.257 0
M  V30 2545 H 241.909 -0.570734 -0.33935 0
M  V30 2546 H 244.439 -1.99377 -0.459324 0
M  V30 2547 H 244.449 -3.1168 -2.63286 0
M  V30 2548 H 243.124 -3.79511 -1.7013 0
M  V30 2549 H 241.701 -2.38332 -2.86797 0
M  V30 2550 N 243.887 0.651787 -1.4349 0
M  V30 2551 C 244.817 1.77621 -1.51569 0
M  V30 2552 C 245.798 1.66022 -0.370253 0
M  V30 2553 O 246.983 1.85095 -0.587658 0
M  V30 2554 C 244.113 3.16056 -1.43966 0
M  V30 2555 C 243.067 3.4242 -2.56774 0
M  V30 2556 C 242.393 4.8067 -2.34223 0
M  V30 2557 C 243.693 3.37023 -3.99015 0
M  V30 2558 H 245.387 1.71117 -2.45681 0
M  V30 2559 H 242.933 0.821825 -1.18246 0
M  V30 2560 H 244.886 3.94472 -1.48221 0
M  V30 2561 H 243.61 3.23293 -0.463586 0
M  V30 2562 H 242.269 2.66375 -2.51873 0
M  V30 2563 H 241.917 4.84585 -1.34856 0
M  V30 2564 H 241.617 4.9927 -3.09844 0
M  V30 2565 H 243.141 5.61342 -2.40265 0
M  V30 2566 H 244.555 4.05374 -4.05395 0
M  V30 2567 H 242.952 3.67159 -4.74673 0
M  V30 2568 H 244.022 2.3518 -4.2405 0
M  V30 2569 N 245.365 1.30045 0.890287 0
M  V30 2570 C 246.275 1.17885 2.02831 0
M  V30 2571 C 247.291 0.0999609 1.73713 0
M  V30 2572 O 248.467 0.313867 1.98939 0
M  V30 2573 C 245.532 0.866079 3.35708 0
M  V30 2574 C 244.593 2.02979 3.78283 0
M  V30 2575 C 243.826 1.73184 5.0482 0
M  V30 2576 O 244.049 0.657237 5.66601 0
M  V30 2577 O 242.983 2.58267 5.43674 0
M  V30 2578 H 246.809 2.13474 2.16015 0
M  V30 2579 H 244.394 1.09587 1.01543 0
M  V30 2580 H 246.276 0.706623 4.15433 0
M  V30 2581 H 244.951 -0.0599443 3.23644 0
M  V30 2582 H 243.858 2.24454 2.99285 0
M  V30 2583 H 245.191 2.93734 3.94944 0
M  V30 2584 N 246.843 -1.10192 1.12674 0
M  V30 2585 C 247.806 -2.14786 0.799979 0
M  V30 2586 C 248.806 -1.59711 -0.18685 0
M  V30 2587 O 249.996 -1.74156 0.0392558 0
M  V30 2588 C 247.128 -3.40374 0.189228 0
M  V30 2589 H 248.321 -2.45203 1.72671 0
M  V30 2590 H 245.874 -1.25597 0.930326 0
M  V30 2591 H 246.609 -3.15577 -0.747107 0
M  V30 2592 H 246.394 -3.81637 0.899766 0
M  V30 2593 H 247.884 -4.17594 -0.0228143 0
M  V30 2594 N 248.321 -0.919034 -1.28029 0
M  V30 2595 C 249.231 -0.416756 -2.30869 0
M  V30 2596 C 250.247 0.498235 -1.66714 0
M  V30 2597 O 251.423 0.383144 -1.97722 0
M  V30 2598 C 248.488 0.330274 -3.45123 0
M  V30 2599 C 247.549 -0.618578 -4.2482 0
M  V30 2600 C 246.782 0.0928959 -5.33619 0
M  V30 2601 O 247.005 1.31375 -5.55065 0
M  V30 2602 O 245.939 -0.574499 -5.99152 0
M  V30 2603 H 249.765 -1.27043 -2.75851 0
M  V30 2604 H 247.35 -0.684052 -1.3282 0
M  V30 2605 H 249.232 0.751972 -4.14636 0
M  V30 2606 H 247.907 1.1597 -3.02213 0
M  V30 2607 H 246.814 -1.08978 -3.57875 0
M  V30 2608 H 248.147 -1.41497 -4.71423 0
M  V30 2609 N 249.799 1.42003 -0.683588 0
M  V30 2610 C 251.047 2.01015 -0.209101 0
M  V30 2611 C 251.368 1.54365 1.19149 0
M  V30 2612 O 250.638 0.769083 1.80172 0
M  V30 2613 H 249.218 0.743294 -0.074315 0
M  V30 2614 H 251.88 1.73798 -0.882066 0
M  V30 2615 H 250.976 3.11343 -0.2172 0
M  V30 2616 N 251.277 0.427512 1.51691 0
M  V30 2617 C 252.524 -0.142229 2.02 0
M  V30 2618 C 252.852 -1.43566 1.31221 0
M  V30 2619 O 252.107 -1.91298 0.412744 0
M  V30 2620 C 252.406 -0.418249 3.54944 0
M  V30 2621 C 252.072 0.788187 4.43958 0
M  V30 2622 C 250.734 1.11906 4.68007 0
M  V30 2623 C 253.086 1.59347 4.96244 0
M  V30 2624 C 250.414 2.25608 5.41588 0
M  V30 2625 C 252.766 2.7214 5.71072 0
M  V30 2626 C 251.43 3.05692 5.93387 0
M  V30 2627 H 250.7 -0.0520451 0.73917 0
M  V30 2628 H 253.347 0.572697 1.82736 0
M  V30 2629 H 251.652 -1.21496 3.72486 0
M  V30 2630 H 253.349 -0.872339 3.91397 0
M  V30 2631 H 249.939 0.520344 4.2543 0
M  V30 2632 H 254.123 1.35106 4.77556 0
M  V30 2633 H 249.379 2.51929 5.57083 0
M  V30 2634 H 253.553 3.34914 6.10578 0
M  V30 2635 H 251.18 3.9391 6.50184 0
M  V30 2636 N 252.755 -1.56801 0.158532 0
M  V30 2637 C 253.687 -2.14488 -0.807923 0
M  V30 2638 C 254.7 -1.09721 -1.20271 0
M  V30 2639 O 255.889 -1.36956 -1.14478 0
M  V30 2640 C 252.989 -2.66217 -2.09718 0
M  V30 2641 C 252.162 -3.95507 -1.86796 0
M  V30 2642 C 251.221 -4.3243 -2.99818 0
M  V30 2643 O 250.247 -5.00543 -2.71008 0
M  V30 2644 N 251.449 -3.92947 -4.27285 0
M  V30 2645 H 254.214 -2.98042 -0.314816 0
M  V30 2646 H 251.775 -1.61881 -0.0246692 0
M  V30 2647 H 253.767 -2.87924 -2.84398 0
M  V30 2648 H 252.337 -1.87324 -2.50257 0
M  V30 2649 H 251.557 -3.82309 -0.96089 0
M  V30 2650 H 252.845 -4.79972 -1.68833 0
M  V30 2651 H 252.243 -3.38087 -4.53557 0
M  V30 2652 H 250.8 -4.19681 -4.9871 0
M  V30 2653 N 254.233 0.115231 -1.57178 0
M  V30 2654 C 255.479 0.82357 -1.85325 0
M  V30 2655 C 255.812 1.79349 -0.744814 0
M  V30 2656 O 255.087 1.92899 0.249024 0
M  V30 2657 C 255.37 1.57014 -3.24066 0
M  V30 2658 C 255.223 0.619565 -4.45513 0
M  V30 2659 C 256.542 2.52545 -3.60429 0
M  V30 2660 H 253.661 0.297948 -0.674089 0
M  V30 2661 H 256.303 0.0877138 -1.89797 0
M  V30 2662 H 254.453 2.19742 -3.20383 0
M  V30 2663 H 256.125 0.000837639 -4.613 0
M  V30 2664 H 254.368 -0.0686174 -4.33746 0
M  V30 2665 H 255.039 1.17866 -5.3927 0
M  V30 2666 H 257.515 1.9992 -3.64926 0
M  V30 2667 H 256.391 3.01811 -4.58477 0
M  V30 2668 H 256.652 3.35383 -2.88047 0
M  V30 2669 N 255.711 1.52812 0.385517 0
M  V30 2670 C 256.939 1.71907 1.15133 0
M  V30 2671 C 257.354 0.439004 1.83625 0
M  V30 2672 O 256.711 -0.586765 1.7281 0
M  V30 2673 C 256.762 2.87099 2.19673 0
M  V30 2674 O 256.483 4.10151 1.53973 0
M  V30 2675 C 257.984 3.17902 3.08955 0
M  V30 2676 H 255.204 0.575479 0.345057 0
M  V30 2677 H 257.748 1.99476 0.45052 0
M  V30 2678 H 255.903 2.61982 2.85384 0
M  V30 2679 H 256.317 4.74514 2.23465 0
M  V30 2680 H 257.791 4.01959 3.7833 0
M  V30 2681 H 258.268 2.3243 3.72657 0
M  V30 2682 H 258.874 3.44871 2.48885 0
M  V30 2683 N 257.189 -0.644168 1.43834 0
M  V30 2684 C 258.419 -1.42939 1.49171 0
M  V30 2685 C 258.827 -1.88874 0.111048 0
M  V30 2686 O 258.17 -1.60656 -0.8908 0
M  V30 2687 C 258.232 -2.69151 2.38324 0
M  V30 2688 C 257.896 -2.45097 3.85715 0
M  V30 2689 C 258.893 -2.07747 4.76589 0
M  V30 2690 C 256.578 -2.59141 4.30292 0
M  V30 2691 C 258.572 -1.8475 6.10038 0
M  V30 2692 C 256.259 -2.35759 5.63792 0
M  V30 2693 C 257.257 -1.9862 6.53482 0
M  V30 2694 O 256.945 -1.75489 7.84512 0
M  V30 2695 H 256.677 -0.445271 0.508635 0
M  V30 2696 H 259.231 -0.79621 1.8934 0
M  V30 2697 H 257.461 -3.3506 1.93058 0
M  V30 2698 H 259.15 -3.31123 2.3476 0
M  V30 2699 H 259.916 -1.96465 4.43426 0
M  V30 2700 H 255.795 -2.87022 3.60749 0
M  V30 2701 H 259.339 -1.55686 6.80006 0
M  V30 2702 H 255.236 -2.46646 5.9652 0
M  V30 2703 H 256.004 -1.89841 7.9618 0
M  V30 2704 N 258.668 -1.30515 -0.883378 0
M  V30 2705 C 259.598 -1.19607 -2.00541 0
M  V30 2706 C 260.579 -0.086346 -1.69881 0
M  V30 2707 O 261.764 -0.268654 -1.92333 0
M  V30 2708 C 258.894 -0.888758 -3.35736 0
M  V30 2709 C 257.848 -1.95659 -3.8066 0
M  V30 2710 C 257.174 -1.50224 -5.13164 0
M  V30 2711 C 258.474 -3.36788 -3.99213 0
M  V30 2712 H 260.168 -2.13476 -2.09925 0
M  V30 2713 H 257.714 -1.02775 -1.00863 0
M  V30 2714 H 259.667 -0.799094 -4.13754 0
M  V30 2715 H 258.391 0.0856125 -3.26488 0
M  V30 2716 H 257.05 -2.03591 -3.04871 0
M  V30 2717 H 256.698 -0.516092 -5.00345 0
M  V30 2718 H 256.398 -2.2165 -5.44192 0
M  V30 2719 H 257.922 -1.42639 -5.93706 0
M  V30 2720 H 259.336 -3.31605 -4.67665 0
M  V30 2721 H 257.733 -4.06314 -4.41621 0
M  V30 2722 H 258.803 -3.78561 -3.03017 0
M  V30 2723 N 260.146 1.09593 -1.13257 0
M  V30 2724 C 261.557 1.63229 -0.906274 0
M  V30 2725 C 261.908 1.8811 0.557578 0
M  V30 2726 O 261.033 1.62953 1.42391 0
M  V30 2727 C 261.628 2.96535 -1.63867 0
M  V30 2728 C 260.187 3.47003 -1.45828 0
M  V30 2729 C 259.334 2.2145 -1.66898 0
M  V30 2730 H 262.285 0.92978 -1.28611 0
M  V30 2731 H 262.306 3.64411 -1.09476 0
M  V30 2732 H 261.818 2.78394 -2.70404 0
M  V30 2733 H 259.919 3.70272 -0.415848 0
M  V30 2734 H 260.032 4.24551 -2.2202 0
M  V30 2735 H 258.396 2.30022 -1.09371 0
M  V30 2736 H 259.179 2.0583 -2.74752 0
M  V30 2737 N 261.624 0.925811 1.2754 0
M  V30 2738 C 262.87 0.566092 1.94739 0
M  V30 2739 C 263.203 -0.890057 1.72603 0
M  V30 2740 O 262.478 -1.63467 1.05399 0
M  V30 2741 C 262.761 0.89054 3.48915 0
M  V30 2742 C 262.614 2.4003 3.80402 0
M  V30 2743 C 263.933 0.395101 4.38323 0
M  V30 2744 H 261.052 0.20714 0.707292 0
M  V30 2745 H 263.694 1.15725 1.50691 0
M  V30 2746 H 261.844 0.387452 3.86563 0
M  V30 2747 H 263.516 2.97494 3.52555 0
M  V30 2748 H 261.759 2.85028 3.2702 0
M  V30 2749 H 262.43 2.57785 4.8811 0
M  V30 2750 H 264.906 0.826241 4.07814 0
M  V30 2751 H 263.782 0.651086 5.45025 0
M  V30 2752 H 264.043 -0.704798 4.36446 0
M  V30 2753 N 263.102 -1.41638 0.69111 0
M  V30 2754 C 264.034 -2.29194 -0.0161523 0
M  V30 2755 C 265.047 -1.44549 -0.748955 0
M  V30 2756 O 266.236 -1.681 -0.6004 0
M  V30 2757 C 263.336 -3.22325 -1.0469 0
M  V30 2758 C 262.509 -4.35706 -0.384621 0
M  V30 2759 C 261.568 -5.09443 -1.31737 0
M  V30 2760 O 260.594 -5.63386 -0.811451 0
M  V30 2761 N 261.796 -5.16487 -2.64993 0
M  V30 2762 H 264.561 -2.90534 0.735523 0
M  V30 2763 H 262.122 -1.52742 0.53679 0
M  V30 2764 H 264.114 -3.68522 -1.67252 0
M  V30 2765 H 262.684 -2.62323 -1.70015 0
M  V30 2766 H 261.904 -3.91948 0.420804 0
M  V30 2767 H 263.192 -5.08743 0.0760765 0
M  V30 2768 H 262.59 -4.741 -3.08619 0
M  V30 2769 H 261.147 -5.66276 -3.22761 0
M  V30 2770 N 264.58 -0.43555 -1.51462 0
M  V30 2771 C 265.527 0.376797 -2.27703 0
M  V30 2772 C 266.497 1.01838 -1.31219 0
M  V30 2773 O 267.682 1.03762 -1.60119 0
M  V30 2774 C 264.822 1.47301 -3.12084 0
M  V30 2775 C 263.935 0.849744 -4.2356 0
M  V30 2776 C 263.07 1.92086 -4.95254 0
M  V30 2777 C 262.109 1.27593 -5.98654 0
M  V30 2778 N 261.246 2.28833 -6.63762 0
M  V30 2779 H 266.086 -0.279734 -2.96684 0
M  V30 2780 H 263.623 -0.149795 -1.46335 0
M  V30 2781 H 265.581 2.11984 -3.59331 0
M  V30 2782 H 264.211 2.0992 -2.45221 0
M  V30 2783 H 263.263 0.0912529 -3.80291 0
M  V30 2784 H 264.575 0.338878 -4.97648 0
M  V30 2785 H 263.729 2.64435 -5.46039 0
M  V30 2786 H 262.468 2.46545 -4.20793 0
M  V30 2787 H 261.473 0.537893 -5.47162 0
M  V30 2788 H 262.698 0.738693 -6.7507 0
M  V30 2789 H 260.644 2.82375 -5.92115 0
M  V30 2790 H 260.561 1.82632 -7.33608 0
M  V30 2791 H 261.829 3.00671 -7.19178 0
M  V30 2792 N 266.058 1.56714 -0.166846 0
M  V30 2793 C 267.283 2.01557 0.488833 0
M  V30 2794 C 267.708 1.0463 1.56314 0
M  V30 2795 O 267.066 0.0251304 1.81283 0
M  V30 2796 C 267.114 3.4503 1.04818 0
M  V30 2797 O 266.218 3.51163 2.16236 0
M  V30 2798 H 265.559 0.653516 0.117526 0
M  V30 2799 H 268.089 2.02818 -0.269421 0
M  V30 2800 H 268.099 3.84243 1.37191 0
M  V30 2801 H 266.774 4.15077 0.261572 0
M  V30 2802 H 265.351 3.23807 1.84942 0
M  V30 2803 N 267.536 -0.106894 1.57237 0
M  V30 2804 C 268.784 -0.810921 1.85117 0
M  V30 2805 C 269.105 -1.7984 0.753827 0
M  V30 2806 O 268.375 -1.94649 -0.221056 0
M  V30 2807 H 266.955 -0.302466 0.683025 0
M  V30 2808 H 269.617 -0.0913324 1.94686 0
M  V30 2809 H 268.713 -1.34875 2.81452 0
M  V30 2810 N 269.014 -1.53014 -0.377408 0
M  V30 2811 C 270.263 -1.67845 -1.11853 0
M  V30 2812 C 270.576 -0.430625 -1.90801 0
M  V30 2813 O 271.782 -0.459261 -2.67587 0
M  V30 2814 C 270.238 -2.96668 -2.03756 0
M  V30 2815 C 269.846 -4.28671 -1.30175 0
M  V30 2816 C 271.59 -3.20865 -2.77932 0
M  V30 2817 C 269.497 -5.48591 -2.20911 0
M  V30 2818 H 268.427 -0.625343 -0.421263 0
M  V30 2819 H 271.078 -1.79514 -0.380409 0
M  V30 2820 H 269.46 -2.78773 -2.8125 0
M  V30 2821 H 270.634 -4.57157 -0.578259 0
M  V30 2822 H 268.949 -4.10825 -0.679108 0
M  V30 2823 H 271.546 -4.07642 -3.46024 0
M  V30 2824 H 271.889 -2.36424 -3.4265 0
M  V30 2825 H 272.422 -3.39379 -2.07525 0
M  V30 2826 H 269.161 -6.35474 -1.6079 0
M  V30 2827 H 268.681 -5.244 -2.91144 0
M  V30 2828 H 270.36 -5.8292 -2.80736 0
M  V30 2829 N 270.492 0.636531 -1.44174 0
M  V30 2830 C 271.741 1.39213 -1.45954 0
M  V30 2831 C 272.054 1.95374 -0.0939119 0
M  V30 2832 O 273.26 2.71498 0.0107767 0
M  V30 2833 C 271.716 2.52025 -2.56927 0
M  V30 2834 C 271.324 2.024 -3.99673 0
M  V30 2835 C 273.068 3.29269 -2.67922 0
M  V30 2836 C 270.975 3.12521 -5.0208 0
M  V30 2837 H 269.905 0.523132 -0.542999 0
M  V30 2838 H 272.556 0.685349 -1.70221 0
M  V30 2839 H 270.938 3.25253 -2.25891 0
M  V30 2840 H 272.112 1.36073 -4.40251 0
M  V30 2841 H 270.427 1.37987 -3.92872 0
M  V30 2842 H 273.024 4.11352 -3.41605 0
M  V30 2843 H 273.367 3.78397 -1.73555 0
M  V30 2844 H 273.9 2.63129 -2.98342 0
M  V30 2845 H 270.639 2.68343 -5.98057 0
M  V30 2846 H 270.159 3.77507 -4.66099 0
M  V30 2847 H 271.838 3.77385 -5.25538 0
M  V30 2848 N 271.97 1.30982 0.876444 0
M  V30 2849 C 273.247 1.10942 1.61094 0
M  V30 2850 C 273.627 -0.338223 2.08373 0
M  V30 2851 O 272.975 -1.33122 1.85717 0
M  V30 2852 C 273.185 2.11789 2.77392 0
M  V30 2853 C 274.533 2.43965 3.47514 0
M  V30 2854 O 275.557 2.10166 2.87591 0
M  V30 2855 O 274.416 3.01817 4.55597 0
M  V30 2856 H 271.51 0.42667 0.708436 0
M  V30 2857 H 274.056 1.42438 0.922474 0
M  V30 2858 H 272.828 3.09194 2.39823 0
M  V30 2859 H 272.451 1.81161 3.5393 0
M  V30 2860 N 273.449 -1.08991 1.13837 0
M  V30 2861 C 274.379 -2.17771 0.842507 0
M  V30 2862 C 275.36 -1.6892 -0.20001 0
M  V30 2863 O 276.545 -1.94113 -0.0579731 0
M  V30 2864 C 273.675 -3.4589 0.312644 0
M  V30 2865 C 272.629 -4.08099 1.28992 0
M  V30 2866 C 271.955 -5.31098 0.619623 0
M  V30 2867 C 273.255 -4.50077 2.65005 0
M  V30 2868 H 274.949 -2.42777 1.75213 0
M  V30 2869 H 272.495 -1.16682 0.843875 0
M  V30 2870 H 274.448 -4.21297 0.0933043 0
M  V30 2871 H 273.172 -3.20419 -0.632382 0
M  V30 2872 H 271.831 -3.34717 1.49533 0
M  V30 2873 H 271.479 -5.0191 -0.33102 0
M  V30 2874 H 271.179 -5.73674 1.27167 0
M  V30 2875 H 272.703 -6.09224 0.409669 0
M  V30 2876 H 274.117 -5.16688 2.48407 0
M  V30 2877 H 272.514 -5.03553 3.26427 0
M  V30 2878 H 273.584 -3.62257 3.22332 0
M  V30 2879 N 274.927 -0.932562 -1.27047 0
M  V30 2880 C 275.874 -0.434072 -2.26681 0
M  V30 2881 C 276.844 0.501639 -1.58344 0
M  V30 2882 O 278.029 0.419734 -1.86126 0
M  V30 2883 C 275.169 0.30261 -3.43771 0
M  V30 2884 C 274.282 -0.667774 -4.26808 0
M  V30 2885 C 273.417 0.0892393 -5.31125 0
M  V30 2886 C 272.456 -0.873532 -6.05835 0
M  V30 2887 N 271.593 -0.148832 -7.01942 0
M  V30 2888 H 276.433 -1.28868 -2.68695 0
M  V30 2889 H 273.97 -0.646713 -1.32121 0
M  V30 2890 H 275.928 0.746092 -4.10474 0
M  V30 2891 H 274.558 1.12142 -3.02695 0
M  V30 2892 H 273.61 -1.22978 -3.59973 0
M  V30 2893 H 274.922 -1.40337 -4.78651 0
M  V30 2894 H 274.076 0.592409 -6.03801 0
M  V30 2895 H 272.815 0.85777 -4.80097 0
M  V30 2896 H 271.82 -1.38791 -5.31994 0
M  V30 2897 H 273.045 -1.64193 -6.58952 0
M  V30 2898 H 270.991 0.601365 -6.53238 0
M  V30 2899 H 270.908 -0.82391 -7.51497 0
M  V30 2900 H 272.176 0.333527 -7.78786 0
M  V30 2901 N 276.405 1.4127 -0.698611 0
M  V30 2902 C 277.315 2.34573 -0.0357891 0
M  V30 2903 C 278.331 1.56393 0.762701 0
M  V30 2904 O 279.507 1.8886 0.699564 0
M  V30 2905 C 276.572 3.35159 0.887089 0
M  V30 2906 C 275.633 4.29225 0.0804634 0
M  V30 2907 C 274.866 5.25006 0.959387 0
M  V30 2908 O 275.089 5.26314 2.19886 0
M  V30 2909 O 274.023 6.00519 0.407439 0
M  V30 2910 H 277.849 2.92838 -0.804957 0
M  V30 2911 H 275.434 1.42175 -0.458966 0
M  V30 2912 H 277.316 3.9689 1.41621 0
M  V30 2913 H 275.991 2.79333 1.6357 0
M  V30 2914 H 274.898 3.70833 -0.493328 0
M  V30 2915 H 276.231 4.88157 -0.629547 0
M  V30 2916 N 277.883 0.443576 1.51229 0
M  V30 2917 C 278.813 -0.355142 2.30783 0
M  V30 2918 C 279.794 -1.0154 1.36468 0
M  V30 2919 O 280.979 -1.01785 1.65389 0
M  V30 2920 C 278.109 -1.45312 3.15439 0
M  V30 2921 C 277.063 -0.916002 4.18083 0
M  V30 2922 C 276.389 -2.1102 4.91299 0
M  V30 2923 C 277.689 0.0538602 5.22272 0
M  V30 2924 H 279.383 0.308767 2.97804 0
M  V30 2925 H 276.929 0.149937 1.43217 0
M  V30 2926 H 278.882 -2.01914 3.69876 0
M  V30 2927 H 277.606 -2.14541 2.46252 0
M  V30 2928 H 276.265 -0.372145 3.64706 0
M  V30 2929 H 275.913 -2.78882 4.18609 0
M  V30 2930 H 275.613 -1.75717 5.60712 0
M  V30 2931 H 277.137 -2.68164 5.48562 0
M  V30 2932 H 278.551 -0.422069 5.71744 0
M  V30 2933 H 276.948 0.319776 5.99247 0
M  V30 2934 H 278.018 0.98858 4.74716 0
M  V30 2935 N 279.361 -1.56624 0.175154 0
M  V30 2936 C 280.271 -2.21741 -0.766042 0
M  V30 2937 C 281.287 -1.21023 -1.25018 0
M  V30 2938 O 282.463 -1.53697 -1.3015 0
M  V30 2939 C 279.528 -2.84839 -1.97655 0
M  V30 2940 C 278.589 -4.00769 -1.53892 0
M  V30 2941 C 277.822 -4.60849 -2.69173 0
M  V30 2942 O 278.045 -4.19823 -3.86141 0
M  V30 2943 O 276.979 -5.50655 -2.43028 0
M  V30 2944 H 280.805 -3.02738 -0.241585 0
M  V30 2945 H 278.39 -1.49305 -0.053222 0
M  V30 2946 H 280.272 -3.24834 -2.68442 0
M  V30 2947 H 278.947 -2.06836 -2.48999 0
M  V30 2948 H 277.854 -3.65436 -0.80044 0
M  V30 2949 H 279.187 -4.80376 -1.07236 0
M  V30 2950 N 280.839 0.0985539 -1.57292 0
M  V30 2951 C 281.802 1.10402 -2.00858 0
M  V30 2952 C 282.802 1.33146 -0.901593 0
M  V30 2953 O 283.992 1.29318 -1.16716 0
M  V30 2954 C 281.124 2.45394 -2.36632 0
M  V30 2955 H 282.317 0.729099 -2.90902 0
M  V30 2956 H 279.87 0.343495 -1.52479 0
M  V30 2957 H 280.605 2.87769 -1.49531 0
M  V30 2958 H 280.39 2.30235 -3.17387 0
M  V30 2959 H 281.88 3.17718 -2.71007 0
M  V30 2960 N 282.317 1.53212 0.369288 0
M  V30 2961 C 283.28 1.7872 1.43498 0
M  V30 2962 C 284.28 0.657554 1.46741 0
M  V30 2963 O 285.47 0.925736 1.47566 0
M  V30 2964 C 282.602 1.90591 2.82645 0
M  V30 2965 H 283.795 2.73894 1.22156 0
M  V30 2966 H 281.348 1.44233 0.602203 0
M  V30 2967 H 282.083 0.974709 3.09306 0
M  V30 2968 H 281.868 2.72751 2.8169 0
M  V30 2969 H 283.358 2.11931 3.59826 0
M  V30 2970 N 283.795 -0.628877 1.44509 0
M  V30 2971 C 285.044 -1.38437 1.4669 0
M  V30 2972 C 285.357 -1.95322 0.104272 0
M  V30 2973 O 286.563 -2.715 0.00362163 0
M  V30 2974 C 285.019 -2.50659 2.5826 0
M  V30 2975 C 284.627 -2.00277 4.0074 0
M  V30 2976 C 286.371 -3.27844 2.69664 0
M  V30 2977 C 284.278 -3.09854 5.0373 0
M  V30 2978 H 283.208 -0.520245 0.545766 0
M  V30 2979 H 285.859 -0.676313 1.70582 0
M  V30 2980 H 284.241 -3.2405 2.27612 0
M  V30 2981 H 285.415 -1.33736 4.40966 0
M  V30 2982 H 283.73 -1.35901 3.93599 0
M  V30 2983 H 286.327 -4.09534 3.43781 0
M  V30 2984 H 286.67 -3.77471 1.75559 0
M  V30 2985 H 287.203 -2.61543 2.99733 0
M  V30 2986 H 283.942 -2.65168 5.99472 0
M  V30 2987 H 283.462 -3.7503 4.68095 0
M  V30 2988 H 285.141 -3.74592 5.27532 0
M  V30 2989 N 285.273 -1.31445 -0.869486 0
M  V30 2990 C 286.205 -1.14955 -1.98287 0
M  V30 2991 C 287.218 -0.0885037 -1.62559 0
M  V30 2992 O 288.407 -0.336044 -1.75308 0
M  V30 2993 C 285.507 -0.734255 -3.3085 0
M  V30 2994 C 284.68 -1.88042 -3.94917 0
M  V30 2995 C 283.739 -1.4511 -5.05796 0
M  V30 2996 O 282.765 -2.16082 -5.2659 0
M  V30 2997 N 283.967 -0.338763 -5.79511 0
M  V30 2998 H 286.732 -2.10856 -2.12979 0
M  V30 2999 H 284.293 -1.23786 -1.04349 0
M  V30 3000 H 286.285 -0.42975 -4.02412 0
M  V30 3001 H 284.855 0.133158 -3.12316 0
M  V30 3002 H 284.075 -2.35222 -3.1633 0
M  V30 3003 H 285.363 -2.6481 -4.34457 0
M  V30 3004 H 284.761 0.252274 -5.65137 0
M  V30 3005 H 283.318 -0.0937925 -6.51733 0
M  V30 3006 N 286.751 1.08385 -1.14413 0
M  V30 3007 C 288.162 1.62258 -0.923535 0
M  V30 3008 C 288.513 1.88691 0.537595 0
M  V30 3009 O 287.638 1.64454 1.40655 0
M  V30 3010 C 288.233 2.94781 -1.67002 0
M  V30 3011 C 286.792 3.45437 -1.495 0
M  V30 3012 C 285.939 2.19668 -1.69238 0
M  V30 3013 H 288.89 0.916086 -1.2959 0
M  V30 3014 H 288.911 3.63229 -1.13334 0
M  V30 3015 H 288.423 2.7551 -2.73342 0
M  V30 3016 H 286.524 3.6981 -0.455097 0
M  V30 3017 H 286.637 4.22173 -2.2651 0
M  V30 3018 H 285.001 2.28849 -1.11804 0
M  V30 3019 H 285.784 2.02905 -2.7692 0
M  V30 3020 N 288.23 0.939286 1.26551 0
M  V30 3021 C 289.507 0.5038 1.89001 0
M  V30 3022 C 289.887 -1.01854 1.84903 0
M  V30 3023 O 289.235 -1.87773 1.30206 0
M  V30 3024 C 289.445 1.063 3.32417 0
M  V30 3025 C 290.793 1.13051 4.09273 0
M  V30 3026 O 291.817 1.01345 3.41479 0
M  V30 3027 O 290.676 1.31233 5.30509 0
M  V30 3028 H 287.77 0.163897 0.810597 0
M  V30 3029 H 290.316 1.03173 1.34735 0
M  V30 3030 H 289.088 2.10665 3.29752 0
M  V30 3031 H 288.711 0.517408 3.94219 0
M  V30 3032 N 289.708 -1.40897 0.706093 0
M  V30 3033 C 290.936 -2.05373 0.250887 0
M  V30 3034 C 291.351 -1.53172 -1.10381 0
M  V30 3035 O 290.708 -0.684305 -1.69185 0
M  V30 3036 C 290.759 -3.6088 0.211571 0
M  V30 3037 O 290.48 -4.11153 1.51276 0
M  V30 3038 C 291.981 -4.42517 -0.263346 0
M  V30 3039 H 289.201 -0.66115 0.114552 0
M  V30 3040 H 291.745 -1.80479 0.961635 0
M  V30 3041 H 289.9 -3.84777 -0.450073 0
M  V30 3042 H 290.314 -5.05279 1.40689 0
M  V30 3043 H 291.788 -5.51479 -0.239718 0
M  V30 3044 H 292.265 -4.19396 -1.30397 0
M  V30 3045 H 292.871 -4.23708 0.367677 0
M  V30 3046 N 291.186 -0.45159 -1.50991 0
M  V30 3047 C 292.411 0.110667 -2.07105 0
M  V30 3048 C 292.836 1.3446 -1.31538 0
M  V30 3049 O 292.194 1.77743 -0.357365 0
M  V30 3050 C 292.242 0.397238 -3.58405 0
M  V30 3051 O 291.346 1.48124 -3.84881 0
M  V30 3052 H 290.687 -0.00439271 -0.663985 0
M  V30 3053 H 293.217 -0.637026 -1.9443 0
M  V30 3054 H 293.227 0.64351 -4.02893 0
M  V30 3055 H 291.902 -0.504553 -4.12828 0
M  V30 3056 H 290.479 1.22381 -3.52246 0
M  V30 3057 N 292.664 1.56529 -0.183458 0
M  V30 3058 C 293.594 2.21549 0.737456 0
M  V30 3059 C 294.575 1.17489 1.23005 0
M  V30 3060 O 295.76 1.45959 1.281 0
M  V30 3061 C 292.89 2.86575 1.96194 0
M  V30 3062 C 291.844 3.96778 1.60473 0
M  V30 3063 C 291.17 4.48911 2.90487 0
M  V30 3064 C 292.47 5.15767 0.823497 0
M  V30 3065 H 294.164 2.98761 0.195453 0
M  V30 3066 H 291.71 1.43702 0.0925686 0
M  V30 3067 H 293.663 3.30739 2.61131 0
M  V30 3068 H 292.387 2.06749 2.52828 0
M  V30 3069 H 291.046 3.53286 0.978997 0
M  V30 3070 H 290.694 3.65862 3.45186 0
M  V30 3071 H 290.394 5.23265 2.67335 0
M  V30 3072 H 291.918 4.95771 3.56432 0
M  V30 3073 H 293.332 5.56549 1.37571 0
M  V30 3074 H 291.729 5.96114 0.690551 0
M  V30 3075 H 292.799 4.84574 -0.177782 0
M  V30 3076 N 294.142 -0.090211 1.57342 0
M  V30 3077 C 295.388 -0.793982 1.86611 0
M  V30 3078 C 295.721 -1.78142 0.773252 0
M  V30 3079 O 294.996 -1.93271 -0.218304 0
M  V30 3080 C 295.279 -1.51839 3.26523 0
M  V30 3081 C 295.132 -0.548609 4.46442 0
M  V30 3082 C 296.451 -2.46779 3.64401 0
M  V30 3083 H 293.57 -0.287186 0.678744 0
M  V30 3084 H 296.212 -0.0575076 1.89913 0
M  V30 3085 H 294.362 -2.14617 3.23839 0
M  V30 3086 H 296.034 0.0725513 4.61243 0
M  V30 3087 H 294.277 0.137614 4.33582 0
M  V30 3088 H 294.948 -1.09271 5.41076 0
M  V30 3089 H 297.424 -1.94089 3.68061 0
M  V30 3090 H 296.3 -2.94479 4.63221 0
M  V30 3091 H 296.561 -3.30758 2.93346 0
M  V30 3092 N 295.62 -1.53406 -0.361157 0
M  V30 3093 C 296.845 -1.74024 -1.12829 0
M  V30 3094 C 297.27 -0.470069 -1.82132 0
M  V30 3095 O 296.628 0.57619 -1.719 0
M  V30 3096 C 296.676 -2.90903 -2.13091 0
M  V30 3097 O 295.78 -2.59821 -3.20261 0
M  V30 3098 H 295.121 -0.577804 -0.327168 0
M  V30 3099 H 297.651 -2.00307 -0.41693 0
M  V30 3100 H 297.661 -3.17194 -2.56616 0
M  V30 3101 H 296.336 -3.83034 -1.62042 0
M  V30 3102 H 294.913 -2.44362 -2.81677 0
M  V30 3103 N 297.098 0.621204 -1.44841 0
M  V30 3104 C 298.344 1.3826 -1.48365 0
M  V30 3105 C 298.677 1.93831 -0.119624 0
M  V30 3106 O 297.952 1.74251 0.864111 0
M  V30 3107 C 298.235 2.54058 -2.55199 0
M  V30 3108 C 298.088 2.03772 -4.00995 0
M  V30 3109 C 299.407 3.56225 -2.58442 0
M  V30 3110 H 296.526 0.501374 -0.540179 0
M  V30 3111 H 299.168 0.7015 -1.76576 0
M  V30 3112 H 297.318 3.12162 -2.31274 0
M  V30 3113 H 298.99 1.50423 -4.36086 0
M  V30 3114 H 297.233 1.34876 -4.12299 0
M  V30 3115 H 297.904 2.87185 -4.71411 0
M  V30 3116 H 300.38 3.07939 -2.79844 0
M  V30 3117 H 299.256 4.34756 -3.3508 0
M  V30 3118 H 299.517 4.10949 -1.63013 0
M  V30 3119 N 298.576 1.31904 0.862503 0
M  V30 3120 C 299.509 1.14514 1.97388 0
M  V30 3121 C 300.487 0.0466493 1.62533 0
M  V30 3122 O 301.671 0.204484 1.87388 0
M  V30 3123 C 298.798 0.751347 3.30261 0
M  V30 3124 C 297.844 1.85395 3.84098 0
M  V30 3125 S 298.677 3.46081 4.08642 0
M  V30 3126 C 299.833 3.08655 5.44502 0
M  V30 3127 H 300.066 2.08597 2.11836 0
M  V30 3128 H 297.599 1.16475 1.01356 0
M  V30 3129 H 299.557 0.530901 4.07052 0
M  V30 3130 H 298.218 -0.170493 3.13637 0
M  V30 3131 H 297.411 1.53122 4.80177 0
M  V30 3132 H 297.013 2.02984 3.14123 0
M  V30 3133 H 299.305 2.58012 6.26447 0
M  V30 3134 H 300.248 4.03726 5.81731 0
M  V30 3135 H 300.656 2.45891 5.08132 0
M  V30 3136 N 300.054 -1.07777 1.14986 0
M  V30 3137 C 301.282 -1.84018 0.945773 0
M  V30 3138 C 301.697 -1.81897 -0.505863 0
M  V30 3139 O 301.054 -1.22726 -1.35072 0
M  V30 3140 C 301.105 -3.31287 1.44677 0
M  V30 3141 O 300.826 -3.33449 2.84154 0
M  V30 3142 C 302.327 -4.24311 1.28355 0
M  V30 3143 H 299.547 -0.580716 0.336169 0
M  V30 3144 H 302.091 -1.36077 1.52654 0
M  V30 3145 H 300.246 -3.76594 0.908625 0
M  V30 3146 H 300.66 -4.25427 3.06777 0
M  V30 3147 H 302.134 -5.2573 1.68261 0
M  V30 3148 H 302.611 -4.38612 0.227184 0
M  V30 3149 H 303.217 -3.84836 1.81056 0
M  V30 3150 N 301.532 -0.945985 -1.26051 0
M  V30 3151 C 302.778 -0.597002 -1.93814 0
M  V30 3152 C 303.111 0.862484 -1.73997 0
M  V30 3153 O 302.386 1.61769 -1.07986 0
M  V30 3154 C 302.669 -0.945937 -3.47454 0
M  V30 3155 C 302.522 -2.46052 -3.76535 0
M  V30 3156 C 303.841 -0.464785 -4.37639 0
M  V30 3157 H 300.96 -0.218366 -0.703907 0
M  V30 3158 H 303.602 -1.18107 -1.48831 0
M  V30 3159 H 301.752 -0.448902 -3.85898 0
M  V30 3160 H 303.424 -3.03065 -3.47778 0
M  V30 3161 H 301.667 -2.90194 -3.22444 0
M  V30 3162 H 302.338 -2.65517 -4.83947 0
M  V30 3163 H 304.814 -0.891016 -4.06448 0
M  V30 3164 H 303.69 -0.737712 -5.4392 0
M  V30 3165 H 303.951 0.635274 -4.37512 0
M  V30 3166 N 303.011 1.40521 -0.713556 0
M  V30 3167 C 303.959 2.32549 -0.0485227 0
M  V30 3168 C 304.953 1.51931 0.74922 0
M  V30 3169 O 306.159 1.67745 0.652816 0
M  V30 3170 H 302.534 0.751994 0.00311138 0
M  V30 3171 H 304.505 2.86291 -0.841443 0
M  V30 3172 C 303.254 3.36879 0.860687 0
M  V30 3173 H 302.577 3.98978 0.256246 0
M  V30 3174 H 304.017 4.03772 1.294 0
M  V30 3175 C 302.476 2.72197 1.9852 0
M  V30 3176 O 303.006 2.5837 3.07584 0
M  V30 3177 N 301.212 2.30612 1.76823 0
M  V30 3178 H 300.759 2.42059 0.881217 0
M  V30 3179 H 300.717 1.87672 2.52243 0
M  V30 3180 N 304.489 0.459591 1.5075 0
M  V30 3181 C 305.437 -0.354678 2.2988 0
M  V30 3182 C 306.431 -1.00086 1.36672 0
M  V30 3183 O 307.637 -0.933277 1.53915 0
M  V30 3184 H 304.012 -0.13321 0.740107 0
M  V30 3185 H 305.983 0.333269 2.96533 0
M  V30 3186 C 304.732 -1.43073 3.169 0
M  V30 3187 H 304.055 -0.942882 3.88523 0
M  V30 3188 H 305.495 -1.97328 3.75284 0
M  V30 3189 C 303.954 -2.42633 2.33732 0
M  V30 3190 O 304.484 -3.47658 2.01238 0
M  V30 3191 N 302.69 -2.14066 1.9653 0
M  V30 3192 H 302.237 -1.28685 2.23155 0
M  V30 3193 H 302.195 -2.80917 1.41185 0
M  V30 3194 N 305.967 -1.56429 0.191757 0
M  V30 3195 C 306.877 -2.22541 -0.742481 0
M  V30 3196 C 307.893 -1.22342 -1.23727 0
M  V30 3197 O 309.069 -1.55069 -1.28513 0
M  V30 3198 C 306.134 -2.8692 -1.94623 0
M  V30 3199 C 305.195 -4.02378 -1.49633 0
M  V30 3200 C 304.428 -4.63678 -2.6427 0
M  V30 3201 O 304.651 -4.23895 -3.81666 0
M  V30 3202 O 303.585 -5.53202 -2.37174 0
M  V30 3203 H 307.411 -3.02977 -0.209462 0
M  V30 3204 H 304.996 -1.49353 -0.0373832 0
M  V30 3205 H 306.878 -3.27663 -2.64982 0
M  V30 3206 H 305.553 -2.09466 -2.46791 0
M  V30 3207 H 304.46 -3.66265 -0.761636 0
M  V30 3208 H 305.793 -4.81487 -1.02134 0
M  V30 3209 N 307.445 0.0818655 -1.57387 0
M  V30 3210 C 308.694 0.781681 -1.85937 0
M  V30 3211 C 309.007 1.79246 -0.782957 0
M  V30 3212 O 310.213 2.54112 -0.955987 0
M  V30 3213 C 308.669 1.44109 -3.29789 0
M  V30 3214 C 308.277 0.469396 -4.45534 0
M  V30 3215 C 310.021 2.12386 -3.67549 0
M  V30 3216 C 307.928 1.13415 -5.80423 0
M  V30 3217 H 306.858 0.295682 -0.693605 0
M  V30 3218 H 309.509 0.0348051 -1.83467 0
M  V30 3219 H 307.891 2.23588 -3.2684 0
M  V30 3220 H 309.065 -0.294856 -4.59856 0
M  V30 3221 H 307.38 -0.108383 -4.16259 0
M  V30 3222 H 309.977 2.62878 -4.65617 0
M  V30 3223 H 310.32 2.91877 -2.96839 0
M  V30 3224 H 310.853 1.39751 -3.72444 0
M  V30 3225 H 307.592 0.379771 -6.54399 0
M  V30 3226 H 307.112 1.8695 -5.69921 0
M  V30 3227 H 308.791 1.65686 -6.25426 0
M  V30 3228 N 308.923 1.53595 0.353017 0
M  V30 3229 C 310.171 1.70049 1.09215 0
M  V30 3230 C 310.492 0.461406 1.89463 0
M  V30 3231 O 309.762 -0.524633 1.88744 0
M  V30 3232 H 308.342 0.626912 0.40619 0
M  V30 3233 H 311.004 1.90822 0.396585 0
M  V30 3234 H 310.1 2.56718 1.77488 0
M  V30 3235 N 310.401 -0.613514 1.45168 0
M  V30 3236 C 311.647 -1.37471 1.49096 0
M  V30 3237 C 311.98 -1.93765 0.129901 0
M  V30 3238 O 311.255 -1.74707 -0.854858 0
M  V30 3239 C 311.538 -2.52701 2.56542 0
M  V30 3240 C 311.391 -2.01643 4.0207 0
M  V30 3241 C 312.71 -3.54849 2.60327 0
M  V30 3242 H 309.829 -0.498502 0.54283 0
M  V30 3243 H 312.471 -0.692125 1.76945 0
M  V30 3244 H 310.621 -3.10931 2.32926 0
M  V30 3245 H 312.293 -1.48108 4.36877 0
M  V30 3246 H 310.536 -1.32688 4.13009 0
M  V30 3247 H 311.207 -2.84681 4.72928 0
M  V30 3248 H 313.683 -3.0645 2.81474 0
M  V30 3249 H 312.559 -4.32973 3.37381 0
M  V30 3250 H 312.82 -4.10079 1.6519 0
M  V30 3251 N 311.879 -1.3236 -0.855495 0
M  V30 3252 C 312.826 -1.21225 -1.964 0
M  V30 3253 C 313.796 -0.0946204 -1.6583 0
M  V30 3254 O 314.981 -0.27002 -1.8888 0
M  V30 3255 C 312.121 -0.940419 -3.32039 0
M  V30 3256 C 311.234 -2.14276 -3.75113 0
M  V30 3257 C 310.369 -1.80648 -4.9954 0
M  V30 3258 C 309.408 -2.97208 -5.35102 0
M  V30 3259 N 308.545 -2.63678 -6.50706 0
M  V30 3260 H 313.385 -2.16042 -2.05255 0
M  V30 3261 H 310.922 -1.07451 -1.00463 0
M  V30 3262 H 312.88 -0.763311 -4.10158 0
M  V30 3263 H 311.51 -0.0290413 -3.22787 0
M  V30 3264 H 310.562 -2.43017 -2.92655 0
M  V30 3265 H 311.874 -3.01468 -3.97389 0
M  V30 3266 H 311.028 -1.59484 -5.85363 0
M  V30 3267 H 309.767 -0.906678 -4.79198 0
M  V30 3268 H 308.772 -3.19004 -4.47791 0
M  V30 3269 H 309.997 -3.87918 -5.57401 0
M  V30 3270 H 307.943 -1.76238 -6.31883 0
M  V30 3271 H 307.86 -3.444 -6.72997 0
M  V30 3272 H 309.128 -2.45942 -7.39684 0
M  V30 3273 N 313.357 1.07166 -1.15556 0
M  V30 3274 C 314.289 2.14341 -0.811815 0
M  V30 3275 C 315.302 1.61835 0.177015 0
M  V30 3276 O 316.491 1.78439 -0.0464996 0
M  V30 3277 C 313.591 3.38387 -0.186481 0
M  V30 3278 C 312.764 4.20238 -1.21321 0
M  V30 3279 C 311.823 5.2266 -0.609302 0
M  V30 3280 O 310.849 5.54719 -1.27576 0
M  V30 3281 N 312.051 5.77306 0.608099 0
M  V30 3282 H 314.816 2.44431 -1.73417 0
M  V30 3283 H 312.377 1.23089 -1.0517 0
M  V30 3284 H 314.369 4.04044 0.230339 0
M  V30 3285 H 312.939 3.05994 0.639249 0
M  V30 3286 H 312.159 3.50369 -1.80652 0
M  V30 3287 H 313.447 4.71736 -1.90638 0
M  V30 3288 H 312.845 5.53513 1.1679 0
M  V30 3289 H 311.402 6.44583 0.96725 0
M  V30 3290 N 314.835 0.952656 1.25548 0
M  V30 3291 C 316.246 0.647392 1.75116 0
M  V30 3292 C 316.597 -0.837274 1.77438 0
M  V30 3293 O 315.722 -1.65525 1.39393 0
M  V30 3294 C 316.317 1.16845 3.18014 0
M  V30 3295 C 314.876 0.913382 3.6515 0
M  V30 3296 C 314.023 1.31265 2.44264 0
M  V30 3297 H 316.974 1.12968 1.11462 0
M  V30 3298 H 316.995 0.527606 3.76824 0
M  V30 3299 H 316.507 2.24902 3.16292 0
M  V30 3300 H 314.608 -0.152316 3.72289 0
M  V30 3301 H 314.721 1.54845 4.53387 0
M  V30 3302 H 313.085 0.731028 2.43984 0
M  V30 3303 H 313.868 2.40239 2.45234 0
M  V30 3304 N 316.313 -1.40141 0.720998 0
M  V30 3305 C 317.562 -2.0002 0.259804 0
M  V30 3306 C 317.875 -1.57839 -1.15526 0
M  V30 3307 O 319.081 -2.10455 -1.71525 0
M  V30 3308 C 317.537 -3.57516 0.413566 0
M  V30 3309 C 317.145 -4.08667 1.83562 0
M  V30 3310 C 318.889 -4.24498 0.0134387 0
M  V30 3311 C 316.796 -5.58686 1.93968 0
M  V30 3312 H 315.726 -0.748195 0.0933806 0
M  V30 3313 H 318.377 -1.60313 0.892866 0
M  V30 3314 H 316.759 -3.9495 -0.288169 0
M  V30 3315 H 317.933 -3.82598 2.56817 0
M  V30 3316 H 316.248 -3.543 2.1877 0
M  V30 3317 H 318.845 -5.34654 0.0703954 0
M  V30 3318 H 319.188 -4.03375 -1.02927 0
M  V30 3319 H 319.721 -3.92188 0.665815 0
M  V30 3320 H 316.46 -5.8467 2.96379 0
M  V30 3321 H 315.98 -5.86602 1.25131 0
M  V30 3322 H 317.659 -6.23875 1.71431 0
M  V30 3323 N 317.792 -0.46758 -1.50504 0
M  V30 3324 C 318.755 0.317059 -2.26996 0
M  V30 3325 C 319.755 0.923513 -1.31635 0
M  V30 3326 O 320.945 0.793239 -1.55091 0
M  V30 3327 C 318.077 1.45134 -3.08462 0
M  V30 3328 H 319.27 -0.353723 -2.97807 0
M  V30 3329 H 316.823 -0.221545 -1.54722 0
M  V30 3330 H 317.558 2.15728 -2.4214 0
M  V30 3331 H 317.343 1.02232 -3.78538 0
M  V30 3332 H 318.833 2.00493 -3.66323 0
M  V30 3333 N 319.27 1.56325 -0.20005 0
M  V30 3334 C 320.18 2.22931 0.730668 0
M  V30 3335 C 321.196 1.22997 1.23076 0
M  V30 3336 O 322.372 1.55748 1.27689 0
M  V30 3337 C 319.437 2.87948 1.93098 0
M  V30 3338 C 318.498 4.03166 1.47497 0
M  V30 3339 C 317.731 4.65073 2.61807 0
M  V30 3340 O 317.954 4.25913 3.79413 0
M  V30 3341 O 316.888 5.54452 2.34237 0
M  V30 3342 H 320.714 3.03084 0.193391 0
M  V30 3343 H 318.299 1.49371 0.0294621 0
M  V30 3344 H 320.181 3.29063 2.6324 0
M  V30 3345 H 318.856 2.10771 2.45677 0
M  V30 3346 H 317.763 3.66664 0.742201 0
M  V30 3347 H 319.096 4.82022 0.995796 0
M  V30 3348 N 320.748 -0.0735177 1.57428 0
M  V30 3349 C 321.997 -0.771809 1.86349 0
M  V30 3350 C 322.31 -1.78828 0.792452 0
M  V30 3351 O 323.516 -2.53602 0.96945 0
M  V30 3352 C 321.972 -1.42358 3.30548 0
M  V30 3353 C 321.58 -0.445761 4.45777 0
M  V30 3354 C 323.324 -2.10434 3.6867 0
M  V30 3355 C 321.231 -1.10335 5.81016 0
M  V30 3356 H 320.161 -0.291999 0.695164 0
M  V30 3357 H 322.812 -0.0250749 1.83483 0
M  V30 3358 H 321.194 -2.21852 3.28021 0
M  V30 3359 H 322.368 0.319239 4.59693 0
M  V30 3360 H 320.683 0.130457 4.16196 0
M  V30 3361 H 323.28 -2.60405 4.67004 0
M  V30 3362 H 323.623 -2.90298 2.98383 0
M  V30 3363 H 324.156 -1.37773 3.7318 0
M  V30 3364 H 320.895 -0.345061 6.54591 0
M  V30 3365 H 320.415 -1.83925 5.70904 0
M  V30 3366 H 322.094 -1.62367 6.26295 0
M  V30 3367 N 322.226 -1.5378 -0.344866 0
M  V30 3368 C 323.474 -1.70625 -1.08311 0
M  V30 3369 C 323.795 -0.471447 -1.89215 0
M  V30 3370 O 323.065 0.514616 -1.8902 0
M  V30 3371 H 321.645 -0.629058 -0.402859 0
M  V30 3372 H 324.307 -1.9103 -0.386459 0
M  V30 3373 H 323.403 -2.57656 -1.76124 0
M  V30 3374 N 323.704 0.605807 -1.45491 0
M  V30 3375 C 325.12 0.926751 -1.29936 0
M  V30 3376 C 325.32 1.99896 -0.253706 0
M  V30 3377 O 324.376 2.50038 0.351737 0
M  V30 3378 C 325.689 1.36599 -2.67883 0
M  V30 3379 C 327.237 1.4801 -2.75793 0
M  V30 3380 C 327.712 1.95309 -4.14268 0
M  V30 3381 N 329.203 2.0254 -4.16571 0
M  V30 3382 C 329.938 2.40363 -5.20589 0
M  V30 3383 N 329.434 2.77143 -6.34952 0
M  V30 3384 N 331.227 2.40718 -5.07948 0
M  V30 3385 H 323.378 -0.102862 -2.12151 0
M  V30 3386 H 325.641 0.016639 -0.947854 0
M  V30 3387 H 325.347 0.652306 -3.45598 0
M  V30 3388 H 325.221 2.33215 -2.96463 0
M  V30 3389 H 327.608 2.1847 -1.98381 0
M  V30 3390 H 327.689 0.497041 -2.50925 0
M  V30 3391 H 327.333 1.25436 -4.92167 0
M  V30 3392 H 327.263 2.94532 -4.3653 0
M  V30 3393 H 329.754 1.76699 -3.34045 0
M  V30 3394 H 330.067 3.0489 -7.10114 0
M  V30 3395 H 328.412 2.74834 -6.3835 0
M  V30 3396 H 331.603 2.11392 -4.1765 0
M  V30 3397 H 331.776 2.69869 -5.89131 0
M  V30 3398 N 325.182 1.32811 0.848464 0
M  V30 3399 C 326.431 1.23075 1.59798 0
M  V30 3400 C 326.744 -0.204419 1.94529 0
M  V30 3401 O 327.95 -0.423701 2.68173 0
M  V30 3402 C 326.406 2.15594 2.88179 0
M  V30 3403 C 326.014 3.64228 2.60849 0
M  V30 3404 C 327.758 2.14709 3.66197 0
M  V30 3405 C 325.665 4.48689 3.85269 0
M  V30 3406 H 324.595 0.457091 0.599653 0
M  V30 3407 H 327.246 1.57813 0.936342 0
M  V30 3408 H 325.628 1.73778 3.55833 0
M  V30 3409 H 326.802 4.14424 2.01467 0
M  V30 3410 H 325.117 3.67306 1.96151 0
M  V30 3411 H 327.714 2.75046 4.58534 0
M  V30 3412 H 328.057 1.13966 4.00397 0
M  V30 3413 H 328.59 2.54837 3.05455 0
M  V30 3414 H 325.329 5.5027 3.56207 0
M  V30 3415 H 324.849 4.03241 4.44024 0
M  V30 3416 H 326.528 4.62006 4.52946 0
M  V30 3417 N 326.66 -1.06551 1.16123 0
M  V30 3418 C 327.9 -1.80889 0.951766 0
M  V30 3419 C 328.264 -1.85062 -0.511465 0
M  V30 3420 O 329.465 -2.55353 -0.83954 0
M  V30 3421 C 327.736 -3.21609 1.55893 0
M  V30 3422 S 329.295 -4.12593 1.49373 0
M  V30 3423 H 326.113 -0.623156 0.342341 0
M  V30 3424 H 328.715 -1.27943 1.47821 0
M  V30 3425 H 327.419 -3.16165 2.61664 0
M  V30 3426 H 326.95 -3.79631 1.0317 0
M  V30 3427 H 328.965 -4.93753 0.492196 0
M  V30 3428 N 328.138 -0.959301 -1.25041 0
M  V30 3429 C 329.363 -0.633507 -1.97488 0
M  V30 3430 C 329.788 0.788555 -1.70773 0
M  V30 3431 O 329.146 1.53394 -0.966431 0
M  V30 3432 C 329.194 -0.904057 -3.49083 0
M  V30 3433 O 328.298 0.0147939 -4.12397 0
M  V30 3434 H 327.639 -0.240368 -0.618966 0
M  V30 3435 H 330.169 -1.28717 -1.59038 0
M  V30 3436 H 330.179 -0.832203 -3.99423 0
M  V30 3437 H 328.854 -1.94048 -3.67856 0
M  V30 3438 H 327.431 -0.109664 -3.72739 0
M  V30 3439 N 329.616 1.39756 -0.72842 0
M  V30 3440 C 330.841 2.05472 -0.282159 0
M  V30 3441 C 331.266 1.54549 1.07221 0
M  V30 3442 O 330.624 0.686372 1.67805 0
M  V30 3443 C 330.672 3.59462 -0.286264 0
M  V30 3444 O 329.776 4.05918 0.728298 0
M  V30 3445 H 329.117 0.651226 -0.129618 0
M  V30 3446 H 331.647 1.78915 -0.992499 0
M  V30 3447 H 331.657 4.07798 -0.128373 0
M  V30 3448 H 330.332 3.95889 -1.27456 0
M  V30 3449 H 328.909 3.69012 0.537081 0
M  V30 3450 N 331.094 0.475555 1.50254 0
M  V30 3451 C 332.51 0.12997 1.5907 0
M  V30 3452 C 332.71 -1.36385 1.48328 0
M  V30 3453 O 331.766 -2.13754 1.34407 0
M  V30 3454 C 333.079 0.684139 2.92814 0
M  V30 3455 C 334.627 0.647965 3.0622 0
M  V30 3456 C 335.102 1.17975 4.42545 0
M  V30 3457 N 336.593 1.13936 4.48969 0
M  V30 3458 C 337.328 1.52129 5.52851 0
M  V30 3459 N 336.824 1.97793 6.63965 0
M  V30 3460 N 338.617 1.43704 5.4342 0
M  V30 3461 H 330.768 1.44706 1.55479 0
M  V30 3462 H 333.031 0.598691 0.735033 0
M  V30 3463 H 332.737 1.73079 3.06164 0
M  V30 3464 H 332.611 0.130204 3.76975 0
M  V30 3465 H 334.998 -0.38979 2.92514 0
M  V30 3466 H 335.079 1.23876 2.23805 0
M  V30 3467 H 334.723 2.21616 4.57 0
M  V30 3468 H 334.653 0.565138 5.23559 0
M  V30 3469 H 337.144 0.804488 3.69238 0
M  V30 3470 H 337.457 2.25072 7.39299 0
M  V30 3471 H 335.802 2.01749 6.65073 0
M  V30 3472 H 338.993 1.07867 4.55502 0
M  V30 3473 H 339.166 1.73794 6.24259 0
M  V30 3474 N 332.573 -1.56217 0.208337 0
M  V30 3475 C 333.52 -2.19699 -0.707192 0
M  V30 3476 C 334.49 -1.14836 -1.20008 0
M  V30 3477 O 335.675 -1.4314 -1.26157 0
M  V30 3478 C 332.815 -2.87061 -1.91546 0
M  V30 3479 C 331.928 -4.06483 -1.46271 0
M  V30 3480 C 331.063 -4.61665 -2.62752 0
M  V30 3481 C 330.102 -5.73417 -2.14147 0
M  V30 3482 N 329.239 -6.22948 -3.23853 0
M  V30 3483 H 334.079 -2.97575 -0.159111 0
M  V30 3484 H 331.616 -1.46948 -0.0667874 0
M  V30 3485 H 333.574 -3.24294 -2.62468 0
M  V30 3486 H 332.204 -2.11725 -2.43664 0
M  V30 3487 H 331.256 -3.74825 -0.648886 0
M  V30 3488 H 332.568 -4.87271 -1.06622 0
M  V30 3489 H 331.722 -5.01272 -3.41776 0
M  V30 3490 H 330.461 -3.80013 -3.05682 0
M  V30 3491 H 329.466 -5.33326 -1.33581 0
M  V30 3492 H 330.691 -6.56897 -1.72232 0
M  V30 3493 H 328.637 -5.44213 -3.6629 0
M  V30 3494 H 328.554 -6.98823 -2.88414 0
M  V30 3495 H 329.822 -6.6721 -4.03052 0
M  V30 3496 N 334.051 0.0651679 -1.57465 0
M  V30 3497 C 335.297 0.764193 -1.87851 0
M  V30 3498 C 335.63 1.76889 -0.801495 0
M  V30 3499 O 334.905 1.93594 0.187528 0
M  V30 3500 C 335.188 1.46625 -3.28897 0
M  V30 3501 C 335.041 0.477515 -4.47258 0
M  V30 3502 C 336.36 2.4095 -3.68281 0
M  V30 3503 H 333.479 0.276351 -0.683227 0
M  V30 3504 H 336.121 0.0272868 -1.8998 0
M  V30 3505 H 334.271 2.09438 -3.27212 0
M  V30 3506 H 335.943 -0.145922 -4.61069 0
M  V30 3507 H 334.186 -0.206576 -4.33308 0
M  V30 3508 H 334.857 1.0065 -5.42746 0
M  V30 3509 H 337.333 1.88209 -3.71102 0
M  V30 3510 H 336.209 2.87072 -4.67847 0
M  V30 3511 H 336.47 3.26049 -2.98571 0
M  V30 3512 N 335.529 1.53961 0.336706 0
M  V30 3513 C 336.759 1.75229 1.09446 0
M  V30 3514 C 337.167 0.494602 1.82621 0
M  V30 3515 O 336.51 -0.543764 1.75468 0
M  V30 3516 C 336.572 2.88288 2.1478 0
M  V30 3517 C 336.236 4.27656 1.6112 0
M  V30 3518 C 337.233 5.08981 1.0599 0
M  V30 3519 C 334.918 4.74161 1.6576 0
M  V30 3520 C 336.912 6.34916 0.562129 0
M  V30 3521 C 334.599 6.00067 1.15595 0
M  V30 3522 C 335.597 6.80278 0.609147 0
M  V30 3523 O 335.285 8.03818 0.114999 0
M  V30 3524 H 335.017 0.588881 0.331956 0
M  V30 3525 H 337.571 2.01614 0.392566 0
M  V30 3526 H 335.801 2.57443 2.88548 0
M  V30 3527 H 337.49 2.97461 2.76174 0
M  V30 3528 H 338.256 4.74213 1.01722 0
M  V30 3529 H 334.135 4.11781 2.07261 0
M  V30 3530 H 337.679 6.9747 0.134668 0
M  V30 3531 H 333.576 6.3433 1.19566 0
M  V30 3532 H 334.344 8.18172 0.231651 0
M  V30 3533 N 337.007 -0.598083 1.45811 0
M  V30 3534 C 338.254 -1.35681 1.50323 0
M  V30 3535 C 338.582 -1.9393 0.148739 0
M  V30 3536 O 337.837 -1.76094 -0.853787 0
M  V30 3537 C 338.136 -2.51669 2.53766 0
M  V30 3538 C 337.802 -2.11508 3.98215 0
M  V30 3539 C 336.464 -2.0027 4.37545 0
M  V30 3540 C 338.816 -1.80308 4.89018 0
M  V30 3541 C 336.144 -1.56067 5.65562 0
M  V30 3542 C 338.496 -1.37589 6.17456 0
M  V30 3543 C 337.16 -1.24916 6.55708 0
M  V30 3544 H 336.43 -0.496492 0.550069 0
M  V30 3545 H 339.077 -0.675052 1.79207 0
M  V30 3546 H 337.382 -3.25225 2.18486 0
M  V30 3547 H 339.079 -3.09895 2.54492 0
M  V30 3548 H 335.669 -2.21185 3.67117 0
M  V30 3549 H 339.853 -1.87884 4.59362 0
M  V30 3550 H 335.109 -1.44886 5.93985 0
M  V30 3551 H 339.283 -1.12495 6.87254 0
M  V30 3552 H 336.91 -0.904386 7.54801 0
M  V30 3553 N 338.485 -1.33259 -0.841409 0
M  V30 3554 C 339.435 -1.19872 -1.93945 0
M  V30 3555 C 340.419 -0.102269 -1.60575 0
M  V30 3556 O 341.611 -0.330114 -1.73894 0
M  V30 3557 C 338.74 -0.937517 -3.30251 0
M  V30 3558 C 337.826 -2.07629 -3.69799 0
M  V30 3559 N 338.217 -3.32604 -3.81062 0
M  V30 3560 C 336.515 -1.98242 -3.9952 0
M  V30 3561 C 337.216 -4.07275 -4.15333 0
M  V30 3562 N 336.192 -3.35691 -4.27566 0
M  V30 3563 H 339.994 -2.14604 -2.00805 0
M  V30 3564 H 337.508 -1.2523 -1.03398 0
M  V30 3565 H 339.505 -0.822545 -4.08705 0
M  V30 3566 H 338.165 0.00128798 -3.247 0
M  V30 3567 H 339.176 -3.67382 -3.65035 0
M  V30 3568 H 335.853 -1.12005 -4.02195 0
M  V30 3569 H 337.243 -5.1511 -4.31406 0
M  V30 3570 N 339.963 1.05934 -1.16686 0
M  V30 3571 C 341.191 1.8249 -0.974929 0
M  V30 3572 C 341.606 1.82679 0.476861 0
M  V30 3573 O 340.963 1.2486 1.33103 0
M  V30 3574 C 341.014 3.28943 -1.49929 0
M  V30 3575 O 340.735 3.28886 -2.89423 0
M  V30 3576 C 342.236 4.22215 -1.35089 0
M  V30 3577 H 339.456 0.575295 -0.345365 0
M  V30 3578 H 342 1.33631 -1.548 0
M  V30 3579 H 340.155 3.751 -0.968423 0
M  V30 3580 H 340.569 4.20493 -3.13506 0
M  V30 3581 H 342.043 5.22987 -1.76603 0
M  V30 3582 H 342.52 4.38195 -0.296935 0
M  V30 3583 H 343.126 3.81907 -1.87155 0
M  V30 3584 N 341.441 0.965919 1.2453 0
M  V30 3585 C 342.718 0.543777 1.87889 0
M  V30 3586 C 343.098 -0.97909 1.87021 0
M  V30 3587 O 342.446 -1.84969 1.3416 0
M  V30 3588 C 342.656 1.13327 3.30088 0
M  V30 3589 C 344.004 1.21707 4.06783 0
M  V30 3590 O 345.028 1.08566 3.39252 0
M  V30 3591 O 343.887 1.42456 5.27606 0
M  V30 3592 H 340.981 0.181054 0.806938 0
M  V30 3593 H 343.527 1.06007 1.32516 0
M  V30 3594 H 342.299 2.17612 3.25209 0
M  V30 3595 H 341.922 0.600911 3.93033 0
M  V30 3596 N 342.919 -1.39368 0.735821 0
M  V30 3597 C 343.882 -2.2896 0.104874 0
M  V30 3598 C 344.882 -1.46347 -0.666274 0
M  V30 3599 O 346.072 -1.67014 -0.49517 0
M  V30 3600 C 343.204 -3.29857 -0.860656 0
M  V30 3601 H 344.397 -2.86259 0.894205 0
M  V30 3602 H 341.95 -1.48029 0.501704 0
M  V30 3603 H 342.685 -2.77615 -1.67631 0
M  V30 3604 H 342.47 -3.9087 -0.310327 0
M  V30 3605 H 343.96 -3.96893 -1.29867 0
M  V30 3606 N 344.397 -0.483516 -1.5 0
M  V30 3607 C 345.36 0.292965 -2.2732 0
M  V30 3608 C 346.36 0.909499 -1.32608 0
M  V30 3609 O 347.55 0.776745 -1.55924 0
M  V30 3610 C 344.682 1.41854 -3.09984 0
M  V30 3611 H 345.875 -0.385289 -2.97415 0
M  V30 3612 H 343.428 -0.237942 -1.54478 0
M  V30 3613 H 344.163 2.13148 -2.44414 0
M  V30 3614 H 343.948 0.982114 -3.79601 0
M  V30 3615 H 345.438 1.96597 -3.68429 0
M  V30 3616 N 345.875 1.56104 -0.216619 0
M  V30 3617 C 346.807 2.17339 0.72776 0
M  V30 3618 C 347.82 1.14109 1.16116 0
M  V30 3619 O 349.009 1.4111 1.09317 0
M  V30 3620 C 346.109 2.73818 1.99693 0
M  V30 3621 C 345.282 4.02168 1.71988 0
M  V30 3622 C 344.341 4.43259 2.83562 0
M  V30 3623 O 343.367 5.10257 2.52244 0
M  V30 3624 N 344.569 4.08535 4.12407 0
M  V30 3625 H 347.334 2.99005 0.203983 0
M  V30 3626 H 344.895 1.61861 -0.0354289 0
M  V30 3627 H 346.887 2.9828 2.73516 0
M  V30 3628 H 345.457 1.96483 2.43132 0
M  V30 3629 H 344.677 3.85612 0.818337 0
M  V30 3630 H 345.965 4.85907 1.50903 0
M  V30 3631 H 345.363 3.54687 4.40696 0
M  V30 3632 H 343.92 4.37901 4.8279 0
M  V30 3633 N 347.353 -0.0568162 1.57498 0
M  V30 3634 C 348.316 -1.05038 2.03715 0
M  V30 3635 C 349.316 -1.30709 0.936577 0
M  V30 3636 O 350.506 -1.26178 1.20103 0
M  V30 3637 C 347.638 -2.39034 2.43055 0
M  V30 3638 H 348.831 -0.651715 2.92733 0
M  V30 3639 H 346.384 -0.302947 1.53336 0
M  V30 3640 H 347.119 -2.83703 1.57108 0
M  V30 3641 H 346.904 -2.21739 3.2338 0
M  V30 3642 H 348.394 -3.10421 2.79336 0
M  V30 3643 N 348.832 -1.54138 -0.328536 0
M  V30 3644 C 350.078 -1.7236 -1.06865 0
M  V30 3645 C 350.411 -0.493231 -1.87832 0
M  V30 3646 O 349.686 0.5098 -1.877 0
M  V30 3647 C 349.969 -2.99621 -1.99747 0
M  V30 3648 C 349.822 -4.32899 -1.22143 0
M  V30 3649 C 351.141 -3.22615 -2.99345 0
M  V30 3650 H 348.26 -0.627151 -0.387105 0
M  V30 3651 H 350.902 -1.86827 -0.345767 0
M  V30 3652 H 349.052 -2.87418 -2.61387 0
M  V30 3653 H 350.724 -4.56978 -0.630017 0
M  V30 3654 H 348.967 -4.30628 -0.523628 0
M  V30 3655 H 349.638 -5.18154 -1.90318 0
M  V30 3656 H 352.114 -3.34248 -2.47826 0
M  V30 3657 H 350.99 -4.13027 -3.61524 0
M  V30 3658 H 351.251 -2.3961 -3.71536 0
M  V30 3659 N 350.31 0.590341 -1.46126 0
M  V30 3660 C 351.558 1.34616 -1.50742 0
M  V30 3661 C 351.879 1.94363 -0.157486 0
M  V30 3662 O 351.149 1.78136 0.815136 0
M  V30 3663 H 349.729 0.499789 -0.555175 0
M  V30 3664 H 352.391 0.691953 -1.82203 0
M  V30 3665 H 351.487 2.15678 -2.25587 0
M  V30 3666 N 351.788 1.33704 0.83433 0
M  V30 3667 C 352.735 1.24335 1.94447 0
M  V30 3668 C 353.705 0.120991 1.65659 0
M  V30 3669 O 354.89 0.300035 1.88426 0
M  V30 3670 C 352.03 0.993124 3.30501 0
M  V30 3671 C 351.143 2.20217 3.71657 0
M  V30 3672 C 350.278 1.88572 4.96602 0
M  V30 3673 C 349.317 3.05683 5.30306 0
M  V30 3674 N 348.454 2.73997 6.46429 0
M  V30 3675 H 353.294 2.1928 2.01792 0
M  V30 3676 H 350.831 1.09035 0.987404 0
M  V30 3677 H 352.789 0.828467 4.08892 0
M  V30 3678 H 351.419 0.0803902 3.227 0
M  V30 3679 H 350.471 2.47642 2.88752 0
M  V30 3680 H 351.783 3.07752 3.92543 0
M  V30 3681 H 350.937 1.68776 5.82752 0
M  V30 3682 H 349.676 0.982799 4.77695 0
M  V30 3683 H 348.681 3.26088 4.42659 0
M  V30 3684 H 349.906 3.96737 5.51159 0
M  V30 3685 H 347.852 1.86268 6.28999 0
M  V30 3686 H 347.769 3.55064 6.67432 0
M  V30 3687 H 349.037 2.57679 7.35678 0
M  V30 3688 N 353.266 -1.05314 1.17247 0
M  V30 3689 C 354.515 -1.77685 0.954521 0
M  V30 3690 C 354.828 -1.88616 -0.518025 0
M  V30 3691 O 356.034 -2.57714 -0.854144 0
M  V30 3692 C 354.49 -3.19402 1.65863 0
M  V30 3693 C 354.098 -3.16605 3.16963 0
M  V30 3694 C 355.842 -3.96237 1.52303 0
M  V30 3695 C 353.749 -4.53103 3.80068 0
M  V30 3696 H 352.679 -0.666 0.353496 0
M  V30 3697 H 355.33 -1.1805 1.40486 0
M  V30 3698 H 353.712 -3.79355 1.13602 0
M  V30 3699 H 354.886 -2.66176 3.76148 0
M  V30 3700 H 353.201 -2.53268 3.30521 0
M  V30 3701 H 355.798 -4.97157 1.96822 0
M  V30 3702 H 356.141 -4.136 0.473401 0
M  V30 3703 H 356.674 -3.42829 2.01775 0
M  V30 3704 H 353.413 -4.40946 4.85023 0
M  V30 3705 H 352.933 -5.03686 3.2567 0
M  V30 3706 H 354.612 -5.22045 3.82202 0
M  V30 3707 N 354.744 -0.972509 -1.24016 0
M  V30 3708 C 356.155 -0.67517 -1.74064 0
M  V30 3709 C 356.506 0.808939 -1.78747 0
M  V30 3710 O 355.631 1.63286 -1.42009 0
M  V30 3711 C 356.226 -1.21889 -3.16115 0
M  V30 3712 C 354.785 -0.971358 -3.6365 0
M  V30 3713 C 353.932 -1.35134 -2.42145 0
M  V30 3714 H 356.883 -1.14727 -1.09651 0
M  V30 3715 H 356.904 -0.587489 -3.75937 0
M  V30 3716 H 356.416 -2.29906 -3.12674 0
M  V30 3717 H 354.517 0.0930686 -3.72484 0
M  V30 3718 H 354.63 -1.62039 -4.50866 0
M  V30 3719 H 352.994 -0.769751 -2.4279 0
M  V30 3720 H 353.777 -2.4411 -2.41381 0
M  V30 3721 N 356.222 1.38976 -0.743202 0
M  V30 3722 C 357.152 2.33171 -0.123873 0
M  V30 3723 C 358.133 1.54336 0.71516 0
M  V30 3724 O 359.318 1.82696 0.658467 0
M  V30 3725 C 356.448 3.38474 0.777978 0
M  V30 3726 C 355.402 4.27979 0.0424758 0
M  V30 3727 C 354.728 5.2405 1.06189 0
M  V30 3728 C 356.028 5.10155 -1.1198 0
M  V30 3729 H 357.722 2.85213 -0.910709 0
M  V30 3730 H 355.268 1.37133 -0.439388 0
M  V30 3731 H 357.221 4.03328 1.22084 0
M  V30 3732 H 355.945 2.84891 1.59702 0
M  V30 3733 H 354.604 3.64616 -0.380853 0
M  V30 3734 H 354.252 4.66758 1.87472 0
M  V30 3735 H 353.952 5.84785 0.574485 0
M  V30 3736 H 355.476 5.9178 1.50428 0
M  V30 3737 H 356.89 5.68307 -0.75499 0
M  V30 3738 H 355.287 5.80073 -1.53738 0
M  V30 3739 H 356.357 4.44504 -1.93764 0
M  V30 3740 N 357.7 0.491464 1.49741 0
M  V30 3741 C 358.977 -0.118984 1.95238 0
M  V30 3742 C 359.357 -1.55044 1.43264 0
M  V30 3743 O 358.705 -2.19287 0.642287 0
M  V30 3744 C 358.915 -0.0414187 3.48975 0
M  V30 3745 C 360.263 -0.220133 4.24029 0
M  V30 3746 O 361.287 -0.117055 3.56008 0
M  V30 3747 O 360.146 -0.430567 5.44801 0
M  V30 3748 H 357.24 -0.100536 0.820866 0
M  V30 3749 H 359.786 0.553322 1.60426 0
M  V30 3750 H 358.558 0.957214 3.79412 0
M  V30 3751 H 358.181 -0.754292 3.9038 0
M  V30 3752 N 359.178 -1.55987 0.224894 0
M  V30 3753 C 360.424 -1.98684 -0.406502 0
M  V30 3754 C 360.757 -1.11248 -1.59177 0
M  V30 3755 O 360.032 -0.170909 -1.93748 0
M  V30 3756 C 360.315 -3.50218 -0.837808 0
M  V30 3757 C 360.168 -4.48426 0.351332 0
M  V30 3758 C 361.487 -4.06243 -1.69278 0
M  V30 3759 H 358.606 -0.722337 -0.146283 0
M  V30 3760 H 361.248 -1.87255 0.321799 0
M  V30 3761 H 359.398 -3.60089 -1.45837 0
M  V30 3762 H 361.07 -4.50562 0.989526 0
M  V30 3763 H 359.313 -4.22159 0.998207 0
M  V30 3764 H 359.984 -5.52 0.00655905 0
M  V30 3765 H 362.46 -3.99337 -1.16914 0
M  V30 3766 H 361.336 -5.12581 -1.96346 0
M  V30 3767 H 361.597 -3.53332 -2.65723 0
M  V30 3768 N 360.656 0.0484629 -1.57525 0
M  V30 3769 C 361.604 1.07359 -2.06341 0
M  V30 3770 C 362.598 1.3865 -0.973269 0
M  V30 3771 O 363.804 1.37783 -1.15827 0
M  V30 3772 H 360.179 0.363662 -0.65822 0
M  V30 3773 H 362.15 0.635916 -2.91545 0
M  V30 3774 C 360.899 2.37198 -2.54229 0
M  V30 3775 H 360.222 2.13977 -3.37719 0
M  V30 3776 H 361.662 3.07319 -2.92115 0
M  V30 3777 C 360.121 3.04805 -1.43511 0
M  V30 3778 O 360.651 3.93848 -0.79034 0
M  V30 3779 N 358.857 2.65811 -1.17444 0
M  V30 3780 H 358.404 1.93488 -1.70059 0
M  V30 3781 H 358.362 3.11366 -0.435737 0
M  V30 3782 N 362.134 1.5431 0.320358 0
M  V30 3783 C 363.411 1.63322 1.07635 0
M  V30 3784 C 363.791 0.46912 2.05821 0
M  V30 3785 O 363.139 -0.536274 2.22118 0
M  V30 3786 C 363.349 3.00465 1.77544 0
M  V30 3787 C 364.697 3.56621 2.30449 0
M  V30 3788 O 365.721 3.02791 1.87606 0
M  V30 3789 O 364.58 4.5083 3.08892 0
M  V30 3790 H 361.674 0.661502 0.496331 0
M  V30 3791 H 364.22 1.66656 0.319992 0
M  V30 3792 H 362.992 3.76629 1.06143 0
M  V30 3793 H 362.615 3.00824 2.59982 0
M  V30 3794 N 363.613 -0.582584 1.46437 0
M  V30 3795 C 364.546 -1.70633 1.51524 0
M  V30 3796 C 365.524 -1.58349 0.369351 0
M  V30 3797 O 366.708 -1.79563 0.573516 0
M  V30 3798 C 363.835 -3.08687 1.39392 0
M  V30 3799 C 362.881 -3.3949 2.58164 0
M  V30 3800 S 363.714 -3.31548 4.20519 0
M  V30 3801 C 364.87 -4.72139 4.10896 0
M  V30 3802 H 365.103 -1.66058 2.46601 0
M  V30 3803 H 362.636 -0.761337 1.34324 0
M  V30 3804 H 364.594 -3.8833 1.33079 0
M  V30 3805 H 363.255 -3.10751 0.457436 0
M  V30 3806 H 362.448 -4.40071 2.45669 0
M  V30 3807 H 362.05 -2.67415 2.61468 0
M  V30 3808 H 364.342 -5.62527 3.77584 0
M  V30 3809 H 365.285 -4.89692 5.11476 0
M  V30 3810 H 365.693 -4.48995 3.42146 0
M  V30 3811 N 365.091 -1.34144 -0.827227 0
M  V30 3812 C 366.038 -1.25364 -1.93785 0
M  V30 3813 C 367.008 -0.129774 -1.65592 0
M  V30 3814 O 368.193 -0.310024 -1.88264 0
M  V30 3815 C 365.333 -1.01064 -3.2997 0
M  V30 3816 C 364.446 -2.22185 -3.70484 0
M  V30 3817 C 363.581 -1.91203 -4.95595 0
M  V30 3818 C 362.62 -3.08491 -5.28677 0
M  V30 3819 N 361.757 -2.77421 -6.44967 0
M  V30 3820 H 366.597 -2.20347 -2.00627 0
M  V30 3821 H 364.134 -1.09558 -0.981608 0
M  V30 3822 H 366.092 -0.850139 -4.08446 0
M  V30 3823 H 364.722 -0.0975026 -3.22653 0
M  V30 3824 H 363.774 -2.4917 -2.87434 0
M  V30 3825 H 365.086 -3.0983 -3.90905 0
M  V30 3826 H 364.24 -1.71864 -5.81848 0
M  V30 3827 H 362.979 -1.00812 -4.77167 0
M  V30 3828 H 361.984 -3.28431 -4.40923 0
M  V30 3829 H 363.209 -3.99655 -5.49047 0
M  V30 3830 H 361.155 -1.89601 -6.28003 0
M  V30 3831 H 361.072 -3.58598 -6.6554 0
M  V30 3832 H 362.34 -2.61577 -7.34301 0
M  V30 3833 N 366.569 1.04691 -1.17803 0
M  V30 3834 C 367.818 1.77176 -0.963931 0
M  V30 3835 C 368.131 1.88888 0.508015 0
M  V30 3836 O 369.337 2.58164 0.840465 0
M  V30 3837 C 367.793 3.18518 -1.67555 0
M  V30 3838 C 367.401 3.14919 -3.18637 0
M  V30 3839 C 369.145 3.95424 -1.54402 0
M  V30 3840 C 367.052 4.51081 -3.82466 0
M  V30 3841 H 365.982 0.664116 -0.357023 0
M  V30 3842 H 368.633 1.17303 -1.4111 0
M  V30 3843 H 367.015 3.78748 -1.15613 0
M  V30 3844 H 368.189 2.64178 -3.77554 0
M  V30 3845 H 366.504 2.51512 -3.31859 0
M  V30 3846 H 369.101 4.96106 -1.99456 0
M  V30 3847 H 369.444 4.13343 -0.495329 0
M  V30 3848 H 369.977 3.41754 -2.0359 0
M  V30 3849 H 366.716 4.38368 -4.87354 0
M  V30 3850 H 366.236 5.01951 -3.28337 0
M  V30 3851 H 367.915 5.2001 -3.84965 0
M  V30 3852 N 368.047 0.979072 1.23499 0
M  V30 3853 C 369.324 0.563674 1.87302 0
M  V30 3854 C 369.704 -0.959199 1.88049 0
M  V30 3855 O 369.052 -1.83535 1.36114 0
M  V30 3856 C 369.262 1.16822 3.28867 0
M  V30 3857 C 370.61 1.26014 4.0547 0
M  V30 3858 O 371.634 1.12158 3.38082 0
M  V30 3859 O 370.493 1.48044 5.26066 0
M  V30 3860 H 367.587 0.189602 0.804972 0
M  V30 3861 H 370.133 1.07407 1.31384 0
M  V30 3862 H 368.905 2.21049 3.22883 0
M  V30 3863 H 368.528 0.642564 3.92373 0
M  V30 3864 N 369.525 -1.3858 0.750561 0
M  V30 3865 C 370.455 -2.33102 0.136237 0
M  V30 3866 C 371.436 -1.54713 -0.706965 0
M  V30 3867 O 372.621 -1.83043 -0.648769 0
M  V30 3868 C 369.751 -3.38882 -0.760017 0
M  V30 3869 C 368.705 -4.27995 -0.0197785 0
M  V30 3870 C 368.031 -5.24605 -1.03408 0
M  V30 3871 C 369.331 -5.09554 1.14684 0
M  V30 3872 H 371.025 -2.84726 0.925822 0
M  V30 3873 H 368.571 -1.36898 0.446654 0
M  V30 3874 H 370.524 -4.0397 -1.19943 0
M  V30 3875 H 369.248 -2.85734 -1.58189 0
M  V30 3876 H 367.907 -3.64409 0.400184 0
M  V30 3877 H 367.555 -4.67746 -1.84994 0
M  V30 3878 H 367.255 -5.85081 -0.543464 0
M  V30 3879 H 368.779 -5.9257 -1.47288 0
M  V30 3880 H 370.193 -5.67899 0.785118 0
M  V30 3881 H 368.59 -5.7925 1.56812 0
M  V30 3882 H 369.66 -4.4347 1.96118 0
M  V30 3883 N 371.003 -0.499398 -1.49478 0
M  V30 3884 C 371.936 0.326491 -2.25852 0
M  V30 3885 C 372.914 0.971776 -1.30366 0
M  V30 3886 O 374.098 1.00219 -1.59651 0
M  V30 3887 C 371.225 1.45969 -3.05632 0
M  V30 3888 C 370.271 0.928938 -4.16261 0
M  V30 3889 S 371.104 -0.179012 -5.35201 0
M  V30 3890 C 372.26 0.957389 -6.18534 0
M  V30 3891 H 372.493 -0.321746 -2.95554 0
M  V30 3892 H 370.026 -0.284674 -1.51753 0
M  V30 3893 H 371.984 2.109 -3.52181 0
M  V30 3894 H 370.645 2.07953 -2.35402 0
M  V30 3895 H 369.838 1.77813 -4.71592 0
M  V30 3896 H 369.44 0.356869 -3.72293 0
M  V30 3897 H 371.732 1.86296 -6.51383 0
M  V30 3898 H 372.675 0.442733 -7.06715 0
M  V30 3899 H 373.083 1.224 -5.5107 0
M  V30 3900 N 372.481 1.55866 -0.233164 0
M  V30 3901 C 373.706 2.03449 0.402906 0
M  V30 3902 C 374.131 1.11166 1.51736 0
M  V30 3903 O 373.489 0.101996 1.81013 0
M  V30 3904 C 373.537 3.49165 0.9009 0
M  V30 3905 O 372.641 3.60019 2.01147 0
M  V30 3906 H 371.982 0.657913 0.0897025 0
M  V30 3907 H 374.512 2.01493 -0.355201 0
M  V30 3908 H 374.522 3.89716 1.2077 0
M  V30 3909 H 373.197 4.15813 0.0852889 0
M  V30 3910 H 371.774 3.3136 1.71042 0
M  V30 3911 N 373.959 -0.0401083 1.57549 0
M  V30 3912 C 375.208 -0.732108 1.87944 0
M  V30 3913 C 375.521 -1.77107 0.830206 0
M  V30 3914 O 376.727 -2.51488 1.02302 0
M  V30 3915 C 375.183 -1.35315 3.33494 0
M  V30 3916 C 374.791 -0.351105 4.46622 0
M  V30 3917 C 376.535 -2.02566 3.73051 0
M  V30 3918 C 374.442 -0.979859 5.83226 0
M  V30 3919 H 373.372 -0.277188 0.701201 0
M  V30 3920 H 376.023 0.0138501 1.83495 0
M  V30 3921 H 374.405 -2.14844 3.32653 0
M  V30 3922 H 375.579 0.416674 4.58912 0
M  V30 3923 H 373.894 0.218708 4.15825 0
M  V30 3924 H 376.491 -2.50441 4.72423 0
M  V30 3925 H 376.834 -2.83904 3.04474 0
M  V30 3926 H 377.367 -1.29827 3.76018 0
M  V30 3927 H 374.106 -0.206135 6.55176 0
M  V30 3928 H 373.626 -1.71774 5.74677 0
M  V30 3929 H 375.305 -1.49046 6.29599 0
M  V30 3930 N 375.437 -1.54477 -0.31217 0
M  V30 3931 C 376.662 -1.77526 -1.07235 0
M  V30 3932 C 377.087 -0.527775 -1.80544 0
M  V30 3933 O 376.445 0.52121 -1.73646 0
M  V30 3934 C 376.493 -2.97535 -2.03728 0
M  V30 3935 O 375.597 -2.69878 -3.11833 0
M  V30 3936 H 374.938 -0.58792 -0.30862 0
M  V30 3937 H 377.468 -2.01532 -0.352993 0
M  V30 3938 H 377.478 -3.25198 -2.46395 0
M  V30 3939 H 376.153 -3.87996 -1.49774 0
M  V30 3940 H 374.73 -2.53199 -2.7376 0
M  V30 3941 N 376.915 0.57481 -1.46744 0
M  V30 3942 C 378.163 1.33009 -1.52161 0
M  V30 3943 C 378.484 1.94185 -0.178092 0
M  V30 3944 O 377.754 1.7899 0.796196 0
M  V30 3945 H 376.334 0.493873 -0.560445 0
M  V30 3946 H 378.996 0.672589 -1.82927 0
M  V30 3947 H 378.092 2.13273 -2.27862 0
M  V30 3948 N 378.394 1.34581 0.820102 0
M  V30 3949 C 379.344 1.22943 1.92013 0
M  V30 3950 C 380.328 0.127802 1.60392 0
M  V30 3951 O 381.52 0.357737 1.73347 0
M  V30 3952 C 378.649 0.989938 3.28717 0
M  V30 3953 C 377.735 2.13486 3.66449 0
M  V30 3954 N 378.126 3.38625 3.75722 0
M  V30 3955 C 376.424 2.04573 3.96315 0
M  V30 3956 C 377.125 4.13832 4.08801 0
M  V30 3957 N 376.101 3.42451 4.22171 0
M  V30 3958 H 379.903 2.17771 1.97365 0
M  V30 3959 H 377.417 1.2686 1.01392 0
M  V30 3960 H 379.414 0.887462 4.07345 0
M  V30 3961 H 378.074 0.0503691 3.24661 0
M  V30 3962 H 379.085 3.73143 3.59144 0
M  V30 3963 H 375.762 1.1839 4.00362 0
M  V30 3964 H 377.152 5.21909 4.23156 0
M  V30 3965 N 379.872 -1.04064 1.18357 0
M  V30 3966 C 380.819 -2.12077 0.910603 0
M  V30 3967 C 381.789 -1.65421 -0.15 0
M  V30 3968 O 382.974 -1.90797 -0.0103614 0
M  V30 3969 C 380.114 -3.42252 0.442472 0
M  V30 3970 C 379.227 -4.0252 1.5685 0
M  V30 3971 C 378.362 -5.20657 1.05309 0
M  V30 3972 C 377.401 -5.72955 2.1538 0
M  V30 3973 N 376.538 -6.8238 1.65233 0
M  V30 3974 H 381.378 -2.34764 1.83548 0
M  V30 3975 H 378.915 -1.15157 0.915279 0
M  V30 3976 H 380.873 -4.16921 0.152534 0
M  V30 3977 H 379.503 -3.19712 -0.445428 0
M  V30 3978 H 378.555 -3.25178 1.97391 0
M  V30 3979 H 379.867 -4.37362 2.39824 0
M  V30 3980 H 379.021 -6.0244 0.717677 0
M  V30 3981 H 377.76 -4.87318 0.19293 0
M  V30 3982 H 376.765 -4.89793 2.49766 0
M  V30 3983 H 377.99 -6.08337 3.01832 0
M  V30 3984 H 375.936 -6.50917 0.815064 0
M  V30 3985 H 375.853 -7.16286 2.41805 0
M  V30 3986 H 377.121 -7.67788 1.34619 0
M  V30 3987 N 381.35 -0.985608 -1.22978 0
M  V30 3988 C 382.599 -0.652881 -1.90841 0
M  V30 3989 C 382.912 0.817842 -1.77681 0
M  V30 3990 O 384.118 1.26185 -2.40395 0
M  V30 3991 C 382.574 -1.11717 -3.42122 0
M  V30 3992 C 382.182 -2.6126 -3.63933 0
M  V30 3993 C 383.926 -0.85843 -4.1573 0
M  V30 3994 C 381.833 -3.0133 -5.08876 0
M  V30 3995 H 380.763 -0.240491 -0.714619 0
M  V30 3996 H 383.414 -1.1942 -1.39324 0
M  V30 3997 H 381.796 -0.504027 -3.92779 0
M  V30 3998 H 382.97 -3.27858 -3.23799 0
M  V30 3999 H 381.285 -2.84937 -3.03644 0
M  V30 4000 H 383.882 -1.13359 -5.22546 0
M  V30 4001 H 384.225 0.205461 -4.15793 0
M  V30 4002 H 384.758 -1.43341 -3.71077 0
M  V30 4003 H 381.497 -4.06864 -5.13947 0
M  V30 4004 H 381.017 -2.3943 -5.49939 0
M  V30 4005 H 382.696 -2.92224 -5.77247 0
M  V30 4006 N 382.828 1.3818 -0.7579 0
M  V30 4007 C 384.058 2.04004 -0.326463 0
M  V30 4008 C 384.466 1.57286 1.05156 0
M  V30 4009 O 383.809 0.743144 1.67997 0
M  V30 4010 C 383.871 3.58444 -0.275402 0
M  V30 4011 C 383.535 4.28237 -1.59569 0
M  V30 4012 C 384.532 4.53312 -2.54566 0
M  V30 4013 C 382.217 4.66341 -1.86631 0
M  V30 4014 C 384.211 5.15531 -3.74842 0
M  V30 4015 C 381.898 5.28283 -3.0718 0
M  V30 4016 C 382.896 5.52814 -4.01106 0
M  V30 4017 O 382.584 6.13465 -5.19534 0
M  V30 4018 H 382.316 0.662026 -0.136739 0
M  V30 4019 H 384.87 1.7777 -1.02893 0
M  V30 4020 H 383.1 3.83667 0.483337 0
M  V30 4021 H 384.789 4.05701 0.127099 0
M  V30 4022 H 385.555 4.24299 -2.34936 0
M  V30 4023 H 381.434 4.46591 -1.14358 0
M  V30 4024 H 384.978 5.34594 -4.48168 0
M  V30 4025 H 380.875 5.56719 -3.26702 0
M  V30 4026 H 381.643 6.31951 -5.20173 0
M  V30 4027 N 384.306 0.507319 1.49211 0
M  V30 4028 C 385.554 -0.0348839 2.0207 0
M  V30 4029 C 385.875 -1.36898 1.38866 0
M  V30 4030 O 385.145 -1.88133 0.546151 0
M  V30 4031 H 383.725 -0.0158812 0.746831 0
M  V30 4032 H 386.387 0.665998 1.83168 0
M  V30 4033 H 385.483 -0.159917 3.1169 0
M  V30 4034 N 385.784 -1.5574 0.241426 0
M  V30 4035 C 387.195 -1.84842 -0.262755 0
M  V30 4036 C 387.546 -1.16317 -1.58003 0
M  V30 4037 O 386.671 -0.439653 -2.11887 0
M  V30 4038 C 387.266 -3.35332 -0.483523 0
M  V30 4039 C 385.825 -3.6468 -0.931977 0
M  V30 4040 C 384.972 -2.77299 -0.0061151 0
M  V30 4041 H 387.923 -1.51761 0.464129 0
M  V30 4042 H 387.944 -3.56615 -1.32688 0
M  V30 4043 H 387.456 -3.85178 0.47537 0
M  V30 4044 H 385.557 -3.20307 -1.90353 0
M  V30 4045 H 385.67 -4.72498 -0.792628 0
M  V30 4046 H 384.034 -2.49408 -0.516503 0
M  V30 4047 H 384.817 -3.2995 0.948052 0
M  V30 4048 N 387.262 0.0317525 -1.57568 0
M  V30 4049 C 388.209 1.0332 -2.06382 0
M  V30 4050 C 389.179 1.36082 -0.952414 0
M  V30 4051 O 390.364 1.46466 -1.2228 0
M  V30 4052 C 387.504 2.32989 -2.54578 0
M  V30 4053 C 386.617 2.0641 -3.79498 0
M  V30 4054 C 385.752 3.2993 -4.16317 0
M  V30 4055 C 384.791 2.98893 -5.34162 0
M  V30 4056 N 383.928 4.14857 -5.66426 0
M  V30 4057 H 388.768 0.609982 -2.9169 0
M  V30 4058 H 386.305 0.289573 -1.44222 0
M  V30 4059 H 388.263 3.0875 -2.80587 0
M  V30 4060 H 386.893 2.73039 -1.7219 0
M  V30 4061 H 385.945 1.21158 -3.6059 0
M  V30 4062 H 387.257 1.79513 -4.65378 0
M  V30 4063 H 386.411 4.1406 -4.4344 0
M  V30 4064 H 385.15 3.59938 -3.29083 0
M  V30 4065 H 384.155 2.13164 -5.06795 0
M  V30 4066 H 385.38 2.70165 -6.23047 0
M  V30 4067 H 383.326 4.44821 -4.82151 0
M  V30 4068 H 383.243 3.91374 -6.4681 0
M  V30 4069 H 384.511 4.99868 -5.98124 0
M  V30 4070 N 388.74 1.54641 0.303973 0
M  V30 4071 C 389.988 1.73437 1.0375 0
M  V30 4072 C 390.309 0.521449 1.87899 0
M  V30 4073 O 389.579 -0.46432 1.90318 0
M  V30 4074 H 388.159 0.639518 0.386039 0
M  V30 4075 H 390.821 1.91988 0.335675 0
M  V30 4076 H 389.917 2.62235 1.69231 0
M  V30 4077 N 390.218 -0.567019 1.47046 0
M  V30 4078 C 391.464 -1.32658 1.53394 0
M  V30 4079 C 391.797 -1.93254 0.19148 0
M  V30 4080 O 391.072 -1.77338 -0.798844 0
M  V30 4081 C 391.355 -2.44412 2.64452 0
M  V30 4082 C 391.208 -1.88749 4.08282 0
M  V30 4083 C 392.527 -3.46387 2.71485 0
M  V30 4084 H 389.646 -0.48098 0.558415 0
M  V30 4085 H 392.288 -0.635481 1.79058 0
M  V30 4086 H 390.438 -3.03363 2.427 0
M  V30 4087 H 392.11 -1.34134 4.41368 0
M  V30 4088 H 390.353 -1.19481 4.17021 0
M  V30 4089 H 391.024 -2.69491 4.81745 0
M  V30 4090 H 393.5 -2.9734 2.91081 0
M  V30 4091 H 392.376 -4.2202 3.50985 0
M  V30 4092 H 392.637 -4.04616 1.78153 0
M  V30 4093 N 391.696 -1.35014 -0.812953 0
M  V30 4094 C 392.944 -1.27678 -1.56661 0
M  V30 4095 C 393.265 0.150359 -1.94419 0
M  V30 4096 O 392.535 1.08532 -1.63088 0
M  V30 4097 H 391.115 -0.469602 -0.580933 0
M  V30 4098 H 393.777 -1.69043 -0.970076 0
M  V30 4099 H 392.873 -1.88833 -2.48492 0
M  V30 4100 N 393.175 1.03435 -1.18907 0
M  V30 4101 C 394.138 2.09756 -0.923844 0
M  V30 4102 C 395.138 1.60528 0.093416 0
M  V30 4103 O 396.328 1.73631 -0.140727 0
M  V30 4104 C 393.46 3.38692 -0.387354 0
M  V30 4105 H 394.653 2.34719 -1.86674 0
M  V30 4106 H 392.206 1.19959 -1.00197 0
M  V30 4107 H 392.941 3.19396 0.561845 0
M  V30 4108 H 392.726 3.75742 -1.12074 0
M  V30 4109 H 394.216 4.17016 -0.220694 0
M  V30 4110 N 394.653 0.992116 1.22453 0
M  V30 4111 C 395.902 0.662992 1.90492 0
M  V30 4112 C 396.215 -0.808407 1.78113 0
M  V30 4113 O 397.421 -1.24908 2.41061 0
M  V30 4114 C 395.877 1.1353 3.41524 0
M  V30 4115 C 395.485 2.63187 3.62542 0
M  V30 4116 C 397.229 0.880465 4.15269 0
M  V30 4117 C 395.136 3.04024 5.0727 0
M  V30 4118 H 394.066 0.244278 0.713333 0
M  V30 4119 H 396.717 1.20157 1.38688 0
M  V30 4120 H 395.099 0.52485 3.92506 0
M  V30 4121 H 396.273 3.2957 3.22056 0
M  V30 4122 H 394.588 2.86543 3.02129 0
M  V30 4123 H 397.185 1.16128 5.21937 0
M  V30 4124 H 397.528 -0.183408 4.15896 0
M  V30 4125 H 398.061 1.45307 3.70312 0
M  V30 4126 H 394.8 4.09584 5.11782 0
M  V30 4127 H 394.32 2.42343 5.48662 0
M  V30 4128 H 395.999 2.95282 5.75689 0
M  V30 4129 N 396.131 -1.37776 0.765217 0
M  V30 4130 C 397.361 -2.03828 0.337277 0
M  V30 4131 C 397.769 -1.57841 -1.04321 0
M  V30 4132 O 397.112 -0.752043 -1.67601 0
M  V30 4133 C 397.174 -3.58292 0.294407 0
M  V30 4134 C 396.838 -4.27384 1.61838 0
M  V30 4135 C 397.835 -4.51956 2.56967 0
M  V30 4136 C 395.52 -4.65345 1.89102 0
M  V30 4137 C 397.514 -5.13536 3.77571 0
M  V30 4138 C 395.201 -5.26647 3.09978 0
M  V30 4139 C 396.199 -5.50679 4.04032 0
M  V30 4140 O 395.887 -6.10702 5.2278 0
M  V30 4141 H 395.619 -0.661292 0.140248 0
M  V30 4142 H 398.173 -1.77222 1.03834 0
M  V30 4143 H 396.403 -3.83918 -0.462983 0
M  V30 4144 H 398.092 -4.05763 -0.105581 0
M  V30 4145 H 398.858 -4.23048 2.37183 0
M  V30 4146 H 394.737 -4.45978 1.16725 0
M  V30 4147 H 398.281 -5.3221 4.50997 0
M  V30 4148 H 394.178 -5.54979 3.29649 0
M  V30 4149 H 394.946 -6.29183 5.23517 0
M  V30 4150 N 397.609 -0.515225 -1.4894 0
M  V30 4151 C 398.858 0.0261361 -2.01683 0
M  V30 4152 C 399.171 1.36719 -1.39883 0
M  V30 4153 O 400.377 1.99606 -1.84037 0
M  V30 4154 C 398.833 0.0970111 -3.59769 0
M  V30 4155 C 398.441 -1.23825 -4.30548 0
M  V30 4156 C 400.185 0.587981 -4.20408 0
M  V30 4157 C 398.092 -1.12877 -5.80528 0
M  V30 4158 H 397.022 0.0135398 -0.753878 0
M  V30 4159 H 399.673 -0.656787 -1.71343 0
M  V30 4160 H 398.055 0.844694 -3.86886 0
M  V30 4161 H 399.229 -2.00034 -4.15118 0
M  V30 4162 H 397.544 -1.66379 -3.81716 0
M  V30 4163 H 400.141 0.68763 -5.3026 0
M  V30 4164 H 400.484 1.59026 -3.84729 0
M  V30 4165 H 401.017 -0.103582 -3.97665 0
M  V30 4166 H 397.756 -2.10575 -6.20756 0
M  V30 4167 H 397.276 -0.407799 -5.98412 0
M  V30 4168 H 398.955 -0.813332 -6.41868 0
M  V30 4169 N 399.087 1.5561 -0.249682 0
M  V30 4170 C 400.503 1.59254 0.105103 0
M  V30 4171 C 400.703 1.26685 1.56694 0
M  V30 4172 O 399.759 1.0155 2.31179 0
M  V30 4173 C 401.072 2.99687 -0.246592 0
M  V30 4174 C 402.62 3.12416 -0.191118 0
M  V30 4175 C 403.095 4.55074 -0.516885 0
M  V30 4176 N 404.586 4.60835 -0.467489 0
M  V30 4177 C 405.321 5.69201 -0.69268 0
M  V30 4178 N 404.817 6.85817 -0.981146 0
M  V30 4179 N 406.61 5.58635 -0.623198 0
M  V30 4180 H 398.761 1.75049 -1.20298 0
M  V30 4181 H 401.024 0.815003 -0.484225 0
M  V30 4182 H 400.73 3.28267 -1.26228 0
M  V30 4183 H 400.604 3.74798 0.424962 0
M  V30 4184 H 402.991 2.83615 0.815247 0
M  V30 4185 H 403.072 2.39573 -0.896563 0
M  V30 4186 H 402.716 4.84596 -1.52082 0
M  V30 4187 H 402.646 5.26181 0.210068 0
M  V30 4188 H 405.137 3.7705 -0.253373 0
M  V30 4189 H 405.45 7.64341 -1.14032 0
M  V30 4190 H 403.795 6.87494 -1.01865 0
M  V30 4191 H 406.986 4.66406 -0.397863 0
M  V30 4192 H 407.159 6.43017 -0.802093 0
M  V30 4193 N 400.565 -0.0233959 1.57583 0
M  V30 4194 C 401.981 -0.379134 1.55031 0
M  V30 4195 C 402.181 -1.76255 0.976548 0
M  V30 4196 O 401.237 -2.45266 0.600078 0
M  V30 4197 C 402.55 -0.275792 2.99433 0
M  V30 4198 C 404.098 -0.352458 3.11009 0
M  V30 4199 C 404.573 -0.278501 4.57152 0
M  V30 4200 N 406.064 -0.337123 4.61972 0
M  V30 4201 C 406.799 -0.302876 5.726 0
M  V30 4202 N 406.295 -0.220589 6.92449 0
M  V30 4203 N 408.088 -0.353023 5.6099 0
M  V30 4204 H 400.239 0.881869 1.93227 0
M  V30 4205 H 402.502 0.335867 0.886509 0
M  V30 4206 H 402.208 0.675108 3.4516 0
M  V30 4207 H 402.082 -1.06721 3.61788 0
M  V30 4208 H 404.469 -1.29379 2.65226 0
M  V30 4209 H 404.55 0.468409 2.51475 0
M  V30 4210 H 404.194 0.659189 5.03604 0
M  V30 4211 H 404.124 -1.11755 5.14605 0
M  V30 4212 H 406.615 -0.403002 3.75745 0
M  V30 4213 H 406.928 -0.199713 7.72542 0
M  V30 4214 H 405.273 -0.186555 6.9475 0
M  V30 4215 H 408.464 -0.415339 4.66254 0
M  V30 4216 H 408.637 -0.322866 6.47195 0
M  V30 4217 N 402.043 -1.548 -0.295768 0
M  V30 4218 C 403.459 -1.4613 -0.641722 0
M  V30 4219 C 403.659 -0.656771 -1.90496 0
M  V30 4220 O 402.715 -0.166547 -2.5195 0
M  V30 4221 C 404.028 -2.90141 -0.789852 0
M  V30 4222 C 405.576 -3.00216 -0.885396 0
M  V30 4223 C 406.051 -4.45434 -1.06548 0
M  V30 4224 N 407.542 -4.49166 -1.13156 0
M  V30 4225 C 408.277 -5.58717 -1.28929 0
M  V30 4226 N 407.773 -6.78182 -1.41567 0
M  V30 4227 N 409.566 -5.46415 -1.31859 0
M  V30 4228 H 401.717 -2.05574 0.534147 0
M  V30 4229 H 403.98 -0.931259 0.177372 0
M  V30 4230 H 403.686 -3.51635 0.0675598 0
M  V30 4231 H 403.56 -3.37859 -1.67724 0
M  V30 4232 H 405.947 -2.38833 -1.73329 0
M  V30 4233 H 406.028 -2.55787 0.0261185 0
M  V30 4234 H 405.672 -5.07413 -0.222335 0
M  V30 4235 H 405.602 -4.87499 -1.9913 0
M  V30 4236 H 408.093 -3.631 -1.04721 0
M  V30 4237 H 408.406 -7.57428 -1.53372 0
M  V30 4238 H 406.751 -6.81037 -1.38613 0
M  V30 4239 H 409.942 -4.5203 -1.21601 0
M  V30 4240 H 410.115 -6.31841 -1.43808 0
M  V30 4241 N 403.521 0.559213 -1.47345 0
M  V30 4242 C 404.932 1.14134 -1.47751 0
M  V30 4243 C 405.283 1.94834 -0.231103 0
M  V30 4244 O 404.408 2.05957 0.664137 0
M  V30 4245 C 405.003 2.07653 -2.67705 0
M  V30 4246 C 403.562 2.61141 -2.71076 0
M  V30 4247 C 402.709 1.3748 -2.40821 0
M  V30 4248 H 405.66 0.345917 -1.54884 0
M  V30 4249 H 405.681 2.91497 -2.44561 0
M  V30 4250 H 405.193 1.4889 -3.58404 0
M  V30 4251 H 403.294 3.23707 -1.84511 0
M  V30 4252 H 403.407 3.02272 -3.7171 0
M  V30 4253 H 401.771 1.68086 -1.91362 0
M  V30 4254 H 402.554 0.805135 -3.33725 0
M  V30 4255 N 404.999 1.35443 0.805782 0
M  V30 4256 C 406.415 1.15499 1.10146 0
M  V30 4257 C 406.615 -0.0319975 2.01475 0
M  V30 4258 O 405.671 -0.70236 2.42535 0
M  V30 4259 C 406.984 2.45833 1.73166 0
M  V30 4260 C 408.532 2.52047 1.85583 0
M  V30 4261 C 409.007 3.82427 2.52019 0
M  V30 4262 N 410.498 3.83682 2.59504 0
M  V30 4263 C 411.233 4.81294 3.11679 0
M  V30 4264 N 410.729 5.89294 3.64287 0
M  V30 4265 N 412.522 4.6873 3.1024 0
M  V30 4266 H 404.673 2.11469 0.198678 0
M  V30 4267 H 406.936 0.93594 0.150731 0
M  V30 4268 H 406.642 3.32874 1.13526 0
M  V30 4269 H 406.516 2.6044 2.72857 0
M  V30 4270 H 408.903 1.65435 2.44367 0
M  V30 4271 H 408.984 2.41354 0.847455 0
M  V30 4272 H 408.628 4.69437 1.93885 0
M  V30 4273 H 408.558 3.90409 3.53395 0
M  V30 4274 H 411.049 3.05648 2.22234 0
M  V30 4275 H 411.362 6.59768 4.02401 0
M  V30 4276 H 409.707 5.92985 3.62483 0
M  V30 4277 H 412.898 3.83496 2.68419 0
M  V30 4278 H 413.071 5.44965 3.50596 0
M  V30 4279 N 406.477 -1.02803 1.19454 0
M  V30 4280 C 407.723 -1.76478 0.999171 0
M  V30 4281 C 408.056 -1.88456 -0.468828 0
M  V30 4282 O 407.331 -1.40198 -1.34814 0
M  V30 4283 C 407.614 -3.19044 1.66981 0
M  V30 4284 C 407.467 -3.14932 3.21151 0
M  V30 4285 C 408.786 -4.17456 1.39349 0
M  V30 4286 H 405.905 -0.640614 0.364393 0
M  V30 4287 H 408.547 -1.20005 1.47305 0
M  V30 4288 H 406.697 -3.67263 1.2669 0
M  V30 4289 H 408.369 -2.74605 3.70661 0
M  V30 4290 H 406.612 -2.52625 3.52652 0
M  V30 4291 H 407.283 -4.1566 3.63223 0
M  V30 4292 H 409.759 -3.77842 1.74283 0
M  V30 4293 H 408.635 -5.154 1.88823 0
M  V30 4294 H 408.896 -4.40949 0.318813 0
M  V30 4295 N 407.956 -0.998596 -1.21925 0
M  V30 4296 C 409.372 -0.710303 -1.42923 0
M  V30 4297 C 409.572 0.716933 -1.88314 0
M  V30 4298 O 408.628 1.48712 -2.04062 0
M  V30 4299 C 409.941 -1.72072 -2.466 0
M  V30 4300 C 411.489 -1.73681 -2.60392 0
M  V30 4301 C 411.964 -2.73601 -3.67296 0
M  V30 4302 N 413.455 -2.7223 -3.7476 0
M  V30 4303 C 414.19 -3.46206 -4.57087 0
M  V30 4304 N 413.686 -4.29802 -5.43362 0
M  V30 4305 N 415.479 -3.34886 -4.51451 0
M  V30 4306 H 407.63 -1.92028 -0.9077 0
M  V30 4307 H 409.893 -0.828487 -0.460775 0
M  V30 4308 H 409.599 -2.74231 -2.20206 0
M  V30 4309 H 409.473 -1.51818 -3.45299 0
M  V30 4310 H 411.86 -0.722173 -2.86127 0
M  V30 4311 H 411.941 -1.98005 -1.61949 0
M  V30 4312 H 411.585 -3.75217 -3.42307 0
M  V30 4313 H 411.515 -2.46545 -4.65321 0
M  V30 4314 H 414.006 -2.11576 -3.1312 0
M  V30 4315 H 414.319 -4.83061 -6.03218 0
M  V30 4316 H 412.664 -4.33887 -5.42925 0
M  V30 4317 H 415.855 -2.69015 -3.83078 0
M  V30 4318 H 416.028 -3.92796 -5.15379 0
M  V30 4319 N 409.434 1.37368 -0.772513 0
M  V30 4320 C 410.68 1.99969 -0.337681 0
M  V30 4321 C 411.013 1.61184 1.08321 0
M  V30 4322 O 410.288 0.858395 1.74533 0
M  V30 4323 C 410.571 3.56858 -0.482121 0
M  V30 4324 C 410.424 4.0555 -1.94549 0
M  V30 4325 C 411.743 4.39955 0.113143 0
M  V30 4326 H 408.862 0.726464 -0.124171 0
M  V30 4327 H 411.504 1.63034 -0.975699 0
M  V30 4328 H 409.654 3.88452 0.0610361 0
M  V30 4329 H 411.326 3.84518 -2.54841 0
M  V30 4330 H 409.569 3.57715 -2.45403 0
M  V30 4331 H 410.24 5.14587 -1.9976 0
M  V30 4332 H 412.716 4.14623 -0.35031 0
M  V30 4333 H 411.592 5.48897 -0.0180514 0
M  V30 4334 H 411.853 4.25403 1.20354 0
M  V30 4335 N 410.912 0.523116 1.48665 0
M  V30 4336 C 411.822 -0.247406 2.33292 0
M  V30 4337 C 412.838 -0.945769 1.46052 0
M  V30 4338 O 414.014 -0.922253 1.79043 0
M  V30 4339 C 411.079 -1.28487 3.22012 0
M  V30 4340 C 410.14 -0.597592 4.2512 0
M  V30 4341 C 409.373 -1.58563 5.09601 0
M  V30 4342 O 409.596 -2.81763 4.95949 0
M  V30 4343 O 408.53 -1.12879 5.91221 0
M  V30 4344 H 412.356 0.445869 3.00409 0
M  V30 4345 H 409.941 0.284128 1.46673 0
M  V30 4346 H 411.823 -1.88459 3.7691 0
M  V30 4347 H 410.498 -1.96068 2.57564 0
M  V30 4348 H 409.405 0.0424407 3.74076 0
M  V30 4349 H 410.738 0.0361517 4.92187 0
M  V30 4350 N 412.39 -1.55475 0.257931 0
M  V30 4351 C 413.353 -2.20551 -0.623706 0
M  V30 4352 C 414.353 -1.17809 -1.09443 0
M  V30 4353 O 415.543 -1.42823 -0.997362 0
M  V30 4354 C 412.675 -2.85784 -1.8585 0
M  V30 4355 H 413.868 -2.99848 -0.0557743 0
M  V30 4356 H 411.421 -1.56298 0.0084422 0
M  V30 4357 H 412.156 -2.10453 -2.46739 0
M  V30 4358 H 411.941 -3.61057 -1.52907 0
M  V30 4359 H 413.431 -3.35553 -2.48584 0
M  V30 4360 N 413.868 0.0150385 -1.57593 0
M  V30 4361 C 414.798 1.01047 -2.10503 0
M  V30 4362 C 415.779 1.36816 -1.01071 0
M  V30 4363 O 416.964 1.45455 -1.28672 0
M  V30 4364 C 414.094 2.30708 -2.59598 0
M  V30 4365 C 413.048 2.09142 -3.73421 0
M  V30 4366 C 412.374 3.44685 -4.08774 0
M  V30 4367 C 413.674 1.46619 -5.01298 0
M  V30 4368 H 415.368 0.569978 -2.93925 0
M  V30 4369 H 412.914 0.272724 -1.41394 0
M  V30 4370 H 414.867 3.00687 -2.95238 0
M  V30 4371 H 413.591 2.76843 -1.73279 0
M  V30 4372 H 412.25 1.41592 -3.38153 0
M  V30 4373 H 411.898 3.88495 -3.195 0
M  V30 4374 H 411.598 3.31077 -4.8545 0
M  V30 4375 H 413.122 4.16004 -4.4696 0
M  V30 4376 H 414.536 2.06535 -5.34805 0
M  V30 4377 H 412.933 1.43544 -5.82679 0
M  V30 4378 H 414.003 0.433611 -4.82957 0
M  V30 4379 N 415.346 1.54954 0.287554 0
M  V30 4380 C 416.278 1.83224 1.37701 0
M  V30 4381 C 417.291 0.715898 1.46215 0
M  V30 4382 O 418.48 0.993565 1.48292 0
M  V30 4383 C 415.58 1.96723 2.75959 0
M  V30 4384 C 414.753 3.27253 2.90215 0
M  V30 4385 C 413.812 3.30998 4.09056 0
M  V30 4386 O 412.838 4.04457 4.00503 0
M  V30 4387 N 414.04 2.57353 5.20336 0
M  V30 4388 H 416.805 2.77254 1.138 0
M  V30 4389 H 414.366 1.54694 0.477652 0
M  V30 4390 H 416.358 1.96615 3.5373 0
M  V30 4391 H 414.928 1.09626 2.92747 0
M  V30 4392 H 414.148 3.40022 1.99447 0
M  V30 4393 H 415.436 4.13365 2.96659 0
M  V30 4394 H 414.834 1.97327 5.30169 0
M  V30 4395 H 413.391 2.62984 5.96391 0
M  V30 4396 N 416.824 -0.551391 1.4764 0
M  V30 4397 C 418.049 -1.33837 1.58437 0
M  V30 4398 C 418.474 -1.866 0.237063 0
M  V30 4399 O 417.832 -1.6328 -0.787994 0
M  V30 4400 C 417.88 -2.48014 2.61766 0
M  V30 4401 O 416.984 -3.50419 2.1744 0
M  V30 4402 H 416.325 -0.397299 0.532024 0
M  V30 4403 H 418.855 -0.665759 1.93465 0
M  V30 4404 H 418.865 -2.94503 2.82369 0
M  V30 4405 H 417.54 -2.08969 3.5959 0
M  V30 4406 H 416.117 -3.10196 2.06961 0
M  V30 4407 N 418.302 -1.35869 -0.798587 0
M  V30 4408 C 419.55 -1.29332 -1.55298 0
M  V30 4409 C 419.871 0.129729 -1.94568 0
M  V30 4410 O 419.141 1.06796 -1.6423 0
M  V30 4411 H 417.721 -0.475737 -0.57592 0
M  V30 4412 H 420.383 -1.70062 -0.952093 0
M  V30 4413 H 419.479 -1.91458 -2.46476 0
M  V30 4414 N 419.78 1.02168 -1.19998 0
M  V30 4415 C 421.028 1.75338 -1.00504 0
M  V30 4416 C 421.349 1.89387 0.464506 0
M  V30 4417 O 420.619 1.43268 1.33608 0
M  V30 4418 H 419.199 0.649564 -0.368885 0
M  V30 4419 H 421.861 1.23205 -1.51018 0
M  V30 4420 H 420.957 2.75892 -1.45912 0
M  V30 4421 N 421.258 1.00505 1.21394 0
M  V30 4422 C 422.506 0.686415 1.90086 0
M  V30 4423 C 422.827 -0.785264 1.7849 0
M  V30 4424 O 422.097 -1.56387 1.17983 0
M  V30 4425 H 420.677 0.2509 0.703604 0
M  V30 4426 H 423.339 1.27417 1.47482 0
M  V30 4427 H 422.435 0.959621 2.96981 0
M  V30 4428 N 422.737 -1.36956 0.779787 0
M  V30 4429 C 423.669 -2.28833 0.129639 0
M  V30 4430 C 424.682 -1.4902 -0.655511 0
M  V30 4431 O 425.871 -1.71578 -0.492279 0
M  V30 4432 C 422.971 -3.2833 -0.839792 0
M  V30 4433 C 422.144 -4.3727 -0.10675 0
M  V30 4434 C 421.203 -5.16789 -0.990717 0
M  V30 4435 O 420.229 -5.67406 -0.451516 0
M  V30 4436 N 421.431 -5.32294 -2.3161 0
M  V30 4437 H 424.196 -2.85268 0.918803 0
M  V30 4438 H 421.757 -1.49019 0.632841 0
M  V30 4439 H 423.749 -3.78413 -1.43477 0
M  V30 4440 H 422.319 -2.72605 -1.52988 0
M  V30 4441 H 421.539 -3.88478 0.669216 0
M  V30 4442 H 422.827 -5.07229 0.399464 0
M  V30 4443 H 422.225 -4.92768 -2.77843 0
M  V30 4444 H 420.782 -5.85656 -2.86095 0
M  V30 4445 N 424.215 -0.530993 -1.48385 0
M  V30 4446 C 425.125 0.23503 -2.3342 0
M  V30 4447 C 426.141 0.93801 -1.46552 0
M  V30 4448 O 427.317 0.912745 -1.7953 0
M  V30 4449 C 424.382 1.26778 -3.22689 0
M  V30 4450 C 423.443 0.575038 -4.25431 0
M  V30 4451 C 422.676 1.55858 -5.10435 0
M  V30 4452 O 422.899 2.79129 -4.97437 0
M  V30 4453 O 421.833 1.09742 -5.91811 0
M  V30 4454 H 425.659 -0.461794 -3.00169 0
M  V30 4455 H 423.244 -0.291903 -1.46521 0
M  V30 4456 H 425.126 1.86457 -3.77904 0
M  V30 4457 H 423.801 1.94699 -2.586 0
M  V30 4458 H 422.708 -0.0622782 -3.74048 0
M  V30 4459 H 424.041 -0.062253 -4.92161 0
M  V30 4460 N 425.693 1.55336 -0.266172 0
M  V30 4461 C 427.109 1.59356 0.0882065 0
M  V30 4462 C 427.309 1.2834 1.55342 0
M  V30 4463 O 426.365 1.03996 2.30089 0
M  V30 4464 C 427.678 2.99409 -0.278364 0
M  V30 4465 C 429.226 3.12196 -0.224243 0
M  V30 4466 C 429.701 4.545 -0.565123 0
M  V30 4467 N 431.192 4.60313 -0.51634 0
M  V30 4468 C 431.927 5.68434 -0.753013 0
M  V30 4469 N 431.423 6.84738 -1.05383 0
M  V30 4470 N 433.216 5.57942 -0.682414 0
M  V30 4471 H 425.367 1.73764 -1.22147 0
M  V30 4472 H 427.63 0.809822 -0.492841 0
M  V30 4473 H 427.336 3.2691 -1.29703 0
M  V30 4474 H 427.21 3.75228 0.385186 0
M  V30 4475 H 429.597 2.84464 0.78512 0
M  V30 4476 H 429.678 2.38609 -0.921922 0
M  V30 4477 H 429.322 4.82956 -1.57213 0
M  V30 4478 H 429.252 5.26374 0.154248 0
M  V30 4479 H 431.743 3.7676 -0.29335 0
M  V30 4480 H 432.056 7.63088 -1.22133 0
M  V30 4481 H 430.401 6.86375 -1.09151 0
M  V30 4482 H 433.592 4.65958 -0.44731 0
M  V30 4483 H 433.765 6.4213 -0.870248 0
M  V30 4484 N 427.171 -0.0066808 1.57599 0
M  V30 4485 C 428.419 -0.691552 1.899 0
M  V30 4486 C 428.74 -1.74682 0.866672 0
M  V30 4487 O 428.01 -1.95661 -0.0968189 0
M  V30 4488 H 426.59 -0.258416 0.700878 0
M  V30 4489 H 429.252 0.0326655 1.94873 0
M  V30 4490 H 428.348 -1.16702 2.8946 0
M  V30 4491 N 428.649 -1.55105 -0.279332 0
M  V30 4492 C 429.582 -1.82467 -1.37044 0
M  V30 4493 C 430.56 -0.677261 -1.47824 0
M  V30 4494 O 431.744 -0.919578 -1.64548 0
M  V30 4495 C 428.871 -1.98066 -2.7475 0
M  V30 4496 C 427.917 -3.20594 -2.81286 0
M  V30 4497 S 428.75 -4.78116 -2.41175 0
M  V30 4498 C 429.906 -4.9668 -3.80867 0
M  V30 4499 H 430.139 -2.74728 -1.1363 0
M  V30 4500 H 427.672 -1.46794 -0.478625 0
M  V30 4501 H 429.63 -2.07739 -3.54055 0
M  V30 4502 H 428.291 -1.06704 -2.9542 0
M  V30 4503 H 427.484 -3.28376 -3.82341 0
M  V30 4504 H 427.086 -3.09479 -2.09996 0
M  V30 4505 H 429.378 -4.82033 -4.76078 0
M  V30 4506 H 430.321 -5.98741 -3.78041 0
M  V30 4507 H 430.729 -4.24698 -3.71876 0
M  V30 4508 N 430.127 0.543554 -1.4793 0
M  V30 4509 C 431.543 0.870806 -1.3375 0
M  V30 4510 C 431.743 1.9864 -0.338261 0
M  V30 4511 O 430.799 2.51305 0.245371 0
M  V30 4512 C 432.112 1.25114 -2.73435 0
M  V30 4513 C 433.66 1.3618 -2.81823 0
M  V30 4514 C 434.135 1.77563 -4.22179 0
M  V30 4515 N 435.626 1.8469 -4.24787 0
M  V30 4516 C 436.361 2.18067 -5.30315 0
M  V30 4517 N 435.857 2.49963 -6.46135 0
M  V30 4518 N 437.65 2.18958 -5.17701 0
M  V30 4519 H 429.801 -0.19275 -2.11524 0
M  V30 4520 H 432.064 -0.0235777 -0.947707 0
M  V30 4521 H 431.77 0.50514 -3.48053 0
M  V30 4522 H 431.644 2.20431 -3.06088 0
M  V30 4523 H 434.031 2.09859 -2.07468 0
M  V30 4524 H 434.112 0.390169 -2.52807 0
M  V30 4525 H 433.756 1.04449 -4.97044 0
M  V30 4526 H 433.686 2.75753 -4.48629 0
M  V30 4527 H 436.177 1.62372 -3.41239 0
M  V30 4528 H 436.49 2.74497 -7.22406 0
M  V30 4529 H 434.835 2.47513 -6.49432 0
M  V30 4530 H 438.026 1.93488 -4.2624 0
M  V30 4531 H 438.199 2.44639 -6.00047 0
M  V30 4532 N 431.605 1.3629 0.791371 0
M  V30 4533 C 432.83 1.33726 1.58531 0
M  V30 4534 C 433.255 -0.0794933 1.87932 0
M  V30 4535 O 432.613 -1.05087 1.47738 0
M  V30 4536 C 432.661 2.16425 2.88431 0
M  V30 4537 O 431.765 1.5554 3.81944 0
M  V30 4538 H 431.106 0.457793 0.480959 0
M  V30 4539 H 433.636 1.79547 0.981031 0
M  V30 4540 H 433.646 2.28933 3.37718 0
M  V30 4541 H 432.321 3.19415 2.66359 0
M  V30 4542 H 430.898 1.51961 3.40532 0
M  V30 4543 N 433.083 -1.0153 1.20538 0
M  V30 4544 C 434.331 -1.74803 1.01432 0
M  V30 4545 C 434.652 -1.8963 -0.454456 0
M  V30 4546 O 433.922 -1.43975 -1.32846 0
M  V30 4547 H 432.502 -0.647598 0.372324 0
M  V30 4548 H 435.164 -1.22402 1.5167 0
M  V30 4549 H 434.26 -2.75114 1.47373 0
M  V30 4550 N 434.561 -1.01147 -1.20859 0
M  V30 4551 C 435.789 -0.716911 -1.94082 0
M  V30 4552 C 436.204 0.721568 -1.74467 0
M  V30 4553 O 435.561 1.48889 -1.05539 0
M  V30 4554 C 435.612 -1.03662 -3.46318 0
M  V30 4555 O 435.333 -2.4186 -3.65288 0
M  V30 4556 C 436.834 -0.762386 -4.36695 0
M  V30 4557 H 434.054 -0.26367 -0.617024 0
M  V30 4558 H 436.598 -1.35127 -1.53496 0
M  V30 4559 H 434.753 -0.447757 -3.84804 0
M  V30 4560 H 435.167 -2.53224 -4.59323 0
M  V30 4561 H 436.641 -1.03621 -5.42187 0
M  V30 4562 H 437.118 0.303514 -4.3815 0
M  V30 4563 H 437.724 -1.33316 -4.03865 0
M  V30 4564 N 436.039 1.36541 -0.78704 0
M  V30 4565 C 437.285 1.99599 -0.358872 0
M  V30 4566 C 437.618 1.62323 1.06606 0
M  V30 4567 O 436.893 0.876858 1.73613 0
M  V30 4568 C 437.176 3.56327 -0.519944 0
M  V30 4569 C 437.029 4.03464 -1.98839 0
M  V30 4570 C 438.348 4.4005 0.0664737 0
M  V30 4571 H 435.467 0.725107 -0.131869 0
M  V30 4572 H 438.109 1.6199 -0.992936 0
M  V30 4573 H 436.259 3.88495 0.0198321 0
M  V30 4574 H 437.931 3.81793 -2.58905 0
M  V30 4575 H 436.174 3.55092 -2.49183 0
M  V30 4576 H 436.845 5.12439 -2.05207 0
M  V30 4577 H 439.321 4.14228 -0.394267 0
M  V30 4578 H 438.197 5.48847 -0.0762682 0
M  V30 4579 H 438.458 4.26655 1.15835 0
M  V30 4580 N 437.518 0.538854 1.48102 0
M  V30 4581 C 438.929 0.100679 1.86428 0
M  V30 4582 C 439.28 -1.32447 1.44749 0
M  V30 4583 O 438.405 -1.99339 0.842199 0
M  V30 4584 C 439 0.175933 3.38343 0
M  V30 4585 C 437.559 -0.207098 3.7583 0
M  V30 4586 C 436.706 0.531741 2.72154 0
M  V30 4587 H 439.657 0.749614 1.3988 0
M  V30 4588 H 439.678 -0.610144 3.75576 0
M  V30 4589 H 439.19 1.21328 3.68648 0
M  V30 4590 H 437.291 -1.24626 3.5114 0
M  V30 4591 H 437.404 0.138687 4.78899 0
M  V30 4592 H 435.768 -0.0230462 2.5469 0
M  V30 4593 H 436.551 1.56989 3.05302 0
M  V30 4594 N 438.996 -1.55193 0.274407 0
M  V30 4595 C 440.224 -2.03987 -0.345943 0
M  V30 4596 C 440.639 -1.15279 -1.4952 0
M  V30 4597 O 439.996 -0.172759 -1.8168 0
M  V30 4598 C 440.047 -3.51898 -0.827631 0
M  V30 4599 O 439.768 -4.37231 0.275855 0
M  V30 4600 C 441.269 -4.16577 -1.51587 0
M  V30 4601 H 438.489 -0.666335 -0.0789892 0
M  V30 4602 H 441.033 -2.00423 0.406294 0
M  V30 4603 H 439.188 -3.55909 -1.52996 0
M  V30 4604 H 439.602 -5.24415 -0.0943638 0
M  V30 4605 H 441.076 -5.21678 -1.80433 0
M  V30 4606 H 441.553 -3.64707 -2.44716 0
M  V30 4607 H 442.159 -4.16568 -0.857409 0
M  V30 4608 N 440.474 -0.00167713 -1.576 0
M  V30 4609 C 441.885 0.54091 -1.78693 0
M  V30 4610 C 442.236 1.7386 -0.909247 0
M  V30 4611 O 441.361 2.16109 -0.112176 0
M  V30 4612 C 441.956 0.98806 -3.24072 0
M  V30 4613 C 440.515 1.47594 -3.46256 0
M  V30 4614 C 439.662 0.42792 -2.73978 0
M  V30 4615 H 442.613 -0.22784 -1.57056 0
M  V30 4616 H 442.634 1.85398 -3.32277 0
M  V30 4617 H 442.146 0.116164 -3.87926 0
M  V30 4618 H 440.247 2.36868 -2.87618 0
M  V30 4619 H 440.36 1.50225 -4.54939 0
M  V30 4620 H 438.724 0.889934 -2.38647 0
M  V30 4621 H 439.507 -0.435038 -3.40532 0
M  V30 4622 N 441.952 1.55251 0.271103 0
M  V30 4623 C 442.882 1.9127 1.33933 0
M  V30 4624 C 443.863 0.77478 1.5143 0
M  V30 4625 O 445.048 1.03307 1.64442 0
M  V30 4626 C 442.178 2.18627 2.69851 0
M  V30 4627 C 441.132 3.34442 2.67081 0
M  V30 4628 C 440.458 3.47284 4.06569 0
M  V30 4629 C 441.758 4.70784 2.26185 0
M  V30 4630 H 443.452 2.80744 1.04035 0
M  V30 4631 H 440.998 1.35077 0.499017 0
M  V30 4632 H 442.951 2.42413 3.44694 0
M  V30 4633 H 441.675 1.25955 3.01335 0
M  V30 4634 H 440.334 3.10627 1.94695 0
M  V30 4635 H 439.982 2.52074 4.35279 0
M  V30 4636 H 439.682 4.25152 4.0561 0
M  V30 4637 H 441.206 3.73363 4.83148 0
M  V30 4638 H 442.62 4.94102 2.90751 0
M  V30 4639 H 441.017 5.51582 2.36384 0
M  V30 4640 H 442.087 4.69478 1.21319 0
M  V30 4641 N 443.43 -0.535701 1.48216 0
M  V30 4642 C 444.676 -1.29375 1.56173 0
M  V30 4643 C 445.009 -1.92804 0.232429 0
M  V30 4644 O 444.284 -1.78992 -0.761048 0
M  V30 4645 C 444.567 -2.38747 2.69577 0
M  V30 4646 C 444.42 -1.80046 4.12193 0
M  V30 4647 C 445.739 -3.40551 2.78771 0
M  V30 4648 H 442.858 -0.469027 0.568491 0
M  V30 4649 H 445.5 -0.597358 1.80365 0
M  V30 4650 H 443.65 -2.98147 2.4908 0
M  V30 4651 H 445.322 -1.24742 4.44114 0
M  V30 4652 H 443.565 -1.10609 4.19462 0
M  V30 4653 H 444.236 -2.59212 4.87353 0
M  V30 4654 H 446.712 -2.91099 2.97322 0
M  V30 4655 H 445.588 -4.1448 3.59857 0
M  V30 4656 H 445.849 -4.00746 1.86696 0
M  V30 4657 N 444.908 -1.36708 -0.784132 0
M  V30 4658 C 446.154 -1.31426 -1.54451 0
M  V30 4659 C 446.487 0.10476 -1.93917 0
M  V30 4660 O 445.762 1.05934 -1.6312 0
M  V30 4661 C 446.045 -2.24189 -2.818 0
M  V30 4662 C 445.898 -3.74813 -2.48667 0
M  V30 4663 C 447.217 -2.15626 -3.83658 0
M  V30 4664 H 444.336 -0.478739 -0.560337 0
M  V30 4665 H 446.978 -1.67305 -0.900498 0
M  V30 4666 H 445.128 -1.93722 -3.36755 0
M  V30 4667 H 446.8 -4.15823 -1.99722 0
M  V30 4668 H 445.043 -3.93989 -1.81535 0
M  V30 4669 H 445.714 -4.35138 -3.39646 0
M  V30 4670 H 448.19 -2.42456 -3.38163 0
M  V30 4671 H 447.066 -2.82694 -4.70506 0
M  V30 4672 H 447.327 -1.14522 -4.27009 0
M  V30 4673 N 446.386 1.0089 -1.21074 0
M  V30 4674 C 447.634 1.74262 -1.02358 0
M  V30 4675 C 447.955 1.89869 0.444393 0
M  V30 4676 O 447.225 1.44677 1.32081 0
M  V30 4677 H 445.805 0.645615 -0.375754 0
M  V30 4678 H 448.467 1.21596 -1.52317 0
M  V30 4679 H 447.563 2.74328 -1.4883 0
M  V30 4680 N 447.864 1.01787 1.20321 0
M  V30 4681 C 448.794 0.609625 2.25401 0
M  V30 4682 C 449.775 -0.375951 1.65893 0
M  V30 4683 O 450.96 -0.261101 1.92437 0
M  V30 4684 C 448.09 -0.0515995 3.47262 0
M  V30 4685 C 447.044 0.855095 4.19371 0
M  V30 4686 C 446.37 0.0595757 5.34667 0
M  V30 4687 C 447.67 2.16374 4.75373 0
M  V30 4688 H 449.364 1.48803 2.59804 0
M  V30 4689 H 446.91 0.716934 1.24884 0
M  V30 4690 H 448.863 -0.348764 4.19954 0
M  V30 4691 H 447.587 -0.964726 3.12027 0
M  V30 4692 H 446.246 1.13628 3.48546 0
M  V30 4693 H 445.894 -0.85524 4.95676 0
M  V30 4694 H 445.594 0.663406 5.83843 0
M  V30 4695 H 447.118 -0.231105 6.10162 0
M  V30 4696 H 448.532 1.92885 5.39878 0
M  V30 4697 H 446.929 2.71853 5.34991 0
M  V30 4698 H 447.999 2.82589 3.94045 0
M  V30 4699 N 449.342 -1.36122 0.79427 0
M  V30 4700 C 450.59 -1.98718 0.368177 0
M  V30 4701 C 450.911 -1.63345 -1.06506 0
M  V30 4702 O 450.181 -0.909825 -1.73491 0
M  V30 4703 H 448.761 -0.735038 0.133146 0
M  V30 4704 H 451.423 -1.66239 1.01739 0
M  V30 4705 H 450.519 -3.08633 0.463923 0
M  V30 4706 N 450.82 -0.546701 -1.47814 0
M  V30 4707 C 451.783 0.196287 -2.28358 0
M  V30 4708 C 452.783 0.852437 -1.36346 0
M  V30 4709 O 453.973 0.709913 -1.59078 0
M  V30 4710 C 451.105 1.28579 -3.15722 0
M  V30 4711 H 452.298 -0.511086 -2.95513 0
M  V30 4712 H 449.851 -0.303248 -1.5333 0
M  V30 4713 H 450.586 2.0259 -2.53235 0
M  V30 4714 H 450.371 0.820229 -3.83425 0
M  V30 4715 H 451.861 1.80793 -3.76435 0
M  V30 4716 N 452.299 1.55045 -0.282633 0
M  V30 4717 C 453.262 2.21515 0.588539 0
M  V30 4718 C 454.262 1.19535 1.07554 0
M  V30 4719 O 455.452 1.44391 0.974514 0
M  V30 4720 C 452.584 2.88704 1.8128 0
M  V30 4721 H 453.777 2.99899 0.00806397 0
M  V30 4722 H 451.33 1.56265 -0.0333067 0
M  V30 4723 H 452.065 2.14352 2.43359 0
M  V30 4724 H 451.85 3.63443 1.47144 0
M  V30 4725 H 453.34 3.39465 2.43214 0
M  V30 4726 N 453.777 0.010035 1.57597 0
M  V30 4727 C 455.017 -0.677084 1.9286 0
M  V30 4728 C 455.381 -1.70377 0.885192 0
M  V30 4729 O 456.582 -2.44199 1.12339 0
M  V30 4730 C 454.853 -1.29452 3.33132 0
M  V30 4731 S 456.412 -2.00537 3.90295 0
M  V30 4732 H 453.23 -0.223409 0.674989 0
M  V30 4733 H 455.832 0.0691289 1.95378 0
M  V30 4734 H 454.536 -0.534593 4.06903 0
M  V30 4735 H 454.067 -2.07845 3.34012 0
M  V30 4736 H 456.082 -3.28168 3.72183 0
M  V30 4737 N 455.255 -1.55392 -0.262866 0
M  V30 4738 C 456.165 -1.92077 -1.34698 0
M  V30 4739 C 457.181 -0.819227 -1.53508 0
M  V30 4740 O 458.357 -1.11921 -1.67439 0
M  V30 4741 C 455.422 -2.19407 -2.68443 0
M  V30 4742 C 454.483 -3.42905 -2.58292 0
M  V30 4743 C 453.716 -3.68921 -3.85659 0
M  V30 4744 O 453.939 -2.97275 -4.8681 0
M  V30 4745 O 452.873 -4.62455 -3.85252 0
M  V30 4746 H 456.699 -2.84384 -1.06581 0
M  V30 4747 H 454.284 -1.42069 -0.462264 0
M  V30 4748 H 456.166 -2.38365 -3.47506 0
M  V30 4749 H 454.841 -1.30282 -2.96325 0
M  V30 4750 H 453.748 -3.29272 -1.7757 0
M  V30 4751 H 455.081 -4.32282 -2.35358 0
M  V30 4752 N 456.733 0.527833 -1.48498 0
M  V30 4753 C 457.979 1.28545 -1.56857 0
M  V30 4754 C 458.312 1.92678 -0.242651 0
M  V30 4755 O 457.587 1.79394 0.751545 0
M  V30 4756 C 457.87 2.37314 -2.70839 0
M  V30 4757 C 457.723 1.77858 -4.13142 0
M  V30 4758 C 459.042 3.39068 -2.80573 0
M  V30 4759 H 456.161 0.466006 -0.570971 0
M  V30 4760 H 458.803 0.587784 -1.8068 0
M  V30 4761 H 456.953 2.96821 -2.50658 0
M  V30 4762 H 458.625 1.22385 -4.44769 0
M  V30 4763 H 456.868 1.08383 -4.20042 0
M  V30 4764 H 457.539 2.56624 -4.88721 0
M  V30 4765 H 460.015 2.89518 -2.98862 0
M  V30 4766 H 458.891 4.12566 -3.6205 0
M  V30 4767 H 459.152 3.9975 -1.88818 0
M  V30 4768 N 458.211 1.37122 0.776871 0
M  V30 4769 C 459.174 1.32301 1.8716 0
M  V30 4770 C 460.174 0.228099 1.59174 0
M  V30 4771 O 461.364 0.483642 1.67352 0
M  V30 4772 C 458.496 1.054 3.24197 0
M  V30 4773 H 459.689 2.29673 1.92848 0
M  V30 4774 H 457.242 1.22077 0.97606 0
M  V30 4775 H 457.977 0.0853872 3.24188 0
M  V30 4776 H 457.762 1.84648 3.45901 0
M  V30 4777 H 459.252 1.04664 4.04271 0
M  V30 4778 N 459.689 -1.00246 1.21608 0
M  V30 4779 C 460.621 -2.09244 0.935401 0
M  V30 4780 C 461.634 -1.62592 -0.0823594 0
M  V30 4781 O 462.823 -1.77865 0.150456 0
M  V30 4782 C 459.923 -3.36724 0.383453 0
M  V30 4783 C 459.096 -4.1245 1.45615 0
M  V30 4784 C 458.155 -5.18219 0.912991 0
M  V30 4785 O 457.181 -5.46337 1.59701 0
M  V30 4786 N 458.383 -5.7987 -0.270478 0
M  V30 4787 H 461.148 -2.33905 1.87373 0
M  V30 4788 H 458.709 -1.16748 1.12167 0
M  V30 4789 H 460.701 -4.047 0.00562157 0
M  V30 4790 H 459.271 -3.09201 -0.459758 0
M  V30 4791 H 458.491 -3.39241 2.00772 0
M  V30 4792 H 459.779 -4.59819 2.17817 0
M  V30 4793 H 459.177 -5.59381 -0.843195 0
M  V30 4794 H 457.734 -6.49126 -0.589794 0
M  V30 4795 N 461.167 -1.02423 -1.1978 0
M  V30 4796 C 462.099 -0.559152 -2.22275 0
M  V30 4797 C 463.112 0.36251 -1.58713 0
M  V30 4798 O 464.301 0.159641 -1.77785 0
M  V30 4799 C 461.401 0.205094 -3.38279 0
M  V30 4800 C 460.574 -0.720361 -4.31427 0
M  V30 4801 C 459.633 -0.00234368 -5.262 0
M  V30 4802 O 458.659 -0.627378 -5.65732 0
M  V30 4803 N 459.861 1.26996 -5.66438 0
M  V30 4804 H 462.626 -1.44064 -2.62804 0
M  V30 4805 H 460.187 -0.902692 -1.34399 0
M  V30 4806 H 462.179 0.694868 -3.9869 0
M  V30 4807 H 460.749 0.987947 -2.96578 0
M  V30 4808 H 459.969 -1.39031 -3.68869 0
M  V30 4809 H 461.257 -1.3495 -4.90577 0
M  V30 4810 H 460.655 1.79858 -5.36347 0
M  V30 4811 H 459.212 1.70432 -6.29123 0
M  V30 4812 N 462.645 1.35699 -0.801477 0
M  V30 4813 C 463.555 2.33661 -0.209691 0
M  V30 4814 C 464.571 1.6162 0.644591 0
M  V30 4815 O 465.747 1.93529 0.557545 0
M  V30 4816 C 462.812 3.40816 0.636033 0
M  V30 4817 C 461.873 4.28639 -0.238147 0
M  V30 4818 C 461.106 5.30676 0.567307 0
M  V30 4819 O 461.329 5.41174 1.8024 0
M  V30 4820 O 460.263 6.01887 -0.0391336 0
M  V30 4821 H 464.089 2.8606 -1.01996 0
M  V30 4822 H 461.674 1.38379 -0.563164 0
M  V30 4823 H 463.556 4.06301 1.11791 0
M  V30 4824 H 462.231 2.90696 1.42399 0
M  V30 4825 H 461.138 3.66152 -0.767044 0
M  V30 4826 H 462.471 4.82143 -0.989915 0
M  V30 4827 N 464.123 0.554532 1.47522 0
M  V30 4828 C 465.056 -0.242442 2.26908 0
M  V30 4829 C 466.034 -0.922722 1.33883 0
M  V30 4830 O 467.218 -0.942244 1.63261 0
M  V30 4831 C 464.345 -1.34525 3.10839 0
M  V30 4832 C 463.391 -0.773805 4.19422 0
M  V30 4833 S 464.224 0.377525 5.34168 0
M  V30 4834 C 465.38 -0.727164 6.21662 0
M  V30 4835 H 465.613 0.431218 2.94156 0
M  V30 4836 H 463.146 0.3408 1.50592 0
M  V30 4837 H 465.104 -1.97683 3.59766 0
M  V30 4838 H 463.765 -1.99073 2.42958 0
M  V30 4839 H 462.958 -1.60187 4.77866 0
M  V30 4840 H 462.56 -0.218448 3.73361 0
M  V30 4841 H 464.852 -1.61992 6.57849 0
M  V30 4842 H 465.795 -0.180135 7.07871 0
M  V30 4843 H 466.203 -1.01863 5.55233 0
M  V30 4844 N 465.601 -1.54893 0.290851 0
M  V30 4845 C 466.511 -2.26812 -0.59945 0
M  V30 4846 C 467.527 -1.29963 -1.15696 0
M  V30 4847 O 468.703 -1.62928 -1.18391 0
M  V30 4848 C 465.768 -2.98716 -1.75982 0
M  V30 4849 C 464.829 -4.1108 -1.2374 0
M  V30 4850 C 464.062 -4.79546 -2.34246 0
M  V30 4851 O 464.285 -4.47309 -3.53936 0
M  V30 4852 O 463.219 -5.67165 -2.01512 0
M  V30 4853 H 467.045 -3.03696 -0.0163561 0
M  V30 4854 H 464.63 -1.49289 0.0576755 0
M  V30 4855 H 466.512 -3.43851 -2.43607 0
M  V30 4856 H 465.187 -2.24737 -2.3297 0
M  V30 4857 H 464.094 -3.70367 -0.527163 0
M  V30 4858 H 465.427 -4.87007 -0.71307 0
M  V30 4859 N 467.08 -0.0183926 -1.57589 0
M  V30 4860 C 468.31 0.67207 -1.95363 0
M  V30 4861 C 468.718 1.66807 -0.892872 0
M  V30 4862 O 468.061 1.83204 0.134958 0
M  V30 4863 C 468.123 1.44397 -3.29226 0
M  V30 4864 C 467.787 0.607511 -4.52944 0
M  V30 4865 C 468.784 -0.112657 -5.19778 0
M  V30 4866 C 466.469 0.548068 -4.99301 0
M  V30 4867 C 468.463 -0.881057 -6.31281 0
M  V30 4868 C 466.15 -0.224044 -6.10689 0
M  V30 4869 C 467.148 -0.937323 -6.76538 0
M  V30 4870 O 466.836 -1.6968 -7.85789 0
M  V30 4871 H 466.568 0.190925 -0.648478 0
M  V30 4872 H 469.122 -0.0711994 -2.05277 0
M  V30 4873 H 467.352 2.23214 -3.15773 0
M  V30 4874 H 469.041 2.02152 -3.51979 0
M  V30 4875 H 469.807 -0.0759998 -4.8494 0
M  V30 4876 H 465.686 1.09281 -4.4786 0
M  V30 4877 H 469.23 -1.43832 -6.82611 0
M  V30 4878 H 465.127 -0.262457 -6.44966 0
M  V30 4879 H 465.895 -1.61544 -8.024 0
M  V30 4880 N 468.558 1.5553 0.254621 0
M  V30 4881 C 469.835 1.6774 1.00611 0
M  V30 4882 C 470.215 0.555993 2.03647 0
M  V30 4883 O 469.563 -0.441583 2.24193 0
M  V30 4884 C 469.773 3.07725 1.6464 0
M  V30 4885 C 471.121 3.66074 2.15116 0
M  V30 4886 O 472.145 3.10476 1.74595 0
M  V30 4887 O 471.004 4.63526 2.89493 0
M  V30 4888 H 468.098 0.681958 0.467828 0
M  V30 4889 H 470.644 1.67863 0.24902 0
M  V30 4890 H 469.416 3.80792 0.900734 0
M  V30 4891 H 469.039 3.1158 2.46989 0
M  V30 4892 N 470.036 -0.519951 1.48776 0
M  V30 4893 C 470.986 -1.61995 1.60442 0
M  V30 4894 C 471.97 -1.54155 0.460991 0
M  V30 4895 O 473.162 -1.62006 0.712965 0
M  V30 4896 C 470.291 -3.00683 1.65664 0
M  V30 4897 C 469.377 -3.1359 2.8552 0
M  V30 4898 N 469.768 -2.96441 4.09825 0
M  V30 4899 C 468.066 -3.44662 2.83062 0
M  V30 4900 C 468.767 -3.1303 4.90293 0
M  V30 4901 N 467.743 -3.41058 4.23297 0
M  V30 4902 H 471.545 -1.47362 2.54287 0
M  V30 4903 H 469.059 -0.725649 1.45286 0
M  V30 4904 H 471.056 -3.79712 1.72117 0
M  V30 4905 H 469.716 -3.16401 0.729425 0
M  V30 4906 H 470.727 -2.72999 4.40104 0
M  V30 4907 H 467.404 -3.66675 1.9964 0
M  V30 4908 H 468.794 -3.04424 5.98979 0
M  V30 4909 N 471.514 -1.37532 -0.769588 0
M  V30 4910 C 472.461 -1.3347 -1.88293 0
M  V30 4911 C 473.431 -0.199891 -1.64893 0
M  V30 4912 O 474.616 -0.389594 -1.8678 0
M  V30 4913 C 471.756 -1.14968 -3.25387 0
M  V30 4914 C 470.869 -2.37698 -3.60727 0
M  V30 4915 C 470.004 -2.12051 -4.8704 0
M  V30 4916 C 469.043 -3.30636 -5.15117 0
M  V30 4917 N 468.18 -3.04527 -6.3262 0
M  V30 4918 H 473.02 -2.28658 -1.911 0
M  V30 4919 H 470.557 -1.13622 -0.934257 0
M  V30 4920 H 472.515 -1.02261 -4.04473 0
M  V30 4921 H 471.145 -0.234263 -3.21949 0
M  V30 4922 H 470.197 -2.61137 -2.76608 0
M  V30 4923 H 471.509 -3.26131 -3.77413 0
M  V30 4924 H 470.663 -1.96388 -5.74035 0
M  V30 4925 H 469.402 -1.20959 -4.72462 0
M  V30 4926 H 468.407 -3.46836 -4.26597 0
M  V30 4927 H 469.632 -4.22582 -5.31603 0
M  V30 4928 H 467.578 -2.16067 -6.19396 0
M  V30 4929 H 467.495 -3.86503 -6.49732 0
M  V30 4930 H 468.763 -2.92485 -7.22546 0
M  V30 4931 N 472.992 0.995999 -1.22138 0
M  V30 4932 C 474.408 1.25917 -0.980667 0
M  V30 4933 C 474.608 1.98819 0.327604 0
M  V30 4934 O 473.664 2.29587 1.05101 0
M  V30 4935 C 474.977 2.07399 -2.17729 0
M  V30 4936 C 476.525 2.20594 -2.22052 0
M  V30 4937 C 477 3.05462 -3.41258 0
M  V30 4938 N 478.491 3.13049 -3.41401 0
M  V30 4939 C 479.226 3.78997 -4.30289 0
M  V30 4940 N 478.722 4.46899 -5.2939 0
M  V30 4941 N 480.515 3.75728 -4.18073 0
M  V30 4942 H 472.666 0.507158 -2.06256 0
M  V30 4943 H 474.929 0.28658 -0.903646 0
M  V30 4944 H 474.635 1.61191 -3.12586 0
M  V30 4945 H 474.509 3.08154 -2.17534 0
M  V30 4946 H 476.896 2.66017 -1.27745 0
M  V30 4947 H 476.977 1.1928 -2.26287 0
M  V30 4948 H 476.621 2.60739 -4.35864 0
M  V30 4949 H 476.551 4.06911 -3.34262 0
M  V30 4950 H 479.042 2.64721 -2.69688 0
M  V30 4951 H 479.355 4.94952 -5.935 0
M  V30 4952 H 477.7 4.45657 -5.33306 0
M  V30 4953 H 480.891 3.2184 -3.39907 0
M  V30 4954 H 481.064 4.26845 -4.87553 0
M  V30 4955 N 474.47 1.03057 1.19235 0
M  V30 4956 C 475.719 0.72326 1.88287 0
M  V30 4957 C 476.032 -0.751333 1.80594 0
M  V30 4958 O 477.238 -1.17176 2.44912 0
M  V30 4959 C 475.694 1.24338 3.3774 0
M  V30 4960 C 475.302 2.74587 3.53986 0
M  V30 4961 C 477.046 1.01213 4.12257 0
M  V30 4962 C 474.953 3.20009 4.97341 0
M  V30 4963 H 473.883 0.266848 0.705201 0
M  V30 4964 H 476.534 1.24509 1.34795 0
M  V30 4965 H 474.916 0.649457 3.90638 0
M  V30 4966 H 476.09 3.39649 3.11408 0
M  V30 4967 H 474.405 2.9601 2.9286 0
M  V30 4968 H 477.002 1.32675 5.17978 0
M  V30 4969 H 477.345 -0.051001 4.16269 0
M  V30 4970 H 477.878 1.57014 3.65501 0
M  V30 4971 H 474.617 4.25659 4.98493 0
M  V30 4972 H 474.137 2.59676 5.40674 0
M  V30 4973 H 475.816 3.13447 5.66003 0
M  V30 4974 N 475.948 -1.35272 0.808662 0
M  V30 4975 C 477.173 -2.03477 0.401475 0
M  V30 4976 C 477.598 -1.60537 -0.980279 0
M  V30 4977 O 476.956 -0.78304 -1.63518 0
M  V30 4978 C 477.004 -3.57181 0.495354 0
M  V30 4979 O 476.108 -4.09474 -0.490397 0
M  V30 4980 H 475.449 -0.642561 0.167366 0
M  V30 4981 H 477.979 -1.72824 1.09512 0
M  V30 4982 H 477.989 -4.06356 0.365912 0
M  V30 4983 H 476.664 -3.87784 1.5032 0
M  V30 4984 H 475.241 -3.71516 -0.321023 0
M  V30 4985 N 477.426 -0.562348 -1.47226 0
M  V30 4986 C 478.373 0.182461 -2.30078 0
M  V30 4987 C 479.343 0.903503 -1.39377 0
M  V30 4988 O 480.528 0.898188 -1.68337 0
M  V30 4989 C 477.668 1.20322 -3.23445 0
M  V30 4990 C 476.781 0.487717 -4.29238 0
M  V30 4991 C 475.916 1.49422 -5.09752 0
M  V30 4992 C 474.955 0.763976 -6.07314 0
M  V30 4993 N 474.092 1.71755 -6.80768 0
M  V30 4994 H 478.932 -0.530169 -2.93246 0
M  V30 4995 H 476.469 -0.273276 -1.44539 0
M  V30 4996 H 478.427 1.80768 -3.76004 0
M  V30 4997 H 477.057 1.88382 -2.6213 0
M  V30 4998 H 476.109 -0.231374 -3.79696 0
M  V30 4999 H 477.421 -0.0841003 -4.98729 0
M  V30 5000 H 476.575 2.17206 -5.66486 0
M  V30 5001 H 475.314 2.09995 -4.40174 0
M  V30 5002 H 474.319 0.0722344 -5.49753 0
M  V30 5003 H 475.544 0.16391 -6.78902 0
M  V30 5004 H 473.49 2.31177 -6.13916 0
M  V30 5005 H 473.407 1.19802 -7.46447 0
M  V30 5006 H 474.675 2.38638 -7.42073 0
M  V30 5007 N 478.904 1.54736 -0.299062 0
M  V30 5008 C 479.834 2.26409 0.571085 0
M  V30 5009 C 480.815 1.2629 1.13951 0
M  V30 5010 O 482 1.55059 1.16921 0
M  V30 5011 C 479.13 3.00338 1.74396 0
M  V30 5012 C 478.084 4.07588 1.30599 0
M  V30 5013 C 477.41 4.69222 2.56387 0
M  V30 5014 C 478.71 5.20455 0.438645 0
M  V30 5015 H 480.404 2.99388 -0.0266991 0
M  V30 5016 H 477.95 1.43993 -0.0142812 0
M  V30 5017 H 479.903 3.49198 2.35878 0
M  V30 5018 H 478.627 2.24934 2.36796 0
M  V30 5019 H 477.286 3.59575 0.71424 0
M  V30 5020 H 476.934 3.9046 3.17097 0
M  V30 5021 H 476.634 5.41653 2.27784 0
M  V30 5022 H 478.158 5.20844 3.18675 0
M  V30 5023 H 479.572 5.65221 0.959085 0
M  V30 5024 H 477.969 5.99594 0.246466 0
M  V30 5025 H 479.039 4.8192 -0.536738 0
M  V30 5026 N 480.382 0.0267497 1.57577 0
M  V30 5027 C 481.607 -0.666227 1.96408 0
M  V30 5028 C 482.032 -1.65004 0.903071 0
M  V30 5029 O 481.39 -1.80787 -0.136263 0
M  V30 5030 C 481.438 -1.35101 3.34335 0
M  V30 5031 O 480.542 -2.46623 3.30531 0
M  V30 5032 H 479.883 -0.175206 0.640468 0
M  V30 5033 H 482.413 0.0878977 2.04411 0
M  V30 5034 H 482.423 -1.70834 3.70513 0
M  V30 5035 H 481.098 -0.629844 4.11103 0
M  V30 5036 H 479.675 -2.13019 3.06068 0
M  V30 5037 N 481.861 -1.55662 -0.24637 0
M  V30 5038 C 482.771 -1.93495 -1.32653 0
M  V30 5039 C 483.787 -0.835462 -1.5263 0
M  V30 5040 O 484.963 -1.1369 -1.66242 0
M  V30 5041 C 482.028 -2.22242 -2.66101 0
M  V30 5042 C 481.089 -3.45625 -2.54641 0
M  V30 5043 C 480.322 -3.72991 -3.81724 0
M  V30 5044 O 480.545 -3.02421 -4.8363 0
M  V30 5045 O 479.479 -4.66515 -3.80325 0
M  V30 5046 H 483.305 -2.85498 -1.03559 0
M  V30 5047 H 480.89 -1.42551 -0.44717 0
M  V30 5048 H 482.772 -2.42037 -3.44958 0
M  V30 5049 H 481.447 -1.33417 -2.94926 0
M  V30 5050 H 480.354 -3.31136 -1.74067 0
M  V30 5051 H 481.687 -4.34754 -2.3076 0
M  V30 5052 N 483.339 0.512053 -1.4905 0
M  V30 5053 C 484.755 0.84224 -1.35567 0
M  V30 5054 C 484.955 1.97878 -0.380319 0
M  V30 5055 O 484.011 2.51769 0.19201 0
M  V30 5056 C 485.324 1.19286 -2.76028 0
M  V30 5057 C 486.872 1.30171 -2.84648 0
M  V30 5058 C 487.347 1.68568 -4.25851 0
M  V30 5059 N 488.838 1.75638 -4.28609 0
M  V30 5060 C 489.573 2.06769 -5.34821 0
M  V30 5061 N 489.069 2.36201 -6.51292 0
M  V30 5062 N 490.862 2.07927 -5.22229 0
M  V30 5063 H 483.013 -0.237574 -2.11067 0
M  V30 5064 H 485.276 -0.0436747 -0.946993 0
M  V30 5065 H 484.982 0.431199 -3.49047 0
M  V30 5066 H 484.856 2.13889 -3.10695 0
M  V30 5067 H 487.243 2.05411 -2.11873 0
M  V30 5068 H 487.324 0.336457 -2.53578 0
M  V30 5069 H 486.968 0.938824 -4.99148 0
M  V30 5070 H 486.898 2.66174 -4.54377 0
M  V30 5071 H 489.389 1.55097 -3.44606 0
M  V30 5072 H 489.702 2.59112 -7.28066 0
M  V30 5073 H 488.047 2.33681 -6.54536 0
M  V30 5074 H 491.238 1.84403 -4.30248 0
M  V30 5075 H 491.411 2.31856 -6.05101 0
M  V30 5076 N 484.817 1.37938 0.762283 0
M  V30 5077 C 485.747 1.37176 1.88958 0
M  V30 5078 C 486.728 0.238945 1.68413 0
M  V30 5079 O 487.913 0.440726 1.89133 0
M  V30 5080 C 485.043 1.18742 3.2637 0
M  V30 5081 C 483.997 2.29136 3.61498 0
M  V30 5082 C 483.323 1.95816 4.97554 0
M  V30 5083 C 484.623 3.71363 3.6727 0
M  V30 5084 H 486.317 2.31509 1.89853 0
M  V30 5085 H 483.863 1.11438 0.912005 0
M  V30 5086 H 485.816 1.16837 4.04879 0
M  V30 5087 H 484.54 0.208683 3.25933 0
M  V30 5088 H 483.199 2.30213 2.85303 0
M  V30 5089 H 482.847 0.964475 4.93667 0
M  V30 5090 H 482.547 2.69745 5.22026 0
M  V30 5091 H 484.071 1.95513 5.78452 0
M  V30 5092 H 485.485 3.72364 4.35911 0
M  V30 5093 H 483.882 4.44425 4.03245 0
M  V30 5094 H 484.952 4.04305 2.67704 0
M  V30 5095 N 486.295 -0.989507 1.22664 0
M  V30 5096 C 487.544 -1.72375 1.04737 0
M  V30 5097 C 487.857 -1.91096 -0.417316 0
M  V30 5098 O 489.063 -2.6188 -0.716334 0
M  V30 5099 C 487.519 -3.10161 1.82561 0
M  V30 5100 C 487.127 -2.99358 3.333 0
M  V30 5101 C 488.871 -3.87607 1.73093 0
M  V30 5102 C 486.778 -4.32319 4.03552 0
M  V30 5103 H 485.708 -0.646326 0.388302 0
M  V30 5104 H 488.359 -1.10437 1.46546 0
M  V30 5105 H 486.741 -3.728 1.33552 0
M  V30 5106 H 487.915 -2.45863 3.89728 0
M  V30 5107 H 486.23 -2.35392 3.43481 0
M  V30 5108 H 488.827 -4.86025 2.22899 0
M  V30 5109 H 489.17 -4.10509 0.691976 0
M  V30 5110 H 489.703 -3.31652 2.19663 0
M  V30 5111 H 486.442 -4.14616 5.07714 0
M  V30 5112 H 485.962 -4.85714 3.51911 0
M  V30 5113 H 487.641 -5.01051 4.09337 0
M  V30 5114 N 487.773 -1.03688 -1.18687 0
M  V30 5115 C 488.705 -0.582696 -2.21669 0
M  V30 5116 C 489.718 0.345656 -1.59088 0
M  V30 5117 O 490.907 0.140776 -1.77944 0
M  V30 5118 C 488.007 0.169204 -3.38477 0
M  V30 5119 C 487.18 -0.766079 -4.30639 0
M  V30 5120 C 486.239 -0.0581541 -5.26168 0
M  V30 5121 O 485.265 -0.687346 -5.65035 0
M  V30 5122 N 486.467 1.20981 -5.67753 0
M  V30 5123 H 489.232 -1.46843 -2.61261 0
M  V30 5124 H 486.793 -0.916896 -1.33434 0
M  V30 5125 H 488.785 0.652543 -3.99405 0
M  V30 5126 H 487.355 0.956435 -2.97609 0
M  V30 5127 H 486.575 -1.42935 -3.67373 0
M  V30 5128 H 487.863 -1.40146 -4.89118 0
M  V30 5129 H 487.261 1.74159 -5.38224 0
M  V30 5130 H 485.818 1.6375 -6.30896 0
M  V30 5131 N 489.251 1.34841 -0.815825 0
M  V30 5132 C 490.199 2.31549 -0.220888 0
M  V30 5133 C 491.193 1.5707 0.634457 0
M  V30 5134 O 492.399 1.72125 0.526589 0
M  V30 5135 H 488.774 0.750153 -0.0526782 0
M  V30 5136 H 490.745 2.7926 -1.05149 0
M  V30 5137 C 489.494 3.42335 0.608427 0
M  V30 5138 H 488.817 3.9978 -0.0404121 0
M  V30 5139 H 490.257 4.12258 0.990931 0
M  V30 5140 C 488.716 2.86173 1.77782 0
M  V30 5141 O 489.246 2.80474 2.87571 0
M  V30 5142 N 487.452 2.43093 1.59229 0
M  V30 5143 H 486.999 2.47928 0.699237 0
M  V30 5144 H 486.957 2.05866 2.37627 0
M  V30 5145 N 490.729 0.570148 1.46925 0
M  V30 5146 C 491.978 0.0487352 2.01641 0
M  V30 5147 C 492.291 -1.31433 1.44861 0
M  V30 5148 O 493.497 -1.92638 1.91318 0
M  V30 5149 C 491.953 0.0365817 3.59881 0
M  V30 5150 C 491.561 1.39719 4.25655 0
M  V30 5151 C 493.305 -0.431545 4.22301 0
M  V30 5152 C 491.212 1.34345 5.75939 0
M  V30 5153 H 490.142 0.0144492 0.753862 0
M  V30 5154 H 492.793 0.719928 1.68788 0
M  V30 5155 H 491.175 -0.700522 3.89755 0
M  V30 5156 H 492.349 2.15303 4.07408 0
M  V30 5157 H 490.664 1.80431 3.75278 0
M  V30 5158 H 493.261 -0.490354 5.32447 0
M  V30 5159 H 493.604 -1.44638 3.90366 0
M  V30 5160 H 494.137 0.251102 3.97007 0
M  V30 5161 H 490.876 2.33469 6.12513 0
M  V30 5162 H 490.396 0.629615 5.96486 0
M  V30 5163 H 492.075 1.051 6.38407 0
M  V30 5164 N 492.207 -1.54576 0.307264 0
M  V30 5165 C 493.14 -2.19946 -0.608195 0
M  V30 5166 C 494.118 -1.17096 -1.12815 0
M  V30 5167 O 495.302 -1.45766 -1.19518 0
M  V30 5168 C 492.429 -2.84826 -1.8328 0
M  V30 5169 C 491.475 -4.01256 -1.44554 0
M  V30 5170 S 492.308 -5.33197 -0.49612 0
M  V30 5171 C 493.464 -6.01563 -1.72838 0
M  V30 5172 H 493.697 -2.97253 -0.0528544 0
M  V30 5173 H 491.23 -1.54129 0.0913837 0
M  V30 5174 H 493.188 -3.22832 -2.53554 0
M  V30 5175 H 491.849 -2.07353 -2.35931 0
M  V30 5176 H 491.042 -4.45457 -2.35762 0
M  V30 5177 H 490.644 -3.6484 -0.822671 0
M  V30 5178 H 492.936 -6.22751 -2.6681 0
M  V30 5179 H 493.879 -6.9552 -1.32882 0
M  V30 5180 H 494.287 -5.31279 -1.90795 0
M  V30 5181 N 493.685 -0.035106 -1.57561 0
M  V30 5182 C 494.632 0.94474 -2.10578 0
M  V30 5183 C 495.602 1.3192 -1.00927 0
M  V30 5184 O 496.787 1.41147 -1.28382 0
M  V30 5185 C 493.927 2.21982 -2.64231 0
M  V30 5186 C 493.04 1.90128 -3.87911 0
M  V30 5187 C 492.175 3.11975 -4.29936 0
M  V30 5188 C 491.214 2.75968 -5.46359 0
M  V30 5189 N 490.351 3.90459 -5.83512 0
M  V30 5190 H 495.191 0.485717 -2.94015 0
M  V30 5191 H 492.728 0.228143 -1.4532 0
M  V30 5192 H 494.686 2.96572 -2.9343 0
M  V30 5193 H 493.316 2.6549 -1.83616 0
M  V30 5194 H 492.368 1.05755 -3.65404 0
M  V30 5195 H 493.68 1.59613 -4.72573 0
M  V30 5196 H 492.834 3.9488 -4.60603 0
M  V30 5197 H 491.573 3.45657 -3.44053 0
M  V30 5198 H 490.578 1.91478 -5.1538 0
M  V30 5199 H 491.803 2.43497 -6.33945 0
M  V30 5200 H 489.749 4.23971 -5.00584 0
M  V30 5201 H 489.666 3.63588 -6.62827 0
M  V30 5202 H 490.934 4.7405 -6.18787 0
M  V30 5203 N 495.163 1.55791 0.238111 0
M  V30 5204 C 496.388 1.8244 0.986432 0
M  V30 5205 C 496.813 0.613314 1.7782 0
M  V30 5206 O 496.171 -0.437767 1.75935 0
M  V30 5207 C 496.219 3.06917 1.893 0
M  V30 5208 O 495.323 2.84449 2.98601 0
M  V30 5209 H 494.664 0.601975 0.280218 0
M  V30 5210 H 497.194 2.02987 0.256437 0
M  V30 5211 H 497.204 3.36583 2.30598 0
M  V30 5212 H 495.879 3.947 1.31091 0
M  V30 5213 H 494.456 2.65972 2.61368 0
M  V30 5214 N 496.642 -0.504142 1.49319 0
M  V30 5215 C 497.572 -1.61473 1.68667 0
M  V30 5216 C 498.553 -1.61455 0.535378 0
M  V30 5217 O 499.738 -1.78245 0.770868 0
M  V30 5218 C 496.868 -2.99971 1.75028 0
M  V30 5219 C 495.822 -3.14854 2.89916 0
M  V30 5220 C 495.148 -4.54671 2.81387 0
M  V30 5221 C 496.448 -2.95176 4.30893 0
M  V30 5222 H 498.142 -1.45535 2.61648 0
M  V30 5223 H 495.688 -0.698711 1.25913 0
M  V30 5224 H 497.641 -3.77562 1.8715 0
M  V30 5225 H 496.365 -3.1699 0.786441 0
M  V30 5226 H 495.024 -2.39687 2.77391 0
M  V30 5227 H 494.672 -4.68562 1.82917 0
M  V30 5228 H 494.372 -4.6557 3.58494 0
M  V30 5229 H 495.896 -5.34327 2.95512 0
M  V30 5230 H 497.31 -3.62538 4.44116 0
M  V30 5231 H 495.707 -3.17549 5.09198 0
M  V30 5232 H 496.777 -1.91332 4.45556 0
M  V30 5233 N 498.12 -1.38341 -0.754957 0
M  V30 5234 C 499.531 -1.30803 -1.3322 0
M  V30 5235 C 499.882 0.0368 -1.96165 0
M  V30 5236 O 499.007 0.938844 -1.94974 0
M  V30 5237 C 499.602 -2.3688 -2.42225 0
M  V30 5238 C 498.161 -2.32925 -2.95674 0
M  V30 5239 C 497.308 -2.19819 -1.69042 0
M  V30 5240 H 500.259 -1.48719 -0.553937 0
M  V30 5241 H 500.28 -2.02517 -3.22129 0
M  V30 5242 H 499.792 -3.34747 -1.96383 0
M  V30 5243 H 497.893 -1.38635 -3.45848 0
M  V30 5244 H 498.006 -3.27008 -3.50146 0
M  V30 5245 H 496.37 -1.66648 -1.92615 0
M  V30 5246 H 497.153 -3.19625 -1.25279 0
M  V30 5247 N 499.598 0.982988 -1.23187 0
M  V30 5248 C 500.875 1.69814 -0.970707 0
M  V30 5249 C 501.255 2.04811 0.511424 0
M  V30 5250 O 500.603 1.73924 1.48198 0
M  V30 5251 C 500.813 2.94143 -1.87831 0
M  V30 5252 C 502.161 3.66712 -2.14026 0
M  V30 5253 O 503.185 3.04171 -1.8536 0
M  V30 5254 O 502.044 4.79258 -2.62629 0
M  V30 5255 H 499.138 0.741659 -0.365884 0
M  V30 5256 H 501.684 1.03844 -1.34218 0
M  V30 5257 H 500.456 2.64858 -2.88038 0
M  V30 5258 H 500.079 3.6785 -1.50905 0
M  V30 5259 N 501.076 1.04316 1.18135 0
M  V30 5260 C 502.322 0.749128 1.88457 0
M  V30 5261 C 502.655 -0.72149 1.803 0
M  V30 5262 O 501.93 -1.52676 1.205 0
M  V30 5263 C 502.213 1.21905 3.38838 0
M  V30 5264 C 502.066 2.75195 3.55792 0
M  V30 5265 C 503.385 0.811085 4.32561 0
M  V30 5266 H 500.504 0.273611 0.684329 0
M  V30 5267 H 503.146 1.29561 1.38975 0
M  V30 5268 H 501.296 0.754137 3.8111 0
M  V30 5269 H 502.968 3.29743 3.22595 0
M  V30 5270 H 501.211 3.14899 2.98364 0
M  V30 5271 H 501.882 3.03135 4.61317 0
M  V30 5272 H 504.358 1.21118 3.98082 0
M  V30 5273 H 503.234 1.16761 5.36338 0
M  V30 5274 H 503.495 -0.285596 4.41177 0
M  V30 5275 N 502.554 -1.34406 0.822964 0
M  V30 5276 C 503.8 -1.98578 0.411666 0
M  V30 5277 C 504.133 -1.65093 -1.02264 0
M  V30 5278 O 503.408 -0.92258 -1.71227 0
M  V30 5279 C 503.691 -3.54823 0.614235 0
M  V30 5280 C 503.544 -3.9805 2.09466 0
M  V30 5281 C 504.863 -4.40071 0.050221 0
M  V30 5282 H 501.982 -0.721355 0.151047 0
M  V30 5283 H 504.624 -1.59301 1.03554 0
M  V30 5284 H 502.774 -3.88411 0.0831774 0
M  V30 5285 H 504.446 -3.74795 2.68936 0
M  V30 5286 H 502.689 -3.4836 2.5851 0
M  V30 5287 H 503.36 -5.06819 2.18721 0
M  V30 5288 H 505.836 -4.13037 0.503953 0
M  V30 5289 H 504.712 -5.48452 0.221759 0
M  V30 5290 H 504.973 -4.29576 -1.04482 0
M  V30 5291 N 504.032 -0.577932 -1.46621 0
M  V30 5292 C 504.965 0.206312 -2.27265 0
M  V30 5293 C 505.943 0.901306 -1.35334 0
M  V30 5294 O 507.127 0.916151 -1.64739 0
M  V30 5295 C 504.254 1.29563 -3.1294 0
M  V30 5296 C 503.3 0.706981 -4.206 0
M  V30 5297 S 504.133 -0.462459 -5.33499 0
M  V30 5298 C 505.289 0.628171 -6.2274 0
M  V30 5299 H 505.522 -0.477961 -2.93433 0
M  V30 5300 H 503.055 -0.364715 -1.50031 0
M  V30 5301 H 505.013 1.91935 -3.62865 0
M  V30 5302 H 503.674 1.95183 -2.46095 0
M  V30 5303 H 502.867 1.52565 -4.80354 0
M  V30 5304 H 502.469 0.159022 -3.73662 0
M  V30 5305 H 504.761 1.51506 -6.60342 0
M  V30 5306 H 505.704 0.0674961 -7.08068 0
M  V30 5307 H 506.112 0.930167 -5.56784 0
M  V30 5308 N 505.51 1.54411 -0.315457 0
M  V30 5309 C 506.458 2.25514 0.569771 0
M  V30 5310 C 507.452 1.2663 1.12522 0
M  V30 5311 O 508.658 1.44434 1.07419 0
M  V30 5312 H 505.033 0.724257 0.202376 0
M  V30 5313 H 507.004 2.98354 -0.0522895 0
M  V30 5314 C 505.753 3.02004 1.72305 0
M  V30 5315 H 505.076 3.77906 1.30488 0
M  V30 5316 H 506.516 3.55014 2.31821 0
M  V30 5317 C 504.975 2.09822 2.63583 0
M  V30 5318 O 505.505 1.67574 3.65078 0
M  V30 5319 N 503.711 1.75478 2.31637 0
M  V30 5320 H 503.258 2.10032 1.49145 0
M  V30 5321 H 503.216 1.14079 2.92973 0
M  V30 5322 N 506.988 0.0434614 1.5754 0
M  V30 5323 C 508.236 -0.630786 1.92004 0
M  V30 5324 C 508.557 -1.71836 0.921807 0
M  V30 5325 O 507.827 -1.9587 -0.034522 0
M  V30 5326 H 506.407 -0.235988 0.708745 0
M  V30 5327 H 509.069 0.0946462 1.9467 0
M  V30 5328 H 508.165 -1.07434 2.93026 0
M  V30 5329 N 508.466 -1.55915 -0.229846 0
M  V30 5330 C 509.743 -1.6932 -0.979295 0
M  V30 5331 C 510.123 -0.588321 -2.02736 0
M  V30 5332 O 509.471 0.40586 -2.24867 0
M  V30 5333 C 509.681 -3.10305 -1.59724 0
M  V30 5334 C 511.029 -3.6945 -2.09264 0
M  V30 5335 O 512.053 -3.13214 -1.69633 0
M  V30 5336 O 510.912 -4.68072 -2.82082 0
M  V30 5337 H 508.006 -0.689314 -0.456919 0
M  V30 5338 H 510.552 -1.68238 -0.222283 0
M  V30 5339 H 509.324 -3.82177 -0.840039 0
M  V30 5340 H 508.947 -3.1547 -2.42001 0
M  V30 5341 N 509.944 0.496216 -1.49584 0
M  V30 5342 C 511.355 1.07765 -1.52459 0
M  V30 5343 C 511.706 1.93679 -0.31353 0
M  V30 5344 O 510.831 2.08588 0.576186 0
M  V30 5345 C 511.426 1.96111 -2.76271 0
M  V30 5346 C 509.985 2.49409 -2.81908 0
M  V30 5347 C 509.132 1.27142 -2.46435 0
M  V30 5348 H 512.083 0.279914 -1.56212 0
M  V30 5349 H 512.104 2.80862 -2.56704 0
M  V30 5350 H 511.616 1.33555 -3.64396 0
M  V30 5351 H 509.717 3.1559 -1.98074 0
M  V30 5352 H 509.83 2.86234 -3.84196 0
M  V30 5353 H 508.194 1.59818 -1.98319 0
M  V30 5354 H 508.977 0.662866 -3.3684 0
M  V30 5355 N 511.423 1.38739 0.74761 0
M  V30 5356 C 512.37 1.36449 1.86146 0
M  V30 5357 C 513.34 0.226098 1.64554 0
M  V30 5358 O 514.525 0.41926 1.86137 0
M  V30 5359 C 511.665 1.2013 3.23516 0
M  V30 5360 C 510.778 2.43407 3.56899 0
M  V30 5361 C 509.913 2.19773 4.83605 0
M  V30 5362 C 508.952 3.3879 5.09792 0
M  V30 5363 N 508.089 3.14553 6.27695 0
M  V30 5364 H 512.929 2.3167 1.87438 0
M  V30 5365 H 510.466 1.15094 0.916063 0
M  V30 5366 H 512.424 1.08683 4.02795 0
M  V30 5367 H 511.054 0.285453 3.21535 0
M  V30 5368 H 510.106 2.65504 2.72418 0
M  V30 5369 H 511.418 3.32094 3.72176 0
M  V30 5370 H 510.572 2.05496 5.70838 0
M  V30 5371 H 509.311 1.28461 4.70478 0
M  V30 5372 H 508.316 3.53579 4.21025 0
M  V30 5373 H 509.541 4.30986 5.24812 0
M  V30 5374 H 507.487 2.25893 6.1588 0
M  V30 5375 H 507.404 3.96791 6.435 0
M  V30 5376 H 508.672 3.03943 7.17801 0
M  V30 5377 N 512.901 -0.976442 1.23707 0
M  V30 5378 C 513.851 -2.0544 0.988851 0
M  V30 5379 C 514.835 -1.60762 -0.0665901 0
M  V30 5380 O 516.027 -1.76396 0.14604 0
M  V30 5381 C 513.156 -3.38258 0.586223 0
M  V30 5382 C 512.242 -3.89523 1.67728 0
M  V30 5383 N 512.633 -4.13823 2.90834 0
M  V30 5384 C 510.931 -4.18097 1.55277 0
M  V30 5385 C 511.632 -4.55731 3.61502 0
M  V30 5386 N 510.608 -4.60394 2.8903 0
M  V30 5387 H 514.41 -2.22191 1.92376 0
M  V30 5388 H 511.924 -1.15954 1.13704 0
M  V30 5389 H 513.921 -4.15075 0.389658 0
M  V30 5390 H 512.581 -3.22898 -0.341594 0
M  V30 5391 H 513.592 -4.01529 3.271 0
M  V30 5392 H 510.269 -4.11719 0.692351 0
M  V30 5393 H 511.659 -4.83018 4.67059 0
M  V30 5394 N 514.379 -1.04941 -1.1758 0
M  V30 5395 C 515.329 -0.618378 -2.19454 0
M  V30 5396 C 516.313 0.343813 -1.57184 0
M  V30 5397 O 517.505 0.16145 -1.76262 0
M  V30 5398 C 514.634 0.00803847 -3.43299 0
M  V30 5399 C 513.72 -0.977827 -4.12673 0
M  V30 5400 N 514.111 -2.14826 -4.57912 0
M  V30 5401 C 512.409 -0.805748 -4.38661 0
M  V30 5402 C 513.11 -2.77174 -5.11419 0
M  V30 5403 N 512.086 -2.04989 -5.03468 0
M  V30 5404 H 515.888 -1.51018 -2.52132 0
M  V30 5405 H 513.402 -0.919201 -1.33882 0
M  V30 5406 H 515.399 0.334584 -4.15555 0
M  V30 5407 H 514.059 0.895272 -3.12114 0
M  V30 5408 H 515.07 -2.52673 -4.52081 0
M  V30 5409 H 511.747 0.0306506 -4.17489 0
M  V30 5410 H 513.137 -3.76416 -5.56562 0
M  V30 5411 N 515.857 1.33968 -0.830081 0
M  V30 5412 C 517.087 2.01987 -0.434142 0
M  V30 5413 C 517.495 1.62639 0.96671 0
M  V30 5414 O 516.838 0.831151 1.63822 0
M  V30 5415 C 516.9 3.5648 -0.465018 0
M  V30 5416 C 516.564 4.19176 -1.82045 0
M  V30 5417 C 517.561 4.39181 -2.78237 0
M  V30 5418 C 515.246 4.55792 -2.11089 0
M  V30 5419 C 517.24 4.94937 -4.01642 0
M  V30 5420 C 514.927 5.11258 -3.34752 0
M  V30 5421 C 515.925 5.30775 -4.29845 0
M  V30 5422 O 515.613 5.85064 -5.51322 0
M  V30 5423 H 515.345 0.653847 -0.171639 0
M  V30 5424 H 517.899 1.72066 -1.12171 0
M  V30 5425 H 516.129 3.8569 0.279284 0
M  V30 5426 H 517.818 4.05804 -0.0881334 0
M  V30 5427 H 518.584 4.11249 -2.57097 0
M  V30 5428 H 514.463 4.39901 -1.3787 0
M  V30 5429 H 518.007 5.10086 -4.75876 0
M  V30 5430 H 513.904 5.38619 -3.55753 0
M  V30 5431 H 514.672 6.03489 -5.5294 0
M  V30 5432 N 517.335 0.585699 1.46312 0
M  V30 5433 C 518.746 0.159938 1.86014 0
M  V30 5434 C 519.097 -1.27775 1.48889 0
M  V30 5435 O 518.222 -1.96559 0.90519 0
M  V30 5436 C 518.817 0.283485 3.37612 0
M  V30 5437 C 517.376 -0.0874256 3.76298 0
M  V30 5438 C 516.523 0.618055 2.70325 0
M  V30 5439 H 519.474 0.793737 1.37425 0
M  V30 5440 H 519.495 -0.490348 3.77327 0
M  V30 5441 H 519.007 1.32995 3.64601 0
M  V30 5442 H 517.108 -1.13391 3.54927 0
M  V30 5443 H 517.221 0.290975 4.78216 0
M  V30 5444 H 515.585 0.057993 2.54634 0
M  V30 5445 H 516.368 1.66623 3.00153 0
M  V30 5446 N 518.813 -1.54241 0.323641 0
M  V30 5447 C 520.061 -2.00174 -0.278359 0
M  V30 5448 C 520.382 -1.2134 -1.52648 0
M  V30 5449 O 519.652 -0.315244 -1.93347 0
M  V30 5450 H 518.232 -0.739463 -0.105845 0
M  V30 5451 H 520.894 -1.89864 0.440204 0
M  V30 5452 H 519.99 -3.07486 -0.5347 0
M  V30 5453 N 520.291 -0.0518155 -1.57515 0
M  V30 5454 C 521.531 0.625712 -1.94587 0
M  V30 5455 C 521.895 1.6797 -0.930053 0
M  V30 5456 O 523.096 2.41135 -1.18774 0
M  V30 5457 C 521.367 1.20574 -3.36447 0
M  V30 5458 S 522.926 1.90118 -3.95475 0
M  V30 5459 H 519.744 0.205434 -0.680675 0
M  V30 5460 H 522.346 -0.120906 -1.95126 0
M  V30 5461 H 521.05 0.426521 -4.08178 0
M  V30 5462 H 520.581 1.98916 -3.39405 0
M  V30 5463 H 522.596 3.18184 -3.80753 0
M  V30 5464 N 521.769 1.56035 0.221574 0
M  V30 5465 C 523.018 1.78245 0.944016 0
M  V30 5466 C 523.331 0.620371 1.85501 0
M  V30 5467 O 524.537 0.726103 2.6161 0
M  V30 5468 C 522.993 3.15659 1.7288 0
M  V30 5469 C 522.601 4.39591 0.863942 0
M  V30 5470 C 524.345 3.47195 2.44246 0
M  V30 5471 C 522.252 5.6803 1.64607 0
M  V30 5472 H 521.182 0.664547 0.356222 0
M  V30 5473 H 523.833 1.8243 0.197904 0
M  V30 5474 H 522.215 3.0565 2.51781 0
M  V30 5475 H 523.389 4.60655 0.115464 0
M  V30 5476 H 521.704 4.15572 0.262407 0
M  V30 5477 H 524.301 4.40381 3.03263 0
M  V30 5478 H 524.644 2.69693 3.1713 0
M  V30 5479 H 525.177 3.58533 1.72334 0
M  V30 5480 H 521.916 6.48425 0.960507 0
M  V30 5481 H 521.436 5.51027 2.36917 0
M  V30 5482 H 523.115 6.08203 2.20675 0
M  V30 5483 N 523.247 -0.488276 1.49845 0
M  V30 5484 C 524.195 -1.60917 1.67954 0
M  V30 5485 C 525.189 -1.6038 0.54539 0
M  V30 5486 O 526.395 -1.64736 0.7254 0
M  V30 5487 H 522.77 -0.533658 0.529824 0
M  V30 5488 H 524.741 -1.428 2.62013 0
M  V30 5489 C 523.49 -2.98975 1.77509 0
M  V30 5490 H 522.813 -3.00099 2.6416 0
M  V30 5491 H 524.253 -3.76906 1.9421 0
M  V30 5492 C 522.712 -3.3282 0.522745 0
M  V30 5493 O 523.242 -4.00208 -0.345866 0
M  V30 5494 N 521.448 -2.8808 0.381882 0
M  V30 5495 H 520.995 -2.33415 1.08974 0
M  V30 5496 H 520.953 -3.11091 -0.454929 0
M  V30 5497 N 524.725 -1.39134 -0.740242 0
M  V30 5498 C 525.655 -1.40165 -1.86751 0
M  V30 5499 C 526.636 -0.265708 -1.68012 0
M  V30 5500 O 527.821 -0.47076 -1.88408 0
M  V30 5501 C 524.951 -1.2392 -3.2444 0
M  V30 5502 C 523.905 -2.34858 -3.57807 0
M  V30 5503 C 523.231 -2.03707 -4.94376 0
M  V30 5504 C 524.531 -3.77159 -3.61315 0
M  V30 5505 H 526.225 -2.345 -1.86145 0
M  V30 5506 H 523.771 -1.12875 -0.89416 0
M  V30 5507 H 525.724 -1.23263 -4.02969 0
M  V30 5508 H 524.448 -0.26051 -3.25559 0
M  V30 5509 H 523.107 -2.34723 -2.81604 0
M  V30 5510 H 522.755 -1.04289 -4.9207 0
M  V30 5511 H 522.455 -2.78016 -5.17669 0
M  V30 5512 H 523.979 -2.04691 -5.75268 0
M  V30 5513 H 525.393 -3.79252 -4.29931 0
M  V30 5514 H 523.79 -4.50784 -3.96124 0
M  V30 5515 H 524.86 -4.08513 -2.61238 0
M  V30 5516 N 526.204 0.969867 -1.24223 0
M  V30 5517 C 527.429 1.75289 -1.10853 0
M  V30 5518 C 527.854 1.85091 0.335079 0
M  V30 5519 O 527.212 1.32024 1.24255 0
M  V30 5520 C 527.26 3.15255 -1.75062 0
M  V30 5521 O 526.364 3.99589 -1.01992 0
M  V30 5522 H 525.705 0.538904 -0.387915 0
M  V30 5523 H 528.235 1.21675 -1.64488 0
M  V30 5524 H 528.245 3.65787 -1.80731 0
M  V30 5525 H 526.92 3.07436 -2.801 0
M  V30 5526 H 525.497 3.58077 -1.04094 0
M  V30 5527 N 527.682 1.05563 1.17022 0
M  V30 5528 C 528.929 0.767937 1.87374 0
M  V30 5529 C 529.257 -0.705224 1.81265 0
M  V30 5530 O 528.512 -1.5318 1.21796 0
M  V30 5531 C 528.811 1.19849 3.36706 0
M  V30 5532 C 528.477 2.6745 3.63017 0
M  V30 5533 C 527.139 3.0777 3.69907 0
M  V30 5534 C 529.491 3.62811 3.74189 0
M  V30 5535 C 526.819 4.42307 3.85463 0
M  V30 5536 C 529.171 4.97087 3.91264 0
M  V30 5537 C 527.835 5.37055 3.96394 0
M  V30 5538 H 527.105 0.281008 0.68565 0
M  V30 5539 H 529.752 1.32339 1.38415 0
M  V30 5540 H 528.057 0.562096 3.87747 0
M  V30 5541 H 529.754 0.953038 3.8951 0
M  V30 5542 H 526.344 2.35228 3.58282 0
M  V30 5543 H 530.528 3.32798 3.68183 0
M  V30 5544 H 525.784 4.72769 3.87684 0
M  V30 5545 H 529.958 5.70869 3.9885 0
M  V30 5546 H 527.585 6.41308 4.082 0
M  V30 5547 N 529.16 -1.33526 0.837174 0
M  V30 5548 C 530.123 -2.27551 0.274421 0
M  V30 5549 C 531.123 -1.50886 -0.555881 0
M  V30 5550 O 532.313 -1.70227 -0.369918 0
M  V30 5551 C 529.445 -3.35332 -0.613605 0
M  V30 5552 H 530.638 -2.78837 1.10408 0
M  V30 5553 H 528.191 -1.439 0.610126 0
M  V30 5554 H 528.926 -2.89285 -1.46577 0
M  V30 5555 H 528.711 -3.92095 -0.0195341 0
M  V30 5556 H 530.201 -4.05433 -1.00068 0
M  V30 5557 N 530.638 -0.59345 -1.46 0
M  V30 5558 C 531.868 -0.0889642 -2.06408 0
M  V30 5559 C 532.276 1.22597 -1.44106 0
M  V30 5560 O 531.619 1.75448 -0.544398 0
M  V30 5561 C 531.681 0.139902 -3.59228 0
M  V30 5562 C 531.345 -1.09107 -4.43784 0
M  V30 5563 C 532.342 -2.00577 -4.79651 0
M  V30 5564 C 530.027 -1.31593 -4.84756 0
M  V30 5565 C 532.021 -3.12873 -5.55328 0
M  V30 5566 C 529.708 -2.44192 -5.60191 0
M  V30 5567 C 530.706 -3.34661 -5.95392 0
M  V30 5568 O 530.394 -4.45302 -6.69299 0
M  V30 5569 H 530.126 -0.0594613 -0.67338 0
M  V30 5570 H 532.68 -0.817 -1.88452 0
M  V30 5571 H 530.91 0.922672 -3.75531 0
M  V30 5572 H 532.599 0.594228 -4.01527 0
M  V30 5573 H 533.365 -1.84425 -4.48567 0
M  V30 5574 H 529.244 -0.620801 -4.56801 0
M  V30 5575 H 532.788 -3.83511 -5.82722 0
M  V30 5576 H 528.685 -2.60303 -5.90688 0
M  V30 5577 H 529.453 -4.43805 -6.87735 0
M  V30 5578 N 532.116 1.54067 -0.331816 0
M  V30 5579 C 533.362 2.01012 0.268667 0
M  V30 5580 C 533.695 1.2195 1.51136 0
M  V30 5581 O 532.97 0.303972 1.9211 0
M  V30 5582 C 533.253 3.55158 0.59456 0
M  V30 5583 C 533.106 4.4494 -0.659409 0
M  V30 5584 C 534.425 4.16939 1.4089 0
M  V30 5585 H 531.544 0.730698 0.0961756 0
M  V30 5586 H 534.186 1.84593 -0.450031 0
M  V30 5587 H 532.336 3.6928 1.20685 0
M  V30 5588 H 534.008 4.42675 -1.29756 0
M  V30 5589 H 532.251 4.1428 -1.28665 0
M  V30 5590 H 532.922 5.50643 -0.386804 0
M  V30 5591 H 535.398 4.06443 0.891272 0
M  V30 5592 H 534.274 5.24889 1.60569 0
M  V30 5593 H 534.535 3.70798 2.40752 0
M  V30 5594 N 533.594 0.0601682 1.57485 0
M  V30 5595 C 534.504 -0.926121 2.15546 0
M  V30 5596 C 535.52 -1.33532 1.11558 0
M  V30 5597 O 536.696 -1.4104 1.4377 0
M  V30 5598 C 533.761 -2.17952 2.69625 0
M  V30 5599 C 532.822 -1.82783 3.88444 0
M  V30 5600 C 532.055 -3.02148 4.39935 0
M  V30 5601 O 532.278 -4.15803 3.90466 0
M  V30 5602 O 531.212 -2.82639 5.31412 0
M  V30 5603 H 535.038 -0.462289 3.00161 0
M  V30 5604 H 532.623 -0.162246 1.48516 0
M  V30 5605 H 534.505 -2.91474 3.04337 0
M  V30 5606 H 533.18 -2.63456 1.88077 0
M  V30 5607 H 532.087 -1.06549 3.58606 0
M  V30 5608 H 533.42 -1.42072 4.7125 0
M  V30 5609 N 535.072 -1.5615 -0.213296 0
M  V30 5610 C 536.32 -1.79191 -0.934612 0
M  V30 5611 C 536.641 -0.630112 -1.84539 0
M  V30 5612 O 535.911 0.35257 -1.92701 0
M  V30 5613 H 534.491 -0.660937 -0.348097 0
M  V30 5614 H 537.153 -1.93618 -0.22317 0
M  V30 5615 H 536.249 -2.71656 -1.53654 0
M  V30 5616 N 536.55 0.480323 -1.50102 0
M  V30 5617 C 537.46 1.60547 -1.71061 0
M  V30 5618 C 538.476 1.63564 -0.593529 0
M  V30 5619 O 539.652 1.81604 -0.870751 0
M  V30 5620 C 536.717 2.96814 -1.79171 0
M  V30 5621 C 535.778 3.04259 -3.02861 0
M  V30 5622 C 535.011 4.34027 -3.10574 0
M  V30 5623 O 535.234 5.24009 -2.25323 0
M  V30 5624 O 534.168 4.46873 -4.03223 0
M  V30 5625 H 537.994 1.45788 -2.6642 0
M  V30 5626 H 535.579 0.658838 -1.34088 0
M  V30 5627 H 537.461 3.77765 -1.86738 0
M  V30 5628 H 536.136 3.11791 -0.869947 0
M  V30 5629 H 535.043 2.22419 -3.008 0
M  V30 5630 H 536.376 2.94216 -3.94586 0
M  V30 5631 N 538.028 1.39524 0.732853 0
M  V30 5632 C 539.253 1.40329 1.52717 0
M  V30 5633 C 539.678 0.000286574 1.881 0
M  V30 5634 O 539.036 -0.987262 1.52062 0
M  V30 5635 C 539.084 2.28464 2.78992 0
M  V30 5636 O 538.188 1.716 3.75003 0
M  V30 5637 H 537.529 0.47778 0.461109 0
M  V30 5638 H 540.059 1.83546 0.903996 0
M  V30 5639 H 540.069 2.43051 3.27705 0
M  V30 5640 H 538.744 3.30425 2.52572 0
M  V30 5641 H 537.321 1.66267 3.33781 0
M  V30 5642 N 539.506 -0.963266 1.24736 0
M  V30 5643 C 540.436 -2.07628 1.06832 0
M  V30 5644 C 541.417 -1.70088 -0.0200566 0
M  V30 5645 O 542.602 -1.93636 0.147854 0
M  V30 5646 C 539.732 -3.40636 0.677069 0
M  V30 5647 C 538.686 -3.9215 1.71471 0
M  V30 5648 C 538.012 -5.21553 1.1784 0
M  V30 5649 C 539.312 -4.19493 3.11164 0
M  V30 5650 H 541.006 -2.22864 1.9993 0
M  V30 5651 H 538.552 -1.07093 0.96266 0
M  V30 5652 H 540.505 -4.17941 0.538792 0
M  V30 5653 H 539.229 -3.25313 -0.289612 0
M  V30 5654 H 537.888 -3.17005 1.84128 0
M  V30 5655 H 537.536 -5.02593 0.202195 0
M  V30 5656 H 537.236 -5.56988 1.87185 0
M  V30 5657 H 538.76 -6.01463 1.05233 0
M  V30 5658 H 540.174 -4.87487 3.01711 0
M  V30 5659 H 538.571 -4.66165 3.77902 0
M  V30 5660 H 539.641 -3.26097 3.58871 0
M  V30 5661 N 540.985 -1.06182 -1.16461 0
M  V30 5662 C 541.915 -0.692861 -2.22984 0
M  V30 5663 C 542.896 0.314122 -1.67174 0
M  V30 5664 O 544.081 0.189499 -1.93273 0
M  V30 5665 C 541.211 -0.07732 -3.47214 0
M  V30 5666 C 540.165 -1.01015 -4.15909 0
M  V30 5667 C 539.491 -0.257973 -5.34077 0
M  V30 5668 C 540.791 -2.33868 -4.67015 0
M  V30 5669 H 542.485 -1.58343 -2.54102 0
M  V30 5670 H 540.031 -0.76279 -1.22137 0
M  V30 5671 H 541.984 0.19266 -4.20959 0
M  V30 5672 H 540.708 0.848254 -3.15392 0
M  V30 5673 H 539.367 -1.26486 -3.44088 0
M  V30 5674 H 539.015 0.670684 -4.98509 0
M  V30 5675 H 538.715 -0.879638 -5.80979 0
M  V30 5676 H 540.239 0.00448788 -6.106 0
M  V30 5677 H 541.653 -2.1279 -5.32347 0
M  V30 5678 H 540.05 -2.91522 -5.24533 0
M  V30 5679 H 541.12 -2.97019 -3.83286 0
M  V30 5680 N 542.463 1.3308 -0.844243 0
M  V30 5681 C 543.396 2.27075 -0.226279 0
M  V30 5682 C 544.374 1.49911 0.629716 0
M  V30 5683 O 545.558 1.79068 0.588803 0
M  V30 5684 C 542.685 3.31767 0.681782 0
M  V30 5685 C 541.731 4.26384 -0.0994565 0
M  V30 5686 S 542.564 5.15186 -1.46094 0
M  V30 5687 C 543.72 6.23405 -0.558319 0
M  V30 5688 H 543.953 2.79141 -1.02312 0
M  V30 5689 H 541.486 1.40452 -0.641292 0
M  V30 5690 H 543.444 3.92566 1.20008 0
M  V30 5691 H 542.105 2.78507 1.45234 0
M  V30 5692 H 541.298 5.00514 0.591733 0
M  V30 5693 H 540.9 3.69949 -0.548991 0
M  V30 5694 H 543.192 6.77069 0.241672 0
M  V30 5695 H 544.135 6.96619 -1.26995 0
M  V30 5696 H 544.543 5.64333 -0.13728 0
M  V30 5697 N 543.941 0.601185 1.45683 0
M  V30 5698 C 544.904 -0.111398 2.28929 0
M  V30 5699 C 545.904 -0.801246 1.39416 0
M  V30 5700 O 547.094 -0.650383 1.61603 0
M  V30 5701 C 544.226 -1.16773 3.20276 0
M  V30 5702 H 545.419 0.620412 2.93413 0
M  V30 5703 H 542.972 0.359946 1.52099 0
M  V30 5704 H 543.707 -1.93051 2.60579 0
M  V30 5705 H 543.492 -0.677358 3.86205 0
M  V30 5706 H 544.982 -1.66698 3.82886 0
M  V30 5707 N 545.419 -1.53889 0.339982 0
M  V30 5708 C 546.349 -2.27843 -0.510856 0
M  V30 5709 C 547.33 -1.29267 -1.10563 0
M  V30 5710 O 548.515 -1.58104 -1.12768 0
M  V30 5711 C 545.645 -3.04857 -1.66372 0
M  V30 5712 C 544.599 -4.10907 -1.19746 0
M  V30 5713 C 543.925 -4.75855 -2.43857 0
M  V30 5714 C 545.225 -5.21435 -0.300501 0
M  V30 5715 H 546.919 -2.99212 0.106067 0
M  V30 5716 H 544.465 -1.43904 0.0524533 0
M  V30 5717 H 546.418 -3.5533 -2.26537 0
M  V30 5718 H 545.142 -2.31133 -2.30749 0
M  V30 5719 H 543.801 -3.61342 -0.618654 0
M  V30 5720 H 543.449 -3.9873 -3.06633 0
M  V30 5721 H 543.149 -5.47502 -2.13343 0
M  V30 5722 H 544.673 -5.2911 -3.04754 0
M  V30 5723 H 546.087 -5.67565 -0.80889 0
M  V30 5724 H 544.484 -6.00036 -0.0874076 0
M  V30 5725 H 545.554 -4.80328 0.664321 0
M  V30 5726 N 546.897 -0.0685191 -1.57451 0
M  V30 5727 C 547.844 0.899861 -2.12535 0
M  V30 5728 C 548.814 1.29749 -1.03703 0
M  V30 5729 O 549.999 1.38392 -1.31348 0
M  V30 5730 C 547.139 2.16328 -2.6888 0
M  V30 5731 C 546.252 1.81857 -3.91857 0
M  V30 5732 C 545.387 3.02786 -4.36457 0
M  V30 5733 C 544.426 2.64317 -5.5209 0
M  V30 5734 N 543.563 3.77994 -5.91663 0
M  V30 5735 H 548.403 0.423243 -2.94979 0
M  V30 5736 H 545.94 0.197268 -1.45771 0
M  V30 5737 H 547.898 2.90281 -2.99655 0
M  V30 5738 H 546.528 2.61536 -1.89206 0
M  V30 5739 H 545.58 0.979808 -3.67565 0
M  V30 5740 H 546.892 1.49553 -4.75852 0
M  V30 5741 H 546.046 3.85021 -4.68875 0
M  V30 5742 H 544.785 3.38281 -3.51308 0
M  V30 5743 H 543.79 1.80503 -5.19325 0
M  V30 5744 H 545.015 2.29995 -6.38967 0
M  V30 5745 H 542.961 4.13258 -5.09464 0
M  V30 5746 H 542.878 3.49447 -6.7039 0
M  V30 5747 H 544.146 4.60818 -6.28703 0
M  V30 5748 N 548.375 1.56261 0.205012 0
M  V30 5749 C 549.652 1.70856 0.952233 0
M  V30 5750 C 550.032 0.620501 2.01775 0
M  V30 5751 O 549.38 -0.370035 2.25484 0
M  V30 5752 C 549.59 3.12807 1.54767 0
M  V30 5753 C 550.938 3.72733 2.0336 0
M  V30 5754 O 551.962 3.15873 1.64629 0
M  V30 5755 O 550.821 4.72501 2.746 0
M  V30 5756 H 547.915 0.696496 0.445895 0
M  V30 5757 H 550.461 1.6857 0.195489 0
M  V30 5758 H 549.233 3.83465 0.779132 0
M  V30 5759 H 548.856 3.1928 2.36951 0
M  V30 5760 N 549.853 -0.472356 1.50355 0
M  V30 5761 C 551.099 -1.22634 1.6152 0
M  V30 5762 C 551.432 -1.91645 0.313995 0
M  V30 5763 O 550.707 -1.82059 -0.684446 0
M  V30 5764 C 550.99 -2.27099 2.7946 0
M  V30 5765 C 550.843 -1.62402 4.19459 0
M  V30 5766 C 552.162 -3.28421 2.92964 0
M  V30 5767 H 549.281 -0.444494 0.587873 0
M  V30 5768 H 551.923 -0.520321 1.82737 0
M  V30 5769 H 550.073 -2.87314 2.61501 0
M  V30 5770 H 551.745 -1.05793 4.49005 0
M  V30 5771 H 549.988 -0.927184 4.23776 0
M  V30 5772 H 550.659 -2.38309 4.97909 0
M  V30 5773 H 553.135 -2.78227 3.09401 0
M  V30 5774 H 552.011 -3.98845 3.77113 0
M  V30 5775 H 552.272 -3.92467 2.03525 0
M  V30 5776 N 551.331 -1.39911 -0.725443 0
M  V30 5777 C 552.294 -1.39156 -1.82121 0
M  V30 5778 C 553.294 -0.287018 -1.58218 0
M  V30 5779 O 554.484 -0.545421 -1.65441 0
M  V30 5780 C 551.616 -1.1736 -3.20062 0
M  V30 5781 H 552.809 -2.36672 -1.84191 0
M  V30 5782 H 550.362 -1.25615 -0.930079 0
M  V30 5783 H 551.097 -0.205648 -3.23647 0
M  V30 5784 H 550.882 -1.97358 -3.3881 0
M  V30 5785 H 552.372 -1.19596 -4.00108 0
M  V30 5786 N 552.809 0.956637 -1.25245 0
M  V30 5787 C 553.739 2.07058 -1.07931 0
M  V30 5788 C 554.72 1.70096 0.0110361 0
M  V30 5789 O 555.905 1.93555 -0.158121 0
M  V30 5790 C 553.035 3.40272 -0.695124 0
M  V30 5791 C 551.989 3.91235 -1.73549 0
M  V30 5792 C 551.315 5.20921 -1.20604 0
M  V30 5793 C 552.615 4.17837 -3.13385 0
M  V30 5794 H 554.309 2.218 -2.01109 0
M  V30 5795 H 551.855 1.06581 -0.968326 0
M  V30 5796 H 553.808 4.1765 -0.560949 0
M  V30 5797 H 552.532 3.25462 0.272355 0
M  V30 5798 H 551.191 3.16025 -1.85807 0
M  V30 5799 H 550.839 5.02479 -0.228846 0
M  V30 5800 H 550.539 5.55987 -1.90136 0
M  V30 5801 H 552.063 6.00897 -1.08421 0
M  V30 5802 H 553.477 4.8588 -3.04292 0
M  V30 5803 H 551.874 4.64154 -3.80369 0
M  V30 5804 H 552.944 3.2419 -3.60595 0
M  V30 5805 N 554.287 1.06798 1.15896 0
M  V30 5806 C 555.512 0.808739 1.90982 0
M  V30 5807 C 555.937 -0.6316 1.77179 0
M  V30 5808 O 555.295 -1.4407 1.10061 0
M  V30 5809 C 555.343 1.21468 3.39526 0
M  V30 5810 O 554.447 0.356562 4.10856 0
M  V30 5811 H 553.788 0.29512 0.594811 0
M  V30 5812 H 556.318 1.42513 1.46804 0
M  V30 5813 H 556.328 1.18844 3.90308 0
M  V30 5814 H 555.003 2.26379 3.48891 0
M  V30 5815 H 553.58 0.444808 3.70238 0
M  V30 5816 N 555.766 -1.3263 0.851289 0
M  V30 5817 C 556.991 -2.02097 0.466006 0
M  V30 5818 C 557.416 -1.63574 -0.928709 0
M  V30 5819 O 556.774 -0.834665 -1.60944 0
M  V30 5820 C 556.822 -3.55425 0.608737 0
M  V30 5821 O 555.926 -4.10827 -0.359878 0
M  V30 5822 H 555.267 -0.636911 0.187724 0
M  V30 5823 H 557.797 -1.69253 1.14955 0
M  V30 5824 H 557.807 -4.04986 0.495006 0
M  V30 5825 H 556.482 -3.82806 1.62581 0
M  V30 5826 H 555.059 -3.72349 -0.202666 0
M  V30 5827 N 557.244 -0.608902 -1.45362 0
M  V30 5828 C 558.492 -0.104401 -2.0183 0
M  V30 5829 C 558.813 1.27007 -1.47967 0
M  V30 5830 O 558.083 1.83924 -0.674455 0
M  V30 5831 H 556.663 -0.0356042 -0.746151 0
M  V30 5832 H 559.325 -0.790596 -1.78145 0
M  V30 5833 H 558.421 -0.0551793 -3.12051 0
M  V30 5834 N 558.722 1.53707 -0.348139 0
M  V30 5835 C 559.947 2.05877 0.250883 0
M  V30 5836 C 560.372 1.22115 1.43072 0
M  V30 5837 O 559.73 0.235986 1.79758 0
M  V30 5838 C 559.778 3.54886 0.639416 0
M  V30 5839 O 558.882 3.73948 1.73888 0
M  V30 5840 H 558.223 0.662754 0.040653 0
M  V30 5841 H 560.753 1.98303 -0.503685 0
M  V30 5842 H 560.763 3.97601 0.915295 0
M  V30 5843 H 559.438 4.153 -0.223386 0
M  V30 5844 H 558.015 3.43134 1.45991 0
M  V30 5845 N 560.2 0.0768682 1.57412 0
M  V30 5846 C 561.163 -0.873949 2.11884 0
M  V30 5847 C 562.163 -1.22301 1.04398 0
M  V30 5848 O 563.353 -1.15545 1.30365 0
M  V30 5849 C 560.485 -2.17575 2.62438 0
M  V30 5850 H 561.678 -0.401278 2.97203 0
M  V30 5851 H 559.231 -0.171904 1.55352 0
M  V30 5852 H 559.966 -2.69368 1.80587 0
M  V30 5853 H 559.751 -1.93534 3.41009 0
M  V30 5854 H 561.241 -2.85631 3.04639 0
M  V30 5855 N 561.678 -1.56367 -0.196722 0
M  V30 5856 C 562.918 -1.82315 -0.92415 0
M  V30 5857 C 563.282 -0.654117 -1.80514 0
M  V30 5858 O 564.483 -0.79345 -2.56823 0
M  V30 5859 C 562.754 -3.13279 -1.72021 0
M  V30 5860 S 564.313 -3.60627 -2.49988 0
M  V30 5861 H 561.131 -0.639862 -0.309997 0
M  V30 5862 H 563.733 -1.94597 -0.187684 0
M  V30 5863 H 562.437 -3.96379 -1.06358 0
M  V30 5864 H 561.968 -3.03871 -2.49852 0
M  V30 5865 H 563.983 -3.25934 -3.74141 0
M  V30 5866 N 563.156 0.464375 -1.50603 0
M  V30 5867 C 564.384 1.23907 -1.65695 0
M  V30 5868 C 564.799 1.85658 -0.343027 0
M  V30 5869 O 564.156 1.69529 0.675739 0
M  V30 5870 C 564.207 2.3429 -2.75301 0
M  V30 5871 O 563.928 1.7507 -4.01599 0
M  V30 5872 C 565.429 3.25051 -3.01424 0
M  V30 5873 H 562.649 0.374485 -0.556778 0
M  V30 5874 H 565.193 0.55353 -1.96866 0
M  V30 5875 H 563.348 2.98607 -2.46804 0
M  V30 5876 H 563.762 2.47812 -4.62266 0
M  V30 5877 H 565.236 3.98699 -3.81763 0
M  V30 5878 H 565.713 3.84227 -2.12758 0
M  V30 5879 H 566.319 2.66463 -3.31477 0
M  V30 5880 N 564.634 1.40294 0.718013 0
M  V30 5881 C 565.859 1.41941 1.5122 0
M  V30 5882 C 566.284 0.0202371 1.88089 0
M  V30 5883 O 565.642 -0.971078 1.53101 0
M  V30 5884 C 565.69 2.3141 2.76554 0
M  V30 5885 O 564.794 1.75567 3.73162 0
M  V30 5886 H 564.135 0.482644 0.456016 0
M  V30 5887 H 566.665 1.84494 0.884478 0
M  V30 5888 H 566.675 2.46513 3.25108 0
M  V30 5889 H 565.35 3.33085 2.49053 0
M  V30 5890 H 563.927 1.69798 3.31999 0
M  V30 5891 N 566.112 -0.949982 1.2575 0
M  V30 5892 C 567.075 -2.02894 1.06615 0
M  V30 5893 C 568.075 -1.60791 0.0173905 0
M  V30 5894 O 569.265 -1.72249 0.260003 0
M  V30 5895 C 566.397 -3.35219 0.619751 0
M  V30 5896 H 567.59 -2.21302 2.02399 0
M  V30 5897 H 565.143 -1.12772 1.08223 0
M  V30 5898 H 565.878 -3.22508 -0.340486 0
M  V30 5899 H 565.663 -3.67129 1.37692 0
M  V30 5900 H 567.153 -4.14505 0.507443 0
M  V30 5901 N 567.59 -1.07411 -1.15328 0
M  V30 5902 C 568.815 -0.818856 -1.90551 0
M  V30 5903 C 569.24 0.622194 -1.77512 0
M  V30 5904 O 568.598 1.43484 -1.10824 0
M  V30 5905 C 568.646 -1.23267 -3.38877 0
M  V30 5906 O 567.75 -0.378345 -4.10661 0
M  V30 5907 H 567.091 -0.29827 -0.593238 0
M  V30 5908 H 569.621 -1.43289 -1.46046 0
M  V30 5909 H 569.631 -1.20912 -3.89672 0
M  V30 5910 H 568.306 -2.28226 -3.47686 0
M  V30 5911 H 566.883 -0.464437 -3.69996 0
M  V30 5912 N 569.068 1.32177 -0.85831 0
M  V30 5913 C 569.998 2.31282 -0.321041 0
M  V30 5914 C 570.979 1.59841 0.581786 0
M  V30 5915 O 572.164 1.87619 0.501262 0
M  V30 5916 C 569.294 3.4385 0.48832 0
M  V30 5917 C 568.248 4.26799 -0.320391 0
M  V30 5918 C 567.574 5.31164 0.613934 0
M  V30 5919 C 568.874 4.98829 -1.54813 0
M  V30 5920 H 570.568 2.76469 -1.14915 0
M  V30 5921 H 568.114 1.32916 -0.554028 0
M  V30 5922 H 570.067 4.12224 0.874626 0
M  V30 5923 H 568.791 2.97401 1.34983 0
M  V30 5924 H 567.45 3.60077 -0.688497 0
M  V30 5925 H 567.098 4.80967 1.47239 0
M  V30 5926 H 566.798 5.8755 0.0768097 0
M  V30 5927 H 568.322 6.024 0.997336 0
M  V30 5928 H 569.736 5.59864 -1.23392 0
M  V30 5929 H 568.133 5.64957 -2.02346 0
M  V30 5930 H 569.203 4.26483 -2.30739 0
M  V30 5931 N 570.547 0.616602 1.45037 0
M  V30 5932 C 571.457 -0.0985401 2.34393 0
M  V30 5933 C 572.473 -0.850971 1.51771 0
M  V30 5934 O 573.649 -0.806521 1.84546 0
M  V30 5935 C 570.714 -1.07748 3.29532 0
M  V30 5936 C 569.775 -0.326022 4.2806 0
M  V30 5937 C 569.008 -1.25833 5.18654 0
M  V30 5938 O 569.231 -2.49652 5.12864 0
M  V30 5939 O 568.165 -0.750512 5.97203 0
M  V30 5940 H 571.991 0.636016 2.96966 0
M  V30 5941 H 569.576 0.376832 1.44569 0
M  V30 5942 H 571.458 -1.64107 3.88133 0
M  V30 5943 H 570.133 -1.79291 2.69512 0
M  V30 5944 H 569.04 0.280253 3.73049 0
M  V30 5945 H 570.373 0.349091 4.9096 0
M  V30 5946 N 572.025 -1.5352 0.356285 0
M  V30 5947 C 573.436 -1.86282 -0.12492 0
M  V30 5948 C 573.787 -1.27717 -1.48939 0
M  V30 5949 O 572.912 -0.595614 -2.08042 0
M  V30 5950 C 573.507 -3.37995 -0.23345 0
M  V30 5951 C 572.066 -3.70588 -0.658899 0
M  V30 5952 C 571.213 -2.76581 0.199596 0
M  V30 5953 H 574.164 -1.47901 0.575423 0
M  V30 5954 H 574.185 -3.65475 -1.0587 0
M  V30 5955 H 573.697 -3.8059 0.759776 0
M  V30 5956 H 571.798 -3.33544 -1.66069 0
M  V30 5957 H 571.911 -4.77076 -0.439957 0
M  V30 5958 H 570.275 -2.52552 -0.330076 0
M  V30 5959 H 571.058 -3.22008 1.19019 0
M  V30 5960 N 573.503 -0.0852151 -1.57369 0
M  V30 5961 C 574.728 0.592872 -1.98746 0
M  V30 5962 C 575.153 1.61538 -0.963689 0
M  V30 5963 O 574.511 1.81168 0.069071 0
M  V30 5964 C 574.559 1.22599 -3.39119 0
M  V30 5965 O 573.663 2.34185 -3.39457 0
M  V30 5966 H 573.004 0.151314 -0.646529 0
M  V30 5967 H 575.534 -0.163703 -2.03944 0
M  V30 5968 H 575.544 1.56965 -3.76598 0
M  V30 5969 H 574.219 0.476831 -4.13158 0
M  V30 5970 H 572.796 2.01512 -3.13763 0
M  V30 5971 N 574.981 1.5647 0.188427 0
M  V30 5972 C 576.211 1.84863 0.922463 0
M  V30 5973 C 576.619 0.666413 1.77075 0
M  V30 5974 O 575.962 -0.374044 1.79852 0
M  V30 5975 C 576.024 3.07447 1.86324 0
M  V30 5976 C 575.688 4.41066 1.19625 0
M  V30 5977 C 576.685 5.16767 0.569946 0
M  V30 5978 C 574.37 4.87802 1.19811 0
M  V30 5979 C 576.364 6.37384 -0.045594 0
M  V30 5980 C 574.051 6.08353 0.57874 0
M  V30 5981 C 575.049 6.82987 -0.0420259 0
M  V30 5982 O 574.737 8.01254 -0.651675 0
M  V30 5983 H 574.469 0.61784 0.274316 0
M  V30 5984 H 577.023 2.04437 0.198613 0
M  V30 5985 H 575.253 2.83774 2.62696 0
M  V30 5986 H 576.942 3.2243 2.46564 0
M  V30 5987 H 577.708 4.81749 0.560601 0
M  V30 5988 H 573.587 4.29662 1.67069 0
M  V30 5989 H 577.131 6.95578 -0.530731 0
M  V30 5990 H 573.028 6.42838 0.58561 0
M  V30 5991 H 573.796 8.16655 -0.549236 0
M  V30 5992 N 576.459 -0.456382 1.50847 0
M  V30 5993 C 577.705 -1.20914 1.62811 0
M  V30 5994 C 578.038 -1.91301 0.334304 0
M  V30 5995 O 577.313 -1.82775 -0.665098 0
M  V30 5996 C 577.596 -2.24122 2.81853 0
M  V30 5997 C 577.449 -1.57944 4.21158 0
M  V30 5998 C 578.768 -3.25295 2.96431 0
M  V30 5999 H 575.887 -0.438233 0.592554 0
M  V30 6000 H 578.529 -0.50091 1.83278 0
M  V30 6001 H 576.679 -2.84524 2.64534 0
M  V30 6002 H 578.351 -1.01025 4.50102 0
M  V30 6003 H 576.594 -0.882185 4.24735 0
M  V30 6004 H 577.265 -2.33014 5.00408 0
M  V30 6005 H 579.741 -2.7493 3.12335 0
M  V30 6006 H 578.617 -3.94822 3.81322 0
M  V30 6007 H 578.878 -3.90286 2.07676 0
M  V30 6008 N 577.937 -1.40673 -0.710563 0
M  V30 6009 C 578.867 -1.44095 -1.83736 0
M  V30 6010 C 579.848 -0.301286 -1.67411 0
M  V30 6011 O 581.033 -0.510618 -1.87367 0
M  V30 6012 C 578.163 -1.30773 -3.21738 0
M  V30 6013 C 577.117 -2.42395 -3.52745 0
M  V30 6014 C 576.443 -2.14147 -4.89944 0
M  V30 6015 C 577.743 -3.84738 -3.53234 0
M  V30 6016 H 579.437 -2.38396 -1.81129 0
M  V30 6017 H 576.983 -1.14746 -0.870017 0
M  V30 6018 H 578.936 -1.31783 -4.00264 0
M  V30 6019 H 577.66 -0.329507 -3.24934 0
M  V30 6020 H 576.319 -2.40643 -2.76562 0
M  V30 6021 H 575.967 -1.14703 -4.89747 0
M  V30 6022 H 575.667 -2.88934 -5.11655 0
M  V30 6023 H 577.191 -2.16848 -5.70797 0
M  V30 6024 H 578.605 -3.88286 -4.2179 0
M  V30 6025 H 577.002 -4.59085 -3.86473 0
M  V30 6026 H 578.072 -4.13962 -2.52514 0
M  V30 6027 N 579.415 0.9433 -1.26252 0
M  V30 6028 C 580.831 1.21644 -1.03319 0
M  V30 6029 C 581.031 2.0003 0.242983 0
M  V30 6030 O 580.087 2.33838 0.952688 0
M  V30 6031 C 581.4 1.97978 -2.2633 0
M  V30 6032 C 582.948 2.10978 -2.31209 0
M  V30 6033 C 583.423 2.90713 -3.53907 0
M  V30 6034 N 584.914 2.98287 -3.54371 0
M  V30 6035 C 585.649 3.60406 -4.45976 0
M  V30 6036 N 585.145 4.24043 -5.47868 0
M  V30 6037 N 586.938 3.57658 -4.33633 0
M  V30 6038 H 579.089 0.419221 -2.08222 0
M  V30 6039 H 581.352 0.247995 -0.914988 0
M  V30 6040 H 581.058 1.47788 -3.19142 0
M  V30 6041 H 580.932 2.9865 -2.30408 0
M  V30 6042 H 583.319 2.6036 -1.38913 0
M  V30 6043 H 583.4 1.09575 -2.31143 0
M  V30 6044 H 583.044 2.42018 -4.46531 0
M  V30 6045 H 582.974 3.92367 -3.5122 0
M  V30 6046 H 585.465 2.53044 -2.80673 0
M  V30 6047 H 585.778 4.69334 -6.13959 0
M  V30 6048 H 584.123 4.22637 -5.51728 0
M  V30 6049 H 587.314 3.07134 -3.53251 0
M  V30 6050 H 587.487 4.05782 -5.05218 0
M  V30 6051 N 580.893 1.08022 1.14757 0
M  V30 6052 C 581.856 0.71048 2.1791 0
M  V30 6053 C 582.856 -0.252731 1.58801 0
M  V30 6054 O 584.046 -0.0327915 1.74169 0
M  V30 6055 C 581.178 0.0483203 3.40866 0
M  V30 6056 H 582.371 1.62384 2.52134 0
M  V30 6057 H 579.924 0.877595 1.29337 0
M  V30 6058 H 580.659 -0.876959 3.12218 0
M  V30 6059 H 580.444 0.741189 3.85031 0
M  V30 6060 H 581.934 -0.195471 4.17142 0
M  V30 6061 N 582.371 -1.3172 0.865308 0
M  V30 6062 C 583.62 -1.96145 0.470098 0
M  V30 6063 C 583.933 -1.69182 -0.981674 0
M  V30 6064 O 585.139 -2.27431 -1.48281 0
M  V30 6065 C 583.595 -3.51129 0.789732 0
M  V30 6066 C 583.203 -3.86938 2.25795 0
M  V30 6067 C 584.947 -4.2197 0.462765 0
M  V30 6068 C 582.854 -5.35012 2.52024 0
M  V30 6069 H 581.784 -0.734105 0.172065 0
M  V30 6070 H 584.435 -1.49959 1.05757 0
M  V30 6071 H 582.817 -3.95781 0.131571 0
M  V30 6072 H 583.991 -3.5326 2.95879 0
M  V30 6073 H 582.306 -3.29149 2.55049 0
M  V30 6074 H 584.903 -5.30904 0.636019 0
M  V30 6075 H 585.246 -4.12005 -0.59645 0
M  V30 6076 H 585.779 -3.82936 1.07727 0
M  V30 6077 H 582.518 -5.50008 3.56611 0
M  V30 6078 H 582.038 -5.70058 1.8653 0
M  V30 6079 H 583.717 -6.0222 2.36515 0
M  V30 6080 N 583.85 -0.624285 -1.44708 0
M  V30 6081 C 585.098 -0.125802 -2.01708 0
M  V30 6082 C 585.418 1.2543 -1.49306 0
M  V30 6083 O 584.689 1.83198 -0.693924 0
M  V30 6084 H 583.269 -0.0435161 -0.745731 0
M  V30 6085 H 585.931 -0.809446 -1.77296 0
M  V30 6086 H 585.027 -0.0882734 -3.11975 0
M  V30 6087 N 585.328 1.53329 -0.364422 0
M  V30 6088 C 586.556 2.05657 0.226424 0
M  V30 6089 C 586.971 1.23801 1.42544 0
M  V30 6090 O 586.328 0.27839 1.80364 0
M  V30 6091 C 586.379 3.56125 0.621056 0
M  V30 6092 O 586.1 4.34879 -0.530304 0
M  V30 6093 C 587.601 4.24706 1.27041 0
M  V30 6094 H 584.821 0.669806 0.0400056 0
M  V30 6095 H 587.365 1.97714 -0.522456 0
M  V30 6096 H 585.52 3.64223 1.31985 0
M  V30 6097 H 585.934 5.24073 -0.211546 0
M  V30 6098 H 587.408 5.3131 1.49711 0
M  V30 6099 H 587.885 3.78354 2.23036 0
M  V30 6100 H 588.491 4.20858 0.613079 0
M  V30 6101 N 586.806 0.0935595 1.57322 0
M  V30 6102 C 588.083 -0.612692 1.85756 0
M  V30 6103 C 588.463 -1.86439 0.99013 0
M  V30 6104 O 587.811 -2.28416 0.0621362 0
M  V30 6105 C 588.021 -0.929547 3.36393 0
M  V30 6106 C 589.369 -1.29366 4.04413 0
M  V30 6107 O 590.393 -1.02061 3.41265 0
M  V30 6108 O 589.252 -1.80498 5.15832 0
M  V30 6109 H 586.346 -0.306444 0.768128 0
M  V30 6110 H 588.892 0.126141 1.69231 0
M  V30 6111 H 587.664 -0.0414766 3.91278 0
M  V30 6112 H 587.287 -1.72441 3.5826 0
M  V30 6113 N 588.284 -1.56567 -0.180126 0
M  V30 6114 C 589.194 -1.98947 -1.24327 0
M  V30 6115 C 590.21 -0.899446 -1.4895 0
M  V30 6116 O 591.386 -1.20639 -1.61271 0
M  V30 6117 C 588.451 -2.33328 -2.56435 0
M  V30 6118 C 587.512 -3.56114 -2.39752 0
M  V30 6119 C 586.745 -3.88845 -3.65561 0
M  V30 6120 O 586.968 -3.22662 -4.70368 0
M  V30 6121 O 585.902 -4.82226 -3.60197 0
M  V30 6122 H 589.728 -2.89634 -0.913565 0
M  V30 6123 H 587.313 -1.44319 -0.386306 0
M  V30 6124 H 589.195 -2.5645 -3.34382 0
M  V30 6125 H 587.87 -1.45806 -2.89002 0
M  V30 6126 H 586.777 -3.38221 -1.59866 0
M  V30 6127 H 588.11 -4.4415 -2.12113 0
M  V30 6128 N 589.762 0.448376 -1.51087 0
M  V30 6129 C 591.039 1.20926 -1.53741 0
M  V30 6130 C 591.419 2.09025 -0.295222 0
M  V30 6131 O 590.767 2.16851 0.720283 0
M  V30 6132 C 590.977 2.02067 -2.84552 0
M  V30 6133 C 592.325 2.59486 -3.36084 0
M  V30 6134 O 593.349 2.12289 -2.86028 0
M  V30 6135 O 592.208 3.45539 -4.23397 0
M  V30 6136 H 589.302 0.549951 -0.617643 0
M  V30 6137 H 591.848 0.458344 -1.63393 0
M  V30 6138 H 590.62 1.37291 -3.66425 0
M  V30 6139 H 590.243 2.84246 -2.78011 0
M  V30 6140 N 591.24 1.41047 0.703093 0
M  V30 6141 C 592.17 1.45067 1.82969 0
M  V30 6142 C 593.151 0.31016 1.67248 0
M  V30 6143 O 594.336 0.520548 1.87093 0
M  V30 6144 C 591.466 1.32478 3.2104 0
M  V30 6145 C 590.42 2.44262 3.51454 0
M  V30 6146 C 589.746 2.16742 4.88801 0
M  V30 6147 C 591.046 3.86606 3.51189 0
M  V30 6148 H 592.74 2.39353 1.79863 0
M  V30 6149 H 590.286 1.15206 0.863919 0
M  V30 6150 H 592.239 1.33904 3.99559 0
M  V30 6151 H 590.963 0.346735 3.24754 0
M  V30 6152 H 589.622 2.42107 2.75282 0
M  V30 6153 H 589.27 1.17299 4.89132 0
M  V30 6154 H 588.97 2.91643 5.10116 0
M  V30 6155 H 590.494 2.19872 5.69639 0
M  V30 6156 H 591.908 3.90517 4.19725 0
M  V30 6157 H 590.305 4.61128 3.84033 0
M  V30 6158 H 591.375 4.15296 2.50315 0
M  V30 6159 N 592.718 -0.936591 1.26751 0
M  V30 6160 C 593.681 -2.01752 1.08761 0
M  V30 6161 C 594.681 -1.60763 0.0344435 0
M  V30 6162 O 595.871 -1.71963 0.278258 0
M  V30 6163 C 593.003 -3.34543 0.655271 0
M  V30 6164 H 594.196 -2.19143 2.04735 0
M  V30 6165 H 591.749 -1.11618 1.09413 0
M  V30 6166 H 592.484 -3.22851 -0.30626 0
M  V30 6167 H 592.269 -3.65647 1.41578 0
M  V30 6168 H 593.759 -4.13944 0.551378 0
M  V30 6169 N 594.196 -1.08629 -1.14182 0
M  V30 6170 C 595.146 -0.687882 -2.17376 0
M  V30 6171 C 596.13 0.293632 -1.58198 0
M  V30 6172 O 597.322 0.105292 -1.76687 0
M  V30 6173 C 594.451 -0.101184 -3.43151 0
M  V30 6174 C 593.537 -1.10862 -4.09354 0
M  V30 6175 N 593.928 -2.29285 -4.50846 0
M  V30 6176 C 592.226 -0.944897 -4.35876 0
M  V30 6177 C 592.927 -2.93305 -5.02342 0
M  V30 6178 N 591.903 -2.20903 -4.96692 0
M  V30 6179 H 595.705 -1.58963 -2.472 0
M  V30 6180 H 593.219 -0.961329 -1.3089 0
M  V30 6181 H 595.216 0.202209 -4.16409 0
M  V30 6182 H 593.876 0.795522 -3.14804 0
M  V30 6183 H 594.887 -2.66927 -4.43813 0
M  V30 6184 H 591.564 -0.102186 -4.17375 0
M  V30 6185 H 592.954 -3.93932 -5.44304 0
M  V30 6186 N 595.674 1.31259 -0.872281 0
M  V30 6187 C 596.899 2.0133 -0.498099 0
M  V30 6188 C 597.324 1.65031 0.902568 0
M  V30 6189 O 596.682 0.860164 1.59596 0
M  V30 6190 C 596.73 3.54411 -0.665205 0
M  V30 6191 O 595.834 4.11347 0.294473 0
M  V30 6192 H 595.175 0.633844 -0.197832 0
M  V30 6193 H 597.705 1.67402 -1.17633 0
M  V30 6194 H 597.715 4.04147 -0.559373 0
M  V30 6195 H 596.39 3.80171 -1.68651 0
M  V30 6196 H 594.967 3.72624 0.143403 0
M  V30 6197 N 597.152 0.631951 1.44375 0
M  V30 6198 C 598.377 0.142146 2.06912 0
M  V30 6199 C 598.802 -1.17456 1.4692 0
M  V30 6200 O 598.16 -1.72074 0.570975 0
M  V30 6201 C 598.208 0.0417952 3.60576 0
M  V30 6202 O 597.312 -1.00194 4.00044 0
M  V30 6203 H 596.653 0.0851491 0.658518 0
M  V30 6204 H 599.183 0.868863 1.85235 0
M  V30 6205 H 599.193 -0.148517 4.0773 0
M  V30 6206 H 597.868 1.0031 4.03622 0
M  V30 6207 H 596.445 -0.786131 3.64519 0
M  V30 6208 N 598.631 -1.53133 0.372548 0
M  V30 6209 C 599.88 -2.00539 -0.216115 0
M  V30 6210 C 600.193 -1.26374 -1.49295 0
M  V30 6211 O 601.399 -1.64404 -2.16064 0
M  V30 6212 C 599.855 -3.57253 -0.435678 0
M  V30 6213 C 599.463 -4.40302 0.82693 0
M  V30 6214 C 601.207 -4.12995 -0.981618 0
M  V30 6215 C 599.114 -5.88583 0.576567 0
M  V30 6216 H 598.044 -0.749246 -0.084536 0
M  V30 6217 H 600.695 -1.76771 0.492364 0
M  V30 6218 H 599.077 -3.77202 -1.20559 0
M  V30 6219 H 600.251 -4.32124 1.60017 0
M  V30 6220 H 598.566 -3.95699 1.29659 0
M  V30 6221 H 601.163 -5.21418 -1.18436 0
M  V30 6222 H 601.506 -3.68027 -1.94581 0
M  V30 6223 H 602.039 -3.96871 -0.271696 0
M  V30 6224 H 598.778 -6.37841 1.51128 0
M  V30 6225 H 598.298 -5.99592 -0.158047 0
M  V30 6226 H 599.977 -6.46676 0.204722 0
M  V30 6227 N 600.109 -0.101901 -1.5727 0
M  V30 6228 C 601.525 0.254739 -1.57554 0
M  V30 6229 C 601.725 1.67937 -1.11352 0
M  V30 6230 O 600.781 2.39722 -0.793081 0
M  V30 6231 C 602.094 0.036975 -3.00677 0
M  V30 6232 C 603.642 0.104199 -3.12827 0
M  V30 6233 C 604.117 -0.0856565 -4.5792 0
M  V30 6234 N 605.608 -0.0310498 -4.6319 0
M  V30 6235 C 606.343 -0.153099 -5.73196 0
M  V30 6236 N 605.839 -0.330364 -6.92012 0
M  V30 6237 N 607.632 -0.0938854 -5.62022 0
M  V30 6238 H 599.783 -1.03263 -1.85609 0
M  V30 6239 H 602.046 -0.405251 -0.857016 0
M  V30 6240 H 601.752 -0.947254 -3.38703 0
M  V30 6241 H 601.626 0.776335 -3.69124 0
M  V30 6242 H 604.013 1.07894 -2.74669 0
M  V30 6243 H 604.094 -0.666762 -2.46957 0
M  V30 6244 H 603.738 -1.05729 -4.96773 0
M  V30 6245 H 603.668 0.705082 -5.21858 0
M  V30 6246 H 606.159 0.103141 -3.77759 0
M  V30 6247 H 606.472 -0.41482 -7.71686 0
M  V30 6248 H 604.817 -0.366119 -6.94035 0
M  V30 6249 H 608.008 0.0435168 -4.6808 0
M  V30 6250 H 608.181 -0.19245 -6.47714 0
M  V30 6251 N 601.587 1.56661 0.17182 0
M  V30 6252 C 602.834 1.81965 0.888529 0
M  V30 6253 C 603.162 0.6789 1.82267 0
M  V30 6254 O 602.417 -0.333875 1.92831 0
M  V30 6255 C 602.716 3.13435 1.71736 0
M  V30 6256 C 602.382 4.41159 0.932184 0
M  V30 6257 C 601.044 4.75851 0.715481 0
M  V30 6258 C 603.396 5.19803 0.381387 0
M  V30 6259 C 600.724 5.86666 -0.063126 0
M  V30 6260 C 603.076 6.31433 -0.384129 0
M  V30 6261 C 601.74 6.64692 -0.611637 0
M  V30 6262 H 601.01 0.665859 0.325136 0
M  V30 6263 H 603.657 1.90884 0.153495 0
M  V30 6264 H 601.962 2.99857 2.52177 0
M  V30 6265 H 603.659 3.30224 2.27493 0
M  V30 6266 H 600.249 4.13947 1.11112 0
M  V30 6267 H 604.433 4.93396 0.536148 0
M  V30 6268 H 599.689 6.10892 -0.249136 0
M  V30 6269 H 603.863 6.91577 -0.818185 0
M  V30 6270 H 601.49 7.50398 -1.21684 0
M  V30 6271 N 603.065 -0.440357 1.51323 0
M  V30 6272 C 604.313 -1.18769 1.63518 0
M  V30 6273 C 604.634 -1.91793 0.352201 0
M  V30 6274 O 603.904 -1.85432 -0.631811 0
M  V30 6275 H 602.484 -0.441408 0.602634 0
M  V30 6276 H 605.146 -0.505162 1.8824 0
M  V30 6277 H 604.242 -1.91892 2.46138 0
M  V30 6278 N 604.543 -1.41418 -0.695603 0
M  V30 6279 C 605.792 -1.40073 -1.4513 0
M  V30 6280 C 606.105 -0.0130439 -1.95596 0
M  V30 6281 O 607.311 0.123032 -2.71221 0
M  V30 6282 C 605.767 -2.46286 -2.62433 0
M  V30 6283 C 605.375 -3.90962 -2.18753 0
M  V30 6284 C 607.119 -2.54077 -3.40066 0
M  V30 6285 C 605.026 -4.88728 -3.33015 0
M  V30 6286 H 603.956 -0.520903 -0.545138 0
M  V30 6287 H 606.607 -1.67242 -0.75515 0
M  V30 6288 H 604.989 -2.12248 -3.34315 0
M  V30 6289 H 606.163 -4.34248 -1.54161 0
M  V30 6290 H 604.478 -3.86831 -1.54114 0
M  V30 6291 H 607.075 -3.24303 -4.25125 0
M  V30 6292 H 607.418 -1.5776 -3.8525 0
M  V30 6293 H 607.951 -2.87206 -2.75241 0
M  V30 6294 H 604.69 -5.86449 -2.92844 0
M  V30 6295 H 604.21 -4.50091 -3.96457 0
M  V30 6296 H 605.889 -5.09483 -3.98793 0
M  V30 6297 N 606.021 0.929856 -1.27246 0
M  V30 6298 C 607.269 1.674 -1.13233 0
M  V30 6299 C 607.59 1.92311 0.322744 0
M  V30 6300 O 606.86 1.52784 1.22612 0
M  V30 6301 H 605.44 0.620411 -0.416052 0
M  V30 6302 H 608.102 1.11663 -1.59741 0
M  V30 6303 H 607.198 2.64308 -1.65975 0
M  V30 6304 N 607.499 1.09233 1.13605 0
M  V30 6305 C 608.915 0.82163 1.36826 0
M  V30 6306 C 609.115 -0.565021 1.93416 0
M  V30 6307 O 608.171 -1.32026 2.15234 0
M  V30 6308 C 609.484 1.91124 2.32147 0
M  V30 6309 C 611.032 1.93824 2.45767 0
M  V30 6310 C 611.507 3.01923 3.44393 0
M  V30 6311 N 612.998 3.01149 3.51942 0
M  V30 6312 C 613.733 3.81434 4.2813 0
M  V30 6313 N 613.229 4.71621 5.07489 0
M  V30 6314 N 615.022 3.69702 4.23411 0
M  V30 6315 H 607.173 1.98633 0.752234 0
M  V30 6316 H 609.436 0.862482 0.393482 0
M  V30 6317 H 609.142 2.90862 1.97717 0
M  V30 6318 H 609.016 1.78777 3.32142 0
M  V30 6319 H 611.403 0.94726 2.79483 0
M  V30 6320 H 611.484 2.10248 1.45703 0
M  V30 6321 H 611.128 4.01232 3.11408 0
M  V30 6322 H 611.058 2.82742 4.44257 0
M  V30 6323 H 613.549 2.35789 2.95317 0
M  V30 6324 H 613.862 5.29468 5.62924 0
M  V30 6325 H 612.207 4.75658 5.06729 0
M  V30 6326 H 615.398 2.98606 3.60489 0
M  V30 6327 H 615.571 4.32509 4.82535 0
M  V30 6328 N 608.977 -1.30795 0.87923 0
M  V30 6329 C 610.224 -1.96362 0.494786 0
M  V30 6330 C 610.552 -1.69448 -0.954868 0
M  V30 6331 O 609.807 -0.988711 -1.68888 0
M  V30 6332 C 610.106 -3.50287 0.709476 0
M  V30 6333 C 609.772 -3.9724 2.13333 0
M  V30 6334 C 608.434 -4.09772 2.52271 0
M  V30 6335 C 610.786 -4.21807 3.06151 0
M  V30 6336 C 608.114 -4.44227 3.83248 0
M  V30 6337 C 610.466 -4.5773 4.36654 0
M  V30 6338 C 609.13 -4.68469 4.75492 0
M  V30 6339 H 608.4 -0.71854 0.181055 0
M  V30 6340 H 611.047 -1.55764 1.11399 0
M  V30 6341 H 609.352 -3.91799 0.0072 0
M  V30 6342 H 611.049 -3.99082 0.391703 0
M  V30 6343 H 607.639 -3.87988 1.82107 0
M  V30 6344 H 611.823 -4.11611 2.77291 0
M  V30 6345 H 607.079 -4.50741 4.13089 0
M  V30 6346 H 611.253 -4.7569 5.08617 0
M  V30 6347 H 608.88 -4.94923 5.77022 0
M  V30 6348 N 610.455 -0.639598 -1.44038 0
M  V30 6349 C 611.683 -0.154811 -2.0632 0
M  V30 6350 C 612.098 1.17406 -1.47856 0
M  V30 6351 O 611.455 1.72193 -0.604638 0
M  V30 6352 C 611.506 -0.0429958 -3.61474 0
M  V30 6353 O 611.227 -1.31932 -4.17763 0
M  V30 6354 C 612.728 0.469486 -4.40807 0
M  V30 6355 H 609.948 -0.0835862 -0.665773 0
M  V30 6356 H 612.492 -0.876397 -1.84769 0
M  V30 6357 H 610.647 0.629075 -3.82258 0
M  V30 6358 H 611.061 -1.16965 -5.11292 0
M  V30 6359 H 612.535 0.496712 -5.49761 0
M  V30 6360 H 613.012 1.49819 -4.12857 0
M  V30 6361 H 613.618 -0.169624 -4.24962 0
M  V30 6362 N 611.933 1.52934 -0.380664 0
M  V30 6363 C 613.161 2.05886 0.204599 0
M  V30 6364 C 613.576 1.25305 1.41223 0
M  V30 6365 O 612.933 0.297504 1.80059 0
M  V30 6366 C 612.984 3.56764 0.583249 0
M  V30 6367 O 612.705 4.34292 -0.576398 0
M  V30 6368 C 614.206 4.2603 1.2253 0
M  V30 6369 H 611.426 0.670193 0.0328991 0
M  V30 6370 H 613.97 1.97148 -0.543397 0
M  V30 6371 H 612.125 3.65603 1.28115 0
M  V30 6372 H 612.539 5.23819 -0.267119 0
M  V30 6373 H 614.013 5.32868 1.44068 0
M  V30 6374 H 614.49 3.80698 2.19011 0
M  V30 6375 H 615.096 4.21485 0.568407 0
M  V30 6376 N 613.412 0.11024 1.57214 0
M  V30 6377 C 614.322 -0.857077 2.18383 0
M  V30 6378 C 615.338 -1.29915 1.1575 0
M  V30 6379 O 616.514 -1.36394 1.48184 0
M  V30 6380 C 613.579 -2.09264 2.76423 0
M  V30 6381 C 612.64 -1.70333 3.94063 0
M  V30 6382 C 611.873 -2.87999 4.49324 0
M  V30 6383 O 612.096 -4.0317 4.03497 0
M  V30 6384 O 611.03 -2.6559 5.40135 0
M  V30 6385 H 614.856 -0.366561 3.0148 0
M  V30 6386 H 612.441 -0.114914 1.48957 0
M  V30 6387 H 614.323 -2.81644 3.13456 0
M  V30 6388 H 612.998 -2.57339 1.96363 0
M  V30 6389 H 611.905 -0.950864 3.61814 0
M  V30 6390 H 613.238 -1.27007 4.75531 0
M  V30 6391 N 614.89 -1.56749 -0.16351 0
M  V30 6392 C 615.8 -2.00255 -1.2221 0
M  V30 6393 C 616.816 -0.915194 -1.47987 0
M  V30 6394 O 617.992 -1.22342 -1.59982 0
M  V30 6395 C 615.057 -2.36035 -2.53946 0
M  V30 6396 C 614.118 -3.58637 -2.35962 0
M  V30 6397 C 613.351 -3.92701 -3.61416 0
M  V30 6398 O 613.574 -3.27632 -4.66919 0
M  V30 6399 O 612.508 -4.86019 -3.55062 0
M  V30 6400 H 616.334 -2.90586 -0.882794 0
M  V30 6401 H 613.919 -1.44721 -0.370978 0
M  V30 6402 H 615.801 -2.59982 -3.31643 0
M  V30 6403 H 614.476 -1.48863 -2.8744 0
M  V30 6404 H 613.383 -3.39898 -1.5627 0
M  V30 6405 H 614.716 -4.46374 -2.0739 0
M  V30 6406 N 616.368 0.432326 -1.51554 0
M  V30 6407 C 617.278 1.55023 -1.76082 0
M  V30 6408 C 618.294 1.61593 -0.645265 0
M  V30 6409 O 619.47 1.78742 -0.928086 0
M  V30 6410 C 616.535 2.90964 -1.88523 0
M  V30 6411 C 615.596 2.9447 -3.12388 0
M  V30 6412 C 614.829 4.23926 -3.24225 0
M  V30 6413 O 615.052 5.16576 -2.4188 0
M  V30 6414 O 613.986 4.33818 -4.17235 0
M  V30 6415 H 617.812 1.37238 -2.70923 0
M  V30 6416 H 615.397 0.615845 -1.36117 0
M  V30 6417 H 617.279 3.71633 -1.98662 0
M  V30 6418 H 615.954 3.08865 -0.9687 0
M  V30 6419 H 614.861 2.12737 -3.07723 0
M  V30 6420 H 616.194 2.81514 -4.03746 0
M  V30 6421 N 617.846 1.41785 0.688094 0
M  V30 6422 C 619.092 1.41753 1.4503 0
M  V30 6423 C 619.425 0.0290745 1.94178 0
M  V30 6424 O 618.7 -0.944456 1.7003 0
M  V30 6425 C 618.983 2.43069 2.65686 0
M  V30 6426 C 618.836 3.91053 2.22256 0
M  V30 6427 C 620.155 2.41543 3.67893 0
M  V30 6428 H 617.274 0.516202 0.526027 0
M  V30 6429 H 619.916 1.73111 0.783105 0
M  V30 6430 H 618.066 2.1646 3.2261 0
M  V30 6431 H 619.738 4.28594 1.70602 0
M  V30 6432 H 617.981 4.05559 1.53963 0
M  V30 6433 H 618.652 4.57501 3.08863 0
M  V30 6434 H 621.128 2.65175 3.20658 0
M  V30 6435 H 620.004 3.14434 4.49914 0
M  V30 6436 H 620.265 1.43666 4.18106 0
M  V30 6437 N 619.324 -0.923095 1.27737 0
M  V30 6438 C 620.601 -1.64989 1.05062 0
M  V30 6439 C 620.981 -2.07018 -0.413124 0
M  V30 6440 O 620.329 -1.80797 -1.39731 0
M  V30 6441 C 620.539 -2.84847 2.01652 0
M  V30 6442 C 621.887 -3.56083 2.31279 0
M  V30 6443 O 622.911 -2.94981 1.99662 0
M  V30 6444 O 621.77 -4.66182 2.85196 0
M  V30 6445 H 618.864 -0.723357 0.400853 0
M  V30 6446 H 621.41 -0.973224 1.3902 0
M  V30 6447 H 620.182 -2.50814 3.00347 0
M  V30 6448 H 619.805 -3.60231 1.68284 0
M  V30 6449 N 620.802 -1.09834 -1.13024 0
M  V30 6450 C 622.032 -0.857657 -1.87957 0
M  V30 6451 C 622.44 0.595008 -1.796 0
M  V30 6452 O 621.783 1.42158 -1.16347 0
M  V30 6453 C 621.845 -1.21949 -3.38185 0
M  V30 6454 C 621.509 -2.67791 -3.7032 0
M  V30 6455 C 622.506 -3.66036 -3.69207 0
M  V30 6456 C 620.191 -3.04019 -3.99847 0
M  V30 6457 C 622.185 -4.98533 -3.9717 0
M  V30 6458 C 619.872 -4.36706 -4.27471 0
M  V30 6459 C 620.87 -5.33772 -4.26118 0
M  V30 6460 O 620.558 -6.64072 -4.53061 0
M  V30 6461 H 620.29 -0.308009 -0.601753 0
M  V30 6462 H 622.844 -1.46496 -1.43973 0
M  V30 6463 H 621.074 -0.555249 -3.82693 0
M  V30 6464 H 622.763 -0.957281 -3.9445 0
M  V30 6465 H 623.529 -3.39392 -3.46465 0
M  V30 6466 H 619.408 -2.29096 -4.00045 0
M  V30 6467 H 622.952 -5.74288 -3.96029 0
M  V30 6468 H 618.849 -4.63091 -4.49685 0
M  V30 6469 H 619.617 -6.69608 -4.7071 0
M  V30 6470 N 622.28 1.30327 -0.886154 0
M  V30 6471 C 623.508 2.00254 -0.520176 0
M  V30 6472 C 623.923 1.66419 0.891637 0
M  V30 6473 O 623.28 0.901951 1.58654 0
M  V30 6474 C 623.331 3.54916 -0.686775 0
M  V30 6475 O 623.052 3.87547 -2.04301 0
M  V30 6476 C 624.553 4.42115 -0.323945 0
M  V30 6477 H 621.773 0.640204 -0.200947 0
M  V30 6478 H 624.317 1.66183 -1.19178 0
M  V30 6479 H 622.472 3.8735 -0.0625273 0
M  V30 6480 H 622.886 4.82247 -2.06249 0
M  V30 6481 H 624.36 5.49808 -0.491407 0
M  V30 6482 H 624.837 4.32953 0.73811 0
M  V30 6483 H 625.443 4.15129 -0.924565 0
M  V30 6484 N 623.758 0.647228 1.43697 0
M  V30 6485 C 625.004 0.158422 2.0218 0
M  V30 6486 C 625.337 -1.22233 1.50907 0
M  V30 6487 O 624.612 -1.81478 0.699702 0
M  V30 6488 C 624.895 0.1627 3.59732 0
M  V30 6489 C 624.748 1.57694 4.21251 0
M  V30 6490 C 626.067 -0.504138 4.37203 0
M  V30 6491 H 623.186 0.059042 0.734631 0
M  V30 6492 H 625.828 0.826772 1.71069 0
M  V30 6493 H 623.978 -0.406414 3.86368 0
M  V30 6494 H 625.65 2.19618 4.05667 0
M  V30 6495 H 623.893 2.12603 3.7813 0
M  V30 6496 H 624.564 1.53183 5.3032 0
M  V30 6497 H 627.04 -0.0199841 4.16095 0
M  V30 6498 H 625.916 -0.470394 5.46881 0
M  V30 6499 H 626.177 -1.57726 4.13007 0
M  V30 6500 N 625.236 -1.5273 0.388769 0
M  V30 6501 C 626.146 -2.30165 -0.453993 0
M  V30 6502 C 627.162 -1.37058 -1.07197 0
M  V30 6503 O 628.338 -1.70127 -1.0779 0
M  V30 6504 C 625.403 -3.09303 -1.56628 0
M  V30 6505 C 624.464 -4.18117 -0.973467 0
M  V30 6506 C 623.697 -4.93472 -2.03275 0
M  V30 6507 O 623.92 -4.68913 -3.24772 0
M  V30 6508 O 622.854 -5.78833 -1.65034 0
M  V30 6509 H 626.68 -3.03185 0.176816 0
M  V30 6510 H 624.265 -1.4862 0.152501 0
M  V30 6511 H 626.147 -3.58648 -2.21246 0
M  V30 6512 H 624.822 -2.39098 -2.18206 0
M  V30 6513 H 623.729 -3.7297 -0.290556 0
M  V30 6514 H 625.062 -4.90556 -0.401908 0
M  V30 6515 N 626.714 -0.118576 -1.57153 0
M  V30 6516 C 627.661 0.831789 -2.1529 0
M  V30 6517 C 628.631 1.26385 -1.07778 0
M  V30 6518 O 629.816 1.34144 -1.35684 0
M  V30 6519 C 626.956 2.07664 -2.75626 0
M  V30 6520 C 626.069 1.69298 -3.97444 0
M  V30 6521 C 625.204 2.88747 -4.45868 0
M  V30 6522 C 624.243 2.46619 -5.60219 0
M  V30 6523 N 623.38 3.5898 -6.03389 0
M  V30 6524 H 628.22 0.329183 -2.96176 0
M  V30 6525 H 625.757 0.150792 -1.46325 0
M  V30 6526 H 627.715 2.80601 -3.08738 0
M  V30 6527 H 626.345 2.55384 -1.97431 0
M  V30 6528 H 625.397 0.862374 -3.70496 0
M  V30 6529 H 626.709 1.34338 -4.80369 0
M  V30 6530 H 625.863 3.69909 -4.80887 0
M  V30 6531 H 624.602 3.26933 -3.61892 0
M  V30 6532 H 623.607 1.63889 -5.24805 0
M  V30 6533 H 624.832 2.0955 -6.45961 0
M  V30 6534 H 622.778 3.9684 -5.22354 0
M  V30 6535 H 622.695 3.27942 -6.81168 0
M  V30 6536 H 623.963 4.40583 -6.43045 0
M  V30 6537 N 628.193 1.56834 0.155195 0
M  V30 6538 C 629.433 1.84701 0.875488 0
M  V30 6539 C 629.797 0.701747 1.78716 0
M  V30 6540 O 630.998 0.861263 2.54629 0
M  V30 6541 C 629.269 3.1773 1.63654 0
M  V30 6542 S 630.828 3.67128 2.40338 0
M  V30 6543 H 627.646 0.647856 0.292923 0
M  V30 6544 H 630.248 1.95026 0.136024 0
M  V30 6545 H 628.952 3.99059 0.958117 0
M  V30 6546 H 628.483 3.10388 2.41708 0
M  V30 6547 H 630.498 3.35739 3.65368 0
M  V30 6548 N 629.671 -0.424282 1.51781 0
M  V30 6549 C 630.92 -1.16961 1.64326 0
M  V30 6550 C 631.233 -1.92035 0.371749 0
M  V30 6551 O 632.439 -2.68873 0.37676 0
M  V30 6552 C 630.895 -2.12782 2.90262 0
M  V30 6553 C 630.503 -1.43295 4.24465 0
M  V30 6554 C 632.247 -2.87667 3.12166 0
M  V30 6555 C 630.154 -2.37676 5.41538 0
M  V30 6556 H 629.084 -0.440293 0.612093 0
M  V30 6557 H 631.735 -0.435431 1.78259 0
M  V30 6558 H 630.117 -2.8969 2.69992 0
M  V30 6559 H 631.291 -0.718564 4.55163 0
M  V30 6560 H 629.606 -0.805118 4.08542 0
M  V30 6561 H 632.203 -3.58395 3.96808 0
M  V30 6562 H 632.546 -3.49758 2.25776 0
M  V30 6563 H 633.079 -2.17863 3.32837 0
M  V30 6564 H 629.818 -1.80255 6.30229 0
M  V30 6565 H 629.338 -3.07132 5.15199 0
M  V30 6566 H 631.017 -2.98529 5.74012 0
M  V30 6567 N 631.149 -1.42148 -0.680565 0
M  V30 6568 C 632.081 -1.41119 -1.80605 0
M  V30 6569 C 633.094 -0.311099 -1.598 0
M  V30 6570 O 634.283 -0.573813 -1.69026 0
M  V30 6571 C 631.383 -1.18204 -3.17618 0
M  V30 6572 C 630.556 -2.40537 -3.65322 0
M  V30 6573 C 629.615 -2.13254 -4.8105 0
M  V30 6574 O 628.641 -2.8641 -4.91892 0
M  V30 6575 N 629.843 -1.13208 -5.69354 0
M  V30 6576 H 632.608 -2.38128 -1.81975 0
M  V30 6577 H 630.169 -1.36953 -0.863446 0
M  V30 6578 H 632.161 -0.97878 -3.92686 0
M  V30 6579 H 630.731 -0.29738 -3.11182 0
M  V30 6580 H 629.951 -2.76468 -2.80996 0
M  V30 6581 H 631.239 -3.22012 -3.93936 0
M  V30 6582 H 630.637 -0.526893 -5.63241 0
M  V30 6583 H 629.194 -0.988699 -6.44258 0
M  V30 6584 N 632.627 0.916307 -1.28225 0
M  V30 6585 C 633.577 2.00488 -1.08574 0
M  V30 6586 C 634.561 1.60897 -0.0101874 0
M  V30 6587 O 635.753 1.75499 -0.230034 0
M  V30 6588 C 632.882 3.35076 -0.746943 0
M  V30 6589 C 631.968 3.81077 -1.86121 0
M  V30 6590 N 632.359 3.99475 -3.10247 0
M  V30 6591 C 630.657 4.10212 -1.75048 0
M  V30 6592 C 631.358 4.37965 -3.82834 0
M  V30 6593 N 630.334 4.4608 -3.10667 0
M  V30 6594 H 634.136 2.1276 -2.02757 0
M  V30 6595 H 631.65 1.10397 -1.19107 0
M  V30 6596 H 633.647 4.12743 -0.587252 0
M  V30 6597 H 632.307 3.2416 0.187146 0
M  V30 6598 H 633.318 3.85466 -3.45885 0
M  V30 6599 H 629.995 4.07947 -0.887999 0
M  V30 6600 H 631.385 4.60183 -4.89572 0
M  V30 6601 N 634.105 1.10431 1.1244 0
M  V30 6602 C 635.351 0.847972 1.84221 0
M  V30 6603 C 635.684 -0.624903 1.83871 0
M  V30 6604 O 634.959 -1.46074 1.28423 0
M  V30 6605 C 635.242 1.39695 3.319 0
M  V30 6606 C 635.095 2.93668 3.40704 0
M  V30 6607 C 636.414 1.03924 4.27654 0
M  V30 6608 H 633.533 0.309502 0.668863 0
M  V30 6609 H 636.175 1.36745 1.31912 0
M  V30 6610 H 634.325 0.955095 3.76577 0
M  V30 6611 H 635.997 3.46379 3.04662 0
M  V30 6612 H 634.24 3.30272 2.81252 0
M  V30 6613 H 634.911 3.27162 4.446 0
M  V30 6614 H 637.387 1.42049 3.91102 0
M  V30 6615 H 636.263 1.45027 5.29394 0
M  V30 6616 H 636.524 -0.051336 4.4207 0
M  V30 6617 N 635.583 -1.29855 0.893053 0
M  V30 6618 C 636.53 -2.27909 0.364161 0
M  V30 6619 C 637.5 -1.56726 -0.550093 0
M  V30 6620 O 638.685 -1.84747 -0.47677 0
M  V30 6621 C 635.825 -3.42678 -0.408178 0
M  V30 6622 C 634.938 -4.28659 0.536212 0
M  V30 6623 C 634.073 -5.30599 -0.252521 0
M  V30 6624 C 633.112 -6.08234 0.686822 0
M  V30 6625 N 632.249 -7.02068 -0.0670902 0
M  V30 6626 H 637.089 -2.72531 1.20544 0
M  V30 6627 H 634.626 -1.34047 0.605779 0
M  V30 6628 H 636.584 -4.07986 -0.871962 0
M  V30 6629 H 635.214 -2.99103 -1.21397 0
M  V30 6630 H 634.266 -3.63584 1.1185 0
M  V30 6631 H 635.578 -4.8274 1.25552 0
M  V30 6632 H 634.732 -6.01694 -0.777801 0
M  V30 6633 H 633.471 -4.77233 -1.005 0
M  V30 6634 H 632.476 -5.3601 1.22366 0
M  V30 6635 H 633.701 -6.63689 1.43852 0
M  V30 6636 H 631.647 -6.5108 -0.801955 0
M  V30 6637 H 631.564 -7.53675 0.59243 0
M  V30 6638 H 632.832 -7.77392 -0.572851 0
M  V30 6639 N 637.061 -0.65484 -1.43351 0
M  V30 6640 C 638.477 -0.32255 -1.56307 0
M  V30 6641 C 638.677 1.17324 -1.63821 0
M  V30 6642 O 637.733 1.95813 -1.59417 0
M  V30 6643 C 639.046 -1.03533 -2.82314 0
M  V30 6644 C 640.594 -1.01574 -2.9606 0
M  V30 6645 C 641.069 -1.70945 -4.24902 0
M  V30 6646 N 642.56 -1.67716 -4.3177 0
M  V30 6647 C 643.295 -2.18265 -5.30234 0
M  V30 6648 N 642.791 -2.7711 -6.34966 0
M  V30 6649 N 644.584 -2.08756 -5.21898 0
M  V30 6650 H 636.735 -1.62549 -1.36717 0
M  V30 6651 H 638.998 -0.683676 -0.656727 0
M  V30 6652 H 638.704 -2.09045 -2.8283 0
M  V30 6653 H 638.578 -0.587913 -3.7259 0
M  V30 6654 H 640.965 0.0309834 -2.95084 0
M  V30 6655 H 641.046 -1.50186 -2.07069 0
M  V30 6656 H 640.69 -2.75574 -4.26639 0
M  V30 6657 H 640.62 -1.19797 -5.12793 0
M  V30 6658 H 643.111 -1.24777 -3.56706 0
M  V30 6659 H 643.424 -3.13353 -7.06421 0
M  V30 6660 H 641.769 -2.81171 -6.35585 0
M  V30 6661 H 644.96 -1.62488 -4.38994 0
M  V30 6662 H 645.133 -2.48459 -5.98475 0
M  V30 6663 N 638.539 1.52521 -0.396863 0
M  V30 6664 C 639.469 2.29582 0.425941 0
M  V30 6665 C 640.45 1.33281 1.05689 0
M  V30 6666 O 641.635 1.62181 1.06823 0
M  V30 6667 C 638.765 3.10821 1.54943 0
M  V30 6668 C 637.719 4.15069 1.04413 0
M  V30 6669 C 637.045 4.84578 2.26028 0
M  V30 6670 C 638.345 5.22191 0.106767 0
M  V30 6671 H 640.039 2.98612 -0.217045 0
M  V30 6672 H 637.585 1.43611 -0.105826 0
M  V30 6673 H 639.538 3.63492 2.13193 0
M  V30 6674 H 638.262 2.39538 2.22011 0
M  V30 6675 H 636.921 3.63389 0.484118 0
M  V30 6676 H 636.569 4.09835 2.91623 0
M  V30 6677 H 636.269 5.55043 1.92876 0
M  V30 6678 H 637.793 5.40056 2.84906 0
M  V30 6679 H 639.207 5.70176 0.597685 0
M  V30 6680 H 637.604 5.99947 -0.135352 0
M  V30 6681 H 638.674 4.77531 -0.842134 0
M  V30 6682 N 640.017 0.126909 1.57088 0
M  V30 6683 C 641.433 -0.229641 1.57939 0
M  V30 6684 C 641.633 -1.66145 1.1401 0
M  V30 6685 O 640.689 -2.3843 0.831119 0
M  V30 6686 C 642.002 0.0108648 3.00698 0
M  V30 6687 C 643.55 -0.054418 3.12953 0
M  V30 6688 C 644.025 0.158497 4.57726 0
M  V30 6689 N 645.516 0.104735 4.63082 0
M  V30 6690 C 646.251 0.24427 5.72879 0
M  V30 6691 N 645.747 0.440415 6.91399 0
M  V30 6692 N 647.54 0.183286 5.61801 0
M  V30 6693 H 639.691 1.06203 1.83942 0
M  V30 6694 H 641.954 0.418834 0.85046 0
M  V30 6695 H 641.66 1.00102 3.37154 0
M  V30 6696 H 641.534 -0.717512 3.70313 0
M  V30 6697 H 643.921 -1.0351 2.7635 0
M  V30 6698 H 644.002 0.705967 2.45865 0
M  V30 6699 H 643.646 1.13619 4.95028 0
M  V30 6700 H 643.576 -0.62197 5.22914 0
M  V30 6701 H 646.067 -0.0430298 3.77876 0
M  V30 6702 H 646.38 0.537536 7.70928 0
M  V30 6703 H 644.725 0.476488 6.93365 0
M  V30 6704 H 647.916 0.0309561 4.6809 0
M  V30 6705 H 648.089 0.295471 6.47326 0
M  V30 6706 N 641.495 -1.56914 -0.146875 0
M  V30 6707 C 642.405 -2.0154 -1.20079 0
M  V30 6708 C 643.421 -0.930838 -1.47008 0
M  V30 6709 O 644.597 -1.24032 -1.58676 0
M  V30 6710 C 641.662 -2.38715 -2.51428 0
M  V30 6711 C 640.723 -3.6112 -2.32145 0
M  V30 6712 C 639.956 -3.96512 -3.57231 0
M  V30 6713 O 640.179 -3.32566 -4.63418 0
M  V30 6714 O 639.113 -4.89758 -3.49887 0
M  V30 6715 H 642.939 -2.91506 -0.851924 0
M  V30 6716 H 640.524 -1.45106 -0.355607 0
M  V30 6717 H 642.406 -2.63485 -3.28867 0
M  V30 6718 H 641.081 -1.51903 -2.85845 0
M  V30 6719 H 639.988 -3.41536 -1.52656 0
M  V30 6720 H 641.321 -4.48549 -2.02644 0
M  V30 6721 N 642.974 0.416227 -1.52004 0
M  V30 6722 C 643.907 1.52736 -1.6955 0
M  V30 6723 C 644.885 1.53264 -0.54305 0
M  V30 6724 O 646.069 1.72077 -0.769527 0
M  V30 6725 C 643.196 2.91283 -1.72835 0
M  V30 6726 C 642.242 3.08695 -2.94295 0
M  V30 6727 S 643.075 2.82758 -4.54762 0
M  V30 6728 C 644.231 4.23548 -4.60823 0
M  V30 6729 H 644.464 1.37623 -2.63528 0
M  V30 6730 H 641.997 0.607335 -1.41954 0
M  V30 6731 H 643.955 3.71134 -1.75413 0
M  V30 6732 H 642.616 3.03742 -0.799966 0
M  V30 6733 H 641.809 4.10042 -2.93056 0
M  V30 6734 H 641.411 2.36699 -2.89568 0
M  V30 6735 H 643.703 5.17078 -4.37763 0
M  V30 6736 H 644.646 4.29813 -5.62731 0
M  V30 6737 H 645.054 4.08188 -3.89927 0
M  V30 6738 N 644.452 1.42507 0.673017 0
M  V30 6739 C 645.677 1.4668 1.46627 0
M  V30 6740 C 646.102 0.080066 1.8793 0
M  V30 6741 O 645.46 -0.921879 1.56112 0
M  V30 6742 C 645.508 2.40091 2.69051 0
M  V30 6743 O 644.612 1.8735 3.67387 0
M  V30 6744 H 643.953 0.496908 0.44043 0
M  V30 6745 H 646.483 1.87215 0.825334 0
M  V30 6746 H 646.493 2.56731 3.17101 0
M  V30 6747 H 645.168 3.4084 2.3833 0
M  V30 6748 H 643.745 1.80274 3.26429 0
M  V30 6749 N 645.93 -0.909495 1.28709 0
M  V30 6750 C 647.341 -1.47419 1.14563 0
M  V30 6751 C 647.692 -1.94432 -0.262832 0
M  V30 6752 O 646.817 -1.82842 -1.15748 0
M  V30 6753 C 647.412 -2.67933 2.07358 0
M  V30 6754 C 645.971 -3.20568 1.97264 0
M  V30 6755 C 645.118 -1.93269 1.98852 0
M  V30 6756 H 648.069 -0.721787 1.41336 0
M  V30 6757 H 648.09 -3.43339 1.64007 0
M  V30 6758 H 647.602 -2.33685 3.09859 0
M  V30 6759 H 645.703 -3.59531 0.978157 0
M  V30 6760 H 645.816 -3.85529 2.84436 0
M  V30 6761 H 644.18 -2.10553 1.43317 0
M  V30 6762 H 644.963 -1.61312 3.0304 0
M  V30 6763 N 647.408 -1.11026 -1.11852 0
M  V30 6764 C 648.338 -0.786812 -2.19844 0
M  V30 6765 C 649.319 0.242935 -1.68356 0
M  V30 6766 O 650.504 0.107355 -1.93903 0
M  V30 6767 C 647.634 -0.224516 -3.46574 0
M  V30 6768 C 646.588 -1.18564 -4.1125 0
M  V30 6769 C 645.914 -0.484261 -5.32503 0
M  V30 6770 C 647.214 -2.53465 -4.56676 0
M  V30 6771 H 648.908 -1.68978 -2.47158 0
M  V30 6772 H 646.454 -0.813906 -1.18792 0
M  V30 6773 H 648.407 0.0139435 -4.21398 0
M  V30 6774 H 647.131 0.713722 -3.18706 0
M  V30 6775 H 645.79 -1.40966 -3.38414 0
M  V30 6776 H 645.438 0.458646 -5.00905 0
M  V30 6777 H 645.138 -1.12526 -5.76725 0
M  V30 6778 H 646.662 -0.254492 -6.10069 0
M  V30 6779 H 648.076 -2.35177 -5.22843 0
M  V30 6780 H 646.473 -3.13507 -5.11697 0
M  V30 6781 H 647.543 -3.13008 -3.70343 0
M  V30 6782 N 648.886 1.2938 -0.899927 0
M  V30 6783 C 650.132 1.96206 -0.536153 0
M  V30 6784 C 650.487 1.69647 0.90761 0
M  V30 6785 O 649.78 0.999089 1.63489 0
M  V30 6786 C 649.974 3.49114 -0.765113 0
M  V30 6787 C 649.803 3.90538 -2.22958 0
M  V30 6788 C 648.573 4.15395 -2.87706 0
M  V30 6789 C 650.771 4.0224 -3.20479 0
M  V30 6790 N 648.753 4.43389 -4.24593 0
M  V30 6791 C 650.124 4.34288 -4.42486 0
M  V30 6792 C 652.179 3.84716 -3.16066 0
M  V30 6793 C 650.882 4.50638 -5.6064 0
M  V30 6794 C 652.908 4.02276 -4.33507 0
M  V30 6795 C 652.27 4.34684 -5.54283 0
M  V30 6796 H 648.369 0.742364 -0.245804 0
M  V30 6797 H 650.953 1.56314 -1.16078 0
M  V30 6798 H 649.124 3.88028 -0.169861 0
M  V30 6799 H 650.856 4.03035 -0.366751 0
M  V30 6800 H 647.611 4.09164 -2.385 0
M  V30 6801 H 648.035 4.61494 -4.95331 0
M  V30 6802 H 652.677 3.58724 -2.23778 0
M  V30 6803 H 650.395 4.75467 -6.5342 0
M  V30 6804 H 653.981 3.90169 -4.31578 0
M  V30 6805 H 652.861 4.47988 -6.43643 0
M  V30 6806 N 650.364 0.662433 1.43002 0
M  V30 6807 C 651.274 -0.0239199 2.34588 0
M  V30 6808 C 652.29 -0.802255 1.54402 0
M  V30 6809 O 653.466 -0.747401 1.87018 0
M  V30 6810 C 650.531 -0.972098 3.32793 0
M  V30 6811 C 649.592 -0.189673 4.28881 0
M  V30 6812 C 648.825 -1.09269 5.22395 0
M  V30 6813 O 649.048 -2.33209 5.20547 0
M  V30 6814 O 647.982 -0.560136 5.99288 0
M  V30 6815 H 651.808 0.730171 2.94792 0
M  V30 6816 H 649.393 0.422635 1.43297 0
M  V30 6817 H 651.275 -1.51676 3.93157 0
M  V30 6818 H 649.95 -1.70626 2.75079 0
M  V30 6819 H 648.857 0.398794 3.71968 0
M  V30 6820 H 650.19 0.50511 4.89601 0
M  V30 6821 N 651.842 -1.52309 0.404946 0
M  V30 6822 C 652.775 -2.23369 -0.467087 0
M  V30 6823 C 653.753 -1.24034 -1.0514 0
M  V30 6824 O 654.937 -1.53071 -1.10006 0
M  V30 6825 C 652.064 -2.95906 -1.64795 0
M  V30 6826 C 651.11 -4.09637 -1.18743 0
M  V30 6827 S 651.943 -5.35273 -0.156022 0
M  V30 6828 C 653.099 -6.11337 -1.34231 0
M  V30 6829 H 653.332 -2.96987 0.136294 0
M  V30 6830 H 650.865 -1.53236 0.189219 0
M  V30 6831 H 652.823 -3.38304 -2.3251 0
M  V30 6832 H 651.484 -2.21937 -2.22267 0
M  V30 6833 H 650.677 -4.59549 -2.06955 0
M  V30 6834 H 650.279 -3.69333 -0.588981 0
M  V30 6835 H 652.571 -6.38458 -2.26665 0
M  V30 6836 H 653.514 -7.02563 -0.883804 0
M  V30 6837 H 653.922 -5.42338 -1.56621 0
M  V30 6838 N 653.32 -0.135238 -1.57019 0
M  V30 6839 C 654.566 0.519563 -1.96032 0
M  V30 6840 C 654.899 1.65284 -1.01955 0
M  V30 6841 O 654.174 1.94408 -0.059727 0
M  V30 6842 C 654.457 1.0369 -3.44848 0
M  V30 6843 C 654.31 -0.0940754 -4.49702 0
M  V30 6844 C 655.629 1.92254 -3.95887 0
M  V30 6845 H 652.748 0.18739 -0.712779 0
M  V30 6846 H 655.39 -0.214086 -1.8879 0
M  V30 6847 H 653.54 1.66209 -3.5115 0
M  V30 6848 H 655.212 -0.73 -4.55487 0
M  V30 6849 H 653.455 -0.754924 -4.27181 0
M  V30 6850 H 654.126 0.309419 -5.51132 0
M  V30 6851 H 656.602 1.39581 -3.9199 0
M  V30 6852 H 655.478 2.25364 -5.00502 0
M  V30 6853 H 655.739 2.85513 -3.37543 0
M  V30 6854 N 654.798 1.5699 0.138552 0
M  V30 6855 C 655.73 1.95515 1.1961 0
M  V30 6856 C 656.743 0.852002 1.38726 0
M  V30 6857 O 657.932 1.13038 1.38147 0
M  V30 6858 C 655.032 2.2213 2.55952 0
M  V30 6859 C 654.205 3.53424 2.57702 0
M  V30 6860 C 653.264 3.6848 3.75645 0
M  V30 6861 O 652.29 4.4079 3.60129 0
M  V30 6862 N 653.492 3.05777 4.93438 0
M  V30 6863 H 656.257 2.86838 0.868557 0
M  V30 6864 H 653.818 1.58542 0.328033 0
M  V30 6865 H 655.81 2.29435 3.33379 0
M  V30 6866 H 654.38 1.3703 2.80965 0
M  V30 6867 H 653.6 3.57484 1.6613 0
M  V30 6868 H 654.888 4.39759 2.55909 0
M  V30 6869 H 654.286 2.46961 5.08947 0
M  V30 6870 H 652.843 3.18631 5.6861 0
M  V30 6871 N 656.276 -0.40816 1.52223 0
M  V30 6872 C 657.553 -1.16807 1.56893 0
M  V30 6873 C 657.933 -2.08169 0.350537 0
M  V30 6874 O 657.281 -2.18684 -0.662536 0
M  V30 6875 C 657.491 -1.94451 2.8981 0
M  V30 6876 C 658.839 -2.50484 3.42845 0
M  V30 6877 O 659.863 -2.0463 2.91556 0
M  V30 6878 O 658.722 -3.34192 4.3241 0
M  V30 6879 H 655.816 -0.533382 0.632007 0
M  V30 6880 H 658.362 -0.414862 1.64551 0
M  V30 6881 H 657.134 -1.27527 3.69936 0
M  V30 6882 H 656.757 -2.76775 2.85449 0
M  V30 6883 N 657.755 -1.42862 -0.66545 0
M  V30 6884 C 659.003 -1.43546 -1.42264 0
M  V30 6885 C 659.324 -0.0563116 -1.94919 0
M  V30 6886 O 658.594 0.906568 -1.73661 0
M  V30 6887 H 657.174 -0.528464 -0.527953 0
M  V30 6888 H 659.836 -1.78363 -0.785665 0
M  V30 6889 H 658.932 -2.14079 -2.27105 0
M  V30 6890 N 659.233 0.902656 -1.29189 0
M  V30 6891 C 660.482 1.6475 -1.16362 0
M  V30 6892 C 660.795 1.93517 0.284682 0
M  V30 6893 O 662.001 2.66192 0.534229 0
M  V30 6894 C 660.457 2.96848 -2.03493 0
M  V30 6895 C 660.065 2.75687 -3.5313 0
M  V30 6896 C 661.809 3.74762 -1.99383 0
M  V30 6897 C 659.716 4.03492 -4.32375 0
M  V30 6898 H 658.646 0.618041 -0.431904 0
M  V30 6899 H 661.297 1.0008 -1.53806 0
M  V30 6900 H 659.679 3.62715 -1.58916 0
M  V30 6901 H 660.853 2.18431 -4.05739 0
M  V30 6902 H 659.168 2.11171 -3.58881 0
M  V30 6903 H 661.765 4.69515 -2.5585 0
M  V30 6904 H 662.108 4.04767 -0.973123 0
M  V30 6905 H 662.641 3.15732 -2.41988 0
M  V30 6906 H 659.38 3.78656 -5.3507 0
M  V30 6907 H 658.9 4.60318 -3.84535 0
M  V30 6908 H 660.579 4.71662 -4.42881 0
M  V30 6909 N 660.711 1.11618 1.11262 0
M  V30 6910 C 661.988 0.777876 1.79467 0
M  V30 6911 C 662.368 -0.733774 1.97937 0
M  V30 6912 O 661.716 -1.66443 1.56554 0
M  V30 6913 C 661.926 1.5431 3.13032 0
M  V30 6914 C 663.274 1.72357 3.88044 0
M  V30 6915 O 664.298 1.5075 3.22727 0
M  V30 6916 O 663.157 2.08276 5.05256 0
M  V30 6917 H 660.251 0.282018 0.777428 0
M  V30 6918 H 662.797 1.21971 1.17988 0
M  V30 6919 H 661.569 2.57132 2.94956 0
M  V30 6920 H 661.192 1.09495 3.82226 0
M  V30 6921 N 662.189 -1.289 0.906776 0
M  V30 6922 C 663.119 -2.29932 0.406659 0
M  V30 6923 C 664.1 -1.6189 -0.522061 0
M  V30 6924 O 665.285 -1.8935 -0.431283 0
M  V30 6925 C 662.415 -3.45425 -0.360366 0
M  V30 6926 C 661.369 -4.25316 0.478574 0
M  V30 6927 C 660.695 -5.33076 -0.416373 0
M  V30 6928 C 661.995 -4.92739 1.7322 0
M  V30 6929 H 663.689 -2.72013 1.25097 0
M  V30 6930 H 661.235 -1.30768 0.602977 0
M  V30 6931 H 663.188 -4.15186 -0.721029 0
M  V30 6932 H 661.912 -3.02206 -1.23852 0
M  V30 6933 H 660.571 -3.57273 0.821662 0
M  V30 6934 H 660.219 -4.86101 -1.29287 0
M  V30 6935 H 659.919 -5.8743 0.141309 0
M  V30 6936 H 661.443 -6.05686 -0.773072 0
M  V30 6937 H 662.857 -5.54898 1.44086 0
M  V30 6938 H 661.254 -5.57057 2.23175 0
M  V30 6939 H 662.324 -4.17625 2.46408 0
M  V30 6940 N 663.667 -0.670007 -1.42649 0
M  V30 6941 C 664.614 0.0112928 -2.30797 0
M  V30 6942 C 665.584 0.797627 -1.45695 0
M  V30 6943 O 666.769 0.770845 -1.74535 0
M  V30 6944 C 663.909 0.95998 -3.31479 0
M  V30 6945 C 663.022 0.167975 -4.31673 0
M  V30 6946 C 662.157 1.11198 -5.19431 0
M  V30 6947 C 661.196 0.311381 -6.11307 0
M  V30 6948 N 660.333 1.20784 -6.91633 0
M  V30 6949 H 665.173 -0.746231 -2.88505 0
M  V30 6950 H 662.71 -0.379739 -1.42114 0
M  V30 6951 H 664.668 1.52379 -3.88377 0
M  V30 6952 H 663.298 1.68419 -2.75382 0
M  V30 6953 H 662.35 -0.512385 -3.76933 0
M  V30 6954 H 663.662 -0.453814 -4.96731 0
M  V30 6955 H 662.816 1.74587 -5.81037 0
M  V30 6956 H 661.555 1.76766 -4.54538 0
M  V30 6957 H 660.56 -0.335758 -5.48774 0
M  V30 6958 H 661.785 -0.340135 -6.78248 0
M  V30 6959 H 659.731 1.85001 -6.29373 0
M  V30 6960 H 659.648 0.64102 -7.53277 0
M  V30 6961 H 660.916 1.82936 -7.5773 0
M  V30 6962 N 665.145 1.52092 -0.413018 0
M  V30 6963 C 666.37 2.06756 0.163338 0
M  V30 6964 C 666.795 1.28073 1.37764 0
M  V30 6965 O 666.153 0.312015 1.78595 0
M  V30 6966 C 666.201 3.57278 0.488322 0
M  V30 6967 O 665.305 3.80986 1.57871 0
M  V30 6968 H 664.646 0.663882 0.0125068 0
M  V30 6969 H 667.176 1.95988 -0.587339 0
M  V30 6970 H 667.186 4.01125 0.745836 0
M  V30 6971 H 665.861 4.13978 -0.399327 0
M  V30 6972 H 664.438 3.49017 1.31306 0
M  V30 6973 N 666.623 0.143563 1.56945 0
M  V30 6974 C 667.872 -0.50835 1.95189 0
M  V30 6975 C 668.185 -1.66239 1.03073 0
M  V30 6976 O 669.391 -2.3787 1.30882 0
M  V30 6977 C 667.847 -0.955735 3.46978 0
M  V30 6978 C 667.455 0.171183 4.47673 0
M  V30 6979 C 669.199 -1.57763 3.94095 0
M  V30 6980 C 667.106 -0.294279 5.90667 0
M  V30 6981 H 666.036 -0.193679 0.728701 0
M  V30 6982 H 668.687 0.227357 1.82086 0
M  V30 6983 H 667.069 -1.7466 3.55401 0
M  V30 6984 H 668.243 0.948049 4.50942 0
M  V30 6985 H 666.558 0.701273 4.10452 0
M  V30 6986 H 669.155 -1.93745 4.98364 0
M  V30 6987 H 669.498 -2.46531 3.35452 0
M  V30 6988 H 670.031 -0.851728 3.88575 0
M  V30 6989 H 666.77 0.557939 6.53121 0
M  V30 6990 H 666.29 -1.0371 5.90766 0
M  V30 6991 H 667.969 -0.747426 6.42668 0
M  V30 6992 N 668.101 -1.57061 -0.130224 0
M  V30 6993 C 669.048 -1.99517 -1.16024 0
M  V30 6994 C 670.018 -0.865452 -1.41771 0
M  V30 6995 O 671.203 -1.12882 -1.53826 0
M  V30 6996 C 668.343 -2.3951 -2.48453 0
M  V30 6997 C 667.456 -3.65848 -2.29737 0
M  V30 6998 C 666.591 -3.9487 -3.55318 0
M  V30 6999 C 665.63 -5.14426 -3.31711 0
M  V30 7000 N 664.767 -5.39375 -4.49466 0
M  V30 7001 H 669.607 -2.87305 -0.791194 0
M  V30 7002 H 667.144 -1.42129 -0.379195 0
M  V30 7003 H 669.102 -2.60731 -3.25692 0
M  V30 7004 H 667.732 -1.54779 -2.83272 0
M  V30 7005 H 666.784 -3.52307 -1.4347 0
M  V30 7006 H 668.096 -4.53241 -2.08263 0
M  V30 7007 H 667.25 -4.16679 -4.4098 0
M  V30 7008 H 665.989 -3.05931 -3.79813 0
M  V30 7009 H 664.994 -4.92473 -2.44439 0
M  V30 7010 H 666.219 -6.04933 -3.08598 0
M  V30 7011 H 664.165 -4.53391 -4.74102 0
M  V30 7012 H 664.082 -6.21069 -4.31055 0
M  V30 7013 H 665.35 -5.65694 -5.36293 0
M  V30 7014 N 669.579 0.400081 -1.52437 0
M  V30 7015 C 670.825 1.14456 -1.68141 0
M  V30 7016 C 671.18 1.87965 -0.410722 0
M  V30 7017 O 670.473 1.82121 0.595195 0
M  V30 7018 C 670.667 2.15914 -2.84808 0
M  V30 7019 C 670.496 1.5237 -4.231 0
M  V30 7020 C 669.266 1.29252 -4.8849 0
M  V30 7021 C 671.464 0.979722 -5.04882 0
M  V30 7022 N 669.446 0.616955 -6.10792 0
M  V30 7023 C 670.817 0.43159 -6.18496 0
M  V30 7024 C 672.872 0.875059 -4.9015 0
M  V30 7025 C 671.575 -0.210958 -7.18991 0
M  V30 7026 C 673.601 0.246351 -5.90887 0
M  V30 7027 C 672.963 -0.291062 -7.03798 0
M  V30 7028 H 669.062 0.405181 -0.668844 0
M  V30 7029 H 671.646 0.435655 -1.89763 0
M  V30 7030 H 669.817 2.84154 -2.64785 0
M  V30 7031 H 671.549 2.8279 -2.89503 0
M  V30 7032 H 668.304 1.56451 -4.47012 0
M  V30 7033 H 668.728 0.295536 -6.76355 0
M  V30 7034 H 673.37 1.27636 -4.03074 0
M  V30 7035 H 671.088 -0.6243 -8.05685 0
M  V30 7036 H 674.674 0.166765 -5.81561 0
M  V30 7037 H 673.554 -0.76988 -7.80412 0
M  V30 7038 N 671.057 1.43213 0.657864 0
M  V30 7039 C 672.285 1.48015 1.44566 0
M  V30 7040 C 672.7 0.0965951 1.88553 0
M  V30 7041 O 672.057 -0.892221 1.59203 0
M  V30 7042 C 672.108 2.42199 2.68369 0
M  V30 7043 O 671.829 3.75173 2.26223 0
M  V30 7044 C 673.33 2.56195 3.61772 0
M  V30 7045 H 670.55 0.502861 0.444266 0
M  V30 7046 H 673.094 1.87907 0.806917 0
M  V30 7047 H 671.249 2.05514 3.28394 0
M  V30 7048 H 671.663 4.25776 3.06293 0
M  V30 7049 H 673.137 3.26182 4.4532 0
M  V30 7050 H 673.614 1.60534 4.0881 0
M  V30 7051 H 674.22 2.93671 3.07632 0
M  V30 7052 N 672.536 -0.895792 1.29666 0
M  V30 7053 C 673.468 -2.00563 1.10937 0
M  V30 7054 C 674.481 -1.62705 0.055734 0
M  V30 7055 O 675.67 -1.7595 0.300656 0
M  V30 7056 C 672.77 -3.32262 0.667448 0
M  V30 7057 C 671.943 -3.98625 1.80047 0
M  V30 7058 C 671.002 -5.08617 1.3489 0
M  V30 7059 O 670.028 -5.30837 2.05429 0
M  V30 7060 N 671.23 -5.80076 0.221937 0
M  V30 7061 H 673.995 -2.17184 2.06522 0
M  V30 7062 H 671.556 -1.06822 1.21658 0
M  V30 7063 H 673.548 -4.03196 0.348586 0
M  V30 7064 H 672.118 -3.11985 -0.196055 0
M  V30 7065 H 671.338 -3.21005 2.28801 0
M  V30 7066 H 672.626 -4.39704 2.56003 0
M  V30 7067 H 672.024 -5.64514 -0.366084 0
M  V30 7068 H 670.581 -6.51789 -0.0375346 0
M  V30 7069 N 674.014 -1.12206 -1.10668 0
M  V30 7070 C 674.964 -0.75669 -2.15077 0
M  V30 7071 C 675.948 0.243154 -1.59052 0
M  V30 7072 O 677.14 0.0490268 -1.76932 0
M  V30 7073 C 674.269 -0.210303 -3.42655 0
M  V30 7074 C 673.355 -1.23829 -4.05619 0
M  V30 7075 N 673.746 -2.43513 -4.43323 0
M  V30 7076 C 672.044 -1.08309 -4.32649 0
M  V30 7077 C 672.745 -3.09138 -4.92756 0
M  V30 7078 N 671.721 -2.36593 -4.89413 0
M  V30 7079 H 675.523 -1.66747 -2.42018 0
M  V30 7080 H 673.037 -1.00248 -1.27765 0
M  V30 7081 H 675.034 0.0696287 -4.16842 0
M  V30 7082 H 673.694 0.694967 -3.17176 0
M  V30 7083 H 674.705 -2.80912 -4.35097 0
M  V30 7084 H 671.382 -0.234919 -4.16839 0
M  V30 7085 H 672.772 -4.11049 -5.31496 0
M  V30 7086 O 675.531 1.23095 -1.04546 0
M  V30 7087 H 676.222 1.79876 -0.718642 0
M  V30 END ATOM
M  V30 BEGIN BOND
M  V30 END BOND
M  V30 END CTAB
M  END
$$$$
