drugbank_target|Q8TDN2 Potassium voltage-gated channel subfamily V member 2 (DB00228; DB01069; DB01110)
 OpenBabel12092121213D

  0  0  0     0  0            999 V3000
M  V30 BEGIN CTAB
M  V30 COUNTS 8708 8809 0 0 0
M  V30 BEGIN ATOM
M  V30 1 H -0.908 1.98254 -0.117106 0
M  V30 2 N 0 1.576 0 0
M  V30 3 C 0.933 2.03868 1.02534 0
M  V30 4 C 1.911 0.928543 1.3348 0
M  V30 5 O 3.095 1.19667 1.45644 0
M  V30 6 C 0.222 2.43627 2.35294 0
M  V30 7 C -0.732 3.65373 2.2001 0
M  V30 8 S 0.101 5.13292 1.52614 0
M  V30 9 C 1.257 5.56322 2.86805 0
M  V30 10 H 1.49 2.90518 0.631377 0
M  V30 11 H -0.977 1.52953 0.210867 0
M  V30 12 H 0.981 2.67203 3.11629 0
M  V30 13 H -0.358 1.57376 2.7183 0
M  V30 14 H -1.165 3.90944 3.18086 0
M  V30 15 H -1.563 3.418 1.51819 0
M  V30 16 H 0.729 5.58782 3.83104 0
M  V30 17 H 1.672 6.56266 2.65933 0
M  V30 18 H 2.08 4.83886 2.90714 0
M  V30 19 N 1.4781 -0.272755 1.55222 0
M  V30 20 C 2.4081 -1.34136 1.91127 0
M  V30 21 C 3.3891 -1.51513 0.773168 0
M  V30 22 O 4.5741 -1.64552 1.03132 0
M  V30 23 C 1.7041 -2.70083 2.1834 0
M  V30 24 C 0.6581 -2.67437 3.34158 0
M  V30 25 C -0.0159 -4.06938 3.46851 0
M  V30 26 C 1.2841 -2.26686 4.70543 0
M  V30 27 H 2.9781 -1.04333 2.80633 0
M  V30 28 H 0.5241 -0.500454 1.35024 0
M  V30 29 H 2.4771 -3.44952 2.42046 0
M  V30 30 H 1.2011 -3.01469 1.25634 0
M  V30 31 H -0.1399 -1.95026 3.1042 0
M  V30 32 H -0.4919 -4.35547 2.51611 0
M  V30 33 H -0.7919 -4.06062 4.2472 0
M  V30 34 H 0.7321 -4.83545 3.72849 0
M  V30 35 H 2.1461 -2.91277 4.93792 0
M  V30 36 H 0.5431 -2.36971 5.5133 0
M  V30 37 H 1.6131 -1.21818 4.69349 0
M  V30 38 N 2.9562 -1.48159 -0.537278 0
M  V30 39 C 3.9032 -1.62138 -1.64256 0
M  V30 40 C 4.8732 -0.463668 -1.59497 0
M  V30 41 O 6.0582 -0.686241 -1.78032 0
M  V30 42 C 3.1982 -1.66028 -3.02537 0
M  V30 43 C 2.3112 -2.92855 -3.17585 0
M  V30 44 C 1.4462 -2.87952 -4.46382 0
M  V30 45 C 0.4852 -4.09516 -4.54932 0
M  V30 46 N -0.3778 -4.02733 -5.75109 0
M  V30 47 H 4.4622 -2.56529 -1.51647 0
M  V30 48 H 1.9992 -1.27224 -0.738414 0
M  V30 49 H 3.9572 -1.66265 -3.82638 0
M  V30 50 H 2.5872 -0.751331 -3.13934 0
M  V30 51 H 1.6392 -3.02395 -2.30784 0
M  V30 52 H 2.9512 -3.82822 -3.19764 0
M  V30 53 H 2.1052 -2.8655 -5.34765 0
M  V30 54 H 0.8442 -1.95702 -4.46712 0
M  V30 55 H -0.1508 -4.11201 -3.64957 0
M  V30 56 H 1.0742 -5.02917 -4.56346 0
M  V30 57 H -0.9798 -3.13299 -5.76351 0
M  V30 58 H -1.0628 -4.86397 -5.78752 0
M  V30 59 H 0.2052 -4.05379 -6.65799 0
M  V30 60 N 4.4343 0.785586 -1.36625 0
M  V30 61 C 5.3663 1.90711 -1.2713 0
M  V30 62 C 6.3793 1.61688 -0.189986 0
M  V30 63 O 7.5683 1.72864 -0.445014 0
M  V30 64 C 4.6683 3.25611 -0.939713 0
M  V30 65 C 3.8413 3.82385 -2.12369 0
M  V30 66 C 2.9003 4.95732 -1.76456 0
M  V30 67 O 1.9263 5.12047 -2.48589 0
M  V30 68 N 3.1283 5.76258 -0.700492 0
M  V30 69 H 5.8933 1.99376 -2.23762 0
M  V30 70 H 3.4543 0.964041 -1.30069 0
M  V30 71 H 5.4463 3.98937 -0.680554 0
M  V30 72 H 4.0163 3.12538 -0.0624074 0
M  V30 73 H 3.2363 3.01001 -2.54543 0
M  V30 74 H 4.5243 4.17047 -2.9146 0
M  V30 75 H 3.9223 5.65609 -0.101624 0
M  V30 76 H 2.4793 6.4987 -0.501165 0
M  V30 77 N 5.9124 1.20967 1.01018 0
M  V30 78 C 7.1374 1.0503 1.78839 0
M  V30 79 C 7.5624 -0.395752 1.8389 0
M  V30 80 O 6.9204 -1.28529 1.27867 0
M  V30 81 C 6.9684 1.64602 3.2084 0
M  V30 82 O 6.0724 0.887988 4.02726 0
M  V30 83 H 5.4134 0.369987 0.551367 0
M  V30 84 H 7.9434 1.60399 1.27018 0
M  V30 85 H 7.9534 1.68607 3.71532 0
M  V30 86 H 6.6284 2.69841 3.16479 0
M  V30 87 H 5.2054 0.922648 3.61305 0
M  V30 88 N 7.3905 -1.2043 1.01659 0
M  V30 89 C 8.3005 -2.2689 0.596484 0
M  V30 90 C 9.3165 -1.70107 -0.36599 0
M  V30 91 O 10.4925 -2.00117 -0.226942 0
M  V30 92 C 7.5575 -3.4665 -0.0586659 0
M  V30 93 C 6.6185 -4.18662 0.949751 0
M  V30 94 C 5.8515 -5.32705 0.32577 0
M  V30 95 O 6.0745 -5.63656 -0.874509 0
M  V30 96 O 5.0085 -5.92803 1.04249 0
M  V30 97 H 8.8345 -2.65041 1.4828 0
M  V30 98 H 6.4195 -1.27048 0.786082 0
M  V30 99 H 8.3015 -4.19256 -0.424564 0
M  V30 100 H 6.9765 -3.10375 -0.91918 0
M  V30 101 H 5.8835 -3.48229 1.36702 0
M  V30 102 H 7.2165 -4.58878 1.78023 0
M  V30 103 N 8.8686 -0.792821 -1.36206 0
M  V30 104 C 10.2846 -0.474903 -1.52371 0
M  V30 105 C 10.4846 1.00622 -1.74578 0
M  V30 106 O 9.5406 1.79162 -1.77924 0
M  V30 107 C 10.8536 -1.3083 -2.70747 0
M  V30 108 C 12.4016 -1.30234 -2.84619 0
M  V30 109 C 12.8766 -2.11956 -4.06004 0
M  V30 110 N 14.3676 -2.09419 -4.13156 0
M  V30 111 C 15.1026 -2.69419 -5.06163 0
M  V30 112 N 14.5986 -3.3829 -6.04592 0
M  V30 113 N 16.3916 -2.59134 -4.98804 0
M  V30 114 H 8.5426 -1.75222 -1.20046 0
M  V30 115 H 10.8056 -0.745024 -0.586211 0
M  V30 116 H 10.5116 -2.35881 -2.6087 0
M  V30 117 H 10.3856 -0.95196 -3.6499 0
M  V30 118 H 12.7726 -0.259748 -2.93955 0
M  V30 119 H 12.8536 -1.69847 -1.91274 0
M  V30 120 H 12.4976 -3.16248 -3.97429 0
M  V30 121 H 12.4276 -1.69711 -4.98503 0
M  V30 122 H 14.9186 -1.59297 -3.42685 0
M  V30 123 H 15.2316 -3.81394 -6.7213 0
M  V30 124 H 13.5766 -3.42393 -6.04807 0
M  V30 125 H 16.7676 -2.04927 -4.20859 0
M  V30 126 H 16.9406 -3.06185 -5.711 0
M  V30 127 N 10.3467 1.47872 -0.545128 0
M  V30 128 C 11.7627 1.5829 -0.204032 0
M  V30 129 C 11.9627 1.54529 1.29317 0
M  V30 130 O 11.0187 1.44232 2.07252 0
M  V30 131 C 12.3317 2.89304 -0.819987 0
M  V30 132 C 13.8797 3.02864 -0.790105 0
M  V30 133 C 14.3547 4.3656 -1.38491 0
M  V30 134 N 15.8457 4.43165 -1.34755 0
M  V30 135 C 16.5807 5.45153 -1.77753 0
M  V30 136 N 16.0767 6.54016 -2.2855 0
M  V30 137 N 17.8697 5.36125 -1.68897 0
M  V30 138 H 10.0207 1.4856 -1.51802 0
M  V30 139 H 12.2837 0.706305 -0.632327 0
M  V30 140 H 11.9897 2.97757 -1.87173 0
M  V30 141 H 11.8637 3.75957 -0.305915 0
M  V30 142 H 14.2507 2.94014 0.252913 0
M  V30 143 H 14.3317 2.17782 -1.34181 0
M  V30 144 H 13.9757 4.46164 -2.42693 0
M  V30 145 H 13.9057 5.20353 -0.808754 0
M  V30 146 H 16.3967 3.65083 -0.975855 0
M  V30 147 H 16.7097 7.27994 -2.59314 0
M  V30 148 H 15.0547 6.54938 -2.32553 0
M  V30 149 H 18.2457 4.49975 -1.28998 0
M  V30 150 H 18.4187 6.15472 -2.02726 0
M  V30 151 N 11.8248 0.280983 1.55075 0
M  V30 152 C 13.2408 -0.0729964 1.59433 0
M  V30 153 C 13.4408 -1.5411 1.29817 0
M  V30 154 O 12.4968 -2.29086 1.06187 0
M  V30 155 C 13.8098 0.306921 2.9913 0
M  V30 156 C 15.3578 0.254023 3.11968 0
M  V30 157 C 15.8328 0.608467 4.5394 0
M  V30 158 N 17.3238 0.560241 4.59799 0
M  V30 159 C 18.0588 0.80722 5.6769 0
M  V30 160 N 17.5548 1.11912 6.83701 0
M  V30 161 N 19.3478 0.735623 5.57266 0
M  V30 162 H 11.4988 1.238 1.7259 0
M  V30 163 H 13.7618 0.500547 0.805082 0
M  V30 164 H 13.4678 1.32816 3.25657 0
M  V30 165 H 13.3418 -0.349363 3.75579 0
M  V30 166 H 15.7288 -0.75794 2.852 0
M  V30 167 H 15.8098 0.944649 2.37718 0
M  V30 168 H 15.4538 1.61814 4.81434 0
M  V30 169 H 15.3838 -0.104013 5.26497 0
M  V30 170 H 17.8748 0.329288 3.76463 0
M  V30 171 H 18.1878 1.29409 7.61888 0
M  V30 172 H 16.5328 1.15695 6.85303 0
M  V30 173 H 19.7238 0.491752 4.6551 0
M  V30 174 H 19.8968 0.931482 6.4127 0
M  V30 175 N 13.3029 -1.57598 0.00835791 0
M  V30 176 C 14.5279 -1.95617 -0.689103 0
M  V30 177 C 14.9529 -0.883753 -1.66046 0
M  V30 178 O 14.3109 0.157352 -1.80616 0
M  V30 179 C 14.3589 -3.32736 -1.38994 0
M  V30 180 O 13.4629 -3.27631 -2.50463 0
M  V30 181 H 12.8039 -0.638379 -0.182668 0
M  V30 182 H 15.3339 -2.045 0.064036 0
M  V30 183 H 15.3439 -3.68494 -1.75147 0
M  V30 184 H 14.0189 -4.1034 -0.677778 0
M  V30 185 H 12.5959 -3.03561 -2.16576 0
M  V30 186 N 14.781 0.264519 -1.55364 0
M  V30 187 C 16.027 0.992314 -1.77552 0
M  V30 188 C 16.382 1.83626 -0.574379 0
M  V30 189 O 15.675 1.86648 0.432782 0
M  V30 190 C 15.869 1.9004 -3.02687 0
M  V30 191 C 15.698 1.14583 -4.34857 0
M  V30 192 C 14.468 0.858068 -4.97961 0
M  V30 193 C 16.666 0.532069 -5.1154 0
M  V30 194 N 14.648 0.0775974 -6.13851 0
M  V30 195 C 16.019 -0.113823 -6.19896 0
M  V30 196 C 18.074 0.440763 -4.95945 0
M  V30 197 C 16.777 -0.842231 -7.14352 0
M  V30 198 C 18.803 -0.274072 -5.90765 0
M  V30 199 C 18.165 -0.90867 -6.98515 0
M  V30 200 H 14.264 0.344811 -0.701875 0
M  V30 201 H 16.848 0.267141 -1.92859 0
M  V30 202 H 15.019 2.59775 -2.88741 0
M  V30 203 H 16.751 2.56243 -3.13243 0
M  V30 204 H 13.506 1.16547 -4.59036 0
M  V30 205 H 13.93 -0.300216 -6.76334 0
M  V30 206 H 18.572 0.917064 -4.12735 0
M  V30 207 H 16.29 -1.33019 -7.97077 0
M  V30 208 H 19.876 -0.345151 -5.80775 0
M  V30 209 H 18.756 -1.45299 -7.70622 0
M  V30 210 N 16.2591 1.48442 0.529413 0
M  V30 211 C 17.4841 1.60406 1.31471 0
M  V30 212 C 17.9091 0.264738 1.86228 0
M  V30 213 O 17.2671 -0.763668 1.64432 0
M  V30 214 C 17.3151 2.65419 2.44101 0
M  V30 215 O 16.4191 2.22618 3.47153 0
M  V30 216 H 15.7601 0.537863 0.389357 0
M  V30 217 H 18.2901 1.94432 0.636965 0
M  V30 218 H 18.3001 2.86709 2.90279 0
M  V30 219 H 16.9751 3.62652 2.03608 0
M  V30 220 H 15.5521 2.11543 3.0709 0
M  V30 221 N 17.7372 -0.778329 1.37039 0
M  V30 222 C 18.9672 -1.56507 1.34868 0
M  V30 223 C 19.3752 -1.89072 -0.0694802 0
M  V30 224 O 18.7182 -1.51434 -1.03987 0
M  V30 225 C 18.7802 -2.90641 2.11585 0
M  V30 226 C 18.4442 -2.80746 3.60598 0
M  V30 227 C 19.4412 -2.52226 4.54618 0
M  V30 228 C 17.1262 -2.98974 4.03633 0
M  V30 229 C 19.1202 -2.42054 5.89651 0
M  V30 230 C 16.8072 -2.88423 5.38754 0
M  V30 231 C 17.8052 -2.60002 6.31576 0
M  V30 232 O 17.4932 -2.49465 7.64214 0
M  V30 233 H 17.2252 -0.491723 0.463879 0
M  V30 234 H 19.7792 -0.973053 1.80889 0
M  V30 235 H 18.0092 -3.51936 1.60243 0
M  V30 236 H 19.6982 -3.51992 2.0213 0
M  V30 237 H 20.4642 -2.37835 4.22681 0
M  V30 238 H 16.3432 -3.20099 3.31749 0
M  V30 239 H 19.8872 -2.19791 6.62071 0
M  V30 240 H 15.7842 -3.0238 5.70295 0
M  V30 241 H 16.5522 -2.64864 7.74461 0
M  V30 242 N 19.2153 -1.21501 -1.00376 0
M  V30 243 C 20.6313 -0.972629 -1.26539 0
M  V30 244 C 20.8313 0.340257 -1.98606 0
M  V30 245 O 19.8873 1.06561 -2.28913 0
M  V30 246 C 21.2003 -2.16404 -2.08781 0
M  V30 247 C 22.7483 -2.20643 -2.22004 0
M  V30 248 C 23.2233 -3.39306 -3.07629 0
M  V30 249 N 24.7143 -3.39401 -3.15217 0
M  V30 250 C 25.4493 -4.27867 -3.81729 0
M  V30 251 N 24.9453 -5.26533 -4.5026 0
M  V30 252 N 26.7383 -4.15672 -3.78382 0
M  V30 253 H 18.8893 -2.05929 -0.520281 0
M  V30 254 H 21.1523 -0.901803 -0.292328 0
M  V30 255 H 20.8583 -3.11554 -1.63178 0
M  V30 256 H 20.7323 -2.15567 -3.09533 0
M  V30 257 H 23.1193 -1.26048 -2.66825 0
M  V30 258 H 23.2003 -2.25523 -1.20718 0
M  V30 259 H 22.8443 -4.34195 -2.63509 0
M  V30 260 H 22.7743 -3.31665 -4.09031 0
M  V30 261 H 25.2653 -2.67997 -2.66432 0
M  V30 262 H 25.5783 -5.90337 -4.98721 0
M  V30 263 H 23.9233 -5.30457 -4.49044 0
M  V30 264 H 27.1143 -3.3785 -3.23998 0
M  V30 265 H 27.2873 -4.84825 -4.2994 0
M  V30 266 N 20.6934 1.19889 -1.02296 0
M  V30 267 C 22.1044 1.71124 -0.746568 0
M  V30 268 C 22.4554 1.81939 0.734335 0
M  V30 269 O 21.5804 1.48639 1.57275 0
M  V30 270 C 22.1754 3.10804 -1.34857 0
M  V30 271 C 20.7344 3.59323 -1.1209 0
M  V30 272 C 19.8814 2.3635 -1.45031 0
M  V30 273 H 22.8324 1.04813 -1.19163 0
M  V30 274 H 22.8534 3.73186 -0.742437 0
M  V30 275 H 22.3654 3.029 -2.42638 0
M  V30 276 H 20.4664 3.7255 -0.0610337 0
M  V30 277 H 20.5794 4.4378 -1.80544 0
M  V30 278 H 18.9434 2.39399 -0.869487 0
M  V30 279 H 19.7264 2.31081 -2.53883 0
M  V30 280 N 22.1715 0.800033 1.35784 0
M  V30 281 C 23.4175 0.38701 1.99684 0
M  V30 282 C 23.7725 -1.03268 1.62338 0
M  V30 283 O 23.0655 -1.70543 0.87325 0
M  V30 284 C 23.2595 0.500276 3.53881 0
M  V30 285 C 23.0885 1.92942 4.06206 0
M  V30 286 C 21.8585 2.55637 4.35865 0
M  V30 287 C 24.0565 2.89307 4.25213 0
M  V30 288 N 22.0385 3.9003 4.74078 0
M  V30 289 C 23.4095 4.08556 4.66349 0
M  V30 290 C 25.4645 2.86225 4.07406 0
M  V30 291 C 24.1675 5.25146 4.91543 0
M  V30 292 C 26.1935 4.02011 4.33752 0
M  V30 293 C 25.5555 5.20007 4.75155 0
M  V30 294 H 21.6545 0.189252 0.758754 0
M  V30 295 H 24.2385 1.03988 1.64604 0
M  V30 296 H 22.4095 -0.122568 3.88207 0
M  V30 297 H 24.1415 0.0624733 4.04652 0
M  V30 298 H 20.8965 2.07039 4.25948 0
M  V30 299 H 21.3205 4.59205 4.97454 0
M  V30 300 H 25.9625 1.96154 3.74544 0
M  V30 301 H 23.6805 6.15794 5.23281 0
M  V30 302 H 27.2665 4.00999 4.21534 0
M  V30 303 H 26.1465 6.08113 4.95145 0
M  V30 304 N 23.6496 -1.47581 0.552962 0
M  V30 305 C 24.5976 -2.31648 -0.21023 0
M  V30 306 C 25.5916 -1.42663 -0.913432 0
M  V30 307 O 26.7976 -1.5945 -0.835201 0
M  V30 308 H 23.1726 -0.746989 -0.0866676 0
M  V30 309 H 25.1436 -2.93869 0.518051 0
M  V30 310 C 23.8926 -3.25226 -1.22976 0
M  V30 311 H 23.2156 -3.93658 -0.698077 0
M  V30 312 H 24.6556 -3.86889 -1.73473 0
M  V30 313 C 23.1146 -2.48448 -2.27542 0
M  V30 314 O 23.6446 -2.22585 -3.34393 0
M  V30 315 N 21.8506 -2.09532 -2.01357 0
M  V30 316 H 21.3976 -2.30765 -1.14478 0
M  V30 317 H 21.3556 -1.58476 -2.71538 0
M  V30 318 N 25.1277 -0.289203 -1.54924 0
M  V30 319 C 26.3557 0.326463 -2.04308 0
M  V30 320 C 26.7707 1.48413 -1.16701 0
M  V30 321 O 26.1277 1.81507 -0.190087 0
M  V30 322 C 26.1787 0.794014 -3.52672 0
M  V30 323 O 25.8997 -0.317564 -4.36948 0
M  V30 324 C 27.4007 1.47605 -4.18004 0
M  V30 325 H 24.6207 0.0726272 -0.667058 0
M  V30 326 H 27.1647 -0.425401 -2.00026 0
M  V30 327 H 25.3197 1.49593 -3.57352 0
M  V30 328 H 25.7337 0.0443186 -5.24481 0
M  V30 329 H 27.2077 1.75447 -5.23376 0
M  V30 330 H 27.6847 2.41224 -3.67025 0
M  V30 331 H 28.2907 0.81762 -4.17367 0
M  V30 332 N 26.6058 1.57591 -0.0167156 0
M  V30 333 C 27.8338 1.95575 0.675128 0
M  V30 334 C 28.2488 0.892542 1.6637 0
M  V30 335 O 27.6058 -0.126912 1.82058 0
M  V30 336 C 27.6568 3.33608 1.39239 0
M  V30 337 O 27.3778 4.3585 0.443444 0
M  V30 338 C 28.8788 3.86151 2.17721 0
M  V30 339 H 26.0988 0.644423 0.186978 0
M  V30 340 H 28.6428 2.0437 -0.0728 0
M  V30 341 H 26.7978 3.2607 2.09182 0
M  V30 342 H 27.2118 5.158 0.951358 0
M  V30 343 H 28.6858 4.85114 2.63379 0
M  V30 344 H 29.1628 3.19738 3.01105 0
M  V30 345 H 29.7688 3.96918 1.52761 0
M  V30 346 N 28.0839 -0.256276 1.55502 0
M  V30 347 C 28.9939 -1.33882 1.92647 0
M  V30 348 C 30.0099 -1.53159 0.825727 0
M  V30 349 O 31.1859 -1.66963 1.12629 0
M  V30 350 C 28.2509 -2.6751 2.20543 0
M  V30 351 C 27.3119 -2.56836 3.43997 0
M  V30 352 C 26.5449 -3.84092 3.70553 0
M  V30 353 O 26.7679 -4.85545 2.99336 0
M  V30 354 O 25.7019 -3.83288 4.64084 0
M  V30 355 H 29.5279 -1.05374 2.84833 0
M  V30 356 H 27.1129 -0.456237 1.42263 0
M  V30 357 H 28.9949 -3.46492 2.39835 0
M  V30 358 H 27.6699 -2.9577 1.31536 0
M  V30 359 H 26.5769 -1.76172 3.30021 0
M  V30 360 H 27.9099 -2.33523 4.33275 0
M  V30 361 N 29.562 -1.4872 -0.521534 0
M  V30 362 C 30.51 -1.64328 -1.64618 0
M  V30 363 C 31.504 -0.50953 -1.61555 0
M  V30 364 O 32.71 -0.688525 -1.66311 0
M  V30 365 H 29.085 -0.517805 -0.545328 0
M  V30 366 H 31.056 -2.58767 -1.48601 0
M  V30 367 C 29.805 -1.70805 -3.02855 0
M  V30 368 H 29.128 -2.5741 -3.05909 0
M  V30 369 H 30.568 -1.85766 -3.81139 0
M  V30 370 C 29.027 -0.448479 -3.33902 0
M  V30 371 O 29.557 0.434928 -3.99339 0
M  V30 372 N 27.763 -0.317616 -2.88859 0
M  V30 373 H 27.31 -1.03748 -2.35784 0
M  V30 374 H 27.268 0.524113 -3.10001 0
M  V30 375 N 31.0401 0.771051 -1.3745 0
M  V30 376 C 31.9501 1.91538 -1.35464 0
M  V30 377 C 32.9661 1.72134 -0.254123 0
M  V30 378 O 34.1421 1.95358 -0.489626 0
M  V30 379 C 31.2071 3.26671 -1.16134 0
M  V30 380 C 30.2681 3.58723 -2.35831 0
M  V30 381 C 29.5011 4.87409 -2.17413 0
M  V30 382 O 29.7241 5.58506 -1.15876 0
M  V30 383 O 28.6581 5.18539 -3.05615 0
M  V30 384 H 32.4841 1.96165 -2.31847 0
M  V30 385 H 30.0691 0.9139 -1.18187 0
M  V30 386 H 31.9511 4.07499 -1.07345 0
M  V30 387 H 30.6261 3.22894 -0.228251 0
M  V30 388 H 29.5331 2.78127 -2.50192 0
M  V30 389 H 30.8661 3.67243 -3.27709 0
M  V30 390 N 32.5182 1.22032 0.997298 0
M  V30 391 C 33.7662 1.04016 1.73278 0
M  V30 392 C 34.0872 -0.426255 1.90284 0
M  V30 393 O 33.3572 -1.30694 1.45931 0
M  V30 394 H 31.9372 0.381897 0.642 0
M  V30 395 H 34.5992 1.5347 1.20137 0
M  V30 396 H 33.6952 1.51441 2.72896 0
M  V30 397 N 33.9963 -1.19345 1.0293 0
M  V30 398 C 35.2213 -1.93538 0.745511 0
M  V30 399 C 35.6463 -1.75007 -0.689511 0
M  V30 400 O 35.0043 -1.05265 -1.47611 0
M  V30 401 C 35.0523 -3.43336 1.10239 0
M  V30 402 O 34.1563 -4.11806 0.221289 0
M  V30 403 H 33.4973 -0.604193 0.275404 0
M  V30 404 H 36.0273 -1.5141 1.37609 0
M  V30 405 H 36.0373 -3.94004 1.05947 0
M  V30 406 H 34.7123 -3.56146 2.14786 0
M  V30 407 H 33.2893 -3.715 0.322842 0
M  V30 408 N 35.4744 -0.807222 -1.35358 0
M  V30 409 C 36.4064 -0.175717 -2.28525 0
M  V30 410 C 37.4194 0.625354 -1.5031 0
M  V30 411 O 38.6084 0.457611 -1.72535 0
M  V30 412 C 35.7084 0.773471 -3.29956 0
M  V30 413 C 34.8814 0.0186296 -4.37396 0
M  V30 414 C 33.9404 0.886395 -5.18681 0
M  V30 415 O 32.9664 0.337106 -5.68201 0
M  V30 416 N 34.1684 2.20839 -5.36852 0
M  V30 417 H 36.9334 -0.976091 -2.83359 0
M  V30 418 H 34.4944 -0.662737 -1.47714 0
M  V30 419 H 36.4864 1.35824 -3.81227 0
M  V30 420 H 35.0564 1.47465 -2.75632 0
M  V30 421 H 34.2764 -0.747349 -3.87051 0
M  V30 422 H 35.5644 -0.501577 -5.06322 0
M  V30 423 H 34.9624 2.67858 -4.98265 0
M  V30 424 H 33.5194 2.74237 -5.91301 0
M  V30 425 N 36.9525 1.47285 -0.560781 0
M  V30 426 C 37.9025 2.27073 0.205384 0
M  V30 427 C 38.8865 1.34569 0.882044 0
M  V30 428 O 40.0785 1.58899 0.77976 0
M  V30 429 C 37.2075 3.20414 1.23247 0
M  V30 430 C 36.2935 4.20399 0.559041 0
M  V30 431 N 36.6845 5.04423 -0.372927 0
M  V30 432 C 34.9825 4.38536 0.812522 0
M  V30 433 C 35.6835 5.76655 -0.764446 0
M  V30 434 N 34.6595 5.43471 -0.11848 0
M  V30 435 H 38.4615 2.89422 -0.511117 0
M  V30 436 H 35.9755 1.57868 -0.380975 0
M  V30 437 H 37.9725 3.76262 1.79534 0
M  V30 438 H 36.6325 2.59623 1.95002 0
M  V30 439 H 37.6435 5.1248 -0.747287 0
M  V30 440 H 34.3205 3.88913 1.51832 0
M  V30 441 H 35.7105 6.54238 -1.53045 0
M  V30 442 N 38.4306 0.297415 1.54768 0
M  V30 443 C 39.8466 -0.0560823 1.59501 0
M  V30 444 C 40.0466 -1.52725 1.31444 0
M  V30 445 O 39.1026 -2.27947 1.08611 0
M  V30 446 C 40.4156 0.338631 2.98787 0
M  V30 447 C 41.9636 0.287097 3.11681 0
M  V30 448 C 42.4386 0.656579 4.53269 0
M  V30 449 N 43.9296 0.608977 4.59179 0
M  V30 450 C 44.6646 0.867385 5.66802 0
M  V30 451 N 44.1606 1.19157 6.82476 0
M  V30 452 N 45.9536 0.794687 5.56454 0
M  V30 453 H 38.1046 1.25624 1.71267 0
M  V30 454 H 40.3676 0.509057 0.799728 0
M  V30 455 H 40.0736 1.36263 3.2423 0
M  V30 456 H 39.9476 -0.309508 3.75928 0
M  V30 457 H 42.3346 -0.727649 2.85988 0
M  V30 458 H 42.4156 0.969809 2.36703 0
M  V30 459 H 42.0596 1.66912 4.7969 0
M  V30 460 H 41.9896 -0.0481649 5.26578 0
M  V30 461 H 44.4806 0.369198 3.76092 0
M  V30 462 H 44.7936 1.37482 7.60473 0
M  V30 463 H 43.1386 1.22958 6.84037 0
M  V30 464 H 46.3296 0.541098 4.64962 0
M  V30 465 H 46.5026 0.999445 6.40246 0
M  V30 466 N 39.9087 -1.5758 0.0250728 0
M  V30 467 C 41.3247 -1.56124 -0.331282 0
M  V30 468 C 41.5247 -1.03029 -1.73169 0
M  V30 469 O 40.5807 -0.675215 -2.43305 0
M  V30 470 C 41.8937 -3.00139 -0.183584 0
M  V30 471 C 43.4417 -3.11946 -0.256654 0
M  V30 472 C 43.9167 -4.57793 -0.137792 0
M  V30 473 N 45.4077 -4.6279 -0.194904 0
M  V30 474 C 46.1427 -5.7326 -0.126655 0
M  V30 475 N 45.6387 -6.928 -0.00755288 0
M  V30 476 N 47.4317 -5.61811 -0.180348 0
M  V30 477 H 39.5827 -1.90424 0.94087 0
M  V30 478 H 41.8457 -0.875761 0.362968 0
M  V30 479 H 41.5517 -3.4292 0.780927 0
M  V30 480 H 41.4257 -3.64899 -0.955448 0
M  V30 481 H 43.8127 -2.69079 -1.21162 0
M  V30 482 H 43.8937 -2.49915 0.545517 0
M  V30 483 H 43.5377 -5.01339 0.813739 0
M  V30 484 H 43.4677 -5.17798 -0.958775 0
M  V30 485 H 45.9587 -3.76807 -0.287267 0
M  V30 486 H 46.2717 -7.72791 0.0379428 0
M  V30 487 H 44.6167 -6.94995 0.0271731 0
M  V30 488 H 47.8077 -4.6731 -0.271767 0
M  V30 489 H 47.9807 -6.47882 -0.123697 0
M  V30 490 N 41.3868 0.248026 -1.55636 0
M  V30 491 C 42.6118 0.998028 -1.81808 0
M  V30 492 C 43.0368 1.78207 -0.601979 0
M  V30 493 O 42.3948 1.75653 0.448961 0
M  V30 494 C 42.4428 1.9125 -3.05705 0
M  V30 495 O 41.5468 3.00406 -2.82542 0
M  V30 496 H 40.8878 0.284045 -0.600179 0
M  V30 497 H 43.4178 0.269357 -2.02819 0
M  V30 498 H 43.4278 2.32737 -3.35108 0
M  V30 499 H 42.1028 1.33602 -3.93857 0
M  V30 500 H 40.6798 2.63056 -2.64303 0
M  V30 501 N 42.8649 1.48995 0.513639 0
M  V30 502 C 44.1139 1.57093 1.2651 0
M  V30 503 C 44.4269 0.257091 1.93903 0
M  V30 504 O 45.6329 0.216478 2.70636 0
M  V30 505 C 44.0889 2.77118 2.29638 0
M  V30 506 C 43.6969 4.15209 1.68241 0
M  V30 507 C 45.4409 2.94538 3.05692 0
M  V30 508 C 43.3479 5.26474 2.69406 0
M  V30 509 H 42.2779 0.584876 0.475854 0
M  V30 510 H 44.9289 1.7536 0.540487 0
M  V30 511 H 43.3109 2.52319 3.05207 0
M  V30 512 H 44.4849 4.50094 0.987505 0
M  V30 513 H 42.7999 4.03042 1.04623 0
M  V30 514 H 45.3969 3.74832 3.8132 0
M  V30 515 H 45.7399 2.04614 3.62545 0
M  V30 516 H 46.2729 3.19316 2.37238 0
M  V30 517 H 43.0119 6.18417 2.17351 0
M  V30 518 H 42.5319 4.96058 3.37175 0
M  V30 519 H 44.2109 5.55277 3.32078 0
M  V30 520 N 44.343 -0.763751 1.37857 0
M  V30 521 C 45.583 -1.53551 1.34913 0
M  V30 522 C 45.947 -1.91895 -0.0635882 0
M  V30 523 O 47.148 -2.67916 -0.217825 0
M  V30 524 C 45.419 -2.76126 2.26912 0
M  V30 525 S 46.978 -3.66105 2.41893 0
M  V30 526 H 43.796 -0.52559 0.478828 0
M  V30 527 H 46.398 -0.897435 1.73685 0
M  V30 528 H 45.102 -2.4605 3.28463 0
M  V30 529 H 44.633 -3.44887 1.89253 0
M  V30 530 H 46.648 -4.68473 1.63545 0
M  V30 531 N 45.8211 -1.22559 -0.990812 0
M  V30 532 C 47.0461 -1.07862 -1.77145 0
M  V30 533 C 47.4711 0.366447 -1.84496 0
M  V30 534 O 46.8291 1.26478 -1.29896 0
M  V30 535 C 46.8771 -1.69686 -3.18181 0
M  V30 536 O 45.9811 -0.951946 -4.01263 0
M  V30 537 H 45.3221 -0.378712 -0.545411 0
M  V30 538 H 47.8521 -1.62399 -1.2445 0
M  V30 539 H 47.8621 -1.74496 -3.68802 0
M  V30 540 H 46.5371 -2.74841 -3.12146 0
M  V30 541 H 45.1141 -0.980011 -3.59792 0
M  V30 542 N 47.2992 1.18797 -1.03562 0
M  V30 543 C 48.2292 2.24472 -0.643019 0
M  V30 544 C 49.2102 1.66433 0.351283 0
M  V30 545 O 50.3952 1.92803 0.232505 0
M  V30 546 C 47.5252 3.473 4.24935e-05 0
M  V30 547 C 46.4792 4.18055 -0.917257 0
M  V30 548 C 45.8052 5.34519 -0.138941 0
M  V30 549 C 47.1052 4.72109 -2.23407 0
M  V30 550 H 48.7992 2.57566 -1.52643 0
M  V30 551 H 46.3452 1.23806 -0.735394 0
M  V30 552 H 48.2982 4.20426 0.286383 0
M  V30 553 H 47.0222 3.13424 0.918299 0
M  V30 554 H 45.6812 3.46821 -1.1879 0
M  V30 555 H 45.3292 4.96891 0.781562 0
M  V30 556 H 45.0292 5.82794 -0.750005 0
M  V30 557 H 46.5532 6.10438 0.1405 0
M  V30 558 H 47.9672 5.36955 -2.00879 0
M  V30 559 H 46.3642 5.30897 -2.79765 0
M  V30 560 H 47.4342 3.89807 -2.88407 0
M  V30 561 N 48.7773 0.814389 1.34928 0
M  V30 562 C 50.0253 0.397636 1.9815 0
M  V30 563 C 50.3463 -1.04069 1.64908 0
M  V30 564 O 49.6163 -1.72121 0.93548 0
M  V30 565 H 48.1963 0.144043 0.732981 0
M  V30 566 H 50.8583 1.04195 1.6471 0
M  V30 567 H 49.9543 0.509688 3.0791 0
M  V30 568 N 50.2554 -1.46986 0.568584 0
M  V30 569 C 51.2184 -2.28624 -0.162366 0
M  V30 570 C 52.2184 -1.37596 -0.832103 0
M  V30 571 O 53.4084 -1.60115 -0.68622 0
M  V30 572 C 50.5404 -3.17596 -1.23878 0
M  V30 573 H 51.7334 -2.94722 0.554899 0
M  V30 574 H 49.2864 -1.52863 0.325976 0
M  V30 575 H 50.0214 -2.56214 -1.98808 0
M  V30 576 H 49.8064 -3.846 -0.763219 0
M  V30 577 H 51.2964 -3.79078 -1.75185 0
M  V30 578 N 51.7335 -0.305618 -1.54608 0
M  V30 579 C 53.1495 0.0476228 -1.59529 0
M  V30 580 C 53.3495 1.52025 -1.32252 0
M  V30 581 O 52.4055 2.27368 -1.09818 0
M  V30 582 C 53.7185 -0.354471 -2.98603 0
M  V30 583 C 55.2665 -0.303622 -3.11524 0
M  V30 584 C 55.7415 -0.680608 -4.52915 0
M  V30 585 N 57.2325 -0.63332 -4.5885 0
M  V30 586 C 57.9675 -0.897432 -5.66334 0
M  V30 587 N 57.4635 -1.22775 -6.81834 0
M  V30 588 N 59.2565 -0.824186 -5.56025 0
M  V30 589 H 51.4075 -1.2653 -1.70599 0
M  V30 590 H 53.6705 -0.513291 -0.797017 0
M  V30 591 H 53.3765 -1.3798 -3.23503 0
M  V30 592 H 53.2505 0.289568 -3.76087 0
M  V30 593 H 55.6375 0.712472 -2.8637 0
M  V30 594 H 55.7185 -0.982348 -2.36185 0
M  V30 595 H 55.3625 -1.69453 -4.78799 0
M  V30 596 H 55.2925 0.0202385 -5.26596 0
M  V30 597 H 57.7835 -0.389138 -3.75891 0
M  V30 598 H 58.0965 -1.41513 -7.59733 0
M  V30 599 H 56.4415 -1.26583 -6.83375 0
M  V30 600 H 59.6325 -0.565748 -4.64669 0
M  V30 601 H 59.8055 -1.03338 -6.39707 0
M  V30 602 N 53.2116 1.57565 -0.0334293 0
M  V30 603 C 54.4366 1.96689 0.657895 0
M  V30 604 C 54.8616 0.910057 1.64619 0
M  V30 605 O 54.2196 -0.128598 1.80843 0
M  V30 606 C 54.2676 3.34905 1.33683 0
M  V30 607 O 53.3716 3.31574 2.45219 0
M  V30 608 H 52.7126 0.641205 0.172489 0
M  V30 609 H 55.2426 2.04372 -0.0965621 0
M  V30 610 H 55.2526 3.71234 1.69262 0
M  V30 611 H 53.9276 4.11366 0.612411 0
M  V30 612 H 52.5046 3.06968 2.11719 0
M  V30 613 N 54.6897 -0.239769 1.55765 0
M  V30 614 C 55.9377 -0.964892 1.77579 0
M  V30 615 C 56.2587 -1.85582 0.598699 0
M  V30 616 O 55.5287 -1.92075 -0.385226 0
M  V30 617 H 54.1087 -0.359265 0.654933 0
M  V30 618 H 56.7707 -0.256001 1.93211 0
M  V30 619 H 55.8667 -1.58243 2.69009 0
M  V30 620 N 56.1678 -1.49265 -0.50573 0
M  V30 621 C 57.3928 -1.62478 -1.28902 0
M  V30 622 C 57.8178 -0.294332 -1.85783 0
M  V30 623 O 57.1758 0.737412 -1.65626 0
M  V30 624 C 57.2238 -2.69268 -2.39848 0
M  V30 625 O 56.3278 -2.28113 -3.43567 0
M  V30 626 H 55.6688 -0.54399 -0.380751 0
M  V30 627 H 58.1988 -1.95421 -0.605952 0
M  V30 628 H 58.2088 -2.91291 -2.85681 0
M  V30 629 H 56.8838 -3.65846 -1.97812 0
M  V30 630 H 55.4608 -2.16401 -3.03685 0
M  V30 631 N 57.6459 0.756429 -1.3826 0
M  V30 632 C 58.5779 1.87971 -1.31147 0
M  V30 633 C 59.5909 1.61248 -0.224239 0
M  V30 634 O 60.7799 1.71881 -0.481581 0
M  V30 635 C 57.8799 3.23545 -1.00857 0
M  V30 636 C 57.0529 3.77794 -2.20432 0
M  V30 637 C 56.1119 4.91877 -1.86931 0
M  V30 638 O 55.1379 5.06659 -2.59395 0
M  V30 639 N 56.3399 5.74643 -0.822568 0
M  V30 640 H 59.1049 1.94585 -2.2794 0
M  V30 641 H 56.6659 0.936234 -1.32084 0
M  V30 642 H 58.6579 3.97403 -0.765021 0
M  V30 643 H 57.2279 3.12335 -0.128687 0
M  V30 644 H 56.4479 2.95534 -2.6087 0
M  V30 645 H 57.7359 4.10771 -3.00241 0
M  V30 646 H 57.1339 5.65266 -0.221575 0
M  V30 647 H 55.6909 6.48661 -0.638899 0
M  V30 648 N 59.124 1.23083 0.984299 0
M  V30 649 C 60.087 1.00979 2.05757 0
M  V30 650 C 61.087 -0.0269573 1.60777 0
M  V30 651 O 62.277 0.212403 1.729 0
M  V30 652 C 59.409 0.527072 3.36801 0
M  V30 653 H 60.602 1.9622 2.26799 0
M  V30 654 H 58.155 1.05072 1.15714 0
M  V30 655 H 58.89 -0.429294 3.21446 0
M  V30 656 H 58.675 1.27515 3.70786 0
M  V30 657 H 60.165 0.392942 4.15747 0
M  V30 658 N 60.6021 -1.18246 1.0419 0
M  V30 659 C 61.8271 -1.92736 0.765996 0
M  V30 660 C 62.2521 -1.75728 -0.67091 0
M  V30 661 O 61.6101 -1.06825 -1.46486 0
M  V30 662 C 61.6581 -3.42148 1.13875 0
M  V30 663 O 60.7621 -4.11548 0.264954 0
M  V30 664 H 60.1031 -0.601238 0.281797 0
M  V30 665 H 62.6331 -1.49942 1.39207 0
M  V30 666 H 62.6431 -3.92858 1.1012 0
M  V30 667 H 61.3181 -3.53848 2.18551 0
M  V30 668 H 59.8951 -3.71137 0.362226 0
M  V30 669 N 62.0802 -0.821533 -1.34494 0
M  V30 670 C 63.3292 -0.405355 -1.97585 0
M  V30 671 C 63.6422 1.03677 -1.65863 0
M  V30 672 O 64.8482 1.55679 -2.22433 0
M  V30 673 C 63.3042 -0.673861 -3.53535 0
M  V30 674 C 62.9122 -2.12951 -3.94152 0
M  V30 675 C 64.6562 -0.32378 -4.23263 0
M  V30 676 C 62.5632 -2.34298 -5.43009 0
M  V30 677 H 61.4932 -0.147836 -0.739365 0
M  V30 678 H 64.1442 -1.00769 -1.53355 0
M  V30 679 H 62.5262 -0.00137554 -3.96 0
M  V30 680 H 63.7002 -2.84104 -3.62797 0
M  V30 681 H 62.0152 -2.44089 -3.37356 0
M  V30 682 H 64.6122 -0.461126 -5.32708 0
M  V30 683 H 64.9552 0.731586 -4.09821 0
M  V30 684 H 65.4882 -0.950786 -3.8627 0
M  V30 685 H 62.2272 -3.38335 -5.61435 0
M  V30 686 H 61.7472 -1.67687 -5.75883 0
M  V30 687 H 63.4262 -2.16588 -6.09671 0
M  V30 688 N 63.5583 1.46682 -0.576371 0
M  V30 689 C 64.5083 2.27278 0.181288 0
M  V30 690 C 65.4923 1.35497 0.867721 0
M  V30 691 O 66.6843 1.59717 0.762863 0
M  V30 692 C 63.8133 3.21703 1.19841 0
M  V30 693 C 62.8993 4.20969 0.51442 0
M  V30 694 N 63.2903 5.03999 -0.426407 0
M  V30 695 C 61.5883 4.39373 0.765963 0
M  V30 696 C 62.2893 5.75812 -0.825565 0
M  V30 697 N 61.2653 5.43315 -0.176116 0
M  V30 698 H 65.0673 2.88863 -0.541785 0
M  V30 699 H 62.5813 1.57455 -0.397697 0
M  V30 700 H 64.5783 3.78145 1.75533 0
M  V30 701 H 63.2383 2.61677 1.92238 0
M  V30 702 H 64.2493 5.11659 -0.8016 0
M  V30 703 H 60.9263 3.90502 1.47698 0
M  V30 704 H 62.3163 6.52577 -1.59976 0
M  V30 705 N 65.0364 0.313813 1.54444 0
M  V30 706 C 66.2844 -0.291099 1.99993 0
M  V30 707 C 66.6054 -1.53418 1.20366 0
M  V30 708 O 65.8754 -1.93544 0.302927 0
M  V30 709 H 64.4554 -0.110552 0.738774 0
M  V30 710 H 67.1174 0.428106 1.9014 0
M  V30 711 H 66.2134 -0.554268 3.07139 0
M  V30 712 N 66.5145 -1.57545 0.0417849 0
M  V30 713 C 67.7605 -1.93424 -0.629168 0
M  V30 714 C 68.1155 -0.919564 -1.69002 0
M  V30 715 O 67.4085 0.0626178 -1.91498 0
M  V30 716 C 67.6025 -3.33794 -1.27735 0
M  V30 717 C 67.4315 -4.48822 -0.280806 0
M  V30 718 C 66.2015 -5.05148 0.123869 0
M  V30 719 C 68.3995 -5.12148 0.470012 0
M  V30 720 N 66.3815 -6.03703 1.11426 0
M  V30 721 C 67.7525 -6.05921 1.31377 0
M  V30 722 C 69.8075 -4.95078 0.529343 0
M  V30 723 C 68.5105 -6.84459 2.21152 0
M  V30 724 C 70.5365 -5.74235 1.41448 0
M  V30 725 C 69.8985 -6.67634 2.24598 0
M  V30 726 H 65.9975 -0.755418 -0.202158 0
M  V30 727 H 68.5815 -1.94378 0.111923 0
M  V30 728 H 66.7525 -3.33635 -1.98852 0
M  V30 729 H 68.4845 -3.56988 -1.90635 0
M  V30 730 H 65.2395 -4.72923 -0.253178 0
M  V30 731 H 65.6635 -6.57674 1.60607 0
M  V30 732 H 70.3055 -4.22683 -0.0992798 0
M  V30 733 H 68.0235 -7.56151 2.85063 0
M  V30 734 H 71.6095 -5.63057 1.46484 0
M  V30 735 H 70.4895 -7.27817 2.9198 0
M  V30 736 N 67.9926 0.231505 -1.5589 0
M  V30 737 C 69.2206 0.974505 -1.82513 0
M  V30 738 C 69.6356 1.78344 -0.619591 0
M  V30 739 O 68.9926 1.77792 0.411848 0
M  V30 740 C 69.0436 1.90007 -3.07538 0
M  V30 741 O 68.7646 1.12385 -4.2344 0
M  V30 742 C 70.2656 2.75779 -3.47075 0
M  V30 743 H 67.4856 0.286065 -0.606966 0
M  V30 744 H 70.0296 0.249739 -2.02969 0
M  V30 745 H 68.1846 2.57891 -2.89086 0
M  V30 746 H 68.5986 1.75125 -4.944 0
M  V30 747 H 70.0726 3.36443 -4.37619 0
M  V30 748 H 70.5496 3.47672 -2.68367 0
M  V30 749 H 71.1556 2.13323 -3.67931 0
M  V30 750 N 69.4707 1.49531 0.497807 0
M  V30 751 C 70.3807 1.69176 1.62532 0
M  V30 752 C 71.3967 0.5744 1.64246 0
M  V30 753 O 72.5727 0.849497 1.82608 0
M  V30 754 C 69.6377 1.75695 2.98885 0
M  V30 755 C 68.6987 2.9929 3.07773 0
M  V30 756 C 67.9317 3.05488 4.37622 0
M  V30 757 O 68.1547 2.19192 5.26603 0
M  V30 758 O 67.0887 3.9798 4.51548 0
M  V30 759 H 70.9147 2.647 1.48887 0
M  V30 760 H 68.4997 1.3331 0.674441 0
M  V30 761 H 70.3817 1.82317 3.79919 0
M  V30 762 H 69.0567 0.8335 3.12785 0
M  V30 763 H 67.9637 2.98183 2.25915 0
M  V30 764 H 69.2967 3.91125 2.98801 0
M  V30 765 N 70.9488 -0.749086 1.3866 0
M  V30 766 C 72.1968 -1.50535 1.34847 0
M  V30 767 C 72.5178 -1.94909 -0.0595016 0
M  V30 768 O 71.7878 -1.67973 -1.00806 0
M  V30 769 H 70.3678 -0.558395 0.49619 0
M  V30 770 H 73.0298 -0.890165 1.73384 0
M  V30 771 H 72.1258 -2.39413 2.00219 0
M  V30 772 N 72.4269 -1.23603 -0.977757 0
M  V30 773 C 73.3749 -1.01704 -2.09187 0
M  V30 774 C 74.3689 0.0448214 -1.69341 0
M  V30 775 O 75.5749 -0.108902 -1.7967 0
M  V30 776 H 71.9499 -0.311803 -0.684312 0
M  V30 777 H 73.9209 -1.96207 -2.24823 0
M  V30 778 C 72.6699 -0.627746 -3.41986 0
M  V30 779 H 71.9929 -1.43656 -3.73099 0
M  V30 780 H 73.4329 -0.514053 -4.20872 0
M  V30 781 C 71.8919 0.664238 -3.30287 0
M  V30 782 O 72.4219 1.71268 -3.6336 0
M  V30 783 N 70.6279 0.641156 -2.83439 0
M  V30 784 H 70.1749 -0.212376 -2.56723 0
M  V30 785 H 70.1329 1.50583 -2.75993 0
M  V30 786 N 73.905 1.17692 -1.04816 0
M  V30 787 C 75.135 1.91508 -0.775128 0
M  V30 788 C 75.543 1.76844 0.67253 0
M  V30 789 O 74.886 1.10057 1.47082 0
M  V30 790 C 74.948 3.43167 -1.0713 0
M  V30 791 C 74.612 3.81612 -2.51438 0
M  V30 792 C 75.609 3.84772 -3.49638 0
M  V30 793 C 73.294 4.12687 -2.86348 0
M  V30 794 C 75.288 4.18469 -4.80794 0
M  V30 795 C 72.975 4.46053 -4.17708 0
M  V30 796 C 73.973 4.48921 -5.14741 0
M  V30 797 O 73.661 4.81504 -6.43746 0
M  V30 798 H 73.393 0.614575 -0.281555 0
M  V30 799 H 75.947 1.50206 -1.40098 0
M  V30 800 H 74.177 3.84745 -0.388342 0
M  V30 801 H 75.866 3.98239 -0.784883 0
M  V30 802 H 76.632 3.60893 -3.24008 0
M  V30 803 H 72.511 4.09627 -2.11486 0
M  V30 804 H 76.055 4.20623 -5.56527 0
M  V30 805 H 71.952 4.69393 -4.43103 0
M  V30 806 H 72.72 4.99377 -6.4851 0
M  V30 807 N 75.3831 0.828654 1.34056 0
M  V30 808 C 76.3311 0.242973 2.31327 0
M  V30 809 C 77.3251 -0.61944 1.57668 0
M  V30 810 O 78.5311 -0.51014 1.7262 0
M  V30 811 H 74.9061 0.059834 0.749616 0
M  V30 812 H 76.8771 1.07809 2.78244 0
M  V30 813 C 75.6261 -0.575733 3.429 0
M  V30 814 H 74.9491 0.0785582 3.99723 0
M  V30 815 H 76.3891 -0.951547 4.13185 0
M  V30 816 C 74.8481 -1.75044 2.87856 0
M  V30 817 O 75.3781 -2.84882 2.83205 0
M  V30 818 N 73.5841 -1.56903 2.44602 0
M  V30 819 H 73.1311 -0.675547 2.48584 0
M  V30 820 H 73.0891 -2.35652 2.08124 0
M  V30 821 N 76.8612 -1.46375 0.584142 0
M  V30 822 C 78.0912 -2.06461 0.0758195 0
M  V30 823 C 78.4992 -1.43322 -1.23512 0
M  V30 824 O 77.8422 -0.533216 -1.75791 0
M  V30 825 C 77.9042 -3.59131 -0.162773 0
M  V30 826 C 77.5682 -4.4447 1.06279 0
M  V30 827 C 78.5652 -4.80918 1.97519 0
M  V30 828 C 76.2502 -4.85584 1.28504 0
M  V30 829 C 78.2442 -5.57309 3.09331 0
M  V30 830 C 75.9312 -5.61734 2.4062 0
M  V30 831 C 76.9292 -5.9751 3.30863 0
M  V30 832 O 76.6172 -6.72121 4.41032 0
M  V30 833 H 76.3492 -0.673745 0.0551725 0
M  V30 834 H 78.9032 -1.88969 0.804984 0
M  V30 835 H 77.1332 -3.74936 -0.946565 0
M  V30 836 H 78.8222 -4.0114 -0.619782 0
M  V30 837 H 79.5882 -4.49732 1.81565 0
M  V30 838 H 75.4672 -4.57187 0.591702 0
M  V30 839 H 79.0112 -5.85152 3.79793 0
M  V30 840 H 74.9082 -5.92334 2.56537 0
M  V30 841 H 75.6762 -6.90547 4.39417 0
M  V30 842 N 78.3393 -0.321999 -1.54275 0
M  V30 843 C 79.5693 0.282642 -2.04658 0
M  V30 844 C 79.9773 1.46453 -1.19784 0
M  V30 845 O 79.3203 1.82367 -0.220932 0
M  V30 846 C 79.3823 0.781857 -3.50895 0
M  V30 847 C 79.0463 -0.277517 -4.56157 0
M  V30 848 C 80.0433 -1.11307 -5.07845 0
M  V30 849 C 77.7283 -0.425256 -5.00497 0
M  V30 850 C 79.7223 -2.08211 -6.02434 0
M  V30 851 C 77.4093 -1.39771 -5.94901 0
M  V30 852 C 78.4073 -2.2246 -6.45756 0
M  V30 853 O 78.0953 -3.18054 -7.38307 0
M  V30 854 H 77.8273 0.0622636 -0.673126 0
M  V30 855 H 80.3813 -0.465792 -2.00049 0
M  V30 856 H 78.6113 1.58118 -3.52896 0
M  V30 857 H 80.3003 1.30467 -3.84361 0
M  V30 858 H 81.0663 -1.00991 -4.74369 0
M  V30 859 H 76.9453 0.20847 -4.60528 0
M  V30 860 H 80.4893 -2.72791 -6.42052 0
M  V30 861 H 76.3863 -1.50152 -6.27794 0
M  V30 862 H 77.1543 -3.13275 -7.56175 0
M  V30 863 N 79.8174 1.5752 -0.0501392 0
M  V30 864 C 81.0664 1.91827 0.623328 0
M  V30 865 C 81.3794 0.930222 1.72065 0
M  V30 866 O 82.5854 1.1653 2.4522 0
M  V30 867 C 81.0414 3.40692 1.16003 0
M  V30 868 C 80.6494 4.479 0.0948811 0
M  V30 869 C 82.3934 3.84034 1.80881 0
M  V30 870 C 80.3004 5.87879 0.644411 0
M  V30 871 H 79.2304 0.715918 0.236596 0
M  V30 872 H 81.8814 1.83115 -0.118861 0
M  V30 873 H 80.2634 3.44405 1.9545 0
M  V30 874 H 81.4374 4.55775 -0.678675 0
M  V30 875 H 79.7524 4.13892 -0.45637 0
M  V30 876 H 82.3494 4.85984 2.22988 0
M  V30 877 H 82.6924 3.20225 2.6601 0
M  V30 878 H 83.2254 3.82833 1.0809 0
M  V30 879 H 79.9644 6.55282 -0.169229 0
M  V30 880 H 79.4844 5.83567 1.38598 0
M  V30 881 H 81.1634 6.37098 1.12763 0
M  V30 882 N 81.2955 -0.223234 1.56011 0
M  V30 883 C 82.2055 -1.29766 1.95443 0
M  V30 884 C 83.2215 -1.51373 0.858028 0
M  V30 885 O 84.3975 -1.64536 1.16146 0
M  V30 886 C 81.4625 -2.62772 2.26167 0
M  V30 887 C 80.5235 -2.49482 3.49367 0
M  V30 888 C 79.7565 -3.76145 3.78616 0
M  V30 889 O 79.9795 -4.79087 3.09568 0
M  V30 890 O 78.9135 -3.73358 4.72109 0
M  V30 891 H 82.7395 -0.99309 2.87004 0
M  V30 892 H 80.3245 -0.425958 1.43199 0
M  V30 893 H 82.2065 -3.41327 2.47131 0
M  V30 894 H 80.8815 -2.92913 1.37781 0
M  V30 895 H 79.7885 -1.69133 3.33684 0
M  V30 896 H 81.1215 -2.2428 4.38131 0
M  V30 897 N 82.7736 -1.49793 -0.48987 0
M  V30 898 C 83.6836 -1.70036 -1.61632 0
M  V30 899 C 84.6996 -0.583102 -1.63939 0
M  V30 900 O 85.8756 -0.859169 -1.82154 0
M  V30 901 C 82.9406 -1.77277 -2.97949 0
M  V30 902 C 82.0016 -3.00918 -3.06181 0
M  V30 903 C 81.2346 -3.07804 -4.35996 0
M  V30 904 O 81.4576 -2.21982 -5.25433 0
M  V30 905 O 80.3916 -4.00369 -4.49431 0
M  V30 906 H 84.2176 -2.65486 -1.47482 0
M  V30 907 H 81.8026 -1.33666 -0.667362 0
M  V30 908 H 83.6846 -1.84329 -3.78947 0
M  V30 909 H 82.3596 -0.850076 -3.12339 0
M  V30 910 H 81.2666 -2.99377 -2.2433 0
M  V30 911 H 82.5996 -3.92704 -2.96723 0
M  V30 912 N 84.2517 0.741722 -1.39055 0
M  V30 913 C 85.5287 1.49252 -1.26425 0
M  V30 914 C 85.9087 2.10705 0.129144 0
M  V30 915 O 85.2567 1.98045 1.13976 0
M  V30 916 C 85.4667 2.54934 -2.38347 0
M  V30 917 C 86.8147 3.21506 -2.77343 0
M  V30 918 O 87.8387 2.65245 -2.37747 0
M  V30 919 O 86.6977 4.23294 -3.45665 0
M  V30 920 H 83.7917 0.662451 -0.495064 0
M  V30 921 H 86.3377 0.776121 -1.50912 0
M  V30 922 H 85.1097 2.07857 -3.31529 0
M  V30 923 H 84.7327 3.34141 -2.15489 0
M  V30 924 N 85.7298 1.2412 0.971189 0
M  V30 925 C 86.6398 1.04747 2.09917 0
M  V30 926 C 87.6558 -0.0107162 1.73997 0
M  V30 927 O 88.8318 0.186714 2.00533 0
M  V30 928 C 85.8968 0.650828 3.40537 0
M  V30 929 C 84.9578 1.7851 3.90426 0
M  V30 930 C 84.1908 1.40729 5.14812 0
M  V30 931 O 84.4138 0.29557 5.69634 0
M  V30 932 O 83.3478 2.23168 5.58999 0
M  V30 933 H 87.1738 1.99304 2.29154 0
M  V30 934 H 84.7588 1.02908 1.08307 0
M  V30 935 H 86.6408 0.440992 4.19086 0
M  V30 936 H 85.3158 -0.265649 3.22608 0
M  V30 937 H 84.2228 2.04966 3.12953 0
M  V30 938 H 85.5558 2.68023 4.12825 0
M  V30 939 N 87.2079 -1.17134 1.05439 0
M  V30 940 C 88.4849 -1.83411 0.679699 0
M  V30 941 C 88.8649 -1.9368 -0.839726 0
M  V30 942 O 88.2129 -1.47325 -1.74664 0
M  V30 943 C 88.4229 -3.20918 1.37159 0
M  V30 944 C 89.7709 -3.96796 1.51123 0
M  V30 945 O 90.7949 -3.30406 1.3308 0
M  V30 946 O 89.6539 -5.15778 1.80651 0
M  V30 947 H 86.7479 -0.79154 0.239569 0
M  V30 948 H 89.2939 -1.24411 1.15413 0
M  V30 949 H 88.0659 -3.08428 2.40807 0
M  V30 950 H 87.6889 -3.87587 0.886674 0
M  V30 951 N 88.686 -0.835752 -1.33615 0
M  V30 952 C 89.934 -0.429109 -1.97492 0
M  V30 953 C 90.255 1.01433 -1.66543 0
M  V30 954 O 89.525 1.70611 -0.962744 0
M  V30 955 H 88.105 -0.155686 -0.730596 0
M  V30 956 H 90.767 -1.06802 -1.63031 0
M  V30 957 H 89.863 -0.55861 -3.0706 0
M  V30 958 N 90.1641 1.46063 -0.591896 0
M  V30 959 C 91.0741 2.34192 0.13831 0
M  V30 960 C 92.0901 1.50305 0.876608 0
M  V30 961 O 93.2661 1.8315 0.837728 0
M  V30 962 C 90.3311 3.27656 1.13326 0
M  V30 963 C 89.3921 4.27445 0.39863 0
M  V30 964 C 88.6251 5.16443 1.34618 0
M  V30 965 O 88.8481 5.08553 2.58321 0
M  V30 966 O 87.7821 5.95843 0.851768 0
M  V30 967 H 91.6081 2.98002 -0.58552 0
M  V30 968 H 89.1931 1.45188 -0.352239 0
M  V30 969 H 91.0751 3.85291 1.70671 0
M  V30 970 H 89.7501 2.6643 1.83839 0
M  V30 971 H 88.6571 3.73471 -0.216895 0
M  V30 972 H 89.9901 4.91482 -0.265709 0
M  V30 973 N 91.6422 0.330177 1.54103 0
M  V30 974 C 92.5522 -0.541534 2.28264 0
M  V30 975 C 93.5682 -1.12351 1.32866 0
M  V30 976 O 94.7442 -1.14206 1.65888 0
M  V30 977 C 91.8092 -1.68322 3.03098 0
M  V30 978 C 90.8702 -1.13238 4.14096 0
M  V30 979 C 90.1032 -2.21966 4.85352 0
M  V30 980 O 90.3262 -3.42437 4.56172 0
M  V30 981 O 89.2602 -1.87013 5.7211 0
M  V30 982 H 93.0862 0.060938 3.03639 0
M  V30 983 H 90.6712 0.09565 1.49093 0
M  V30 984 H 92.5532 -2.34777 3.49939 0
M  V30 985 H 91.2282 -2.27176 2.30593 0
M  V30 986 H 90.1352 -0.432736 3.71589 0
M  V30 987 H 91.4682 -0.588898 4.88664 0
M  V30 988 N 93.1203 -1.57491 0.0584922 0
M  V30 989 C 94.0303 -2.15448 -0.928414 0
M  V30 990 C 95.0463 -1.11416 -1.3365 0
M  V30 991 O 96.2223 -1.4362 -1.41193 0
M  V30 992 C 93.2873 -2.69393 -2.18239 0
M  V30 993 C 92.3483 -3.88249 -1.83196 0
M  V30 994 C 91.5813 -4.39613 -3.02616 0
M  V30 995 O 91.8043 -3.90023 -4.16219 0
M  V30 996 O 90.7383 -5.31111 -2.83204 0
M  V30 997 H 94.5643 -3.00112 -0.465483 0
M  V30 998 H 92.1493 -1.48499 -0.163826 0
M  V30 999 H 94.0313 -3.04026 -2.91798 0
M  V30 1000 H 92.7063 -1.87796 -2.63656 0
M  V30 1001 H 91.6133 -3.58492 -1.06931 0
M  V30 1002 H 92.9463 -4.71098 -1.42573 0
M  V30 1003 N 94.5984 0.214957 -1.56127 0
M  V30 1004 C 95.8754 0.963093 -1.70247 0
M  V30 1005 C 96.2554 2.02166 -0.60764 0
M  V30 1006 O 95.6034 2.25244 0.384385 0
M  V30 1007 C 95.8134 1.56756 -3.11815 0
M  V30 1008 C 97.1614 2.0573 -3.7143 0
M  V30 1009 O 98.1854 1.66637 -3.14818 0
M  V30 1010 O 97.0444 2.77603 -4.70743 0
M  V30 1011 H 94.1384 0.450321 -0.693643 0
M  V30 1012 H 96.6844 0.206219 -1.68442 0
M  V30 1013 H 95.4564 0.803533 -3.82961 0
M  V30 1014 H 95.0794 2.3898 -3.17765 0
M  V30 1015 N 96.0765 1.50051 0.48192 0
M  V30 1016 C 97.0085 1.64263 1.59844 0
M  V30 1017 C 98.0215 0.52451 1.54119 0
M  V30 1018 O 99.2105 0.797293 1.59704 0
M  V30 1019 C 96.3105 1.60102 2.98698 0
M  V30 1020 C 95.4835 2.87767 3.29407 0
M  V30 1021 C 94.5425 2.76397 4.47762 0
M  V30 1022 O 93.5685 3.50348 4.48603 0
M  V30 1023 N 94.7705 1.89222 5.48794 0
M  V30 1024 H 97.5355 2.60566 1.48073 0
M  V30 1025 H 95.0965 1.47379 0.670149 0
M  V30 1026 H 97.0885 1.50123 3.75826 0
M  V30 1027 H 95.6585 0.715798 3.04294 0
M  V30 1028 H 94.8785 3.11954 2.40994 0
M  V30 1029 H 96.1665 3.72365 3.4673 0
M  V30 1030 H 95.5645 1.28434 5.50928 0
M  V30 1031 H 94.1215 1.85154 6.24949 0
M  V30 1032 N 97.5546 -0.734337 1.39446 0
M  V30 1033 C 98.8006 -1.49505 1.37913 0
M  V30 1034 C 99.1556 -1.92384 -0.0248416 0
M  V30 1035 O 98.4486 -1.6395 -0.991506 0
M  V30 1036 C 98.6426 -2.74711 2.28623 0
M  V30 1037 C 98.4716 -2.44075 3.777 0
M  V30 1038 C 97.2416 -2.36338 4.46623 0
M  V30 1039 C 99.4396 -2.09574 4.69663 0
M  V30 1040 N 97.4216 -1.9818 5.81032 0
M  V30 1041 C 98.7926 -1.81865 5.92727 0
M  V30 1042 C 100.848 -1.96048 4.57678 0
M  V30 1043 C 99.5506 -1.41992 7.05146 0
M  V30 1044 C 101.577 -1.57579 5.7002 0
M  V30 1045 C 100.939 -1.30754 6.92158 0
M  V30 1046 H 97.0376 -0.545896 0.55993 0
M  V30 1047 H 99.6216 -0.853373 1.75002 0
M  V30 1048 H 97.7926 -3.36657 1.93692 0
M  V30 1049 H 99.5246 -3.40916 2.18078 0
M  V30 1050 H 96.2796 -2.53456 4.00071 0
M  V30 1051 H 96.7036 -1.81691 6.52163 0
M  V30 1052 H 101.346 -2.15455 3.63784 0
M  V30 1053 H 99.0636 -1.21327 7.9894 0
M  V30 1054 H 102.65 -1.47718 5.62735 0
M  V30 1055 H 101.53 -1.01432 7.77612 0
M  V30 1056 N 99.0327 -1.24633 -0.964593 0
M  V30 1057 C 99.9797 -1.04144 -2.05968 0
M  V30 1058 C 100.95 0.046262 -1.66036 0
M  V30 1059 O 102.135 -0.108972 -1.90489 0
M  V30 1060 C 99.2747 -0.65563 -3.38815 0
M  V30 1061 C 98.3877 -1.81714 -3.91923 0
M  V30 1062 C 97.5227 -1.37662 -5.13052 0
M  V30 1063 C 96.5617 -2.50788 -5.58365 0
M  V30 1064 N 95.6987 -2.07582 -6.70712 0
M  V30 1065 H 100.539 -1.9787 -2.22827 0
M  V30 1066 H 98.0757 -0.9855 -1.09208 0
M  V30 1067 H 100.034 -0.412954 -4.15151 0
M  V30 1068 H 98.6637 0.244627 -3.21872 0
M  V30 1069 H 97.7157 -2.1734 -3.12198 0
M  V30 1070 H 99.0277 -2.66705 -4.21509 0
M  V30 1071 H 98.1817 -1.093 -5.96773 0
M  V30 1072 H 96.9207 -0.497293 -4.85158 0
M  V30 1073 H 95.9257 -2.79906 -4.73215 0
M  V30 1074 H 97.1507 -3.39283 -5.88272 0
M  V30 1075 H 95.0967 -1.22051 -6.44546 0
M  V30 1076 H 95.0137 -2.86125 -6.99763 0
M  V30 1077 H 96.2817 -1.82369 -7.57867 0
M  V30 1078 N 100.511 1.16574 -1.06058 0
M  V30 1079 C 101.788 1.83048 -0.689416 0
M  V30 1080 C 102.168 1.94122 0.829443 0
M  V30 1081 O 101.516 1.48249 1.7388 0
M  V30 1082 C 101.726 3.20186 -1.38859 0
M  V30 1083 C 103.074 3.95989 -1.53226 0
M  V30 1084 O 104.098 3.29696 -1.3483 0
M  V30 1085 O 102.957 5.14813 -1.83384 0
M  V30 1086 H 100.051 0.790258 -0.243764 0
M  V30 1087 H 102.597 1.23797 -1.16071 0
M  V30 1088 H 101.369 3.07146 -2.4244 0
M  V30 1089 H 100.992 3.87112 -0.907216 0
M  V30 1090 N 101.989 0.842826 1.3317 0
M  V30 1091 C 103.266 0.362216 1.92217 0
M  V30 1092 C 103.646 -1.15289 1.76838 0
M  V30 1093 O 102.994 -1.96914 1.15919 0
M  V30 1094 C 103.204 0.813495 3.39387 0
M  V30 1095 C 104.552 0.823804 4.16532 0
M  V30 1096 O 105.576 0.757358 3.48055 0
M  V30 1097 O 104.435 0.915193 5.38782 0
M  V30 1098 H 101.529 0.103317 0.820521 0
M  V30 1099 H 104.075 0.928942 1.42017 0
M  V30 1100 H 102.847 1.85624 3.4447 0
M  V30 1101 H 102.47 0.223561 3.96971 0
M  V30 1102 N 103.467 -1.45747 0.599634 0
M  V30 1103 C 104.397 -2.33235 -0.111306 0
M  V30 1104 C 105.378 -1.46359 -0.866781 0
M  V30 1105 O 106.563 -1.75146 -0.838904 0
M  V30 1106 C 103.693 -3.28932 -1.11451 0
M  V30 1107 C 102.647 -4.25381 -0.472772 0
M  V30 1108 C 101.973 -5.1071 -1.58365 0
M  V30 1109 C 103.273 -5.18831 0.600948 0
M  V30 1110 H 104.967 -2.92927 0.61919 0
M  V30 1111 H 102.513 -1.40857 0.299215 0
M  V30 1112 H 104.466 -3.89002 -1.62036 0
M  V30 1113 H 103.19 -2.67381 -1.8755 0
M  V30 1114 H 101.849 -3.66598 0.0121472 0
M  V30 1115 H 101.497 -4.45533 -2.33473 0
M  V30 1116 H 101.197 -5.7604 -1.15982 0
M  V30 1117 H 102.721 -5.73647 -2.09194 0
M  V30 1118 H 104.135 -5.73019 0.179491 0
M  V30 1119 H 102.532 -5.92595 0.946076 0
M  V30 1120 H 103.602 -4.6174 1.48068 0
M  V30 1121 N 104.945 -0.338344 -1.53925 0
M  V30 1122 C 105.908 0.508299 -2.23493 0
M  V30 1123 C 106.908 1.03175 -1.23335 0
M  V30 1124 O 108.098 0.921826 -1.47811 0
M  V30 1125 C 105.23 1.70754 -2.95052 0
M  V30 1126 H 106.423 -0.100058 -2.99733 0
M  V30 1127 H 103.976 -0.0896198 -1.56043 0
M  V30 1128 H 104.711 2.35474 -2.22986 0
M  V30 1129 H 104.496 1.33946 -3.68512 0
M  V30 1130 H 105.986 2.30818 -3.48013 0
M  V30 1131 N 106.423 1.57458 -0.0668435 0
M  V30 1132 C 107.333 2.15937 0.916975 0
M  V30 1133 C 108.349 1.12123 1.33058 0
M  V30 1134 O 109.525 1.44366 1.40429 0
M  V30 1135 C 106.59 2.70547 2.16807 0
M  V30 1136 C 105.651 3.89215 1.81135 0
M  V30 1137 C 104.884 4.41211 3.0028 0
M  V30 1138 O 105.107 3.92225 4.14144 0
M  V30 1139 O 104.041 5.32605 2.80384 0
M  V30 1140 H 107.867 3.00354 0.449561 0
M  V30 1141 H 105.452 1.48584 0.155949 0
M  V30 1142 H 107.334 3.0557 2.90181 0
M  V30 1143 H 106.009 1.89192 2.62656 0
M  V30 1144 H 104.916 3.59054 1.05028 0
M  V30 1145 H 106.249 4.71848 1.40073 0
M  V30 1146 N 107.901 -0.206675 1.56239 0
M  V30 1147 C 108.811 -1.27686 1.96808 0
M  V30 1148 C 109.827 -1.50455 0.874035 0
M  V30 1149 O 111.003 -1.63295 1.17884 0
M  V30 1150 C 108.068 -2.60358 2.28942 0
M  V30 1151 C 107.129 -2.45762 3.51994 0
M  V30 1152 C 106.362 -3.72108 3.82585 0
M  V30 1153 O 106.585 -4.75776 3.14631 0
M  V30 1154 O 105.519 -3.6833 4.76043 0
M  V30 1155 H 109.345 -0.962593 2.88041 0
M  V30 1156 H 106.93 -0.410746 1.43643 0
M  V30 1157 H 108.812 -3.38687 2.50737 0
M  V30 1158 H 107.487 -2.91435 1.4088 0
M  V30 1159 H 106.394 -1.65584 3.35459 0
M  V30 1160 H 107.727 -2.19621 4.40486 0
M  V30 1161 N 109.379 -1.50304 -0.473955 0
M  V30 1162 C 110.656 -1.51667 -1.23518 0
M  V30 1163 C 111.036 -0.259701 -2.09496 0
M  V30 1164 O 110.384 0.756986 -2.15597 0
M  V30 1165 C 110.594 -2.81082 -2.06868 0
M  V30 1166 C 111.942 -3.31631 -2.65153 0
M  V30 1167 O 112.966 -2.82384 -2.17113 0
M  V30 1168 O 111.825 -4.17471 -3.52675 0
M  V30 1169 H 108.919 -0.60822 -0.560355 0
M  V30 1170 H 111.465 -1.62592 -0.486011 0
M  V30 1171 H 110.237 -3.64041 -1.4349 0
M  V30 1172 H 109.86 -2.73146 -2.88924 0
M  V30 1173 N 110.857 0.726932 -1.39834 0
M  V30 1174 C 111.789 1.85147 -1.35104 0
M  V30 1175 C 112.802 1.60736 -0.258392 0
M  V30 1176 O 113.991 1.70821 -0.517931 0
M  V30 1177 C 111.091 3.21332 -1.07697 0
M  V30 1178 C 110.264 3.73033 -2.28396 0
M  V30 1179 C 109.323 4.87802 -1.97322 0
M  V30 1180 O 108.349 5.01043 -2.70083 0
M  V30 1181 N 109.551 5.72768 -0.944273 0
M  V30 1182 H 112.316 1.89706 -2.32017 0
M  V30 1183 H 109.877 0.908006 -1.3404 0
M  V30 1184 H 111.869 3.95691 -0.849144 0
M  V30 1185 H 110.439 3.11992 -0.194909 0
M  V30 1186 H 109.659 2.89934 -2.6708 0
M  V30 1187 H 110.947 4.0431 -3.08887 0
M  V30 1188 H 110.345 5.64669 -0.341427 0
M  V30 1189 H 108.902 6.4716 -0.776346 0
M  V30 1190 N 112.336 1.25143 0.95797 0
M  V30 1191 C 113.268 1.01023 2.05735 0
M  V30 1192 C 114.281 -0.0236902 1.62783 0
M  V30 1193 O 115.47 0.21448 1.77207 0
M  V30 1194 C 112.57 0.504595 3.35122 0
M  V30 1195 C 111.743 1.6039 4.06932 0
M  V30 1196 C 110.802 1.09922 5.14591 0
M  V30 1197 O 109.828 1.79293 5.40225 0
M  V30 1198 N 111.03 -0.0612545 5.80468 0
M  V30 1199 H 113.795 1.95683 2.26998 0
M  V30 1200 H 111.356 1.16303 1.12629 0
M  V30 1201 H 113.348 0.151516 4.04416 0
M  V30 1202 H 111.918 -0.347989 3.10657 0
M  V30 1203 H 111.138 2.12872 3.31782 0
M  V30 1204 H 112.426 2.34252 4.51667 0
M  V30 1205 H 111.824 -0.640985 5.62057 0
M  V30 1206 H 110.381 -0.355395 6.5083 0
M  V30 1207 N 113.814 -1.1601 1.06675 0
M  V30 1208 C 114.777 -2.18724 0.685001 0
M  V30 1209 C 115.777 -1.58496 -0.271246 0
M  V30 1210 O 116.967 -1.74119 -0.0531156 0
M  V30 1211 C 114.099 -3.40899 0.00853648 0
M  V30 1212 H 115.292 -2.54011 1.59431 0
M  V30 1213 H 112.845 -1.30352 0.862441 0
M  V30 1214 H 113.58 -3.11173 -0.913337 0
M  V30 1215 H 113.365 -3.8587 0.696204 0
M  V30 1216 H 114.855 -4.16886 -0.24414 0
M  V30 1217 N 115.292 -0.849877 -1.32721 0
M  V30 1218 C 116.54 -0.450032 -1.97026 0
M  V30 1219 C 116.861 0.996604 -1.67609 0
M  V30 1220 O 116.131 1.6958 -0.980786 0
M  V30 1221 H 114.711 -0.163426 -0.728904 0
M  V30 1222 H 117.373 -1.08526 -1.6189 0
M  V30 1223 H 116.469 -0.591146 -3.0645 0
M  V30 1224 N 116.77 1.45427 -0.607355 0
M  V30 1225 C 117.68 2.34325 0.113463 0
M  V30 1226 C 118.696 1.51226 0.860617 0
M  V30 1227 O 119.872 1.84029 0.818255 0
M  V30 1228 C 116.937 3.28839 1.09844 0
M  V30 1229 C 115.998 4.27844 0.353271 0
M  V30 1230 C 115.231 5.17842 1.29133 0
M  V30 1231 O 115.454 5.11264 2.52913 0
M  V30 1232 O 114.388 5.96713 0.788523 0
M  V30 1233 H 118.214 2.97364 -0.617094 0
M  V30 1234 H 115.799 1.44807 -0.367619 0
M  V30 1235 H 117.681 3.8708 1.66575 0
M  V30 1236 H 116.356 2.68365 1.81003 0
M  V30 1237 H 115.263 3.7322 -0.256494 0
M  V30 1238 H 116.596 4.91173 -0.317822 0
M  V30 1239 N 118.248 0.346503 1.53744 0
M  V30 1240 C 119.494 -0.249473 2.0126 0
M  V30 1241 C 119.827 -1.49965 1.23386 0
M  V30 1242 O 119.102 -1.91811 0.32229 0
M  V30 1243 C 119.385 -0.560643 3.55709 0
M  V30 1244 C 119.238 0.701836 4.44291 0
M  V30 1245 C 120.557 -1.36905 4.18264 0
M  V30 1246 H 117.676 -0.0891987 0.731582 0
M  V30 1247 H 120.318 0.467624 1.84156 0
M  V30 1248 H 118.468 -1.17156 3.70414 0
M  V30 1249 H 120.14 1.33974 4.41417 0
M  V30 1250 H 118.383 1.32612 4.13033 0
M  V30 1251 H 119.054 0.43933 5.50249 0
M  V30 1252 H 121.53 -0.852448 4.07275 0
M  V30 1253 H 120.406 -1.55553 5.26398 0
M  V30 1254 H 120.667 -2.37203 3.73078 0
M  V30 1255 N 119.726 -1.57421 0.075193 0
M  V30 1256 C 120.954 -1.97946 -0.602076 0
M  V30 1257 C 121.369 -0.953674 -1.62943 0
M  V30 1258 O 120.726 0.0592551 -1.82404 0
M  V30 1259 C 120.777 -3.38546 -1.26762 0
M  V30 1260 O 120.498 -4.37195 -0.281376 0
M  V30 1261 C 121.999 -3.93966 -2.03239 0
M  V30 1262 H 119.219 -0.650918 -0.162931 0
M  V30 1263 H 121.763 -2.03959 0.148601 0
M  V30 1264 H 119.918 -3.33609 -1.96936 0
M  V30 1265 H 120.332 -5.18975 -0.759267 0
M  V30 1266 H 121.806 -4.94555 -2.45193 0
M  V30 1267 H 122.283 -3.30693 -2.8903 0
M  V30 1268 H 122.889 -4.02315 -1.37924 0
M  V30 1269 N 121.204 0.198386 -1.56346 0
M  V30 1270 C 122.432 0.935572 -1.84539 0
M  V30 1271 C 122.847 1.76989 -0.657281 0
M  V30 1272 O 122.204 1.78626 0.374043 0
M  V30 1273 C 122.255 1.8344 -3.11499 0
M  V30 1274 O 121.976 1.03377 -4.25728 0
M  V30 1275 C 123.477 2.68355 -3.52846 0
M  V30 1276 H 120.697 0.273126 -0.612897 0
M  V30 1277 H 123.241 0.20663 -2.03453 0
M  V30 1278 H 121.396 2.51701 -2.94492 0
M  V30 1279 H 121.81 1.64599 -4.98003 0
M  V30 1280 H 123.284 3.27085 -4.44657 0
M  V30 1281 H 123.761 3.41901 -2.75681 0
M  V30 1282 H 124.367 2.05471 -3.72373 0
M  V30 1283 N 122.682 1.50554 0.465978 0
M  V30 1284 C 123.645 1.69233 1.54574 0
M  V30 1285 C 124.645 0.562901 1.50626 0
M  V30 1286 O 125.835 0.830016 1.53155 0
M  V30 1287 C 122.967 1.7223 2.94193 0
M  V30 1288 H 124.16 2.65571 1.39327 0
M  V30 1289 H 121.713 1.40111 0.692711 0
M  V30 1290 H 122.448 0.77603 3.14878 0
M  V30 1291 H 122.233 2.54285 2.98466 0
M  V30 1292 H 123.723 1.88618 3.72576 0
M  V30 1293 N 124.16 -0.719506 1.40217 0
M  V30 1294 C 125.107 -1.83359 1.40172 0
M  V30 1295 C 126.077 -1.64065 0.259206 0
M  V30 1296 O 127.262 -1.85254 0.456677 0
M  V30 1297 C 124.402 -3.2103 1.26624 0
M  V30 1298 C 123.515 -3.51923 2.50548 0
M  V30 1299 C 122.65 -4.79079 2.29471 0
M  V30 1300 C 121.689 -5.02863 3.48992 0
M  V30 1301 N 120.826 -6.2123 3.27135 0
M  V30 1302 H 125.666 -1.82733 2.35399 0
M  V30 1303 H 123.203 -0.892688 1.16917 0
M  V30 1304 H 125.161 -4.00524 1.16776 0
M  V30 1305 H 123.791 -3.20895 0.350176 0
M  V30 1306 H 122.843 -2.67014 2.70939 0
M  V30 1307 H 124.155 -3.6541 3.39525 0
M  V30 1308 H 123.309 -5.66582 2.16955 0
M  V30 1309 H 122.048 -4.67794 1.37913 0
M  V30 1310 H 121.053 -4.13816 3.6199 0
M  V30 1311 H 122.278 -5.16023 4.41472 0
M  V30 1312 H 120.224 -6.11204 2.38256 0
M  V30 1313 H 120.141 -6.35375 4.09675 0
M  V30 1314 H 121.409 -7.11532 3.18344 0
M  V30 1315 N 125.638 -1.25649 -0.95132 0
M  V30 1316 C 127.049 -1.09654 -1.51106 0
M  V30 1317 C 127.4 0.326615 -1.93462 0
M  V30 1318 O 126.525 1.21697 -1.78938 0
M  V30 1319 C 127.12 -1.98437 -2.74605 0
M  V30 1320 C 125.679 -1.86618 -3.2688 0
M  V30 1321 C 124.826 -1.9239 -1.99703 0
M  V30 1322 H 127.777 -1.38887 -0.767865 0
M  V30 1323 H 127.798 -1.5263 -3.48546 0
M  V30 1324 H 127.31 -3.02009 -2.43746 0
M  V30 1325 H 125.411 -0.859421 -3.62553 0
M  V30 1326 H 125.524 -2.71607 -3.94673 0
M  V30 1327 H 123.888 -1.36317 -2.15151 0
M  V30 1328 H 124.671 -2.97573 -1.71188 0
M  V30 1329 N 127.117 1.15442 -1.07289 0
M  V30 1330 C 128.027 2.23786 -0.704057 0
M  V30 1331 C 129.043 1.7166 0.284413 0
M  V30 1332 O 130.219 2.00972 0.131205 0
M  V30 1333 C 127.284 3.46535 -0.106792 0
M  V30 1334 C 126.345 4.13654 -1.14842 0
M  V30 1335 C 125.578 5.30544 -0.57956 0
M  V30 1336 O 125.801 5.67187 0.604585 0
M  V30 1337 O 124.735 5.87154 -1.32414 0
M  V30 1338 H 128.561 2.57664 -1.60757 0
M  V30 1339 H 126.146 1.23152 -0.845803 0
M  V30 1340 H 128.028 4.20804 0.224048 0
M  V30 1341 H 126.703 3.14407 0.770049 0
M  V30 1342 H 125.61 3.4131 -1.5316 0
M  V30 1343 H 126.943 4.49861 -1.99714 0
M  V30 1344 N 128.595 0.856903 1.32268 0
M  V30 1345 C 129.843 0.460474 1.96784 0
M  V30 1346 C 130.164 -0.987701 1.68135 0
M  V30 1347 O 129.434 -1.69058 0.989765 0
M  V30 1348 H 128.014 0.167289 0.728027 0
M  V30 1349 H 130.676 1.09383 1.61312 0
M  V30 1350 H 129.772 0.60739 3.06133 0
M  V30 1351 N 130.073 -1.45103 0.615059 0
M  V30 1352 C 131.484 -1.85654 0.197383 0
M  V30 1353 C 131.835 -1.51433 -1.24749 0
M  V30 1354 O 130.96 -0.944608 -1.94695 0
M  V30 1355 C 131.555 -3.36972 0.351448 0
M  V30 1356 C 130.114 -3.76398 -0.011593 0
M  V30 1357 C 129.261 -2.69024 0.672394 0
M  V30 1358 H 132.212 -1.35797 0.821263 0
M  V30 1359 H 132.233 -3.78239 -0.414227 0
M  V30 1360 H 131.745 -3.61847 1.40314 0
M  V30 1361 H 129.846 -3.5714 -1.06217 0
M  V30 1362 H 129.959 -4.77532 0.387265 0
M  V30 1363 H 128.323 -2.54465 0.109284 0
M  V30 1364 H 129.106 -2.96735 1.72636 0
M  V30 1365 N 131.551 -0.354651 -1.53558 0
M  V30 1366 C 132.776 0.242153 -2.05981 0
M  V30 1367 C 133.201 1.42553 -1.2272 0
M  V30 1368 O 132.559 1.79656 -0.243604 0
M  V30 1369 C 132.607 0.624367 -3.55154 0
M  V30 1370 O 131.711 1.72301 -3.74681 0
M  V30 1371 H 131.052 0.0378432 -0.662921 0
M  V30 1372 H 133.582 -0.512087 -1.98088 0
M  V30 1373 H 133.592 0.898433 -3.97985 0
M  V30 1374 H 132.267 -0.240989 -4.15201 0
M  V30 1375 H 130.844 1.44535 -3.4375 0
M  V30 1376 N 133.029 1.57378 -0.0835403 0
M  V30 1377 C 134.306 1.85363 0.624507 0
M  V30 1378 C 134.686 0.978239 1.87066 0
M  V30 1379 O 134.034 0.0475908 2.2845 0
M  V30 1380 C 134.244 3.35795 0.950947 0
M  V30 1381 C 135.592 4.03581 1.31939 0
M  V30 1382 O 136.616 3.40609 1.04232 0
M  V30 1383 O 135.475 5.14672 1.83779 0
M  V30 1384 H 132.569 0.766162 0.311329 0
M  V30 1385 H 135.115 1.69307 -0.115362 0
M  V30 1386 H 133.887 3.91244 0.0663899 0
M  V30 1387 H 133.51 3.57154 1.74719 0
M  V30 1388 N 134.507 -0.190092 1.56449 0
M  V30 1389 C 135.918 -0.754312 1.70784 0
M  V30 1390 C 136.269 -1.83631 0.690951 0
M  V30 1391 O 135.394 -2.15868 -0.151604 0
M  V30 1392 C 135.989 -1.37503 3.09642 0
M  V30 1393 C 134.548 -1.88628 3.25725 0
M  V30 1394 C 133.695 -0.758098 2.66736 0
M  V30 1395 H 136.646 0.0350524 1.58661 0
M  V30 1396 H 136.667 -2.2445 3.0725 0
M  V30 1397 H 136.179 -0.587302 3.83631 0
M  V30 1398 H 134.28 -2.70103 2.56661 0
M  V30 1399 H 134.393 -2.04462 4.3328 0
M  V30 1400 H 132.757 -1.17369 2.26046 0
M  V30 1401 H 133.54 0.0174705 3.43296 0
M  V30 1402 N 135.985 -1.50799 -0.457987 0
M  V30 1403 C 137.396 -1.55152 -1.0385 0
M  V30 1404 C 137.747 -0.362719 -1.92818 0
M  V30 1405 O 136.872 0.522915 -2.09987 0
M  V30 1406 C 137.467 -2.81173 -1.89017 0
M  V30 1407 C 136.026 -2.88164 -2.42154 0
M  V30 1408 C 135.173 -2.49591 -1.20829 0
M  V30 1409 H 138.124 -1.56874 -0.240068 0
M  V30 1410 H 138.145 -2.63769 -2.74238 0
M  V30 1411 H 137.657 -3.67677 -1.24238 0
M  V30 1412 H 135.758 -2.06042 -3.10447 0
M  V30 1413 H 135.871 -3.91356 -2.76364 0
M  V30 1414 H 134.235 -2.02322 -1.54719 0
M  V30 1415 H 135.018 -3.38418 -0.576927 0
M  V30 1416 N 137.463 0.71206 -1.40597 0
M  V30 1417 C 138.426 1.80785 -1.40888 0
M  V30 1418 C 139.426 1.57937 -0.302103 0
M  V30 1419 O 140.616 1.64913 -0.561182 0
M  V30 1420 C 137.748 3.18927 -1.20409 0
M  V30 1421 H 138.941 1.81924 -2.38419 0
M  V30 1422 H 136.494 0.91805 -1.26497 0
M  V30 1423 H 137.229 3.23436 -0.236522 0
M  V30 1424 H 137.014 3.36911 -2.00582 0
M  V30 1425 H 138.504 3.98949 -1.23408 0
M  V30 1426 N 138.941 1.26152 0.944643 0
M  V30 1427 C 139.871 1.09902 2.06019 0
M  V30 1428 C 140.852 0.00519538 1.70099 0
M  V30 1429 O 142.037 0.176583 1.93396 0
M  V30 1430 C 139.167 0.727562 3.39594 0
M  V30 1431 C 138.121 1.77274 3.89561 0
M  V30 1432 C 137.447 1.25569 5.19747 0
M  V30 1433 C 138.747 3.17357 4.14827 0
M  V30 1434 H 140.441 2.03217 2.19871 0
M  V30 1435 H 137.987 0.978452 1.05652 0
M  V30 1436 H 139.94 0.600777 4.17095 0
M  V30 1437 H 138.664 -0.241287 3.25707 0
M  V30 1438 H 137.323 1.88814 3.14237 0
M  V30 1439 H 136.971 0.276783 5.02238 0
M  V30 1440 H 136.671 1.95433 5.54148 0
M  V30 1441 H 138.195 1.1415 5.99835 0
M  V30 1442 H 139.609 3.08914 4.82954 0
M  V30 1443 H 138.006 3.84781 4.60504 0
M  V30 1444 H 139.076 3.63673 3.20734 0
M  V30 1445 N 140.419 -1.14872 1.07899 0
M  V30 1446 C 141.349 -2.2193 0.725887 0
M  V30 1447 C 142.33 -1.67622 -0.28927 0
M  V30 1448 O 143.515 -1.93533 -0.160787 0
M  V30 1449 C 140.645 -3.47061 0.128856 0
M  V30 1450 C 139.599 -4.14363 1.07178 0
M  V30 1451 C 138.925 -5.33636 0.337229 0
M  V30 1452 C 140.225 -4.63492 2.40775 0
M  V30 1453 H 141.919 -2.51724 1.62097 0
M  V30 1454 H 139.465 -1.20991 0.780838 0
M  V30 1455 H 141.418 -4.21199 -0.130147 0
M  V30 1456 H 140.142 -3.16617 -0.80134 0
M  V30 1457 H 138.801 -3.42173 1.3158 0
M  V30 1458 H 138.449 -4.99449 -0.596606 0
M  V30 1459 H 138.149 -5.79609 0.965788 0
M  V30 1460 H 139.673 -6.10539 0.0861567 0
M  V30 1461 H 141.087 -5.2913 2.20669 0
M  V30 1462 H 139.484 -5.20148 2.99276 0
M  V30 1463 H 140.554 -3.78834 3.02676 0
M  V30 1464 N 141.898 -0.863906 -1.31812 0
M  V30 1465 C 143.123 -0.48527 -2.01643 0
M  V30 1466 C 143.548 0.913058 -1.64453 0
M  V30 1467 O 142.906 1.6014 -0.849985 0
M  V30 1468 C 142.954 -0.642625 -3.54828 0
M  V30 1469 O 142.058 0.320659 -4.11151 0
M  V30 1470 H 141.399 -0.193793 -0.635091 0
M  V30 1471 H 143.929 -1.16565 -1.68148 0
M  V30 1472 H 143.939 -0.533628 -4.04495 0
M  V30 1473 H 142.614 -1.66227 -3.81237 0
M  V30 1474 H 141.191 0.167126 -3.72525 0
M  V30 1475 N 143.376 1.44774 -0.622745 0
M  V30 1476 C 144.604 2.06487 -0.130722 0
M  V30 1477 C 145.019 1.46476 1.19123 0
M  V30 1478 O 144.376 0.584502 1.72887 0
M  V30 1479 C 144.427 3.615 -0.000807207 0
M  V30 1480 O 144.148 4.19274 -1.27048 0
M  V30 1481 C 145.649 4.40229 0.520898 0
M  V30 1482 H 142.869 0.666704 -0.0758106 0
M  V30 1483 H 145.413 1.85779 -0.854774 0
M  V30 1484 H 143.568 3.81498 0.673643 0
M  V30 1485 H 143.982 5.12622 -1.1099 0
M  V30 1486 H 145.456 5.49144 0.560838 0
M  V30 1487 H 145.933 4.1108 1.54627 0
M  V30 1488 H 146.539 4.25131 -0.120018 0
M  V30 1489 N 144.854 0.36279 1.53368 0
M  V30 1490 C 145.784 -0.476976 2.28576 0
M  V30 1491 C 146.765 -1.08631 1.30894 0
M  V30 1492 O 147.95 -1.10409 1.59761 0
M  V30 1493 C 145.08 -1.61828 3.07293 0
M  V30 1494 C 144.034 -1.13633 4.1264 0
M  V30 1495 C 143.36 -2.36766 4.79423 0
M  V30 1496 C 144.66 -0.223061 5.21823 0
M  V30 1497 H 146.354 0.150474 2.99022 0
M  V30 1498 H 143.9 0.0738103 1.43811 0
M  V30 1499 H 145.853 -2.21237 3.58653 0
M  V30 1500 H 144.577 -2.27292 2.34533 0
M  V30 1501 H 143.236 -0.564945 3.62221 0
M  V30 1502 H 142.884 -3.0068 4.03238 0
M  V30 1503 H 142.584 -2.05192 5.50609 0
M  V30 1504 H 144.108 -2.96865 5.33576 0
M  V30 1505 H 145.522 -0.724545 5.68703 0
M  V30 1506 H 143.919 0.001678 6.001 0
M  V30 1507 H 144.989 0.735553 4.79289 0
M  V30 1508 N 146.332 -1.57332 0.0918853 0
M  V30 1509 C 147.28 -2.15075 -0.885747 0
M  V30 1510 C 148.274 -1.09277 -1.29441 0
M  V30 1511 O 149.48 -1.27627 -1.26931 0
M  V30 1512 H 145.855 -0.687966 -0.303656 0
M  V30 1513 H 147.826 -2.96047 -0.373995 0
M  V30 1514 C 146.575 -2.74325 -2.13638 0
M  V30 1515 H 145.898 -3.55418 -1.8308 0
M  V30 1516 H 147.338 -3.183 -2.80109 0
M  V30 1517 C 145.797 -1.70062 -2.90827 0
M  V30 1518 O 146.327 -1.13763 -3.85254 0
M  V30 1519 N 144.533 -1.40628 -2.54307 0
M  V30 1520 H 144.08 -1.866 -1.7759 0
M  V30 1521 H 144.038 -0.711043 -3.06254 0
M  V30 1522 N 147.81 0.181792 -1.56548 0
M  V30 1523 C 149.056 0.901431 -1.81665 0
M  V30 1524 C 149.389 1.82347 -0.668075 0
M  V30 1525 O 148.664 1.91669 0.330615 0
M  V30 1526 C 148.947 1.70618 -3.17115 0
M  V30 1527 C 148.8 0.807964 -4.42484 0
M  V30 1528 C 150.119 2.67605 -3.49393 0
M  V30 1529 H 147.238 0.32627 -0.660846 0
M  V30 1530 H 149.88 0.168134 -1.89255 0
M  V30 1531 H 148.03 2.33133 -3.10775 0
M  V30 1532 H 149.702 0.19649 -4.60881 0
M  V30 1533 H 147.945 0.115411 -4.33646 0
M  V30 1534 H 148.616 1.40632 -5.33785 0
M  V30 1535 H 151.092 2.15218 -3.56118 0
M  V30 1536 H 149.968 3.20985 -4.45264 0
M  V30 1537 H 150.229 3.47298 -2.73563 0
M  V30 1538 N 149.288 1.51039 0.449983 0
M  V30 1539 C 150.236 1.71995 1.5659 0
M  V30 1540 C 151.23 0.586029 1.5894 0
M  V30 1541 O 152.436 0.76709 1.62837 0
M  V30 1542 H 148.811 0.543233 0.520001 0
M  V30 1543 H 150.782 2.65562 1.36085 0
M  V30 1544 C 149.531 1.8506 2.9436 0
M  V30 1545 H 148.854 2.71712 2.93279 0
M  V30 1546 H 150.294 2.0374 3.71842 0
M  V30 1547 C 148.753 0.607277 3.31382 0
M  V30 1548 O 149.283 -0.243903 4.00959 0
M  V30 1549 N 147.489 0.455073 2.87015 0
M  V30 1550 H 147.036 1.14879 2.30566 0
M  V30 1551 H 146.994 -0.375611 3.12148 0
M  V30 1552 N 150.766 -0.704594 1.40972 0
M  V30 1553 C 152.012 -1.46675 1.40051 0
M  V30 1554 C 152.345 -1.94199 0.00641102 0
M  V30 1555 O 151.62 -1.68916 -0.964235 0
M  V30 1556 C 151.903 -2.68505 2.39952 0
M  V30 1557 C 151.756 -2.26805 3.88432 0
M  V30 1558 C 153.075 -3.70686 2.37233 0
M  V30 1559 H 150.194 -0.532015 0.510028 0
M  V30 1560 H 152.836 -0.803255 1.72185 0
M  V30 1561 H 150.986 -3.25114 2.1268 0
M  V30 1562 H 152.658 -1.75592 4.26574 0
M  V30 1563 H 150.901 -1.58685 4.03734 0
M  V30 1564 H 151.572 -3.14181 4.53866 0
M  V30 1565 H 154.048 -3.23731 2.61415 0
M  V30 1566 H 152.924 -4.53553 3.09162 0
M  V30 1567 H 153.185 -4.19754 1.38777 0
M  V30 1568 N 152.244 -1.26651 -0.937939 0
M  V30 1569 C 153.492 -1.12165 -1.68118 0
M  V30 1570 C 153.813 0.334983 -1.92101 0
M  V30 1571 O 153.083 1.23583 -1.52 0
M  V30 1572 H 151.663 -0.412093 -0.623048 0
M  V30 1573 H 154.325 -1.59027 -1.12678 0
M  V30 1574 H 153.421 -1.64289 -2.6536 0
M  V30 1575 N 153.722 1.14298 -1.08507 0
M  V30 1576 C 154.97 1.84993 -0.813763 0
M  V30 1577 C 155.291 1.83405 0.662393 0
M  V30 1578 O 154.561 1.28319 1.48024 0
M  V30 1579 H 153.141 0.684966 -0.298045 0
M  V30 1580 H 155.803 1.385 -1.37126 0
M  V30 1581 H 154.899 2.89788 -1.15884 0
M  V30 1582 N 155.201 0.870884 1.31352 0
M  V30 1583 C 156.151 0.298889 2.26032 0
M  V30 1584 C 157.135 -0.564595 1.50669 0
M  V30 1585 O 158.327 -0.411323 1.72154 0
M  V30 1586 C 155.456 -0.497842 3.39671 0
M  V30 1587 C 154.542 0.378937 4.22404 0
M  V30 1588 N 154.933 1.47284 4.83881 0
M  V30 1589 C 153.231 0.171535 4.4567 0
M  V30 1590 C 153.932 2.01359 5.45738 0
M  V30 1591 N 152.908 1.31047 5.27568 0
M  V30 1592 H 156.71 1.13494 2.71102 0
M  V30 1593 H 154.224 0.718745 1.45629 0
M  V30 1594 H 156.221 -0.924155 4.06528 0
M  V30 1595 H 154.881 -1.33149 2.96144 0
M  V30 1596 H 155.892 1.85575 4.8351 0
M  V30 1597 H 152.569 -0.626091 4.12779 0
M  V30 1598 H 153.959 2.93143 6.0458 0
M  V30 1599 N 156.679 -1.44442 0.630414 0
M  V30 1600 C 157.904 -2.06927 0.139944 0
M  V30 1601 C 158.329 -1.46795 -1.17613 0
M  V30 1602 O 157.687 -0.569144 -1.72135 0
M  V30 1603 C 157.735 -3.6058 0.0379581 0
M  V30 1604 O 156.839 -3.99937 -1.0062 0
M  V30 1605 H 156.18 -0.658608 0.0844483 0
M  V30 1606 H 158.71 -1.85327 0.866891 0
M  V30 1607 H 158.72 -4.07714 -0.152856 0
M  V30 1608 H 157.395 -4.03728 0.998809 0
M  V30 1609 H 155.972 -3.64436 -0.79001 0
M  V30 1610 N 158.157 -0.370918 -1.53173 0
M  V30 1611 C 159.387 0.217389 -2.05453 0
M  V30 1612 C 159.795 1.42568 -1.24382 0
M  V30 1613 O 159.138 1.81571 -0.278839 0
M  V30 1614 C 159.2 0.669827 -3.53205 0
M  V30 1615 C 158.864 -0.4225 -4.55043 0
M  V30 1616 C 159.861 -1.27407 -5.04047 0
M  V30 1617 C 157.546 -0.58427 -4.9889 0
M  V30 1618 C 159.54 -2.27271 -5.95505 0
M  V30 1619 C 157.227 -1.58627 -5.90153 0
M  V30 1620 C 158.225 -2.42892 -6.38351 0
M  V30 1621 O 157.913 -3.41382 -7.27814 0
M  V30 1622 H 157.645 0.0408171 -0.674767 0
M  V30 1623 H 160.199 -0.5292 -1.98466 0
M  V30 1624 H 158.429 1.4681 -3.57748 0
M  V30 1625 H 160.118 1.18173 -3.88317 0
M  V30 1626 H 160.884 -1.16031 -4.70916 0
M  V30 1627 H 156.763 0.061851 -4.60959 0
M  V30 1628 H 160.307 -2.93079 -6.33049 0
M  V30 1629 H 156.204 -1.70048 -6.22699 0
M  V30 1630 H 156.972 -3.37173 -7.45826 0
M  V30 1631 N 159.635 1.57281 -0.100228 0
M  V30 1632 C 160.567 2.11342 0.886972 0
M  V30 1633 C 161.58 1.05182 1.24261 0
M  V30 1634 O 162.769 1.32613 1.19483 0
M  V30 1635 C 159.869 2.5825 2.19454 0
M  V30 1636 C 159.042 3.88302 2.01346 0
M  V30 1637 C 158.101 4.21004 3.15661 0
M  V30 1638 O 157.127 4.9014 2.89398 0
M  V30 1639 N 158.329 3.76818 4.41575 0
M  V30 1640 H 161.094 2.96668 0.425216 0
M  V30 1641 H 158.655 1.61678 0.0847334 0
M  V30 1642 H 160.647 2.7717 2.94888 0
M  V30 1643 H 159.217 1.77907 2.57037 0
M  V30 1644 H 158.437 3.7848 1.10212 0
M  V30 1645 H 159.725 4.73375 1.8653 0
M  V30 1646 H 159.123 3.2102 4.65792 0
M  V30 1647 H 157.68 4.00882 5.13942 0
M  V30 1648 N 161.113 -0.173488 1.56642 0
M  V30 1649 C 162.043 -1.2171 1.99271 0
M  V30 1650 C 163.024 -1.46289 0.867959 0
M  V30 1651 O 164.209 -1.5766 1.13388 0
M  V30 1652 C 161.339 -2.55651 2.35074 0
M  V30 1653 C 160.293 -2.45645 3.50489 0
M  V30 1654 C 159.619 -3.84056 3.72028 0
M  V30 1655 C 160.919 -1.96302 4.84007 0
M  V30 1656 H 162.613 -0.86275 2.867 0
M  V30 1657 H 160.159 -0.413571 1.37933 0
M  V30 1658 H 162.112 -3.2886 2.63494 0
M  V30 1659 H 160.836 -2.92869 1.44552 0
M  V30 1660 H 159.495 -1.7489 3.22194 0
M  V30 1661 H 159.143 -4.18664 2.788 0
M  V30 1662 H 158.843 -3.7823 4.49684 0
M  V30 1663 H 160.367 -4.58854 4.02846 0
M  V30 1664 H 161.781 -2.59284 5.11317 0
M  V30 1665 H 160.178 -2.01429 5.65284 0
M  V30 1666 H 161.248 -0.917226 4.76146 0
M  V30 1667 N 162.591 -1.51276 -0.441967 0
M  V30 1668 C 163.868 -1.54252 -1.20273 0
M  V30 1669 C 164.248 -0.30408 -2.08898 0
M  V30 1670 O 163.596 0.711084 -2.17154 0
M  V30 1671 C 163.806 -2.85406 -2.00859 0
M  V30 1672 C 165.154 -3.37181 -2.58059 0
M  V30 1673 O 166.178 -2.86925 -2.11074 0
M  V30 1674 O 165.037 -4.24858 -3.43741 0
M  V30 1675 H 162.131 -0.619969 -0.547328 0
M  V30 1676 H 164.677 -1.63586 -0.451413 0
M  V30 1677 H 163.449 -3.67003 -1.35736 0
M  V30 1678 H 163.072 -2.79213 -2.83065 0
M  V30 1679 N 164.069 0.697108 -1.41344 0
M  V30 1680 C 165.299 1.48377 -1.43763 0
M  V30 1681 C 165.707 1.89156 -0.0408726 0
M  V30 1682 O 165.05 1.57239 0.949812 0
M  V30 1683 C 165.112 2.7781 -2.2817 0
M  V30 1684 C 164.776 2.59244 -3.76353 0
M  V30 1685 C 165.773 2.25292 -4.68551 0
M  V30 1686 C 163.458 2.74933 -4.20378 0
M  V30 1687 C 165.452 2.07264 -6.02761 0
M  V30 1688 C 163.139 2.56521 -5.54653 0
M  V30 1689 C 164.137 2.22737 -6.4566 0
M  V30 1690 O 163.825 2.04485 -7.77458 0
M  V30 1691 H 163.557 0.463842 -0.491759 0
M  V30 1692 H 166.111 0.865934 -1.86255 0
M  V30 1693 H 164.341 3.41995 -1.8049 0
M  V30 1694 H 166.03 3.39608 -2.22309 0
M  V30 1695 H 166.796 2.12787 -4.35829 0
M  V30 1696 H 162.675 3.00213 -3.49848 0
M  V30 1697 H 166.219 1.80817 -6.73759 0
M  V30 1698 H 162.116 2.68616 -5.86955 0
M  V30 1699 H 162.884 2.1926 -7.88586 0
M  V30 1700 N 165.547 1.27147 0.931209 0
M  V30 1701 C 166.787 1.14511 1.69312 0
M  V30 1702 C 167.151 -0.304638 1.89568 0
M  V30 1703 O 168.352 -0.553343 2.63043 0
M  V30 1704 C 166.623 1.90349 3.02493 0
M  V30 1705 S 168.182 1.93884 3.93642 0
M  V30 1706 H 165 0.408858 0.581684 0
M  V30 1707 H 167.602 1.61006 1.10893 0
M  V30 1708 H 166.306 2.94877 2.85439 0
M  V30 1709 H 165.837 1.44333 3.65966 0
M  V30 1710 H 167.852 1.03273 4.85334 0
M  V30 1711 N 167.025 -1.13721 1.09112 0
M  V30 1712 C 167.935 -2.22638 0.73957 0
M  V30 1713 C 168.951 -1.72091 -0.257068 0
M  V30 1714 O 170.127 -2.01155 -0.0992154 0
M  V30 1715 C 167.192 -3.46322 0.16191 0
M  V30 1716 C 166.253 -4.11775 1.21408 0
M  V30 1717 C 165.486 -5.29555 0.663891 0
M  V30 1718 O 165.709 -5.68077 -0.514274 0
M  V30 1719 O 164.643 -5.84973 1.41738 0
M  V30 1720 H 168.469 -2.55074 1.64836 0
M  V30 1721 H 166.054 -1.21791 0.865289 0
M  V30 1722 H 167.936 -4.21107 -0.157073 0
M  V30 1723 H 166.611 -3.15593 -0.719932 0
M  V30 1724 H 165.518 -3.3883 1.58571 0
M  V30 1725 H 166.851 -4.46627 2.06845 0
M  V30 1726 N 168.503 -0.877838 -1.30888 0
M  V30 1727 C 169.433 -0.35534 -2.3078 0
M  V30 1728 C 170.414 0.557994 -1.60687 0
M  V30 1729 O 171.599 0.473355 -1.88343 0
M  V30 1730 C 168.729 0.437221 -3.44537 0
M  V30 1731 C 167.683 -0.383715 -4.26276 0
M  V30 1732 C 167.009 0.535014 -5.32017 0
M  V30 1733 C 168.309 -1.62201 -4.96476 0
M  V30 1734 H 170.003 -1.19007 -2.74732 0
M  V30 1735 H 167.549 -0.573698 -1.32078 0
M  V30 1736 H 169.502 0.813334 -4.13477 0
M  V30 1737 H 168.226 1.30553 -2.99372 0
M  V30 1738 H 166.885 -0.741874 -3.59015 0
M  V30 1739 H 166.533 1.40083 -4.831 0
M  V30 1740 H 166.233 -0.0104211 -5.87599 0
M  V30 1741 H 167.757 0.907799 -6.03814 0
M  V30 1742 H 169.171 -1.31689 -5.5797 0
M  V30 1743 H 167.568 -2.10711 -5.61891 0
M  V30 1744 H 168.638 -2.37044 -4.23011 0
M  V30 1745 N 169.982 1.44106 -0.638065 0
M  V30 1746 C 170.945 2.29138 0.0531013 0
M  V30 1747 C 171.945 1.41409 0.765506 0
M  V30 1748 O 173.135 1.63206 0.609046 0
M  V30 1749 C 170.267 3.23144 1.08584 0
M  V30 1750 H 171.46 2.91739 -0.694883 0
M  V30 1751 H 169.013 1.51134 -0.398538 0
M  V30 1752 H 169.748 2.65408 1.86357 0
M  V30 1753 H 169.533 3.87804 0.578852 0
M  V30 1754 H 171.023 3.87004 1.56899 0
M  V30 1755 N 171.46 0.379036 1.52974 0
M  V30 1756 C 172.708 -0.206014 2.01047 0
M  V30 1757 C 173.029 -1.48175 1.26765 0
M  V30 1758 O 172.299 -1.92085 0.384743 0
M  V30 1759 H 170.879 -0.0791184 0.742798 0
M  V30 1760 H 173.541 0.508366 1.88153 0
M  V30 1761 H 172.637 -0.423501 3.09213 0
M  V30 1762 N 172.938 -1.57226 0.108567 0
M  V30 1763 C 174.185 -1.94833 -0.551943 0
M  V30 1764 C 174.513 -0.991204 -1.67348 0
M  V30 1765 O 173.768 -0.0131878 -1.95696 0
M  V30 1766 C 174.067 -3.38911 -1.13463 0
M  V30 1767 C 173.733 -4.50696 -0.135509 0
M  V30 1768 C 172.395 -4.80998 0.139252 0
M  V30 1769 C 174.747 -5.18333 0.545957 0
M  V30 1770 C 172.075 -5.76259 1.10194 0
M  V30 1771 C 174.427 -6.14627 1.49721 0
M  V30 1772 C 173.091 -6.43327 1.78006 0
M  V30 1773 H 172.361 -0.712944 -0.20197 0
M  V30 1774 H 175.008 -1.90582 0.18726 0
M  V30 1775 H 173.313 -3.39805 -1.95037 0
M  V30 1776 H 175.01 -3.65317 -1.65362 0
M  V30 1777 H 171.6 -4.27087 -0.359846 0
M  V30 1778 H 175.784 -4.95087 0.346842 0
M  V30 1779 H 171.04 -5.96804 1.32795 0
M  V30 1780 H 175.214 -6.66126 2.03099 0
M  V30 1781 H 172.841 -7.1695 2.52759 0
M  V30 1782 N 174.416 0.165178 -1.56732 0
M  V30 1783 C 175.827 0.727046 -1.71962 0
M  V30 1784 C 176.178 1.82508 -0.720078 0
M  V30 1785 O 175.303 2.16082 0.117242 0
M  V30 1786 C 175.898 1.32559 -3.11791 0
M  V30 1787 C 174.457 1.83422 -3.28684 0
M  V30 1788 C 173.604 0.715567 -2.67908 0
M  V30 1789 H 176.555 -0.0602896 -1.58585 0
M  V30 1790 H 176.576 2.19533 -3.10782 0
M  V30 1791 H 176.088 0.526195 -3.84516 0
M  V30 1792 H 174.189 2.65986 -2.60926 0
M  V30 1793 H 174.302 1.97543 -4.36478 0
M  V30 1794 H 172.666 1.13758 -2.27884 0
M  V30 1795 H 173.449 -0.0720836 -3.43224 0
M  V30 1796 N 175.894 1.51508 0.433938 0
M  V30 1797 C 176.841 1.73068 1.52696 0
M  V30 1798 C 177.811 0.572441 1.55924 0
M  V30 1799 O 178.996 0.807253 1.72882 0
M  V30 1800 C 176.136 1.86474 2.90381 0
M  V30 1801 C 175.249 3.14037 2.96656 0
M  V30 1802 C 174.384 3.18019 4.25485 0
M  V30 1803 C 173.423 4.39882 4.2564 0
M  V30 1804 N 172.56 4.41394 5.45999 0
M  V30 1805 H 177.4 2.66366 1.33615 0
M  V30 1806 H 174.937 1.32008 0.649018 0
M  V30 1807 H 176.895 1.92229 3.70275 0
M  V30 1808 H 175.525 0.965809 3.08013 0
M  V30 1809 H 174.577 3.17575 2.09404 0
M  V30 1810 H 175.889 4.0394 2.92633 0
M  V30 1811 H 175.043 3.22708 5.13755 0
M  V30 1812 H 173.782 2.2601 4.3217 0
M  V30 1813 H 172.787 4.35366 3.35763 0
M  V30 1814 H 174.012 5.33159 4.20617 0
M  V30 1815 H 171.958 3.52258 5.53399 0
M  V30 1816 H 171.875 5.25111 5.4387 0
M  V30 1817 H 173.143 4.50281 6.36292 0
M  V30 1818 N 177.372 -0.689602 1.41712 0
M  V30 1819 C 178.6 -1.47827 1.44758 0
M  V30 1820 C 179.015 -1.88721 0.0545703 0
M  V30 1821 O 178.372 -1.57176 -0.927463 0
M  V30 1822 C 178.423 -2.73698 2.3616 0
M  V30 1823 O 178.144 -2.34524 3.7004 0
M  V30 1824 C 179.645 -3.67389 2.48072 0
M  V30 1825 H 176.865 -0.455357 0.49284 0
M  V30 1826 H 179.409 -0.848574 1.86063 0
M  V30 1827 H 177.564 -3.32891 1.98148 0
M  V30 1828 H 177.978 -3.15701 4.18847 0
M  V30 1829 H 179.452 -4.52475 3.16181 0
M  V30 1830 H 179.929 -4.12284 1.51388 0
M  V30 1831 H 180.535 -3.14097 2.86746 0
M  V30 1832 N 178.85 -1.27639 -0.924453 0
M  V30 1833 C 180.266 -1.05113 -1.20097 0
M  V30 1834 C 180.466 0.213262 -2.00368 0
M  V30 1835 O 179.522 0.91787 -2.35226 0
M  V30 1836 C 180.835 -2.29244 -1.94596 0
M  V30 1837 C 182.383 -2.34315 -2.07522 0
M  V30 1838 C 182.858 -3.58183 -2.85427 0
M  V30 1839 N 184.349 -3.5876 -2.92994 0
M  V30 1840 C 185.084 -4.51277 -3.53746 0
M  V30 1841 N 184.58 -5.54102 -4.15863 0
M  V30 1842 N 186.373 -4.38894 -3.51181 0
M  V30 1843 H 178.524 -2.08821 -0.388264 0
M  V30 1844 H 180.787 -0.918568 -0.234385 0
M  V30 1845 H 180.493 -3.21301 -1.43034 0
M  V30 1846 H 180.367 -2.34816 -2.95197 0
M  V30 1847 H 182.754 -1.42762 -2.58269 0
M  V30 1848 H 182.835 -2.32744 -1.06131 0
M  V30 1849 H 182.479 -4.50074 -2.35363 0
M  V30 1850 H 182.409 -3.57006 -3.8711 0
M  V30 1851 H 184.9 -2.84398 -2.4885 0
M  V30 1852 H 185.213 -6.20859 -4.60168 0
M  V30 1853 H 183.558 -5.57941 -4.144 0
M  V30 1854 H 186.749 -3.57772 -3.01856 0
M  V30 1855 H 186.922 -5.11186 -3.98237 0
M  V30 1856 N 180.328 1.1314 -1.09713 0
M  V30 1857 C 181.258 2.20748 -0.761102 0
M  V30 1858 C 182.239 1.68061 0.262566 0
M  V30 1859 O 183.424 1.93765 0.129977 0
M  V30 1860 C 180.554 3.46812 -0.184054 0
M  V30 1861 C 179.508 4.12606 -1.13757 0
M  V30 1862 C 178.834 5.33031 -0.422083 0
M  V30 1863 C 180.134 4.59603 -2.48118 0
M  V30 1864 H 181.828 2.49113 -1.66082 0
M  V30 1865 H 179.374 1.19734 -0.799987 0
M  V30 1866 H 181.327 4.21353 0.0631215 0
M  V30 1867 H 180.051 3.17851 0.750868 0
M  V30 1868 H 178.71 3.40036 -1.37007 0
M  V30 1869 H 178.358 5.00335 0.517072 0
M  V30 1870 H 178.058 5.77999 -1.05788 0
M  V30 1871 H 179.582 6.10325 -0.183277 0
M  V30 1872 H 180.996 5.25552 -2.29059 0
M  V30 1873 H 179.393 5.15321 -3.07514 0
M  V30 1874 H 180.463 3.73971 -3.08665 0
M  V30 1875 N 181.806 0.884767 1.30421 0
M  V30 1876 C 183.054 0.502112 1.95763 0
M  V30 1877 C 183.375 -0.951815 1.70192 0
M  V30 1878 O 182.645 -1.6692 1.0254 0
M  V30 1879 H 181.225 0.182694 0.724315 0
M  V30 1880 H 183.887 1.1278 1.58955 0
M  V30 1881 H 182.983 0.672188 3.04775 0
M  V30 1882 N 183.284 -1.43765 0.645699 0
M  V30 1883 C 184.7 -1.56509 0.312591 0
M  V30 1884 C 184.9 -1.6307 -1.18365 0
M  V30 1885 O 183.956 -1.58167 -1.96824 0
M  V30 1886 C 185.269 -2.82968 1.01733 0
M  V30 1887 C 186.817 -2.96701 0.996865 0
M  V30 1888 C 187.292 -4.25982 1.68236 0
M  V30 1889 N 188.783 -4.32829 1.64964 0
M  V30 1890 C 189.518 -5.31613 2.14885 0
M  V30 1891 N 189.014 -6.36718 2.73061 0
M  V30 1892 N 190.807 -5.23217 2.05428 0
M  V30 1893 H 182.958 -1.3775 1.61675 0
M  V30 1894 H 185.221 -0.661067 0.679481 0
M  V30 1895 H 184.927 -2.84156 2.0724 0
M  V30 1896 H 184.801 -3.72957 0.564177 0
M  V30 1897 H 187.188 -2.95058 -0.0497719 0
M  V30 1898 H 187.269 -2.08022 1.48865 0
M  V30 1899 H 186.913 -4.28386 2.72852 0
M  V30 1900 H 186.843 -5.13545 1.16529 0
M  V30 1901 H 189.334 -3.57493 1.22503 0
M  V30 1902 H 189.647 -7.08401 3.08848 0
M  V30 1903 H 187.992 -6.37362 2.77118 0
M  V30 1904 H 191.183 -4.40019 1.59689 0
M  V30 1905 H 191.356 -6.00045 2.44643 0
M  V30 1906 N 184.763 -0.387143 -1.52771 0
M  V30 1907 C 185.693 0.440551 -2.29306 0
M  V30 1908 C 186.674 1.06535 -1.32606 0
M  V30 1909 O 187.859 1.07853 -1.61497 0
M  V30 1910 C 184.989 1.56919 -3.09829 0
M  V30 1911 C 183.943 1.07054 -4.14395 0
M  V30 1912 C 183.269 2.29109 -4.83129 0
M  V30 1913 C 184.569 0.140015 -5.22112 0
M  V30 1914 H 186.263 -0.198026 -2.98744 0
M  V30 1915 H 183.809 -0.09668 -1.43675 0
M  V30 1916 H 185.762 2.15503 -3.62128 0
M  V30 1917 H 184.486 2.23532 -2.3812 0
M  V30 1918 H 183.145 0.507247 -3.63074 0
M  V30 1919 H 182.793 2.94227 -4.0797 0
M  V30 1920 H 182.493 1.96406 -5.53804 0
M  V30 1921 H 184.017 2.88339 -5.38231 0
M  V30 1922 H 185.431 0.633978 -5.69784 0
M  V30 1923 H 183.828 -0.0971485 -6.00021 0
M  V30 1924 H 184.898 -0.811711 -4.78058 0
M  V30 1925 N 186.241 1.57166 -0.116904 0
M  V30 1926 C 187.204 2.14039 0.819742 0
M  V30 1927 C 188.204 1.07477 1.19605 0
M  V30 1928 O 189.394 1.33263 1.1219 0
M  V30 1929 C 186.526 2.67891 2.10826 0
M  V30 1930 H 187.719 2.98128 0.325511 0
M  V30 1931 H 185.272 1.55739 0.132312 0
M  V30 1932 H 186.007 1.87384 2.64685 0
M  V30 1933 H 185.792 3.45823 1.84793 0
M  V30 1934 H 187.282 3.11809 2.77785 0
M  V30 1935 N 187.719 -0.156864 1.56817 0
M  V30 1936 C 188.947 -0.886316 1.86955 0
M  V30 1937 C 189.362 -1.75185 0.703975 0
M  V30 1938 O 188.719 -1.79555 -0.326552 0
M  V30 1939 C 188.77 -1.75117 3.16253 0
M  V30 1940 O 188.491 -0.920537 4.2832 0
M  V30 1941 C 189.992 -2.58905 3.59837 0
M  V30 1942 H 187.212 -0.25678 0.619923 0
M  V30 1943 H 189.756 -0.152615 2.0393 0
M  V30 1944 H 187.911 -2.43805 3.01062 0
M  V30 1945 H 188.325 -1.51337 5.02192 0
M  V30 1946 H 189.799 -3.1518 4.53172 0
M  V30 1947 H 190.276 -3.34472 2.84649 0
M  V30 1948 H 190.882 -1.95526 3.7769 0
M  V30 1949 N 189.197 -1.51736 -0.425897 0
M  V30 1950 C 190.422 -1.69082 -1.20108 0
M  V30 1951 C 190.847 -0.392398 -1.83962 0
M  V30 1952 O 190.205 0.64858 -1.69302 0
M  V30 1953 C 190.253 -2.81604 -2.25237 0
M  V30 1954 O 189.357 -2.46004 -3.30992 0
M  V30 1955 H 188.698 -0.563408 -0.35138 0
M  V30 1956 H 191.228 -1.98358 -0.501512 0
M  V30 1957 H 191.238 -3.06025 -2.69838 0
M  V30 1958 H 189.913 -3.75817 -1.78142 0
M  V30 1959 H 188.49 -2.32195 -2.91787 0
M  V30 1960 N 190.675 0.682077 -1.42076 0
M  V30 1961 C 191.903 1.47057 -1.4554 0
M  V30 1962 C 192.318 1.8869 -0.0645779 0
M  V30 1963 O 191.675 1.57666 0.919115 0
M  V30 1964 C 191.726 2.72442 -2.37609 0
M  V30 1965 O 191.447 2.32559 -3.71279 0
M  V30 1966 C 192.948 3.66069 -2.50017 0
M  V30 1967 H 190.168 0.452737 -0.495248 0
M  V30 1968 H 192.712 0.838695 -1.8651 0
M  V30 1969 H 190.867 3.31835 -1.9991 0
M  V30 1970 H 191.281 3.13475 -4.20516 0
M  V30 1971 H 192.755 4.50792 -3.18576 0
M  V30 1972 H 193.232 4.11476 -1.53572 0
M  V30 1973 H 193.838 3.12572 -2.88407 0
M  V30 1974 N 192.153 1.28127 0.917671 0
M  V30 1975 C 193.378 1.18007 1.70555 0
M  V30 1976 C 193.803 -0.258257 1.86319 0
M  V30 1977 O 193.161 -1.1869 1.37049 0
M  V30 1978 C 193.209 1.87948 3.07746 0
M  V30 1979 O 192.313 1.18427 3.9503 0
M  V30 1980 H 191.654 0.409867 0.522403 0
M  V30 1981 H 194.184 1.69379 1.1477 0
M  V30 1982 H 194.194 1.95701 3.58001 0
M  V30 1983 H 192.869 2.92573 2.95591 0
M  V30 1984 H 191.446 1.18811 3.53466 0
M  V30 1985 N 193.631 -1.12557 1.10312 0
M  V30 1986 C 195.047 -1.36036 0.834649 0
M  V30 1987 C 195.247 -1.93946 -0.546539 0
M  V30 1988 O 194.303 -2.16484 -1.29966 0
M  V30 1989 C 195.616 -2.30312 1.9333 0
M  V30 1990 C 197.164 -2.43906 1.9616 0
M  V30 1991 C 197.639 -3.41496 3.05195 0
M  V30 1992 N 199.13 -3.49053 3.04494 0
M  V30 1993 C 199.865 -4.24471 3.85502 0
M  V30 1994 N 199.361 -5.02966 4.76442 0
M  V30 1995 N 201.154 -4.19864 3.73725 0
M  V30 1996 H 193.305 -0.733246 1.99342 0
M  V30 1997 H 195.568 -0.385234 0.866198 0
M  V30 1998 H 195.274 -1.94933 2.92735 0
M  V30 1999 H 195.148 -3.30421 1.81939 0
M  V30 2000 H 197.535 -2.78567 0.973886 0
M  V30 2001 H 197.616 -1.4369 2.11629 0
M  V30 2002 H 197.26 -3.07565 4.04186 0
M  V30 2003 H 197.19 -4.41539 2.86968 0
M  V30 2004 H 199.681 -2.93053 2.38596 0
M  V30 2005 H 199.994 -5.57846 5.34815 0
M  V30 2006 H 198.339 -5.02167 4.80472 0
M  V30 2007 H 201.53 -3.57623 3.02032 0
M  V30 2008 H 201.703 -4.78386 4.37093 0
M  V30 2009 N 195.109 -0.891671 -1.2995 0
M  V30 2010 C 196.334 -0.527932 -2.00568 0
M  V30 2011 C 196.759 0.877969 -1.66353 0
M  V30 2012 O 196.117 1.58301 -0.883762 0
M  V30 2013 C 196.165 -0.717745 -3.53385 0
M  V30 2014 O 195.269 0.233376 -4.11739 0
M  V30 2015 H 194.61 -0.20722 -0.630837 0
M  V30 2016 H 197.14 -1.20105 -1.65638 0
M  V30 2017 H 197.15 -0.619307 -4.03272 0
M  V30 2018 H 195.825 -1.74276 -3.77625 0
M  V30 2019 H 194.402 0.0880706 -3.72796 0
M  V30 2020 N 196.587 1.43421 -0.653314 0
M  V30 2021 C 198.003 1.56341 -0.320886 0
M  V30 2022 C 198.203 1.63696 1.17499 0
M  V30 2023 O 197.259 1.59208 1.95982 0
M  V30 2024 C 198.572 2.82424 -1.03233 0
M  V30 2025 C 200.12 2.96168 -1.01259 0
M  V30 2026 C 200.595 4.25084 -1.70492 0
M  V30 2027 N 202.086 4.31948 -1.67257 0
M  V30 2028 C 202.821 5.30466 -2.17701 0
M  V30 2029 N 202.317 6.35261 -2.76434 0
M  V30 2030 N 204.11 5.2212 -2.082 0
M  V30 2031 H 196.261 1.3689 -1.62403 0
M  V30 2032 H 198.524 0.657455 -0.682977 0
M  V30 2033 H 198.23 2.83053 -2.08744 0
M  V30 2034 H 198.104 3.72653 -0.583948 0
M  V30 2035 H 200.491 2.9508 0.0341235 0
M  V30 2036 H 200.572 2.07229 -1.49966 0
M  V30 2037 H 200.216 4.26932 -2.7512 0
M  V30 2038 H 200.146 5.1292 -1.19251 0
M  V30 2039 H 202.637 3.56838 -1.24398 0
M  V30 2040 H 202.95 7.06754 -3.12601 0
M  V30 2041 H 201.295 6.35884 -2.80495 0
M  V30 2042 H 204.486 4.39166 -1.62021 0
M  V30 2043 H 204.659 5.98739 -2.47822 0
M  V30 2044 N 198.065 0.39524 1.52563 0
M  V30 2045 C 198.997 -0.472201 2.24283 0
M  V30 2046 C 200.01 -1.02178 1.26742 0
M  V30 2047 O 201.199 -0.923097 1.52778 0
M  V30 2048 C 198.299 -1.66775 2.95024 0
M  V30 2049 C 197.472 -1.2445 4.19322 0
M  V30 2050 C 196.531 -2.30539 4.7301 0
M  V30 2051 O 195.557 -1.91702 5.35947 0
M  V30 2052 N 196.759 -3.6253 4.53379 0
M  V30 2053 H 199.524 0.142282 2.99362 0
M  V30 2054 H 197.085 0.2219 1.60372 0
M  V30 2055 H 199.077 -2.37283 3.27839 0
M  V30 2056 H 197.647 -2.18845 2.23217 0
M  V30 2057 H 196.867 -0.368069 3.92478 0
M  V30 2058 H 198.155 -0.938457 5.0007 0
M  V30 2059 H 197.553 -3.96841 4.03154 0
M  V30 2060 H 196.11 -4.29055 4.90668 0
M  V30 2061 N 199.544 -1.57102 0.125237 0
M  V30 2062 C 200.474 -2.18659 -0.819174 0
M  V30 2063 C 201.455 -1.12843 -1.27281 0
M  V30 2064 O 202.64 -1.41104 -1.33429 0
M  V30 2065 C 199.77 -2.79096 -2.06695 0
M  V30 2066 C 198.724 -3.90548 -1.75088 0
M  V30 2067 C 198.05 -4.37821 -3.06948 0
M  V30 2068 C 199.35 -5.12356 -1.01435 0
M  V30 2069 H 201.044 -2.9783 -0.306202 0
M  V30 2070 H 198.59 -1.4326 -0.145839 0
M  V30 2071 H 200.543 -3.2082 -2.73226 0
M  V30 2072 H 199.267 -1.97223 -2.60328 0
M  V30 2073 H 197.926 -3.49409 -1.10944 0
M  V30 2074 H 197.574 -3.52799 -3.58527 0
M  V30 2075 H 197.274 -5.12982 -2.86571 0
M  V30 2076 H 198.798 -4.822 -3.74587 0
M  V30 2077 H 200.212 -5.5106 -1.58132 0
M  V30 2078 H 198.609 -5.9314 -0.911319 0
M  V30 2079 H 199.679 -4.849 -0.00218681 0
M  V30 2080 N 201.022 0.148545 -1.56898 0
M  V30 2081 C 202.247 0.880385 -1.87787 0
M  V30 2082 C 202.672 1.74018 -0.714093 0
M  V30 2083 O 202.03 1.78153 0.336343 0
M  V30 2084 C 202.078 1.71422 -3.17249 0
M  V30 2085 O 201.182 2.8183 -3.01074 0
M  V30 2086 H 200.523 0.245301 -0.617028 0
M  V30 2087 H 203.053 0.139826 -2.04122 0
M  V30 2088 H 203.063 2.10954 -3.49231 0
M  V30 2089 H 201.738 1.08284 -4.01556 0
M  V30 2090 H 200.315 2.45715 -2.80497 0
M  V30 2091 N 202.5 1.5196 0.417844 0
M  V30 2092 C 203.43 1.77634 1.51554 0
M  V30 2093 C 204.411 0.626918 1.58126 0
M  V30 2094 O 205.596 0.871632 1.7354 0
M  V30 2095 C 202.726 1.91911 2.8946 0
M  V30 2096 C 201.68 3.07463 2.97743 0
M  V30 2097 C 201.006 3.06951 4.37819 0
M  V30 2098 C 202.306 4.47082 2.70027 0
M  V30 2099 H 204 2.6955 1.3032 0
M  V30 2100 H 201.546 1.29706 0.625492 0
M  V30 2101 H 203.499 2.08455 3.6623 0
M  V30 2102 H 202.223 0.966598 3.11969 0
M  V30 2103 H 200.882 2.90656 2.23416 0
M  V30 2104 H 200.53 2.09438 4.57323 0
M  V30 2105 H 200.23 3.84556 4.44286 0
M  V30 2106 H 201.754 3.25613 5.16535 0
M  V30 2107 H 203.168 4.6414 3.36522 0
M  V30 2108 H 201.565 5.2654 2.87881 0
M  V30 2109 H 202.635 4.55777 1.65514 0
M  V30 2110 N 203.978 -0.674533 1.42435 0
M  V30 2111 C 205.218 -1.4466 1.44405 0
M  V30 2112 C 205.582 -1.91911 0.0585784 0
M  V30 2113 O 206.783 -2.68759 -0.0469991 0
M  V30 2114 C 205.054 -2.61136 2.44013 0
M  V30 2115 S 206.613 -3.49981 2.64687 0
M  V30 2116 H 203.431 -0.494074 0.511284 0
M  V30 2117 H 206.033 -0.785162 1.7904 0
M  V30 2118 H 204.737 -2.24662 3.43446 0
M  V30 2119 H 204.268 -3.32153 2.10803 0
M  V30 2120 H 206.283 -4.57124 1.93007 0
M  V30 2121 N 205.456 -1.28612 -0.910864 0
M  V30 2122 C 206.733 -1.06632 -1.63979 0
M  V30 2123 C 207.113 0.393351 -2.07403 0
M  V30 2124 O 206.461 1.37999 -1.82122 0
M  V30 2125 C 206.671 -2.0436 -2.8291 0
M  V30 2126 C 208.019 -2.34666 -3.5386 0
M  V30 2127 O 209.043 -2.02467 -2.93062 0
M  V30 2128 O 207.902 -2.89631 -4.63439 0
M  V30 2129 H 204.996 -0.407737 -0.7195 0
M  V30 2130 H 207.542 -1.39942 -0.959914 0
M  V30 2131 H 206.314 -3.02727 -2.47936 0
M  V30 2132 H 205.937 -1.71714 -3.58609 0
M  V30 2133 N 206.934 1.1197 -1.10907 0
M  V30 2134 C 208.211 1.79959 -0.766432 0
M  V30 2135 C 208.591 1.97466 0.746363 0
M  V30 2136 O 207.939 1.55491 1.67436 0
M  V30 2137 C 208.149 3.14009 -1.52314 0
M  V30 2138 C 209.497 3.89134 -1.69883 0
M  V30 2139 O 210.521 3.2368 -1.48692 0
M  V30 2140 O 209.38 5.06572 -2.05054 0
M  V30 2141 H 206.474 0.779208 -0.277062 0
M  V30 2142 H 209.02 1.18762 -1.21217 0
M  V30 2143 H 207.792 2.96587 -2.55249 0
M  V30 2144 H 207.415 3.82915 -1.07059 0
M  V30 2145 N 208.412 0.89855 1.29475 0
M  V30 2146 C 209.642 0.538479 1.99459 0
M  V30 2147 C 210.05 -0.880922 1.67441 0
M  V30 2148 O 209.393 -1.59283 0.915127 0
M  V30 2149 C 209.455 0.649564 3.53583 0
M  V30 2150 C 209.119 2.03573 4.09154 0
M  V30 2151 C 210.116 3.00675 4.24135 0
M  V30 2152 C 207.801 2.3448 4.44212 0
M  V30 2153 C 209.795 4.26809 4.73405 0
M  V30 2154 C 207.482 3.60857 4.93179 0
M  V30 2155 C 208.48 4.56836 5.0773 0
M  V30 2156 O 208.168 5.80969 5.55635 0
M  V30 2157 H 207.9 0.205372 0.644048 0
M  V30 2158 H 210.454 1.20958 1.66007 0
M  V30 2159 H 208.684 -0.0785592 3.8662 0
M  V30 2160 H 210.373 0.29881 4.04799 0
M  V30 2161 H 211.139 2.78112 3.97339 0
M  V30 2162 H 207.018 1.60534 4.32145 0
M  V30 2163 H 210.562 5.0173 4.84678 0
M  V30 2164 H 206.459 3.83251 5.19412 0
M  V30 2165 H 207.227 5.83542 5.73952 0
M  V30 2166 N 209.89 -1.43072 0.660911 0
M  V30 2167 C 210.8 -2.34585 -0.0264163 0
M  V30 2168 C 211.816 -1.54316 -0.803898 0
M  V30 2169 O 212.992 -1.86939 -0.749391 0
M  V30 2170 C 210.057 -3.32689 -0.975639 0
M  V30 2171 C 209.118 -4.2886 -0.194236 0
M  V30 2172 C 208.351 -5.22278 -1.09825 0
M  V30 2173 O 208.574 -5.20299 -2.33763 0
M  V30 2174 O 207.508 -5.99228 -0.566513 0
M  V30 2175 H 211.334 -2.94869 0.727034 0
M  V30 2176 H 208.919 -1.43342 0.42111 0
M  V30 2177 H 210.801 -3.92995 -1.52094 0
M  V30 2178 H 209.476 -2.74898 -1.70918 0
M  V30 2179 H 208.383 -3.72011 0.394835 0
M  V30 2180 H 209.716 -4.89655 0.499899 0
M  V30 2181 N 211.368 -0.403325 -1.52352 0
M  V30 2182 C 212.278 0.432009 -2.30588 0
M  V30 2183 C 213.294 1.05884 -1.38075 0
M  V30 2184 O 214.47 1.06161 -1.71148 0
M  V30 2185 C 211.535 1.53669 -3.10784 0
M  V30 2186 C 210.596 0.933525 -4.19027 0
M  V30 2187 C 209.829 1.98557 -4.9539 0
M  V30 2188 O 210.052 3.20283 -4.71991 0
M  V30 2189 O 208.986 1.59504 -5.80381 0
M  V30 2190 H 212.812 -0.205739 -3.03002 0
M  V30 2191 H 210.397 -0.166675 -1.48467 0
M  V30 2192 H 212.279 2.17814 -3.60742 0
M  V30 2193 H 210.954 2.15915 -2.41169 0
M  V30 2194 H 209.861 0.254954 -3.7323 0
M  V30 2195 H 211.194 0.35508 -4.90918 0
M  V30 2196 N 212.846 1.57033 -0.133567 0
M  V30 2197 C 213.778 2.13176 0.841944 0
M  V30 2198 C 214.791 1.07794 1.22001 0
M  V30 2199 O 215.98 1.35117 1.16643 0
M  V30 2200 C 213.08 2.62847 2.13926 0
M  V30 2201 C 212.253 3.92486 1.93064 0
M  V30 2202 C 211.312 4.27605 3.0666 0
M  V30 2203 O 210.338 4.96168 2.78937 0
M  V30 2204 N 211.54 3.861 4.33483 0
M  V30 2205 H 214.305 2.97503 0.362192 0
M  V30 2206 H 211.866 1.61821 0.05042 0
M  V30 2207 H 213.858 2.83363 2.88942 0
M  V30 2208 H 212.428 1.83319 2.53205 0
M  V30 2209 H 211.648 3.80732 1.02159 0
M  V30 2210 H 212.936 4.77225 1.76447 0
M  V30 2211 H 212.334 3.30828 4.58878 0
M  V30 2212 H 210.891 4.11694 5.05323 0
M  V30 2213 N 214.325 -0.140222 1.56975 0
M  V30 2214 C 215.553 -0.866437 1.87884 0
M  V30 2215 C 215.968 -1.74428 0.722517 0
M  V30 2216 O 215.325 -1.79891 -0.30749 0
M  V30 2217 C 215.376 -1.71753 3.18093 0
M  V30 2218 O 215.097 -0.875056 4.29272 0
M  V30 2219 C 216.598 -2.55074 3.62563 0
M  V30 2220 H 213.818 -0.25019 0.622612 0
M  V30 2221 H 216.362 -0.130977 2.0408 0
M  V30 2222 H 214.517 -2.40598 3.03631 0
M  V30 2223 H 214.931 -1.46002 5.03769 0
M  V30 2224 H 216.405 -3.10356 4.5649 0
M  V30 2225 H 216.882 -3.31434 2.88181 0
M  V30 2226 H 217.488 -1.91509 3.79743 0
M  V30 2227 N 215.803 -1.52179 -0.40978 0
M  V30 2228 C 217.08 -1.56769 -1.16974 0
M  V30 2229 C 217.46 -0.348322 -2.08206 0
M  V30 2230 O 216.808 0.664862 -2.18613 0
M  V30 2231 C 217.018 -2.89603 -1.9476 0
M  V30 2232 C 218.366 -3.42579 -2.50849 0
M  V30 2233 O 219.39 -2.91338 -2.04941 0
M  V30 2234 O 218.249 -4.32054 -3.34652 0
M  V30 2235 H 215.343 -0.631439 -0.534054 0
M  V30 2236 H 217.889 -1.64507 -0.416613 0
M  V30 2237 H 216.661 -3.698 -1.27921 0
M  V30 2238 H 216.284 -2.85155 -2.77079 0
M  V30 2239 N 217.281 0.66697 -1.42791 0
M  V30 2240 C 218.191 1.80962 -1.49299 0
M  V30 2241 C 219.207 1.69775 -0.381108 0
M  V30 2242 O 220.383 1.91188 -0.633188 0
M  V30 2243 C 217.448 3.17156 -1.40045 0
M  V30 2244 C 216.509 3.40242 -2.6179 0
M  V30 2245 C 215.742 4.69939 -2.52969 0
M  V30 2246 O 215.965 5.48372 -1.56985 0
M  V30 2247 O 214.899 4.94441 -3.43237 0
M  V30 2248 H 218.725 1.78427 -2.45759 0
M  V30 2249 H 216.31 0.823713 -1.24641 0
M  V30 2250 H 218.192 3.98413 -1.37276 0
M  V30 2251 H 216.867 3.20312 -0.467138 0
M  V30 2252 H 215.774 2.58802 -2.70134 0
M  V30 2253 H 217.107 3.41923 -3.54047 0
M  V30 2254 N 218.759 1.29093 0.90403 0
M  V30 2255 C 219.989 1.19516 1.68522 0
M  V30 2256 C 220.397 -0.24738 1.87576 0
M  V30 2257 O 219.74 -1.17798 1.40959 0
M  V30 2258 C 219.802 1.83249 3.0929 0
M  V30 2259 C 219.466 3.32531 3.13484 0
M  V30 2260 C 220.463 4.28821 2.93953 0
M  V30 2261 C 218.148 3.73656 3.35688 0
M  V30 2262 C 220.142 5.64212 2.96553 0
M  V30 2263 C 217.829 5.0917 3.37919 0
M  V30 2264 C 218.827 6.04258 3.18373 0
M  V30 2265 O 218.515 7.37298 3.20385 0
M  V30 2266 H 218.247 0.415467 0.533257 0
M  V30 2267 H 220.801 1.70912 1.13922 0
M  V30 2268 H 219.031 1.26358 3.65473 0
M  V30 2269 H 220.72 1.68054 3.69476 0
M  V30 2270 H 221.486 3.98382 2.76616 0
M  V30 2271 H 217.365 3.00101 3.49943 0
M  V30 2272 H 220.909 6.38407 2.81216 0
M  V30 2273 H 216.806 5.39256 3.54787 0
M  V30 2274 H 217.574 7.46048 3.36681 0
M  V30 2275 N 220.237 -1.11381 1.11499 0
M  V30 2276 C 221.484 -1.83132 0.864231 0
M  V30 2277 C 221.812 -1.84683 -0.610114 0
M  V30 2278 O 221.067 -1.29589 -1.46646 0
M  V30 2279 C 221.366 -3.30026 1.37177 0
M  V30 2280 C 221.032 -3.48634 2.85946 0
M  V30 2281 C 219.694 -3.53421 3.26569 0
M  V30 2282 C 222.046 -3.54837 3.81759 0
M  V30 2283 C 219.374 -3.61967 4.61733 0
M  V30 2284 C 221.726 -3.64915 5.1674 0
M  V30 2285 C 220.39 -3.67962 5.5692 0
M  V30 2286 H 219.66 -0.670127 0.316245 0
M  V30 2287 H 222.307 -1.31354 1.3935 0
M  V30 2288 H 220.612 -3.84304 0.762753 0
M  V30 2289 H 222.309 -3.84034 1.15408 0
M  V30 2290 H 218.899 -3.45579 2.53521 0
M  V30 2291 H 223.083 -3.50399 3.51474 0
M  V30 2292 H 218.339 -3.62603 4.92269 0
M  V30 2293 H 222.513 -3.68658 5.90816 0
M  V30 2294 H 220.14 -3.74336 6.61647 0
M  V30 2295 N 221.715 -0.905404 -1.28997 0
M  V30 2296 C 222.962 -0.534248 -1.95325 0
M  V30 2297 C 223.29 0.920535 -1.71337 0
M  V30 2298 O 222.545 1.66861 -1.02254 0
M  V30 2299 C 222.844 -0.779906 -3.48787 0
M  V30 2300 C 222.51 -2.21293 -3.92861 0
M  V30 2301 C 221.172 -2.60475 -4.04606 0
M  V30 2302 C 223.524 -3.14587 -4.15553 0
M  V30 2303 C 220.852 -3.9212 -4.36416 0
M  V30 2304 C 223.204 -4.45787 -4.48839 0
M  V30 2305 C 221.868 -4.84834 -4.58794 0
M  V30 2306 H 221.138 -0.195495 -0.714747 0
M  V30 2307 H 223.785 -1.14514 -1.53488 0
M  V30 2308 H 222.09 -0.0861365 -3.91705 0
M  V30 2309 H 223.787 -0.472029 -3.98212 0
M  V30 2310 H 220.377 -1.89887 -3.84241 0
M  V30 2311 H 224.561 -2.85528 -4.0594 0
M  V30 2312 H 219.817 -4.22086 -4.42327 0
M  V30 2313 H 223.991 -5.18098 -4.65346 0
M  V30 2314 H 221.618 -5.86877 -4.83197 0
M  V30 2315 N 223.193 1.4272 -0.668489 0
M  V30 2316 C 224.47 1.95248 -0.117373 0
M  V30 2317 C 224.85 1.60919 1.36632 0
M  V30 2318 O 224.198 0.902095 2.09939 0
M  V30 2319 C 224.408 3.46927 -0.379806 0
M  V30 2320 C 225.756 4.23588 -0.292923 0
M  V30 2321 O 226.78 3.5482 -0.313204 0
M  V30 2322 O 225.639 5.46017 -0.229697 0
M  V30 2323 H 222.733 0.827 0.00079152 0
M  V30 2324 H 225.279 1.52581 -0.742783 0
M  V30 2325 H 224.051 3.65096 -1.40786 0
M  V30 2326 H 223.674 3.96627 0.277923 0
M  V30 2327 N 224.671 0.411399 1.52136 0
M  V30 2328 C 226.087 0.0623865 1.59478 0
M  V30 2329 C 226.287 -1.42554 1.4241 0
M  V30 2330 O 225.343 -2.19263 1.2522 0
M  V30 2331 C 226.656 0.559331 2.95452 0
M  V30 2332 C 228.204 0.517503 3.08692 0
M  V30 2333 C 228.679 0.990994 4.4715 0
M  V30 2334 N 230.17 0.947908 4.53397 0
M  V30 2335 C 230.905 1.28544 5.58806 0
M  V30 2336 N 230.401 1.69454 6.71757 0
M  V30 2337 N 232.194 1.20526 5.49026 0
M  V30 2338 H 224.345 1.37982 1.61477 0
M  V30 2339 H 226.608 0.566977 0.759764 0
M  V30 2340 H 226.314 1.59938 3.1323 0
M  V30 2341 H 226.188 -0.0298014 3.77188 0
M  V30 2342 H 228.575 -0.513505 2.90598 0
M  V30 2343 H 228.656 1.14272 2.28857 0
M  V30 2344 H 228.3 2.02034 4.65988 0
M  V30 2345 H 228.23 0.34257 5.25485 0
M  V30 2346 H 230.721 0.647157 3.72317 0
M  V30 2347 H 231.034 1.93513 7.48179 0
M  V30 2348 H 229.379 1.73359 6.73032 0
M  V30 2349 H 232.57 0.884505 4.59667 0
M  V30 2350 H 232.743 1.47161 6.31069 0
M  V30 2351 N 226.149 -1.5696 0.141893 0
M  V30 2352 C 227.426 -1.87553 -0.555281 0
M  V30 2353 C 227.806 -1.04699 -1.83306 0
M  V30 2354 O 227.154 -0.132346 -2.28116 0
M  V30 2355 C 227.364 -3.39093 -0.825664 0
M  V30 2356 C 228.712 -4.08199 -1.16869 0
M  V30 2357 O 229.736 -3.44242 -0.915185 0
M  V30 2358 O 228.595 -5.21139 -1.6455 0
M  V30 2359 H 225.689 -0.777188 -0.282679 0
M  V30 2360 H 228.235 -1.68763 0.17812 0
M  V30 2361 H 227.007 -3.91221 0.0788633 0
M  V30 2362 H 226.63 -3.63393 -1.61343 0
M  V30 2363 N 227.627 0.131896 -1.57047 0
M  V30 2364 C 229.038 0.690407 -1.73465 0
M  V30 2365 C 229.389 1.8094 -0.758629 0
M  V30 2366 O 228.514 2.16282 0.0713813 0
M  V30 2367 C 229.109 1.25916 -3.14532 0
M  V30 2368 C 227.668 1.76409 -3.32501 0
M  V30 2369 C 226.815 0.658579 -2.69366 0
M  V30 2370 H 229.766 -0.0939144 -1.58422 0
M  V30 2371 H 229.787 2.12892 -3.15369 0
M  V30 2372 H 229.299 0.444515 -3.85546 0
M  V30 2373 H 227.4 2.60391 -2.66509 0
M  V30 2374 H 227.513 1.88241 -4.4057 0
M  V30 2375 H 225.877 1.08899 -2.30246 0
M  V30 2376 H 226.66 -0.14487 -3.42994 0
M  V30 2377 N 229.106 1.52395 0.401703 0
M  V30 2378 C 230.069 1.75636 1.47257 0
M  V30 2379 C 231.069 0.62628 1.48103 0
M  V30 2380 O 232.259 0.894227 1.49497 0
M  V30 2381 C 229.391 1.84553 2.86624 0
M  V30 2382 H 230.584 2.71241 1.27938 0
M  V30 2383 H 228.137 1.42923 0.632662 0
M  V30 2384 H 228.872 0.908882 3.11303 0
M  V30 2385 H 228.657 2.66715 2.87412 0
M  V30 2386 H 230.147 2.04251 3.64241 0
M  V30 2387 N 230.584 -0.659388 1.43143 0
M  V30 2388 C 231.83 -1.42145 1.44647 0
M  V30 2389 C 232.163 -1.9408 0.0681907 0
M  V30 2390 O 231.438 -1.71899 -0.910007 0
M  V30 2391 C 231.721 -2.60735 2.48373 0
M  V30 2392 C 231.574 -2.14332 3.95451 0
M  V30 2393 C 232.893 -3.62951 2.48906 0
M  V30 2394 H 230.012 -0.51552 0.526696 0
M  V30 2395 H 232.654 -0.748069 1.74654 0
M  V30 2396 H 230.804 -3.18184 2.22916 0
M  V30 2397 H 232.476 -1.61932 4.31944 0
M  V30 2398 H 230.719 -1.4576 4.08578 0
M  V30 2399 H 231.39 -2.99583 4.63631 0
M  V30 2400 H 233.866 -3.1525 2.71582 0
M  V30 2401 H 232.742 -4.43487 3.23435 0
M  V30 2402 H 233.003 -4.15126 1.52061 0
M  V30 2403 N 232.062 -1.29571 -0.897171 0
M  V30 2404 C 233.309 -1.17689 -1.6479 0
M  V30 2405 C 233.637 0.27107 -1.92602 0
M  V30 2406 O 232.892 1.21193 -1.53658 0
M  V30 2407 C 233.191 -1.9382 -3.00281 0
M  V30 2408 C 232.857 -3.43522 -2.92068 0
M  V30 2409 C 231.519 -3.84348 -2.89535 0
M  V30 2410 C 233.871 -4.38906 -2.81089 0
M  V30 2411 C 231.199 -5.18869 -2.73846 0
M  V30 2412 C 233.551 -5.73521 -2.66939 0
M  V30 2413 C 232.215 -6.13601 -2.62774 0
M  V30 2414 H 231.485 -0.430654 -0.603008 0
M  V30 2415 H 234.132 -1.60536 -1.04404 0
M  V30 2416 H 232.437 -1.4357 -3.64547 0
M  V30 2417 H 234.134 -1.82028 -3.57305 0
M  V30 2418 H 230.724 -3.11072 -2.94842 0
M  V30 2419 H 234.908 -4.08315 -2.82121 0
M  V30 2420 H 230.164 -5.4903 -2.69027 0
M  V30 2421 H 234.338 -6.47078 -2.57416 0
M  V30 2422 H 231.965 -7.17786 -2.50375 0
M  V30 2423 N 233.54 1.10788 -1.12088 0
M  V30 2424 C 234.472 2.16816 -0.743213 0
M  V30 2425 C 235.485 1.6119 0.228412 0
M  V30 2426 O 236.674 1.78497 0.0102931 0
M  V30 2427 C 233.774 3.38809 -0.0787313 0
M  V30 2428 C 232.947 4.23885 -1.0789 0
M  V30 2429 C 232.006 5.24334 -0.442713 0
M  V30 2430 O 231.032 5.58497 -1.09864 0
M  V30 2431 N 232.234 5.75079 0.791457 0
M  V30 2432 H 234.999 2.49825 -1.65552 0
M  V30 2433 H 232.56 1.26373 -1.012 0
M  V30 2434 H 234.552 4.03107 0.358766 0
M  V30 2435 H 233.122 3.03805 0.736275 0
M  V30 2436 H 232.342 3.55939 -1.69414 0
M  V30 2437 H 233.63 4.77562 -1.75533 0
M  V30 2438 H 233.028 5.49517 1.3434 0
M  V30 2439 H 231.585 6.4118 1.17183 0
M  V30 2440 N 235.018 0.912232 1.28515 0
M  V30 2441 C 235.948 0.416403 2.29757 0
M  V30 2442 C 236.929 -0.515194 1.6211 0
M  V30 2443 O 238.114 -0.423253 1.89532 0
M  V30 2444 C 235.244 -0.34572 3.45575 0
M  V30 2445 C 234.198 0.496599 4.25109 0
M  V30 2446 C 233.524 -0.393771 5.33248 0
M  V30 2447 C 234.824 1.75307 4.92001 0
M  V30 2448 H 236.518 1.26249 2.7148 0
M  V30 2449 H 234.064 0.608515 1.30511 0
M  V30 2450 H 236.017 -0.703422 4.15488 0
M  V30 2451 H 234.741 -1.2257 3.02728 0
M  V30 2452 H 233.4 0.8368 3.56922 0
M  V30 2453 H 233.048 -1.27225 4.86644 0
M  V30 2454 H 232.748 0.166209 5.87365 0
M  V30 2455 H 234.272 -0.747389 6.06009 0
M  V30 2456 H 235.686 1.46437 5.54283 0
M  V30 2457 H 234.083 2.25534 5.56106 0
M  V30 2458 H 235.153 2.48176 4.16577 0
M  V30 2459 N 236.496 -1.42363 0.676048 0
M  V30 2460 C 237.742 -2.0182 0.199125 0
M  V30 2461 C 238.075 -1.53339 -1.19168 0
M  V30 2462 O 237.35 -0.736124 -1.80032 0
M  V30 2463 C 237.633 -3.59331 0.235144 0
M  V30 2464 C 237.486 -4.17989 1.66149 0
M  V30 2465 C 238.805 -4.3813 -0.41595 0
M  V30 2466 H 235.924 -0.733293 0.0738311 0
M  V30 2467 H 238.566 -1.69368 0.86107 0
M  V30 2468 H 236.716 -3.87109 -0.328487 0
M  V30 2469 H 238.388 -4.0116 2.27747 0
M  V30 2470 H 236.631 -3.7377 2.20178 0
M  V30 2471 H 237.302 -5.27126 1.63837 0
M  V30 2472 H 239.778 -4.16051 0.0638529 0
M  V30 2473 H 238.654 -5.47717 -0.360115 0
M  V30 2474 H 238.915 -4.16101 -1.49373 0
M  V30 2475 N 237.974 -0.419461 -1.51915 0
M  V30 2476 C 239.204 0.151915 -2.06041 0
M  V30 2477 C 239.612 1.38539 -1.28855 0
M  V30 2478 O 238.955 1.80592 -0.336463 0
M  V30 2479 C 239.017 0.557119 -3.55157 0
M  V30 2480 C 238.681 -0.567054 -4.53468 0
M  V30 2481 C 239.678 -1.43379 -4.99738 0
M  V30 2482 C 237.363 -0.742693 -4.96779 0
M  V30 2483 C 239.357 -2.46102 -5.87973 0
M  V30 2484 C 237.044 -1.77322 -5.84808 0
M  V30 2485 C 238.042 -2.63078 -6.30301 0
M  V30 2486 O 237.73 -3.64364 -7.16585 0
M  V30 2487 H 237.462 0.0193293 -0.675724 0
M  V30 2488 H 240.016 -0.592073 -1.96682 0
M  V30 2489 H 238.246 1.35355 -3.62238 0
M  V30 2490 H 239.935 1.05759 -3.9188 0
M  V30 2491 H 240.701 -1.30954 -4.66986 0
M  V30 2492 H 236.58 -0.0848307 -4.60922 0
M  V30 2493 H 240.124 -3.13071 -6.23404 0
M  V30 2494 H 236.021 -1.89773 -6.16974 0
M  V30 2495 H 236.789 -3.60731 -7.34721 0
M  V30 2496 N 239.452 1.56882 -0.150215 0
M  V30 2497 C 240.4 2.18214 0.805313 0
M  V30 2498 C 241.394 1.14006 1.25296 0
M  V30 2499 O 242.6 1.3225 1.22107 0
M  V30 2500 H 238.975 0.698762 0.277913 0
M  V30 2501 H 240.946 2.97231 0.263862 0
M  V30 2502 C 239.695 2.82065 2.03309 0
M  V30 2503 H 239.018 3.61968 1.69763 0
M  V30 2504 H 240.458 3.28477 2.68103 0
M  V30 2505 C 238.917 1.80739 2.84315 0
M  V30 2506 O 239.447 1.27983 3.80767 0
M  V30 2507 N 237.653 1.4997 2.48913 0
M  V30 2508 H 237.2 1.93062 1.70542 0
M  V30 2509 H 237.158 0.824217 3.03404 0
M  V30 2510 N 240.93 -0.123565 1.57115 0
M  V30 2511 C 242.177 -0.832153 1.84612 0
M  V30 2512 C 242.505 -1.80093 0.734627 0
M  V30 2513 O 241.76 -1.93766 -0.27442 0
M  V30 2514 C 242.059 -1.62016 3.18568 0
M  V30 2515 C 241.725 -0.796084 4.43817 0
M  V30 2516 C 240.387 -0.568816 4.77826 0
M  V30 2517 C 242.739 -0.221364 5.2073 0
M  V30 2518 C 240.067 0.243499 5.86194 0
M  V30 2519 C 242.419 0.578117 6.29953 0
M  V30 2520 C 241.083 0.815744 6.62497 0
M  V30 2521 H 240.353 -0.304507 0.675542 0
M  V30 2522 H 243 -0.0947248 1.91266 0
M  V30 2523 H 241.305 -2.42837 3.0747 0
M  V30 2524 H 243.002 -2.17231 3.37064 0
M  V30 2525 H 239.592 -0.983307 4.17168 0
M  V30 2526 H 243.776 -0.384173 4.94811 0
M  V30 2527 H 239.032 0.436871 6.09837 0
M  V30 2528 H 243.206 1.03046 6.88734 0
M  V30 2529 H 240.833 1.44701 7.46301 0
M  V30 2530 N 242.408 -1.52605 -0.393616 0
M  V30 2531 C 243.638 -1.71046 -1.15874 0
M  V30 2532 C 244.046 -0.426483 -1.84331 0
M  V30 2533 O 243.389 0.608513 -1.73329 0
M  V30 2534 C 243.451 -2.80118 -2.25332 0
M  V30 2535 C 243.115 -4.21381 -1.76881 0
M  V30 2536 C 244.112 -5.04697 -1.24808 0
M  V30 2537 C 241.797 -4.67683 -1.83244 0
M  V30 2538 C 243.791 -6.32393 -0.797387 0
M  V30 2539 C 241.478 -5.95364 -1.37787 0
M  V30 2540 C 242.476 -6.77549 -0.861208 0
M  V30 2541 O 242.164 -8.02837 -0.413252 0
M  V30 2542 H 241.896 -0.576155 -0.353583 0
M  V30 2543 H 244.45 -2.00018 -0.467123 0
M  V30 2544 H 242.68 -2.46557 -2.97904 0
M  V30 2545 H 244.369 -2.87006 -2.87023 0
M  V30 2546 H 245.135 -4.70111 -1.19252 0
M  V30 2547 H 241.014 -4.03805 -2.22401 0
M  V30 2548 H 244.558 -6.9649 -0.393437 0
M  V30 2549 H 240.455 -6.29455 -1.43026 0
M  V30 2550 H 241.223 -8.16749 -0.53515 0
M  V30 2551 N 243.887 0.651787 -1.4349 0
M  V30 2552 C 244.817 1.77621 -1.51569 0
M  V30 2553 C 245.798 1.66022 -0.370253 0
M  V30 2554 O 246.983 1.85095 -0.587658 0
M  V30 2555 C 244.113 3.16056 -1.43966 0
M  V30 2556 C 243.067 3.4242 -2.56774 0
M  V30 2557 C 242.393 4.8067 -2.34223 0
M  V30 2558 C 243.693 3.37023 -3.99015 0
M  V30 2559 H 245.387 1.71117 -2.45681 0
M  V30 2560 H 242.933 0.821825 -1.18246 0
M  V30 2561 H 244.886 3.94472 -1.48221 0
M  V30 2562 H 243.61 3.23293 -0.463586 0
M  V30 2563 H 242.269 2.66375 -2.51873 0
M  V30 2564 H 241.917 4.84585 -1.34856 0
M  V30 2565 H 241.617 4.9927 -3.09844 0
M  V30 2566 H 243.141 5.61342 -2.40265 0
M  V30 2567 H 244.555 4.05374 -4.05395 0
M  V30 2568 H 242.952 3.67159 -4.74673 0
M  V30 2569 H 244.022 2.3518 -4.2405 0
M  V30 2570 N 245.365 1.30045 0.890287 0
M  V30 2571 C 246.59 1.21598 1.68014 0
M  V30 2572 C 247.015 -0.218678 1.86825 0
M  V30 2573 O 246.373 -1.15756 1.39536 0
M  V30 2574 C 246.421 1.94434 3.03691 0
M  V30 2575 O 245.525 1.2678 3.92429 0
M  V30 2576 H 244.866 0.420856 0.513592 0
M  V30 2577 H 247.396 1.71775 1.11151 0
M  V30 2578 H 247.406 2.03251 3.5377 0
M  V30 2579 H 246.081 2.98777 2.89318 0
M  V30 2580 H 244.658 1.26282 3.50866 0
M  V30 2581 N 246.843 -1.10192 1.12674 0
M  V30 2582 C 248.091 -1.81845 0.881861 0
M  V30 2583 C 248.412 -1.85737 -0.593867 0
M  V30 2584 O 247.682 -1.33724 -1.4316 0
M  V30 2585 H 246.262 -0.673432 0.323261 0
M  V30 2586 H 248.924 -1.33316 1.42172 0
M  V30 2587 H 248.02 -2.85288 1.2656 0
M  V30 2588 N 248.321 -0.919034 -1.28029 0
M  V30 2589 C 249.567 -0.555757 -1.95036 0
M  V30 2590 C 249.9 0.899198 -1.72128 0
M  V30 2591 O 249.175 1.64023 -1.04531 0
M  V30 2592 C 249.458 -0.872024 -3.49382 0
M  V30 2593 C 249.311 -2.3801 -3.81669 0
M  V30 2594 C 250.63 -0.37185 -4.38526 0
M  V30 2595 H 247.749 -0.203386 -0.708381 0
M  V30 2596 H 250.391 -1.14924 -1.51303 0
M  V30 2597 H 248.541 -0.366946 -3.86763 0
M  V30 2598 H 250.213 -2.9562 -3.54128 0
M  V30 2599 H 248.456 -2.83289 -3.28526 0
M  V30 2600 H 249.127 -2.55192 -4.8947 0
M  V30 2601 H 251.603 -0.804602 -4.08247 0
M  V30 2602 H 250.479 -0.622173 -5.45362 0
M  V30 2603 H 250.74 0.727934 -4.36066 0
M  V30 2604 N 249.799 1.42003 -0.683588 0
M  V30 2605 C 250.729 2.33487 -0.024866 0
M  V30 2606 C 251.71 1.51163 0.779975 0
M  V30 2607 O 252.895 1.79739 0.735362 0
M  V30 2608 C 250.025 3.3487 0.920836 0
M  V30 2609 C 248.979 4.27414 0.223958 0
M  V30 2610 C 248.305 5.19074 1.2832 0
M  V30 2611 C 249.605 5.14445 -0.90242 0
M  V30 2612 H 251.299 2.88819 -0.788921 0
M  V30 2613 H 248.845 1.38873 -0.38083 0
M  V30 2614 H 250.798 3.97787 1.39081 0
M  V30 2615 H 249.522 2.77861 1.71642 0
M  V30 2616 H 248.181 3.65904 -0.225864 0
M  V30 2617 H 247.829 4.58387 2.071 0
M  V30 2618 H 247.529 5.81822 0.821995 0
M  V30 2619 H 249.053 5.84867 1.75392 0
M  V30 2620 H 250.467 5.70998 -0.513272 0
M  V30 2621 H 248.864 5.86072 -1.28997 0
M  V30 2622 H 249.934 4.52322 -1.74737 0
M  V30 2623 N 251.277 0.427512 1.51691 0
M  V30 2624 C 252.207 -0.3796 2.30394 0
M  V30 2625 C 253.188 -1.02982 1.35384 0
M  V30 2626 O 254.373 -1.03534 1.643 0
M  V30 2627 C 251.503 -1.48649 3.1388 0
M  V30 2628 C 250.457 -0.960294 4.17088 0
M  V30 2629 C 249.783 -2.16219 4.89033 0
M  V30 2630 C 251.083 -0.00153679 5.223 0
M  V30 2631 H 252.777 0.277164 2.98114 0
M  V30 2632 H 250.323 0.134739 1.43368 0
M  V30 2633 H 252.276 -2.05826 3.67714 0
M  V30 2634 H 251 -2.1714 2.43962 0
M  V30 2635 H 249.659 -0.410806 3.64291 0
M  V30 2636 H 249.307 -2.83307 4.15628 0
M  V30 2637 H 249.007 -1.81654 5.58816 0
M  V30 2638 H 250.531 -2.73968 5.45687 0
M  V30 2639 H 251.945 -0.482687 5.71264 0
M  V30 2640 H 250.342 0.256199 5.99553 0
M  V30 2641 H 251.412 0.938174 4.75738 0
M  V30 2642 N 252.755 -1.56801 0.158532 0
M  V30 2643 C 254.001 -1.96781 -0.490405 0
M  V30 2644 C 254.334 -1.04397 -1.63753 0
M  V30 2645 O 253.609 -0.0885805 -1.94298 0
M  V30 2646 C 253.892 -3.4635 -0.985594 0
M  V30 2647 C 253.745 -4.49512 0.160824 0
M  V30 2648 C 255.064 -3.98697 -1.86355 0
M  V30 2649 H 252.183 -0.715482 -0.176788 0
M  V30 2650 H 254.825 -1.88451 0.242088 0
M  V30 2651 H 252.975 -3.53579 -1.60978 0
M  V30 2652 H 254.647 -4.54353 0.797537 0
M  V30 2653 H 252.89 -4.26013 0.818256 0
M  V30 2654 H 253.561 -5.51531 -0.227569 0
M  V30 2655 H 256.037 -3.94019 -1.33746 0
M  V30 2656 H 254.913 -5.03792 -2.17909 0
M  V30 2657 H 255.174 -3.41744 -2.8047 0
M  V30 2658 N 254.233 0.115231 -1.57178 0
M  V30 2659 C 255.163 1.1423 -2.03651 0
M  V30 2660 C 256.144 1.42967 -0.921655 0
M  V30 2661 O 257.329 1.53343 -1.19162 0
M  V30 2662 C 254.459 2.4675 -2.44401 0
M  V30 2663 C 253.413 2.32467 -3.59365 0
M  V30 2664 C 252.739 3.69984 -3.86026 0
M  V30 2665 C 254.039 1.78203 -4.90959 0
M  V30 2666 H 255.733 0.755749 -2.89705 0
M  V30 2667 H 253.279 0.362093 -1.39373 0
M  V30 2668 H 255.232 3.18854 -2.75517 0
M  V30 2669 H 253.956 2.87302 -1.55322 0
M  V30 2670 H 252.615 1.62811 -3.28463 0
M  V30 2671 H 252.263 4.08028 -2.94147 0
M  V30 2672 H 251.963 3.61279 -4.63412 0
M  V30 2673 H 253.487 4.43587 -4.19599 0
M  V30 2674 H 254.901 2.40128 -5.20587 0
M  V30 2675 H 253.298 1.8031 -5.72371 0
M  V30 2676 H 254.368 0.739876 -4.79222 0
M  V30 2677 N 255.711 1.52812 0.385517 0
M  V30 2678 C 256.988 1.5861 1.14465 0
M  V30 2679 C 257.368 0.381402 2.07626 0
M  V30 2680 O 256.716 -0.629999 2.19643 0
M  V30 2681 C 256.926 2.92664 1.90128 0
M  V30 2682 C 258.274 3.46526 2.45367 0
M  V30 2683 O 259.298 2.94562 2.0028 0
M  V30 2684 O 258.157 4.37323 3.27736 0
M  V30 2685 H 255.251 0.639855 0.523941 0
M  V30 2686 H 257.797 1.65149 0.390389 0
M  V30 2687 H 256.569 3.71788 1.22022 0
M  V30 2688 H 256.192 2.89527 2.72507 0
M  V30 2689 N 257.189 -0.644168 1.43834 0
M  V30 2690 C 258.437 -1.40117 1.45642 0
M  V30 2691 C 258.758 -1.94814 0.0852413 0
M  V30 2692 O 258.028 -1.74988 -0.880688 0
M  V30 2693 H 256.608 -0.52005 0.536243 0
M  V30 2694 H 259.27 -0.7591 1.7951 0
M  V30 2695 H 258.366 -2.23902 2.17427 0
M  V30 2696 N 258.668 -1.30515 -0.883378 0
M  V30 2697 C 259.598 -1.19607 -2.00541 0
M  V30 2698 C 260.579 -0.086346 -1.69881 0
M  V30 2699 O 261.764 -0.268654 -1.92333 0
M  V30 2700 C 258.894 -0.888758 -3.35736 0
M  V30 2701 C 257.848 -1.95659 -3.8066 0
M  V30 2702 C 257.174 -1.50224 -5.13164 0
M  V30 2703 C 258.474 -3.36788 -3.99213 0
M  V30 2704 H 260.168 -2.13476 -2.09925 0
M  V30 2705 H 257.714 -1.02775 -1.00863 0
M  V30 2706 H 259.667 -0.799094 -4.13754 0
M  V30 2707 H 258.391 0.0856125 -3.26488 0
M  V30 2708 H 257.05 -2.03591 -3.04871 0
M  V30 2709 H 256.698 -0.516092 -5.00345 0
M  V30 2710 H 256.398 -2.2165 -5.44192 0
M  V30 2711 H 257.922 -1.42639 -5.93706 0
M  V30 2712 H 259.336 -3.31605 -4.67665 0
M  V30 2713 H 257.733 -4.06314 -4.41621 0
M  V30 2714 H 258.803 -3.78561 -3.03017 0
M  V30 2715 N 260.146 1.09593 -1.13257 0
M  V30 2716 C 261.386 1.83349 -0.903472 0
M  V30 2717 C 261.75 1.83641 0.560351 0
M  V30 2718 O 262.951 2.53037 0.906947 0
M  V30 2719 C 261.222 3.25629 -1.47311 0
M  V30 2720 S 262.781 4.16408 -1.38382 0
M  V30 2721 H 259.599 0.632014 -0.325699 0
M  V30 2722 H 262.201 1.31817 -1.44376 0
M  V30 2723 H 260.905 3.22991 -2.53189 0
M  V30 2724 H 260.436 3.82233 -0.930689 0
M  V30 2725 H 262.451 4.94884 -0.361113 0
M  V30 2726 N 261.624 0.925811 1.2754 0
M  V30 2727 C 263.035 0.610102 1.7645 0
M  V30 2728 C 263.386 -0.874723 1.75622 0
M  V30 2729 O 262.511 -1.68444 1.35851 0
M  V30 2730 C 263.106 1.10073 3.20421 0
M  V30 2731 C 261.665 0.835723 3.67005 0
M  V30 2732 C 260.812 1.26054 2.46993 0
M  V30 2733 H 263.763 1.10579 1.13833 0
M  V30 2734 H 263.784 0.447557 3.77859 0
M  V30 2735 H 263.296 2.18143 3.20991 0
M  V30 2736 H 261.397 -0.231249 3.71882 0
M  V30 2737 H 261.51 1.45193 4.56569 0
M  V30 2738 H 259.874 0.679111 2.45479 0
M  V30 2739 H 260.657 2.34984 2.50275 0
M  V30 2740 N 263.102 -1.41638 0.69111 0
M  V30 2741 C 264.518 -1.55435 0.362224 0
M  V30 2742 C 264.718 -1.66754 -1.13117 0
M  V30 2743 O 263.774 -1.64348 -1.91692 0
M  V30 2744 C 265.087 -2.79588 1.10684 0
M  V30 2745 C 266.635 -2.9338 1.09075 0
M  V30 2746 C 267.11 -4.20414 1.81703 0
M  V30 2747 N 268.601 -4.27362 1.7865 0
M  V30 2748 C 269.336 -5.24507 2.31689 0
M  V30 2749 N 268.832 -6.27708 2.93179 0
M  V30 2750 N 270.625 -5.16416 2.2197 0
M  V30 2751 H 262.776 -1.32536 1.65976 0
M  V30 2752 H 265.039 -0.639115 0.700168 0
M  V30 2753 H 264.745 -2.77419 2.16175 0
M  V30 2754 H 264.619 -3.70973 0.682545 0
M  V30 2755 H 267.006 -2.95067 0.0441238 0
M  V30 2756 H 267.087 -2.0318 1.55407 0
M  V30 2757 H 266.731 -4.19488 2.86343 0
M  V30 2758 H 266.661 -5.09578 1.32808 0
M  V30 2759 H 269.152 -3.53415 1.33815 0
M  V30 2760 H 269.465 -6.98217 3.31229 0
M  V30 2761 H 267.81 -6.28223 2.97255 0
M  V30 2762 H 271.001 -4.34716 1.73607 0
M  V30 2763 H 271.174 -5.91958 2.63609 0
M  V30 2764 N 264.58 -0.43555 -1.51462 0
M  V30 2765 C 265.996 -0.0877501 -1.59359 0
M  V30 2766 C 266.196 1.4027 -1.4466 0
M  V30 2767 O 265.252 2.17243 -1.28693 0
M  V30 2768 C 266.565 -0.606264 -2.94525 0
M  V30 2769 C 268.113 -0.566548 -3.0783 0
M  V30 2770 C 268.588 -1.06201 -4.45517 0
M  V30 2771 N 270.079 -1.01992 -4.51832 0
M  V30 2772 C 270.814 -1.37417 -5.5669 0
M  V30 2773 N 270.31 -1.80119 -6.68976 0
M  V30 2774 N 272.103 -1.29245 -5.47039 0
M  V30 2775 H 264.254 -1.40533 -1.59261 0
M  V30 2776 H 266.517 -0.578992 -0.750648 0
M  V30 2777 H 266.223 -1.64901 -3.10645 0
M  V30 2778 H 266.097 -0.0302097 -3.77188 0
M  V30 2779 H 268.484 0.467208 -2.91378 0
M  V30 2780 H 268.565 -1.17898 -2.2701 0
M  V30 2781 H 268.209 -2.09422 -4.62715 0
M  V30 2782 H 268.139 -0.426127 -5.24873 0
M  V30 2783 H 270.63 -0.706308 -3.71241 0
M  V30 2784 H 270.943 -2.05392 -7.45006 0
M  V30 2785 H 269.288 -1.84044 -6.70189 0
M  V30 2786 H 272.479 -0.957522 -4.58202 0
M  V30 2787 H 272.652 -1.57182 -6.28648 0
M  V30 2788 N 266.058 1.56714 -0.166846 0
M  V30 2789 C 267.305 1.96747 0.479252 0
M  V30 2790 C 267.633 1.05263 1.63554 0
M  V30 2791 O 266.888 0.0858098 1.95512 0
M  V30 2792 C 267.187 3.42889 1.00806 0
M  V30 2793 C 266.853 4.50889 -0.0318574 0
M  V30 2794 C 265.515 4.8015 -0.317675 0
M  V30 2795 C 267.867 5.15949 -0.737956 0
M  V30 2796 C 265.195 5.71772 -1.31506 0
M  V30 2797 C 267.547 6.08647 -1.72429 0
M  V30 2798 C 266.211 6.36277 -2.0176 0
M  V30 2799 H 265.481 0.719949 0.175371 0
M  V30 2800 H 268.128 1.89756 -0.257864 0
M  V30 2801 H 266.433 3.4681 1.82291 0
M  V30 2802 H 268.13 3.71203 1.51689 0
M  V30 2803 H 264.72 4.28128 0.201088 0
M  V30 2804 H 268.904 4.93458 -0.530351 0
M  V30 2805 H 264.16 5.91465 -1.54853 0
M  V30 2806 H 268.334 6.58129 -2.27682 0
M  V30 2807 H 265.961 7.07075 -2.79194 0
M  V30 2808 N 267.536 -0.106894 1.57237 0
M  V30 2809 C 268.466 -1.13148 2.04254 0
M  V30 2810 C 269.447 -1.42476 0.929224 0
M  V30 2811 O 270.632 -1.52709 1.19973 0
M  V30 2812 C 267.762 -2.4545 2.45706 0
M  V30 2813 C 266.716 -2.30558 3.60592 0
M  V30 2814 C 266.042 -3.67931 3.87983 0
M  V30 2815 C 267.342 -1.75597 4.91897 0
M  V30 2816 H 269.036 -0.740374 2.90101 0
M  V30 2817 H 266.582 -0.354696 1.39563 0
M  V30 2818 H 268.535 -3.17389 2.77205 0
M  V30 2819 H 267.259 -2.86475 1.56843 0
M  V30 2820 H 265.918 -1.61067 3.29322 0
M  V30 2821 H 265.566 -4.06462 2.96306 0
M  V30 2822 H 265.266 -3.58817 4.65322 0
M  V30 2823 H 266.79 -4.41356 4.21945 0
M  V30 2824 H 268.204 -2.37364 5.21854 0
M  V30 2825 H 266.601 -1.77272 5.73319 0
M  V30 2826 H 267.671 -0.714451 4.79608 0
M  V30 2827 N 269.014 -1.53014 -0.377408 0
M  V30 2828 C 269.924 -1.81557 -1.48574 0
M  V30 2829 C 270.94 -0.703102 -1.59162 0
M  V30 2830 O 272.116 -0.99192 -1.75279 0
M  V30 2831 C 269.181 -1.9889 -2.83978 0
M  V30 2832 C 268.242 -3.22801 -2.83016 0
M  V30 2833 C 267.475 -3.39298 -4.11962 0
M  V30 2834 O 267.698 -2.60345 -5.0752 0
M  V30 2835 O 266.632 -4.32604 -4.18494 0
M  V30 2836 H 270.458 -2.75695 -1.27382 0
M  V30 2837 H 268.043 -1.38248 -0.566373 0
M  V30 2838 H 269.925 -2.11931 -3.6423 0
M  V30 2839 H 268.6 -1.07942 -3.05172 0
M  V30 2840 H 267.507 -3.15193 -2.01505 0
M  V30 2841 H 268.84 -4.13632 -2.66775 0
M  V30 2842 N 270.492 0.636531 -1.44174 0
M  V30 2843 C 271.402 1.77754 -1.53103 0
M  V30 2844 C 272.418 1.68928 -0.417034 0
M  V30 2845 O 273.594 1.89801 -0.6736 0
M  V30 2846 C 270.659 3.14115 -1.46741 0
M  V30 2847 C 269.72 3.34612 -2.68948 0
M  V30 2848 C 268.953 4.64467 -2.6288 0
M  V30 2849 O 269.176 5.44919 -1.68581 0
M  V30 2850 O 268.11 4.87049 -3.53648 0
M  V30 2851 H 271.936 1.73174 -2.49489 0
M  V30 2852 H 269.521 0.79709 -1.2636 0
M  V30 2853 H 271.403 3.95412 -1.45696 0
M  V30 2854 H 270.078 3.19249 -0.534975 0
M  V30 2855 H 268.985 2.53014 -2.75562 0
M  V30 2856 H 270.318 3.34336 -3.61221 0
M  V30 2857 N 271.97 1.30982 0.876444 0
M  V30 2858 C 272.9 1.20668 1.99903 0
M  V30 2859 C 273.881 0.095354 1.69833 0
M  V30 2860 O 275.066 0.27885 1.92188 0
M  V30 2861 C 272.196 0.90655 3.3526 0
M  V30 2862 C 271.15 1.97675 3.79617 0
M  V30 2863 C 270.476 1.52943 5.1236 0
M  V30 2864 C 271.776 3.389 3.97422 0
M  V30 2865 H 273.47 2.14586 2.0879 0
M  V30 2866 H 271.016 1.03308 1.00317 0
M  V30 2867 H 272.969 0.821025 4.13324 0
M  V30 2868 H 271.693 -0.0682969 3.26529 0
M  V30 2869 H 270.352 2.05205 3.03787 0
M  V30 2870 H 270 0.54262 5.00065 0
M  V30 2871 H 269.7 2.24532 5.43009 0
M  V30 2872 H 271.224 1.45786 5.92941 0
M  V30 2873 H 272.638 3.34081 4.659 0
M  V30 2874 H 271.035 4.0865 4.3946 0
M  V30 2875 H 272.105 3.80163 3.01006 0
M  V30 2876 N 273.449 -1.08991 1.13837 0
M  V30 2877 C 274.697 -1.80899 0.901098 0
M  V30 2878 C 275.018 -1.86356 -0.574134 0
M  V30 2879 O 274.288 -1.35235 -1.41733 0
M  V30 2880 H 272.868 -0.669966 0.330386 0
M  V30 2881 H 275.53 -1.318 1.43578 0
M  V30 2882 H 274.626 -2.83929 1.29578 0
M  V30 2883 N 274.927 -0.932562 -1.27047 0
M  V30 2884 C 276.157 -0.591173 -1.97961 0
M  V30 2885 C 276.565 0.836219 -1.69717 0
M  V30 2886 O 275.908 1.56801 -0.957036 0
M  V30 2887 C 275.97 -0.743082 -3.51736 0
M  V30 2888 C 275.634 -2.1435 -4.03613 0
M  V30 2889 C 276.631 -3.11815 -4.16014 0
M  V30 2890 C 274.316 -2.46175 -4.37839 0
M  V30 2891 C 276.31 -4.39211 -4.61923 0
M  V30 2892 C 273.997 -3.73806 -4.83438 0
M  V30 2893 C 274.995 -4.70137 -4.95439 0
M  V30 2894 O 274.683 -5.95496 -5.40037 0
M  V30 2895 H 274.415 -0.222375 -0.638377 0
M  V30 2896 H 276.969 -1.25317 -1.62742 0
M  V30 2897 H 275.199 -0.0239739 -3.86693 0
M  V30 2898 H 276.888 -0.40603 -4.03864 0
M  V30 2899 H 277.654 -2.88549 -3.89826 0
M  V30 2900 H 273.533 -1.71936 -4.27737 0
M  V30 2901 H 277.077 -5.14404 -4.71205 0
M  V30 2902 H 272.974 -3.96888 -5.09068 0
M  V30 2903 H 273.742 -5.98554 -5.58279 0
M  V30 2904 N 276.405 1.4127 -0.698611 0
M  V30 2905 C 277.651 2.01979 -0.239972 0
M  V30 2906 C 278.006 1.54353 1.14861 0
M  V30 2907 O 277.299 0.746218 1.76471 0
M  V30 2908 C 277.493 3.56592 -0.240192 0
M  V30 2909 C 277.322 4.19226 -1.62726 0
M  V30 2910 C 276.092 4.53389 -2.23084 0
M  V30 2911 C 278.29 4.45228 -2.57443 0
M  V30 2912 N 276.272 5.01327 -3.54323 0
M  V30 2913 C 277.643 4.94973 -3.73365 0
M  V30 2914 C 279.698 4.27243 -2.55671 0
M  V30 2915 C 278.401 5.28624 -4.878 0
M  V30 2916 C 280.427 4.61985 -3.69221 0
M  V30 2917 C 279.789 5.11904 -4.83873 0
M  V30 2918 H 275.888 0.770561 -0.133269 0
M  V30 2919 H 278.472 1.71767 -0.916748 0
M  V30 2920 H 276.643 3.86271 0.406082 0
M  V30 2921 H 278.375 4.04025 0.23356 0
M  V30 2922 H 275.13 4.39946 -1.75341 0
M  V30 2923 H 275.554 5.29697 -4.21604 0
M  V30 2924 H 280.196 3.87884 -1.68243 0
M  V30 2925 H 277.914 5.66905 -5.75885 0
M  V30 2926 H 281.5 4.49725 -3.69105 0
M  V30 2927 H 280.38 5.38282 -5.70282 0
M  V30 2928 N 277.883 0.443576 1.51229 0
M  V30 2929 C 279.131 -0.120557 2.0174 0
M  V30 2930 C 279.452 -1.42665 1.32935 0
M  V30 2931 O 278.722 -1.9028 0.465866 0
M  V30 2932 H 277.302 -0.0475426 0.745486 0
M  V30 2933 H 279.964 0.587711 1.85828 0
M  V30 2934 H 279.06 -0.291972 3.10731 0
M  V30 2935 N 279.361 -1.56624 0.175154 0
M  V30 2936 C 280.607 -1.9729 -0.469506 0
M  V30 2937 C 280.94 -1.06128 -1.62636 0
M  V30 2938 O 280.215 -0.109183 -1.94193 0
M  V30 2939 C 280.498 -3.47375 -0.948804 0
M  V30 2940 C 280.351 -4.49317 0.208491 0
M  V30 2941 C 281.67 -4.00652 -1.82116 0
M  V30 2942 H 278.789 -0.717317 -0.16919 0
M  V30 2943 H 281.431 -1.88184 0.262062 0
M  V30 2944 H 279.581 -3.55267 -1.57219 0
M  V30 2945 H 281.253 -4.53482 0.845682 0
M  V30 2946 H 279.496 -4.25121 0.863395 0
M  V30 2947 H 280.167 -5.51741 -0.169059 0
M  V30 2948 H 282.643 -3.95416 -1.2956 0
M  V30 2949 H 281.519 -5.06075 -2.12554 0
M  V30 2950 H 281.78 -3.44699 -2.7683 0
M  V30 2951 N 280.839 0.0985539 -1.57292 0
M  V30 2952 C 282.255 0.45267 -1.53046 0
M  V30 2953 C 282.455 1.80713 -0.891342 0
M  V30 2954 O 281.511 2.4785 -0.482375 0
M  V30 2955 C 282.824 0.418341 -2.97776 0
M  V30 2956 C 284.372 0.500443 -3.08973 0
M  V30 2957 C 284.847 0.496297 -4.55303 0
M  V30 2958 N 286.338 0.557151 -4.59837 0
M  V30 2959 C 287.073 0.575726 -5.70502 0
M  V30 2960 N 286.569 0.550714 -6.90608 0
M  V30 2961 N 288.362 0.620277 -5.58667 0
M  V30 2962 H 280.513 -0.788673 -1.97215 0
M  V30 2963 H 282.776 -0.293188 -0.901524 0
M  V30 2964 H 282.482 -0.509659 -3.47988 0
M  V30 2965 H 282.356 1.2386 -3.56284 0
M  V30 2966 H 284.743 1.41886 -2.58751 0
M  V30 2967 H 284.824 -0.347894 -2.53423 0
M  V30 2968 H 284.468 -0.418162 -5.06176 0
M  V30 2969 H 284.398 1.3618 -5.08687 0
M  V30 2970 H 286.889 0.581816 -3.73394 0
M  V30 2971 H 287.202 0.568075 -7.70709 0
M  V30 2972 H 285.547 0.517816 -6.93068 0
M  V30 2973 H 288.738 0.637322 -4.63741 0
M  V30 2974 H 288.911 0.631283 -6.44918 0
M  V30 2975 N 282.317 1.53212 0.369288 0
M  V30 2976 C 283.247 1.82365 1.45826 0
M  V30 2977 C 284.228 0.676907 1.56051 0
M  V30 2978 O 285.413 0.926401 1.70679 0
M  V30 2979 C 282.543 2.01023 2.83208 0
M  V30 2980 C 281.497 3.1678 2.8781 0
M  V30 2981 C 280.823 3.20724 4.27832 0
M  V30 2982 C 282.123 4.55447 2.55667 0
M  V30 2983 H 283.817 2.73559 1.21678 0
M  V30 2984 H 281.363 1.3163 0.583911 0
M  V30 2985 H 283.316 2.20001 3.59413 0
M  V30 2986 H 282.04 1.06536 3.08736 0
M  V30 2987 H 280.699 2.97616 2.14056 0
M  V30 2988 H 280.347 2.23882 4.50429 0
M  V30 2989 H 280.047 3.98496 4.31827 0
M  V30 2990 H 281.571 3.41881 5.05915 0
M  V30 2991 H 282.985 4.74611 3.21586 0
M  V30 2992 H 281.382 5.35432 2.70984 0
M  V30 2993 H 282.452 4.60812 1.5093 0
M  V30 2994 N 283.795 -0.628877 1.44509 0
M  V30 2995 C 284.742 -1.74074 1.51549 0
M  V30 2996 C 285.712 -1.62084 0.363021 0
M  V30 2997 O 286.897 -1.81975 0.573567 0
M  V30 2998 C 284.037 -3.12328 1.46784 0
M  V30 2999 C 283.15 -3.35277 2.72422 0
M  V30 3000 C 282.285 -4.63515 2.59475 0
M  V30 3001 C 281.324 -4.7965 3.80266 0
M  V30 3002 N 280.461 -5.99168 3.65981 0
M  V30 3003 H 285.301 -1.67392 2.46544 0
M  V30 3004 H 282.838 -0.816527 1.22357 0
M  V30 3005 H 284.796 -3.92286 1.42012 0
M  V30 3006 H 283.426 -3.18018 0.553544 0
M  V30 3007 H 282.478 -2.49242 2.87372 0
M  V30 3008 H 283.79 -3.43078 3.62076 0
M  V30 3009 H 282.944 -5.51638 2.52548 0
M  V30 3010 H 281.683 -4.58076 1.67384 0
M  V30 3011 H 280.688 -3.89957 3.87574 0
M  V30 3012 H 281.913 -4.86902 4.73395 0
M  V30 3013 H 279.859 -5.94814 2.76644 0
M  V30 3014 H 279.776 -6.08035 4.49254 0
M  V30 3015 H 281.044 -6.89846 3.6295 0
M  V30 3016 N 285.273 -1.31445 -0.869486 0
M  V30 3017 C 286.503 -1.23942 -1.65294 0
M  V30 3018 C 286.911 0.197561 -1.88166 0
M  V30 3019 O 286.254 1.14019 -1.44033 0
M  V30 3020 C 286.316 -1.91385 -3.04322 0
M  V30 3021 C 285.98 -3.40726 -3.04557 0
M  V30 3022 C 286.977 -4.36464 -2.82481 0
M  V30 3023 C 284.662 -3.82425 -3.25663 0
M  V30 3024 C 286.656 -5.71876 -2.8149 0
M  V30 3025 C 284.343 -5.1795 -3.243 0
M  V30 3026 C 285.341 -6.12486 -3.02241 0
M  V30 3027 O 285.029 -7.45534 -3.00724 0
M  V30 3028 H 284.761 -0.429459 -0.522054 0
M  V30 3029 H 287.315 -1.73873 -1.0935 0
M  V30 3030 H 285.545 -1.36004 -3.61994 0
M  V30 3031 H 287.234 -1.77791 -3.64891 0
M  V30 3032 H 288 -4.05576 -2.65956 0
M  V30 3033 H 283.879 -3.09274 -3.41863 0
M  V30 3034 H 287.423 -6.45638 -2.64191 0
M  V30 3035 H 283.32 -5.48473 -3.40365 0
M  V30 3036 H 284.088 -7.54713 -3.16782 0
M  V30 3037 N 286.751 1.08385 -1.14413 0
M  V30 3038 C 287.979 1.84517 -0.936001 0
M  V30 3039 C 288.394 1.81626 0.515503 0
M  V30 3040 O 287.751 1.22008 1.35721 0
M  V30 3041 C 287.802 3.32049 -1.42918 0
M  V30 3042 O 287.523 3.34951 -2.82381 0
M  V30 3043 C 289.024 4.24986 -1.26103 0
M  V30 3044 H 286.244 0.582491 -0.333084 0
M  V30 3045 H 288.788 1.36885 -1.5193 0
M  V30 3046 H 286.943 3.7707 -0.888641 0
M  V30 3047 H 287.357 4.27048 -3.04517 0
M  V30 3048 H 288.831 5.26615 -1.6547 0
M  V30 3049 H 289.308 4.38726 -0.20392 0
M  V30 3050 H 289.914 3.85791 -1.79012 0
M  V30 3051 N 288.23 0.939286 1.26551 0
M  V30 3052 C 289.641 0.628782 1.75793 0
M  V30 3053 C 289.992 -0.856046 1.7654 0
M  V30 3054 O 289.117 -1.66994 1.3763 0
M  V30 3055 C 289.712 1.13465 3.19235 0
M  V30 3056 C 288.271 0.874601 3.66098 0
M  V30 3057 C 287.418 1.28667 2.45642 0
M  V30 3058 H 290.369 1.1178 1.12654 0
M  V30 3059 H 290.39 0.487609 3.77363 0
M  V30 3060 H 289.902 2.21535 3.1866 0
M  V30 3061 H 288.003 -0.191793 3.72106 0
M  V30 3062 H 288.116 1.50028 4.55004 0
M  V30 3063 H 286.48 0.705109 2.44745 0
M  V30 3064 H 287.263 2.37625 2.47769 0
M  V30 3065 N 289.708 -1.40897 0.706093 0
M  V30 3066 C 291.124 -1.55042 0.37869 0
M  V30 3067 C 291.324 -1.67944 -1.11342 0
M  V30 3068 O 290.38 -1.66372 -1.89938 0
M  V30 3069 C 291.693 -2.78398 1.13643 0
M  V30 3070 C 293.241 -2.92206 1.12181 0
M  V30 3071 C 293.716 -4.18463 1.86152 0
M  V30 3072 N 295.207 -4.25443 1.83173 0
M  V30 3073 C 295.942 -5.2202 2.37239 0
M  V30 3074 N 295.438 -6.24563 2.99821 0
M  V30 3075 N 297.231 -5.14033 2.27435 0
M  V30 3076 H 289.382 -1.30769 1.67372 0
M  V30 3077 H 291.645 -0.631653 0.706907 0
M  V30 3078 H 291.351 -2.7511 2.19106 0
M  V30 3079 H 291.225 -3.70228 0.721853 0
M  V30 3080 H 293.612 -2.95004 0.0754171 0
M  V30 3081 H 293.693 -2.01521 1.57554 0
M  V30 3082 H 293.337 -4.16427 2.90776 0
M  V30 3083 H 293.267 -5.08141 1.38206 0
M  V30 3084 H 295.758 -3.51976 1.37556 0
M  V30 3085 H 296.071 -6.94665 3.38616 0
M  V30 3086 H 294.416 -6.25035 3.03902 0
M  V30 3087 H 297.607 -4.3285 1.78208 0
M  V30 3088 H 297.78 -5.89129 2.69873 0
M  V30 3089 N 291.186 -0.45159 -1.50991 0
M  V30 3090 C 292.426 0.109066 -2.04109 0
M  V30 3091 C 292.79 1.38716 -1.32747 0
M  V30 3092 O 293.991 2.02896 -1.76314 0
M  V30 3093 C 292.262 0.308354 -3.56067 0
M  V30 3094 S 293.821 0.830369 -4.30872 0
M  V30 3095 H 290.639 0.0251531 -0.710555 0
M  V30 3096 H 293.241 -0.614264 -1.85599 0
M  V30 3097 H 291.945 -0.627962 -4.05567 0
M  V30 3098 H 291.476 1.05836 -3.78896 0
M  V30 3099 H 293.491 2.10626 -4.49279 0
M  V30 3100 N 292.664 1.56529 -0.183458 0
M  V30 3101 C 293.904 1.99141 0.460667 0
M  V30 3102 C 294.268 1.06736 1.59597 0
M  V30 3103 O 295.469 1.38538 2.30349 0
M  V30 3104 C 293.74 3.45358 0.919939 0
M  V30 3105 S 295.299 4.09999 1.56354 0
M  V30 3106 H 292.117 0.695479 0.147748 0
M  V30 3107 H 294.719 1.93429 -0.283782 0
M  V30 3108 H 293.423 4.10315 0.0834208 0
M  V30 3109 H 292.954 3.54862 1.69814 0
M  V30 3110 H 294.969 4.06046 2.85203 0
M  V30 3111 N 294.142 -0.090211 1.57342 0
M  V30 3112 C 295.558 -0.444547 1.53284 0
M  V30 3113 C 295.758 -1.80238 0.900914 0
M  V30 3114 O 294.814 -2.4759 0.495513 0
M  V30 3115 C 296.127 -0.402543 2.97993 0
M  V30 3116 C 297.675 -0.48405 3.09234 0
M  V30 3117 C 298.15 -0.472144 4.5556 0
M  V30 3118 N 299.641 -0.532757 4.60126 0
M  V30 3119 C 300.376 -0.545462 5.708 0
M  V30 3120 N 299.872 -0.514082 6.9089 0
M  V30 3121 N 301.665 -0.59064 5.58988 0
M  V30 3122 H 293.816 0.799121 1.96794 0
M  V30 3123 H 296.079 0.297965 0.899956 0
M  V30 3124 H 295.785 0.528106 3.47712 0
M  V30 3125 H 295.659 -1.21969 3.56936 0
M  V30 3126 H 298.046 -1.40512 2.595 0
M  V30 3127 H 298.127 0.361328 2.53235 0
M  V30 3128 H 297.771 0.445 5.05947 0
M  V30 3129 H 297.701 -1.3348 5.09402 0
M  V30 3130 H 300.192 -0.562006 3.73698 0
M  V30 3131 H 300.505 -0.527195 7.71 0
M  V30 3132 H 298.85 -0.481054 6.93333 0
M  V30 3133 H 302.041 -0.61272 4.64073 0
M  V30 3134 H 302.214 -0.597073 6.45243 0
M  V30 3135 N 295.62 -1.53406 -0.361157 0
M  V30 3136 C 296.869 -1.69022 -1.10066 0
M  V30 3137 C 297.182 -0.450838 -1.90333 0
M  V30 3138 O 298.388 -0.487617 -2.67085 0
M  V30 3139 C 296.844 -2.98812 -2.00598 0
M  V30 3140 C 296.452 -4.30027 -1.25621 0
M  V30 3141 C 298.196 -3.23795 -2.74513 0
M  V30 3142 C 296.103 -5.50903 -2.1508 0
M  V30 3143 H 295.033 -0.629776 -0.414606 0
M  V30 3144 H 297.684 -1.79907 -0.361348 0
M  V30 3145 H 296.066 -2.8174 -2.78278 0
M  V30 3146 H 297.24 -4.57745 -0.529739 0
M  V30 3147 H 295.555 -4.11522 -0.635496 0
M  V30 3148 H 298.152 -4.11289 -3.41681 0
M  V30 3149 H 298.495 -2.40045 -3.40123 0
M  V30 3150 H 299.028 -3.41561 -2.03914 0
M  V30 3151 H 295.767 -6.37143 -1.54041 0
M  V30 3152 H 295.287 -5.27459 -2.85565 0
M  V30 3153 H 296.966 -5.85865 -2.74538 0
M  V30 3154 N 297.098 0.621204 -1.44841 0
M  V30 3155 C 298.338 1.39201 -1.49674 0
M  V30 3156 C 298.702 1.91561 -0.129764 0
M  V30 3157 O 299.903 2.68748 -0.0527814 0
M  V30 3158 C 298.174 2.519 -2.53537 0
M  V30 3159 S 299.733 3.39916 -2.77494 0
M  V30 3160 H 296.551 0.474758 -0.529269 0
M  V30 3161 H 299.153 0.718171 -1.81831 0
M  V30 3162 H 297.857 2.11761 -3.51547 0
M  V30 3163 H 297.388 3.241 -2.22986 0
M  V30 3164 H 299.403 4.49646 -2.0984 0
M  V30 3165 N 298.576 1.31904 0.862503 0
M  V30 3166 C 299.823 1.22017 1.61611 0
M  V30 3167 C 300.151 -0.21991 1.93253 0
M  V30 3168 O 299.406 -1.17076 1.56817 0
M  V30 3169 C 299.705 2.01713 2.95037 0
M  V30 3170 C 299.371 3.51145 2.82857 0
M  V30 3171 C 298.033 3.91889 2.79243 0
M  V30 3172 C 300.385 4.46204 2.69353 0
M  V30 3173 C 297.713 5.25947 2.59993 0
M  V30 3174 C 300.065 5.80397 2.5164 0
M  V30 3175 C 298.729 6.20352 2.46413 0
M  V30 3176 H 297.999 0.44649 0.591378 0
M  V30 3177 H 300.646 1.63248 1.00111 0
M  V30 3178 H 298.951 1.53185 3.60613 0
M  V30 3179 H 300.648 1.91437 3.52353 0
M  V30 3180 H 297.238 3.1878 2.86491 0
M  V30 3181 H 301.422 4.15652 2.71196 0
M  V30 3182 H 296.678 5.5597 2.54376 0
M  V30 3183 H 300.852 6.53676 2.40169 0
M  V30 3184 H 298.479 7.24172 2.31256 0
M  V30 3185 N 300.054 -1.07777 1.14986 0
M  V30 3186 C 300.964 -2.18404 0.856546 0
M  V30 3187 C 301.98 -1.73211 -0.165485 0
M  V30 3188 O 303.156 -2.01399 0.00755219 0
M  V30 3189 C 300.221 -3.44977 0.34526 0
M  V30 3190 C 299.282 -4.0476 1.43065 0
M  V30 3191 C 298.515 -5.25291 0.943663 0
M  V30 3192 O 298.738 -5.70004 -0.212426 0
M  V30 3193 O 297.672 -5.76638 1.72547 0
M  V30 3194 H 301.498 -2.45978 1.78125 0
M  V30 3195 H 299.083 -1.17033 0.928631 0
M  V30 3196 H 300.965 -4.21348 0.0663671 0
M  V30 3197 H 299.64 -3.18965 -0.551631 0
M  V30 3198 H 298.547 -3.29949 1.76309 0
M  V30 3199 H 299.88 -4.35035 2.30229 0
M  V30 3200 N 301.532 -0.945985 -1.26051 0
M  V30 3201 C 302.442 -0.465633 -2.29933 0
M  V30 3202 C 303.458 0.462761 -1.67733 0
M  V30 3203 O 304.634 0.341118 -1.9849 0
M  V30 3204 C 301.699 0.256994 -3.45746 0
M  V30 3205 C 300.76 -0.708549 -4.23412 0
M  V30 3206 C 299.993 -0.0203135 -5.33696 0
M  V30 3207 O 300.216 1.19571 -5.57726 0
M  V30 3208 O 299.15 -0.701459 -5.97799 0
M  V30 3209 H 302.976 -1.32866 -2.73094 0
M  V30 3210 H 300.561 -0.712071 -1.31339 0
M  V30 3211 H 302.443 0.663852 -4.16138 0
M  V30 3212 H 301.118 1.09533 -3.04605 0
M  V30 3213 H 300.025 -1.16545 -3.55483 0
M  V30 3214 H 301.358 -1.51465 -4.68315 0
M  V30 3215 N 303.011 1.40521 -0.713556 0
M  V30 3216 C 304.427 1.54839 -0.386907 0
M  V30 3217 C 304.627 1.68532 1.1045 0
M  V30 3218 O 303.683 1.67377 1.89053 0
M  V30 3219 C 304.996 2.77792 -1.15118 0
M  V30 3220 C 306.544 2.91607 -1.13729 0
M  V30 3221 C 307.019 4.1747 -1.88368 0
M  V30 3222 N 308.51 4.24466 -1.85427 0
M  V30 3223 C 309.245 5.20755 -2.40004 0
M  V30 3224 N 308.741 6.22965 -3.03129 0
M  V30 3225 N 310.534 5.1282 -2.30158 0
M  V30 3226 H 302.685 1.29879 -1.68063 0
M  V30 3227 H 304.948 0.627896 -0.710247 0
M  V30 3228 H 304.654 2.73944 -2.20561 0
M  V30 3229 H 304.528 3.6984 -0.741477 0
M  V30 3230 H 306.915 2.94959 -0.0910608 0
M  V30 3231 H 306.996 2.00682 -1.5862 0
M  V30 3232 H 306.64 4.1488 -2.9298 0
M  V30 3233 H 306.57 5.074 -1.40898 0
M  V30 3234 H 309.061 3.51241 -1.3942 0
M  V30 3235 H 309.374 6.92859 -3.42295 0
M  V30 3236 H 307.719 6.23415 -3.07212 0
M  V30 3237 H 310.91 4.31899 -1.80501 0
M  V30 3238 H 311.083 5.87689 -2.72993 0
M  V30 3239 N 304.489 0.459591 1.5075 0
M  V30 3240 C 305.905 0.113092 1.59199 0
M  V30 3241 C 306.105 -1.37951 1.46874 0
M  V30 3242 O 305.161 -2.15168 1.32132 0
M  V30 3243 C 306.474 0.653043 2.93523 0
M  V30 3244 C 308.022 0.615449 3.0689 0
M  V30 3245 C 308.497 1.13275 4.43771 0
M  V30 3246 N 309.988 1.09167 4.50152 0
M  V30 3247 C 310.723 1.46256 5.54434 0
M  V30 3248 N 310.219 1.90739 6.66026 0
M  V30 3249 N 312.012 1.37932 5.44914 0
M  V30 3250 H 304.163 1.43049 1.57005 0
M  V30 3251 H 306.426 0.590861 0.741341 0
M  V30 3252 H 306.132 1.69822 3.07983 0
M  V30 3253 H 306.006 0.0902132 3.77092 0
M  V30 3254 H 308.393 -0.420793 2.92084 0
M  V30 3255 H 308.474 1.21495 2.25106 0
M  V30 3256 H 308.118 2.16757 4.59324 0
M  V30 3257 H 308.048 0.509576 5.24129 0
M  V30 3258 H 310.539 0.76528 3.7007 0
M  V30 3259 H 310.852 2.17218 7.41644 0
M  V30 3260 H 309.197 1.94683 6.67176 0
M  V30 3261 H 312.388 1.0303 4.56621 0
M  V30 3262 H 312.561 1.67164 6.26067 0
M  V30 3263 N 305.967 -1.56429 0.191757 0
M  V30 3264 C 307.244 -1.89224 -0.495332 0
M  V30 3265 C 307.624 -1.10478 -1.79883 0
M  V30 3266 O 306.972 -0.204852 -2.2758 0
M  V30 3267 C 307.182 -3.41548 -0.717367 0
M  V30 3268 C 308.53 -4.11711 -1.03823 0
M  V30 3269 O 309.554 -3.4698 -0.805204 0
M  V30 3270 O 308.413 -5.2611 -1.47887 0
M  V30 3271 H 305.507 -0.785788 -0.25781 0
M  V30 3272 H 308.053 -1.68111 0.231721 0
M  V30 3273 H 306.825 -3.90772 0.203287 0
M  V30 3274 H 306.448 -3.68342 -1.497 0
M  V30 3275 N 307.445 0.0818655 -1.57387 0
M  V30 3276 C 308.355 1.11642 -2.06333 0
M  V30 3277 C 309.371 1.43033 -0.99083 0
M  V30 3278 O 310.547 1.53411 -1.30488 0
M  V30 3279 C 307.612 2.41342 -2.48907 0
M  V30 3280 C 306.673 2.17014 -3.7041 0
M  V30 3281 C 305.906 3.4053 -4.10944 0
M  V30 3282 O 306.129 4.4927 -3.51444 0
M  V30 3283 O 305.063 3.29336 -5.03807 0
M  V30 3284 H 308.889 0.730657 -2.9478 0
M  V30 3285 H 306.474 0.295301 -1.46452 0
M  V30 3286 H 308.356 3.17691 -2.76858 0
M  V30 3287 H 307.031 2.79319 -1.63593 0
M  V30 3288 H 305.938 1.38403 -3.47556 0
M  V30 3289 H 307.271 1.83923 -4.56545 0
M  V30 3290 N 308.923 1.53595 0.353017 0
M  V30 3291 C 309.853 1.83902 1.43883 0
M  V30 3292 C 310.834 0.693421 1.55324 0
M  V30 3293 O 312.019 0.944452 1.69687 0
M  V30 3294 C 309.149 2.04016 2.8106 0
M  V30 3295 C 308.103 3.19814 2.84434 0
M  V30 3296 C 307.429 3.25244 4.24406 0
M  V30 3297 C 308.729 4.58133 2.50822 0
M  V30 3298 H 310.423 2.74835 1.1877 0
M  V30 3299 H 307.969 1.32242 0.569917 0
M  V30 3300 H 309.922 2.238 3.57059 0
M  V30 3301 H 308.646 1.09804 3.07588 0
M  V30 3302 H 307.305 2.9987 2.10887 0
M  V30 3303 H 306.953 2.28646 4.48029 0
M  V30 3304 H 306.653 4.03054 4.27576 0
M  V30 3305 H 308.177 3.47228 5.0226 0
M  V30 3306 H 309.591 4.77995 3.16534 0
M  V30 3307 H 307.988 5.38276 2.6529 0
M  V30 3308 H 309.058 4.62387 1.46034 0
M  V30 3309 N 310.401 -0.613514 1.45168 0
M  V30 3310 C 311.626 -1.40437 1.52618 0
M  V30 3311 C 312.051 -1.87438 0.157707 0
M  V30 3312 O 311.409 -1.59791 -0.856537 0
M  V30 3313 C 311.457 -2.58894 2.51011 0
M  V30 3314 O 310.561 -3.59326 2.02382 0
M  V30 3315 H 309.902 -0.419506 0.514695 0
M  V30 3316 H 312.432 -0.747215 1.90467 0
M  V30 3317 H 312.442 -3.06214 2.69624 0
M  V30 3318 H 311.117 -2.24032 3.50403 0
M  V30 3319 H 309.694 -3.18695 1.93618 0
M  V30 3320 N 311.879 -1.3236 -0.855495 0
M  V30 3321 C 312.789 -1.23221 -1.99634 0
M  V30 3322 C 313.805 -0.145983 -1.73387 0
M  V30 3323 O 314.981 -0.366502 -1.98037 0
M  V30 3324 C 312.046 -0.954782 -3.33294 0
M  V30 3325 C 311.107 -2.12937 -3.72769 0
M  V30 3326 C 310.34 -1.86508 -5.00051 0
M  V30 3327 O 310.563 -0.807231 -5.64659 0
M  V30 3328 O 309.497 -2.72591 -5.36636 0
M  V30 3329 H 313.323 -2.19126 -2.1028 0
M  V30 3330 H 310.908 -1.12241 -0.986018 0
M  V30 3331 H 312.79 -0.816519 -4.13414 0
M  V30 3332 H 311.465 -0.0258854 -3.2369 0
M  V30 3333 H 310.372 -2.3231 -2.93228 0
M  V30 3334 H 311.705 -3.04102 -3.87018 0
M  V30 3335 N 313.357 1.07166 -1.15556 0
M  V30 3336 C 314.773 1.31899 -0.898603 0
M  V30 3337 C 314.973 1.96333 0.453383 0
M  V30 3338 O 314.029 2.22438 1.19489 0
M  V30 3339 C 315.342 2.20826 -2.04099 0
M  V30 3340 C 316.89 2.34269 -2.07574 0
M  V30 3341 C 317.365 3.26546 -3.21141 0
M  V30 3342 N 318.856 3.34127 -3.20801 0
M  V30 3343 C 319.591 4.05595 -4.05315 0
M  V30 3344 N 319.087 4.79661 -4.99897 0
M  V30 3345 N 320.88 4.01555 -3.93332 0
M  V30 3346 H 313.031 0.637302 -2.02613 0
M  V30 3347 H 315.294 0.343468 -0.883591 0
M  V30 3348 H 315 1.80744 -3.01703 0
M  V30 3349 H 314.874 3.21364 -1.97496 0
M  V30 3350 H 317.261 2.73603 -1.10568 0
M  V30 3351 H 317.342 1.33429 -2.18244 0
M  V30 3352 H 316.986 2.87931 -4.184 0
M  V30 3353 H 316.916 4.27345 -3.07708 0
M  V30 3354 H 319.407 2.81336 -2.52306 0
M  V30 3355 H 319.72 5.31694 -5.60822 0
M  V30 3356 H 318.065 4.78671 -5.03884 0
M  V30 3357 H 321.256 3.42806 -3.18751 0
M  V30 3358 H 321.429 4.56987 -4.5942 0
M  V30 3359 N 314.835 0.952656 1.25548 0
M  V30 3360 C 315.765 0.489287 2.28316 0
M  V30 3361 C 316.746 -0.463359 1.63667 0
M  V30 3362 O 317.931 -0.36274 1.90782 0
M  V30 3363 C 315.061 -0.235603 3.465 0
M  V30 3364 C 314.015 0.631593 4.23314 0
M  V30 3365 C 313.341 -0.223923 5.34231 0
M  V30 3366 C 314.641 1.90871 4.86174 0
M  V30 3367 H 316.335 1.34822 2.67326 0
M  V30 3368 H 313.881 0.649728 1.28509 0
M  V30 3369 H 315.834 -0.570882 4.17515 0
M  V30 3370 H 314.558 -1.12877 3.06474 0
M  V30 3371 H 313.217 0.949929 3.54079 0
M  V30 3372 H 312.865 -1.11678 4.90446 0
M  V30 3373 H 312.565 0.35299 5.86539 0
M  V30 3374 H 314.089 -0.554214 6.0808 0
M  V30 3375 H 315.503 1.63997 5.49343 0
M  V30 3376 H 313.9 2.43112 5.4865 0
M  V30 3377 H 314.97 2.61304 4.08471 0
M  V30 3378 N 316.313 -1.40141 0.720998 0
M  V30 3379 C 317.26 -2.30688 0.071919 0
M  V30 3380 C 318.23 -1.48476 -0.744584 0
M  V30 3381 O 319.415 -1.77201 -0.707423 0
M  V30 3382 C 316.555 -3.34724 -0.839855 0
M  V30 3383 C 315.668 -4.31998 -0.0122438 0
M  V30 3384 C 314.803 -5.23102 -0.923995 0
M  V30 3385 C 313.842 -6.12033 -0.0907969 0
M  V30 3386 N 312.979 -6.95537 -0.957718 0
M  V30 3387 H 317.819 -2.85628 0.849755 0
M  V30 3388 H 315.356 -1.40653 0.430726 0
M  V30 3389 H 317.314 -3.93618 -1.38279 0
M  V30 3390 H 315.944 -2.81274 -1.58381 0
M  V30 3391 H 314.996 -3.74841 0.64794 0
M  V30 3392 H 316.308 -4.94772 0.632595 0
M  V30 3393 H 315.462 -5.86953 -1.53527 0
M  V30 3394 H 314.201 -4.60615 -1.60264 0
M  V30 3395 H 313.206 -5.47207 0.533377 0
M  V30 3396 H 314.431 -6.76581 0.584428 0
M  V30 3397 H 312.377 -6.35633 -1.62192 0
M  V30 3398 H 312.294 -7.55099 -0.36904 0
M  V30 3399 H 313.562 -7.63832 -1.555 0
M  V30 3400 N 317.792 -0.46758 -1.50504 0
M  V30 3401 C 319.041 0.0902868 -2.01498 0
M  V30 3402 C 319.354 1.411 -1.35463 0
M  V30 3403 O 320.56 2.0536 -1.77594 0
M  V30 3404 C 319.016 0.21142 -3.59278 0
M  V30 3405 C 318.624 -1.10065 -4.34269 0
M  V30 3406 C 320.368 0.721433 -4.18325 0
M  V30 3407 C 318.275 -0.943505 -5.83825 0
M  V30 3408 H 317.205 0.037517 -0.753066 0
M  V30 3409 H 319.856 -0.601943 -1.73346 0
M  V30 3410 H 318.238 0.967352 -3.84003 0
M  V30 3411 H 319.412 -1.86726 -4.21272 0
M  V30 3412 H 317.727 -1.5415 -3.86816 0
M  V30 3413 H 320.324 0.85598 -5.27804 0
M  V30 3414 H 320.667 1.71186 -3.79475 0
M  V30 3415 H 321.2 0.0229843 -3.97793 0
M  V30 3416 H 317.939 -1.90719 -6.27141 0
M  V30 3417 H 317.459 -0.217213 -5.99407 0
M  V30 3418 H 319.138 -0.608715 -6.4413 0
M  V30 3419 N 319.27 1.56325 -0.20005 0
M  V30 3420 C 320.202 2.16555 0.750771 0
M  V30 3421 C 321.215 1.12871 1.1732 0
M  V30 3422 O 322.404 1.39943 1.10807 0
M  V30 3423 C 319.504 2.71684 2.02586 0
M  V30 3424 C 318.677 4.00321 1.76244 0
M  V30 3425 C 317.736 4.40227 2.88248 0
M  V30 3426 O 316.762 5.07552 2.57642 0
M  V30 3427 N 317.964 4.04138 4.16717 0
M  V30 3428 H 320.729 2.98772 0.235685 0
M  V30 3429 H 318.29 1.6189 -0.0182594 0
M  V30 3430 H 320.282 2.95363 2.76664 0
M  V30 3431 H 318.852 1.93893 2.45202 0
M  V30 3432 H 318.072 3.84723 0.85919 0
M  V30 3433 H 319.36 4.84279 1.56048 0
M  V30 3434 H 318.758 3.49993 4.44434 0
M  V30 3435 H 317.315 4.32756 4.87407 0
M  V30 3436 N 320.748 -0.0735177 1.57428 0
M  V30 3437 C 321.698 -1.09442 2.00016 0
M  V30 3438 C 322.682 -1.34575 0.881947 0
M  V30 3439 O 323.874 -1.34905 1.14585 0
M  V30 3440 C 321.003 -2.40865 2.4462 0
M  V30 3441 C 320.089 -2.19014 3.63172 0
M  V30 3442 N 320.48 -1.67087 4.77405 0
M  V30 3443 C 318.778 -2.49494 3.69688 0
M  V30 3444 C 319.479 -1.6001 5.5926 0
M  V30 3445 N 318.455 -2.05999 5.03056 0
M  V30 3446 H 322.257 -0.686227 2.85776 0
M  V30 3447 H 319.771 -0.280617 1.59957 0
M  V30 3448 H 321.768 -3.14763 2.73368 0
M  V30 3449 H 320.428 -2.82403 1.60246 0
M  V30 3450 H 321.439 -1.35975 4.99731 0
M  V30 3451 H 318.116 -2.94409 2.96023 0
M  V30 3452 H 319.506 -1.2073 6.60964 0
M  V30 3453 N 322.226 -1.5378 -0.344866 0
M  V30 3454 C 323.136 -1.84667 -1.4469 0
M  V30 3455 C 324.152 -0.736704 -1.57635 0
M  V30 3456 O 325.328 -1.02888 -1.73136 0
M  V30 3457 C 322.393 -2.04869 -2.79696 0
M  V30 3458 C 321.454 -3.28731 -2.76106 0
M  V30 3459 C 320.687 -3.4796 -4.04673 0
M  V30 3460 O 320.91 -2.71052 -5.01883 0
M  V30 3461 O 319.844 -4.41383 -4.09224 0
M  V30 3462 H 323.67 -2.78334 -1.21506 0
M  V30 3463 H 321.255 -1.39418 -0.536921 0
M  V30 3464 H 323.137 -2.19609 -3.59652 0
M  V30 3465 H 321.812 -1.14391 -3.02814 0
M  V30 3466 H 320.719 -3.19396 -1.94774 0
M  V30 3467 H 322.052 -4.19198 -2.57941 0
M  V30 3468 N 323.704 0.605807 -1.45491 0
M  V30 3469 C 324.634 1.72709 -1.57143 0
M  V30 3470 C 325.615 1.6476 -0.422884 0
M  V30 3471 O 326.8 1.83132 -0.646247 0
M  V30 3472 C 323.93 3.11316 -1.53948 0
M  V30 3473 C 322.884 3.34077 -2.67537 0
M  V30 3474 C 322.21 4.72975 -2.49397 0
M  V30 3475 C 323.51 3.24158 -4.09535 0
M  V30 3476 H 325.204 1.63214 -2.51001 0
M  V30 3477 H 322.75 0.78379 -1.208 0
M  V30 3478 H 324.703 3.89557 -1.60696 0
M  V30 3479 H 323.427 3.21655 -0.566205 0
M  V30 3480 H 322.086 2.58227 -2.6022 0
M  V30 3481 H 321.734 4.8005 -1.50205 0
M  V30 3482 H 321.434 4.8916 -3.25571 0
M  V30 3483 H 322.958 5.53414 -2.58002 0
M  V30 3484 H 324.372 3.92271 -4.18086 0
M  V30 3485 H 322.769 3.51872 -4.86113 0
M  V30 3486 H 323.839 2.2157 -4.31317 0
M  V30 3487 N 325.182 1.32811 0.848464 0
M  V30 3488 C 326.598 1.11937 1.13764 0
M  V30 3489 C 326.798 -0.0960789 2.01271 0
M  V30 3490 O 325.854 -0.779165 2.40178 0
M  V30 3491 C 327.167 2.402 1.809 0
M  V30 3492 C 328.715 2.46016 1.93508 0
M  V30 3493 C 329.19 3.74215 2.64059 0
M  V30 3494 N 330.681 3.75232 2.71579 0
M  V30 3495 C 331.416 4.71134 3.26833 0
M  V30 3496 N 330.912 5.77406 3.8285 0
M  V30 3497 N 332.705 4.58623 3.24995 0
M  V30 3498 H 324.856 2.1073 0.265855 0
M  V30 3499 H 327.119 0.930671 0.180431 0
M  V30 3500 H 326.825 3.29093 1.24058 0
M  V30 3501 H 326.699 2.51628 2.81004 0
M  V30 3502 H 329.086 1.57577 2.49506 0
M  V30 3503 H 329.167 2.38536 0.923811 0
M  V30 3504 H 328.811 4.63031 2.08722 0
M  V30 3505 H 328.741 3.78968 3.65637 0
M  V30 3506 H 331.232 2.98423 2.31845 0
M  V30 3507 H 331.545 6.46632 4.23187 0
M  V30 3508 H 329.89 5.81152 3.81165 0
M  V30 3509 H 333.081 3.74762 2.80484 0
M  V30 3510 H 333.254 5.33535 3.67756 0
M  V30 3511 N 326.66 -1.06551 1.16123 0
M  V30 3512 C 327.623 -2.12132 0.867906 0
M  V30 3513 C 328.623 -1.60224 -0.135944 0
M  V30 3514 O 329.813 -1.73943 0.0946422 0
M  V30 3515 C 326.945 -3.396 0.297419 0
M  V30 3516 H 328.138 -2.39586 1.80385 0
M  V30 3517 H 325.691 -1.22574 0.969812 0
M  V30 3518 H 326.426 -3.17794 -0.64633 0
M  V30 3519 H 326.211 -3.78581 1.02073 0
M  V30 3520 H 327.701 -4.17455 0.110052 0
M  V30 3521 N 328.138 -0.959301 -1.25041 0
M  V30 3522 C 329.07 -0.440543 -2.24926 0
M  V30 3523 C 330.083 0.446131 -1.56568 0
M  V30 3524 O 331.272 0.253657 -1.76689 0
M  V30 3525 C 328.372 0.38412 -3.36716 0
M  V30 3526 C 327.545 -0.490658 -4.34639 0
M  V30 3527 C 326.604 0.276587 -5.25473 0
M  V30 3528 O 325.63 -0.326614 -5.68262 0
M  V30 3529 N 326.832 1.56844 -5.5891 0
M  V30 3530 H 329.597 -1.29931 -2.70071 0
M  V30 3531 H 327.158 -0.830181 -1.38995 0
M  V30 3532 H 329.15 0.905228 -3.94446 0
M  V30 3533 H 327.72 1.14377 -2.90924 0
M  V30 3534 H 326.94 -1.19282 -3.7572 0
M  V30 3535 H 328.228 -1.08756 -4.97041 0
M  V30 3536 H 327.626 2.08036 -5.26059 0
M  V30 3537 H 326.183 2.03541 -6.19205 0
M  V30 3538 N 329.616 1.39756 -0.72842 0
M  V30 3539 C 330.579 2.29012 -0.0927297 0
M  V30 3540 C 331.579 1.45992 0.674025 0
M  V30 3541 O 332.769 1.66749 0.50402 0
M  V30 3542 C 329.901 3.29396 0.878137 0
M  V30 3543 H 331.094 2.86729 -0.879011 0
M  V30 3544 H 328.647 1.48293 -0.493847 0
M  V30 3545 H 329.382 2.76722 1.69101 0
M  V30 3546 H 329.167 3.907 0.331051 0
M  V30 3547 H 330.657 3.96199 1.3197 0
M  V30 3548 N 331.094 0.475555 1.50254 0
M  V30 3549 C 332.026 -0.352649 2.26471 0
M  V30 3550 C 333.039 -0.953165 1.3198 0
M  V30 3551 O 334.228 -0.840815 1.57457 0
M  V30 3552 C 331.328 -1.50902 3.0345 0
M  V30 3553 C 330.501 -1.02047 4.25329 0
M  V30 3554 C 329.56 -2.05142 4.84565 0
M  V30 3555 O 328.586 -1.63023 5.45355 0
M  V30 3556 N 329.788 -3.37987 4.71959 0
M  V30 3557 H 332.553 0.300767 2.98187 0
M  V30 3558 H 330.114 0.306598 1.5897 0
M  V30 3559 H 332.106 -2.19572 3.39956 0
M  V30 3560 H 330.676 -2.06705 2.34504 0
M  V30 3561 H 329.896 -0.159507 3.93877 0
M  V30 3562 H 331.184 -0.672061 5.04342 0
M  V30 3563 H 330.582 -3.74913 4.23623 0
M  V30 3564 H 329.139 -4.02443 5.12721 0
M  V30 3565 N 332.573 -1.56217 0.208337 0
M  V30 3566 C 333.819 -1.98242 -0.427552 0
M  V30 3567 C 334.152 -1.09554 -1.60348 0
M  V30 3568 O 333.427 -0.15035 -1.93918 0
M  V30 3569 C 333.71 -3.4931 -0.874907 0
M  V30 3570 C 333.563 -4.48773 0.303751 0
M  V30 3571 C 334.882 -4.04424 -1.73577 0
M  V30 3572 H 332.001 -0.720744 -0.153936 0
M  V30 3573 H 334.643 -1.87586 0.30192 0
M  V30 3574 H 332.793 -3.58522 -1.49648 0
M  V30 3575 H 334.465 -4.51586 0.941682 0
M  V30 3576 H 332.708 -4.23194 0.953375 0
M  V30 3577 H 333.379 -5.51976 -0.0519883 0
M  V30 3578 H 335.855 -3.98075 -1.21143 0
M  V30 3579 H 334.731 -5.1047 -2.01771 0
M  V30 3580 H 334.992 -3.50494 -2.69456 0
M  V30 3581 N 334.051 0.0651679 -1.57465 0
M  V30 3582 C 334.961 1.09448 -2.07505 0
M  V30 3583 C 335.977 1.41974 -1.00595 0
M  V30 3584 O 337.153 1.52018 -1.32107 0
M  V30 3585 C 334.218 2.38689 -2.51453 0
M  V30 3586 C 333.279 2.13073 -3.72691 0
M  V30 3587 C 332.512 3.36152 -4.14533 0
M  V30 3588 O 332.735 4.45517 -3.56189 0
M  V30 3589 O 331.669 3.23974 -5.07272 0
M  V30 3590 H 335.495 0.69935 -2.95538 0
M  V30 3591 H 333.08 0.279752 -1.46757 0
M  V30 3592 H 334.962 3.14736 -2.80212 0
M  V30 3593 H 333.637 2.77568 -1.66546 0
M  V30 3594 H 332.544 1.34709 -3.49005 0
M  V30 3595 H 333.877 1.79071 -4.5847 0
M  V30 3596 N 335.529 1.53961 0.336706 0
M  V30 3597 C 336.439 1.85432 1.43708 0
M  V30 3598 C 337.455 0.745053 1.57242 0
M  V30 3599 O 338.631 1.03804 1.72588 0
M  V30 3600 C 335.696 2.06349 2.78605 0
M  V30 3601 C 334.757 3.30191 2.74358 0
M  V30 3602 C 333.99 3.50101 4.02822 0
M  V30 3603 O 334.213 2.7371 5.00439 0
M  V30 3604 O 333.147 4.43547 4.06878 0
M  V30 3605 H 336.973 2.78975 1.20028 0
M  V30 3606 H 334.558 1.39701 0.52952 0
M  V30 3607 H 336.44 2.21513 3.58483 0
M  V30 3608 H 335.115 1.15995 3.02203 0
M  V30 3609 H 334.022 3.20425 1.93078 0
M  V30 3610 H 335.355 4.2056 2.55715 0
M  V30 3611 N 337.007 -0.598083 1.45811 0
M  V30 3612 C 337.97 -1.69018 1.54808 0
M  V30 3613 C 338.97 -1.55037 0.426652 0
M  V30 3614 O 340.16 -1.59932 0.690456 0
M  V30 3615 C 337.292 -3.0835 1.45371 0
M  V30 3616 H 338.485 -1.62403 2.52121 0
M  V30 3617 H 336.038 -0.814626 1.33392 0
M  V30 3618 H 336.773 -3.20534 0.492793 0
M  V30 3619 H 336.558 -3.19907 2.26721 0
M  V30 3620 H 338.048 -3.8788 1.54721 0
M  V30 3621 N 338.485 -1.33259 -0.841409 0
M  V30 3622 C 339.395 -1.25332 -1.98316 0
M  V30 3623 C 340.411 -0.164364 -1.73222 0
M  V30 3624 O 341.587 -0.387486 -1.97637 0
M  V30 3625 C 338.652 -0.990078 -3.32262 0
M  V30 3626 C 337.713 -2.16879 -3.70489 0
M  V30 3627 C 336.946 -1.91801 -4.98044 0
M  V30 3628 O 337.169 -0.867075 -5.63771 0
M  V30 3629 O 336.103 -2.78267 -5.33714 0
M  V30 3630 H 339.929 -2.21344 -2.07944 0
M  V30 3631 H 337.514 -1.1328 -0.974058 0
M  V30 3632 H 339.396 -0.860321 -4.12524 0
M  V30 3633 H 338.071 -0.0602155 -3.23644 0
M  V30 3634 H 336.978 -2.35407 -2.90748 0
M  V30 3635 H 338.311 -3.0819 -3.8377 0
M  V30 3636 N 339.963 1.05934 -1.16686 0
M  V30 3637 C 340.873 2.17014 -0.891183 0
M  V30 3638 C 341.889 1.73453 0.137907 0
M  V30 3639 O 343.065 2.01361 -0.039592 0
M  V30 3640 C 340.13 3.44384 -0.400099 0
M  V30 3641 C 339.191 4.02433 -1.49486 0
M  V30 3642 C 338.424 5.23723 -1.02711 0
M  V30 3643 O 338.647 5.7027 0.121716 0
M  V30 3644 O 337.581 5.7382 -1.81699 0
M  V30 3645 H 341.407 2.43113 -1.82015 0
M  V30 3646 H 338.992 1.15541 -0.947132 0
M  V30 3647 H 340.874 4.21189 -0.133392 0
M  V30 3648 H 339.549 3.19802 0.500817 0
M  V30 3649 H 338.456 3.27102 -1.81535 0
M  V30 3650 H 339.789 4.31317 -2.37121 0
M  V30 3651 N 341.441 0.965919 1.2453 0
M  V30 3652 C 342.371 0.513476 2.27784 0
M  V30 3653 C 343.352 -0.445974 1.6415 0
M  V30 3654 O 344.537 -0.342485 1.91156 0
M  V30 3655 C 341.667 -0.198839 3.4673 0
M  V30 3656 C 340.621 0.676456 4.2262 0
M  V30 3657 C 339.947 -0.167248 5.34438 0
M  V30 3658 C 341.247 1.96017 4.84123 0
M  V30 3659 H 342.941 1.3765 2.65881 0
M  V30 3660 H 340.487 0.663321 1.27813 0
M  V30 3661 H 342.44 -0.526567 4.18097 0
M  V30 3662 H 341.164 -1.0962 3.07654 0
M  V30 3663 H 339.823 0.98743 3.53052 0
M  V30 3664 H 339.471 -1.0647 4.91603 0
M  V30 3665 H 339.171 0.415181 5.86131 0
M  V30 3666 H 340.695 -0.489688 6.08633 0
M  V30 3667 H 342.109 1.69814 5.47573 0
M  V30 3668 H 340.506 2.48918 5.4604 0
M  V30 3669 H 341.576 2.65622 4.05676 0
M  V30 3670 N 342.919 -1.39368 0.735821 0
M  V30 3671 C 344.166 -2.00497 0.284123 0
M  V30 3672 C 344.494 -1.58387 -1.12889 0
M  V30 3673 O 343.749 -0.804359 -1.78406 0
M  V30 3674 C 344.048 -3.5583 0.334651 0
M  V30 3675 C 343.714 -4.17593 1.7008 0
M  V30 3676 C 342.376 -4.34176 2.07472 0
M  V30 3677 C 344.728 -4.51848 2.59775 0
M  V30 3678 C 342.056 -4.82304 3.34065 0
M  V30 3679 C 344.408 -5.01384 3.85741 0
M  V30 3680 C 343.072 -5.16175 4.23225 0
M  V30 3681 H 342.342 -0.73367 0.103968 0
M  V30 3682 H 344.989 -1.66683 0.942825 0
M  V30 3683 H 343.294 -3.89674 -0.407625 0
M  V30 3684 H 344.991 -4.00986 -0.0329927 0
M  V30 3685 H 341.581 -4.05087 1.40008 0
M  V30 3686 H 345.765 -4.38653 2.32157 0
M  V30 3687 H 341.021 -4.91941 3.63049 0
M  V30 3688 H 345.195 -5.26863 4.55399 0
M  V30 3689 H 342.822 -5.5323 5.21384 0
M  V30 3690 N 344.397 -0.483516 -1.5 0
M  V30 3691 C 345.813 -0.138404 -1.58999 0
M  V30 3692 C 346.013 1.35597 -1.4905 0
M  V30 3693 O 345.069 2.13039 -1.35539 0
M  V30 3694 C 346.382 -0.699658 -2.92447 0
M  V30 3695 C 347.93 -0.664195 -3.05872 0
M  V30 3696 C 348.405 -1.20321 -4.41913 0
M  V30 3697 N 349.896 -1.16315 -4.48358 0
M  V30 3698 C 350.631 -1.55058 -5.52037 0
M  V30 3699 N 350.127 -2.01311 -6.62907 0
M  V30 3700 N 351.92 -1.46584 -5.42651 0
M  V30 3701 H 344.071 -1.45529 -1.5471 0
M  V30 3702 H 346.334 -0.60258 -0.731848 0
M  V30 3703 H 346.04 -1.747 -3.05242 0
M  V30 3704 H 345.914 -0.150194 -3.76901 0
M  V30 3705 H 348.301 0.374272 -2.92717 0
M  V30 3706 H 348.382 -1.25061 -2.23144 0
M  V30 3707 H 348.026 -2.24037 -4.55818 0
M  V30 3708 H 347.956 -0.592896 -5.23252 0
M  V30 3709 H 350.447 -0.824058 -3.68806 0
M  V30 3710 H 350.76 -2.2899 -7.38095 0
M  V30 3711 H 349.105 -2.05273 -6.63994 0
M  V30 3712 H 352.296 -1.10281 -4.54924 0
M  V30 3713 H 352.469 -1.77103 -6.23329 0
M  V30 3714 N 345.875 1.56104 -0.216619 0
M  V30 3715 C 347.152 1.89988 0.465165 0
M  V30 3716 C 347.532 1.13326 1.78102 0
M  V30 3717 O 346.88 0.241033 2.27225 0
M  V30 3718 C 347.09 3.42646 0.662939 0
M  V30 3719 C 348.438 4.13311 0.972602 0
M  V30 3720 O 349.462 3.48217 0.749901 0
M  V30 3721 O 348.321 5.28396 1.39499 0
M  V30 3722 H 345.415 0.78979 0.245276 0
M  V30 3723 H 347.961 1.67721 -0.258436 0
M  V30 3724 H 346.733 3.90399 -0.26543 0
M  V30 3725 H 346.356 3.70677 1.43821 0
M  V30 3726 N 347.353 -0.0568162 1.57498 0
M  V30 3727 C 348.286 -1.09817 2.00039 0
M  V30 3728 C 349.264 -1.3674 0.879819 0
M  V30 3729 O 350.448 -1.49863 1.14338 0
M  V30 3730 C 347.575 -2.43924 2.34986 0
M  V30 3731 C 346.621 -2.33039 3.57204 0
M  V30 3732 S 347.454 -1.7102 5.07457 0
M  V30 3733 C 348.61 -3.06674 5.45621 0
M  V30 3734 H 348.843 -0.735701 2.88053 0
M  V30 3735 H 346.376 -0.265871 1.52094 0
M  V30 3736 H 348.334 -3.2106 2.55795 0
M  V30 3737 H 346.995 -2.77327 1.47474 0
M  V30 3738 H 346.188 -3.31973 3.79223 0
M  V30 3739 H 345.79 -1.64043 3.36104 0
M  V30 3740 H 348.082 -4.03 5.44608 0
M  V30 3741 H 349.025 -2.8942 6.46252 0
M  V30 3742 H 349.433 -3.07969 4.73091 0
M  V30 3743 N 348.832 -1.54138 -0.328536 0
M  V30 3744 C 350.248 -1.44736 -0.672574 0
M  V30 3745 C 350.448 -0.616217 -1.91846 0
M  V30 3746 O 349.504 -0.113067 -2.52247 0
M  V30 3747 C 350.817 -2.884 -0.851217 0
M  V30 3748 C 352.365 -2.98271 -0.948877 0
M  V30 3749 C 352.84 -4.43074 -1.15973 0
M  V30 3750 N 354.331 -4.46665 -1.22658 0
M  V30 3751 C 355.066 -5.55857 -1.40751 0
M  V30 3752 N 354.562 -6.75026 -1.5592 0
M  V30 3753 N 356.355 -5.43495 -1.4342 0
M  V30 3754 H 348.506 -2.06661 0.490421 0
M  V30 3755 H 350.769 -0.934812 0.157579 0
M  V30 3756 H 350.475 -3.51699 -0.00704236 0
M  V30 3757 H 350.349 -3.34225 -1.74853 0
M  V30 3758 H 352.736 -2.35102 -1.78356 0
M  V30 3759 H 352.817 -2.55785 -0.0281435 0
M  V30 3760 H 352.461 -5.06827 -0.329915 0
M  V30 3761 H 352.391 -4.83165 -2.09426 0
M  V30 3762 H 354.882 -3.60797 -1.124 0
M  V30 3763 H 355.195 -7.54004 -1.69404 0
M  V30 3764 H 353.54 -6.77944 -1.53027 0
M  V30 3765 H 356.731 -4.49349 -1.31162 0
M  V30 3766 H 356.904 -6.28649 -1.57178 0
M  V30 3767 N 350.31 0.590341 -1.46126 0
M  V30 3768 C 351.557 1.34882 -1.5104 0
M  V30 3769 C 351.885 1.93849 -0.159021 0
M  V30 3770 O 351.14 1.76544 0.844436 0
M  V30 3771 C 351.439 2.5032 -2.55097 0
M  V30 3772 C 351.105 2.09394 -3.99331 0
M  V30 3773 C 349.767 1.97947 -4.38601 0
M  V30 3774 C 352.119 1.77712 -4.89967 0
M  V30 3775 C 349.447 1.53065 -5.66381 0
M  V30 3776 C 351.799 1.34312 -6.18177 0
M  V30 3777 C 350.463 1.21436 -6.56361 0
M  V30 3778 H 349.733 0.493568 -0.552695 0
M  V30 3779 H 352.38 0.665539 -1.79563 0
M  V30 3780 H 350.685 3.24062 -2.20207 0
M  V30 3781 H 352.382 3.08541 -2.56132 0
M  V30 3782 H 348.972 2.19235 -3.68285 0
M  V30 3783 H 353.156 1.85445 -4.60352 0
M  V30 3784 H 348.412 1.41733 -5.94745 0
M  V30 3785 H 352.586 1.08849 -6.87841 0
M  V30 3786 H 350.213 0.864345 -7.5527 0
M  V30 3787 N 351.788 1.33704 0.83433 0
M  V30 3788 C 353.018 1.28281 1.6195 0
M  V30 3789 C 353.426 -0.147603 1.88623 0
M  V30 3790 O 352.769 -1.1016 1.47005 0
M  V30 3791 C 352.831 1.99386 2.99141 0
M  V30 3792 C 352.495 3.48681 2.95416 0
M  V30 3793 C 353.492 4.438 2.70809 0
M  V30 3794 C 351.177 3.90925 3.15409 0
M  V30 3795 C 353.171 5.79138 2.66229 0
M  V30 3796 C 350.858 5.26366 3.10454 0
M  V30 3797 C 351.856 6.20284 2.85895 0
M  V30 3798 O 351.544 7.53245 2.80852 0
M  V30 3799 H 351.276 0.44315 0.510484 0
M  V30 3800 H 353.83 1.76711 1.04702 0
M  V30 3801 H 352.06 1.45554 3.58261 0
M  V30 3802 H 353.749 1.87403 3.60049 0
M  V30 3803 H 354.515 4.12485 2.5511 0
M  V30 3804 H 350.394 3.18229 3.33543 0
M  V30 3805 H 353.938 6.52416 2.4698 0
M  V30 3806 H 349.835 5.57304 3.25703 0
M  V30 3807 H 350.603 7.62846 2.96661 0
M  V30 3808 N 353.266 -1.05314 1.17247 0
M  V30 3809 C 354.514 -1.77941 0.958194 0
M  V30 3810 C 354.835 -1.88089 -0.514556 0
M  V30 3811 O 354.105 -1.39676 -1.37359 0
M  V30 3812 H 352.685 -0.659116 0.351533 0
M  V30 3813 H 355.347 -1.27166 1.47699 0
M  V30 3814 H 354.443 -2.79663 1.38546 0
M  V30 3815 N 354.744 -0.972509 -1.24016 0
M  V30 3816 C 356.155 -0.67517 -1.74064 0
M  V30 3817 C 356.506 0.808939 -1.78747 0
M  V30 3818 O 355.631 1.63286 -1.42009 0
M  V30 3819 C 356.226 -1.21889 -3.16115 0
M  V30 3820 C 354.785 -0.971358 -3.6365 0
M  V30 3821 C 353.932 -1.35134 -2.42145 0
M  V30 3822 H 356.883 -1.14727 -1.09651 0
M  V30 3823 H 356.904 -0.587489 -3.75937 0
M  V30 3824 H 356.416 -2.29906 -3.12674 0
M  V30 3825 H 354.517 0.0930686 -3.72484 0
M  V30 3826 H 354.63 -1.62039 -4.50866 0
M  V30 3827 H 352.994 -0.769751 -2.4279 0
M  V30 3828 H 353.777 -2.4411 -2.41381 0
M  V30 3829 N 356.222 1.38976 -0.743202 0
M  V30 3830 C 357.154 2.29096 -0.0689228 0
M  V30 3831 C 358.167 1.47229 0.694791 0
M  V30 3832 O 359.356 1.70212 0.537597 0
M  V30 3833 C 356.456 3.25988 0.926548 0
M  V30 3834 C 355.629 4.36833 0.222647 0
M  V30 3835 C 354.688 5.13981 1.12739 0
M  V30 3836 O 353.714 5.6601 0.601795 0
M  V30 3837 N 354.916 5.25966 2.45641 0
M  V30 3838 H 357.681 2.87604 -0.842846 0
M  V30 3839 H 355.242 1.50645 -0.593109 0
M  V30 3840 H 357.234 3.74476 1.5346 0
M  V30 3841 H 355.804 2.68453 1.60162 0
M  V30 3842 H 355.024 3.90116 -0.565983 0
M  V30 3843 H 356.312 5.0811 -0.264841 0
M  V30 3844 H 355.71 4.85228 2.9081 0
M  V30 3845 H 354.267 5.77865 3.01522 0
M  V30 3846 N 357.7 0.491464 1.49741 0
M  V30 3847 C 359.116 0.146835 1.58923 0
M  V30 3848 C 359.316 -1.34804 1.49767 0
M  V30 3849 O 358.372 -2.12317 1.36667 0
M  V30 3850 C 359.685 0.715157 2.92072 0
M  V30 3851 C 361.233 0.680407 3.05515 0
M  V30 3852 C 361.708 1.22663 4.41269 0
M  V30 3853 N 363.199 1.18691 4.47735 0
M  V30 3854 C 363.934 1.57984 5.51207 0
M  V30 3855 N 363.43 2.04824 6.6183 0
M  V30 3856 N 365.223 1.49459 5.41866 0
M  V30 3857 H 357.374 1.46347 1.53936 0
M  V30 3858 H 359.637 0.606453 0.728642 0
M  V30 3859 H 359.343 1.76317 3.04311 0
M  V30 3860 H 359.217 0.17018 3.76816 0
M  V30 3861 H 361.604 -0.358743 2.92911 0
M  V30 3862 H 361.685 1.26242 2.22478 0
M  V30 3863 H 361.329 2.26451 4.54623 0
M  V30 3864 H 361.259 0.620637 5.2293 0
M  V30 3865 H 363.75 0.843605 3.68364 0
M  V30 3866 H 364.063 2.32901 7.3687 0
M  V30 3867 H 362.408 2.08791 6.62896 0
M  V30 3868 H 365.599 1.12692 4.54333 0
M  V30 3869 H 365.772 1.80406 6.22381 0
M  V30 3870 N 359.178 -1.55987 0.224894 0
M  V30 3871 C 360.594 -1.59066 -0.130426 0
M  V30 3872 C 360.794 -1.24176 -1.5869 0
M  V30 3873 O 359.85 -0.978592 -2.32766 0
M  V30 3874 C 361.163 -3.00042 0.198883 0
M  V30 3875 C 362.711 -3.1268 0.141391 0
M  V30 3876 C 363.186 -4.55839 0.444422 0
M  V30 3877 N 364.677 -4.6152 0.394115 0
M  V30 3878 C 365.412 -5.70231 0.602038 0
M  V30 3879 N 364.908 -6.87291 0.871914 0
M  V30 3880 N 366.701 -5.59555 0.534245 0
M  V30 3881 H 358.852 -1.76941 1.17497 0
M  V30 3882 H 361.115 -0.822604 0.471197 0
M  V30 3883 H 360.821 -3.30234 1.2099 0
M  V30 3884 H 360.695 -3.74075 -0.484535 0
M  V30 3885 H 363.082 -2.82283 -0.860265 0
M  V30 3886 H 363.163 -2.40969 0.858335 0
M  V30 3887 H 362.807 -4.86954 1.44353 0
M  V30 3888 H 362.737 -5.2578 -0.293752 0
M  V30 3889 H 365.228 -3.77405 0.193356 0
M  V30 3890 H 365.541 -7.66058 1.01858 0
M  V30 3891 H 363.886 -6.89028 0.909145 0
M  V30 3892 H 367.077 -4.6698 0.323612 0
M  V30 3893 H 367.25 -6.44211 0.699693 0
M  V30 3894 N 360.656 0.0484629 -1.57525 0
M  V30 3895 C 362.072 0.40375 -1.54409 0
M  V30 3896 C 362.272 1.77786 -0.948384 0
M  V30 3897 O 361.328 2.46189 -0.560983 0
M  V30 3898 C 362.641 0.323394 -2.98956 0
M  V30 3899 C 364.189 0.401892 -3.10409 0
M  V30 3900 C 364.664 0.351195 -4.56652 0
M  V30 3901 N 366.155 0.410576 -4.61377 0
M  V30 3902 C 366.89 0.393933 -5.72045 0
M  V30 3903 N 366.386 0.330724 -6.9201 0
M  V30 3904 N 368.179 0.442227 -5.60358 0
M  V30 3905 H 360.33 -0.851016 -1.94606 0
M  V30 3906 H 362.593 -0.321721 -0.89174 0
M  V30 3907 H 362.299 -0.62011 -3.4619 0
M  V30 3908 H 362.173 1.12463 -3.60044 0
M  V30 3909 H 364.56 1.33582 -2.63134 0
M  V30 3910 H 364.641 -0.428342 -2.52188 0
M  V30 3911 H 364.285 -0.578987 -5.04589 0
M  V30 3912 H 364.215 1.19928 -5.12762 0
M  V30 3913 H 366.706 0.462729 -3.75056 0
M  V30 3914 H 367.019 0.322592 -7.72126 0
M  V30 3915 H 365.364 0.29706 -6.94365 0
M  V30 3916 H 368.555 0.489464 -4.65534 0
M  V30 3917 H 368.728 0.425788 -6.466 0
M  V30 3918 N 362.134 1.5431 0.320358 0
M  V30 3919 C 363.064 1.86912 1.3995 0
M  V30 3920 C 364.045 0.726211 1.53819 0
M  V30 3921 O 365.23 0.980233 1.67646 0
M  V30 3922 C 362.36 2.09932 2.7667 0
M  V30 3923 C 361.314 3.25776 2.77586 0
M  V30 3924 C 360.64 3.34173 4.17412 0
M  V30 3925 C 361.94 4.6335 2.41048 0
M  V30 3926 H 363.634 2.77292 1.12914 0
M  V30 3927 H 361.18 1.33421 0.541738 0
M  V30 3928 H 363.133 2.31324 3.52232 0
M  V30 3929 H 361.857 1.16304 3.0519 0
M  V30 3930 H 360.516 3.04276 2.04479 0
M  V30 3931 H 360.164 2.38098 4.43078 0
M  V30 3932 H 359.864 4.12033 4.18931 0
M  V30 3933 H 361.388 3.57803 4.94782 0
M  V30 3934 H 362.802 4.84602 3.06324 0
M  V30 3935 H 361.199 5.43782 2.53813 0
M  V30 3936 H 362.269 4.65381 1.36193 0
M  V30 3937 N 363.613 -0.582584 1.46437 0
M  V30 3938 C 364.859 -1.34064 1.52965 0
M  V30 3939 C 365.214 -1.91566 0.178968 0
M  V30 3940 O 364.507 -1.73526 -0.812365 0
M  V30 3941 C 364.701 -2.48964 2.56421 0
M  V30 3942 C 364.53 -2.02717 4.01417 0
M  V30 3943 C 363.3 -1.87728 4.69134 0
M  V30 3944 C 365.498 -1.58675 4.8921 0
M  V30 3945 N 363.48 -1.35554 5.98747 0
M  V30 3946 C 364.851 -1.18093 6.08649 0
M  V30 3947 C 366.906 -1.46494 4.75861 0
M  V30 3948 C 365.609 -0.665427 7.16215 0
M  V30 3949 C 367.635 -0.96347 5.83499 0
M  V30 3950 C 366.997 -0.567432 7.02111 0
M  V30 3951 H 363.096 -0.483551 0.614575 0
M  V30 3952 H 365.68 -0.663309 1.83053 0
M  V30 3953 H 363.851 -3.1426 2.28244 0
M  V30 3954 H 365.583 -3.15913 2.52944 0
M  V30 3955 H 362.338 -2.09678 4.24655 0
M  V30 3956 H 362.762 -1.11628 6.67734 0
M  V30 3957 H 367.404 -1.75731 3.8455 0
M  V30 3958 H 365.122 -0.360639 8.07295 0
M  V30 3959 H 368.708 -0.873129 5.75211 0
M  V30 3960 H 367.588 -0.185389 7.83981 0
M  V30 3961 N 365.091 -1.34144 -0.827227 0
M  V30 3962 C 366.039 -1.25364 -1.95925 0
M  V30 3963 C 367.033 -0.152608 -1.68711 0
M  V30 3964 O 368.239 -0.317311 -1.77181 0
M  V30 3965 H 364.614 -0.389342 -0.643364 0
M  V30 3966 H 366.585 -2.21045 -2.00454 0
M  V30 3967 C 365.334 -1.02158 -3.32354 0
M  V30 3968 H 364.657 -1.86111 -3.5384 0
M  V30 3969 H 366.097 -1.00048 -4.12027 0
M  V30 3970 C 364.556 0.275244 -3.35774 0
M  V30 3971 O 365.086 1.27806 -3.80826 0
M  V30 3972 N 363.292 0.306853 -2.88975 0
M  V30 3973 H 362.839 -0.509777 -2.52506 0
M  V30 3974 H 362.797 1.17432 -2.91646 0
M  V30 3975 N 366.569 1.04691 -1.17803 0
M  V30 3976 C 367.499 2.14494 -0.92275 0
M  V30 3977 C 368.48 1.69546 0.137179 0
M  V30 3978 O 369.665 1.94195 -0.0141108 0
M  V30 3979 C 366.795 3.44491 -0.440803 0
M  V30 3980 C 365.749 4.03031 -1.4405 0
M  V30 3981 C 365.075 5.28432 -0.81631 0
M  V30 3982 C 366.375 4.39932 -2.81527 0
M  V30 3983 H 368.069 2.36107 -1.84103 0
M  V30 3984 H 365.615 1.1347 -0.886599 0
M  V30 3985 H 367.568 4.2066 -0.249602 0
M  V30 3986 H 366.292 3.22546 0.513025 0
M  V30 3987 H 364.951 3.28937 -1.61853 0
M  V30 3988 H 364.599 5.02792 0.144511 0
M  V30 3989 H 364.299 5.68559 -1.48371 0
M  V30 3990 H 365.823 6.07284 -0.635496 0
M  V30 3991 H 367.237 5.07113 -2.67412 0
M  V30 3992 H 365.634 4.9109 -3.44892 0
M  V30 3993 H 366.704 3.50045 -3.35554 0
M  V30 3994 N 368.047 0.979072 1.23499 0
M  V30 3995 C 368.98 0.463027 2.23453 0
M  V30 3996 C 369.958 -0.469128 1.55685 0
M  V30 3997 O 371.142 -0.397882 1.84253 0
M  V30 3998 C 368.269 -0.330308 3.37086 0
M  V30 3999 C 367.315 0.545795 4.22993 0
M  V30 4000 S 368.148 1.99285 4.97037 0
M  V30 4001 C 369.304 1.20862 6.1412 0
M  V30 4002 H 369.537 1.31005 2.6688 0
M  V30 4003 H 367.07 0.784965 1.32957 0
M  V30 4004 H 369.028 -0.782027 4.02982 0
M  V30 4005 H 367.689 -1.15244 2.92194 0
M  V30 4006 H 366.882 -0.0638928 5.03959 0
M  V30 4007 H 366.484 0.933705 3.62157 0
M  V30 4008 H 368.776 0.469284 6.75873 0
M  V30 4009 H 369.719 1.99307 6.79472 0
M  V30 4010 H 370.127 0.727992 5.59786 0
M  V30 4011 N 369.525 -1.3858 0.750561 0
M  V30 4012 C 370.435 -2.34278 0.122825 0
M  V30 4013 C 371.451 -1.59116 -0.704131 0
M  V30 4014 O 372.627 -1.91326 -0.628987 0
M  V30 4015 C 369.692 -3.38221 -0.762086 0
M  V30 4016 C 368.753 -4.29227 0.078896 0
M  V30 4017 C 367.986 -5.28205 -0.763874 0
M  V30 4018 O 368.209 -5.34112 -2.00201 0
M  V30 4019 O 367.143 -6.01618 -0.18428 0
M  V30 4020 H 370.969 -2.89649 0.913088 0
M  V30 4021 H 368.554 -1.40374 0.511417 0
M  V30 4022 H 370.436 -4.01872 -1.26793 0
M  V30 4023 H 369.111 -2.85211 -1.5309 0
M  V30 4024 H 368.018 -3.68747 0.630621 0
M  V30 4025 H 369.351 -4.85484 0.810289 0
M  V30 4026 N 371.003 -0.499398 -1.49478 0
M  V30 4027 C 371.95 0.279881 -2.29097 0
M  V30 4028 C 372.92 0.961805 -1.3542 0
M  V30 4029 O 374.105 0.968777 -1.64376 0
M  V30 4030 C 371.245 1.33932 -3.18051 0
M  V30 4031 C 370.358 0.669333 -4.26783 0
M  V30 4032 C 369.493 1.70907 -5.02955 0
M  V30 4033 C 368.532 1.02087 -6.03527 0
M  V30 4034 N 367.669 2.00474 -6.7287 0
M  V30 4035 H 372.509 -0.405317 -2.95231 0
M  V30 4036 H 370.046 -0.211726 -1.45568 0
M  V30 4037 H 372.004 1.96553 -3.67998 0
M  V30 4038 H 370.634 1.9933 -2.53904 0
M  V30 4039 H 369.686 -0.0701234 -3.80335 0
M  V30 4040 H 370.998 0.127503 -4.98637 0
M  V30 4041 H 370.152 2.41037 -5.56764 0
M  V30 4042 H 368.891 2.28476 -4.30871 0
M  V30 4043 H 367.896 0.305338 -5.48951 0
M  V30 4044 H 369.121 0.451708 -6.77596 0
M  V30 4045 H 367.067 2.57007 -6.03559 0
M  V30 4046 H 366.984 1.51353 -7.40694 0
M  V30 4047 H 368.252 2.69897 -7.31284 0
M  V30 4048 N 372.481 1.55866 -0.233164 0
M  V30 4049 C 373.892 1.847 0.272554 0
M  V30 4050 C 374.243 1.15477 1.58617 0
M  V30 4051 O 373.368 0.42841 2.12117 0
M  V30 4052 C 373.963 3.35071 0.501299 0
M  V30 4053 C 372.522 3.6418 0.951304 0
M  V30 4054 C 371.669 2.77292 0.0208209 0
M  V30 4055 H 374.62 1.52005 -0.456074 0
M  V30 4056 H 374.641 3.55906 1.34577 0
M  V30 4057 H 374.153 3.85424 -0.454936 0
M  V30 4058 H 372.254 3.19293 1.92049 0
M  V30 4059 H 372.367 4.72071 0.817675 0
M  V30 4060 H 370.731 2.49131 0.529723 0
M  V30 4061 H 371.514 3.30448 -0.93054 0
M  V30 4062 N 373.959 -0.0401083 1.57549 0
M  V30 4063 C 375.206 -0.733125 1.88763 0
M  V30 4064 C 375.534 -1.75946 0.829058 0
M  V30 4065 O 374.789 -1.94949 -0.171323 0
M  V30 4066 C 375.088 -1.44902 3.26708 0
M  V30 4067 C 374.754 -0.559707 4.47413 0
M  V30 4068 C 373.416 -0.314731 4.8017 0
M  V30 4069 C 375.768 0.0549743 5.21171 0
M  V30 4070 C 373.096 0.553886 5.8408 0
M  V30 4071 C 375.448 0.911229 6.26003 0
M  V30 4072 C 374.112 1.16577 6.57241 0
M  V30 4073 H 373.382 -0.268269 0.690733 0
M  V30 4074 H 376.029 0.00679408 1.91499 0
M  V30 4075 H 374.334 -2.26197 3.1991 0
M  V30 4076 H 376.031 -1.99058 3.48105 0
M  V30 4077 H 372.621 -0.760793 4.21794 0
M  V30 4078 H 376.805 -0.121344 4.96152 0
M  V30 4079 H 372.061 0.759518 6.06664 0
M  V30 4080 H 376.235 1.3941 6.82303 0
M  V30 4081 H 373.862 1.84058 7.37582 0
M  V30 4082 N 375.437 -1.54477 -0.31217 0
M  V30 4083 C 376.662 -1.77526 -1.07235 0
M  V30 4084 C 377.087 -0.527775 -1.80544 0
M  V30 4085 O 376.445 0.52121 -1.73646 0
M  V30 4086 C 376.493 -2.97535 -2.03728 0
M  V30 4087 O 375.597 -2.69878 -3.11833 0
M  V30 4088 H 374.938 -0.58792 -0.30862 0
M  V30 4089 H 377.468 -2.01532 -0.352993 0
M  V30 4090 H 377.478 -3.25198 -2.46395 0
M  V30 4091 H 376.153 -3.87996 -1.49774 0
M  V30 4092 H 374.73 -2.53199 -2.7376 0
M  V30 4093 N 376.915 0.57481 -1.46744 0
M  V30 4094 C 378.14 1.36341 -1.56288 0
M  V30 4095 C 378.565 1.86954 -0.207347 0
M  V30 4096 O 377.923 1.62006 0.813871 0
M  V30 4097 C 377.971 2.52147 -2.57787 0
M  V30 4098 O 377.075 3.53834 -2.11838 0
M  V30 4099 H 376.416 0.405713 -0.525636 0
M  V30 4100 H 378.946 0.696453 -1.92382 0
M  V30 4101 H 378.956 2.98958 -2.77648 0
M  V30 4102 H 377.631 2.14663 -3.5622 0
M  V30 4103 H 376.208 3.1345 -2.01999 0
M  V30 4104 N 378.394 1.34581 0.820102 0
M  V30 4105 C 379.64 1.27285 1.57881 0
M  V30 4106 C 379.973 -0.156137 1.93571 0
M  V30 4107 O 379.248 -1.10222 1.60254 0
M  V30 4108 C 379.531 2.16639 2.87645 0
M  V30 4109 C 379.384 3.68088 2.58517 0
M  V30 4110 C 380.703 2.05378 3.8924 0
M  V30 4111 H 377.822 0.463714 0.572833 0
M  V30 4112 H 380.464 1.64859 0.944539 0
M  V30 4113 H 378.614 1.84725 3.41773 0
M  V30 4114 H 380.286 4.10382 2.10676 0
M  V30 4115 H 378.529 3.89038 1.91917 0
M  V30 4116 H 379.2 4.2598 3.51063 0
M  V30 4117 H 381.676 2.33404 3.44473 0
M  V30 4118 H 380.552 2.7012 4.77835 0
M  V30 4119 H 380.813 1.0316 4.29896 0
M  V30 4120 N 379.872 -1.04064 1.18357 0
M  V30 4121 C 380.835 -2.10243 0.912707 0
M  V30 4122 C 381.835 -1.60477 -0.101928 0
M  V30 4123 O 383.025 -1.73703 0.131517 0
M  V30 4124 C 380.157 -3.38893 0.369387 0
M  V30 4125 H 381.35 -2.35706 1.85426 0
M  V30 4126 H 378.903 -1.20489 0.995594 0
M  V30 4127 H 379.638 -3.19094 -0.578776 0
M  V30 4128 H 379.423 -3.76331 1.1008 0
M  V30 4129 H 380.913 -4.17128 0.198575 0
M  V30 4130 N 381.35 -0.985608 -1.22978 0
M  V30 4131 C 382.313 -0.535071 -2.22867 0
M  V30 4132 C 383.313 0.378123 -1.56291 0
M  V30 4133 O 384.503 0.171092 -1.73358 0
M  V30 4134 C 381.635 0.222702 -3.40172 0
M  V30 4135 H 382.828 -1.41835 -2.6424 0
M  V30 4136 H 380.381 -0.772042 -1.35901 0
M  V30 4137 H 381.116 1.12229 -3.04262 0
M  V30 4138 H 380.901 -0.43288 -3.89703 0
M  V30 4139 H 382.391 0.526335 -4.1427 0
M  V30 4140 N 382.828 1.3818 -0.7579 0
M  V30 4141 C 383.775 2.30416 -0.133057 0
M  V30 4142 C 384.745 1.50398 0.704957 0
M  V30 4143 O 385.93 1.79014 0.660192 0
M  V30 4144 C 383.07 3.36834 0.750813 0
M  V30 4145 C 382.183 4.31879 -0.102297 0
M  V30 4146 C 381.318 5.25368 0.784979 0
M  V30 4147 C 380.357 6.12058 -0.0715046 0
M  V30 4148 N 379.494 6.97832 0.772972 0
M  V30 4149 H 384.334 2.83274 -0.925186 0
M  V30 4150 H 381.871 1.39461 -0.467866 0
M  V30 4151 H 383.829 3.97145 1.27794 0
M  V30 4152 H 382.459 2.85374 1.50868 0
M  V30 4153 H 381.511 3.72991 -0.747095 0
M  V30 4154 H 382.823 4.92921 -0.763552 0
M  V30 4155 H 381.977 5.90818 1.37911 0
M  V30 4156 H 380.716 4.64703 1.47996 0
M  V30 4157 H 379.721 5.456 -0.678272 0
M  V30 4158 H 380.946 6.74793 -0.763606 0
M  V30 4159 H 378.892 6.3971 1.45282 0
M  V30 4160 H 378.809 7.55812 0.168709 0
M  V30 4161 H 380.077 7.67687 1.35194 0
M  V30 4162 N 384.306 0.507319 1.49211 0
M  V30 4163 C 385.269 -0.256763 2.27757 0
M  V30 4164 C 386.269 -0.888287 1.34038 0
M  V30 4165 O 387.459 -0.751841 1.5714 0
M  V30 4166 C 384.591 -1.36905 3.12202 0
M  V30 4167 H 385.784 0.432557 2.96764 0
M  V30 4168 H 383.337 0.262488 1.5408 0
M  V30 4169 H 384.072 -2.09233 2.47775 0
M  V30 4170 H 383.857 -0.921599 3.81115 0
M  V30 4171 H 385.347 -1.9071 3.7151 0
M  V30 4172 N 385.784 -1.5574 0.241426 0
M  V30 4173 C 387.033 -1.97986 -0.385295 0
M  V30 4174 C 387.346 -1.13267 -1.59468 0
M  V30 4175 O 388.552 -1.45501 -2.2922 0
M  V30 4176 C 387.008 -3.52275 -0.736884 0
M  V30 4177 C 386.616 -4.45726 0.450796 0
M  V30 4178 C 388.36 -4.03189 -1.3281 0
M  V30 4179 C 386.267 -5.91352 0.0756662 0
M  V30 4180 H 385.197 -0.739386 -0.147731 0
M  V30 4181 H 387.848 -1.80308 0.340779 0
M  V30 4182 H 386.23 -3.65628 -1.52094 0
M  V30 4183 H 387.404 -4.44131 1.22819 0
M  V30 4184 H 385.719 -4.05264 0.956573 0
M  V30 4185 H 388.316 -5.09505 -1.62201 0
M  V30 4186 H 388.659 -3.50212 -2.25071 0
M  V30 4187 H 389.192 -3.93141 -0.607069 0
M  V30 4188 H 385.931 -6.48354 0.965272 0
M  V30 4189 H 385.451 -5.96095 -0.665635 0
M  V30 4190 H 387.13 -6.46084 -0.344075 0
M  V30 4191 N 387.262 0.0317525 -1.57568 0
M  V30 4192 C 388.51 0.721676 -1.88776 0
M  V30 4193 C 388.831 1.76039 -0.838772 0
M  V30 4194 O 388.101 1.95482 0.127935 0
M  V30 4195 H 386.681 0.269534 -0.696678 0
M  V30 4196 H 389.343 -0.00165879 -1.949 0
M  V30 4197 H 388.439 1.21293 -2.87566 0
M  V30 4198 N 388.74 1.54641 0.303973 0
M  V30 4199 C 389.986 1.74038 1.04109 0
M  V30 4200 C 390.319 0.523051 1.87024 0
M  V30 4201 O 389.594 -0.479874 1.88487 0
M  V30 4202 C 389.877 3.02761 1.94955 0
M  V30 4203 C 389.73 4.34787 1.1524 0
M  V30 4204 C 391.049 3.27336 2.94175 0
M  V30 4205 H 388.168 0.63323 0.377079 0
M  V30 4206 H 390.81 1.87354 0.316001 0
M  V30 4207 H 388.96 2.9154 2.56782 0
M  V30 4208 H 390.632 4.57922 0.557236 0
M  V30 4209 H 388.875 4.31407 0.455053 0
M  V30 4210 H 389.546 5.21116 1.8205 0
M  V30 4211 H 392.022 3.38148 2.42477 0
M  V30 4212 H 390.898 4.18726 3.54908 0
M  V30 4213 H 391.159 2.45491 3.67677 0
M  V30 4214 N 390.218 -0.567019 1.47046 0
M  V30 4215 C 391.181 -1.65696 1.58359 0
M  V30 4216 C 392.181 -1.54097 0.459441 0
M  V30 4217 O 393.371 -1.58432 0.724225 0
M  V30 4218 C 390.503 -3.05197 1.51879 0
M  V30 4219 H 391.696 -1.57019 2.5551 0
M  V30 4220 H 389.249 -0.786148 1.3509 0
M  V30 4221 H 389.984 -3.19417 0.560673 0
M  V30 4222 H 389.769 -3.15025 2.33455 0
M  V30 4223 H 391.259 -3.84511 1.62913 0
M  V30 4224 N 391.696 -1.35014 -0.812953 0
M  V30 4225 C 392.921 -1.31187 -1.60639 0
M  V30 4226 C 393.346 0.109382 -1.87782 0
M  V30 4227 O 392.704 1.07424 -1.46047 0
M  V30 4228 C 392.752 -2.11809 -2.91838 0
M  V30 4229 O 391.856 -1.49444 -3.8437 0
M  V30 4230 H 391.197 -0.450084 -0.488181 0
M  V30 4231 H 393.727 -1.77963 -1.00947 0
M  V30 4232 H 393.737 -2.23531 -3.41318 0
M  V30 4233 H 392.412 -3.15137 -2.71407 0
M  V30 4234 H 390.989 -1.46524 -3.42907 0
M  V30 4235 N 393.175 1.03435 -1.18907 0
M  V30 4236 C 394.4 1.80919 -1.01406 0
M  V30 4237 C 394.825 1.83055 0.432721 0
M  V30 4238 O 394.183 1.25252 1.31079 0
M  V30 4239 C 394.231 3.24091 -1.58105 0
M  V30 4240 O 393.335 4.04434 -0.806669 0
M  V30 4241 H 392.676 0.558709 -0.358803 0
M  V30 4242 H 395.206 1.30223 -1.57807 0
M  V30 4243 H 395.216 3.74853 -1.61087 0
M  V30 4244 H 393.891 3.21851 -2.6341 0
M  V30 4245 H 392.468 3.63091 -0.849666 0
M  V30 4246 N 394.653 0.992116 1.22453 0
M  V30 4247 C 395.881 0.685944 1.95198 0
M  V30 4248 C 396.296 -0.749233 1.73297 0
M  V30 4249 O 395.653 -1.50549 1.03156 0
M  V30 4250 C 395.704 0.981395 3.47924 0
M  V30 4251 O 395.425 2.36018 3.6909 0
M  V30 4252 C 396.926 0.692815 4.37853 0
M  V30 4253 H 394.146 0.253821 0.621141 0
M  V30 4254 H 396.69 1.32668 1.55626 0
M  V30 4255 H 394.845 0.386481 3.85467 0
M  V30 4256 H 395.259 2.45884 4.63294 0
M  V30 4257 H 396.733 0.949818 5.43767 0
M  V30 4258 H 397.21 -0.373181 4.37612 0
M  V30 4259 H 397.816 1.26874 4.05935 0
M  V30 4260 N 396.131 -1.37776 0.765217 0
M  V30 4261 C 397.378 -1.99849 0.326588 0
M  V30 4262 C 397.706 -1.60746 -1.09504 0
M  V30 4263 O 396.961 -0.84202 -1.76659 0
M  V30 4264 C 397.26 -3.5504 0.410053 0
M  V30 4265 C 396.926 -4.13891 1.78899 0
M  V30 4266 C 395.588 -4.29678 2.16635 0
M  V30 4267 C 397.94 -4.46236 2.69301 0
M  V30 4268 C 395.268 -4.7511 3.44221 0
M  V30 4269 C 397.62 -4.93089 3.9629 0
M  V30 4270 C 396.284 -5.07082 4.34078 0
M  V30 4271 H 395.554 -0.7313 0.119507 0
M  V30 4272 H 398.201 -1.64645 0.977968 0
M  V30 4273 H 396.506 -3.90451 -0.324878 0
M  V30 4274 H 398.203 -4.00966 0.0520699 0
M  V30 4275 H 394.793 -4.02026 1.48569 0
M  V30 4276 H 398.977 -4.3363 2.41409 0
M  V30 4277 H 394.233 -4.84129 3.73402 0
M  V30 4278 H 398.407 -5.17084 4.66472 0
M  V30 4279 H 396.034 -5.42046 5.33001 0
M  V30 4280 N 397.609 -0.515225 -1.4894 0
M  V30 4281 C 398.855 0.0242508 -2.02785 0
M  V30 4282 C 399.188 1.35323 -1.39289 0
M  V30 4283 O 398.463 1.87041 -0.533469 0
M  V30 4284 C 398.746 0.16184 -3.59736 0
M  V30 4285 C 398.599 -1.19127 -4.33738 0
M  V30 4286 C 399.918 0.895719 -4.30888 0
M  V30 4287 H 397.037 0.00733914 -0.736963 0
M  V30 4288 H 399.679 -0.669395 -1.77818 0
M  V30 4289 H 397.829 0.752624 -3.8114 0
M  V30 4290 H 399.501 -1.82202 -4.23792 0
M  V30 4291 H 397.744 -1.77695 -3.95736 0
M  V30 4292 H 398.415 -1.04815 -5.41957 0
M  V30 4293 H 400.891 0.394528 -4.14225 0
M  V30 4294 H 399.767 0.960859 -5.40425 0
M  V30 4295 H 400.028 1.9427 -3.97129 0
M  V30 4296 N 399.087 1.5561 -0.249682 0
M  V30 4297 C 400.017 2.24477 0.642826 0
M  V30 4298 C 400.998 1.22601 1.17911 0
M  V30 4299 O 402.183 1.5126 1.21795 0
M  V30 4300 C 399.313 2.94638 1.83863 0
M  V30 4301 C 398.267 4.03227 1.435 0
M  V30 4302 C 397.593 4.60828 2.71186 0
M  V30 4303 C 398.893 5.18796 0.604002 0
M  V30 4304 H 400.587 2.99321 0.0685625 0
M  V30 4305 H 398.133 1.43965 0.0315363 0
M  V30 4306 H 400.086 3.41517 2.46868 0
M  V30 4307 H 398.81 2.17287 2.43832 0
M  V30 4308 H 397.469 3.57121 0.828275 0
M  V30 4309 H 397.117 3.80174 3.29358 0
M  V30 4310 H 396.817 5.34132 2.44901 0
M  V30 4311 H 398.341 5.10442 3.35084 0
M  V30 4312 H 399.755 5.61883 1.13842 0
M  V30 4313 H 398.152 5.98506 0.437097 0
M  V30 4314 H 399.222 4.83384 -0.383147 0
M  V30 4315 N 400.565 -0.0233959 1.57583 0
M  V30 4316 C 401.811 -0.714119 1.89811 0
M  V30 4317 C 402.144 -1.74702 0.848113 0
M  V30 4318 O 401.419 -1.94023 -0.136135 0
M  V30 4319 C 401.702 -1.37853 3.32669 0
M  V30 4320 C 401.555 -0.358764 4.48367 0
M  V30 4321 C 402.874 -2.31101 3.7454 0
M  V30 4322 H 399.993 -0.25814 0.690314 0
M  V30 4323 H 402.635 0.0230927 1.89986 0
M  V30 4324 H 400.785 -2.00689 3.3265 0
M  V30 4325 H 402.457 0.268115 4.6052 0
M  V30 4326 H 400.7 0.321387 4.32608 0
M  V30 4327 H 401.371 -0.862242 5.45224 0
M  V30 4328 H 403.847 -1.78304 3.75961 0
M  V30 4329 H 402.723 -2.74567 4.75294 0
M  V30 4330 H 402.984 -3.18018 3.0711 0
M  V30 4331 N 402.043 -1.548 -0.295768 0
M  V30 4332 C 403.268 -1.78653 -1.05346 0
M  V30 4333 C 403.693 -0.546894 -1.79974 0
M  V30 4334 O 403.051 0.502763 -1.7419 0
M  V30 4335 C 403.099 -2.99679 -2.00561 0
M  V30 4336 O 402.203 -2.7317 -3.08953 0
M  V30 4337 H 401.544 -0.59116 -0.302367 0
M  V30 4338 H 404.074 -2.01895 -0.331598 0
M  V30 4339 H 404.084 -3.27793 -2.42932 0
M  V30 4340 H 402.759 -3.89562 -1.4565 0
M  V30 4341 H 401.336 -2.56089 -2.71059 0
M  V30 4342 N 403.521 0.559213 -1.47345 0
M  V30 4343 C 404.767 1.31843 -1.54095 0
M  V30 4344 C 405.1 1.93149 -0.201726 0
M  V30 4345 O 404.375 1.77759 0.789428 0
M  V30 4346 C 404.658 2.43006 -2.65744 0
M  V30 4347 C 404.511 1.86581 -4.09277 0
M  V30 4348 C 405.83 3.44943 -2.73318 0
M  V30 4349 H 402.949 0.478012 -0.560957 0
M  V30 4350 H 405.591 0.625977 -1.79392 0
M  V30 4351 H 403.741 3.02072 -2.44305 0
M  V30 4352 H 405.413 1.31792 -4.42073 0
M  V30 4353 H 403.656 1.17268 -4.17649 0
M  V30 4354 H 404.327 2.66933 -4.83168 0
M  V30 4355 H 406.803 2.95793 -2.92653 0
M  V30 4356 H 405.679 4.20153 -3.53218 0
M  V30 4357 H 405.94 4.03665 -1.80296 0
M  V30 4358 N 404.999 1.35443 0.805782 0
M  V30 4359 C 406.245 1.28952 1.56522 0
M  V30 4360 C 406.578 -0.135597 1.93726 0
M  V30 4361 O 405.853 -1.08516 1.61414 0
M  V30 4362 C 406.136 2.19678 2.85331 0
M  V30 4363 C 405.989 3.7081 2.54598 0
M  V30 4364 C 407.308 2.09495 3.8704 0
M  V30 4365 H 404.427 0.469764 0.567883 0
M  V30 4366 H 407.069 1.65851 0.927001 0
M  V30 4367 H 405.219 1.8834 3.39795 0
M  V30 4368 H 406.891 4.12593 2.06312 0
M  V30 4369 H 405.134 3.91051 1.8778 0
M  V30 4370 H 405.805 4.29679 3.46525 0
M  V30 4371 H 408.281 2.37045 3.41978 0
M  V30 4372 H 407.157 2.75173 4.74943 0
M  V30 4373 H 407.418 1.07714 4.28777 0
M  V30 4374 N 406.477 -1.02803 1.19454 0
M  V30 4375 C 407.44 -2.09264 0.934955 0
M  V30 4376 C 408.44 -1.60576 -0.0849015 0
M  V30 4377 O 409.63 -1.73554 0.149933 0
M  V30 4378 C 406.762 -3.38482 0.40531 0
M  V30 4379 H 407.955 -2.33726 1.87916 0
M  V30 4380 H 405.508 -1.19426 1.00832 0
M  V30 4381 H 406.243 -3.19689 -0.544899 0
M  V30 4382 H 406.028 -3.75142 1.14065 0
M  V30 4383 H 407.518 -4.16894 0.242806 0
M  V30 4384 N 407.956 -0.998596 -1.21925 0
M  V30 4385 C 408.886 -0.573688 -2.26343 0
M  V30 4386 C 409.867 0.402296 -1.65274 0
M  V30 4387 O 411.052 0.291683 -1.91997 0
M  V30 4388 C 408.182 0.106839 -3.47136 0
M  V30 4389 C 407.136 -0.788269 -4.20678 0
M  V30 4390 C 406.462 0.0254927 -5.34694 0
M  V30 4391 C 407.762 -2.08784 -4.78755 0
M  V30 4392 H 409.456 -1.44651 -2.62138 0
M  V30 4393 H 407.002 -0.696975 -1.26009 0
M  V30 4394 H 408.955 0.415531 -4.19346 0
M  V30 4395 H 407.679 1.01424 -3.10452 0
M  V30 4396 H 406.338 -1.08069 -3.50309 0
M  V30 4397 H 405.986 0.933989 -4.94253 0
M  V30 4398 H 405.686 -0.570437 -5.84825 0
M  V30 4399 H 407.21 0.328147 -6.09718 0
M  V30 4400 H 408.624 -1.84272 -5.42878 0
M  V30 4401 H 407.021 -2.63307 -5.39249 0
M  V30 4402 H 408.091 -2.76284 -3.98491 0
M  V30 4403 N 409.434 1.37368 -0.772513 0
M  V30 4404 C 410.397 2.28601 -0.165541 0
M  V30 4405 C 411.397 1.48062 0.627238 0
M  V30 4406 O 412.587 1.68268 0.450715 0
M  V30 4407 C 409.719 3.32023 0.772897 0
M  V30 4408 H 410.912 2.83787 -0.969787 0
M  V30 4409 H 408.465 1.46647 -0.540775 0
M  V30 4410 H 409.2 2.81962 1.60212 0
M  V30 4411 H 408.985 3.91555 0.206585 0
M  V30 4412 H 410.475 4.00197 1.19298 0
M  V30 4413 N 410.912 0.523116 1.48665 0
M  V30 4414 C 411.842 -0.23231 2.32342 0
M  V30 4415 C 412.823 -0.941637 1.41659 0
M  V30 4416 O 414.008 -0.928751 1.70552 0
M  V30 4417 C 411.138 -1.28387 3.22698 0
M  V30 4418 C 410.092 -0.693098 4.22351 0
M  V30 4419 C 409.418 -1.8468 5.01794 0
M  V30 4420 C 410.718 0.33063 5.21252 0
M  V30 4421 H 412.412 0.466192 2.95748 0
M  V30 4422 H 409.958 0.225643 1.42221 0
M  V30 4423 H 411.911 -1.82024 3.80059 0
M  V30 4424 H 410.635 -2.01186 2.57278 0
M  V30 4425 H 409.294 -0.178299 3.66166 0
M  V30 4426 H 408.942 -2.56301 4.32804 0
M  V30 4427 H 408.642 -1.45747 5.69238 0
M  V30 4428 H 410.166 -2.38709 5.62006 0
M  V30 4429 H 411.58 -0.118407 5.73178 0
M  V30 4430 H 409.977 0.636974 5.9671 0
M  V30 4431 H 411.047 1.23883 4.68808 0
M  V30 4432 N 412.39 -1.55475 0.257931 0
M  V30 4433 C 413.338 -2.23244 -0.653076 0
M  V30 4434 C 414.332 -1.22366 -1.17144 0
M  V30 4435 O 415.538 -1.40347 -1.12706 0
M  V30 4436 H 411.913 -0.716247 -0.229117 0
M  V30 4437 H 413.884 -2.98343 -0.0584788 0
M  V30 4438 C 412.633 -2.95401 -1.83395 0
M  V30 4439 H 411.956 -3.72802 -1.44424 0
M  V30 4440 H 413.396 -3.46165 -2.44838 0
M  V30 4441 C 411.855 -1.99895 -2.71189 0
M  V30 4442 O 412.385 -1.53909 -3.71046 0
M  V30 4443 N 410.591 -1.6676 -2.3799 0
M  V30 4444 H 410.138 -2.04352 -1.56837 0
M  V30 4445 H 410.096 -1.03127 -2.97005 0
M  V30 4446 N 413.868 0.0150385 -1.57593 0
M  V30 4447 C 415.096 0.714395 -1.94175 0
M  V30 4448 C 415.511 1.68135 -0.858841 0
M  V30 4449 O 414.868 1.81766 0.163567 0
M  V30 4450 C 414.919 1.45933 -3.30735 0
M  V30 4451 O 414.64 0.531167 -4.34868 0
M  V30 4452 C 416.141 2.25456 -3.81686 0
M  V30 4453 H 413.361 0.199923 -0.640525 0
M  V30 4454 H 415.905 -0.0316096 -2.04476 0
M  V30 4455 H 414.06 2.15709 -3.21789 0
M  V30 4456 H 414.474 1.05509 -5.13778 0
M  V30 4457 H 415.948 2.731 -4.79709 0
M  V30 4458 H 416.425 3.07485 -3.13607 0
M  V30 4459 H 417.031 1.60727 -3.9376 0
M  V30 4460 N 415.346 1.54954 0.287554 0
M  V30 4461 C 416.592 1.75132 1.02257 0
M  V30 4462 C 416.925 0.542858 1.86458 0
M  V30 4463 O 416.2 -0.459856 1.88986 0
M  V30 4464 C 416.483 3.04812 1.91733 0
M  V30 4465 C 416.336 4.35985 1.10622 0
M  V30 4466 C 417.655 3.30438 2.90687 0
M  V30 4467 H 414.774 0.637194 0.370341 0
M  V30 4468 H 417.416 1.87678 0.296111 0
M  V30 4469 H 415.566 2.94247 2.53675 0
M  V30 4470 H 417.238 4.58487 0.508636 0
M  V30 4471 H 415.481 4.31865 0.409271 0
M  V30 4472 H 416.152 5.23017 1.76513 0
M  V30 4473 H 418.628 3.40701 2.38877 0
M  V30 4474 H 417.504 4.22467 3.50447 0
M  V30 4475 H 417.765 2.49377 3.65053 0
M  V30 4476 N 416.824 -0.551391 1.4764 0
M  V30 4477 C 417.734 -1.68525 1.63207 0
M  V30 4478 C 418.75 -1.6621 0.514815 0
M  V30 4479 O 419.926 -1.85551 0.783113 0
M  V30 4480 C 416.991 -3.05025 1.64805 0
M  V30 4481 C 416.052 -3.18362 2.88 0
M  V30 4482 C 415.285 -4.4835 2.89513 0
M  V30 4483 O 415.508 -5.34163 2.00065 0
M  V30 4484 O 414.442 -4.65602 3.81443 0
M  V30 4485 H 418.268 -1.58333 2.59161 0
M  V30 4486 H 415.853 -0.722063 1.30792 0
M  V30 4487 H 417.735 -3.86245 1.68502 0
M  V30 4488 H 416.41 -3.15587 0.720197 0
M  V30 4489 H 415.317 -2.36518 2.89845 0
M  V30 4490 H 416.65 -3.12707 3.80099 0
M  V30 4491 N 418.302 -1.35869 -0.798587 0
M  V30 4492 C 419.212 -1.31578 -1.94228 0
M  V30 4493 C 420.228 -0.21939 -1.72611 0
M  V30 4494 O 421.404 -0.450167 -1.96305 0
M  V30 4495 C 418.469 -1.09528 -3.28944 0
M  V30 4496 C 417.53 -2.28556 -3.63402 0
M  V30 4497 C 416.763 -2.07549 -4.9169 0
M  V30 4498 O 416.986 -1.046 -5.60727 0
M  V30 4499 O 415.92 -2.95106 -5.24591 0
M  V30 4500 H 419.746 -2.27847 -2.00796 0
M  V30 4501 H 417.331 -1.16322 -0.937526 0
M  V30 4502 H 419.213 -0.991127 -4.09579 0
M  V30 4503 H 417.888 -0.16315 -3.23289 0
M  V30 4504 H 416.795 -2.44538 -2.83112 0
M  V30 4505 H 418.128 -3.20244 -3.73771 0
M  V30 4506 N 419.78 1.02168 -1.19998 0
M  V30 4507 C 420.713 2.10232 -0.887558 0
M  V30 4508 C 421.691 1.61827 0.158317 0
M  V30 4509 O 422.875 1.88471 0.0330249 0
M  V30 4510 C 420.002 3.37092 -0.32964 0
M  V30 4511 C 419.048 4.0438 -1.3557 0
M  V30 4512 S 419.881 4.48956 -2.91888 0
M  V30 4513 C 421.037 5.79024 -2.37658 0
M  V30 4514 H 421.27 2.36409 -1.80272 0
M  V30 4515 H 418.803 1.15211 -1.0279 0
M  V30 4516 H 420.761 4.10498 -0.0142824 0
M  V30 4517 H 419.422 3.08996 0.563941 0
M  V30 4518 H 418.615 4.95632 -0.9146 0
M  V30 4519 H 418.217 3.37176 -1.61828 0
M  V30 4520 H 420.509 6.53942 -1.77103 0
M  V30 4521 H 421.452 6.27924 -3.27287 0
M  V30 4522 H 421.86 5.35043 -1.79971 0
M  V30 4523 N 421.258 1.00505 1.21394 0
M  V30 4524 C 422.19 0.52372 2.23136 0
M  V30 4525 C 423.203 -0.387714 1.58116 0
M  V30 4526 O 424.392 -0.187905 1.77508 0
M  V30 4527 C 421.492 -0.258885 3.3791 0
M  V30 4528 C 420.665 0.651634 4.32519 0
M  V30 4529 C 419.724 -0.0813705 5.26137 0
M  V30 4530 O 418.75 0.537295 5.66658 0
M  V30 4531 N 419.952 -1.35992 5.64346 0
M  V30 4532 H 422.717 1.39865 2.65062 0
M  V30 4533 H 420.278 0.881196 1.35818 0
M  V30 4534 H 422.27 -0.758208 3.97534 0
M  V30 4535 H 420.84 -1.035 2.94968 0
M  V30 4536 H 420.06 1.33145 3.71034 0
M  V30 4537 H 421.348 1.27129 4.92662 0
M  V30 4538 H 420.746 -1.88368 5.33417 0
M  V30 4539 H 419.303 -1.8042 6.26332 0
M  V30 4540 N 422.737 -1.36956 0.779787 0
M  V30 4541 C 423.669 -2.28833 0.129639 0
M  V30 4542 C 424.682 -1.4902 -0.655511 0
M  V30 4543 O 425.871 -1.71578 -0.492279 0
M  V30 4544 C 422.971 -3.2833 -0.839792 0
M  V30 4545 C 422.144 -4.3727 -0.10675 0
M  V30 4546 C 421.203 -5.16789 -0.990717 0
M  V30 4547 O 420.229 -5.67406 -0.451516 0
M  V30 4548 N 421.431 -5.32294 -2.3161 0
M  V30 4549 H 424.196 -2.85268 0.918803 0
M  V30 4550 H 421.757 -1.49019 0.632841 0
M  V30 4551 H 423.749 -3.78413 -1.43477 0
M  V30 4552 H 422.319 -2.72605 -1.52988 0
M  V30 4553 H 421.539 -3.88478 0.669216 0
M  V30 4554 H 422.827 -5.07229 0.399464 0
M  V30 4555 H 422.225 -4.92768 -2.77843 0
M  V30 4556 H 420.782 -5.85656 -2.86095 0
M  V30 4557 N 424.215 -0.530993 -1.48385 0
M  V30 4558 C 425.165 0.251092 -2.26613 0
M  V30 4559 C 426.149 0.908977 -1.32765 0
M  V30 4560 O 427.341 0.811616 -1.57295 0
M  V30 4561 C 424.47 1.29677 -3.17866 0
M  V30 4562 C 423.556 0.643627 -4.19188 0
M  V30 4563 N 423.947 -0.271223 -5.05072 0
M  V30 4564 C 422.245 0.900711 -4.3681 0
M  V30 4565 C 422.946 -0.648109 -5.78078 0
M  V30 4566 N 421.922 -0.00895987 -5.43599 0
M  V30 4567 H 425.724 -0.452702 -2.90393 0
M  V30 4568 H 423.238 -0.349091 -1.58604 0
M  V30 4569 H 425.235 1.87079 -3.72568 0
M  V30 4570 H 423.895 2.00193 -2.55642 0
M  V30 4571 H 424.906 -0.643883 -5.13882 0
M  V30 4572 H 421.583 1.59636 -3.85775 0
M  V30 4573 H 422.973 -1.39833 -6.57188 0
M  V30 4574 N 425.693 1.55336 -0.266172 0
M  V30 4575 C 426.918 2.04258 0.359661 0
M  V30 4576 C 427.343 1.14359 1.49344 0
M  V30 4577 O 426.701 0.140369 1.80756 0
M  V30 4578 C 426.749 3.50997 0.826635 0
M  V30 4579 O 425.853 3.64204 1.93466 0
M  V30 4580 H 425.194 0.659668 0.075727 0
M  V30 4581 H 427.724 2.00694 -0.39786 0
M  V30 4582 H 427.734 3.9219 1.12477 0
M  V30 4583 H 426.409 4.159 -0.00293032 0
M  V30 4584 H 424.986 3.34913 1.63974 0
M  V30 4585 N 427.171 -0.0066808 1.57599 0
M  V30 4586 C 428.419 -0.691552 1.899 0
M  V30 4587 C 428.74 -1.74682 0.866672 0
M  V30 4588 O 428.01 -1.95661 -0.0968189 0
M  V30 4589 H 426.59 -0.258416 0.700878 0
M  V30 4590 H 429.252 0.0326655 1.94873 0
M  V30 4591 H 428.348 -1.16702 2.8946 0
M  V30 4592 N 428.649 -1.55105 -0.279332 0
M  V30 4593 C 429.581 -1.83952 -1.36727 0
M  V30 4594 C 430.594 -0.723642 -1.45833 0
M  V30 4595 O 431.783 -1.00141 -1.47763 0
M  V30 4596 C 428.883 -1.98183 -2.74912 0
M  V30 4597 C 428.056 -3.28787 -2.88475 0
M  V30 4598 C 427.115 -3.33162 -4.07295 0
M  V30 4599 O 426.141 -4.06576 -3.98353 0
M  V30 4600 N 427.343 -2.60109 -5.18964 0
M  V30 4601 H 430.108 -2.77853 -1.12328 0
M  V30 4602 H 427.669 -1.54945 -0.469442 0
M  V30 4603 H 429.661 -1.98488 -3.52682 0
M  V30 4604 H 428.231 -1.11177 -2.92162 0
M  V30 4605 H 427.451 -3.41075 -1.97641 0
M  V30 4606 H 428.739 -4.14933 -2.94463 0
M  V30 4607 H 428.137 -2.00136 -5.29115 0
M  V30 4608 H 426.694 -2.66143 -5.94988 0
M  V30 4609 N 430.127 0.543554 -1.4793 0
M  V30 4610 C 431.375 1.29752 -1.54948 0
M  V30 4611 C 431.696 1.93764 -0.219242 0
M  V30 4612 O 430.966 1.80639 0.75805 0
M  V30 4613 H 429.546 0.481874 -0.570795 0
M  V30 4614 H 432.208 0.633636 -1.84312 0
M  V30 4615 H 431.304 2.08392 -2.32334 0
M  V30 4616 N 431.605 1.3629 0.791371 0
M  V30 4617 C 432.515 1.32606 1.93527 0
M  V30 4618 C 433.531 0.228541 1.72493 0
M  V30 4619 O 434.707 0.460571 1.96063 0
M  V30 4620 C 431.772 1.11271 3.28359 0
M  V30 4621 C 430.833 2.3048 3.62185 0
M  V30 4622 C 430.066 2.10154 4.90583 0
M  V30 4623 O 430.289 1.07572 5.60165 0
M  V30 4624 O 429.223 2.97884 5.23019 0
M  V30 4625 H 433.049 2.28909 1.99585 0
M  V30 4626 H 430.634 1.16818 0.931344 0
M  V30 4627 H 432.516 1.01283 4.09047 0
M  V30 4628 H 431.191 0.180292 3.23198 0
M  V30 4629 H 430.098 2.46036 2.81811 0
M  V30 4630 H 431.431 3.22221 3.72068 0
M  V30 4631 N 433.083 -1.0153 1.20538 0
M  V30 4632 C 434.331 -1.74803 1.01432 0
M  V30 4633 C 434.652 -1.8963 -0.454456 0
M  V30 4634 O 433.922 -1.43975 -1.32846 0
M  V30 4635 H 432.502 -0.647598 0.372324 0
M  V30 4636 H 435.164 -1.22402 1.5167 0
M  V30 4637 H 434.26 -2.75114 1.47373 0
M  V30 4638 N 434.561 -1.01147 -1.20859 0
M  V30 4639 C 435.809 -0.696486 -1.89719 0
M  V30 4640 C 436.13 0.775788 -1.78904 0
M  V30 4641 O 435.4 1.55759 -1.18811 0
M  V30 4642 H 433.98 -0.254628 -0.702263 0
M  V30 4643 H 436.642 -1.28197 -1.46804 0
M  V30 4644 H 435.738 -0.975357 -2.96468 0
M  V30 4645 N 436.039 1.36541 -0.78704 0
M  V30 4646 C 437.45 1.81873 -0.421807 0
M  V30 4647 C 437.801 1.65487 1.05397 0
M  V30 4648 O 436.926 1.17448 1.81755 0
M  V30 4649 C 437.521 3.30192 -0.758841 0
M  V30 4650 C 436.08 3.73743 -0.446468 0
M  V30 4651 C 435.227 2.58844 -0.994728 0
M  V30 4652 H 438.178 1.24796 -0.98039 0
M  V30 4653 H 438.199 3.80468 -0.0490648 0
M  V30 4654 H 437.711 3.42087 -1.83299 0
M  V30 4655 H 435.812 3.6741 0.619739 0
M  V30 4656 H 435.925 4.69272 -0.965415 0
M  V30 4657 H 434.289 2.51245 -0.418087 0
M  V30 4658 H 435.072 2.73525 -2.07458 0
M  V30 4659 N 437.518 0.538854 1.48102 0
M  V30 4660 C 438.795 -0.0568108 1.95517 0
M  V30 4661 C 439.175 -1.50408 1.48124 0
M  V30 4662 O 438.523 -2.17133 0.711727 0
M  V30 4663 C 438.733 0.0696262 3.48931 0
M  V30 4664 C 440.081 -0.0851202 4.24515 0
M  V30 4665 O 441.105 -0.0037347 3.562 0
M  V30 4666 O 439.964 -0.257025 5.45895 0
M  V30 4667 H 437.058 -0.0743695 0.823649 0
M  V30 4668 H 439.604 0.604081 1.58584 0
M  V30 4669 H 438.376 1.07744 3.76174 0
M  V30 4670 H 437.999 -0.629714 3.92582 0
M  V30 4671 N 438.996 -1.55193 0.274407 0
M  V30 4672 C 439.926 -2.25471 -0.607032 0
M  V30 4673 C 440.907 -1.24461 -1.15946 0
M  V30 4674 O 442.092 -1.53179 -1.19373 0
M  V30 4675 C 439.222 -2.97526 -1.79153 0
M  V30 4676 C 438.176 -4.05459 -1.37067 0
M  V30 4677 C 437.502 -4.65084 -2.6382 0
M  V30 4678 C 438.802 -5.19691 -0.521389 0
M  V30 4679 H 440.496 -2.99393 -0.0209343 0
M  V30 4680 H 438.042 -1.43997 -0.00862866 0
M  V30 4681 H 439.995 -3.45402 -2.41404 0
M  V30 4682 H 438.719 -2.21138 -2.40344 0
M  V30 4683 H 437.378 -3.58393 -0.771355 0
M  V30 4684 H 437.026 -3.85365 -3.23268 0
M  V30 4685 H 436.726 -5.37961 -2.36372 0
M  V30 4686 H 438.25 -5.15708 -3.26921 0
M  V30 4687 H 439.664 -5.63623 -1.04889 0
M  V30 4688 H 438.061 -5.99126 -0.341825 0
M  V30 4689 H 439.131 -4.82713 0.46 0
M  V30 4690 N 440.474 -0.00167713 -1.576 0
M  V30 4691 C 441.89 0.354422 -1.55615 0
M  V30 4692 C 442.09 1.74679 -1.00447 0
M  V30 4693 O 441.146 2.4428 -0.639022 0
M  V30 4694 C 442.459 0.22812 -2.99833 0
M  V30 4695 C 444.007 0.302934 -3.11531 0
M  V30 4696 C 444.482 0.205737 -4.57538 0
M  V30 4697 N 445.973 0.263584 -4.62449 0
M  V30 4698 C 446.708 0.211742 -5.73009 0
M  V30 4699 N 446.204 0.110399 -6.92712 0
M  V30 4700 N 447.997 0.263729 -5.61481 0
M  V30 4701 H 440.148 -0.912498 -1.918 0
M  V30 4702 H 442.411 -0.349928 -0.881053 0
M  V30 4703 H 442.117 -0.729934 -3.44042 0
M  V30 4704 H 441.991 1.00951 -3.6344 0
M  V30 4705 H 444.378 1.25143 -2.67251 0
M  V30 4706 H 444.459 -0.508357 -2.50698 0
M  V30 4707 H 444.103 -0.739225 -5.02492 0
M  V30 4708 H 444.033 1.03554 -5.16318 0
M  V30 4709 H 446.524 0.343173 -3.76339 0
M  V30 4710 H 446.837 0.0767828 -7.72762 0
M  V30 4711 H 445.182 0.0760025 -6.94958 0
M  V30 4712 H 448.373 0.34111 -4.66855 0
M  V30 4713 H 448.546 0.219862 -6.47627 0
M  V30 4714 N 441.952 1.55251 0.271103 0
M  V30 4715 C 443.363 1.66635 0.842007 0
M  V30 4716 C 443.714 0.594631 1.86972 0
M  V30 4717 O 442.839 -0.263532 2.14789 0
M  V30 4718 C 443.434 3.02082 1.53401 0
M  V30 4719 C 441.993 3.15487 2.05293 0
M  V30 4720 C 441.14 2.62438 0.895631 0
M  V30 4721 H 444.091 1.58629 0.0474117 0
M  V30 4722 H 444.112 2.95176 2.40107 0
M  V30 4723 H 443.624 3.80062 0.785786 0
M  V30 4724 H 441.725 2.42284 2.83071 0
M  V30 4725 H 441.838 4.22075 2.26693 0
M  V30 4726 H 440.202 2.19644 1.28953 0
M  V30 4727 H 440.985 3.42923 0.160878 0
M  V30 4728 N 443.43 -0.535701 1.48216 0
M  V30 4729 C 444.679 -1.28828 1.55197 0
M  V30 4730 C 444.992 -1.94263 0.228278 0
M  V30 4731 O 446.198 -2.70927 0.176278 0
M  V30 4732 C 444.654 -2.33727 2.73678 0
M  V30 4733 C 444.262 -1.74386 4.12666 0
M  V30 4734 C 446.006 -3.1003 2.89968 0
M  V30 4735 C 443.913 -2.77192 5.22416 0
M  V30 4736 H 442.843 -0.484484 0.577747 0
M  V30 4737 H 445.494 -0.56646 1.74538 0
M  V30 4738 H 443.876 -3.08919 2.4776 0
M  V30 4739 H 445.05 -1.05421 4.48579 0
M  V30 4740 H 443.365 -1.10595 4.01445 0
M  V30 4741 H 445.962 -3.86842 3.6913 0
M  V30 4742 H 446.305 -3.65542 1.9921 0
M  V30 4743 H 446.838 -2.41952 3.15759 0
M  V30 4744 H 443.577 -2.26507 6.15122 0
M  V30 4745 H 443.097 -3.44502 4.90998 0
M  V30 4746 H 444.776 -3.40285 5.50286 0
M  V30 4747 N 444.908 -1.36708 -0.784132 0
M  V30 4748 C 445.838 -1.34153 -1.91116 0
M  V30 4749 C 446.819 -0.212121 -1.68772 0
M  V30 4750 O 448.004 -0.410581 -1.8981 0
M  V30 4751 C 445.134 -1.13535 -3.28218 0
M  V30 4752 C 444.088 -2.23356 -3.65097 0
M  V30 4753 C 443.414 -1.87875 -5.00607 0
M  V30 4754 C 444.714 -3.65473 -3.73131 0
M  V30 4755 H 446.408 -2.28459 -1.93512 0
M  V30 4756 H 443.954 -1.09973 -0.929618 0
M  V30 4757 H 445.907 -1.10381 -4.06687 0
M  V30 4758 H 444.631 -0.156804 -3.26223 0
M  V30 4759 H 443.29 -2.25645 -2.88929 0
M  V30 4760 H 442.938 -0.885814 -4.95139 0
M  V30 4761 H 442.638 -2.61406 -5.26252 0
M  V30 4762 H 444.162 -1.86286 -5.81489 0
M  V30 4763 H 445.576 -3.65382 -4.41779 0
M  V30 4764 H 443.973 -4.37953 -4.10265 0
M  V30 4765 H 445.043 -3.99995 -2.74102 0
M  V30 4766 N 446.386 1.0089 -1.21074 0
M  V30 4767 C 447.296 2.13039 -0.982425 0
M  V30 4768 C 448.312 1.73881 0.0642161 0
M  V30 4769 O 449.488 2.01012 -0.12496 0
M  V30 4770 C 446.553 3.42377 -0.545803 0
M  V30 4771 C 445.614 3.95731 -1.6642 0
M  V30 4772 C 444.847 5.18896 -1.24832 0
M  V30 4773 O 445.07 5.70273 -0.120265 0
M  V30 4774 O 444.004 5.65597 -2.05873 0
M  V30 4775 H 447.83 2.35175 -1.92163 0
M  V30 4776 H 445.415 1.1142 -0.995285 0
M  V30 4777 H 447.297 4.20244 -0.311912 0
M  V30 4778 H 445.972 3.21639 0.364727 0
M  V30 4779 H 444.879 3.19108 -1.95246 0
M  V30 4780 H 446.212 4.20872 -2.55201 0
M  V30 4781 N 447.864 1.01787 1.20321 0
M  V30 4782 C 448.814 0.559976 2.21016 0
M  V30 4783 C 449.798 -0.385366 1.56217 0
M  V30 4784 O 450.99 -0.208126 1.75772 0
M  V30 4785 C 448.119 -0.0990553 3.43157 0
M  V30 4786 C 447.205 0.86807 4.15121 0
M  V30 4787 N 447.596 2.0261 4.63447 0
M  V30 4788 C 445.894 0.689162 4.40643 0
M  V30 4789 C 446.595 2.63518 5.18588 0
M  V30 4790 N 445.571 1.91569 5.08726 0
M  V30 4791 H 449.373 1.44281 2.56048 0
M  V30 4792 H 446.887 0.883381 1.36272 0
M  V30 4793 H 448.884 -0.444643 4.14522 0
M  V30 4794 H 447.544 -0.977709 3.0963 0
M  V30 4795 H 448.555 2.40598 4.58621 0
M  V30 4796 H 445.232 -0.14133 4.17261 0
M  V30 4797 H 446.622 3.61527 5.66346 0
M  V30 4798 N 449.342 -1.36122 0.79427 0
M  V30 4799 C 450.588 -1.99406 0.369452 0
M  V30 4800 C 450.921 -1.62886 -1.05743 0
M  V30 4801 O 450.196 -0.886053 -1.73145 0
M  V30 4802 C 450.479 -3.56046 0.538833 0
M  V30 4803 C 450.332 -4.02404 2.00976 0
M  V30 4804 C 451.651 -4.40079 -0.0431359 0
M  V30 4805 H 448.77 -0.724397 0.135712 0
M  V30 4806 H 451.412 -1.61461 1.00151 0
M  V30 4807 H 449.562 -3.885 0.000771004 0
M  V30 4808 H 451.234 -3.80415 2.60926 0
M  V30 4809 H 449.477 -3.53765 2.51063 0
M  V30 4810 H 450.148 -5.11344 2.07922 0
M  V30 4811 H 452.624 -4.14013 0.416228 0
M  V30 4812 H 451.5 -5.48799 0.105374 0
M  V30 4813 H 451.761 -4.27264 -1.13571 0
M  V30 4814 N 450.82 -0.546701 -1.47814 0
M  V30 4815 C 451.73 0.21026 -2.33656 0
M  V30 4816 C 452.746 0.922413 -1.47538 0
M  V30 4817 O 453.922 0.893652 -1.80488 0
M  V30 4818 C 450.987 1.23348 -3.24016 0
M  V30 4819 C 450.048 0.529883 -4.26017 0
M  V30 4820 C 449.281 1.50435 -5.12059 0
M  V30 4821 O 449.504 2.73837 -5.00369 0
M  V30 4822 O 448.438 1.03459 -5.92942 0
M  V30 4823 H 452.264 -0.493605 -2.99662 0
M  V30 4824 H 449.849 -0.307427 -1.46203 0
M  V30 4825 H 451.731 1.82438 -3.79861 0
M  V30 4826 H 450.406 1.91945 -2.60651 0
M  V30 4827 H 449.313 -0.101948 -3.73961 0
M  V30 4828 H 450.646 -0.11445 -4.92067 0
M  V30 4829 N 452.299 1.55045 -0.282633 0
M  V30 4830 C 453.232 2.18951 0.64311 0
M  V30 4831 C 454.21 1.15287 1.14664 0
M  V30 4832 O 455.394 1.43846 1.21822 0
M  V30 4833 C 452.521 2.81874 1.87789 0
M  V30 4834 C 451.567 3.98906 1.50919 0
M  V30 4835 S 452.4 5.3234 0.580884 0
M  V30 4836 C 453.556 5.98737 1.82387 0
M  V30 4837 H 453.789 2.97131 0.100138 0
M  V30 4838 H 451.322 1.54255 -0.0668514 0
M  V30 4839 H 453.28 3.18757 2.58658 0
M  V30 4840 H 451.941 2.03573 2.392 0
M  V30 4841 H 451.134 4.4165 2.42819 0
M  V30 4842 H 450.736 3.63485 0.88061 0
M  V30 4843 H 453.028 6.18427 2.76684 0
M  V30 4844 H 453.971 6.93318 1.4393 0
M  V30 4845 H 454.379 5.28177 1.99223 0
M  V30 4846 N 453.777 0.010035 1.57597 0
M  V30 4847 C 454.707 -0.976857 2.12084 0
M  V30 4848 C 455.688 -1.35191 1.03235 0
M  V30 4849 O 456.873 -1.43389 1.3097 0
M  V30 4850 C 454.003 -2.26548 2.63236 0
M  V30 4851 C 452.957 -2.03175 3.76701 0
M  V30 4852 C 452.283 -3.38138 4.14206 0
M  V30 4853 C 453.583 -1.38625 5.03568 0
M  V30 4854 H 455.277 -0.523145 2.94794 0
M  V30 4855 H 452.823 -0.250195 1.4181 0
M  V30 4856 H 454.776 -2.95952 2.99984 0
M  V30 4857 H 453.5 -2.74051 1.77661 0
M  V30 4858 H 452.159 -1.36195 3.40362 0
M  V30 4859 H 451.807 -3.83363 3.25641 0
M  V30 4860 H 451.507 -3.23312 4.90656 0
M  V30 4861 H 453.031 -4.08841 4.53521 0
M  V30 4862 H 454.445 -1.98 5.38023 0
M  V30 4863 H 452.842 -1.34256 5.84889 0
M  V30 4864 H 453.912 -0.356722 4.83586 0
M  V30 4865 N 455.255 -1.55392 -0.262866 0
M  V30 4866 C 456.495 -1.78231 -1.00064 0
M  V30 4867 C 456.859 -0.576966 -1.83126 0
M  V30 4868 O 458.06 -0.683809 -2.59957 0
M  V30 4869 C 456.331 -3.05701 -1.85153 0
M  V30 4870 S 457.89 -3.49699 -2.65058 0
M  V30 4871 H 454.708 -0.626138 -0.336856 0
M  V30 4872 H 457.31 -1.93626 -0.27005 0
M  V30 4873 H 456.014 -3.91511 -1.23074 0
M  V30 4874 H 455.545 -2.93 -2.62515 0
M  V30 4875 H 457.56 -3.09772 -3.87629 0
M  V30 4876 N 456.733 0.527833 -1.48498 0
M  V30 4877 C 457.666 1.64892 -1.57753 0
M  V30 4878 C 458.644 1.5687 -0.427867 0
M  V30 4879 O 459.828 1.77311 -0.639764 0
M  V30 4880 C 456.955 3.03301 -1.50752 0
M  V30 4881 C 456.001 3.29675 -2.70586 0
M  V30 4882 S 456.834 3.15712 -4.32535 0
M  V30 4883 C 457.99 4.56564 -4.28136 0
M  V30 4884 H 458.223 1.56792 -2.52594 0
M  V30 4885 H 455.756 0.710959 -1.37057 0
M  V30 4886 H 457.714 3.83123 -1.474 0
M  V30 4887 H 456.375 3.08839 -0.572454 0
M  V30 4888 H 455.568 4.3065 -2.61833 0
M  V30 4889 H 455.17 2.57526 -2.71212 0
M  V30 4890 H 457.462 5.48126 -3.98201 0
M  V30 4891 H 458.405 4.70371 -5.29298 0
M  V30 4892 H 458.813 4.35987 -3.58574 0
M  V30 4893 N 458.211 1.37122 0.776871 0
M  V30 4894 C 459.459 1.31787 1.53221 0
M  V30 4895 C 459.78 -0.0987589 1.9475 0
M  V30 4896 O 459.05 -1.0417 1.65908 0
M  V30 4897 H 457.63 0.484839 0.568278 0
M  V30 4898 H 460.292 1.71556 0.924917 0
M  V30 4899 H 459.388 1.95355 2.43398 0
M  V30 4900 N 459.689 -1.00246 1.21608 0
M  V30 4901 C 460.936 -1.74061 1.03485 0
M  V30 4902 C 461.264 -1.89658 -0.431308 0
M  V30 4903 O 460.519 -1.42976 -1.33627 0
M  V30 4904 C 460.818 -3.15448 1.68009 0
M  V30 4905 C 460.484 -3.19792 3.17874 0
M  V30 4906 C 459.146 -3.20685 3.58768 0
M  V30 4907 C 461.498 -3.16835 4.13842 0
M  V30 4908 C 458.826 -3.16309 4.94131 0
M  V30 4909 C 461.178 -3.14001 5.49169 0
M  V30 4910 C 459.842 -3.13204 5.89457 0
M  V30 4911 H 459.112 -0.636934 0.378677 0
M  V30 4912 H 461.759 -1.17473 1.51236 0
M  V30 4913 H 460.064 -3.75284 1.12557 0
M  V30 4914 H 461.761 -3.71285 1.51487 0
M  V30 4915 H 458.351 -3.19842 2.85305 0
M  V30 4916 H 462.535 -3.15303 3.83272 0
M  V30 4917 H 457.791 -3.14032 5.24589 0
M  V30 4918 H 461.965 -3.10667 6.23265 0
M  V30 4919 H 459.592 -3.09568 6.94314 0
M  V30 4920 N 461.167 -1.02423 -1.1978 0
M  V30 4921 C 462.414 -0.717988 -1.89344 0
M  V30 4922 C 462.742 0.753036 -1.79331 0
M  V30 4923 O 461.997 1.56355 -1.17692 0
M  V30 4924 C 462.296 -1.1088 -3.39765 0
M  V30 4925 C 461.962 -2.57731 -3.6998 0
M  V30 4926 C 460.624 -2.97854 -3.77937 0
M  V30 4927 C 462.976 -3.52763 -3.83677 0
M  V30 4928 C 460.304 -4.31931 -3.97054 0
M  V30 4929 C 462.656 -4.86538 -4.04306 0
M  V30 4930 C 461.32 -5.26356 -4.10494 0
M  V30 4931 H 460.59 -0.26273 -0.692859 0
M  V30 4932 H 463.237 -1.28623 -1.41875 0
M  V30 4933 H 461.542 -0.459094 -3.89101 0
M  V30 4934 H 463.239 -0.849432 -3.919 0
M  V30 4935 H 459.829 -2.25646 -3.64393 0
M  V30 4936 H 464.013 -3.2292 -3.76877 0
M  V30 4937 H 459.269 -4.62324 -4.00083 0
M  V30 4938 H 463.443 -5.60093 -4.13846 0
M  V30 4939 H 461.07 -6.3026 -4.2506 0
M  V30 4940 N 462.645 1.35699 -0.801477 0
M  V30 4941 C 463.873 2.03157 -0.391768 0
M  V30 4942 C 464.288 1.60412 0.995668 0
M  V30 4943 O 463.645 0.799228 1.64069 0
M  V30 4944 C 463.696 3.58566 -0.459671 0
M  V30 4945 O 463.417 3.99756 -1.7924 0
M  V30 4946 C 464.918 4.4328 -0.0421205 0
M  V30 4947 H 462.138 0.651688 -0.159825 0
M  V30 4948 H 464.682 1.73426 -1.08368 0
M  V30 4949 H 462.837 3.86963 0.183939 0
M  V30 4950 H 463.251 4.94387 -1.75162 0
M  V30 4951 H 464.725 5.51821 -0.140754 0
M  V30 4952 H 465.202 4.27383 1.01196 0
M  V30 4953 H 465.808 4.20168 -0.658687 0
M  V30 4954 N 464.123 0.554532 1.47522 0
M  V30 4955 C 465.053 -0.182974 2.32782 0
M  V30 4956 C 466.034 -0.911377 1.43624 0
M  V30 4957 O 467.219 -0.892366 1.72483 0
M  V30 4958 C 464.349 -1.21513 3.25349 0
M  V30 4959 C 463.303 -0.603355 4.23726 0
M  V30 4960 C 462.629 -1.73995 5.05598 0
M  V30 4961 C 463.929 0.441121 5.20434 0
M  V30 4962 H 465.623 0.52882 2.94693 0
M  V30 4963 H 463.169 0.255759 1.41711 0
M  V30 4964 H 465.122 -1.73922 3.83835 0
M  V30 4965 H 463.846 -1.95683 2.61487 0
M  V30 4966 H 462.505 -0.10059 3.66462 0
M  V30 4967 H 462.153 -2.47063 4.38143 0
M  V30 4968 H 461.853 -1.3364 5.72201 0
M  V30 4969 H 463.377 -2.26735 5.66942 0
M  V30 4970 H 464.791 0.00319931 5.733 0
M  V30 4971 H 463.188 0.763402 5.95224 0
M  V30 4972 H 464.258 1.33799 4.66075 0
M  V30 4973 N 465.601 -1.54893 0.290851 0
M  V30 4974 C 466.511 -2.26812 -0.59945 0
M  V30 4975 C 467.527 -1.29963 -1.15696 0
M  V30 4976 O 468.703 -1.62928 -1.18391 0
M  V30 4977 C 465.768 -2.98716 -1.75982 0
M  V30 4978 C 464.829 -4.1108 -1.2374 0
M  V30 4979 C 464.062 -4.79546 -2.34246 0
M  V30 4980 O 464.285 -4.47309 -3.53936 0
M  V30 4981 O 463.219 -5.67165 -2.01512 0
M  V30 4982 H 467.045 -3.03696 -0.0163561 0
M  V30 4983 H 464.63 -1.49289 0.0576755 0
M  V30 4984 H 466.512 -3.43851 -2.43607 0
M  V30 4985 H 465.187 -2.24737 -2.3297 0
M  V30 4986 H 464.094 -3.70367 -0.527163 0
M  V30 4987 H 465.427 -4.87007 -0.71307 0
M  V30 4988 N 467.08 -0.0183926 -1.57589 0
M  V30 4989 C 468.31 0.67207 -1.95363 0
M  V30 4990 C 468.718 1.66807 -0.892872 0
M  V30 4991 O 468.061 1.83204 0.134958 0
M  V30 4992 C 468.123 1.44397 -3.29226 0
M  V30 4993 C 467.787 0.607511 -4.52944 0
M  V30 4994 C 468.784 -0.112657 -5.19778 0
M  V30 4995 C 466.469 0.548068 -4.99301 0
M  V30 4996 C 468.463 -0.881057 -6.31281 0
M  V30 4997 C 466.15 -0.224044 -6.10689 0
M  V30 4998 C 467.148 -0.937323 -6.76538 0
M  V30 4999 O 466.836 -1.6968 -7.85789 0
M  V30 5000 H 466.568 0.190925 -0.648478 0
M  V30 5001 H 469.122 -0.0711994 -2.05277 0
M  V30 5002 H 467.352 2.23214 -3.15773 0
M  V30 5003 H 469.041 2.02152 -3.51979 0
M  V30 5004 H 469.807 -0.0759998 -4.8494 0
M  V30 5005 H 465.686 1.09281 -4.4786 0
M  V30 5006 H 469.23 -1.43832 -6.82611 0
M  V30 5007 H 465.127 -0.262457 -6.44966 0
M  V30 5008 H 465.895 -1.61544 -8.024 0
M  V30 5009 N 468.558 1.5553 0.254621 0
M  V30 5010 C 469.488 1.9268 1.31897 0
M  V30 5011 C 470.469 0.790797 1.506 0
M  V30 5012 O 471.654 1.05045 1.63337 0
M  V30 5013 C 468.784 2.21477 2.67517 0
M  V30 5014 C 467.738 3.37256 2.63519 0
M  V30 5015 C 467.064 3.51576 4.02862 0
M  V30 5016 C 468.364 4.73157 2.21179 0
M  V30 5017 H 470.058 2.81832 1.01051 0
M  V30 5018 H 467.604 1.35599 0.484662 0
M  V30 5019 H 469.557 2.46055 3.42104 0
M  V30 5020 H 468.281 1.29144 2.99982 0
M  V30 5021 H 466.94 3.12675 1.9139 0
M  V30 5022 H 466.588 2.56676 4.32581 0
M  V30 5023 H 466.288 4.2943 4.01078 0
M  V30 5024 H 467.812 3.78467 4.79161 0
M  V30 5025 H 469.226 4.97158 2.85494 0
M  V30 5026 H 467.623 5.54058 2.30521 0
M  V30 5027 H 468.693 4.70739 1.16332 0
M  V30 5028 N 470.036 -0.519951 1.48776 0
M  V30 5029 C 470.966 -1.63253 1.66945 0
M  V30 5030 C 471.947 -1.62014 0.518224 0
M  V30 5031 O 473.132 -1.79053 0.751919 0
M  V30 5032 C 470.262 -3.0181 1.71836 0
M  V30 5033 C 469.216 -3.17911 2.8656 0
M  V30 5034 C 468.542 -4.5763 2.76548 0
M  V30 5035 C 469.842 -2.99729 4.27738 0
M  V30 5036 H 471.536 -1.48302 2.6009 0
M  V30 5037 H 469.082 -0.712026 1.25165 0
M  V30 5038 H 471.035 -3.79525 1.83135 0
M  V30 5039 H 469.759 -3.17806 0.752775 0
M  V30 5040 H 468.418 -2.42616 2.74833 0
M  V30 5041 H 468.066 -4.70476 1.77937 0
M  V30 5042 H 467.766 -4.69346 3.53536 0
M  V30 5043 H 469.29 -5.37431 2.89828 0
M  V30 5044 H 470.704 -3.67228 4.40246 0
M  V30 5045 H 469.101 -3.22932 5.05801 0
M  V30 5046 H 470.171 -1.96047 4.43502 0
M  V30 5047 N 471.514 -1.37532 -0.769588 0
M  V30 5048 C 472.93 -1.18379 -1.07045 0
M  V30 5049 C 473.13 -0.0214312 -2.01489 0
M  V30 5050 O 472.186 0.637809 -2.44312 0
M  V30 5051 C 473.499 -2.50338 -1.66588 0
M  V30 5052 C 475.047 -2.56879 -1.78835 0
M  V30 5053 C 475.522 -3.88974 -2.41792 0
M  V30 5054 N 477.013 -3.90428 -2.4924 0
M  V30 5055 C 477.748 -4.89388 -2.98809 0
M  V30 5056 N 477.244 -5.98745 -3.48535 0
M  V30 5057 N 479.037 -4.76791 -2.97703 0
M  V30 5058 H 471.188 -2.11921 -0.142541 0
M  V30 5059 H 473.451 -0.939608 -0.125863 0
M  V30 5060 H 473.157 -3.35767 -1.0466 0
M  V30 5061 H 473.031 -2.67583 -2.65856 0
M  V30 5062 H 475.418 -1.71856 -2.39895 0
M  V30 5063 H 475.499 -2.43516 -0.783166 0
M  V30 5064 H 475.143 -4.74412 -1.81371 0
M  V30 5065 H 475.073 -3.99641 -3.4292 0
M  V30 5066 H 477.564 -3.11433 -2.14052 0
M  V30 5067 H 477.877 -6.70205 -3.84767 0
M  V30 5068 H 476.222 -6.02387 -3.46634 0
M  V30 5069 H 479.413 -3.90478 -2.58157 0
M  V30 5070 H 479.586 -5.54069 -3.36024 0
M  V30 5071 N 472.992 0.995999 -1.22138 0
M  V30 5072 C 473.922 2.10387 -1.01289 0
M  V30 5073 C 474.903 1.69975 0.0651454 0
M  V30 5074 O 476.088 1.9396 -0.0964628 0
M  V30 5075 C 473.218 3.42312 -0.586517 0
M  V30 5076 C 472.172 3.96558 -1.61014 0
M  V30 5077 C 471.498 5.24494 -1.0397 0
M  V30 5078 C 472.798 4.27595 -2.99933 0
M  V30 5079 H 474.492 2.28086 -1.93951 0
M  V30 5080 H 472.038 1.09607 -0.933928 0
M  V30 5081 H 473.991 4.19223 -0.427793 0
M  V30 5082 H 472.715 3.24431 0.375761 0
M  V30 5083 H 471.374 3.21776 -1.75658 0
M  V30 5084 H 471.022 5.02953 -0.0688703 0
M  V30 5085 H 470.722 5.61755 -1.72352 0
M  V30 5086 H 472.246 6.04042 -0.892494 0
M  V30 5087 H 473.66 4.95315 -2.8868 0
M  V30 5088 H 472.057 4.76021 -3.6541 0
M  V30 5089 H 473.127 3.35498 -3.50099 0
M  V30 5090 N 474.47 1.03057 1.19235 0
M  V30 5091 C 475.433 0.617418 2.20727 0
M  V30 5092 C 476.433 -0.319856 1.57587 0
M  V30 5093 O 477.623 -0.106633 1.73873 0
M  V30 5094 C 474.755 -0.096296 3.40764 0
M  V30 5095 H 475.948 1.51544 2.58794 0
M  V30 5096 H 473.501 0.821949 1.32942 0
M  V30 5097 H 474.236 -1.00859 3.08217 0
M  V30 5098 H 474.021 0.577217 3.87828 0
M  V30 5099 H 475.511 -0.372219 4.15938 0
M  V30 5100 N 475.948 -1.35272 0.808662 0
M  V30 5101 C 477.173 -2.03477 0.401475 0
M  V30 5102 C 477.598 -1.60537 -0.980279 0
M  V30 5103 O 476.956 -0.78304 -1.63518 0
M  V30 5104 C 477.004 -3.57181 0.495354 0
M  V30 5105 O 476.108 -4.09474 -0.490397 0
M  V30 5106 H 475.449 -0.642561 0.167366 0
M  V30 5107 H 477.979 -1.72824 1.09512 0
M  V30 5108 H 477.989 -4.06356 0.365912 0
M  V30 5109 H 476.664 -3.87784 1.5032 0
M  V30 5110 H 475.241 -3.71516 -0.321023 0
M  V30 5111 N 477.426 -0.562348 -1.47226 0
M  V30 5112 C 478.654 -0.0452275 -2.06851 0
M  V30 5113 C 479.069 1.25078 -1.41424 0
M  V30 5114 O 478.426 1.75156 -0.512513 0
M  V30 5115 C 478.477 0.148674 -3.61194 0
M  V30 5116 O 478.198 -1.09602 -4.24169 0
M  V30 5117 C 479.699 0.702488 -4.37699 0
M  V30 5118 H 476.919 -0.0481775 -0.669268 0
M  V30 5119 H 479.463 -0.777223 -1.89155 0
M  V30 5120 H 477.618 0.830817 -3.78386 0
M  V30 5121 H 478.032 -0.896982 -5.16773 0
M  V30 5122 H 479.506 0.78743 -5.46355 0
M  V30 5123 H 479.983 1.71493 -4.04335 0
M  V30 5124 H 480.589 0.0558772 -4.25263 0
M  V30 5125 N 478.904 1.54736 -0.299062 0
M  V30 5126 C 480.315 1.8569 0.193971 0
M  V30 5127 C 480.666 1.22101 1.53577 0
M  V30 5128 O 479.791 0.51799 2.10109 0
M  V30 5129 C 480.386 3.36895 0.358733 0
M  V30 5130 C 478.945 3.67887 0.795986 0
M  V30 5131 C 478.092 2.77131 -0.096807 0
M  V30 5132 H 481.043 1.49934 -0.520134 0
M  V30 5133 H 481.064 3.61294 1.19361 0
M  V30 5134 H 480.576 3.83148 -0.617998 0
M  V30 5135 H 478.677 3.27151 1.78334 0
M  V30 5136 H 478.79 4.75114 0.616718 0
M  V30 5137 H 477.154 2.51153 0.423581 0
M  V30 5138 H 477.937 3.26204 -1.06986 0
M  V30 5139 N 480.382 0.0267497 1.57577 0
M  V30 5140 C 481.659 -0.690926 1.82991 0
M  V30 5141 C 482.039 -1.90471 0.910164 0
M  V30 5142 O 481.387 -2.28474 -0.0347985 0
M  V30 5143 C 481.597 -1.07139 3.32148 0
M  V30 5144 C 482.945 -1.46402 3.98562 0
M  V30 5145 O 483.969 -1.16443 3.36629 0
M  V30 5146 O 482.828 -2.02214 5.07712 0
M  V30 5147 H 479.922 -0.338747 0.75444 0
M  V30 5148 H 482.468 0.0542506 1.69613 0
M  V30 5149 H 481.24 -0.207394 3.9075 0
M  V30 5150 H 480.863 -1.87481 3.50623 0
M  V30 5151 N 481.861 -1.55662 -0.24637 0
M  V30 5152 C 482.791 -1.93377 -1.30873 0
M  V30 5153 C 483.772 -0.798773 -1.50179 0
M  V30 5154 O 484.957 -1.0591 -1.62778 0
M  V30 5155 C 482.087 -2.22893 -2.66338 0
M  V30 5156 C 481.041 -3.38649 -2.61727 0
M  V30 5157 C 480.367 -3.53708 -4.00992 0
M  V30 5158 C 481.667 -4.74323 -2.18666 0
M  V30 5159 H 483.361 -2.82363 -0.995552 0
M  V30 5160 H 480.907 -1.35854 -0.477464 0
M  V30 5161 H 482.86 -2.47866 -3.40794 0
M  V30 5162 H 481.584 -1.30733 -2.99293 0
M  V30 5163 H 480.243 -3.13685 -1.89729 0
M  V30 5164 H 479.891 -2.58967 -4.31214 0
M  V30 5165 H 479.591 -4.31551 -3.98795 0
M  V30 5166 H 481.115 -3.81003 -4.77147 0
M  V30 5167 H 482.529 -4.98665 -2.82854 0
M  V30 5168 H 480.926 -5.55273 -2.27579 0
M  V30 5169 H 481.996 -4.71349 -1.13834 0
M  V30 5170 N 483.339 0.512053 -1.4905 0
M  V30 5171 C 484.755 0.84224 -1.35567 0
M  V30 5172 C 484.955 1.97878 -0.380319 0
M  V30 5173 O 484.011 2.51769 0.19201 0
M  V30 5174 C 485.324 1.19286 -2.76028 0
M  V30 5175 C 486.872 1.30171 -2.84648 0
M  V30 5176 C 487.347 1.68568 -4.25851 0
M  V30 5177 N 488.838 1.75638 -4.28609 0
M  V30 5178 C 489.573 2.06769 -5.34821 0
M  V30 5179 N 489.069 2.36201 -6.51292 0
M  V30 5180 N 490.862 2.07927 -5.22229 0
M  V30 5181 H 483.013 -0.237574 -2.11067 0
M  V30 5182 H 485.276 -0.0436747 -0.946993 0
M  V30 5183 H 484.982 0.431199 -3.49047 0
M  V30 5184 H 484.856 2.13889 -3.10695 0
M  V30 5185 H 487.243 2.05411 -2.11873 0
M  V30 5186 H 487.324 0.336457 -2.53578 0
M  V30 5187 H 486.968 0.938824 -4.99148 0
M  V30 5188 H 486.898 2.66174 -4.54377 0
M  V30 5189 H 489.389 1.55097 -3.44606 0
M  V30 5190 H 489.702 2.59112 -7.28066 0
M  V30 5191 H 488.047 2.33681 -6.54536 0
M  V30 5192 H 491.238 1.84403 -4.30248 0
M  V30 5193 H 491.411 2.31856 -6.05101 0
M  V30 5194 N 484.817 1.37938 0.762283 0
M  V30 5195 C 486.233 1.18945 1.06415 0
M  V30 5196 C 486.433 0.0321163 2.01474 0
M  V30 5197 O 485.489 -0.624844 2.44647 0
M  V30 5198 C 486.802 2.51218 1.65258 0
M  V30 5199 C 488.35 2.57824 1.7747 0
M  V30 5200 C 488.825 3.90251 2.39725 0
M  V30 5201 N 490.316 3.91744 2.47166 0
M  V30 5202 C 491.051 4.90966 2.96209 0
M  V30 5203 N 490.547 6.00585 3.45354 0
M  V30 5204 N 492.34 4.78363 2.9517 0
M  V30 5205 H 484.491 2.11994 0.131301 0
M  V30 5206 H 486.754 0.940262 0.120879 0
M  V30 5207 H 486.46 3.36317 1.02878 0
M  V30 5208 H 486.334 2.68989 2.64433 0
M  V30 5209 H 488.721 1.73126 2.3898 0
M  V30 5210 H 488.802 2.43928 0.770241 0
M  V30 5211 H 488.446 4.75368 1.78852 0
M  V30 5212 H 488.376 4.01454 3.40796 0
M  V30 5213 H 490.867 3.12563 2.12397 0
M  V30 5214 H 491.18 6.72236 3.81207 0
M  V30 5215 H 489.525 6.04217 3.43434 0
M  V30 5216 H 492.716 3.91841 2.56082 0
M  V30 5217 H 492.889 5.55843 3.33081 0
M  V30 5218 N 486.295 -0.989507 1.22664 0
M  V30 5219 C 487.542 -1.72953 1.05325 0
M  V30 5220 C 487.87 -1.90104 -0.411168 0
M  V30 5221 O 487.125 -1.44386 -1.32103 0
M  V30 5222 C 487.424 -3.13649 1.71345 0
M  V30 5223 C 487.09 -3.16403 3.21248 0
M  V30 5224 C 485.752 -3.16862 3.62149 0
M  V30 5225 C 488.104 -3.12428 4.17179 0
M  V30 5226 C 485.432 -3.11051 4.97458 0
M  V30 5227 C 487.784 -3.08159 5.52468 0
M  V30 5228 C 486.448 -3.06935 5.92746 0
M  V30 5229 H 485.718 -0.632881 0.385412 0
M  V30 5230 H 488.365 -1.15863 1.52473 0
M  V30 5231 H 486.67 -3.74069 1.16532 0
M  V30 5232 H 488.367 -3.69658 1.55416 0
M  V30 5233 H 484.957 -3.16798 2.88682 0
M  V30 5234 H 489.141 -3.11221 3.86595 0
M  V30 5235 H 484.397 -3.0845 5.27891 0
M  V30 5236 H 488.571 -3.04039 6.26525 0
M  V30 5237 H 486.198 -3.02186 6.97558 0
M  V30 5238 N 487.773 -1.03688 -1.18687 0
M  V30 5239 C 488.736 -0.629115 -2.20397 0
M  V30 5240 C 489.736 0.311495 -1.57754 0
M  V30 5241 O 490.926 0.0974107 -1.73927 0
M  V30 5242 C 488.058 0.0782231 -3.4081 0
M  V30 5243 H 489.251 -1.52915 -2.57987 0
M  V30 5244 H 486.804 -0.828988 -1.32505 0
M  V30 5245 H 487.539 0.992233 -3.08748 0
M  V30 5246 H 487.324 -0.597776 -3.87517 0
M  V30 5247 H 488.814 0.350156 -4.16129 0
M  V30 5248 N 489.251 1.34841 -0.815825 0
M  V30 5249 C 490.667 1.51543 -0.500697 0
M  V30 5250 C 490.867 1.76261 0.976444 0
M  V30 5251 O 489.923 1.8094 1.76117 0
M  V30 5252 C 491.236 2.68487 -1.35407 0
M  V30 5253 C 492.784 2.82368 -1.35046 0
M  V30 5254 C 493.259 4.02347 -2.18816 0
M  V30 5255 N 494.75 4.09542 -2.16402 0
M  V30 5256 C 495.485 5.01517 -2.77971 0
M  V30 5257 N 494.981 5.98763 -3.48503 0
M  V30 5258 N 496.774 4.94334 -2.67563 0
M  V30 5259 H 488.925 1.17055 -1.77234 0
M  V30 5260 H 491.188 0.573481 -0.754866 0
M  V30 5261 H 490.894 2.56829 -2.40274 0
M  V30 5262 H 490.768 3.63321 -1.01377 0
M  V30 5263 H 493.155 2.93471 -0.309604 0
M  V30 5264 H 493.236 1.88363 -1.73069 0
M  V30 5265 H 492.88 3.92004 -3.22948 0
M  V30 5266 H 492.81 4.95551 -1.78148 0
M  V30 5267 H 495.301 3.39932 -1.65091 0
M  V30 5268 H 495.614 6.6556 -3.92747 0
M  V30 5269 H 493.959 5.98909 -3.52609 0
M  V30 5270 H 497.15 4.1732 -2.12041 0
M  V30 5271 H 497.323 5.6582 -3.15834 0
M  V30 5272 N 490.729 0.570148 1.46925 0
M  V30 5273 C 491.954 0.0542592 2.07329 0
M  V30 5274 C 492.379 -1.23582 1.41806 0
M  V30 5275 O 491.737 -1.74341 0.497479 0
M  V30 5276 C 491.785 -0.111175 3.60429 0
M  V30 5277 O 490.889 -1.17071 3.95434 0
M  V30 5278 H 490.23 0.0571425 0.661537 0
M  V30 5279 H 492.76 0.789516 1.88753 0
M  V30 5280 H 492.77 -0.321315 4.06733 0
M  V30 5281 H 491.445 0.831012 4.07513 0
M  V30 5282 H 490.022 -0.940029 3.60857 0
M  V30 5283 N 492.207 -1.54576 0.307264 0
M  V30 5284 C 493.17 -2.22423 -0.553224 0
M  V30 5285 C 494.17 -1.21231 -1.05639 0
M  V30 5286 O 495.36 -1.45923 -0.951419 0
M  V30 5287 C 492.492 -2.91552 -1.76664 0
M  V30 5288 H 493.685 -2.99874 0.0396484 0
M  V30 5289 H 491.238 -1.56192 0.0581629 0
M  V30 5290 H 491.973 -2.18196 -2.39918 0
M  V30 5291 H 491.758 -3.65738 -1.41343 0
M  V30 5292 H 493.248 -3.43292 -2.37783 0
M  V30 5293 N 493.685 -0.035106 -1.57561 0
M  V30 5294 C 494.615 0.942993 -2.13612 0
M  V30 5295 C 495.596 1.33531 -1.05373 0
M  V30 5296 O 496.781 1.41287 -1.33235 0
M  V30 5297 C 493.911 2.22332 -2.66807 0
M  V30 5298 C 492.865 1.97156 -3.79886 0
M  V30 5299 C 492.191 3.31506 -4.19533 0
M  V30 5300 C 493.491 1.30596 -5.05709 0
M  V30 5301 H 495.185 0.476179 -2.95589 0
M  V30 5302 H 492.731 0.227602 -1.4219 0
M  V30 5303 H 494.684 2.91142 -3.04654 0
M  V30 5304 H 493.408 2.7119 -1.81999 0
M  V30 5305 H 492.067 1.30763 -3.42486 0
M  V30 5306 H 491.715 3.78134 -3.31698 0
M  V30 5307 H 491.415 3.15465 -4.95738 0
M  V30 5308 H 492.939 4.01574 -4.59968 0
M  V30 5309 H 494.353 1.89416 -5.41105 0
M  V30 5310 H 492.75 1.24934 -5.86951 0
M  V30 5311 H 493.82 0.279742 -4.84092 0
M  V30 5312 N 495.163 1.55791 0.238111 0
M  V30 5313 C 496.111 1.91885 1.31464 0
M  V30 5314 C 497.105 0.798929 1.49377 0
M  V30 5315 O 498.311 0.983626 1.50747 0
M  V30 5316 H 494.686 0.609551 0.440399 0
M  V30 5317 H 496.657 2.81747 0.982925 0
M  V30 5318 C 495.406 2.23763 2.6613 0
M  V30 5319 H 494.729 3.09444 2.53149 0
M  V30 5320 H 496.169 2.52915 3.40309 0
M  V30 5321 C 494.628 1.05699 3.1989 0
M  V30 5322 O 495.158 0.309524 4.00506 0
M  V30 5323 N 493.364 0.845251 2.78036 0
M  V30 5324 H 492.911 1.4548 2.12588 0
M  V30 5325 H 492.869 0.0569973 3.14348 0
M  V30 5326 N 496.642 -0.504142 1.49319 0
M  V30 5327 C 497.572 -1.61473 1.68667 0
M  V30 5328 C 498.553 -1.61455 0.535378 0
M  V30 5329 O 499.738 -1.78245 0.770868 0
M  V30 5330 C 496.868 -2.99971 1.75028 0
M  V30 5331 C 495.822 -3.14854 2.89916 0
M  V30 5332 C 495.148 -4.54671 2.81387 0
M  V30 5333 C 496.448 -2.95176 4.30893 0
M  V30 5334 H 498.142 -1.45535 2.61648 0
M  V30 5335 H 495.688 -0.698711 1.25913 0
M  V30 5336 H 497.641 -3.77562 1.8715 0
M  V30 5337 H 496.365 -3.1699 0.786441 0
M  V30 5338 H 495.024 -2.39687 2.77391 0
M  V30 5339 H 494.672 -4.68562 1.82917 0
M  V30 5340 H 494.372 -4.6557 3.58494 0
M  V30 5341 H 495.896 -5.34327 2.95512 0
M  V30 5342 H 497.31 -3.62538 4.44116 0
M  V30 5343 H 495.707 -3.17549 5.09198 0
M  V30 5344 H 496.777 -1.91332 4.45556 0
M  V30 5345 N 498.12 -1.38341 -0.754957 0
M  V30 5346 C 499.366 -1.34672 -1.51628 0
M  V30 5347 C 499.699 0.0636036 -1.94096 0
M  V30 5348 O 498.974 1.0245 -1.6533 0
M  V30 5349 C 499.257 -2.30116 -2.76981 0
M  V30 5350 C 499.11 -3.80003 -2.4066 0
M  V30 5351 C 500.429 -2.23715 -3.78998 0
M  V30 5352 H 497.548 -0.490517 -0.550056 0
M  V30 5353 H 500.19 -1.69178 -0.864807 0
M  V30 5354 H 498.34 -2.00821 -3.3257 0
M  V30 5355 H 500.012 -4.19966 -1.90856 0
M  V30 5356 H 498.255 -3.97751 -1.73137 0
M  V30 5357 H 498.926 -4.42244 -3.30339 0
M  V30 5358 H 501.402 -2.49574 -3.32945 0
M  V30 5359 H 500.278 -2.9261 -4.64403 0
M  V30 5360 H 500.539 -1.23554 -4.24484 0
M  V30 5361 N 499.598 0.982988 -1.23187 0
M  V30 5362 C 500.875 1.69814 -0.970707 0
M  V30 5363 C 501.255 2.04811 0.511424 0
M  V30 5364 O 500.603 1.73924 1.48198 0
M  V30 5365 C 500.813 2.94143 -1.87831 0
M  V30 5366 C 502.161 3.66712 -2.14026 0
M  V30 5367 O 503.185 3.04171 -1.8536 0
M  V30 5368 O 502.044 4.79258 -2.62629 0
M  V30 5369 H 499.138 0.741659 -0.365884 0
M  V30 5370 H 501.684 1.03844 -1.34218 0
M  V30 5371 H 500.456 2.64858 -2.88038 0
M  V30 5372 H 500.079 3.6785 -1.50905 0
M  V30 5373 N 501.076 1.04316 1.18135 0
M  V30 5374 C 502.006 0.657299 2.24058 0
M  V30 5375 C 502.987 -0.340678 1.66654 0
M  V30 5376 O 504.172 -0.220223 1.92947 0
M  V30 5377 C 501.302 0.0220715 3.47293 0
M  V30 5378 C 500.256 0.943857 4.17463 0
M  V30 5379 C 499.582 0.172973 5.3442 0
M  V30 5380 C 500.882 2.26409 4.70677 0
M  V30 5381 H 502.576 1.5428 2.56589 0
M  V30 5382 H 500.122 0.743263 1.23335 0
M  V30 5383 H 502.075 -0.259607 4.206 0
M  V30 5384 H 500.799 -0.898323 3.14003 0
M  V30 5385 H 499.458 1.20996 3.46057 0
M  V30 5386 H 499.106 -0.749907 4.97379 0
M  V30 5387 H 498.806 0.787098 5.82304 0
M  V30 5388 H 500.33 -0.101628 6.10515 0
M  V30 5389 H 501.744 2.04294 5.35665 0
M  V30 5390 H 500.141 2.8314 5.29105 0
M  V30 5391 H 501.211 2.90883 3.87962 0
M  V30 5392 N 502.554 -1.34406 0.822964 0
M  V30 5393 C 503.8 -1.98578 0.411666 0
M  V30 5394 C 504.133 -1.65093 -1.02264 0
M  V30 5395 O 503.408 -0.92258 -1.71227 0
M  V30 5396 C 503.691 -3.54823 0.614235 0
M  V30 5397 C 503.544 -3.9805 2.09466 0
M  V30 5398 C 504.863 -4.40071 0.050221 0
M  V30 5399 H 501.982 -0.721355 0.151047 0
M  V30 5400 H 504.624 -1.59301 1.03554 0
M  V30 5401 H 502.774 -3.88411 0.0831774 0
M  V30 5402 H 504.446 -3.74795 2.68936 0
M  V30 5403 H 502.689 -3.4836 2.5851 0
M  V30 5404 H 503.36 -5.06819 2.18721 0
M  V30 5405 H 505.836 -4.13037 0.503953 0
M  V30 5406 H 504.712 -5.48452 0.221759 0
M  V30 5407 H 504.973 -4.29576 -1.04482 0
M  V30 5408 N 504.032 -0.577932 -1.46621 0
M  V30 5409 C 504.995 0.147805 -2.28723 0
M  V30 5410 C 505.995 0.823325 -1.38123 0
M  V30 5411 O 507.185 0.676011 -1.60548 0
M  V30 5412 C 504.317 1.21853 -3.18378 0
M  V30 5413 H 505.51 -0.573654 -2.94362 0
M  V30 5414 H 503.063 -0.335703 -1.52652 0
M  V30 5415 H 503.798 1.97173 -2.57475 0
M  V30 5416 H 503.583 0.738714 -3.85078 0
M  V30 5417 H 505.073 1.72768 -3.80186 0
M  V30 5418 N 505.51 1.54411 -0.315457 0
M  V30 5419 C 506.759 1.99599 0.290395 0
M  V30 5420 C 507.072 1.20746 1.53882 0
M  V30 5421 O 508.278 1.56272 2.22017 0
M  V30 5422 C 506.734 3.5539 0.56797 0
M  V30 5423 C 506.342 4.43068 -0.662945 0
M  V30 5424 C 508.086 4.09067 1.13422 0
M  V30 5425 C 505.993 5.90317 -0.357722 0
M  V30 5426 H 504.923 0.745592 0.112286 0
M  V30 5427 H 507.574 1.78477 -0.426418 0
M  V30 5428 H 505.956 3.72468 1.34476 0
M  V30 5429 H 507.13 4.37765 -1.43869 0
M  V30 5430 H 505.445 4.00238 -1.14884 0
M  V30 5431 H 508.042 5.16663 1.37707 0
M  V30 5432 H 508.385 3.60552 2.08106 0
M  V30 5433 H 508.918 3.95589 0.418805 0
M  V30 5434 H 505.657 6.4301 -1.27351 0
M  V30 5435 H 505.177 5.98592 0.380472 0
M  V30 5436 H 506.856 6.4699 0.0354284 0
M  V30 5437 N 506.988 0.0434614 1.5754 0
M  V30 5438 C 507.918 -0.931651 2.14109 0
M  V30 5439 C 508.899 -1.32971 1.06079 0
M  V30 5440 O 510.084 -1.40579 1.33982 0
M  V30 5441 C 507.214 -2.20914 2.67982 0
M  V30 5442 C 506.168 -1.95139 3.80926 0
M  V30 5443 C 505.494 -3.29276 4.21285 0
M  V30 5444 C 506.794 -1.27913 5.06395 0
M  V30 5445 H 508.488 -0.460497 2.95837 0
M  V30 5446 H 506.034 -0.220058 1.42309 0
M  V30 5447 H 507.987 -2.89522 3.06194 0
M  V30 5448 H 506.711 -2.70221 1.83434 0
M  V30 5449 H 505.37 -1.28945 3.43175 0
M  V30 5450 H 505.018 -3.76369 3.33699 0
M  V30 5451 H 504.718 -3.12831 4.97404 0
M  V30 5452 H 506.242 -3.99129 4.62091 0
M  V30 5453 H 507.656 -1.86544 5.42102 0
M  V30 5454 H 506.053 -1.2182 5.87605 0
M  V30 5455 H 507.123 -0.254066 4.84234 0
M  V30 5456 N 508.466 -1.55915 -0.229846 0
M  V30 5457 C 509.877 -1.68809 -0.797531 0
M  V30 5458 C 510.228 -0.643995 -1.8533 0
M  V30 5459 O 509.353 0.206492 -2.15413 0
M  V30 5460 C 509.948 -3.06043 -1.45338 0
M  V30 5461 C 508.507 -3.20819 -1.96856 0
M  V30 5462 C 507.654 -2.6472 -0.825736 0
M  V30 5463 H 510.605 -1.58699 -0.00533733 0
M  V30 5464 H 510.626 -3.01438 -2.32196 0
M  V30 5465 H 510.138 -3.82012 -0.684743 0
M  V30 5466 H 508.239 -2.49704 -2.76548 0
M  V30 5467 H 508.352 -4.27937 -2.15423 0
M  V30 5468 H 506.716 -2.22985 -1.23084 0
M  V30 5469 H 507.499 -3.43229 -0.0699019 0
M  V30 5470 N 509.944 0.496216 -1.49584 0
M  V30 5471 C 510.874 1.60576 -1.69521 0
M  V30 5472 C 511.855 1.61169 -0.543933 0
M  V30 5473 O 513.04 1.77834 -0.78031 0
M  V30 5474 C 510.17 2.99038 -1.76616 0
M  V30 5475 C 509.124 3.13312 -2.91581 0
M  V30 5476 C 508.45 4.53172 -2.83794 0
M  V30 5477 C 509.75 2.92886 -4.32452 0
M  V30 5478 H 511.444 1.44146 -2.62416 0
M  V30 5479 H 508.99 0.692024 -1.26282 0
M  V30 5480 H 510.943 3.76564 -1.8915 0
M  V30 5481 H 509.667 3.16568 -0.80324 0
M  V30 5482 H 508.326 2.38213 -2.78658 0
M  V30 5483 H 507.974 4.67585 -1.854 0
M  V30 5484 H 507.674 4.63662 -3.60958 0
M  V30 5485 H 509.198 5.32752 -2.98342 0
M  V30 5486 H 510.612 3.60178 -4.46032 0
M  V30 5487 H 509.009 3.14844 -5.10875 0
M  V30 5488 H 510.079 1.88966 -4.46565 0
M  V30 5489 N 511.423 1.38739 0.74761 0
M  V30 5490 C 512.653 1.3832 1.53464 0
M  V30 5491 C 513.061 -0.0273464 1.8918 0
M  V30 5492 O 512.404 -1.00588 1.53713 0
M  V30 5493 C 512.466 2.18007 2.85855 0
M  V30 5494 C 512.13 3.66762 2.72644 0
M  V30 5495 C 513.127 4.60124 2.42037 0
M  V30 5496 C 510.812 4.10193 2.89909 0
M  V30 5497 C 512.806 5.94897 2.28859 0
M  V30 5498 C 510.493 5.45045 2.7635 0
M  V30 5499 C 511.491 6.37211 2.45869 0
M  V30 5500 O 511.179 7.69581 2.3238 0
M  V30 5501 H 510.911 0.474718 0.481268 0
M  V30 5502 H 513.465 1.83012 0.932518 0
M  V30 5503 H 511.695 1.68043 3.48279 0
M  V30 5504 H 513.384 2.09921 3.47402 0
M  V30 5505 H 514.15 4.27874 2.28361 0
M  V30 5506 H 510.029 3.38797 3.1263 0
M  V30 5507 H 513.573 6.66802 2.04989 0
M  V30 5508 H 509.47 5.76889 2.89601 0
M  V30 5509 H 510.238 7.80169 2.47546 0
M  V30 5510 N 512.901 -0.976442 1.23707 0
M  V30 5511 C 513.831 -2.08749 1.04624 0
M  V30 5512 C 514.812 -1.70057 -0.0380956 0
M  V30 5513 O 515.997 -1.93782 0.127308 0
M  V30 5514 C 513.127 -3.41335 0.640902 0
M  V30 5515 C 512.081 -3.93947 1.67302 0
M  V30 5516 C 511.407 -5.22774 1.12301 0
M  V30 5517 C 512.707 -4.22769 3.06697 0
M  V30 5518 H 514.401 -2.24972 1.97555 0
M  V30 5519 H 511.947 -1.08108 0.951247 0
M  V30 5520 H 513.9 -4.18489 0.494434 0
M  V30 5521 H 512.624 -3.24988 -0.324099 0
M  V30 5522 H 511.283 -3.18941 1.80755 0
M  V30 5523 H 510.931 -5.0278 0.148877 0
M  V30 5524 H 510.631 -5.58942 1.81267 0
M  V30 5525 H 512.155 -6.02546 0.988479 0
M  V30 5526 H 513.569 -4.90659 2.96524 0
M  V30 5527 H 511.966 -4.70147 3.72937 0
M  V30 5528 H 513.036 -3.29885 3.55392 0
M  V30 5529 N 514.379 -1.04941 -1.1758 0
M  V30 5530 C 515.311 -0.606174 -2.21039 0
M  V30 5531 C 516.324 0.328763 -1.59446 0
M  V30 5532 O 517.513 0.121895 -1.78083 0
M  V30 5533 C 514.613 0.133294 -3.38638 0
M  V30 5534 C 513.786 -0.811711 -4.29802 0
M  V30 5535 C 512.845 -0.113958 -5.26077 0
M  V30 5536 O 511.871 -0.747237 -5.64274 0
M  V30 5537 N 513.073 1.14953 -5.69004 0
M  V30 5538 H 515.838 -1.49606 -2.59689 0
M  V30 5539 H 513.399 -0.930997 -1.32454 0
M  V30 5540 H 515.391 0.610144 -4.00074 0
M  V30 5541 H 513.961 0.924816 -2.98607 0
M  V30 5542 H 513.181 -1.46824 -3.65837 0
M  V30 5543 H 514.469 -1.45326 -4.87604 0
M  V30 5544 H 513.867 1.68441 -5.40041 0
M  V30 5545 H 512.424 1.57049 -6.32597 0
M  V30 5546 N 515.857 1.33968 -0.830081 0
M  V30 5547 C 516.787 2.31911 -0.271911 0
M  V30 5548 C 517.768 1.58571 0.61556 0
M  V30 5549 O 518.953 1.86514 0.540946 0
M  V30 5550 C 516.083 3.42737 0.561146 0
M  V30 5551 C 515.037 4.27383 -0.229789 0
M  V30 5552 C 514.363 5.29742 0.726463 0
M  V30 5553 C 515.663 5.02 -1.44197 0
M  V30 5554 H 517.357 2.78844 -1.09025 0
M  V30 5555 H 514.903 1.34061 -0.52571 0
M  V30 5556 H 516.856 4.10276 0.961867 0
M  V30 5557 H 515.58 2.94471 1.41261 0
M  V30 5558 H 514.239 3.61456 -0.611964 0
M  V30 5559 H 513.887 4.77736 1.57408 0
M  V30 5560 H 513.587 5.87255 0.20142 0
M  V30 5561 H 515.111 6.00149 1.12489 0
M  V30 5562 H 516.525 5.62355 -1.11488 0
M  V30 5563 H 514.922 5.69122 -1.90317 0
M  V30 5564 H 515.992 4.31281 -2.2164 0
M  V30 5565 N 517.335 0.585699 1.46312 0
M  V30 5566 C 518.265 -0.133556 2.33118 0
M  V30 5567 C 519.246 -0.880707 1.45525 0
M  V30 5568 O 520.431 -0.855579 1.74337 0
M  V30 5569 C 517.561 -1.14585 3.27853 0
M  V30 5570 C 516.515 -0.513341 4.2491 0
M  V30 5571 C 515.841 -1.63231 5.09175 0
M  V30 5572 C 517.141 0.551413 5.19381 0
M  V30 5573 H 518.835 0.59121 2.93505 0
M  V30 5574 H 516.381 0.285761 1.41136 0
M  V30 5575 H 518.334 -1.65741 3.87438 0
M  V30 5576 H 517.058 -1.90093 2.65579 0
M  V30 5577 H 515.717 -0.0228349 3.66593 0
M  V30 5578 H 515.365 -2.37713 4.43285 0
M  V30 5579 H 515.065 -1.21473 5.74907 0
M  V30 5580 H 516.589 -2.14658 5.71624 0
M  V30 5581 H 518.003 0.124804 5.73164 0
M  V30 5582 H 516.4 0.889486 5.93471 0
M  V30 5583 H 517.47 1.43655 4.63132 0
M  V30 5584 N 518.813 -1.54241 0.323641 0
M  V30 5585 C 519.743 -2.27289 -0.534993 0
M  V30 5586 C 520.724 -1.28087 -1.11927 0
M  V30 5587 O 521.909 -1.56899 -1.14439 0
M  V30 5588 C 519.039 -3.03075 -1.69596 0
M  V30 5589 C 517.993 -4.09614 -1.24098 0
M  V30 5590 C 517.319 -4.73242 -2.4889 0
M  V30 5591 C 518.619 -5.21087 -0.355789 0
M  V30 5592 H 520.313 -2.99308 0.0743257 0
M  V30 5593 H 517.859 -1.43952 0.0371874 0
M  V30 5594 H 519.812 -3.52907 -2.30293 0
M  V30 5595 H 518.536 -2.28673 -2.33187 0
M  V30 5596 H 517.195 -3.60666 -0.656945 0
M  V30 5597 H 516.843 -3.95455 -3.10845 0
M  V30 5598 H 516.543 -5.45209 -2.19138 0
M  V30 5599 H 518.067 -5.25848 -3.10348 0
M  V30 5600 H 519.481 -5.66675 -0.869042 0
M  V30 5601 H 517.878 -5.9991 -0.151045 0
M  V30 5602 H 518.948 -4.81005 0.613339 0
M  V30 5603 N 520.291 -0.0518155 -1.57515 0
M  V30 5604 C 521.201 0.937539 -2.15052 0
M  V30 5605 C 522.217 1.34121 -1.10849 0
M  V30 5606 O 523.393 1.418 -1.4302 0
M  V30 5607 C 520.458 2.19379 -2.68466 0
M  V30 5608 C 519.519 1.84841 -3.87469 0
M  V30 5609 C 518.752 3.04477 -4.38326 0
M  V30 5610 O 518.975 4.17868 -3.88256 0
M  V30 5611 O 517.909 2.85453 -5.29906 0
M  V30 5612 H 521.735 0.478201 -2.99912 0
M  V30 5613 H 519.32 0.17012 -1.48428 0
M  V30 5614 H 521.202 2.93084 -3.02787 0
M  V30 5615 H 519.877 2.64449 -1.86677 0
M  V30 5616 H 518.784 1.08449 -3.58036 0
M  V30 5617 H 520.117 1.44569 -4.7049 0
M  V30 5618 N 521.769 1.56035 0.221574 0
M  V30 5619 C 523.009 1.80822 0.953038 0
M  V30 5620 C 523.373 0.625316 1.81532 0
M  V30 5621 O 524.574 0.752491 2.58052 0
M  V30 5622 C 522.845 3.10503 1.76983 0
M  V30 5623 S 524.404 3.56604 2.55693 0
M  V30 5624 H 521.222 0.634849 0.320137 0
M  V30 5625 H 523.824 1.94274 0.218619 0
M  V30 5626 H 522.528 3.94636 1.12651 0
M  V30 5627 H 522.059 2.99858 2.54655 0
M  V30 5628 H 524.074 3.1994 3.79279 0
M  V30 5629 N 523.247 -0.488276 1.49845 0
M  V30 5630 C 524.494 -1.24157 1.59973 0
M  V30 5631 C 524.822 -1.92293 0.292182 0
M  V30 5632 O 524.077 -1.81942 -0.720813 0
M  V30 5633 C 524.376 -2.32152 2.71735 0
M  V30 5634 C 524.042 -1.81387 4.12807 0
M  V30 5635 C 522.704 -1.67262 4.51195 0
M  V30 5636 C 525.056 -1.43537 5.01045 0
M  V30 5637 C 522.384 -1.13685 5.7558 0
M  V30 5638 C 524.736 -0.914081 6.25961 0
M  V30 5639 C 523.4 -0.759327 6.63167 0
M  V30 5640 H 522.67 -0.454322 0.585383 0
M  V30 5641 H 525.317 -0.540261 1.83721 0
M  V30 5642 H 523.622 -3.08122 2.42008 0
M  V30 5643 H 525.319 -2.90164 2.76778 0
M  V30 5644 H 521.909 -1.93344 3.82513 0
M  V30 5645 H 526.093 -1.53292 4.72033 0
M  V30 5646 H 521.349 -1.00426 6.03096 0
M  V30 5647 H 525.523 -0.612066 6.93705 0
M  V30 5648 H 523.15 -0.342002 7.5943 0
M  V30 5649 N 524.725 -1.39134 -0.740242 0
M  V30 5650 C 525.953 -1.39334 -1.5295 0
M  V30 5651 C 526.368 0.0135008 -1.88795 0
M  V30 5652 O 525.725 0.983524 -1.5373 0
M  V30 5653 C 525.776 -2.2614 -2.82034 0
M  V30 5654 O 525.497 -3.61345 -2.47712 0
M  V30 5655 C 526.998 -2.34666 -3.76094 0
M  V30 5656 H 524.218 -0.476103 -0.472828 0
M  V30 5657 H 526.762 -1.82883 -0.9151 0
M  V30 5658 H 524.917 -1.86018 -3.39818 0
M  V30 5659 H 525.331 -4.07194 -3.30595 0
M  V30 5660 H 526.805 -2.99663 -4.63579 0
M  V30 5661 H 527.282 -1.36426 -4.17474 0
M  V30 5662 H 527.888 -2.75236 -3.2423 0
M  V30 5663 N 526.204 0.969867 -1.24223 0
M  V30 5664 C 527.452 1.70918 -1.0785 0
M  V30 5665 C 527.773 1.91186 0.383763 0
M  V30 5666 O 527.043 1.48806 1.27411 0
M  V30 5667 H 525.623 0.633334 -0.396103 0
M  V30 5668 H 528.285 1.16689 -1.56108 0
M  V30 5669 H 527.381 2.69455 -1.57482 0
M  V30 5670 N 527.682 1.05563 1.17022 0
M  V30 5671 C 528.592 0.670758 2.24807 0
M  V30 5672 C 529.608 -0.309865 1.71219 0
M  V30 5673 O 530.784 -0.161025 2.00755 0
M  V30 5674 C 527.849 0.055337 3.46656 0
M  V30 5675 C 526.91 1.08688 4.15314 0
M  V30 5676 C 526.143 0.500736 5.31346 0
M  V30 5677 O 526.366 -0.688718 5.66227 0
M  V30 5678 O 525.3 1.23683 5.89055 0
M  V30 5679 H 529.126 1.56914 2.60023 0
M  V30 5680 H 526.711 0.827428 1.24395 0
M  V30 5681 H 528.593 -0.286492 4.20425 0
M  V30 5682 H 527.268 -0.816638 3.13229 0
M  V30 5683 H 526.175 1.48077 3.43546 0
M  V30 5684 H 527.508 1.93014 4.52777 0
M  V30 5685 N 529.16 -1.33526 0.837174 0
M  V30 5686 C 530.408 -1.97446 0.431211 0
M  V30 5687 C 530.729 -1.6665 -1.01255 0
M  V30 5688 O 529.999 -0.964559 -1.70508 0
M  V30 5689 H 528.579 -0.73043 0.156463 0
M  V30 5690 H 531.241 -1.62918 1.06976 0
M  V30 5691 H 530.337 -3.07001 0.561877 0
M  V30 5692 N 530.638 -0.59345 -1.46 0
M  V30 5693 C 531.588 0.154751 -2.27474 0
M  V30 5694 C 532.572 0.851849 -1.365 0
M  V30 5695 O 533.764 0.744171 -1.60596 0
M  V30 5696 C 530.893 1.16079 -3.2308 0
M  V30 5697 C 529.979 0.465256 -4.2154 0
M  V30 5698 N 530.37 -0.485197 -5.03467 0
M  V30 5699 C 528.668 0.714634 -4.40237 0
M  V30 5700 C 529.369 -0.892709 -5.74809 0
M  V30 5701 N 528.345 -0.239511 -5.43072 0
M  V30 5702 H 532.147 -0.57546 -2.88211 0
M  V30 5703 H 529.661 -0.416046 -1.5698 0
M  V30 5704 H 531.658 1.71108 -3.80168 0
M  V30 5705 H 530.318 1.89171 -2.63903 0
M  V30 5706 H 531.329 -0.861258 -5.10689 0
M  V30 5707 H 528.006 1.43131 -3.92199 0
M  V30 5708 H 529.396 -1.67581 -6.50666 0
M  V30 5709 N 532.116 1.54067 -0.331816 0
M  V30 5710 C 533.048 2.22139 0.564538 0
M  V30 5711 C 534.061 1.22408 1.07332 0
M  V30 5712 O 535.25 1.4883 0.985481 0
M  V30 5713 C 532.35 2.87876 1.78831 0
M  V30 5714 C 531.523 4.13817 1.41682 0
M  V30 5715 C 530.582 4.63072 2.49901 0
M  V30 5716 O 529.608 5.27562 2.13699 0
M  V30 5717 N 530.81 4.38001 3.80967 0
M  V30 5718 H 533.575 2.99694 -0.0183736 0
M  V30 5719 H 531.136 1.61153 -0.155396 0
M  V30 5720 H 533.128 3.17747 2.50637 0
M  V30 5721 H 531.698 2.13977 2.27887 0
M  V30 5722 H 530.918 3.9062 0.530044 0
M  V30 5723 H 532.206 4.95762 1.14443 0
M  V30 5724 H 531.604 3.864 4.13173 0
M  V30 5725 H 530.161 4.72507 4.48977 0
M  V30 5726 N 533.594 0.0601682 1.57485 0
M  V30 5727 C 535.01 -0.296422 1.56823 0
M  V30 5728 C 535.21 -1.70831 1.0686 0
M  V30 5729 O 534.266 -2.4174 0.729245 0
M  V30 5730 C 535.579 -0.116681 3.00474 0
M  V30 5731 C 537.127 -0.187103 3.1244 0
M  V30 5732 C 537.602 -0.035783 4.57986 0
M  V30 5733 N 539.093 -0.0917676 4.63109 0
M  V30 5734 C 539.828 0.00107251 5.734 0
M  V30 5735 N 539.324 0.146773 6.92645 0
M  V30 5736 N 541.117 -0.0551577 5.62073 0
M  V30 5737 H 533.268 0.983055 1.88281 0
M  V30 5738 H 535.531 0.382386 0.867459 0
M  V30 5739 H 535.237 0.85712 3.41096 0
M  V30 5740 H 535.111 -0.873929 3.66936 0
M  V30 5741 H 537.498 -1.15138 2.71712 0
M  V30 5742 H 537.579 0.601052 2.48638 0
M  V30 5743 H 537.223 0.925212 4.99402 0
M  V30 5744 H 537.153 -0.843196 5.19806 0
M  V30 5745 H 539.644 -0.203261 3.77353 0
M  V30 5746 H 539.957 0.210076 7.72514 0
M  V30 5747 H 538.302 0.181979 6.94762 0
M  V30 5748 H 541.493 -0.167605 4.678 0
M  V30 5749 H 541.666 0.020652 6.47997 0
M  V30 5750 N 535.072 -1.5615 -0.213296 0
M  V30 5751 C 536.32 -1.79191 -0.934612 0
M  V30 5752 C 536.641 -0.630112 -1.84539 0
M  V30 5753 O 535.911 0.35257 -1.92701 0
M  V30 5754 H 534.491 -0.660937 -0.348097 0
M  V30 5755 H 537.153 -1.93618 -0.22317 0
M  V30 5756 H 536.249 -2.71656 -1.53654 0
M  V30 5757 N 536.55 0.480323 -1.50102 0
M  V30 5758 C 537.482 1.59669 -1.64433 0
M  V30 5759 C 538.495 1.54063 -0.52615 0
M  V30 5760 O 539.684 1.59619 -0.798992 0
M  V30 5761 C 536.784 2.98527 -1.6042 0
M  V30 5762 C 535.957 3.291 -2.88117 0
M  V30 5763 C 535.016 4.47468 -2.76873 0
M  V30 5764 O 534.042 4.4823 -3.50825 0
M  V30 5765 N 535.244 5.48593 -1.89806 0
M  V30 5766 H 538.009 1.47795 -2.60723 0
M  V30 5767 H 535.57 0.66858 -1.4745 0
M  V30 5768 H 537.562 3.75666 -1.50523 0
M  V30 5769 H 536.132 3.04218 -0.719036 0
M  V30 5770 H 535.352 2.40662 -3.12211 0
M  V30 5771 H 536.64 3.46334 -3.72734 0
M  V30 5772 H 536.038 5.50791 -1.2902 0
M  V30 5773 H 534.595 6.24752 -1.85819 0
M  V30 5774 N 538.028 1.39524 0.732853 0
M  V30 5775 C 539.256 1.40143 1.52209 0
M  V30 5776 C 539.671 -0.00348836 1.888 0
M  V30 5777 O 539.028 -0.975357 1.5425 0
M  V30 5778 C 539.079 2.27632 2.8083 0
M  V30 5779 O 538.8 3.62654 2.45792 0
M  V30 5780 C 540.301 2.36658 3.74844 0
M  V30 5781 H 537.521 0.478604 0.470297 0
M  V30 5782 H 540.065 1.83366 0.905388 0
M  V30 5783 H 538.22 1.87818 3.38826 0
M  V30 5784 H 538.634 4.08941 3.28431 0
M  V30 5785 H 540.108 3.02118 4.61984 0
M  V30 5786 H 540.585 1.38638 4.16745 0
M  V30 5787 H 541.191 2.76951 3.22766 0
M  V30 5788 N 539.506 -0.963266 1.24736 0
M  V30 5789 C 540.752 -1.70933 1.09131 0
M  V30 5790 C 541.085 -1.90676 -0.368273 0
M  V30 5791 O 540.36 -1.47147 -1.27193 0
M  V30 5792 C 540.643 -3.09744 1.83658 0
M  V30 5793 C 540.496 -2.97465 3.37394 0
M  V30 5794 C 541.815 -4.09483 1.61282 0
M  V30 5795 H 538.934 -0.620398 0.397838 0
M  V30 5796 H 541.576 -1.12028 1.53459 0
M  V30 5797 H 539.726 -3.60031 1.4598 0
M  V30 5798 H 541.398 -2.54571 3.84696 0
M  V30 5799 H 539.641 -2.33576 3.65547 0
M  V30 5800 H 540.312 -3.95822 3.84745 0
M  V30 5801 H 542.788 -3.68073 1.94066 0
M  V30 5802 H 541.664 -5.04666 2.15878 0
M  V30 5803 H 541.925 -4.38639 0.552102 0
M  V30 5804 N 540.985 -1.06182 -1.16461 0
M  V30 5805 C 542.233 -0.776326 -1.86595 0
M  V30 5806 C 542.554 0.69921 -1.82033 0
M  V30 5807 O 541.824 1.50579 -1.2531 0
M  V30 5808 H 540.404 -0.284184 -0.690832 0
M  V30 5809 H 543.066 -1.34308 -1.41235 0
M  V30 5810 H 542.162 -1.10022 -2.92064 0
M  V30 5811 N 542.463 1.3308 -0.844243 0
M  V30 5812 C 543.688 2.02341 -0.455282 0
M  V30 5813 C 544.113 1.6308 0.93737 0
M  V30 5814 O 543.471 0.826118 1.61385 0
M  V30 5815 C 543.519 3.55743 -0.58988 0
M  V30 5816 O 542.623 4.1063 0.38166 0
M  V30 5817 H 541.964 0.637898 -0.184343 0
M  V30 5818 H 544.494 1.6986 -1.14056 0
M  V30 5819 H 544.504 4.05243 -0.473522 0
M  V30 5820 H 543.179 3.83662 -1.60549 0
M  V30 5821 H 541.756 3.72236 0.22241 0
M  V30 5822 N 543.941 0.601185 1.45683 0
M  V30 5823 C 545.187 0.0940202 2.02582 0
M  V30 5824 C 545.52 -1.26972 1.46941 0
M  V30 5825 O 544.795 -1.83613 0.641612 0
M  V30 5826 C 545.078 0.0481715 3.60068 0
M  V30 5827 C 544.931 1.44212 4.26055 0
M  V30 5828 C 546.25 -0.642975 4.35378 0
M  V30 5829 H 543.369 0.0356404 0.736138 0
M  V30 5830 H 546.011 0.771929 1.73612 0
M  V30 5831 H 544.161 -0.529128 3.8488 0
M  V30 5832 H 545.833 2.06601 4.12449 0
M  V30 5833 H 544.076 2.00465 3.84703 0
M  V30 5834 H 544.747 1.36234 5.34925 0
M  V30 5835 H 547.223 -0.152351 4.15821 0
M  V30 5836 H 546.099 -0.644141 5.45107 0
M  V30 5837 H 546.36 -1.70785 4.0778 0
M  V30 5838 N 545.419 -1.53889 0.339982 0
M  V30 5839 C 546.667 -2.00458 -0.257112 0
M  V30 5840 C 546.988 -1.22953 -1.51353 0
M  V30 5841 O 546.258 -0.335734 -1.93002 0
M  V30 5842 H 544.838 -0.740544 -0.0979965 0
M  V30 5843 H 547.5 -1.89386 0.460317 0
M  V30 5844 H 546.596 -3.08035 -0.502057 0
M  V30 5845 N 546.897 -0.0685191 -1.57451 0
M  V30 5846 C 547.844 0.899861 -2.12535 0
M  V30 5847 C 548.814 1.29749 -1.03703 0
M  V30 5848 O 549.999 1.38392 -1.31348 0
M  V30 5849 C 547.139 2.16328 -2.6888 0
M  V30 5850 C 546.252 1.81857 -3.91857 0
M  V30 5851 C 545.387 3.02786 -4.36457 0
M  V30 5852 C 544.426 2.64317 -5.5209 0
M  V30 5853 N 543.563 3.77994 -5.91663 0
M  V30 5854 H 548.403 0.423243 -2.94979 0
M  V30 5855 H 545.94 0.197268 -1.45771 0
M  V30 5856 H 547.898 2.90281 -2.99655 0
M  V30 5857 H 546.528 2.61536 -1.89206 0
M  V30 5858 H 545.58 0.979808 -3.67565 0
M  V30 5859 H 546.892 1.49553 -4.75852 0
M  V30 5860 H 546.046 3.85021 -4.68875 0
M  V30 5861 H 544.785 3.38281 -3.51308 0
M  V30 5862 H 543.79 1.80503 -5.19325 0
M  V30 5863 H 545.015 2.29995 -6.38967 0
M  V30 5864 H 542.961 4.13258 -5.09464 0
M  V30 5865 H 542.878 3.49447 -6.7039 0
M  V30 5866 H 544.146 4.60818 -6.28703 0
M  V30 5867 N 548.375 1.56261 0.205012 0
M  V30 5868 C 549.621 1.80306 0.9283 0
M  V30 5869 C 549.954 0.640932 1.83319 0
M  V30 5870 O 549.229 -0.359032 1.91158 0
M  V30 5871 C 549.512 3.14547 1.75306 0
M  V30 5872 C 549.365 4.41236 0.873562 0
M  V30 5873 C 550.684 3.45382 2.72762 0
M  V30 5874 H 547.803 0.655929 0.336044 0
M  V30 5875 H 550.445 1.88984 0.196211 0
M  V30 5876 H 548.595 3.0728 2.37721 0
M  V30 5877 H 550.267 4.60539 0.264887 0
M  V30 5878 H 548.51 4.33427 0.179773 0
M  V30 5879 H 549.181 5.31639 1.48541 0
M  V30 5880 H 551.657 3.52884 2.20481 0
M  V30 5881 H 550.533 4.40449 3.2756 0
M  V30 5882 H 550.794 2.68377 3.51321 0
M  V30 5883 N 549.853 -0.472356 1.50355 0
M  V30 5884 C 551.101 -1.22211 1.60962 0
M  V30 5885 C 551.422 -1.92497 0.311439 0
M  V30 5886 O 550.692 -1.8405 -0.671002 0
M  V30 5887 H 549.272 -0.454092 0.593135 0
M  V30 5888 H 551.934 -0.544977 1.87126 0
M  V30 5889 H 551.03 -1.9707 2.42012 0
M  V30 5890 N 551.331 -1.39911 -0.725443 0
M  V30 5891 C 552.263 -1.35301 -1.85003 0
M  V30 5892 C 553.276 -0.260102 -1.60709 0
M  V30 5893 O 554.465 -0.519749 -1.70766 0
M  V30 5894 C 551.565 -1.08039 -3.21218 0
M  V30 5895 C 550.738 -2.28793 -3.7279 0
M  V30 5896 C 549.797 -1.97841 -4.87591 0
M  V30 5897 O 548.823 -2.70616 -5.00755 0
M  V30 5898 N 550.025 -0.950367 -5.72668 0
M  V30 5899 H 552.79 -2.32218 -1.89459 0
M  V30 5900 H 550.351 -1.34137 -0.90658 0
M  V30 5901 H 552.343 -0.853354 -3.95601 0
M  V30 5902 H 550.913 -0.198229 -3.11971 0
M  V30 5903 H 550.133 -2.67388 -2.8965 0
M  V30 5904 H 551.421 -3.09317 -4.03981 0
M  V30 5905 H 550.819 -0.347436 -5.64632 0
M  V30 5906 H 549.376 -0.783232 -6.47077 0
M  V30 5907 N 552.809 0.956637 -1.25245 0
M  V30 5908 C 554.055 1.70352 -1.10036 0
M  V30 5909 C 554.388 1.90869 0.358156 0
M  V30 5910 O 553.663 1.47819 1.26411 0
M  V30 5911 C 553.946 3.08766 -1.85298 0
M  V30 5912 C 553.799 2.95672 -3.38966 0
M  V30 5913 C 555.118 4.08622 -1.63451 0
M  V30 5914 H 552.237 0.618279 -0.401123 0
M  V30 5915 H 554.879 1.11212 -1.54051 0
M  V30 5916 H 553.029 3.59252 -1.47887 0
M  V30 5917 H 554.701 2.52527 -3.86041 0
M  V30 5918 H 552.944 2.31634 -3.6678 0
M  V30 5919 H 553.615 3.93776 -3.86839 0
M  V30 5920 H 556.091 3.67038 -1.96015 0
M  V30 5921 H 554.967 5.03514 -2.18551 0
M  V30 5922 H 555.228 4.3834 -0.575357 0
M  V30 5923 N 554.287 1.06798 1.15896 0
M  V30 5924 C 555.217 0.704677 2.22613 0
M  V30 5925 C 556.198 -0.305252 1.67339 0
M  V30 5926 O 557.383 -0.179247 1.93371 0
M  V30 5927 C 554.513 0.0957325 3.47168 0
M  V30 5928 C 553.467 1.0322 4.15367 0
M  V30 5929 C 552.793 0.286293 5.33933 0
M  V30 5930 C 554.093 2.36341 4.65768 0
M  V30 5931 H 555.787 1.59688 2.53259 0
M  V30 5932 H 553.333 0.769257 1.21731 0
M  V30 5933 H 555.286 -0.170333 4.21056 0
M  V30 5934 H 554.01 -0.831516 3.15838 0
M  V30 5935 H 552.669 1.28309 3.43413 0
M  V30 5936 H 552.317 -0.644237 4.98857 0
M  V30 5937 H 552.017 0.910436 5.80504 0
M  V30 5938 H 553.541 0.0278938 6.10594 0
M  V30 5939 H 554.955 2.1561 5.31211 0
M  V30 5940 H 553.352 2.94299 5.2298 0
M  V30 5941 H 554.422 2.99047 3.81705 0
M  V30 5942 N 555.766 -1.3263 0.851289 0
M  V30 5943 C 557.182 -1.50162 0.5407 0
M  V30 5944 C 557.382 -1.78788 -0.929369 0
M  V30 5945 O 556.438 -1.85545 -1.71258 0
M  V30 5946 C 557.751 -2.64803 1.42478 0
M  V30 5947 C 559.299 -2.78688 1.42485 0
M  V30 5948 C 559.774 -3.96405 2.29407 0
M  V30 5949 N 561.265 -4.0366 2.27184 0
M  V30 5950 C 562 -4.93971 2.9117 0
M  V30 5951 N 561.496 -5.89313 3.64256 0
M  V30 5952 N 563.289 -4.87066 2.80576 0
M  V30 5953 H 555.44 -1.12315 1.80275 0
M  V30 5954 H 557.703 -0.553266 0.769806 0
M  V30 5955 H 557.409 -2.50368 2.46999 0
M  V30 5956 H 557.283 -3.60506 1.10974 0
M  V30 5957 H 559.67 -2.92547 0.387304 0
M  V30 5958 H 559.751 -1.83708 1.78002 0
M  V30 5959 H 559.395 -3.83304 3.33228 0
M  V30 5960 H 559.325 -4.90654 1.91224 0
M  V30 5961 H 561.816 -3.35435 1.74045 0
M  V30 5962 H 562.129 -6.54913 4.10255 0
M  V30 5963 H 560.474 -5.8935 3.68364 0
M  V30 5964 H 563.665 -4.11552 2.23031 0
M  V30 5965 H 563.838 -5.57248 3.30725 0
M  V30 5966 N 557.244 -0.608902 -1.45362 0
M  V30 5967 C 558.49 -0.104762 -2.02529 0
M  V30 5968 C 558.823 1.26191 -1.47613 0
M  V30 5969 O 558.098 1.8327 -0.65134 0
M  V30 5970 C 558.381 -0.0672661 -3.60037 0
M  V30 5971 C 558.234 -1.4647 -4.25284 0
M  V30 5972 C 559.553 0.619877 -4.35713 0
M  V30 5973 H 556.672 -0.0395438 -0.735938 0
M  V30 5974 H 559.314 -0.781126 -1.73201 0
M  V30 5975 H 557.464 0.50871 -3.85155 0
M  V30 5976 H 559.136 -2.08785 -4.11347 0
M  V30 5977 H 557.379 -2.02502 -3.83634 0
M  V30 5978 H 558.05 -1.39069 -5.34195 0
M  V30 5979 H 560.526 0.130297 -4.15896 0
M  V30 5980 H 559.402 0.615224 -5.45441 0
M  V30 5981 H 559.663 1.68621 -4.0868 0
M  V30 5982 N 558.722 1.53707 -0.348139 0
M  V30 5983 C 559.655 2.21481 0.549667 0
M  V30 5984 C 560.633 1.20046 1.09671 0
M  V30 5985 O 561.817 1.48883 1.15612 0
M  V30 5986 C 558.944 2.89585 1.75664 0
M  V30 5987 C 557.99 4.04948 1.33864 0
M  V30 5988 S 558.823 5.34325 0.354577 0
M  V30 5989 C 559.979 6.05934 1.56828 0
M  V30 5990 H 560.212 2.97289 -0.0259755 0
M  V30 5991 H 557.745 1.53833 -0.132216 0
M  V30 5992 H 559.703 3.29441 2.44906 0
M  V30 5993 H 558.364 2.13535 2.30351 0
M  V30 5994 H 557.557 4.51552 2.23868 0
M  V30 5995 H 557.159 3.66893 0.725651 0
M  V30 5996 H 559.451 6.29606 2.50205 0
M  V30 5997 H 560.394 6.98799 1.14395 0
M  V30 5998 H 560.802 5.36151 1.76642 0
M  V30 5999 N 560.2 0.0768682 1.57412 0
M  V30 6000 C 561.616 -0.279772 1.57129 0
M  V30 6001 C 561.816 -1.69688 1.08666 0
M  V30 6002 O 560.872 -2.40953 0.754843 0
M  V30 6003 C 562.185 -0.0848055 3.0058 0
M  V30 6004 C 563.733 -0.153954 3.12621 0
M  V30 6005 C 564.208 0.0127946 4.57998 0
M  V30 6006 N 565.699 -0.0426435 4.6318 0
M  V30 6007 C 566.434 0.0618892 5.73367 0
M  V30 6008 N 565.93 0.220229 6.9245 0
M  V30 6009 N 567.723 0.00446072 5.621 0
M  V30 6010 H 559.874 1.00297 1.87228 0
M  V30 6011 H 562.137 0.391565 0.863354 0
M  V30 6012 H 561.843 0.89325 3.40168 0
M  V30 6013 H 561.717 -0.834961 3.67843 0
M  V30 6014 H 564.104 -1.1225 2.72917 0
M  V30 6015 H 564.185 0.627389 2.47987 0
M  V30 6016 H 563.829 0.978128 4.98392 0
M  V30 6017 H 563.759 -0.788016 5.20671 0
M  V30 6018 H 566.25 -0.163226 3.77547 0
M  V30 6019 H 566.563 0.291999 7.72248 0
M  V30 6020 H 564.908 0.255658 6.9453 0
M  V30 6021 H 568.099 -0.117979 4.67951 0
M  V30 6022 H 568.272 0.0893796 6.47938 0
M  V30 6023 N 561.678 -1.56367 -0.196722 0
M  V30 6024 C 562.608 -1.97442 -1.24655 0
M  V30 6025 C 563.589 -0.846147 -1.47561 0
M  V30 6026 O 564.774 -1.11035 -1.59326 0
M  V30 6027 C 561.904 -2.31253 -2.59112 0
M  V30 6028 C 560.858 -3.46804 -2.50821 0
M  V30 6029 C 560.184 -3.66286 -3.89536 0
M  V30 6030 C 561.484 -4.8104 -2.03465 0
M  V30 6031 H 563.178 -2.85388 -0.905216 0
M  V30 6032 H 560.724 -1.37304 -0.434002 0
M  V30 6033 H 562.677 -2.58583 -3.32736 0
M  V30 6034 H 561.401 -1.40188 -2.94983 0
M  V30 6035 H 560.06 -3.19563 -1.79653 0
M  V30 6036 H 559.708 -2.72555 -4.22756 0
M  V30 6037 H 559.408 -4.4402 -3.84864 0
M  V30 6038 H 560.932 -3.9599 -4.64784 0
M  V30 6039 H 562.346 -5.07411 -2.66846 0
M  V30 6040 H 560.743 -5.62232 -2.09798 0
M  V30 6041 H 561.813 -4.74732 -0.98781 0
M  V30 6042 N 563.156 0.464375 -1.50603 0
M  V30 6043 C 564.089 1.58052 -1.64605 0
M  V30 6044 C 565.067 1.54914 -0.494016 0
M  V30 6045 O 566.251 1.74438 -0.714393 0
M  V30 6046 C 563.378 2.96634 -1.63481 0
M  V30 6047 C 562.424 3.17901 -2.84325 0
M  V30 6048 S 563.257 2.97083 -4.45536 0
M  V30 6049 C 564.413 4.37994 -4.47115 0
M  V30 6050 H 564.646 1.45937 -2.59017 0
M  V30 6051 H 562.179 0.652189 -1.39949 0
M  V30 6052 H 564.137 3.76527 -1.63517 0
M  V30 6053 H 562.798 3.06134 -0.702928 0
M  V30 6054 H 561.991 4.19158 -2.79862 0
M  V30 6055 H 561.593 2.45792 -2.81891 0
M  V30 6056 H 563.885 5.30743 -4.21091 0
M  V30 6057 H 564.828 4.47499 -5.48772 0
M  V30 6058 H 565.236 4.20386 -3.76743 0
M  V30 6059 N 564.634 1.40294 0.718013 0
M  V30 6060 C 566.05 1.2227 1.02577 0
M  V30 6061 C 566.25 0.0961976 2.0127 0
M  V30 6062 O 565.306 -0.546695 2.46511 0
M  V30 6063 C 566.619 2.56348 1.57182 0
M  V30 6064 C 568.167 2.6334 1.69178 0
M  V30 6065 C 568.642 3.9768 2.27188 0
M  V30 6066 N 570.133 3.99409 2.34578 0
M  V30 6067 C 570.868 5.00141 2.8044 0
M  V30 6068 N 570.364 6.11268 3.26073 0
M  V30 6069 N 572.157 4.87511 2.79802 0
M  V30 6070 H 564.308 2.12304 0.0637899 0
M  V30 6071 H 566.571 0.943632 0.0909036 0
M  V30 6072 H 566.277 3.3942 0.921262 0
M  V30 6073 H 566.151 2.77266 2.55741 0
M  V30 6074 H 568.538 1.80641 2.33351 0
M  V30 6075 H 568.619 2.46255 0.692247 0
M  V30 6076 H 568.263 4.80817 1.63638 0
M  V30 6077 H 568.193 4.12093 3.27852 0
M  V30 6078 H 570.684 3.19162 2.02346 0
M  V30 6079 H 570.997 6.84023 3.59628 0
M  V30 6080 H 569.342 6.14837 3.24038 0
M  V30 6081 H 572.533 3.9979 2.43487 0
M  V30 6082 H 572.706 5.66158 3.15228 0
M  V30 6083 N 566.112 -0.949982 1.2575 0
M  V30 6084 C 567.361 -1.68956 1.10168 0
M  V30 6085 C 567.674 -1.92327 -0.356309 0
M  V30 6086 O 568.88 -2.64026 -0.632657 0
M  V30 6087 C 567.336 -3.04196 1.92336 0
M  V30 6088 C 566.944 -2.88603 3.42655 0
M  V30 6089 C 568.688 -3.81904 1.85336 0
M  V30 6090 C 566.595 -4.19262 4.17101 0
M  V30 6091 H 565.525 -0.633645 0.408668 0
M  V30 6092 H 568.176 -1.05719 1.49986 0
M  V30 6093 H 566.558 -3.68363 1.45344 0
M  V30 6094 H 567.732 -2.3334 3.97353 0
M  V30 6095 H 566.047 -2.24345 3.50796 0
M  V30 6096 H 568.644 -4.78688 2.38248 0
M  V30 6097 H 568.987 -4.08099 0.822226 0
M  V30 6098 H 569.52 -3.24495 2.30104 0
M  V30 6099 H 566.259 -3.98254 5.20648 0
M  V30 6100 H 565.779 -4.74273 3.67186 0
M  V30 6101 H 567.458 -4.87775 4.25071 0
M  V30 6102 N 567.59 -1.07411 -1.15328 0
M  V30 6103 C 568.837 -0.797649 -1.86128 0
M  V30 6104 C 569.165 0.676298 -1.82364 0
M  V30 6105 O 568.42 1.51223 -1.24218 0
M  V30 6106 C 568.719 -1.25191 -3.34757 0
M  V30 6107 C 568.385 -2.73191 -3.58716 0
M  V30 6108 C 567.047 -3.13616 -3.64964 0
M  V30 6109 C 569.399 -3.68718 -3.6837 0
M  V30 6110 C 566.727 -4.48383 -3.78377 0
M  V30 6111 C 569.079 -5.03248 -3.83306 0
M  V30 6112 C 567.743 -5.43293 -3.878 0
M  V30 6113 H 567.013 -0.29188 -0.681092 0
M  V30 6114 H 569.66 -1.34524 -1.36292 0
M  V30 6115 H 567.965 -0.623712 -3.86804 0
M  V30 6116 H 569.662 -1.01489 -3.87945 0
M  V30 6117 H 566.252 -2.40898 -3.54494 0
M  V30 6118 H 570.436 -3.38614 -3.62842 0
M  V30 6119 H 565.692 -4.78877 -3.80114 0
M  V30 6120 H 569.866 -5.77142 -3.89718 0
M  V30 6121 H 567.493 -6.47721 -3.97946 0
M  V30 6122 N 569.068 1.32177 -0.85831 0
M  V30 6123 C 570.484 1.49873 -0.548656 0
M  V30 6124 C 570.684 1.79278 0.919874 0
M  V30 6125 O 569.74 1.86451 1.70271 0
M  V30 6126 C 571.053 2.64043 -1.4388 0
M  V30 6127 C 572.601 2.77928 -1.43961 0
M  V30 6128 C 573.076 3.95182 -2.31506 0
M  V30 6129 N 574.567 4.0245 -2.29321 0
M  V30 6130 C 575.302 4.9242 -2.93786 0
M  V30 6131 N 574.798 5.87373 -3.67376 0
M  V30 6132 N 576.591 4.85572 -2.83155 0
M  V30 6133 H 568.742 1.11357 -1.80868 0
M  V30 6134 H 571.005 0.549175 -0.772729 0
M  V30 6135 H 570.711 2.49055 -2.48324 0
M  V30 6136 H 570.585 3.59912 -1.12885 0
M  V30 6137 H 572.972 2.92338 -0.402813 0
M  V30 6138 H 573.053 1.82762 -1.78974 0
M  V30 6139 H 572.697 3.81531 -3.35256 0
M  V30 6140 H 572.627 4.89633 -1.93823 0
M  V30 6141 H 575.118 3.34507 -1.75822 0
M  V30 6142 H 575.431 6.52728 -4.13722 0
M  V30 6143 H 573.776 5.87388 -3.71484 0
M  V30 6144 H 576.967 4.10363 -2.25211 0
M  V30 6145 H 577.14 5.55486 -3.33676 0
M  V30 6146 N 570.547 0.616602 1.45037 0
M  V30 6147 C 571.796 0.112861 2.01384 0
M  V30 6148 C 572.109 -1.26758 1.48969 0
M  V30 6149 O 573.315 -1.86454 1.9735 0
M  V30 6150 C 571.771 0.151057 3.59583 0
M  V30 6151 C 571.379 1.53191 4.20995 0
M  V30 6152 C 573.123 -0.296974 4.2346 0
M  V30 6153 C 571.03 1.526 5.71373 0
M  V30 6154 H 569.96 0.0384254 0.75302 0
M  V30 6155 H 572.611 0.773262 1.66412 0
M  V30 6156 H 570.993 -0.57617 3.91786 0
M  V30 6157 H 572.167 2.28156 4.00352 0
M  V30 6158 H 570.482 1.92279 3.69348 0
M  V30 6159 H 573.079 -0.320712 5.33737 0
M  V30 6160 H 573.422 -1.32145 3.9477 0
M  V30 6161 H 573.955 0.377279 3.96007 0
M  V30 6162 H 570.694 2.52837 6.04776 0
M  V30 6163 H 570.214 0.819064 5.94181 0
M  V30 6164 H 571.893 1.25357 6.3474 0
M  V30 6165 N 572.025 -1.5352 0.356285 0
M  V30 6166 C 572.955 -2.28372 -0.486661 0
M  V30 6167 C 573.936 -1.30432 -1.09185 0
M  V30 6168 O 575.121 -1.59291 -1.11085 0
M  V30 6169 C 572.251 -3.06604 -1.63129 0
M  V30 6170 C 571.205 -4.12154 -1.15381 0
M  V30 6171 C 570.531 -4.78415 -2.38796 0
M  V30 6172 C 571.831 -5.21724 -0.245179 0
M  V30 6173 H 573.525 -2.99083 0.137797 0
M  V30 6174 H 571.071 -1.43841 0.0677134 0
M  V30 6175 H 573.024 -3.57712 -2.22755 0
M  V30 6176 H 571.748 -2.33568 -2.28284 0
M  V30 6177 H 570.407 -3.61978 -0.580294 0
M  V30 6178 H 570.055 -4.01959 -3.02387 0
M  V30 6179 H 569.755 -5.49734 -2.07524 0
M  V30 6180 H 571.279 -5.32313 -2.99125 0
M  V30 6181 H 572.693 -5.68391 -0.748646 0
M  V30 6182 H 571.09 -6.00095 -0.0237608 0
M  V30 6183 H 572.16 -4.79596 0.715229 0
M  V30 6184 N 573.503 -0.0852151 -1.57369 0
M  V30 6185 C 574.45 0.877268 -2.13478 0
M  V30 6186 C 575.42 1.28642 -1.05073 0
M  V30 6187 O 576.605 1.36992 -1.32808 0
M  V30 6188 C 573.745 2.13464 -2.71159 0
M  V30 6189 C 572.858 1.77691 -3.93764 0
M  V30 6190 C 571.993 2.98139 -4.39643 0
M  V30 6191 C 571.032 2.58447 -5.54862 0
M  V30 6192 N 570.169 3.71698 -5.95639 0
M  V30 6193 H 575.009 0.391933 -2.95411 0
M  V30 6194 H 572.546 0.181796 -1.45972 0
M  V30 6195 H 574.504 2.87086 -3.02717 0
M  V30 6196 H 573.134 2.59514 -1.91969 0
M  V30 6197 H 572.186 0.940768 -3.68583 0
M  V30 6198 H 573.498 1.44497 -4.77412 0
M  V30 6199 H 572.652 3.80026 -4.72933 0
M  V30 6200 H 571.391 3.34536 -3.54876 0
M  V30 6201 H 570.396 1.74984 -5.21211 0
M  V30 6202 H 571.621 2.23205 -6.41371 0
M  V30 6203 H 569.567 4.07831 -5.13819 0
M  V30 6204 H 569.484 3.42317 -6.74059 0
M  V30 6205 H 570.752 4.54123 -6.33555 0
M  V30 6206 N 574.981 1.5647 0.188427 0
M  V30 6207 C 575.911 1.98101 1.23606 0
M  V30 6208 C 576.892 0.853961 1.47111 0
M  V30 6209 O 578.077 1.11879 1.58735 0
M  V30 6210 C 575.207 2.32624 2.57882 0
M  V30 6211 C 574.161 3.48129 2.48978 0
M  V30 6212 C 573.487 3.68347 3.87588 0
M  V30 6213 C 574.787 4.82112 2.00911 0
M  V30 6214 H 576.481 2.85864 0.890068 0
M  V30 6215 H 574.027 1.37532 0.426714 0
M  V30 6216 H 575.98 2.60343 3.3136 0
M  V30 6217 H 574.704 1.41751 2.94235 0
M  V30 6218 H 573.363 3.20511 1.77956 0
M  V30 6219 H 573.011 2.74793 4.21305 0
M  V30 6220 H 572.711 4.46055 3.82503 0
M  V30 6221 H 574.235 3.98449 4.62678 0
M  V30 6222 H 575.649 5.08819 2.64151 0
M  V30 6223 H 574.046 5.63337 2.06814 0
M  V30 6224 H 575.116 4.75249 0.96262 0
M  V30 6225 N 576.459 -0.456382 1.50847 0
M  V30 6226 C 577.422 -1.53493 1.70213 0
M  V30 6227 C 578.422 -1.50264 0.572481 0
M  V30 6228 O 579.612 -1.52623 0.839751 0
M  V30 6229 C 576.744 -2.93091 1.741 0
M  V30 6230 H 577.937 -1.37633 2.66453 0
M  V30 6231 H 575.49 -0.683776 1.4055 0
M  V30 6232 H 576.225 -3.14378 0.796063 0
M  V30 6233 H 576.01 -2.9684 2.5618 0
M  V30 6234 H 577.5 -3.71368 1.90987 0
M  V30 6235 N 577.937 -1.40673 -0.710563 0
M  V30 6236 C 579.353 -1.22813 -1.01928 0
M  V30 6237 C 579.553 -0.10687 -2.01216 0
M  V30 6238 O 578.609 0.533614 -2.46797 0
M  V30 6239 C 579.922 -2.57178 -1.5582 0
M  V30 6240 C 581.47 -2.64233 -1.67779 0
M  V30 6241 C 581.945 -3.98879 -2.25076 0
M  V30 6242 N 583.436 -4.00647 -2.32456 0
M  V30 6243 C 584.171 -5.01621 -2.77784 0
M  V30 6244 N 583.667 -6.12989 -3.22826 0
M  V30 6245 N 585.46 -4.88988 -2.77213 0
M  V30 6246 H 577.611 -2.12335 -0.05253 0
M  V30 6247 H 579.874 -0.9441 -0.085898 0
M  V30 6248 H 579.58 -3.39903 -0.903249 0
M  V30 6249 H 579.454 -2.78618 -2.54267 0
M  V30 6250 H 581.841 -1.81876 -2.3239 0
M  V30 6251 H 581.922 -2.46619 -0.679178 0
M  V30 6252 H 581.566 -4.81678 -1.61086 0
M  V30 6253 H 581.496 -4.13826 -3.25661 0
M  V30 6254 H 583.987 -3.20231 -2.0065 0
M  V30 6255 H 584.3 -6.85921 -3.55995 0
M  V30 6256 H 582.645 -6.16547 -3.20773 0
M  V30 6257 H 585.836 -4.01075 -2.41363 0
M  V30 6258 H 586.009 -5.67822 -3.12221 0
M  V30 6259 N 579.415 0.9433 -1.26252 0
M  V30 6260 C 580.365 2.02746 -1.04297 0
M  V30 6261 C 581.349 1.60882 0.0239435 0
M  V30 6262 O 582.541 1.75947 -0.192757 0
M  V30 6263 C 579.67 3.36585 -0.6757 0
M  V30 6264 C 578.756 3.84939 -1.77996 0
M  V30 6265 N 579.147 4.05966 -3.01704 0
M  V30 6266 C 577.445 4.13833 -1.66308 0
M  V30 6267 C 578.146 4.45987 -3.73458 0
M  V30 6268 N 577.122 4.52569 -3.01135 0
M  V30 6269 H 580.924 2.17012 -1.98199 0
M  V30 6270 H 578.438 1.12898 -1.16738 0
M  V30 6271 H 580.435 4.13896 -0.499571 0
M  V30 6272 H 579.095 3.2369 0.255863 0
M  V30 6273 H 580.106 3.92716 -3.37631 0
M  V30 6274 H 576.783 4.09739 -0.801267 0
M  V30 6275 H 578.173 4.70465 -4.79701 0
M  V30 6276 N 580.893 1.08022 1.14757 0
M  V30 6277 C 582.118 0.82895 1.90114 0
M  V30 6278 C 582.543 -0.612772 1.77839 0
M  V30 6279 O 581.901 -1.42895 1.11583 0
M  V30 6280 C 581.949 1.25062 3.38219 0
M  V30 6281 O 581.053 0.400119 4.10454 0
M  V30 6282 H 580.394 0.301412 0.591648 0
M  V30 6283 H 582.924 1.44062 1.45284 0
M  V30 6284 H 582.934 1.22977 3.89025 0
M  V30 6285 H 581.609 2.30067 3.46471 0
M  V30 6286 H 580.186 0.484052 3.69745 0
M  V30 6287 N 582.371 -1.3172 0.865308 0
M  V30 6288 C 583.599 -2.01057 0.488251 0
M  V30 6289 C 584.014 -1.64979 -0.918 0
M  V30 6290 O 583.371 -0.876597 -1.60069 0
M  V30 6291 C 583.422 -3.55964 0.630224 0
M  V30 6292 O 583.143 -3.90749 1.98109 0
M  V30 6293 C 584.644 -4.42574 0.253567 0
M  V30 6294 H 581.864 -0.64332 0.190736 0
M  V30 6295 H 584.408 -1.68058 1.16519 0
M  V30 6296 H 582.563 -3.874 0.000895422 0
M  V30 6297 H 582.977 -4.85467 1.9855 0
M  V30 6298 H 584.451 -5.50521 0.403875 0
M  V30 6299 H 584.928 -4.31724 -0.806895 0
M  V30 6300 H 585.534 -4.16547 0.858404 0
M  V30 6301 N 583.85 -0.624285 -1.44708 0
M  V30 6302 C 585.098 -0.125802 -2.01708 0
M  V30 6303 C 585.418 1.2543 -1.49306 0
M  V30 6304 O 584.689 1.83198 -0.693924 0
M  V30 6305 H 583.269 -0.0435161 -0.745731 0
M  V30 6306 H 585.931 -0.809446 -1.77296 0
M  V30 6307 H 585.027 -0.0882734 -3.11975 0
M  V30 6308 N 585.328 1.53329 -0.364422 0
M  V30 6309 C 586.258 2.28627 0.474543 0
M  V30 6310 C 587.239 1.31009 1.08492 0
M  V30 6311 O 588.424 1.59878 1.10239 0
M  V30 6312 C 585.554 3.07465 1.61501 0
M  V30 6313 C 584.508 4.1276 1.13194 0
M  V30 6314 C 583.834 4.79674 2.36255 0
M  V30 6315 C 585.134 5.21847 0.217507 0
M  V30 6316 H 586.828 2.99005 -0.153656 0
M  V30 6317 H 584.374 1.43803 -0.0753406 0
M  V30 6318 H 586.327 3.58889 2.20855 0
M  V30 6319 H 585.051 2.34775 2.27042 0
M  V30 6320 H 583.71 3.62281 0.56109 0
M  V30 6321 H 583.358 4.03557 3.00251 0
M  V30 6322 H 583.058 5.50827 2.04606 0
M  V30 6323 H 584.582 5.33892 2.96297 0
M  V30 6324 H 585.996 5.6878 0.718493 0
M  V30 6325 H 584.393 6.00099 -0.00806408 0
M  V30 6326 H 585.463 4.7921 -0.740653 0
M  V30 6327 N 586.806 0.0935595 1.57322 0
M  V30 6328 C 588.222 -0.263091 1.57417 0
M  V30 6329 C 588.422 -1.68526 1.1046 0
M  V30 6330 O 587.478 -2.40139 0.780357 0
M  V30 6331 C 588.791 -0.0529201 3.00653 0
M  V30 6332 C 590.339 -0.120788 3.12767 0
M  V30 6333 C 590.814 0.0613707 4.57959 0
M  V30 6334 N 592.305 0.00648534 4.632 0
M  V30 6335 C 593.04 0.122699 5.73269 0
M  V30 6336 N 592.536 0.29366 6.92177 0
M  V30 6337 N 594.329 0.0640787 5.62063 0
M  V30 6338 H 586.48 1.02277 1.86154 0
M  V30 6339 H 588.743 0.4007 0.859153 0
M  V30 6340 H 588.449 0.929279 3.39201 0
M  V30 6341 H 588.323 -0.795899 3.68708 0
M  V30 6342 H 590.71 -1.09349 2.74093 0
M  V30 6343 H 590.791 0.653656 2.47307 0
M  V30 6344 H 590.435 1.03093 4.97327 0
M  V30 6345 H 590.365 -0.732748 5.21477 0
M  V30 6346 H 592.856 -0.123173 3.77699 0
M  V30 6347 H 593.169 0.37389 7.71895 0
M  V30 6348 H 591.514 0.329307 6.94219 0
M  V30 6349 H 594.705 -0.0683396 4.6805 0
M  V30 6350 H 594.878 0.158097 6.47807 0
M  V30 6351 N 588.284 -1.56567 -0.180126 0
M  V30 6352 C 589.247 -1.94852 -1.20686 0
M  V30 6353 C 590.247 -0.831212 -1.3765 0
M  V30 6354 O 591.437 -1.09841 -1.35206 0
M  V30 6355 C 588.569 -2.23565 -2.57355 0
M  V30 6356 H 589.762 -2.86722 -0.879225 0
M  V30 6357 H 587.315 -1.50489 -0.422237 0
M  V30 6358 H 588.05 -1.34381 -2.95148 0
M  V30 6359 H 587.835 -3.04999 -2.46411 0
M  V30 6360 H 589.325 -2.54137 -3.31367 0
M  V30 6361 N 589.762 0.448376 -1.51087 0
M  V30 6362 C 591.009 1.19872 -1.63209 0
M  V30 6363 C 591.337 1.91451 -0.343062 0
M  V30 6364 O 590.592 1.83789 0.672321 0
M  V30 6365 C 590.891 2.24866 -2.77795 0
M  V30 6366 C 590.557 1.70378 -4.17471 0
M  V30 6367 C 589.219 1.55241 -4.55471 0
M  V30 6368 C 591.571 1.30203 -5.04675 0
M  V30 6369 C 588.899 0.983844 -5.78392 0
M  V30 6370 C 591.251 0.747798 -6.28165 0
M  V30 6371 C 589.915 0.583233 -6.64947 0
M  V30 6372 H 589.185 0.438642 -0.597222 0
M  V30 6373 H 591.832 0.49136 -1.85089 0
M  V30 6374 H 590.137 3.01598 -2.50092 0
M  V30 6375 H 591.834 2.82723 -2.84374 0
M  V30 6376 H 588.424 1.83134 -3.87505 0
M  V30 6377 H 592.608 1.40723 -4.75932 0
M  V30 6378 H 587.864 0.844007 -6.05546 0
M  V30 6379 H 592.038 0.427927 -6.95084 0
M  V30 6380 H 589.665 0.140532 -7.6007 0
M  V30 6381 N 591.24 1.41047 0.703093 0
M  V30 6382 C 592.488 1.39723 1.4602 0
M  V30 6383 C 592.809 0.00461257 1.94999 0
M  V30 6384 O 592.079 -0.952292 1.71196 0
M  V30 6385 H 590.659 0.514281 0.541779 0
M  V30 6386 H 593.321 1.76217 0.832678 0
M  V30 6387 H 592.417 2.07982 2.32701 0
M  V30 6388 N 592.718 -0.936591 1.26751 0
M  V30 6389 C 593.965 -1.68331 1.12566 0
M  V30 6390 C 594.293 -1.91677 -0.330168 0
M  V30 6391 O 593.548 -1.49859 -1.2586 0
M  V30 6392 C 593.847 -3.06099 1.84494 0
M  V30 6393 C 593.513 -3.02493 3.34378 0
M  V30 6394 C 592.175 -3.01217 3.75262 0
M  V30 6395 C 594.527 -2.94453 4.30055 0
M  V30 6396 C 591.855 -2.89672 5.10203 0
M  V30 6397 C 594.207 -2.84449 5.65041 0
M  V30 6398 C 592.871 -2.81518 6.0523 0
M  V30 6399 H 592.141 -0.615965 0.411907 0
M  V30 6400 H 594.788 -1.09292 1.5725 0
M  V30 6401 H 593.093 -3.6879 1.32292 0
M  V30 6402 H 594.79 -3.62733 1.70955 0
M  V30 6403 H 591.38 -3.04269 3.01858 0
M  V30 6404 H 595.564 -2.94544 3.99447 0
M  V30 6405 H 590.82 -2.85783 5.40498 0
M  V30 6406 H 594.994 -2.77192 6.38856 0
M  V30 6407 H 592.621 -2.72329 7.09747 0
M  V30 6408 N 594.196 -1.08629 -1.14182 0
M  V30 6409 C 595.424 -0.838889 -1.8913 0
M  V30 6410 C 595.839 0.609153 -1.78703 0
M  V30 6411 O 595.196 1.41876 -1.14794 0
M  V30 6412 C 595.247 -1.25477 -3.39025 0
M  V30 6413 O 594.968 -2.64601 -3.49167 0
M  V30 6414 C 596.469 -1.03856 -4.30963 0
M  V30 6415 H 593.689 -0.302377 -0.599007 0
M  V30 6416 H 596.233 -1.44615 -1.44592 0
M  V30 6417 H 594.388 -0.691571 -3.81177 0
M  V30 6418 H 594.802 -2.81922 -4.42289 0
M  V30 6419 H 596.276 -1.37892 -5.345 0
M  V30 6420 H 596.753 0.0242522 -4.39193 0
M  V30 6421 H 597.359 -1.58731 -3.94569 0
M  V30 6422 N 595.674 1.31259 -0.872281 0
M  V30 6423 C 596.604 2.30929 -0.345554 0
M  V30 6424 C 597.585 1.60449 0.5648 0
M  V30 6425 O 598.77 1.8814 0.481335 0
M  V30 6426 C 595.9 3.44348 0.451823 0
M  V30 6427 C 594.854 4.26435 -0.365641 0
M  V30 6428 C 594.18 5.31785 0.557562 0
M  V30 6429 C 595.48 4.97159 -1.60095 0
M  V30 6430 H 597.174 2.75234 -1.17841 0
M  V30 6431 H 594.72 1.3232 -0.568094 0
M  V30 6432 H 596.673 4.13128 0.830854 0
M  V30 6433 H 595.397 2.98816 1.31821 0
M  V30 6434 H 594.056 3.59326 -0.726649 0
M  V30 6435 H 593.704 4.82502 1.4213 0
M  V30 6436 H 593.404 5.87598 0.0144878 0
M  V30 6437 H 594.928 6.03424 0.933387 0
M  V30 6438 H 596.342 5.58523 -1.29323 0
M  V30 6439 H 594.739 5.62779 -2.08327 0
M  V30 6440 H 595.809 4.24012 -2.35249 0
M  V30 6441 N 597.152 0.631951 1.44375 0
M  V30 6442 C 598.568 0.297642 1.568 0
M  V30 6443 C 598.768 -1.19916 1.61934 0
M  V30 6444 O 597.824 -1.98324 1.56281 0
M  V30 6445 C 599.137 0.990286 2.83926 0
M  V30 6446 C 600.685 0.968507 2.97639 0
M  V30 6447 C 601.16 1.64163 4.27568 0
M  V30 6448 N 602.651 1.60826 4.34384 0
M  V30 6449 C 603.386 2.09802 5.33639 0
M  V30 6450 N 602.882 2.66973 6.39294 0
M  V30 6451 N 604.675 2.00426 5.25153 0
M  V30 6452 H 596.826 1.60353 1.39286 0
M  V30 6453 H 599.089 0.673142 0.667521 0
M  V30 6454 H 598.795 2.04519 2.8612 0
M  V30 6455 H 598.669 0.528563 3.73478 0
M  V30 6456 H 601.056 -0.0779247 2.94997 0
M  V30 6457 H 601.137 1.46873 2.09433 0
M  V30 6458 H 600.781 2.68752 4.3097 0
M  V30 6459 H 600.711 1.11624 5.14634 0
M  V30 6460 H 603.202 1.19087 3.58646 0
M  V30 6461 H 603.515 3.02074 7.11316 0
M  V30 6462 H 601.86 2.71024 6.39977 0
M  V30 6463 H 605.051 1.55483 4.41523 0
M  V30 6464 H 605.224 2.38906 6.02352 0
M  V30 6465 N 598.631 -1.53133 0.372548 0
M  V30 6466 C 599.563 -2.23557 -0.505444 0
M  V30 6467 C 600.576 -1.25211 -1.04049 0
M  V30 6468 O 601.765 -1.51391 -0.945675 0
M  V30 6469 C 598.865 -2.92516 -1.71136 0
M  V30 6470 C 598.038 -4.17428 -1.30661 0
M  V30 6471 C 597.097 -4.69535 -2.37536 0
M  V30 6472 O 596.123 -5.33042 -1.99637 0
M  V30 6473 N 597.325 -4.47947 -3.6922 0
M  V30 6474 H 600.09 -2.9954 0.0978259 0
M  V30 6475 H 597.651 -1.60684 0.198068 0
M  V30 6476 H 599.643 -3.24281 -2.42124 0
M  V30 6477 H 598.213 -2.19944 -2.22134 0
M  V30 6478 H 597.433 -3.91888 -0.426292 0
M  V30 6479 H 598.721 -4.98622 -1.01259 0
M  V30 6480 H 598.119 -3.97219 -4.02783 0
M  V30 6481 H 596.676 -4.84245 -4.36292 0
M  V30 6482 N 600.109 -0.101901 -1.5727 0
M  V30 6483 C 601.349 0.563489 -1.96479 0
M  V30 6484 C 601.713 1.64926 -0.983021 0
M  V30 6485 O 602.914 2.37234 -1.26386 0
M  V30 6486 C 601.185 1.09809 -3.40113 0
M  V30 6487 S 602.744 1.7744 -4.01323 0
M  V30 6488 H 599.562 0.183675 -0.686866 0
M  V30 6489 H 602.164 -0.182922 -1.94642 0
M  V30 6490 H 600.868 0.296447 -4.09328 0
M  V30 6491 H 600.399 1.88018 -3.45562 0
M  V30 6492 H 602.414 3.0591 -3.90683 0
M  V30 6493 N 601.587 1.56661 0.17182 0
M  V30 6494 C 602.817 1.85831 0.902804 0
M  V30 6495 C 603.225 0.685157 1.76358 0
M  V30 6496 O 602.568 -0.354947 1.80238 0
M  V30 6497 C 602.63 3.09406 1.83053 0
M  V30 6498 C 602.294 4.4231 1.1494 0
M  V30 6499 C 603.291 5.17342 0.515104 0
M  V30 6500 C 600.976 4.89045 1.14631 0
M  V30 6501 C 602.97 6.37299 -0.113194 0
M  V30 6502 C 600.657 6.08933 0.514184 0
M  V30 6503 C 601.655 6.82904 -0.114463 0
M  V30 6504 O 601.343 8.00518 -0.736622 0
M  V30 6505 H 601.075 0.620715 0.267748 0
M  V30 6506 H 603.629 2.04637 0.176918 0
M  V30 6507 H 601.859 2.86544 2.59672 0
M  V30 6508 H 603.548 3.25027 2.4313 0
M  V30 6509 H 604.314 4.82317 0.509474 0
M  V30 6510 H 600.193 4.31409 1.62502 0
M  V30 6511 H 603.737 6.94976 -0.604477 0
M  V30 6512 H 599.634 6.43423 0.517395 0
M  V30 6513 H 600.402 8.16027 -0.635822 0
M  V30 6514 N 603.065 -0.440357 1.51323 0
M  V30 6515 C 603.997 -1.55254 1.68609 0
M  V30 6516 C 605.01 -1.52614 0.566812 0
M  V30 6517 O 606.199 -1.57445 0.841032 0
M  V30 6518 C 603.299 -2.94169 1.68279 0
M  V30 6519 C 602.472 -3.21346 2.96742 0
M  V30 6520 C 601.531 -4.3997 2.8864 0
M  V30 6521 O 600.557 -4.38771 3.62586 0
M  V30 6522 N 601.759 -5.43367 2.04285 0
M  V30 6523 H 604.524 -1.40831 2.6455 0
M  V30 6524 H 602.085 -0.629251 1.49171 0
M  V30 6525 H 604.077 -3.71543 1.60431 0
M  V30 6526 H 602.647 -3.02205 0.799441 0
M  V30 6527 H 601.867 -2.32299 3.18482 0
M  V30 6528 H 603.155 -3.3633 3.81785 0
M  V30 6529 H 602.553 -5.47176 1.43578 0
M  V30 6530 H 601.11 -6.19605 2.02318 0
M  V30 6531 N 604.543 -1.41418 -0.695603 0
M  V30 6532 C 605.475 -1.39195 -1.82092 0
M  V30 6533 C 606.488 -0.294132 -1.60121 0
M  V30 6534 O 607.677 -0.555854 -1.69625 0
M  V30 6535 C 604.777 -1.14828 -3.18854 0
M  V30 6536 C 603.95 -2.36649 -3.67853 0
M  V30 6537 C 603.009 -2.08139 -4.83285 0
M  V30 6538 O 602.035 -2.81177 -4.94902 0
M  V30 6539 N 603.237 -1.07162 -5.70523 0
M  V30 6540 H 606.002 -2.36185 -1.84491 0
M  V30 6541 H 603.563 -1.3603 -0.877923 0
M  V30 6542 H 605.555 -0.937075 -3.93702 0
M  V30 6543 H 604.125 -0.264358 -3.1148 0
M  V30 6544 H 603.345 -2.73472 -2.83913 0
M  V30 6545 H 604.633 -3.17816 -3.97329 0
M  V30 6546 H 604.031 -0.467124 -5.63768 0
M  V30 6547 H 602.588 -0.920311 -6.4527 0
M  V30 6548 N 606.021 0.929856 -1.27246 0
M  V30 6549 C 607.267 1.6798 -1.13625 0
M  V30 6550 C 607.6 1.91586 0.317589 0
M  V30 6551 O 606.875 1.50467 1.23247 0
M  V30 6552 C 607.158 3.04766 -1.91806 0
M  V30 6553 C 607.011 2.88415 -3.45162 0
M  V30 6554 C 608.33 4.05063 -1.72082 0
M  V30 6555 H 605.449 0.609632 -0.414147 0
M  V30 6556 H 608.091 1.0792 -1.56376 0
M  V30 6557 H 606.241 3.56034 -1.55474 0
M  V30 6558 H 607.913 2.44282 -3.91311 0
M  V30 6559 H 606.156 2.23802 -3.71611 0
M  V30 6560 H 606.827 3.85482 -3.95105 0
M  V30 6561 H 609.303 3.62798 -2.03757 0
M  V30 6562 H 608.179 4.98765 -2.29182 0
M  V30 6563 H 608.44 4.37021 -0.668206 0
M  V30 6564 N 607.499 1.09233 1.13605 0
M  V30 6565 C 608.747 0.825525 1.84471 0
M  V30 6566 C 609.068 -0.650702 1.83823 0
M  V30 6567 O 608.338 -1.47204 1.29259 0
M  V30 6568 H 606.918 0.3024 0.683054 0
M  V30 6569 H 609.58 1.38006 1.37624 0
M  V30 6570 H 608.676 1.17727 2.89045 0
M  V30 6571 N 608.977 -1.30795 0.87923 0
M  V30 6572 C 610.217 -1.98155 0.50141 0
M  V30 6573 C 610.581 -1.67925 -0.930863 0
M  V30 6574 O 611.782 -2.28572 -1.41451 0
M  V30 6575 C 610.053 -3.49184 0.761937 0
M  V30 6576 S 611.612 -4.36107 0.485361 0
M  V30 6577 H 608.43 -0.686025 0.186792 0
M  V30 6578 H 611.032 -1.59018 1.13726 0
M  V30 6579 H 609.736 -3.68676 1.80295 0
M  V30 6580 H 609.267 -3.93236 0.113432 0
M  V30 6581 H 611.282 -4.9154 -0.678467 0
M  V30 6582 N 610.455 -0.639598 -1.44038 0
M  V30 6583 C 611.385 0.0469443 -2.33453 0
M  V30 6584 C 612.366 0.82609 -1.48694 0
M  V30 6585 O 613.551 0.790285 -1.77393 0
M  V30 6586 C 610.681 1.02338 -3.3188 0
M  V30 6587 C 609.635 0.355284 -4.26523 0
M  V30 6588 C 608.961 1.44221 -5.14883 0
M  V30 6589 C 610.261 -0.743798 -5.16977 0
M  V30 6590 H 611.955 -0.699735 -2.91108 0
M  V30 6591 H 609.501 -0.337946 -1.39978 0
M  V30 6592 H 611.454 1.51247 -3.93322 0
M  V30 6593 H 610.178 1.80105 -2.72451 0
M  V30 6594 H 608.837 -0.113239 -3.66425 0
M  V30 6595 H 608.485 2.21097 -4.51802 0
M  V30 6596 H 608.185 1.00052 -5.79019 0
M  V30 6597 H 609.709 1.93295 -5.79197 0
M  V30 6598 H 611.123 -0.337444 -5.72306 0
M  V30 6599 H 609.52 -1.10914 -5.89761 0
M  V30 6600 H 610.59 -1.60745 -4.57481 0
M  V30 6601 N 611.933 1.52934 -0.380664 0
M  V30 6602 C 612.863 2.29118 0.450268 0
M  V30 6603 C 613.844 1.32153 1.07096 0
M  V30 6604 O 615.029 1.61038 1.08537 0
M  V30 6605 C 612.159 3.09161 1.58231 0
M  V30 6606 C 611.113 4.13938 1.0881 0
M  V30 6607 C 610.439 4.82153 2.31155 0
M  V30 6608 C 611.739 5.22048 0.162146 0
M  V30 6609 H 613.433 2.98826 -0.185361 0
M  V30 6610 H 610.979 1.43715 -0.0905886 0
M  V30 6611 H 612.932 3.61211 2.17036 0
M  V30 6612 H 611.656 2.3717 2.2454 0
M  V30 6613 H 610.315 3.62855 0.522633 0
M  V30 6614 H 609.963 4.06719 2.95953 0
M  V30 6615 H 609.663 5.52966 1.98752 0
M  V30 6616 H 611.187 5.37004 2.90618 0
M  V30 6617 H 612.601 5.6951 0.658126 0
M  V30 6618 H 610.998 6.00057 -0.0717122 0
M  V30 6619 H 612.068 4.78398 -0.791438 0
M  V30 6620 N 613.412 0.11024 1.57214 0
M  V30 6621 C 614.342 -0.840002 2.17867 0
M  V30 6622 C 615.323 -1.28352 1.11624 0
M  V30 6623 O 616.508 -1.3477 1.39824 0
M  V30 6624 C 613.638 -2.09349 2.77111 0
M  V30 6625 C 612.592 -1.78807 3.8886 0
M  V30 6626 C 611.918 -3.11112 4.34872 0
M  V30 6627 C 613.218 -1.0632 5.11364 0
M  V30 6628 H 614.912 -0.334608 2.97524 0
M  V30 6629 H 612.458 -0.159502 1.43114 0
M  V30 6630 H 614.411 -2.76275 3.18198 0
M  V30 6631 H 613.135 -2.62198 1.9473 0
M  V30 6632 H 611.794 -1.14273 3.48335 0
M  V30 6633 H 611.442 -3.61877 3.49362 0
M  V30 6634 H 611.142 -2.91453 5.10224 0
M  V30 6635 H 612.666 -3.79171 4.78604 0
M  V30 6636 H 614.08 -1.63383 5.49526 0
M  V30 6637 H 612.477 -0.967876 5.92243 0
M  V30 6638 H 613.547 -0.0484569 4.84876 0
M  V30 6639 N 614.89 -1.56749 -0.16351 0
M  V30 6640 C 616.137 -1.82434 -0.878866 0
M  V30 6641 C 616.465 -0.688557 -1.81904 0
M  V30 6642 O 615.72 0.323644 -1.93005 0
M  V30 6643 C 616.019 -3.14342 -1.70071 0
M  V30 6644 C 615.685 -4.41647 -0.908775 0
M  V30 6645 C 614.347 -4.76224 -0.690236 0
M  V30 6646 C 616.699 -5.19998 -0.353815 0
M  V30 6647 C 614.027 -5.86624 0.0942374 0
M  V30 6648 C 616.379 -6.3122 0.41761 0
M  V30 6649 C 615.043 -6.64358 0.646879 0
M  V30 6650 H 614.313 -0.667574 -0.3216 0
M  V30 6651 H 616.96 -1.90963 -0.14337 0
M  V30 6652 H 615.265 -3.0119 -2.50583 0
M  V30 6653 H 616.962 -3.31426 -2.25738 0
M  V30 6654 H 613.552 -4.1453 -1.08916 0
M  V30 6655 H 617.736 -4.93673 -0.509975 0
M  V30 6656 H 612.992 -6.10751 0.281529 0
M  V30 6657 H 617.166 -6.91133 0.854849 0
M  V30 6658 H 614.793 -7.49742 1.25662 0
M  V30 6659 N 616.368 0.432326 -1.51554 0
M  V30 6660 C 617.617 1.17831 -1.63703 0
M  V30 6661 C 617.93 1.92229 -0.36156 0
M  V30 6662 O 619.136 2.69069 -0.362495 0
M  V30 6663 C 617.592 2.14318 -2.89129 0
M  V30 6664 C 617.2 1.45544 -4.23699 0
M  V30 6665 C 618.944 2.89319 -3.10636 0
M  V30 6666 C 616.851 2.40545 -5.4027 0
M  V30 6667 H 615.781 0.443533 -0.60975 0
M  V30 6668 H 618.432 0.444878 -1.78026 0
M  V30 6669 H 616.814 2.91117 -2.68452 0
M  V30 6670 H 617.988 0.742693 -4.54775 0
M  V30 6671 H 616.303 0.826772 -4.0811 0
M  V30 6672 H 618.9 3.60495 -3.94902 0
M  V30 6673 H 619.243 3.50951 -2.23918 0
M  V30 6674 H 619.776 2.19625 -3.31677 0
M  V30 6675 H 616.515 1.83594 -6.29264 0
M  V30 6676 H 616.035 3.09859 -5.13563 0
M  V30 6677 H 617.714 3.01569 -5.72421 0
M  V30 6678 N 617.846 1.41785 0.688094 0
M  V30 6679 C 618.809 1.43936 1.78368 0
M  V30 6680 C 619.809 0.328866 1.57401 0
M  V30 6681 O 620.999 0.589093 1.63937 0
M  V30 6682 C 618.131 1.25804 3.16838 0
M  V30 6683 H 619.324 2.41472 1.77852 0
M  V30 6684 H 616.877 1.28037 0.896448 0
M  V30 6685 H 617.612 0.291386 3.22988 0
M  V30 6686 H 617.397 2.06272 3.33458 0
M  V30 6687 H 618.887 1.30162 3.96797 0
M  V30 6688 N 619.324 -0.923095 1.27737 0
M  V30 6689 C 620.257 -2.02515 1.05181 0
M  V30 6690 C 621.235 -1.62574 -0.0292204 0
M  V30 6691 O 622.419 -1.88137 0.116848 0
M  V30 6692 C 619.546 -3.33407 0.596468 0
M  V30 6693 C 618.592 -3.92328 1.67276 0
M  V30 6694 S 619.425 -4.24342 3.26641 0
M  V30 6695 C 620.581 -5.58308 2.82919 0
M  V30 6696 H 620.814 -2.21336 1.98488 0
M  V30 6697 H 618.347 -1.06679 1.1162 0
M  V30 6698 H 620.305 -4.09086 0.34044 0
M  V30 6699 H 618.966 -3.125 -0.316614 0
M  V30 6700 H 618.159 -4.86797 1.30556 0
M  V30 6701 H 617.761 -3.2325 1.8811 0
M  V30 6702 H 620.053 -6.37801 2.28509 0
M  V30 6703 H 620.996 -5.99931 3.7615 0
M  V30 6704 H 621.404 -5.19049 2.21919 0
M  V30 6705 N 620.802 -1.09834 -1.13024 0
M  V30 6706 C 622.05 -0.835297 -1.8403 0
M  V30 6707 C 622.371 0.640944 -1.84165 0
M  V30 6708 O 621.641 1.46517 -1.30037 0
M  V30 6709 H 620.221 -0.306018 -0.681441 0
M  V30 6710 H 622.883 -1.38734 -1.36891 0
M  V30 6711 H 621.979 -1.19258 -2.88416 0
M  V30 6712 N 622.28 1.30327 -0.886154 0
M  V30 6713 C 623.529 1.95373 -0.501243 0
M  V30 6714 C 623.842 1.70722 0.954634 0
M  V30 6715 O 625.048 2.29761 1.44644 0
M  V30 6716 C 623.504 3.49828 -0.845493 0
M  V30 6717 C 623.112 3.83296 -2.31922 0
M  V30 6718 C 624.856 4.2118 -0.529838 0
M  V30 6719 C 622.763 5.30935 -2.60504 0
M  V30 6720 H 621.693 0.731274 -0.183722 0
M  V30 6721 H 624.344 1.48258 -1.08129 0
M  V30 6722 H 622.726 3.95522 -0.19452 0
M  V30 6723 H 623.9 3.48508 -3.01461 0
M  V30 6724 H 622.215 3.2505 -2.60253 0
M  V30 6725 H 624.812 5.29825 -0.720401 0
M  V30 6726 H 625.155 4.12902 0.530828 0
M  V30 6727 H 625.688 3.81173 -1.13806 0
M  V30 6728 H 622.427 5.44265 -3.65316 0
M  V30 6729 H 621.947 5.67019 -1.95575 0
M  V30 6730 H 623.626 5.98381 -2.46066 0
M  V30 6731 N 623.758 0.647228 1.43697 0
M  V30 6732 C 625.005 0.158188 2.01881 0
M  V30 6733 C 625.333 -1.22573 1.51017 0
M  V30 6734 O 624.588 -1.83086 0.69122 0
M  V30 6735 C 624.887 0.111481 3.57226 0
M  V30 6736 C 624.553 1.43633 4.27411 0
M  V30 6737 C 623.215 1.79915 4.463 0
M  V30 6738 C 625.567 2.31011 4.67208 0
M  V30 6739 C 622.895 3.03251 5.02251 0
M  V30 6740 C 625.247 3.53633 5.24525 0
M  V30 6741 C 623.911 3.90118 5.41631 0
M  V30 6742 H 623.181 0.0578851 0.738736 0
M  V30 6743 H 625.828 0.836746 1.72252 0
M  V30 6744 H 624.133 -0.650507 3.86362 0
M  V30 6745 H 625.83 -0.283682 3.99995 0
M  V30 6746 H 622.42 1.14403 4.1305 0
M  V30 6747 H 626.604 2.04272 4.52313 0
M  V30 6748 H 621.86 3.31575 5.13681 0
M  V30 6749 H 626.034 4.21561 5.5431 0
M  V30 6750 H 623.661 4.85768 5.84751 0
M  V30 6751 N 625.236 -1.5273 0.388769 0
M  V30 6752 C 626.464 -2.05992 -0.193677 0
M  V30 6753 C 626.879 -1.26053 -1.40557 0
M  V30 6754 O 626.236 -0.307049 -1.79898 0
M  V30 6755 C 626.287 -3.57068 -0.564321 0
M  V30 6756 O 626.008 -4.3398 0.599422 0
M  V30 6757 C 627.509 -4.26674 -1.20269 0
M  V30 6758 H 624.729 -0.670358 -0.0293445 0
M  V30 6759 H 627.273 -1.96857 0.553844 0
M  V30 6760 H 625.428 -3.66277 -1.26174 0
M  V30 6761 H 625.842 -5.2367 0.294895 0
M  V30 6762 H 627.316 -5.33625 -1.4124 0
M  V30 6763 H 627.793 -3.81854 -2.16989 0
M  V30 6764 H 628.399 -4.2178 -0.546047 0
M  V30 6765 N 626.714 -0.118576 -1.57153 0
M  V30 6766 C 627.961 0.539526 -1.9518 0
M  V30 6767 C 628.289 1.66714 -1.00184 0
M  V30 6768 O 627.544 1.95683 -0.0256482 0
M  V30 6769 C 627.843 1.11303 -3.39627 0
M  V30 6770 C 627.509 0.106809 -4.50773 0
M  V30 6771 C 626.171 -0.169876 -4.809 0
M  V30 6772 C 628.523 -0.57895 -5.17975 0
M  V30 6773 C 625.851 -1.13861 -5.75545 0
M  V30 6774 C 628.203 -1.53631 -6.13661 0
M  V30 6775 C 626.867 -1.82099 -6.42181 0
M  V30 6776 H 626.137 0.197427 -0.714215 0
M  V30 6777 H 628.784 -0.199391 -1.90459 0
M  V30 6778 H 627.089 1.92869 -3.4104 0
M  V30 6779 H 628.786 1.63032 -3.66363 0
M  V30 6780 H 625.376 0.332645 -4.27307 0
M  V30 6781 H 629.56 -0.378359 -4.94856 0
M  V30 6782 H 624.816 -1.36592 -5.95947 0
M  V30 6783 H 628.99 -2.07337 -6.64819 0
M  V30 6784 H 626.617 -2.57319 -7.15326 0
M  V30 6785 N 628.193 1.56834 0.155195 0
M  V30 6786 C 629.418 1.87412 0.888337 0
M  V30 6787 C 629.843 0.70671 1.74319 0
M  V30 6788 O 629.201 -0.343892 1.78009 0
M  V30 6789 C 629.249 3.1652 1.72765 0
M  V30 6790 O 628.353 2.99877 2.83103 0
M  V30 6791 H 627.694 0.615983 0.247914 0
M  V30 6792 H 630.224 2.04061 0.148478 0
M  V30 6793 H 630.234 3.48334 2.12433 0
M  V30 6794 H 628.909 4.01094 1.09985 0
M  V30 6795 H 627.486 2.79453 2.46902 0
M  V30 6796 N 629.671 -0.424282 1.51781 0
M  V30 6797 C 630.634 -1.49848 1.73431 0
M  V30 6798 C 631.634 -1.49016 0.604225 0
M  V30 6799 O 632.824 -1.50808 0.871935 0
M  V30 6800 C 629.956 -2.89332 1.80277 0
M  V30 6801 H 631.149 -1.3195 2.69312 0
M  V30 6802 H 628.702 -0.653809 1.41968 0
M  V30 6803 H 629.437 -3.12618 0.862568 0
M  V30 6804 H 629.222 -2.9134 2.62419 0
M  V30 6805 H 630.712 -3.67233 1.98821 0
M  V30 6806 N 631.149 -1.42148 -0.680565 0
M  V30 6807 C 632.112 -1.4488 -1.77602 0
M  V30 6808 C 633.112 -0.337209 -1.57224 0
M  V30 6809 O 634.302 -0.597778 -1.63622 0
M  V30 6810 C 631.434 -1.27483 -3.16166 0
M  V30 6811 H 632.627 -2.42412 -1.76568 0
M  V30 6812 H 630.18 -1.28511 -0.889645 0
M  V30 6813 H 630.915 -0.30851 -3.22829 0
M  V30 6814 H 630.7 -2.08037 -3.3236 0
M  V30 6815 H 632.19 -1.32265 -3.96101 0
M  V30 6816 N 632.627 0.916307 -1.28225 0
M  V30 6817 C 633.873 1.66765 -1.154 0
M  V30 6818 C 634.206 1.91912 0.297251 0
M  V30 6819 O 633.481 1.51766 1.21644 0
M  V30 6820 C 633.764 3.02715 -1.95028 0
M  V30 6821 C 633.617 2.84738 -3.48201 0
M  V30 6822 C 634.936 4.03215 -1.76369 0
M  V30 6823 H 632.055 0.605205 -0.42059 0
M  V30 6824 H 634.697 1.06255 -1.57512 0
M  V30 6825 H 632.847 3.54365 -1.59242 0
M  V30 6826 H 634.519 2.40118 -3.9388 0
M  V30 6827 H 632.762 2.19848 -3.73964 0
M  V30 6828 H 633.433 3.8127 -3.99171 0
M  V30 6829 H 635.909 3.60617 -2.07593 0
M  V30 6830 H 634.785 4.96306 -2.34459 0
M  V30 6831 H 635.046 4.36288 -0.71452 0
M  V30 6832 N 634.105 1.10431 1.1244 0
M  V30 6833 C 635.335 0.867612 1.87499 0
M  V30 6834 C 635.743 -0.585475 1.79913 0
M  V30 6835 O 635.086 -1.41539 1.171 0
M  V30 6836 C 635.148 1.2374 3.37533 0
M  V30 6837 C 634.812 2.69751 3.68895 0
M  V30 6838 C 635.809 3.67988 3.67261 0
M  V30 6839 C 633.494 3.06135 3.98229 0
M  V30 6840 C 635.488 5.00632 3.9452 0
M  V30 6841 C 633.175 4.38967 4.25149 0
M  V30 6842 C 634.173 5.36025 4.23281 0
M  V30 6843 O 633.861 6.66465 4.49533 0
M  V30 6844 H 633.593 0.311196 0.600111 0
M  V30 6845 H 636.147 1.47257 1.43194 0
M  V30 6846 H 634.377 0.575537 3.82393 0
M  V30 6847 H 636.066 0.978187 3.93937 0
M  V30 6848 H 636.832 3.41224 3.44661 0
M  V30 6849 H 632.711 2.31214 3.98825 0
M  V30 6850 H 636.255 5.7638 3.92978 0
M  V30 6851 H 632.152 4.6547 4.47223 0
M  V30 6852 H 632.92 6.72095 4.67152 0
M  V30 6853 N 635.583 -1.29855 0.893053 0
M  V30 6854 C 636.808 -2.00512 0.530066 0
M  V30 6855 C 637.233 -1.66446 -0.876199 0
M  V30 6856 O 636.591 -0.885446 -1.58207 0
M  V30 6857 C 636.639 -3.53308 0.721505 0
M  V30 6858 O 635.743 -4.11764 -0.228994 0
M  V30 6859 H 635.084 -0.630617 0.207891 0
M  V30 6860 H 637.614 -1.6551 1.20282 0
M  V30 6861 H 637.624 -4.03206 0.623599 0
M  V30 6862 H 636.299 -3.77439 1.74678 0
M  V30 6863 H 634.876 -3.72805 -0.0841034 0
M  V30 6864 N 637.061 -0.65484 -1.43351 0
M  V30 6865 C 638.307 -0.169142 -2.02093 0
M  V30 6866 C 638.64 1.21431 -1.51553 0
M  V30 6867 O 637.915 1.81105 -0.709317 0
M  V30 6868 C 638.198 -0.181775 -3.59641 0
M  V30 6869 C 638.051 -1.59926 -4.20409 0
M  V30 6870 C 639.37 0.480945 -4.37464 0
M  V30 6871 H 636.489 -0.0629371 -0.734308 0
M  V30 6872 H 639.131 -0.835833 -1.70628 0
M  V30 6873 H 637.281 0.385918 -3.86578 0
M  V30 6874 H 638.953 -2.21766 -4.04497 0
M  V30 6875 H 637.196 -2.14605 -3.76998 0
M  V30 6876 H 637.867 -1.55994 -5.295 0
M  V30 6877 H 640.343 -0.00208273 -4.161 0
M  V30 6878 H 639.219 0.441384 -5.47122 0
M  V30 6879 H 639.48 1.55533 -4.13838 0
M  V30 6880 N 638.539 1.52521 -0.396863 0
M  V30 6881 C 639.449 2.30403 0.44178 0
M  V30 6882 C 640.465 1.37625 1.06468 0
M  V30 6883 O 641.641 1.70697 1.06886 0
M  V30 6884 C 638.706 3.1013 1.54986 0
M  V30 6885 C 637.767 4.18628 0.951279 0
M  V30 6886 C 637 4.94543 2.00655 0
M  V30 6887 O 637.223 4.70629 3.22281 0
M  V30 6888 O 636.157 5.797 1.61962 0
M  V30 6889 H 639.983 3.03087 -0.192892 0
M  V30 6890 H 637.568 1.48537 -0.16038 0
M  V30 6891 H 639.45 3.59816 2.19341 0
M  V30 6892 H 638.125 2.40251 2.16935 0
M  V30 6893 H 637.032 3.73119 0.270773 0
M  V30 6894 H 638.365 4.90763 0.375887 0
M  V30 6895 N 640.017 0.126909 1.57088 0
M  V30 6896 C 640.967 -0.831678 2.1229 0
M  V30 6897 C 641.951 -1.22292 1.04564 0
M  V30 6898 O 643.143 -1.19269 1.30782 0
M  V30 6899 C 640.272 -2.07866 2.73215 0
M  V30 6900 C 639.358 -1.71143 3.88035 0
M  V30 6901 N 639.749 -1.05136 4.94753 0
M  V30 6902 C 638.047 -2.00549 3.98367 0
M  V30 6903 C 638.748 -0.877257 5.75047 0
M  V30 6904 N 637.724 -1.40477 5.25135 0
M  V30 6905 H 641.526 -0.317926 2.92175 0
M  V30 6906 H 639.04 -0.0753052 1.62225 0
M  V30 6907 H 641.037 -2.77516 3.11111 0
M  V30 6908 H 639.697 -2.59778 1.94796 0
M  V30 6909 H 640.708 -0.71442 5.12949 0
M  V30 6910 H 637.385 -2.54452 3.30999 0
M  V30 6911 H 638.775 -0.358536 6.70943 0
M  V30 6912 N 641.495 -1.56914 -0.146875 0
M  V30 6913 C 642.772 -1.74273 -0.888165 0
M  V30 6914 C 643.152 -0.69496 -1.99333 0
M  V30 6915 O 642.5 0.286093 -2.26702 0
M  V30 6916 C 642.71 -3.18336 -1.43051 0
M  V30 6917 C 644.058 -3.80024 -1.89387 0
M  V30 6918 O 645.082 -3.21765 -1.52792 0
M  V30 6919 O 643.941 -4.82367 -2.56874 0
M  V30 6920 H 641.035 -0.712565 -0.419738 0
M  V30 6921 H 643.581 -1.6918 -0.132791 0
M  V30 6922 H 642.353 -3.86092 -0.636274 0
M  V30 6923 H 641.976 -3.27854 -2.24938 0
M  V30 6924 N 642.974 0.416227 -1.52004 0
M  V30 6925 C 644.22 1.16555 -1.6596 0
M  V30 6926 C 644.553 1.90347 -0.384906 0
M  V30 6927 O 643.828 1.84474 0.616405 0
M  V30 6928 C 644.111 2.1657 -2.87696 0
M  V30 6929 C 643.964 1.46722 -4.25197 0
M  V30 6930 C 645.283 3.17321 -3.04951 0
M  V30 6931 H 642.402 0.422369 -0.603965 0
M  V30 6932 H 645.044 0.452141 -1.84542 0
M  V30 6933 H 643.194 2.77411 -2.71985 0
M  V30 6934 H 644.866 0.89056 -4.52622 0
M  V30 6935 H 643.109 0.769263 -4.26925 0
M  V30 6936 H 643.78 2.19665 -5.0641 0
M  V30 6937 H 646.256 2.66552 -3.19514 0
M  V30 6938 H 645.132 3.84573 -3.91656 0
M  V30 6939 H 645.393 3.84643 -2.17951 0
M  V30 6940 N 644.452 1.42507 0.673017 0
M  V30 6941 C 645.863 1.38347 1.25367 0
M  V30 6942 C 646.214 0.0776327 1.96046 0
M  V30 6943 O 645.339 -0.823571 2.00116 0
M  V30 6944 C 645.934 2.506 2.28002 0
M  V30 6945 C 644.493 2.49767 2.81591 0
M  V30 6946 C 643.64 2.293 1.55938 0
M  V30 6947 H 646.591 1.51695 0.466288 0
M  V30 6948 H 646.612 2.20953 3.09774 0
M  V30 6949 H 646.124 3.45627 1.76532 0
M  V30 6950 H 644.225 1.58563 3.37177 0
M  V30 6951 H 644.338 3.46867 3.30485 0
M  V30 6952 H 642.702 1.77594 1.82572 0
M  V30 6953 H 643.485 3.26385 1.06431 0
M  V30 6954 N 645.93 -0.909495 1.28709 0
M  V30 6955 C 647.155 -1.69801 1.1909 0
M  V30 6956 C 647.58 -1.86479 -0.246388 0
M  V30 6957 O 646.938 -1.37802 -1.17815 0
M  V30 6958 C 646.986 -3.06543 1.89904 0
M  V30 6959 O 646.09 -3.94268 1.2094 0
M  V30 6960 H 645.431 -0.519783 0.413185 0
M  V30 6961 H 647.961 -1.13689 1.70106 0
M  V30 6962 H 647.971 -3.56748 1.97977 0
M  V30 6963 H 646.646 -2.93722 2.94449 0
M  V30 6964 H 645.223 -3.52702 1.2106 0
M  V30 6965 N 647.408 -1.11026 -1.11852 0
M  V30 6966 C 648.636 -0.878818 -1.87308 0
M  V30 6967 C 649.051 0.57111 -1.79955 0
M  V30 6968 O 648.408 1.39409 -1.17777 0
M  V30 6969 C 648.459 -1.3264 -3.36287 0
M  V30 6970 O 648.18 -2.71948 -3.43476 0
M  V30 6971 C 649.681 -1.12974 -4.28663 0
M  V30 6972 H 646.901 -0.315015 -0.592458 0
M  V30 6973 H 649.445 -1.47649 -1.41492 0
M  V30 6974 H 647.6 -0.772269 -3.79625 0
M  V30 6975 H 648.014 -2.91241 -4.3621 0
M  V30 6976 H 649.488 -1.49198 -5.31454 0
M  V30 6977 H 649.965 -0.0689127 -4.39146 0
M  V30 6978 H 650.571 -1.67064 -3.91113 0
M  V30 6979 N 648.886 1.2938 -0.899927 0
M  V30 6980 C 649.834 2.29675 -0.367698 0
M  V30 6981 C 650.828 1.60787 0.533282 0
M  V30 6982 O 652.034 1.75126 0.416058 0
M  V30 6983 H 648.409 0.745284 -0.100279 0
M  V30 6984 H 650.38 2.72008 -1.22696 0
M  V30 6985 C 649.129 3.45512 0.389483 0
M  V30 6986 H 648.452 3.98713 -0.294575 0
M  V30 6987 H 649.892 4.17725 0.726744 0
M  V30 6988 C 648.351 2.969 1.59223 0
M  V30 6989 O 648.881 2.98195 2.69152 0
M  V30 6990 N 647.087 2.52728 1.43447 0
M  V30 6991 H 646.634 2.51873 0.540148 0
M  V30 6992 H 646.592 2.20561 2.24054 0
M  V30 6993 N 650.364 0.662433 1.43002 0
M  V30 6994 C 651.611 0.179591 2.01702 0
M  V30 6995 C 651.939 -1.20964 1.52309 0
M  V30 6996 O 651.194 -1.82343 0.7106 0
M  V30 6997 C 651.493 0.149363 3.57088 0
M  V30 6998 C 651.159 1.48158 4.25864 0
M  V30 6999 C 649.821 1.84638 4.44367 0
M  V30 7000 C 652.173 2.35953 4.64732 0
M  V30 7001 C 649.501 3.08561 4.99006 0
M  V30 7002 C 651.853 3.59176 5.20745 0
M  V30 7003 C 650.517 3.95841 5.37463 0
M  V30 7004 H 649.787 0.0657172 0.73808 0
M  V30 7005 H 652.434 0.854968 1.71355 0
M  V30 7006 H 650.739 -0.609491 3.8703 0
M  V30 7007 H 652.436 -0.241241 4.00274 0
M  V30 7008 H 649.026 1.18777 4.11813 0
M  V30 7009 H 653.21 2.09058 4.50121 0
M  V30 7010 H 648.466 3.37005 5.10135 0
M  V30 7011 H 652.64 4.27417 5.49807 0
M  V30 7012 H 650.267 4.91942 5.79566 0
M  V30 7013 N 651.842 -1.52309 0.404946 0
M  V30 7014 C 653.07 -2.06185 -0.171818 0
M  V30 7015 C 653.485 -1.27536 -1.39212 0
M  V30 7016 O 652.842 -0.326112 -1.79563 0
M  V30 7017 C 652.893 -3.57647 -0.526417 0
M  V30 7018 O 652.614 -4.3332 0.645417 0
M  V30 7019 C 654.115 -4.27925 -1.15736 0
M  V30 7020 H 651.335 -0.670632 -0.0222328 0
M  V30 7021 H 653.879 -1.96259 0.574692 0
M  V30 7022 H 652.034 -3.67595 -1.22282 0
M  V30 7023 H 652.448 -5.23328 0.35042 0
M  V30 7024 H 653.922 -5.35093 -1.35572 0
M  V30 7025 H 654.399 -3.84134 -2.12926 0
M  V30 7026 H 655.005 -4.22335 -0.501281 0
M  V30 7027 N 653.32 -0.135238 -1.57019 0
M  V30 7028 C 654.548 0.526066 -2.001 0
M  V30 7029 C 654.963 1.59184 -1.01519 0
M  V30 7030 O 654.32 1.82497 -0.0104258 0
M  V30 7031 C 654.371 1.13744 -3.43139 0
M  V30 7032 O 654.092 0.114259 -4.37951 0
M  V30 7033 C 655.593 1.8805 -4.01438 0
M  V30 7034 H 652.813 0.137962 -0.656664 0
M  V30 7035 H 655.357 -0.226359 -2.03243 0
M  V30 7036 H 653.512 1.84056 -3.40885 0
M  V30 7037 H 653.926 0.56058 -5.21496 0
M  V30 7038 H 655.4 2.26133 -5.03555 0
M  V30 7039 H 655.877 2.76194 -3.41487 0
M  V30 7040 H 656.483 1.22464 -4.07287 0
M  V30 7041 N 654.798 1.5699 0.138552 0
M  V30 7042 C 656.047 1.82998 0.848205 0
M  V30 7043 C 656.36 0.717829 1.81952 0
M  V30 7044 O 657.566 0.863756 2.57394 0
M  V30 7045 C 656.022 3.24379 1.55904 0
M  V30 7046 C 655.63 4.43552 0.62971 0
M  V30 7047 C 657.374 3.59654 2.25498 0
M  V30 7048 C 655.281 5.75957 1.34266 0
M  V30 7049 H 654.211 0.682495 0.320495 0
M  V30 7050 H 656.862 1.83222 0.100924 0
M  V30 7051 H 655.244 3.18567 2.35226 0
M  V30 7052 H 656.418 4.6062 -0.128882 0
M  V30 7053 H 654.733 4.16379 0.0417526 0
M  V30 7054 H 657.33 4.55837 2.79493 0
M  V30 7055 H 657.673 2.86124 3.02388 0
M  V30 7056 H 658.206 3.67164 1.53087 0
M  V30 7057 H 654.945 6.52604 0.615441 0
M  V30 7058 H 654.465 5.62811 2.07375 0
M  V30 7059 H 656.144 6.19046 1.88126 0
M  V30 7060 N 656.276 -0.40816 1.52223 0
M  V30 7061 C 657.687 -0.986929 1.58482 0
M  V30 7062 C 658.038 -1.91521 0.425917 0
M  V30 7063 O 657.163 -2.11593 -0.453593 0
M  V30 7064 C 657.758 -1.7967 2.87235 0
M  V30 7065 C 656.317 -2.32549 2.9597 0
M  V30 7066 C 655.464 -1.12558 2.53428 0
M  V30 7067 H 658.415 -0.188362 1.57578 0
M  V30 7068 H 658.436 -2.65417 2.72642 0
M  V30 7069 H 657.948 -1.12082 3.71563 0
M  V30 7070 H 656.049 -3.03505 2.16137 0
M  V30 7071 H 656.162 -2.63348 4.00231 0
M  V30 7072 H 654.526 -1.47984 2.07299 0
M  V30 7073 H 655.309 -0.465351 3.40131 0
M  V30 7074 N 657.755 -1.42862 -0.66545 0
M  V30 7075 C 658.705 -1.43521 -1.7716 0
M  V30 7076 C 659.689 -0.305267 -1.57978 0
M  V30 7077 O 660.881 -0.548176 -1.68297 0
M  V30 7078 C 658.01 -1.34914 -3.15679 0
M  V30 7079 C 657.096 -2.5289 -3.40452 0
M  V30 7080 N 657.487 -3.78284 -3.3576 0
M  V30 7081 C 655.785 -2.47351 -3.71124 0
M  V30 7082 C 656.486 -4.56701 -3.60276 0
M  V30 7083 N 655.462 -3.87249 -3.81496 0
M  V30 7084 H 659.264 -2.38357 -1.7194 0
M  V30 7085 H 656.778 -1.37342 -0.866653 0
M  V30 7086 H 658.775 -1.33468 -3.94958 0
M  V30 7087 H 657.435 -0.410881 -3.2209 0
M  V30 7088 H 658.446 -4.10746 -3.15448 0
M  V30 7089 H 655.123 -1.62152 -3.84725 0
M  V30 7090 H 656.513 -5.65704 -3.6253 0
M  V30 7091 N 659.233 0.902656 -1.29189 0
M  V30 7092 C 660.458 1.69167 -1.19989 0
M  V30 7093 C 660.883 1.86607 0.236495 0
M  V30 7094 O 660.241 1.38425 1.17082 0
M  V30 7095 C 660.289 3.05532 -1.91527 0
M  V30 7096 O 659.393 3.93621 -1.2303 0
M  V30 7097 H 658.734 0.517584 -0.415936 0
M  V30 7098 H 661.264 1.12785 -1.70706 0
M  V30 7099 H 661.274 3.55693 -1.99866 0
M  V30 7100 H 659.949 2.92156 -2.96003 0
M  V30 7101 H 658.526 3.52055 -1.22928 0
M  V30 7102 N 660.711 1.11618 1.11262 0
M  V30 7103 C 661.957 0.877377 1.83504 0
M  V30 7104 C 662.312 -0.590606 1.83111 0
M  V30 7105 O 661.605 -1.43057 1.27456 0
M  V30 7106 C 661.799 1.37529 3.2988 0
M  V30 7107 C 661.628 2.89014 3.4453 0
M  V30 7108 C 660.398 3.57157 3.57445 0
M  V30 7109 C 662.596 3.8706 3.38658 0
M  V30 7110 N 660.578 4.96842 3.60585 0
M  V30 7111 C 661.949 5.12825 3.4844 0
M  V30 7112 C 664.004 3.79593 3.22201 0
M  V30 7113 C 662.707 6.32002 3.43462 0
M  V30 7114 C 664.733 4.98282 3.18542 0
M  V30 7115 C 664.095 6.22901 3.28897 0
M  V30 7116 H 660.194 0.37422 0.686646 0
M  V30 7117 H 662.778 1.42087 1.33114 0
M  V30 7118 H 660.949 0.85895 3.78783 0
M  V30 7119 H 662.681 1.07944 3.90039 0
M  V30 7120 H 659.436 3.07628 3.60086 0
M  V30 7121 H 659.86 5.69674 3.65788 0
M  V30 7122 H 664.502 2.84149 3.1308 0
M  V30 7123 H 662.22 7.27721 3.51352 0
M  V30 7124 H 665.806 4.94226 3.06972 0
M  V30 7125 H 664.686 7.13202 3.26056 0
M  V30 7126 N 662.189 -1.289 0.906776 0
M  V30 7127 C 663.435 -1.95919 0.546551 0
M  V30 7128 C 663.79 -1.70126 -0.8986 0
M  V30 7129 O 663.083 -1.00775 -1.62957 0
M  V30 7130 C 663.277 -3.48704 0.783617 0
M  V30 7131 C 663.106 -3.8935 2.25026 0
M  V30 7132 C 661.876 -4.13864 2.89905 0
M  V30 7133 C 664.074 -4.00535 3.22608 0
M  V30 7134 N 662.056 -4.41131 4.26939 0
M  V30 7135 C 663.427 -4.31936 4.44783 0
M  V30 7136 C 665.482 -3.83035 3.18102 0
M  V30 7137 C 664.185 -4.47659 5.63022 0
M  V30 7138 C 666.211 -3.99971 4.35634 0
M  V30 7139 C 665.573 -4.31738 5.5658 0
M  V30 7140 H 661.672 -0.74105 0.249737 0
M  V30 7141 H 664.256 -1.55696 1.16906 0
M  V30 7142 H 662.427 -3.87933 0.190437 0
M  V30 7143 H 664.159 -4.02835 0.38812 0
M  V30 7144 H 660.914 -4.07893 2.40666 0
M  V30 7145 H 661.338 -4.5886 4.97771 0
M  V30 7146 H 665.98 -3.57533 2.25677 0
M  V30 7147 H 663.698 -4.71995 6.55932 0
M  V30 7148 H 667.284 -3.87874 4.33641 0
M  V30 7149 H 666.164 -4.44568 6.4601 0
M  V30 7150 N 663.667 -0.670007 -1.42649 0
M  V30 7151 C 664.913 -0.19923 -2.02422 0
M  V30 7152 C 665.268 1.17947 -1.52007 0
M  V30 7153 O 664.561 1.77939 -0.710512 0
M  V30 7154 C 664.755 -0.168298 -3.57004 0
M  V30 7155 C 664.584 -1.54246 -4.22419 0
M  V30 7156 C 663.354 -2.13904 -4.57792 0
M  V30 7157 C 665.552 -2.4842 -4.50324 0
M  V30 7158 N 663.534 -3.44151 -5.08364 0
M  V30 7159 C 664.905 -3.63317 -5.02395 0
M  V30 7160 C 666.96 -2.47011 -4.32308 0
M  V30 7161 C 665.663 -4.77051 -5.38345 0
M  V30 7162 C 667.689 -3.59838 -4.6933 0
M  V30 7163 C 667.051 -4.73462 -5.21549 0
M  V30 7164 H 663.15 -0.117717 -0.773089 0
M  V30 7165 H 665.734 -0.881955 -1.73579 0
M  V30 7166 H 663.905 0.483824 -3.85375 0
M  V30 7167 H 665.637 0.314914 -4.03473 0
M  V30 7168 H 662.392 -1.66441 -4.4339 0
M  V30 7169 H 662.816 -4.10846 -5.38084 0
M  V30 7170 H 667.458 -1.60394 -3.91195 0
M  V30 7171 H 665.176 -5.64347 -5.78393 0
M  V30 7172 H 668.762 -3.59969 -4.57071 0
M  V30 7173 H 667.642 -5.59321 -5.49663 0
M  V30 7174 N 665.145 1.52092 -0.413018 0
M  V30 7175 C 666.108 2.25706 0.398687 0
M  V30 7176 C 667.108 1.28221 0.970368 0
M  V30 7177 O 668.298 1.52131 0.848635 0
M  V30 7178 C 665.43 3.03029 1.5616 0
M  V30 7179 H 666.623 2.98888 -0.246131 0
M  V30 7180 H 664.176 1.5542 -0.165622 0
M  V30 7181 H 664.911 2.34205 2.24317 0
M  V30 7182 H 664.696 3.74606 1.15812 0
M  V30 7183 H 666.186 3.58857 2.13569 0
M  V30 7184 N 666.623 0.143563 1.56945 0
M  V30 7185 C 667.586 -0.783295 2.154 0
M  V30 7186 C 668.586 -1.17763 1.09492 0
M  V30 7187 O 669.776 -1.09912 1.35148 0
M  V30 7188 C 666.908 -2.06248 2.7143 0
M  V30 7189 H 668.101 -0.274863 2.98638 0
M  V30 7190 H 665.654 -0.105859 1.55941 0
M  V30 7191 H 666.389 -2.61466 1.91849 0
M  V30 7192 H 666.174 -1.78897 3.4891 0
M  V30 7193 H 667.664 -2.72453 3.16479 0
M  V30 7194 N 668.101 -1.57061 -0.130224 0
M  V30 7195 C 669.347 -1.8453 -0.841216 0
M  V30 7196 C 669.68 -0.727666 -1.80052 0
M  V30 7197 O 668.955 0.267419 -1.92653 0
M  V30 7198 C 669.238 -3.22553 -1.60099 0
M  V30 7199 C 669.091 -4.44901 -0.662048 0
M  V30 7200 C 670.41 -3.58003 -2.55973 0
M  V30 7201 H 667.529 -0.671215 -0.304366 0
M  V30 7202 H 670.171 -1.89705 -0.105821 0
M  V30 7203 H 668.321 -3.18272 -2.22789 0
M  V30 7204 H 669.993 -4.61278 -0.0448559 0
M  V30 7205 H 668.236 -4.33791 0.0272253 0
M  V30 7206 H 668.907 -5.3812 -1.23006 0
M  V30 7207 H 671.383 -3.63002 -2.03393 0
M  V30 7208 H 670.259 -4.55576 -3.06172 0
M  V30 7209 H 670.52 -2.84833 -3.38116 0
M  V30 7210 N 669.579 0.400081 -1.52437 0
M  V30 7211 C 670.804 1.17221 -1.71096 0
M  V30 7212 C 671.229 1.83269 -0.423565 0
M  V30 7213 O 670.587 1.70378 0.619751 0
M  V30 7214 C 670.635 2.20425 -2.85386 0
M  V30 7215 O 669.739 3.26769 -2.51586 0
M  V30 7216 H 669.08 0.341766 -0.569291 0
M  V30 7217 H 671.61 0.467772 -1.99181 0
M  V30 7218 H 671.62 2.64605 -3.10561 0
M  V30 7219 H 670.295 1.71737 -3.78786 0
M  V30 7220 H 668.872 2.87804 -2.37114 0
M  V30 7221 N 671.057 1.43213 0.657864 0
M  V30 7222 C 672.306 1.43871 1.41365 0
M  V30 7223 C 672.619 0.064898 1.95492 0
M  V30 7224 O 673.825 -0.0510796 2.71452 0
M  V30 7225 C 672.281 2.53158 2.55811 0
M  V30 7226 C 671.889 3.96624 2.08311 0
M  V30 7227 C 673.633 2.63004 3.3321 0
M  V30 7228 C 671.54 4.97385 3.1994 0
M  V30 7229 H 670.47 0.535174 0.531136 0
M  V30 7230 H 673.121 1.69185 0.710543 0
M  V30 7231 H 671.503 2.21037 3.2857 0
M  V30 7232 H 672.677 4.38182 1.42593 0
M  V30 7233 H 670.992 3.90781 1.43804 0
M  V30 7234 H 673.589 3.3546 4.16378 0
M  V30 7235 H 673.932 1.67918 3.80932 0
M  V30 7236 H 674.465 2.94403 2.67529 0
M  V30 7237 H 671.204 5.94007 2.77192 0
M  V30 7238 H 670.724 4.60444 3.84385 0
M  V30 7239 H 672.403 5.19877 3.85145 0
M  V30 7240 N 672.536 -0.895792 1.29666 0
M  V30 7241 C 673.761 -1.68528 1.20885 0
M  V30 7242 C 674.186 -1.8673 -0.226595 0
M  V30 7243 O 673.544 -1.39044 -1.16347 0
M  V30 7244 C 673.592 -3.04512 1.93144 0
M  V30 7245 O 672.696 -3.92963 1.25115 0
M  V30 7246 H 672.037 -0.515371 0.418675 0
M  V30 7247 H 674.567 -1.11878 1.71302 0
M  V30 7248 H 674.577 -3.54628 2.0175 0
M  V30 7249 H 673.252 -2.90582 2.97548 0
M  V30 7250 H 671.829 -3.51399 1.24794 0
M  V30 7251 N 674.014 -1.12206 -1.10668 0
M  V30 7252 C 675.242 -0.898635 -1.86366 0
M  V30 7253 C 675.657 0.551991 -1.80551 0
M  V30 7254 O 675.014 1.38152 -1.19249 0
M  V30 7255 C 675.065 -1.36199 -3.34861 0
M  V30 7256 O 674.786 -2.75576 -3.40573 0
M  V30 7257 C 676.287 -1.17515 -4.2744 0
M  V30 7258 H 673.507 -0.321281 -0.589084 0
M  V30 7259 H 676.051 -1.49142 -1.39918 0
M  V30 7260 H 674.206 -0.81249 -3.78784 0
M  V30 7261 H 674.62 -2.95851 -4.33096 0
M  V30 7262 H 676.094 -1.54827 -5.29842 0
M  V30 7263 H 676.571 -0.115486 -4.39048 0
M  V30 7264 H 677.177 -1.71203 -3.89319 0
M  V30 7265 N 675.492 1.28418 -0.913599 0
M  V30 7266 C 676.738 1.9527 -0.547484 0
M  V30 7267 C 677.071 1.71745 0.906486 0
M  V30 7268 O 676.346 1.03834 1.64465 0
M  V30 7269 C 676.629 3.49748 -0.857205 0
M  V30 7270 C 676.482 3.82675 -2.3639 0
M  V30 7271 C 677.801 4.3868 -0.353258 0
M  V30 7272 H 674.92 0.709236 -0.200381 0
M  V30 7273 H 677.562 1.51789 -1.14281 0
M  V30 7274 H 675.712 3.86915 -0.350548 0
M  V30 7275 H 677.384 3.55378 -2.94116 0
M  V30 7276 H 675.627 3.29724 -2.81894 0
M  V30 7277 H 676.298 4.90547 -2.53115 0
M  V30 7278 H 678.774 4.08584 -0.787288 0
M  V30 7279 H 677.65 5.45621 -0.599049 0
M  V30 7280 H 677.911 4.35753 0.746413 0
M  V30 7281 N 676.97 0.677563 1.42291 0
M  V30 7282 C 678.218 0.200578 2.01102 0
M  V30 7283 C 678.539 -1.19803 1.53858 0
M  V30 7284 O 677.809 -1.80496 0.761439 0
M  V30 7285 H 676.389 0.0711634 0.743603 0
M  V30 7286 H 679.051 0.874691 1.7417 0
M  V30 7287 H 678.147 0.204 3.11433 0
M  V30 7288 N 678.448 -1.51871 0.421078 0
M  V30 7289 C 679.678 -2.06057 -0.149723 0
M  V30 7290 C 680.086 -1.29002 -1.38402 0
M  V30 7291 O 679.429 -0.338385 -1.80556 0
M  V30 7292 C 679.491 -3.55216 -0.553339 0
M  V30 7293 C 679.155 -4.53408 0.571879 0
M  V30 7294 C 680.152 -4.99586 1.4391 0
M  V30 7295 C 677.837 -4.967 0.747979 0
M  V30 7296 C 679.831 -5.87711 2.46727 0
M  V30 7297 C 677.518 -5.84619 1.77944 0
M  V30 7298 C 678.516 -6.30021 2.63748 0
M  V30 7299 O 678.204 -7.16197 3.65126 0
M  V30 7300 H 677.936 -0.675744 -0.0186102 0
M  V30 7301 H 680.49 -1.96618 0.594166 0
M  V30 7302 H 678.72 -3.62381 -1.34969 0
M  V30 7303 H 680.409 -3.91992 -1.05342 0
M  V30 7304 H 681.175 -4.66846 1.31451 0
M  V30 7305 H 677.054 -4.60913 0.0897357 0
M  V30 7306 H 680.598 -6.2307 3.13734 0
M  V30 7307 H 676.495 -6.16771 1.90429 0
M  V30 7308 H 677.263 -7.34337 3.61512 0
M  V30 7309 N 679.926 -0.151884 -1.56866 0
M  V30 7310 C 681.174 0.497021 -1.95893 0
M  V30 7311 C 681.495 1.65078 -1.03799 0
M  V30 7312 O 680.765 1.95642 -0.10049 0
M  V30 7313 H 679.345 0.186603 -0.723318 0
M  V30 7314 H 682.007 -0.228525 -1.93556 0
M  V30 7315 H 681.103 0.869933 -2.99731 0
M  V30 7316 N 681.404 1.57128 0.121893 0
M  V30 7317 C 682.681 1.75664 0.860327 0
M  V30 7318 C 683.061 0.726585 1.98202 0
M  V30 7319 O 682.409 -0.24999 2.27128 0
M  V30 7320 C 682.619 3.20571 1.37968 0
M  V30 7321 C 683.967 3.82988 1.83317 0
M  V30 7322 O 684.991 3.24156 1.47654 0
M  V30 7323 O 683.85 4.86393 2.49168 0
M  V30 7324 H 680.944 0.719153 0.408348 0
M  V30 7325 H 683.49 1.6937 0.105859 0
M  V30 7326 H 682.262 3.87056 0.57477 0
M  V30 7327 H 681.885 3.31392 2.19694 0
M  V30 7328 N 682.882 -0.391992 1.52647 0
M  V30 7329 C 683.815 -1.50019 1.71958 0
M  V30 7330 C 684.793 -1.5238 0.567365 0
M  V30 7331 O 685.977 -1.70831 0.796806 0
M  V30 7332 C 683.104 -2.88496 1.77447 0
M  V30 7333 C 682.15 -3.03974 2.99169 0
M  V30 7334 S 682.983 -2.75487 4.59203 0
M  V30 7335 C 684.139 -4.16163 4.67503 0
M  V30 7336 H 684.372 -1.33413 2.65685 0
M  V30 7337 H 681.905 -0.584674 1.42902 0
M  V30 7338 H 683.863 -3.68296 1.81296 0
M  V30 7339 H 682.524 -3.02431 0.848188 0
M  V30 7340 H 681.717 -4.05328 2.99542 0
M  V30 7341 H 681.319 -2.32062 2.93297 0
M  V30 7342 H 683.611 -5.10048 4.45934 0
M  V30 7343 H 684.554 -4.20806 5.69498 0
M  V30 7344 H 684.962 -4.01933 3.96371 0
M  V30 7345 N 684.36 -1.4356 -0.65026 0
M  V30 7346 C 685.59 -1.48563 -1.4357 0
M  V30 7347 C 685.998 -0.103041 -1.88919 0
M  V30 7348 O 685.341 0.897602 -1.60277 0
M  V30 7349 C 685.403 -2.37181 -2.70158 0
M  V30 7350 C 685.067 -3.84673 -2.4673 0
M  V30 7351 C 686.064 -4.75704 -2.09765 0
M  V30 7352 C 683.749 -4.29189 -2.60963 0
M  V30 7353 C 685.743 -6.09249 -1.87334 0
M  V30 7354 C 683.43 -5.62787 -2.38147 0
M  V30 7355 C 684.428 -6.52634 -2.01389 0
M  V30 7356 O 684.116 -7.83761 -1.78813 0
M  V30 7357 H 683.848 -0.506743 -0.447423 0
M  V30 7358 H 686.402 -1.89001 -0.80423 0
M  V30 7359 H 684.632 -1.91636 -3.35876 0
M  V30 7360 H 686.321 -2.33354 -3.32116 0
M  V30 7361 H 687.087 -4.42589 -1.98343 0
M  V30 7362 H 682.966 -3.59529 -2.88548 0
M  V30 7363 H 686.51 -6.7934 -1.58567 0
M  V30 7364 H 682.407 -5.95469 -2.49173 0
M  V30 7365 H 683.175 -7.95368 -1.93214 0
M  V30 7366 N 685.838 0.888903 -1.30139 0
M  V30 7367 C 687.249 1.45578 -1.16893 0
M  V30 7368 C 687.6 1.94825 0.231866 0
M  V30 7369 O 686.725 1.84661 1.12824 0
M  V30 7370 C 687.32 2.646 -2.11595 0
M  V30 7371 C 685.879 3.17389 -2.02339 0
M  V30 7372 C 685.026 1.90081 -2.01902 0
M  V30 7373 H 687.977 0.69921 -1.42467 0
M  V30 7374 H 687.998 3.40687 -1.69449 0
M  V30 7375 H 687.51 2.28726 -3.13538 0
M  V30 7376 H 685.611 3.5793 -1.03523 0
M  V30 7377 H 685.724 3.80955 -2.90534 0
M  V30 7378 H 684.088 2.08246 -1.46648 0
M  V30 7379 H 684.871 1.5647 -3.05568 0
M  V30 7380 N 687.317 1.12792 1.10072 0
M  V30 7381 C 688.227 0.812369 2.20086 0
M  V30 7382 C 689.243 -0.200349 1.72843 0
M  V30 7383 O 690.419 -0.0330262 2.01373 0
M  V30 7384 C 687.484 0.275685 3.45602 0
M  V30 7385 C 686.545 1.34881 4.07561 0
M  V30 7386 C 685.778 0.837639 5.27086 0
M  V30 7387 O 686.001 -0.327224 5.69461 0
M  V30 7388 O 684.935 1.60894 5.79997 0
M  V30 7389 H 688.761 1.73133 2.49517 0
M  V30 7390 H 686.346 0.904863 1.18881 0
M  V30 7391 H 688.228 -0.0185375 4.21396 0
M  V30 7392 H 686.903 -0.615783 3.17789 0
M  V30 7393 H 685.81 1.69625 3.33434 0
M  V30 7394 H 687.143 2.21418 4.39585 0
M  V30 7395 N 688.795 -1.27931 0.920396 0
M  V30 7396 C 690.023 -1.98805 0.573087 0
M  V30 7397 C 690.438 -1.68724 -0.847201 0
M  V30 7398 O 689.795 -0.943699 -1.56207 0
M  V30 7399 C 689.846 -3.52971 0.780633 0
M  V30 7400 O 689.567 -3.81994 2.14504 0
M  V30 7401 C 691.068 -4.411 0.44105 0
M  V30 7402 H 688.288 -0.634651 0.21785 0
M  V30 7403 H 690.832 -1.62965 1.23542 0
M  V30 7404 H 688.987 -3.87048 0.165204 0
M  V30 7405 H 689.401 -4.76609 2.18962 0
M  V30 7406 H 690.875 -5.48312 0.637006 0
M  V30 7407 H 691.352 -4.34758 -0.62306 0
M  V30 7408 H 691.958 -4.12532 1.0343 0
M  V30 7409 N 690.273 -0.685099 -1.4193 0
M  V30 7410 C 691.223 0.00977295 -2.27998 0
M  V30 7411 C 692.207 0.763315 -1.41641 0
M  V30 7412 O 693.399 0.640532 -1.65004 0
M  V30 7413 C 690.528 0.952972 -3.29808 0
M  V30 7414 C 689.614 0.196231 -4.23646 0
M  V30 7415 N 690.005 -0.804401 -4.99363 0
M  V30 7416 C 688.303 0.433213 -4.43891 0
M  V30 7417 C 689.004 -1.25646 -5.67968 0
M  V30 7418 N 687.98 -0.5844 -5.4045 0
M  V30 7419 H 691.782 -0.757586 -2.83968 0
M  V30 7420 H 689.296 -0.515037 -1.54017 0
M  V30 7421 H 691.293 1.46585 -3.9028 0
M  V30 7422 H 689.953 1.72004 -2.75399 0
M  V30 7423 H 690.964 -1.18429 -5.04177 0
M  V30 7424 H 687.641 1.17899 -4.00507 0
M  V30 7425 H 689.031 -2.08622 -6.38691 0
M  V30 7426 N 691.751 1.51645 -0.429126 0
M  V30 7427 C 692.681 2.30434 0.377148 0
M  V30 7428 C 693.662 1.35493 1.02838 0
M  V30 7429 O 694.847 1.6441 1.03359 0
M  V30 7430 C 691.977 3.14038 1.48315 0
M  V30 7431 C 690.931 4.1719 0.955855 0
M  V30 7432 C 690.257 4.89263 2.15698 0
M  V30 7433 C 691.557 5.223 -0.00402136 0
M  V30 7434 H 693.251 2.98085 -0.280336 0
M  V30 7435 H 690.797 1.43354 -0.136265 0
M  V30 7436 H 692.75 3.67933 2.05435 0
M  V30 7437 H 691.474 2.44193 2.16881 0
M  V30 7438 H 690.133 3.64335 0.406929 0
M  V30 7439 H 689.781 4.15929 2.82864 0
M  V30 7440 H 689.481 5.59009 1.81059 0
M  V30 7441 H 691.005 5.45978 2.73387 0
M  V30 7442 H 692.419 5.71315 0.476607 0
M  V30 7443 H 690.816 5.99525 -0.26258 0
M  V30 7444 H 691.886 4.75638 -0.943236 0
M  V30 7445 N 693.229 0.160201 1.56784 0
M  V30 7446 C 694.477 -0.486625 1.96154 0
M  V30 7447 C 694.798 -1.64525 1.04673 0
M  V30 7448 O 694.068 -1.95586 0.110864 0
M  V30 7449 H 692.648 -0.182764 0.724297 0
M  V30 7450 H 695.31 0.238787 1.93432 0
M  V30 7451 H 694.406 -0.854025 3.00188 0
M  V30 7452 N 694.707 -1.5719 -0.113559 0
M  V30 7453 C 696.123 -1.52607 -0.467253 0
M  V30 7454 C 696.323 -0.874058 -1.81556 0
M  V30 7455 O 695.379 -0.458703 -2.48299 0
M  V30 7456 C 696.692 -2.97363 -0.446736 0
M  V30 7457 C 698.24 -3.08482 -0.529903 0
M  V30 7458 C 698.715 -4.54809 -0.539721 0
M  V30 7459 N 700.206 -4.59284 -0.601005 0
M  V30 7460 C 700.941 -5.69927 -0.630138 0
M  V30 7461 N 700.437 -6.90051 -0.616589 0
M  V30 7462 N 702.23 -5.5805 -0.673558 0
M  V30 7463 H 694.381 -1.97958 0.769819 0
M  V30 7464 H 696.644 -0.90428 0.284572 0
M  V30 7465 H 696.35 -3.48458 0.47643 0
M  V30 7466 H 696.224 -3.55086 -1.27254 0
M  V30 7467 H 698.611 -2.57386 -1.44349 0
M  V30 7468 H 698.692 -2.53744 0.323695 0
M  V30 7469 H 698.336 -5.06552 0.369843 0
M  V30 7470 H 698.266 -5.07364 -1.41028 0
M  V30 7471 H 700.757 -3.72822 -0.617419 0
M  V30 7472 H 701.07 -7.70132 -0.641592 0
M  V30 7473 H 699.415 -6.92543 -0.583927 0
M  V30 7474 H 702.606 -4.63112 -0.681544 0
M  V30 7475 H 702.779 -6.44286 -0.692794 0
M  V30 7476 N 696.185 0.383891 -1.52853 0
M  V30 7477 C 697.432 1.12842 -1.68146 0
M  V30 7478 C 697.76 1.89823 -0.423954 0
M  V30 7479 O 697.015 1.86475 0.593765 0
M  V30 7480 C 697.314 2.12881 -2.87082 0
M  V30 7481 C 696.98 1.52519 -4.24322 0
M  V30 7482 C 695.642 1.35783 -4.61645 0
M  V30 7483 C 697.994 1.0868 -5.09743 0
M  V30 7484 C 695.322 0.737643 -5.82044 0
M  V30 7485 C 697.674 0.480699 -6.30771 0
M  V30 7486 C 696.338 0.300681 -6.66822 0
M  V30 7487 H 695.608 0.412917 -0.615289 0
M  V30 7488 H 698.255 0.412416 -1.87006 0
M  V30 7489 H 696.56 2.90719 -2.62659 0
M  V30 7490 H 698.257 2.70408 -2.96109 0
M  V30 7491 H 694.847 1.66534 -3.94923 0
M  V30 7492 H 699.031 1.2041 -4.81472 0
M  V30 7493 H 694.287 0.586415 -6.08581 0
M  V30 7494 H 698.461 0.132733 -6.96273 0
M  V30 7495 H 696.088 -0.181966 -7.59982 0
M  V30 7496 N 697.663 1.43903 0.642637 0
M  V30 7497 C 698.91 1.46079 1.40239 0
M  V30 7498 C 699.238 0.0890335 1.94296 0
M  V30 7499 O 698.493 -0.907533 1.73385 0
M  V30 7500 C 698.792 2.45907 2.59354 0
M  V30 7501 C 698.458 3.91522 2.23654 0
M  V30 7502 C 697.12 4.31179 2.1363 0
M  V30 7503 C 699.472 4.83242 1.95261 0
M  V30 7504 C 696.8 5.60495 1.73384 0
M  V30 7505 C 699.152 6.12933 1.56511 0
M  V30 7506 C 697.816 6.51556 1.4502 0
M  V30 7507 H 697.086 0.534542 0.513172 0
M  V30 7508 H 699.733 1.77047 0.72984 0
M  V30 7509 H 698.038 2.08381 3.3179 0
M  V30 7510 H 699.735 2.44842 3.17574 0
M  V30 7511 H 696.325 3.60142 2.32369 0
M  V30 7512 H 700.509 4.53367 2.0192 0
M  V30 7513 H 695.765 5.89249 1.63082 0
M  V30 7514 H 699.939 6.83469 1.33576 0
M  V30 7515 H 697.566 7.51663 1.13606 0
M  V30 7516 N 699.141 -0.881989 1.30609 0
M  V30 7517 C 700.104 -1.96957 1.1722 0
M  V30 7518 C 701.104 -1.60472 0.102598 0
M  V30 7519 O 702.294 -1.70628 0.350943 0
M  V30 7520 C 699.426 -3.31463 0.796572 0
M  V30 7521 H 700.619 -2.10262 2.13846 0
M  V30 7522 H 698.172 -1.06877 1.14048 0
M  V30 7523 H 698.907 -3.23859 -0.169053 0
M  V30 7524 H 698.692 -3.59314 1.56959 0
M  V30 7525 H 700.182 -4.11233 0.72645 0
M  V30 7526 N 700.619 -1.13374 -1.09472 0
M  V30 7527 C 701.866 -0.89519 -1.81639 0
M  V30 7528 C 702.194 0.57868 -1.85692 0
M  V30 7529 O 701.449 1.44426 -1.32059 0
M  V30 7530 C 701.748 -1.42759 -3.2765 0
M  V30 7531 C 701.414 -2.91822 -3.43731 0
M  V30 7532 C 700.076 -3.32521 -3.47827 0
M  V30 7533 C 702.428 -3.87727 -3.48307 0
M  V30 7534 C 699.756 -4.6781 -3.54078 0
M  V30 7535 C 702.108 -5.22859 -3.56091 0
M  V30 7536 C 700.772 -5.63086 -3.58456 0
M  V30 7537 H 700.042 -0.327573 -0.664663 0
M  V30 7538 H 702.689 -1.4156 -1.28969 0
M  V30 7539 H 700.994 -0.827871 -3.82954 0
M  V30 7540 H 702.691 -1.2191 -3.8202 0
M  V30 7541 H 699.281 -2.5935 -3.41226 0
M  V30 7542 H 703.465 -3.57371 -3.44383 0
M  V30 7543 H 698.721 -4.98353 -3.54195 0
M  V30 7544 H 702.895 -5.96989 -3.58577 0
M  V30 7545 H 700.522 -6.67905 -3.63052 0
M  V30 7546 N 702.098 1.27442 -0.927168 0
M  V30 7547 C 703.028 2.29256 -0.443188 0
M  V30 7548 C 704.009 1.62701 0.49624 0
M  V30 7549 O 705.194 1.90013 0.401105 0
M  V30 7550 C 702.324 3.45955 0.305366 0
M  V30 7551 C 701.278 4.24501 -0.546178 0
M  V30 7552 C 700.604 5.33671 0.331512 0
M  V30 7553 C 701.904 4.89921 -1.81037 0
M  V30 7554 H 703.598 2.69988 -1.29409 0
M  V30 7555 H 701.144 1.29792 -0.623705 0
M  V30 7556 H 703.097 4.1628 0.654885 0
M  V30 7557 H 701.821 3.04138 1.19029 0
M  V30 7558 H 700.48 3.55921 -0.878398 0
M  V30 7559 H 700.128 4.88096 1.21537 0
M  V30 7560 H 699.828 5.87131 -0.234746 0
M  V30 7561 H 701.352 6.0684 0.676614 0
M  V30 7562 H 702.766 5.52536 -1.52895 0
M  V30 7563 H 701.163 5.53436 -2.32009 0
M  V30 7564 H 702.233 4.13652 -2.53021 0
M  V30 7565 N 703.576 0.692616 1.41565 0
M  V30 7566 C 704.816 0.226453 2.03142 0
M  V30 7567 C 705.18 -1.1512 1.5366 0
M  V30 7568 O 706.381 -1.71305 2.07143 0
M  V30 7569 C 704.652 0.27855 3.56313 0
M  V30 7570 S 706.211 -0.114001 4.38652 0
M  V30 7571 H 703.029 0.0914767 0.705091 0
M  V30 7572 H 705.631 0.909737 1.73043 0
M  V30 7573 H 704.335 1.28325 3.89821 0
M  V30 7574 H 703.866 -0.423981 3.91109 0
M  V30 7575 H 705.881 -1.34256 4.77692 0
M  V30 7576 N 705.054 -1.51416 0.437162 0
M  V30 7577 C 706.303 -2.01275 -0.130865 0
M  V30 7578 C 706.616 -1.32593 -1.438 0
M  V30 7579 O 707.822 -1.7342 -2.08897 0
M  V30 7580 C 706.278 -3.5878 -0.283763 0
M  V30 7581 C 705.886 -4.36399 1.01293 0
M  V30 7582 C 707.63 -4.16786 -0.805569 0
M  V30 7583 C 705.537 -5.85608 0.825687 0
M  V30 7584 H 704.467 -0.752157 -0.0526818 0
M  V30 7585 H 707.118 -1.74524 0.566896 0
M  V30 7586 H 705.5 -3.81976 -1.04452 0
M  V30 7587 H 706.674 -4.24948 1.78201 0
M  V30 7588 H 704.989 -3.89843 1.46326 0
M  V30 7589 H 707.586 -5.25972 -0.962146 0
M  V30 7590 H 707.929 -3.75949 -1.78796 0
M  V30 7591 H 708.462 -3.97666 -0.103125 0
M  V30 7592 H 705.201 -6.30857 1.78045 0
M  V30 7593 H 704.721 -5.99723 0.0964029 0
M  V30 7594 H 706.4 -6.45226 0.478815 0
M  V30 7595 N 706.532 -0.168513 -1.56696 0
M  V30 7596 C 707.495 0.748928 -2.16619 0
M  V30 7597 C 708.495 1.16007 -1.11351 0
M  V30 7598 O 709.685 1.07748 -1.3688 0
M  V30 7599 C 706.817 2.01904 -2.74677 0
M  V30 7600 H 708.01 0.227317 -2.99037 0
M  V30 7601 H 705.563 0.0810372 -1.5609 0
M  V30 7602 H 706.298 2.58381 -1.95985 0
M  V30 7603 H 706.083 1.73323 -3.51712 0
M  V30 7604 H 707.573 2.67383 -3.20774 0
M  V30 7605 N 708.01 1.57248 0.105221 0
M  V30 7606 C 709.257 1.8557 0.810552 0
M  V30 7607 C 709.585 0.755595 1.79223 0
M  V30 7608 O 708.84 -0.251788 1.94073 0
M  V30 7609 C 709.139 3.20437 1.58287 0
M  V30 7610 C 708.805 4.44716 0.744235 0
M  V30 7611 C 707.467 4.78458 0.513013 0
M  V30 7612 C 709.819 5.20953 0.160578 0
M  V30 7613 C 707.147 5.8587 -0.311894 0
M  V30 7614 C 709.499 6.29235 -0.651596 0
M  V30 7615 C 708.163 6.615 -0.893005 0
M  V30 7616 H 707.433 0.67905 0.296602 0
M  V30 7617 H 710.08 1.91363 0.0723968 0
M  V30 7618 H 708.385 3.10283 2.39232 0
M  V30 7619 H 710.082 3.39576 2.13282 0
M  V30 7620 H 706.672 4.18287 0.934555 0
M  V30 7621 H 710.856 4.95226 0.3264 0
M  V30 7622 H 706.112 6.09286 -0.508012 0
M  V30 7623 H 710.286 6.87484 -1.11077 0
M  V30 7624 H 707.913 7.44562 -1.53401 0
M  V30 7625 N 709.488 -0.375779 1.53054 0
M  V30 7626 C 710.736 -1.11727 1.68409 0
M  V30 7627 C 711.057 -1.90127 0.43323 0
M  V30 7628 O 710.327 -1.87945 -0.552595 0
M  V30 7629 H 708.907 -0.415451 0.620813 0
M  V30 7630 H 711.569 -0.424869 1.90213 0
M  V30 7631 H 710.665 -1.8128 2.54055 0
M  V30 7632 N 710.966 -1.44241 -0.634997 0
M  V30 7633 C 712.215 -1.46102 -1.39058 0
M  V30 7634 C 712.528 -0.0959909 -1.95364 0
M  V30 7635 O 713.734 0.00788751 -2.71499 0
M  V30 7636 C 712.19 -2.57195 -2.51751 0
M  V30 7637 C 711.798 -3.99888 -2.01974 0
M  V30 7638 C 713.542 -2.68272 -3.28984 0
M  V30 7639 C 711.449 -5.02412 -3.11987 0
M  V30 7640 H 710.379 -0.543556 -0.522554 0
M  V30 7641 H 713.03 -1.70294 -0.683538 0
M  V30 7642 H 711.412 -2.26237 -3.25012 0
M  V30 7643 H 712.586 -4.40396 -1.35604 0
M  V30 7644 H 710.901 -3.93019 -1.37568 0
M  V30 7645 H 713.498 -3.42042 -4.10988 0
M  V30 7646 H 713.841 -1.73957 -3.78212 0
M  V30 7647 H 714.374 -2.98622 -2.62812 0
M  V30 7648 H 711.113 -5.98342 -2.67707 0
M  V30 7649 H 710.633 -4.66501 -3.77011 0
M  V30 7650 H 712.312 -5.25939 -3.76825 0
M  V30 7651 N 712.444 0.87505 -1.31075 0
M  V30 7652 C 713.693 1.62245 -1.19831 0
M  V30 7653 C 714.006 1.94078 0.24357 0
M  V30 7654 O 715.212 2.67265 0.477646 0
M  V30 7655 C 713.668 2.92464 -2.09744 0
M  V30 7656 C 713.276 2.68134 -3.58898 0
M  V30 7657 C 715.02 3.70449 -2.07287 0
M  V30 7658 C 712.927 3.9423 -4.40836 0
M  V30 7659 H 711.857 0.608741 -0.444916 0
M  V30 7660 H 714.508 0.967947 -1.55894 0
M  V30 7661 H 712.89 3.59262 -1.66574 0
M  V30 7662 H 714.064 2.09776 -4.10281 0
M  V30 7663 H 712.379 2.03511 -3.6328 0
M  V30 7664 H 714.976 4.63983 -2.65752 0
M  V30 7665 H 715.319 4.02611 -1.05876 0
M  V30 7666 H 715.852 3.10528 -2.48631 0
M  V30 7667 H 712.591 3.67221 -5.42982 0
M  V30 7668 H 712.111 4.52058 -3.94213 0
M  V30 7669 H 713.79 4.62162 -4.52786 0
M  V30 7670 N 713.922 1.13953 1.08869 0
M  V30 7671 C 714.852 0.844824 2.17681 0
M  V30 7672 C 715.833 -0.198213 1.68941 0
M  V30 7673 O 717.018 -0.0559073 1.9412 0
M  V30 7674 C 714.148 0.316325 3.45856 0
M  V30 7675 C 713.102 1.29426 4.07962 0
M  V30 7676 C 712.428 0.625275 5.31031 0
M  V30 7677 C 713.728 2.65484 4.49795 0
M  V30 7678 H 715.422 1.75471 2.42591 0
M  V30 7679 H 712.968 0.845116 1.16592 0
M  V30 7680 H 714.921 0.0977876 4.21287 0
M  V30 7681 H 713.645 -0.628972 3.20486 0
M  V30 7682 H 712.304 1.49889 3.34558 0
M  V30 7683 H 711.952 -0.325678 5.01945 0
M  V30 7684 H 711.652 1.27777 5.73539 0
M  V30 7685 H 713.176 0.416152 6.0918 0
M  V30 7686 H 714.59 2.48957 5.16424 0
M  V30 7687 H 712.987 3.26963 5.03205 0
M  V30 7688 H 714.057 3.22717 3.61914 0
M  V30 7689 N 715.4 -1.26948 0.933913 0
M  V30 7690 C 716.348 -2.2862 0.428463 0
M  V30 7691 C 717.342 -1.62144 -0.490464 0
M  V30 7692 O 718.548 -1.76167 -0.36948 0
M  V30 7693 H 714.923 -0.742363 0.120003 0
M  V30 7694 H 716.894 -2.68659 1.29865 0
M  V30 7695 C 715.643 -3.46423 -0.29774 0
M  V30 7696 H 714.966 -3.97792 0.400183 0
M  V30 7697 H 716.406 -4.19505 -0.615736 0
M  V30 7698 C 714.865 -3.01017 -1.51295 0
M  V30 7699 O 715.395 -3.05226 -2.61151 0
M  V30 7700 N 713.601 -2.56442 -1.36696 0
M  V30 7701 H 713.148 -2.53217 -0.473178 0
M  V30 7702 H 713.106 -2.26424 -2.18127 0
M  V30 7703 N 716.879 -0.700114 -1.41195 0
M  V30 7704 C 718.127 -0.232546 -2.00758 0
M  V30 7705 C 718.448 1.1734 -1.55745 0
M  V30 7706 O 717.718 1.79262 -0.790058 0
M  V30 7707 H 716.298 -0.0829845 -0.742376 0
M  V30 7708 H 718.96 -0.902289 -1.72756 0
M  V30 7709 H 718.056 -0.253521 -3.11069 0
M  V30 7710 N 718.357 1.51182 -0.445186 0
M  V30 7711 C 719.29 2.24528 0.4077 0
M  V30 7712 C 720.268 1.26778 1.01814 0
M  V30 7713 O 721.452 1.55934 1.05909 0
M  V30 7714 C 718.579 3.00171 1.56892 0
M  V30 7715 C 717.625 4.12641 1.0784 0
M  V30 7716 S 718.458 5.35498 0.014049 0
M  V30 7717 C 719.614 6.14681 1.17975 0
M  V30 7718 H 719.847 2.96522 -0.214987 0
M  V30 7719 H 717.38 1.52681 -0.229781 0
M  V30 7720 H 719.338 3.44349 2.23459 0
M  V30 7721 H 717.999 2.27752 2.16304 0
M  V30 7722 H 717.192 4.64875 1.94698 0
M  V30 7723 H 716.794 3.70765 0.490852 0
M  V30 7724 H 719.086 6.44244 2.09658 0
M  V30 7725 H 720.029 7.04659 0.697222 0
M  V30 7726 H 720.437 5.46299 1.42187 0
M  V30 7727 N 719.835 0.176821 1.56605 0
M  V30 7728 C 721.246 -0.338963 1.83597 0
M  V30 7729 C 721.597 -1.62677 1.09684 0
M  V30 7730 O 720.722 -2.13524 0.351661 0
M  V30 7731 C 721.317 -0.62177 3.33046 0
M  V30 7732 C 719.876 -1.08198 3.60514 0
M  V30 7733 C 719.023 -0.120774 2.77037 0
M  V30 7734 H 721.974 0.400978 1.53551 0
M  V30 7735 H 721.995 -1.47321 3.50823 0
M  V30 7736 H 721.507 0.315692 3.86814 0
M  V30 7737 H 719.608 -2.03435 3.12162 0
M  V30 7738 H 719.721 -0.987329 4.68816 0
M  V30 7739 H 718.085 -0.619192 2.47059 0
M  V30 7740 H 718.868 0.810806 3.33588 0
M  V30 7741 N 721.313 -1.57302 -0.09688 0
M  V30 7742 C 722.562 -1.85183 -0.799388 0
M  V30 7743 C 722.875 -0.765818 -1.79985 0
M  V30 7744 O 724.081 -0.931696 -2.55013 0
M  V30 7745 C 722.537 -3.28399 -1.47249 0
M  V30 7746 C 722.145 -4.45066 -0.511888 0
M  V30 7747 C 723.889 -3.65506 -2.15883 0
M  V30 7748 C 721.796 -5.79315 -1.18948 0
M  V30 7749 H 720.726 -0.690752 -0.302287 0
M  V30 7750 H 723.377 -1.83425 -0.0523104 0
M  V30 7751 H 721.759 -3.24692 -2.26697 0
M  V30 7752 H 722.933 -4.60116 0.250962 0
M  V30 7753 H 721.248 -4.16343 0.0686576 0
M  V30 7754 H 723.845 -4.63087 -2.67309 0
M  V30 7755 H 724.188 -2.94041 -2.94696 0
M  V30 7756 H 724.721 -3.71094 -1.43298 0
M  V30 7757 H 721.46 -6.54007 -0.442198 0
M  V30 7758 H 720.98 -5.68111 -1.9238 0
M  V30 7759 H 722.659 -6.23816 -1.71646 0
M  V30 7760 N 722.791 0.367657 -1.53252 0
M  V30 7761 C 724.016 1.13566 -1.73544 0
M  V30 7762 C 724.441 1.82329 -0.462344 0
M  V30 7763 O 723.799 1.71655 0.583472 0
M  V30 7764 C 723.847 2.14322 -2.89997 0
M  V30 7765 O 722.951 3.21359 -2.58461 0
M  V30 7766 H 722.292 0.329614 -0.576412 0
M  V30 7767 H 724.822 0.425417 -2.00128 0
M  V30 7768 H 724.832 2.57958 -3.16104 0
M  V30 7769 H 723.507 1.63664 -3.82344 0
M  V30 7770 H 722.084 2.8271 -2.43165 0
M  V30 7771 N 724.269 1.44576 0.627338 0
M  V30 7772 C 725.518 1.46837 1.38281 0
M  V30 7773 C 725.831 0.10635 1.95311 0
M  V30 7774 O 727.037 0.00651084 2.71499 0
M  V30 7775 C 725.493 2.58527 2.50384 0
M  V30 7776 C 725.101 4.00953 1.99851 0
M  V30 7777 C 726.845 2.70013 3.27557 0
M  V30 7778 C 724.752 5.0406 3.09318 0
M  V30 7779 H 723.682 0.546319 0.519664 0
M  V30 7780 H 726.333 1.70654 0.674497 0
M  V30 7781 H 724.715 2.27957 3.23808 0
M  V30 7782 H 725.889 4.41108 1.33267 0
M  V30 7783 H 724.204 3.93743 1.35482 0
M  V30 7784 H 726.801 3.44217 4.09168 0
M  V30 7785 H 727.144 1.75961 3.77284 0
M  V30 7786 H 727.677 3.00011 2.61224 0
M  V30 7787 H 724.416 5.99753 2.6453 0
M  V30 7788 H 723.936 4.68493 3.74532 0
M  V30 7789 H 725.615 5.2793 3.74031 0
M  V30 7790 N 725.747 -0.868086 1.31537 0
M  V30 7791 C 726.677 -1.99131 1.21939 0
M  V30 7792 C 727.658 -1.69768 0.106166 0
M  V30 7793 O 728.843 -1.92006 0.291081 0
M  V30 7794 C 725.973 -3.34676 0.927879 0
M  V30 7795 C 724.927 -3.7835 2.00088 0
M  V30 7796 C 724.253 -5.11375 1.56203 0
M  V30 7797 C 725.553 -3.95256 3.41424 0
M  V30 7798 H 727.247 -2.07419 2.15911 0
M  V30 7799 H 724.793 -0.996569 1.03945 0
M  V30 7800 H 726.746 -4.12793 0.847327 0
M  V30 7801 H 725.47 -3.26565 -0.0475042 0
M  V30 7802 H 724.129 -3.02474 2.07135 0
M  V30 7803 H 723.777 -4.99709 0.57445 0
M  V30 7804 H 723.477 -5.41568 2.27985 0
M  V30 7805 H 725.001 -5.92001 1.49558 0
M  V30 7806 H 726.415 -4.63764 3.3704 0
M  V30 7807 H 724.812 -4.36849 4.1144 0
M  V30 7808 H 725.882 -2.98579 3.82072 0
M  V30 7809 N 727.225 -1.14528 -1.08264 0
M  V30 7810 C 728.455 -0.936604 -1.8415 0
M  V30 7811 C 728.863 0.518298 -1.81962 0
M  V30 7812 O 728.206 1.37096 -1.22272 0
M  V30 7813 C 728.268 -1.36182 -3.32708 0
M  V30 7814 C 727.932 -2.83257 -3.58629 0
M  V30 7815 C 728.929 -3.81366 -3.5335 0
M  V30 7816 C 726.614 -3.20704 -3.86593 0
M  V30 7817 C 728.608 -5.14929 -3.75668 0
M  V30 7818 C 726.295 -4.54443 -4.08564 0
M  V30 7819 C 727.293 -5.51365 -4.03095 0
M  V30 7820 O 726.981 -6.8269 -4.24488 0
M  V30 7821 H 726.713 -0.333254 -0.588148 0
M  V30 7822 H 729.267 -1.5247 -1.3763 0
M  V30 7823 H 727.497 -0.717063 -3.79994 0
M  V30 7824 H 729.186 -1.12372 -3.90035 0
M  V30 7825 H 729.952 -3.53781 -3.31759 0
M  V30 7826 H 725.831 -2.45857 -3.89969 0
M  V30 7827 H 729.375 -5.90568 -3.71315 0
M  V30 7828 H 725.272 -4.81747 -4.29639 0
M  V30 7829 H 726.04 -6.8897 -4.41886 0
M  V30 7830 N 728.703 1.26451 -0.940633 0
M  V30 7831 C 729.651 2.28389 -0.440581 0
M  V30 7832 C 730.645 1.62402 0.481859 0
M  V30 7833 O 731.851 1.76361 0.360132 0
M  V30 7834 H 728.226 0.741716 -0.123938 0
M  V30 7835 H 730.197 2.67967 -1.31288 0
M  V30 7836 C 728.946 3.46576 0.279364 0
M  V30 7837 H 728.269 3.97574 -0.421274 0
M  V30 7838 H 729.709 4.19826 0.59348 0
M  V30 7839 C 728.168 3.01815 1.49697 0
M  V30 7840 O 728.698 3.06607 2.59529 0
M  V30 7841 N 726.904 2.57163 1.35334 0
M  V30 7842 H 726.451 2.53464 0.459743 0
M  V30 7843 H 726.409 2.27578 2.16923 0
M  V30 7844 N 730.181 0.707592 1.40822 0
M  V30 7845 C 731.128 0.0499029 2.30746 0
M  V30 7846 C 732.098 -0.758718 1.47759 0
M  V30 7847 O 733.283 -0.724299 1.76518 0
M  V30 7848 C 730.423 -0.871756 3.33908 0
M  V30 7849 C 729.536 -0.0534655 4.31967 0
M  V30 7850 C 728.671 -0.973869 5.22197 0
M  V30 7851 C 727.71 -0.149194 6.11918 0
M  V30 7852 N 726.847 -1.02404 6.94592 0
M  V30 7853 H 731.687 0.822461 2.86426 0
M  V30 7854 H 729.224 0.417285 1.41057 0
M  V30 7855 H 731.182 -1.42028 3.9228 0
M  V30 7856 H 729.812 -1.61058 2.7975 0
M  V30 7857 H 728.864 0.612142 3.75442 0
M  V30 7858 H 730.176 0.585354 4.95353 0
M  V30 7859 H 729.33 -1.59121 5.85462 0
M  V30 7860 H 728.069 -1.64652 4.59065 0
M  V30 7861 H 727.074 0.481137 5.47691 0
M  V30 7862 H 728.299 0.519841 6.77107 0
M  V30 7863 H 726.245 -1.6825 6.34057 0
M  V30 7864 H 726.162 -0.441076 7.54712 0
M  V30 7865 H 727.43 -1.62782 7.62314 0
M  V30 7866 N 731.66 -1.50943 0.453197 0
M  V30 7867 C 732.907 -2.02212 -0.107922 0
M  V30 7868 C 733.235 -1.33639 -1.41318 0
M  V30 7869 O 732.49 -0.445154 -1.9057 0
M  V30 7870 C 732.789 -3.55603 -0.357944 0
M  V30 7871 C 732.455 -4.42556 0.863427 0
M  V30 7872 C 731.117 -4.6604 1.19834 0
M  V30 7873 C 733.469 -4.93468 1.67747 0
M  V30 7874 C 730.797 -5.37681 2.34768 0
M  V30 7875 C 733.149 -5.6637 2.81793 0
M  V30 7876 C 731.813 -5.88113 3.1572 0
M  V30 7877 H 731.083 -0.739947 -0.0394916 0
M  V30 7878 H 733.73 -1.81738 0.60363 0
M  V30 7879 H 732.035 -3.74495 -1.15156 0
M  V30 7880 H 733.732 -3.92821 -0.805781 0
M  V30 7881 H 730.322 -4.24485 0.592478 0
M  V30 7882 H 734.506 -4.75194 1.43192 0
M  V30 7883 H 729.762 -5.52727 2.61348 0
M  V30 7884 H 733.936 -6.04806 3.45229 0
M  V30 7885 H 731.563 -6.43404 4.04889 0
M  V30 7886 N 733.138 -0.185124 -1.56509 0
M  V30 7887 C 734.363 0.465278 -2.02114 0
M  V30 7888 C 734.788 1.55083 -1.06447 0
M  V30 7889 O 734.146 1.81241 -0.0462852 0
M  V30 7890 C 734.194 1.00784 -3.46229 0
M  V30 7891 O 733.298 2.12123 -3.53663 0
M  V30 7892 H 732.639 0.109891 -0.654843 0
M  V30 7893 H 735.169 -0.293072 -2.0249 0
M  V30 7894 H 735.179 1.32697 -3.85818 0
M  V30 7895 H 733.854 0.213113 -4.15354 0
M  V30 7896 H 732.431 1.8115 -3.25943 0
M  V30 7897 N 734.616 1.57351 0.0885366 0
M  V30 7898 C 735.893 1.77449 0.822873 0
M  V30 7899 C 736.273 0.768463 1.96616 0
M  V30 7900 O 735.621 -0.201757 2.27608 0
M  V30 7901 C 735.831 3.23425 1.31137 0
M  V30 7902 C 737.179 3.86791 1.75152 0
M  V30 7903 O 738.203 3.27215 1.40745 0
M  V30 7904 O 737.062 4.91568 2.38794 0
M  V30 7905 H 734.156 0.727653 0.393002 0
M  V30 7906 H 736.702 1.69556 0.0699095 0
M  V30 7907 H 735.474 3.88188 0.49254 0
M  V30 7908 H 735.097 3.35977 2.12615 0
M  V30 7909 N 736.094 -0.359525 1.53444 0
M  V30 7910 C 737.324 -1.12036 1.73585 0
M  V30 7911 C 737.732 -1.83335 0.467438 0
M  V30 7912 O 737.075 -1.74641 -0.569753 0
M  V30 7913 C 737.137 -2.19036 2.85068 0
M  V30 7914 C 736.801 -1.67451 4.25217 0
M  V30 7915 C 737.798 -1.13534 5.07352 0
M  V30 7916 C 735.483 -1.72781 4.71648 0
M  V30 7917 C 737.477 -0.656321 6.34012 0
M  V30 7918 C 735.164 -1.2449 5.98285 0
M  V30 7919 C 736.162 -0.710068 6.79299 0
M  V30 7920 O 735.85 -0.234314 8.03558 0
M  V30 7921 H 735.582 -0.340662 0.583888 0
M  V30 7922 H 738.136 -0.422452 2.01009 0
M  V30 7923 H 736.366 -2.92338 2.53131 0
M  V30 7924 H 738.055 -2.80559 2.93328 0
M  V30 7925 H 738.821 -1.08751 4.7265 0
M  V30 7926 H 734.7 -2.13351 4.08659 0
M  V30 7927 H 738.244 -0.238193 6.97193 0
M  V30 7928 H 734.141 -1.28969 6.32485 0
M  V30 7929 H 734.909 -0.353084 8.17738 0
M  V30 7930 N 737.572 -1.44907 -0.619662 0
M  V30 7931 C 738.802 -1.51575 -1.40387 0
M  V30 7932 C 739.21 -0.14309 -1.88658 0
M  V30 7933 O 738.553 0.863403 -1.62145 0
M  V30 7934 C 738.615 -2.42858 -2.65067 0
M  V30 7935 C 738.279 -3.8982 -2.38515 0
M  V30 7936 C 739.276 -4.80047 -1.99627 0
M  V30 7937 C 736.961 -4.34628 -2.51801 0
M  V30 7938 C 738.955 -6.13086 -1.74369 0
M  V30 7939 C 736.642 -5.67712 -2.26156 0
M  V30 7940 C 737.64 -6.56759 -1.875 0
M  V30 7941 O 737.328 -7.87377 -1.62148 0
M  V30 7942 H 737.06 -0.51612 -0.436573 0
M  V30 7943 H 739.614 -1.90664 -0.763959 0
M  V30 7944 H 737.844 -1.98717 -3.31735 0
M  V30 7945 H 739.533 -2.40346 -3.27091 0
M  V30 7946 H 740.299 -4.46697 -1.8891 0
M  V30 7947 H 736.178 -3.65568 -2.80857 0
M  V30 7948 H 739.722 -6.8255 -1.44122 0
M  V30 7949 H 735.619 -6.0062 -2.36486 0
M  V30 7950 H 736.387 -7.99288 -1.763 0
M  V30 7951 N 739.05 0.861098 -1.31996 0
M  V30 7952 C 740.275 1.65264 -1.2531 0
M  V30 7953 C 740.7 1.87265 0.177007 0
M  V30 7954 O 740.058 1.4208 1.12619 0
M  V30 7955 C 740.106 2.99284 -2.0115 0
M  V30 7956 O 739.21 3.89508 -1.3549 0
M  V30 7957 H 738.551 0.50409 -0.432192 0
M  V30 7958 H 741.081 1.07297 -1.74208 0
M  V30 7959 H 741.091 3.49154 -2.11081 0
M  V30 7960 H 739.766 2.82591 -3.05148 0
M  V30 7961 H 738.343 3.47966 -1.34066 0
M  V30 7962 N 740.528 1.15101 1.07655 0
M  V30 7963 C 741.475 0.844958 2.14777 0
M  V30 7964 C 742.445 -0.200798 1.64882 0
M  V30 7965 O 743.63 -0.0690278 1.90675 0
M  V30 7966 C 740.77 0.337018 3.4345 0
M  V30 7967 C 739.883 1.44398 4.07153 0
M  V30 7968 C 739.018 0.892487 5.23649 0
M  V30 7969 C 738.057 1.9766 5.79307 0
M  V30 7970 N 737.194 1.44171 6.87138 0
M  V30 7971 H 742.034 1.76242 2.40297 0
M  V30 7972 H 739.571 0.879435 1.17917 0
M  V30 7973 H 741.529 0.024256 4.17193 0
M  V30 7974 H 740.159 -0.543531 3.18191 0
M  V30 7975 H 739.211 1.87299 3.31094 0
M  V30 7976 H 740.523 2.26262 4.4453 0
M  V30 7977 H 739.677 0.532083 6.04362 0
M  V30 7978 H 738.416 0.0429854 4.87681 0
M  V30 7979 H 737.421 2.34586 4.97242 0
M  V30 7980 H 738.646 2.82982 6.17331 0
M  V30 7981 H 736.592 0.614518 6.53115 0
M  V30 7982 H 736.509 2.19665 7.23383 0
M  V30 7983 H 737.777 1.10945 7.71564 0
M  V30 7984 N 742.006 -1.2595 0.947325 0
M  V30 7985 C 742.936 -2.28521 0.479604 0
M  V30 7986 C 743.917 -1.63469 -0.470293 0
M  V30 7987 O 745.102 -1.90627 -0.370824 0
M  V30 7988 C 742.232 -3.46397 -0.250289 0
M  V30 7989 C 741.186 -4.23578 0.613643 0
M  V30 7990 C 740.512 -5.34131 -0.246568 0
M  V30 7991 C 741.812 -4.86979 1.88809 0
M  V30 7992 H 743.506 -2.67895 1.33688 0
M  V30 7993 H 741.052 -1.28783 0.644274 0
M  V30 7994 H 743.005 -4.17269 -0.588576 0
M  V30 7995 H 741.729 -3.05993 -1.14175 0
M  V30 7996 H 740.388 -3.54478 0.93491 0
M  V30 7997 H 740.036 -4.89968 -1.13756 0
M  V30 7998 H 739.736 -5.86683 0.328123 0
M  V30 7999 H 741.26 -6.07839 -0.579986 0
M  V30 8000 H 742.674 -5.50034 1.61666 0
M  V30 8001 H 741.071 -5.49675 2.40784 0
M  V30 8002 H 742.141 -4.09575 2.5957 0
M  V30 8003 N 743.484 -0.715051 -1.40445 0
M  V30 8004 C 744.431 -0.0621393 -2.30716 0
M  V30 8005 C 745.401 0.750871 -1.48159 0
M  V30 8006 O 746.586 0.714928 -1.76899 0
M  V30 8007 C 743.726 0.854036 -3.34365 0
M  V30 8008 C 742.839 0.0305565 -4.31989 0
M  V30 8009 C 741.974 0.946162 -5.22706 0
M  V30 8010 C 741.013 0.116741 -6.11989 0
M  V30 8011 N 740.15 0.987194 -6.95125 0
M  V30 8012 H 744.99 -0.83764 -2.85985 0
M  V30 8013 H 742.527 -0.424759 -1.40834 0
M  V30 8014 H 744.485 1.39946 -3.93028 0
M  V30 8015 H 743.115 1.59572 -2.806 0
M  V30 8016 H 742.167 -0.632044 -3.75112 0
M  V30 8017 H 743.479 -0.611615 -4.95036 0
M  V30 8018 H 742.633 1.56014 -5.86297 0
M  V30 8019 H 741.372 1.62216 -4.59932 0
M  V30 8020 H 740.377 -0.510176 -5.47428 0
M  V30 8021 H 741.602 -0.555742 -6.76822 0
M  V30 8022 H 739.548 1.64885 -6.3494 0
M  V30 8023 H 739.465 0.401046 -7.54936 0
M  V30 8024 H 740.733 1.58737 -7.63166 0
M  V30 8025 N 744.962 1.50701 -0.461195 0
M  V30 8026 C 745.925 2.2686 0.326679 0
M  V30 8027 C 746.925 1.31243 0.929085 0
M  V30 8028 O 748.115 1.54754 0.799807 0
M  V30 8029 C 745.247 3.07844 1.46441 0
M  V30 8030 H 746.44 2.97954 -0.341095 0
M  V30 8031 H 743.993 1.54814 -0.214984 0
M  V30 8032 H 744.728 2.41223 2.16753 0
M  V30 8033 H 744.513 3.78101 1.03836 0
M  V30 8034 H 746.003 3.65469 2.02044 0
M  V30 8035 N 746.441 0.193421 1.56409 0
M  V30 8036 C 747.671 -0.450783 2.01622 0
M  V30 8037 C 748.079 -1.5585 1.07273 0
M  V30 8038 O 747.422 -1.83569 0.0694875 0
M  V30 8039 C 747.484 -1.06913 3.43235 0
M  V30 8040 C 747.148 -0.100352 4.5689 0
M  V30 8041 C 748.145 0.689633 5.15306 0
M  V30 8042 C 745.83 0.0102436 5.02299 0
M  V30 8043 C 747.824 1.5772 6.17579 0
M  V30 8044 C 745.511 0.901368 6.04416 0
M  V30 8045 C 746.509 1.68341 6.61929 0
M  V30 8046 O 746.197 2.5596 7.62063 0
M  V30 8047 H 745.929 -0.117671 0.66568 0
M  V30 8048 H 748.483 0.2989 2.03214 0
M  V30 8049 H 746.713 -1.86736 3.38624 0
M  V30 8050 H 748.402 -1.61781 3.72266 0
M  V30 8051 H 749.168 0.614485 4.81092 0
M  V30 8052 H 745.047 -0.58829 4.57231 0
M  V30 8053 H 748.591 2.18805 6.62397 0
M  V30 8054 H 744.488 0.977637 6.38054 0
M  V30 8055 H 745.256 2.49721 7.79475 0
M  V30 8056 N 747.919 -1.57396 -0.0801906 0
M  V30 8057 C 748.829 -2.06451 -1.11423 0
M  V30 8058 C 749.845 -0.992352 -1.42928 0
M  V30 8059 O 751.021 -1.30651 -1.53272 0
M  V30 8060 C 748.086 -2.49164 -2.41077 0
M  V30 8061 C 747.147 -3.70641 -2.16619 0
M  V30 8062 C 746.38 -4.11307 -3.40092 0
M  V30 8063 O 746.603 -3.51922 -4.48895 0
M  V30 8064 O 745.537 -5.04157 -3.288 0
M  V30 8065 H 749.363 -2.94857 -0.727519 0
M  V30 8066 H 746.948 -1.46484 -0.293743 0
M  V30 8067 H 748.83 -2.77196 -3.17396 0
M  V30 8068 H 747.505 -1.6389 -2.79145 0
M  V30 8069 H 746.412 -3.47703 -1.38033 0
M  V30 8070 H 747.745 -4.5674 -1.83437 0
M  V30 8071 N 749.397 0.351382 -1.53633 0
M  V30 8072 C 750.627 1.11113 -1.74176 0
M  V30 8073 C 751.035 1.83084 -0.477154 0
M  V30 8074 O 750.378 1.74941 0.560483 0
M  V30 8075 C 750.44 2.17521 -2.86225 0
M  V30 8076 C 750.104 1.65193 -4.26099 0
M  V30 8077 C 751.101 1.10842 -5.07947 0
M  V30 8078 C 748.786 1.70277 -4.72558 0
M  V30 8079 C 750.78 0.622689 -6.34351 0
M  V30 8080 C 748.467 1.21316 -5.98937 0
M  V30 8081 C 749.465 0.674033 -6.79666 0
M  V30 8082 O 749.153 0.191696 -8.03671 0
M  V30 8083 H 748.885 0.33756 -0.585687 0
M  V30 8084 H 751.439 0.411786 -2.0123 0
M  V30 8085 H 749.669 2.90991 -2.54678 0
M  V30 8086 H 751.358 2.78999 -2.94812 0
M  V30 8087 H 752.124 1.06243 -4.7322 0
M  V30 8088 H 748.003 2.11181 -4.09785 0
M  V30 8089 H 751.547 0.201216 -6.9731 0
M  V30 8090 H 747.444 1.25613 -6.3316 0
M  V30 8091 H 748.212 0.309712 -8.17914 0
M  V30 8092 N 750.875 1.45233 0.611969 0
M  V30 8093 C 752.103 1.52539 1.39784 0
M  V30 8094 C 752.518 0.156533 1.8815 0
M  V30 8095 O 751.875 -0.84112 1.61961 0
M  V30 8096 C 751.926 2.50614 2.60528 0
M  V30 8097 O 751.647 3.8218 2.14173 0
M  V30 8098 C 753.148 2.67574 3.53439 0
M  V30 8099 H 750.368 0.51674 0.428043 0
M  V30 8100 H 752.912 1.90379 0.746727 0
M  V30 8101 H 751.067 2.15858 3.2169 0
M  V30 8102 H 751.481 4.35305 2.92592 0
M  V30 8103 H 752.955 3.40184 4.34717 0
M  V30 8104 H 753.432 1.73458 4.03496 0
M  V30 8105 H 754.038 3.0331 2.98133 0
M  V30 8106 N 752.353 -0.854086 1.3245 0
M  V30 8107 C 753.581 -1.64074 1.26045 0
M  V30 8108 C 753.996 -1.8802 -0.171456 0
M  V30 8109 O 753.353 -1.4496 -1.10873 0
M  V30 8110 C 753.404 -2.9997 2.01743 0
M  V30 8111 O 753.125 -2.77084 3.39346 0
M  V30 8112 C 754.626 -3.94414 2.02368 0
M  V30 8113 H 751.846 -0.511015 0.434862 0
M  V30 8114 H 754.39 -1.06494 1.74583 0
M  V30 8115 H 752.545 -3.54193 1.56926 0
M  V30 8116 H 752.959 -3.63514 3.78098 0
M  V30 8117 H 754.433 -4.87032 2.59815 0
M  V30 8118 H 754.91 -4.27427 1.01009 0
M  V30 8119 H 755.516 -3.46127 2.47135 0
M  V30 8120 N 753.831 -1.1567 -1.07043 0
M  V30 8121 C 755.08 -0.928039 -1.79082 0
M  V30 8122 C 755.393 0.545968 -1.87826 0
M  V30 8123 O 756.599 0.892308 -2.56418 0
M  V30 8124 C 755.055 -1.61103 -3.21829 0
M  V30 8125 C 754.663 -3.12228 -3.21275 0
M  V30 8126 C 756.407 -1.46404 -3.98455 0
M  V30 8127 C 754.314 -3.733 -4.58695 0
M  V30 8128 H 753.244 -0.34357 -0.671175 0
M  V30 8129 H 755.895 -1.38718 -1.20123 0
M  V30 8130 H 754.277 -1.07958 -3.81 0
M  V30 8131 H 755.451 -3.72155 -2.71731 0
M  V30 8132 H 753.766 -3.26725 -2.58147 0
M  V30 8133 H 756.363 -1.8942 -5.00024 0
M  V30 8134 H 756.706 -0.41195 -4.14257 0
M  V30 8135 H 757.239 -1.96663 -3.45787 0
M  V30 8136 H 753.978 -4.78423 -4.48098 0
M  V30 8137 H 753.498 -3.18157 -5.08465 0
M  V30 8138 H 755.177 -3.7441 -5.27661 0
M  V30 8139 N 755.309 1.25446 -0.953992 0
M  V30 8140 C 756.725 1.4539 -0.658316 0
M  V30 8141 C 756.925 1.85607 0.784356 0
M  V30 8142 O 755.981 1.98568 1.55972 0
M  V30 8143 C 757.294 2.52643 -1.6307 0
M  V30 8144 C 758.842 2.66484 -1.64181 0
M  V30 8145 C 759.317 3.76921 -2.60182 0
M  V30 8146 N 760.808 3.84331 -2.58542 0
M  V30 8147 C 761.543 4.69271 -3.29503 0
M  V30 8148 N 761.039 5.58503 -4.09934 0
M  V30 8149 N 762.832 4.6323 -3.18393 0
M  V30 8150 H 754.983 0.976337 -1.8863 0
M  V30 8151 H 757.246 0.490343 -0.811337 0
M  V30 8152 H 756.952 2.29949 -2.66114 0
M  V30 8153 H 756.826 3.50547 -1.39271 0
M  V30 8154 H 759.213 2.88545 -0.618552 0
M  V30 8155 H 759.294 1.68982 -1.92038 0
M  V30 8156 H 758.938 3.55612 -3.62633 0
M  V30 8157 H 758.868 4.73906 -2.29609 0
M  V30 8158 H 761.359 3.20544 -2.0015 0
M  V30 8159 H 761.672 6.20241 -4.61 0
M  V30 8160 H 760.017 5.58214 -4.14032 0
M  V30 8161 H 763.208 3.92527 -2.5503 0
M  V30 8162 H 763.381 5.29204 -3.73961 0
M  V30 8163 N 756.787 0.722489 1.40064 0
M  V30 8164 C 758.203 0.396758 1.5459 0
M  V30 8165 C 758.403 -1.09375 1.69232 0
M  V30 8166 O 757.459 -1.87984 1.68578 0
M  V30 8167 C 758.772 1.16885 2.77053 0
M  V30 8168 C 760.32 1.15583 2.90877 0
M  V30 8169 C 760.795 1.91023 4.16262 0
M  V30 8170 N 762.286 1.88126 4.23276 0
M  V30 8171 C 763.021 2.43315 5.19216 0
M  V30 8172 N 762.517 3.07089 6.21022 0
M  V30 8173 N 764.31 2.33418 5.11344 0
M  V30 8174 H 756.461 1.68887 1.28806 0
M  V30 8175 H 758.724 0.714231 0.62336 0
M  V30 8176 H 758.43 2.22301 2.72534 0
M  V30 8177 H 758.304 0.765011 3.69361 0
M  V30 8178 H 760.691 0.10984 2.94896 0
M  V30 8179 H 760.772 1.59895 1.99668 0
M  V30 8180 H 760.416 2.95616 4.13006 0
M  V30 8181 H 760.346 1.44126 5.06493 0
M  V30 8182 H 762.837 1.41654 3.50346 0
M  V30 8183 H 763.15 3.467 6.90666 0
M  V30 8184 H 761.495 3.11175 6.21446 0
M  V30 8185 H 764.686 1.83248 4.30741 0
M  V30 8186 H 764.859 2.7673 5.85939 0
M  V30 8187 N 758.265 -1.50454 0.469181 0
M  V30 8188 C 759.175 -2.32248 -0.331349 0
M  V30 8189 C 760.191 -1.42548 -0.997807 0
M  V30 8190 O 761.367 -1.75602 -0.9862 0
M  V30 8191 C 758.432 -3.17171 -1.40012 0
M  V30 8192 C 757.493 -4.2269 -0.750463 0
M  V30 8193 C 756.726 -5.03554 -1.76831 0
M  V30 8194 O 756.949 -4.85469 -2.99459 0
M  V30 8195 O 755.883 -5.86767 -1.3412 0
M  V30 8196 H 759.709 -3.01821 0.337279 0
M  V30 8197 H 757.294 -1.47602 0.231066 0
M  V30 8198 H 759.176 -3.69871 -2.01924 0
M  V30 8199 H 757.851 -2.50328 -2.05226 0
M  V30 8200 H 756.758 -3.73986 -0.0924446 0
M  V30 8201 H 758.091 -4.91997 -0.14131 0
M  V30 8202 N 759.743 -0.201713 -1.56304 0
M  V30 8203 C 761.159 0.154025 -1.58855 0
M  V30 8204 C 761.359 1.60516 -1.21807 0
M  V30 8205 O 760.415 2.34193 -0.94393 0
M  V30 8206 C 761.728 -0.154319 -3.00304 0
M  V30 8207 C 763.276 -0.0949578 -3.12856 0
M  V30 8208 C 763.751 -0.376703 -4.56448 0
M  V30 8209 N 765.242 -0.325558 -4.62054 0
M  V30 8210 C 765.977 -0.51732 -5.71062 0
M  V30 8211 N 765.473 -0.769789 -6.8851 0
M  V30 8212 N 767.266 -0.45112 -5.60287 0
M  V30 8213 H 759.417 -1.14858 -1.78666 0
M  V30 8214 H 761.68 -0.458934 -0.829508 0
M  V30 8215 H 761.386 -1.16074 -3.31994 0
M  V30 8216 H 761.26 0.540014 -3.73314 0
M  V30 8217 H 763.647 0.902075 -2.80974 0
M  V30 8218 H 763.728 -0.822468 -2.42217 0
M  V30 8219 H 763.372 -1.37108 -4.89044 0
M  V30 8220 H 763.302 0.371772 -5.25286 0
M  V30 8221 H 765.793 -0.137308 -3.7765 0
M  V30 8222 H 766.106 -0.904744 -7.67486 0
M  V30 8223 H 764.451 -0.806758 -6.90302 0
M  V30 8224 H 767.642 -0.254253 -4.67409 0
M  V30 8225 H 767.815 -0.603982 -6.45179 0
M  V30 8226 N 761.222 1.57436 0.0718424 0
M  V30 8227 C 762.47 1.86878 0.769484 0
M  V30 8228 C 762.791 0.7937 1.78116 0
M  V30 8229 O 762.061 -0.177642 1.95093 0
M  V30 8230 H 760.641 0.689593 0.287177 0
M  V30 8231 H 763.303 1.94841 0.0479427 0
M  V30 8232 H 762.399 2.84387 1.28572 0
M  V30 8233 N 762.7 -0.34323 1.53817 0
M  V30 8234 C 763.61 -1.44493 1.84821 0
M  V30 8235 C 764.626 -1.57556 0.738381 0
M  V30 8236 O 765.802 -1.73026 1.03072 0
M  V30 8237 C 762.867 -2.79478 2.05166 0
M  V30 8238 C 761.928 -2.75756 3.29025 0
M  V30 8239 C 761.161 -4.04302 3.4839 0
M  V30 8240 O 761.384 -5.01595 2.71586 0
M  V30 8241 O 760.318 -4.08754 4.41819 0
M  V30 8242 H 764.144 -1.21209 2.78464 0
M  V30 8243 H 761.729 -0.535437 1.39476 0
M  V30 8244 H 763.611 -3.59419 2.19991 0
M  V30 8245 H 762.286 -3.02692 1.14713 0
M  V30 8246 H 761.193 -1.94434 3.19603 0
M  V30 8247 H 762.526 -2.57495 4.19472 0
M  V30 8248 N 764.178 -1.45556 -0.604258 0
M  V30 8249 C 765.424 -1.49968 -1.36519 0
M  V30 8250 C 765.757 -0.142236 -1.93678 0
M  V30 8251 O 765.032 0.843717 -1.75247 0
M  V30 8252 C 765.315 -2.58146 -2.51063 0
M  V30 8253 C 765.168 -4.03346 -1.99078 0
M  V30 8254 C 766.487 -2.62581 -3.53184 0
M  V30 8255 H 763.606 -0.545993 -0.495036 0
M  V30 8256 H 766.248 -1.77382 -0.680845 0
M  V30 8257 H 764.398 -2.34901 -3.09441 0
M  V30 8258 H 766.07 -4.37811 -1.45323 0
M  V30 8259 H 764.313 -4.13845 -1.30055 0
M  V30 8260 H 764.984 -4.74731 -2.81664 0
M  V30 8261 H 767.46 -2.83419 -3.04652 0
M  V30 8262 H 766.336 -3.40131 -4.30816 0
M  V30 8263 H 766.597 -1.67798 -4.09019 0
M  V30 8264 N 765.656 0.84705 -1.32902 0
M  V30 8265 C 766.604 1.97765 -1.22441 0
M  V30 8266 C 767.598 1.68919 -0.127546 0
M  V30 8267 O 768.804 1.77633 -0.290973 0
M  V30 8268 H 765.179 0.649072 -0.379748 0
M  V30 8269 H 767.15 2.03713 -2.18044 0
M  V30 8270 C 765.899 3.33834 -0.972125 0
M  V30 8271 H 765.222 3.56564 -1.80837 0
M  V30 8272 H 766.662 4.13467 -0.939209 0
M  V30 8273 C 765.121 3.35328 0.325059 0
M  V30 8274 O 765.651 3.78887 1.33445 0
M  V30 8275 N 763.857 2.88488 0.349718 0
M  V30 8276 H 763.404 2.53234 -0.472236 0
M  V30 8277 H 763.362 2.8987 1.21748 0
M  V30 8278 N 767.134 1.16236 1.06428 0
M  V30 8279 C 768.381 0.943034 1.79201 0
M  V30 8280 C 768.709 -0.529243 1.87161 0
M  V30 8281 O 767.964 -1.40874 1.35842 0
M  V30 8282 C 768.263 1.51396 3.2375 0
M  V30 8283 C 767.929 3.00833 3.35873 0
M  V30 8284 C 766.591 3.41626 3.38888 0
M  V30 8285 C 768.943 3.96825 3.37904 0
M  V30 8286 C 766.271 4.77033 3.4155 0
M  V30 8287 C 768.623 5.32116 3.42104 0
M  V30 8288 C 767.287 5.72392 3.43401 0
M  V30 8289 H 766.557 0.34508 0.655744 0
M  V30 8290 H 769.204 1.44929 1.25171 0
M  V30 8291 H 767.509 0.929114 3.80624 0
M  V30 8292 H 769.206 1.31996 3.78653 0
M  V30 8293 H 765.796 2.68306 3.3423 0
M  V30 8294 H 769.98 3.66376 3.34787 0
M  V30 8295 H 765.236 5.07569 3.40858 0
M  V30 8296 H 769.41 6.06286 3.42623 0
M  V30 8297 H 767.037 6.77296 3.45216 0
M  V30 8298 N 768.612 -1.24939 0.960631 0
M  V30 8299 C 769.545 -2.24116 0.429804 0
M  V30 8300 C 770.523 -1.54972 -0.492188 0
M  V30 8301 O 771.707 -1.83642 -0.42519 0
M  V30 8302 C 768.834 -3.36558 -0.380312 0
M  V30 8303 C 767.88 -4.23757 0.482941 0
M  V30 8304 S 768.713 -4.9994 1.91885 0
M  V30 8305 C 769.869 -6.15846 1.11732 0
M  V30 8306 H 770.102 -2.68795 1.27029 0
M  V30 8307 H 767.635 -1.34108 0.765141 0
M  V30 8308 H 769.593 -4.01777 -0.841764 0
M  V30 8309 H 768.254 -2.90451 -1.19569 0
M  V30 8310 H 767.447 -5.03809 -0.138699 0
M  V30 8311 H 767.049 -3.63504 0.879839 0
M  V30 8312 H 769.341 -6.76495 0.368898 0
M  V30 8313 H 770.284 -6.82356 1.89198 0
M  V30 8314 H 770.692 -5.60805 0.644812 0
M  V30 8315 N 770.09 -0.729906 -1.39679 0
M  V30 8316 C 771.022 -0.0470588 -2.29152 0
M  V30 8317 C 772.035 0.708808 -1.4656 0
M  V30 8318 O 773.224 0.553815 -1.69691 0
M  V30 8319 C 770.324 0.957612 -3.25089 0
M  V30 8320 C 769.497 0.264321 -4.36601 0
M  V30 8321 C 768.556 1.17638 -5.12882 0
M  V30 8322 O 767.582 0.655777 -5.6541 0
M  V30 8323 N 768.784 2.50649 -5.23598 0
M  V30 8324 H 771.549 -0.815364 -2.88395 0
M  V30 8325 H 769.11 -0.578707 -1.51204 0
M  V30 8326 H 771.102 1.57026 -3.72995 0
M  V30 8327 H 769.672 1.62716 -2.66912 0
M  V30 8328 H 768.892 -0.528732 -3.90638 0
M  V30 8329 H 770.18 -0.216344 -5.0834 0
M  V30 8330 H 769.578 2.95427 -4.82431 0
M  V30 8331 H 768.135 3.07022 -5.74961 0
M  V30 8332 N 771.568 1.50203 -0.477153 0
M  V30 8333 C 772.984 1.59056 -0.131663 0
M  V30 8334 C 773.184 1.48473 1.36227 0
M  V30 8335 O 772.24 1.34635 2.13611 0
M  V30 8336 C 773.553 2.92741 -0.687254 0
M  V30 8337 C 775.101 3.0615 -0.651223 0
M  V30 8338 C 775.576 4.42419 -1.18446 0
M  V30 8339 N 777.067 4.48847 -1.14413 0
M  V30 8340 C 777.802 5.52689 -1.52717 0
M  V30 8341 N 777.298 6.63754 -1.98499 0
M  V30 8342 N 779.091 5.43267 -1.44282 0
M  V30 8343 H 771.242 1.55325 -1.44872 0
M  V30 8344 H 773.505 0.734395 -0.599473 0
M  V30 8345 H 773.211 3.0598 -1.73405 0
M  V30 8346 H 773.085 3.76961 -0.134215 0
M  V30 8347 H 775.472 2.92556 0.386677 0
M  V30 8348 H 775.553 2.23673 -1.24114 0
M  V30 8349 H 775.197 4.56763 -2.22103 0
M  V30 8350 H 775.127 5.23498 -0.570709 0
M  V30 8351 H 777.618 3.69152 -0.808416 0
M  V30 8352 H 777.931 7.39059 -2.25859 0
M  V30 8353 H 776.276 6.64858 -2.02456 0
M  V30 8354 H 779.467 4.55387 -1.08352 0
M  V30 8355 H 779.64 6.24074 -1.74459 0
M  V30 8356 N 773.046 0.209999 1.56195 0
M  V30 8357 C 774.009 -0.691232 2.18528 0
M  V30 8358 C 775.009 -1.13013 1.14388 0
M  V30 8359 O 776.199 -1.04081 1.39688 0
M  V30 8360 C 773.331 -1.94551 2.79934 0
M  V30 8361 H 774.524 -0.147953 2.99535 0
M  V30 8362 H 772.077 -0.0396243 1.5625 0
M  V30 8363 H 772.812 -2.53094 2.02766 0
M  V30 8364 H 772.597 -1.63938 3.56184 0
M  V30 8365 H 774.087 -2.58785 3.2775 0
M  V30 8366 N 774.524 -1.57472 -0.0634922 0
M  V30 8367 C 775.94 -1.54016 -0.418466 0
M  V30 8368 C 776.14 -0.931376 -1.78683 0
M  V30 8369 O 775.196 -0.537465 -2.46714 0
M  V30 8370 C 776.509 -2.98634 -0.351906 0
M  V30 8371 C 778.057 -3.10012 -0.431494 0
M  V30 8372 C 778.532 -4.56296 -0.394754 0
M  V30 8373 N 780.023 -4.60964 -0.454583 0
M  V30 8374 C 780.758 -5.71643 -0.448501 0
M  V30 8375 N 780.254 -6.91663 -0.396742 0
M  V30 8376 N 782.047 -5.5991 -0.495677 0
M  V30 8377 H 774.198 -1.95409 0.832408 0
M  V30 8378 H 776.461 -0.894769 0.313197 0
M  V30 8379 H 776.167 -3.46766 0.587048 0
M  V30 8380 H 776.041 -3.58955 -1.15893 0
M  V30 8381 H 778.428 -2.61848 -1.36087 0
M  V30 8382 H 778.509 -2.52585 0.404258 0
M  V30 8383 H 778.153 -5.05119 0.530811 0
M  V30 8384 H 778.083 -5.11594 -1.24815 0
M  V30 8385 H 780.574 -3.74598 -0.498496 0
M  V30 8386 H 780.887 -7.71783 -0.396256 0
M  V30 8387 H 779.232 -6.9405 -0.363304 0
M  V30 8388 H 782.423 -4.65046 -0.533864 0
M  V30 8389 H 782.596 -6.46164 -0.487469 0
M  V30 8390 N 776.003 0.335068 -1.53997 0
M  V30 8391 C 776.95 1.41187 -1.82579 0
M  V30 8392 C 777.92 1.51897 -0.672061 0
M  V30 8393 O 779.105 1.673 -0.917346 0
M  V30 8394 C 776.245 2.77717 -2.0486 0
M  V30 8395 C 775.358 2.7573 -3.32561 0
M  V30 8396 C 774.493 4.04032 -3.44864 0
M  V30 8397 C 773.532 3.96308 -4.66483 0
M  V30 8398 N 772.669 5.16317 -4.75774 0
M  V30 8399 H 777.509 1.16113 -2.74448 0
M  V30 8400 H 775.046 0.562305 -1.35928 0
M  V30 8401 H 777.004 3.57071 -2.15768 0
M  V30 8402 H 775.634 3.01124 -1.16294 0
M  V30 8403 H 774.686 1.88432 -3.3045 0
M  V30 8404 H 775.998 2.65902 -4.22016 0
M  V30 8405 H 775.152 4.91814 -3.55251 0
M  V30 8406 H 773.891 4.16652 -2.53481 0
M  V30 8407 H 772.896 3.06911 -4.56164 0
M  V30 8408 H 774.121 3.85263 -5.5924 0
M  V30 8409 H 772.067 5.29464 -3.87303 0
M  V30 8410 H 771.984 5.08779 -5.59178 0
M  V30 8411 H 773.252 6.05846 -4.9048 0
M  V30 8412 N 777.481 1.45874 0.596531 0
M  V30 8413 C 778.428 1.55389 1.70655 0
M  V30 8414 C 779.398 0.399036 1.61236 0
M  V30 8415 O 780.583 0.61396 1.80652 0
M  V30 8416 C 777.723 1.53705 3.0898 0
M  V30 8417 C 776.836 2.79823 3.29125 0
M  V30 8418 C 775.971 2.69735 4.5762 0
M  V30 8419 C 775.01 3.90856 4.71061 0
M  V30 8420 N 774.147 3.79237 5.90867 0
M  V30 8421 H 778.987 2.50211 1.61859 0
M  V30 8422 H 776.524 1.24146 0.789069 0
M  V30 8423 H 778.482 1.50715 3.89026 0
M  V30 8424 H 777.112 0.624247 3.16706 0
M  V30 8425 H 776.164 2.92852 2.42779 0
M  V30 8426 H 777.476 3.69628 3.34927 0
M  V30 8427 H 776.63 2.64773 5.45875 0
M  V30 8428 H 775.369 1.77547 4.54234 0
M  V30 8429 H 774.374 3.96164 3.81227 0
M  V30 8430 H 775.599 4.84124 4.76236 0
M  V30 8431 H 773.545 2.89825 5.88504 0
M  V30 8432 H 773.462 4.62686 5.97877 0
M  V30 8433 H 774.73 3.78227 6.8159 0
M  V30 8434 N 778.959 -0.83999 1.33349 0
M  V30 8435 C 780.208 -1.59011 1.2409 0
M  V30 8436 C 780.521 -1.94655 -0.192029 0
M  V30 8437 O 781.727 -2.68438 -0.406617 0
M  V30 8438 C 780.183 -2.86801 2.17425 0
M  V30 8439 C 779.791 -2.58525 3.65881 0
M  V30 8440 C 781.535 -3.64823 2.17036 0
M  V30 8441 C 779.442 -3.82404 4.51133 0
M  V30 8442 H 778.372 -0.596731 0.460899 0
M  V30 8443 H 781.023 -0.926274 1.58406 0
M  V30 8444 H 779.405 -3.54719 1.7604 0
M  V30 8445 H 780.579 -1.98824 4.15699 0
M  V30 8446 H 778.894 -1.93808 3.68548 0
M  V30 8447 H 781.491 -4.56774 2.7796 0
M  V30 8448 H 781.834 -3.99663 1.16513 0
M  V30 8449 H 782.367 -3.03826 2.56777 0
M  V30 8450 H 779.106 -3.52696 5.52527 0
M  V30 8451 H 778.626 -4.41447 4.0606 0
M  V30 8452 H 780.305 -4.49995 4.6488 0
M  V30 8453 N 780.437 -1.16799 -1.0581 0
M  V30 8454 C 781.4 -0.881396 -2.11575 0
M  V30 8455 C 782.4 0.12574 -1.60308 0
M  V30 8456 O 783.59 -0.105716 -1.73879 0
M  V30 8457 C 780.722 -0.319037 -3.39404 0
M  V30 8458 H 781.915 -1.81907 -2.38432 0
M  V30 8459 H 779.468 -0.977597 -1.21954 0
M  V30 8460 H 780.203 0.626082 -3.18199 0
M  V30 8461 H 779.988 -1.04481 -3.77923 0
M  V30 8462 H 781.478 -0.13663 -4.17376 0
M  V30 8463 N 781.915 1.24427 -0.967243 0
M  V30 8464 C 782.825 2.29109 -0.504592 0
M  V30 8465 C 783.841 1.68495 0.434224 0
M  V30 8466 O 785.017 1.99041 0.307379 0
M  V30 8467 C 782.082 3.46133 0.198273 0
M  V30 8468 C 781.143 4.22149 -0.780313 0
M  V30 8469 C 780.376 5.33585 -0.110896 0
M  V30 8470 O 780.599 5.59676 1.10088 0
M  V30 8471 O 779.533 5.96522 -0.802823 0
M  V30 8472 H 783.359 2.708 -1.37482 0
M  V30 8473 H 780.944 1.30111 -0.73426 0
M  V30 8474 H 782.826 4.17205 0.593124 0
M  V30 8475 H 781.501 3.0642 1.04347 0
M  V30 8476 H 780.408 3.53454 -1.22561 0
M  V30 8477 H 781.741 4.65677 -1.59392 0
M  V30 8478 N 783.393 0.737304 1.3929 0
M  V30 8479 C 784.633 0.290966 2.02318 0
M  V30 8480 C 784.997 -1.10174 1.57244 0
M  V30 8481 O 786.198 -1.64628 2.12488 0
M  V30 8482 C 784.469 0.391767 3.55246 0
M  V30 8483 S 786.028 0.0256103 4.38793 0
M  V30 8484 H 782.846 0.113862 0.701824 0
M  V30 8485 H 785.448 0.964329 1.70062 0
M  V30 8486 H 784.152 1.40662 3.85542 0
M  V30 8487 H 783.683 -0.299338 3.9226 0
M  V30 8488 H 785.698 -1.18991 4.81722 0
M  V30 8489 N 784.871 -1.49948 0.485112 0
M  V30 8490 C 785.801 -2.31675 -0.291364 0
M  V30 8491 C 786.782 -1.39216 -0.977383 0
M  V30 8492 O 787.967 -1.68133 -0.971855 0
M  V30 8493 C 785.097 -3.19326 -1.36558 0
M  V30 8494 C 784.051 -4.2045 -0.800359 0
M  V30 8495 C 783.377 -4.96931 -1.97391 0
M  V30 8496 C 784.677 -5.21925 0.197867 0
M  V30 8497 H 786.371 -2.96839 0.390775 0
M  V30 8498 H 783.917 -1.42749 0.189375 0
M  V30 8499 H 785.87 -3.75304 -1.91638 0
M  V30 8500 H 784.594 -2.52074 -2.07668 0
M  V30 8501 H 783.253 -3.65594 -0.271428 0
M  V30 8502 H 782.901 -4.26141 -2.67232 0
M  V30 8503 H 782.601 -5.65344 -1.60187 0
M  V30 8504 H 784.125 -5.55749 -2.52935 0
M  V30 8505 H 785.539 -5.72691 -0.264239 0
M  V30 8506 H 783.936 -5.98138 0.484908 0
M  V30 8507 H 785.006 -4.71809 1.11912 0
M  V30 8508 N 786.349 -0.21828 -1.56081 0
M  V30 8509 C 787.279 0.687922 -2.23136 0
M  V30 8510 C 788.26 1.20357 -1.202 0
M  V30 8511 O 789.445 1.24817 -1.48776 0
M  V30 8512 C 786.575 1.89762 -2.90874 0
M  V30 8513 C 785.529 1.51595 -4.00254 0
M  V30 8514 C 784.855 2.80415 -4.55271 0
M  V30 8515 C 786.155 0.708404 -5.17474 0
M  V30 8516 H 787.849 0.128854 -2.99123 0
M  V30 8517 H 785.395 0.0605354 -1.43873 0
M  V30 8518 H 787.348 2.53699 -3.36474 0
M  V30 8519 H 786.072 2.4816 -2.1233 0
M  V30 8520 H 784.731 0.900058 -3.55379 0
M  V30 8521 H 784.379 3.36951 -3.73461 0
M  V30 8522 H 784.079 2.55613 -5.2909 0
M  V30 8523 H 785.603 3.453 -5.03587 0
M  V30 8524 H 787.017 1.2514 -5.59476 0
M  V30 8525 H 785.414 0.557593 -5.97504 0
M  V30 8526 H 786.484 -0.285679 -4.84058 0
M  V30 8527 N 787.827 1.57504 0.0551401 0
M  V30 8528 C 789.075 1.87684 0.74962 0
M  V30 8529 C 789.396 0.812547 1.77264 0
M  V30 8530 O 788.666 -0.15694 1.9527 0
M  V30 8531 H 787.246 0.6926 0.279846 0
M  V30 8532 H 789.908 1.94881 0.0272745 0
M  V30 8533 H 789.004 2.85734 1.25548 0
M  V30 8534 N 789.305 -0.326896 1.54172 0
M  V30 8535 C 790.53 -1.08924 1.76494 0
M  V30 8536 C 790.955 -1.81039 0.510523 0
M  V30 8537 O 790.313 -1.73141 -0.537756 0
M  V30 8538 C 790.361 -2.06558 2.95578 0
M  V30 8539 O 789.465 -3.14394 2.6689 0
M  V30 8540 H 788.806 -0.314216 0.584948 0
M  V30 8541 H 791.336 -0.372207 2.01186 0
M  V30 8542 H 791.346 -2.49487 3.22832 0
M  V30 8543 H 790.021 -1.53469 3.86549 0
M  V30 8544 H 788.598 -2.76164 2.50576 0
M  V30 8545 N 790.784 -1.46188 -0.588786 0
M  V30 8546 C 791.732 -1.56653 -1.71938 0
M  V30 8547 C 792.726 -0.435354 -1.6371 0
M  V30 8548 O 793.932 -0.611996 -1.69277 0
M  V30 8549 H 790.307 -0.492408 -0.568365 0
M  V30 8550 H 792.278 -2.51724 -1.60242 0
M  V30 8551 C 791.027 -1.56822 -3.10326 0
M  V30 8552 H 790.35 -2.43198 -3.17325 0
M  V30 8553 H 791.79 -1.68199 -3.89211 0
M  V30 8554 C 790.249 -0.295802 -3.35599 0
M  V30 8555 O 790.779 0.616515 -3.96941 0
M  V30 8556 N 788.985 -0.185609 -2.90007 0
M  V30 8557 H 788.532 -0.928914 -2.40269 0
M  V30 8558 H 788.49 0.664883 -3.07289 0
M  V30 8559 N 792.262 0.832906 -1.33792 0
M  V30 8560 C 793.673 1.40489 -1.22963 0
M  V30 8561 C 794.024 1.95633 0.149026 0
M  V30 8562 O 793.149 1.8928 1.04891 0
M  V30 8563 C 793.744 2.55387 -2.22627 0
M  V30 8564 C 792.303 3.08522 -2.15618 0
M  V30 8565 C 791.45 1.81347 -2.09782 0
M  V30 8566 H 794.401 0.638156 -1.45304 0
M  V30 8567 H 794.422 3.33193 -1.83746 0
M  V30 8568 H 793.934 2.15222 -3.22957 0
M  V30 8569 H 792.035 3.53217 -1.18611 0
M  V30 8570 H 792.148 3.6829 -3.0643 0
M  V30 8571 H 790.512 2.01839 -1.55349 0
M  V30 8572 H 791.295 1.43369 -3.1193 0
M  V30 8573 N 793.74 1.17359 1.05189 0
M  V30 8574 C 794.672 0.848078 2.12933 0
M  V30 8575 C 795.685 -0.149521 1.62112 0
M  V30 8576 O 796.874 0.0767797 1.78335 0
M  V30 8577 C 793.974 0.243889 3.38021 0
M  V30 8578 C 793.147 1.28436 4.18118 0
M  V30 8579 C 792.206 0.697926 5.21551 0
M  V30 8580 O 791.232 1.36973 5.52473 0
M  V30 8581 N 792.434 -0.510024 5.78255 0
M  V30 8582 H 795.199 1.7754 2.41453 0
M  V30 8583 H 792.76 1.07244 1.21286 0
M  V30 8584 H 794.752 -0.161727 4.04377 0
M  V30 8585 H 793.322 -0.58722 3.07035 0
M  V30 8586 H 792.542 1.86573 3.47252 0
M  V30 8587 H 793.83 1.98617 4.68432 0
M  V30 8588 H 793.228 -1.07378 5.55416 0
M  V30 8589 H 791.785 -0.857705 6.46132 0
M  V30 8590 N 795.218 -1.23913 0.973828 0
M  V30 8591 C 796.148 -2.27453 0.527969 0
M  V30 8592 C 797.129 -1.6443 -0.435513 0
M  V30 8593 O 798.314 -1.9137 -0.330306 0
M  V30 8594 C 795.444 -3.4685 -0.176757 0
M  V30 8595 C 794.398 -4.22181 0.703352 0
M  V30 8596 C 793.724 -5.34534 -0.133215 0
M  V30 8597 C 795.024 -4.82865 1.99096 0
M  V30 8598 H 796.718 -2.65 1.3934 0
M  V30 8599 H 794.264 -1.27388 0.671446 0
M  V30 8600 H 796.217 -4.18424 -0.499934 0
M  V30 8601 H 794.941 -3.08346 -1.07659 0
M  V30 8602 H 793.6 -3.52416 1.00989 0
M  V30 8603 H 793.248 -4.92271 -1.03338 0
M  V30 8604 H 792.948 -5.85855 0.452494 0
M  V30 8605 H 794.472 -6.08933 -0.450924 0
M  V30 8606 H 795.886 -5.46481 1.73297 0
M  V30 8607 H 794.283 -5.44444 2.52389 0
M  V30 8608 H 795.353 -4.03977 2.68199 0
M  V30 8609 N 796.696 -0.74468 -1.38897 0
M  V30 8610 C 797.924 -0.307428 -2.04603 0
M  V30 8611 C 798.339 1.06115 -1.56157 0
M  V30 8612 O 797.696 1.67233 -0.730701 0
M  V30 8613 C 797.747 -0.31101 -3.6016 0
M  V30 8614 O 797.468 -1.62557 -4.06825 0
M  V30 8615 C 798.969 0.141213 -4.43075 0
M  V30 8616 H 796.189 -0.132741 -0.657739 0
M  V30 8617 H 798.733 -1.01104 -1.77759 0
M  V30 8618 H 796.888 0.343792 -3.85872 0
M  V30 8619 H 797.302 -1.54569 -5.01207 0
M  V30 8620 H 798.776 0.0875449 -5.51931 0
M  V30 8621 H 799.253 1.18782 -4.22833 0
M  V30 8622 H 799.859 -0.484383 -4.22533 0
M  V30 8623 N 798.174 1.49689 -0.493057 0
M  V30 8624 C 799.585 1.8665 -0.0433032 0
M  V30 8625 C 799.936 1.40607 1.36836 0
M  V30 8626 O 799.061 0.780503 2.01834 0
M  V30 8627 C 799.656 3.38724 -0.0718069 0
M  V30 8628 C 798.215 3.75015 0.32257 0
M  V30 8629 C 797.362 2.7366 -0.4478 0
M  V30 8630 H 800.313 1.42119 -0.706246 0
M  V30 8631 H 800.334 3.73522 0.725347 0
M  V30 8632 H 799.846 3.72204 -1.09935 0
M  V30 8633 H 797.947 3.47142 1.35364 0
M  V30 8634 H 798.06 4.79099 0.00864259 0
M  V30 8635 H 796.424 2.54498 0.101354 0
M  V30 8636 H 797.207 3.09985 -1.47527 0
M  V30 8637 N 799.652 0.226554 1.55963 0
M  V30 8638 C 801.068 -0.128733 1.5908 0
M  V30 8639 C 801.268 -1.58558 1.24345 0
M  V30 8640 O 800.324 -2.32661 0.981069 0
M  V30 8641 C 801.637 0.202076 3.0002 0
M  V30 8642 C 803.185 0.144718 3.12665 0
M  V30 8643 C 803.66 0.449272 4.55791 0
M  V30 8644 N 805.151 0.399026 4.61478 0
M  V30 8645 C 805.886 0.608106 5.70166 0
M  V30 8646 N 805.382 0.879227 6.87198 0
M  V30 8647 N 807.175 0.5402 5.59498 0
M  V30 8648 H 799.326 1.17686 1.76816 0
M  V30 8649 H 801.589 0.472072 0.822102 0
M  V30 8650 H 801.295 1.21341 3.30105 0
M  V30 8651 H 801.169 -0.480554 3.74126 0
M  V30 8652 H 803.556 -0.857261 2.82374 0
M  V30 8653 H 803.637 0.860899 2.40878 0
M  V30 8654 H 803.281 1.44871 4.86801 0
M  V30 8655 H 803.211 -0.288157 5.25811 0
M  V30 8656 H 805.702 0.197372 3.77384 0
M  V30 8657 H 806.015 1.02673 7.65949 0
M  V30 8658 H 804.36 0.916477 6.88931 0
M  V30 8659 H 807.551 0.328581 4.66945 0
M  V30 8660 H 807.724 0.706548 6.44137 0
M  V30 8661 N 801.13 -1.57531 -0.0467866 0
M  V30 8662 C 802.062 -2.02156 -1.08007 0
M  V30 8663 C 803.075 -0.931434 -1.33522 0
M  V30 8664 O 804.264 -1.209 -1.31321 0
M  V30 8665 C 801.364 -2.36675 -2.42566 0
M  V30 8666 C 800.537 -3.67848 -2.36658 0
M  V30 8667 C 799.596 -3.89754 -3.53523 0
M  V30 8668 O 798.622 -4.61036 -3.33818 0
M  V30 8669 N 799.824 -3.34025 -4.74771 0
M  V30 8670 H 802.589 -2.91414 -0.699845 0
M  V30 8671 H 800.15 -1.60185 -0.235041 0
M  V30 8672 H 802.142 -2.48482 -3.19435 0
M  V30 8673 H 800.712 -1.53178 -2.72498 0
M  V30 8674 H 799.932 -3.66561 -1.45005 0
M  V30 8675 H 801.22 -4.53931 -2.29835 0
M  V30 8676 H 800.618 -2.76214 -4.93683 0
M  V30 8677 H 799.175 -3.51241 -5.49066 0
M  V30 8678 N 802.608 0.318715 -1.54344 0
M  V30 8679 C 803.518 1.41535 -1.87097 0
M  V30 8680 C 804.534 1.56361 -0.763353 0
M  V30 8681 O 805.71 1.71365 -1.05811 0
M  V30 8682 C 802.775 2.76178 -2.09587 0
M  V30 8683 C 801.836 2.70486 -3.3337 0
M  V30 8684 C 801.069 3.98708 -3.54778 0
M  V30 8685 O 801.292 4.9721 -2.79532 0
M  V30 8686 O 800.226 4.01674 -4.48266 0
M  V30 8687 H 804.052 1.16764 -2.80357 0
M  V30 8688 H 801.637 0.51318 -1.4031 0
M  V30 8689 H 803.519 3.55873 -2.25682 0
M  V30 8690 H 802.194 3.00829 -1.19514 0
M  V30 8691 H 801.101 1.89325 -3.22656 0
M  V30 8692 H 802.434 2.50789 -4.23516 0
M  V30 8693 N 804.086 1.46499 0.581025 0
M  V30 8694 C 805.034 1.57562 1.71105 0
M  V30 8695 C 806.028 0.44403 1.63477 0
M  V30 8696 O 807.234 0.620964 1.6895 0
M  V30 8697 H 803.609 0.495415 0.565746 0
M  V30 8698 H 805.58 2.5257 1.58905 0
M  V30 8699 C 804.329 1.58465 3.0949 0
M  V30 8700 H 803.652 2.44877 3.16031 0
M  V30 8701 H 805.092 1.70261 3.88313 0
M  V30 8702 C 803.551 0.313596 3.35437 0
M  V30 8703 O 804.081 -0.595456 3.97262 0
M  V30 8704 N 802.287 0.200986 2.89904 0
M  V30 8705 H 801.834 0.941643 2.39773 0
M  V30 8706 H 801.792 -0.648577 3.07638 0
M  V30 8707 O 805.603 -0.725332 1.44295 0
M  V30 8708 H 806.294 -1.37566 1.36365 0
M  V30 END ATOM
M  V30 BEGIN BOND
M  V30 END BOND
M  V30 END CTAB
M  END
$$$$
