drugbank_target|P26221 Endoglucanase E-4 (DB02379)
 OpenBabel12092120293D

  0  0  0     0  0            999 V3000
M  V30 BEGIN CTAB
M  V30 COUNTS 12971 13177 0 0 0
M  V30 BEGIN ATOM
M  V30 1 H -0.908 1.98254 -0.117106 0
M  V30 2 N 0 1.576 0 0
M  V30 3 C 0.933 2.03868 1.02534 0
M  V30 4 C 1.911 0.928543 1.3348 0
M  V30 5 O 3.095 1.19667 1.45644 0
M  V30 6 C 0.222 2.43627 2.35294 0
M  V30 7 C -0.732 3.65373 2.2001 0
M  V30 8 S 0.101 5.13292 1.52614 0
M  V30 9 C 1.257 5.56322 2.86805 0
M  V30 10 H 1.49 2.90518 0.631377 0
M  V30 11 H -0.977 1.52953 0.210867 0
M  V30 12 H 0.981 2.67203 3.11629 0
M  V30 13 H -0.358 1.57376 2.7183 0
M  V30 14 H -1.165 3.90944 3.18086 0
M  V30 15 H -1.563 3.418 1.51819 0
M  V30 16 H 0.729 5.58782 3.83104 0
M  V30 17 H 1.672 6.56266 2.65933 0
M  V30 18 H 2.08 4.83886 2.90714 0
M  V30 19 N 1.4781 -0.272755 1.55222 0
M  V30 20 C 2.7031 -1.02683 1.80197 0
M  V30 21 C 3.1281 -1.79142 0.573551 0
M  V30 22 O 2.4861 -1.74917 -0.476849 0
M  V30 23 C 2.5341 -1.9609 3.02624 0
M  V30 24 O 1.6381 -3.04863 2.77727 0
M  V30 25 H 0.9791 -0.293557 0.595584 0
M  V30 26 H 3.5091 -0.30159 2.02365 0
M  V30 27 H 3.5191 -2.38039 3.31363 0
M  V30 28 H 2.1941 -1.39851 3.91682 0
M  V30 29 H 0.7711 -2.67228 2.60084 0
M  V30 30 N 2.9562 -1.48159 -0.537278 0
M  V30 31 C 4.2022 -1.56035 -1.29541 0
M  V30 32 C 4.5352 -0.230377 -1.92829 0
M  V30 33 O 3.8102 0.762952 -1.78911 0
M  V30 34 C 4.0932 -2.69323 -2.39034 0
M  V30 35 C 3.9462 -4.12002 -1.80485 0
M  V30 36 C 5.2652 -2.78408 -3.40847 0
M  V30 37 H 2.3842 -0.567992 -0.469632 0
M  V30 38 H 5.0262 -1.80302 -0.599277 0
M  V30 39 H 3.1762 -2.48763 -2.98412 0
M  V30 40 H 4.8482 -4.43981 -1.25215 0
M  V30 41 H 3.0912 -4.19344 -1.11055 0
M  V30 42 H 3.7622 -4.87077 -2.59731 0
M  V30 43 H 6.2382 -2.97012 -2.91416 0
M  V30 44 H 5.1142 -3.59416 -4.14863 0
M  V30 45 H 5.3752 -1.86269 -4.00944 0
M  V30 46 N 4.4343 0.785586 -1.36625 0
M  V30 47 C 5.6623 1.57448 -1.3423 0
M  V30 48 C 6.0773 1.88649 0.0755653 0
M  V30 49 O 5.4343 1.50414 1.03354 0
M  V30 50 C 5.4853 2.89316 -2.16745 0
M  V30 51 O 5.2063 2.59459 -3.53005 0
M  V30 52 C 6.7073 3.83606 -2.22174 0
M  V30 53 H 3.9273 0.488226 -0.4603 0
M  V30 54 H 6.4713 0.974733 -1.79775 0
M  V30 55 H 4.6263 3.4575 -1.74745 0
M  V30 56 H 5.0403 3.43804 -3.96105 0
M  V30 57 H 6.5143 4.73181 -2.8426 0
M  V30 58 H 6.9913 4.21734 -1.22627 0
M  V30 59 H 7.5973 3.33104 -2.64427 0
M  V30 60 N 5.9124 1.20967 1.01018 0
M  V30 61 C 6.8224 0.980157 2.13143 0
M  V30 62 C 7.8384 -0.0660665 1.73875 0
M  V30 63 O 9.0144 0.122821 2.01025 0
M  V30 64 C 6.0794 0.54216 3.42435 0
M  V30 65 C 5.1404 1.65999 3.95908 0
M  V30 66 C 4.3734 1.2428 5.19028 0
M  V30 67 O 4.5964 0.114196 5.70286 0
M  V30 68 O 3.5304 2.05271 5.65816 0
M  V30 69 H 7.3564 1.91913 2.35379 0
M  V30 70 H 4.9414 0.994099 1.11526 0
M  V30 71 H 6.8234 0.30744 4.20277 0
M  V30 72 H 5.4984 -0.36815 3.216 0
M  V30 73 H 4.4054 1.94906 3.19316 0
M  V30 74 H 5.7384 2.54753 4.21143 0
M  V30 75 N 7.3905 -1.2043 1.01659 0
M  V30 76 C 8.8015 -1.71517 0.737482 0
M  V30 77 C 9.1525 -1.81547 -0.743973 0
M  V30 78 O 8.2775 -1.47803 -1.58061 0
M  V30 79 C 8.8725 -3.11515 1.33206 0
M  V30 80 C 7.4315 -3.59912 1.10183 0
M  V30 81 C 6.5785 -2.37116 1.43776 0
M  V30 82 H 9.5295 -1.05444 1.18606 0
M  V30 83 H 9.5505 -3.73575 0.722636 0
M  V30 84 H 9.0625 -3.04182 2.41028 0
M  V30 85 H 7.1635 -3.72577 0.0412756 0
M  V30 86 H 7.2765 -4.44731 1.78188 0
M  V30 87 H 5.6405 -2.39857 0.856778 0
M  V30 88 H 6.4235 -2.32424 2.52654 0
M  V30 89 N 8.8686 -0.792821 -1.36206 0
M  V30 90 C 10.2796 -0.429513 -1.81692 0
M  V30 91 C 10.6306 1.04695 -1.65932 0
M  V30 92 O 9.7556 1.81256 -1.18218 0
M  V30 93 C 10.3506 -0.772831 -3.29868 0
M  V30 94 C 8.9096 -0.462307 -3.7355 0
M  V30 95 C 8.0566 -1.00569 -2.5842 0
M  V30 96 H 11.0076 -0.985672 -1.24379 0
M  V30 97 H 11.0286 -0.0651928 -3.80444 0
M  V30 98 H 10.5406 -1.84747 -3.41307 0
M  V30 99 H 8.6416 0.604158 -3.67669 0
M  V30 100 H 8.7546 -0.985299 -4.68859 0
M  V30 101 H 7.1186 -0.428734 -2.51066 0
M  V30 102 H 7.9016 -2.08616 -2.72643 0
M  V30 103 N 10.3467 1.47872 -0.545128 0
M  V30 104 C 11.7577 1.86384 -0.108581 0
M  V30 105 C 12.1087 1.45309 1.31832 0
M  V30 106 O 11.2337 0.850641 1.9898 0
M  V30 107 C 11.8287 3.38265 -0.190274 0
M  V30 108 C 10.3877 3.75914 0.191164 0
M  V30 109 C 9.5347 2.71926 -0.543273 0
M  V30 110 H 12.4857 1.39561 -0.755537 0
M  V30 111 H 12.5067 3.75831 0.594217 0
M  V30 112 H 12.0187 3.6813 -1.2289 0
M  V30 113 H 10.1197 3.51665 1.23136 0
M  V30 114 H 10.2327 4.78836 -0.158987 0
M  V30 115 H 8.5967 2.54697 0.0122495 0
M  V30 116 H 9.3797 3.04634 -1.58282 0
M  V30 117 N 11.8248 0.280983 1.55075 0
M  V30 118 C 13.2408 -0.0729964 1.59433 0
M  V30 119 C 13.4408 -1.5411 1.29817 0
M  V30 120 O 12.4968 -2.29086 1.06187 0
M  V30 121 C 13.8098 0.306921 2.9913 0
M  V30 122 C 15.3578 0.254023 3.11968 0
M  V30 123 C 15.8328 0.608467 4.5394 0
M  V30 124 N 17.3238 0.560241 4.59799 0
M  V30 125 C 18.0588 0.80722 5.6769 0
M  V30 126 N 17.5548 1.11912 6.83701 0
M  V30 127 N 19.3478 0.735623 5.57266 0
M  V30 128 H 11.4988 1.238 1.7259 0
M  V30 129 H 13.7618 0.500547 0.805082 0
M  V30 130 H 13.4678 1.32816 3.25657 0
M  V30 131 H 13.3418 -0.349363 3.75579 0
M  V30 132 H 15.7288 -0.75794 2.852 0
M  V30 133 H 15.8098 0.944649 2.37718 0
M  V30 134 H 15.4538 1.61814 4.81434 0
M  V30 135 H 15.3838 -0.104013 5.26497 0
M  V30 136 H 17.8748 0.329288 3.76463 0
M  V30 137 H 18.1878 1.29409 7.61888 0
M  V30 138 H 16.5328 1.15695 6.85303 0
M  V30 139 H 19.7238 0.491752 4.6551 0
M  V30 140 H 19.8968 0.931482 6.4127 0
M  V30 141 N 13.3029 -1.57598 0.00835791 0
M  V30 142 C 14.7189 -1.55764 -0.347822 0
M  V30 143 C 14.9189 -1.01186 -1.74252 0
M  V30 144 O 13.9749 -0.649371 -2.44007 0
M  V30 145 C 15.2879 -2.99927 -0.215407 0
M  V30 146 C 16.8359 -3.11656 -0.289725 0
M  V30 147 C 17.3109 -4.57621 -0.18634 0
M  V30 148 N 18.8019 -4.62557 -0.243978 0
M  V30 149 C 19.5369 -5.73094 -0.18745 0
M  V30 150 N 19.0329 -6.92753 -0.0810331 0
M  V30 151 N 20.8259 -5.61588 -0.239925 0
M  V30 152 H 12.9769 -1.91411 0.92062 0
M  V30 153 H 15.2399 -0.879562 0.353659 0
M  V30 154 H 14.9459 -3.43729 0.744512 0
M  V30 155 H 14.8199 -3.63865 -0.994097 0
M  V30 156 H 17.2069 -2.67779 -1.24009 0
M  V30 157 H 17.2879 -2.5048 0.51898 0
M  V30 158 H 16.9319 -5.02174 0.760519 0
M  V30 159 H 16.8619 -5.16752 -1.01364 0
M  V30 160 H 19.3529 -3.76481 -0.327217 0
M  V30 161 H 19.6659 -7.72787 -0.0440241 0
M  V30 162 H 18.0109 -6.94984 -0.0465419 0
M  V30 163 H 21.2019 -4.66996 -0.321317 0
M  V30 164 H 21.3749 -6.47714 -0.192407 0
M  V30 165 N 14.781 0.264519 -1.55364 0
M  V30 166 C 16.197 0.61215 -1.47394 0
M  V30 167 C 16.397 1.89134 -0.695018 0
M  V30 168 O 15.453 2.51563 -0.217275 0
M  V30 169 C 16.766 0.731235 -2.91674 0
M  V30 170 C 18.314 0.82473 -3.01939 0
M  V30 171 C 18.789 0.975522 -4.4749 0
M  V30 172 N 20.28 1.04083 -4.51354 0
M  V30 173 C 21.015 1.17646 -5.61201 0
M  V30 174 N 20.511 1.27874 -6.80896 0
M  V30 175 N 22.304 1.20823 -5.48961 0
M  V30 176 H 14.455 -0.575456 -2.04456 0
M  V30 177 H 16.718 -0.196099 -0.927496 0
M  V30 178 H 16.424 -0.138392 -3.51428 0
M  V30 179 H 16.298 1.60883 -3.41169 0
M  V30 180 H 18.685 1.68482 -2.42276 0
M  V30 181 H 18.766 -0.0776479 -2.55682 0
M  V30 182 H 18.41 0.120058 -5.07758 0
M  V30 183 H 18.34 1.89268 -4.91412 0
M  V30 184 H 20.831 0.973846 -3.65136 0
M  V30 185 H 21.144 1.38081 -7.60364 0
M  V30 186 H 19.489 1.24863 -6.83692 0
M  V30 187 H 22.68 1.12469 -4.54388 0
M  V30 188 H 22.853 1.31049 -6.3461 0
M  V30 189 N 16.2591 1.48442 0.529413 0
M  V30 190 C 17.5071 1.56179 1.28267 0
M  V30 191 C 17.8281 0.237721 1.93546 0
M  V30 192 O 17.0981 -0.740779 1.81354 0
M  V30 193 H 15.6781 0.575367 0.476405 0
M  V30 194 H 18.3401 1.84909 0.61602 0
M  V30 195 H 17.4361 2.34312 2.06165 0
M  V30 196 N 17.7372 -0.778329 1.37039 0
M  V30 197 C 19.1532 -1.07796 1.17695 0
M  V30 198 C 19.3532 -2.01498 0.00860115 0
M  V30 199 O 18.4092 -2.43901 -0.653352 0
M  V30 200 C 19.7222 -1.68178 2.49272 0
M  V30 201 C 21.2702 -1.80467 2.55735 0
M  V30 202 C 21.7452 -2.44263 3.87427 0
M  V30 203 N 23.2362 -2.51721 3.88833 0
M  V30 204 C 23.9712 -3.01919 4.87476 0
M  V30 205 N 23.4672 -3.5234 5.96513 0
M  V30 206 N 25.2602 -3.00733 4.74885 0
M  V30 207 H 17.4112 -0.156032 2.11826 0
M  V30 208 H 19.6742 -0.131844 0.938787 0
M  V30 209 H 19.3802 -1.06796 3.35093 0
M  V30 210 H 19.2542 -2.67554 2.65885 0
M  V30 211 H 21.6412 -2.40984 1.70325 0
M  V30 212 H 21.7222 -0.798656 2.43013 0
M  V30 213 H 21.3662 -1.84388 4.73248 0
M  V30 214 H 21.2962 -3.45458 3.9745 0
M  V30 215 H 23.7872 -2.1603 3.10063 0
M  V30 216 H 24.1002 -3.89027 6.67741 0
M  V30 217 H 22.4452 -3.50462 6.00168 0
M  V30 218 H 25.6362 -2.60638 3.88826 0
M  V30 219 H 25.8092 -3.39545 5.51918 0
M  V30 220 N 19.2153 -1.21501 -1.00376 0
M  V30 221 C 20.1653 -0.942843 -2.07592 0
M  V30 222 C 21.1493 0.102384 -1.60574 0
M  V30 223 O 22.3413 -0.10671 -1.76678 0
M  V30 224 C 19.4703 -0.510729 -3.3948 0
M  V30 225 C 18.5563 -1.59009 -3.93163 0
M  V30 226 N 18.9473 -2.81544 -4.20198 0
M  V30 227 C 17.2453 -1.45925 -4.21452 0
M  V30 228 C 17.9463 -3.51261 -4.63671 0
M  V30 229 N 16.9223 -2.78703 -4.66718 0
M  V30 230 H 20.7243 -1.87378 -2.26421 0
M  V30 231 H 18.2383 -1.11093 -1.18458 0
M  V30 232 H 20.2353 -0.297101 -4.1584 0
M  V30 233 H 18.8953 0.413436 -3.22057 0
M  V30 234 H 19.9063 -3.18075 -4.08716 0
M  V30 235 H 16.5833 -0.600467 -4.13159 0
M  V30 236 H 17.9733 -4.56183 -4.93302 0
M  V30 237 N 20.6934 1.19889 -1.02296 0
M  V30 238 C 21.9184 1.9393 -0.735237 0
M  V30 239 C 22.3434 1.74639 0.698782 0
M  V30 240 O 21.7014 1.04481 1.48167 0
M  V30 241 C 21.7494 3.43916 -1.08417 0
M  V30 242 O 20.8534 4.11917 -0.199446 0
M  V30 243 H 20.1944 0.605645 -0.272196 0
M  V30 244 H 22.7244 1.52137 -1.36804 0
M  V30 245 H 22.7344 3.9456 -1.03856 0
M  V30 246 H 21.4094 3.5728 -2.12894 0
M  V30 247 H 19.9864 3.71666 -0.303136 0
M  V30 248 N 22.1715 0.800033 1.35784 0
M  V30 249 C 23.5875 0.482977 1.52117 0
M  V30 250 C 23.7875 -0.996948 1.75109 0
M  V30 251 O 22.8435 -1.78216 1.78872 0
M  V30 252 C 24.1565 1.32264 2.70049 0
M  V30 253 C 25.7045 1.31742 2.83924 0
M  V30 254 C 26.1795 2.14106 4.04874 0
M  V30 255 N 27.6705 2.11607 4.12039 0
M  V30 256 C 28.4055 2.72099 5.04727 0
M  V30 257 N 27.9015 3.41492 6.02789 0
M  V30 258 N 29.6945 2.61776 4.97423 0
M  V30 259 H 21.8455 1.75856 1.19115 0
M  V30 260 H 24.1085 0.748122 0.582252 0
M  V30 261 H 23.8145 2.37261 2.59616 0
M  V30 262 H 23.6885 0.971303 3.6448 0
M  V30 263 H 26.0755 0.275333 2.93813 0
M  V30 264 H 26.1565 1.70859 1.9037 0
M  V30 265 H 25.8005 3.18351 3.95746 0
M  V30 266 H 25.7305 1.72353 4.97596 0
M  V30 267 H 28.2215 1.61112 3.41835 0
M  V30 268 H 28.5345 3.84953 6.70098 0
M  V30 269 H 26.8795 3.45596 6.02983 0
M  V30 270 H 30.0705 2.07157 4.19766 0
M  V30 271 H 30.2435 3.0921 5.69468 0
M  V30 272 N 23.6496 -1.47581 0.552962 0
M  V30 273 C 24.6126 -2.28439 -0.186605 0
M  V30 274 C 25.6126 -1.36706 -0.84665 0
M  V30 275 O 26.8026 -1.59378 -0.703164 0
M  V30 276 C 23.9346 -3.16264 -1.2724 0
M  V30 277 H 25.1276 -2.95294 0.523609 0
M  V30 278 H 22.6806 -1.532 0.309745 0
M  V30 279 H 23.4156 -2.54091 -2.01514 0
M  V30 280 H 23.2006 -3.83769 -0.803968 0
M  V30 281 H 24.6906 -3.77198 -1.79196 0
M  V30 282 N 25.1277 -0.289203 -1.54924 0
M  V30 283 C 26.5437 0.0645403 -1.59469 0
M  V30 284 C 26.7437 1.53419 -1.30632 0
M  V30 285 O 25.7997 2.2852 -1.074 0
M  V30 286 C 27.1127 -0.32278 -2.98963 0
M  V30 287 C 28.6607 -0.270564 -3.11828 0
M  V30 288 C 29.1357 -0.632532 -4.53611 0
M  V30 289 N 30.6267 -0.584617 -4.59496 0
M  V30 290 C 31.3617 -0.837314 -5.67254 0
M  V30 291 N 30.8577 -1.15536 -6.83098 0
M  V30 292 N 32.6507 -0.765166 -5.56868 0
M  V30 293 H 24.8017 -1.24714 -1.71931 0
M  V30 294 H 27.0647 -0.504809 -0.802416 0
M  V30 295 H 26.7707 -1.34541 -3.24948 0
M  V30 296 H 26.6447 0.32944 -3.75759 0
M  V30 297 H 29.0317 0.742805 -2.85598 0
M  V30 298 H 29.1127 -0.957242 -2.37214 0
M  V30 299 H 28.7567 -1.64365 -4.80569 0
M  V30 300 H 28.6867 0.07609 -5.26545 0
M  V30 301 H 31.1777 -0.349248 -3.76283 0
M  V30 302 H 31.4907 -1.33447 -7.61191 0
M  V30 303 H 29.8357 -1.19328 -6.84679 0
M  V30 304 H 33.0267 -0.516432 -4.65243 0
M  V30 305 H 33.1997 -0.965477 -6.40767 0
M  V30 306 N 26.6058 1.57591 -0.0167156 0
M  V30 307 C 28.0218 1.55946 0.339557 0
M  V30 308 C 28.2218 1.02109 1.73713 0
M  V30 309 O 27.2778 0.662303 2.43659 0
M  V30 310 C 28.5908 3.00037 0.199499 0
M  V30 311 C 30.1388 3.11805 0.273193 0
M  V30 312 C 30.6138 4.57713 0.162068 0
M  V30 313 N 32.1048 4.6268 0.219444 0
M  V30 314 C 32.8398 5.73185 0.157054 0
M  V30 315 N 32.3358 6.92786 0.0442936 0
M  V30 316 N 34.1288 5.61707 0.21014 0
M  V30 317 H 26.2798 1.90921 -0.930758 0
M  V30 318 H 28.5428 0.877674 -0.358319 0
M  V30 319 H 28.2488 3.4333 -0.76273 0
M  V30 320 H 28.1228 3.64387 0.974786 0
M  V30 321 H 30.5098 2.68433 1.22587 0
M  V30 322 H 30.5908 2.50201 -0.532256 0
M  V30 323 H 30.2348 5.01763 -0.78714 0
M  V30 324 H 30.1648 5.17283 0.986222 0
M  V30 325 H 32.6558 3.76649 0.307246 0
M  V30 326 H 32.9688 7.728 0.00304069 0
M  V30 327 H 31.3138 6.94999 0.00968457 0
M  V30 328 H 34.5048 4.6716 0.296546 0
M  V30 329 H 34.6778 6.47807 0.158054 0
M  V30 330 N 28.0839 -0.256276 1.55502 0
M  V30 331 C 29.3309 -0.985619 1.76895 0
M  V30 332 C 29.6589 -1.85671 0.579355 0
M  V30 333 O 28.9139 -1.90744 -0.437651 0
M  V30 334 C 29.2129 -1.88432 3.03691 0
M  V30 335 C 28.8789 -1.16936 4.35473 0
M  V30 336 C 27.5409 -0.97173 4.71286 0
M  V30 337 C 29.8929 -0.661889 5.1698 0
M  V30 338 C 27.2209 -0.254179 5.86149 0
M  V30 339 C 29.5729 0.042149 6.32586 0
M  V30 340 C 28.2369 0.25134 6.67027 0
M  V30 341 H 27.5069 -0.360663 0.647304 0
M  V30 342 H 30.1539 -0.256483 1.89775 0
M  V30 343 H 28.4589 -2.68021 2.85783 0
M  V30 344 H 30.1559 -2.45015 3.1744 0
M  V30 345 H 26.7459 -1.33332 4.07333 0
M  V30 346 H 30.9299 -0.802145 4.89775 0
M  V30 347 H 26.1859 -0.0815408 6.11346 0
M  V30 348 H 30.3599 0.443049 6.94989 0
M  V30 349 H 27.9869 0.809314 7.5588 0
M  V30 350 N 29.562 -1.4872 -0.521534 0
M  V30 351 C 30.492 -1.66771 -1.63431 0
M  V30 352 C 31.473 -0.516499 -1.62069 0
M  V30 353 O 32.658 -0.750013 -1.79132 0
M  V30 354 C 29.788 -1.71515 -3.01993 0
M  V30 355 C 28.742 -2.86222 -3.18216 0
M  V30 356 C 28.068 -2.76061 -4.57924 0
M  V30 357 C 29.368 -4.27419 -3.00184 0
M  V30 358 H 31.062 -2.59932 -1.48579 0
M  V30 359 H 28.608 -1.25089 -0.713358 0
M  V30 360 H 30.561 -1.82731 -3.7972 0
M  V30 361 H 29.285 -0.749393 -3.17886 0
M  V30 362 H 27.944 -2.74575 -2.42908 0
M  V30 363 H 27.592 -1.77437 -4.70665 0
M  V30 364 H 27.292 -3.53037 -4.69722 0
M  V30 365 H 28.816 -2.89256 -5.37739 0
M  V30 366 H 30.23 -4.39855 -3.67697 0
M  V30 367 H 28.627 -5.05458 -3.2347 0
M  V30 368 H 29.697 -4.43293 -1.96518 0
M  V30 369 N 31.0401 0.771051 -1.3745 0
M  V30 370 C 32.2681 1.56015 -1.35893 0
M  V30 371 C 32.6831 1.88718 0.0555523 0
M  V30 372 O 32.0401 1.51502 1.01752 0
M  V30 373 C 32.0911 2.87001 -2.19801 0
M  V30 374 O 31.8121 2.557 -3.55738 0
M  V30 375 C 33.3131 3.81228 -2.26231 0
M  V30 376 H 30.5331 0.483317 -0.465453 0
M  V30 377 H 33.0771 0.955611 -1.80799 0
M  V30 378 H 31.2321 3.43877 -1.78402 0
M  V30 379 H 31.6461 3.39584 -3.99729 0
M  V30 380 H 33.1201 4.70139 -2.89263 0
M  V30 381 H 33.5971 4.20409 -1.27093 0
M  V30 382 H 34.2031 3.30281 -2.67945 0
M  V30 383 N 32.5182 1.22032 0.997298 0
M  V30 384 C 33.7432 1.06921 1.77715 0
M  V30 385 C 34.1682 -0.376226 1.84299 0
M  V30 386 O 33.5262 -1.27165 1.29223 0
M  V30 387 C 33.5742 1.67996 3.19076 0
M  V30 388 O 32.6782 0.930653 4.01762 0
M  V30 389 H 32.0192 0.375814 0.547412 0
M  V30 390 H 34.5492 1.61737 1.25309 0
M  V30 391 H 34.5592 1.72538 3.69723 0
M  V30 392 H 33.2342 2.73182 3.13599 0
M  V30 393 H 31.8112 0.960917 3.60307 0
M  V30 394 N 33.9963 -1.19345 1.0293 0
M  V30 395 C 34.9263 -2.2481 0.631105 0
M  V30 396 C 35.9073 -1.66245 -0.360104 0
M  V30 397 O 37.0923 -1.92677 -0.242726 0
M  V30 398 C 34.2223 -3.47295 -0.0184607 0
M  V30 399 C 33.1763 -4.18536 0.895073 0
M  V30 400 C 32.5023 -5.34586 0.110592 0
M  V30 401 C 33.8023 -4.73287 2.209 0
M  V30 402 H 35.4963 -2.58372 1.51275 0
M  V30 403 H 33.0423 -1.24194 0.728818 0
M  V30 404 H 34.9953 -4.20268 -0.308675 0
M  V30 405 H 33.7193 -3.12933 -0.934907 0
M  V30 406 H 32.3783 -3.47446 1.16949 0
M  V30 407 H 32.0263 -4.96469 -0.807902 0
M  V30 408 H 31.7263 -5.83183 0.719087 0
M  V30 409 H 33.2503 -6.10355 -0.172871 0
M  V30 410 H 34.6643 -5.38013 1.98028 0
M  V30 411 H 33.0613 -5.32373 2.76946 0
M  V30 412 H 34.1313 -3.91331 2.86336 0
M  V30 413 N 35.4744 -0.807222 -1.35358 0
M  V30 414 C 36.7224 -0.387122 -1.98358 0
M  V30 415 C 37.0434 1.04942 -1.64354 0
M  V30 416 O 36.3134 1.72615 -0.926339 0
M  V30 417 H 34.8934 -0.140154 -0.733734 0
M  V30 418 H 37.5554 -1.0332 -1.6526 0
M  V30 419 H 36.6514 -0.493352 -3.08176 0
M  V30 420 N 36.9525 1.47285 -0.560781 0
M  V30 421 C 37.9155 2.28535 0.174488 0
M  V30 422 C 38.9155 1.37153 0.839388 0
M  V30 423 O 40.1055 1.59748 0.694702 0
M  V30 424 C 37.2375 3.16934 1.25561 0
M  V30 425 H 38.4305 2.95012 -0.539262 0
M  V30 426 H 35.9835 1.53034 -0.317865 0
M  V30 427 H 36.7185 2.55157 2.00164 0
M  V30 428 H 36.5035 3.8419 0.783604 0
M  V30 429 H 37.9935 3.78143 1.77193 0
M  V30 430 N 38.4306 0.297415 1.54768 0
M  V30 431 C 39.6586 -0.315623 2.04478 0
M  V30 432 C 40.0736 -1.47792 1.17486 0
M  V30 433 O 39.4306 -1.81404 0.19971 0
M  V30 434 C 39.4816 -0.7753 3.53088 0
M  V30 435 O 39.2026 0.340732 4.36773 0
M  V30 436 C 40.7036 -1.45386 4.18781 0
M  V30 437 H 37.9236 -0.0690887 0.667434 0
M  V30 438 H 40.4676 0.436003 1.99798 0
M  V30 439 H 38.6226 -1.47696 3.58141 0
M  V30 440 H 39.0366 -0.0165035 5.24497 0
M  V30 441 H 40.5106 -1.72669 5.24299 0
M  V30 442 H 40.9876 -2.39275 3.68299 0
M  V30 443 H 41.5936 -0.795475 4.17795 0
M  V30 444 N 39.9087 -1.5758 0.0250728 0
M  V30 445 C 40.8717 -2.08896 -0.943139 0
M  V30 446 C 41.8717 -1.00321 -1.25668 0
M  V30 447 O 43.0617 -1.26495 -1.19769 0
M  V30 448 C 40.1937 -2.55143 -2.26086 0
M  V30 449 H 41.3867 -2.95723 -0.498775 0
M  V30 450 H 38.9397 -1.54703 -0.222888 0
M  V30 451 H 39.6747 -1.71633 -2.75159 0
M  V30 452 H 39.4597 -3.34461 -2.04641 0
M  V30 453 H 40.9497 -2.95083 -2.95492 0
M  V30 454 N 41.3868 0.248026 -1.55636 0
M  V30 455 C 42.3498 1.29044 -1.89421 0
M  V30 456 C 43.3498 1.41134 -0.770581 0
M  V30 457 O 44.5398 1.39854 -1.03858 0
M  V30 458 C 41.6718 2.66831 -2.12165 0
M  V30 459 H 42.8648 1.00305 -2.82629 0
M  V30 460 H 40.4178 0.487265 -1.48511 0
M  V30 461 H 41.1528 3.00711 -1.21422 0
M  V30 462 H 40.9378 2.59438 -2.93997 0
M  V30 463 H 42.4278 3.42103 -2.3949 0
M  V30 464 N 42.8649 1.48995 0.513639 0
M  V30 465 C 43.7949 1.67636 1.62544 0
M  V30 466 C 44.7759 0.525087 1.61793 0
M  V30 467 O 45.9609 0.759502 1.78732 0
M  V30 468 C 43.0909 1.73114 3.01079 0
M  V30 469 C 42.0449 2.87905 3.16693 0
M  V30 470 C 41.3709 2.78486 4.56453 0
M  V30 471 C 42.6709 4.29005 2.97913 0
M  V30 472 H 44.3649 2.60716 1.47198 0
M  V30 473 H 41.9109 1.25465 0.706714 0
M  V30 474 H 43.8639 1.84742 3.78746 0
M  V30 475 H 42.5879 0.766241 3.17484 0
M  V30 476 H 41.2469 2.75859 2.41448 0
M  V30 477 H 40.8949 1.7993 4.69717 0
M  V30 478 H 40.5949 3.55523 4.67843 0
M  V30 479 H 42.1189 2.92104 5.36197 0
M  V30 480 H 43.5329 4.41798 3.65359 0
M  V30 481 H 41.9299 5.07166 3.20785 0
M  V30 482 H 42.9999 4.44329 1.94165 0
M  V30 483 N 44.343 -0.763751 1.37857 0
M  V30 484 C 45.571 -1.55293 1.36718 0
M  V30 485 C 45.986 -1.88745 -0.0455434 0
M  V30 486 O 45.343 -1.52039 -1.00947 0
M  V30 487 C 45.394 -2.85831 2.2132 0
M  V30 488 O 45.115 -2.5381 3.57089 0
M  V30 489 C 46.616 -3.80023 2.28249 0
M  V30 490 H 43.836 -0.480841 0.468009 0
M  V30 491 H 46.38 -0.946009 1.81303 0
M  V30 492 H 44.535 -3.42926 1.80223 0
M  V30 493 H 44.949 -3.37459 4.01524 0
M  V30 494 H 46.423 -4.68599 2.91752 0
M  V30 495 H 46.9 -4.1973 1.2932 0
M  V30 496 H 47.506 -3.28855 2.69693 0
M  V30 497 N 45.8211 -1.22559 -0.990812 0
M  V30 498 C 46.7841 -0.998863 -2.0629 0
M  V30 499 C 47.7841 0.0354834 -1.60761 0
M  V30 500 O 48.9741 -0.203231 -1.7301 0
M  V30 501 C 46.1061 -0.509203 -3.37076 0
M  V30 502 H 47.2991 -1.95014 -2.27837 0
M  V30 503 H 44.8521 -1.04456 -1.16269 0
M  V30 504 H 45.5871 0.446335 -3.21214 0
M  V30 505 H 45.3721 -1.25547 -3.71457 0
M  V30 506 H 46.8621 -0.370888 -4.1595 0
M  V30 507 N 47.2992 1.18797 -1.03562 0
M  V30 508 C 48.5472 1.88278 -0.734569 0
M  V30 509 C 48.8682 1.8043 0.739586 0
M  V30 510 O 48.1382 1.21925 1.53333 0
M  V30 511 H 46.7182 0.696991 -0.268725 0
M  V30 512 H 49.3802 1.44192 -1.31129 0
M  V30 513 H 48.4762 2.94443 -1.03489 0
M  V30 514 N 48.7773 0.814389 1.34928 0
M  V30 515 C 49.7103 0.175641 2.27523 0
M  V30 516 C 50.6883 -0.662953 1.48471 0
M  V30 517 O 51.8723 -0.628545 1.77712 0
M  V30 518 C 48.9993 -0.755516 3.30166 0
M  V30 519 C 48.0453 0.00445305 4.265 0
M  V30 520 S 48.8783 1.34582 5.18313 0
M  V30 521 C 50.0343 0.419315 6.24494 0
M  V30 522 H 50.2673 0.960691 2.8135 0
M  V30 523 H 47.8003 0.609846 1.41846 0
M  V30 524 H 49.7583 -1.28723 3.89796 0
M  V30 525 H 48.4193 -1.51402 2.75202 0
M  V30 526 H 47.6123 -0.703077 4.99072 0
M  V30 527 H 47.2143 0.466447 3.7108 0
M  V30 528 H 49.5063 -0.392432 6.76362 0
M  V30 529 H 50.4493 1.11446 6.99275 0
M  V30 530 H 50.8573 0.0115389 5.64499 0
M  V30 531 N 50.2554 -1.46986 0.568584 0
M  V30 532 C 51.1854 -2.32946 -0.160753 0
M  V30 533 C 52.1664 -1.44487 -0.897631 0
M  V30 534 O 53.3514 -1.73327 -0.875867 0
M  V30 535 C 50.4814 -3.26494 -1.18403 0
M  V30 536 C 49.4354 -4.24282 -0.562895 0
M  V30 537 C 48.7614 -5.07236 -1.69163 0
M  V30 538 C 50.0614 -5.19989 0.490761 0
M  V30 539 H 51.7554 -2.94175 0.556916 0
M  V30 540 H 49.3014 -1.4146 0.26927 0
M  V30 541 H 51.2544 -3.85477 -1.70251 0
M  V30 542 H 49.9784 -2.63343 -1.93179 0
M  V30 543 H 48.6374 -3.66541 -0.0656164 0
M  V30 544 H 48.2854 -4.4048 -2.42871 0
M  V30 545 H 47.9854 -5.7345 -1.28174 0
M  V30 546 H 49.5094 -5.6908 -2.21314 0
M  V30 547 H 50.9234 -5.73271 0.0579047 0
M  V30 548 H 49.3204 -5.94469 0.820165 0
M  V30 549 H 50.3904 -4.64777 1.3824 0
M  V30 550 N 51.7335 -0.305618 -1.54608 0
M  V30 551 C 52.9815 0.301701 -1.99835 0
M  V30 552 C 53.3025 1.54054 -1.19551 0
M  V30 553 O 52.5725 1.93702 -0.292658 0
M  V30 554 H 51.1525 0.114468 -0.738178 0
M  V30 555 H 53.8145 -0.418016 -1.90364 0
M  V30 556 H 52.9105 0.570548 -3.06841 0
M  V30 557 N 53.2116 1.57565 -0.0334293 0
M  V30 558 C 54.4576 1.92262 0.645226 0
M  V30 559 C 54.7906 0.910543 1.71531 0
M  V30 560 O 54.0656 -0.066099 1.94388 0
M  V30 561 C 54.3486 3.37422 1.2577 0
M  V30 562 C 54.2016 4.49369 0.196891 0
M  V30 563 C 55.5206 3.82628 2.17449 0
M  V30 564 H 52.6396 0.699171 0.233085 0
M  V30 565 H 55.2816 1.89779 -0.0915694 0
M  V30 566 H 53.4316 3.39669 1.88566 0
M  V30 567 H 55.1036 4.59254 -0.433962 0
M  V30 568 H 53.3466 4.31168 -0.477137 0
M  V30 569 H 54.0176 5.47978 0.665124 0
M  V30 570 H 56.4936 3.82145 1.64634 0
M  V30 571 H 55.3696 4.84883 2.57254 0
M  V30 572 H 55.6306 3.18376 3.0674 0
M  V30 573 N 54.6897 -0.239769 1.55765 0
M  V30 574 C 56.1007 -0.808263 1.68297 0
M  V30 575 C 56.4517 -1.85736 0.632181 0
M  V30 576 O 55.5767 -2.15277 -0.220204 0
M  V30 577 C 56.1717 -1.47284 3.05111 0
M  V30 578 C 54.7307 -1.98895 3.19559 0
M  V30 579 C 53.8777 -0.842575 2.64189 0
M  V30 580 H 56.8287 -0.0154422 1.58692 0
M  V30 581 H 56.8497 -2.34111 2.99954 0
M  V30 582 H 56.3617 -0.709053 3.81568 0
M  V30 583 H 54.4627 -2.78132 2.47938 0
M  V30 584 H 54.5757 -2.18143 4.26556 0
M  V30 585 H 52.9397 -1.24501 2.22197 0
M  V30 586 H 53.7227 -0.0917552 3.43177 0
M  V30 587 N 56.1678 -1.49265 -0.50573 0
M  V30 588 C 57.0978 -1.68495 -1.61653 0
M  V30 589 C 58.0788 -0.53366 -1.61512 0
M  V30 590 O 59.2638 -0.76897 -1.78327 0
M  V30 591 C 56.3938 -1.74709 -3.00157 0
M  V30 592 C 55.3478 -2.89581 -3.15162 0
M  V30 593 C 54.6738 -2.80903 -4.5497 0
M  V30 594 C 55.9738 -4.30578 -2.95634 0
M  V30 595 H 57.6678 -2.61493 -1.45814 0
M  V30 596 H 55.2138 -1.25838 -0.70005 0
M  V30 597 H 57.1668 -1.86748 -3.77761 0
M  V30 598 H 55.8908 -0.783067 -3.17074 0
M  V30 599 H 54.5498 -2.77136 -2.39982 0
M  V30 600 H 54.1978 -1.82419 -4.68756 0
M  V30 601 H 53.8978 -3.57999 -4.65951 0
M  V30 602 H 55.4218 -2.94944 -5.34641 0
M  V30 603 H 56.8358 -4.4373 -3.63011 0
M  V30 604 H 55.2328 -5.0886 -3.18091 0
M  V30 605 H 56.3028 -4.45352 -1.91806 0
M  V30 606 N 57.6459 0.756429 -1.3826 0
M  V30 607 C 58.6089 1.85176 -1.35065 0
M  V30 608 C 59.6089 1.58818 -0.251703 0
M  V30 609 O 60.7989 1.66615 -0.508433 0
M  V30 610 C 57.9309 3.22596 -1.10201 0
M  V30 611 H 59.1239 1.89417 -2.3251 0
M  V30 612 H 56.6769 0.95783 -1.23512 0
M  V30 613 H 57.4119 3.24025 -0.133504 0
M  V30 614 H 57.1969 3.43122 -1.89762 0
M  V30 615 H 58.6869 4.02673 -1.10654 0
M  V30 616 N 59.124 1.23083 0.984299 0
M  V30 617 C 60.352 1.08714 1.76037 0
M  V30 618 C 60.767 -0.361691 1.85303 0
M  V30 619 O 60.124 -1.25034 1.32939 0
M  V30 620 C 60.175 1.70206 3.18923 0
M  V30 621 O 59.896 3.09423 3.10144 0
M  V30 622 C 61.397 1.61227 4.12941 0
M  V30 623 H 58.617 0.380664 0.552572 0
M  V30 624 H 61.161 1.62853 1.23689 0
M  V30 625 H 59.316 1.20109 3.6831 0
M  V30 626 H 59.73 3.39188 4.00065 0
M  V30 627 H 61.204 2.08962 5.10919 0
M  V30 628 H 61.681 0.570375 4.35481 0
M  V30 629 H 62.287 2.10671 3.69456 0
M  V30 630 N 60.6021 -1.18246 1.0419 0
M  V30 631 C 61.8501 -1.87886 0.744543 0
M  V30 632 C 62.1711 -1.8082 -0.730006 0
M  V30 633 O 61.4411 -1.22736 -1.52685 0
M  V30 634 H 60.0211 -0.695556 0.272417 0
M  V30 635 H 62.6831 -1.43494 1.31892 0
M  V30 636 H 61.7791 -2.9389 1.05049 0
M  V30 637 N 62.0802 -0.821533 -1.34494 0
M  V30 638 C 63.3082 -0.421884 -2.02553 0
M  V30 639 C 63.7232 0.971745 -1.61872 0
M  V30 640 O 63.0802 1.62864 -0.823496 0
M  V30 641 C 63.1312 -0.51285 -3.57844 0
M  V30 642 O 62.8522 -1.85155 -3.97051 0
M  V30 643 C 64.3532 -0.107921 -4.43169 0
M  V30 644 H 61.5732 -0.169482 -0.649243 0
M  V30 645 H 64.1172 -1.1093 -1.71798 0
M  V30 646 H 62.2722 0.126474 -3.87193 0
M  V30 647 H 62.6862 -1.82482 -4.91732 0
M  V30 648 H 64.1602 -0.222657 -5.51551 0
M  V30 649 H 64.6372 0.948401 -4.28838 0
M  V30 650 H 65.2432 -0.720989 -4.19144 0
M  V30 651 N 63.5583 1.46682 -0.576371 0
M  V30 652 C 64.5213 2.28707 0.150239 0
M  V30 653 C 65.5213 1.38035 0.824794 0
M  V30 654 O 66.7113 1.60476 0.677719 0
M  V30 655 C 63.8433 3.18248 1.22192 0
M  V30 656 H 65.0363 2.94423 -0.570521 0
M  V30 657 H 62.5893 1.52688 -0.334078 0
M  V30 658 H 63.3243 2.57265 1.97447 0
M  V30 659 H 63.1093 3.85 0.742812 0
M  V30 660 H 64.5993 3.80001 1.73172 0
M  V30 661 N 65.0364 0.313813 1.54444 0
M  V30 662 C 65.9864 -0.571898 2.20711 0
M  V30 663 C 66.9704 -1.08913 1.18435 0
M  V30 664 O 68.1624 -1.02777 1.44104 0
M  V30 665 C 65.2914 -1.7371 2.96108 0
M  V30 666 C 64.3774 -1.23522 4.05713 0
M  V30 667 N 64.7684 -0.452288 5.03774 0
M  V30 668 C 63.0664 -1.51482 4.19487 0
M  V30 669 C 63.7674 -0.183438 5.81411 0
M  V30 670 N 62.7434 -0.766845 5.38164 0
M  V30 671 H 66.5454 0.0336802 2.93881 0
M  V30 672 H 64.0594 0.119192 1.61962 0
M  V30 673 H 66.0564 -2.38329 3.4206 0
M  V30 674 H 64.7164 -2.34625 2.24458 0
M  V30 675 H 65.7274 -0.0960131 5.17811 0
M  V30 676 H 62.4044 -2.13053 3.59047 0
M  V30 677 H 63.7944 0.446216 6.70417 0
M  V30 678 N 66.5145 -1.57545 0.0417849 0
M  V30 679 C 67.4775 -2.09885 -0.92093 0
M  V30 680 C 68.4775 -1.01648 -1.24596 0
M  V30 681 O 69.6675 -1.27759 -1.1842 0
M  V30 682 C 66.7995 -2.57527 -2.23367 0
M  V30 683 H 67.9925 -2.96236 -0.467382 0
M  V30 684 H 65.5455 -1.5493 -0.206467 0
M  V30 685 H 66.2805 -1.74542 -2.73323 0
M  V30 686 H 66.0655 -3.36613 -2.01083 0
M  V30 687 H 67.5555 -2.98201 -2.92346 0
M  V30 688 N 67.9926 0.231505 -1.5589 0
M  V30 689 C 68.9026 1.308 -1.94752 0
M  V30 690 C 69.9186 1.51826 -0.849989 0
M  V30 691 O 71.0946 1.6515 -1.15271 0
M  V30 692 C 68.1596 2.63968 -2.24771 0
M  V30 693 C 67.2206 2.51331 -3.48039 0
M  V30 694 C 66.4536 3.78148 -3.76616 0
M  V30 695 O 66.6766 4.80722 -3.07022 0
M  V30 696 O 65.6106 3.75857 -4.70123 0
M  V30 697 H 69.4366 1.0083 -2.86474 0
M  V30 698 H 67.0216 0.433547 -1.42971 0
M  V30 699 H 68.9036 3.42633 -2.45318 0
M  V30 700 H 67.5786 2.9364 -1.36225 0
M  V30 701 H 66.4856 1.709 -3.32782 0
M  V30 702 H 67.8186 2.26601 -4.36936 0
M  V30 703 N 69.4707 1.49531 0.497807 0
M  V30 704 C 70.8817 1.52344 1.07927 0
M  V30 705 C 71.2327 0.311469 1.93712 0
M  V30 706 O 70.3577 -0.578405 2.08527 0
M  V30 707 C 70.9527 2.76062 1.96405 0
M  V30 708 C 69.5117 2.81643 2.49709 0
M  V30 709 C 68.6587 2.46299 1.27404 0
M  V30 710 H 71.6097 1.56182 0.281576 0
M  V30 711 H 71.6307 2.56405 2.81135 0
M  V30 712 H 71.1427 3.64254 1.33943 0
M  V30 713 H 69.2437 1.97739 3.15801 0
M  V30 714 H 69.3567 3.83891 2.86643 0
M  V30 715 H 67.7207 1.98148 1.60029 0
M  V30 716 H 68.5037 3.36769 0.66645 0
M  V30 717 N 70.9488 -0.749086 1.3866 0
M  V30 718 C 71.9118 -1.84457 1.36045 0
M  V30 719 C 72.9118 -1.58682 0.260122 0
M  V30 720 O 74.1018 -1.66343 0.517261 0
M  V30 721 C 71.2338 -3.22008 1.11911 0
M  V30 722 H 72.4268 -1.88182 2.33512 0
M  V30 723 H 69.9798 -0.951266 1.24019 0
M  V30 724 H 70.7148 -3.2395 0.150686 0
M  V30 725 H 70.4998 -3.42111 1.91579 0
M  V30 726 H 71.9898 -4.0208 1.12788 0
M  V30 727 N 72.4269 -1.23603 -0.977757 0
M  V30 728 C 73.6739 -1.06971 -1.71941 0
M  V30 729 C 74.0019 0.393009 -1.90488 0
M  V30 730 O 73.2569 1.30719 -1.4564 0
M  V30 731 C 73.5559 -1.7433 -3.11999 0
M  V30 732 C 73.2219 -3.24252 -3.13323 0
M  V30 733 C 71.8839 -3.65156 -3.13392 0
M  V30 734 C 74.2359 -4.20141 -3.08433 0
M  V30 735 C 71.5639 -5.00403 -3.0629 0
M  V30 736 C 73.9159 -5.55384 -3.02873 0
M  V30 737 C 72.5799 -5.95647 -3.01265 0
M  V30 738 H 71.8499 -0.391433 -0.629175 0
M  V30 739 H 74.4969 -1.53572 -1.14403 0
M  V30 740 H 72.8019 -1.20096 -3.7294 0
M  V30 741 H 74.4989 -1.58936 -3.68158 0
M  V30 742 H 71.0889 -2.91692 -3.14029 0
M  V30 743 H 75.2729 -3.89547 -3.07517 0
M  V30 744 H 70.5289 -5.3081 -3.03399 0
M  V30 745 H 74.7029 -6.29398 -2.98046 0
M  V30 746 H 72.3299 -7.0041 -2.95516 0
M  V30 747 N 73.905 1.17692 -1.04816 0
M  V30 748 C 74.853 2.23632 -0.63966 0
M  V30 749 C 75.847 1.6601 0.337219 0
M  V30 750 O 77.053 1.78844 0.203693 0
M  V30 751 H 73.428 0.727949 -0.188665 0
M  V30 752 H 75.399 2.55387 -1.54337 0
M  V30 753 C 74.148 3.4769 -0.0264051 0
M  V30 754 H 73.471 3.92331 -0.769164 0
M  V30 755 H 74.911 4.23418 0.222098 0
M  V30 756 C 73.37 3.13807 1.22584 0
M  V30 757 O 73.9 3.28236 2.31569 0
M  V30 758 N 72.106 2.68065 1.12202 0
M  V30 759 H 71.653 2.56525 0.235133 0
M  V30 760 H 71.611 2.45767 1.96076 0
M  V30 761 N 75.3831 0.828654 1.34056 0
M  V30 762 C 76.6131 0.431993 2.02033 0
M  V30 763 C 77.0211 -0.96844 1.62536 0
M  V30 764 O 76.3641 -1.6391 0.829408 0
M  V30 765 C 76.4261 0.461224 3.56529 0
M  V30 766 C 76.0901 1.81599 4.1937 0
M  V30 767 C 77.0871 2.7777 4.39477 0
M  V30 768 C 74.7721 2.10604 4.56017 0
M  V30 769 C 76.7661 4.01115 4.95364 0
M  V30 770 C 74.4531 3.34207 5.11614 0
M  V30 771 C 75.4511 4.2928 5.31232 0
M  V30 772 O 75.1391 5.50699 5.8565 0
M  V30 773 H 74.8711 0.170943 0.654029 0
M  V30 774 H 77.4251 1.11988 1.72185 0
M  V30 775 H 75.6551 -0.283388 3.8566 0
M  V30 776 H 77.3441 0.0838149 4.05813 0
M  V30 777 H 78.1101 2.56659 4.11523 0
M  V30 778 H 73.9891 1.37402 4.40047 0
M  V30 779 H 77.5331 4.75333 5.10592 0
M  V30 780 H 73.4301 3.55179 5.38997 0
M  V30 781 H 74.1981 5.52298 6.04077 0
M  V30 782 N 76.8612 -1.46375 0.584142 0
M  V30 783 C 77.8242 -2.28784 -0.138108 0
M  V30 784 C 78.8242 -1.38471 -0.817462 0
M  V30 785 O 80.0142 -1.60833 -0.669199 0
M  V30 786 C 77.1462 -3.18892 -1.20503 0
M  V30 787 H 78.3392 -2.94117 0.586127 0
M  V30 788 H 75.8922 -1.52509 0.342171 0
M  V30 789 H 76.6272 -2.58309 -1.96079 0
M  V30 790 H 76.4122 -3.85388 -0.722384 0
M  V30 791 H 77.9022 -3.80914 -1.71155 0
M  V30 792 N 78.3393 -0.321999 -1.54275 0
M  V30 793 C 79.2493 0.553631 -2.27974 0
M  V30 794 C 80.2653 1.13054 -1.32268 0
M  V30 795 O 81.4413 1.15084 -1.6528 0
M  V30 796 C 78.5063 1.69927 -3.02201 0
M  V30 797 C 77.5673 1.15433 -4.1349 0
M  V30 798 C 76.8003 2.24537 -4.84168 0
M  V30 799 O 77.0233 3.44852 -4.5435 0
M  V30 800 O 75.9573 1.90044 -5.7111 0
M  V30 801 H 79.7833 -0.0448345 -3.03667 0
M  V30 802 H 77.3683 -0.0877418 -1.49142 0
M  V30 803 H 79.2503 2.3663 -3.48689 0
M  V30 804 H 77.9253 2.28395 -2.29385 0
M  V30 805 H 76.8323 0.452436 -3.71354 0
M  V30 806 H 78.1653 0.614805 -4.88345 0
M  V30 807 N 79.8174 1.5752 -0.0501392 0
M  V30 808 C 80.7804 2.1037 0.909786 0
M  V30 809 C 81.7804 1.02308 1.24056 0
M  V30 810 O 82.9704 1.28385 1.17741 0
M  V30 811 C 80.1024 2.58708 2.21998 0
M  V30 812 H 81.2954 2.96479 0.451665 0
M  V30 813 H 78.8484 1.55038 0.198248 0
M  V30 814 H 79.5834 1.75989 2.72394 0
M  V30 815 H 79.3684 3.37675 1.99295 0
M  V30 816 H 80.8584 2.99747 2.9076 0
M  V30 817 N 81.2955 -0.223234 1.56011 0
M  V30 818 C 82.2255 -1.27988 1.95298 0
M  V30 819 C 83.2065 -1.48976 0.820979 0
M  V30 820 O 84.3915 -1.61188 1.08315 0
M  V30 821 C 81.5215 -2.63 2.26822 0
M  V30 822 C 80.4755 -2.56671 3.42497 0
M  V30 823 C 79.8015 -3.95697 3.59622 0
M  V30 824 C 81.1015 -2.11601 4.77517 0
M  V30 825 H 82.7955 -0.953525 2.8381 0
M  V30 826 H 80.3415 -0.457244 1.36548 0
M  V30 827 H 82.2945 -3.37077 2.52898 0
M  V30 828 H 81.0185 -2.9732 1.35161 0
M  V30 829 H 79.6775 -1.85051 3.16467 0
M  V30 830 H 79.3255 -4.27322 2.6534 0
M  V30 831 H 79.0255 -3.92345 4.37424 0
M  V30 832 H 80.5495 -4.71438 3.88044 0
M  V30 833 H 81.9635 -2.7542 5.02809 0
M  V30 834 H 80.3605 -2.19311 5.5859 0
M  V30 835 H 81.4305 -1.06824 4.72987 0
M  V30 836 N 82.7736 -1.49793 -0.48987 0
M  V30 837 C 83.7056 -1.63413 -1.60713 0
M  V30 838 C 84.7186 -0.516329 -1.54395 0
M  V30 839 O 85.9076 -0.788812 -1.60125 0
M  V30 840 C 83.0076 -1.58516 -2.99543 0
M  V30 841 C 82.1806 -2.86016 -3.30928 0
M  V30 842 C 81.2396 -2.74018 -4.49222 0
M  V30 843 O 80.2656 -3.47964 -4.50455 0
M  V30 844 N 81.4676 -1.86309 -5.4979 0
M  V30 845 H 84.2326 -2.59777 -1.49452 0
M  V30 846 H 81.7936 -1.47022 -0.677955 0
M  V30 847 H 83.7856 -1.48128 -3.76617 0
M  V30 848 H 82.3556 -0.69965 -3.0467 0
M  V30 849 H 81.5756 -3.10672 -2.42645 0
M  V30 850 H 82.8636 -3.70521 -3.487 0
M  V30 851 H 82.2616 -1.2551 -5.51601 0
M  V30 852 H 80.8186 -1.81837 -6.25922 0
M  V30 853 N 84.2517 0.741722 -1.39055 0
M  V30 854 C 85.1987 1.85566 -1.37237 0
M  V30 855 C 86.1687 1.64457 -0.233072 0
M  V30 856 O 87.3537 1.85957 -0.427147 0
M  V30 857 C 84.4937 3.23004 -1.215 0
M  V30 858 C 83.6067 3.55864 -2.44918 0
M  V30 859 C 82.7417 4.82669 -2.21821 0
M  V30 860 C 81.7807 5.08351 -3.40948 0
M  V30 861 N 80.9177 6.26356 -3.17211 0
M  V30 862 H 85.7577 1.86455 -2.32462 0
M  V30 863 H 83.2947 0.911176 -1.15482 0
M  V30 864 H 85.2527 4.02331 -1.10389 0
M  V30 865 H 83.8827 3.21411 -0.29908 0
M  V30 866 H 82.9347 2.7129 -2.66657 0
M  V30 867 H 84.2467 3.70765 -3.33668 0
M  V30 868 H 83.4007 5.69962 -2.07914 0
M  V30 869 H 82.1397 4.69929 -1.30454 0
M  V30 870 H 81.1447 4.19522 -3.55361 0
M  V30 871 H 82.3697 5.22981 -4.33207 0
M  V30 872 H 80.3157 6.14917 -2.28502 0
M  V30 873 H 80.2327 6.41813 -3.99515 0
M  V30 874 H 81.5007 7.16506 -3.06984 0
M  V30 875 N 85.7298 1.2412 0.971189 0
M  V30 876 C 86.9548 1.10667 1.75407 0
M  V30 877 C 87.3798 -0.337048 1.85056 0
M  V30 878 O 86.7378 -1.24396 1.31892 0
M  V30 879 C 86.7858 1.74726 3.15441 0
M  V30 880 O 85.8898 1.01566 3.99697 0
M  V30 881 H 85.2308 0.387341 0.539317 0
M  V30 882 H 87.7608 1.64358 1.2185 0
M  V30 883 H 87.7708 1.80341 3.6598 0
M  V30 884 H 86.4458 2.79773 3.07734 0
M  V30 885 H 85.0228 1.03713 3.58187 0
M  V30 886 N 87.2079 -1.17134 1.05439 0
M  V30 887 C 88.1409 -2.2012 0.601855 0
M  V30 888 C 89.1189 -1.58314 -0.370854 0
M  V30 889 O 90.3029 -1.8638 -0.281882 0
M  V30 890 C 87.4299 -3.38491 -0.118868 0
M  V30 891 C 86.4759 -4.18752 0.809242 0
M  V30 892 S 87.3089 -4.83602 2.29977 0
M  V30 893 C 88.4649 -6.0536 1.59029 0
M  V30 894 H 88.6979 -2.58165 1.47438 0
M  V30 895 H 86.2309 -1.27788 0.866573 0
M  V30 896 H 88.1889 -4.07084 -0.528495 0
M  V30 897 H 86.8499 -2.98829 -0.967465 0
M  V30 898 H 86.0429 -5.03373 0.251379 0
M  V30 899 H 85.6449 -3.5561 1.15835 0
M  V30 900 H 87.9369 -6.71615 0.891017 0
M  V30 901 H 88.8799 -6.65679 2.41407 0
M  V30 902 H 89.2879 -5.54138 1.07663 0
M  V30 903 N 88.686 -0.835752 -1.33615 0
M  V30 904 C 89.933 -0.429959 -1.97883 0
M  V30 905 C 90.261 1.01006 -1.66217 0
M  V30 906 O 89.516 1.72047 -0.93265 0
M  V30 907 C 89.815 -0.593925 -3.52431 0
M  V30 908 C 89.481 -2.00158 -4.04039 0
M  V30 909 C 88.143 -2.38662 -4.17844 0
M  V30 910 C 90.495 -2.92117 -4.31644 0
M  V30 911 C 87.823 -3.68435 -4.56588 0
M  V30 912 C 90.175 -4.21368 -4.71838 0
M  V30 913 C 88.839 -4.59833 -4.83849 0
M  V30 914 H 88.109 -0.157333 -0.724104 0
M  V30 915 H 90.756 -1.06217 -1.59343 0
M  V30 916 H 89.061 0.121619 -3.91611 0
M  V30 917 H 90.758 -0.260282 -4.00154 0
M  V30 918 H 87.348 -1.69252 -3.93766 0
M  V30 919 H 91.532 -2.63608 -4.20505 0
M  V30 920 H 86.788 -3.98046 -4.64079 0
M  V30 921 H 90.962 -4.92703 -4.92155 0
M  V30 922 H 88.589 -5.60438 -5.13627 0
M  V30 923 N 90.1641 1.46063 -0.591896 0
M  V30 924 C 91.4111 2.02338 -0.0809991 0
M  V30 925 C 91.7391 1.46228 1.28249 0
M  V30 926 O 90.9941 0.620818 1.85592 0
M  V30 927 C 91.2931 3.57391 0.0249813 0
M  V30 928 C 90.9591 4.32583 -1.27211 0
M  V30 929 C 89.6211 4.52844 -1.62745 0
M  V30 930 C 91.9731 4.75687 -2.13005 0
M  V30 931 C 89.3011 5.13462 -2.83855 0
M  V30 932 C 91.6531 5.37644 -3.3335 0
M  V30 933 C 90.3171 5.5613 -3.69155 0
M  V30 934 H 89.5871 0.740407 -0.0296397 0
M  V30 935 H 92.2341 1.75321 -0.770374 0
M  V30 936 H 90.5391 3.83597 0.797537 0
M  V30 937 H 92.2361 3.98621 0.436184 0
M  V30 938 H 88.8261 4.17116 -0.985499 0
M  V30 939 H 93.0101 4.59782 -1.86855 0
M  V30 940 H 88.2661 5.25965 -3.11722 0
M  V30 941 H 92.4401 5.7 -4.00092 0
M  V30 942 H 90.0671 6.0287 -4.63089 0
M  V30 943 N 91.6422 0.330177 1.54103 0
M  V30 944 C 92.8722 -0.271784 2.04805 0
M  V30 945 C 93.2802 -1.45816 1.20559 0
M  V30 946 O 92.6232 -1.82247 0.2306 0
M  V30 947 C 92.6852 -0.763238 3.51305 0
M  V30 948 C 92.3492 0.301705 4.56003 0
M  V30 949 C 93.3462 1.13999 5.07248 0
M  V30 950 C 91.0312 0.451793 5.00264 0
M  V30 951 C 93.0252 2.11402 6.01322 0
M  V30 952 C 90.7122 1.42924 5.94151 0
M  V30 953 C 91.7102 2.25882 6.44567 0
M  V30 954 O 91.3982 3.21965 7.3661 0
M  V30 955 H 91.1302 -0.058693 0.673447 0
M  V30 956 H 93.6842 0.476395 1.99799 0
M  V30 957 H 91.9142 -1.56244 3.5373 0
M  V30 958 H 93.6032 -1.28427 3.85047 0
M  V30 959 H 94.3692 1.03505 4.73827 0
M  V30 960 H 90.2482 -0.184044 4.60632 0
M  V30 961 H 93.7922 2.76192 6.40596 0
M  V30 962 H 89.6892 1.53479 6.26988 0
M  V30 963 H 90.4572 3.17281 7.54503 0
M  V30 964 N 93.1203 -1.57491 0.0584922 0
M  V30 965 C 94.0303 -2.15448 -0.928414 0
M  V30 966 C 95.0463 -1.11416 -1.3365 0
M  V30 967 O 96.2223 -1.4362 -1.41193 0
M  V30 968 C 93.2873 -2.69393 -2.18239 0
M  V30 969 C 92.3483 -3.88249 -1.83196 0
M  V30 970 C 91.5813 -4.39613 -3.02616 0
M  V30 971 O 91.8043 -3.90023 -4.16219 0
M  V30 972 O 90.7383 -5.31111 -2.83204 0
M  V30 973 H 94.5643 -3.00112 -0.465483 0
M  V30 974 H 92.1493 -1.48499 -0.163826 0
M  V30 975 H 94.0313 -3.04026 -2.91798 0
M  V30 976 H 92.7063 -1.87796 -2.63656 0
M  V30 977 H 91.6133 -3.58492 -1.06931 0
M  V30 978 H 92.9463 -4.71098 -1.42573 0
M  V30 979 N 94.5984 0.214957 -1.56127 0
M  V30 980 C 95.5614 1.24997 -1.92116 0
M  V30 981 C 96.5614 1.39467 -0.800344 0
M  V30 982 O 97.7514 1.37619 -1.06802 0
M  V30 983 C 94.8834 2.62271 -2.17777 0
M  V30 984 H 96.0764 0.942875 -2.84693 0
M  V30 985 H 93.6294 0.455654 -1.49511 0
M  V30 986 H 94.3644 2.98068 -1.27773 0
M  V30 987 H 94.1494 2.53143 -2.99434 0
M  V30 988 H 95.6394 3.36946 -2.46693 0
M  V30 989 N 96.0765 1.50051 0.48192 0
M  V30 990 C 97.0085 1.64263 1.59844 0
M  V30 991 C 98.0215 0.52451 1.54119 0
M  V30 992 O 99.2105 0.797293 1.59704 0
M  V30 993 C 96.3105 1.60102 2.98698 0
M  V30 994 C 95.4835 2.87767 3.29407 0
M  V30 995 C 94.5425 2.76397 4.47762 0
M  V30 996 O 93.5685 3.50348 4.48603 0
M  V30 997 N 94.7705 1.89222 5.48794 0
M  V30 998 H 97.5355 2.60566 1.48073 0
M  V30 999 H 95.0965 1.47379 0.670149 0
M  V30 1000 H 97.0885 1.50123 3.75826 0
M  V30 1001 H 95.6585 0.715798 3.04294 0
M  V30 1002 H 94.8785 3.11954 2.40994 0
M  V30 1003 H 96.1665 3.72365 3.4673 0
M  V30 1004 H 95.5645 1.28434 5.50928 0
M  V30 1005 H 94.1215 1.85154 6.24949 0
M  V30 1006 N 97.5546 -0.734337 1.39446 0
M  V30 1007 C 98.9706 -1.03997 1.21065 0
M  V30 1008 C 99.1706 -2.01369 0.0727019 0
M  V30 1009 O 98.2266 -2.45856 -0.575426 0
M  V30 1010 C 99.5396 -1.60163 2.54496 0
M  V30 1011 C 101.088 -1.7224 2.61347 0
M  V30 1012 C 101.563 -2.31814 3.95002 0
M  V30 1013 N 103.054 -2.39223 3.96644 0
M  V30 1014 C 103.789 -2.86258 4.96834 0
M  V30 1015 N 103.285 -3.33184 6.07421 0
M  V30 1016 N 105.078 -2.85473 4.84213 0
M  V30 1017 H 97.2286 -0.0885624 2.12215 0
M  V30 1018 H 99.4916 -0.10191 0.942506 0
M  V30 1019 H 99.1976 -0.960811 3.38321 0
M  V30 1020 H 99.0716 -2.5896 2.74262 0
M  V30 1021 H 101.459 -2.35443 1.77906 0
M  V30 1022 H 101.54 -0.720939 2.4543 0
M  V30 1023 H 101.184 -1.69238 4.78875 0
M  V30 1024 H 101.114 -3.32638 4.08239 0
M  V30 1025 H 103.605 -2.06057 3.16779 0
M  V30 1026 H 103.918 -3.67586 6.7978 0
M  V30 1027 H 102.263 -3.31191 6.11013 0
M  V30 1028 H 105.454 -2.48136 3.96921 0
M  V30 1029 H 105.627 -3.21814 5.62441 0
M  V30 1030 N 99.0327 -1.24633 -0.964593 0
M  V30 1031 C 100.258 -1.11596 -1.74818 0
M  V30 1032 C 100.683 0.32723 -1.85232 0
M  V30 1033 O 100.041 1.23695 -1.32549 0
M  V30 1034 C 100.089 -1.76397 -3.1451 0
M  V30 1035 O 99.1927 -1.03685 -3.99153 0
M  V30 1036 H 98.5337 -0.390196 -0.537255 0
M  V30 1037 H 101.064 -1.65002 -1.20977 0
M  V30 1038 H 101.074 -1.8228 -3.65018 0
M  V30 1039 H 99.7487 -2.81401 -3.06246 0
M  V30 1040 H 98.3257 -1.05611 -3.57632 0
M  V30 1041 N 100.511 1.16574 -1.06058 0
M  V30 1042 C 101.759 1.86677 -0.77434 0
M  V30 1043 C 102.08 1.81959 0.701147 0
M  V30 1044 O 101.35 1.2515 1.50713 0
M  V30 1045 H 99.9298 0.691134 -0.283449 0
M  V30 1046 H 102.592 1.41378 -1.34158 0
M  V30 1047 H 101.688 2.92181 -1.09711 0
M  V30 1048 N 101.989 0.842826 1.3317 0
M  V30 1049 C 102.936 0.276885 2.29133 0
M  V30 1050 C 103.906 -0.609527 1.54512 0
M  V30 1051 O 105.091 -0.546955 1.82792 0
M  V30 1052 C 102.231 -0.538707 3.40869 0
M  V30 1053 C 101.344 0.372169 4.30394 0
M  V30 1054 C 100.479 -0.454908 5.29249 0
M  V30 1055 C 99.5179 0.45411 6.10413 0
M  V30 1056 N 98.6549 -0.335075 7.013 0
M  V30 1057 H 103.495 1.10052 2.76934 0
M  V30 1058 H 101.032 0.554161 1.36262 0
M  V30 1059 H 102.99 -1.02709 4.0436 0
M  V30 1060 H 101.62 -1.32727 2.9425 0
M  V30 1061 H 100.672 0.97888 3.6759 0
M  V30 1062 H 101.984 1.0703 4.87182 0
M  V30 1063 H 101.138 -1.00695 5.98285 0
M  V30 1064 H 99.8769 -1.18646 4.73048 0
M  V30 1065 H 98.8819 1.01813 5.40291 0
M  V30 1066 H 100.107 1.18409 6.68697 0
M  V30 1067 H 98.0529 -1.04994 6.47543 0
M  V30 1068 H 97.9699 0.304262 7.55387 0
M  V30 1069 H 99.2379 -0.869224 7.74638 0
M  V30 1070 N 103.467 -1.45747 0.599634 0
M  V30 1071 C 104.397 -2.33235 -0.111306 0
M  V30 1072 C 105.378 -1.46359 -0.866781 0
M  V30 1073 O 106.563 -1.75146 -0.838904 0
M  V30 1074 C 103.693 -3.28932 -1.11451 0
M  V30 1075 C 102.647 -4.25381 -0.472772 0
M  V30 1076 C 101.973 -5.1071 -1.58365 0
M  V30 1077 C 103.273 -5.18831 0.600948 0
M  V30 1078 H 104.967 -2.92927 0.61919 0
M  V30 1079 H 102.513 -1.40857 0.299215 0
M  V30 1080 H 104.466 -3.89002 -1.62036 0
M  V30 1081 H 103.19 -2.67381 -1.8755 0
M  V30 1082 H 101.849 -3.66598 0.0121472 0
M  V30 1083 H 101.497 -4.45533 -2.33473 0
M  V30 1084 H 101.197 -5.7604 -1.15982 0
M  V30 1085 H 102.721 -5.73647 -2.09194 0
M  V30 1086 H 104.135 -5.73019 0.179491 0
M  V30 1087 H 102.532 -5.92595 0.946076 0
M  V30 1088 H 103.602 -4.6174 1.48068 0
M  V30 1089 N 104.945 -0.338344 -1.53925 0
M  V30 1090 C 106.356 0.146651 -1.86123 0
M  V30 1091 C 106.707 1.5042 -1.2597 0
M  V30 1092 O 105.832 2.08723 -0.571294 0
M  V30 1093 C 106.427 0.272879 -3.37699 0
M  V30 1094 C 104.986 0.702103 -3.69794 0
M  V30 1095 C 104.133 -0.167304 -2.76795 0
M  V30 1096 H 107.084 -0.558123 -1.48562 0
M  V30 1097 H 107.105 1.10128 -3.64214 0
M  V30 1098 H 106.617 -0.715307 -3.81451 0
M  V30 1099 H 104.718 1.6995 -3.31584 0
M  V30 1100 H 104.831 0.495604 -4.7653 0
M  V30 1101 H 103.195 0.359527 -2.5215 0
M  V30 1102 H 103.978 -1.15253 -3.23375 0
M  V30 1103 N 106.423 1.57458 -0.0668435 0
M  V30 1104 C 107.333 2.15937 0.916975 0
M  V30 1105 C 108.349 1.12123 1.33058 0
M  V30 1106 O 109.525 1.44366 1.40429 0
M  V30 1107 C 106.59 2.70547 2.16807 0
M  V30 1108 C 105.651 3.89215 1.81135 0
M  V30 1109 C 104.884 4.41211 3.0028 0
M  V30 1110 O 105.107 3.92225 4.14144 0
M  V30 1111 O 104.041 5.32605 2.80384 0
M  V30 1112 H 107.867 3.00354 0.449561 0
M  V30 1113 H 105.452 1.48584 0.155949 0
M  V30 1114 H 107.334 3.0557 2.90181 0
M  V30 1115 H 106.009 1.89192 2.62656 0
M  V30 1116 H 104.916 3.59054 1.05028 0
M  V30 1117 H 106.249 4.71848 1.40073 0
M  V30 1118 N 107.901 -0.206675 1.56239 0
M  V30 1119 C 108.849 -1.27571 1.94495 0
M  V30 1120 C 109.843 -1.47737 0.828862 0
M  V30 1121 O 111.049 -1.48735 1.0138 0
M  V30 1122 H 107.424 -0.428029 0.6183 0
M  V30 1123 H 109.395 -0.925961 2.8367 0
M  V30 1124 C 108.144 -2.61568 2.29079 0
M  V30 1125 H 107.467 -2.46863 3.14482 0
M  V30 1126 H 108.907 -3.35144 2.5972 0
M  V30 1127 C 107.366 -3.17695 1.12123 0
M  V30 1128 O 107.896 -3.99801 0.390153 0
M  V30 1129 N 106.102 -2.76276 0.901097 0
M  V30 1130 H 105.649 -2.09613 1.49733 0
M  V30 1131 H 105.607 -3.1417 0.120319 0
M  V30 1132 N 109.379 -1.50304 -0.473955 0
M  V30 1133 C 110.327 -1.69482 -1.59307 0
M  V30 1134 C 111.321 -0.560669 -1.59853 0
M  V30 1135 O 112.527 -0.741087 -1.64036 0
M  V30 1136 H 108.902 -0.534892 -0.528578 0
M  V30 1137 H 110.873 -2.63364 -1.40293 0
M  V30 1138 C 109.622 -1.80354 -2.97267 0
M  V30 1139 H 108.945 -2.67012 -2.97564 0
M  V30 1140 H 110.385 -1.97798 -3.75036 0
M  V30 1141 C 108.844 -0.55448 -3.32306 0
M  V30 1142 O 109.374 0.307661 -4.0052 0
M  V30 1143 N 107.58 -0.409354 -2.87702 0
M  V30 1144 H 107.127 -1.11196 -2.32364 0
M  V30 1145 H 107.085 0.425223 -3.11511 0
M  V30 1146 N 110.857 0.726932 -1.39834 0
M  V30 1147 C 112.273 1.03354 -1.21615 0
M  V30 1148 C 112.473 2.01327 -0.08338 0
M  V30 1149 O 111.529 2.46158 0.56238 0
M  V30 1150 C 112.842 1.58811 -2.55342 0
M  V30 1151 C 114.39 1.70851 -2.62257 0
M  V30 1152 C 114.865 2.29716 -3.96225 0
M  V30 1153 N 116.356 2.37116 -3.97907 0
M  V30 1154 C 117.091 2.83619 -4.98345 0
M  V30 1155 N 116.587 3.29958 -6.09179 0
M  V30 1156 N 118.38 2.82901 -4.8572 0
M  V30 1157 H 110.531 0.0773069 -2.12259 0
M  V30 1158 H 112.794 0.0969102 -0.943034 0
M  V30 1159 H 112.5 0.942855 -3.38826 0
M  V30 1160 H 112.374 2.57502 -2.75632 0
M  V30 1161 H 114.761 2.34497 -1.79152 0
M  V30 1162 H 114.842 0.707913 -2.45809 0
M  V30 1163 H 114.486 1.66696 -4.79765 0
M  V30 1164 H 114.416 3.30469 -4.09997 0
M  V30 1165 H 116.907 2.04374 -3.17868 0
M  V30 1166 H 117.22 3.63976 -6.8172 0
M  V30 1167 H 115.565 3.27946 -6.12761 0
M  V30 1168 H 118.756 2.46027 -3.98231 0
M  V30 1169 H 118.929 3.18827 -5.6414 0
M  V30 1170 N 112.336 1.25143 0.95797 0
M  V30 1171 C 113.582 1.09855 1.70469 0
M  V30 1172 C 113.915 -0.360187 1.90831 0
M  V30 1173 O 113.19 -1.26568 1.47685 0
M  V30 1174 C 113.473 1.8497 3.08963 0
M  V30 1175 C 113.326 3.38652 2.96032 0
M  V30 1176 C 114.645 1.63016 4.08795 0
M  V30 1177 H 111.764 0.400465 0.618706 0
M  V30 1178 H 114.406 1.53933 1.11376 0
M  V30 1179 H 112.556 1.47505 3.59409 0
M  V30 1180 H 114.228 3.85772 2.52938 0
M  V30 1181 H 112.471 3.66534 2.32025 0
M  V30 1182 H 113.142 3.8642 3.94187 0
M  V30 1183 H 115.618 1.95625 3.67247 0
M  V30 1184 H 114.494 2.18015 5.03747 0
M  V30 1185 H 114.755 0.570692 4.38401 0
M  V30 1186 N 113.814 -1.1601 1.06675 0
M  V30 1187 C 115.039 -1.91068 0.806706 0
M  V30 1188 C 115.464 -1.77112 -0.633485 0
M  V30 1189 O 114.822 -1.09908 -1.44187 0
M  V30 1190 C 114.87 -3.39655 1.21106 0
M  V30 1191 O 113.974 -4.10893 0.352189 0
M  V30 1192 H 113.315 -0.595125 0.294486 0
M  V30 1193 H 115.845 -1.46955 1.42356 0
M  V30 1194 H 115.855 -3.90434 1.18428 0
M  V30 1195 H 114.53 -3.49132 2.26008 0
M  V30 1196 H 113.107 -3.70285 0.440868 0
M  V30 1197 N 115.292 -0.849877 -1.32721 0
M  V30 1198 C 116.538 -0.460855 -1.9811 0
M  V30 1199 C 116.893 0.971716 -1.66059 0
M  V30 1200 O 116.186 1.67184 -0.935944 0
M  V30 1201 C 116.38 -0.631272 -3.51781 0
M  V30 1202 C 116.209 -2.07886 -3.98765 0
M  V30 1203 C 114.979 -2.71637 -4.26077 0
M  V30 1204 C 117.177 -3.04889 -4.14182 0
M  V30 1205 N 115.159 -4.07356 -4.59276 0
M  V30 1206 C 116.53 -4.25583 -4.50865 0
M  V30 1207 C 118.585 -3.01148 -3.96503 0
M  V30 1208 C 117.288 -5.43027 -4.71714 0
M  V30 1209 C 119.314 -4.17832 -4.18533 0
M  V30 1210 C 118.676 -5.37284 -4.55528 0
M  V30 1211 H 114.775 -0.217283 -0.751207 0
M  V30 1212 H 117.359 -1.10026 -1.60631 0
M  V30 1213 H 115.53 -0.0215966 -3.88394 0
M  V30 1214 H 117.262 -0.212614 -4.04141 0
M  V30 1215 H 114.017 -2.22705 -4.17971 0
M  V30 1216 H 114.441 -4.77351 -4.80068 0
M  V30 1217 H 119.083 -2.0992 -3.67006 0
M  V30 1218 H 116.801 -6.34791 -5.00066 0
M  V30 1219 H 120.387 -4.16368 -4.06361 0
M  V30 1220 H 119.267 -6.26071 -4.72234 0
M  V30 1221 N 116.77 1.45427 -0.607355 0
M  V30 1222 C 118.186 1.57283 -0.270985 0
M  V30 1223 C 118.386 1.59875 1.22647 0
M  V30 1224 O 117.442 1.52893 2.00948 0
M  V30 1225 C 118.755 2.85566 -0.941952 0
M  V30 1226 C 120.303 2.9924 -0.917849 0
M  V30 1227 C 120.778 4.30293 -1.56882 0
M  V30 1228 N 122.269 4.37051 -1.5343 0
M  V30 1229 C 123.004 5.37123 -2.00715 0
M  V30 1230 N 122.5 6.43734 -2.56084 0
M  V30 1231 N 124.293 5.28479 -1.91484 0
M  V30 1232 H 116.444 1.41988 -1.57966 0
M  V30 1233 H 118.707 0.67885 -0.661715 0
M  V30 1234 H 118.413 2.8955 -1.99633 0
M  V30 1235 H 118.287 3.74322 -0.465096 0
M  V30 1236 H 120.674 2.94822 0.127984 0
M  V30 1237 H 120.755 2.11895 -1.43297 0
M  V30 1238 H 120.399 4.35469 -2.61398 0
M  V30 1239 H 120.329 5.16454 -1.02873 0
M  V30 1240 H 122.82 3.60615 -1.12982 0
M  V30 1241 H 123.133 7.16341 -2.89958 0
M  V30 1242 H 121.478 6.44485 -2.60122 0
M  V30 1243 H 124.669 4.44098 -1.47967 0
M  V30 1244 H 124.842 6.0632 -2.28648 0
M  V30 1245 N 118.248 0.346503 1.53744 0
M  V30 1246 C 119.496 -0.248612 2.00565 0
M  V30 1247 C 119.817 -1.5083 1.23593 0
M  V30 1248 O 119.087 -1.92858 0.343912 0
M  V30 1249 H 117.667 -0.0948564 0.740953 0
M  V30 1250 H 120.329 0.468341 1.89189 0
M  V30 1251 H 119.425 -0.488994 3.08245 0
M  V30 1252 N 119.726 -1.57421 0.075193 0
M  V30 1253 C 121.003 -1.85029 -0.634329 0
M  V30 1254 C 121.383 -0.968305 -1.87582 0
M  V30 1255 O 120.731 -0.0354749 -2.28472 0
M  V30 1256 C 120.941 -3.35286 -0.968742 0
M  V30 1257 C 122.289 -4.02875 -1.34077 0
M  V30 1258 O 123.313 -3.40051 -1.06037 0
M  V30 1259 O 122.172 -5.13691 -1.86506 0
M  V30 1260 H 119.266 -0.7645 -0.315387 0
M  V30 1261 H 121.812 -1.69366 0.106382 0
M  V30 1262 H 120.584 -3.91203 -0.0871376 0
M  V30 1263 H 120.207 -3.56223 -1.7661 0
M  V30 1264 N 121.204 0.198386 -1.56346 0
M  V30 1265 C 122.429 0.939682 -1.84891 0
M  V30 1266 C 122.854 1.76202 -0.658369 0
M  V30 1267 O 122.212 1.76993 0.392851 0
M  V30 1268 C 122.26 1.81428 -3.11635 0
M  V30 1269 O 121.364 2.91265 -2.91956 0
M  V30 1270 H 120.705 0.264807 -0.608912 0
M  V30 1271 H 123.235 0.204695 -2.03573 0
M  V30 1272 H 123.245 2.21958 -3.42343 0
M  V30 1273 H 121.92 1.21004 -3.97908 0
M  V30 1274 H 120.497 2.54514 -2.72538 0
M  V30 1275 N 122.682 1.50554 0.465978 0
M  V30 1276 C 123.93 1.61479 1.21528 0
M  V30 1277 C 124.251 0.319596 1.92363 0
M  V30 1278 O 123.521 -0.663194 1.84333 0
M  V30 1279 H 122.101 0.595055 0.451573 0
M  V30 1280 H 124.763 1.87355 0.53704 0
M  V30 1281 H 123.859 2.42846 1.96042 0
M  V30 1282 N 124.16 -0.719506 1.40217 0
M  V30 1283 C 125.09 -1.8465 1.42922 0
M  V30 1284 C 126.071 -1.67599 0.29062 0
M  V30 1285 O 127.256 -1.87688 0.498677 0
M  V30 1286 C 124.386 -3.22565 1.28722 0
M  V30 1287 C 123.34 -3.54281 2.40144 0
M  V30 1288 C 122.666 -4.91298 2.11023 0
M  V30 1289 C 123.966 -3.55676 3.82481 0
M  V30 1290 H 125.66 -1.82644 2.37237 0
M  V30 1291 H 123.206 -0.877305 1.1419 0
M  V30 1292 H 125.159 -4.01095 1.29232 0
M  V30 1293 H 123.883 -3.25137 0.308811 0
M  V30 1294 H 122.542 -2.78088 2.38877 0
M  V30 1295 H 122.19 -4.90468 1.11582 0
M  V30 1296 H 121.89 -5.13485 2.8567 0
M  V30 1297 H 123.414 -5.72166 2.13209 0
M  V30 1298 H 124.828 -4.24254 3.85592 0
M  V30 1299 H 123.225 -3.89388 4.56614 0
M  V30 1300 H 124.295 -2.55144 4.12346 0
M  V30 1301 N 125.638 -1.25649 -0.95132 0
M  V30 1302 C 126.586 -1.06118 -2.06982 0
M  V30 1303 C 127.58 0.00889169 -1.69398 0
M  V30 1304 O 128.786 -0.146988 -1.79399 0
M  V30 1305 H 125.161 -0.326248 -0.677544 0
M  V30 1306 H 127.132 -2.00932 -2.2061 0
M  V30 1307 C 125.881 -0.700145 -3.40578 0
M  V30 1308 H 125.204 -1.51537 -3.69968 0
M  V30 1309 H 126.644 -0.603211 -4.19687 0
M  V30 1310 C 125.103 0.59403 -3.31622 0
M  V30 1311 O 125.633 1.63522 -3.66911 0
M  V30 1312 N 123.839 0.58089 -2.84735 0
M  V30 1313 H 123.386 -0.266783 -2.56215 0
M  V30 1314 H 123.344 1.44695 -2.79125 0
M  V30 1315 N 127.117 1.15442 -1.07289 0
M  V30 1316 C 128.394 1.82306 -0.708792 0
M  V30 1317 C 128.774 1.94991 0.808807 0
M  V30 1318 O 128.122 1.50085 1.72298 0
M  V30 1319 C 128.332 3.18695 -1.42247 0
M  V30 1320 C 129.68 3.94341 -1.57417 0
M  V30 1321 O 130.704 3.28247 -1.38319 0
M  V30 1322 O 129.563 5.12839 -1.88834 0
M  V30 1323 H 126.657 0.787628 -0.252132 0
M  V30 1324 H 129.203 1.22559 -1.17377 0
M  V30 1325 H 127.975 3.04557 -2.45684 0
M  V30 1326 H 127.598 3.86128 -0.948223 0
M  V30 1327 N 128.595 0.856903 1.32268 0
M  V30 1328 C 129.843 0.460474 1.96784 0
M  V30 1329 C 130.164 -0.987701 1.68135 0
M  V30 1330 O 129.434 -1.69058 0.989765 0
M  V30 1331 H 128.014 0.167289 0.728027 0
M  V30 1332 H 130.676 1.09383 1.61312 0
M  V30 1333 H 129.772 0.60739 3.06133 0
M  V30 1334 N 130.073 -1.45103 0.615059 0
M  V30 1335 C 131.036 -2.29025 -0.0895485 0
M  V30 1336 C 132.036 -1.40174 -0.787906 0
M  V30 1337 O 133.226 -1.62217 -0.634933 0
M  V30 1338 C 130.358 -3.21376 -1.13711 0
M  V30 1339 H 131.551 -2.92807 0.648382 0
M  V30 1340 H 129.104 -1.51749 0.374444 0
M  V30 1341 H 129.839 -2.6241 -1.90556 0
M  V30 1342 H 129.624 -3.86834 -0.640475 0
M  V30 1343 H 131.114 -3.84459 -1.63036 0
M  V30 1344 N 131.551 -0.354651 -1.53558 0
M  V30 1345 C 132.828 0.294281 -1.93374 0
M  V30 1346 C 133.208 1.67313 -1.28723 0
M  V30 1347 O 132.556 2.24179 -0.442247 0
M  V30 1348 C 132.766 0.355445 -3.47185 0
M  V30 1349 C 134.114 0.601007 -4.20325 0
M  V30 1350 O 135.138 0.437106 -3.53508 0
M  V30 1351 O 133.997 0.919322 -5.38712 0
M  V30 1352 H 131.091 0.174033 -0.808481 0
M  V30 1353 H 133.637 -0.406638 -1.64756 0
M  V30 1354 H 132.409 -0.611729 -3.86489 0
M  V30 1355 H 132.032 1.1027 -3.82003 0
M  V30 1356 N 133.029 1.57378 -0.0835403 0
M  V30 1357 C 134.275 1.94217 0.583733 0
M  V30 1358 C 134.608 0.964653 1.68547 0
M  V30 1359 O 133.883 -0.00422258 1.945 0
M  V30 1360 C 134.166 3.41253 1.14972 0
M  V30 1361 C 134.019 4.49768 0.0538277 0
M  V30 1362 C 135.338 3.89352 2.05166 0
M  V30 1363 H 132.457 0.706233 0.210724 0
M  V30 1364 H 135.099 1.89392 -0.1519 0
M  V30 1365 H 133.249 3.45496 1.77665 0
M  V30 1366 H 134.921 4.57641 -0.579851 0
M  V30 1367 H 133.164 4.29432 -0.614068 0
M  V30 1368 H 133.835 5.49817 0.490452 0
M  V30 1369 H 136.311 3.87189 1.52393 0
M  V30 1370 H 135.187 4.92822 2.41698 0
M  V30 1371 H 135.448 3.27973 2.96456 0
M  V30 1372 N 134.507 -0.190092 1.56449 0
M  V30 1373 C 135.755 -0.907908 1.80559 0
M  V30 1374 C 136.076 -1.83583 0.657438 0
M  V30 1375 O 135.346 -1.93203 -0.323924 0
M  V30 1376 H 133.926 -0.338247 0.666032 0
M  V30 1377 H 136.588 -0.194403 1.93928 0
M  V30 1378 H 135.684 -1.49604 2.73907 0
M  V30 1379 N 135.985 -1.50799 -0.457987 0
M  V30 1380 C 136.915 -1.73553 -1.5621 0
M  V30 1381 C 137.896 -0.584774 -1.59732 0
M  V30 1382 O 139.081 -0.825314 -1.7579 0
M  V30 1383 C 136.211 -1.84169 -2.94447 0
M  V30 1384 C 135.165 -2.99461 -3.0579 0
M  V30 1385 C 134.491 -2.95235 -4.45803 0
M  V30 1386 C 135.791 -4.39766 -2.81786 0
M  V30 1387 H 137.485 -2.66 -1.37421 0
M  V30 1388 H 135.031 -1.28002 -0.659662 0
M  V30 1389 H 136.984 -1.98672 -3.71628 0
M  V30 1390 H 135.708 -0.883545 -3.14422 0
M  V30 1391 H 134.367 -2.8463 -2.31044 0
M  V30 1392 H 134.015 -1.97239 -4.62715 0
M  V30 1393 H 133.715 -3.72642 -4.54326 0
M  V30 1394 H 135.239 -3.11803 -5.24987 0
M  V30 1395 H 136.653 -4.55054 -3.4871 0
M  V30 1396 H 135.05 -5.18722 -3.0174 0
M  V30 1397 H 136.12 -4.51229 -1.7754 0
M  V30 1398 N 137.463 0.71206 -1.40597 0
M  V30 1399 C 138.74 1.46536 -1.29563 0
M  V30 1400 C 139.12 2.10931 0.0844217 0
M  V30 1401 O 138.468 2.00418 1.0975 0
M  V30 1402 C 138.678 2.49821 -2.43701 0
M  V30 1403 C 140.026 3.15551 -2.841 0
M  V30 1404 O 141.05 2.60142 -2.4332 0
M  V30 1405 O 139.909 4.15867 -3.54566 0
M  V30 1406 H 137.003 0.651801 -0.509004 0
M  V30 1407 H 139.549 0.743935 -1.52524 0
M  V30 1408 H 138.321 2.00778 -3.35863 0
M  V30 1409 H 137.944 3.29495 -2.22528 0
M  V30 1410 N 138.941 1.26152 0.944643 0
M  V30 1411 C 139.871 1.09902 2.06019 0
M  V30 1412 C 140.852 0.00519538 1.70099 0
M  V30 1413 O 142.037 0.176583 1.93396 0
M  V30 1414 C 139.167 0.727562 3.39594 0
M  V30 1415 C 138.121 1.77274 3.89561 0
M  V30 1416 C 137.447 1.25569 5.19747 0
M  V30 1417 C 138.747 3.17357 4.14827 0
M  V30 1418 H 140.441 2.03217 2.19871 0
M  V30 1419 H 137.987 0.978452 1.05652 0
M  V30 1420 H 139.94 0.600777 4.17095 0
M  V30 1421 H 138.664 -0.241287 3.25707 0
M  V30 1422 H 137.323 1.88814 3.14237 0
M  V30 1423 H 136.971 0.276783 5.02238 0
M  V30 1424 H 136.671 1.95433 5.54148 0
M  V30 1425 H 138.195 1.1415 5.99835 0
M  V30 1426 H 139.609 3.08914 4.82954 0
M  V30 1427 H 138.006 3.84781 4.60504 0
M  V30 1428 H 139.076 3.63673 3.20734 0
M  V30 1429 N 140.419 -1.14872 1.07899 0
M  V30 1430 C 141.647 -1.89661 0.82683 0
M  V30 1431 C 142.062 -1.78312 -0.620519 0
M  V30 1432 O 141.419 -1.13888 -1.42604 0
M  V30 1433 C 141.47 -3.39817 1.23316 0
M  V30 1434 O 141.191 -3.50845 2.62372 0
M  V30 1435 C 142.692 -4.31615 1.0111 0
M  V30 1436 H 139.912 -0.60092 0.298557 0
M  V30 1437 H 142.456 -1.4551 1.43691 0
M  V30 1438 H 140.611 -3.8161 0.667286 0
M  V30 1439 H 141.025 -4.44076 2.79101 0
M  V30 1440 H 142.499 -5.35367 1.34486 0
M  V30 1441 H 142.976 -4.39169 -0.0522168 0
M  V30 1442 H 143.582 -3.95572 1.56215 0
M  V30 1443 N 141.898 -0.863906 -1.31812 0
M  V30 1444 C 143.146 -0.470904 -1.96537 0
M  V30 1445 C 143.467 0.978771 -1.68657 0
M  V30 1446 O 142.737 1.6853 -0.998717 0
M  V30 1447 H 141.317 -0.171148 -0.72713 0
M  V30 1448 H 143.979 -1.10236 -1.60729 0
M  V30 1449 H 143.075 -0.623616 -3.05806 0
M  V30 1450 N 143.376 1.44774 -0.622745 0
M  V30 1451 C 144.624 2.01721 -0.123655 0
M  V30 1452 C 144.945 1.49172 1.25589 0
M  V30 1453 O 144.215 0.691974 1.83272 0
M  V30 1454 H 142.795 0.745777 -0.0427225 0
M  V30 1455 H 145.457 1.77382 -0.807559 0
M  V30 1456 H 144.553 3.11984 -0.0849534 0
M  V30 1457 N 144.854 0.36279 1.53368 0
M  V30 1458 C 146.1 -0.220702 2.02199 0
M  V30 1459 C 146.455 -1.46649 1.24546 0
M  V30 1460 O 145.748 -1.88737 0.32996 0
M  V30 1461 C 145.942 -0.568417 3.52851 0
M  V30 1462 C 145.771 0.642126 4.45092 0
M  V30 1463 C 144.541 1.15335 4.91961 0
M  V30 1464 C 146.739 1.50649 4.91741 0
M  V30 1465 N 144.721 2.3242 5.68202 0
M  V30 1466 C 146.092 2.52404 5.66297 0
M  V30 1467 C 148.147 1.52969 4.73819 0
M  V30 1468 C 146.85 3.56331 6.24836 0
M  V30 1469 C 148.876 2.55789 5.33222 0
M  V30 1470 C 148.238 3.56268 6.07662 0
M  V30 1471 H 144.337 -0.0435508 0.780786 0
M  V30 1472 H 146.921 0.506704 1.87991 0
M  V30 1473 H 145.092 -1.2649 3.67226 0
M  V30 1474 H 146.824 -1.13676 3.88407 0
M  V30 1475 H 143.579 0.718412 4.68119 0
M  V30 1476 H 144.003 2.91591 6.10986 0
M  V30 1477 H 148.645 0.766418 4.15795 0
M  V30 1478 H 146.363 4.33543 6.81958 0
M  V30 1479 H 149.949 2.58435 5.21251 0
M  V30 1480 H 148.829 4.34524 6.52808 0
M  V30 1481 N 146.332 -1.57332 0.0918853 0
M  V30 1482 C 147.562 -1.98286 -0.580205 0
M  V30 1483 C 147.97 -0.969713 -1.6246 0
M  V30 1484 O 147.313 0.0493501 -1.83634 0
M  V30 1485 C 147.375 -3.35603 -1.28882 0
M  V30 1486 C 147.039 -4.55285 -0.395559 0
M  V30 1487 C 148.036 -5.18687 0.355002 0
M  V30 1488 C 145.721 -5.01314 -0.314556 0
M  V30 1489 C 147.715 -6.26484 1.17458 0
M  V30 1490 C 145.402 -6.08979 0.508677 0
M  V30 1491 C 146.4 -6.71429 1.2519 0
M  V30 1492 O 146.088 -7.77018 2.06151 0
M  V30 1493 H 145.82 -0.656678 -0.160466 0
M  V30 1494 H 148.374 -2.04721 0.16688 0
M  V30 1495 H 146.604 -3.25842 -2.08241 0
M  V30 1496 H 148.293 -3.61026 -1.85512 0
M  V30 1497 H 149.059 -4.84058 0.302134 0
M  V30 1498 H 144.938 -4.5247 -0.882697 0
M  V30 1499 H 148.482 -6.75159 1.75518 0
M  V30 1500 H 144.379 -6.4304 0.563037 0
M  V30 1501 H 145.147 -7.93991 1.98799 0
M  V30 1502 N 147.81 0.181792 -1.56548 0
M  V30 1503 C 149.087 0.926765 -1.72251 0
M  V30 1504 C 149.467 2.00831 -0.650386 0
M  V30 1505 O 148.815 2.26008 0.336521 0
M  V30 1506 C 149.025 1.50106 -3.1507 0
M  V30 1507 C 150.373 1.97805 -3.75711 0
M  V30 1508 O 151.397 1.59922 -3.18282 0
M  V30 1509 O 150.256 2.67555 -4.76525 0
M  V30 1510 H 147.35 0.435506 -0.703039 0
M  V30 1511 H 149.896 0.170443 -1.68842 0
M  V30 1512 H 148.668 0.72212 -3.84579 0
M  V30 1513 H 148.291 2.32186 -3.22763 0
M  V30 1514 N 149.288 1.51039 0.449983 0
M  V30 1515 C 150.251 1.70863 1.5277 0
M  V30 1516 C 151.251 0.578846 1.5002 0
M  V30 1517 O 152.441 0.846213 1.52266 0
M  V30 1518 C 149.573 1.75341 2.9235 0
M  V30 1519 H 150.766 2.67034 1.36502 0
M  V30 1520 H 148.319 1.40838 0.677812 0
M  V30 1521 H 149.054 0.809383 3.14037 0
M  V30 1522 H 148.839 2.57436 2.95752 0
M  V30 1523 H 150.329 1.92559 3.70555 0
M  V30 1524 N 150.766 -0.704594 1.40972 0
M  V30 1525 C 152.014 -1.46169 1.39568 0
M  V30 1526 C 152.335 -1.95 0.00253745 0
M  V30 1527 O 151.605 -1.71095 -0.954114 0
M  V30 1528 H 150.185 -0.542326 0.513704 0
M  V30 1529 H 152.847 -0.834553 1.76128 0
M  V30 1530 H 151.943 -2.32922 2.07735 0
M  V30 1531 N 152.244 -1.26651 -0.937939 0
M  V30 1532 C 153.521 -1.0313 -1.66204 0
M  V30 1533 C 153.901 0.437256 -2.06522 0
M  V30 1534 O 153.249 1.41831 -1.79154 0
M  V30 1535 C 153.459 -1.98314 -2.87181 0
M  V30 1536 C 154.807 -2.27107 -3.58758 0
M  V30 1537 O 155.831 -1.96205 -2.97291 0
M  V30 1538 O 154.69 -2.79736 -4.69479 0
M  V30 1539 H 151.784 -0.392384 -0.727986 0
M  V30 1540 H 154.33 -1.37874 -0.989382 0
M  V30 1541 H 153.102 -2.97399 -2.54302 0
M  V30 1542 H 152.725 -1.64068 -3.6217 0
M  V30 1543 N 153.722 1.14298 -1.08507 0
M  V30 1544 C 154.672 2.17449 -0.685569 0
M  V30 1545 C 155.656 1.58167 0.295315 0
M  V30 1546 O 156.848 1.76675 0.107172 0
M  V30 1547 C 153.977 3.43161 -0.0975318 0
M  V30 1548 C 153.063 4.09471 -1.10426 0
M  V30 1549 N 153.454 4.51089 -2.28806 0
M  V30 1550 C 151.752 4.35976 -0.940258 0
M  V30 1551 C 152.453 5.02654 -2.9277 0
M  V30 1552 N 151.429 4.96927 -2.20374 0
M  V30 1553 H 155.231 2.47369 -1.587 0
M  V30 1554 H 152.745 1.30992 -0.959936 0
M  V30 1555 H 154.742 4.16388 0.20664 0
M  V30 1556 H 153.402 3.14719 0.798872 0
M  V30 1557 H 154.413 4.44097 -2.66455 0
M  V30 1558 H 151.09 4.17386 -0.0977441 0
M  V30 1559 H 152.48 5.44723 -3.93352 0
M  V30 1560 N 155.201 0.870884 1.31352 0
M  V30 1561 C 156.447 0.482987 1.96965 0
M  V30 1562 C 156.78 -0.962462 1.68672 0
M  V30 1563 O 156.055 -1.6779 0.98371 0
M  V30 1564 C 156.338 0.741752 3.52378 0
M  V30 1565 C 156.191 2.2368 3.9024 0
M  V30 1566 C 157.51 0.208838 4.39604 0
M  V30 1567 H 154.629 0.176955 0.715441 0
M  V30 1568 H 157.271 1.09229 1.55464 0
M  V30 1569 H 155.421 0.223149 3.87859 0
M  V30 1570 H 157.093 2.82273 3.64856 0
M  V30 1571 H 155.336 2.70901 3.38814 0
M  V30 1572 H 156.007 2.3685 4.98604 0
M  V30 1573 H 158.483 0.652529 4.10952 0
M  V30 1574 H 157.359 0.419336 5.47296 0
M  V30 1575 H 157.62 -0.889275 4.33064 0
M  V30 1576 N 156.679 -1.44442 0.630414 0
M  V30 1577 C 157.626 -2.30678 -0.0749355 0
M  V30 1578 C 158.596 -1.4344 -0.837502 0
M  V30 1579 O 159.781 -1.72343 -0.818684 0
M  V30 1580 C 156.921 -3.28706 -1.05103 0
M  V30 1581 C 156.034 -4.31046 -0.286954 0
M  V30 1582 C 155.169 -5.16167 -1.2548 0
M  V30 1583 C 154.208 -6.10216 -0.479843 0
M  V30 1584 N 153.345 -6.88039 -1.39811 0
M  V30 1585 H 158.185 -2.90454 0.666386 0
M  V30 1586 H 155.722 -1.43107 0.340404 0
M  V30 1587 H 157.68 -3.84027 -1.63031 0
M  V30 1588 H 156.31 -2.70632 -1.75949 0
M  V30 1589 H 155.362 -3.78203 0.408243 0
M  V30 1590 H 156.674 -4.97794 0.316657 0
M  V30 1591 H 155.828 -5.76002 -1.90544 0
M  V30 1592 H 154.567 -4.49491 -1.89233 0
M  V30 1593 H 153.572 -5.49491 0.184295 0
M  V30 1594 H 154.797 -6.78928 0.152965 0
M  V30 1595 H 152.743 -6.24032 -2.02287 0
M  V30 1596 H 152.66 -7.51223 -0.848508 0
M  V30 1597 H 153.928 -7.52397 -2.03762 0
M  V30 1598 N 158.157 -0.370918 -1.53173 0
M  V30 1599 C 159.404 0.217102 -2.01333 0
M  V30 1600 C 159.732 1.48338 -1.25802 0
M  V30 1601 O 158.987 1.92698 -0.34146 0
M  V30 1602 C 159.286 0.549696 -3.53147 0
M  V30 1603 C 158.952 -0.622872 -4.46577 0
M  V30 1604 C 157.614 -0.944595 -4.71838 0
M  V30 1605 C 159.966 -1.40819 -5.01816 0
M  V30 1606 C 157.294 -2.05351 -5.49589 0
M  V30 1607 C 159.646 -2.50757 -5.80778 0
M  V30 1608 C 158.31 -2.83458 -6.04324 0
M  V30 1609 H 157.58 0.0794431 -0.736729 0
M  V30 1610 H 160.227 -0.504481 -1.84736 0
M  V30 1611 H 158.532 1.35237 -3.6772 0
M  V30 1612 H 160.229 1.017 -3.87889 0
M  V30 1613 H 156.819 -0.36209 -4.27068 0
M  V30 1614 H 161.003 -1.17289 -4.82242 0
M  V30 1615 H 156.259 -2.3108 -5.6605 0
M  V30 1616 H 160.433 -3.12022 -6.22588 0
M  V30 1617 H 158.06 -3.69508 -6.64355 0
M  V30 1618 N 159.635 1.57281 -0.100228 0
M  V30 1619 C 160.883 1.94153 0.561157 0
M  V30 1620 C 161.204 0.983157 1.68401 0
M  V30 1621 O 160.474 0.0361132 1.95867 0
M  V30 1622 H 159.054 0.716791 0.210283 0
M  V30 1623 H 161.716 1.94202 -0.164765 0
M  V30 1624 H 160.812 2.96709 0.968008 0
M  V30 1625 N 161.113 -0.173488 1.56642 0
M  V30 1626 C 162.36 -0.890465 1.81871 0
M  V30 1627 C 162.688 -1.82339 0.67696 0
M  V30 1628 O 161.943 -1.92795 -0.335926 0
M  V30 1629 C 162.242 -1.72069 3.13252 0
M  V30 1630 C 161.908 -0.936878 4.41059 0
M  V30 1631 C 160.57 -0.720545 4.75775 0
M  V30 1632 C 162.922 -0.386919 5.19762 0
M  V30 1633 C 160.25 0.0568829 5.86672 0
M  V30 1634 C 162.602 0.37741 6.31473 0
M  V30 1635 C 161.266 0.604563 6.64757 0
M  V30 1636 H 160.536 -0.325844 0.665512 0
M  V30 1637 H 163.183 -0.155527 1.90867 0
M  V30 1638 H 161.488 -2.52496 2.99588 0
M  V30 1639 H 163.185 -2.27844 3.29982 0
M  V30 1640 H 159.775 -1.11553 4.13828 0
M  V30 1641 H 163.959 -0.541398 4.93338 0
M  V30 1642 H 159.215 0.242635 6.10918 0
M  V30 1643 H 163.389 0.810825 6.91664 0
M  V30 1644 H 161.016 1.20885 7.50527 0
M  V30 1645 N 162.591 -1.51276 -0.441967 0
M  V30 1646 C 164.002 -1.56244 -1.02199 0
M  V30 1647 C 164.353 -0.383149 -1.92422 0
M  V30 1648 O 163.478 0.500613 -2.1053 0
M  V30 1649 C 164.073 -2.83162 -1.86024 0
M  V30 1650 C 162.632 -2.90716 -2.39084 0
M  V30 1651 C 161.779 -2.50858 -1.18175 0
M  V30 1652 H 164.73 -1.5712 -0.223416 0
M  V30 1653 H 164.751 -2.66663 -2.71425 0
M  V30 1654 H 164.263 -3.68974 -1.20331 0
M  V30 1655 H 162.364 -2.09323 -3.08244 0
M  V30 1656 H 162.477 -3.94266 -2.72198 0
M  V30 1657 H 160.841 -2.03951 -1.52565 0
M  V30 1658 H 161.624 -3.3901 -0.541001 0
M  V30 1659 N 164.069 0.697108 -1.41344 0
M  V30 1660 C 165.002 1.82134 -1.37486 0
M  V30 1661 C 165.98 1.60784 -0.242351 0
M  V30 1662 O 167.164 1.83553 -0.429012 0
M  V30 1663 C 164.291 3.18788 -1.14421 0
M  V30 1664 C 163.337 3.58932 -2.3037 0
M  V30 1665 S 164.17 3.63916 -3.92843 0
M  V30 1666 C 165.326 5.03298 -3.72078 0
M  V30 1667 H 165.559 1.85129 -2.32625 0
M  V30 1668 H 163.092 0.865671 -1.2785 0
M  V30 1669 H 165.05 3.97677 -1.018 0
M  V30 1670 H 163.711 3.13404 -0.20905 0
M  V30 1671 H 162.904 4.58202 -2.09922 0
M  V30 1672 H 162.506 2.87347 -2.39391 0
M  V30 1673 H 164.798 5.90753 -3.31688 0
M  V30 1674 H 165.741 5.28788 -4.70945 0
M  V30 1675 H 166.149 4.74764 -3.05384 0
M  V30 1676 N 165.547 1.27147 0.931209 0
M  V30 1677 C 166.51 1.09615 2.01289 0
M  V30 1678 C 167.51 0.0412581 1.60747 0
M  V30 1679 O 168.7 0.285545 1.71844 0
M  V30 1680 C 165.832 0.669447 3.34262 0
M  V30 1681 H 167.025 2.05662 2.18273 0
M  V30 1682 H 164.578 1.09885 1.11153 0
M  V30 1683 H 165.313 -0.292572 3.22978 0
M  V30 1684 H 165.098 1.43127 3.65044 0
M  V30 1685 H 166.588 0.568921 4.13706 0
M  V30 1686 N 167.025 -1.13721 1.09112 0
M  V30 1687 C 168.272 -1.84924 0.825192 0
M  V30 1688 C 168.6 -1.83347 -0.649151 0
M  V30 1689 O 167.855 -1.26449 -1.49362 0
M  V30 1690 C 168.154 -3.32861 1.30146 0
M  V30 1691 C 167.82 -3.54621 2.78486 0
M  V30 1692 C 166.482 -3.60268 3.18999 0
M  V30 1693 C 168.834 -3.62855 3.74146 0
M  V30 1694 C 166.162 -3.71679 4.53951 0
M  V30 1695 C 168.514 -3.75793 5.08883 0
M  V30 1696 C 167.178 -3.79692 5.4899 0
M  V30 1697 H 166.448 -0.676684 0.301959 0
M  V30 1698 H 169.095 -1.3428 1.36533 0
M  V30 1699 H 167.4 -3.85835 0.681064 0
M  V30 1700 H 169.097 -3.86395 1.07236 0
M  V30 1701 H 165.687 -3.50879 2.46134 0
M  V30 1702 H 169.871 -3.57775 3.43963 0
M  V30 1703 H 165.127 -3.72963 4.84467 0
M  V30 1704 H 169.301 -3.81107 5.82864 0
M  V30 1705 H 166.928 -3.88287 6.53558 0
M  V30 1706 N 168.503 -0.877838 -1.30888 0
M  V30 1707 C 169.731 -0.507414 -2.00581 0
M  V30 1708 C 170.146 0.902216 -1.65848 0
M  V30 1709 O 169.503 1.59225 -0.891831 0
M  V30 1710 C 169.554 -0.664162 -3.55347 0
M  V30 1711 O 169.275 -2.01829 -3.8884 0
M  V30 1712 C 170.776 -0.295787 -4.42312 0
M  V30 1713 H 167.996 -0.196866 -0.641471 0
M  V30 1714 H 170.54 -1.18117 -1.66939 0
M  V30 1715 H 168.695 -0.0378619 -3.87381 0
M  V30 1716 H 169.109 -2.03174 -4.8355 0
M  V30 1717 H 170.583 -0.456388 -5.5011 0
M  V30 1718 H 171.06 0.765663 -4.32475 0
M  V30 1719 H 171.666 -0.898113 -4.15709 0
M  V30 1720 N 169.982 1.44106 -0.638065 0
M  V30 1721 C 170.945 2.29138 0.0531013 0
M  V30 1722 C 171.945 1.41409 0.765506 0
M  V30 1723 O 173.135 1.63206 0.609046 0
M  V30 1724 C 170.267 3.23144 1.08584 0
M  V30 1725 H 171.46 2.91739 -0.694883 0
M  V30 1726 H 169.013 1.51134 -0.398538 0
M  V30 1727 H 169.748 2.65408 1.86357 0
M  V30 1728 H 169.533 3.87804 0.578852 0
M  V30 1729 H 171.023 3.87004 1.56899 0
M  V30 1730 N 171.46 0.379036 1.52974 0
M  V30 1731 C 172.688 -0.20679 2.05864 0
M  V30 1732 C 173.103 -1.41356 1.25155 0
M  V30 1733 O 172.46 -1.8009 0.295588 0
M  V30 1734 C 172.511 -0.587045 3.56702 0
M  V30 1735 O 172.232 0.571776 4.34353 0
M  V30 1736 C 173.733 -1.22983 4.25899 0
M  V30 1737 H 170.953 -0.0336123 0.670158 0
M  V30 1738 H 173.497 0.541298 1.97206 0
M  V30 1739 H 171.652 -1.28504 3.65466 0
M  V30 1740 H 172.066 0.261544 5.23847 0
M  V30 1741 H 173.54 -1.44635 5.32715 0
M  V30 1742 H 174.017 -2.19416 3.80465 0
M  V30 1743 H 174.623 -0.572892 4.21424 0
M  V30 1744 N 172.938 -1.57226 0.108567 0
M  V30 1745 C 173.871 -2.10447 -0.882464 0
M  V30 1746 C 174.849 -1.01829 -1.26766 0
M  V30 1747 O 176.033 -1.29415 -1.37054 0
M  V30 1748 C 173.16 -2.59258 -2.17952 0
M  V30 1749 C 172.206 -3.79662 -1.94318 0
M  V30 1750 S 173.039 -5.22586 -1.16892 0
M  V30 1751 C 174.195 -5.74758 -2.47799 0
M  V30 1752 H 174.428 -2.94178 -0.429745 0
M  V30 1753 H 171.961 -1.54043 -0.105 0
M  V30 1754 H 173.919 -2.88036 -2.92482 0
M  V30 1755 H 172.58 -1.75728 -2.60343 0
M  V30 1756 H 171.773 -4.11928 -2.90399 0
M  V30 1757 H 171.375 -3.51446 -1.27913 0
M  V30 1758 H 173.667 -5.83846 -3.43701 0
M  V30 1759 H 174.61 -6.73027 -2.20093 0
M  V30 1760 H 175.018 -5.02763 -2.56689 0
M  V30 1761 N 174.416 0.165178 -1.56732 0
M  V30 1762 C 175.346 1.20651 -1.99914 0
M  V30 1763 C 176.327 1.45827 -0.875705 0
M  V30 1764 O 177.512 1.57057 -1.14223 0
M  V30 1765 C 174.642 2.54401 -2.36427 0
M  V30 1766 C 173.596 2.43782 -3.51787 0
M  V30 1767 C 172.922 3.82078 -3.7406 0
M  V30 1768 C 174.222 1.93732 -4.85041 0
M  V30 1769 H 175.916 0.847534 -2.87154 0
M  V30 1770 H 173.462 0.40625 -1.38151 0
M  V30 1771 H 175.415 3.27458 -2.65234 0
M  V30 1772 H 174.139 2.92098 -1.46103 0
M  V30 1773 H 172.798 1.73178 -3.23117 0
M  V30 1774 H 172.446 4.17179 -2.81017 0
M  V30 1775 H 172.146 3.7584 -4.51684 0
M  V30 1776 H 173.67 4.56712 -4.05274 0
M  V30 1777 H 175.084 2.56569 -5.12684 0
M  V30 1778 H 173.481 1.98428 -5.66345 0
M  V30 1779 H 174.551 0.891962 -4.76626 0
M  V30 1780 N 175.894 1.51508 0.433938 0
M  V30 1781 C 176.857 1.72473 1.50949 0
M  V30 1782 C 177.857 0.594725 1.49398 0
M  V30 1783 O 179.047 0.862315 1.5136 0
M  V30 1784 C 176.179 1.78431 2.90474 0
M  V30 1785 H 177.372 2.68467 1.33662 0
M  V30 1786 H 174.925 1.41549 0.662836 0
M  V30 1787 H 175.66 0.842645 3.13161 0
M  V30 1788 H 175.445 2.60558 2.93005 0
M  V30 1789 H 176.935 1.96479 3.68491 0
M  V30 1790 N 177.372 -0.689602 1.41712 0
M  V30 1791 C 178.618 -1.45041 1.42599 0
M  V30 1792 C 178.973 -1.92366 0.0363764 0
M  V30 1793 O 178.266 -1.67022 -0.938844 0
M  V30 1794 C 178.46 -2.67298 2.37247 0
M  V30 1795 C 178.289 -2.31935 3.85274 0
M  V30 1796 C 177.059 -2.2201 4.53916 0
M  V30 1797 C 179.257 -1.94526 4.76093 0
M  V30 1798 N 177.239 -1.79594 5.87043 0
M  V30 1799 C 178.61 -1.62915 5.98213 0
M  V30 1800 C 180.665 -1.81388 4.63684 0
M  V30 1801 C 179.368 -1.19486 7.09306 0
M  V30 1802 C 181.394 -1.39364 5.74745 0
M  V30 1803 C 180.756 -1.08668 6.95967 0
M  V30 1804 H 176.855 -0.527806 0.577014 0
M  V30 1805 H 179.439 -0.797266 1.77628 0
M  V30 1806 H 177.61 -3.30325 2.04304 0
M  V30 1807 H 179.342 -3.33806 2.28814 0
M  V30 1808 H 176.097 -2.406 4.07932 0
M  V30 1809 H 176.521 -1.60851 6.57614 0
M  V30 1810 H 181.163 -2.03772 3.70455 0
M  V30 1811 H 178.881 -0.958477 8.02396 0
M  V30 1812 H 182.467 -1.2974 5.6715 0
M  V30 1813 H 181.347 -0.766417 7.80446 0
M  V30 1814 N 178.85 -1.27639 -0.924453 0
M  V30 1815 C 180.098 -1.13941 -1.66918 0
M  V30 1816 C 180.419 0.314589 -1.92446 0
M  V30 1817 O 179.689 1.21964 -1.53303 0
M  V30 1818 H 178.269 -0.418678 -0.618642 0
M  V30 1819 H 180.931 -1.60213 -1.10985 0
M  V30 1820 H 180.027 -1.67094 -2.63602 0
M  V30 1821 N 180.328 1.1314 -1.09713 0
M  V30 1822 C 181.291 2.16831 -0.742751 0
M  V30 1823 C 182.291 1.59159 0.229129 0
M  V30 1824 O 183.481 1.74199 0.00693237 0
M  V30 1825 C 180.613 3.40756 -0.0989168 0
M  V30 1826 H 181.806 2.49695 -1.66109 0
M  V30 1827 H 179.359 1.2802 -0.896699 0
M  V30 1828 H 180.094 3.13485 0.830514 0
M  V30 1829 H 179.879 3.83888 -0.798265 0
M  V30 1830 H 181.369 4.17386 0.133524 0
M  V30 1831 N 181.806 0.884767 1.30421 0
M  V30 1832 C 183.055 0.499164 1.95426 0
M  V30 1833 C 183.368 -0.95645 1.70621 0
M  V30 1834 O 184.574 -1.44889 2.29607 0
M  V30 1835 C 183.03 0.84177 3.49917 0
M  V30 1836 C 182.638 2.31514 3.83543 0
M  V30 1837 C 184.382 0.525355 4.21237 0
M  V30 1838 C 182.289 2.59939 5.31212 0
M  V30 1839 H 181.219 0.182944 0.73147 0
M  V30 1840 H 183.87 1.07971 1.48373 0
M  V30 1841 H 182.252 0.190311 3.95542 0
M  V30 1842 H 183.426 3.0109 3.48829 0
M  V30 1843 H 181.741 2.59907 3.25326 0
M  V30 1844 H 184.338 0.714762 5.29901 0
M  V30 1845 H 184.681 -0.535222 4.12845 0
M  V30 1846 H 185.214 1.134 3.81294 0
M  V30 1847 H 181.953 3.64736 5.44654 0
M  V30 1848 H 181.473 1.94972 5.67227 0
M  V30 1849 H 183.152 2.45429 5.98643 0
M  V30 1850 N 183.284 -1.43765 0.645699 0
M  V30 1851 C 184.194 -2.34544 -0.0512957 0
M  V30 1852 C 185.21 -1.53455 -0.82022 0
M  V30 1853 O 186.386 -1.86133 -0.769176 0
M  V30 1854 C 183.451 -3.31636 -1.01087 0
M  V30 1855 C 182.512 -4.2863 -0.239712 0
M  V30 1856 C 181.745 -5.21084 -1.15358 0
M  V30 1857 O 181.968 -5.1779 -2.39269 0
M  V30 1858 O 180.902 -5.98593 -0.630038 0
M  V30 1859 H 184.728 -2.95624 0.695718 0
M  V30 1860 H 182.313 -1.43781 0.405882 0
M  V30 1861 H 184.195 -3.9136 -1.56254 0
M  V30 1862 H 182.87 -2.73069 -1.73824 0
M  V30 1863 H 181.777 -3.72408 0.355356 0
M  V30 1864 H 183.11 -4.90157 0.447936 0
M  V30 1865 N 184.763 -0.387143 -1.52771 0
M  V30 1866 C 185.988 0.198407 -2.06449 0
M  V30 1867 C 186.413 1.39918 -1.25716 0
M  V30 1868 O 185.771 1.79099 -0.281657 0
M  V30 1869 C 185.819 0.548893 -3.56398 0
M  V30 1870 O 184.923 1.64315 -3.78252 0
M  V30 1871 H 184.264 0.0237731 -0.663574 0
M  V30 1872 H 186.794 -0.553989 -1.96957 0
M  V30 1873 H 186.804 0.813812 -3.99801 0
M  V30 1874 H 185.479 -0.329005 -4.14597 0
M  V30 1875 H 184.056 1.37211 -3.46738 0
M  V30 1876 N 186.241 1.57166 -0.116904 0
M  V30 1877 C 187.652 1.82169 0.408809 0
M  V30 1878 C 188.003 1.03393 1.66746 0
M  V30 1879 O 187.128 0.269886 2.1471 0
M  V30 1880 C 187.723 3.30429 0.748466 0
M  V30 1881 C 186.282 3.5612 1.21882 0
M  V30 1882 C 185.429 2.76374 0.226452 0
M  V30 1883 H 188.38 1.5497 -0.342063 0
M  V30 1884 H 188.401 3.44943 1.60607 0
M  V30 1885 H 187.913 3.87737 -0.167784 0
M  V30 1886 H 186.014 3.04168 2.15204 0
M  V30 1887 H 186.127 4.64705 1.16559 0
M  V30 1888 H 184.491 2.44515 0.713063 0
M  V30 1889 H 185.274 3.3644 -0.682859 0
M  V30 1890 N 187.719 -0.156864 1.56817 0
M  V30 1891 C 188.629 -1.2136 2.00771 0
M  V30 1892 C 189.645 -1.47598 0.921459 0
M  V30 1893 O 190.821 -1.59462 1.2302 0
M  V30 1894 C 187.886 -2.52943 2.37109 0
M  V30 1895 C 186.947 -2.34439 3.59634 0
M  V30 1896 C 186.18 -3.59748 3.94229 0
M  V30 1897 O 186.403 -4.65526 3.29609 0
M  V30 1898 O 185.337 -3.52998 4.8752 0
M  V30 1899 H 189.163 -0.870468 2.90958 0
M  V30 1900 H 186.748 -0.36484 1.44877 0
M  V30 1901 H 188.63 -3.30538 2.61386 0
M  V30 1902 H 187.305 -2.86806 1.5008 0
M  V30 1903 H 186.212 -1.54828 3.40557 0
M  V30 1904 H 187.545 -2.05496 4.4725 0
M  V30 1905 N 189.197 -1.51736 -0.425897 0
M  V30 1906 C 190.445 -1.64644 -1.17204 0
M  V30 1907 C 190.766 -0.370486 -1.91448 0
M  V30 1908 O 190.036 0.614088 -1.86026 0
M  V30 1909 H 188.616 -0.606819 -0.435638 0
M  V30 1910 H 191.278 -1.88713 -0.487177 0
M  V30 1911 H 190.374 -2.47958 -1.89534 0
M  V30 1912 N 190.675 0.682077 -1.42076 0
M  V30 1913 C 191.905 1.46844 -1.45329 0
M  V30 1914 C 192.313 1.89102 -0.0609328 0
M  V30 1915 O 191.656 1.58238 0.933082 0
M  V30 1916 C 191.718 2.75375 -2.31104 0
M  V30 1917 C 191.382 2.55238 -3.79081 0
M  V30 1918 C 192.379 2.20309 -4.70914 0
M  V30 1919 C 190.064 2.70459 -4.2327 0
M  V30 1920 C 192.058 2.00859 -6.04925 0
M  V30 1921 C 189.745 2.50624 -5.57343 0
M  V30 1922 C 190.743 2.15876 -6.47986 0
M  V30 1923 O 190.431 1.96227 -7.79583 0
M  V30 1924 H 190.163 0.4586 -0.496651 0
M  V30 1925 H 192.717 0.846131 -1.87162 0
M  V30 1926 H 190.947 3.40061 -1.84107 0
M  V30 1927 H 192.636 3.37231 -2.25898 0
M  V30 1928 H 193.402 2.08153 -4.38061 0
M  V30 1929 H 189.281 2.96485 -3.53012 0
M  V30 1930 H 192.825 1.7366 -6.75639 0
M  V30 1931 H 188.722 2.62375 -5.89771 0
M  V30 1932 H 189.49 2.10883 -7.90867 0
M  V30 1933 N 192.153 1.28127 0.917671 0
M  V30 1934 C 193.402 1.14432 1.66097 0
M  V30 1935 C 193.715 -0.307247 1.93172 0
M  V30 1936 O 194.921 -0.565259 2.65551 0
M  V30 1937 C 193.377 2.00015 2.99202 0
M  V30 1938 C 192.985 3.49889 2.79789 0
M  V30 1939 C 194.729 1.94996 3.77064 0
M  V30 1940 C 192.636 4.27636 4.08511 0
M  V30 1941 H 191.566 0.424662 0.62304 0
M  V30 1942 H 194.217 1.52628 1.01868 0
M  V30 1943 H 192.599 1.54672 3.64544 0
M  V30 1944 H 193.773 4.03162 2.23152 0
M  V30 1945 H 192.088 3.56392 2.15345 0
M  V30 1946 H 194.685 2.50354 4.72469 0
M  V30 1947 H 195.028 0.925819 4.05875 0
M  V30 1948 H 195.561 2.38287 3.18534 0
M  V30 1949 H 192.3 5.30615 3.84874 0
M  V30 1950 H 191.82 3.79137 4.64774 0
M  V30 1951 H 193.499 4.37346 4.76799 0
M  V30 1952 N 193.631 -1.12557 1.10312 0
M  V30 1953 C 195.047 -1.36036 0.834649 0
M  V30 1954 C 195.247 -1.93946 -0.546539 0
M  V30 1955 O 194.303 -2.16484 -1.29966 0
M  V30 1956 C 195.616 -2.30312 1.9333 0
M  V30 1957 C 197.164 -2.43906 1.9616 0
M  V30 1958 C 197.639 -3.41496 3.05195 0
M  V30 1959 N 199.13 -3.49053 3.04494 0
M  V30 1960 C 199.865 -4.24471 3.85502 0
M  V30 1961 N 199.361 -5.02966 4.76442 0
M  V30 1962 N 201.154 -4.19864 3.73725 0
M  V30 1963 H 193.305 -0.733246 1.99342 0
M  V30 1964 H 195.568 -0.385234 0.866198 0
M  V30 1965 H 195.274 -1.94933 2.92735 0
M  V30 1966 H 195.148 -3.30421 1.81939 0
M  V30 1967 H 197.535 -2.78567 0.973886 0
M  V30 1968 H 197.616 -1.4369 2.11629 0
M  V30 1969 H 197.26 -3.07565 4.04186 0
M  V30 1970 H 197.19 -4.41539 2.86968 0
M  V30 1971 H 199.681 -2.93053 2.38596 0
M  V30 1972 H 199.994 -5.57846 5.34815 0
M  V30 1973 H 198.339 -5.02167 4.80472 0
M  V30 1974 H 201.53 -3.57623 3.02032 0
M  V30 1975 H 201.703 -4.78386 4.37093 0
M  V30 1976 N 195.109 -0.891671 -1.2995 0
M  V30 1977 C 196.334 -0.527932 -2.00568 0
M  V30 1978 C 196.759 0.877969 -1.66353 0
M  V30 1979 O 196.117 1.58301 -0.883762 0
M  V30 1980 C 196.165 -0.717745 -3.53385 0
M  V30 1981 O 195.269 0.233376 -4.11739 0
M  V30 1982 H 194.61 -0.20722 -0.630837 0
M  V30 1983 H 197.14 -1.20105 -1.65638 0
M  V30 1984 H 197.15 -0.619307 -4.03272 0
M  V30 1985 H 195.825 -1.74276 -3.77625 0
M  V30 1986 H 194.402 0.0880706 -3.72796 0
M  V30 1987 N 196.587 1.43421 -0.653314 0
M  V30 1988 C 197.835 2.01414 -0.166415 0
M  V30 1989 C 198.156 1.51803 1.22397 0
M  V30 1990 O 197.426 0.730693 1.81763 0
M  V30 1991 H 196.006 0.744703 -0.0585319 0
M  V30 1992 H 198.668 1.75629 -0.845003 0
M  V30 1993 H 197.764 3.11734 -0.151111 0
M  V30 1994 N 198.065 0.39524 1.52563 0
M  V30 1995 C 198.997 -0.472201 2.24283 0
M  V30 1996 C 200.01 -1.02178 1.26742 0
M  V30 1997 O 201.199 -0.923097 1.52778 0
M  V30 1998 C 198.299 -1.66775 2.95024 0
M  V30 1999 C 197.472 -1.2445 4.19322 0
M  V30 2000 C 196.531 -2.30539 4.7301 0
M  V30 2001 O 195.557 -1.91702 5.35947 0
M  V30 2002 N 196.759 -3.6253 4.53379 0
M  V30 2003 H 199.524 0.142282 2.99362 0
M  V30 2004 H 197.085 0.2219 1.60372 0
M  V30 2005 H 199.077 -2.37283 3.27839 0
M  V30 2006 H 197.647 -2.18845 2.23217 0
M  V30 2007 H 196.867 -0.368069 3.92478 0
M  V30 2008 H 198.155 -0.938457 5.0007 0
M  V30 2009 H 197.553 -3.96841 4.03154 0
M  V30 2010 H 196.11 -4.29055 4.90668 0
M  V30 2011 N 199.544 -1.57102 0.125237 0
M  V30 2012 C 200.477 -2.11371 -0.860094 0
M  V30 2013 C 201.455 -1.03168 -1.25679 0
M  V30 2014 O 202.639 -1.30862 -1.35674 0
M  V30 2015 C 199.766 -2.61555 -2.1519 0
M  V30 2016 C 198.812 -3.81701 -1.9028 0
M  V30 2017 S 199.645 -5.23797 -1.11343 0
M  V30 2018 C 200.801 -5.77353 -2.41689 0
M  V30 2019 H 201.034 -2.94617 -0.39852 0
M  V30 2020 H 198.567 -1.54145 -0.0886555 0
M  V30 2021 H 200.525 -2.91122 -2.89411 0
M  V30 2022 H 199.186 -1.78479 -2.58465 0
M  V30 2023 H 198.379 -4.14985 -2.86014 0
M  V30 2024 H 197.981 -3.52783 -1.24178 0
M  V30 2025 H 200.273 -5.87458 -3.37489 0
M  V30 2026 H 201.216 -6.75323 -2.12942 0
M  V30 2027 H 201.624 -5.05457 -2.51342 0
M  V30 2028 N 201.022 0.148545 -1.56898 0
M  V30 2029 C 202.433 0.708766 -1.72723 0
M  V30 2030 C 202.784 1.81734 -0.739395 0
M  V30 2031 O 201.909 2.16194 0.0943169 0
M  V30 2032 C 202.504 1.29245 -3.13179 0
M  V30 2033 C 201.063 1.79925 -3.30611 0
M  V30 2034 C 200.21 0.687111 -2.68652 0
M  V30 2035 H 203.161 -0.0771063 -1.58513 0
M  V30 2036 H 203.182 2.16224 -3.13093 0
M  V30 2037 H 202.694 0.485382 -3.85053 0
M  V30 2038 H 200.795 2.63203 -2.63732 0
M  V30 2039 H 200.908 1.92903 -4.38549 0
M  V30 2040 H 199.272 1.11335 -2.29078 0
M  V30 2041 H 200.055 -0.108483 -3.43129 0
M  V30 2042 N 202.5 1.5196 0.417844 0
M  V30 2043 C 203.73 1.69181 1.18581 0
M  V30 2044 C 204.138 0.397104 1.84986 0
M  V30 2045 O 203.481 -0.636011 1.72339 0
M  V30 2046 C 203.543 2.76497 2.29759 0
M  V30 2047 C 203.207 4.18514 1.83563 0
M  V30 2048 C 204.204 5.02648 1.32821 0
M  V30 2049 C 201.889 4.64708 1.90661 0
M  V30 2050 C 203.883 6.31044 0.897894 0
M  V30 2051 C 201.57 5.93096 1.47241 0
M  V30 2052 C 202.568 6.76093 0.968891 0
M  V30 2053 O 202.256 8.02078 0.540924 0
M  V30 2054 H 201.988 0.570457 0.362705 0
M  V30 2055 H 204.542 1.99249 0.498885 0
M  V30 2056 H 202.772 2.41786 3.01789 0
M  V30 2057 H 204.461 2.82403 2.91553 0
M  V30 2058 H 205.227 4.68154 1.26716 0
M  V30 2059 H 201.106 4.00216 2.28797 0
M  V30 2060 H 204.65 6.95776 0.504192 0
M  V30 2061 H 200.547 6.271 1.53022 0
M  V30 2062 H 201.315 8.15794 0.66502 0
M  V30 2063 N 203.978 -0.674533 1.42435 0
M  V30 2064 C 204.908 -1.80009 1.48724 0
M  V30 2065 C 205.889 -1.6659 0.343793 0
M  V30 2066 O 207.074 -1.86007 0.558137 0
M  V30 2067 C 204.204 -3.18306 1.38919 0
M  V30 2068 C 203.158 -3.46461 2.51294 0
M  V30 2069 C 202.484 -4.84335 2.26547 0
M  V30 2070 C 203.784 -3.43328 3.93603 0
M  V30 2071 H 205.478 -1.75004 2.42928 0
M  V30 2072 H 203.024 -0.840533 1.16923 0
M  V30 2073 H 204.977 -3.9678 1.41927 0
M  V30 2074 H 203.701 -3.2399 0.412094 0
M  V30 2075 H 202.36 -2.70348 2.47604 0
M  V30 2076 H 202.008 -4.86669 1.2713 0
M  V30 2077 H 201.708 -5.04136 3.01861 0
M  V30 2078 H 203.232 -5.65094 2.31304 0
M  V30 2079 H 204.646 -4.11772 3.98894 0
M  V30 2080 H 203.043 -3.74664 4.68771 0
M  V30 2081 H 204.113 -2.41897 4.20255 0
M  V30 2082 N 205.456 -1.28612 -0.910864 0
M  V30 2083 C 206.403 -1.12786 -2.01365 0
M  V30 2084 C 207.373 -0.024201 -1.66082 0
M  V30 2085 O 208.558 -0.189667 -1.89855 0
M  V30 2086 C 205.698 -0.798743 -3.35729 0
M  V30 2087 C 204.811 -1.98173 -3.83864 0
M  V30 2088 C 203.946 -1.59298 -5.06752 0
M  V30 2089 C 202.985 -2.74245 -5.47226 0
M  V30 2090 N 202.122 -2.35842 -6.61304 0
M  V30 2091 H 206.962 -2.07142 -2.14234 0
M  V30 2092 H 204.499 -1.03093 -1.0493 0
M  V30 2093 H 206.457 -0.588662 -4.13026 0
M  V30 2094 H 205.087 0.10789 -3.2262 0
M  V30 2095 H 204.139 -2.30386 -3.02699 0
M  V30 2096 H 205.451 -2.84343 -4.09818 0
M  V30 2097 H 204.605 -1.34513 -5.916 0
M  V30 2098 H 203.344 -0.702618 -4.82612 0
M  V30 2099 H 202.349 -2.99725 -4.60918 0
M  V30 2100 H 203.574 -3.63928 -5.73353 0
M  V30 2101 H 201.52 -1.49279 -6.38789 0
M  V30 2102 H 201.437 -3.15546 -6.86998 0
M  V30 2103 H 202.705 -2.14348 -7.4945 0
M  V30 2104 N 206.934 1.1197 -1.10907 0
M  V30 2105 C 208.211 1.79959 -0.766432 0
M  V30 2106 C 208.591 1.97466 0.746363 0
M  V30 2107 O 207.939 1.55491 1.67436 0
M  V30 2108 C 208.149 3.14009 -1.52314 0
M  V30 2109 C 209.497 3.89134 -1.69883 0
M  V30 2110 O 210.521 3.2368 -1.48692 0
M  V30 2111 O 209.38 5.06572 -2.05054 0
M  V30 2112 H 206.474 0.779208 -0.277062 0
M  V30 2113 H 209.02 1.18762 -1.21217 0
M  V30 2114 H 207.792 2.96587 -2.55249 0
M  V30 2115 H 207.415 3.82915 -1.07059 0
M  V30 2116 N 208.412 0.89855 1.29475 0
M  V30 2117 C 209.36 0.365253 2.29714 0
M  V30 2118 C 210.354 -0.534993 1.6073 0
M  V30 2119 O 211.56 -0.417921 1.75081 0
M  V30 2120 H 207.935 0.0994853 0.74539 0
M  V30 2121 H 209.906 1.22406 2.72138 0
M  V30 2122 C 208.655 -0.393159 3.4547 0
M  V30 2123 H 207.978 0.290332 3.98744 0
M  V30 2124 H 209.418 -0.731189 4.17648 0
M  V30 2125 C 207.877 -1.59539 2.9673 0
M  V30 2126 O 208.407 -2.69469 2.97908 0
M  V30 2127 N 206.613 -1.43716 2.52575 0
M  V30 2128 H 206.16 -0.542828 2.51816 0
M  V30 2129 H 206.118 -2.24288 2.20323 0
M  V30 2130 N 209.89 -1.43072 0.660911 0
M  V30 2131 C 210.82 -2.33497 -0.0122829 0
M  V30 2132 C 211.801 -1.49903 -0.803925 0
M  V30 2133 O 212.986 -1.78546 -0.763864 0
M  V30 2134 C 210.116 -3.33363 -0.973994 0
M  V30 2135 C 209.07 -4.27003 -0.291928 0
M  V30 2136 C 208.396 -5.16967 -1.36562 0
M  V30 2137 C 209.696 -5.15816 0.820462 0
M  V30 2138 H 211.39 -2.90038 0.742873 0
M  V30 2139 H 208.936 -1.39461 0.358688 0
M  V30 2140 H 210.889 -3.95524 -1.45392 0
M  V30 2141 H 209.613 -2.75095 -1.7604 0
M  V30 2142 H 208.272 -3.66217 0.167623 0
M  V30 2143 H 207.92 -4.55034 -2.14366 0
M  V30 2144 H 207.62 -5.80441 -0.914454 0
M  V30 2145 H 209.144 -5.82003 -1.84675 0
M  V30 2146 H 210.558 -5.71742 0.422366 0
M  V30 2147 H 208.955 -5.8805 1.19656 0
M  V30 2148 H 210.025 -4.55045 1.67518 0
M  V30 2149 N 211.368 -0.403325 -1.52352 0
M  V30 2150 C 212.784 -0.0539281 -1.59509 0
M  V30 2151 C 212.984 1.43307 -1.41652 0
M  V30 2152 O 212.04 2.19924 -1.24056 0
M  V30 2153 C 213.353 -0.543654 -2.95745 0
M  V30 2154 C 214.901 -0.501125 -3.08962 0
M  V30 2155 C 215.376 -0.967267 -4.47669 0
M  V30 2156 N 216.867 -0.923849 -4.53893 0
M  V30 2157 C 217.602 -1.25578 -5.5948 0
M  V30 2158 N 217.098 -1.65889 -6.72646 0
M  V30 2159 N 218.891 -1.17613 -5.49658 0
M  V30 2160 H 211.042 -1.37123 -1.62206 0
M  V30 2161 H 213.305 -0.56294 -0.76276 0
M  V30 2162 H 213.011 -1.58275 -3.14073 0
M  V30 2163 H 212.885 0.0498042 -3.77167 0
M  V30 2164 H 215.272 0.528909 -2.90321 0
M  V30 2165 H 215.353 -1.13056 -2.2946 0
M  V30 2166 H 214.997 -1.9956 -4.67053 0
M  V30 2167 H 214.927 -0.314698 -5.25659 0
M  V30 2168 H 217.418 -0.627403 -3.72655 0
M  V30 2169 H 217.731 -1.89543 -7.49195 0
M  V30 2170 H 216.076 -1.69787 -6.73942 0
M  V30 2171 H 219.267 -0.860115 -4.6013 0
M  V30 2172 H 219.44 -1.43812 -6.3184 0
M  V30 2173 N 212.846 1.57033 -0.133567 0
M  V30 2174 C 214.092 1.96764 0.515326 0
M  V30 2175 C 214.447 1.01653 1.63353 0
M  V30 2176 O 213.74 0.0491374 1.91537 0
M  V30 2177 C 213.934 3.40674 1.08057 0
M  V30 2178 C 213.763 4.49696 0.0186522 0
M  V30 2179 C 212.533 5.03567 -0.418174 0
M  V30 2180 C 214.731 5.08536 -0.767809 0
M  V30 2181 N 212.713 5.9618 -1.46434 0
M  V30 2182 C 214.084 5.97231 -1.6648 0
M  V30 2183 C 216.139 4.9115 -0.817087 0
M  V30 2184 C 214.842 6.70401 -2.60681 0
M  V30 2185 C 216.868 5.65012 -1.74687 0
M  V30 2186 C 216.23 6.53403 -2.63141 0
M  V30 2187 H 212.329 0.765919 0.157771 0
M  V30 2188 H 214.913 1.93395 -0.22506 0
M  V30 2189 H 213.084 3.44662 1.79061 0
M  V30 2190 H 214.816 3.67495 1.69497 0
M  V30 2191 H 211.571 4.73594 -0.0229803 0
M  V30 2192 H 211.995 6.47191 -1.98678 0
M  V30 2193 H 216.637 4.22543 -0.147326 0
M  V30 2194 H 214.355 7.38245 -3.28664 0
M  V30 2195 H 217.941 5.53559 -1.79063 0
M  V30 2196 H 216.821 7.09556 -3.33917 0
M  V30 2197 N 214.325 -0.140222 1.56975 0
M  V30 2198 C 215.571 -0.852949 1.83991 0
M  V30 2199 C 215.904 -1.80512 0.716187 0
M  V30 2200 O 215.179 -1.92479 -0.279681 0
M  V30 2201 C 215.462 -1.6215 3.21527 0
M  V30 2202 C 215.315 -0.690363 4.4447 0
M  V30 2203 C 216.634 -2.58247 3.56366 0
M  V30 2204 H 213.753 -0.308634 0.669264 0
M  V30 2205 H 216.395 -0.117898 1.89634 0
M  V30 2206 H 214.545 -2.24812 3.16847 0
M  V30 2207 H 216.217 -0.0742264 4.6124 0
M  V30 2208 H 214.46 -0.000396433 4.338 0
M  V30 2209 H 215.131 -1.2643 5.37326 0
M  V30 2210 H 217.607 -2.05701 3.61699 0
M  V30 2211 H 216.483 -3.09067 4.53617 0
M  V30 2212 H 216.744 -3.39923 2.82674 0
M  V30 2213 N 215.803 -1.52179 -0.40978 0
M  V30 2214 C 216.751 -1.76086 -1.51975 0
M  V30 2215 C 217.745 -0.627964 -1.57331 0
M  V30 2216 O 218.951 -0.809993 -1.60745 0
M  V30 2217 H 215.326 -0.556829 -0.505416 0
M  V30 2218 H 217.297 -2.69077 -1.28996 0
M  V30 2219 C 216.046 -1.92799 -2.8935 0
M  V30 2220 H 215.369 -2.79392 -2.85972 0
M  V30 2221 H 216.809 -2.13527 -3.66309 0
M  V30 2222 C 215.268 -0.694923 -3.29655 0
M  V30 2223 O 215.798 0.13751 -4.01465 0
M  V30 2224 N 214.004 -0.53101 -2.85707 0
M  V30 2225 H 213.551 -1.20952 -2.27439 0
M  V30 2226 H 213.509 0.292718 -3.13034 0
M  V30 2227 N 217.281 0.66697 -1.42791 0
M  V30 2228 C 218.558 1.4234 -1.34159 0
M  V30 2229 C 218.938 2.11093 0.0172729 0
M  V30 2230 O 218.286 2.03808 1.03318 0
M  V30 2231 C 218.496 2.41942 -2.51526 0
M  V30 2232 C 219.844 3.06353 -2.93995 0
M  V30 2233 O 220.868 2.52269 -2.51473 0
M  V30 2234 O 219.727 4.04376 -3.67617 0
M  V30 2235 H 216.821 0.635277 -0.529483 0
M  V30 2236 H 219.367 0.695034 -1.54814 0
M  V30 2237 H 218.139 1.89991 -3.42081 0
M  V30 2238 H 217.762 3.22249 -2.32898 0
M  V30 2239 N 218.759 1.29093 0.90403 0
M  V30 2240 C 219.989 1.19516 1.68522 0
M  V30 2241 C 220.397 -0.24738 1.87576 0
M  V30 2242 O 219.74 -1.17798 1.40959 0
M  V30 2243 C 219.802 1.83249 3.0929 0
M  V30 2244 C 219.466 3.32531 3.13484 0
M  V30 2245 C 220.463 4.28821 2.93953 0
M  V30 2246 C 218.148 3.73656 3.35688 0
M  V30 2247 C 220.142 5.64212 2.96553 0
M  V30 2248 C 217.829 5.0917 3.37919 0
M  V30 2249 C 218.827 6.04258 3.18373 0
M  V30 2250 O 218.515 7.37298 3.20385 0
M  V30 2251 H 218.247 0.415467 0.533257 0
M  V30 2252 H 220.801 1.70912 1.13922 0
M  V30 2253 H 219.031 1.26358 3.65473 0
M  V30 2254 H 220.72 1.68054 3.69476 0
M  V30 2255 H 221.486 3.98382 2.76616 0
M  V30 2256 H 217.365 3.00101 3.49943 0
M  V30 2257 H 220.909 6.38407 2.81216 0
M  V30 2258 H 216.806 5.39256 3.54787 0
M  V30 2259 H 217.574 7.46048 3.36681 0
M  V30 2260 N 220.237 -1.11381 1.11499 0
M  V30 2261 C 221.484 -1.83132 0.864231 0
M  V30 2262 C 221.812 -1.84683 -0.610114 0
M  V30 2263 O 221.067 -1.29589 -1.46646 0
M  V30 2264 C 221.366 -3.30026 1.37177 0
M  V30 2265 C 221.032 -3.48634 2.85946 0
M  V30 2266 C 219.694 -3.53421 3.26569 0
M  V30 2267 C 222.046 -3.54837 3.81759 0
M  V30 2268 C 219.374 -3.61967 4.61733 0
M  V30 2269 C 221.726 -3.64915 5.1674 0
M  V30 2270 C 220.39 -3.67962 5.5692 0
M  V30 2271 H 219.66 -0.670127 0.316245 0
M  V30 2272 H 222.307 -1.31354 1.3935 0
M  V30 2273 H 220.612 -3.84304 0.762753 0
M  V30 2274 H 222.309 -3.84034 1.15408 0
M  V30 2275 H 218.899 -3.45579 2.53521 0
M  V30 2276 H 223.083 -3.50399 3.51474 0
M  V30 2277 H 218.339 -3.62603 4.92269 0
M  V30 2278 H 222.513 -3.68658 5.90816 0
M  V30 2279 H 220.14 -3.74336 6.61647 0
M  V30 2280 N 221.715 -0.905404 -1.28997 0
M  V30 2281 C 222.964 -0.530191 -1.94607 0
M  V30 2282 C 223.277 0.929185 -1.72121 0
M  V30 2283 O 224.483 1.41218 -2.31883 0
M  V30 2284 C 222.939 -0.897333 -3.48534 0
M  V30 2285 C 222.547 -2.37587 -3.79811 0
M  V30 2286 C 224.291 -0.592304 -4.20347 0
M  V30 2287 C 222.198 -2.68357 -5.27009 0
M  V30 2288 H 221.128 -0.194558 -0.728466 0
M  V30 2289 H 223.779 -1.10318 -1.46636 0
M  V30 2290 H 222.161 -0.253214 -3.9519 0
M  V30 2291 H 223.335 -3.06602 -3.43994 0
M  V30 2292 H 221.65 -2.6505 -3.2115 0
M  V30 2293 H 224.247 -0.798975 -5.28697 0
M  V30 2294 H 224.59 0.469474 -4.13644 0
M  V30 2295 H 225.123 -1.19452 -3.79442 0
M  V30 2296 H 221.862 -3.73355 -5.38782 0
M  V30 2297 H 221.382 -2.03971 -5.64053 0
M  V30 2298 H 223.061 -2.54922 -5.94663 0
M  V30 2299 N 223.193 1.4272 -0.668489 0
M  V30 2300 C 224.14 2.30796 0.0137489 0
M  V30 2301 C 225.11 1.4561 0.799177 0
M  V30 2302 O 226.295 1.74453 0.772702 0
M  V30 2303 C 223.435 3.31377 0.963507 0
M  V30 2304 C 222.548 4.31655 0.172569 0
M  V30 2305 C 221.683 5.19312 1.1175 0
M  V30 2306 C 220.722 6.11274 0.317886 0
M  V30 2307 N 219.859 6.91504 1.2152 0
M  V30 2308 H 224.699 2.88585 -0.743161 0
M  V30 2309 H 222.236 1.42154 -0.378226 0
M  V30 2310 H 224.194 3.88214 1.52792 0
M  V30 2311 H 222.824 2.75202 1.68712 0
M  V30 2312 H 221.876 3.76988 -0.508374 0
M  V30 2313 H 223.188 4.96779 -0.448527 0
M  V30 2314 H 222.342 5.80851 1.75206 0
M  V30 2315 H 221.081 4.5435 1.77249 0
M  V30 2316 H 220.086 5.48809 -0.329918 0
M  V30 2317 H 221.311 6.78283 -0.332917 0
M  V30 2318 H 219.257 6.29176 1.85671 0
M  V30 2319 H 219.174 7.53209 0.649036 0
M  V30 2320 H 220.442 7.57535 1.83742 0
M  V30 2321 N 224.671 0.411399 1.52136 0
M  V30 2322 C 225.634 -0.401089 2.25663 0
M  V30 2323 C 226.634 -0.971732 1.28117 0
M  V30 2324 O 227.824 -0.850254 1.52041 0
M  V30 2325 C 224.956 -1.56483 3.02863 0
M  V30 2326 H 226.149 0.24295 2.98914 0
M  V30 2327 H 223.702 0.163968 1.55438 0
M  V30 2328 H 224.437 -2.24567 2.33967 0
M  V30 2329 H 224.222 -1.16211 3.74483 0
M  V30 2330 H 225.712 -2.13951 3.58629 0
M  V30 2331 N 226.149 -1.5696 0.141893 0
M  V30 2332 C 227.099 -2.13074 -0.811383 0
M  V30 2333 C 228.083 -1.05726 -1.21288 0
M  V30 2334 O 229.275 -1.31914 -1.18015 0
M  V30 2335 C 226.404 -2.75186 -2.0525 0
M  V30 2336 C 225.49 -3.8965 -1.67432 0
M  V30 2337 N 225.881 -4.95733 -1.0041 0
M  V30 2338 C 224.179 -4.00262 -1.96739 0
M  V30 2339 C 224.88 -5.75858 -0.822345 0
M  V30 2340 N 223.856 -5.26452 -1.3546 0
M  V30 2341 H 227.658 -2.92465 -0.290031 0
M  V30 2342 H 225.172 -1.6229 -0.0598218 0
M  V30 2343 H 227.169 -3.13745 -2.74535 0
M  V30 2344 H 225.829 -1.97266 -2.57907 0
M  V30 2345 H 226.84 -5.13607 -0.665441 0
M  V30 2346 H 223.517 -3.33412 -2.51282 0
M  V30 2347 H 224.907 -6.71254 -0.294496 0
M  V30 2348 N 227.627 0.131896 -1.57047 0
M  V30 2349 C 229.038 0.690407 -1.73465 0
M  V30 2350 C 229.389 1.8094 -0.758629 0
M  V30 2351 O 228.514 2.16282 0.0713813 0
M  V30 2352 C 229.109 1.25916 -3.14532 0
M  V30 2353 C 227.668 1.76409 -3.32501 0
M  V30 2354 C 226.815 0.658579 -2.69366 0
M  V30 2355 H 229.766 -0.0939144 -1.58422 0
M  V30 2356 H 229.787 2.12892 -3.15369 0
M  V30 2357 H 229.299 0.444515 -3.85546 0
M  V30 2358 H 227.4 2.60391 -2.66509 0
M  V30 2359 H 227.513 1.88241 -4.4057 0
M  V30 2360 H 225.877 1.08899 -2.30246 0
M  V30 2361 H 226.66 -0.14487 -3.42994 0
M  V30 2362 N 229.106 1.52395 0.401703 0
M  V30 2363 C 230.331 1.70972 1.17403 0
M  V30 2364 C 230.756 0.421615 1.83314 0
M  V30 2365 O 230.114 -0.621564 1.70312 0
M  V30 2366 C 230.162 2.85151 2.20728 0
M  V30 2367 O 229.266 2.51238 3.27037 0
M  V30 2368 H 228.607 0.568927 0.342372 0
M  V30 2369 H 231.137 1.99131 0.469891 0
M  V30 2370 H 231.147 3.10279 2.64936 0
M  V30 2371 H 229.822 3.78603 1.7214 0
M  V30 2372 H 228.399 2.36808 2.88057 0
M  V30 2373 N 230.584 -0.659388 1.43143 0
M  V30 2374 C 231.995 -1.24041 1.39537 0
M  V30 2375 C 232.346 -1.95963 0.0963364 0
M  V30 2376 O 231.471 -2.00892 -0.804438 0
M  V30 2377 C 232.066 -2.25601 2.52764 0
M  V30 2378 C 230.625 -2.79195 2.52443 0
M  V30 2379 C 229.772 -1.53743 2.30778 0
M  V30 2380 H 232.723 -0.451792 1.52133 0
M  V30 2381 H 232.744 -3.07651 2.23899 0
M  V30 2382 H 232.256 -1.73226 3.47296 0
M  V30 2383 H 230.357 -3.35649 1.61773 0
M  V30 2384 H 230.47 -3.2716 3.50004 0
M  V30 2385 H 228.834 -1.80869 1.79328 0
M  V30 2386 H 229.617 -1.03312 3.27386 0
M  V30 2387 N 232.062 -1.29571 -0.897171 0
M  V30 2388 C 233.01 -1.14802 -2.02295 0
M  V30 2389 C 234.004 -0.0629637 -1.69283 0
M  V30 2390 O 235.21 -0.222945 -1.78614 0
M  V30 2391 H 231.585 -0.354692 -0.663097 0
M  V30 2392 H 233.556 -2.10108 -2.11889 0
M  V30 2393 C 232.305 -0.843966 -3.37302 0
M  V30 2394 H 231.628 -1.67093 -3.63208 0
M  V30 2395 H 233.068 -0.780672 -4.16751 0
M  V30 2396 C 231.527 0.452843 -3.33843 0
M  V30 2397 O 232.057 1.47813 -3.73516 0
M  V30 2398 N 230.263 0.459601 -2.86943 0
M  V30 2399 H 229.81 -0.375213 -2.54853 0
M  V30 2400 H 229.768 1.32726 -2.85011 0
M  V30 2401 N 233.54 1.10788 -1.12088 0
M  V30 2402 C 234.786 1.82942 -0.875226 0
M  V30 2403 C 235.119 1.84779 0.597538 0
M  V30 2404 O 234.394 1.30578 1.44152 0
M  V30 2405 C 234.677 3.29789 -1.44606 0
M  V30 2406 C 234.53 3.36307 -2.98693 0
M  V30 2407 C 235.849 4.26064 -1.10261 0
M  V30 2408 H 232.968 0.664195 -0.319397 0
M  V30 2409 H 235.61 1.29867 -1.38689 0
M  V30 2410 H 233.76 3.75118 -1.01089 0
M  V30 2411 H 235.432 2.99487 -3.50864 0
M  V30 2412 H 233.675 2.76318 -3.34411 0
M  V30 2413 H 234.346 4.39694 -3.33726 0
M  V30 2414 H 236.822 3.88951 -1.4784 0
M  V30 2415 H 235.698 5.27183 -1.52869 0
M  V30 2416 H 235.959 4.42098 -0.0142953 0
M  V30 2417 N 235.018 0.912232 1.28515 0
M  V30 2418 C 235.948 0.416403 2.29757 0
M  V30 2419 C 236.929 -0.515194 1.6211 0
M  V30 2420 O 238.114 -0.423253 1.89532 0
M  V30 2421 C 235.244 -0.34572 3.45575 0
M  V30 2422 C 234.198 0.496599 4.25109 0
M  V30 2423 C 233.524 -0.393771 5.33248 0
M  V30 2424 C 234.824 1.75307 4.92001 0
M  V30 2425 H 236.518 1.26249 2.7148 0
M  V30 2426 H 234.064 0.608515 1.30511 0
M  V30 2427 H 236.017 -0.703422 4.15488 0
M  V30 2428 H 234.741 -1.2257 3.02728 0
M  V30 2429 H 233.4 0.8368 3.56922 0
M  V30 2430 H 233.048 -1.27225 4.86644 0
M  V30 2431 H 232.748 0.166209 5.87365 0
M  V30 2432 H 234.272 -0.747389 6.06009 0
M  V30 2433 H 235.686 1.46437 5.54283 0
M  V30 2434 H 234.083 2.25534 5.56106 0
M  V30 2435 H 235.153 2.48176 4.16577 0
M  V30 2436 N 236.496 -1.42363 0.676048 0
M  V30 2437 C 237.726 -2.05561 0.206967 0
M  V30 2438 C 238.134 -1.50887 -1.14148 0
M  V30 2439 O 237.477 -0.643933 -1.72044 0
M  V30 2440 C 237.539 -3.5944 0.0659508 0
M  V30 2441 C 237.203 -4.36812 1.34331 0
M  V30 2442 C 238.2 -4.67383 2.27704 0
M  V30 2443 C 235.885 -4.76429 1.59125 0
M  V30 2444 C 237.879 -5.36509 3.44147 0
M  V30 2445 C 235.566 -5.45294 2.75857 0
M  V30 2446 C 236.564 -5.75259 3.68193 0
M  V30 2447 O 236.252 -6.42712 4.82883 0
M  V30 2448 H 235.984 -0.668872 0.0979084 0
M  V30 2449 H 238.538 -1.83467 0.923531 0
M  V30 2450 H 236.768 -3.80197 -0.706204 0
M  V30 2451 H 238.457 -4.0427 -0.363418 0
M  V30 2452 H 239.223 -4.37275 2.09799 0
M  V30 2453 H 235.102 -4.52498 0.881258 0
M  V30 2454 H 238.646 -5.59814 4.16238 0
M  V30 2455 H 234.543 -5.7482 2.93688 0
M  V30 2456 H 235.311 -6.61204 4.82444 0
M  V30 2457 N 237.974 -0.419461 -1.51915 0
M  V30 2458 C 239.22 0.153166 -2.02221 0
M  V30 2459 C 239.553 1.43907 -1.30401 0
M  V30 2460 O 238.828 1.90055 -0.413438 0
M  V30 2461 C 239.111 0.390291 -3.57979 0
M  V30 2462 C 238.964 -0.913014 -4.40436 0
M  V30 2463 C 240.283 1.16794 -4.2432 0
M  V30 2464 H 237.402 0.0541924 -0.735005 0
M  V30 2465 H 240.044 -0.554955 -1.81715 0
M  V30 2466 H 238.194 0.993491 -3.75582 0
M  V30 2467 H 239.866 -1.54882 -4.34522 0
M  V30 2468 H 238.109 -1.52168 -4.06236 0
M  V30 2469 H 238.78 -0.701361 -5.47526 0
M  V30 2470 H 241.256 0.657161 -4.10878 0
M  V30 2471 H 240.132 1.3026 -5.3322 0
M  V30 2472 H 240.393 2.19132 -3.83971 0
M  V30 2473 N 239.452 1.56882 -0.150215 0
M  V30 2474 C 240.384 2.14057 0.819286 0
M  V30 2475 C 241.397 1.09082 1.20851 0
M  V30 2476 O 242.586 1.36347 1.15203 0
M  V30 2477 C 239.686 2.65102 2.11127 0
M  V30 2478 C 238.859 3.94511 1.88891 0
M  V30 2479 C 237.918 4.30834 3.02107 0
M  V30 2480 O 236.944 4.99099 2.73659 0
M  V30 2481 N 238.146 3.90676 4.29363 0
M  V30 2482 H 240.911 2.97871 0.330618 0
M  V30 2483 H 238.472 1.61866 0.0332538 0
M  V30 2484 H 240.464 2.86411 2.85921 0
M  V30 2485 H 239.034 1.85994 2.51247 0
M  V30 2486 H 238.254 3.81795 0.981152 0
M  V30 2487 H 239.542 4.7907 1.71376 0
M  V30 2488 H 238.94 3.35677 4.55343 0
M  V30 2489 H 237.497 4.1703 5.00928 0
M  V30 2490 N 240.93 -0.123565 1.57115 0
M  V30 2491 C 242.176 -0.833386 1.84885 0
M  V30 2492 C 242.509 -1.79742 0.735292 0
M  V30 2493 O 241.784 -1.92764 -0.25925 0
M  V30 2494 C 242.067 -1.5873 3.23228 0
M  V30 2495 C 241.92 -0.643183 4.45178 0
M  V30 2496 C 243.239 -2.54453 3.59085 0
M  V30 2497 H 240.358 -0.301518 0.6725 0
M  V30 2498 H 243 -0.097778 1.89748 0
M  V30 2499 H 241.15 -2.21438 3.19214 0
M  V30 2500 H 242.822 -0.0253015 4.61293 0
M  V30 2501 H 241.065 0.0456139 4.33776 0
M  V30 2502 H 241.736 -1.20724 5.38637 0
M  V30 2503 H 244.212 -2.01853 3.63861 0
M  V30 2504 H 243.088 -3.04238 4.5687 0
M  V30 2505 H 243.349 -3.36906 2.86264 0
M  V30 2506 N 242.408 -1.52605 -0.393616 0
M  V30 2507 C 243.656 -1.67093 -1.13685 0
M  V30 2508 C 243.977 -0.411011 -1.90619 0
M  V30 2509 O 243.247 0.574491 -1.87287 0
M  V30 2510 H 241.827 -0.615923 -0.422668 0
M  V30 2511 H 244.489 -1.89704 -0.447039 0
M  V30 2512 H 243.585 -2.51922 -1.84232 0
M  V30 2513 N 243.887 0.651787 -1.4349 0
M  V30 2514 C 245.164 1.40909 -1.35661 0
M  V30 2515 C 245.544 2.11099 -0.00511733 0
M  V30 2516 O 244.892 2.04892 1.0115 0
M  V30 2517 C 245.102 2.3926 -2.54078 0
M  V30 2518 C 246.45 3.03217 -2.97228 0
M  V30 2519 O 247.474 2.49588 -2.54135 0
M  V30 2520 O 246.333 4.00455 -3.71885 0
M  V30 2521 H 243.427 0.629625 -0.536191 0
M  V30 2522 H 245.973 0.678575 -1.55542 0
M  V30 2523 H 244.745 1.86352 -3.44076 0
M  V30 2524 H 244.368 3.1976 -2.36303 0
M  V30 2525 N 245.365 1.30045 0.890287 0
M  V30 2526 C 246.613 1.18327 1.63839 0
M  V30 2527 C 246.934 -0.263455 1.93212 0
M  V30 2528 O 246.204 -1.17856 1.56482 0
M  V30 2529 H 244.784 0.434933 0.607324 0
M  V30 2530 H 247.446 1.631 1.06698 0
M  V30 2531 H 246.542 1.74024 2.59079 0
M  V30 2532 N 246.843 -1.10192 1.12674 0
M  V30 2533 C 248.12 -1.78717 0.794965 0
M  V30 2534 C 248.5 -1.98628 -0.714853 0
M  V30 2535 O 247.848 -1.58135 -1.64941 0
M  V30 2536 C 248.058 -3.11546 1.5729 0
M  V30 2537 C 249.406 -3.86382 1.76052 0
M  V30 2538 O 250.43 -3.21274 1.53823 0
M  V30 2539 O 249.289 -5.03246 2.13087 0
M  V30 2540 H 246.383 -0.774702 0.289423 0
M  V30 2541 H 248.929 -1.16819 1.23091 0
M  V30 2542 H 247.701 -2.92489 2.59935 0
M  V30 2543 H 247.324 -3.81164 1.13137 0
M  V30 2544 N 248.321 -0.919034 -1.28029 0
M  V30 2545 C 249.284 -0.416182 -2.2539 0
M  V30 2546 C 250.284 0.460438 -1.54067 0
M  V30 2547 O 251.474 0.262744 -1.72207 0
M  V30 2548 C 248.606 0.402707 -3.38513 0
M  V30 2549 H 249.799 -1.27629 -2.71387 0
M  V30 2550 H 247.352 -0.698919 -1.39803 0
M  V30 2551 H 248.087 1.282 -2.97885 0
M  V30 2552 H 247.872 -0.225698 -3.9145 0
M  V30 2553 H 249.362 0.745191 -4.10897 0
M  V30 2554 N 249.799 1.42003 -0.683588 0
M  V30 2555 C 251.076 1.95112 -0.138075 0
M  V30 2556 C 251.456 1.62359 1.34918 0
M  V30 2557 O 250.804 0.924311 2.08971 0
M  V30 2558 C 251.014 3.46505 -0.416581 0
M  V30 2559 C 252.362 4.23254 -0.337834 0
M  V30 2560 O 253.386 3.54468 -0.35082 0
M  V30 2561 O 252.245 5.45743 -0.287596 0
M  V30 2562 H 249.339 0.826961 -0.00797996 0
M  V30 2563 H 251.885 1.51784 -0.758924 0
M  V30 2564 H 250.657 3.63582 -1.4465 0
M  V30 2565 H 250.28 3.969 0.235839 0
M  V30 2566 N 251.277 0.427512 1.51691 0
M  V30 2567 C 252.227 -0.406604 2.24345 0
M  V30 2568 C 253.211 -0.998276 1.26187 0
M  V30 2569 O 254.403 -0.918045 1.51331 0
M  V30 2570 C 251.532 -1.51266 3.08177 0
M  V30 2571 C 250.618 -0.930868 4.13758 0
M  V30 2572 N 251.009 -0.0773552 5.05741 0
M  V30 2573 C 249.307 -1.19948 4.29568 0
M  V30 2574 C 250.008 0.248344 5.8117 0
M  V30 2575 N 248.984 -0.365535 5.4237 0
M  V30 2576 H 252.786 0.251581 2.92821 0
M  V30 2577 H 250.3 0.239003 1.60632 0
M  V30 2578 H 252.297 -2.123 3.58796 0
M  V30 2579 H 250.957 -2.17328 2.41244 0
M  V30 2580 H 251.968 0.288351 5.17097 0
M  V30 2581 H 248.645 -1.85832 3.73862 0
M  V30 2582 H 250.035 0.942286 6.6526 0
M  V30 2583 N 252.755 -1.56801 0.158532 0
M  V30 2584 C 253.702 -2.17337 -0.776729 0
M  V30 2585 C 254.672 -1.1096 -1.23601 0
M  V30 2586 O 255.857 -1.39054 -1.30647 0
M  V30 2587 C 252.997 -2.80822 -2.00582 0
M  V30 2588 C 252.11 -4.01624 -1.59129 0
M  V30 2589 C 251.245 -4.53072 -2.77306 0
M  V30 2590 C 250.284 -5.66314 -2.32282 0
M  V30 2591 N 249.421 -6.12329 -3.43508 0
M  V30 2592 H 254.261 -2.96918 -0.253701 0
M  V30 2593 H 251.798 -1.46661 -0.113504 0
M  V30 2594 H 253.756 -3.15779 -2.72652 0
M  V30 2595 H 252.386 -2.03866 -2.50277 0
M  V30 2596 H 251.438 -3.72571 -0.767806 0
M  V30 2597 H 252.75 -4.83633 -1.2207 0
M  V30 2598 H 251.904 -4.90145 -3.57551 0
M  V30 2599 H 250.643 -3.70095 -3.17617 0
M  V30 2600 H 249.648 -5.28806 -1.5048 0
M  V30 2601 H 250.873 -6.51085 -1.93043 0
M  V30 2602 H 248.819 -5.32284 -3.83418 0
M  V30 2603 H 248.736 -6.89293 -3.105 0
M  V30 2604 H 250.004 -6.5405 -4.24075 0
M  V30 2605 N 254.233 0.115231 -1.57178 0
M  V30 2606 C 255.479 0.818565 -1.86202 0
M  V30 2607 C 255.834 1.77316 -0.746785 0
M  V30 2608 O 255.127 1.89923 0.25291 0
M  V30 2609 C 255.321 1.60324 -3.19423 0
M  V30 2610 C 255.15 0.726138 -4.43799 0
M  V30 2611 C 253.92 0.379535 -5.03873 0
M  V30 2612 C 256.118 0.0420774 -5.14283 0
M  V30 2613 N 254.1 -0.507841 -6.11796 0
M  V30 2614 C 255.471 -0.704152 -6.15988 0
M  V30 2615 C 257.526 -0.0339486 -4.97888 0
M  V30 2616 C 256.229 -1.51927 -7.03072 0
M  V30 2617 C 258.255 -0.835906 -5.85463 0
M  V30 2618 C 257.617 -1.57031 -6.86673 0
M  V30 2619 H 253.716 0.276343 -0.731545 0
M  V30 2620 H 256.3 0.0821032 -1.94527 0
M  V30 2621 H 254.471 2.31072 -3.12186 0
M  V30 2622 H 256.203 2.2522 -3.36241 0
M  V30 2623 H 252.958 0.722634 -4.68054 0
M  V30 2624 H 253.382 -0.94349 -6.70393 0
M  V30 2625 H 258.024 0.519496 -4.19596 0
M  V30 2626 H 255.742 -2.08386 -7.80769 0
M  V30 2627 H 259.328 -0.89714 -5.74841 0
M  V30 2628 H 258.208 -2.18088 -7.53264 0
M  V30 2629 N 255.711 1.52812 0.385517 0
M  V30 2630 C 256.957 1.69225 1.12847 0
M  V30 2631 C 257.312 0.42864 1.87564 0
M  V30 2632 O 256.605 -0.57779 1.8268 0
M  V30 2633 C 256.799 2.86856 2.13187 0
M  V30 2634 C 256.628 4.24535 1.48325 0
M  V30 2635 C 255.398 4.89701 1.24585 0
M  V30 2636 C 257.596 5.05794 0.931501 0
M  V30 2637 N 255.578 6.11353 0.558644 0
M  V30 2638 C 256.949 6.1888 0.372552 0
M  V30 2639 C 259.004 4.90963 0.828248 0
M  V30 2640 C 257.707 7.18757 -0.279556 0
M  V30 2641 C 259.733 5.91095 0.189956 0
M  V30 2642 C 259.095 7.03489 -0.358207 0
M  V30 2643 H 255.194 0.67268 0.39878 0
M  V30 2644 H 257.778 1.9017 0.417528 0
M  V30 2645 H 255.949 2.67484 2.81614 0
M  V30 2646 H 257.681 2.92188 2.80014 0
M  V30 2647 H 254.436 4.48485 1.52178 0
M  V30 2648 H 254.86 6.76606 0.230983 0
M  V30 2649 H 259.502 4.04274 1.23784 0
M  V30 2650 H 257.22 8.05052 -0.701152 0
M  V30 2651 H 260.806 5.81694 0.111264 0
M  V30 2652 H 259.686 7.79642 -0.844314 0
M  V30 2653 N 257.189 -0.644168 1.43834 0
M  V30 2654 C 258.437 -1.40117 1.45642 0
M  V30 2655 C 258.758 -1.94814 0.0852413 0
M  V30 2656 O 258.028 -1.74988 -0.880688 0
M  V30 2657 H 256.608 -0.52005 0.536243 0
M  V30 2658 H 259.27 -0.7591 1.7951 0
M  V30 2659 H 258.366 -2.23902 2.17427 0
M  V30 2660 N 258.668 -1.30515 -0.883378 0
M  V30 2661 C 260.079 -1.17509 -1.45081 0
M  V30 2662 C 260.43 0.223605 -1.94922 0
M  V30 2663 O 259.555 1.12041 -1.85137 0
M  V30 2664 C 260.15 -2.12715 -2.63701 0
M  V30 2665 C 258.709 -2.03682 -3.16529 0
M  V30 2666 C 257.856 -2.02706 -1.89224 0
M  V30 2667 H 260.807 -1.42762 -0.693165 0
M  V30 2668 H 260.828 -1.70891 -3.39965 0
M  V30 2669 H 260.34 -3.14505 -2.27395 0
M  V30 2670 H 258.441 -1.05039 -3.57488 0
M  V30 2671 H 258.554 -2.92146 -3.7972 0
M  V30 2672 H 256.918 -1.4753 -2.07622 0
M  V30 2673 H 257.701 -3.06229 -1.55174 0
M  V30 2674 N 260.146 1.09593 -1.13257 0
M  V30 2675 C 261.109 2.14359 -0.811358 0
M  V30 2676 C 262.109 1.59808 0.178377 0
M  V30 2677 O 263.299 1.74132 -0.0484911 0
M  V30 2678 C 260.431 3.40269 -0.207276 0
M  V30 2679 H 261.624 2.44284 -1.73969 0
M  V30 2680 H 259.177 1.25102 -0.936973 0
M  V30 2681 H 259.912 3.15969 0.73036 0
M  V30 2682 H 259.697 3.81154 -0.919992 0
M  V30 2683 H 261.187 4.176 0.000667944 0
M  V30 2684 N 261.624 0.925811 1.2754 0
M  V30 2685 C 262.534 0.428993 2.30644 0
M  V30 2686 C 263.55 -0.489387 1.66976 0
M  V30 2687 O 264.726 -0.372653 1.97922 0
M  V30 2688 C 261.791 -0.311967 3.45294 0
M  V30 2689 C 260.852 0.641098 4.24486 0
M  V30 2690 C 260.085 -0.0645955 5.33661 0
M  V30 2691 O 260.308 -1.28429 5.55754 0
M  V30 2692 O 259.242 0.606265 5.98839 0
M  V30 2693 H 263.068 1.28504 2.75173 0
M  V30 2694 H 260.653 0.691086 1.32455 0
M  V30 2695 H 262.535 -0.729972 4.15029 0
M  V30 2696 H 261.21 -1.14365 3.02824 0
M  V30 2697 H 260.117 1.10874 3.57292 0
M  V30 2698 H 261.45 1.43995 4.70666 0
M  V30 2699 N 263.102 -1.41638 0.69111 0
M  V30 2700 C 264.348 -2.01598 0.220519 0
M  V30 2701 C 264.681 -1.54594 -1.17535 0
M  V30 2702 O 263.956 -0.755177 -1.79241 0
M  V30 2703 C 264.239 -3.59062 0.273243 0
M  V30 2704 C 264.092 -4.16203 1.70573 0
M  V30 2705 C 265.411 -4.38546 -0.369457 0
M  V30 2706 H 262.53 -0.732468 0.0816045 0
M  V30 2707 H 265.172 -1.68445 0.878986 0
M  V30 2708 H 263.322 -3.87435 -0.287411 0
M  V30 2709 H 264.994 -3.98722 2.31989 0
M  V30 2710 H 263.237 -3.71414 2.2413 0
M  V30 2711 H 263.908 -5.25358 1.69419 0
M  V30 2712 H 266.384 -4.1596 0.107977 0
M  V30 2713 H 265.26 -5.48069 -0.302002 0
M  V30 2714 H 265.521 -4.17662 -1.44951 0
M  V30 2715 N 264.58 -0.43555 -1.51462 0
M  V30 2716 C 265.513 0.421989 -2.24264 0
M  V30 2717 C 266.491 1.02619 -1.26127 0
M  V30 2718 O 267.675 1.069 -1.55257 0
M  V30 2719 C 264.802 1.588 -2.99166 0
M  V30 2720 C 263.848 1.10465 -4.11946 0
M  V30 2721 S 264.681 0.048146 -5.35478 0
M  V30 2722 C 265.837 1.21887 -6.13917 0
M  V30 2723 H 266.07 -0.196102 -2.96653 0
M  V30 2724 H 263.603 -0.220054 -1.52824 0
M  V30 2725 H 265.561 2.25647 -3.42919 0
M  V30 2726 H 264.222 2.1775 -2.26371 0
M  V30 2727 H 263.415 1.97654 -4.63626 0
M  V30 2728 H 263.017 0.51445 -3.70445 0
M  V30 2729 H 265.309 2.13756 -6.42895 0
M  V30 2730 H 266.252 0.742076 -7.04201 0
M  V30 2731 H 266.66 1.45663 -5.45383 0
M  V30 2732 N 266.058 1.56714 -0.166846 0
M  V30 2733 C 267.469 1.83378 0.350646 0
M  V30 2734 C 267.82 1.08646 1.63372 0
M  V30 2735 O 266.945 0.338058 2.13743 0
M  V30 2736 C 267.54 3.32643 0.642963 0
M  V30 2737 C 266.099 3.59818 1.10491 0
M  V30 2738 C 265.246 2.76954 0.138411 0
M  V30 2739 H 268.197 1.53803 -0.391193 0
M  V30 2740 H 268.218 3.49878 1.49551 0
M  V30 2741 H 267.73 3.87007 -0.291055 0
M  V30 2742 H 265.831 3.1086 2.05418 0
M  V30 2743 H 265.944 4.68178 1.01716 0
M  V30 2744 H 264.308 2.4666 0.634911 0
M  V30 2745 H 265.091 3.34097 -0.789549 0
M  V30 2746 N 267.536 -0.106894 1.57237 0
M  V30 2747 C 268.469 -1.16125 1.96444 0
M  V30 2748 C 269.447 -1.3947 0.835871 0
M  V30 2749 O 270.631 -1.53425 1.09513 0
M  V30 2750 C 267.758 -2.51277 2.27107 0
M  V30 2751 C 266.804 -2.44285 3.4961 0
M  V30 2752 S 267.637 -1.87077 5.01759 0
M  V30 2753 C 268.793 -3.23877 5.35588 0
M  V30 2754 H 269.026 -0.826971 2.85567 0
M  V30 2755 H 266.559 -0.314124 1.51171 0
M  V30 2756 H 268.517 -3.29035 2.45451 0
M  V30 2757 H 267.178 -2.81879 1.38576 0
M  V30 2758 H 266.371 -3.4387 3.68469 0
M  V30 2759 H 265.973 -1.74652 3.30715 0
M  V30 2760 H 268.265 -4.20122 5.31511 0
M  V30 2761 H 269.208 -3.09833 6.36717 0
M  V30 2762 H 269.616 -3.22864 4.63054 0
M  V30 2763 N 269.014 -1.53014 -0.377408 0
M  V30 2764 C 269.924 -1.81557 -1.48574 0
M  V30 2765 C 270.94 -0.703102 -1.59162 0
M  V30 2766 O 272.116 -0.99192 -1.75279 0
M  V30 2767 C 269.181 -1.9889 -2.83978 0
M  V30 2768 C 268.242 -3.22801 -2.83016 0
M  V30 2769 C 267.475 -3.39298 -4.11962 0
M  V30 2770 O 267.698 -2.60345 -5.0752 0
M  V30 2771 O 266.632 -4.32604 -4.18494 0
M  V30 2772 H 270.458 -2.75695 -1.27382 0
M  V30 2773 H 268.043 -1.38248 -0.566373 0
M  V30 2774 H 269.925 -2.11931 -3.6423 0
M  V30 2775 H 268.6 -1.07942 -3.05172 0
M  V30 2776 H 267.507 -3.15193 -2.01505 0
M  V30 2777 H 268.84 -4.13632 -2.66775 0
M  V30 2778 N 270.492 0.636531 -1.44174 0
M  V30 2779 C 271.908 0.954104 -1.27941 0
M  V30 2780 C 272.108 2.0039 -0.211248 0
M  V30 2781 O 271.164 2.49236 0.404695 0
M  V30 2782 C 272.477 1.4225 -2.64925 0
M  V30 2783 C 274.025 1.53827 -2.72592 0
M  V30 2784 C 274.5 2.04053 -4.10032 0
M  V30 2785 N 275.991 2.11331 -4.12182 0
M  V30 2786 C 276.726 2.51352 -5.15374 0
M  V30 2787 N 276.222 2.90549 -6.2893 0
M  V30 2788 N 278.015 2.51438 -5.02728 0
M  V30 2789 H 270.166 -0.0578386 -2.12321 0
M  V30 2790 H 272.429 0.0367406 -0.947288 0
M  V30 2791 H 272.135 0.725466 -3.44136 0
M  V30 2792 H 272.009 2.39451 -2.9145 0
M  V30 2793 H 274.396 2.22628 -1.93702 0
M  V30 2794 H 274.477 0.550154 -2.49814 0
M  V30 2795 H 274.121 1.35848 -4.89395 0
M  V30 2796 H 274.051 3.03726 -4.30184 0
M  V30 2797 H 276.542 1.83745 -3.30222 0
M  V30 2798 H 276.855 3.19884 -7.03487 0
M  V30 2799 H 275.2 2.88313 -6.32377 0
M  V30 2800 H 278.391 2.20203 -4.13072 0
M  V30 2801 H 278.564 2.82304 -5.83274 0
M  V30 2802 N 271.97 1.30982 0.876444 0
M  V30 2803 C 273.381 1.18277 1.44456 0
M  V30 2804 C 273.732 -0.213265 1.95037 0
M  V30 2805 O 272.857 -1.11057 1.85729 0
M  V30 2806 C 273.452 2.1411 2.62569 0
M  V30 2807 C 272.011 2.05358 3.15444 0
M  V30 2808 C 271.158 2.03706 1.88146 0
M  V30 2809 H 274.109 1.43127 0.685584 0
M  V30 2810 H 274.13 1.72692 3.39054 0
M  V30 2811 H 273.642 3.15706 2.25724 0
M  V30 2812 H 271.743 1.06934 3.56926 0
M  V30 2813 H 271.856 2.94156 3.78166 0
M  V30 2814 H 270.22 1.48629 2.06837 0
M  V30 2815 H 271.003 3.07047 1.53547 0
M  V30 2816 N 273.449 -1.08991 1.13837 0
M  V30 2817 C 274.674 -1.85551 0.926585 0
M  V30 2818 C 275.099 -1.80782 -0.519566 0
M  V30 2819 O 274.457 -1.18855 -1.36906 0
M  V30 2820 C 274.505 -3.31266 1.42462 0
M  V30 2821 O 273.609 -4.07822 0.612789 0
M  V30 2822 H 272.95 -0.575192 0.331738 0
M  V30 2823 H 275.48 -1.37604 1.51414 0
M  V30 2824 H 275.49 -3.82112 1.43019 0
M  V30 2825 H 274.165 -3.34052 2.47754 0
M  V30 2826 H 272.742 -3.66731 0.675463 0
M  V30 2827 N 274.927 -0.932562 -1.27047 0
M  V30 2828 C 276.174 -0.575559 -1.94148 0
M  V30 2829 C 276.502 0.883984 -1.73251 0
M  V30 2830 O 275.757 1.64655 -1.0577 0
M  V30 2831 C 276.056 -0.853713 -3.47054 0
M  V30 2832 C 275.722 -2.29577 -3.88079 0
M  V30 2833 C 274.384 -2.68999 -3.9899 0
M  V30 2834 C 276.736 -3.23331 -4.08787 0
M  V30 2835 C 274.064 -4.01289 -4.28 0
M  V30 2836 C 276.416 -4.55207 -4.39282 0
M  V30 2837 C 275.08 -4.94457 -4.48407 0
M  V30 2838 H 274.35 -0.210612 -0.710439 0
M  V30 2839 H 276.997 -1.17744 -1.51025 0
M  V30 2840 H 275.302 -0.169204 -3.91434 0
M  V30 2841 H 276.999 -0.55639 -3.97121 0
M  V30 2842 H 273.589 -1.97994 -3.80127 0
M  V30 2843 H 277.773 -2.94074 -3.99793 0
M  V30 2844 H 273.029 -4.31374 -4.33275 0
M  V30 2845 H 277.203 -5.27852 -4.54252 0
M  V30 2846 H 274.83 -5.96994 -4.7064 0
M  V30 2847 N 276.405 1.4127 -0.698611 0
M  V30 2848 C 277.352 2.30773 -0.0352094 0
M  V30 2849 C 278.322 1.47273 0.768111 0
M  V30 2850 O 279.507 1.76053 0.735524 0
M  V30 2851 C 276.647 3.33346 0.893 0
M  V30 2852 C 275.76 4.31924 0.0809695 0
M  V30 2853 C 274.895 5.21566 1.0071 0
M  V30 2854 C 273.934 6.11811 0.188155 0
M  V30 2855 N 273.071 6.93926 1.06825 0
M  V30 2856 H 277.911 2.86943 -0.804207 0
M  V30 2857 H 275.448 1.4132 -0.408294 0
M  V30 2858 H 277.406 3.91368 1.44523 0
M  V30 2859 H 276.036 2.78719 1.62836 0
M  V30 2860 H 275.088 3.75825 -0.588224 0
M  V30 2861 H 276.4 4.95716 -0.553801 0
M  V30 2862 H 275.554 5.84437 1.62845 0
M  V30 2863 H 274.293 4.58008 1.67572 0
M  V30 2864 H 273.298 5.47986 -0.446254 0
M  V30 2865 H 274.523 6.77425 -0.476716 0
M  V30 2866 H 272.469 6.32973 1.72283 0
M  V30 2867 H 272.386 7.54416 0.489123 0
M  V30 2868 H 273.654 7.61262 1.67632 0
M  V30 2869 N 277.883 0.443576 1.51229 0
M  V30 2870 C 279.129 -0.120975 2.02439 0
M  V30 2871 C 279.462 -1.41815 1.32674 0
M  V30 2872 O 278.737 -1.89373 0.443622 0
M  V30 2873 C 279.02 -0.333291 3.58554 0
M  V30 2874 C 278.873 0.982968 4.38928 0
M  V30 2875 C 280.192 -1.10028 4.26124 0
M  V30 2876 H 277.311 -0.0424923 0.735774 0
M  V30 2877 H 279.953 0.583794 1.80809 0
M  V30 2878 H 278.103 -0.933614 3.77115 0
M  V30 2879 H 279.775 1.61775 4.32003 0
M  V30 2880 H 278.018 1.58611 4.03763 0
M  V30 2881 H 278.689 0.788379 5.46341 0
M  V30 2882 H 281.165 -0.591711 4.11871 0
M  V30 2883 H 280.041 -1.21761 5.35225 0
M  V30 2884 H 280.302 -2.12996 3.87408 0
M  V30 2885 N 279.361 -1.56624 0.175154 0
M  V30 2886 C 280.638 -1.88688 -0.515373 0
M  V30 2887 C 281.018 -1.08564 -1.81044 0
M  V30 2888 O 280.366 -0.180703 -2.27784 0
M  V30 2889 C 280.576 -3.40768 -0.753552 0
M  V30 2890 C 281.924 -4.10587 -1.08184 0
M  V30 2891 O 282.948 -3.46106 -0.841961 0
M  V30 2892 O 281.807 -5.24512 -1.53459 0
M  V30 2893 H 278.901 -0.78301 -0.26613 0
M  V30 2894 H 281.447 -1.68347 0.213877 0
M  V30 2895 H 280.219 -3.90965 0.161829 0
M  V30 2896 H 279.842 -3.66733 -1.53598 0
M  V30 2897 N 280.839 0.0985539 -1.57292 0
M  V30 2898 C 282.25 0.653457 -1.74891 0
M  V30 2899 C 282.601 1.7929 -0.796838 0
M  V30 2900 O 281.726 2.16385 0.0254886 0
M  V30 2901 C 282.321 1.19216 -3.17133 0
M  V30 2902 C 280.88 1.69316 -3.36168 0
M  V30 2903 C 280.027 0.601294 -2.70702 0
M  V30 2904 H 282.978 -0.127497 -1.58187 0
M  V30 2905 H 282.999 2.06154 -3.19814 0
M  V30 2906 H 282.511 0.362635 -3.86402 0
M  V30 2907 H 280.612 2.5468 -2.71972 0
M  V30 2908 H 280.725 1.78853 -4.44464 0
M  V30 2909 H 279.089 1.0399 -2.32504 0
M  V30 2910 H 279.872 -0.217592 -3.4261 0
M  V30 2911 N 282.317 1.53212 0.369288 0
M  V30 2912 C 283.542 1.73423 1.1375 0
M  V30 2913 C 283.967 0.460404 1.82378 0
M  V30 2914 O 283.325 -0.585298 1.71592 0
M  V30 2915 C 283.373 2.89769 2.1463 0
M  V30 2916 O 282.477 2.58119 3.21634 0
M  V30 2917 H 281.818 0.576061 0.330227 0
M  V30 2918 H 284.348 2.00083 0.427547 0
M  V30 2919 H 284.358 3.15829 2.58294 0
M  V30 2920 H 283.033 3.8217 1.64071 0
M  V30 2921 H 281.61 2.42864 2.82969 0
M  V30 2922 N 283.795 -0.628877 1.44509 0
M  V30 2923 C 285.035 -1.39993 1.48934 0
M  V30 2924 C 285.399 -1.91627 0.119604 0
M  V30 2925 O 286.6 -2.68772 0.0385283 0
M  V30 2926 C 284.871 -2.53241 2.52198 0
M  V30 2927 S 286.43 -3.41383 2.75687 0
M  V30 2928 H 283.248 -0.477558 0.526744 0
M  V30 2929 H 285.85 -0.727804 1.81448 0
M  V30 2930 H 284.554 -2.13622 3.50419 0
M  V30 2931 H 284.085 -3.25278 2.21264 0
M  V30 2932 H 286.1 -4.50752 2.07453 0
M  V30 2933 N 285.273 -1.31445 -0.869486 0
M  V30 2934 C 286.684 -1.19042 -1.43826 0
M  V30 2935 C 287.035 0.202919 -1.95148 0
M  V30 2936 O 286.16 1.10071 -1.86315 0
M  V30 2937 C 286.755 -2.15499 -2.6143 0
M  V30 2938 C 285.314 -2.07028 -3.14351 0
M  V30 2939 C 284.461 -2.04701 -1.87063 0
M  V30 2940 H 287.412 -1.43489 -0.677984 0
M  V30 2941 H 287.433 -1.74488 -3.38134 0
M  V30 2942 H 286.945 -3.16899 -2.24046 0
M  V30 2943 H 285.046 -1.08825 -3.56354 0
M  V30 2944 H 285.159 -2.96157 -3.766 0
M  V30 2945 H 283.523 -1.49724 -2.06046 0
M  V30 2946 H 284.306 -3.07857 -1.51917 0
M  V30 2947 N 286.751 1.08385 -1.14413 0
M  V30 2948 C 287.999 1.80419 -0.910679 0
M  V30 2949 C 288.32 1.86658 0.564243 0
M  V30 2950 O 287.59 1.35985 1.41014 0
M  V30 2951 H 286.17 0.668204 -0.333934 0
M  V30 2952 H 288.832 1.31037 -1.44275 0
M  V30 2953 H 287.928 2.83238 -1.31082 0
M  V30 2954 N 288.23 0.939286 1.26551 0
M  V30 2955 C 289.455 0.602008 1.98471 0
M  V30 2956 C 289.88 -0.815624 1.69497 0
M  V30 2957 O 289.238 -1.54912 0.941905 0
M  V30 2958 C 289.286 0.848407 3.50477 0
M  V30 2959 O 288.39 -0.0804009 4.12322 0
M  V30 2960 H 287.731 0.23049 0.622712 0
M  V30 2961 H 290.261 1.2617 1.61066 0
M  V30 2962 H 290.271 0.768553 4.00696 0
M  V30 2963 H 288.946 1.88171 3.70897 0
M  V30 2964 H 287.523 0.0503508 3.72866 0
M  V30 2965 N 289.708 -1.40897 0.706093 0
M  V30 2966 C 290.985 -1.94868 0.169099 0
M  V30 2967 C 291.365 -1.64485 -1.32318 0
M  V30 2968 O 290.713 -0.95744 -2.07474 0
M  V30 2969 C 290.923 -3.45798 0.471654 0
M  V30 2970 C 292.271 -4.22663 0.405127 0
M  V30 2971 O 293.295 -3.53865 0.407168 0
M  V30 2972 O 292.154 -5.45216 0.374383 0
M  V30 2973 H 289.248 -0.82673 0.0211352 0
M  V30 2974 H 291.794 -1.50558 0.782976 0
M  V30 2975 H 290.566 -3.61235 1.50416 0
M  V30 2976 H 290.189 -3.97225 -0.172666 0
M  V30 2977 N 291.186 -0.45159 -1.50991 0
M  V30 2978 C 292.432 0.110237 -2.025 0
M  V30 2979 C 292.765 1.41109 -1.33424 0
M  V30 2980 O 292.04 1.89135 -0.453659 0
M  V30 2981 C 292.323 0.314271 -3.58726 0
M  V30 2982 C 292.176 -1.00623 -4.38401 0
M  V30 2983 C 293.495 1.07767 -4.26702 0
M  V30 2984 H 290.614 0.0385897 -0.735989 0
M  V30 2985 H 293.256 -0.593374 -1.80497 0
M  V30 2986 H 291.406 0.913601 -3.77605 0
M  V30 2987 H 293.078 -1.64064 -4.31139 0
M  V30 2988 H 291.321 -1.6075 -4.02917 0
M  V30 2989 H 291.992 -0.817341 -5.45915 0
M  V30 2990 H 294.468 0.56986 -4.12179 0
M  V30 2991 H 293.344 1.18921 -5.35863 0
M  V30 2992 H 293.605 2.10939 -3.88532 0
M  V30 2993 N 292.664 1.56529 -0.183458 0
M  V30 2994 C 293.627 2.17324 0.728223 0
M  V30 2995 C 294.627 1.12453 1.14939 0
M  V30 2996 O 295.817 1.37902 1.06437 0
M  V30 2997 C 292.949 2.76591 1.99274 0
M  V30 2998 H 294.142 2.99241 0.198772 0
M  V30 2999 H 291.695 1.5616 0.0661391 0
M  V30 3000 H 292.43 1.98441 2.56499 0
M  V30 3001 H 292.215 3.5335 1.69959 0
M  V30 3002 H 293.705 3.23311 2.6431 0
M  V30 3003 N 294.142 -0.090211 1.57342 0
M  V30 3004 C 295.105 -1.09335 2.01441 0
M  V30 3005 C 296.105 -1.32666 0.908641 0
M  V30 3006 O 297.295 -1.28697 1.174 0
M  V30 3007 C 294.427 -2.44136 2.3793 0
M  V30 3008 H 295.62 -0.713662 2.91285 0
M  V30 3009 H 293.173 -0.335404 1.52659 0
M  V30 3010 H 293.908 -2.86972 1.51055 0
M  V30 3011 H 293.693 -2.28548 3.18603 0
M  V30 3012 H 295.183 -3.16277 2.72688 0
M  V30 3013 N 295.62 -1.53406 -0.361157 0
M  V30 3014 C 296.53 -1.83122 -1.4664 0
M  V30 3015 C 297.546 -0.719943 -1.58407 0
M  V30 3016 O 298.722 -1.01046 -1.74218 0
M  V30 3017 C 295.787 -2.01891 -2.81853 0
M  V30 3018 C 294.848 -3.25784 -2.79577 0
M  V30 3019 C 294.081 -3.43648 -4.0834 0
M  V30 3020 O 294.304 -2.65714 -5.0473 0
M  V30 3021 O 293.238 -4.37018 -4.13883 0
M  V30 3022 H 297.064 -2.7703 -1.24451 0
M  V30 3023 H 294.649 -1.38841 -0.551678 0
M  V30 3024 H 296.531 -2.15782 -3.61962 0
M  V30 3025 H 295.206 -1.11173 -3.0401 0
M  V30 3026 H 294.113 -3.17312 -1.98151 0
M  V30 3027 H 295.446 -4.16439 -2.62373 0
M  V30 3028 N 297.098 0.621204 -1.44841 0
M  V30 3029 C 298.326 1.40752 -1.51646 0
M  V30 3030 C 298.741 1.88246 -0.144549 0
M  V30 3031 O 298.098 1.61422 0.851416 0
M  V30 3032 C 298.149 2.62119 -2.4895 0
M  V30 3033 O 297.87 2.16602 -3.80808 0
M  V30 3034 C 299.371 3.55135 -2.65319 0
M  V30 3035 H 296.591 0.431325 -0.514004 0
M  V30 3036 H 299.135 0.758835 -1.899 0
M  V30 3037 H 297.29 3.23058 -2.13805 0
M  V30 3038 H 297.704 2.95358 -4.33433 0
M  V30 3039 H 299.178 4.36874 -3.37409 0
M  V30 3040 H 299.655 4.04592 -1.70886 0
M  V30 3041 H 300.261 3.00058 -3.01405 0
M  V30 3042 N 298.576 1.31904 0.862503 0
M  V30 3043 C 299.539 1.20131 1.95195 0
M  V30 3044 C 300.539 0.126409 1.60302 0
M  V30 3045 O 301.729 0.376234 1.70089 0
M  V30 3046 C 298.861 0.845691 3.30244 0
M  V30 3047 H 300.054 2.16943 2.07064 0
M  V30 3048 H 297.607 1.15622 1.05172 0
M  V30 3049 H 298.342 -0.120957 3.24074 0
M  V30 3050 H 298.127 1.62276 3.56944 0
M  V30 3051 H 299.617 0.787418 4.10109 0
M  V30 3052 N 300.054 -1.07777 1.14986 0
M  V30 3053 C 301.017 -2.13041 0.845358 0
M  V30 3054 C 302.017 -1.60071 -0.152931 0
M  V30 3055 O 303.207 -1.74033 0.0761879 0
M  V30 3056 C 300.339 -3.39896 0.261383 0
M  V30 3057 H 301.532 -2.41485 1.77834 0
M  V30 3058 H 299.085 -1.23595 0.956757 0
M  V30 3059 H 299.82 -3.17091 -0.68 0
M  V30 3060 H 299.605 -3.79642 0.980514 0
M  V30 3061 H 301.095 -4.17548 0.0657687 0
M  V30 3062 N 301.532 -0.945985 -1.26051 0
M  V30 3063 C 302.495 -0.463897 -2.24456 0
M  V30 3064 C 303.495 0.427655 -1.55009 0
M  V30 3065 O 304.685 0.226157 -1.72726 0
M  V30 3066 C 301.817 0.330812 -3.39291 0
M  V30 3067 H 303.01 -1.33357 -2.68619 0
M  V30 3068 H 300.563 -0.728416 -1.38289 0
M  V30 3069 H 301.298 1.21852 -3.00537 0
M  V30 3070 H 301.083 -0.308679 -3.90883 0
M  V30 3071 H 302.573 0.657865 -4.12386 0
M  V30 3072 N 303.011 1.40521 -0.713556 0
M  V30 3073 C 303.944 2.28198 -0.00881422 0
M  V30 3074 C 304.922 1.43227 0.769735 0
M  V30 3075 O 306.106 1.72641 0.756799 0
M  V30 3076 C 303.233 3.23758 0.994899 0
M  V30 3077 C 302.279 4.25391 0.3074 0
M  V30 3078 S 303.112 5.26765 -0.963247 0
M  V30 3079 C 304.268 6.25888 0.0384143 0
M  V30 3080 H 304.501 2.87622 -0.752407 0
M  V30 3081 H 302.034 1.45925 -0.504502 0
M  V30 3082 H 303.992 3.79341 1.56879 0
M  V30 3083 H 302.653 2.63396 1.71118 0
M  V30 3084 H 301.846 4.92596 1.0661 0
M  V30 3085 H 301.448 3.73497 -0.193879 0
M  V30 3086 H 303.74 6.71683 0.885912 0
M  V30 3087 H 304.683 7.05552 -0.60019 0
M  V30 3088 H 305.091 5.63072 0.401233 0
M  V30 3089 N 304.489 0.459591 1.5075 0
M  V30 3090 C 305.452 -0.329093 2.26825 0
M  V30 3091 C 306.452 -0.930481 1.31144 0
M  V30 3092 O 307.642 -0.801453 1.54669 0
M  V30 3093 C 304.774 -1.46768 3.07688 0
M  V30 3094 H 305.967 0.337924 2.9799 0
M  V30 3095 H 303.52 0.213336 1.54837 0
M  V30 3096 H 304.255 -2.17009 2.40993 0
M  V30 3097 H 304.04 -1.04238 3.77991 0
M  V30 3098 H 305.53 -2.02433 3.65254 0
M  V30 3099 N 305.967 -1.56429 0.191757 0
M  V30 3100 C 306.93 -2.17707 -0.716688 0
M  V30 3101 C 307.93 -1.13061 -1.14341 0
M  V30 3102 O 309.12 -1.38464 -1.05704 0
M  V30 3103 C 306.252 -2.77644 -1.97804 0
M  V30 3104 H 307.445 -2.99342 -0.1829 0
M  V30 3105 H 304.998 -1.56193 -0.0578566 0
M  V30 3106 H 305.733 -1.99799 -2.55443 0
M  V30 3107 H 305.518 -3.54246 -1.68083 0
M  V30 3108 H 307.008 -3.24708 -2.62592 0
M  V30 3109 N 307.445 0.0818655 -1.57387 0
M  V30 3110 C 308.67 0.799946 -1.91352 0
M  V30 3111 C 309.095 1.70833 -0.787258 0
M  V30 3112 O 308.453 1.79419 0.26048 0
M  V30 3113 C 308.501 1.57812 -3.24234 0
M  V30 3114 O 307.605 2.68806 -3.12757 0
M  V30 3115 H 306.946 0.21891 -0.626877 0
M  V30 3116 H 309.476 0.0531256 -2.04531 0
M  V30 3117 H 309.486 1.95952 -3.57864 0
M  V30 3118 H 308.161 0.911548 -4.05788 0
M  V30 3119 H 306.738 2.33597 -2.90666 0
M  V30 3120 N 308.923 1.53595 0.353017 0
M  V30 3121 C 310.148 1.7462 1.11904 0
M  V30 3122 C 310.573 0.479721 1.8188 0
M  V30 3123 O 309.931 -0.567066 1.72204 0
M  V30 3124 C 309.979 2.92029 2.11545 0
M  V30 3125 O 309.083 2.61516 3.18878 0
M  V30 3126 H 308.424 0.579531 0.324099 0
M  V30 3127 H 310.954 2.00525 0.406301 0
M  V30 3128 H 310.964 3.18551 2.5493 0
M  V30 3129 H 309.639 3.83888 1.60008 0
M  V30 3130 H 308.216 2.45852 2.80377 0
M  V30 3131 N 310.401 -0.613514 1.45168 0
M  V30 3132 C 311.65 -1.36874 1.4815 0
M  V30 3133 C 311.963 -1.952 0.124982 0
M  V30 3134 O 313.169 -2.71481 0.0324176 0
M  V30 3135 C 311.625 -2.47905 2.60904 0
M  V30 3136 C 311.233 -1.96016 4.02842 0
M  V30 3137 C 312.977 -3.24965 2.73126 0
M  V30 3138 C 310.884 -3.04494 5.06988 0
M  V30 3139 H 309.814 -0.514428 0.551253 0
M  V30 3140 H 312.465 -0.658182 1.7129 0
M  V30 3141 H 310.847 -3.21618 2.31037 0
M  V30 3142 H 312.021 -1.29051 4.4236 0
M  V30 3143 H 310.336 -1.31719 3.95018 0
M  V30 3144 H 312.933 -4.05865 3.48106 0
M  V30 3145 H 313.276 -3.75588 1.79553 0
M  V30 3146 H 313.809 -2.5835 3.0249 0
M  V30 3147 H 310.548 -2.58795 6.0225 0
M  V30 3148 H 310.068 -3.70044 4.72046 0
M  V30 3149 H 311.747 -3.68976 5.31475 0
M  V30 3150 N 311.879 -1.3236 -0.855495 0
M  V30 3151 C 313.125 -1.23054 -1.612 0
M  V30 3152 C 313.458 0.207404 -1.93089 0
M  V30 3153 O 312.733 1.14432 -1.57275 0
M  V30 3154 C 313.016 -2.08937 -2.93287 0
M  V30 3155 C 312.869 -3.61105 -2.68185 0
M  V30 3156 C 314.188 -1.94986 -3.94549 0
M  V30 3157 H 311.307 -0.448364 -0.584926 0
M  V30 3158 H 313.949 -1.62297 -0.987917 0
M  V30 3159 H 312.099 -1.75599 -3.46551 0
M  V30 3160 H 313.771 -4.04652 -2.21483 0
M  V30 3161 H 312.014 -3.83813 -2.02164 0
M  V30 3162 H 312.685 -4.16522 -3.62234 0
M  V30 3163 H 315.161 -2.24189 -3.5054 0
M  V30 3164 H 314.037 -2.57356 -4.84829 0
M  V30 3165 H 314.298 -0.917263 -4.3248 0
M  V30 3166 N 313.357 1.07166 -1.15556 0
M  V30 3167 C 314.604 1.79798 -0.931604 0
M  V30 3168 C 314.932 1.8682 0.54115 0
M  V30 3169 O 314.187 1.34942 1.41736 0
M  V30 3170 C 314.486 3.24707 -1.49332 0
M  V30 3171 C 314.152 3.37781 -2.98688 0
M  V30 3172 C 312.814 3.41057 -3.39461 0
M  V30 3173 C 315.166 3.40424 -3.94665 0
M  V30 3174 C 312.494 3.4458 -4.74849 0
M  V30 3175 C 314.846 3.45485 -5.29927 0
M  V30 3176 C 313.51 3.47039 -5.70193 0
M  V30 3177 H 312.78 0.657928 -0.340898 0
M  V30 3178 H 315.427 1.26091 -1.44129 0
M  V30 3179 H 313.732 3.81208 -0.904859 0
M  V30 3180 H 315.429 3.79486 -1.29582 0
M  V30 3181 H 312.019 3.35932 -2.66172 0
M  V30 3182 H 316.203 3.37113 -3.64237 0
M  V30 3183 H 311.459 3.44083 -5.05388 0
M  V30 3184 H 315.633 3.46476 -6.04092 0
M  V30 3185 H 313.26 3.49522 -6.75084 0
M  V30 3186 N 314.835 0.952656 1.25548 0
M  V30 3187 C 315.798 0.475794 2.24207 0
M  V30 3188 C 316.798 -0.419428 1.55234 0
M  V30 3189 O 317.988 -0.216994 1.72843 0
M  V30 3190 C 315.12 -0.312814 3.39462 0
M  V30 3191 H 316.313 1.34779 2.67908 0
M  V30 3192 H 313.866 0.735739 1.37901 0
M  V30 3193 H 314.601 -1.20257 3.01179 0
M  V30 3194 H 314.386 0.329404 3.90714 0
M  V30 3195 H 315.876 -0.635986 4.12729 0
M  V30 3196 N 316.313 -1.40141 0.720998 0
M  V30 3197 C 317.59 -1.94677 0.189757 0
M  V30 3198 C 317.97 -1.65879 -1.30566 0
M  V30 3199 O 317.318 -0.979391 -2.06447 0
M  V30 3200 C 317.528 -3.45279 0.508304 0
M  V30 3201 C 318.876 -4.22209 0.449934 0
M  V30 3202 O 319.9 -3.53413 0.444677 0
M  V30 3203 O 318.759 -5.44788 0.432189 0
M  V30 3204 H 315.853 -0.826459 0.0299026 0
M  V30 3205 H 318.399 -1.49719 0.7989 0
M  V30 3206 H 317.171 -3.59619 1.54239 0
M  V30 3207 H 316.794 -3.97386 -0.130525 0
M  V30 3208 N 317.792 -0.46758 -1.50504 0
M  V30 3209 C 319.069 0.15003 -1.95024 0
M  V30 3210 C 319.449 1.57304 -1.40779 0
M  V30 3211 O 318.797 2.20281 -0.607319 0
M  V30 3212 C 319.007 0.0969324 -3.48865 0
M  V30 3213 C 320.355 0.287565 -4.23625 0
M  V30 3214 O 321.379 0.173678 -3.55776 0
M  V30 3215 O 320.238 0.517186 -5.44047 0
M  V30 3216 H 317.332 0.113582 -0.819163 0
M  V30 3217 H 319.878 -0.52773 -1.61286 0
M  V30 3218 H 318.65 -0.896732 -3.80886 0
M  V30 3219 H 318.273 0.816303 -3.8913 0
M  V30 3220 N 319.27 1.56325 -0.20005 0
M  V30 3221 C 320.547 1.89484 0.48529 0
M  V30 3222 C 320.927 1.1143 1.79294 0
M  V30 3223 O 320.275 0.216919 2.27468 0
M  V30 3224 C 320.485 3.41923 0.699243 0
M  V30 3225 C 321.833 4.12256 1.01638 0
M  V30 3226 O 322.857 3.47402 0.786792 0
M  V30 3227 O 321.716 5.26887 1.45095 0
M  V30 3228 H 318.81 0.787144 0.253639 0
M  V30 3229 H 321.356 1.67985 -0.240633 0
M  V30 3230 H 320.128 3.90658 -0.224008 0
M  V30 3231 H 319.751 3.69131 1.47744 0
M  V30 3232 N 320.748 -0.0735177 1.57428 0
M  V30 3233 C 322.159 -0.625551 1.75908 0
M  V30 3234 C 322.51 -1.78 0.825261 0
M  V30 3235 O 321.635 -2.16398 0.00893964 0
M  V30 3236 C 322.23 -1.14155 3.18989 0
M  V30 3237 C 320.789 -1.63946 3.38819 0
M  V30 3238 C 319.936 -0.558151 2.71625 0
M  V30 3239 H 322.887 0.152647 1.57964 0
M  V30 3240 H 322.908 -2.0104 3.23053 0
M  V30 3241 H 322.42 -0.301116 3.8693 0
M  V30 3242 H 320.521 -2.50321 2.7599 0
M  V30 3243 H 320.634 -1.71759 4.47253 0
M  V30 3244 H 318.998 -1.00278 2.34129 0
M  V30 3245 H 319.781 0.272071 3.4222 0
M  V30 3246 N 322.226 -1.5378 -0.344866 0
M  V30 3247 C 323.189 -1.80981 -1.40637 0
M  V30 3248 C 324.189 -0.680816 -1.45676 0
M  V30 3249 O 325.379 -0.949095 -1.46075 0
M  V30 3250 C 322.511 -1.95063 -2.79577 0
M  V30 3251 H 323.704 -2.75803 -1.17783 0
M  V30 3252 H 321.257 -1.45173 -0.579181 0
M  V30 3253 H 321.992 -1.02379 -3.07716 0
M  V30 3254 H 321.777 -2.77198 -2.77315 0
M  V30 3255 H 323.267 -2.17629 -3.56409 0
M  V30 3256 N 323.704 0.605807 -1.45491 0
M  V30 3257 C 324.934 1.38934 -1.52908 0
M  V30 3258 C 325.342 1.88513 -0.161086 0
M  V30 3259 O 324.685 1.62962 0.847891 0
M  V30 3260 C 324.747 2.62737 -2.45376 0
M  V30 3261 C 324.411 2.34785 -3.92078 0
M  V30 3262 C 325.408 1.95038 -4.8193 0
M  V30 3263 C 323.093 2.47642 -4.37011 0
M  V30 3264 C 325.087 1.68511 -6.14722 0
M  V30 3265 C 322.774 2.20728 -5.69844 0
M  V30 3266 C 323.772 1.81225 -6.58519 0
M  V30 3267 O 323.46 1.54627 -7.88889 0
M  V30 3268 H 323.192 0.431629 -0.520262 0
M  V30 3269 H 325.746 0.74573 -1.91384 0
M  V30 3270 H 323.976 3.29824 -2.01874 0
M  V30 3271 H 325.665 3.24783 -2.43456 0
M  V30 3272 H 326.431 1.84639 -4.48479 0
M  V30 3273 H 322.31 2.77356 -3.68232 0
M  V30 3274 H 325.854 1.37602 -6.83894 0
M  V30 3275 H 321.751 2.30744 -6.02849 0
M  V30 3276 H 322.519 1.68665 -8.00933 0
M  V30 3277 N 325.182 1.32811 0.848464 0
M  V30 3278 C 326.145 1.22194 1.9391 0
M  V30 3279 C 327.145 0.143404 1.60159 0
M  V30 3280 O 328.335 0.394253 1.6968 0
M  V30 3281 C 325.467 0.88067 3.29328 0
M  V30 3282 H 326.66 2.19127 2.04752 0
M  V30 3283 H 324.213 1.16731 1.0394 0
M  V30 3284 H 324.948 -0.0865776 3.24184 0
M  V30 3285 H 324.733 1.66052 3.55203 0
M  V30 3286 H 326.223 0.830871 4.09251 0
M  V30 3287 N 326.66 -1.06551 1.16123 0
M  V30 3288 C 327.623 -2.12132 0.867906 0
M  V30 3289 C 328.623 -1.60224 -0.135944 0
M  V30 3290 O 329.813 -1.73943 0.0946422 0
M  V30 3291 C 326.945 -3.396 0.297419 0
M  V30 3292 H 328.138 -2.39586 1.80385 0
M  V30 3293 H 325.691 -1.22574 0.969812 0
M  V30 3294 H 326.426 -3.17794 -0.64633 0
M  V30 3295 H 326.211 -3.78581 1.02073 0
M  V30 3296 H 327.701 -4.17455 0.110052 0
M  V30 3297 N 328.138 -0.959301 -1.25041 0
M  V30 3298 C 329.366 -0.633949 -1.96948 0
M  V30 3299 C 329.781 0.794916 -1.7125 0
M  V30 3300 O 329.138 1.53231 -0.991287 0
M  V30 3301 C 329.189 -0.888805 -3.50403 0
M  V30 3302 O 328.91 -2.26149 -3.75218 0
M  V30 3303 C 330.411 -0.576482 -4.39536 0
M  V30 3304 H 327.631 -0.237263 -0.627652 0
M  V30 3305 H 330.175 -1.28495 -1.59089 0
M  V30 3306 H 328.33 -0.284145 -3.86357 0
M  V30 3307 H 328.744 -2.33514 -4.6965 0
M  V30 3308 H 330.218 -0.805314 -5.46094 0
M  V30 3309 H 330.695 0.489075 -4.36468 0
M  V30 3310 H 331.301 -1.16067 -4.09156 0
M  V30 3311 N 329.616 1.39756 -0.72842 0
M  V30 3312 C 330.546 2.33289 -0.0991354 0
M  V30 3313 C 331.527 1.53568 0.731489 0
M  V30 3314 O 332.712 1.81987 0.677807 0
M  V30 3315 C 329.842 3.3763 0.813834 0
M  V30 3316 C 328.796 4.2791 0.0878663 0
M  V30 3317 C 328.122 5.22894 1.11741 0
M  V30 3318 C 329.422 5.11314 -1.06563 0
M  V30 3319 H 331.116 2.86163 -0.880408 0
M  V30 3320 H 328.662 1.37591 -0.424819 0
M  V30 3321 H 330.615 4.0201 1.26355 0
M  V30 3322 H 329.339 2.83181 1.62715 0
M  V30 3323 H 327.998 3.65 -0.342159 0
M  V30 3324 H 327.646 4.64744 1.92412 0
M  V30 3325 H 327.346 5.84143 0.636477 0
M  V30 3326 H 328.87 5.90151 1.56697 0
M  V30 3327 H 330.284 5.69076 -0.694671 0
M  V30 3328 H 328.681 5.81671 -1.47577 0
M  V30 3329 H 329.751 4.46534 -1.89038 0
M  V30 3330 N 331.094 0.475555 1.50254 0
M  V30 3331 C 332.34 -0.0780073 2.0265 0
M  V30 3332 C 332.673 -1.38968 1.35652 0
M  V30 3333 O 331.948 -1.8839 0.483691 0
M  V30 3334 C 332.231 -0.257161 3.59181 0
M  V30 3335 C 332.084 1.07585 4.36744 0
M  V30 3336 C 333.403 -1.00965 4.28362 0
M  V30 3337 H 330.522 -0.0268758 0.73651 0
M  V30 3338 H 333.164 0.622015 1.7953 0
M  V30 3339 H 331.314 -0.853412 3.79011 0
M  V30 3340 H 332.986 1.70902 4.28474 0
M  V30 3341 H 331.229 1.6714 4.00308 0
M  V30 3342 H 331.9 0.904088 5.44546 0
M  V30 3343 H 334.376 -0.504214 4.13034 0
M  V30 3344 H 333.252 -1.10381 5.37687 0
M  V30 3345 H 333.513 -2.04731 3.91839 0
M  V30 3346 N 332.573 -1.56217 0.208337 0
M  V30 3347 C 333.505 -2.1695 -0.739276 0
M  V30 3348 C 334.518 -1.13492 -1.1672 0
M  V30 3349 O 335.707 -1.40529 -1.10063 0
M  V30 3350 C 332.807 -2.72755 -2.01142 0
M  V30 3351 C 331.98 -4.0125 -1.74118 0
M  V30 3352 C 331.039 -4.41749 -2.85909 0
M  V30 3353 O 330.065 -5.08912 -2.54946 0
M  V30 3354 N 331.267 -4.06342 -4.14568 0
M  V30 3355 H 334.032 -2.98893 -0.219837 0
M  V30 3356 H 331.593 -1.61878 0.0268445 0
M  V30 3357 H 333.585 -2.96826 -2.75094 0
M  V30 3358 H 332.155 -1.95191 -2.4417 0
M  V30 3359 H 331.375 -3.85173 -0.838775 0
M  V30 3360 H 332.663 -4.851 -1.53477 0
M  V30 3361 H 332.061 -3.52345 -4.42571 0
M  V30 3362 H 330.618 -4.35335 -4.85105 0
M  V30 3363 N 334.051 0.0651679 -1.57465 0
M  V30 3364 C 335.001 1.0838 -2.00594 0
M  V30 3365 C 335.985 1.34106 -0.889071 0
M  V30 3366 O 337.177 1.34295 -1.15299 0
M  V30 3367 C 334.306 2.39565 -2.45894 0
M  V30 3368 C 333.392 2.17085 -3.64328 0
M  V30 3369 N 333.783 1.64553 -4.78285 0
M  V30 3370 C 332.081 2.4753 -3.71006 0
M  V30 3371 C 332.782 1.57042 -5.60101 0
M  V30 3372 N 331.758 2.03328 -5.04141 0
M  V30 3373 H 335.56 0.671062 -2.86136 0
M  V30 3374 H 333.074 0.27213 -1.60104 0
M  V30 3375 H 335.071 3.13308 -2.75034 0
M  V30 3376 H 333.731 2.81549 -1.61741 0
M  V30 3377 H 334.742 1.33323 -5.00445 0
M  V30 3378 H 331.419 2.92835 -2.9758 0
M  V30 3379 H 332.809 1.17223 -6.61595 0
M  V30 3380 N 335.529 1.53961 0.336706 0
M  V30 3381 C 336.492 1.81724 1.39675 0
M  V30 3382 C 337.492 0.688532 1.45313 0
M  V30 3383 O 338.682 0.956829 1.45569 0
M  V30 3384 C 335.814 1.96543 2.78538 0
M  V30 3385 H 337.007 2.76424 1.16318 0
M  V30 3386 H 334.56 1.45478 0.571474 0
M  V30 3387 H 335.295 1.0401 3.07168 0
M  V30 3388 H 335.08 2.78665 2.75841 0
M  V30 3389 H 336.57 2.19516 3.5525 0
M  V30 3390 N 337.007 -0.598083 1.45811 0
M  V30 3391 C 337.954 -1.7082 1.55207 0
M  V30 3392 C 338.924 -1.61278 0.39732 0
M  V30 3393 O 340.109 -1.80717 0.612038 0
M  V30 3394 C 337.249 -3.09144 1.53376 0
M  V30 3395 C 336.362 -3.29423 2.79472 0
M  V30 3396 C 335.497 -4.57907 2.69248 0
M  V30 3397 C 334.536 -4.71476 3.90354 0
M  V30 3398 N 333.673 -5.9127 3.78608 0
M  V30 3399 H 338.513 -1.62125 2.50039 0
M  V30 3400 H 336.05 -0.790389 1.24062 0
M  V30 3401 H 338.008 -3.89186 1.50301 0
M  V30 3402 H 336.638 -3.16773 0.620876 0
M  V30 3403 H 335.69 -2.43091 2.92594 0
M  V30 3404 H 337.002 -3.3532 3.69272 0
M  V30 3405 H 336.156 -5.46157 2.64192 0
M  V30 3406 H 334.895 -4.54423 1.77063 0
M  V30 3407 H 333.9 -3.81648 3.95759 0
M  V30 3408 H 335.125 -4.76751 4.83617 0
M  V30 3409 H 333.071 -5.88813 2.89199 0
M  V30 3410 H 332.988 -5.98369 4.6205 0
M  V30 3411 H 334.256 -6.81992 3.77501 0
M  V30 3412 N 338.485 -1.33259 -0.841409 0
M  V30 3413 C 339.417 -1.19136 -1.95804 0
M  V30 3414 C 340.43 -0.122965 -1.62335 0
M  V30 3415 O 341.619 -0.373154 -1.74556 0
M  V30 3416 C 338.719 -0.804268 -3.29218 0
M  V30 3417 C 337.892 -1.96376 -3.90839 0
M  V30 3418 C 336.951 -1.55806 -5.02604 0
M  V30 3419 O 335.977 -2.27203 -5.21888 0
M  V30 3420 N 337.179 -0.461609 -5.78662 0
M  V30 3421 H 339.944 -2.15326 -2.08458 0
M  V30 3422 H 337.505 -1.25971 -1.017 0
M  V30 3423 H 339.497 -0.51501 -4.0141 0
M  V30 3424 H 338.067 0.0668809 -3.12528 0
M  V30 3425 H 337.287 -2.41879 -3.11269 0
M  V30 3426 H 338.575 -2.73966 -4.28742 0
M  V30 3427 H 337.973 0.132343 -5.65545 0
M  V30 3428 H 336.53 -0.232013 -6.51387 0
M  V30 3429 N 339.963 1.05934 -1.16686 0
M  V30 3430 C 340.893 2.1546 -0.899949 0
M  V30 3431 C 341.874 1.69391 0.155154 0
M  V30 3432 O 343.059 1.94199 0.00648693 0
M  V30 3433 C 340.189 3.44939 -0.404241 0
M  V30 3434 C 339.143 4.04536 -1.39767 0
M  V30 3435 C 338.469 5.29268 -0.760216 0
M  V30 3436 C 339.769 4.42893 -2.76845 0
M  V30 3437 H 341.463 2.38046 -1.81588 0
M  V30 3438 H 339.009 1.14404 -0.874514 0
M  V30 3439 H 340.962 4.20901 -0.204971 0
M  V30 3440 H 339.686 3.21983 0.547206 0
M  V30 3441 H 338.345 3.30635 -1.58355 0
M  V30 3442 H 337.993 5.02611 0.197831 0
M  V30 3443 H 337.693 5.70101 -1.42332 0
M  V30 3444 H 339.217 6.07924 -0.57105 0
M  V30 3445 H 340.631 5.09921 -2.62019 0
M  V30 3446 H 339.028 4.94721 -3.39663 0
M  V30 3447 H 340.098 3.53584 -3.31823 0
M  V30 3448 N 341.441 0.965919 1.2453 0
M  V30 3449 C 342.671 0.643451 1.96324 0
M  V30 3450 C 343.079 -0.790927 1.71875 0
M  V30 3451 O 342.422 -1.54208 0.998273 0
M  V30 3452 C 342.484 0.836078 3.49643 0
M  V30 3453 C 342.148 2.24975 3.97788 0
M  V30 3454 C 343.145 3.22735 4.07601 0
M  V30 3455 C 340.83 2.57697 4.31158 0
M  V30 3456 C 342.824 4.51303 4.50116 0
M  V30 3457 C 340.511 3.86492 4.73357 0
M  V30 3458 C 341.509 4.83107 4.828 0
M  V30 3459 O 341.197 6.09605 5.24058 0
M  V30 3460 H 340.929 0.239223 0.632257 0
M  V30 3461 H 343.483 1.29587 1.59362 0
M  V30 3462 H 341.713 0.12649 3.86493 0
M  V30 3463 H 343.402 0.512965 4.02646 0
M  V30 3464 H 344.168 2.98783 3.82039 0
M  V30 3465 H 340.047 1.83216 4.23028 0
M  V30 3466 H 343.591 5.26716 4.57401 0
M  V30 3467 H 339.488 4.10245 4.98366 0
M  V30 3468 H 340.256 6.13146 5.42213 0
M  V30 3469 N 342.919 -1.39368 0.735821 0
M  V30 3470 C 344.147 -2.04795 0.294393 0
M  V30 3471 C 344.562 -1.55478 -1.07107 0
M  V30 3472 O 343.919 -0.720038 -1.67695 0
M  V30 3473 C 343.97 -3.6035 0.288071 0
M  V30 3474 O 343.691 -4.07852 1.59963 0
M  V30 3475 C 345.192 -4.42976 -0.169422 0
M  V30 3476 H 342.412 -0.658571 0.128551 0
M  V30 3477 H 344.956 -1.78399 0.999701 0
M  V30 3478 H 343.111 -3.85645 -0.368355 0
M  V30 3479 H 343.525 -5.02181 1.51375 0
M  V30 3480 H 344.999 -5.51864 -0.122687 0
M  V30 3481 H 345.476 -4.22068 -1.21472 0
M  V30 3482 H 346.082 -4.22832 0.457469 0
M  V30 3483 N 344.397 -0.483516 -1.5 0
M  V30 3484 C 345.644 0.0671597 -2.02389 0
M  V30 3485 C 345.972 1.38597 -1.36459 0
M  V30 3486 O 345.227 1.89634 -0.483458 0
M  V30 3487 C 345.526 0.286226 -3.56252 0
M  V30 3488 C 345.192 -0.952416 -4.40726 0
M  V30 3489 C 343.854 -1.29199 -4.63531 0
M  V30 3490 C 346.206 -1.77655 -4.89988 0
M  V30 3491 C 343.534 -2.45553 -5.32842 0
M  V30 3492 C 345.886 -2.93147 -5.60578 0
M  V30 3493 C 344.55 -3.27505 -5.81633 0
M  V30 3494 H 343.82 0.0245755 -0.740592 0
M  V30 3495 H 346.467 -0.640124 -1.80485 0
M  V30 3496 H 344.772 1.07587 -3.76739 0
M  V30 3497 H 346.469 0.726473 -3.94365 0
M  V30 3498 H 343.059 -0.677881 -4.23205 0
M  V30 3499 H 347.243 -1.52737 -4.72213 0
M  V30 3500 H 342.499 -2.72431 -5.47349 0
M  V30 3501 H 346.673 -3.57344 -5.97727 0
M  V30 3502 H 344.3 -4.1777 -6.35116 0
M  V30 3503 N 345.875 1.56104 -0.216619 0
M  V30 3504 C 346.838 2.18819 0.681962 0
M  V30 3505 C 347.838 1.14866 1.12528 0
M  V30 3506 O 349.028 1.40128 1.03488 0
M  V30 3507 C 346.16 2.80756 1.93362 0
M  V30 3508 H 347.353 2.99595 0.135254 0
M  V30 3509 H 344.906 1.56265 0.0330003 0
M  V30 3510 H 345.641 2.03837 2.52232 0
M  V30 3511 H 345.426 3.56876 1.62426 0
M  V30 3512 H 346.916 3.28844 2.57393 0
M  V30 3513 N 347.353 -0.0568162 1.57498 0
M  V30 3514 C 348.63 -0.786954 1.79071 0
M  V30 3515 C 349.01 -1.95028 0.80792 0
M  V30 3516 O 348.358 -2.27968 -0.155858 0
M  V30 3517 C 348.568 -1.24594 3.26002 0
M  V30 3518 C 349.916 -1.67323 3.90241 0
M  V30 3519 O 350.94 -1.34124 3.29984 0
M  V30 3520 O 349.799 -2.28842 4.9628 0
M  V30 3521 H 346.893 -0.378262 0.735423 0
M  V30 3522 H 349.439 -0.035734 1.69662 0
M  V30 3523 H 348.211 -0.41423 3.89101 0
M  V30 3524 H 347.834 -2.05803 3.40192 0
M  V30 3525 N 348.832 -1.54138 -0.328536 0
M  V30 3526 C 350.06 -1.76062 -1.08673 0
M  V30 3527 C 350.475 -0.506852 -1.81869 0
M  V30 3528 O 349.832 0.522223 -1.74869 0
M  V30 3529 C 349.883 -2.95054 -2.08866 0
M  V30 3530 O 349.604 -4.15583 -1.38644 0
M  V30 3531 C 351.105 -3.2915 -2.96943 0
M  V30 3532 H 348.325 -0.587889 -0.323461 0
M  V30 3533 H 350.869 -2.0101 -0.376175 0
M  V30 3534 H 349.024 -2.72394 -2.75464 0
M  V30 3535 H 349.438 -4.82481 -2.05699 0
M  V30 3536 H 350.912 -4.15723 -3.63151 0
M  V30 3537 H 351.389 -2.461 -3.63774 0
M  V30 3538 H 351.995 -3.53871 -2.35914 0
M  V30 3539 N 350.31 0.590341 -1.46126 0
M  V30 3540 C 351.54 1.37304 -1.54373 0
M  V30 3541 C 351.948 1.88332 -0.181071 0
M  V30 3542 O 351.291 1.63852 0.830559 0
M  V30 3543 C 351.353 2.6012 -2.48149 0
M  V30 3544 C 351.017 2.30613 -3.94546 0
M  V30 3545 C 352.014 1.89915 -4.83971 0
M  V30 3546 C 349.699 2.42993 -4.39613 0
M  V30 3547 C 351.693 1.61981 -6.16475 0
M  V30 3548 C 349.38 2.14672 -5.72153 0
M  V30 3549 C 350.378 1.7423 -6.60404 0
M  V30 3550 O 350.066 1.46251 -7.90485 0
M  V30 3551 H 349.798 0.426086 -0.524811 0
M  V30 3552 H 352.352 0.72539 -1.92165 0
M  V30 3553 H 350.582 3.27664 -2.05361 0
M  V30 3554 H 352.271 3.22182 -2.46887 0
M  V30 3555 H 353.037 1.79872 -4.50412 0
M  V30 3556 H 348.916 2.73435 -3.71153 0
M  V30 3557 H 352.46 1.30341 -6.85315 0
M  V30 3558 H 348.357 2.24337 -6.05263 0
M  V30 3559 H 349.125 1.6016 -8.02677 0
M  V30 3560 N 351.788 1.33704 0.83433 0
M  V30 3561 C 353.204 1.13137 1.12571 0
M  V30 3562 C 353.404 -0.0747261 2.01361 0
M  V30 3563 O 352.46 -0.753647 2.4099 0
M  V30 3564 C 353.773 2.42105 1.78342 0
M  V30 3565 C 355.321 2.48054 1.90888 0
M  V30 3566 C 355.796 3.76995 2.60075 0
M  V30 3567 N 357.287 3.78092 2.67584 0
M  V30 3568 C 358.022 4.74574 3.21818 0
M  V30 3569 N 357.518 5.81434 3.76705 0
M  V30 3570 N 359.311 4.62044 3.20112 0
M  V30 3571 H 351.462 2.11 0.243489 0
M  V30 3572 H 353.725 0.932532 0.17055 0
M  V30 3573 H 353.431 3.30391 1.20561 0
M  V30 3574 H 353.305 2.54594 2.7832 0
M  V30 3575 H 355.692 1.60215 2.47821 0
M  V30 3576 H 355.773 2.39502 0.898459 0
M  V30 3577 H 355.417 4.65219 2.03799 0
M  V30 3578 H 355.347 3.82825 3.61597 0
M  V30 3579 H 357.838 3.00865 2.28667 0
M  V30 3580 H 358.151 6.51084 4.16305 0
M  V30 3581 H 356.496 5.85163 3.7498 0
M  V30 3582 H 359.687 3.77716 2.76493 0
M  V30 3583 H 359.86 5.37406 3.62076 0
M  V30 3584 N 353.266 -1.05314 1.17247 0
M  V30 3585 C 354.514 -1.77941 0.958194 0
M  V30 3586 C 354.835 -1.88089 -0.514556 0
M  V30 3587 O 354.105 -1.39676 -1.37359 0
M  V30 3588 H 352.685 -0.659116 0.351533 0
M  V30 3589 H 355.347 -1.27166 1.47699 0
M  V30 3590 H 354.443 -2.79663 1.38546 0
M  V30 3591 N 354.744 -0.972509 -1.24016 0
M  V30 3592 C 355.99 -0.637978 -1.92504 0
M  V30 3593 C 356.323 0.825383 -1.75787 0
M  V30 3594 O 355.598 1.59442 -1.11393 0
M  V30 3595 C 355.881 -1.01942 -3.45369 0
M  V30 3596 C 355.734 -2.53983 -3.71231 0
M  V30 3597 C 357.053 -0.55751 -4.36555 0
M  V30 3598 H 354.172 -0.233248 -0.699117 0
M  V30 3599 H 356.814 -1.21238 -1.46292 0
M  V30 3600 H 354.964 -0.530656 -3.84859 0
M  V30 3601 H 356.636 -3.10374 -3.41271 0
M  V30 3602 H 354.879 -2.96968 -3.16216 0
M  V30 3603 H 355.55 -2.75723 -4.78206 0
M  V30 3604 H 358.026 -0.977029 -4.04467 0
M  V30 3605 H 356.902 -0.85292 -5.42233 0
M  V30 3606 H 357.163 0.542328 -4.38761 0
M  V30 3607 N 356.222 1.38976 -0.743202 0
M  V30 3608 C 357.452 2.04339 -0.304807 0
M  V30 3609 C 357.86 1.56162 1.06819 0
M  V30 3610 O 357.203 0.725284 1.68776 0
M  V30 3611 C 357.265 3.58716 -0.237369 0
M  V30 3612 C 356.929 4.29905 -1.55018 0
M  V30 3613 C 357.926 4.55987 -2.49744 0
M  V30 3614 C 355.611 4.68294 -1.81675 0
M  V30 3615 C 357.605 5.19478 -3.69353 0
M  V30 3616 C 355.292 5.31512 -3.0156 0
M  V30 3617 C 356.29 5.57037 -3.9522 0
M  V30 3618 O 355.978 6.18941 -5.12998 0
M  V30 3619 H 355.71 0.663439 -0.12971 0
M  V30 3620 H 358.264 1.78852 -1.01001 0
M  V30 3621 H 356.494 3.83133 0.524003 0
M  V30 3622 H 358.183 4.05543 0.170121 0
M  V30 3623 H 358.949 4.26767 -2.30423 0
M  V30 3624 H 354.828 4.47779 -1.09615 0
M  V30 3625 H 358.372 5.39318 -4.42473 0
M  V30 3626 H 354.269 5.60153 -3.20778 0
M  V30 3627 H 355.037 6.37433 -5.13441 0
M  V30 3628 N 357.7 0.491464 1.49741 0
M  V30 3629 C 358.925 -0.0557177 2.07325 0
M  V30 3630 C 359.35 -1.30925 1.35056 0
M  V30 3631 O 358.708 -1.76733 0.404365 0
M  V30 3632 C 358.756 -0.302074 3.59333 0
M  V30 3633 O 357.86 -1.37868 3.88672 0
M  V30 3634 H 357.201 0.0219956 0.663636 0
M  V30 3635 H 359.731 0.688352 1.92673 0
M  V30 3636 H 359.741 -0.536464 4.04458 0
M  V30 3637 H 358.416 0.61383 4.11345 0
M  V30 3638 H 356.993 -1.12999 3.55367 0
M  V30 3639 N 359.178 -1.55987 0.224894 0
M  V30 3640 C 360.455 -1.90232 -0.455083 0
M  V30 3641 C 360.835 -1.14269 -1.77499 0
M  V30 3642 O 360.183 -0.253079 -2.27094 0
M  V30 3643 C 360.393 -3.42993 -0.644758 0
M  V30 3644 C 361.741 -4.13821 -0.950669 0
M  V30 3645 O 362.765 -3.4861 -0.731423 0
M  V30 3646 O 361.624 -5.29128 -1.36695 0
M  V30 3647 H 358.718 -0.79108 -0.241084 0
M  V30 3648 H 361.264 -1.67581 0.267327 0
M  V30 3649 H 360.036 -3.90252 0.28613 0
M  V30 3650 H 359.659 -3.71434 -1.41853 0
M  V30 3651 N 360.656 0.0484629 -1.57525 0
M  V30 3652 C 361.896 0.748196 -1.90214 0
M  V30 3653 C 362.26 1.73545 -0.821347 0
M  V30 3654 O 363.461 2.48201 -1.03198 0
M  V30 3655 C 361.732 1.41727 -3.28098 0
M  V30 3656 S 363.291 2.14884 -3.82584 0
M  V30 3657 H 360.109 0.248307 -0.666232 0
M  V30 3658 H 362.711 0.00343188 -1.955 0
M  V30 3659 H 361.415 0.685244 -4.04639 0
M  V30 3660 H 360.946 2.20099 -3.26068 0
M  V30 3661 H 362.961 3.41755 -3.59747 0
M  V30 3662 N 362.134 1.5431 0.320358 0
M  V30 3663 C 363.38 1.72924 1.05949 0
M  V30 3664 C 363.713 0.503185 1.87568 0
M  V30 3665 O 362.988 -0.499839 1.87968 0
M  V30 3666 C 363.271 3.00676 1.98156 0
M  V30 3667 C 363.124 4.3354 1.19845 0
M  V30 3668 C 364.443 3.24198 2.9763 0
M  V30 3669 H 361.562 0.629195 0.383774 0
M  V30 3670 H 364.204 1.87008 0.335854 0
M  V30 3671 H 362.354 2.888 2.59859 0
M  V30 3672 H 364.026 4.57305 0.605773 0
M  V30 3673 H 362.269 4.309 0.500784 0
M  V30 3674 H 362.94 5.19156 1.87567 0
M  V30 3675 H 365.416 3.35557 2.4605 0
M  V30 3676 H 364.292 4.14938 3.59329 0
M  V30 3677 H 364.553 2.41577 3.7026 0
M  V30 3678 N 363.613 -0.582584 1.46437 0
M  V30 3679 C 365.024 -1.1647 1.45916 0
M  V30 3680 C 365.375 -1.95177 0.200077 0
M  V30 3681 O 364.5 -2.04874 -0.696819 0
M  V30 3682 C 365.095 -2.11885 2.64367 0
M  V30 3683 C 363.654 -2.65421 2.66887 0
M  V30 3684 C 362.801 -1.41294 2.38603 0
M  V30 3685 H 365.752 -0.370514 1.54314 0
M  V30 3686 H 365.773 -2.9535 2.39892 0
M  V30 3687 H 365.285 -1.54573 3.5599 0
M  V30 3688 H 363.386 -3.26602 1.79338 0
M  V30 3689 H 363.499 -3.08147 3.66854 0
M  V30 3690 H 361.863 -1.71109 1.88663 0
M  V30 3691 H 362.646 -0.858125 3.32402 0
M  V30 3692 N 365.091 -1.34144 -0.827227 0
M  V30 3693 C 366.054 -1.25264 -1.91942 0
M  V30 3694 C 367.054 -0.168866 -1.59911 0
M  V30 3695 O 368.244 -0.421198 -1.69031 0
M  V30 3696 C 365.376 -0.932952 -3.27885 0
M  V30 3697 H 366.569 -2.22357 -2.0124 0
M  V30 3698 H 364.122 -1.1837 -1.0207 0
M  V30 3699 H 364.857 0.0349917 -3.24281 0
M  V30 3700 H 364.642 -1.71682 -3.52516 0
M  V30 3701 H 366.132 -0.895874 -4.07877 0
M  V30 3702 N 366.569 1.04691 -1.17803 0
M  V30 3703 C 367.817 1.7743 -0.967617 0
M  V30 3704 C 368.138 1.88359 0.504574 0
M  V30 3705 O 367.408 1.40402 1.36617 0
M  V30 3706 H 365.988 0.657242 -0.355024 0
M  V30 3707 H 368.65 1.2638 -1.48371 0
M  V30 3708 H 367.746 2.78924 -1.40027 0
M  V30 3709 N 368.047 0.979072 1.23499 0
M  V30 3710 C 369.01 0.523244 2.23147 0
M  V30 3711 C 370.01 -0.386406 1.56088 0
M  V30 3712 O 371.2 -0.180283 1.73265 0
M  V30 3713 C 368.332 -0.240739 3.40049 0
M  V30 3714 H 369.525 1.40432 2.64989 0
M  V30 3715 H 367.078 0.764824 1.36309 0
M  V30 3716 H 367.813 -1.13841 3.03662 0
M  V30 3717 H 367.598 0.412207 3.89927 0
M  V30 3718 H 369.088 -0.548297 4.13985 0
M  V30 3719 N 369.525 -1.3858 0.750561 0
M  V30 3720 C 370.772 -2.00184 0.305373 0
M  V30 3721 C 371.1 -1.59575 -1.11203 0
M  V30 3722 O 370.355 -0.823236 -1.77542 0
M  V30 3723 C 370.654 -3.55455 0.372373 0
M  V30 3724 C 370.32 -4.15765 1.745 0
M  V30 3725 C 368.982 -4.31951 2.12065 0
M  V30 3726 C 371.334 -4.49067 2.64553 0
M  V30 3727 C 368.662 -4.78734 3.39162 0
M  V30 3728 C 371.014 -4.97265 3.91038 0
M  V30 3729 C 369.678 -5.11658 4.28676 0
M  V30 3730 H 368.948 -0.732526 0.111744 0
M  V30 3731 H 371.595 -1.65673 0.960451 0
M  V30 3732 H 369.9 -3.90084 -0.366272 0
M  V30 3733 H 371.597 -4.00999 0.00953918 0
M  V30 3734 H 368.187 -4.03579 1.44297 0
M  V30 3735 H 372.371 -4.36166 2.36796 0
M  V30 3736 H 367.627 -4.88062 3.68246 0
M  V30 3737 H 371.801 -5.22003 4.60962 0
M  V30 3738 H 369.428 -5.47668 5.27222 0
M  V30 3739 N 371.003 -0.499398 -1.49478 0
M  V30 3740 C 372.233 0.0424839 -2.06556 0
M  V30 3741 C 372.641 1.31514 -1.36018 0
M  V30 3742 O 371.984 1.78555 -0.431718 0
M  V30 3743 C 372.046 0.368074 -3.57611 0
M  V30 3744 C 371.71 -0.806631 -4.49825 0
M  V30 3745 C 372.707 -1.69667 -4.91436 0
M  V30 3746 C 370.392 -1.00498 -4.92144 0
M  V30 3747 C 372.386 -2.76923 -5.74101 0
M  V30 3748 C 370.073 -2.08072 -5.74586 0
M  V30 3749 C 371.071 -2.96119 -6.15469 0
M  V30 3750 O 370.759 -4.01836 -6.96264 0
M  V30 3751 H 370.491 -0.0165165 -0.675798 0
M  V30 3752 H 373.045 -0.695497 -1.93267 0
M  V30 3753 H 371.275 1.15963 -3.68903 0
M  V30 3754 H 372.964 0.848381 -3.96935 0
M  V30 3755 H 373.73 -1.55524 -4.59388 0
M  V30 3756 H 369.609 -0.329036 -4.59824 0
M  V30 3757 H 373.153 -3.45676 -6.05932 0
M  V30 3758 H 369.05 -2.22211 -6.06047 0
M  V30 3759 H 369.818 -3.9917 -7.14567 0
M  V30 3760 N 372.481 1.55866 -0.233164 0
M  V30 3761 C 373.429 2.22176 0.68851 0
M  V30 3762 C 374.423 1.20487 1.19076 0
M  V30 3763 O 375.629 1.38536 1.14925 0
M  V30 3764 H 372.004 0.712511 0.240483 0
M  V30 3765 H 373.975 2.98212 0.105935 0
M  V30 3766 C 372.724 2.92446 1.88071 0
M  V30 3767 H 372.047 3.70458 1.50337 0
M  V30 3768 H 373.487 3.42226 2.50314 0
M  V30 3769 C 371.946 1.95555 2.74335 0
M  V30 3770 O 372.476 1.47986 3.73447 0
M  V30 3771 N 370.682 1.62953 2.40613 0
M  V30 3772 H 370.229 2.01831 1.60069 0
M  V30 3773 H 370.187 0.983886 2.98609 0
M  V30 3774 N 373.959 -0.0401083 1.57549 0
M  V30 3775 C 375.184 -0.748931 1.93406 0
M  V30 3776 C 375.609 -1.68686 0.832274 0
M  V30 3777 O 374.967 -1.80047 -0.212818 0
M  V30 3778 C 375.015 -1.4916 3.28304 0
M  V30 3779 O 374.119 -2.6042 3.19774 0
M  V30 3780 H 373.46 -0.202212 0.63246 0
M  V30 3781 H 375.99 0.00112086 2.046 0
M  V30 3782 H 376 -1.86395 3.62934 0
M  V30 3783 H 374.675 -0.80364 4.08062 0
M  V30 3784 H 373.252 -2.25808 2.96758 0
M  V30 3785 N 375.437 -1.54477 -0.31217 0
M  V30 3786 C 376.683 -1.74417 -1.04644 0
M  V30 3787 C 377.038 -0.517641 -1.85306 0
M  V30 3788 O 376.331 0.489973 -1.85229 0
M  V30 3789 C 376.525 -2.967 -1.99258 0
M  V30 3790 C 376.354 -4.31128 -1.27901 0
M  V30 3791 C 375.124 -4.95087 -1.01079 0
M  V30 3792 C 377.322 -5.09662 -0.689119 0
M  V30 3793 N 375.304 -6.13322 -0.266323 0
M  V30 3794 C 376.675 -6.19952 -0.0768523 0
M  V30 3795 C 378.73 -4.94355 -0.593061 0
M  V30 3796 C 377.433 -7.16604 0.622165 0
M  V30 3797 C 379.459 -5.91328 0.0922792 0
M  V30 3798 C 378.821 -7.00978 0.693443 0
M  V30 3799 H 374.92 -0.69094 -0.366231 0
M  V30 3800 H 377.504 -1.91946 -0.326319 0
M  V30 3801 H 375.675 -2.80616 -2.68532 0
M  V30 3802 H 377.407 -3.05216 -2.65755 0
M  V30 3803 H 374.162 -4.55235 -1.30607 0
M  V30 3804 H 374.586 -6.76937 0.0920973 0
M  V30 3805 H 379.228 -4.09719 -1.04355 0
M  V30 3806 H 376.946 -8.0079 1.08445 0
M  V30 3807 H 380.532 -5.81562 0.166396 0
M  V30 3808 H 379.412 -7.74725 1.21533 0
M  V30 3809 N 376.915 0.57481 -1.46744 0
M  V30 3810 C 378.14 1.36341 -1.56288 0
M  V30 3811 C 378.565 1.86954 -0.207347 0
M  V30 3812 O 377.923 1.62006 0.813871 0
M  V30 3813 C 377.971 2.52147 -2.57787 0
M  V30 3814 O 377.075 3.53834 -2.11838 0
M  V30 3815 H 376.416 0.405713 -0.525636 0
M  V30 3816 H 378.946 0.696453 -1.92382 0
M  V30 3817 H 378.956 2.98958 -2.77648 0
M  V30 3818 H 377.631 2.14663 -3.5622 0
M  V30 3819 H 376.208 3.1345 -2.01999 0
M  V30 3820 N 378.394 1.34581 0.820102 0
M  V30 3821 C 379.642 1.26845 1.57336 0
M  V30 3822 C 379.963 -0.160667 1.94337 0
M  V30 3823 O 379.233 -1.09396 1.6251 0
M  V30 3824 H 377.813 0.466514 0.583415 0
M  V30 3825 H 380.475 1.68526 0.979027 0
M  V30 3826 H 379.571 1.87513 2.4949 0
M  V30 3827 N 379.872 -1.04064 1.18357 0
M  V30 3828 C 381.102 -1.80654 1.00238 0
M  V30 3829 C 381.51 -1.83713 -0.452362 0
M  V30 3830 O 380.853 -1.27135 -1.32599 0
M  V30 3831 C 380.915 -3.27582 1.48088 0
M  V30 3832 C 380.579 -3.48184 2.96002 0
M  V30 3833 C 381.576 -3.39372 3.93856 0
M  V30 3834 C 379.261 -3.7478 3.34433 0
M  V30 3835 C 381.255 -3.5686 5.28138 0
M  V30 3836 C 378.942 -3.91915 4.68877 0
M  V30 3837 C 379.94 -3.82956 5.65539 0
M  V30 3838 O 379.628 -3.996 6.97549 0
M  V30 3839 H 379.36 -0.575751 0.354241 0
M  V30 3840 H 381.914 -1.32044 1.57333 0
M  V30 3841 H 380.144 -3.77161 0.853588 0
M  V30 3842 H 381.833 -3.8573 1.2636 0
M  V30 3843 H 382.599 -3.18789 3.65511 0
M  V30 3844 H 378.478 -3.80852 2.59756 0
M  V30 3845 H 382.022 -3.49783 6.03571 0
M  V30 3846 H 377.919 -4.11992 4.96923 0
M  V30 3847 H 378.687 -4.1676 7.04452 0
M  V30 3848 N 381.35 -0.985608 -1.22978 0
M  V30 3849 C 382.282 -0.488154 -2.23941 0
M  V30 3850 C 383.295 0.41282 -1.57479 0
M  V30 3851 O 384.484 0.216121 -1.77187 0
M  V30 3852 C 381.584 0.312611 -3.37455 0
M  V30 3853 C 380.757 -0.582741 -4.33501 0
M  V30 3854 C 379.816 0.165064 -5.25941 0
M  V30 3855 O 378.842 -0.447077 -5.67442 0
M  V30 3856 N 380.044 1.44953 -5.62111 0
M  V30 3857 H 382.809 -1.3563 -2.67254 0
M  V30 3858 H 380.37 -0.859477 -1.37203 0
M  V30 3859 H 382.362 0.821357 -3.96277 0
M  V30 3860 H 380.932 1.0818 -2.93285 0
M  V30 3861 H 380.152 -1.27225 -3.73105 0
M  V30 3862 H 381.44 -1.19275 -4.94622 0
M  V30 3863 H 380.838 1.9683 -5.30353 0
M  V30 3864 H 379.395 1.90361 -6.23383 0
M  V30 3865 N 382.828 1.3818 -0.7579 0
M  V30 3866 C 384.105 1.94106 -0.241306 0
M  V30 3867 C 384.485 1.69282 1.26122 0
M  V30 3868 O 383.833 1.03378 2.03777 0
M  V30 3869 C 384.043 3.43809 -0.59967 0
M  V30 3870 C 385.391 4.20868 -0.561717 0
M  V30 3871 O 386.415 3.5211 -0.538222 0
M  V30 3872 O 385.274 5.43451 -0.576478 0
M  V30 3873 H 382.368 0.825376 -0.0518042 0
M  V30 3874 H 384.914 1.47548 -0.838315 0
M  V30 3875 H 383.686 3.55403 -1.6372 0
M  V30 3876 H 383.309 3.97592 0.0251197 0
M  V30 3877 N 384.306 0.507319 1.49211 0
M  V30 3878 C 385.216 -0.272136 2.33016 0
M  V30 3879 C 386.232 -0.961206 1.45041 0
M  V30 3880 O 387.408 -0.941191 1.78055 0
M  V30 3881 C 384.473 -1.31895 3.20631 0
M  V30 3882 C 383.534 -0.642648 4.24463 0
M  V30 3883 C 382.767 -1.63959 5.07891 0
M  V30 3884 O 382.99 -2.87007 4.92933 0
M  V30 3885 O 381.924 -1.19143 5.8999 0
M  V30 3886 H 385.75 0.413982 3.00865 0
M  V30 3887 H 383.335 0.268556 1.46966 0
M  V30 3888 H 385.217 -1.92446 3.7489 0
M  V30 3889 H 383.892 -1.98788 2.5547 0
M  V30 3890 H 382.799 0.00276252 3.741 0
M  V30 3891 H 384.132 -0.0160534 4.92197 0
M  V30 3892 N 385.784 -1.5574 0.241426 0
M  V30 3893 C 386.714 -2.24133 -0.654722 0
M  V30 3894 C 387.695 -1.21974 -1.1856 0
M  V30 3895 O 388.88 -1.50612 -1.22595 0
M  V30 3896 C 386.01 -2.93659 -1.85423 0
M  V30 3897 C 384.964 -4.0246 -1.45636 0
M  V30 3898 C 384.29 -4.59383 -2.73626 0
M  V30 3899 C 385.59 -5.18468 -0.631506 0
M  V30 3900 H 387.284 -2.99281 -0.0844353 0
M  V30 3901 H 384.83 -1.43947 -0.0391707 0
M  V30 3902 H 386.783 -3.40203 -2.48676 0
M  V30 3903 H 385.507 -2.15991 -2.44981 0
M  V30 3904 H 384.166 -3.56676 -0.847202 0
M  V30 3905 H 383.814 -3.78422 -3.3137 0
M  V30 3906 H 383.514 -5.32826 -2.4773 0
M  V30 3907 H 385.038 -5.08658 -3.37786 0
M  V30 3908 H 386.452 -5.61272 -1.1682 0
M  V30 3909 H 384.849 -5.98266 -0.468831 0
M  V30 3910 H 385.919 -4.8358 0.357506 0
M  V30 3911 N 387.262 0.0317525 -1.57568 0
M  V30 3912 C 388.508 0.724175 -1.8943 0
M  V30 3913 C 388.841 1.75149 -0.838836 0
M  V30 3914 O 388.116 1.93948 0.146422 0
M  V30 3915 C 388.399 1.39615 -3.31933 0
M  V30 3916 C 388.252 0.382537 -4.4817 0
M  V30 3917 C 389.571 2.33084 -3.73309 0
M  V30 3918 H 386.69 0.261797 -0.688935 0
M  V30 3919 H 389.332 -0.013017 -1.89996 0
M  V30 3920 H 387.482 2.02451 -3.31581 0
M  V30 3921 H 389.154 -0.243689 -4.60656 0
M  V30 3922 H 387.397 -0.29844 -4.32772 0
M  V30 3923 H 388.068 0.891145 -5.44759 0
M  V30 3924 H 390.544 1.80295 -3.7501 0
M  V30 3925 H 389.42 2.77084 -4.73831 0
M  V30 3926 H 389.681 3.19643 -3.05419 0
M  V30 3927 N 388.74 1.54641 0.303973 0
M  V30 3928 C 389.986 1.74969 1.03718 0
M  V30 3929 C 390.341 0.527461 1.85029 0
M  V30 3930 O 389.634 -0.480143 1.85486 0
M  V30 3931 C 389.828 2.97753 1.97681 0
M  V30 3932 C 389.657 4.318 1.25613 0
M  V30 3933 C 388.427 4.95616 0.984518 0
M  V30 3934 C 390.625 5.10021 0.662081 0
M  V30 3935 N 388.607 6.13455 0.233794 0
M  V30 3936 C 389.978 6.19984 0.0439736 0
M  V30 3937 C 392.033 4.94663 0.566835 0
M  V30 3938 C 390.736 7.16264 -0.66016 0
M  V30 3939 C 392.762 5.91271 -0.123637 0
M  V30 3940 C 392.124 7.00601 -0.730608 0
M  V30 3941 H 388.223 0.692873 0.362562 0
M  V30 3942 H 390.807 1.92116 0.316135 0
M  V30 3943 H 388.978 2.82036 2.6704 0
M  V30 3944 H 390.71 3.06621 2.64132 0
M  V30 3945 H 387.465 4.55921 1.28191 0
M  V30 3946 H 387.889 6.76879 -0.127996 0
M  V30 3947 H 392.531 4.10267 1.02181 0
M  V30 3948 H 390.249 8.00204 -1.12691 0
M  V30 3949 H 393.835 5.81466 -0.197236 0
M  V30 3950 H 392.715 7.7407 -1.2564 0
M  V30 3951 N 390.218 -0.567019 1.47046 0
M  V30 3952 C 391.466 -1.322 1.52864 0
M  V30 3953 C 391.787 -1.94088 0.188388 0
M  V30 3954 O 391.057 -1.7941 -0.786693 0
M  V30 3955 H 389.637 -0.490894 0.563056 0
M  V30 3956 H 392.299 -0.662879 1.83281 0
M  V30 3957 H 391.395 -2.12062 2.2899 0
M  V30 3958 N 391.696 -1.35014 -0.812953 0
M  V30 3959 C 392.659 -1.27292 -1.90602 0
M  V30 3960 C 393.659 -0.185817 -1.59723 0
M  V30 3961 O 394.849 -0.439102 -1.68575 0
M  V30 3962 C 391.981 -0.967676 -3.26877 0
M  V30 3963 H 393.174 -2.24479 -1.9887 0
M  V30 3964 H 390.727 -1.19446 -1.00808 0
M  V30 3965 H 391.462 0.0005954 -3.243 0
M  V30 3966 H 391.247 -1.75412 -3.50675 0
M  V30 3967 H 392.737 -0.939085 -4.06904 0
M  V30 3968 N 393.175 1.03435 -1.18907 0
M  V30 3969 C 394.405 1.8012 -1.01195 0
M  V30 3970 C 394.813 1.8395 0.442613 0
M  V30 3971 O 394.156 1.27836 1.31923 0
M  V30 3972 C 394.218 3.26792 -1.49823 0
M  V30 3973 C 393.882 3.46609 -2.97844 0
M  V30 3974 C 394.879 3.37278 -3.95651 0
M  V30 3975 C 392.564 3.73001 -3.36416 0
M  V30 3976 C 394.558 3.54054 -5.30023 0
M  V30 3977 C 392.245 3.89423 -4.70949 0
M  V30 3978 C 393.243 3.79951 -5.67562 0
M  V30 3979 O 392.931 3.95895 -6.99659 0
M  V30 3980 H 392.663 0.573865 -0.357289 0
M  V30 3981 H 395.217 1.31207 -1.58031 0
M  V30 3982 H 393.447 3.76703 -0.873578 0
M  V30 3983 H 395.136 3.85055 -1.28404 0
M  V30 3984 H 395.902 3.16846 -3.67197 0
M  V30 3985 H 391.781 3.79469 -2.61772 0
M  V30 3986 H 395.325 3.46577 -6.05417 0
M  V30 3987 H 391.222 4.09351 -4.99101 0
M  V30 3988 H 391.99 4.13019 -7.06653 0
M  V30 3989 N 394.653 0.992116 1.22453 0
M  V30 3990 C 395.899 0.678177 1.91761 0
M  V30 3991 C 396.254 -0.781141 1.75829 0
M  V30 3992 O 395.547 -1.55747 1.11595 0
M  V30 3993 C 395.741 1.01832 3.42586 0
M  V30 3994 C 395.57 2.50916 3.73191 0
M  V30 3995 C 394.34 3.17308 3.93248 0
M  V30 3996 C 396.538 3.49032 3.77732 0
M  V30 3997 N 394.52 4.55876 4.11157 0
M  V30 3998 C 395.891 4.73055 4.00773 0
M  V30 3999 C 397.946 3.43349 3.60577 0
M  V30 4000 C 396.649 5.92089 4.0844 0
M  V30 4001 C 398.675 4.61759 3.69503 0
M  V30 4002 C 398.037 5.84582 3.92993 0
M  V30 4003 H 394.136 0.299425 0.722405 0
M  V30 4004 H 396.72 1.27197 1.47408 0
M  V30 4005 H 394.891 0.453118 3.85748 0
M  V30 4006 H 396.623 0.660454 3.99274 0
M  V30 4007 H 393.378 2.67778 3.9063 0
M  V30 4008 H 393.802 5.27748 4.24042 0
M  V30 4009 H 398.444 2.49408 3.41402 0
M  V30 4010 H 396.162 6.86435 4.26418 0
M  V30 4011 H 399.748 4.58951 3.57569 0
M  V30 4012 H 398.628 6.74676 3.99728 0
M  V30 4013 N 396.131 -1.37776 0.765217 0
M  V30 4014 C 397.061 -2.32945 0.160953 0
M  V30 4015 C 398.042 -1.55454 -0.690516 0
M  V30 4016 O 399.227 -1.83721 -0.629318 0
M  V30 4017 C 396.357 -3.39669 -0.724031 0
M  V30 4018 C 395.311 -4.27992 0.0256173 0
M  V30 4019 C 394.637 -5.25673 -0.978383 0
M  V30 4020 C 395.937 -5.08309 1.20082 0
M  V30 4021 H 397.631 -2.83728 0.955969 0
M  V30 4022 H 395.177 -1.36416 0.461149 0
M  V30 4023 H 397.13 -4.05219 -1.15652 0
M  V30 4024 H 395.854 -2.87396 -1.5515 0
M  V30 4025 H 394.513 -3.63964 0.438812 0
M  V30 4026 H 394.161 -4.69682 -1.80022 0
M  V30 4027 H 393.861 -5.85625 -0.481378 0
M  V30 4028 H 395.385 -5.94098 -1.40995 0
M  V30 4029 H 396.799 -5.67034 0.845307 0
M  V30 4030 H 395.196 -5.77554 1.62947 0
M  V30 4031 H 396.266 -4.41365 2.00811 0
M  V30 4032 N 397.609 -0.515225 -1.4894 0
M  V30 4033 C 398.839 0.0205735 -2.0659 0
M  V30 4034 C 399.247 1.30064 -1.37405 0
M  V30 4035 O 398.59 1.78087 -0.450632 0
M  V30 4036 C 398.652 0.330124 -3.57981 0
M  V30 4037 C 398.316 -0.854295 -4.48944 0
M  V30 4038 C 399.313 -1.7487 -4.89609 0
M  V30 4039 C 396.998 -1.05712 -4.9105 0
M  V30 4040 C 398.992 -2.82996 -5.71132 0
M  V30 4041 C 396.679 -2.14154 -5.72347 0
M  V30 4042 C 397.677 -3.0263 -6.12294 0
M  V30 4043 O 397.365 -4.09198 -6.91962 0
M  V30 4044 H 397.097 -0.0236833 -0.675585 0
M  V30 4045 H 399.651 -0.715956 -1.92518 0
M  V30 4046 H 397.881 1.12044 -3.70112 0
M  V30 4047 H 399.57 0.806233 -3.97812 0
M  V30 4048 H 400.336 -1.60388 -4.57712 0
M  V30 4049 H 396.215 -0.377788 -4.59449 0
M  V30 4050 H 399.759 -3.52083 -6.02232 0
M  V30 4051 H 395.656 -2.28626 -6.03656 0
M  V30 4052 H 396.424 -4.06726 -7.10293 0
M  V30 4053 N 399.087 1.5561 -0.249682 0
M  V30 4054 C 400.034 2.21496 0.648694 0
M  V30 4055 C 401.004 1.17977 1.16921 0
M  V30 4056 O 402.189 1.46434 1.22318 0
M  V30 4057 C 399.329 2.92039 1.83868 0
M  V30 4058 C 398.442 4.10219 1.35442 0
M  V30 4059 C 397.577 4.6847 2.50419 0
M  V30 4060 C 396.616 5.78893 1.98869 0
M  V30 4061 N 395.753 6.31315 3.07223 0
M  V30 4062 H 400.593 2.97892 0.0801582 0
M  V30 4063 H 398.13 1.47074 0.0278031 0
M  V30 4064 H 400.088 3.31138 2.53778 0
M  V30 4065 H 398.718 2.18111 2.37965 0
M  V30 4066 H 397.77 3.76413 0.54928 0
M  V30 4067 H 399.082 4.89927 0.936649 0
M  V30 4068 H 398.236 5.10158 3.28366 0
M  V30 4069 H 396.975 3.87984 2.95499 0
M  V30 4070 H 395.98 5.3668 1.19393 0
M  V30 4071 H 397.205 6.61232 1.54755 0
M  V30 4072 H 395.151 5.53733 3.51732 0
M  V30 4073 H 395.068 7.06224 2.69784 0
M  V30 4074 H 396.336 6.77662 3.8522 0
M  V30 4075 N 400.565 -0.0233959 1.57583 0
M  V30 4076 C 401.528 -1.00693 2.05897 0
M  V30 4077 C 402.528 -1.28693 0.964092 0
M  V30 4078 O 403.718 -1.23602 1.22753 0
M  V30 4079 C 400.85 -2.33825 2.4807 0
M  V30 4080 H 402.043 -0.589476 2.9405 0
M  V30 4081 H 399.596 -0.270354 1.53944 0
M  V30 4082 H 400.331 -2.80307 1.6309 0
M  V30 4083 H 400.116 -2.1483 3.2801 0
M  V30 4084 H 401.606 -3.04426 2.85857 0
M  V30 4085 N 402.043 -1.548 -0.295768 0
M  V30 4086 C 403.271 -1.78327 -1.04914 0
M  V30 4087 C 403.686 -0.545316 -1.80753 0
M  V30 4088 O 403.043 0.485013 -1.75937 0
M  V30 4089 C 403.094 -2.99418 -2.02561 0
M  V30 4090 O 402.815 -4.18431 -1.29798 0
M  V30 4091 C 404.316 -3.35375 -2.89895 0
M  V30 4092 H 401.536 -0.594618 -0.310918 0
M  V30 4093 H 404.08 -2.01763 -0.333454 0
M  V30 4094 H 402.235 -2.78175 -2.69624 0
M  V30 4095 H 402.649 -4.86736 -1.95419 0
M  V30 4096 H 404.123 -4.23332 -3.54251 0
M  V30 4097 H 404.6 -2.53761 -3.58472 0
M  V30 4098 H 405.206 -3.58796 -2.28355 0
M  V30 4099 N 403.521 0.559213 -1.47345 0
M  V30 4100 C 404.769 1.31388 -1.53563 0
M  V30 4101 C 405.09 1.93985 -0.198678 0
M  V30 4102 O 404.36 1.79825 0.777167 0
M  V30 4103 H 402.94 0.487901 -0.565652 0
M  V30 4104 H 405.602 0.65315 -1.8363 0
M  V30 4105 H 404.698 2.10844 -2.30111 0
M  V30 4106 N 404.999 1.35443 0.805782 0
M  V30 4107 C 406.276 1.19325 1.54987 0
M  V30 4108 C 406.656 -0.227294 2.09873 0
M  V30 4109 O 406.004 -1.2309 1.92512 0
M  V30 4110 C 406.214 2.26196 2.65775 0
M  V30 4111 C 407.562 2.62043 3.34094 0
M  V30 4112 O 408.586 2.25115 2.76046 0
M  V30 4113 O 407.445 3.25542 4.38958 0
M  V30 4114 H 404.539 0.463623 0.684823 0
M  V30 4115 H 407.085 1.47127 0.845674 0
M  V30 4116 H 405.857 3.21471 2.23096 0
M  V30 4117 H 405.48 1.99667 3.43829 0
M  V30 4118 N 406.477 -1.02803 1.19454 0
M  V30 4119 C 407.754 -1.73299 0.907013 0
M  V30 4120 C 408.134 -2.02772 -0.587086 0
M  V30 4121 O 407.482 -1.68304 -1.54551 0
M  V30 4122 C 407.692 -3.00912 1.76785 0
M  V30 4123 C 409.04 -3.74403 2.00268 0
M  V30 4124 O 410.064 -3.10841 1.73943 0
M  V30 4125 O 408.923 -4.88675 2.4466 0
M  V30 4126 H 406.017 -0.754727 0.338106 0
M  V30 4127 H 408.563 -1.08754 1.30271 0
M  V30 4128 H 407.335 -2.75366 2.7801 0
M  V30 4129 H 406.958 -3.73197 1.37149 0
M  V30 4130 N 407.956 -0.998596 -1.21925 0
M  V30 4131 C 409.181 -0.696015 -1.95372 0
M  V30 4132 C 409.606 0.733826 -1.73195 0
M  V30 4133 O 408.964 1.50242 -1.01474 0
M  V30 4134 C 409.012 -1.01466 -3.4603 0
M  V30 4135 O 408.116 -0.116415 -4.12236 0
M  V30 4136 H 407.457 -0.259938 -0.611006 0
M  V30 4137 H 409.987 -1.33711 -1.54863 0
M  V30 4138 H 409.997 -0.958855 -3.96573 0
M  V30 4139 H 408.672 -2.05653 -3.61497 0
M  V30 4140 H 407.249 -0.228193 -3.72201 0
M  V30 4141 N 409.434 1.37368 -0.772513 0
M  V30 4142 C 410.664 2.03647 -0.348082 0
M  V30 4143 C 411.072 1.58392 1.03482 0
M  V30 4144 O 410.415 0.760921 1.672 0
M  V30 4145 C 410.477 3.58131 -0.313404 0
M  V30 4146 C 410.141 4.2652 -1.64102 0
M  V30 4147 C 411.138 4.50587 -2.5936 0
M  V30 4148 C 408.823 4.64335 -1.91567 0
M  V30 4149 C 410.817 5.11526 -3.80289 0
M  V30 4150 C 408.504 5.24996 -3.12766 0
M  V30 4151 C 409.502 5.48529 -4.06946 0
M  V30 4152 O 409.19 6.07921 -5.26011 0
M  V30 4153 H 408.922 0.660538 -0.143753 0
M  V30 4154 H 411.476 1.76669 -1.04772 0
M  V30 4155 H 409.706 3.84159 0.442617 0
M  V30 4156 H 411.395 4.05813 0.0840613 0
M  V30 4157 H 412.161 4.21784 -2.39423 0
M  V30 4158 H 408.04 4.45353 -1.19088 0
M  V30 4159 H 411.584 5.29811 -4.53813 0
M  V30 4160 H 407.481 5.53223 -3.32588 0
M  V30 4161 H 408.249 6.26398 -5.26847 0
M  V30 4162 N 410.912 0.523116 1.48665 0
M  V30 4163 C 411.842 -0.23231 2.32342 0
M  V30 4164 C 412.823 -0.941637 1.41659 0
M  V30 4165 O 414.008 -0.928751 1.70552 0
M  V30 4166 C 411.138 -1.28387 3.22698 0
M  V30 4167 C 410.092 -0.693098 4.22351 0
M  V30 4168 C 409.418 -1.8468 5.01794 0
M  V30 4169 C 410.718 0.33063 5.21252 0
M  V30 4170 H 412.412 0.466192 2.95748 0
M  V30 4171 H 409.958 0.225643 1.42221 0
M  V30 4172 H 411.911 -1.82024 3.80059 0
M  V30 4173 H 410.635 -2.01186 2.57278 0
M  V30 4174 H 409.294 -0.178299 3.66166 0
M  V30 4175 H 408.942 -2.56301 4.32804 0
M  V30 4176 H 408.642 -1.45747 5.69238 0
M  V30 4177 H 410.166 -2.38709 5.62006 0
M  V30 4178 H 411.58 -0.118407 5.73178 0
M  V30 4179 H 409.977 0.636974 5.9671 0
M  V30 4180 H 411.047 1.23883 4.68808 0
M  V30 4181 N 412.39 -1.55475 0.257931 0
M  V30 4182 C 413.353 -2.20551 -0.623706 0
M  V30 4183 C 414.353 -1.17809 -1.09443 0
M  V30 4184 O 415.543 -1.42823 -0.997362 0
M  V30 4185 C 412.675 -2.85784 -1.8585 0
M  V30 4186 H 413.868 -2.99848 -0.0557743 0
M  V30 4187 H 411.421 -1.56298 0.0084422 0
M  V30 4188 H 412.156 -2.10453 -2.46739 0
M  V30 4189 H 411.941 -3.61057 -1.52907 0
M  V30 4190 H 413.431 -3.35553 -2.48584 0
M  V30 4191 N 413.868 0.0150385 -1.57593 0
M  V30 4192 C 414.815 1.01126 -2.07466 0
M  V30 4193 C 415.785 1.35064 -0.966794 0
M  V30 4194 O 416.97 1.4516 -1.23827 0
M  V30 4195 C 414.11 2.30276 -2.57035 0
M  V30 4196 C 413.223 2.02373 -3.81666 0
M  V30 4197 C 412.358 3.25496 -4.19793 0
M  V30 4198 C 411.397 2.93211 -5.37303 0
M  V30 4199 N 410.534 4.08826 -5.70794 0
M  V30 4200 H 415.374 0.57901 -2.92321 0
M  V30 4201 H 412.911 0.27426 -1.44521 0
M  V30 4202 H 414.869 3.05757 -2.83846 0
M  V30 4203 H 413.499 2.71197 -1.75077 0
M  V30 4204 H 412.551 1.17327 -3.61854 0
M  V30 4205 H 413.863 1.74567 -4.67256 0
M  V30 4206 H 413.017 4.09333 -4.47807 0
M  V30 4207 H 411.756 3.56428 -3.32882 0
M  V30 4208 H 410.761 2.07777 -5.09027 0
M  V30 4209 H 411.986 2.63542 -6.25877 0
M  V30 4210 H 409.932 4.39682 -4.86842 0
M  V30 4211 H 409.849 3.84491 -6.50924 0
M  V30 4212 H 411.117 4.93496 -6.03392 0
M  V30 4213 N 415.346 1.54954 0.287554 0
M  V30 4214 C 416.309 1.86076 1.33823 0
M  V30 4215 C 417.309 0.734414 1.43049 0
M  V30 4216 O 418.499 1.00266 1.42452 0
M  V30 4217 C 415.631 2.05305 2.72144 0
M  V30 4218 H 416.824 2.79984 1.07465 0
M  V30 4219 H 414.377 1.47223 0.524902 0
M  V30 4220 H 415.112 1.1373 3.03704 0
M  V30 4221 H 414.897 2.873 2.66836 0
M  V30 4222 H 416.387 2.30706 3.48087 0
M  V30 4223 N 416.824 -0.551391 1.4764 0
M  V30 4224 C 417.734 -1.68525 1.63207 0
M  V30 4225 C 418.75 -1.6621 0.514815 0
M  V30 4226 O 419.926 -1.85551 0.783113 0
M  V30 4227 C 416.991 -3.05025 1.64805 0
M  V30 4228 C 416.052 -3.18362 2.88 0
M  V30 4229 C 415.285 -4.4835 2.89513 0
M  V30 4230 O 415.508 -5.34163 2.00065 0
M  V30 4231 O 414.442 -4.65602 3.81443 0
M  V30 4232 H 418.268 -1.58333 2.59161 0
M  V30 4233 H 415.853 -0.722063 1.30792 0
M  V30 4234 H 417.735 -3.86245 1.68502 0
M  V30 4235 H 416.41 -3.15587 0.720197 0
M  V30 4236 H 415.317 -2.36518 2.89845 0
M  V30 4237 H 416.65 -3.12707 3.80099 0
M  V30 4238 N 418.302 -1.35869 -0.798587 0
M  V30 4239 C 419.532 -1.32529 -1.58491 0
M  V30 4240 C 419.94 0.0975405 -1.88948 0
M  V30 4241 O 419.283 1.06224 -1.49874 0
M  V30 4242 C 419.345 -2.07247 -2.9375 0
M  V30 4243 C 419.009 -3.56391 -2.86068 0
M  V30 4244 C 420.006 -4.50824 -2.58947 0
M  V30 4245 C 417.691 -3.9915 -3.04933 0
M  V30 4246 C 419.685 -5.85993 -2.5078 0
M  V30 4247 C 417.372 -5.34413 -2.96389 0
M  V30 4248 C 418.37 -6.27646 -2.69349 0
M  V30 4249 O 418.058 -7.60426 -2.60782 0
M  V30 4250 H 417.79 -0.456529 -0.498556 0
M  V30 4251 H 420.344 -1.79425 -0.999799 0
M  V30 4252 H 418.574 -1.55001 -3.54276 0
M  V30 4253 H 420.263 -1.96883 -3.54954 0
M  V30 4254 H 421.029 -4.19104 -2.44084 0
M  V30 4255 H 416.908 -3.26961 -3.24989 0
M  V30 4256 H 420.452 -6.58735 -2.29595 0
M  V30 4257 H 416.349 -5.65743 -3.10813 0
M  V30 4258 H 417.117 -7.70444 -2.76331 0
M  V30 4259 N 419.78 1.02168 -1.19998 0
M  V30 4260 C 420.69 2.14069 -0.959774 0
M  V30 4261 C 421.706 1.73804 0.082655 0
M  V30 4262 O 422.882 2.01133 -0.103633 0
M  V30 4263 C 419.947 3.42936 -0.509459 0
M  V30 4264 C 419.008 3.97474 -1.62213 0
M  V30 4265 C 418.241 5.2019 -1.19321 0
M  V30 4266 O 418.464 5.70369 -0.0597726 0
M  V30 4267 O 417.398 5.67749 -1.99863 0
M  V30 4268 H 421.224 2.37199 -1.89658 0
M  V30 4269 H 418.809 1.12469 -0.983411 0
M  V30 4270 H 420.691 4.20551 -0.267322 0
M  V30 4271 H 419.366 3.21234 0.398821 0
M  V30 4272 H 418.273 3.21161 -1.9185 0
M  V30 4273 H 419.606 4.23555 -2.50723 0
M  V30 4274 N 421.258 1.00505 1.21394 0
M  V30 4275 C 422.488 0.705584 1.94178 0
M  V30 4276 C 422.896 -0.735846 1.74304 0
M  V30 4277 O 422.239 -1.50954 1.04683 0
M  V30 4278 C 422.301 0.94689 3.46806 0
M  V30 4279 C 421.965 2.37517 3.90429 0
M  V30 4280 C 422.962 3.35539 3.97127 0
M  V30 4281 C 420.647 2.71284 4.22742 0
M  V30 4282 C 422.641 4.65395 4.3553 0
M  V30 4283 C 420.328 4.01356 4.60822 0
M  V30 4284 C 421.326 4.98223 4.67186 0
M  V30 4285 O 421.014 6.25969 5.04399 0
M  V30 4286 H 420.746 0.259216 0.624326 0
M  V30 4287 H 423.3 1.34592 1.55159 0
M  V30 4288 H 421.53 0.249386 3.85895 0
M  V30 4289 H 423.219 0.640804 4.0081 0
M  V30 4290 H 423.985 3.10786 3.7234 0
M  V30 4291 H 419.864 1.96581 4.16985 0
M  V30 4292 H 423.408 5.41002 4.40412 0
M  V30 4293 H 419.305 4.25893 4.85063 0
M  V30 4294 H 420.073 6.30085 5.22431 0
M  V30 4295 N 422.737 -1.36956 0.779787 0
M  V30 4296 C 424.014 -1.93697 0.272156 0
M  V30 4297 C 424.394 -1.71267 -1.23413 0
M  V30 4298 O 423.742 -1.06607 -2.02107 0
M  V30 4299 C 423.952 -3.42812 0.654291 0
M  V30 4300 C 425.3 -4.19921 0.628602 0
M  V30 4301 O 426.324 -3.51209 0.594172 0
M  V30 4302 O 425.183 -5.42465 0.662864 0
M  V30 4303 H 422.277 -0.824447 0.0649286 0
M  V30 4304 H 424.823 -1.46196 0.861682 0
M  V30 4305 H 423.595 -3.52754 1.69353 0
M  V30 4306 H 423.218 -3.97582 0.0381369 0
M  V30 4307 N 424.215 -0.530993 -1.48385 0
M  V30 4308 C 425.462 0.0027373 -2.025 0
M  V30 4309 C 425.79 1.34186 -1.40799 0
M  V30 4310 O 425.045 1.88 -0.543544 0
M  V30 4311 C 425.344 0.172742 -3.56982 0
M  V30 4312 C 425.01 -1.09215 -4.37473 0
M  V30 4313 C 423.672 -1.43881 -4.59186 0
M  V30 4314 C 426.024 -1.93153 -4.84088 0
M  V30 4315 C 423.352 -2.62381 -5.2476 0
M  V30 4316 C 425.704 -3.10833 -5.50968 0
M  V30 4317 C 424.368 -3.45843 -5.70919 0
M  V30 4318 H 423.638 0.00100165 -0.740999 0
M  V30 4319 H 426.285 -0.697219 -1.78357 0
M  V30 4320 H 424.59 0.955473 -3.79971 0
M  V30 4321 H 426.287 0.600642 -3.96476 0
M  V30 4322 H 422.877 -0.812177 -4.20834 0
M  V30 4323 H 427.061 -1.67683 -4.67115 0
M  V30 4324 H 422.317 -2.89707 -5.38405 0
M  V30 4325 H 426.491 -3.7618 -5.86056 0
M  V30 4326 H 424.118 -4.37764 -6.21503 0
M  V30 4327 N 425.693 1.55336 -0.266172 0
M  V30 4328 C 426.623 2.25146 0.618981 0
M  V30 4329 C 427.604 1.23845 1.16604 0
M  V30 4330 O 428.789 1.52544 1.20183 0
M  V30 4331 C 425.919 2.96572 1.80728 0
M  V30 4332 C 424.873 4.04726 1.39215 0
M  V30 4333 C 424.199 4.63678 2.66283 0
M  V30 4334 C 425.499 5.19407 0.548942 0
M  V30 4335 H 427.193 2.99377 0.0368116 0
M  V30 4336 H 424.739 1.43991 0.0162651 0
M  V30 4337 H 426.692 3.44116 2.43232 0
M  V30 4338 H 425.416 2.19861 2.41514 0
M  V30 4339 H 424.075 3.57979 0.790351 0
M  V30 4340 H 423.723 3.83646 3.25308 0
M  V30 4341 H 423.423 5.367 2.39222 0
M  V30 4342 H 424.947 5.13967 3.29651 0
M  V30 4343 H 426.361 5.63059 1.07876 0
M  V30 4344 H 424.758 5.98936 0.373593 0
M  V30 4345 H 425.828 4.8295 -0.434394 0
M  V30 4346 N 427.171 -0.0066808 1.57599 0
M  V30 4347 C 428.396 -0.707738 1.94951 0
M  V30 4348 C 428.821 -1.66882 0.867868 0
M  V30 4349 O 428.179 -1.80457 -0.17458 0
M  V30 4350 C 428.227 -1.42162 3.31394 0
M  V30 4351 O 427.331 -2.53578 3.25226 0
M  V30 4352 H 426.672 -0.188752 0.636607 0
M  V30 4353 H 429.202 0.0445193 2.04552 0
M  V30 4354 H 429.212 -1.78655 3.66806 0
M  V30 4355 H 427.887 -0.716903 4.09675 0
M  V30 4356 H 426.464 -2.19463 3.01481 0
M  V30 4357 N 428.649 -1.55105 -0.279332 0
M  V30 4358 C 429.877 -1.7943 -1.03017 0
M  V30 4359 C 430.292 -0.564456 -1.80165 0
M  V30 4360 O 429.649 0.466326 -1.76442 0
M  V30 4361 C 429.7 -3.0155 -1.99374 0
M  V30 4362 O 429.421 -4.19784 -1.25352 0
M  V30 4363 C 430.922 -3.3843 -2.86321 0
M  V30 4364 H 428.142 -0.597882 -0.304594 0
M  V30 4365 H 430.686 -2.02105 -0.312035 0
M  V30 4366 H 428.841 -2.81019 -2.66659 0
M  V30 4367 H 429.255 -4.88781 -1.90246 0
M  V30 4368 H 430.729 -4.27066 -3.49741 0
M  V30 4369 H 431.206 -2.57549 -3.5576 0
M  V30 4370 H 431.812 -3.61197 -2.24536 0
M  V30 4371 N 430.127 0.543554 -1.4793 0
M  V30 4372 C 431.037 1.67657 -1.64098 0
M  V30 4373 C 432.053 1.65934 -0.523622 0
M  V30 4374 O 433.229 1.85133 -0.792943 0
M  V30 4375 C 430.294 3.04146 -1.66421 0
M  V30 4376 C 429.355 3.16831 -2.89684 0
M  V30 4377 C 428.588 4.46809 -2.91886 0
M  V30 4378 O 428.811 5.33095 -2.02895 0
M  V30 4379 O 427.745 4.63573 -3.83906 0
M  V30 4380 H 431.571 1.56957 -2.59997 0
M  V30 4381 H 429.156 0.715116 -1.31173 0
M  V30 4382 H 431.038 3.85346 -1.70548 0
M  V30 4383 H 429.713 3.152 -0.736923 0
M  V30 4384 H 428.62 2.34977 -2.91095 0
M  V30 4385 H 429.953 3.10687 -3.81752 0
M  V30 4386 N 431.605 1.3629 0.791371 0
M  V30 4387 C 432.537 1.26321 1.91248 0
M  V30 4388 C 433.55 0.18313 1.61767 0
M  V30 4389 O 434.739 0.437682 1.73051 0
M  V30 4390 C 431.839 0.925901 3.26007 0
M  V30 4391 C 431.012 2.10746 3.83281 0
M  V30 4392 C 430.071 1.74352 4.96475 0
M  V30 4393 O 429.097 2.46416 5.13096 0
M  V30 4394 N 430.299 0.676058 5.7655 0
M  V30 4395 H 433.064 2.22915 2.00323 0
M  V30 4396 H 430.625 1.29659 0.969546 0
M  V30 4397 H 432.617 0.663636 3.99222 0
M  V30 4398 H 431.187 0.0491581 3.12561 0
M  V30 4399 H 430.407 2.53264 3.02077 0
M  V30 4400 H 431.695 2.8969 4.18279 0
M  V30 4401 H 431.093 0.0776467 5.65647 0
M  V30 4402 H 429.65 0.473612 6.50077 0
M  V30 4403 N 433.083 -1.0153 1.20538 0
M  V30 4404 C 434.015 -2.10224 0.913155 0
M  V30 4405 C 435.028 -1.62495 -0.0995998 0
M  V30 4406 O 436.217 -1.78014 0.131582 0
M  V30 4407 C 433.317 -3.37111 0.347717 0
M  V30 4408 C 432.49 -4.13971 1.41233 0
M  V30 4409 C 431.549 -5.19158 0.857976 0
M  V30 4410 O 430.575 -5.48 1.53897 0
M  V30 4411 N 431.777 -5.7955 -0.331966 0
M  V30 4412 H 434.542 -2.35879 1.84881 0
M  V30 4413 H 432.103 -1.17931 1.10923 0
M  V30 4414 H 434.095 -4.04683 -0.0373026 0
M  V30 4415 H 432.665 -3.08696 -0.492527 0
M  V30 4416 H 431.885 -3.41351 1.97163 0
M  V30 4417 H 433.173 -4.62103 2.12928 0
M  V30 4418 H 432.571 -5.58455 -0.902478 0
M  V30 4419 H 431.128 -6.48464 -0.65861 0
M  V30 4420 N 434.561 -1.01147 -1.20859 0
M  V30 4421 C 435.789 -0.716911 -1.94082 0
M  V30 4422 C 436.204 0.721568 -1.74467 0
M  V30 4423 O 435.561 1.48889 -1.05539 0
M  V30 4424 C 435.612 -1.03662 -3.46318 0
M  V30 4425 O 435.333 -2.4186 -3.65288 0
M  V30 4426 C 436.834 -0.762386 -4.36695 0
M  V30 4427 H 434.054 -0.26367 -0.617024 0
M  V30 4428 H 436.598 -1.35127 -1.53496 0
M  V30 4429 H 434.753 -0.447757 -3.84804 0
M  V30 4430 H 435.167 -2.53224 -4.59323 0
M  V30 4431 H 436.641 -1.03621 -5.42187 0
M  V30 4432 H 437.118 0.303514 -4.3815 0
M  V30 4433 H 437.724 -1.33316 -4.03865 0
M  V30 4434 N 436.039 1.36541 -0.78704 0
M  V30 4435 C 437.316 1.9355 -0.282424 0
M  V30 4436 C 437.696 1.71919 1.22503 0
M  V30 4437 O 437.044 1.07677 2.01539 0
M  V30 4438 C 437.254 3.4246 -0.672462 0
M  V30 4439 C 438.602 4.19582 -0.650863 0
M  V30 4440 O 439.626 3.50889 -0.612789 0
M  V30 4441 O 438.485 5.42106 -0.691623 0
M  V30 4442 H 435.579 0.824091 -0.0693 0
M  V30 4443 H 438.125 1.45736 -0.869423 0
M  V30 4444 H 436.897 3.51851 -1.71221 0
M  V30 4445 H 436.52 3.97556 -0.0592211 0
M  V30 4446 N 437.518 0.538854 1.48102 0
M  V30 4447 C 438.448 -0.207654 2.32575 0
M  V30 4448 C 439.429 -0.926559 1.4265 0
M  V30 4449 O 440.614 -0.91061 1.71527 0
M  V30 4450 C 437.744 -1.24957 3.24042 0
M  V30 4451 C 436.698 -0.648263 4.23062 0
M  V30 4452 C 436.024 -1.79348 5.03725 0
M  V30 4453 C 437.324 0.385897 5.20872 0
M  V30 4454 H 439.018 0.497534 2.95237 0
M  V30 4455 H 436.564 0.240715 1.41974 0
M  V30 4456 H 438.517 -1.77983 3.81969 0
M  V30 4457 H 437.241 -1.98446 2.59397 0
M  V30 4458 H 435.9 -0.139452 3.66335 0
M  V30 4459 H 435.548 -2.51696 4.35498 0
M  V30 4460 H 435.248 -1.39702 5.70751 0
M  V30 4461 H 436.772 -2.32735 5.64506 0
M  V30 4462 H 438.186 -0.057607 5.73271 0
M  V30 4463 H 436.583 0.700227 5.96001 0
M  V30 4464 H 437.653 1.28848 4.67468 0
M  V30 4465 N 438.996 -1.55193 0.274407 0
M  V30 4466 C 440.412 -1.59401 -0.0797543 0
M  V30 4467 C 440.612 -1.29162 -1.54659 0
M  V30 4468 O 439.668 -1.05215 -2.29534 0
M  V30 4469 C 440.981 -2.99257 0.294238 0
M  V30 4470 C 442.529 -3.12072 0.240796 0
M  V30 4471 C 443.004 -4.54194 0.589218 0
M  V30 4472 N 444.495 -4.60033 0.540744 0
M  V30 4473 C 445.23 -5.68027 0.783147 0
M  V30 4474 N 444.726 -6.8417 1.09013 0
M  V30 4475 N 446.519 -5.57572 0.711993 0
M  V30 4476 H 438.67 -1.73113 1.23067 0
M  V30 4477 H 440.933 -0.807197 0.497129 0
M  V30 4478 H 440.639 -3.26217 1.31435 0
M  V30 4479 H 440.513 -3.75427 -0.365281 0
M  V30 4480 H 442.9 -2.84877 -0.770024 0
M  V30 4481 H 442.981 -2.38117 0.934563 0
M  V30 4482 H 442.625 -4.82115 1.59772 0
M  V30 4483 H 442.555 -5.26448 -0.126331 0
M  V30 4484 H 445.046 -3.76599 0.313327 0
M  V30 4485 H 445.359 -7.6243 1.26178 0
M  V30 4486 H 443.704 -6.85787 1.12789 0
M  V30 4487 H 446.895 -4.65714 0.472014 0
M  V30 4488 H 447.068 -6.41659 0.90429 0
M  V30 4489 N 440.474 -0.00167713 -1.576 0
M  V30 4490 C 441.699 0.69739 -1.95323 0
M  V30 4491 C 442.124 1.6642 -0.876706 0
M  V30 4492 O 441.482 1.80548 0.165007 0
M  V30 4493 C 441.53 1.40403 -3.32144 0
M  V30 4494 O 440.634 2.5185 -3.26566 0
M  V30 4495 H 439.975 0.185373 -0.637599 0
M  V30 4496 H 442.505 -0.0553665 -2.04525 0
M  V30 4497 H 442.515 1.76707 -3.67748 0
M  V30 4498 H 441.19 0.695167 -4.10049 0
M  V30 4499 H 439.767 2.17861 -3.0264 0
M  V30 4500 N 441.952 1.55251 0.271103 0
M  V30 4501 C 443.182 1.79713 1.01916 0
M  V30 4502 C 443.59 0.571613 1.80359 0
M  V30 4503 O 442.933 -0.468853 1.77616 0
M  V30 4504 C 442.995 2.97138 2.02359 0
M  V30 4505 C 442.659 4.34104 1.42837 0
M  V30 4506 C 443.656 5.13019 0.843071 0
M  V30 4507 C 441.341 4.80765 1.455 0
M  V30 4508 C 443.335 6.36729 0.292333 0
M  V30 4509 C 441.022 6.0443 0.900402 0
M  V30 4510 C 442.02 6.8225 0.32007 0
M  V30 4511 O 441.708 8.03582 -0.226031 0
M  V30 4512 H 441.44 0.602431 0.306681 0
M  V30 4513 H 443.994 2.03097 0.306701 0
M  V30 4514 H 442.224 2.6945 2.77369 0
M  V30 4515 H 443.913 3.08907 2.63309 0
M  V30 4516 H 444.679 4.781 0.815178 0
M  V30 4517 H 440.558 4.20202 1.89609 0
M  V30 4518 H 444.102 6.97414 -0.161274 0
M  V30 4519 H 439.999 6.3883 0.925541 0
M  V30 4520 H 440.767 8.18418 -0.115572 0
M  V30 4521 N 443.43 -0.535701 1.48216 0
M  V30 4522 C 444.846 -0.863701 1.3421 0
M  V30 4523 C 445.046 -1.98458 0.34879 0
M  V30 4524 O 444.102 -2.51432 -0.23204 0
M  V30 4525 C 445.415 -1.23662 2.74095 0
M  V30 4526 C 446.963 -1.34683 2.82541 0
M  V30 4527 C 447.438 -1.75322 4.23115 0
M  V30 4528 N 448.929 -1.82434 4.2576 0
M  V30 4529 C 449.664 -2.15252 5.31464 0
M  V30 4530 N 449.16 -2.46533 6.47452 0
M  V30 4531 N 450.953 -2.16209 5.18855 0
M  V30 4532 H 443.104 0.203965 2.11418 0
M  V30 4533 H 445.367 0.0286033 0.947568 0
M  V30 4534 H 445.073 -0.486674 3.48316 0
M  V30 4535 H 444.947 -2.18805 3.07253 0
M  V30 4536 H 447.334 -2.08756 2.08579 0
M  V30 4537 H 447.415 -0.376756 2.5301 0
M  V30 4538 H 447.059 -1.01812 4.97591 0
M  V30 4539 H 446.989 -2.7337 4.50085 0
M  V30 4540 H 449.48 -1.6056 3.42095 0
M  V30 4541 H 449.793 -2.70662 7.23852 0
M  V30 4542 H 448.138 -2.44065 6.50736 0
M  V30 4543 H 451.329 -1.91224 4.2726 0
M  V30 4544 H 451.502 -2.41453 6.01335 0
M  V30 4545 N 444.908 -1.36708 -0.784132 0
M  V30 4546 C 446.154 -1.32433 -1.54379 0
M  V30 4547 C 446.509 0.0941816 -1.92169 0
M  V30 4548 O 445.802 1.04997 -1.60269 0
M  V30 4549 C 445.996 -2.18571 -2.82774 0
M  V30 4550 C 445.825 -3.68656 -2.57533 0
M  V30 4551 C 444.595 -4.37813 -2.52286 0
M  V30 4552 C 446.793 -4.61802 -2.2637 0
M  V30 4553 N 444.775 -5.7351 -2.18997 0
M  V30 4554 C 446.146 -5.85785 -2.03115 0
M  V30 4555 C 448.201 -4.50313 -2.12421 0
M  V30 4556 C 446.904 -6.99569 -1.67321 0
M  V30 4557 C 448.93 -5.63969 -1.78026 0
M  V30 4558 C 448.292 -6.86994 -1.55622 0
M  V30 4559 H 444.391 -0.539886 -0.565727 0
M  V30 4560 H 446.975 -1.71812 -0.915908 0
M  V30 4561 H 445.146 -1.81429 -3.43421 0
M  V30 4562 H 446.878 -2.05646 -3.48557 0
M  V30 4563 H 443.633 -3.90674 -2.67714 0
M  V30 4564 H 444.057 -6.45189 -2.05084 0
M  V30 4565 H 448.699 -3.55781 -2.28429 0
M  V30 4566 H 446.417 -7.94047 -1.5005 0
M  V30 4567 H 450.003 -5.57044 -1.67909 0
M  V30 4568 H 448.883 -7.7345 -1.294 0
M  V30 4569 N 446.386 1.0089 -1.21074 0
M  V30 4570 C 447.614 1.78191 -1.05145 0
M  V30 4571 C 448.029 1.84537 0.398952 0
M  V30 4572 O 447.386 1.30393 1.27687 0
M  V30 4573 C 447.437 3.22288 -1.63746 0
M  V30 4574 O 447.158 3.16315 -3.03111 0
M  V30 4575 C 448.659 4.16106 -1.52875 0
M  V30 4576 H 445.879 0.560129 -0.369454 0
M  V30 4577 H 448.423 1.26945 -1.60328 0
M  V30 4578 H 446.578 3.70655 -1.12664 0
M  V30 4579 H 446.992 4.06817 -3.31059 0
M  V30 4580 H 448.466 5.15026 -1.98626 0
M  V30 4581 H 448.943 4.36541 -0.482521 0
M  V30 4582 H 449.549 3.73625 -2.03185 0
M  V30 4583 N 447.864 1.01787 1.20321 0
M  V30 4584 C 449.113 0.703249 1.89043 0
M  V30 4585 C 449.426 -0.770445 1.79787 0
M  V30 4586 O 450.632 -1.19767 2.43656 0
M  V30 4587 C 449.088 1.20749 3.3904 0
M  V30 4588 C 448.696 2.70817 3.56878 0
M  V30 4589 C 450.44 0.968352 4.13308 0
M  V30 4590 C 448.347 3.14716 5.00708 0
M  V30 4591 H 447.277 0.259354 0.707991 0
M  V30 4592 H 449.928 1.23072 1.36108 0
M  V30 4593 H 448.31 0.607989 3.91305 0
M  V30 4594 H 449.484 3.36327 3.14993 0
M  V30 4595 H 447.799 2.92888 2.95983 0
M  V30 4596 H 450.396 1.27173 5.19356 0
M  V30 4597 H 450.739 -0.095149 4.16191 0
M  V30 4598 H 451.272 1.53129 3.67146 0
M  V30 4599 H 448.011 4.20347 5.02979 0
M  V30 4600 H 447.531 2.53927 5.43398 0
M  V30 4601 H 449.21 3.07426 5.69296 0
M  V30 4602 N 449.342 -1.36122 0.79427 0
M  V30 4603 C 450.305 -2.28309 0.201889 0
M  V30 4604 C 451.305 -1.49041 -0.603603 0
M  V30 4605 O 452.495 -1.68964 -0.423888 0
M  V30 4606 C 449.627 -3.3321 -0.719978 0
M  V30 4607 H 450.82 -2.82208 1.01481 0
M  V30 4608 H 448.373 -1.45768 0.564037 0
M  V30 4609 H 449.108 -2.84475 -1.55706 0
M  V30 4610 H 448.893 -3.91835 -0.144266 0
M  V30 4611 H 450.383 -4.02044 -1.12916 0
M  V30 4612 N 450.82 -0.546701 -1.47814 0
M  V30 4613 C 452.066 -0.0269594 -2.03382 0
M  V30 4614 C 452.421 1.30406 -1.41464 0
M  V30 4615 O 451.714 1.8332 -0.557151 0
M  V30 4616 C 451.908 0.134869 -3.57145 0
M  V30 4617 C 451.737 -1.17891 -4.33972 0
M  V30 4618 C 450.507 -1.74336 -4.74273 0
M  V30 4619 C 452.705 -2.09361 -4.69758 0
M  V30 4620 N 450.687 -2.99829 -5.35701 0
M  V30 4621 C 452.058 -3.19431 -5.31379 0
M  V30 4622 C 454.113 -2.09484 -4.51687 0
M  V30 4623 C 452.816 -4.2971 -5.76838 0
M  V30 4624 C 454.842 -3.18767 -4.98138 0
M  V30 4625 C 454.204 -4.27557 -5.59799 0
M  V30 4626 H 450.303 -0.0517733 -0.780284 0
M  V30 4627 H 452.887 -0.731673 -1.80429 0
M  V30 4628 H 451.058 0.80869 -3.79888 0
M  V30 4629 H 452.79 0.655726 -3.99352 0
M  V30 4630 H 449.545 -1.28265 -4.559 0
M  V30 4631 H 449.969 -3.63765 -5.70968 0
M  V30 4632 H 454.611 -1.26663 -4.03381 0
M  V30 4633 H 452.329 -5.13297 -6.24141 0
M  V30 4634 H 455.915 -3.19937 -4.85934 0
M  V30 4635 H 454.795 -5.10725 -5.95088 0
M  V30 4636 N 452.299 1.55045 -0.282633 0
M  V30 4637 C 453.576 1.9179 0.384166 0
M  V30 4638 C 453.956 1.20778 1.73136 0
M  V30 4639 O 453.304 0.33719 2.25998 0
M  V30 4640 C 453.514 3.45149 0.517014 0
M  V30 4641 C 454.862 4.17064 0.796427 0
M  V30 4642 O 455.886 3.51084 0.601535 0
M  V30 4643 O 454.745 5.33837 1.16962 0
M  V30 4644 H 451.839 0.799483 0.211558 0
M  V30 4645 H 454.385 1.66474 -0.32934 0
M  V30 4646 H 453.157 3.88922 -0.430772 0
M  V30 4647 H 452.78 3.76443 1.2797 0
M  V30 4648 N 453.777 0.010035 1.57597 0
M  V30 4649 C 455.054 -0.710296 1.82248 0
M  V30 4650 C 455.434 -1.91426 0.889911 0
M  V30 4651 O 454.782 -2.28424 -0.0590292 0
M  V30 4652 C 454.992 -1.10655 3.30993 0
M  V30 4653 C 456.34 -1.50621 3.96987 0
M  V30 4654 O 457.364 -1.20007 3.35375 0
M  V30 4655 O 456.223 -2.07587 5.05539 0
M  V30 4656 H 453.317 -0.34673 0.750804 0
M  V30 4657 H 455.863 0.0362578 1.69661 0
M  V30 4658 H 454.635 -0.248826 3.90508 0
M  V30 4659 H 454.258 -1.91189 3.48615 0
M  V30 4660 N 455.255 -1.55392 -0.262866 0
M  V30 4661 C 456.202 -1.88966 -1.32516 0
M  V30 4662 C 457.172 -0.742187 -1.48596 0
M  V30 4663 O 458.357 -0.99439 -1.62839 0
M  V30 4664 C 455.497 -2.17592 -2.67858 0
M  V30 4665 C 454.61 -3.45061 -2.59917 0
M  V30 4666 C 453.745 -3.63336 -3.87505 0
M  V30 4667 C 452.784 -4.84462 -3.74116 0
M  V30 4668 N 451.921 -4.99342 -4.93561 0
M  V30 4669 H 456.761 -2.79566 -1.03184 0
M  V30 4670 H 454.298 -1.38404 -0.498285 0
M  V30 4671 H 456.256 -2.3219 -3.46617 0
M  V30 4672 H 454.886 -1.30215 -2.95371 0
M  V30 4673 H 453.938 -3.38881 -1.72812 0
M  V30 4674 H 455.25 -4.3396 -2.45926 0
M  V30 4675 H 454.404 -3.77807 -4.74707 0
M  V30 4676 H 453.143 -2.72641 -4.04374 0
M  V30 4677 H 452.148 -4.69985 -2.85297 0
M  V30 4678 H 453.373 -5.76603 -3.58757 0
M  V30 4679 H 451.319 -4.1158 -5.10821 0
M  V30 4680 H 451.236 -5.82303 -4.82141 0
M  V30 4681 H 452.504 -5.18208 -5.82306 0
M  V30 4682 N 456.733 0.527833 -1.48498 0
M  V30 4683 C 457.958 1.313 -1.60546 0
M  V30 4684 C 458.383 1.86199 -0.26672 0
M  V30 4685 O 457.741 1.64513 0.761918 0
M  V30 4686 C 457.789 2.43818 -2.65678 0
M  V30 4687 O 456.893 3.46916 -2.22987 0
M  V30 4688 H 456.234 0.388784 -0.538277 0
M  V30 4689 H 458.764 0.634896 -1.945 0
M  V30 4690 H 458.774 2.89973 -2.87018 0
M  V30 4691 H 457.449 2.03222 -3.62869 0
M  V30 4692 H 456.026 3.06864 -2.11869 0
M  V30 4693 N 458.211 1.37122 0.776871 0
M  V30 4694 C 459.441 1.35034 1.56363 0
M  V30 4695 C 459.849 -0.0674681 1.8908 0
M  V30 4696 O 459.192 -1.03826 1.51545 0
M  V30 4697 C 459.254 2.11894 2.90415 0
M  V30 4698 C 458.918 3.60897 2.80362 0
M  V30 4699 C 459.915 4.54887 2.51742 0
M  V30 4700 C 457.6 4.03951 2.98545 0
M  V30 4701 C 459.594 5.89909 2.41426 0
M  V30 4702 C 457.281 5.3906 2.87849 0
M  V30 4703 C 458.279 6.31852 2.5933 0
M  V30 4704 O 457.967 7.64479 2.48651 0
M  V30 4705 H 457.699 0.464402 0.49123 0
M  V30 4706 H 460.253 1.80992 0.971127 0
M  V30 4707 H 458.483 1.60618 3.51765 0
M  V30 4708 H 460.172 2.02505 3.51776 0
M  V30 4709 H 460.938 4.22934 2.37385 0
M  V30 4710 H 456.817 3.3209 3.19746 0
M  V30 4711 H 460.361 6.62304 2.19086 0
M  V30 4712 H 456.258 5.70617 3.01773 0
M  V30 4713 H 457.026 7.74742 2.64039 0
M  V30 4714 N 459.689 -1.00246 1.21608 0
M  V30 4715 C 460.937 -1.73717 1.0328 0
M  V30 4716 C 461.258 -1.90102 -0.434318 0
M  V30 4717 O 460.528 -1.45376 -1.31311 0
M  V30 4718 H 459.108 -0.643613 0.379172 0
M  V30 4719 H 461.77 -1.20787 1.52959 0
M  V30 4720 H 460.866 -2.73535 1.50283 0
M  V30 4721 N 461.167 -1.02423 -1.1978 0
M  V30 4722 C 462.395 -0.737456 -1.93311 0
M  V30 4723 C 462.81 0.703023 -1.75223 0
M  V30 4724 O 462.167 1.47761 -1.07112 0
M  V30 4725 C 462.218 -1.0733 -3.45199 0
M  V30 4726 O 461.939 -2.4572 -3.62702 0
M  V30 4727 C 463.44 -0.80866 -4.35862 0
M  V30 4728 H 460.66 -0.2702 -0.614193 0
M  V30 4729 H 463.204 -1.36747 -1.52054 0
M  V30 4730 H 461.359 -0.488545 -3.84307 0
M  V30 4731 H 461.773 -2.58081 -4.56612 0
M  V30 4732 H 463.247 -1.09365 -5.41057 0
M  V30 4733 H 463.724 0.257025 -4.38447 0
M  V30 4734 H 464.33 -1.37592 -4.02428 0
M  V30 4735 N 462.645 1.35699 -0.801477 0
M  V30 4736 C 463.875 2.02862 -0.3912 0
M  V30 4737 C 464.283 1.60552 1.00099 0
M  V30 4738 O 463.626 0.796215 1.65548 0
M  V30 4739 C 463.688 3.57386 -0.389299 0
M  V30 4740 C 463.352 4.22943 -1.73113 0
M  V30 4741 C 464.349 4.44984 -2.68859 0
M  V30 4742 C 462.034 4.60167 -2.01373 0
M  V30 4743 C 464.028 5.03345 -3.91053 0
M  V30 4744 C 461.715 5.18243 -3.23832 0
M  V30 4745 C 462.713 5.39773 -4.1849 0
M  V30 4746 O 462.401 5.96626 -5.38788 0
M  V30 4747 H 462.133 0.657341 -0.157732 0
M  V30 4748 H 464.687 1.74407 -1.08496 0
M  V30 4749 H 462.917 3.85011 0.361031 0
M  V30 4750 H 464.606 4.059 -0.0020365 0
M  V30 4751 H 465.372 4.1661 -2.48316 0
M  V30 4752 H 461.251 4.42726 -1.28508 0
M  V30 4753 H 464.795 5.20065 -4.64949 0
M  V30 4754 H 460.692 5.46044 -3.44248 0
M  V30 4755 H 461.46 6.15082 -5.40015 0
M  V30 4756 N 464.123 0.554532 1.47522 0
M  V30 4757 C 465.369 0.0295227 2.02779 0
M  V30 4758 C 465.702 -1.31582 1.42828 0
M  V30 4759 O 464.977 -1.85561 0.582872 0
M  V30 4760 C 465.26 -0.0664057 3.60039 0
M  V30 4761 C 465.113 1.30585 4.30427 0
M  V30 4762 C 466.432 -0.781162 4.33112 0
M  V30 4763 H 463.551 0.0122027 0.736899 0
M  V30 4764 H 466.193 0.716305 1.7598 0
M  V30 4765 H 464.343 -0.651307 3.83002 0
M  V30 4766 H 466.015 1.93374 4.18813 0
M  V30 4767 H 464.258 1.88125 3.90886 0
M  V30 4768 H 464.929 1.19147 5.38988 0
M  V30 4769 H 467.405 -0.284565 4.15126 0
M  V30 4770 H 466.281 -0.817237 5.42782 0
M  V30 4771 H 466.542 -1.83672 4.0214 0
M  V30 4772 N 465.601 -1.54893 0.290851 0
M  V30 4773 C 466.531 -2.26103 -0.583084 0
M  V30 4774 C 467.512 -1.25684 -1.14619 0
M  V30 4775 O 468.697 -1.54436 -1.17741 0
M  V30 4776 C 465.827 -2.99409 -1.75987 0
M  V30 4777 C 464.781 -4.0689 -1.32758 0
M  V30 4778 C 464.107 -4.67856 -2.58872 0
M  V30 4779 C 465.407 -5.20215 -0.46624 0
M  V30 4780 H 467.101 -2.99398 0.0108214 0
M  V30 4781 H 464.647 -1.43998 0.00664468 0
M  V30 4782 H 466.6 -3.47943 -2.37727 0
M  V30 4783 H 465.324 -2.23675 -2.37985 0
M  V30 4784 H 463.983 -3.59191 -0.733299 0
M  V30 4785 H 463.631 -3.88772 -3.19163 0
M  V30 4786 H 463.331 -5.40438 -2.30653 0
M  V30 4787 H 464.855 -5.19147 -3.21433 0
M  V30 4788 H 466.269 -5.64704 -0.989047 0
M  V30 4789 H 464.666 -5.99455 -0.27826 0
M  V30 4790 H 465.736 -4.82198 0.511173 0
M  V30 4791 N 467.08 -0.0183926 -1.57589 0
M  V30 4792 C 468.01 0.965596 -2.12599 0
M  V30 4793 C 468.991 1.34641 -1.0395 0
M  V30 4794 O 470.176 1.42693 -1.31729 0
M  V30 4795 C 467.306 2.25149 -2.64434 0
M  V30 4796 C 466.26 2.01175 -3.77773 0
M  V30 4797 C 465.586 3.35937 -4.15994 0
M  V30 4798 C 466.886 1.35953 -5.04296 0
M  V30 4799 H 468.58 0.507504 -2.95067 0
M  V30 4800 H 466.126 0.242671 -1.41941 0
M  V30 4801 H 468.079 2.94357 -3.01549 0
M  V30 4802 H 466.803 2.73105 -1.79112 0
M  V30 4803 H 465.462 1.34388 -3.4108 0
M  V30 4804 H 465.11 3.81631 -3.27669 0
M  V30 4805 H 464.81 3.20705 -4.92364 0
M  V30 4806 H 466.334 4.0643 -4.55683 0
M  V30 4807 H 467.748 1.95144 -5.39065 0
M  V30 4808 H 466.145 1.31152 -5.85593 0
M  V30 4809 H 467.215 0.331071 -4.83768 0
M  V30 4810 N 468.558 1.5553 0.254621 0
M  V30 4811 C 469.521 1.88872 1.29846 0
M  V30 4812 C 470.521 0.764591 1.41459 0
M  V30 4813 O 471.711 1.03265 1.40293 0
M  V30 4814 C 468.843 2.11032 2.67728 0
M  V30 4815 H 470.036 2.82201 1.01502 0
M  V30 4816 H 467.589 1.48303 0.493556 0
M  V30 4817 H 468.324 1.20146 3.01223 0
M  V30 4818 H 468.109 2.92895 2.60682 0
M  V30 4819 H 469.599 2.38038 3.43115 0
M  V30 4820 N 470.036 -0.519951 1.48776 0
M  V30 4821 C 470.983 -1.62352 1.64044 0
M  V30 4822 C 471.953 -1.58945 0.482251 0
M  V30 4823 O 473.138 -1.77219 0.706971 0
M  V30 4824 C 470.278 -3.00579 1.69547 0
M  V30 4825 C 469.391 -3.14145 2.96541 0
M  V30 4826 C 468.526 -4.42991 2.93142 0
M  V30 4827 C 467.565 -4.50122 4.14797 0
M  V30 4828 N 466.702 -5.7037 4.09418 0
M  V30 4829 H 471.542 -1.48643 2.58281 0
M  V30 4830 H 469.079 -0.723516 1.28077 0
M  V30 4831 H 471.037 -3.80671 1.70719 0
M  V30 4832 H 469.667 -3.13036 0.787918 0
M  V30 4833 H 468.719 -2.27239 3.05068 0
M  V30 4834 H 470.031 -3.15275 3.86527 0
M  V30 4835 H 469.185 -5.31385 2.92772 0
M  V30 4836 H 467.924 -4.44398 2.00902 0
M  V30 4837 H 466.929 -3.60133 4.15433 0
M  V30 4838 H 468.154 -4.50445 5.08208 0
M  V30 4839 H 466.1 -5.72655 3.20004 0
M  V30 4840 H 466.017 -5.73036 4.93119 0
M  V30 4841 H 467.285 -6.61023 4.13121 0
M  V30 4842 N 471.514 -1.37532 -0.769588 0
M  V30 4843 C 472.424 -1.35668 -1.91393 0
M  V30 4844 C 473.44 -0.255954 -1.72107 0
M  V30 4845 O 474.616 -0.491704 -1.95305 0
M  V30 4846 C 471.681 -1.16481 -3.26547 0
M  V30 4847 C 470.742 -2.36212 -3.58472 0
M  V30 4848 C 469.975 -2.17932 -4.87177 0
M  V30 4849 O 470.198 -1.1647 -5.58382 0
M  V30 4850 O 469.132 -3.06167 -5.18214 0
M  V30 4851 H 472.958 -2.32055 -1.95918 0
M  V30 4852 H 470.543 -1.18284 -0.912641 0
M  V30 4853 H 472.425 -1.07778 -4.07384 0
M  V30 4854 H 471.1 -0.231687 -3.2287 0
M  V30 4855 H 470.007 -2.50488 -2.77861 0
M  V30 4856 H 471.34 -3.281 -3.66894 0
M  V30 4857 N 472.992 0.995999 -1.22138 0
M  V30 4858 C 474.22 1.77066 -1.07029 0
M  V30 4859 C 474.635 1.8495 0.379357 0
M  V30 4860 O 473.992 1.3174 1.26297 0
M  V30 4861 C 474.043 3.20533 -1.67155 0
M  V30 4862 O 473.764 3.13082 -3.06449 0
M  V30 4863 C 475.265 4.14461 -1.5728 0
M  V30 4864 H 472.485 0.556179 -0.375374 0
M  V30 4865 H 475.029 1.25238 -1.61666 0
M  V30 4866 H 473.184 3.6944 -1.16589 0
M  V30 4867 H 473.598 4.03283 -3.35355 0
M  V30 4868 H 475.072 5.1289 -2.04078 0
M  V30 4869 H 475.549 4.36005 -0.528795 0
M  V30 4870 H 476.155 3.71449 -2.07136 0
M  V30 4871 N 474.47 1.03057 1.19235 0
M  V30 4872 C 475.718 0.726581 1.88587 0
M  V30 4873 C 476.039 -0.747227 1.80115 0
M  V30 4874 O 475.309 -1.53849 1.21274 0
M  V30 4875 H 473.889 0.265768 0.698124 0
M  V30 4876 H 476.551 1.30516 1.44746 0
M  V30 4877 H 475.647 1.0224 2.94879 0
M  V30 4878 N 475.948 -1.35272 0.808662 0
M  V30 4879 C 476.895 -2.29764 0.218482 0
M  V30 4880 C 477.865 -1.52911 -0.648652 0
M  V30 4881 O 479.05 -1.81341 -0.593297 0
M  V30 4882 C 476.19 -3.39388 -0.625282 0
M  V30 4883 C 475.303 -4.31202 0.262516 0
M  V30 4884 C 474.438 -5.27919 -0.589451 0
M  V30 4885 C 473.477 -6.11371 0.298617 0
M  V30 4886 N 472.614 -7.0022 -0.513443 0
M  V30 4887 H 477.454 -2.79645 1.02968 0
M  V30 4888 H 474.991 -1.37629 0.519303 0
M  V30 4889 H 476.949 -4.01615 -1.12966 0
M  V30 4890 H 475.579 -2.90777 -1.40173 0
M  V30 4891 H 474.631 -3.69962 0.885013 0
M  V30 4892 H 475.943 -4.89748 0.945971 0
M  V30 4893 H 475.097 -5.95529 -1.15888 0
M  V30 4894 H 473.836 -4.69875 -1.30647 0
M  V30 4895 H 472.841 -5.42707 0.880301 0
M  V30 4896 H 474.066 -6.71494 1.01352 0
M  V30 4897 H 472.012 -6.44662 -1.21439 0
M  V30 4898 H 471.929 -7.55917 0.111922 0
M  V30 4899 H 473.197 -7.72175 -1.06608 0
M  V30 4900 N 477.426 -0.562348 -1.47226 0
M  V30 4901 C 478.358 0.220011 -2.28142 0
M  V30 4902 C 479.371 0.874596 -1.37312 0
M  V30 4903 O 480.56 0.747583 -1.62091 0
M  V30 4904 C 477.66 1.32953 -3.11732 0
M  V30 4905 C 476.833 0.770759 -4.30556 0
M  V30 4906 C 475.892 1.76541 -4.95701 0
M  V30 4907 O 474.918 1.3095 -5.53932 0
M  V30 4908 N 476.12 3.09896 -4.90861 0
M  V30 4909 H 478.885 -0.474107 -2.95926 0
M  V30 4910 H 476.446 -0.398761 -1.56912 0
M  V30 4911 H 478.438 1.99378 -3.5218 0
M  V30 4912 H 477.008 1.92681 -2.46156 0
M  V30 4913 H 476.228 -0.0704056 -3.94137 0
M  V30 4914 H 477.516 0.376872 -5.07402 0
M  V30 4915 H 476.914 3.49577 -4.44761 0
M  V30 4916 H 475.471 3.71865 -5.35313 0
M  V30 4917 N 478.904 1.54736 -0.299062 0
M  V30 4918 C 479.851 2.23448 0.577899 0
M  V30 4919 C 480.821 1.21637 1.13109 0
M  V30 4920 O 482.006 1.50252 1.17597 0
M  V30 4921 C 479.146 2.9774 1.74484 0
M  V30 4922 C 478.259 4.1432 1.22323 0
M  V30 4923 C 477.394 4.76199 2.35388 0
M  V30 4924 C 476.433 5.84927 1.80351 0
M  V30 4925 N 475.57 6.4077 2.86982 0
M  V30 4926 H 480.41 2.97996 -0.0146545 0
M  V30 4927 H 477.947 1.47088 -0.0190013 0
M  V30 4928 H 479.905 3.39045 2.43114 0
M  V30 4929 H 478.535 2.25572 2.30905 0
M  V30 4930 H 477.587 3.7797 0.429249 0
M  V30 4931 H 478.899 4.92659 0.780309 0
M  V30 4932 H 478.053 5.20346 3.11969 0
M  V30 4933 H 476.792 3.97188 2.83006 0
M  V30 4934 H 475.797 5.40207 1.02259 0
M  V30 4935 H 477.022 6.65821 1.3364 0
M  V30 4936 H 474.968 5.64643 3.33938 0
M  V30 4937 H 474.885 7.1445 2.4718 0
M  V30 4938 H 476.153 6.89574 3.63466 0
M  V30 4939 N 480.382 0.0267497 1.57577 0
M  V30 4940 C 481.612 -0.6617 1.95717 0
M  V30 4941 C 482.02 -1.66331 0.901706 0
M  V30 4942 O 481.363 -1.83273 -0.125241 0
M  V30 4943 C 481.425 -1.42649 3.29987 0
M  V30 4944 C 481.089 -0.583482 4.5326 0
M  V30 4945 C 482.086 0.140221 5.19711 0
M  V30 4946 C 479.771 -0.521581 4.99585 0
M  V30 4947 C 481.765 0.914523 6.30805 0
M  V30 4948 C 479.452 0.256428 6.10562 0
M  V30 4949 C 480.45 0.973189 6.76031 0
M  V30 4950 O 480.138 1.73845 7.84878 0
M  V30 4951 H 479.87 -0.187483 0.649481 0
M  V30 4952 H 482.424 0.0820847 2.05236 0
M  V30 4953 H 480.654 -2.21536 3.16952 0
M  V30 4954 H 482.343 -2.00282 3.53047 0
M  V30 4955 H 483.109 0.101716 4.84893 0
M  V30 4956 H 478.988 -1.06904 4.48433 0
M  V30 4957 H 482.532 1.4745 6.81839 0
M  V30 4958 H 478.429 0.296657 6.44818 0
M  V30 4959 H 479.197 1.65797 8.01532 0
M  V30 4960 N 481.861 -1.55662 -0.24637 0
M  V30 4961 C 483.11 -1.7672 -0.972254 0
M  V30 4962 C 483.423 -0.59078 -1.86465 0
M  V30 4963 O 484.629 -0.684391 -2.62732 0
M  V30 4964 C 483.085 -3.12869 -1.7788 0
M  V30 4965 C 482.693 -4.38161 -0.933768 0
M  V30 4966 C 484.437 -3.43265 -2.49738 0
M  V30 4967 C 482.344 -5.6534 -1.73623 0
M  V30 4968 H 481.274 -0.658795 -0.366749 0
M  V30 4969 H 483.925 -1.82092 -0.226902 0
M  V30 4970 H 482.307 -3.01606 -2.56612 0
M  V30 4971 H 483.481 -4.60413 -0.188736 0
M  V30 4972 H 481.796 -4.15102 -0.328488 0
M  V30 4973 H 484.393 -4.35501 -3.10231 0
M  V30 4974 H 484.736 -2.64614 -3.2138 0
M  V30 4975 H 485.269 -3.55746 -1.78016 0
M  V30 4976 H 482.008 -6.46814 -1.06354 0
M  V30 4977 H 481.528 -5.47188 -2.45653 0
M  V30 4978 H 483.207 -6.04616 -2.30323 0
M  V30 4979 N 483.339 0.512053 -1.4905 0
M  V30 4980 C 484.616 1.27337 -1.48474 0
M  V30 4981 C 484.996 2.1009 -0.206301 0
M  V30 4982 O 484.344 2.136 0.811609 0
M  V30 4983 C 484.554 2.13954 -2.75726 0
M  V30 4984 C 485.902 2.73507 -3.24776 0
M  V30 4985 O 486.926 2.24229 -2.76767 0
M  V30 4986 O 485.785 3.63186 -4.08361 0
M  V30 4987 H 482.879 0.575652 -0.593762 0
M  V30 4988 H 485.425 0.527232 -1.61302 0
M  V30 4989 H 484.197 1.52709 -3.60272 0
M  V30 4990 H 483.82 2.95782 -2.65705 0
M  V30 4991 N 484.817 1.37938 0.762283 0
M  V30 4992 C 486.094 1.24196 1.51112 0
M  V30 4993 C 486.474 -0.160409 2.1049 0
M  V30 4994 O 485.822 -1.16904 1.96331 0
M  V30 4995 C 486.032 2.34537 2.58445 0
M  V30 4996 C 487.38 2.7254 3.25588 0
M  V30 4997 O 488.404 2.33783 2.68745 0
M  V30 4998 O 487.263 3.39343 4.28379 0
M  V30 4999 H 484.357 0.485175 0.669727 0
M  V30 5000 H 486.903 1.49743 0.798438 0
M  V30 5001 H 485.675 3.28406 2.12756 0
M  V30 5002 H 485.298 2.10505 3.37303 0
M  V30 5003 N 486.295 -0.989507 1.22664 0
M  V30 5004 C 487.258 -2.06183 1.00106 0
M  V30 5005 C 488.258 -1.60765 -0.0337726 0
M  V30 5006 O 489.448 -1.72989 0.205072 0
M  V30 5007 C 486.58 -3.37021 0.51279 0
M  V30 5008 H 487.773 -2.27629 1.95256 0
M  V30 5009 H 485.326 -1.16158 1.0458 0
M  V30 5010 H 486.061 -3.21261 -0.442917 0
M  V30 5011 H 485.846 -3.71323 1.25942 0
M  V30 5012 H 487.336 -4.1591 0.375315 0
M  V30 5013 N 487.773 -1.03688 -1.18687 0
M  V30 5014 C 488.721 -0.618292 -2.24232 0
M  V30 5015 C 489.715 0.353045 -1.6568 0
M  V30 5016 O 490.921 0.220749 -1.78641 0
M  V30 5017 H 487.296 -0.181711 -0.729716 0
M  V30 5018 H 489.267 -1.51893 -2.56848 0
M  V30 5019 C 488.016 0.00677342 -3.47699 0
M  V30 5020 H 487.339 -0.731692 -3.93047 0
M  V30 5021 H 488.779 0.262492 -4.23187 0
M  V30 5022 C 487.238 1.25572 -3.12623 0
M  V30 5023 O 487.768 2.34691 -3.26011 0
M  V30 5024 N 485.974 1.14755 -2.66982 0
M  V30 5025 H 485.521 0.259601 -2.56289 0
M  V30 5026 H 485.479 1.98412 -2.43885 0
M  V30 5027 N 489.251 1.34841 -0.815825 0
M  V30 5028 C 490.667 1.51543 -0.500697 0
M  V30 5029 C 490.867 1.76261 0.976444 0
M  V30 5030 O 489.923 1.8094 1.76117 0
M  V30 5031 C 491.236 2.68487 -1.35407 0
M  V30 5032 C 492.784 2.82368 -1.35046 0
M  V30 5033 C 493.259 4.02347 -2.18816 0
M  V30 5034 N 494.75 4.09542 -2.16402 0
M  V30 5035 C 495.485 5.01517 -2.77971 0
M  V30 5036 N 494.981 5.98763 -3.48503 0
M  V30 5037 N 496.774 4.94334 -2.67563 0
M  V30 5038 H 488.925 1.17055 -1.77234 0
M  V30 5039 H 491.188 0.573481 -0.754866 0
M  V30 5040 H 490.894 2.56829 -2.40274 0
M  V30 5041 H 490.768 3.63321 -1.01377 0
M  V30 5042 H 493.155 2.93471 -0.309604 0
M  V30 5043 H 493.236 1.88363 -1.73069 0
M  V30 5044 H 492.88 3.92004 -3.22948 0
M  V30 5045 H 492.81 4.95551 -1.78148 0
M  V30 5046 H 495.301 3.39932 -1.65091 0
M  V30 5047 H 495.614 6.6556 -3.92747 0
M  V30 5048 H 493.959 5.98909 -3.52609 0
M  V30 5049 H 497.15 4.1732 -2.12041 0
M  V30 5050 H 497.323 5.6582 -3.15834 0
M  V30 5051 N 490.729 0.570148 1.46925 0
M  V30 5052 C 491.975 0.0593124 2.03314 0
M  V30 5053 C 492.33 -1.28139 1.43521 0
M  V30 5054 O 491.623 -1.82411 0.586245 0
M  V30 5055 C 491.817 -0.0780336 3.57315 0
M  V30 5056 C 491.646 1.2478 4.32042 0
M  V30 5057 C 490.416 1.81859 4.7144 0
M  V30 5058 C 492.614 2.16808 4.66368 0
M  V30 5059 N 490.596 3.08313 5.30864 0
M  V30 5060 C 491.967 3.27845 5.2623 0
M  V30 5061 C 494.022 2.16643 4.48297 0
M  V30 5062 C 492.725 4.38832 5.69929 0
M  V30 5063 C 494.751 3.26652 4.93004 0
M  V30 5064 C 494.113 4.36408 5.52926 0
M  V30 5065 H 490.212 0.0641804 0.779362 0
M  V30 5066 H 492.796 0.760285 1.79242 0
M  V30 5067 H 490.967 -0.748151 3.81126 0
M  V30 5068 H 492.699 -0.59211 4.00345 0
M  V30 5069 H 489.454 1.35502 4.53802 0
M  V30 5070 H 489.878 3.72802 5.65108 0
M  V30 5071 H 494.52 1.33065 4.01315 0
M  V30 5072 H 492.238 5.23162 6.15896 0
M  V30 5073 H 495.824 3.27627 4.80782 0
M  V30 5074 H 494.704 5.20127 5.86888 0
M  V30 5075 N 492.207 -1.54576 0.307264 0
M  V30 5076 C 493.137 -2.26708 -0.55907 0
M  V30 5077 C 494.118 -1.26893 -1.1328 0
M  V30 5078 O 495.303 -1.55677 -1.16097 0
M  V30 5079 C 492.433 -3.01259 -1.72801 0
M  V30 5080 C 491.387 -4.08275 -1.28435 0
M  V30 5081 C 490.713 -4.70575 -2.53895 0
M  V30 5082 C 492.013 -5.2068 -0.411038 0
M  V30 5083 H 493.707 -2.9937 0.042576 0
M  V30 5084 H 491.253 -1.43983 0.0219173 0
M  V30 5085 H 493.206 -3.50444 -2.34023 0
M  V30 5086 H 491.93 -2.26187 -2.356 0
M  V30 5087 H 490.589 -3.59949 -0.695161 0
M  V30 5088 H 490.237 -3.92136 -3.15021 0
M  V30 5089 H 489.937 -5.42854 -2.24908 0
M  V30 5090 H 491.461 -5.22527 -3.15908 0
M  V30 5091 H 492.875 -5.65721 -0.929097 0
M  V30 5092 H 491.272 -5.99716 -0.214664 0
M  V30 5093 H 492.342 -4.81629 0.562287 0
M  V30 5094 N 493.685 -0.035106 -1.57561 0
M  V30 5095 C 494.962 0.681212 -1.83354 0
M  V30 5096 C 495.342 1.89986 -0.920252 0
M  V30 5097 O 494.69 2.28489 0.0226815 0
M  V30 5098 C 494.9 1.05376 -3.32712 0
M  V30 5099 C 496.248 1.44286 -3.99333 0
M  V30 5100 O 497.272 1.14656 -3.37242 0
M  V30 5101 O 496.131 1.99518 -5.08778 0
M  V30 5102 H 493.225 0.334741 -0.756226 0
M  V30 5103 H 495.771 -0.0632448 -1.69582 0
M  V30 5104 H 494.543 0.186668 -3.90854 0
M  V30 5105 H 494.166 1.85619 -3.51613 0
M  V30 5106 N 495.163 1.55791 0.238111 0
M  V30 5107 C 496.393 1.81834 0.980809 0
M  V30 5108 C 496.801 0.609741 1.79106 0
M  V30 5109 O 496.144 -0.431073 1.78571 0
M  V30 5110 C 496.206 3.01363 1.96011 0
M  V30 5111 C 495.87 4.37037 1.33597 0
M  V30 5112 C 496.867 5.14692 0.734063 0
M  V30 5113 C 494.552 4.83743 1.3527 0
M  V30 5114 C 496.546 6.37206 0.157208 0
M  V30 5115 C 494.233 6.06204 0.77199 0
M  V30 5116 C 495.231 6.82775 0.175282 0
M  V30 5117 O 494.919 8.02922 -0.396432 0
M  V30 5118 H 494.651 0.6088 0.293834 0
M  V30 5119 H 497.205 2.03702 0.263552 0
M  V30 5120 H 495.435 2.75273 2.71591 0
M  V30 5121 H 497.124 3.14422 2.56697 0
M  V30 5122 H 497.89 4.79722 0.713582 0
M  V30 5123 H 493.769 4.24129 1.80653 0
M  V30 5124 H 497.313 6.96915 -0.30917 0
M  V30 5125 H 493.21 6.4065 0.789828 0
M  V30 5126 H 493.978 8.17989 -0.289145 0
M  V30 5127 N 496.642 -0.504142 1.49319 0
M  V30 5128 C 497.888 -1.25767 1.59857 0
M  V30 5129 C 498.243 -1.90348 0.280262 0
M  V30 5130 O 497.536 -1.77588 -0.719241 0
M  V30 5131 C 497.73 -2.35021 2.69258 0
M  V30 5132 C 497.559 -1.81154 4.11598 0
M  V30 5133 C 496.329 -1.62596 4.78425 0
M  V30 5134 C 498.527 -1.3252 4.96934 0
M  V30 5135 N 496.509 -1.03625 6.05091 0
M  V30 5136 C 497.88 -0.856633 6.14054 0
M  V30 5137 C 499.935 -1.21063 4.82958 0
M  V30 5138 C 498.638 -0.284841 7.18736 0
M  V30 5139 C 500.664 -0.652815 5.87786 0
M  V30 5140 C 500.026 -0.194461 7.04132 0
M  V30 5141 H 496.125 -0.450293 0.639343 0
M  V30 5142 H 498.709 -0.565344 1.86311 0
M  V30 5143 H 496.88 -3.01719 2.44581 0
M  V30 5144 H 498.612 -3.02061 2.69335 0
M  V30 5145 H 495.367 -1.86873 4.35173 0
M  V30 5146 H 495.791 -0.76076 6.72712 0
M  V30 5147 H 500.433 -1.551 3.93324 0
M  V30 5148 H 498.151 0.0677979 8.08072 0
M  V30 5149 H 501.737 -0.566994 5.79031 0
M  V30 5150 H 500.617 0.230442 7.83861 0
M  V30 5151 N 498.12 -1.38341 -0.754957 0
M  V30 5152 C 499.348 -1.37704 -1.54419 0
M  V30 5153 C 499.763 0.0335243 -1.8877 0
M  V30 5154 O 499.12 0.999773 -1.52679 0
M  V30 5155 C 499.171 -2.23136 -2.84416 0
M  V30 5156 O 498.892 -3.58697 -2.51531 0
M  V30 5157 C 500.393 -2.30664 -3.78562 0
M  V30 5158 H 497.613 -0.471061 -0.477852 0
M  V30 5159 H 500.157 -1.81902 -0.934446 0
M  V30 5160 H 498.312 -1.82403 -3.41772 0
M  V30 5161 H 498.726 -4.03665 -3.34896 0
M  V30 5162 H 500.2 -2.9473 -4.66732 0
M  V30 5163 H 500.677 -1.3199 -4.18898 0
M  V30 5164 H 501.283 -2.71781 -3.27131 0
M  V30 5165 N 499.598 0.982988 -1.23187 0
M  V30 5166 C 500.844 1.72648 -1.06398 0
M  V30 5167 C 501.177 1.90066 0.398561 0
M  V30 5168 O 500.452 1.45105 1.29518 0
M  V30 5169 C 500.735 3.12627 -1.78707 0
M  V30 5170 C 500.588 3.02795 -3.32618 0
M  V30 5171 C 501.907 4.11997 -1.54747 0
M  V30 5172 H 499.026 0.626649 -0.387918 0
M  V30 5173 H 501.668 1.14455 -1.51658 0
M  V30 5174 H 499.818 3.62308 -1.40234 0
M  V30 5175 H 501.49 2.60659 -3.80598 0
M  V30 5176 H 499.733 2.39362 -3.61785 0
M  V30 5177 H 500.404 4.01893 -3.78399 0
M  V30 5178 H 502.88 3.71114 -1.88186 0
M  V30 5179 H 501.756 5.08037 -2.07821 0
M  V30 5180 H 502.017 4.39462 -0.482249 0
M  V30 5181 N 501.076 1.04316 1.18135 0
M  V30 5182 C 502.324 0.746542 1.87806 0
M  V30 5183 C 502.645 -0.728082 1.80898 0
M  V30 5184 O 501.915 -1.52554 1.22899 0
M  V30 5185 H 500.495 0.273157 0.695265 0
M  V30 5186 H 503.157 1.32044 1.43354 0
M  V30 5187 H 502.253 1.05362 2.93778 0
M  V30 5188 N 502.554 -1.34406 0.822964 0
M  V30 5189 C 503.8 -1.98578 0.411666 0
M  V30 5190 C 504.133 -1.65093 -1.02264 0
M  V30 5191 O 503.408 -0.92258 -1.71227 0
M  V30 5192 C 503.691 -3.54823 0.614235 0
M  V30 5193 C 503.544 -3.9805 2.09466 0
M  V30 5194 C 504.863 -4.40071 0.050221 0
M  V30 5195 H 501.982 -0.721355 0.151047 0
M  V30 5196 H 504.624 -1.59301 1.03554 0
M  V30 5197 H 502.774 -3.88411 0.0831774 0
M  V30 5198 H 504.446 -3.74795 2.68936 0
M  V30 5199 H 502.689 -3.4836 2.5851 0
M  V30 5200 H 503.36 -5.06819 2.18721 0
M  V30 5201 H 505.836 -4.13037 0.503953 0
M  V30 5202 H 504.712 -5.48452 0.221759 0
M  V30 5203 H 504.973 -4.29576 -1.04482 0
M  V30 5204 N 504.032 -0.577932 -1.46621 0
M  V30 5205 C 504.98 0.170882 -2.31971 0
M  V30 5206 C 505.974 0.889086 -1.44193 0
M  V30 5207 O 507.18 0.808017 -1.60845 0
M  V30 5208 H 503.555 0.0739763 -0.748353 0
M  V30 5209 H 505.526 -0.567856 -2.92947 0
M  V30 5210 C 504.275 1.17438 -3.27267 0
M  V30 5211 H 503.598 0.63116 -3.94787 0
M  V30 5212 H 505.038 1.66882 -3.89778 0
M  V30 5213 C 503.497 2.23292 -2.52274 0
M  V30 5214 O 504.027 3.30567 -2.28229 0
M  V30 5215 N 502.233 1.97772 -2.12919 0
M  V30 5216 H 501.78 1.10545 -2.32675 0
M  V30 5217 H 501.738 2.68809 -1.63062 0
M  V30 5218 N 505.51 1.54411 -0.315457 0
M  V30 5219 C 506.758 2.00023 0.288971 0
M  V30 5220 C 507.079 1.20529 1.5329 0
M  V30 5221 O 506.349 0.304986 1.93511 0
M  V30 5222 H 504.929 0.738891 0.109766 0
M  V30 5223 H 507.591 1.90094 -0.430129 0
M  V30 5224 H 506.687 3.07198 0.550999 0
M  V30 5225 N 506.988 0.0434614 1.5754 0
M  V30 5226 C 507.92 -0.962586 2.08007 0
M  V30 5227 C 508.933 -1.27972 1.00634 0
M  V30 5228 O 510.122 -1.24186 1.28219 0
M  V30 5229 C 507.222 -2.28621 2.50171 0
M  V30 5230 C 506.395 -2.15214 3.80791 0
M  V30 5231 C 505.454 -3.30633 4.09351 0
M  V30 5232 O 504.48 -3.0688 4.79388 0
M  V30 5233 N 505.682 -4.54873 3.60654 0
M  V30 5234 H 508.447 -0.531891 2.94942 0
M  V30 5235 H 506.008 -0.142965 1.61268 0
M  V30 5236 H 508 -3.04689 2.66359 0
M  V30 5237 H 506.57 -2.63283 1.68525 0
M  V30 5238 H 505.79 -1.23785 3.74261 0
M  V30 5239 H 507.078 -2.03475 4.66343 0
M  V30 5240 H 506.476 -4.77063 3.04019 0
M  V30 5241 H 505.033 -5.2806 3.82094 0
M  V30 5242 N 508.466 -1.55915 -0.229846 0
M  V30 5243 C 509.882 -1.48721 -0.579166 0
M  V30 5244 C 510.082 -0.736976 -1.87539 0
M  V30 5245 O 509.138 -0.273258 -2.51017 0
M  V30 5246 C 510.451 -2.9323 -0.666082 0
M  V30 5247 C 511.999 -3.03701 -0.757267 0
M  V30 5248 C 512.474 -4.49552 -0.8756 0
M  V30 5249 N 513.965 -4.53561 -0.940035 0
M  V30 5250 C 514.7 -5.63683 -1.05116 0
M  V30 5251 N 514.196 -6.83576 -1.12675 0
M  V30 5252 N 515.989 -5.51516 -1.08565 0
M  V30 5253 H 508.14 -2.03123 0.620857 0
M  V30 5254 H 510.403 -0.922898 0.21671 0
M  V30 5255 H 510.109 -3.51032 0.21664 0
M  V30 5256 H 509.983 -3.44668 -1.53243 0
M  V30 5257 H 512.37 -2.45969 -1.63043 0
M  V30 5258 H 512.451 -2.55446 0.134583 0
M  V30 5259 H 512.095 -5.079 -0.00692351 0
M  V30 5260 H 512.025 -4.95506 -1.78274 0
M  V30 5261 H 514.516 -3.67215 -0.892269 0
M  V30 5262 H 514.829 -7.63251 -1.21109 0
M  V30 5263 H 513.174 -6.86303 -1.09603 0
M  V30 5264 H 516.365 -4.5678 -1.02319 0
M  V30 5265 H 516.538 -6.37372 -1.1688 0
M  V30 5266 N 509.944 0.496216 -1.49584 0
M  V30 5267 C 511.19 1.25189 -1.59548 0
M  V30 5268 C 511.523 1.9212 -0.283466 0
M  V30 5269 O 510.798 1.80947 0.713324 0
M  V30 5270 C 511.081 2.31516 -2.75812 0
M  V30 5271 C 510.934 1.69054 -4.16822 0
M  V30 5272 C 512.253 3.3304 -2.87702 0
M  V30 5273 H 509.372 0.45379 -0.580727 0
M  V30 5274 H 512.014 0.549327 -1.81886 0
M  V30 5275 H 510.164 2.91438 -2.56897 0
M  V30 5276 H 511.836 1.12923 -4.47265 0
M  V30 5277 H 510.079 0.994485 -4.22247 0
M  V30 5278 H 510.75 2.462 -4.94054 0
M  V30 5279 H 513.226 2.83114 -3.04936 0
M  V30 5280 H 512.102 4.04794 -3.7072 0
M  V30 5281 H 512.363 3.95655 -1.97255 0
M  V30 5282 N 511.423 1.38739 0.74761 0
M  V30 5283 C 512.834 1.31507 1.32524 0
M  V30 5284 C 513.185 -0.0263963 1.96182 0
M  V30 5285 O 512.31 -0.92849 1.95469 0
M  V30 5286 C 512.905 2.38162 2.40966 0
M  V30 5287 C 511.464 2.34489 2.94434 0
M  V30 5288 C 510.611 2.20712 1.67873 0
M  V30 5289 H 513.562 1.4901 0.546043 0
M  V30 5290 H 513.583 2.04222 3.21051 0
M  V30 5291 H 513.095 3.35783 1.94605 0
M  V30 5292 H 511.196 1.40467 3.45108 0
M  V30 5293 H 511.309 3.28861 3.48407 0
M  V30 5294 H 509.673 1.67667 1.91729 0
M  V30 5295 H 510.456 3.20285 1.23582 0
M  V30 5296 N 512.901 -0.976442 1.23707 0
M  V30 5297 C 514.131 -1.75087 1.09673 0
M  V30 5298 C 514.539 -1.85852 -0.354344 0
M  V30 5299 O 513.882 -1.33985 -1.25673 0
M  V30 5300 C 513.944 -3.19272 1.65245 0
M  V30 5301 C 513.608 -3.32004 3.14042 0
M  V30 5302 C 514.605 -3.18017 4.11292 0
M  V30 5303 C 512.29 -3.56525 3.53829 0
M  V30 5304 C 514.284 -3.28363 5.46312 0
M  V30 5305 C 511.971 -3.6651 4.88993 0
M  V30 5306 C 512.969 -3.52439 5.85043 0
M  V30 5307 O 512.657 -3.62063 7.1775 0
M  V30 5308 H 512.389 -0.556164 0.384262 0
M  V30 5309 H 514.943 -1.23518 1.64111 0
M  V30 5310 H 513.173 -3.72107 1.05231 0
M  V30 5311 H 514.862 -3.7849 1.46629 0
M  V30 5312 H 515.628 -2.98966 3.81896 0
M  V30 5313 H 511.507 -3.66547 2.79579 0
M  V30 5314 H 515.051 -3.17297 6.21263 0
M  V30 5315 H 510.948 -3.85072 5.18063 0
M  V30 5316 H 511.716 -3.78833 7.25553 0
M  V30 5317 N 514.379 -1.04941 -1.1758 0
M  V30 5318 C 515.604 -0.778253 -1.92245 0
M  V30 5319 C 516.029 0.659707 -1.76152 0
M  V30 5320 O 515.387 1.45803 -1.07755 0
M  V30 5321 C 515.435 -1.16051 -3.41416 0
M  V30 5322 O 514.539 -0.291153 -4.11371 0
M  V30 5323 H 513.88 -0.285619 -0.599431 0
M  V30 5324 H 516.41 -1.40159 -1.49052 0
M  V30 5325 H 516.42 -1.12619 -3.92149 0
M  V30 5326 H 515.095 -2.208 -3.52449 0
M  V30 5327 H 513.672 -0.385851 -3.70898 0
M  V30 5328 N 515.857 1.33968 -0.830081 0
M  V30 5329 C 517.268 1.80439 -0.479455 0
M  V30 5330 C 517.619 1.68756 1.00079 0
M  V30 5331 O 516.744 1.23171 1.77927 0
M  V30 5332 C 517.339 3.27611 -0.863505 0
M  V30 5333 C 515.898 3.72133 -0.565145 0
M  V30 5334 C 515.045 2.55549 -1.07657 0
M  V30 5335 H 517.996 1.21614 -1.0196 0
M  V30 5336 H 518.017 3.8012 -0.170083 0
M  V30 5337 H 517.529 3.36082 -1.94089 0
M  V30 5338 H 515.63 3.69196 0.502536 0
M  V30 5339 H 515.743 4.65963 -1.11422 0
M  V30 5340 H 514.107 2.49788 -0.497807 0
M  V30 5341 H 514.89 2.66786 -2.16055 0
M  V30 5342 N 517.335 0.585699 1.46312 0
M  V30 5343 C 518.583 0.072278 2.01971 0
M  V30 5344 C 518.904 -1.29345 1.45928 0
M  V30 5345 O 518.174 -1.84973 0.645109 0
M  V30 5346 H 516.754 0.023729 0.746623 0
M  V30 5347 H 519.416 0.762155 1.7938 0
M  V30 5348 H 518.512 0.00552767 3.121 0
M  V30 5349 N 518.813 -1.54241 0.323641 0
M  V30 5350 C 520.061 -2.00174 -0.278359 0
M  V30 5351 C 520.382 -1.2134 -1.52648 0
M  V30 5352 O 519.652 -0.315244 -1.93347 0
M  V30 5353 H 518.232 -0.739463 -0.105845 0
M  V30 5354 H 520.894 -1.89864 0.440204 0
M  V30 5355 H 519.99 -3.07486 -0.5347 0
M  V30 5356 N 520.291 -0.0518155 -1.57515 0
M  V30 5357 C 521.224 0.957758 -2.07129 0
M  V30 5358 C 522.202 1.30355 -0.971927 0
M  V30 5359 O 523.386 1.41631 -1.2439 0
M  V30 5360 C 520.513 2.27157 -2.51232 0
M  V30 5361 C 519.559 2.07879 -3.72409 0
M  V30 5362 S 520.392 1.35656 -5.18033 0
M  V30 5363 C 521.548 2.68359 -5.65451 0
M  V30 5364 H 521.781 0.53552 -2.92437 0
M  V30 5365 H 519.314 0.160465 -1.53564 0
M  V30 5366 H 521.272 3.02676 -2.77304 0
M  V30 5367 H 519.933 2.66509 -1.66228 0
M  V30 5368 H 519.126 3.05061 -4.01191 0
M  V30 5369 H 518.728 1.40499 -3.46606 0
M  V30 5370 H 521.02 3.64526 -5.71076 0
M  V30 5371 H 521.963 2.44213 -6.64654 0
M  V30 5372 H 522.371 2.74647 -4.93183 0
M  V30 5373 N 521.769 1.56035 0.221574 0
M  V30 5374 C 522.732 1.91584 1.2581 0
M  V30 5375 C 523.732 0.794425 1.39805 0
M  V30 5376 O 524.922 1.06217 1.38071 0
M  V30 5377 C 522.054 2.16663 2.63192 0
M  V30 5378 H 523.247 2.8429 0.954935 0
M  V30 5379 H 520.8 1.49316 0.461988 0
M  V30 5380 H 521.535 1.26508 2.98607 0
M  V30 5381 H 521.32 2.98358 2.5441 0
M  V30 5382 H 522.81 2.45262 3.37988 0
M  V30 5383 N 523.247 -0.488276 1.49845 0
M  V30 5384 C 524.493 -1.24341 1.6021 0
M  V30 5385 C 524.826 -1.91967 0.293651 0
M  V30 5386 O 524.101 -1.81323 -0.703718 0
M  V30 5387 C 524.384 -2.3005 2.77036 0
M  V30 5388 C 524.237 -1.66842 4.17713 0
M  V30 5389 C 525.556 -3.31509 2.89464 0
M  V30 5390 H 522.675 -0.450704 0.583125 0
M  V30 5391 H 525.317 -0.539673 1.82174 0
M  V30 5392 H 523.467 -2.90071 2.58439 0
M  V30 5393 H 525.139 -1.1055 4.47858 0
M  V30 5394 H 523.382 -0.972079 4.22768 0
M  V30 5395 H 524.053 -2.43576 4.95353 0
M  V30 5396 H 526.529 -2.81493 3.06433 0
M  V30 5397 H 525.405 -4.02822 3.72861 0
M  V30 5398 H 525.666 -3.94603 1.99351 0
M  V30 5399 N 524.725 -1.39134 -0.740242 0
M  V30 5400 C 525.655 -1.40165 -1.86751 0
M  V30 5401 C 526.636 -0.265708 -1.68012 0
M  V30 5402 O 527.821 -0.47076 -1.88408 0
M  V30 5403 C 524.951 -1.2392 -3.2444 0
M  V30 5404 C 523.905 -2.34858 -3.57807 0
M  V30 5405 C 523.231 -2.03707 -4.94376 0
M  V30 5406 C 524.531 -3.77159 -3.61315 0
M  V30 5407 H 526.225 -2.345 -1.86145 0
M  V30 5408 H 523.771 -1.12875 -0.89416 0
M  V30 5409 H 525.724 -1.23263 -4.02969 0
M  V30 5410 H 524.448 -0.26051 -3.25559 0
M  V30 5411 H 523.107 -2.34723 -2.81604 0
M  V30 5412 H 522.755 -1.04289 -4.9207 0
M  V30 5413 H 522.455 -2.78016 -5.17669 0
M  V30 5414 H 523.979 -2.04691 -5.75268 0
M  V30 5415 H 525.393 -3.79252 -4.29931 0
M  V30 5416 H 523.79 -4.50784 -3.96124 0
M  V30 5417 H 524.86 -4.08513 -2.61238 0
M  V30 5418 N 526.204 0.969867 -1.24223 0
M  V30 5419 C 527.481 1.68774 -0.988664 0
M  V30 5420 C 527.861 2.05342 0.489673 0
M  V30 5421 O 527.209 1.75486 1.46345 0
M  V30 5422 C 527.419 2.92135 -1.90941 0
M  V30 5423 C 528.767 3.64422 -2.17903 0
M  V30 5424 O 529.791 3.02188 -1.88576 0
M  V30 5425 O 528.65 4.76446 -2.67697 0
M  V30 5426 H 525.744 0.737736 -0.37373 0
M  V30 5427 H 528.29 1.02415 -1.35312 0
M  V30 5428 H 527.062 2.61788 -2.90831 0
M  V30 5429 H 526.685 3.66228 -1.54798 0
M  V30 5430 N 527.682 1.05563 1.17022 0
M  V30 5431 C 528.91 0.78845 1.91288 0
M  V30 5432 C 529.325 -0.656318 1.77025 0
M  V30 5433 O 528.682 -1.44869 1.10992 0
M  V30 5434 C 528.733 1.16444 3.42232 0
M  V30 5435 O 528.454 2.5525 3.5606 0
M  V30 5436 C 529.955 0.923937 4.33565 0
M  V30 5437 H 527.175 0.286389 0.606813 0
M  V30 5438 H 529.719 1.4073 1.48375 0
M  V30 5439 H 527.874 0.590266 3.82877 0
M  V30 5440 H 528.288 2.70097 4.49609 0
M  V30 5441 H 529.762 1.23672 5.37968 0
M  V30 5442 H 530.239 -0.140688 4.38975 0
M  V30 5443 H 530.845 1.48214 3.98639 0
M  V30 5444 N 529.16 -1.33526 0.837174 0
M  V30 5445 C 530.406 -1.98541 0.44193 0
M  V30 5446 C 530.761 -1.65124 -0.987517 0
M  V30 5447 O 530.054 -0.919948 -1.6807 0
M  V30 5448 C 530.248 -3.52367 0.597675 0
M  V30 5449 C 530.077 -4.00731 2.04071 0
M  V30 5450 C 528.847 -4.28649 2.67559 0
M  V30 5451 C 531.045 -4.17073 3.00923 0
M  V30 5452 N 529.027 -4.63142 4.02955 0
M  V30 5453 C 530.398 -4.54905 4.21261 0
M  V30 5454 C 532.453 -3.99358 2.97351 0
M  V30 5455 C 531.156 -4.76874 5.38501 0
M  V30 5456 C 533.182 -4.22501 4.1382 0
M  V30 5457 C 532.544 -4.60634 5.32912 0
M  V30 5458 H 528.643 -0.753246 0.210105 0
M  V30 5459 H 531.227 -1.61674 1.08488 0
M  V30 5460 H 529.398 -3.88397 -0.0154658 0
M  V30 5461 H 531.13 -4.04326 0.17404 0
M  V30 5462 H 527.885 -4.20077 2.18706 0
M  V30 5463 H 528.309 -4.84601 4.72748 0
M  V30 5464 H 532.951 -3.68993 2.06408 0
M  V30 5465 H 530.669 -5.06101 6.2999 0
M  V30 5466 H 534.255 -4.10316 4.12471 0
M  V30 5467 H 533.135 -4.78187 6.21536 0
M  V30 5468 N 530.638 -0.59345 -1.46 0
M  V30 5469 C 531.886 -0.082988 -2.0193 0
M  V30 5470 C 532.207 1.28569 -1.46612 0
M  V30 5471 O 531.477 1.84629 -0.654909 0
M  V30 5472 H 530.057 -0.0276882 -0.746487 0
M  V30 5473 H 532.719 -0.771657 -1.78973 0
M  V30 5474 H 531.815 -0.022079 -3.12092 0
M  V30 5475 N 532.116 1.54067 -0.331816 0
M  V30 5476 C 533.079 2.23275 0.517768 0
M  V30 5477 C 534.079 1.22897 1.03697 0
M  V30 5478 O 535.269 1.47419 0.928084 0
M  V30 5479 C 532.401 2.94326 1.72004 0
M  V30 5480 H 533.594 2.99773 -0.0873507 0
M  V30 5481 H 531.147 1.56079 -0.0830042 0
M  V30 5482 H 531.882 2.21986 2.36417 0
M  V30 5483 H 531.667 3.67941 1.35507 0
M  V30 5484 H 533.157 3.47031 2.32291 0
M  V30 5485 N 533.594 0.0601682 1.57485 0
M  V30 5486 C 534.524 -0.90889 2.15085 0
M  V30 5487 C 535.505 -1.31838 1.07484 0
M  V30 5488 O 536.69 -1.3915 1.35466 0
M  V30 5489 C 533.82 -2.18059 2.7031 0
M  V30 5490 C 532.774 -1.91088 3.82974 0
M  V30 5491 C 532.1 -3.24789 4.24754 0
M  V30 5492 C 533.4 -1.22535 5.07723 0
M  V30 5493 H 535.094 -0.429093 2.96309 0
M  V30 5494 H 532.64 -0.204952 1.42534 0
M  V30 5495 H 534.593 -2.86258 3.09248 0
M  V30 5496 H 533.317 -2.6826 1.8629 0
M  V30 5497 H 531.976 -1.25297 3.44523 0
M  V30 5498 H 531.624 -3.72809 3.37672 0
M  V30 5499 H 531.324 -3.07538 5.00694 0
M  V30 5500 H 532.848 -3.94205 4.66299 0
M  V30 5501 H 534.262 -1.80783 5.4405 0
M  V30 5502 H 532.659 -1.1558 5.88864 0
M  V30 5503 H 533.729 -0.202692 4.84476 0
M  V30 5504 N 535.072 -1.5615 -0.213296 0
M  V30 5505 C 536.488 -1.49327 -0.56336 0
M  V30 5506 C 536.688 -0.756826 -1.86747 0
M  V30 5507 O 535.744 -0.299866 -2.50713 0
M  V30 5508 C 537.057 -2.9392 -0.634944 0
M  V30 5509 C 538.605 -3.04487 -0.725013 0
M  V30 5510 C 539.08 -4.50456 -0.82787 0
M  V30 5511 N 540.571 -4.54533 -0.891876 0
M  V30 5512 C 541.306 -5.64766 -0.991315 0
M  V30 5513 N 540.802 -6.84733 -1.05419 0
M  V30 5514 N 542.595 -5.52637 -1.02709 0
M  V30 5515 H 534.746 -2.02453 0.642366 0
M  V30 5516 H 537.009 -0.920548 0.226487 0
M  V30 5517 H 536.715 -3.50783 0.253859 0
M  V30 5518 H 536.589 -3.46274 -1.49579 0
M  V30 5519 H 538.976 -2.47685 -1.60425 0
M  V30 5520 H 539.057 -2.55289 0.161669 0
M  V30 5521 H 538.701 -5.07878 0.0469464 0
M  V30 5522 H 538.631 -4.97369 -1.73009 0
M  V30 5523 H 541.122 -3.68141 -0.85327 0
M  V30 5524 H 541.435 -7.64493 -1.13007 0
M  V30 5525 H 539.78 -6.87427 -1.02318 0
M  V30 5526 H 542.971 -4.5784 -0.974687 0
M  V30 5527 H 543.144 -6.38576 -1.10113 0
M  V30 5528 N 536.55 0.480323 -1.50102 0
M  V30 5529 C 537.78 1.25475 -1.64133 0
M  V30 5530 C 538.188 1.8647 -0.320272 0
M  V30 5531 O 537.531 1.69561 0.70673 0
M  V30 5532 C 537.593 2.40996 -2.6676 0
M  V30 5533 C 537.257 2.00711 -4.10565 0
M  V30 5534 C 538.254 1.53492 -4.96725 0
M  V30 5535 C 535.939 2.09714 -4.56427 0
M  V30 5536 C 537.933 1.15806 -6.26792 0
M  V30 5537 C 535.62 1.7164 -5.86501 0
M  V30 5538 C 536.618 1.24763 -6.71508 0
M  V30 5539 O 536.306 0.872122 -7.99155 0
M  V30 5540 H 536.038 0.385983 -0.554971 0
M  V30 5541 H 538.592 0.580848 -1.97016 0
M  V30 5542 H 536.822 3.11528 -2.291 0
M  V30 5543 H 538.511 3.02981 -2.70106 0
M  V30 5544 H 539.277 1.45966 -4.62514 0
M  V30 5545 H 535.156 2.4515 -3.90413 0
M  V30 5546 H 538.7 0.791465 -6.93096 0
M  V30 5547 H 534.597 1.78822 -6.20236 0
M  V30 5548 H 535.365 1.00178 -8.12346 0
M  V30 5549 N 538.028 1.39524 0.732853 0
M  V30 5550 C 538.991 1.38189 1.82857 0
M  V30 5551 C 539.991 0.278624 1.58368 0
M  V30 5552 O 541.181 0.536639 1.65728 0
M  V30 5553 C 538.313 1.15661 3.2068 0
M  V30 5554 H 539.506 2.35692 1.85444 0
M  V30 5555 H 537.059 1.2512 0.936728 0
M  V30 5556 H 537.794 0.188482 3.23752 0
M  V30 5557 H 537.579 1.95559 3.39852 0
M  V30 5558 H 539.069 1.17472 4.00737 0
M  V30 5559 N 539.506 -0.963266 1.24736 0
M  V30 5560 C 540.469 -2.04013 1.04457 0
M  V30 5561 C 541.469 -1.608 0.000335555 0
M  V30 5562 O 542.659 -1.72515 0.241719 0
M  V30 5563 C 539.791 -3.35858 0.584162 0
M  V30 5564 H 540.984 -2.23436 2.00041 0
M  V30 5565 H 538.537 -1.13914 1.07021 0
M  V30 5566 H 539.272 -3.22128 -0.374673 0
M  V30 5567 H 539.057 -3.68568 1.3379 0
M  V30 5568 H 540.547 -4.1502 0.463451 0
M  V30 5569 N 540.985 -1.06182 -1.16461 0
M  V30 5570 C 541.933 -0.665716 -2.2287 0
M  V30 5571 C 542.927 0.317822 -1.66392 0
M  V30 5572 O 544.133 0.182807 -1.79069 0
M  V30 5573 H 540.508 -0.197148 -0.725697 0
M  V30 5574 H 542.479 -1.57307 -2.53569 0
M  V30 5575 C 541.228 -0.0669803 -3.47635 0
M  V30 5576 H 540.551 -0.814899 -3.91407 0
M  V30 5577 H 541.991 0.172669 -4.23648 0
M  V30 5578 C 540.45 1.18913 -3.15216 0
M  V30 5579 O 540.98 2.27723 -3.30916 0
M  V30 5580 N 539.186 1.09066 -2.69357 0
M  V30 5581 H 538.733 0.20518 -2.56782 0
M  V30 5582 H 538.691 1.93195 -2.48039 0
M  V30 5583 N 542.463 1.3308 -0.844243 0
M  V30 5584 C 543.691 2.01808 -0.456203 0
M  V30 5585 C 544.106 1.63498 0.944131 0
M  V30 5586 O 543.463 0.85102 1.61443 0
M  V30 5587 C 543.514 3.56922 -0.573513 0
M  V30 5588 O 543.235 3.93851 -1.91868 0
M  V30 5589 C 544.736 4.42922 -0.183125 0
M  V30 5590 H 541.956 0.646273 -0.180477 0
M  V30 5591 H 544.5 1.69891 -1.1383 0
M  V30 5592 H 542.655 3.87352 0.0607367 0
M  V30 5593 H 543.069 4.88564 -1.90802 0
M  V30 5594 H 544.543 5.51093 -0.316241 0
M  V30 5595 H 545.02 4.30386 0.875477 0
M  V30 5596 H 545.626 4.1786 -0.792027 0
M  V30 5597 N 543.941 0.601185 1.45683 0
M  V30 5598 C 544.904 -0.111398 2.28929 0
M  V30 5599 C 545.904 -0.801246 1.39416 0
M  V30 5600 O 547.094 -0.650383 1.61603 0
M  V30 5601 C 544.226 -1.16773 3.20276 0
M  V30 5602 H 545.419 0.620412 2.93413 0
M  V30 5603 H 542.972 0.359946 1.52099 0
M  V30 5604 H 543.707 -1.93051 2.60579 0
M  V30 5605 H 543.492 -0.677358 3.86205 0
M  V30 5606 H 544.982 -1.66698 3.82886 0
M  V30 5607 N 545.419 -1.53889 0.339982 0
M  V30 5608 C 546.666 -2.00855 -0.257621 0
M  V30 5609 C 546.994 -1.22788 -1.50842 0
M  V30 5610 O 546.249 -0.302567 -1.93347 0
M  V30 5611 C 546.548 -3.51968 -0.620735 0
M  V30 5612 C 546.214 -4.47741 0.532771 0
M  V30 5613 C 544.876 -4.73645 0.849339 0
M  V30 5614 C 547.228 -5.04551 1.3068 0
M  V30 5615 C 544.556 -5.53614 1.94237 0
M  V30 5616 C 546.908 -5.85713 2.39005 0
M  V30 5617 C 545.572 -6.09912 2.71225 0
M  V30 5618 H 544.842 -0.734979 -0.0942703 0
M  V30 5619 H 547.489 -1.85714 0.467159 0
M  V30 5620 H 545.794 -3.64921 -1.42618 0
M  V30 5621 H 547.491 -3.85762 -1.09495 0
M  V30 5622 H 544.081 -4.27711 0.275973 0
M  V30 5623 H 548.265 -4.84507 1.07549 0
M  V30 5624 H 543.521 -5.7059 2.19628 0
M  V30 5625 H 547.695 -6.28748 2.99415 0
M  V30 5626 H 545.322 -6.71665 3.56047 0
M  V30 5627 N 546.897 -0.0685191 -1.57451 0
M  V30 5628 C 548.143 0.602239 -1.93652 0
M  V30 5629 C 548.476 1.6946 -0.948526 0
M  V30 5630 O 547.751 1.94487 0.022782 0
M  V30 5631 C 548.034 1.18223 -3.4014 0
M  V30 5632 C 547.887 0.0967431 -4.49696 0
M  V30 5633 C 549.206 2.08872 -3.87377 0
M  V30 5634 H 546.325 0.217453 -0.70419 0
M  V30 5635 H 548.967 -0.133821 -1.89528 0
M  V30 5636 H 547.117 1.80953 -3.43785 0
M  V30 5637 H 548.789 -0.536155 -4.58174 0
M  V30 5638 H 547.032 -0.573063 -4.29998 0
M  V30 5639 H 547.703 0.542894 -5.49324 0
M  V30 5640 H 550.179 1.56081 -3.85717 0
M  V30 5641 H 549.055 2.46389 -4.90493 0
M  V30 5642 H 549.316 2.99572 -3.25129 0
M  V30 5643 N 548.375 1.56261 0.205012 0
M  V30 5644 C 549.338 1.92908 1.23771 0
M  V30 5645 C 550.338 0.809208 1.38955 0
M  V30 5646 O 551.528 1.07676 1.36936 0
M  V30 5647 C 548.66 2.19442 2.60879 0
M  V30 5648 H 549.853 2.85287 0.924728 0
M  V30 5649 H 547.406 1.49798 0.446125 0
M  V30 5650 H 548.141 1.29668 2.97248 0
M  V30 5651 H 547.926 3.0104 2.51232 0
M  V30 5652 H 549.416 2.48833 3.35368 0
M  V30 5653 N 549.853 -0.472356 1.50355 0
M  V30 5654 C 550.783 -1.57859 1.72055 0
M  V30 5655 C 551.764 -1.60283 0.569505 0
M  V30 5656 O 552.949 -1.7657 0.808503 0
M  V30 5657 C 550.079 -2.96191 1.81351 0
M  V30 5658 C 549.033 -3.08633 2.96529 0
M  V30 5659 C 548.359 -4.486 2.90968 0
M  V30 5660 C 549.659 -2.85969 4.37057 0
M  V30 5661 H 551.353 -1.39953 2.64676 0
M  V30 5662 H 548.899 -0.671846 1.27367 0
M  V30 5663 H 550.852 -3.73507 1.95117 0
M  V30 5664 H 549.576 -3.15251 0.853502 0
M  V30 5665 H 548.235 -2.33749 2.82413 0
M  V30 5666 H 547.883 -4.64577 1.92815 0
M  V30 5667 H 547.583 -4.57861 3.68289 0
M  V30 5668 H 549.107 -5.27938 3.0678 0
M  V30 5669 H 550.521 -3.53036 4.51706 0
M  V30 5670 H 548.918 -3.06677 5.15819 0
M  V30 5671 H 549.988 -1.81838 4.49514 0
M  V30 5672 N 551.331 -1.39911 -0.725443 0
M  V30 5673 C 552.577 -1.37858 -1.48738 0
M  V30 5674 C 552.91 0.0224187 -1.94187 0
M  V30 5675 O 552.185 0.989204 -1.67466 0
M  V30 5676 C 552.468 -2.3594 -2.72038 0
M  V30 5677 C 552.321 -3.85023 -2.32546 0
M  V30 5678 C 553.64 -2.31704 -3.74167 0
M  V30 5679 H 550.759 -0.502074 -0.539528 0
M  V30 5680 H 553.401 -1.70974 -0.828728 0
M  V30 5681 H 551.551 -2.0783 -3.28236 0
M  V30 5682 H 553.223 -4.2392 -1.81905 0
M  V30 5683 H 551.466 -4.01334 -1.64661 0
M  V30 5684 H 552.137 -4.49152 -3.20884 0
M  V30 5685 H 554.613 -2.5658 -3.27576 0
M  V30 5686 H 553.489 -3.02395 -4.58092 0
M  V30 5687 H 553.75 -1.3253 -4.21768 0
M  V30 5688 N 552.809 0.956637 -1.25245 0
M  V30 5689 C 554.039 1.7332 -1.12445 0
M  V30 5690 C 554.447 1.86392 0.324732 0
M  V30 5691 O 553.79 1.35967 1.23526 0
M  V30 5692 C 553.852 3.16603 -1.70303 0
M  V30 5693 C 553.516 3.26966 -3.19284 0
M  V30 5694 C 554.513 3.11434 -4.16299 0
M  V30 5695 C 552.198 3.50851 -3.59456 0
M  V30 5696 C 554.192 3.1963 -5.51467 0
M  V30 5697 C 551.879 3.58684 -4.94761 0
M  V30 5698 C 552.877 3.43087 -5.90576 0
M  V30 5699 O 552.565 3.50598 -7.2342 0
M  V30 5700 H 552.297 0.549981 -0.393061 0
M  V30 5701 H 554.851 1.20892 -1.66055 0
M  V30 5702 H 553.081 3.70385 -1.11138 0
M  V30 5703 H 554.77 3.76109 -1.52632 0
M  V30 5704 H 555.536 2.92853 -3.86604 0
M  V30 5705 H 551.415 3.62053 -2.85375 0
M  V30 5706 H 554.959 3.07373 -6.26233 0
M  V30 5707 H 550.856 3.76782 -5.24124 0
M  V30 5708 H 551.624 3.67242 -7.31489 0
M  V30 5709 N 554.287 1.06798 1.15896 0
M  V30 5710 C 555.25 0.687328 2.18651 0
M  V30 5711 C 556.25 -0.269559 1.58524 0
M  V30 5712 O 557.44 -0.0512627 1.74125 0
M  V30 5713 C 554.572 0.0121642 3.40898 0
M  V30 5714 H 555.765 1.59701 2.53842 0
M  V30 5715 H 553.318 0.863828 1.3026 0
M  V30 5716 H 554.053 -0.910025 3.1127 0
M  V30 5717 H 553.838 0.700309 3.85795 0
M  V30 5718 H 555.328 -0.239703 4.16911 0
M  V30 5719 N 555.766 -1.3263 0.851289 0
M  V30 5720 C 556.713 -2.28952 0.291469 0
M  V30 5721 C 557.683 -1.54897 -0.599676 0
M  V30 5722 O 558.868 -1.83137 -0.535305 0
M  V30 5723 C 556.008 -3.41206 -0.516992 0
M  V30 5724 C 555.121 -4.30148 0.399566 0
M  V30 5725 C 554.256 -5.29527 -0.4212 0
M  V30 5726 C 553.295 -6.10112 0.492969 0
M  V30 5727 N 552.432 -7.01499 -0.290414 0
M  V30 5728 H 557.272 -2.76228 1.11813 0
M  V30 5729 H 554.809 -1.35907 0.562826 0
M  V30 5730 H 556.767 -4.05005 -1.00132 0
M  V30 5731 H 555.397 -2.9509 -1.30851 0
M  V30 5732 H 554.449 -3.66959 1.00227 0
M  V30 5733 H 555.761 -4.8649 1.1013 0
M  V30 5734 H 554.915 -5.98914 -0.968832 0
M  V30 5735 H 553.654 -4.73794 -1.15632 0
M  V30 5736 H 552.659 -5.39632 1.05251 0
M  V30 5737 H 553.884 -6.6793 1.22664 0
M  V30 5738 H 551.83 -6.48199 -1.00868 0
M  V30 5739 H 551.747 -7.55178 0.352354 0
M  V30 5740 H 553.015 -7.75176 -0.819882 0
M  V30 5741 N 557.244 -0.608902 -1.45362 0
M  V30 5742 C 558.49 -0.104762 -2.02529 0
M  V30 5743 C 558.823 1.26191 -1.47613 0
M  V30 5744 O 558.098 1.8327 -0.65134 0
M  V30 5745 C 558.381 -0.0672661 -3.60037 0
M  V30 5746 C 558.234 -1.4647 -4.25284 0
M  V30 5747 C 559.553 0.619877 -4.35713 0
M  V30 5748 H 556.672 -0.0395438 -0.735938 0
M  V30 5749 H 559.314 -0.781126 -1.73201 0
M  V30 5750 H 557.464 0.50871 -3.85155 0
M  V30 5751 H 559.136 -2.08785 -4.11347 0
M  V30 5752 H 557.379 -2.02502 -3.83634 0
M  V30 5753 H 558.05 -1.39069 -5.34195 0
M  V30 5754 H 560.526 0.130297 -4.15896 0
M  V30 5755 H 559.402 0.615224 -5.45441 0
M  V30 5756 H 559.663 1.68621 -4.0868 0
M  V30 5757 N 558.722 1.53707 -0.348139 0
M  V30 5758 C 559.971 2.0017 0.247992 0
M  V30 5759 C 560.284 1.23983 1.51286 0
M  V30 5760 O 561.49 1.60946 2.18652 0
M  V30 5761 C 559.946 3.56515 0.492459 0
M  V30 5762 C 559.554 4.41562 -0.756777 0
M  V30 5763 C 561.298 4.11381 1.0472 0
M  V30 5764 C 559.205 5.89426 -0.482856 0
M  V30 5765 H 558.135 0.747806 0.0964452 0
M  V30 5766 H 560.786 1.77532 -0.464179 0
M  V30 5767 H 559.168 3.75236 1.26545 0
M  V30 5768 H 560.342 4.34615 -1.53122 0
M  V30 5769 H 558.657 3.97711 -1.23348 0
M  V30 5770 H 561.254 5.19468 1.26717 0
M  V30 5771 H 561.597 3.64885 2.00411 0
M  V30 5772 H 562.13 3.96389 0.334801 0
M  V30 5773 H 558.869 6.40164 -1.40962 0
M  V30 5774 H 558.389 5.99264 0.253416 0
M  V30 5775 H 560.068 6.4692 -0.101816 0
M  V30 5776 N 560.2 0.0768682 1.57412 0
M  V30 5777 C 561.477 -0.632359 1.85096 0
M  V30 5778 C 561.857 -1.87479 0.9703 0
M  V30 5779 O 561.205 -2.28469 0.0379062 0
M  V30 5780 C 561.415 -0.965174 3.35388 0
M  V30 5781 C 562.763 -1.33648 4.03018 0
M  V30 5782 O 563.787 -1.05675 3.40164 0
M  V30 5783 O 562.646 -1.85959 5.13889 0
M  V30 5784 H 559.74 -0.314574 0.764835 0
M  V30 5785 H 562.286 0.108184 1.69355 0
M  V30 5786 H 561.058 -0.0829745 3.91212 0
M  V30 5787 H 560.681 -1.76231 3.5641 0
M  V30 5788 N 561.678 -1.56367 -0.196722 0
M  V30 5789 C 562.955 -1.71359 -0.943159 0
M  V30 5790 C 563.335 -0.631192 -2.01443 0
M  V30 5791 O 562.683 0.358071 -2.25677 0
M  V30 5792 C 562.893 -3.13623 -1.53106 0
M  V30 5793 C 564.241 -3.73806 -2.01381 0
M  V30 5794 O 565.265 -3.16742 -1.62951 0
M  V30 5795 O 564.124 -4.73951 -2.7209 0
M  V30 5796 H 561.218 -0.698851 -0.442195 0
M  V30 5797 H 563.764 -1.68672 -0.186547 0
M  V30 5798 H 562.536 -3.83873 -0.758785 0
M  V30 5799 H 562.159 -3.20532 -2.35255 0
M  V30 5800 N 563.156 0.464375 -1.50603 0
M  V30 5801 C 564.567 1.04507 -1.5471 0
M  V30 5802 C 564.918 1.9297 -0.354542 0
M  V30 5803 O 564.043 2.09763 0.531812 0
M  V30 5804 C 564.638 1.90207 -2.80369 0
M  V30 5805 C 563.197 2.43373 -2.87135 0
M  V30 5806 C 562.344 1.21886 -2.49076 0
M  V30 5807 H 565.295 0.246716 -1.56771 0
M  V30 5808 H 565.316 2.75353 -2.62604 0
M  V30 5809 H 564.828 1.25796 -3.67147 0
M  V30 5810 H 562.929 3.11318 -2.04724 0
M  V30 5811 H 563.042 2.7802 -3.90181 0
M  V30 5812 H 561.406 1.55575 -2.01664 0
M  V30 5813 H 562.189 0.591268 -3.3817 0
M  V30 5814 N 564.634 1.40294 0.718013 0
M  V30 5815 C 565.88 1.38645 1.48005 0
M  V30 5816 C 566.213 -0.0121202 1.94196 0
M  V30 5817 O 565.488 -0.980309 1.67989 0
M  V30 5818 C 565.771 2.37379 2.70782 0
M  V30 5819 C 565.624 3.8625 2.30501 0
M  V30 5820 C 566.943 2.33685 3.72933 0
M  V30 5821 H 564.062 0.504928 0.536858 0
M  V30 5822 H 566.704 1.71411 0.819649 0
M  V30 5823 H 564.854 2.09568 3.27129 0
M  V30 5824 H 566.526 4.24879 1.79655 0
M  V30 5825 H 564.769 4.02202 1.6253 0
M  V30 5826 H 565.44 4.50847 3.18498 0
M  V30 5827 H 567.916 2.58314 3.2621 0
M  V30 5828 H 566.792 3.0482 4.56482 0
M  V30 5829 H 567.053 1.34765 4.21059 0
M  V30 5830 N 566.112 -0.949982 1.2575 0
M  V30 5831 C 567.528 -1.22191 1.02672 0
M  V30 5832 C 567.728 -1.99898 -0.253588 0
M  V30 5833 O 566.784 -2.33329 -0.965076 0
M  V30 5834 C 568.097 -1.99175 2.25277 0
M  V30 5835 C 569.645 -2.12201 2.30087 0
M  V30 5836 C 570.12 -2.92586 3.5236 0
M  V30 5837 N 571.611 -3.00163 3.52784 0
M  V30 5838 C 572.346 -3.62766 4.44059 0
M  V30 5839 N 571.842 -4.26943 5.45611 0
M  V30 5840 N 573.635 -3.59953 4.3173 0
M  V30 5841 H 565.786 -0.430258 2.07996 0
M  V30 5842 H 568.049 -0.252844 0.91366 0
M  V30 5843 H 567.755 -1.49479 3.18354 0
M  V30 5844 H 567.629 -2.99868 2.28821 0
M  V30 5845 H 570.016 -2.61093 1.3753 0
M  V30 5846 H 570.097 -1.10799 2.30559 0
M  V30 5847 H 569.741 -2.44383 4.45241 0
M  V30 5848 H 569.671 -3.94224 3.49134 0
M  V30 5849 H 572.162 -2.54529 2.79327 0
M  V30 5850 H 572.475 -4.72583 6.11461 0
M  V30 5851 H 570.82 -4.25557 5.49478 0
M  V30 5852 H 574.011 -3.09003 3.51617 0
M  V30 5853 H 574.184 -4.08455 5.03059 0
M  V30 5854 N 567.59 -1.07411 -1.15328 0
M  V30 5855 C 568.537 -0.694995 -2.20087 0
M  V30 5856 C 569.507 0.313904 -1.63107 0
M  V30 5857 O 570.692 0.200216 -1.89747 0
M  V30 5858 C 567.832 -0.0996218 -3.44956 0
M  V30 5859 C 566.945 -1.16007 -4.16133 0
M  V30 5860 C 566.08 -0.529636 -5.28553 0
M  V30 5861 C 565.119 -1.57283 -5.91548 0
M  V30 5862 N 564.256 -0.964932 -6.95438 0
M  V30 5863 H 569.096 -1.5927 -2.51867 0
M  V30 5864 H 566.633 -0.796115 -1.23695 0
M  V30 5865 H 568.591 0.263197 -4.16369 0
M  V30 5866 H 567.221 0.761435 -3.13691 0
M  V30 5867 H 566.273 -1.64045 -3.4321 0
M  V30 5868 H 567.585 -1.95101 -4.59061 0
M  V30 5869 H 566.739 -0.114487 -6.06592 0
M  V30 5870 H 565.478 0.29307 -4.86819 0
M  V30 5871 H 564.483 -1.99775 -5.12221 0
M  V30 5872 H 565.708 -2.39783 -6.35359 0
M  V30 5873 H 563.654 -0.16314 -6.55797 0
M  V30 5874 H 563.571 -1.69311 -7.36797 0
M  V30 5875 H 564.839 -0.575305 -7.77374 0
M  V30 5876 N 569.068 1.32177 -0.85831 0
M  V30 5877 C 570 2.27688 -0.262835 0
M  V30 5878 C 571.013 1.52588 0.567513 0
M  V30 5879 O 572.202 1.74156 0.391407 0
M  V30 5880 C 569.302 3.32668 0.646937 0
M  V30 5881 C 568.475 4.37148 -0.148372 0
M  V30 5882 C 567.534 5.21686 0.687728 0
M  V30 5883 O 566.56 5.69074 0.119934 0
M  V30 5884 N 567.762 5.44892 2.00182 0
M  V30 5885 H 570.527 2.79426 -1.08356 0
M  V30 5886 H 568.088 1.45076 -0.718647 0
M  V30 5887 H 570.08 3.86134 1.2117 0
M  V30 5888 H 568.65 2.81061 1.36834 0
M  V30 5889 H 567.87 3.83915 -0.894572 0
M  V30 5890 H 569.158 5.04038 -0.694514 0
M  V30 5891 H 568.556 5.08128 2.4864 0
M  V30 5892 H 567.113 6.0134 2.51463 0
M  V30 5893 N 570.547 0.616602 1.45037 0
M  V30 5894 C 571.963 0.280994 1.57107 0
M  V30 5895 C 572.163 -1.21627 1.60653 0
M  V30 5896 O 571.219 -1.9997 1.54169 0
M  V30 5897 C 572.532 0.960116 2.8496 0
M  V30 5898 C 574.08 0.936884 2.98649 0
M  V30 5899 C 574.555 1.59619 4.29285 0
M  V30 5900 N 576.046 1.5621 4.36065 0
M  V30 5901 C 576.781 2.04131 5.35834 0
M  V30 5902 N 576.277 2.60177 6.4209 0
M  V30 5903 N 578.07 1.94845 5.27249 0
M  V30 5904 H 570.221 1.58867 1.40979 0
M  V30 5905 H 572.484 0.666024 0.674623 0
M  V30 5906 H 572.19 2.01473 2.88273 0
M  V30 5907 H 572.064 0.488921 3.74018 0
M  V30 5908 H 574.451 -0.109209 2.94898 0
M  V30 5909 H 574.532 1.44643 2.10979 0
M  V30 5910 H 574.176 2.64166 4.33796 0
M  V30 5911 H 574.106 1.06159 5.15789 0
M  V30 5912 H 576.597 1.15276 3.59889 0
M  V30 5913 H 576.91 2.94513 7.1448 0
M  V30 5914 H 575.255 2.64221 6.42816 0
M  V30 5915 H 578.446 1.50792 4.43147 0
M  V30 5916 H 578.619 2.32504 6.04852 0
M  V30 5917 N 572.025 -1.5352 0.356285 0
M  V30 5918 C 573.255 -2.05236 -0.236983 0
M  V30 5919 C 573.663 -1.23016 -1.43749 0
M  V30 5920 O 573.006 -0.2615 -1.81829 0
M  V30 5921 C 573.068 -3.52549 -0.7035 0
M  V30 5922 C 572.732 -4.55425 0.379059 0
M  V30 5923 C 573.729 -5.0524 1.22592 0
M  V30 5924 C 571.414 -4.99425 0.536638 0
M  V30 5925 C 573.408 -5.97647 2.21578 0
M  V30 5926 C 571.095 -5.9164 1.52988 0
M  V30 5927 C 572.093 -6.4064 2.3679 0
M  V30 5928 O 571.781 -7.31039 3.34421 0
M  V30 5929 H 571.513 -0.674346 -0.047254 0
M  V30 5930 H 574.067 -1.98962 0.510238 0
M  V30 5931 H 572.297 -3.56331 -1.50217 0
M  V30 5932 H 573.986 -3.87171 -1.21873 0
M  V30 5933 H 574.752 -4.72002 1.11532 0
M  V30 5934 H 570.631 -4.60879 -0.105834 0
M  V30 5935 H 574.175 -6.35816 2.87025 0
M  V30 5936 H 570.072 -6.24293 1.64099 0
M  V30 5937 H 570.84 -7.49009 3.30041 0
M  V30 5938 N 573.503 -0.0852151 -1.57369 0
M  V30 5939 C 574.453 0.88767 -2.10011 0
M  V30 5940 C 575.437 1.25021 -1.01285 0
M  V30 5941 O 576.629 1.22694 -1.27574 0
M  V30 5942 C 573.758 2.15037 -2.67608 0
M  V30 5943 C 572.844 1.81371 -3.83361 0
M  V30 5944 N 573.235 1.18216 -4.91791 0
M  V30 5945 C 571.533 2.11041 -3.92909 0
M  V30 5946 C 572.234 1.02941 -5.72519 0
M  V30 5947 N 571.21 1.54351 -5.21226 0
M  V30 5948 H 575.012 0.395279 -2.9123 0
M  V30 5949 H 572.526 0.11829 -1.61969 0
M  V30 5950 H 574.523 2.85667 -3.03644 0
M  V30 5951 H 573.183 2.64851 -1.8784 0
M  V30 5952 H 574.194 0.850168 -5.10874 0
M  V30 5953 H 570.871 2.63138 -3.24136 0
M  V30 5954 H 572.261 0.536298 -6.69756 0
M  V30 5955 N 574.981 1.5647 0.188427 0
M  V30 5956 C 576.258 1.71857 0.934058 0
M  V30 5957 C 576.638 0.641867 2.01105 0
M  V30 5958 O 575.986 -0.346098 2.25864 0
M  V30 5959 C 576.196 3.14431 1.5144 0
M  V30 5960 C 577.544 3.74869 1.99396 0
M  V30 5961 O 578.568 3.17601 1.61269 0
M  V30 5962 O 577.427 4.75387 2.69573 0
M  V30 5963 H 574.521 0.701186 0.438483 0
M  V30 5964 H 577.067 1.68768 0.177599 0
M  V30 5965 H 575.839 3.8427 0.738416 0
M  V30 5966 H 575.462 3.21775 2.33552 0
M  V30 5967 N 576.459 -0.456382 1.50847 0
M  V30 5968 C 577.706 -1.20736 1.62571 0
M  V30 5969 C 578.034 -1.9163 0.332904 0
M  V30 5970 O 577.289 -1.8343 -0.682058 0
M  V30 5971 C 577.588 -2.26336 2.76599 0
M  V30 5972 C 577.254 -1.7259 4.16562 0
M  V30 5973 C 575.916 -1.57654 4.54641 0
M  V30 5974 C 578.268 -1.32877 5.03977 0
M  V30 5975 C 575.596 -1.0145 5.77862 0
M  V30 5976 C 577.948 -0.7811 6.27759 0
M  V30 5977 C 576.612 -0.618488 6.64628 0
M  V30 5978 H 575.882 -0.441803 0.594888 0
M  V30 5979 H 578.529 -0.501169 1.84826 0
M  V30 5980 H 576.834 -3.0292 2.48489 0
M  V30 5981 H 578.531 -2.84227 2.82871 0
M  V30 5982 H 575.121 -1.85187 3.86528 0
M  V30 5983 H 579.305 -1.43245 4.75179 0
M  V30 5984 H 574.561 -0.876109 6.0509 0
M  V30 5985 H 578.735 -0.464783 6.94847 0
M  V30 5986 H 576.362 -0.180838 7.59985 0
M  V30 5987 N 577.937 -1.40673 -0.710563 0
M  V30 5988 C 578.9 -1.4108 -1.80635 0
M  V30 5989 C 579.9 -0.303783 -1.57904 0
M  V30 5990 O 581.09 -0.562937 -1.64853 0
M  V30 5991 C 578.222 -1.20748 -3.18799 0
M  V30 5992 H 579.415 -2.38612 -1.81671 0
M  V30 5993 H 576.968 -1.26595 -0.916704 0
M  V30 5994 H 577.703 -0.239964 -3.23411 0
M  V30 5995 H 577.488 -2.00941 -3.36698 0
M  V30 5996 H 578.978 -1.23833 -3.98817 0
M  V30 5997 N 579.415 0.9433 -1.26252 0
M  V30 5998 C 580.661 1.69175 -1.11837 0
M  V30 5999 C 580.994 1.91238 0.337891 0
M  V30 6000 O 580.269 1.49152 1.24836 0
M  V30 6001 C 580.552 3.06783 -1.88563 0
M  V30 6002 C 580.405 2.9206 -3.42083 0
M  V30 6003 C 581.724 4.06865 -1.67776 0
M  V30 6004 H 578.843 0.61399 -0.407658 0
M  V30 6005 H 581.485 1.09572 -1.55222 0
M  V30 6006 H 579.635 3.57663 -1.51689 0
M  V30 6007 H 581.307 2.48419 -3.88698 0
M  V30 6008 H 579.55 2.27731 -3.69217 0
M  V30 6009 H 580.221 3.89651 -3.90994 0
M  V30 6010 H 582.697 3.64939 -1.99897 0
M  V30 6011 H 581.573 5.01168 -2.23879 0
M  V30 6012 H 581.834 4.37705 -0.621816 0
M  V30 6013 N 580.893 1.08022 1.14757 0
M  V30 6014 C 582.309 0.807072 1.3769 0
M  V30 6015 C 582.509 -0.585504 1.92806 0
M  V30 6016 O 581.565 -1.34301 2.13821 0
M  V30 6017 C 582.878 1.88651 2.34161 0
M  V30 6018 C 584.426 1.91206 2.47809 0
M  V30 6019 C 584.901 2.98253 3.47576 0
M  V30 6020 N 586.392 2.974 3.55117 0
M  V30 6021 C 587.127 3.76872 4.32152 0
M  V30 6022 N 586.623 4.66212 5.12463 0
M  V30 6023 N 588.416 3.6519 4.27309 0
M  V30 6024 H 580.567 1.97824 0.77326 0
M  V30 6025 H 582.83 0.85826 0.402608 0
M  V30 6026 H 582.536 2.88749 2.00791 0
M  V30 6027 H 582.41 1.75244 3.3402 0
M  V30 6028 H 584.797 0.917564 2.80472 0
M  V30 6029 H 584.878 2.08691 1.47925 0
M  V30 6030 H 584.522 3.97907 3.15646 0
M  V30 6031 H 584.452 2.78014 4.47231 0
M  V30 6032 H 586.943 2.32643 2.97801 0
M  V30 6033 H 587.256 5.23468 5.68508 0
M  V30 6034 H 585.601 4.70257 5.11745 0
M  V30 6035 H 588.792 2.94765 3.63636 0
M  V30 6036 H 588.965 4.27366 4.87095 0
M  V30 6037 N 582.371 -1.3172 0.865308 0
M  V30 6038 C 583.303 -2.27545 0.274906 0
M  V30 6039 C 584.316 -1.52887 -0.559413 0
M  V30 6040 O 585.505 -1.74361 -0.382166 0
M  V30 6041 C 582.605 -3.33006 -0.629286 0
M  V30 6042 C 581.778 -4.37063 0.171553 0
M  V30 6043 C 580.837 -5.22044 -0.660052 0
M  V30 6044 O 579.863 -5.69129 -0.0897527 0
M  V30 6045 N 581.065 -5.45946 -1.97289 0
M  V30 6046 H 583.83 -2.78848 1.09836 0
M  V30 6047 H 581.391 -1.44693 0.726331 0
M  V30 6048 H 583.383 -3.86772 -1.19121 0
M  V30 6049 H 581.953 -2.81782 -1.35342 0
M  V30 6050 H 581.173 -3.83436 0.914919 0
M  V30 6051 H 582.461 -5.03662 0.721235 0
M  V30 6052 H 581.859 -5.0944 -2.45942 0
M  V30 6053 H 580.416 -6.02665 -2.4827 0
M  V30 6054 N 583.85 -0.624285 -1.44708 0
M  V30 6055 C 585.099 -0.123539 -2.01321 0
M  V30 6056 C 585.412 1.25966 -1.49639 0
M  V30 6057 O 586.618 1.85405 -1.98336 0
M  V30 6058 C 585.074 -0.170124 -3.59498 0
M  V30 6059 C 584.682 -1.55421 -4.20176 0
M  V30 6060 C 586.426 0.274513 -4.23611 0
M  V30 6061 C 584.332 -1.55628 -5.70556 0
M  V30 6062 H 583.263 -0.0424183 -0.752806 0
M  V30 6063 H 585.913 -0.782076 -1.65999 0
M  V30 6064 H 584.296 0.555385 -3.92086 0
M  V30 6065 H 585.47 -2.30276 -3.99136 0
M  V30 6066 H 583.784 -1.94235 -3.68323 0
M  V30 6067 H 586.382 0.292402 -5.339 0
M  V30 6068 H 586.725 1.3005 -3.95465 0
M  V30 6069 H 587.258 -0.398275 -3.95801 0
M  V30 6070 H 583.997 -2.56041 -6.03426 0
M  V30 6071 H 583.517 -0.850563 -5.93739 0
M  V30 6072 H 585.196 -1.28721 -6.34066 0
M  V30 6073 N 585.328 1.53329 -0.364422 0
M  V30 6074 C 586.276 2.27212 0.497737 0
M  V30 6075 C 587.27 1.30146 1.08437 0
M  V30 6076 O 588.476 1.47778 1.0277 0
M  V30 6077 H 584.851 0.730329 0.179232 0
M  V30 6078 H 586.822 2.98037 -0.147182 0
M  V30 6079 C 585.571 3.07333 1.6261 0
M  V30 6080 H 584.894 3.81866 1.184 0
M  V30 6081 H 586.334 3.62209 2.20409 0
M  V30 6082 C 584.793 2.18102 2.56775 0
M  V30 6083 O 585.323 1.79104 3.59562 0
M  V30 6084 N 583.529 1.82759 2.25937 0
M  V30 6085 H 583.076 2.14671 1.42387 0
M  V30 6086 H 583.034 1.23342 2.89196 0
M  V30 6087 N 586.806 0.0935595 1.57322 0
M  V30 6088 C 588.036 -0.578095 1.98347 0
M  V30 6089 C 588.444 -1.62357 0.971441 0
M  V30 6090 O 587.787 -1.83639 -0.0473959 0
M  V30 6091 C 587.849 -1.28525 3.3574 0
M  V30 6092 C 587.513 -0.390714 4.55327 0
M  V30 6093 C 588.51 0.360522 5.18648 0
M  V30 6094 C 586.195 -0.309221 5.01347 0
M  V30 6095 C 588.189 1.18125 6.26359 0
M  V30 6096 C 585.876 0.515157 6.08925 0
M  V30 6097 C 586.874 1.25904 6.71295 0
M  V30 6098 O 586.562 2.06978 7.76798 0
M  V30 6099 H 586.294 -0.159767 0.656849 0
M  V30 6100 H 588.848 0.169058 2.04703 0
M  V30 6101 H 587.078 -2.07894 3.26063 0
M  V30 6102 H 588.767 -1.85128 3.61223 0
M  V30 6103 H 589.533 0.307285 4.84026 0
M  V30 6104 H 585.412 -0.877881 4.52564 0
M  V30 6105 H 588.956 1.76236 6.74971 0
M  V30 6106 H 584.853 0.56988 6.42979 0
M  V30 6107 H 585.621 1.99644 7.93779 0
M  V30 6108 N 588.284 -1.56567 -0.180126 0
M  V30 6109 C 589.247 -1.94852 -1.20686 0
M  V30 6110 C 590.247 -0.831212 -1.3765 0
M  V30 6111 O 591.437 -1.09841 -1.35206 0
M  V30 6112 C 588.569 -2.23565 -2.57355 0
M  V30 6113 H 589.762 -2.86722 -0.879225 0
M  V30 6114 H 587.315 -1.50489 -0.422237 0
M  V30 6115 H 588.05 -1.34381 -2.95148 0
M  V30 6116 H 587.835 -3.04999 -2.46411 0
M  V30 6117 H 589.325 -2.54137 -3.31367 0
M  V30 6118 N 589.762 0.448376 -1.51087 0
M  V30 6119 C 590.692 1.55102 -1.74544 0
M  V30 6120 C 591.673 1.59357 -0.594932 0
M  V30 6121 O 592.858 1.75261 -0.836491 0
M  V30 6122 C 589.988 2.93268 -1.86041 0
M  V30 6123 C 588.942 3.03877 -3.01402 0
M  V30 6124 C 588.268 4.43914 -2.98068 0
M  V30 6125 C 589.568 2.7898 -4.41551 0
M  V30 6126 H 591.262 1.35724 -2.66869 0
M  V30 6127 H 588.808 0.651498 -1.28419 0
M  V30 6128 H 590.761 3.70356 -2.01034 0
M  V30 6129 H 589.485 3.13853 -0.903548 0
M  V30 6130 H 588.144 2.29227 -2.86096 0
M  V30 6131 H 587.792 4.6145 -2.00182 0
M  V30 6132 H 587.492 4.51944 -3.75527 0
M  V30 6133 H 589.016 5.22991 -3.1514 0
M  V30 6134 H 590.43 3.45805 -4.57265 0
M  V30 6135 H 588.827 2.98431 -5.20633 0
M  V30 6136 H 589.897 1.74663 -4.5235 0
M  V30 6137 N 591.24 1.41047 0.703093 0
M  V30 6138 C 592.488 1.39723 1.4602 0
M  V30 6139 C 592.809 0.00461257 1.94999 0
M  V30 6140 O 592.079 -0.952292 1.71196 0
M  V30 6141 H 590.659 0.514281 0.541779 0
M  V30 6142 H 593.321 1.76217 0.832678 0
M  V30 6143 H 592.417 2.07982 2.32701 0
M  V30 6144 N 592.718 -0.936591 1.26751 0
M  V30 6145 C 593.995 -1.66094 1.03306 0
M  V30 6146 C 594.375 -2.06568 -0.435058 0
M  V30 6147 O 593.723 -1.79305 -1.41641 0
M  V30 6148 C 593.933 -2.86969 1.98619 0
M  V30 6149 C 595.281 -3.58516 2.27489 0
M  V30 6150 O 596.305 -2.97082 1.96522 0
M  V30 6151 O 595.164 -4.69181 2.80235 0
M  V30 6152 H 592.258 -0.727568 0.393158 0
M  V30 6153 H 594.804 -0.987914 1.3798 0
M  V30 6154 H 593.576 -2.53985 2.9767 0
M  V30 6155 H 593.199 -3.61996 1.64454 0
M  V30 6156 N 594.196 -1.08629 -1.14182 0
M  V30 6157 C 595.144 -0.71284 -2.21408 0
M  V30 6158 C 596.138 0.282457 -1.67029 0
M  V30 6159 O 597.344 0.144783 -1.79417 0
M  V30 6160 H 593.719 -0.212497 -0.721352 0
M  V30 6161 H 595.69 -1.6265 -2.50175 0
M  V30 6162 C 594.439 -0.140704 -3.47415 0
M  V30 6163 H 593.762 -0.897739 -3.8959 0
M  V30 6164 H 595.202 0.0827677 -4.23919 0
M  V30 6165 C 593.661 1.122 -3.17668 0
M  V30 6166 O 594.191 2.20652 -3.35672 0
M  V30 6167 N 592.397 1.03328 -2.71609 0
M  V30 6168 H 591.944 0.150666 -2.57159 0
M  V30 6169 H 591.902 1.8789 -2.52081 0
M  V30 6170 N 595.674 1.31259 -0.872281 0
M  V30 6171 C 597.085 1.78822 -0.536617 0
M  V30 6172 C 597.436 1.71855 0.946594 0
M  V30 6173 O 596.561 1.28769 1.73918 0
M  V30 6174 C 597.156 3.24698 -0.967294 0
M  V30 6175 C 595.715 3.70147 -0.683251 0
M  V30 6176 C 594.862 2.51994 -1.15733 0
M  V30 6177 H 597.813 1.18308 -1.05777 0
M  V30 6178 H 597.834 3.79386 -0.290929 0
M  V30 6179 H 597.346 3.29737 -2.04683 0
M  V30 6180 H 595.447 3.70607 0.384825 0
M  V30 6181 H 595.56 4.62183 -1.2619 0
M  V30 6182 H 593.924 2.48078 -0.577024 0
M  V30 6183 H 594.707 2.59778 -2.24434 0
M  V30 6184 N 597.152 0.631951 1.44375 0
M  V30 6185 C 598.568 0.297642 1.568 0
M  V30 6186 C 598.768 -1.19916 1.61934 0
M  V30 6187 O 597.824 -1.98324 1.56281 0
M  V30 6188 C 599.137 0.990286 2.83926 0
M  V30 6189 C 600.685 0.968507 2.97639 0
M  V30 6190 C 601.16 1.64163 4.27568 0
M  V30 6191 N 602.651 1.60826 4.34384 0
M  V30 6192 C 603.386 2.09802 5.33639 0
M  V30 6193 N 602.882 2.66973 6.39294 0
M  V30 6194 N 604.675 2.00426 5.25153 0
M  V30 6195 H 596.826 1.60353 1.39286 0
M  V30 6196 H 599.089 0.673142 0.667521 0
M  V30 6197 H 598.795 2.04519 2.8612 0
M  V30 6198 H 598.669 0.528563 3.73478 0
M  V30 6199 H 601.056 -0.0779247 2.94997 0
M  V30 6200 H 601.137 1.46873 2.09433 0
M  V30 6201 H 600.781 2.68752 4.3097 0
M  V30 6202 H 600.711 1.11624 5.14634 0
M  V30 6203 H 603.202 1.19087 3.58646 0
M  V30 6204 H 603.515 3.02074 7.11316 0
M  V30 6205 H 601.86 2.71024 6.39977 0
M  V30 6206 H 605.051 1.55483 4.41523 0
M  V30 6207 H 605.224 2.38906 6.02352 0
M  V30 6208 N 598.631 -1.53133 0.372548 0
M  V30 6209 C 599.579 -2.27473 -0.485681 0
M  V30 6210 C 600.573 -1.30719 -1.07745 0
M  V30 6211 O 601.779 -1.48321 -1.01985 0
M  V30 6212 H 598.154 -0.731269 -0.175356 0
M  V30 6213 H 600.125 -2.97955 0.162986 0
M  V30 6214 C 598.874 -3.08191 -1.60978 0
M  V30 6215 H 598.197 -3.82488 -1.16373 0
M  V30 6216 H 599.637 -3.63373 -2.18485 0
M  V30 6217 C 598.096 -2.19461 -2.55614 0
M  V30 6218 O 598.626 -1.81008 -3.58607 0
M  V30 6219 N 596.832 -1.83955 -2.24965 0
M  V30 6220 H 596.379 -2.15423 -1.41247 0
M  V30 6221 H 596.337 -1.24874 -2.88538 0
M  V30 6222 N 600.109 -0.101901 -1.5727 0
M  V30 6223 C 601.334 0.571759 -1.99363 0
M  V30 6224 C 601.759 1.60507 -0.980768 0
M  V30 6225 O 601.117 1.81231 0.0498517 0
M  V30 6226 C 601.165 1.18996 -3.404 0
M  V30 6227 O 600.269 2.30572 -3.41922 0
M  V30 6228 H 599.61 0.144449 -0.648098 0
M  V30 6229 H 602.14 -0.185325 -2.03759 0
M  V30 6230 H 602.15 1.52962 -3.78241 0
M  V30 6231 H 600.825 0.432984 -4.1364 0
M  V30 6232 H 599.402 1.98173 -3.15883 0
M  V30 6233 N 601.587 1.56661 0.17182 0
M  V30 6234 C 602.812 1.86459 0.908165 0
M  V30 6235 C 603.237 0.688181 1.75059 0
M  V30 6236 O 602.595 -0.362753 1.77634 0
M  V30 6237 C 602.643 3.14669 1.76112 0
M  V30 6238 O 601.747 2.96858 2.86268 0
M  V30 6239 H 601.088 0.613318 0.254434 0
M  V30 6240 H 603.618 2.03892 0.170113 0
M  V30 6241 H 603.628 3.46061 2.16115 0
M  V30 6242 H 602.303 3.99905 1.14233 0
M  V30 6243 H 600.88 2.76819 2.49852 0
M  V30 6244 N 603.065 -0.440357 1.51323 0
M  V30 6245 C 604.295 -1.21079 1.67402 0
M  V30 6246 C 604.703 -1.85555 0.369599 0
M  V30 6247 O 604.046 -1.71375 -0.661525 0
M  V30 6248 C 604.108 -2.33839 2.73056 0
M  V30 6249 C 603.772 -1.89755 4.15743 0
M  V30 6250 C 604.769 -1.40268 5.0062 0
M  V30 6251 C 602.454 -1.97539 4.61826 0
M  V30 6252 C 604.448 -0.991474 6.29642 0
M  V30 6253 C 602.135 -1.56029 5.90845 0
M  V30 6254 C 603.133 -1.06915 6.7458 0
M  V30 6255 O 602.821 -0.659933 8.01187 0
M  V30 6256 H 602.553 -0.371133 0.56501 0
M  V30 6257 H 605.107 -0.528409 1.98487 0
M  V30 6258 H 603.337 -3.05345 2.37279 0
M  V30 6259 H 605.026 -2.95713 2.78044 0
M  V30 6260 H 605.792 -1.33652 4.66221 0
M  V30 6261 H 601.671 -2.34713 3.96776 0
M  V30 6262 H 605.215 -0.607425 6.9495 0
M  V30 6263 H 601.112 -1.62315 6.24759 0
M  V30 6264 H 601.88 -0.786052 8.14717 0
M  V30 6265 N 604.543 -1.41418 -0.695603 0
M  V30 6266 C 605.789 -1.40982 -1.4578 0
M  V30 6267 C 606.122 -0.0187763 -1.94191 0
M  V30 6268 O 605.397 0.95346 -1.69527 0
M  V30 6269 C 605.68 -2.41657 -2.66972 0
M  V30 6270 C 605.533 -3.89869 -2.24327 0
M  V30 6271 C 606.852 -2.39589 -3.69168 0
M  V30 6272 H 603.971 -0.513405 -0.528757 0
M  V30 6273 H 606.613 -1.72693 -0.792275 0
M  V30 6274 H 604.763 -2.14746 -3.23754 0
M  V30 6275 H 606.435 -4.27683 -1.72872 0
M  V30 6276 H 604.678 -4.04737 -1.56111 0
M  V30 6277 H 605.349 -4.55857 -3.11285 0
M  V30 6278 H 607.825 -2.63471 -3.2206 0
M  V30 6279 H 606.701 -3.12044 -4.51575 0
M  V30 6280 H 606.962 -1.41447 -4.18862 0
M  V30 6281 N 606.021 0.929856 -1.27246 0
M  V30 6282 C 607.267 1.6798 -1.13625 0
M  V30 6283 C 607.6 1.91586 0.317589 0
M  V30 6284 O 606.875 1.50467 1.23247 0
M  V30 6285 C 607.158 3.04766 -1.91806 0
M  V30 6286 C 607.011 2.88415 -3.45162 0
M  V30 6287 C 608.33 4.05063 -1.72082 0
M  V30 6288 H 605.449 0.609632 -0.414147 0
M  V30 6289 H 608.091 1.0792 -1.56376 0
M  V30 6290 H 606.241 3.56034 -1.55474 0
M  V30 6291 H 607.913 2.44282 -3.91311 0
M  V30 6292 H 606.156 2.23802 -3.71611 0
M  V30 6293 H 606.827 3.85482 -3.95105 0
M  V30 6294 H 609.303 3.62798 -2.03757 0
M  V30 6295 H 608.179 4.98765 -2.29182 0
M  V30 6296 H 608.44 4.37021 -0.668206 0
M  V30 6297 N 607.499 1.09233 1.13605 0
M  V30 6298 C 608.747 0.825525 1.84471 0
M  V30 6299 C 609.068 -0.650702 1.83823 0
M  V30 6300 O 608.338 -1.47204 1.29259 0
M  V30 6301 H 606.918 0.3024 0.683054 0
M  V30 6302 H 609.58 1.38006 1.37624 0
M  V30 6303 H 608.676 1.17727 2.89045 0
M  V30 6304 N 608.977 -1.30795 0.87923 0
M  V30 6305 C 610.224 -1.96362 0.494786 0
M  V30 6306 C 610.552 -1.69448 -0.954868 0
M  V30 6307 O 609.807 -0.988711 -1.68888 0
M  V30 6308 C 610.106 -3.50287 0.709476 0
M  V30 6309 C 609.772 -3.9724 2.13333 0
M  V30 6310 C 608.434 -4.09772 2.52271 0
M  V30 6311 C 610.786 -4.21807 3.06151 0
M  V30 6312 C 608.114 -4.44227 3.83248 0
M  V30 6313 C 610.466 -4.5773 4.36654 0
M  V30 6314 C 609.13 -4.68469 4.75492 0
M  V30 6315 H 608.4 -0.71854 0.181055 0
M  V30 6316 H 611.047 -1.55764 1.11399 0
M  V30 6317 H 609.352 -3.91799 0.0072 0
M  V30 6318 H 611.049 -3.99082 0.391703 0
M  V30 6319 H 607.639 -3.87988 1.82107 0
M  V30 6320 H 611.823 -4.11611 2.77291 0
M  V30 6321 H 607.079 -4.50741 4.13089 0
M  V30 6322 H 611.253 -4.7569 5.08617 0
M  V30 6323 H 608.88 -4.94923 5.77022 0
M  V30 6324 N 610.455 -0.639598 -1.44038 0
M  V30 6325 C 611.703 -0.147188 -2.01563 0
M  V30 6326 C 612.024 1.2384 -1.50628 0
M  V30 6327 O 611.294 1.82452 -0.713316 0
M  V30 6328 H 609.874 -0.0514231 -0.745228 0
M  V30 6329 H 612.536 -0.828205 -1.76428 0
M  V30 6330 H 611.632 -0.121358 -3.11864 0
M  V30 6331 N 611.933 1.52934 -0.380664 0
M  V30 6332 C 612.881 2.27727 0.47361 0
M  V30 6333 C 613.875 1.31288 1.0705 0
M  V30 6334 O 615.081 1.4886 1.01197 0
M  V30 6335 H 611.456 0.732189 0.171475 0
M  V30 6336 H 613.427 2.97864 -0.178785 0
M  V30 6337 C 612.176 3.0904 1.59341 0
M  V30 6338 H 611.499 3.831 1.14343 0
M  V30 6339 H 612.939 3.64527 2.16555 0
M  V30 6340 C 611.398 2.20813 2.54447 0
M  V30 6341 O 611.928 1.82907 3.57642 0
M  V30 6342 N 610.134 1.85145 2.23986 0
M  V30 6343 H 609.681 2.16169 1.40103 0
M  V30 6344 H 609.639 1.26402 2.87871 0
M  V30 6345 N 613.412 0.11024 1.57214 0
M  V30 6346 C 614.36 -0.860586 2.16094 0
M  V30 6347 C 615.354 -1.28156 1.1078 0
M  V30 6348 O 616.56 -1.25433 1.29099 0
M  V30 6349 H 612.935 -0.295606 0.691463 0
M  V30 6350 H 614.906 -0.33942 2.96463 0
M  V30 6351 C 613.655 -2.10421 2.768 0
M  V30 6352 H 612.978 -1.7892 3.5753 0
M  V30 6353 H 614.418 -2.76375 3.21547 0
M  V30 6354 C 612.877 -2.88823 1.73444 0
M  V30 6355 O 613.407 -3.839 1.18251 0
M  V30 6356 N 611.613 -2.52649 1.43586 0
M  V30 6357 H 611.16 -1.754 1.8866 0
M  V30 6358 H 611.118 -3.05403 0.746735 0
M  V30 6359 N 614.89 -1.56749 -0.16351 0
M  V30 6360 C 616.301 -1.72039 -0.725216 0
M  V30 6361 C 616.652 -0.72202 -1.82432 0
M  V30 6362 O 615.777 0.114942 -2.16095 0
M  V30 6363 C 616.372 -3.11932 -1.32227 0
M  V30 6364 C 614.931 -3.28879 -1.83072 0
M  V30 6365 C 614.078 -2.67984 -0.712716 0
M  V30 6366 H 617.029 -1.58579 0.0619772 0
M  V30 6367 H 617.05 -3.11015 -2.19202 0
M  V30 6368 H 616.562 -3.84572 -0.522103 0
M  V30 6369 H 614.663 -2.61209 -2.65708 0
M  V30 6370 H 614.776 -4.36688 -1.97079 0
M  V30 6371 H 613.14 -2.28005 -1.13515 0
M  V30 6372 H 613.923 -3.43216 0.0757361 0
M  V30 6373 N 616.368 0.432326 -1.51554 0
M  V30 6374 C 617.779 1.01202 -1.56892 0
M  V30 6375 C 618.13 1.92175 -0.395394 0
M  V30 6376 O 617.255 2.10844 0.487198 0
M  V30 6377 C 617.85 1.84217 -2.8434 0
M  V30 6378 C 616.409 2.37228 -2.92233 0
M  V30 6379 C 615.556 1.16576 -2.51606 0
M  V30 6380 H 618.507 0.213407 -1.57259 0
M  V30 6381 H 618.528 2.69721 -2.68385 0
M  V30 6382 H 618.04 1.17979 -3.69733 0
M  V30 6383 H 616.141 3.06905 -2.11282 0
M  V30 6384 H 616.254 2.69682 -3.95991 0
M  V30 6385 H 614.618 1.51263 -2.04919 0
M  V30 6386 H 615.401 0.519404 -3.39348 0
M  V30 6387 N 617.846 1.41785 0.688094 0
M  V30 6388 C 619.262 1.24419 0.999608 0
M  V30 6389 C 619.462 0.138868 2.01021 0
M  V30 6390 O 618.518 -0.494283 2.47615 0
M  V30 6391 C 619.831 2.59625 1.51709 0
M  V30 6392 C 621.379 2.66869 1.63554 0
M  V30 6393 C 621.854 4.0241 2.18702 0
M  V30 6394 N 623.345 4.04295 2.26053 0
M  V30 6395 C 624.08 5.05977 2.69768 0
M  V30 6396 N 623.576 6.18047 3.13033 0
M  V30 6397 N 625.369 4.93336 2.69398 0
M  V30 6398 H 617.52 2.12392 0.0187427 0
M  V30 6399 H 619.783 0.945347 0.0708673 0
M  V30 6400 H 619.489 3.41297 0.849059 0
M  V30 6401 H 619.363 2.82628 2.49803 0
M  V30 6402 H 621.75 1.8555 2.29467 0
M  V30 6403 H 621.831 2.47668 0.639857 0
M  V30 6404 H 621.475 4.8418 1.53402 0
M  V30 6405 H 621.405 4.18955 3.19037 0
M  V30 6406 H 623.896 3.23383 1.9553 0
M  V30 6407 H 624.209 6.91498 3.45038 0
M  V30 6408 H 622.554 6.21572 3.10923 0
M  V30 6409 H 625.745 4.04865 2.34952 0
M  V30 6410 H 625.918 5.72717 3.03148 0
M  V30 6411 N 619.324 -0.923095 1.27737 0
M  V30 6412 C 620.272 -2.04567 1.10703 0
M  V30 6413 C 621.266 -1.69375 0.0288445 0
M  V30 6414 O 622.472 -1.79027 0.186913 0
M  V30 6415 H 618.847 -0.670109 0.34126 0
M  V30 6416 H 620.818 -2.1608 2.05796 0
M  V30 6417 C 619.567 -3.38934 0.775837 0
M  V30 6418 H 618.89 -3.66501 1.59741 0
M  V30 6419 H 620.33 -4.18239 0.696548 0
M  V30 6420 C 618.789 -3.32863 -0.520012 0
M  V30 6421 O 619.319 -3.70462 -1.55308 0
M  V30 6422 N 617.525 -2.85958 -0.51732 0
M  V30 6423 H 617.072 -2.55557 0.32379 0
M  V30 6424 H 617.03 -2.82279 -1.38441 0
M  V30 6425 N 620.802 -1.09834 -1.13024 0
M  V30 6426 C 622.213 -0.855651 -1.65938 0
M  V30 6427 C 622.564 0.615159 -1.86307 0
M  V30 6428 O 621.689 1.47335 -1.58497 0
M  V30 6429 C 622.284 -1.5467 -3.01434 0
M  V30 6430 C 620.843 -1.35088 -3.51323 0
M  V30 6431 C 619.99 -1.6001 -2.26478 0
M  V30 6432 H 622.941 -1.25691 -0.968889 0
M  V30 6433 H 622.962 -0.982179 -3.67605 0
M  V30 6434 H 622.474 -2.61715 -2.86578 0
M  V30 6435 H 620.575 -0.30179 -3.71376 0
M  V30 6436 H 620.688 -2.0886 -4.31178 0
M  V30 6437 H 619.052 -1.02246 -2.33276 0
M  V30 6438 H 619.835 -2.68293 -2.14182 0
M  V30 6439 N 622.28 1.30327 -0.886154 0
M  V30 6440 C 623.23 2.25668 -0.325248 0
M  V30 6441 C 624.214 1.51318 0.546972 0
M  V30 6442 O 625.406 1.72623 0.391203 0
M  V30 6443 C 622.535 3.40229 0.458167 0
M  V30 6444 C 621.621 4.21933 -0.428208 0
M  V30 6445 N 622.012 4.82129 -1.52921 0
M  V30 6446 C 620.31 4.45439 -0.223535 0
M  V30 6447 C 621.011 5.43351 -2.07714 0
M  V30 6448 N 619.987 5.26002 -1.37195 0
M  V30 6449 H 623.789 2.69759 -1.1665 0
M  V30 6450 H 621.303 1.4478 -0.735691 0
M  V30 6451 H 623.3 4.07579 0.876648 0
M  V30 6452 H 621.96 2.97678 1.29684 0
M  V30 6453 H 622.971 4.81312 -1.91205 0
M  V30 6454 H 619.648 4.13481 0.577875 0
M  V30 6455 H 621.038 6.01118 -3.00178 0
M  V30 6456 N 623.758 0.647228 1.43697 0
M  V30 6457 C 624.708 -0.0702191 2.27892 0
M  V30 6458 C 625.692 -0.800601 1.39568 0
M  V30 6459 O 626.884 -0.684055 1.63247 0
M  V30 6460 C 624.013 -1.04008 3.27165 0
M  V30 6461 C 623.099 -0.308484 4.22977 0
M  V30 6462 N 623.49 0.671721 5.0132 0
M  V30 6463 C 621.788 -0.550751 4.42586 0
M  V30 6464 C 622.489 1.10543 5.711 0
M  V30 6465 N 621.465 0.440903 5.41809 0
M  V30 6466 H 625.267 0.682031 2.85877 0
M  V30 6467 H 622.781 0.474022 1.55328 0
M  V30 6468 H 624.778 -1.56881 3.86256 0
M  V30 6469 H 623.438 -1.79246 2.70742 0
M  V30 6470 H 624.449 1.0502 5.0714 0
M  V30 6471 H 621.126 -1.28476 3.97241 0
M  V30 6472 H 622.516 1.91614 6.43998 0
M  V30 6473 N 625.236 -1.5273 0.388769 0
M  V30 6474 C 626.652 -1.59553 0.0387049 0
M  V30 6475 C 626.852 -1.40278 -1.44652 0
M  V30 6476 O 625.908 -1.21951 -2.21098 0
M  V30 6477 C 627.221 -2.9625 0.515409 0
M  V30 6478 C 628.769 -3.09426 0.471621 0
M  V30 6479 C 629.244 -4.48572 0.924505 0
M  V30 6480 N 630.735 -4.54754 0.880496 0
M  V30 6481 C 631.47 -5.60653 1.20234 0
M  V30 6482 N 630.966 -6.74198 1.59463 0
M  V30 6483 N 632.759 -5.50755 1.12363 0
M  V30 6484 H 624.91 -1.63508 1.35569 0
M  V30 6485 H 627.173 -0.768097 0.555636 0
M  V30 6486 H 626.879 -3.15569 1.5527 0
M  V30 6487 H 626.753 -3.77102 -0.085792 0
M  V30 6488 H 629.14 -2.89804 -0.556588 0
M  V30 6489 H 629.221 -2.30528 1.10862 0
M  V30 6490 H 628.865 -4.68936 1.95094 0
M  V30 6491 H 628.795 -5.25935 0.264524 0
M  V30 6492 H 631.286 -3.73237 0.591815 0
M  V30 6493 H 631.599 -7.5097 1.82385 0
M  V30 6494 H 629.944 -6.75531 1.63349 0
M  V30 6495 H 633.135 -4.6093 0.816169 0
M  V30 6496 H 633.308 -6.33184 1.37777 0
M  V30 6497 N 626.714 -0.118576 -1.57153 0
M  V30 6498 C 627.942 0.54726 -1.99531 0
M  V30 6499 C 628.357 1.60251 -0.998246 0
M  V30 6500 O 627.714 1.82498 0.00893106 0
M  V30 6501 C 627.765 1.17378 -3.41913 0
M  V30 6502 O 627.486 0.160703 -4.37805 0
M  V30 6503 C 628.987 1.92297 -3.9942 0
M  V30 6504 H 626.207 0.144919 -0.655164 0
M  V30 6505 H 628.751 -0.20479 -2.03472 0
M  V30 6506 H 626.906 1.87661 -3.38913 0
M  V30 6507 H 627.32 0.61586 -5.20872 0
M  V30 6508 H 628.794 2.31462 -5.01128 0
M  V30 6509 H 629.271 2.79801 -3.38538 0
M  V30 6510 H 629.877 1.26777 -4.05965 0
M  V30 6511 N 628.193 1.56834 0.155195 0
M  V30 6512 C 629.156 1.96748 1.17571 0
M  V30 6513 C 630.156 0.853006 1.3631 0
M  V30 6514 O 631.346 1.11978 1.33441 0
M  V30 6515 C 628.478 2.27631 2.53765 0
M  V30 6516 H 629.671 2.88085 0.833498 0
M  V30 6517 H 627.224 1.51141 0.398242 0
M  V30 6518 H 627.959 1.39059 2.92973 0
M  V30 6519 H 627.744 3.0888 2.41527 0
M  V30 6520 H 629.234 2.59377 3.27282 0
M  V30 6521 N 629.671 -0.424282 1.51781 0
M  V30 6522 C 630.621 -1.51464 1.70419 0
M  V30 6523 C 631.605 -1.50911 0.558094 0
M  V30 6524 O 632.797 -1.57143 0.814552 0
M  V30 6525 C 629.926 -2.89539 1.84451 0
M  V30 6526 C 629.012 -2.94798 3.04886 0
M  V30 6527 N 629.403 -2.69778 4.27848 0
M  V30 6528 C 627.701 -3.25962 3.04408 0
M  V30 6529 C 628.402 -2.81216 5.09208 0
M  V30 6530 N 627.378 -3.13447 4.44131 0
M  V30 6531 H 631.18 -1.30892 2.63144 0
M  V30 6532 H 628.694 -0.631783 1.49607 0
M  V30 6533 H 630.691 -3.67998 1.95917 0
M  V30 6534 H 629.351 -3.11121 0.929168 0
M  V30 6535 H 630.362 -2.44458 4.56575 0
M  V30 6536 H 627.039 -3.53236 2.22555 0
M  V30 6537 H 628.429 -2.65715 6.17127 0
M  V30 6538 N 631.149 -1.42148 -0.680565 0
M  V30 6539 C 632.397 -1.42029 -1.43779 0
M  V30 6540 C 632.718 -0.0356347 -1.94967 0
M  V30 6541 O 631.988 0.924936 -1.7269 0
M  V30 6542 H 630.568 -0.522835 -0.533529 0
M  V30 6543 H 633.23 -1.7752 -0.804538 0
M  V30 6544 H 632.326 -2.11658 -2.29363 0
M  V30 6545 N 632.627 0.916307 -1.28225 0
M  V30 6546 C 633.852 1.7043 -1.18188 0
M  V30 6547 C 634.277 1.86346 0.256274 0
M  V30 6548 O 633.635 1.37175 1.18544 0
M  V30 6549 C 633.683 3.07546 -1.88275 0
M  V30 6550 O 632.787 3.94904 -1.18848 0
M  V30 6551 H 632.128 0.521967 -0.410423 0
M  V30 6552 H 634.658 1.14589 -1.69501 0
M  V30 6553 H 634.668 3.57793 -1.96082 0
M  V30 6554 H 633.343 2.95279 -2.92887 0
M  V30 6555 H 631.92 3.53339 -1.19187 0
M  V30 6556 N 634.105 1.10431 1.1244 0
M  V30 6557 C 635.351 0.857864 1.84424 0
M  V30 6558 C 635.706 -0.609995 1.82474 0
M  V30 6559 O 634.999 -1.44401 1.25932 0
M  V30 6560 C 635.193 1.34022 3.3132 0
M  V30 6561 C 635.022 2.85344 3.47576 0
M  V30 6562 C 633.792 3.53345 3.61213 0
M  V30 6563 C 635.99 3.83446 3.42744 0
M  V30 6564 N 633.972 4.92989 3.65834 0
M  V30 6565 C 635.343 5.09101 3.5386 0
M  V30 6566 C 637.398 3.76154 3.26209 0
M  V30 6567 C 636.101 6.28323 3.50146 0
M  V30 6568 C 638.127 4.94876 3.23809 0
M  V30 6569 C 637.489 6.19378 3.35485 0
M  V30 6570 H 633.588 0.366917 0.690577 0
M  V30 6571 H 636.172 1.40668 1.34613 0
M  V30 6572 H 634.343 0.818727 3.79673 0
M  V30 6573 H 636.075 1.03801 3.91162 0
M  V30 6574 H 632.83 3.03791 3.63329 0
M  V30 6575 H 633.254 5.65762 3.71809 0
M  V30 6576 H 637.896 2.80813 3.16076 0
M  V30 6577 H 635.614 7.23953 3.5905 0
M  V30 6578 H 639.2 4.90942 3.12197 0
M  V30 6579 H 638.08 7.09704 3.33602 0
M  V30 6580 N 635.583 -1.29855 0.893053 0
M  V30 6581 C 636.811 -1.99976 0.530788 0
M  V30 6582 C 637.226 -1.66889 -0.882799 0
M  V30 6583 O 636.583 -0.910352 -1.58173 0
M  V30 6584 C 636.634 -3.54547 0.705587 0
M  V30 6585 O 636.355 -3.86458 2.06353 0
M  V30 6586 C 637.856 -4.41937 0.347387 0
M  V30 6587 H 635.076 -0.639129 0.204339 0
M  V30 6588 H 637.62 -1.65549 1.20057 0
M  V30 6589 H 635.775 -3.87311 0.0830685 0
M  V30 6590 H 636.189 -4.81146 2.08803 0
M  V30 6591 H 637.663 -5.4954 0.520557 0
M  V30 6592 H 638.14 -4.33339 -0.715139 0
M  V30 6593 H 638.746 -4.14633 0.946567 0
M  V30 6594 N 637.061 -0.65484 -1.43351 0
M  V30 6595 C 638.338 -0.0987371 -1.95351 0
M  V30 6596 C 638.718 1.38161 -1.59608 0
M  V30 6597 O 638.066 2.10791 -0.882021 0
M  V30 6598 C 638.276 -0.346684 -3.47274 0
M  V30 6599 C 639.624 -0.25249 -4.23849 0
M  V30 6600 O 640.648 -0.279332 -3.55103 0
M  V30 6601 O 639.507 -0.177584 -5.46211 0
M  V30 6602 H 636.601 0.0086829 -0.826954 0
M  V30 6603 H 639.147 -0.728189 -1.53282 0
M  V30 6604 H 637.919 -1.37296 -3.66423 0
M  V30 6605 H 637.542 0.315757 -3.96344 0
M  V30 6606 N 638.539 1.52521 -0.396863 0
M  V30 6607 C 639.764 2.06571 0.185258 0
M  V30 6608 C 640.189 1.26605 1.39115 0
M  V30 6609 O 639.547 0.293055 1.78916 0
M  V30 6610 C 639.595 3.5674 0.526189 0
M  V30 6611 O 638.699 3.7929 1.61903 0
M  V30 6612 H 638.04 0.663712 0.0195474 0
M  V30 6613 H 640.57 1.966 -0.566519 0
M  V30 6614 H 640.58 4.00311 0.788338 0
M  V30 6615 H 639.255 4.14379 -0.355397 0
M  V30 6616 H 637.832 3.47605 1.35 0
M  V30 6617 N 640.017 0.126909 1.57088 0
M  V30 6618 C 641.266 -0.529024 1.94639 0
M  V30 6619 C 641.579 -1.67323 1.01304 0
M  V30 6620 O 642.785 -2.39245 1.28352 0
M  V30 6621 C 641.241 -0.992483 3.45945 0
M  V30 6622 C 640.849 0.123691 4.47829 0
M  V30 6623 C 642.593 -1.61934 3.924 0
M  V30 6624 C 640.5 -0.356911 5.90322 0
M  V30 6625 H 639.43 -0.201397 0.726605 0
M  V30 6626 H 642.081 0.208032 1.82317 0
M  V30 6627 H 640.463 -1.7842 3.53528 0
M  V30 6628 H 641.637 0.900168 4.51922 0
M  V30 6629 H 639.952 0.657699 4.11173 0
M  V30 6630 H 642.549 -1.9902 4.96281 0
M  V30 6631 H 642.892 -2.50075 3.32819 0
M  V30 6632 H 643.425 -0.892894 3.8765 0
M  V30 6633 H 640.164 0.488636 6.53676 0
M  V30 6634 H 639.684 -1.0997 5.89633 0
M  V30 6635 H 641.363 -0.815547 6.41839 0
M  V30 6636 N 641.495 -1.56914 -0.146875 0
M  V30 6637 C 642.458 -1.97368 -1.16526 0
M  V30 6638 C 643.458 -0.860223 -1.35856 0
M  V30 6639 O 644.648 -1.12684 -1.32846 0
M  V30 6640 C 641.78 -2.28974 -2.52555 0
M  V30 6641 H 642.973 -2.88523 -0.818209 0
M  V30 6642 H 640.526 -1.5135 -0.390221 0
M  V30 6643 H 641.261 -1.40611 -2.92231 0
M  V30 6644 H 641.046 -3.10157 -2.39886 0
M  V30 6645 H 642.536 -2.61109 -3.25902 0
M  V30 6646 N 642.974 0.416227 -1.52004 0
M  V30 6647 C 644.199 1.19029 -1.69843 0
M  V30 6648 C 644.624 1.83708 -0.404103 0
M  V30 6649 O 643.982 1.69711 0.637787 0
M  V30 6650 C 644.03 2.23439 -2.83032 0
M  V30 6651 O 643.134 3.29419 -2.48106 0
M  V30 6652 H 642.475 0.347785 -0.565634 0
M  V30 6653 H 645.005 0.488871 -1.98674 0
M  V30 6654 H 645.015 2.67884 -3.07737 0
M  V30 6655 H 643.69 1.75745 -3.76944 0
M  V30 6656 H 642.267 2.90303 -2.34048 0
M  V30 6657 N 644.452 1.42507 0.673017 0
M  V30 6658 C 645.863 1.38347 1.25367 0
M  V30 6659 C 646.214 0.0776327 1.96046 0
M  V30 6660 O 645.339 -0.823571 2.00116 0
M  V30 6661 C 645.934 2.506 2.28002 0
M  V30 6662 C 644.493 2.49767 2.81591 0
M  V30 6663 C 643.64 2.293 1.55938 0
M  V30 6664 H 646.591 1.51695 0.466288 0
M  V30 6665 H 646.612 2.20953 3.09774 0
M  V30 6666 H 646.124 3.45627 1.76532 0
M  V30 6667 H 644.225 1.58563 3.37177 0
M  V30 6668 H 644.338 3.46867 3.30485 0
M  V30 6669 H 642.702 1.77594 1.82572 0
M  V30 6670 H 643.485 3.26385 1.06431 0
M  V30 6671 N 645.93 -0.909495 1.28709 0
M  V30 6672 C 646.893 -1.99399 1.13016 0
M  V30 6673 C 647.893 -1.60654 0.068536 0
M  V30 6674 O 649.083 -1.71334 0.314671 0
M  V30 6675 C 646.215 -3.33078 0.726085 0
M  V30 6676 H 647.408 -2.14751 2.09338 0
M  V30 6677 H 644.961 -1.09272 1.11756 0
M  V30 6678 H 645.696 -3.23428 -0.23771 0
M  V30 6679 H 645.481 -3.62562 1.49302 0
M  V30 6680 H 646.971 -4.12681 0.639058 0
M  V30 6681 N 647.408 -1.11026 -1.11852 0
M  V30 6682 C 648.318 -0.777252 -2.2135 0
M  V30 6683 C 649.334 0.227821 -1.72502 0
M  V30 6684 O 650.51 0.0650587 -2.01295 0
M  V30 6685 C 647.575 -0.220668 -3.45997 0
M  V30 6686 C 646.636 -1.2838 -4.09655 0
M  V30 6687 C 645.869 -0.753678 -5.28352 0
M  V30 6688 O 646.092 0.417779 -5.68868 0
M  V30 6689 O 645.026 -1.51647 -5.82483 0
M  V30 6690 H 648.852 -1.69141 -2.5224 0
M  V30 6691 H 646.437 -0.885836 -1.20305 0
M  V30 6692 H 648.319 0.0855756 -4.21313 0
M  V30 6693 H 646.994 0.666262 -3.16769 0
M  V30 6694 H 645.901 -1.64299 -3.3609 0
M  V30 6695 H 647.234 -2.14396 -4.43052 0
M  V30 6696 N 648.886 1.2938 -0.899927 0
M  V30 6697 C 649.834 2.29675 -0.367698 0
M  V30 6698 C 650.828 1.60787 0.533282 0
M  V30 6699 O 652.034 1.75126 0.416058 0
M  V30 6700 H 648.409 0.745284 -0.100279 0
M  V30 6701 H 650.38 2.72008 -1.22696 0
M  V30 6702 C 649.129 3.45512 0.389483 0
M  V30 6703 H 648.452 3.98713 -0.294575 0
M  V30 6704 H 649.892 4.17725 0.726744 0
M  V30 6705 C 648.351 2.969 1.59223 0
M  V30 6706 O 648.881 2.98195 2.69152 0
M  V30 6707 N 647.087 2.52728 1.43447 0
M  V30 6708 H 646.634 2.51873 0.540148 0
M  V30 6709 H 646.592 2.20561 2.24054 0
M  V30 6710 N 650.364 0.662433 1.43002 0
M  V30 6711 C 651.78 0.330835 1.56133 0
M  V30 6712 C 651.98 -1.16454 1.64441 0
M  V30 6713 O 651.036 -1.94964 1.60453 0
M  V30 6714 C 652.349 1.05029 2.81761 0
M  V30 6715 C 653.897 1.03142 2.95518 0
M  V30 6716 C 654.372 1.73196 4.2399 0
M  V30 6717 N 655.863 1.70004 4.30875 0
M  V30 6718 C 656.598 2.21074 5.29069 0
M  V30 6719 N 656.094 2.80473 6.33488 0
M  V30 6720 N 657.887 2.1152 5.20784 0
M  V30 6721 H 650.038 1.63272 1.35853 0
M  V30 6722 H 652.301 0.687149 0.653092 0
M  V30 6723 H 652.007 2.10542 2.81718 0
M  V30 6724 H 651.881 0.607664 3.72273 0
M  V30 6725 H 654.268 -0.0153339 2.95096 0
M  V30 6726 H 654.349 1.51282 2.0627 0
M  V30 6727 H 653.993 2.77833 4.25172 0
M  V30 6728 H 653.923 1.22515 5.1215 0
M  V30 6729 H 656.414 1.26667 3.56039 0
M  V30 6730 H 656.727 3.17094 7.04749 0
M  V30 6731 H 655.072 2.84538 6.34085 0
M  V30 6732 H 658.263 1.64814 4.38126 0
M  V30 6733 H 658.436 2.51629 5.97149 0
M  V30 6734 N 651.842 -1.52309 0.404946 0
M  V30 6735 C 652.792 -2.23717 -0.439864 0
M  V30 6736 C 653.776 -1.24692 -1.0169 0
M  V30 6737 O 654.968 -1.49951 -0.940409 0
M  V30 6738 C 652.097 -3.05898 -1.55825 0
M  V30 6739 C 651.183 -4.12331 -0.992188 0
M  V30 6740 N 651.574 -5.0557 -0.152424 0
M  V30 6741 C 649.872 -4.2774 -1.26312 0
M  V30 6742 C 650.573 -5.81474 0.162041 0
M  V30 6743 N 649.549 -5.41767 -0.44601 0
M  V30 6744 H 653.351 -2.93162 0.208084 0
M  V30 6745 H 650.865 -1.60969 0.215131 0
M  V30 6746 H 652.862 -3.55605 -2.17603 0
M  V30 6747 H 651.522 -2.37991 -2.20886 0
M  V30 6748 H 652.533 -5.17468 0.211556 0
M  V30 6749 H 649.21 -3.71062 -1.91362 0
M  V30 6750 H 650.6 -6.66585 0.843423 0
M  V30 6751 N 653.32 -0.135238 -1.57019 0
M  V30 6752 C 654.566 0.519563 -1.96032 0
M  V30 6753 C 654.899 1.65284 -1.01955 0
M  V30 6754 O 654.174 1.94408 -0.059727 0
M  V30 6755 C 654.457 1.0369 -3.44848 0
M  V30 6756 C 654.31 -0.0940754 -4.49702 0
M  V30 6757 C 655.629 1.92254 -3.95887 0
M  V30 6758 H 652.748 0.18739 -0.712779 0
M  V30 6759 H 655.39 -0.214086 -1.8879 0
M  V30 6760 H 653.54 1.66209 -3.5115 0
M  V30 6761 H 655.212 -0.73 -4.55487 0
M  V30 6762 H 653.455 -0.754924 -4.27181 0
M  V30 6763 H 654.126 0.309419 -5.51132 0
M  V30 6764 H 656.602 1.39581 -3.9199 0
M  V30 6765 H 655.478 2.25364 -5.00502 0
M  V30 6766 H 655.739 2.85513 -3.37543 0
M  V30 6767 N 654.798 1.5699 0.138552 0
M  V30 6768 C 655.728 2.01933 1.17241 0
M  V30 6769 C 656.709 0.90033 1.44319 0
M  V30 6770 O 657.894 1.16872 1.55095 0
M  V30 6771 C 655.024 2.40711 2.50351 0
M  V30 6772 C 653.978 3.55874 2.37776 0
M  V30 6773 C 653.304 3.80491 3.75674 0
M  V30 6774 C 654.604 4.8826 1.85472 0
M  V30 6775 H 656.298 2.88551 0.798672 0
M  V30 6776 H 653.844 1.3882 0.382743 0
M  V30 6777 H 655.797 2.70754 3.22909 0
M  V30 6778 H 654.521 1.5104 2.89576 0
M  V30 6779 H 653.18 3.2601 1.67669 0
M  V30 6780 H 652.828 2.88057 4.12349 0
M  V30 6781 H 652.528 4.57998 3.68119 0
M  V30 6782 H 654.052 4.12967 4.49767 0
M  V30 6783 H 655.466 5.16965 2.4783 0
M  V30 6784 H 653.863 5.69631 1.88787 0
M  V30 6785 H 654.933 4.78071 0.810935 0
M  V30 6786 N 656.276 -0.40816 1.52223 0
M  V30 6787 C 657.506 -1.17501 1.69932 0
M  V30 6788 C 657.914 -1.84729 0.408874 0
M  V30 6789 O 657.257 -1.7274 -0.625025 0
M  V30 6790 C 657.319 -2.27994 2.77955 0
M  V30 6791 C 656.983 -1.80894 4.19674 0
M  V30 6792 C 657.98 -1.29618 5.03483 0
M  V30 6793 C 655.665 -1.87698 4.65913 0
M  V30 6794 C 657.659 -0.857695 6.31603 0
M  V30 6795 C 655.346 -1.43461 5.94022 0
M  V30 6796 C 656.344 -0.925822 6.76696 0
M  V30 6797 O 656.032 -0.489841 8.02406 0
M  V30 6798 H 655.764 -0.359065 0.572755 0
M  V30 6799 H 658.318 -0.486188 1.99563 0
M  V30 6800 H 656.548 -3.00243 2.43703 0
M  V30 6801 H 658.237 -2.89749 2.84254 0
M  V30 6802 H 659.003 -1.23733 4.68951 0
M  V30 6803 H 654.882 -2.26244 4.01665 0
M  V30 6804 H 658.426 -0.459879 6.96083 0
M  V30 6805 H 654.323 -1.49026 6.28062 0
M  V30 6806 H 655.091 -0.613062 8.16201 0
M  V30 6807 N 657.755 -1.42862 -0.66545 0
M  V30 6808 C 659.003 -1.43546 -1.42264 0
M  V30 6809 C 659.324 -0.0563116 -1.94919 0
M  V30 6810 O 658.594 0.906568 -1.73661 0
M  V30 6811 H 657.174 -0.528464 -0.527953 0
M  V30 6812 H 659.836 -1.78363 -0.785665 0
M  V30 6813 H 658.932 -2.14079 -2.27105 0
M  V30 6814 N 659.233 0.902656 -1.29189 0
M  V30 6815 C 660.196 1.98797 -1.14071 0
M  V30 6816 C 661.196 1.60615 -0.0770549 0
M  V30 6817 O 662.386 1.71165 -0.323753 0
M  V30 6818 C 659.518 3.32688 -0.743739 0
M  V30 6819 H 660.711 2.13637 -2.10473 0
M  V30 6820 H 658.264 1.08678 -1.12334 0
M  V30 6821 H 658.999 3.23549 0.220554 0
M  V30 6822 H 658.784 3.61765 -1.51223 0
M  V30 6823 H 660.274 4.12337 -0.660935 0
M  V30 6824 N 660.711 1.11618 1.11262 0
M  V30 6825 C 661.641 0.79846 2.19424 0
M  V30 6826 C 662.622 -0.234003 1.68483 0
M  V30 6827 O 663.807 -0.0970704 1.93957 0
M  V30 6828 C 660.937 0.242892 3.4645 0
M  V30 6829 C 659.891 1.20744 4.10615 0
M  V30 6830 C 659.217 0.512494 5.32238 0
M  V30 6831 C 660.517 2.55884 4.55325 0
M  V30 6832 H 662.211 1.70286 2.46258 0
M  V30 6833 H 659.757 0.820195 1.18359 0
M  V30 6834 H 661.71 0.00840447 4.21399 0
M  V30 6835 H 660.434 -0.696811 3.1908 0
M  V30 6836 H 659.093 1.42759 3.37662 0
M  V30 6837 H 658.741 -0.432075 5.01141 0
M  V30 6838 H 658.441 1.15583 5.7612 0
M  V30 6839 H 659.965 0.286842 6.09926 0
M  V30 6840 H 661.379 2.37946 5.21588 0
M  V30 6841 H 659.776 3.16216 5.10027 0
M  V30 6842 H 660.846 3.14968 3.68678 0
M  V30 6843 N 662.189 -1.289 0.906776 0
M  V30 6844 C 663.435 -1.95558 0.53712 0
M  V30 6845 C 663.768 -1.71262 -0.915582 0
M  V30 6846 O 663.043 -1.02961 -1.65013 0
M  V30 6847 C 663.326 -3.50198 0.838645 0
M  V30 6848 C 663.179 -3.83923 2.34357 0
M  V30 6849 C 664.498 -4.38861 0.329988 0
M  V30 6850 H 661.617 -0.710289 0.196617 0
M  V30 6851 H 664.259 -1.52392 1.13475 0
M  V30 6852 H 662.409 -3.87096 0.330024 0
M  V30 6853 H 664.081 -3.56933 2.92227 0
M  V30 6854 H 662.324 -3.31215 2.80141 0
M  V30 6855 H 662.995 -4.91883 2.5051 0
M  V30 6856 H 665.471 -4.08996 0.765609 0
M  V30 6857 H 664.347 -5.45931 0.570105 0
M  V30 6858 H 664.608 -4.35352 -0.769511 0
M  V30 6859 N 663.667 -0.670007 -1.42649 0
M  V30 6860 C 664.915 -0.18991 -2.01206 0
M  V30 6861 C 665.236 1.20617 -1.53221 0
M  V30 6862 O 664.506 1.80898 -0.751856 0
M  V30 6863 H 663.086 -0.0672189 -0.743969 0
M  V30 6864 H 665.748 -0.865442 -1.74631 0
M  V30 6865 H 664.844 -0.187481 -3.11536 0
M  V30 6866 N 665.145 1.52092 -0.413018 0
M  V30 6867 C 666.393 2.01456 0.161178 0
M  V30 6868 C 666.714 1.30034 1.45314 0
M  V30 6869 O 665.984 0.427435 1.9118 0
M  V30 6870 H 664.564 0.744376 0.0625526 0
M  V30 6871 H 667.226 1.86974 -0.550151 0
M  V30 6872 H 666.322 3.1008 0.354517 0
M  V30 6873 N 666.623 0.143563 1.56945 0
M  V30 6874 C 668.034 -0.37783 1.82837 0
M  V30 6875 C 668.385 -1.64967 1.06209 0
M  V30 6876 O 667.51 -2.14221 0.306291 0
M  V30 6877 C 668.105 -0.692274 3.31652 0
M  V30 6878 C 666.664 -1.1582 3.58138 0
M  V30 6879 C 665.811 -0.17951 2.76718 0
M  V30 6880 H 668.762 0.368317 1.54367 0
M  V30 6881 H 668.783 -1.54729 3.47619 0
M  V30 6882 H 668.295 0.233572 3.87397 0
M  V30 6883 H 666.396 -2.10011 3.07776 0
M  V30 6884 H 666.509 -1.08655 4.66616 0
M  V30 6885 H 664.873 -0.671458 2.4569 0
M  V30 6886 H 665.656 0.739865 3.35233 0
M  V30 6887 N 668.101 -1.57061 -0.130224 0
M  V30 6888 C 669.349 -1.83893 -0.838313 0
M  V30 6889 C 669.67 -0.727046 -1.80939 0
M  V30 6890 O 668.94 0.249927 -1.94299 0
M  V30 6891 H 667.52 -0.67846 -0.312573 0
M  V30 6892 H 670.182 -1.94529 -0.120224 0
M  V30 6893 H 669.278 -2.79419 -1.39038 0
M  V30 6894 N 669.579 0.400081 -1.52437 0
M  V30 6895 C 670.804 1.17221 -1.71096 0
M  V30 6896 C 671.229 1.83269 -0.423565 0
M  V30 6897 O 670.587 1.70378 0.619751 0
M  V30 6898 C 670.635 2.20425 -2.85386 0
M  V30 6899 O 669.739 3.26769 -2.51586 0
M  V30 6900 H 669.08 0.341766 -0.569291 0
M  V30 6901 H 671.61 0.467772 -1.99181 0
M  V30 6902 H 671.62 2.64605 -3.10561 0
M  V30 6903 H 670.295 1.71737 -3.78786 0
M  V30 6904 H 668.872 2.87804 -2.37114 0
M  V30 6905 N 671.057 1.43213 0.657864 0
M  V30 6906 C 672.468 1.39669 1.23893 0
M  V30 6907 C 672.819 0.0984217 1.95953 0
M  V30 6908 O 671.944 -0.8023 2.00978 0
M  V30 6909 C 672.539 2.53004 2.25332 0
M  V30 6910 C 671.098 2.5274 2.78926 0
M  V30 6911 C 670.245 2.30941 1.53497 0
M  V30 6912 H 673.196 1.52181 0.450172 0
M  V30 6913 H 673.217 2.24226 3.07413 0
M  V30 6914 H 672.729 3.4748 1.72856 0
M  V30 6915 H 670.83 1.6213 3.35477 0
M  V30 6916 H 670.943 3.50352 3.26787 0
M  V30 6917 H 669.307 1.7952 1.80678 0
M  V30 6918 H 670.09 3.27496 1.02963 0
M  V30 6919 N 672.536 -0.895792 1.29666 0
M  V30 6920 C 673.484 -2.02173 1.15017 0
M  V30 6921 C 674.478 -1.69276 0.0647651 0
M  V30 6922 O 675.684 -1.7859 0.224846 0
M  V30 6923 H 672.059 -0.662719 0.355397 0
M  V30 6924 H 674.03 -2.11666 2.10334 0
M  V30 6925 C 672.779 -3.37212 0.847555 0
M  V30 6926 H 672.102 -3.6303 1.67479 0
M  V30 6927 H 673.542 -4.16668 0.785106 0
M  V30 6928 C 672.001 -3.33891 -0.44929 0
M  V30 6929 O 672.531 -3.73673 -1.47415 0
M  V30 6930 N 670.737 -2.86991 -0.456547 0
M  V30 6931 H 670.284 -2.54813 0.377925 0
M  V30 6932 H 670.242 -2.85152 -1.32423 0
M  V30 6933 N 674.014 -1.12206 -1.10668 0
M  V30 6934 C 675.291 -0.787382 -1.79052 0
M  V30 6935 C 675.671 0.723267 -1.98323 0
M  V30 6936 O 675.019 1.6561 -1.57434 0
M  V30 6937 C 675.229 -1.55968 -3.1221 0
M  V30 6938 C 676.577 -1.74413 -3.87125 0
M  V30 6939 O 677.601 -1.5246 -3.21923 0
M  V30 6940 O 676.46 -2.10952 -5.04144 0
M  V30 6941 H 673.554 -0.286137 -0.775922 0
M  V30 6942 H 676.1 -1.22595 -1.1734 0
M  V30 6943 H 674.872 -2.58692 -2.93588 0
M  V30 6944 H 674.495 -1.1152 -3.8164 0
M  V30 6945 N 675.492 1.28418 -0.913599 0
M  V30 6946 C 676.455 2.25564 -0.406624 0
M  V30 6947 C 677.455 1.5387 0.466965 0
M  V30 6948 O 678.645 1.72094 0.270042 0
M  V30 6949 C 675.777 3.38339 0.417053 0
M  V30 6950 H 676.97 2.71926 -1.26477 0
M  V30 6951 H 674.523 1.40098 -0.692986 0
M  V30 6952 H 675.258 2.97339 1.29461 0
M  V30 6953 H 675.043 3.91542 -0.209102 0
M  V30 6954 H 676.533 4.10578 0.762602 0
M  V30 6955 N 676.97 0.677563 1.42291 0
M  V30 6956 C 678.2 0.209155 2.05539 0
M  V30 6957 C 678.608 -1.13987 1.51009 0
M  V30 6958 O 677.951 -1.71976 0.645764 0
M  V30 6959 C 678.013 0.0697758 3.59432 0
M  V30 6960 C 677.677 1.34795 4.36668 0
M  V30 6961 C 678.674 2.28201 4.67141 0
M  V30 6962 C 676.359 1.59632 4.76259 0
M  V30 6963 C 678.353 3.44718 5.36142 0
M  V30 6964 C 676.04 2.76437 5.45 0
M  V30 6965 C 677.038 3.68805 5.74867 0
M  V30 6966 O 676.726 4.83567 6.42198 0
M  V30 6967 H 676.458 0.0986202 0.668768 0
M  V30 6968 H 679.012 0.925483 1.83368 0
M  V30 6969 H 677.242 -0.702157 3.80272 0
M  V30 6970 H 678.931 -0.359115 4.04308 0
M  V30 6971 H 679.697 2.10264 4.37052 0
M  V30 6972 H 675.576 0.886073 4.52404 0
M  V30 6973 H 679.12 4.16833 5.59371 0
M  V30 6974 H 675.017 2.94299 5.74507 0
M  V30 6975 H 675.785 4.83147 6.6069 0
M  V30 6976 N 678.448 -1.51871 0.421078 0
M  V30 6977 C 679.676 -2.06356 -0.14994 0
M  V30 6978 C 680.091 -1.29006 -1.37851 0
M  V30 6979 O 679.448 -0.345139 -1.79207 0
M  V30 6980 C 679.499 -3.58185 -0.488454 0
M  V30 6981 O 679.22 -4.32611 0.691341 0
M  V30 6982 C 680.721 -4.29129 -1.11191 0
M  V30 6983 H 677.941 -0.67083 -0.0151186 0
M  V30 6984 H 680.485 -1.95638 0.595476 0
M  V30 6985 H 678.64 -3.68871 -1.18376 0
M  V30 6986 H 679.054 -5.22927 0.405906 0
M  V30 6987 H 680.528 -5.36501 -1.29889 0
M  V30 6988 H 681.005 -3.86371 -2.0884 0
M  V30 6989 H 681.611 -4.22843 -0.456458 0
M  V30 6990 N 679.926 -0.151884 -1.56866 0
M  V30 6991 C 681.203 0.543328 -1.87902 0
M  V30 6992 C 681.583 1.82636 -1.05864 0
M  V30 6993 O 680.931 2.28028 -0.146868 0
M  V30 6994 C 681.141 0.804056 -3.39611 0
M  V30 6995 C 682.489 1.14267 -4.08935 0
M  V30 6996 O 683.513 0.893248 -3.44818 0
M  V30 6997 O 682.372 1.61229 -5.22176 0
M  V30 6998 H 679.466 0.277724 -0.778973 0
M  V30 6999 H 682.012 -0.188862 -1.68646 0
M  V30 7000 H 680.784 -0.103772 -3.91162 0
M  V30 7001 H 680.407 1.59025 -3.64413 0
M  V30 7002 N 681.404 1.57128 0.121893 0
M  V30 7003 C 682.681 1.75664 0.860327 0
M  V30 7004 C 683.061 0.726585 1.98202 0
M  V30 7005 O 682.409 -0.24999 2.27128 0
M  V30 7006 C 682.619 3.20571 1.37968 0
M  V30 7007 C 683.967 3.82988 1.83317 0
M  V30 7008 O 684.991 3.24156 1.47654 0
M  V30 7009 O 683.85 4.86393 2.49168 0
M  V30 7010 H 680.944 0.719153 0.408348 0
M  V30 7011 H 683.49 1.6937 0.105859 0
M  V30 7012 H 682.262 3.87056 0.57477 0
M  V30 7013 H 681.885 3.31392 2.19694 0
M  V30 7014 N 682.882 -0.391992 1.52647 0
M  V30 7015 C 684.298 -0.731848 1.41831 0
M  V30 7016 C 684.498 -1.9423 0.536361 0
M  V30 7017 O 683.554 -2.52499 0.00866571 0
M  V30 7018 C 684.867 -0.969743 2.84634 0
M  V30 7019 C 686.415 -1.0714 2.94092 0
M  V30 7020 C 686.89 -1.34195 4.37899 0
M  V30 7021 N 688.381 -1.41023 4.41211 0
M  V30 7022 C 689.116 -1.63616 5.49561 0
M  V30 7023 N 688.612 -1.83699 6.68002 0
M  V30 7024 N 690.405 -1.65771 5.371 0
M  V30 7025 H 682.556 0.404547 2.08512 0
M  V30 7026 H 684.819 0.11879 0.940528 0
M  V30 7027 H 684.525 -0.152465 3.51369 0
M  V30 7028 H 684.399 -1.88523 3.26709 0
M  V30 7029 H 686.786 -1.87925 2.27526 0
M  V30 7030 H 686.867 -0.133887 2.55449 0
M  V30 7031 H 686.511 -0.539207 5.0503 0
M  V30 7032 H 686.441 -2.29226 4.74092 0
M  V30 7033 H 688.932 -1.27223 3.55841 0
M  V30 7034 H 689.245 -2.00437 7.46354 0
M  V30 7035 H 687.59 -1.8093 6.71036 0
M  V30 7036 H 690.781 -1.4963 4.43541 0
M  V30 7037 H 690.954 -1.83038 6.21612 0
M  V30 7038 N 684.36 -1.4356 -0.65026 0
M  V30 7039 C 685.292 -1.44918 -1.77571 0
M  V30 7040 C 686.305 -0.344925 -1.59104 0
M  V30 7041 O 687.494 -0.609537 -1.6777 0
M  V30 7042 C 684.594 -1.24914 -3.15039 0
M  V30 7043 C 683.767 -2.48232 -3.60138 0
M  V30 7044 C 682.826 -2.23409 -4.76419 0
M  V30 7045 O 681.852 -2.9678 -4.85706 0
M  V30 7046 N 683.054 -1.25259 -5.66825 0
M  V30 7047 H 685.819 -2.41935 -1.76883 0
M  V30 7048 H 683.38 -1.38754 -0.834202 0
M  V30 7049 H 685.372 -1.06185 -3.90521 0
M  V30 7050 H 683.942 -0.363319 -3.10481 0
M  V30 7051 H 683.162 -2.82366 -2.75069 0
M  V30 7052 H 684.45 -3.30296 -3.87017 0
M  V30 7053 H 683.848 -0.646246 -5.61997 0
M  V30 7054 H 682.405 -1.12513 -6.42016 0
M  V30 7055 N 685.838 0.888903 -1.30139 0
M  V30 7056 C 687.115 1.62145 -1.094 0
M  V30 7057 C 687.495 2.08041 0.358091 0
M  V30 7058 O 686.843 1.84438 1.34888 0
M  V30 7059 C 687.053 2.794 -2.09133 0
M  V30 7060 C 688.401 3.49826 -2.40638 0
M  V30 7061 O 689.425 2.89583 -2.07412 0
M  V30 7062 O 688.284 4.58457 -2.97455 0
M  V30 7063 H 685.378 0.712475 -0.41989 0
M  V30 7064 H 687.924 0.936023 -1.41551 0
M  V30 7065 H 686.696 2.42762 -3.06891 0
M  V30 7066 H 686.319 3.55643 -1.77776 0
M  V30 7067 N 687.317 1.12792 1.10072 0
M  V30 7068 C 688.547 0.907189 1.85617 0
M  V30 7069 C 688.955 -0.547181 1.81115 0
M  V30 7070 O 688.298 -1.39024 1.20075 0
M  V30 7071 C 688.36 1.30872 3.34832 0
M  V30 7072 C 688.024 2.77516 3.6309 0
M  V30 7073 C 689.021 3.75696 3.59373 0
M  V30 7074 C 686.706 3.14513 3.91646 0
M  V30 7075 C 688.7 5.08888 3.83812 0
M  V30 7076 C 686.387 4.47886 4.15742 0
M  V30 7077 C 687.385 5.44882 4.11816 0
M  V30 7078 O 687.073 6.7585 4.35295 0
M  V30 7079 H 686.805 0.323855 0.593375 0
M  V30 7080 H 689.359 1.50262 1.40038 0
M  V30 7081 H 687.589 0.656518 3.81086 0
M  V30 7082 H 689.278 1.06153 3.91773 0
M  V30 7083 H 690.044 3.48458 3.37345 0
M  V30 7084 H 685.923 2.39622 3.93831 0
M  V30 7085 H 689.467 5.84586 3.80663 0
M  V30 7086 H 685.364 4.74851 4.37249 0
M  V30 7087 H 686.132 6.81853 4.52791 0
M  V30 7088 N 688.795 -1.27931 0.920396 0
M  V30 7089 C 690.041 -1.94977 0.557832 0
M  V30 7090 C 690.374 -1.72224 -0.897365 0
M  V30 7091 O 689.649 -1.04705 -1.63912 0
M  V30 7092 C 689.932 -3.49289 0.875741 0
M  V30 7093 C 689.785 -3.81416 2.38416 0
M  V30 7094 C 691.104 -4.38486 0.376517 0
M  V30 7095 H 688.223 -0.708164 0.20414 0
M  V30 7096 H 690.865 -1.5118 1.15085 0
M  V30 7097 H 689.015 -3.86724 0.371062 0
M  V30 7098 H 690.687 -3.53813 2.95997 0
M  V30 7099 H 688.93 -3.28225 2.83639 0
M  V30 7100 H 689.601 -4.89198 2.55713 0
M  V30 7101 H 692.077 -4.08161 0.808945 0
M  V30 7102 H 690.953 -5.45296 0.627976 0
M  V30 7103 H 691.214 -4.36143 -0.723293 0
M  V30 7104 N 690.273 -0.685099 -1.4193 0
M  V30 7105 C 691.236 -0.0222632 -2.29189 0
M  V30 7106 C 692.236 0.7186 -1.4385 0
M  V30 7107 O 693.426 0.555058 -1.6512 0
M  V30 7108 C 690.558 0.979013 -3.2654 0
M  V30 7109 H 691.751 -0.790424 -2.89296 0
M  V30 7110 H 689.304 -0.448012 -1.49742 0
M  V30 7111 H 690.039 1.77531 -2.71392 0
M  V30 7112 H 689.824 0.451037 -3.89497 0
M  V30 7113 H 691.314 1.44091 -3.91954 0
M  V30 7114 N 691.751 1.51645 -0.429126 0
M  V30 7115 C 692.699 2.29119 0.400921 0
M  V30 7116 C 693.693 1.34628 1.02819 0
M  V30 7117 O 694.899 1.52004 0.964098 0
M  V30 7118 H 691.274 0.737273 0.148095 0
M  V30 7119 H 693.245 2.97144 -0.273457 0
M  V30 7120 C 691.994 3.13953 1.49429 0
M  V30 7121 H 691.317 3.86544 1.02097 0
M  V30 7122 H 692.757 3.71232 2.04849 0
M  V30 7123 C 691.216 2.28796 2.47293 0
M  V30 7124 O 691.746 1.94193 3.51642 0
M  V30 7125 N 689.952 1.92177 2.17982 0
M  V30 7126 H 689.499 2.20517 1.33154 0
M  V30 7127 H 689.457 1.35497 2.83704 0
M  V30 7128 N 693.229 0.160201 1.56784 0
M  V30 7129 C 694.139 -0.787167 2.21 0
M  V30 7130 C 695.155 -1.26167 1.19825 0
M  V30 7131 O 696.331 -1.31611 1.52448 0
M  V30 7132 C 693.396 -2.00364 2.8294 0
M  V30 7133 C 692.457 -1.5771 3.99282 0
M  V30 7134 C 691.69 -2.73558 4.58259 0
M  V30 7135 O 691.913 -3.90129 4.16119 0
M  V30 7136 O 690.847 -2.48271 5.48311 0
M  V30 7137 H 694.673 -0.270462 3.02493 0
M  V30 7138 H 692.258 -0.0674666 1.49248 0
M  V30 7139 H 694.14 -2.71529 3.22257 0
M  V30 7140 H 692.815 -2.50961 2.04451 0
M  V30 7141 H 691.722 -0.835274 3.64656 0
M  V30 7142 H 693.055 -1.11815 4.79331 0
M  V30 7143 N 694.707 -1.5719 -0.113559 0
M  V30 7144 C 695.953 -1.85412 -0.821597 0
M  V30 7145 C 696.286 -0.746722 -1.7927 0
M  V30 7146 O 695.561 0.246971 -1.92926 0
M  V30 7147 C 695.844 -3.24233 -1.56669 0
M  V30 7148 C 695.697 -4.45578 -0.614823 0
M  V30 7149 C 697.016 -3.60697 -2.52161 0
M  V30 7150 H 694.135 -0.674406 -0.29723 0
M  V30 7151 H 696.777 -1.89807 -0.085694 0
M  V30 7152 H 694.927 -3.20617 -2.19401 0
M  V30 7153 H 696.599 -4.613 0.00407137 0
M  V30 7154 H 694.842 -4.33738 0.0732332 0
M  V30 7155 H 695.513 -5.39395 -1.17292 0
M  V30 7156 H 697.989 -3.65139 -1.99532 0
M  V30 7157 H 696.865 -4.58798 -3.01323 0
M  V30 7158 H 697.126 -2.88403 -3.35076 0
M  V30 7159 N 696.185 0.383891 -1.52853 0
M  V30 7160 C 697.148 1.45197 -1.77343 0
M  V30 7161 C 698.148 1.47362 -0.643522 0
M  V30 7162 O 699.338 1.48443 -0.911613 0
M  V30 7163 C 696.47 2.8445 -1.87885 0
M  V30 7164 H 697.663 1.24764 -2.72716 0
M  V30 7165 H 695.216 0.615939 -1.43652 0
M  V30 7166 H 695.951 3.10222 -0.94515 0
M  V30 7167 H 695.736 2.8428 -2.70051 0
M  V30 7168 H 697.226 3.61832 -2.08488 0
M  V30 7169 N 697.663 1.43903 0.642637 0
M  V30 7170 C 698.891 1.4954 1.42988 0
M  V30 7171 C 699.306 0.116588 1.8844 0
M  V30 7172 O 698.663 -0.875285 1.60141 0
M  V30 7173 C 698.714 2.45031 2.65785 0
M  V30 7174 O 698.435 3.77551 2.22232 0
M  V30 7175 C 699.936 2.60017 3.59035 0
M  V30 7176 H 697.156 0.507544 0.438907 0
M  V30 7177 H 699.7 1.88752 0.786942 0
M  V30 7178 H 697.855 2.08985 3.26196 0
M  V30 7179 H 698.269 4.29001 3.01759 0
M  V30 7180 H 699.743 3.30887 4.41835 0
M  V30 7181 H 700.22 1.64861 4.07084 0
M  V30 7182 H 700.826 2.96918 3.045 0
M  V30 7183 N 699.141 -0.881989 1.30609 0
M  V30 7184 C 700.418 -1.61563 1.10258 0
M  V30 7185 C 700.798 -2.08228 -0.347053 0
M  V30 7186 O 700.146 -1.85151 -1.33908 0
M  V30 7187 C 700.356 -2.78287 2.10612 0
M  V30 7188 C 701.704 -3.48545 2.4249 0
M  V30 7189 O 702.728 -2.88479 2.08945 0
M  V30 7190 O 701.587 -4.56873 2.99883 0
M  V30 7191 H 698.681 -0.710238 0.423663 0
M  V30 7192 H 701.227 -0.928503 1.42045 0
M  V30 7193 H 699.999 -2.41131 3.08174 0
M  V30 7194 H 699.622 -3.54695 1.79659 0
M  V30 7195 N 700.619 -1.13374 -1.09472 0
M  V30 7196 C 701.849 -0.917019 -1.85133 0
M  V30 7197 C 702.257 0.537568 -1.81402 0
M  V30 7198 O 701.6 1.38385 -1.20811 0
M  V30 7199 C 701.662 -1.32646 -3.34134 0
M  V30 7200 C 701.326 -2.79437 -3.61613 0
M  V30 7201 C 702.323 -3.77596 -3.57375 0
M  V30 7202 C 700.008 -3.16586 -3.89973 0
M  V30 7203 C 702.002 -5.10916 -3.81108 0
M  V30 7204 C 699.689 -4.50085 -4.13361 0
M  V30 7205 C 700.687 -5.47059 -4.0892 0
M  V30 7206 O 700.375 -6.78149 -4.31705 0
M  V30 7207 H 700.107 -0.326997 -0.591649 0
M  V30 7208 H 702.661 -1.51002 -1.39239 0
M  V30 7209 H 700.891 -0.676719 -3.80733 0
M  V30 7210 H 702.58 -1.08229 -3.91205 0
M  V30 7211 H 703.346 -3.50242 -3.35493 0
M  V30 7212 H 699.225 -2.41707 -3.92554 0
M  V30 7213 H 702.769 -5.86597 -3.77558 0
M  V30 7214 H 698.666 -4.77163 -4.34724 0
M  V30 7215 H 699.434 -6.84244 -4.49168 0
M  V30 7216 N 702.098 1.27442 -0.927168 0
M  V30 7217 C 703.046 2.28844 -0.416333 0
M  V30 7218 C 704.04 1.61882 0.499057 0
M  V30 7219 O 705.246 1.75969 0.378817 0
M  V30 7220 H 701.621 0.742989 -0.116065 0
M  V30 7221 H 703.592 2.69344 -1.28438 0
M  V30 7222 C 702.341 3.4626 0.316107 0
M  V30 7223 H 701.664 3.97999 -0.379082 0
M  V30 7224 H 703.104 4.19173 0.637975 0
M  V30 7225 C 701.563 3.00211 1.5289 0
M  V30 7226 O 702.093 3.03837 2.62766 0
M  V30 7227 N 700.299 2.55713 1.38054 0
M  V30 7228 H 699.846 2.52962 0.4866 0
M  V30 7229 H 699.804 2.25264 2.19325 0
M  V30 7230 N 703.576 0.692616 1.41565 0
M  V30 7231 C 704.539 0.0344174 2.29174 0
M  V30 7232 C 705.539 -0.710961 1.44229 0
M  V30 7233 O 706.729 -0.546293 1.65412 0
M  V30 7234 C 703.861 -0.961682 3.27054 0
M  V30 7235 H 705.054 0.805755 2.88873 0
M  V30 7236 H 702.607 0.455947 1.49502 0
M  V30 7237 H 703.342 -1.76089 2.72329 0
M  V30 7238 H 703.127 -0.430375 3.89731 0
M  V30 7239 H 704.617 -1.4201 3.92712 0
M  V30 7240 N 705.054 -1.51416 0.437162 0
M  V30 7241 C 706.302 -2.01687 -0.129108 0
M  V30 7242 C 706.623 -1.32329 -1.43227 0
M  V30 7243 O 705.893 -0.457796 -1.90476 0
M  V30 7244 H 704.473 -0.745277 -0.0507023 0
M  V30 7245 H 707.135 -1.86075 0.579828 0
M  V30 7246 H 706.231 -3.10605 -0.305141 0
M  V30 7247 N 706.532 -0.168513 -1.56696 0
M  V30 7248 C 707.779 0.477158 -1.96798 0
M  V30 7249 C 708.107 1.63442 -1.05437 0
M  V30 7250 O 707.362 1.95503 -0.0878903 0
M  V30 7251 C 707.661 1.00441 -3.42996 0
M  V30 7252 C 707.327 -0.0366556 -4.50885 0
M  V30 7253 C 705.989 -0.322785 -4.80116 0
M  V30 7254 C 708.341 -0.743447 -5.1587 0
M  V30 7255 C 705.669 -1.32114 -5.71632 0
M  V30 7256 C 708.021 -1.73077 -6.08463 0
M  V30 7257 C 706.685 -2.02437 -6.36062 0
M  V30 7258 H 705.955 0.174604 -0.720135 0
M  V30 7259 H 708.602 -0.259884 -1.89728 0
M  V30 7260 H 706.907 1.81922 -3.47004 0
M  V30 7261 H 708.604 1.51294 -3.71364 0
M  V30 7262 H 705.194 0.196532 -4.28149 0
M  V30 7263 H 709.378 -0.535602 -4.93401 0
M  V30 7264 H 704.634 -1.55482 -5.913 0
M  V30 7265 H 708.808 -2.28382 -6.57886 0
M  V30 7266 H 706.435 -2.79946 -7.06777 0
M  V30 7267 N 708.01 1.57248 0.105221 0
M  V30 7268 C 709.235 1.90143 0.828264 0
M  V30 7269 C 709.66 0.761811 1.71983 0
M  V30 7270 O 709.018 -0.287086 1.79013 0
M  V30 7271 C 709.066 3.21856 1.62608 0
M  V30 7272 O 708.17 3.08732 2.7342 0
M  V30 7273 H 707.511 0.623558 0.228192 0
M  V30 7274 H 710.041 2.0443 0.0834826 0
M  V30 7275 H 710.051 3.54916 2.01243 0
M  V30 7276 H 708.726 4.0439 0.971687 0
M  V30 7277 H 707.303 2.87167 2.37886 0
M  V30 7278 N 709.488 -0.375779 1.53054 0
M  V30 7279 C 710.713 -1.14484 1.7294 0
M  V30 7280 C 711.138 -1.82572 0.452668 0
M  V30 7281 O 710.496 -1.71343 -0.592567 0
M  V30 7282 C 710.544 -2.15857 2.88857 0
M  V30 7283 O 709.648 -3.22725 2.56753 0
M  V30 7284 H 708.989 -0.332666 0.574656 0
M  V30 7285 H 711.519 -0.436025 1.999 0
M  V30 7286 H 711.529 -2.59631 3.14731 0
M  V30 7287 H 710.204 -1.65689 3.81471 0
M  V30 7288 H 708.781 -2.83996 2.41663 0
M  V30 7289 N 710.966 -1.44241 -0.634997 0
M  V30 7290 C 711.929 -1.50457 -1.72903 0
M  V30 7291 C 712.929 -0.387058 -1.56072 0
M  V30 7292 O 714.119 -0.649531 -1.61638 0
M  V30 7293 C 711.251 -1.37477 -3.1195 0
M  V30 7294 H 712.444 -2.47907 -1.68767 0
M  V30 7295 H 709.997 -1.31276 -0.84831 0
M  V30 7296 H 710.732 -0.41106 -3.21684 0
M  V30 7297 H 710.517 -2.18506 -3.25573 0
M  V30 7298 H 712.007 -1.44799 -3.91692 0
M  V30 7299 N 712.444 0.87505 -1.31075 0
M  V30 7300 C 713.374 1.99775 -1.20881 0
M  V30 7301 C 714.355 1.69822 -0.0971612 0
M  V30 7302 O 715.54 1.92158 -0.280895 0
M  V30 7303 C 712.67 3.35163 -0.910118 0
M  V30 7304 C 711.624 3.79406 -1.98078 0
M  V30 7305 C 710.95 5.12197 -1.53488 0
M  V30 7306 C 712.25 3.97061 -3.39323 0
M  V30 7307 H 713.944 2.08562 -2.14808 0
M  V30 7308 H 711.49 1.00207 -1.03415 0
M  V30 7309 H 713.443 4.13237 -0.825423 0
M  V30 7310 H 712.167 3.26536 0.064822 0
M  V30 7311 H 710.826 3.03568 -2.05528 0
M  V30 7312 H 710.474 5.00007 -0.547941 0
M  V30 7313 H 710.174 5.4277 -2.2511 0
M  V30 7314 H 711.698 5.92785 -1.46417 0
M  V30 7315 H 713.112 4.65545 -3.34576 0
M  V30 7316 H 711.509 4.39025 -4.09118 0
M  V30 7317 H 712.579 3.00601 -3.80483 0
M  V30 7318 N 713.922 1.13953 1.08869 0
M  V30 7319 C 714.885 0.824991 2.13838 0
M  V30 7320 C 715.885 -0.168198 1.59918 0
M  V30 7321 O 717.075 0.0595778 1.74098 0
M  V30 7322 C 714.207 0.228938 3.4013 0
M  V30 7323 H 715.4 1.75521 2.43171 0
M  V30 7324 H 712.953 0.94492 1.24503 0
M  V30 7325 H 713.688 -0.710227 3.16427 0
M  V30 7326 H 713.473 0.944243 3.80561 0
M  V30 7327 H 714.963 0.0259223 4.17592 0
M  V30 7328 N 715.4 -1.26948 0.933913 0
M  V30 7329 C 716.333 -2.24977 0.382169 0
M  V30 7330 C 717.311 -1.53893 -0.524949 0
M  V30 7331 O 718.495 -1.82699 -0.464048 0
M  V30 7332 C 715.622 -3.35676 -0.451615 0
M  V30 7333 C 714.668 -4.24686 0.392947 0
M  V30 7334 S 715.501 -5.03898 1.81237 0
M  V30 7335 C 716.657 -6.18078 0.986443 0
M  V30 7336 H 716.89 -2.71429 1.21299 0
M  V30 7337 H 714.423 -1.35701 0.736523 0
M  V30 7338 H 716.381 -3.99901 -0.926797 0
M  V30 7339 H 715.042 -2.8785 -1.25703 0
M  V30 7340 H 714.235 -5.03402 -0.245533 0
M  V30 7341 H 713.837 -3.65288 0.802537 0
M  V30 7342 H 716.129 -6.77125 0.225321 0
M  V30 7343 H 717.072 -6.86216 1.74682 0
M  V30 7344 H 717.48 -5.62047 0.525711 0
M  V30 7345 N 716.879 -0.700114 -1.41195 0
M  V30 7346 C 717.809 -0.0521132 -2.33442 0
M  V30 7347 C 718.79 0.76228 -1.52063 0
M  V30 7348 O 719.975 0.714336 -1.80585 0
M  V30 7349 C 717.105 0.881693 -3.35922 0
M  V30 7350 C 716.059 0.174062 -4.27646 0
M  V30 7351 C 715.385 1.22254 -5.20536 0
M  V30 7352 C 716.685 -0.962396 -5.13357 0
M  V30 7353 H 718.379 -0.822574 -2.87879 0
M  V30 7354 H 715.925 -0.397011 -1.38419 0
M  V30 7355 H 717.878 1.34429 -3.99383 0
M  V30 7356 H 716.602 1.68387 -2.79845 0
M  V30 7357 H 715.261 -0.268551 -3.65615 0
M  V30 7358 H 714.909 2.01736 -4.60773 0
M  V30 7359 H 714.609 0.754038 -5.82742 0
M  V30 7360 H 716.133 1.68555 -5.86874 0
M  V30 7361 H 717.547 -0.579875 -5.7036 0
M  V30 7362 H 715.944 -1.35828 -5.84526 0
M  V30 7363 H 717.014 -1.80003 -4.50252 0
M  V30 7364 N 718.357 1.51182 -0.445186 0
M  V30 7365 C 719.603 2.02452 0.11882 0
M  V30 7366 C 719.936 1.32824 1.41673 0
M  V30 7367 O 719.211 0.445637 1.89326 0
M  V30 7368 C 719.494 3.5859 0.329475 0
M  V30 7369 C 719.347 4.38823 -0.987638 0
M  V30 7370 C 720.666 4.26241 1.09575 0
M  V30 7371 H 717.785 0.735819 0.0417092 0
M  V30 7372 H 720.427 1.80747 -0.585718 0
M  V30 7373 H 718.577 3.77214 0.9296 0
M  V30 7374 H 720.249 4.3183 -1.62235 0
M  V30 7375 H 718.492 4.03594 -1.59041 0
M  V30 7376 H 719.163 5.46257 -0.794192 0
M  V30 7377 H 721.639 4.11934 0.587328 0
M  V30 7378 H 720.515 5.35354 1.21191 0
M  V30 7379 H 720.776 3.87635 2.12584 0
M  V30 7380 N 719.835 0.176821 1.56605 0
M  V30 7381 C 720.745 -0.763682 2.21822 0
M  V30 7382 C 721.761 -1.24889 1.21156 0
M  V30 7383 O 722.937 -1.29987 1.53836 0
M  V30 7384 C 720.002 -1.97352 2.8505 0
M  V30 7385 C 719.063 -1.53466 4.00932 0
M  V30 7386 C 718.296 -2.68682 4.61135 0
M  V30 7387 O 718.519 -3.85694 4.20234 0
M  V30 7388 O 717.453 -2.42442 5.50913 0
M  V30 7389 H 721.279 -0.238363 3.02763 0
M  V30 7390 H 718.864 -0.0516331 1.49311 0
M  V30 7391 H 720.746 -2.68096 3.25119 0
M  V30 7392 H 719.421 -2.48779 2.07101 0
M  V30 7393 H 718.328 -0.796551 3.65521 0
M  V30 7394 H 719.661 -1.06724 4.8049 0
M  V30 7395 N 721.313 -1.57302 -0.09688 0
M  V30 7396 C 722.223 -2.05258 -1.13606 0
M  V30 7397 C 723.239 -0.977137 -1.43972 0
M  V30 7398 O 724.415 -1.29018 -1.54649 0
M  V30 7399 C 721.48 -2.46593 -2.43706 0
M  V30 7400 C 720.541 -3.68322 -2.20538 0
M  V30 7401 C 719.774 -4.07676 -3.44435 0
M  V30 7402 O 719.997 -3.47141 -4.52603 0
M  V30 7403 O 718.931 -5.00641 -3.34129 0
M  V30 7404 H 722.757 -2.94069 -0.758752 0
M  V30 7405 H 720.342 -1.46164 -0.309263 0
M  V30 7406 H 722.224 -2.73814 -3.20318 0
M  V30 7407 H 720.899 -1.6092 -2.80867 0
M  V30 7408 H 719.806 -3.4622 -1.41713 0
M  V30 7409 H 721.139 -4.54769 -1.88271 0
M  V30 7410 N 722.791 0.367657 -1.53252 0
M  V30 7411 C 724.021 1.12955 -1.72988 0
M  V30 7412 C 724.429 1.8358 -0.457708 0
M  V30 7413 O 723.772 1.74336 0.579006 0
M  V30 7414 C 723.834 2.20545 -2.83902 0
M  V30 7415 C 723.498 1.69704 -4.24323 0
M  V30 7416 C 724.495 1.16223 -5.06743 0
M  V30 7417 C 722.18 1.7528 -4.70725 0
M  V30 7418 C 724.174 0.689935 -6.33655 0
M  V30 7419 C 721.861 1.27662 -5.97617 0
M  V30 7420 C 722.859 0.746083 -6.78913 0
M  V30 7421 O 722.547 0.276925 -8.03423 0
M  V30 7422 H 722.279 0.343753 -0.582074 0
M  V30 7423 H 724.833 0.433106 -2.00782 0
M  V30 7424 H 723.063 2.93676 -2.51577 0
M  V30 7425 H 724.752 2.82111 -2.91836 0
M  V30 7426 H 725.518 1.11256 -4.72067 0
M  V30 7427 H 721.397 2.15515 -4.07522 0
M  V30 7428 H 724.941 0.275164 -6.97057 0
M  V30 7429 H 720.838 1.32322 -6.31792 0
M  V30 7430 H 721.606 0.396445 -8.17539 0
M  V30 7431 N 724.269 1.44576 0.627338 0
M  V30 7432 C 725.517 1.47267 1.38408 0
M  V30 7433 C 725.838 0.107971 1.94701 0
M  V30 7434 O 725.108 -0.860206 1.76004 0
M  V30 7435 H 723.688 0.542276 0.513756 0
M  V30 7436 H 726.35 1.80383 0.738099 0
M  V30 7437 H 725.446 2.20025 2.21349 0
M  V30 7438 N 725.747 -0.868086 1.31537 0
M  V30 7439 C 726.995 -1.61807 1.21091 0
M  V30 7440 C 727.316 -1.93631 -0.230623 0
M  V30 7441 O 726.586 -1.5846 -1.15183 0
M  V30 7442 H 725.166 -0.599854 0.445178 0
M  V30 7443 H 727.828 -1.03915 1.64887 0
M  V30 7444 H 726.924 -2.56088 1.78396 0
M  V30 7445 N 727.225 -1.14528 -1.08264 0
M  V30 7446 C 728.453 -0.937964 -1.84418 0
M  V30 7447 C 728.868 0.51357 -1.81681 0
M  V30 7448 O 728.225 1.35591 -1.22153 0
M  V30 7449 C 728.276 -1.43272 -3.31897 0
M  V30 7450 O 727.997 -2.82738 -3.34651 0
M  V30 7451 C 729.498 -1.26555 -4.24851 0
M  V30 7452 H 726.718 -0.333704 -0.582136 0
M  V30 7453 H 729.262 -1.52076 -1.36723 0
M  V30 7454 H 727.417 -0.892653 -3.76975 0
M  V30 7455 H 727.831 -3.04971 -4.26724 0
M  V30 7456 H 729.305 -1.66031 -5.26439 0
M  V30 7457 H 729.782 -0.208589 -4.38704 0
M  V30 7458 H 730.388 -1.79423 -3.856 0
M  V30 7459 N 728.703 1.26451 -0.940633 0
M  V30 7460 C 730.114 1.75726 -0.630653 0
M  V30 7461 C 730.465 1.76631 0.854167 0
M  V30 7462 O 729.59 1.37807 1.66848 0
M  V30 7463 C 730.185 3.19114 -1.13805 0
M  V30 7464 C 728.744 3.66005 -0.878497 0
M  V30 7465 C 727.891 2.45505 -1.28928 0
M  V30 7466 H 730.842 1.12535 -1.119 0
M  V30 7467 H 730.863 3.77311 -0.491625 0
M  V30 7468 H 730.375 3.18424 -2.21874 0
M  V30 7469 H 728.476 3.72126 0.187833 0
M  V30 7470 H 728.589 4.54844 -1.50512 0
M  V30 7471 H 726.953 2.4467 -0.707713 0
M  V30 7472 H 727.736 2.47516 -2.37888 0
M  V30 7473 N 730.181 0.707592 1.40822 0
M  V30 7474 C 731.111 0.0644925 2.33411 0
M  V30 7475 C 732.092 -0.754205 1.52466 0
M  V30 7476 O 733.277 -0.704749 1.80961 0
M  V30 7477 C 730.407 -0.863865 3.36385 0
M  V30 7478 C 729.361 -0.15138 4.27732 0
M  V30 7479 C 728.687 -1.19491 5.21177 0
M  V30 7480 C 729.987 0.989607 5.12839 0
M  V30 7481 H 731.681 0.837829 2.87438 0
M  V30 7482 H 729.227 0.404346 1.38207 0
M  V30 7483 H 731.18 -1.32309 4.0009 0
M  V30 7484 H 729.904 -1.66901 2.80734 0
M  V30 7485 H 728.563 0.287937 3.65467 0
M  V30 7486 H 728.211 -1.9929 4.61836 0
M  V30 7487 H 727.911 -0.723123 5.83134 0
M  V30 7488 H 729.435 -1.6544 5.8776 0
M  V30 7489 H 730.849 0.610114 5.70044 0
M  V30 7490 H 729.246 1.38926 5.83798 0
M  V30 7491 H 730.316 1.82389 4.49291 0
M  V30 7492 N 731.66 -1.50943 0.453197 0
M  V30 7493 C 732.623 -2.26684 -0.338705 0
M  V30 7494 C 733.623 -1.30748 -0.936032 0
M  V30 7495 O 734.813 -1.54327 -0.808002 0
M  V30 7496 C 731.945 -3.07063 -1.48071 0
M  V30 7497 H 733.138 -2.98131 0.325289 0
M  V30 7498 H 730.691 -1.54926 0.206771 0
M  V30 7499 H 731.426 -2.4007 -2.18029 0
M  V30 7500 H 731.211 -3.77545 -1.0584 0
M  V30 7501 H 732.701 -3.64393 -2.0398 0
M  V30 7502 N 733.138 -0.185124 -1.56509 0
M  V30 7503 C 734.415 0.503348 -1.89013 0
M  V30 7504 C 734.795 1.80349 -1.09715 0
M  V30 7505 O 734.143 2.27665 -0.195203 0
M  V30 7506 C 734.353 0.731839 -3.41241 0
M  V30 7507 C 735.701 1.05568 -4.11267 0
M  V30 7508 O 736.725 0.819906 -3.46635 0
M  V30 7509 O 735.584 1.50116 -5.25478 0
M  V30 7510 H 732.678 0.261139 -0.784688 0
M  V30 7511 H 735.224 -0.224592 -1.68207 0
M  V30 7512 H 733.996 -0.18672 -3.90854 0
M  V30 7513 H 733.619 1.5126 -3.67704 0
M  V30 7514 N 734.616 1.57351 0.0885366 0
M  V30 7515 C 735.863 1.86419 0.790824 0
M  V30 7516 C 736.191 0.774561 1.78412 0
M  V30 7517 O 735.446 -0.23119 1.9433 0
M  V30 7518 C 735.745 3.22098 1.5488 0
M  V30 7519 C 735.411 4.4548 0.697025 0
M  V30 7520 C 734.073 4.78975 0.462237 0
M  V30 7521 C 736.425 5.21094 0.105315 0
M  V30 7522 C 733.753 5.85507 -0.374016 0
M  V30 7523 C 736.105 6.28509 -0.718298 0
M  V30 7524 C 734.769 6.60515 -0.963116 0
M  V30 7525 H 734.039 0.682157 0.289383 0
M  V30 7526 H 736.686 1.91429 0.0520961 0
M  V30 7527 H 734.991 3.12803 2.35927 0
M  V30 7528 H 736.688 3.41819 2.09669 0
M  V30 7529 H 733.278 4.19255 0.890137 0
M  V30 7530 H 737.462 4.95544 0.273856 0
M  V30 7531 H 732.718 6.08713 -0.572606 0
M  V30 7532 H 736.892 6.86268 -1.18362 0
M  V30 7533 H 734.519 7.42893 -1.6129 0
M  V30 7534 N 736.094 -0.359525 1.53444 0
M  V30 7535 C 737.505 -0.936009 1.61542 0
M  V30 7536 C 737.856 -1.90069 0.486633 0
M  V30 7537 O 736.981 -2.12929 -0.386047 0
M  V30 7538 C 737.576 -1.70441 2.92806 0
M  V30 7539 C 736.135 -2.23015 3.03218 0
M  V30 7540 C 735.282 -1.04438 2.56881 0
M  V30 7541 H 738.233 -0.138134 1.58098 0
M  V30 7542 H 738.254 -2.56609 2.80948 0
M  V30 7543 H 737.766 -1.00205 3.74941 0
M  V30 7544 H 735.867 -2.96475 2.25684 0
M  V30 7545 H 735.98 -2.50481 4.08407 0
M  V30 7546 H 734.344 -1.41314 2.11902 0
M  V30 7547 H 735.127 -0.356905 3.4144 0
M  V30 7548 N 737.572 -1.44907 -0.619662 0
M  V30 7549 C 738.983 -1.42905 -1.20146 0
M  V30 7550 C 739.334 -0.150341 -1.95623 0
M  V30 7551 O 738.459 0.748732 -2.03034 0
M  V30 7552 C 739.054 -2.58889 -2.18545 0
M  V30 7553 C 737.613 -2.60046 -2.72127 0
M  V30 7554 C 736.76 -2.3493 -1.4732 0
M  V30 7555 H 739.711 -1.53321 -0.409666 0
M  V30 7556 H 739.732 -2.32298 -3.0136 0
M  V30 7557 H 739.244 -3.51941 -1.63583 0
M  V30 7558 H 737.345 -1.70968 -3.3106 0
M  V30 7559 H 737.458 -3.58893 -3.17384 0
M  V30 7560 H 735.822 -1.84248 -1.75855 0
M  V30 7561 H 736.605 -3.3011 -0.942442 0
M  V30 7562 N 739.05 0.861098 -1.31996 0
M  V30 7563 C 740.278 1.6474 -1.25173 0
M  V30 7564 C 740.693 1.87926 0.181425 0
M  V30 7565 O 740.05 1.4437 1.1164 0
M  V30 7566 C 740.101 3.01036 -2.0015 0
M  V30 7567 O 739.822 2.7888 -3.37872 0
M  V30 7568 C 741.323 3.95481 -2.00273 0
M  V30 7569 H 738.543 0.513314 -0.432146 0
M  V30 7570 H 741.087 1.07419 -1.74016 0
M  V30 7571 H 739.242 3.55021 -1.55046 0
M  V30 7572 H 739.656 3.65514 -3.76165 0
M  V30 7573 H 741.13 4.88403 -2.57229 0
M  V30 7574 H 741.607 4.27957 -0.987407 0
M  V30 7575 H 742.213 3.47433 -2.45296 0
M  V30 7576 N 740.528 1.15101 1.07655 0
M  V30 7577 C 741.438 0.858869 2.18313 0
M  V30 7578 C 742.454 -0.163641 1.73229 0
M  V30 7579 O 743.63 0.00969541 2.01398 0
M  V30 7580 C 740.695 0.34893 3.4494 0
M  V30 7581 C 739.756 1.43495 4.04608 0
M  V30 7582 C 738.989 0.949253 5.2519 0
M  V30 7583 O 739.212 -0.20636 5.70027 0
M  V30 7584 O 738.146 1.73161 5.76454 0
M  V30 7585 H 741.972 1.78386 2.45788 0
M  V30 7586 H 739.557 0.929876 1.16934 0
M  V30 7587 H 741.439 0.070851 4.2134 0
M  V30 7588 H 740.114 -0.548237 3.19024 0
M  V30 7589 H 739.021 1.7666 3.29761 0
M  V30 7590 H 740.354 2.30692 4.3479 0
M  V30 7591 N 742.006 -1.2595 0.947325 0
M  V30 7592 C 742.916 -2.29883 0.468079 0
M  V30 7593 C 743.932 -1.67783 -0.460975 0
M  V30 7594 O 745.108 -1.98526 -0.339006 0
M  V30 7595 C 742.173 -3.45773 -0.253315 0
M  V30 7596 C 741.234 -4.23337 0.713054 0
M  V30 7597 C 740.467 -5.33694 0.025993 0
M  V30 7598 O 740.69 -5.57853 -1.18978 0
M  V30 7599 O 739.624 -5.97724 0.70782 0
M  V30 7600 H 743.45 -2.72952 1.33156 0
M  V30 7601 H 741.035 -1.31263 0.713468 0
M  V30 7602 H 742.917 -4.16209 -0.659423 0
M  V30 7603 H 741.592 -3.04721 -1.09209 0
M  V30 7604 H 740.499 -3.55359 1.16923 0
M  V30 7605 H 741.832 -4.68154 1.51963 0
M  V30 7606 N 743.484 -0.715051 -1.40445 0
M  V30 7607 C 744.895 -0.326763 -1.83818 0
M  V30 7608 C 745.246 1.13851 -1.59789 0
M  V30 7609 O 744.371 1.87611 -1.07848 0
M  V30 7610 C 744.966 -0.586297 -3.33688 0
M  V30 7611 C 743.525 -0.251724 -3.75557 0
M  V30 7612 C 742.672 -0.858928 -2.63662 0
M  V30 7613 H 745.623 -0.914241 -1.2972 0
M  V30 7614 H 745.644 0.148636 -3.8021 0
M  V30 7615 H 745.156 -1.65281 -3.51146 0
M  V30 7616 H 743.257 0.809754 -3.63695 0
M  V30 7617 H 743.37 -0.720348 -4.73654 0
M  V30 7618 H 741.734 -0.287013 -2.53078 0
M  V30 7619 H 742.517 -1.9297 -2.83932 0
M  V30 7620 N 744.962 1.50701 -0.461195 0
M  V30 7621 C 746.239 1.94958 0.158296 0
M  V30 7622 C 746.619 1.40111 1.57899 0
M  V30 7623 O 745.967 0.597976 2.20537 0
M  V30 7624 C 746.177 3.48821 0.11172 0
M  V30 7625 C 747.525 4.23499 0.30552 0
M  V30 7626 O 748.549 3.557 0.188758 0
M  V30 7627 O 747.408 5.43823 0.540244 0
M  V30 7628 H 744.502 0.818674 0.117054 0
M  V30 7629 H 747.048 1.61508 -0.520888 0
M  V30 7630 H 745.82 3.81263 -0.880577 0
M  V30 7631 H 745.443 3.88781 0.832791 0
M  V30 7632 N 746.441 0.193421 1.56409 0
M  V30 7633 C 747.689 -0.444908 1.97142 0
M  V30 7634 C 748.01 -1.62268 1.08139 0
M  V30 7635 O 747.28 -1.95307 0.152326 0
M  V30 7636 H 745.86 -0.16736 0.728011 0
M  V30 7637 H 748.522 0.279763 1.92882 0
M  V30 7638 H 747.618 -0.790159 3.01932 0
M  V30 7639 N 747.919 -1.57396 -0.0801906 0
M  V30 7640 C 749.33 -1.75642 -0.633002 0
M  V30 7641 C 749.681 -0.817708 -1.78348 0
M  V30 7642 O 748.806 0.000233743 -2.164 0
M  V30 7643 C 749.401 -3.18502 -1.15507 0
M  V30 7644 C 747.96 -3.38121 -1.65381 0
M  V30 7645 C 747.107 -2.71386 -0.569661 0
M  V30 7646 H 750.058 -1.58027 0.145949 0
M  V30 7647 H 750.079 -3.22198 -2.02408 0
M  V30 7648 H 749.591 -3.86799 -0.317515 0
M  V30 7649 H 747.692 -2.74926 -2.51488 0
M  V30 7650 H 747.805 -4.46521 -1.73654 0
M  V30 7651 H 746.169 -2.33702 -1.0127 0
M  V30 7652 H 746.952 -3.42332 0.257561 0
M  V30 7653 N 749.397 0.351382 -1.53633 0
M  V30 7654 C 750.307 1.45471 -1.84052 0
M  V30 7655 C 751.323 1.57945 -0.730015 0
M  V30 7656 O 752.499 1.73571 -1.02153 0
M  V30 7657 C 749.564 2.80562 -2.03681 0
M  V30 7658 C 748.625 2.77497 -3.27558 0
M  V30 7659 C 747.858 4.06144 -3.46241 0
M  V30 7660 O 748.081 5.03028 -2.68922 0
M  V30 7661 O 747.015 4.11092 -4.39645 0
M  V30 7662 H 750.841 1.22684 -2.77817 0
M  V30 7663 H 748.426 0.542827 -1.3919 0
M  V30 7664 H 750.308 3.6058 -2.18082 0
M  V30 7665 H 748.983 3.03296 -1.13106 0
M  V30 7666 H 747.89 1.96126 -3.18568 0
M  V30 7667 H 749.223 2.59716 -4.18101 0
M  V30 7668 N 750.875 1.45233 0.611969 0
M  V30 7669 C 752.124 1.48296 1.36716 0
M  V30 7670 C 752.437 0.12706 1.95187 0
M  V30 7671 O 753.643 0.0353066 2.71477 0
M  V30 7672 C 752.099 2.61168 2.47627 0
M  V30 7673 C 751.707 4.03051 1.95587 0
M  V30 7674 C 753.451 2.73472 3.24674 0
M  V30 7675 C 751.358 5.07312 3.03954 0
M  V30 7676 H 750.288 0.5518 0.513841 0
M  V30 7677 H 752.939 1.7136 0.656359 0
M  V30 7678 H 751.321 2.31379 3.21372 0
M  V30 7679 H 752.495 4.42497 1.2858 0
M  V30 7680 H 750.81 3.95158 1.31298 0
M  V30 7681 H 753.407 3.48537 4.05494 0
M  V30 7682 H 753.75 1.79953 3.75397 0
M  V30 7683 H 754.283 3.02765 2.58028 0
M  V30 7684 H 751.022 6.02525 2.58154 0
M  V30 7685 H 750.542 4.7244 3.69541 0
M  V30 7686 H 752.221 5.31867 3.6841 0
M  V30 7687 N 752.353 -0.854086 1.3245 0
M  V30 7688 C 753.6 -1.60831 1.23043 0
M  V30 7689 C 753.928 -1.93389 -0.2076 0
M  V30 7690 O 753.183 -1.5756 -1.16075 0
M  V30 7691 C 753.482 -2.93746 2.03587 0
M  V30 7692 C 753.148 -2.80615 3.52939 0
M  V30 7693 C 751.81 -2.76742 3.93659 0
M  V30 7694 C 754.162 -2.66507 4.4791 0
M  V30 7695 C 751.49 -2.56638 5.27592 0
M  V30 7696 C 753.842 -2.47939 5.81987 0
M  V30 7697 C 752.506 -2.42458 6.21909 0
M  V30 7698 H 751.776 -0.588523 0.450247 0
M  V30 7699 H 754.423 -0.990699 1.63882 0
M  V30 7700 H 752.728 -3.5963 1.55478 0
M  V30 7701 H 754.425 -3.51127 1.93677 0
M  V30 7702 H 751.015 -2.84456 3.20598 0
M  V30 7703 H 755.199 -2.68544 4.1737 0
M  V30 7704 H 750.455 -2.50831 5.57579 0
M  V30 7705 H 754.629 -2.36002 6.55192 0
M  V30 7706 H 752.256 -2.2664 7.2563 0
M  V30 7707 N 753.831 -1.1567 -1.07043 0
M  V30 7708 C 755.077 -0.9349 -1.79965 0
M  V30 7709 C 755.41 0.536464 -1.86643 0
M  V30 7710 O 754.685 1.39781 -1.35247 0
M  V30 7711 C 754.968 -1.55371 -3.24857 0
M  V30 7712 C 754.821 -3.09589 -3.26305 0
M  V30 7713 C 756.14 -1.24209 -4.22209 0
M  V30 7714 H 753.259 -0.341061 -0.653335 0
M  V30 7715 H 755.901 -1.42883 -1.25237 0
M  V30 7716 H 754.051 -1.13368 -3.71591 0
M  V30 7717 H 755.723 -3.60521 -2.87789 0
M  V30 7718 H 753.966 -3.43315 -2.65174 0
M  V30 7719 H 754.637 -3.48002 -4.28484 0
M  V30 7720 H 757.113 -1.60548 -3.8388 0
M  V30 7721 H 755.989 -1.70119 -5.21872 0
M  V30 7722 H 756.25 -0.15964 -4.41812 0
M  V30 7723 N 755.309 1.25446 -0.953992 0
M  V30 7724 C 756.219 2.29632 -0.480264 0
M  V30 7725 C 757.235 1.68025 0.452071 0
M  V30 7726 O 758.411 1.98703 0.328472 0
M  V30 7727 C 755.476 3.45903 0.234974 0
M  V30 7728 C 754.537 4.22953 -0.735495 0
M  V30 7729 C 753.77 5.33672 -0.0542957 0
M  V30 7730 O 753.993 5.58477 1.16018 0
M  V30 7731 O 752.927 5.9734 -0.739509 0
M  V30 7732 H 756.753 2.72242 -1.34602 0
M  V30 7733 H 754.338 1.30883 -0.720419 0
M  V30 7734 H 756.22 4.16552 0.637341 0
M  V30 7735 H 754.895 3.05296 1.07592 0
M  V30 7736 H 753.802 3.54734 -1.18806 0
M  V30 7737 H 755.135 4.67341 -1.54444 0
M  V30 7738 N 756.787 0.722489 1.40064 0
M  V30 7739 C 757.75 0.0830209 2.2905 0
M  V30 7740 C 758.75 -0.680208 1.45705 0
M  V30 7741 O 759.94 -0.511084 1.66534 0
M  V30 7742 C 757.072 -0.892092 3.29021 0
M  V30 7743 H 758.265 0.866848 2.87099 0
M  V30 7744 H 755.818 0.487556 1.48501 0
M  V30 7745 H 756.553 -1.70273 2.76003 0
M  V30 7746 H 756.338 -0.34761 3.90556 0
M  V30 7747 H 757.828 -1.33648 3.95636 0
M  V30 7748 N 758.265 -1.50454 0.469181 0
M  V30 7749 C 759.197 -2.26319 -0.362247 0
M  V30 7750 C 760.21 -1.31574 -0.958751 0
M  V30 7751 O 761.399 -1.57099 -0.847482 0
M  V30 7752 C 758.499 -3.02808 -1.52187 0
M  V30 7753 C 757.672 -4.24893 -1.03849 0
M  V30 7754 C 756.731 -4.83691 -2.07194 0
M  V30 7755 O 755.757 -5.44659 -1.65333 0
M  V30 7756 N 756.959 -4.70522 -3.39985 0
M  V30 7757 H 759.724 -2.98312 0.288124 0
M  V30 7758 H 757.285 -1.59099 0.299856 0
M  V30 7759 H 759.277 -3.39023 -2.21011 0
M  V30 7760 H 757.847 -2.33625 -2.07697 0
M  V30 7761 H 757.067 -3.93806 -0.176203 0
M  V30 7762 H 758.355 -5.04053 -0.693435 0
M  V30 7763 H 757.753 -4.2203 -3.76706 0
M  V30 7764 H 756.31 -5.11011 -4.04612 0
M  V30 7765 N 759.743 -0.201713 -1.56304 0
M  V30 7766 C 760.992 0.435557 -1.96941 0
M  V30 7767 C 761.305 1.62299 -1.09172 0
M  V30 7768 O 762.511 2.32849 -1.3962 0
M  V30 7769 C 760.967 0.826298 -3.50286 0
M  V30 7770 C 760.575 -0.337216 -4.46729 0
M  V30 7771 C 762.319 1.43028 -3.99679 0
M  V30 7772 C 760.226 0.0748539 -5.91353 0
M  V30 7773 H 759.156 0.1665 -0.735387 0
M  V30 7774 H 761.807 -0.294781 -1.81117 0
M  V30 7775 H 760.189 1.61349 -3.61639 0
M  V30 7776 H 761.363 -1.11476 -4.47113 0
M  V30 7777 H 759.678 -0.853126 -4.07567 0
M  V30 7778 H 762.275 1.75115 -5.05212 0
M  V30 7779 H 762.618 2.33911 -3.44371 0
M  V30 7780 H 763.151 0.706924 -3.91468 0
M  V30 7781 H 759.89 -0.799957 -6.506 0
M  V30 7782 H 759.41 0.817122 -5.94208 0
M  V30 7783 H 761.089 0.508389 -6.45 0
M  V30 7784 N 761.222 1.57436 0.0718424 0
M  V30 7785 C 762.17 2.04725 1.10411 0
M  V30 7786 C 763.164 0.952579 1.4008 0
M  V30 7787 O 764.37 1.13769 1.39487 0
M  V30 7788 H 760.745 0.652749 0.373393 0
M  V30 7789 H 762.716 2.90569 0.679126 0
M  V30 7790 C 761.465 2.5068 2.40946 0
M  V30 7791 H 760.788 3.34505 2.18967 0
M  V30 7792 H 762.228 2.87521 3.11621 0
M  V30 7793 C 760.687 1.38971 3.06902 0
M  V30 7794 O 761.217 0.731786 3.94978 0
M  V30 7795 N 759.423 1.13485 2.67525 0
M  V30 7796 H 758.97 1.67168 1.95991 0
M  V30 7797 H 758.928 0.389467 3.11978 0
M  V30 7798 N 762.7 -0.34323 1.53817 0
M  V30 7799 C 763.928 -1.10348 1.75017 0
M  V30 7800 C 764.343 -1.82345 0.489475 0
M  V30 7801 O 763.7 -1.74362 -0.538886 0
M  V30 7802 C 763.751 -2.11672 2.93048 0
M  V30 7803 O 763.472 -1.42603 4.14241 0
M  V30 7804 C 764.973 -3.0007 3.26301 0
M  V30 7805 H 762.193 -0.329056 0.584776 0
M  V30 7806 H 764.737 -0.395339 2.00642 0
M  V30 7807 H 762.892 -2.78051 2.69753 0
M  V30 7808 H 763.306 -2.10294 4.80496 0
M  V30 7809 H 764.78 -3.67101 4.12239 0
M  V30 7810 H 765.257 -3.66105 2.42618 0
M  V30 7811 H 765.863 -2.3928 3.51604 0
M  V30 7812 N 764.178 -1.45556 -0.604258 0
M  V30 7813 C 765.589 -1.44171 -1.18624 0
M  V30 7814 C 765.94 -0.171081 -1.95453 0
M  V30 7815 O 765.065 0.727156 -2.03817 0
M  V30 7816 C 765.66 -2.61193 -2.15786 0
M  V30 7817 C 764.219 -2.62918 -2.69353 0
M  V30 7818 C 763.366 -2.36479 -1.4482 0
M  V30 7819 H 766.317 -1.53747 -0.393381 0
M  V30 7820 H 766.338 -2.35481 -2.98879 0
M  V30 7821 H 765.85 -3.53656 -1.59841 0
M  V30 7822 H 763.951 -1.7447 -3.29228 0
M  V30 7823 H 764.064 -3.6224 -3.13559 0
M  V30 7824 H 762.428 -1.86103 -1.73891 0
M  V30 7825 H 763.211 -3.31091 -0.907376 0
M  V30 7826 N 765.656 0.84705 -1.32902 0
M  V30 7827 C 766.904 1.5986 -1.2365 0
M  V30 7828 C 767.225 1.93974 0.199789 0
M  V30 7829 O 766.495 1.60273 1.12648 0
M  V30 7830 H 765.075 0.592696 -0.454665 0
M  V30 7831 H 767.737 1.01278 -1.66519 0
M  V30 7832 H 766.833 2.53218 -1.82448 0
M  V30 7833 N 767.134 1.16236 1.06428 0
M  V30 7834 C 768.362 0.967184 1.82902 0
M  V30 7835 C 768.777 -0.484601 1.82475 0
M  V30 7836 O 768.134 -1.33631 1.24294 0
M  V30 7837 C 768.185 1.48534 3.29576 0
M  V30 7838 O 767.906 2.88026 3.3011 0
M  V30 7839 C 769.407 1.33298 4.22784 0
M  V30 7840 H 766.627 0.342923 0.576754 0
M  V30 7841 H 769.171 1.54232 1.34286 0
M  V30 7842 H 767.326 0.952513 3.75508 0
M  V30 7843 H 767.74 3.11721 4.21818 0
M  V30 7844 H 769.214 1.74385 5.23731 0
M  V30 7845 H 769.691 0.278356 4.38317 0
M  V30 7846 H 770.297 1.85535 3.82697 0
M  V30 7847 N 768.612 -1.24939 0.960631 0
M  V30 7848 C 769.84 -1.96881 0.636045 0
M  V30 7849 C 770.255 -1.71334 -0.793093 0
M  V30 7850 O 769.612 -0.992917 -1.53125 0
M  V30 7851 C 769.663 -3.50309 0.892533 0
M  V30 7852 O 769.384 -3.74977 2.26548 0
M  V30 7853 C 770.885 -4.39474 0.581159 0
M  V30 7854 H 768.105 -0.627399 0.237931 0
M  V30 7855 H 770.649 -1.58952 1.28664 0
M  V30 7856 H 768.804 -3.86326 0.288257 0
M  V30 7857 H 769.218 -4.69401 2.34014 0
M  V30 7858 H 770.692 -5.46008 0.811125 0
M  V30 7859 H 771.169 -4.3652 -0.48443 0
M  V30 7860 H 771.775 -4.09032 1.16502 0
M  V30 7861 N 770.09 -0.729906 -1.39679 0
M  V30 7862 C 771.337 -0.275622 -2.00615 0
M  V30 7863 C 771.665 1.13559 -1.57907 0
M  V30 7864 O 770.92 1.78745 -0.796789 0
M  V30 7865 C 771.219 -0.319564 -3.55968 0
M  V30 7866 C 770.885 -1.68308 -4.1831 0
M  V30 7867 C 769.547 -2.05629 -4.35052 0
M  V30 7868 C 771.899 -2.57857 -4.52945 0
M  V30 7869 C 769.227 -3.32018 -4.83716 0
M  V30 7870 C 771.579 -3.83613 -5.03015 0
M  V30 7871 C 770.243 -4.21033 -5.17965 0
M  V30 7872 H 769.513 -0.100857 -0.734104 0
M  V30 7873 H 772.16 -0.93575 -1.67081 0
M  V30 7874 H 770.465 0.42414 -3.89497 0
M  V30 7875 H 772.162 0.0499905 -4.00969 0
M  V30 7876 H 768.752 -1.3829 -4.05677 0
M  V30 7877 H 772.936 -2.30295 -4.39634 0
M  V30 7878 H 768.192 -3.6096 -4.93475 0
M  V30 7879 H 772.366 -4.53162 -5.28788 0
M  V30 7880 H 769.993 -5.19034 -5.55435 0
M  V30 7881 N 771.568 1.50203 -0.477153 0
M  V30 7882 C 772.796 2.0677 0.0732489 0
M  V30 7883 C 773.211 1.34033 1.32968 0
M  V30 7884 O 772.568 0.411412 1.77802 0
M  V30 7885 C 772.619 3.59751 0.35518 0
M  V30 7886 O 772.34 4.29747 -0.851425 0
M  V30 7887 C 773.841 4.3296 0.951877 0
M  V30 7888 H 771.061 0.670929 -0.00978923 0
M  V30 7889 H 773.605 1.93293 -0.667676 0
M  V30 7890 H 771.76 3.7301 1.04605 0
M  V30 7891 H 772.174 5.2106 -0.599708 0
M  V30 7892 H 773.648 5.40952 1.09888 0
M  V30 7893 H 774.125 3.93856 1.94356 0
M  V30 7894 H 774.731 4.24246 0.299208 0
M  V30 7895 N 773.046 0.209999 1.56195 0
M  V30 7896 C 773.956 -0.716459 2.23392 0
M  V30 7897 C 774.972 -1.22291 1.23778 0
M  V30 7898 O 776.148 -1.26694 1.56558 0
M  V30 7899 C 773.213 -1.91261 2.89172 0
M  V30 7900 C 772.274 -1.44927 4.04097 0
M  V30 7901 C 771.507 -2.5884 4.66731 0
M  V30 7902 O 771.73 -3.76693 4.2832 0
M  V30 7903 O 770.664 -2.30701 5.55932 0
M  V30 7904 H 774.49 -0.174089 3.03201 0
M  V30 7905 H 772.075 -0.0199505 1.49387 0
M  V30 7906 H 773.957 -2.6114 3.30733 0
M  V30 7907 H 772.632 -2.4433 2.12331 0
M  V30 7908 H 771.539 -0.718839 3.67129 0
M  V30 7909 H 772.872 -0.965084 4.82646 0
M  V30 7910 N 774.524 -1.57472 -0.0634922 0
M  V30 7911 C 775.773 -1.86837 -0.759928 0
M  V30 7912 C 776.086 -0.803823 -1.7832 0
M  V30 7913 O 777.292 -0.985578 -2.52979 0
M  V30 7914 C 775.748 -3.31448 -1.4025 0
M  V30 7915 C 775.356 -4.46052 -0.417368 0
M  V30 7916 C 777.1 -3.70003 -2.08082 0
M  V30 7917 C 775.007 -5.81707 -1.06633 0
M  V30 7918 H 773.937 -0.697009 -0.287567 0
M  V30 7919 H 776.588 -1.83495 -0.0133914 0
M  V30 7920 H 774.97 -3.29427 -2.19759 0
M  V30 7921 H 776.144 -4.5948 0.348503 0
M  V30 7922 H 774.459 -4.16104 0.156955 0
M  V30 7923 H 777.056 -4.68653 -2.57426 0
M  V30 7924 H 777.399 -3.00226 -2.88393 0
M  V30 7925 H 777.932 -3.7405 -1.35394 0
M  V30 7926 H 774.671 -6.54798 -0.303374 0
M  V30 7927 H 774.191 -5.72064 -1.80286 0
M  V30 7928 H 775.87 -6.27317 -1.58376 0
M  V30 7929 N 776.003 0.335068 -1.53997 0
M  V30 7930 C 776.95 1.41187 -1.82579 0
M  V30 7931 C 777.92 1.51897 -0.672061 0
M  V30 7932 O 779.105 1.673 -0.917346 0
M  V30 7933 C 776.245 2.77717 -2.0486 0
M  V30 7934 C 775.358 2.7573 -3.32561 0
M  V30 7935 C 774.493 4.04032 -3.44864 0
M  V30 7936 C 773.532 3.96308 -4.66483 0
M  V30 7937 N 772.669 5.16317 -4.75774 0
M  V30 7938 H 777.509 1.16113 -2.74448 0
M  V30 7939 H 775.046 0.562305 -1.35928 0
M  V30 7940 H 777.004 3.57071 -2.15768 0
M  V30 7941 H 775.634 3.01124 -1.16294 0
M  V30 7942 H 774.686 1.88432 -3.3045 0
M  V30 7943 H 775.998 2.65902 -4.22016 0
M  V30 7944 H 775.152 4.91814 -3.55251 0
M  V30 7945 H 773.891 4.16652 -2.53481 0
M  V30 7946 H 772.896 3.06911 -4.56164 0
M  V30 7947 H 774.121 3.85263 -5.5924 0
M  V30 7948 H 772.067 5.29464 -3.87303 0
M  V30 7949 H 771.984 5.08779 -5.59178 0
M  V30 7950 H 773.252 6.05846 -4.9048 0
M  V30 7951 N 777.481 1.45874 0.596531 0
M  V30 7952 C 778.444 1.54988 1.68853 0
M  V30 7953 C 779.444 0.428302 1.54991 0
M  V30 7954 O 780.634 0.692158 1.59859 0
M  V30 7955 C 777.766 1.457 3.08195 0
M  V30 7956 H 778.959 2.52294 1.62135 0
M  V30 7957 H 776.512 1.33479 0.813206 0
M  V30 7958 H 777.247 0.496204 3.20481 0
M  V30 7959 H 777.032 2.27061 3.19665 0
M  V30 7960 H 778.522 1.55133 3.87716 0
M  V30 7961 N 778.959 -0.83999 1.33349 0
M  V30 7962 C 779.892 -1.95415 1.17848 0
M  V30 7963 C 780.87 -1.6243 0.0742296 0
M  V30 7964 O 782.054 -1.87014 0.23626 0
M  V30 7965 C 779.181 -3.28938 0.807295 0
M  V30 7966 C 778.227 -3.80895 1.91888 0
M  V30 7967 S 779.06 -4.02709 3.52967 0
M  V30 7968 C 780.216 -5.39185 3.17853 0
M  V30 7969 H 780.449 -2.08265 2.12162 0
M  V30 7970 H 777.982 -0.993643 1.18178 0
M  V30 7971 H 779.94 -4.06093 0.599914 0
M  V30 7972 H 778.601 -3.13881 -0.117234 0
M  V30 7973 H 777.794 -4.77508 1.6125 0
M  V30 7974 H 777.396 -3.10633 2.08286 0
M  V30 7975 H 779.688 -6.21978 2.68608 0
M  V30 7976 H 780.631 -5.74795 4.13542 0
M  V30 7977 H 781.039 -5.03885 2.5448 0
M  V30 7978 N 780.437 -1.16799 -1.0581 0
M  V30 7979 C 781.686 -0.94698 -1.78088 0
M  V30 7980 C 781.999 0.526016 -1.88394 0
M  V30 7981 O 783.205 0.865061 -2.5735 0
M  V30 7982 C 781.661 -1.64508 -3.20102 0
M  V30 7983 C 781.269 -3.15618 -3.17946 0
M  V30 7984 C 783.013 -1.50622 -3.96879 0
M  V30 7985 C 780.92 -3.78144 -4.5471 0
M  V30 7986 H 779.85 -0.35067 -0.667493 0
M  V30 7987 H 782.501 -1.39985 -1.18645 0
M  V30 7988 H 780.883 -1.11993 -3.79834 0
M  V30 7989 H 782.057 -3.75016 -2.67768 0
M  V30 7990 H 780.372 -3.29444 -2.54667 0
M  V30 7991 H 782.969 -1.94713 -4.97987 0
M  V30 7992 H 783.312 -0.455864 -4.13797 0
M  V30 7993 H 783.845 -2.00319 -3.43682 0
M  V30 7994 H 780.584 -4.83149 -4.42998 0
M  V30 7995 H 780.104 -3.23532 -5.05062 0
M  V30 7996 H 781.783 -3.79986 -5.2366 0
M  V30 7997 N 781.915 1.24427 -0.967243 0
M  V30 7998 C 783.331 1.44684 -0.6737 0
M  V30 7999 C 783.531 1.86429 0.764625 0
M  V30 8000 O 782.587 2.00211 1.53857 0
M  V30 8001 C 783.9 2.509 -1.6574 0
M  V30 8002 C 785.448 2.64728 -1.66998 0
M  V30 8003 C 785.923 3.7414 -2.64165 0
M  V30 8004 N 787.414 3.81567 -2.62604 0
M  V30 8005 C 788.149 4.6575 -3.34462 0
M  V30 8006 N 787.645 5.54124 -4.15835 0
M  V30 8007 N 789.438 4.59827 -3.23288 0
M  V30 8008 H 781.589 0.956276 -1.89655 0
M  V30 8009 H 783.852 0.48171 -0.816492 0
M  V30 8010 H 783.558 2.27113 -2.68538 0
M  V30 8011 H 783.432 3.4905 -1.42981 0
M  V30 8012 H 785.819 2.87872 -0.649121 0
M  V30 8013 H 785.9 1.66936 -1.93819 0
M  V30 8014 H 785.544 3.51745 -3.66384 0
M  V30 8015 H 785.474 4.71444 -2.34623 0
M  V30 8016 H 787.965 3.18403 -2.03539 0
M  V30 8017 H 788.278 6.15316 -4.67553 0
M  V30 8018 H 786.623 5.53791 -4.19929 0
M  V30 8019 H 789.814 3.898 -2.59179 0
M  V30 8020 H 789.987 5.25208 -3.79553 0
M  V30 8021 N 783.393 0.737304 1.3929 0
M  V30 8022 C 784.341 0.0879867 2.32434 0
M  V30 8023 C 785.335 -0.723324 1.53181 0
M  V30 8024 O 786.541 -0.624251 1.68829 0
M  V30 8025 H 782.916 0.00965277 0.751938 0
M  V30 8026 H 784.887 0.889915 2.84821 0
M  V30 8027 C 783.636 -0.803384 3.38291 0
M  V30 8028 H 782.959 -0.18849 3.99355 0
M  V30 8029 H 784.399 -1.22528 4.0591 0
M  V30 8030 C 782.858 -1.93872 2.75527 0
M  V30 8031 O 783.388 -3.03154 2.63553 0
M  V30 8032 N 781.594 -1.72883 2.3358 0
M  V30 8033 H 781.141 -0.840005 2.43519 0
M  V30 8034 H 781.099 -2.49021 1.91927 0
M  V30 8035 N 784.871 -1.49948 0.485112 0
M  V30 8036 C 785.803 -2.26691 -0.338222 0
M  V30 8037 C 786.816 -1.32584 -0.944742 0
M  V30 8038 O 788.005 -1.57989 -0.830772 0
M  V30 8039 C 785.105 -3.04405 -1.48966 0
M  V30 8040 C 784.278 -4.25971 -0.993371 0
M  V30 8041 C 783.337 -4.85861 -2.02052 0
M  V30 8042 O 782.363 -5.46382 -1.59547 0
M  V30 8043 N 783.565 -4.74101 -3.34975 0
M  V30 8044 H 786.33 -2.97989 0.319748 0
M  V30 8045 H 783.891 -1.58772 0.316714 0
M  V30 8046 H 785.883 -3.41348 -2.17403 0
M  V30 8047 H 784.453 -2.35815 -2.05207 0
M  V30 8048 H 783.673 -3.93971 -0.134424 0
M  V30 8049 H 784.961 -5.0476 -0.639934 0
M  V30 8050 H 784.359 -4.26002 -3.72208 0
M  V30 8051 H 782.916 -5.15274 -3.9917 0
M  V30 8052 N 786.349 -0.21828 -1.56081 0
M  V30 8053 C 787.574 0.422302 -2.03055 0
M  V30 8054 C 787.999 1.5279 -1.09713 0
M  V30 8055 O 787.357 1.81102 -0.0847187 0
M  V30 8056 C 787.405 0.934177 -3.48289 0
M  V30 8057 O 786.509 2.04574 -3.58083 0
M  V30 8058 H 785.85 0.0959764 -0.657027 0
M  V30 8059 H 788.38 -0.335958 -2.01823 0
M  V30 8060 H 788.39 1.24484 -3.88546 0
M  V30 8061 H 787.065 0.124963 -4.15712 0
M  V30 8062 H 785.642 1.74196 -3.29712 0
M  V30 8063 N 787.827 1.57504 0.0551401 0
M  V30 8064 C 789.075 1.87684 0.74962 0
M  V30 8065 C 789.396 0.812547 1.77264 0
M  V30 8066 O 788.666 -0.15694 1.9527 0
M  V30 8067 H 787.246 0.6926 0.279846 0
M  V30 8068 H 789.908 1.94881 0.0272745 0
M  V30 8069 H 789.004 2.85734 1.25548 0
M  V30 8070 N 789.305 -0.326896 1.54172 0
M  V30 8071 C 790.551 -1.06304 1.7341 0
M  V30 8072 C 790.906 -1.85791 0.499935 0
M  V30 8073 O 790.199 -1.84753 -0.507625 0
M  V30 8074 C 790.393 -2.0208 2.94785 0
M  V30 8075 C 790.222 -1.32009 4.29888 0
M  V30 8076 C 788.992 -1.05798 4.941 0
M  V30 8077 C 791.19 -0.737721 5.08982 0
M  V30 8078 N 789.172 -0.324836 6.1304 0
M  V30 8079 C 790.543 -0.136006 6.19851 0
M  V30 8080 C 792.598 -0.640206 4.93767 0
M  V30 8081 C 791.301 0.553757 7.17165 0
M  V30 8082 C 793.327 0.0358492 5.91389 0
M  V30 8083 C 792.689 0.626522 7.01608 0
M  V30 8084 H 788.788 -0.372808 0.687414 0
M  V30 8085 H 791.372 -0.34462 1.91626 0
M  V30 8086 H 789.543 -2.71197 2.78041 0
M  V30 8087 H 791.275 -2.68655 3.02666 0
M  V30 8088 H 788.03 -1.34945 4.53968 0
M  V30 8089 H 788.454 0.0274982 6.76994 0
M  V30 8090 H 793.096 -1.0826 4.08705 0
M  V30 8091 H 790.814 1.00799 8.01789 0
M  V30 8092 H 794.4 0.110895 5.81694 0
M  V30 8093 H 793.28 1.14135 7.7585 0
M  V30 8094 N 790.784 -1.46188 -0.588786 0
M  V30 8095 C 792.195 -1.45421 -1.17088 0
M  V30 8096 C 792.546 -0.191801 -1.9526 0
M  V30 8097 O 791.671 0.705497 -2.04577 0
M  V30 8098 C 792.266 -2.63467 -2.13004 0
M  V30 8099 C 790.825 -2.6576 -2.6655 0
M  V30 8100 C 789.972 -2.38002 -1.42304 0
M  V30 8101 H 792.923 -1.54156 -0.377052 0
M  V30 8102 H 792.944 -2.38638 -2.96365 0
M  V30 8103 H 792.456 -3.55331 -1.56081 0
M  V30 8104 H 790.557 -1.77952 -3.27359 0
M  V30 8105 H 790.67 -3.65545 -3.09699 0
M  V30 8106 H 789.034 -1.87936 -1.71907 0
M  V30 8107 H 789.817 -3.32035 -0.872209 0
M  V30 8108 N 792.262 0.832906 -1.33792 0
M  V30 8109 C 793.225 1.92471 -1.24449 0
M  V30 8110 C 794.225 1.59981 -0.162085 0
M  V30 8111 O 795.415 1.69208 -0.414029 0
M  V30 8112 C 792.547 3.28278 -0.919044 0
M  V30 8113 H 793.74 2.0218 -2.21502 0
M  V30 8114 H 791.293 1.0257 -1.17936 0
M  V30 8115 H 792.028 3.24263 0.048738 0
M  V30 8116 H 791.813 3.53241 -1.70187 0
M  V30 8117 H 793.303 4.08253 -0.878576 0
M  V30 8118 N 793.74 1.17359 1.05189 0
M  V30 8119 C 795.156 0.920861 1.30355 0
M  V30 8120 C 795.356 -0.419993 1.97074 0
M  V30 8121 O 794.412 -1.15696 2.24434 0
M  V30 8122 C 795.725 2.07818 2.1733 0
M  V30 8123 C 797.273 2.1152 2.30712 0
M  V30 8124 C 797.748 3.26637 3.21048 0
M  V30 8125 N 799.239 3.26426 3.28634 0
M  V30 8126 C 799.974 4.12141 3.98657 0
M  V30 8127 N 799.47 5.07966 4.71107 0
M  V30 8128 N 801.263 4.00091 3.94821 0
M  V30 8129 H 793.414 2.03666 0.602821 0
M  V30 8130 H 795.677 0.889294 0.328421 0
M  V30 8131 H 795.383 3.04727 1.75597 0
M  V30 8132 H 795.257 2.02922 3.17966 0
M  V30 8133 H 797.644 1.15196 2.71687 0
M  V30 8134 H 797.725 2.20477 1.29706 0
M  V30 8135 H 797.369 4.23227 2.80788 0
M  V30 8136 H 797.299 3.14917 4.2206 0
M  V30 8137 H 799.79 2.57045 2.77013 0
M  V30 8138 H 800.103 5.69766 5.22099 0
M  V30 8139 H 798.448 5.11936 4.7005 0
M  V30 8140 H 801.639 3.24523 3.37346 0
M  V30 8141 H 801.812 4.6711 4.49123 0
M  V30 8142 N 795.218 -1.23913 0.973828 0
M  V30 8143 C 796.151 -2.23647 0.45355 0
M  V30 8144 C 797.129 -1.55485 -0.475724 0
M  V30 8145 O 798.313 -1.84083 -0.405689 0
M  V30 8146 C 795.44 -3.36942 -0.344594 0
M  V30 8147 C 794.486 -4.23221 0.527859 0
M  V30 8148 S 795.319 -4.97877 1.97177 0
M  V30 8149 C 796.475 -6.14627 1.18258 0
M  V30 8150 H 796.708 -2.67433 1.29873 0
M  V30 8151 H 794.241 -1.33289 0.779322 0
M  V30 8152 H 796.199 -4.02647 -0.799103 0
M  V30 8153 H 794.86 -2.91703 -1.16482 0
M  V30 8154 H 794.053 -5.03928 -0.0852555 0
M  V30 8155 H 793.655 -3.6255 0.918344 0
M  V30 8156 H 795.947 -6.76066 0.440629 0
M  V30 8157 H 796.89 -6.80311 1.96425 0
M  V30 8158 H 797.298 -5.6009 0.704256 0
M  V30 8159 N 796.696 -0.74468 -1.38897 0
M  V30 8160 C 797.626 -0.126355 -2.33158 0
M  V30 8161 C 798.607 0.713517 -1.54412 0
M  V30 8162 O 799.792 0.656523 -1.82766 0
M  V30 8163 C 796.922 0.774375 -3.38557 0
M  V30 8164 C 795.876 0.0379214 -4.27983 0
M  V30 8165 C 795.202 1.05631 -5.24162 0
M  V30 8166 C 796.502 -1.12523 -5.10035 0
M  V30 8167 H 798.196 -0.913744 -2.85116 0
M  V30 8168 H 795.742 -0.440847 -1.37086 0
M  V30 8169 H 797.695 1.21655 -4.03458 0
M  V30 8170 H 796.419 1.59399 -2.85061 0
M  V30 8171 H 795.078 -0.384733 -3.64576 0
M  V30 8172 H 794.726 1.86975 -4.66958 0
M  V30 8173 H 794.426 0.568261 -5.84846 0
M  V30 8174 H 795.95 1.49799 -5.9194 0
M  V30 8175 H 797.364 -0.761037 -5.68226 0
M  V30 8176 H 795.761 -1.54355 -5.79909 0
M  V30 8177 H 796.831 -1.94237 -4.44297 0
M  V30 8178 N 798.174 1.49689 -0.493057 0
M  V30 8179 C 799.451 1.9525 0.116907 0
M  V30 8180 C 799.831 1.43429 1.54892 0
M  V30 8181 O 799.179 0.644621 2.19219 0
M  V30 8182 C 799.389 3.4898 0.037705 0
M  V30 8183 C 800.737 4.24052 0.215621 0
M  V30 8184 O 801.761 3.5602 0.113266 0
M  V30 8185 O 800.62 5.44847 0.42477 0
M  V30 8186 H 797.714 0.820973 0.099662 0
M  V30 8187 H 800.26 1.60367 -0.555029 0
M  V30 8188 H 799.032 3.79309 -0.961251 0
M  V30 8189 H 798.655 3.9046 0.750137 0
M  V30 8190 N 799.652 0.226554 1.55963 0
M  V30 8191 C 800.599 -0.681504 2.20509 0
M  V30 8192 C 801.569 -1.1866 1.16229 0
M  V30 8193 O 802.754 -1.24478 1.44602 0
M  V30 8194 C 799.894 -1.88183 2.89277 0
M  V30 8195 C 799.007 -1.41517 4.08163 0
M  V30 8196 C 798.142 -2.57346 4.647 0
M  V30 8197 C 797.181 -2.07441 5.75877 0
M  V30 8198 N 796.318 -3.16561 6.26685 0
M  V30 8199 H 801.158 -0.124372 2.9774 0
M  V30 8200 H 798.695 -0.0496333 1.47016 0
M  V30 8201 H 800.653 -2.58666 3.27335 0
M  V30 8202 H 799.283 -2.41177 2.14555 0
M  V30 8203 H 798.335 -0.605099 3.75557 0
M  V30 8204 H 799.647 -1.00928 4.88482 0
M  V30 8205 H 798.801 -3.35903 5.05227 0
M  V30 8206 H 797.54 -3.01227 3.83554 0
M  V30 8207 H 796.545 -1.27347 5.34848 0
M  V30 8208 H 797.77 -1.64554 6.58862 0
M  V30 8209 H 795.716 -3.59914 5.48451 0
M  V30 8210 H 795.633 -2.80239 7.02141 0
M  V30 8211 H 796.901 -3.95238 6.71868 0
M  V30 8212 N 801.13 -1.57531 -0.0467866 0
M  V30 8213 C 802.378 -1.88078 -0.739656 0
M  V30 8214 C 802.699 -0.821936 -1.76831 0
M  V30 8215 O 801.969 0.146582 -1.95351 0
M  V30 8216 H 800.549 -0.694075 -0.276169 0
M  V30 8217 H 803.211 -1.94893 -0.0169391 0
M  V30 8218 H 802.307 -2.86396 -1.24031 0
M  V30 8219 N 802.608 0.318715 -1.54344 0
M  V30 8220 C 803.836 1.0755 -1.7675 0
M  V30 8221 C 804.251 1.81543 -0.518422 0
M  V30 8222 O 803.608 1.75198 0.511078 0
M  V30 8223 C 803.659 2.06983 -2.96378 0
M  V30 8224 O 803.38 1.35995 -4.16458 0
M  V30 8225 C 804.881 2.94841 -3.31034 0
M  V30 8226 H 802.101 0.319711 -0.589937 0
M  V30 8227 H 804.645 0.363369 -2.01246 0
M  V30 8228 H 802.8 2.73724 -2.74142 0
M  V30 8229 H 803.214 2.02623 -4.83781 0
M  V30 8230 H 804.688 3.60496 -4.18027 0
M  V30 8231 H 805.165 3.62199 -2.48412 0
M  V30 8232 H 805.771 2.33656 -3.55366 0
M  V30 8233 N 804.086 1.46499 0.581025 0
M  V30 8234 C 805.333 1.51896 1.33918 0
M  V30 8235 C 805.661 0.171361 1.93744 0
M  V30 8236 O 804.916 -0.833178 1.77078 0
M  V30 8237 C 805.215 2.56686 2.48691 0
M  V30 8238 C 804.881 4.00656 2.06847 0
M  V30 8239 C 803.543 4.39852 1.9515 0
M  V30 8240 C 805.895 4.91089 1.74589 0
M  V30 8241 C 803.223 5.67345 1.49456 0
M  V30 8242 C 805.575 6.1902 1.30373 0
M  V30 8243 C 804.239 6.57121 1.17255 0
M  V30 8244 H 803.509 0.555826 0.490039 0
M  V30 8245 H 806.156 1.79983 0.654092 0
M  V30 8246 H 804.461 2.22266 3.22653 0
M  V30 8247 H 806.158 2.58091 3.06904 0
M  V30 8248 H 802.748 3.69674 2.16886 0
M  V30 8249 H 806.932 4.61523 1.8251 0
M  V30 8250 H 802.188 5.95635 1.37944 0
M  V30 8251 H 806.362 6.8852 1.04467 0
M  V30 8252 H 803.989 7.55805 0.816236 0
M  V30 8253 N 805.565 -0.825799 1.34232 0
M  V30 8254 C 806.981 -1.11848 1.13851 0
M  V30 8255 C 807.181 -2.01405 -0.0619031 0
M  V30 8256 O 806.237 -2.41465 -0.738287 0
M  V30 8257 C 807.55 -1.76797 2.43235 0
M  V30 8258 C 809.098 -1.89304 2.49265 0
M  V30 8259 C 809.573 -2.57669 3.78643 0
M  V30 8260 N 811.064 -2.65171 3.79788 0
M  V30 8261 C 811.799 -3.1879 4.76614 0
M  V30 8262 N 811.295 -3.72995 5.83821 0
M  V30 8263 N 813.088 -3.17164 4.64073 0
M  V30 8264 H 805.239 -0.230049 2.11151 0
M  V30 8265 H 807.502 -0.164609 0.9336 0
M  V30 8266 H 807.208 -1.18455 3.31152 0
M  V30 8267 H 807.082 -2.76693 2.56361 0
M  V30 8268 H 809.469 -2.46796 1.6179 0
M  V30 8269 H 809.55 -0.883191 2.4007 0
M  V30 8270 H 809.194 -2.00833 4.66507 0
M  V30 8271 H 809.124 -3.59152 3.8512 0
M  V30 8272 H 811.615 -2.26746 3.02315 0
M  V30 8273 H 811.928 -4.12151 6.53721 0
M  V30 8274 H 810.273 -3.71246 5.87538 0
M  V30 8275 H 813.464 -2.74082 3.79469 0
M  V30 8276 H 813.637 -3.58647 5.397 0
M  V30 8277 N 807.043 -1.17915 -1.04565 0
M  V30 8278 C 808.273 -0.994716 -1.81077 0
M  V30 8279 C 808.681 0.460146 -1.83519 0
M  V30 8280 O 808.024 1.33136 -1.26572 0
M  V30 8281 C 808.086 -1.46698 -3.28207 0
M  V30 8282 C 807.75 -2.94523 -3.49436 0
M  V30 8283 C 808.747 -3.92414 -3.41038 0
M  V30 8284 C 806.432 -3.32841 -3.76194 0
M  V30 8285 C 808.426 -5.2662 -3.59096 0
M  V30 8286 C 806.113 -4.67212 -3.93899 0
M  V30 8287 C 807.111 -5.6391 -3.8535 0
M  V30 8288 O 806.799 -6.95849 -4.02554 0
M  V30 8289 H 806.531 -0.351797 -0.577248 0
M  V30 8290 H 809.085 -1.56772 -1.32709 0
M  V30 8291 H 807.315 -0.837592 -3.7752 0
M  V30 8292 H 809.004 -1.24724 -3.86263 0
M  V30 8293 H 809.77 -3.64157 -3.20336 0
M  V30 8294 H 805.649 -2.58139 -3.81949 0
M  V30 8295 H 809.193 -6.02082 -3.52339 0
M  V30 8296 H 805.09 -4.95172 -4.14095 0
M  V30 8297 H 805.858 -7.02679 -4.19743 0
M  V30 8298 N 808.521 1.23394 -0.980386 0
M  V30 8299 C 809.767 1.924 -0.659848 0
M  V30 8300 C 810.122 1.75076 0.797883 0
M  V30 8301 O 809.415 1.10104 1.56805 0
M  V30 8302 C 809.609 3.43542 -0.985588 0
M  V30 8303 C 809.438 3.75568 -2.47343 0
M  V30 8304 C 808.208 3.96257 -3.13541 0
M  V30 8305 C 810.406 3.81045 -3.45412 0
M  V30 8306 N 808.388 4.15489 -4.51932 0
M  V30 8307 C 809.759 4.05269 -4.69209 0
M  V30 8308 C 811.814 3.63837 -3.39893 0
M  V30 8309 C 810.517 4.14071 -5.88164 0
M  V30 8310 C 812.543 3.73892 -4.58212 0
M  V30 8311 C 811.905 3.98553 -5.80805 0
M  V30 8312 H 808.004 0.725229 -0.292518 0
M  V30 8313 H 810.588 1.48615 -1.25784 0
M  V30 8314 H 808.759 3.86163 -0.416289 0
M  V30 8315 H 810.491 3.99887 -0.622324 0
M  V30 8316 H 807.246 3.93168 -2.64038 0
M  V30 8317 H 807.67 4.29058 -5.23677 0
M  V30 8318 H 812.312 3.43767 -2.46139 0
M  V30 8319 H 810.03 4.32949 -6.82335 0
M  V30 8320 H 813.616 3.61932 -4.55518 0
M  V30 8321 H 812.496 4.06148 -6.70831 0
M  V30 8322 N 809.999 0.752036 1.385 0
M  V30 8323 C 811.246 0.307503 2.00152 0
M  V30 8324 C 811.574 -1.11033 1.59693 0
M  V30 8325 O 810.829 -1.77455 0.825125 0
M  V30 8326 C 811.128 0.376155 3.55415 0
M  V30 8327 C 810.794 1.74942 4.15579 0
M  V30 8328 C 809.456 2.12525 4.31725 0
M  V30 8329 C 811.808 2.65031 4.48785 0
M  V30 8330 C 809.136 3.39671 4.78373 0
M  V30 8331 C 811.488 3.91567 4.96848 0
M  V30 8332 C 810.152 4.2922 5.11201 0
M  V30 8333 H 809.422 0.112523 0.732407 0
M  V30 8334 H 812.069 0.962213 1.65571 0
M  V30 8335 H 810.374 -0.362121 3.90123 0
M  V30 8336 H 812.071 0.0138065 4.00998 0
M  V30 8337 H 808.661 1.44726 4.03426 0
M  V30 8338 H 812.845 2.3726 4.35914 0
M  V30 8339 H 808.101 3.68765 4.8767 0
M  V30 8340 H 812.275 4.61517 5.21512 0
M  V30 8341 H 809.902 5.27805 5.47107 0
M  V30 8342 N 811.477 -1.49425 0.500989 0
M  V30 8343 C 812.705 -2.06861 -0.0403443 0
M  V30 8344 C 813.12 -1.36132 -1.30819 0
M  V30 8345 O 812.477 -0.439647 -1.77125 0
M  V30 8346 C 812.528 -3.6027 -0.297902 0
M  V30 8347 O 812.249 -4.28338 0.919686 0
M  V30 8348 C 813.75 -4.34419 -0.882876 0
M  V30 8349 H 810.97 -0.670688 0.0204619 0
M  V30 8350 H 813.514 -1.92207 0.698342 0
M  V30 8351 H 811.669 -3.74627 -0.98657 0
M  V30 8352 H 812.083 -5.2004 0.682528 0
M  V30 8353 H 813.557 -5.42631 -1.01268 0
M  V30 8354 H 814.034 -3.96898 -1.88066 0
M  V30 8355 H 814.64 -4.24669 -0.231677 0
M  V30 8356 N 812.955 -0.234822 -1.55841 0
M  V30 8357 C 813.885 0.664217 -2.23854 0
M  V30 8358 C 814.866 1.19076 -1.2147 0
M  V30 8359 O 816.051 1.23232 -1.50091 0
M  V30 8360 C 813.181 1.86666 -2.9287 0
M  V30 8361 C 812.135 1.47341 -4.01839 0
M  V30 8362 C 811.461 2.75571 -4.58219 0
M  V30 8363 C 812.761 0.653479 -5.18196 0
M  V30 8364 H 814.455 0.0971213 -2.99242 0
M  V30 8365 H 812.001 0.0452724 -1.43929 0
M  V30 8366 H 813.954 2.50116 -3.39146 0
M  V30 8367 H 812.678 2.45894 -2.1495 0
M  V30 8368 H 811.337 0.862314 -3.56314 0
M  V30 8369 H 810.985 3.32971 -3.77014 0
M  V30 8370 H 810.685 2.49987 -5.31771 0
M  V30 8371 H 812.209 3.39939 -5.07221 0
M  V30 8372 H 813.623 1.19198 -5.60771 0
M  V30 8373 H 812.02 0.494188 -5.98062 0
M  V30 8374 H 813.09 -0.337004 -4.83728 0
M  V30 8375 N 814.433 1.57553 0.0384317 0
M  V30 8376 C 815.71 1.79977 0.766002 0
M  V30 8377 C 816.09 0.830625 1.94072 0
M  V30 8378 O 815.438 -0.129243 2.28134 0
M  V30 8379 C 815.648 3.27434 1.20781 0
M  V30 8380 C 816.996 3.92167 1.62758 0
M  V30 8381 O 818.02 3.31527 1.30263 0
M  V30 8382 O 816.879 4.98917 2.23035 0
M  V30 8383 H 813.973 0.739787 0.369654 0
M  V30 8384 H 816.519 1.69693 0.0159312 0
M  V30 8385 H 815.291 3.89558 0.368792 0
M  V30 8386 H 814.914 3.42571 2.01819 0
M  V30 8387 N 815.911 -0.310526 1.54511 0
M  V30 8388 C 816.821 -1.4054 1.87844 0
M  V30 8389 C 817.837 -1.55954 0.771635 0
M  V30 8390 O 819.013 -1.70801 1.06719 0
M  V30 8391 C 816.078 -2.75063 2.11048 0
M  V30 8392 C 815.139 -2.68715 3.348 0
M  V30 8393 C 814.372 -3.96821 3.56887 0
M  V30 8394 O 814.595 -4.95721 2.82165 0
M  V30 8395 O 813.529 -3.99291 4.50389 0
M  V30 8396 H 817.355 -1.15275 2.80972 0
M  V30 8397 H 814.94 -0.505732 1.4058 0
M  V30 8398 H 816.822 -3.54671 2.27566 0
M  V30 8399 H 815.497 -3.00191 1.21108 0
M  V30 8400 H 814.404 -1.87611 3.23655 0
M  V30 8401 H 815.737 -2.4854 4.2484 0
M  V30 8402 N 817.389 -1.46805 -0.573248 0
M  V30 8403 C 818.637 -1.52302 -1.32847 0
M  V30 8404 C 818.958 -0.180159 -1.94166 0
M  V30 8405 O 818.228 0.794291 -1.79075 0
M  V30 8406 H 816.808 -0.56097 -0.493276 0
M  V30 8407 H 819.47 -1.82998 -0.670642 0
M  V30 8408 H 818.566 -2.28089 -2.13031 0
M  V30 8409 N 818.867 0.818669 -1.34668 0
M  V30 8410 C 820.113 1.57746 -1.27453 0
M  V30 8411 C 820.446 1.93588 0.154077 0
M  V30 8412 O 819.721 1.60371 1.10051 0
M  V30 8413 C 820.004 2.87414 -2.16945 0
M  V30 8414 C 819.857 2.58125 -3.68363 0
M  V30 8415 C 821.176 3.89021 -2.05792 0
M  V30 8416 H 818.295 0.572339 -0.464324 0
M  V30 8417 H 820.937 0.942784 -1.64959 0
M  V30 8418 H 819.087 3.41576 -1.85089 0
M  V30 8419 H 820.759 2.10239 -4.10606 0
M  V30 8420 H 819.002 1.91503 -3.89242 0
M  V30 8421 H 819.673 3.5061 -4.26353 0
M  V30 8422 H 822.149 3.44224 -2.33771 0
M  V30 8423 H 821.025 4.77548 -2.70628 0
M  V30 8424 H 821.286 4.29786 -1.03618 0
M  V30 8425 N 820.346 1.18468 1.03938 0
M  V30 8426 C 821.623 0.890435 1.74157 0
M  V30 8427 C 822.003 -0.606409 2.02203 0
M  V30 8428 O 821.351 -1.5615 1.66822 0
M  V30 8429 C 821.561 1.73906 3.02585 0
M  V30 8430 C 822.909 1.96686 3.76297 0
M  V30 8431 O 823.933 1.70969 3.12487 0
M  V30 8432 O 822.792 2.39986 4.90988 0
M  V30 8433 H 819.886 0.330889 0.757919 0
M  V30 8434 H 822.432 1.29228 1.09992 0
M  V30 8435 H 821.204 2.75369 2.78006 0
M  V30 8436 H 820.827 1.33581 3.74489 0
M  V30 8437 N 821.824 -1.22873 0.986916 0
M  V30 8438 C 823.235 -1.73264 0.695438 0
M  V30 8439 C 823.586 -1.79679 -0.788023 0
M  V30 8440 O 822.711 -1.43905 -1.61618 0
M  V30 8441 C 823.306 -3.14671 1.2557 0
M  V30 8442 C 821.865 -3.62492 1.01373 0
M  V30 8443 C 821.012 -2.40551 1.37951 0
M  V30 8444 H 823.963 -1.08304 1.15999 0
M  V30 8445 H 823.984 -3.75226 0.631322 0
M  V30 8446 H 823.496 -3.0997 2.33539 0
M  V30 8447 H 821.597 -3.72567 -0.0495917 0
M  V30 8448 H 821.71 -4.48944 1.67289 0
M  V30 8449 H 820.074 -2.41875 0.798033 0
M  V30 8450 H 820.857 -2.38516 2.46911 0
M  V30 8451 N 823.302 -0.75937 -1.38099 0
M  V30 8452 C 824.265 -0.14372 -2.28749 0
M  V30 8453 C 825.265 0.641338 -1.47457 0
M  V30 8454 O 826.455 0.466751 -1.67831 0
M  V30 8455 C 823.587 0.804545 -3.3127 0
M  V30 8456 H 824.78 -0.942663 -2.847 0
M  V30 8457 H 822.333 -0.526757 -1.47156 0
M  V30 8458 H 823.068 1.62895 -2.80421 0
M  V30 8459 H 822.853 0.243939 -3.9134 0
M  V30 8460 H 824.343 1.23111 -3.99041 0
M  V30 8461 N 824.78 1.49157 -0.508906 0
M  V30 8462 C 826.057 1.95363 0.0961913 0
M  V30 8463 C 826.437 1.45064 1.53362 0
M  V30 8464 O 825.785 0.667835 2.18523 0
M  V30 8465 C 825.995 3.49 0.000688881 0
M  V30 8466 C 827.343 4.24257 0.170632 0
M  V30 8467 O 828.367 3.5612 0.0754994 0
M  V30 8468 O 827.226 5.45267 0.366957 0
M  V30 8469 H 824.32 0.821984 0.0909489 0
M  V30 8470 H 826.866 1.59769 -0.572007 0
M  V30 8471 H 825.638 3.78269 -1.00143 0
M  V30 8472 H 825.261 3.91233 0.708682 0
M  V30 8473 N 826.258 0.243083 1.55714 0
M  V30 8474 C 827.507 -0.383188 1.98027 0
M  V30 8475 C 827.82 -1.59347 1.13436 0
M  V30 8476 O 829.026 -2.29065 1.45745 0
M  V30 8477 C 827.482 -0.733135 3.52354 0
M  V30 8478 C 827.09 0.455539 4.45678 0
M  V30 8479 C 828.834 -1.32381 4.03331 0
M  V30 8480 C 826.741 0.0819591 5.91343 0
M  V30 8481 H 825.671 -0.146944 0.739543 0
M  V30 8482 H 828.322 0.342697 1.80272 0
M  V30 8483 H 826.704 -1.51704 3.65789 0
M  V30 8484 H 827.878 1.23291 4.44 0
M  V30 8485 H 826.193 0.960886 4.05162 0
M  V30 8486 H 828.79 -1.61658 5.09677 0
M  V30 8487 H 829.133 -2.24698 3.50452 0
M  V30 8488 H 829.666 -0.602885 3.93205 0
M  V30 8489 H 826.405 0.972171 6.48251 0
M  V30 8490 H 825.925 -0.659291 5.96166 0
M  V30 8491 H 827.604 -0.3372 6.46121 0
M  V30 8492 N 827.736 -1.57571 -0.0300757 0
M  V30 8493 C 828.964 -1.93485 -0.732891 0
M  V30 8494 C 829.379 -0.842758 -1.68947 0
M  V30 8495 O 828.736 0.180904 -1.81601 0
M  V30 8496 C 828.787 -3.29328 -1.49082 0
M  V30 8497 O 828.508 -4.34341 -0.572639 0
M  V30 8498 C 830.009 -3.79517 -2.29088 0
M  V30 8499 H 827.229 -0.638588 -0.206026 0
M  V30 8500 H 829.773 -2.04496 0.0120966 0
M  V30 8501 H 827.928 -3.19716 -2.1877 0
M  V30 8502 H 828.342 -5.12748 -1.10406 0
M  V30 8503 H 829.816 -4.77081 -2.77665 0
M  V30 8504 H 830.293 -3.10659 -3.10464 0
M  V30 8505 H 830.899 -3.92208 -1.64477 0
M  V30 8506 N 829.214 0.302327 -1.54673 0
M  V30 8507 C 830.46 1.03924 -1.74149 0
M  V30 8508 C 830.793 1.86968 -0.525041 0
M  V30 8509 O 830.068 1.88538 0.477868 0
M  V30 8510 C 830.351 1.94633 -3.02969 0
M  V30 8511 C 830.204 1.14778 -4.34909 0
M  V30 8512 C 831.523 2.93826 -3.27649 0
M  V30 8513 H 828.642 0.376405 -0.633631 0
M  V30 8514 H 831.284 0.314007 -1.87387 0
M  V30 8515 H 829.434 2.56471 -2.91813 0
M  V30 8516 H 831.106 0.552363 -4.57981 0
M  V30 8517 H 829.349 0.450462 -4.31455 0
M  V30 8518 H 830.02 1.81495 -5.21309 0
M  V30 8519 H 832.496 2.42117 -3.38406 0
M  V30 8520 H 831.372 3.54462 -4.19104 0
M  V30 8521 H 831.633 3.67416 -2.45882 0
M  V30 8522 N 830.692 1.47107 0.565454 0
M  V30 8523 C 831.917 1.57153 1.35343 0
M  V30 8524 C 832.342 0.219247 1.86818 0
M  V30 8525 O 831.7 -0.803539 1.62521 0
M  V30 8526 C 831.748 2.59387 2.50501 0
M  V30 8527 O 830.852 2.14086 3.52478 0
M  V30 8528 H 830.193 0.528209 0.402357 0
M  V30 8529 H 832.723 1.92821 0.684189 0
M  V30 8530 H 832.733 2.79546 2.97184 0
M  V30 8531 H 831.408 3.57579 2.12391 0
M  V30 8532 H 829.985 2.03991 3.12157 0
M  V30 8533 N 832.17 -0.811516 1.35101 0
M  V30 8534 C 833.395 -1.60499 1.31358 0
M  V30 8535 C 833.82 -1.87793 -0.107383 0
M  V30 8536 O 833.178 -1.46161 -1.07268 0
M  V30 8537 C 833.226 -2.91612 2.12119 0
M  V30 8538 O 832.33 -3.84211 1.49853 0
M  V30 8539 H 831.671 -0.487702 0.450603 0
M  V30 8540 H 834.201 -1.00758 1.7807 0
M  V30 8541 H 834.211 -3.4108 2.23894 0
M  V30 8542 H 832.886 -2.71071 3.15426 0
M  V30 8543 H 831.463 -3.42751 1.46889 0
M  V30 8544 N 833.648 -1.19017 -1.03309 0
M  V30 8545 C 834.611 -0.926076 -2.09658 0
M  V30 8546 C 835.611 0.0917077 -1.60538 0
M  V30 8547 O 836.801 -0.142574 -1.73616 0
M  V30 8548 C 833.933 -0.390958 -3.38651 0
M  V30 8549 H 835.126 -1.86923 -2.3452 0
M  V30 8550 H 832.679 -1.00325 -1.19853 0
M  V30 8551 H 833.414 0.558446 -3.19456 0
M  V30 8552 H 833.199 -1.12474 -3.75622 0
M  V30 8553 H 834.689 -0.225131 -4.16993 0
M  V30 8554 N 835.127 1.22348 -0.993418 0
M  V30 8555 C 836.357 1.94842 -0.687023 0
M  V30 8556 C 836.765 1.73594 0.752445 0
M  V30 8557 O 836.108 1.03238 1.51946 0
M  V30 8558 C 836.17 3.47694 -0.913754 0
M  V30 8559 C 835.834 3.92678 -2.33781 0
M  V30 8560 C 836.831 4.0031 -3.31734 0
M  V30 8561 C 834.516 4.25311 -2.67237 0
M  V30 8562 C 836.51 4.39951 -4.61218 0
M  V30 8563 C 834.197 4.64631 -3.9694 0
M  V30 8564 C 835.195 4.71919 -4.93742 0
M  V30 8565 O 834.883 5.10349 -6.21127 0
M  V30 8566 H 834.615 0.626771 -0.253247 0
M  V30 8567 H 837.169 1.56436 -1.33105 0
M  V30 8568 H 835.399 3.86115 -0.212552 0
M  V30 8569 H 837.088 4.01403 -0.602528 0
M  V30 8570 H 837.854 3.75288 -3.07219 0
M  V30 8571 H 833.733 4.18842 -1.92594 0
M  V30 8572 H 837.277 4.45555 -5.36774 0
M  V30 8573 H 833.174 4.89104 -4.21245 0
M  V30 8574 H 833.942 5.2842 -6.25072 0
M  V30 8575 N 836.605 0.766683 1.37694 0
M  V30 8576 C 837.553 0.137269 2.32195 0
M  V30 8577 C 838.547 -0.69067 1.54681 0
M  V30 8578 O 839.753 -0.588299 1.70115 0
M  V30 8579 H 836.128 0.0256003 0.751564 0
M  V30 8580 H 838.099 0.950129 2.82869 0
M  V30 8581 C 836.848 -0.731446 3.39919 0
M  V30 8582 H 836.171 -0.103738 3.99665 0
M  V30 8583 H 837.611 -1.13891 4.08417 0
M  V30 8584 C 836.07 -1.87984 2.79578 0
M  V30 8585 O 836.6 -2.97496 2.69924 0
M  V30 8586 N 834.806 -1.6789 2.37195 0
M  V30 8587 H 834.353 -0.788162 2.45246 0
M  V30 8588 H 834.311 -2.44894 1.97165 0
M  V30 8589 N 838.083 -1.48885 0.516809 0
M  V30 8590 C 839.015 -2.27357 -0.290061 0
M  V30 8591 C 840.028 -1.34558 -0.916406 0
M  V30 8592 O 841.217 -1.59715 -0.797073 0
M  V30 8593 C 838.317 -3.07496 -1.42476 0
M  V30 8594 C 837.49 -4.27982 -0.902793 0
M  V30 8595 C 836.549 -4.90038 -1.91701 0
M  V30 8596 O 835.575 -5.49643 -1.47922 0
M  V30 8597 N 836.777 -4.811 -3.24843 0
M  V30 8598 H 839.542 -2.97244 0.382884 0
M  V30 8599 H 837.103 -1.58064 0.35032 0
M  V30 8600 H 839.095 -3.45882 -2.10113 0
M  V30 8601 H 837.665 -2.40115 -2.00159 0
M  V30 8602 H 836.885 -3.94167 -0.0508272 0
M  V30 8603 H 838.173 -5.06003 -0.532723 0
M  V30 8604 H 837.571 -4.33801 -3.63088 0
M  V30 8605 H 836.128 -5.23625 -3.8815 0
M  V30 8606 N 839.561 -0.251338 -1.55583 0
M  V30 8607 C 840.801 0.373651 -2.00956 0
M  V30 8608 C 841.165 1.54806 -1.13574 0
M  V30 8609 O 842.366 2.24108 -1.48422 0
M  V30 8610 C 840.637 0.768919 -3.49031 0
M  V30 8611 S 842.196 1.38381 -4.16409 0
M  V30 8612 H 839.014 0.117371 -0.701245 0
M  V30 8613 H 841.616 -0.367611 -1.92013 0
M  V30 8614 H 840.32 -0.0950492 -4.1029 0
M  V30 8615 H 839.851 1.54225 -3.61909 0
M  V30 8616 H 841.866 2.6728 -4.18062 0
M  V30 8617 N 841.039 1.57585 0.0217189 0
M  V30 8618 C 842.002 2.06004 1.00474 0
M  V30 8619 C 843.002 0.965461 1.2859 0
M  V30 8620 O 844.192 1.22884 1.23471 0
M  V30 8621 C 841.324 2.48319 2.33561 0
M  V30 8622 H 842.517 2.94112 0.586346 0
M  V30 8623 H 840.07 1.53973 0.268716 0
M  V30 8624 H 840.805 1.63389 2.80133 0
M  V30 8625 H 840.59 3.28239 2.1448 0
M  V30 8626 H 842.08 2.86181 3.04122 0
M  V30 8627 N 842.517 -0.29412 1.54831 0
M  V30 8628 C 843.745 -1.04724 1.78439 0
M  V30 8629 C 844.16 -1.80695 0.547239 0
M  V30 8630 O 843.517 -1.75989 -0.483141 0
M  V30 8631 C 843.568 -2.02242 2.99634 0
M  V30 8632 O 843.289 -1.29352 4.18568 0
M  V30 8633 C 844.79 -2.89537 3.35683 0
M  V30 8634 H 842.01 -0.310285 0.594949 0
M  V30 8635 H 844.554 -0.331306 2.01798 0
M  V30 8636 H 842.709 -2.69328 2.78462 0
M  V30 8637 H 843.123 -1.94901 4.86943 0
M  V30 8638 H 844.597 -3.538 4.23709 0
M  V30 8639 H 845.074 -3.58201 2.54143 0
M  V30 8640 H 845.68 -2.27973 3.59038 0
M  V30 8641 N 843.995 -1.47404 -0.557645 0
M  V30 8642 C 845.406 -1.47872 -1.13977 0
M  V30 8643 C 845.757 -0.233176 -1.94809 0
M  V30 8644 O 844.882 0.661945 -2.06027 0
M  V30 8645 C 845.477 -2.67926 -2.07368 0
M  V30 8646 C 844.036 -2.71354 -2.60852 0
M  V30 8647 C 843.183 -2.40967 -1.37223 0
M  V30 8648 H 846.134 -1.54921 -0.344268 0
M  V30 8649 H 846.155 -2.44871 -2.91236 0
M  V30 8650 H 845.667 -3.58562 -1.48509 0
M  V30 8651 H 843.768 -1.84855 -3.23511 0
M  V30 8652 H 843.881 -3.72032 -3.01876 0
M  V30 8653 H 842.245 -1.91541 -1.67882 0
M  V30 8654 H 843.028 -3.33811 -0.801583 0
M  V30 8655 N 845.473 0.80434 -1.35529 0
M  V30 8656 C 846.383 1.94784 -1.30753 0
M  V30 8657 C 847.399 1.72703 -0.212071 0
M  V30 8658 O 848.575 1.96494 -0.441841 0
M  V30 8659 C 845.64 3.29406 -1.08133 0
M  V30 8660 C 844.701 3.64367 -2.27013 0
M  V30 8661 C 843.934 4.92566 -2.05463 0
M  V30 8662 O 844.157 5.61166 -1.02222 0
M  V30 8663 O 843.091 5.25838 -2.92879 0
M  V30 8664 H 846.917 2.01761 -2.26994 0
M  V30 8665 H 844.502 0.942448 -1.15924 0
M  V30 8666 H 846.384 4.09995 -0.973756 0
M  V30 8667 H 845.059 3.23355 -0.149444 0
M  V30 8668 H 843.966 2.84146 -2.43335 0
M  V30 8669 H 845.299 3.75125 -3.18656 0
M  V30 8670 N 846.951 1.19563 1.02676 0
M  V30 8671 C 848.228 0.908857 1.73203 0
M  V30 8672 C 848.608 -0.584928 2.02834 0
M  V30 8673 O 847.956 -1.54372 1.68469 0
M  V30 8674 C 848.166 1.77105 3.00724 0
M  V30 8675 C 849.514 2.00667 3.7419 0
M  V30 8676 O 850.538 1.74274 3.10656 0
M  V30 8677 O 849.397 2.4518 4.88415 0
M  V30 8678 H 846.491 0.338909 0.754367 0
M  V30 8679 H 849.037 1.30387 1.08616 0
M  V30 8680 H 847.809 2.78303 2.7507 0
M  V30 8681 H 847.432 1.37546 3.73051 0
M  V30 8682 N 848.429 -1.21819 0.999893 0
M  V30 8683 C 849.675 -1.91035 0.680701 0
M  V30 8684 C 850.008 -1.77582 -0.786021 0
M  V30 8685 O 849.283 -1.14917 -1.56921 0
M  V30 8686 C 849.566 -3.43013 1.0961 0
M  V30 8687 C 849.419 -3.65481 2.6219 0
M  V30 8688 C 850.738 -4.35204 0.654616 0
M  V30 8689 H 847.857 -0.693748 0.248763 0
M  V30 8690 H 850.499 -1.43555 1.24466 0
M  V30 8691 H 848.649 -3.83581 0.616253 0
M  V30 8692 H 850.321 -3.34273 3.17899 0
M  V30 8693 H 848.564 -3.09522 3.03938 0
M  V30 8694 H 849.235 -4.71945 2.86307 0
M  V30 8695 H 851.711 -4.0219 1.06688 0
M  V30 8696 H 850.587 -5.40198 0.973492 0
M  V30 8697 H 850.848 -4.3986 -0.444458 0
M  V30 8698 N 849.908 -0.773975 -1.37286 0
M  V30 8699 C 850.858 -0.135245 -2.27599 0
M  V30 8700 C 851.842 0.671691 -1.46209 0
M  V30 8701 O 853.034 0.534299 -1.68743 0
M  V30 8702 C 850.163 0.741298 -3.35201 0
M  V30 8703 C 849.249 -0.0735896 -4.24036 0
M  V30 8704 N 849.64 -1.12035 -4.93236 0
M  V30 8705 C 847.938 0.150038 -4.45748 0
M  V30 8706 C 848.639 -1.61512 -5.58828 0
M  V30 8707 N 847.615 -0.926922 -5.35639 0
M  V30 8708 H 851.417 -0.936646 -2.78575 0
M  V30 8709 H 848.931 -0.611944 -1.50429 0
M  V30 8710 H 850.928 1.21468 -3.98812 0
M  V30 8711 H 849.588 1.54142 -2.8578 0
M  V30 8712 H 850.599 -1.50253 -4.95625 0
M  V30 8713 H 847.276 0.921891 -4.07195 0
M  V30 8714 H 848.666 -2.48818 -6.24131 0
M  V30 8715 N 851.386 1.48609 -0.524698 0
M  V30 8716 C 852.336 2.26505 0.260696 0
M  V30 8717 C 853.32 1.32378 0.914597 0
M  V30 8718 O 854.512 1.5695 0.818277 0
M  V30 8719 C 851.641 3.17313 1.31024 0
M  V30 8720 C 850.727 4.18911 0.661391 0
M  V30 8721 N 851.118 5.05183 -0.24981 0
M  V30 8722 C 849.416 4.36425 0.91922 0
M  V30 8723 C 850.117 5.78348 -0.623598 0
M  V30 8724 N 849.093 5.43598 0.0140839 0
M  V30 8725 H 852.895 2.90582 -0.440388 0
M  V30 8726 H 850.409 1.5875 -0.342364 0
M  V30 8727 H 852.406 3.71772 1.88656 0
M  V30 8728 H 851.066 2.54791 2.01275 0
M  V30 8729 H 852.077 5.1415 -0.622093 0
M  V30 8730 H 848.754 3.85095 1.6127 0
M  V30 8731 H 850.144 6.57775 -1.37046 0
M  V30 8732 N 852.864 0.259585 1.55447 0
M  V30 8733 C 854.11 -0.362143 1.9954 0
M  V30 8734 C 854.443 -1.5666 1.14767 0
M  V30 8735 O 853.718 -1.93319 0.214025 0
M  V30 8736 C 854.001 -0.759588 3.51998 0
M  V30 8737 C 853.854 0.451134 4.47532 0
M  V30 8738 C 855.173 -1.60186 4.09913 0
M  V30 8739 H 852.292 -0.130157 0.725416 0
M  V30 8740 H 854.934 0.363431 1.86492 0
M  V30 8741 H 853.084 -1.3778 3.63248 0
M  V30 8742 H 854.756 1.08965 4.48246 0
M  V30 8743 H 852.999 1.092 4.19831 0
M  V30 8744 H 853.67 0.129518 5.51848 0
M  V30 8745 H 856.146 -1.0799 4.01842 0
M  V30 8746 H 855.022 -1.84879 5.16828 0
M  V30 8747 H 855.283 -2.57787 3.59163 0
M  V30 8748 N 854.342 -1.57594 -0.0133615 0
M  V30 8749 C 855.567 -1.94649 -0.715996 0
M  V30 8750 C 855.992 -0.860786 -1.67249 0
M  V30 8751 O 855.35 0.182228 -1.80382 0
M  V30 8752 C 855.398 -3.30789 -1.43566 0
M  V30 8753 O 854.502 -3.24148 -2.54955 0
M  V30 8754 H 853.843 -0.635801 -0.191449 0
M  V30 8755 H 856.373 -2.04569 0.0358478 0
M  V30 8756 H 856.383 -3.66045 -1.80208 0
M  V30 8757 H 855.058 -4.09367 -0.734263 0
M  V30 8758 H 853.635 -3.00548 -2.20739 0
M  V30 8759 N 855.82 0.285905 -1.54985 0
M  V30 8760 C 857.068 1.01718 -1.74636 0
M  V30 8761 C 857.389 1.87277 -0.543342 0
M  V30 8762 O 856.659 1.90847 0.442078 0
M  V30 8763 H 855.239 0.378549 -0.643979 0
M  V30 8764 H 857.901 0.313247 -1.92366 0
M  V30 8765 H 856.997 1.66159 -2.64192 0
M  V30 8766 N 857.298 1.47698 0.54982 0
M  V30 8767 C 858.575 1.45185 1.31075 0
M  V30 8768 C 858.955 0.152768 2.10547 0
M  V30 8769 O 858.303 -0.865706 2.11466 0
M  V30 8770 C 858.513 2.70192 2.20902 0
M  V30 8771 C 859.861 3.1771 2.81683 0
M  V30 8772 O 860.885 2.70971 2.312 0
M  V30 8773 O 859.744 3.98986 3.7346 0
M  V30 8774 H 856.838 0.57892 0.590577 0
M  V30 8775 H 859.384 1.59908 0.568112 0
M  V30 8776 H 858.156 3.56269 1.61828 0
M  V30 8777 H 857.779 2.58091 3.02448 0
M  V30 8778 N 858.776 -0.797141 1.35954 0
M  V30 8779 C 859.706 -1.92387 1.32323 0
M  V30 8780 C 860.687 -1.68967 0.196007 0
M  V30 8781 O 861.872 -1.90193 0.39245 0
M  V30 8782 C 859.002 -3.29286 1.10398 0
M  V30 8783 C 857.956 -3.67212 2.19862 0
M  V30 8784 C 857.282 -5.02377 1.8309 0
M  V30 8785 C 858.582 -3.76602 3.61896 0
M  V30 8786 H 860.276 -1.95683 2.26602 0
M  V30 8787 H 857.822 -0.94007 1.09081 0
M  V30 8788 H 859.775 -4.07721 1.06495 0
M  V30 8789 H 858.499 -3.26358 0.125668 0
M  V30 8790 H 857.158 -2.91069 2.22878 0
M  V30 8791 H 856.806 -4.95961 0.838527 0
M  V30 8792 H 856.506 -5.28722 2.56372 0
M  V30 8793 H 858.03 -5.8324 1.80729 0
M  V30 8794 H 859.444 -4.45246 3.6115 0
M  V30 8795 H 857.841 -4.14425 4.34018 0
M  V30 8796 H 858.911 -2.77906 3.97361 0
M  V30 8797 N 860.254 -1.20106 -1.0204 0
M  V30 8798 C 861.484 -1.0329 -1.78927 0
M  V30 8799 C 861.892 0.421115 -1.84454 0
M  V30 8800 O 861.235 1.30422 -1.29367 0
M  V30 8801 C 861.297 -1.53627 -3.25021 0
M  V30 8802 C 860.961 -3.01869 -3.4311 0
M  V30 8803 C 861.958 -3.9956 -3.32638 0
M  V30 8804 C 859.643 -3.40746 -3.6905 0
M  V30 8805 C 861.637 -5.34119 -3.47844 0
M  V30 8806 C 859.324 -4.75462 -3.839 0
M  V30 8807 C 860.322 -5.71957 -3.73302 0
M  V30 8808 O 860.01 -7.04231 -3.87703 0
M  V30 8809 H 859.742 -0.363962 -0.569656 0
M  V30 8810 H 862.296 -1.59551 -1.29354 0
M  V30 8811 H 860.526 -0.917481 -3.75658 0
M  V30 8812 H 862.215 -1.32889 -3.8353 0
M  V30 8813 H 862.981 -3.70869 -3.12539 0
M  V30 8814 H 858.86 -2.66182 -3.76388 0
M  V30 8815 H 862.404 -6.09421 -3.39488 0
M  V30 8816 H 858.301 -5.03844 -4.03499 0
M  V30 8817 H 859.069 -7.11425 -4.04744 0
M  V30 8818 N 861.732 1.21287 -1.00634 0
M  V30 8819 C 862.962 1.94103 -0.70765 0
M  V30 8820 C 863.37 1.74382 0.733991 0
M  V30 8821 O 862.713 1.04843 1.50843 0
M  V30 8822 C 862.775 3.46705 -0.950581 0
M  V30 8823 C 862.439 3.90176 -2.37932 0
M  V30 8824 C 863.436 3.96769 -3.35961 0
M  V30 8825 C 861.121 4.22453 -2.71733 0
M  V30 8826 C 863.115 4.35034 -4.65858 0
M  V30 8827 C 860.802 4.60394 -4.01846 0
M  V30 8828 C 861.8 4.66656 -4.9872 0
M  V30 8829 O 861.488 5.03732 -6.26505 0
M  V30 8830 H 861.22 0.62405 -0.259881 0
M  V30 8831 H 863.774 1.55015 -1.34757 0
M  V30 8832 H 862.004 3.85868 -0.253492 0
M  V30 8833 H 863.693 4.00741 -0.645069 0
M  V30 8834 H 864.459 3.72009 -3.11182 0
M  V30 8835 H 860.338 4.16776 -1.97025 0
M  V30 8836 H 863.882 4.39836 -5.4147 0
M  V30 8837 H 859.779 4.84609 -4.26409 0
M  V30 8838 H 860.547 5.21761 -6.30641 0
M  V30 8839 N 863.21 0.781244 1.36873 0
M  V30 8840 C 864.456 0.350407 1.9975 0
M  V30 8841 C 864.789 -1.07293 1.6187 0
M  V30 8842 O 864.064 -1.73983 0.869491 0
M  V30 8843 C 864.347 0.504834 3.56544 0
M  V30 8844 C 864.2 1.97127 4.04303 0
M  V30 8845 C 865.519 -0.0851272 4.40018 0
M  V30 8846 H 862.638 0.128794 0.725659 0
M  V30 8847 H 865.28 0.98606 1.6241 0
M  V30 8848 H 863.43 -0.0363006 3.88483 0
M  V30 8849 H 865.102 2.57284 3.82887 0
M  V30 8850 H 863.345 2.47676 3.56145 0
M  V30 8851 H 864.016 2.03033 5.13305 0
M  V30 8852 H 866.492 0.376704 4.14391 0
M  V30 8853 H 865.368 0.0530015 5.48874 0
M  V30 8854 H 865.629 -1.17642 4.2616 0
M  V30 8855 N 864.689 -1.48329 0.532571 0
M  V30 8856 C 865.599 -2.33445 -0.232546 0
M  V30 8857 C 866.615 -1.46651 -0.93645 0
M  V30 8858 O 867.791 -1.79627 -0.910834 0
M  V30 8859 C 864.856 -3.22824 -1.26434 0
M  V30 8860 C 863.917 -4.25492 -0.570511 0
M  V30 8861 C 863.15 -5.10601 -1.55315 0
M  V30 8862 O 863.373 -4.97733 -2.78599 0
M  V30 8863 O 862.307 -5.91927 -1.09112 0
M  V30 8864 H 866.133 -3.00119 0.464988 0
M  V30 8865 H 863.718 -1.46489 0.293462 0
M  V30 8866 H 865.6 -3.78103 -1.86055 0
M  V30 8867 H 864.275 -2.58807 -1.94424 0
M  V30 8868 H 863.182 -3.74041 0.0662587 0
M  V30 8869 H 864.515 -4.92154 0.0674904 0
M  V30 8870 N 866.167 -0.267825 -1.55308 0
M  V30 8871 C 867.416 0.351635 -1.98611 0
M  V30 8872 C 867.729 1.57522 -1.15957 0
M  V30 8873 O 868.935 2.26717 -1.49371 0
M  V30 8874 C 867.391 0.676986 -3.53475 0
M  V30 8875 C 866.999 -0.526385 -4.44897 0
M  V30 8876 C 868.743 1.25948 -4.05386 0
M  V30 8877 C 866.65 -0.176026 -5.91138 0
M  V30 8878 H 865.58 0.13516 -0.741787 0
M  V30 8879 H 868.231 -0.371333 -1.79704 0
M  V30 8880 H 866.613 1.45866 -3.68156 0
M  V30 8881 H 867.787 -1.30339 -4.41982 0
M  V30 8882 H 866.102 -1.02522 -4.03582 0
M  V30 8883 H 868.699 1.53529 -5.12184 0
M  V30 8884 H 869.042 2.19094 -3.53982 0
M  V30 8885 H 869.575 0.540253 -3.94114 0
M  V30 8886 H 866.314 -1.07518 -6.46622 0
M  V30 8887 H 865.834 0.564363 -5.97139 0
M  V30 8888 H 867.513 0.234365 -6.46575 0
M  V30 8889 N 867.645 1.57599 0.00500368 0
M  V30 8890 C 868.922 1.81561 0.727654 0
M  V30 8891 C 869.302 0.871604 1.92266 0
M  V30 8892 O 868.65 -0.0808232 2.28357 0
M  V30 8893 C 868.86 3.29922 1.13809 0
M  V30 8894 C 870.208 3.95531 1.54403 0
M  V30 8895 O 871.232 3.34215 1.23202 0
M  V30 8896 O 870.091 5.03535 2.12402 0
M  V30 8897 H 867.185 0.747462 0.353878 0
M  V30 8898 H 869.731 1.69688 -0.0200667 0
M  V30 8899 H 868.503 3.90253 0.286078 0
M  V30 8900 H 868.126 3.46775 1.94507 0
M  V30 8901 N 869.123 -0.277682 1.55134 0
M  V30 8902 C 870.363 -1.01761 1.77269 0
M  V30 8903 C 870.727 -1.83668 0.559465 0
M  V30 8904 O 871.928 -2.60597 0.658972 0
M  V30 8905 C 870.199 -1.88062 3.0392 0
M  V30 8906 S 871.758 -2.68383 3.47154 0
M  V30 8907 H 868.576 -0.342816 0.622895 0
M  V30 8908 H 871.178 -0.288514 1.93359 0
M  V30 8909 H 869.882 -1.26805 3.90319 0
M  V30 8910 H 869.413 -2.65299 2.90482 0
M  V30 8911 H 871.428 -3.90567 3.06059 0
M  V30 8912 N 870.601 -1.47988 -0.541979 0
M  V30 8913 C 871.829 -1.59034 -1.32347 0
M  V30 8914 C 872.244 -0.246123 -1.87189 0
M  V30 8915 O 871.601 0.762889 -1.6579 0
M  V30 8916 C 871.652 -2.62759 -2.48274 0
M  V30 8917 O 871.373 -3.91963 -1.95695 0
M  V30 8918 C 872.874 -2.84133 -3.4027 0
M  V30 8919 H 870.094 -0.536574 -0.402901 0
M  V30 8920 H 872.638 -1.93725 -0.655045 0
M  V30 8921 H 870.793 -2.3096 -3.11025 0
M  V30 8922 H 871.207 -4.48769 -2.7149 0
M  V30 8923 H 872.681 -3.60538 -4.17991 0
M  V30 8924 H 873.158 -1.92512 -3.9476 0
M  V30 8925 H 873.764 -3.17188 -2.83322 0
M  V30 8926 N 872.079 0.78992 -1.36375 0
M  V30 8927 C 873.327 1.54472 -1.30319 0
M  V30 8928 C 873.648 1.94647 0.117338 0
M  V30 8929 O 872.918 1.64906 1.05748 0
M  V30 8930 H 871.498 0.572879 -0.479394 0
M  V30 8931 H 874.16 0.941245 -1.70665 0
M  V30 8932 H 873.256 2.45252 -1.93024 0
M  V30 8933 N 873.557 1.20646 1.01402 0
M  V30 8934 C 874.467 0.973385 2.13453 0
M  V30 8935 C 875.483 -0.0715865 1.73853 0
M  V30 8936 O 876.659 0.116438 2.01063 0
M  V30 8937 C 873.724 0.531285 3.42605 0
M  V30 8938 C 872.785 1.64741 3.96433 0
M  V30 8939 C 872.018 1.22631 5.1942 0
M  V30 8940 O 872.241 0.0960891 5.70319 0
M  V30 8941 O 871.175 2.03474 5.66465 0
M  V30 8942 H 875.001 1.91164 2.35987 0
M  V30 8943 H 872.586 0.990553 1.11841 0
M  V30 8944 H 874.468 0.294095 4.20373 0
M  V30 8945 H 873.143 -0.378358 3.21481 0
M  V30 8946 H 872.05 1.93891 3.19933 0
M  V30 8947 H 873.383 2.53415 4.2195 0
M  V30 8948 N 875.035 -1.20752 1.01276 0
M  V30 8949 C 875.982 -2.234 0.579732 0
M  V30 8950 C 876.952 -1.61256 -0.398206 0
M  V30 8951 O 878.137 -1.8845 -0.29851 0
M  V30 8952 C 875.277 -3.45008 -0.0797006 0
M  V30 8953 C 874.39 -4.21597 0.942343 0
M  V30 8954 C 873.525 -5.30591 0.254364 0
M  V30 8955 C 872.564 -5.98919 1.26343 0
M  V30 8956 N 871.701 -6.99511 0.602384 0
M  V30 8957 H 876.541 -2.59801 1.45971 0
M  V30 8958 H 874.078 -1.27663 0.730787 0
M  V30 8959 H 876.036 -4.1444 -0.479125 0
M  V30 8960 H 874.666 -3.09312 -0.923354 0
M  V30 8961 H 873.718 -3.51268 1.45996 0
M  V30 8962 H 875.03 -4.68576 1.70992 0
M  V30 8963 H 874.184 -6.06368 -0.200763 0
M  V30 8964 H 872.923 -4.84639 -0.545553 0
M  V30 8965 H 871.928 -5.21906 1.72898 0
M  V30 8966 H 873.153 -6.46957 2.06456 0
M  V30 8967 H 871.099 -6.55759 -0.177734 0
M  V30 8968 H 871.016 -7.44597 1.30809 0
M  V30 8969 H 872.284 -7.79313 0.17072 0
M  V30 8970 N 876.513 -0.788492 -1.36457 0
M  V30 8971 C 877.762 -0.357052 -1.98515 0
M  V30 8972 C 878.075 1.0769 -1.63285 0
M  V30 8973 O 879.281 1.61057 -2.1857 0
M  V30 8974 C 877.737 -0.587449 -3.55073 0
M  V30 8975 C 877.345 -2.03276 -3.99228 0
M  V30 8976 C 879.089 -0.220468 -4.23927 0
M  V30 8977 C 876.996 -2.20987 -5.48561 0
M  V30 8978 H 875.926 -0.129762 -0.74275 0
M  V30 8979 H 878.577 -0.969995 -1.55767 0
M  V30 8980 H 876.959 0.0951918 -3.95886 0
M  V30 8981 H 878.133 -2.75173 -3.69617 0
M  V30 8982 H 876.448 -2.3579 -3.43208 0
M  V30 8983 H 879.045 -0.331085 -5.33674 0
M  V30 8984 H 879.388 0.831306 -4.07915 0
M  V30 8985 H 879.921 -0.856309 -3.88474 0
M  V30 8986 H 876.66 -3.24543 -5.69519 0
M  V30 8987 H 876.18 -1.53594 -5.79801 0
M  V30 8988 H 877.859 -2.01656 -6.14771 0
M  V30 8989 N 877.991 1.48044 -0.54043 0
M  V30 8990 C 879.238 2.02497 -0.0101567 0
M  V30 8991 C 879.566 1.41651 1.33286 0
M  V30 8992 O 878.821 0.555504 1.8765 0
M  V30 8993 C 879.12 3.57085 0.150008 0
M  V30 8994 C 878.786 4.36769 -1.11998 0
M  V30 8995 C 877.448 4.58261 -1.46801 0
M  V30 8996 C 879.8 4.82848 -1.96232 0
M  V30 8997 C 877.128 5.23079 -2.65717 0
M  V30 8998 C 879.48 5.48977 -3.14335 0
M  V30 8999 C 878.144 5.68705 -3.49472 0
M  V30 9000 H 877.414 0.740991 -0.00371661 0
M  V30 9001 H 880.061 1.77909 -0.708562 0
M  V30 9002 H 878.366 3.80572 0.931259 0
M  V30 9003 H 880.063 3.96851 0.575384 0
M  V30 9004 H 876.653 4.20309 -0.838957 0
M  V30 9005 H 880.837 4.66038 -1.70654 0
M  V30 9006 H 876.093 5.36549 -2.93129 0
M  V30 9007 H 880.267 5.83649 -3.79904 0
M  V30 9008 H 877.894 6.18703 -4.41713 0
M  V30 9009 N 879.47 0.276058 1.55163 0
M  V30 9010 C 880.881 -0.221516 1.85381 0
M  V30 9011 C 881.232 -1.55372 1.19808 0
M  V30 9012 O 880.357 -2.10855 0.486742 0
M  V30 9013 C 880.952 -0.408706 3.36326 0
M  V30 9014 C 879.511 -0.850512 3.66665 0
M  V30 9015 C 878.658 0.055656 2.77244 0
M  V30 9016 H 881.609 0.497819 1.5069 0
M  V30 9017 H 881.63 -1.24711 3.59482 0
M  V30 9018 H 881.142 0.561052 3.84023 0
M  V30 9019 H 879.243 -1.83171 3.24468 0
M  V30 9020 H 879.356 -0.687181 4.74146 0
M  V30 9021 H 877.72 -0.460819 2.50497 0
M  V30 9022 H 878.503 1.02131 3.27756 0
M  V30 9023 N 880.948 -1.576 0.00335426 0
M  V30 9024 C 882.196 -1.90336 -0.679446 0
M  V30 9025 C 882.517 -0.877777 -1.74127 0
M  V30 9026 O 881.787 0.0843585 -1.95718 0
M  V30 9027 H 880.367 -0.702509 -0.253948 0
M  V30 9028 H 883.029 -1.94848 0.0450731 0
M  V30 9029 H 882.125 -2.90197 -1.14857 0
M  V30 9030 N 882.426 0.269451 -1.5528 0
M  V30 9031 C 883.674 0.998604 -1.75705 0
M  V30 9032 C 883.995 1.86691 -0.563175 0
M  V30 9033 O 883.265 1.91305 0.421811 0
M  V30 9034 H 881.845 0.371698 -0.647958 0
M  V30 9035 H 884.507 0.292826 -1.92688 0
M  V30 9036 H 883.603 1.63348 -2.6594 0
M  V30 9037 N 883.904 1.48273 0.534124 0
M  V30 9038 C 884.836 1.5857 1.65494 0
M  V30 9039 C 885.849 0.470266 1.5586 0
M  V30 9040 O 887.038 0.740928 1.62396 0
M  V30 9041 C 884.138 1.49554 3.04117 0
M  V30 9042 C 883.311 2.76066 3.39273 0
M  V30 9043 C 882.37 2.60562 4.57159 0
M  V30 9044 O 881.396 3.34438 4.60587 0
M  V30 9045 N 882.598 1.69906 5.55079 0
M  V30 9046 H 885.363 2.55226 1.57099 0
M  V30 9047 H 882.924 1.44944 0.721303 0
M  V30 9048 H 884.916 1.36882 3.80848 0
M  V30 9049 H 883.486 0.608895 3.06613 0
M  V30 9050 H 882.706 3.03332 2.51761 0
M  V30 9051 H 883.994 3.60006 3.59546 0
M  V30 9052 H 883.392 1.09079 5.55084 0
M  V30 9053 H 881.949 1.63175 6.31044 0
M  V30 9054 N 885.382 -0.782676 1.36792 0
M  V30 9055 C 886.607 -1.57676 1.34733 0
M  V30 9056 C 887.032 -1.87979 -0.0675253 0
M  V30 9057 O 886.39 -1.48404 -1.04144 0
M  V30 9058 C 886.438 -2.87047 2.18257 0
M  V30 9059 O 885.542 -3.80946 1.57969 0
M  V30 9060 H 884.883 -0.478034 0.460846 0
M  V30 9061 H 887.413 -0.969578 1.80168 0
M  V30 9062 H 887.423 -3.36254 2.31079 0
M  V30 9063 H 886.098 -2.64319 3.21104 0
M  V30 9064 H 884.675 -3.39558 1.54126 0
M  V30 9065 N 886.86 -1.21182 -1.00761 0
M  V30 9066 C 887.77 -0.984691 -2.12934 0
M  V30 9067 C 888.786 0.0623657 -1.73888 0
M  V30 9068 O 889.962 -0.1271 -2.00999 0
M  V30 9069 C 887.027 -0.549447 -3.42319 0
M  V30 9070 C 886.088 -1.66841 -3.95553 0
M  V30 9071 C 885.321 -1.25384 -5.18763 0
M  V30 9072 O 885.544 -0.126333 -5.7026 0
M  V30 9073 O 884.478 -2.06475 -5.65377 0
M  V30 9074 H 888.304 -1.92413 -2.3497 0
M  V30 9075 H 885.889 -0.99647 -1.11314 0
M  V30 9076 H 887.771 -0.316384 -4.20211 0
M  V30 9077 H 886.446 0.361304 -3.21677 0
M  V30 9078 H 885.353 -1.95585 -3.189 0
M  V30 9079 H 886.686 -2.55649 -4.206 0
M  V30 9080 N 888.338 1.20213 -1.01915 0
M  V30 9081 C 889.288 2.20957 -0.562327 0
M  V30 9082 C 890.272 1.56258 0.383704 0
M  V30 9083 O 891.464 1.75794 0.206255 0
M  V30 9084 C 888.593 3.43167 0.0954035 0
M  V30 9085 C 887.679 4.15028 -0.872487 0
M  V30 9086 N 888.07 4.63231 -2.03103 0
M  V30 9087 C 886.368 4.4057 -0.69385 0
M  V30 9088 C 887.069 5.18307 -2.64069 0
M  V30 9089 N 886.045 5.08522 -1.9211 0
M  V30 9090 H 889.847 2.55894 -1.44553 0
M  V30 9091 H 887.361 1.36178 -0.884831 0
M  V30 9092 H 889.358 4.14569 0.440232 0
M  V30 9093 H 888.018 3.09734 0.974413 0
M  V30 9094 H 889.029 4.58365 -2.41086 0
M  V30 9095 H 885.706 4.17276 0.136889 0
M  V30 9096 H 887.096 5.65961 -3.6213 0
M  V30 9097 N 889.816 0.795718 1.36037 0
M  V30 9098 C 891.232 0.478145 1.52269 0
M  V30 9099 C 891.432 -1.0025 1.74792 0
M  V30 9100 O 890.488 -1.78783 1.78305 0
M  V30 9101 C 891.801 1.31406 2.70468 0
M  V30 9102 C 893.349 1.3084 2.84341 0
M  V30 9103 C 893.824 2.12819 4.05551 0
M  V30 9104 N 895.315 2.10298 4.12709 0
M  V30 9105 C 896.05 2.70495 5.05589 0
M  V30 9106 N 895.546 3.39576 6.03871 0
M  V30 9107 N 897.339 2.60195 4.98252 0
M  V30 9108 H 889.49 1.75477 1.19673 0
M  V30 9109 H 891.753 0.74627 0.584624 0
M  V30 9110 H 891.459 2.36435 2.60368 0
M  V30 9111 H 891.333 0.959726 3.64786 0
M  V30 9112 H 893.72 0.266003 2.93899 0
M  V30 9113 H 893.801 1.70254 1.90912 0
M  V30 9114 H 893.445 3.17093 3.96755 0
M  V30 9115 H 893.375 1.70772 4.98141 0
M  V30 9116 H 895.866 1.60026 3.42345 0
M  V30 9117 H 896.179 3.82823 6.71317 0
M  V30 9118 H 894.524 3.43679 6.04077 0
M  V30 9119 H 897.715 2.05823 4.20422 0
M  V30 9120 H 897.888 3.074 5.70447 0
M  V30 9121 N 891.294 -1.47756 0.548274 0
M  V30 9122 C 892.71 -1.58247 0.207401 0
M  V30 9123 C 892.91 -1.54804 -1.28988 0
M  V30 9124 O 891.966 -1.44673 -2.06944 0
M  V30 9125 C 893.279 -2.89129 0.826142 0
M  V30 9126 C 894.827 -3.02695 0.79655 0
M  V30 9127 C 895.302 -4.36264 1.3942 0
M  V30 9128 N 896.793 -4.42877 1.35698 0
M  V30 9129 C 897.528 -5.44773 1.78913 0
M  V30 9130 N 897.024 -6.53528 2.29942 0
M  V30 9131 N 898.817 -5.35765 1.70038 0
M  V30 9132 H 890.968 -1.48236 1.52117 0
M  V30 9133 H 893.231 -0.704957 0.633829 0
M  V30 9134 H 892.937 -2.97358 1.87806 0
M  V30 9135 H 892.811 -3.75891 0.313916 0
M  V30 9136 H 895.198 -2.94067 -0.246655 0
M  V30 9137 H 895.279 -2.17496 1.34644 0
M  V30 9138 H 894.923 -4.45646 2.43642 0
M  V30 9139 H 894.853 -5.20179 0.819827 0
M  V30 9140 H 897.344 -3.64874 0.983623 0
M  V30 9141 H 897.657 -7.27441 2.60863 0
M  V30 9142 H 896.002 -6.54442 2.33947 0
M  V30 9143 H 899.193 -4.49699 1.29955 0
M  V30 9144 H 899.366 -6.1504 2.04035 0
M  V30 9145 N 892.772 -0.284283 -1.55015 0
M  V30 9146 C 893.682 0.60906 -2.26556 0
M  V30 9147 C 894.698 1.16246 -1.29472 0
M  V30 9148 O 895.874 1.1908 -1.62425 0
M  V30 9149 C 892.939 1.77246 -2.97968 0
M  V30 9150 C 892 1.25482 -4.10552 0
M  V30 9151 C 891.233 2.36277 -4.78549 0
M  V30 9152 O 891.456 3.55829 -4.45805 0
M  V30 9153 O 890.39 2.03914 -5.66306 0
M  V30 9154 H 894.216 0.0292298 -3.03686 0
M  V30 9155 H 891.801 -0.0513466 -1.49312 0
M  V30 9156 H 893.683 2.45062 -3.42815 0
M  V30 9157 H 892.358 2.33921 -2.23747 0
M  V30 9158 H 891.265 0.542859 -3.7014 0
M  V30 9159 H 892.598 0.733708 -4.86701 0
M  V30 9160 N 894.251 1.57596 -0.0117121 0
M  V30 9161 C 895.497 1.91355 0.671661 0
M  V30 9162 C 895.83 0.886818 1.72769 0
M  V30 9163 O 895.105 -0.0928813 1.94278 0
M  V30 9164 C 895.388 3.35657 1.30409 0
M  V30 9165 C 895.241 4.49055 0.2588 0
M  V30 9166 C 896.56 3.79595 2.22701 0
M  V30 9167 H 893.679 0.695893 0.242698 0
M  V30 9168 H 896.321 1.89887 -0.0654071 0
M  V30 9169 H 894.471 3.37038 1.9323 0
M  V30 9170 H 896.143 4.59809 -0.370631 0
M  V30 9171 H 894.386 4.31785 -0.417672 0
M  V30 9172 H 895.057 5.4701 0.740578 0
M  V30 9173 H 897.533 3.7984 1.69885 0
M  V30 9174 H 896.409 4.81292 2.63912 0
M  V30 9175 H 896.67 3.14118 3.11098 0
M  V30 9176 N 895.729 -0.261212 1.5542 0
M  V30 9177 C 896.661 -1.34571 1.85535 0
M  V30 9178 C 897.674 -1.44979 0.740612 0
M  V30 9179 O 898.863 -1.46584 1.01859 0
M  V30 9180 C 895.963 -2.7258 2.01378 0
M  V30 9181 C 895.136 -2.84618 3.32131 0
M  V30 9182 C 894.195 -4.03379 3.37893 0
M  V30 9183 O 893.221 -3.93581 4.11197 0
M  V30 9184 N 894.423 -5.15893 2.66148 0
M  V30 9185 H 897.188 -1.09078 2.79145 0
M  V30 9186 H 894.749 -0.451327 1.55482 0
M  V30 9187 H 896.741 -3.50342 2.0259 0
M  V30 9188 H 895.311 -2.90844 1.14579 0
M  V30 9189 H 894.531 -1.93647 3.43358 0
M  V30 9190 H 895.819 -2.896 4.18341 0
M  V30 9191 H 895.217 -5.26743 2.06297 0
M  V30 9192 H 893.774 -5.91842 2.73069 0
M  V30 9193 N 897.207 -1.48554 -0.526253 0
M  V30 9194 C 898.454 -1.56761 -1.28188 0
M  V30 9195 C 898.782 -0.24315 -1.92974 0
M  V30 9196 O 898.037 0.766883 -1.80048 0
M  V30 9197 C 898.336 -2.65739 -2.38993 0
M  V30 9198 C 898.002 -4.08057 -1.91834 0
M  V30 9199 C 896.664 -4.46792 -1.78691 0
M  V30 9200 C 899.016 -4.9723 -1.56242 0
M  V30 9201 C 896.344 -5.72501 -1.28296 0
M  V30 9202 C 898.696 -6.23432 -1.07309 0
M  V30 9203 C 897.36 -6.6102 -0.927853 0
M  V30 9204 H 896.63 -0.573631 -0.469072 0
M  V30 9205 H 899.277 -1.82287 -0.586842 0
M  V30 9206 H 897.582 -2.34088 -3.14181 0
M  V30 9207 H 899.279 -2.69304 -2.97113 0
M  V30 9208 H 895.869 -3.77469 -2.03016 0
M  V30 9209 H 900.053 -4.67979 -1.65255 0
M  V30 9210 H 895.309 -6.00345 -1.15742 0
M  V30 9211 H 899.483 -6.91923 -0.788412 0
M  V30 9212 H 897.11 -7.58314 -0.535162 0
M  V30 9213 N 898.685 0.775411 -1.37205 0
M  V30 9214 C 900.101 1.07546 -1.17924 0
M  V30 9215 C 900.301 2.01496 -0.0128897 0
M  V30 9216 O 899.357 2.44039 0.64816 0
M  V30 9217 C 900.67 1.67647 -2.49629 0
M  V30 9218 C 902.218 1.79923 -2.56119 0
M  V30 9219 C 902.693 2.43438 -3.87946 0
M  V30 9220 N 904.184 2.50893 -3.89368 0
M  V30 9221 C 904.919 3.00881 -4.88117 0
M  V30 9222 N 904.415 3.5107 -5.97262 0
M  V30 9223 N 906.208 2.99722 -4.75524 0
M  V30 9224 H 898.359 0.151524 -2.11859 0
M  V30 9225 H 900.622 0.129845 -0.939066 0
M  V30 9226 H 900.328 1.06082 -3.3532 0
M  V30 9227 H 900.202 2.66988 -2.66453 0
M  V30 9228 H 902.589 2.40621 -1.70838 0
M  V30 9229 H 902.67 0.793482 -2.43182 0
M  V30 9230 H 902.314 1.8338 -4.73639 0
M  V30 9231 H 902.244 3.44611 -3.98184 0
M  V30 9232 H 904.735 2.1537 -3.10522 0
M  V30 9233 H 905.048 3.87604 -6.68568 0
M  V30 9234 H 903.393 3.49184 -6.00912 0
M  V30 9235 H 906.584 2.5981 -3.8938 0
M  V30 9236 H 906.757 3.38369 -5.52639 0
M  V30 9237 N 900.163 1.21714 1.00117 0
M  V30 9238 C 901.412 1.03087 1.73367 0
M  V30 9239 C 901.725 -0.435532 1.90689 0
M  V30 9240 O 902.931 -0.741291 2.61184 0
M  V30 9241 C 901.387 1.79593 3.11888 0
M  V30 9242 C 900.995 3.30428 3.02525 0
M  V30 9243 C 902.739 1.69386 3.89241 0
M  V30 9244 C 900.646 3.99408 4.3615 0
M  V30 9245 H 899.576 0.382117 0.650002 0
M  V30 9246 H 902.227 1.45486 1.11831 0
M  V30 9247 H 900.609 1.29988 3.74058 0
M  V30 9248 H 901.783 3.87364 2.49571 0
M  V30 9249 H 900.098 3.4122 2.38659 0
M  V30 9250 H 902.695 2.18251 4.8813 0
M  V30 9251 H 903.038 0.652773 4.1115 0
M  V30 9252 H 903.571 2.16489 3.33733 0
M  V30 9253 H 900.31 5.03735 4.19442 0
M  V30 9254 H 899.83 3.47261 4.8905 0
M  V30 9255 H 901.509 4.04537 5.04934 0
M  V30 9256 N 901.641 -1.19671 1.02551 0
M  V30 9257 C 902.604 -2.20987 0.608055 0
M  V30 9258 C 903.604 -1.5745 -0.326534 0
M  V30 9259 O 904.794 -1.73827 -0.114003 0
M  V30 9260 C 901.926 -3.4072 -0.11074 0
M  V30 9261 H 903.119 -2.59434 1.50446 0
M  V30 9262 H 900.672 -1.3329 0.816307 0
M  V30 9263 H 901.407 -3.07787 -1.02165 0
M  V30 9264 H 901.192 -3.88069 0.560772 0
M  V30 9265 H 902.682 -4.15776 -0.389848 0
M  V30 9266 N 903.119 -0.802921 -1.35613 0
M  V30 9267 C 904.367 -0.380822 -1.9848 0
M  V30 9268 C 904.688 1.05464 -1.6402 0
M  V30 9269 O 903.958 1.72908 -0.920854 0
M  V30 9270 H 902.538 -0.137824 -0.734176 0
M  V30 9271 H 905.2 -1.02795 -1.65587 0
M  V30 9272 H 904.296 -0.483565 -3.08331 0
M  V30 9273 N 904.597 1.47463 -0.556102 0
M  V30 9274 C 905.845 2.02075 -0.0315712 0
M  V30 9275 C 906.166 1.43292 1.32259 0
M  V30 9276 O 905.436 0.60771 1.86236 0
M  V30 9277 H 904.016 0.74695 -0.0086816 0
M  V30 9278 H 906.678 1.80879 -0.725859 0
M  V30 9279 H 905.774 3.12047 0.0573538 0
M  V30 9280 N 906.075 0.2925 1.54862 0
M  V30 9281 C 907.486 -0.201841 1.85606 0
M  V30 9282 C 907.837 -1.54093 1.21449 0
M  V30 9283 O 906.962 -2.10327 0.509079 0
M  V30 9284 C 907.557 -0.373011 3.3674 0
M  V30 9285 C 906.116 -0.811574 3.67547 0
M  V30 9286 C 905.263 0.0850583 2.7717 0
M  V30 9287 H 908.214 0.513774 1.50153 0
M  V30 9288 H 908.235 -1.20892 3.60785 0
M  V30 9289 H 907.747 0.601751 3.83407 0
M  V30 9290 H 905.848 -1.79719 3.26392 0
M  V30 9291 H 905.961 -0.636853 4.74848 0
M  V30 9292 H 904.325 -0.434224 2.50971 0
M  V30 9293 H 905.108 1.05602 3.26654 0
M  V30 9294 N 907.553 -1.57587 0.0200696 0
M  V30 9295 C 908.801 -1.91046 -0.65922 0
M  V30 9296 C 909.122 -0.896197 -1.73186 0
M  V30 9297 O 908.392 0.0635952 -1.95797 0
M  V30 9298 H 906.972 -0.705163 -0.246483 0
M  V30 9299 H 909.634 -1.94789 0.0657368 0
M  V30 9300 H 908.73 -2.91399 -1.11773 0
M  V30 9301 N 909.032 0.252966 -1.55557 0
M  V30 9302 C 910.278 0.979092 -1.78284 0
M  V30 9303 C 910.633 1.83194 -0.588009 0
M  V30 9304 O 909.926 1.86965 0.418899 0
M  V30 9305 C 910.12 1.87785 -3.04091 0
M  V30 9306 C 909.949 1.11349 -4.35697 0
M  V30 9307 C 908.719 0.821038 -4.98585 0
M  V30 9308 C 910.917 0.494039 -5.11922 0
M  V30 9309 N 908.899 0.0319767 -6.13892 0
M  V30 9310 C 910.27 -0.159888 -6.19794 0
M  V30 9311 C 912.325 0.403894 -4.96259 0
M  V30 9312 C 911.028 -0.895295 -7.13706 0
M  V30 9313 C 913.054 -0.317968 -5.90545 0
M  V30 9314 C 912.416 -0.960555 -6.9782 0
M  V30 9315 H 908.515 0.339586 -0.704419 0
M  V30 9316 H 911.099 0.252801 -1.93052 0
M  V30 9317 H 909.27 2.57623 -2.90663 0
M  V30 9318 H 911.002 2.53908 -3.15139 0
M  V30 9319 H 907.757 1.13132 -4.59889 0
M  V30 9320 H 908.181 -0.35047 -6.76092 0
M  V30 9321 H 912.823 0.886366 -4.13405 0
M  V30 9322 H 910.541 -1.38939 -7.96066 0
M  V30 9323 H 914.127 -0.388302 -5.80503 0
M  V30 9324 H 913.007 -1.51022 -7.69521 0
M  V30 9325 N 910.51 1.48831 0.518367 0
M  V30 9326 C 911.787 1.47933 1.27966 0
M  V30 9327 C 912.167 0.197393 2.10175 0
M  V30 9328 O 911.515 -0.820656 2.13255 0
M  V30 9329 C 911.725 2.74816 2.15121 0
M  V30 9330 C 913.073 3.23613 2.74881 0
M  V30 9331 O 914.097 2.75814 2.254 0
M  V30 9332 O 912.956 4.06818 3.64913 0
M  V30 9333 H 910.05 0.591316 0.578164 0
M  V30 9334 H 912.596 1.61077 0.534065 0
M  V30 9335 H 911.368 3.59621 1.54234 0
M  V30 9336 H 910.991 2.64449 2.96905 0
M  V30 9337 N 911.988 -0.768124 1.37614 0
M  V30 9338 C 913.399 -1.34462 1.29525 0
M  V30 9339 C 913.75 -1.96121 -0.0555168 0
M  V30 9340 O 912.875 -1.94069 -0.957406 0
M  V30 9341 C 913.47 -2.44475 2.34558 0
M  V30 9342 C 912.029 -2.97883 2.30093 0
M  V30 9343 C 911.176 -1.71131 2.18196 0
M  V30 9344 H 914.127 -0.568103 1.48183 0
M  V30 9345 H 914.148 -3.24047 1.99434 0
M  V30 9346 H 913.66 -1.99568 3.32858 0
M  V30 9347 H 911.761 -3.47156 1.35328 0
M  V30 9348 H 911.874 -3.53251 3.23652 0
M  V30 9349 H 910.238 -1.94197 1.64802 0
M  V30 9350 H 911.021 -1.28323 3.18415 0
M  V30 9351 N 913.466 -1.22244 -0.994698 0
M  V30 9352 C 914.691 -1.07299 -1.77487 0
M  V30 9353 C 915.116 0.372302 -1.84379 0
M  V30 9354 O 914.474 1.2689 -1.29494 0
M  V30 9355 C 914.522 -1.68675 -3.18718 0
M  V30 9356 O 913.626 -0.939202 -4.01563 0
M  V30 9357 H 912.967 -0.376979 -0.546611 0
M  V30 9358 H 915.497 -1.62003 -1.24965 0
M  V30 9359 H 915.507 -1.73324 -3.69354 0
M  V30 9360 H 914.182 -2.73849 -3.13017 0
M  V30 9361 H 912.759 -0.968583 -3.60101 0
M  V30 9362 N 914.944 1.19125 -1.03184 0
M  V30 9363 C 915.892 2.24492 -0.608781 0
M  V30 9364 C 916.886 1.65529 0.360065 0
M  V30 9365 O 918.092 1.78546 0.22832 0
M  V30 9366 H 914.467 0.73048 -0.178616 0
M  V30 9367 H 916.438 2.5749 -1.50803 0
M  V30 9368 C 915.187 3.47693 0.0215126 0
M  V30 9369 H 914.51 3.93354 -0.715024 0
M  V30 9370 H 915.95 4.23072 0.280429 0
M  V30 9371 C 914.409 3.12088 1.26896 0
M  V30 9372 O 914.939 3.25013 2.36071 0
M  V30 9373 N 913.145 2.66494 1.15886 0
M  V30 9374 H 912.692 2.56176 0.270463 0
M  V30 9375 H 912.65 2.43042 1.99444 0
M  V30 9376 N 916.422 0.810101 1.35185 0
M  V30 9377 C 917.699 0.315235 1.93043 0
M  V30 9378 C 918.079 -1.19567 1.73974 0
M  V30 9379 O 917.427 -1.99682 1.11083 0
M  V30 9380 C 917.637 0.730492 3.41269 0
M  V30 9381 C 918.985 0.721985 4.18417 0
M  V30 9382 O 920.009 0.672258 3.49799 0
M  V30 9383 O 918.868 0.783535 5.40854 0
M  V30 9384 H 915.962 0.0832774 0.822796 0
M  V30 9385 H 918.508 0.894034 1.4424 0
M  V30 9386 H 917.28 1.77169 3.48894 0
M  V30 9387 H 916.903 0.12669 3.97398 0
M  V30 9388 N 917.9 -1.47166 0.563914 0
M  V30 9389 C 919.146 -2.03337 0.0506932 0
M  V30 9390 C 919.501 -1.42976 -1.28746 0
M  V30 9391 O 918.794 -0.578508 -1.82658 0
M  V30 9392 C 918.988 -3.57279 -0.0931797 0
M  V30 9393 C 918.817 -4.32567 1.22948 0
M  V30 9394 C 917.587 -4.72206 1.79859 0
M  V30 9395 C 919.785 -4.67282 2.14829 0
M  V30 9396 N 917.767 -5.32166 3.0606 0
M  V30 9397 C 919.138 -5.27615 3.25611 0
M  V30 9398 C 921.193 -4.49211 2.14741 0
M  V30 9399 C 919.896 -5.71784 4.36412 0
M  V30 9400 C 921.922 -4.94384 3.24559 0
M  V30 9401 C 921.284 -5.54771 4.34061 0
M  V30 9402 H 917.383 -0.779627 0.0608761 0
M  V30 9403 H 919.967 -1.79563 0.75268 0
M  V30 9404 H 918.138 -3.80806 -0.764301 0
M  V30 9405 H 919.87 -4.0009 -0.609075 0
M  V30 9406 H 916.625 -4.54372 1.33577 0
M  V30 9407 H 917.049 -5.66684 3.70404 0
M  V30 9408 H 921.691 -4.01875 1.31362 0
M  V30 9409 H 919.409 -6.18108 5.20546 0
M  V30 9410 H 922.995 -4.82167 3.25586 0
M  V30 9411 H 921.875 -5.89087 5.17635 0
M  V30 9412 N 919.378 -0.300708 -1.54705 0
M  V30 9413 C 920.603 0.314073 -2.05008 0
M  V30 9414 C 921.028 1.46759 -1.17657 0
M  V30 9415 O 920.386 1.80398 -0.180598 0
M  V30 9416 C 920.434 0.748243 -3.52752 0
M  V30 9417 O 919.538 1.85305 -3.68424 0
M  V30 9418 H 918.879 0.0610139 -0.661191 0
M  V30 9419 H 921.409 -0.442467 -1.99758 0
M  V30 9420 H 921.419 1.03713 -3.94598 0
M  V30 9421 H 920.094 -0.095573 -4.1579 0
M  V30 9422 H 918.671 1.56473 -3.38483 0
M  V30 9423 N 920.856 1.57574 -0.0284266 0
M  V30 9424 C 922.103 1.91772 0.650364 0
M  V30 9425 C 922.431 0.904769 1.72175 0
M  V30 9426 O 921.686 -0.0864038 1.95509 0
M  V30 9427 C 921.985 3.32699 1.3056 0
M  V30 9428 C 921.651 4.49423 0.364658 0
M  V30 9429 C 920.313 4.81084 0.105672 0
M  V30 9430 C 922.665 5.20439 -0.28151 0
M  V30 9431 C 919.993 5.81119 -0.8073 0
M  V30 9432 C 922.345 6.21449 -1.18253 0
M  V30 9433 C 921.009 6.51551 -1.45042 0
M  V30 9434 H 920.279 0.701744 0.237985 0
M  V30 9435 H 922.926 1.91288 -0.0900448 0
M  V30 9436 H 921.231 3.29441 2.12075 0
M  V30 9437 H 922.928 3.5643 1.83736 0
M  V30 9438 H 919.518 4.24703 0.576692 0
M  V30 9439 H 923.702 4.9621 -0.0944806 0
M  V30 9440 H 918.958 6.02788 -1.02256 0
M  V30 9441 H 923.132 6.75597 -1.68942 0
M  V30 9442 H 920.759 7.28882 -2.15951 0
M  V30 9443 N 922.334 -0.244713 1.55689 0
M  V30 9444 C 923.266 -1.32595 1.86952 0
M  V30 9445 C 924.279 -1.44185 0.755948 0
M  V30 9446 O 925.468 -1.45496 1.03408 0
M  V30 9447 C 922.568 -2.70429 2.04258 0
M  V30 9448 C 921.741 -2.8108 3.35131 0
M  V30 9449 C 920.8 -3.99773 3.42152 0
M  V30 9450 O 919.826 -3.89197 4.15348 0
M  V30 9451 N 921.028 -5.13041 2.71604 0
M  V30 9452 H 923.793 -1.06111 2.80287 0
M  V30 9453 H 921.354 -0.434811 1.55952 0
M  V30 9454 H 923.346 -3.48173 2.06295 0
M  V30 9455 H 921.916 -2.89612 1.17658 0
M  V30 9456 H 921.136 -1.89994 3.45392 0
M  V30 9457 H 922.424 -2.85147 4.21389 0
M  V30 9458 H 921.822 -5.24525 2.11872 0
M  V30 9459 H 920.379 -5.88912 2.79331 0
M  V30 9460 N 923.813 -1.49104 -0.510467 0
M  V30 9461 C 925.061 -1.578 -1.26268 0
M  V30 9462 C 925.382 -0.262349 -1.93227 0
M  V30 9463 O 924.652 0.717624 -1.82283 0
M  V30 9464 H 923.232 -0.581387 -0.46904 0
M  V30 9465 H 925.894 -1.85678 -0.592423 0
M  V30 9466 H 924.99 -2.36919 -2.03165 0
M  V30 9467 N 925.291 0.760815 -1.38019 0
M  V30 9468 C 926.54 1.51506 -1.3315 0
M  V30 9469 C 926.853 1.95444 0.0782124 0
M  V30 9470 O 928.059 2.70352 0.249418 0
M  V30 9471 C 926.515 2.73636 -2.33776 0
M  V30 9472 C 926.123 2.36753 -3.80332 0
M  V30 9473 C 927.867 3.51548 -2.37937 0
M  V30 9474 C 925.774 3.55451 -4.72661 0
M  V30 9475 H 924.704 0.568844 -0.494907 0
M  V30 9476 H 927.355 0.832343 -1.63537 0
M  V30 9477 H 925.737 3.43852 -1.96422 0
M  V30 9478 H 926.911 1.7425 -4.26584 0
M  V30 9479 H 925.226 1.71991 -3.7922 0
M  V30 9480 H 927.823 4.39791 -3.04119 0
M  V30 9481 H 928.166 3.9219 -1.39617 0
M  V30 9482 H 928.699 2.88339 -2.74054 0
M  V30 9483 H 925.438 3.19882 -5.7215 0
M  V30 9484 H 924.958 4.17022 -4.31107 0
M  V30 9485 H 926.637 4.22125 -4.90326 0
M  V30 9486 N 926.769 1.22769 0.988202 0
M  V30 9487 C 928.017 1.05301 1.725 0
M  V30 9488 C 928.338 -0.412103 1.90596 0
M  V30 9489 O 927.608 -1.29606 1.46898 0
M  V30 9490 H 926.188 0.386658 0.639144 0
M  V30 9491 H 928.85 1.54359 1.18993 0
M  V30 9492 H 927.946 1.53465 2.71763 0
M  V30 9493 N 928.247 -1.18576 1.03814 0
M  V30 9494 C 929.195 -2.24166 0.620678 0
M  V30 9495 C 930.189 -1.65718 -0.351282 0
M  V30 9496 O 931.395 -1.78665 -0.218848 0
M  V30 9497 H 927.77 -0.729522 0.182487 0
M  V30 9498 H 929.741 -2.56686 1.52166 0
M  V30 9499 C 928.49 -3.477 -0.00307331 0
M  V30 9500 H 927.813 -3.92969 0.735874 0
M  V30 9501 H 929.253 -4.23214 -0.257988 0
M  V30 9502 C 927.712 -3.12757 -1.2524 0
M  V30 9503 O 928.242 -3.26261 -2.34344 0
M  V30 9504 N 926.448 -2.67104 -1.14471 0
M  V30 9505 H 925.995 -2.56316 -0.256873 0
M  V30 9506 H 925.953 -2.44096 -1.98153 0
M  V30 9507 N 929.725 -0.817259 -1.34754 0
M  V30 9508 C 930.635 -0.236946 -2.334 0
M  V30 9509 C 931.651 0.625685 -1.62361 0
M  V30 9510 O 932.827 0.534921 -1.94166 0
M  V30 9511 C 929.892 0.596215 -3.41535 0
M  V30 9512 C 928.953 -0.288154 -4.28332 0
M  V30 9513 C 928.186 0.505337 -5.31302 0
M  V30 9514 O 928.409 1.73912 -5.43241 0
M  V30 9515 O 927.343 -0.109374 -6.01801 0
M  V30 9516 H 931.169 -1.05327 -2.84851 0
M  V30 9517 H 928.754 -0.579275 -1.37713 0
M  V30 9518 H 930.636 1.07041 -4.07578 0
M  V30 9519 H 929.311 1.38997 -2.92338 0
M  V30 9520 H 928.218 -0.809724 -3.65232 0
M  V30 9521 H 929.551 -1.04612 -4.80955 0
M  V30 9522 N 931.203 1.46865 -0.571711 0
M  V30 9523 C 932.133 2.3298 0.155795 0
M  V30 9524 C 933.114 1.44678 0.894553 0
M  V30 9525 O 934.299 1.73513 0.872176 0
M  V30 9526 C 931.429 3.26745 1.17708 0
M  V30 9527 C 930.383 4.24401 0.553863 0
M  V30 9528 C 929.709 5.07595 1.68083 0
M  V30 9529 C 931.009 5.19884 -0.501827 0
M  V30 9530 H 932.703 2.94056 -0.563176 0
M  V30 9531 H 930.249 1.41402 -0.27228 0
M  V30 9532 H 932.202 3.85838 1.6943 0
M  V30 9533 H 930.926 2.63753 1.92618 0
M  V30 9534 H 929.585 3.66554 0.057815 0
M  V30 9535 H 929.233 4.40996 2.41933 0
M  V30 9536 H 928.933 5.73722 1.26953 0
M  V30 9537 H 930.457 5.6955 2.20103 0
M  V30 9538 H 931.871 5.73257 -0.0701057 0
M  V30 9539 H 930.268 5.94293 -0.832815 0
M  V30 9540 H 931.338 4.64482 -1.39229 0
M  V30 9541 N 932.681 0.308908 1.54543 0
M  V30 9542 C 933.644 -0.550857 2.22482 0
M  V30 9543 C 934.644 -1.0551 1.21344 0
M  V30 9544 O 935.834 -0.949866 1.46025 0
M  V30 9545 C 932.966 -1.76354 2.9174 0
M  V30 9546 H 934.159 0.0428395 2.99869 0
M  V30 9547 H 931.712 0.059825 1.56185 0
M  V30 9548 H 932.447 -2.39686 2.18451 0
M  V30 9549 H 932.232 -1.40954 3.65889 0
M  V30 9550 H 933.722 -2.37417 3.43545 0
M  V30 9551 N 934.159 -1.57557 0.0367827 0
M  V30 9552 C 935.57 -1.79853 -0.500971 0
M  V30 9553 C 935.921 -0.947749 -1.71791 0
M  V30 9554 O 935.046 -0.160287 -2.15806 0
M  V30 9555 C 935.641 -3.26193 -0.915626 0
M  V30 9556 C 934.2 -3.49457 -1.39845 0
M  V30 9557 C 933.347 -2.74864 -0.366784 0
M  V30 9558 H 936.298 -1.56509 0.262768 0
M  V30 9559 H 936.319 -3.36324 -1.7795 0
M  V30 9560 H 935.831 -3.88089 -0.0297227 0
M  V30 9561 H 933.932 -2.92823 -2.30402 0
M  V30 9562 H 934.045 -4.58172 -1.40054 0
M  V30 9563 H 932.409 -2.4057 -0.836554 0
M  V30 9564 H 933.192 -3.39479 0.510785 0
M  V30 9565 N 935.637 0.236453 -1.55816 0
M  V30 9566 C 936.6 1.27633 -1.90375 0
M  V30 9567 C 937.6 1.40557 -0.781048 0
M  V30 9568 O 938.79 1.39078 -1.04895 0
M  V30 9569 C 935.922 2.65247 -2.14142 0
M  V30 9570 H 937.115 0.982019 -2.83366 0
M  V30 9571 H 934.668 0.476215 -1.48869 0
M  V30 9572 H 935.403 2.99801 -1.23653 0
M  V30 9573 H 935.188 2.57246 -2.95917 0
M  V30 9574 H 936.678 3.40313 -2.42026 0
M  V30 9575 N 937.115 1.49373 0.502552 0
M  V30 9576 C 938.526 1.52 1.0841 0
M  V30 9577 C 938.877 0.305317 1.9381 0
M  V30 9578 O 938.002 -0.585023 2.08342 0
M  V30 9579 C 938.597 2.75437 1.97281 0
M  V30 9580 C 937.156 2.80848 2.50602 0
M  V30 9581 C 936.303 2.45894 1.28186 0
M  V30 9582 H 939.254 1.56092 0.286533 0
M  V30 9583 H 939.275 2.55511 2.81947 0
M  V30 9584 H 938.787 3.63827 1.35098 0
M  V30 9585 H 936.888 1.96735 3.16427 0
M  V30 9586 H 937.001 3.82979 2.8786 0
M  V30 9587 H 935.365 1.97639 1.60657 0
M  V30 9588 H 936.148 3.36556 0.677139 0
M  V30 9589 N 938.594 -0.753485 1.38421 0
M  V30 9590 C 939.824 -1.54049 1.37669 0
M  V30 9591 C 940.232 -1.89167 -0.0353656 0
M  V30 9592 O 939.575 -1.53285 -1.01239 0
M  V30 9593 C 939.637 -2.86777 2.16793 0
M  V30 9594 C 939.301 -2.74196 3.65603 0
M  V30 9595 C 940.298 -2.43985 4.59094 0
M  V30 9596 C 937.983 -2.91645 4.0896 0
M  V30 9597 C 939.977 -2.31379 5.93921 0
M  V30 9598 C 937.664 -2.78658 5.43868 0
M  V30 9599 C 938.662 -2.48568 6.36163 0
M  V30 9600 O 938.35 -2.3564 7.68589 0
M  V30 9601 H 938.082 -0.483276 0.472673 0
M  V30 9602 H 940.636 -0.940267 1.82615 0
M  V30 9603 H 938.866 -3.48988 1.66565 0
M  V30 9604 H 940.555 -3.48289 2.08446 0
M  V30 9605 H 941.321 -2.30172 4.26902 0
M  V30 9606 H 937.2 -3.14063 3.37469 0
M  V30 9607 H 940.744 -2.07813 6.65927 0
M  V30 9608 H 936.641 -2.92044 5.75656 0
M  V30 9609 H 937.409 -2.50851 7.79112 0
M  V30 9610 N 940.072 -1.23292 -0.981677 0
M  V30 9611 C 941.321 -1.05832 -1.71705 0
M  V30 9612 C 941.634 0.40514 -1.91358 0
M  V30 9613 O 942.84 0.699645 -2.6233 0
M  V30 9614 C 941.296 -1.84532 -3.08992 0
M  V30 9615 C 940.904 -3.35199 -2.9723 0
M  V30 9616 C 942.648 -1.75557 -3.86497 0
M  V30 9617 C 940.555 -4.06296 -4.29741 0
M  V30 9618 H 939.485 -0.39241 -0.64384 0
M  V30 9619 H 942.136 -1.47247 -1.09502 0
M  V30 9620 H 940.518 -1.35923 -3.71942 0
M  V30 9621 H 941.692 -3.91286 -2.43377 0
M  V30 9622 H 940.007 -3.44973 -2.332 0
M  V30 9623 H 942.604 -2.25989 -4.84596 0
M  V30 9624 H 942.947 -0.718101 -4.1006 0
M  V30 9625 H 943.48 -2.21771 -3.30246 0
M  V30 9626 H 940.219 -5.10344 -4.11375 0
M  V30 9627 H 939.739 -3.54997 -4.83464 0
M  V30 9628 H 941.418 -4.12519 -4.98434 0
M  V30 9629 N 941.55 1.18024 -1.04442 0
M  V30 9630 C 942.796 1.88377 -0.751133 0
M  V30 9631 C 943.129 1.80377 0.719571 0
M  V30 9632 O 942.404 1.20662 1.52548 0
M  V30 9633 C 942.687 3.38708 -1.22265 0
M  V30 9634 C 942.54 3.55499 -2.75574 0
M  V30 9635 C 943.859 4.32475 -0.815688 0
M  V30 9636 H 940.978 0.684037 -0.27434 0
M  V30 9637 H 943.62 1.38837 -1.29709 0
M  V30 9638 H 941.77 3.8103 -0.758192 0
M  V30 9639 H 943.442 3.22244 -3.30086 0
M  V30 9640 H 941.685 2.98028 -3.15217 0
M  V30 9641 H 942.356 4.60994 -3.03625 0
M  V30 9642 H 944.832 3.97953 -1.21542 0
M  V30 9643 H 943.708 5.36213 -1.17331 0
M  V30 9644 H 943.969 4.41207 0.280901 0
M  V30 9645 N 943.028 0.824394 1.34319 0
M  V30 9646 C 943.958 0.262077 2.32025 0
M  V30 9647 C 944.939 -0.622277 1.58309 0
M  V30 9648 O 946.124 -0.548848 1.86283 0
M  V30 9649 C 943.254 -0.57567 3.42496 0
M  V30 9650 C 942.208 0.21167 4.27476 0
M  V30 9651 C 941.534 -0.748913 5.29429 0
M  V30 9652 C 942.834 1.42068 5.02607 0
M  V30 9653 H 944.528 1.07842 2.79304 0
M  V30 9654 H 942.074 0.520022 1.34282 0
M  V30 9655 H 944.027 -0.979251 4.09864 0
M  V30 9656 H 942.751 -1.42508 2.93869 0
M  V30 9657 H 941.41 0.596636 3.61712 0
M  V30 9658 H 941.058 -1.59432 4.77064 0
M  V30 9659 H 940.758 -0.226313 5.87164 0
M  V30 9660 H 942.282 -1.15032 5.99667 0
M  V30 9661 H 943.696 1.09103 5.62823 0
M  V30 9662 H 942.093 1.87903 5.69923 0
M  V30 9663 H 943.163 2.1981 4.32217 0
M  V30 9664 N 944.506 -1.46559 0.579492 0
M  V30 9665 C 945.736 -2.06484 0.0692642 0
M  V30 9666 C 946.144 -1.4293 -1.23967 0
M  V30 9667 O 945.487 -0.527632 -1.75959 0
M  V30 9668 C 945.549 -3.59078 -0.174174 0
M  V30 9669 C 945.213 -4.44805 1.04867 0
M  V30 9670 C 946.21 -4.81543 1.95991 0
M  V30 9671 C 943.895 -4.8599 1.26961 0
M  V30 9672 C 945.889 -5.58288 3.0756 0
M  V30 9673 C 943.576 -5.62495 2.38836 0
M  V30 9674 C 944.574 -5.98558 3.28964 0
M  V30 9675 O 944.262 -6.73518 4.38896 0
M  V30 9676 H 943.994 -0.673917 0.0530331 0
M  V30 9677 H 946.548 -1.89223 0.79898 0
M  V30 9678 H 944.778 -3.74634 -0.958464 0
M  V30 9679 H 946.467 -4.00941 -0.632515 0
M  V30 9680 H 947.233 -4.50307 1.80136 0
M  V30 9681 H 943.112 -4.57372 0.577184 0
M  V30 9682 H 946.656 -5.86355 3.77933 0
M  V30 9683 H 942.553 -5.93145 2.54655 0
M  V30 9684 H 943.321 -6.91938 4.37223 0
M  V30 9685 N 945.984 -0.3171 -1.54377 0
M  V30 9686 C 947.261 0.341348 -1.92598 0
M  V30 9687 C 947.641 1.70402 -1.24605 0
M  V30 9688 O 946.989 2.25191 -0.387448 0
M  V30 9689 C 947.199 0.440003 -3.46215 0
M  V30 9690 C 948.547 0.703327 -4.18734 0
M  V30 9691 O 949.571 0.523181 -3.52337 0
M  V30 9692 O 948.43 1.05042 -5.3631 0
M  V30 9693 H 945.524 0.193696 -0.803997 0
M  V30 9694 H 948.07 -0.366341 -1.65699 0
M  V30 9695 H 946.842 -0.517299 -3.87866 0
M  V30 9696 H 946.465 1.19553 -3.792 0
M  V30 9697 N 947.462 1.57535 -0.0451378 0
M  V30 9698 C 948.739 1.83785 0.669523 0
M  V30 9699 C 949.119 0.932331 1.89396 0
M  V30 9700 O 948.467 -0.00813229 2.28499 0
M  V30 9701 C 948.677 3.33376 1.03255 0
M  V30 9702 C 950.025 4.00243 1.41741 0
M  V30 9703 O 951.049 3.37965 1.12507 0
M  V30 9704 O 949.908 5.10038 1.96275 0
M  V30 9705 H 947.002 0.758342 0.329919 0
M  V30 9706 H 949.548 1.69538 -0.0740415 0
M  V30 9707 H 948.32 3.90965 0.161777 0
M  V30 9708 H 947.943 3.52787 1.83376 0
M  V30 9709 N 948.94 -0.228186 1.55939 0
M  V30 9710 C 950.188 -0.951668 1.78291 0
M  V30 9711 C 950.509 -1.85132 0.612474 0
M  V30 9712 O 949.779 -1.92356 -0.370942 0
M  V30 9713 H 948.359 -0.354388 0.657585 0
M  V30 9714 H 951.021 -0.241635 1.93396 0
M  V30 9715 H 950.117 -1.56239 2.70177 0
M  V30 9716 N 950.418 -1.49637 -0.494624 0
M  V30 9717 C 951.664 -1.59681 -1.25019 0
M  V30 9718 C 951.997 -0.285511 -1.9209 0
M  V30 9719 O 951.272 0.711398 -1.81023 0
M  V30 9720 C 951.555 -2.76058 -2.31222 0
M  V30 9721 C 951.408 -4.17002 -1.68611 0
M  V30 9722 C 952.727 -2.88056 -3.32734 0
M  V30 9723 H 949.846 -0.581209 -0.453172 0
M  V30 9724 H 952.488 -1.81944 -0.547391 0
M  V30 9725 H 950.638 -2.57207 -2.91164 0
M  V30 9726 H 952.31 -4.47385 -1.12447 0
M  V30 9727 H 950.553 -4.22352 -0.989991 0
M  V30 9728 H 951.224 -4.94316 -2.45674 0
M  V30 9729 H 953.7 -3.05237 -2.82789 0
M  V30 9730 H 952.576 -3.71151 -4.04399 0
M  V30 9731 H 952.837 -1.97676 -3.95445 0
M  V30 9732 N 951.896 0.746133 -1.38819 0
M  V30 9733 C 953.307 1.32384 -1.31648 0
M  V30 9734 C 953.658 1.96185 0.0243086 0
M  V30 9735 O 952.783 1.95567 0.92641 0
M  V30 9736 C 953.378 2.40712 -2.38418 0
M  V30 9737 C 951.937 2.94185 -2.34803 0
M  V30 9738 C 951.084 1.67639 -2.20891 0
M  V30 9739 H 954.035 0.544457 -1.49068 0
M  V30 9740 H 954.056 3.20833 -2.04564 0
M  V30 9741 H 953.568 1.94247 -3.3599 0
M  V30 9742 H 951.669 3.44959 -1.40834 0
M  V30 9743 H 951.782 3.48057 -3.29231 0
M  V30 9744 H 950.146 1.9155 -1.67871 0
M  V30 9745 H 950.929 1.23242 -3.20416 0
M  V30 9746 N 953.375 1.23811 0.975125 0
M  V30 9747 C 954.621 1.07495 1.71967 0
M  V30 9748 C 954.954 -0.386451 1.90316 0
M  V30 9749 O 954.229 -1.28591 1.45927 0
M  V30 9750 C 954.512 1.80694 3.11483 0
M  V30 9751 C 954.365 3.3454 3.00671 0
M  V30 9752 C 955.684 1.57367 4.11003 0
M  V30 9753 H 952.803 0.3919 0.624166 0
M  V30 9754 H 955.445 1.52383 1.13487 0
M  V30 9755 H 953.595 1.42538 3.61407 0
M  V30 9756 H 955.267 3.8225 2.5823 0
M  V30 9757 H 953.51 3.63301 2.37054 0
M  V30 9758 H 954.181 3.80951 3.99475 0
M  V30 9759 H 956.657 1.90545 3.69908 0
M  V30 9760 H 955.533 2.11052 5.06703 0
M  V30 9761 H 955.794 0.510221 4.39146 0
M  V30 9762 N 954.853 -1.17469 1.05066 0
M  V30 9763 C 956.099 -1.88225 0.7709 0
M  V30 9764 C 956.454 -1.7943 -0.694452 0
M  V30 9765 O 955.747 -1.19059 -1.50118 0
M  V30 9766 C 955.941 -3.37211 1.18421 0
M  V30 9767 C 955.77 -3.60508 2.68819 0
M  V30 9768 C 954.54 -3.77303 3.36111 0
M  V30 9769 C 956.738 -3.60258 3.6704 0
M  V30 9770 N 954.72 -3.88433 4.75387 0
M  V30 9771 C 956.091 -3.77223 4.92039 0
M  V30 9772 C 958.146 -3.43401 3.60527 0
M  V30 9773 C 956.849 -3.79075 6.11305 0
M  V30 9774 C 958.875 -3.46541 4.79232 0
M  V30 9775 C 958.237 -3.64013 6.03054 0
M  V30 9776 H 954.336 -0.706941 0.334303 0
M  V30 9777 H 956.92 -1.41029 1.34235 0
M  V30 9778 H 955.091 -3.83079 0.640724 0
M  V30 9779 H 956.823 -3.95578 0.854411 0
M  V30 9780 H 953.578 -3.77105 2.86512 0
M  V30 9781 H 954.002 -3.97797 5.47802 0
M  V30 9782 H 958.644 -3.28831 2.65762 0
M  V30 9783 H 956.362 -3.92431 7.06416 0
M  V30 9784 H 959.948 -3.34758 4.75845 0
M  V30 9785 H 958.828 -3.66345 6.93369 0
M  V30 9786 N 956.331 -0.831506 -1.3388 0
M  V30 9787 C 957.579 -0.422837 -1.97627 0
M  V30 9788 C 957.9 1.01961 -1.6622 0
M  V30 9789 O 957.17 1.70916 -0.957323 0
M  V30 9790 H 955.75 -0.153365 -0.731087 0
M  V30 9791 H 958.412 -1.06284 -1.6337 0
M  V30 9792 H 957.508 -0.548858 -3.07236 0
M  V30 9793 N 957.809 1.4625 -0.587256 0
M  V30 9794 C 959.037 2.06744 -0.08033 0
M  V30 9795 C 959.452 1.43527 1.2266 0
M  V30 9796 O 958.809 0.542168 1.74261 0
M  V30 9797 C 958.86 3.61394 0.0873469 0
M  V30 9798 O 958.581 4.22247 -1.16785 0
M  V30 9799 C 960.082 4.38828 0.628095 0
M  V30 9800 H 957.302 0.668354 -0.0595301 0
M  V30 9801 H 959.846 1.87808 -0.809217 0
M  V30 9802 H 958.001 3.79742 0.766473 0
M  V30 9803 H 958.415 5.15176 -0.984565 0
M  V30 9804 H 959.889 5.47613 0.694583 0
M  V30 9805 H 960.366 4.07188 1.64606 0
M  V30 9806 H 960.972 4.25297 -0.0163115 0
M  V30 9807 N 959.287 0.325282 1.54207 0
M  V30 9808 C 960.25 -0.527228 2.23054 0
M  V30 9809 C 961.25 -1.04217 1.22456 0
M  V30 9810 O 962.44 -0.934325 1.47024 0
M  V30 9811 C 959.572 -1.7325 2.93594 0
M  V30 9812 H 960.765 0.0746423 2.99807 0
M  V30 9813 H 958.318 0.0763872 1.56113 0
M  V30 9814 H 959.053 -2.37356 2.20981 0
M  V30 9815 H 958.838 -1.37065 3.67363 0
M  V30 9816 H 960.328 -2.3376 3.46043 0
M  V30 9817 N 960.765 -1.57509 0.0534917 0
M  V30 9818 C 962.176 -1.80374 -0.481867 0
M  V30 9819 C 962.527 -0.965917 -1.70776 0
M  V30 9820 O 961.652 -0.183167 -2.15623 0
M  V30 9821 C 962.247 -3.27146 -0.880978 0
M  V30 9822 C 960.806 -3.50921 -1.3613 0
M  V30 9823 C 959.953 -2.75237 -0.337611 0
M  V30 9824 H 962.904 -1.56222 0.279353 0
M  V30 9825 H 962.925 -3.38193 -1.74373 0
M  V30 9826 H 962.437 -3.88098 0.011441 0
M  V30 9827 H 960.538 -2.95251 -2.27283 0
M  V30 9828 H 960.651 -4.59632 -1.35186 0
M  V30 9829 H 959.015 -2.41444 -0.810991 0
M  V30 9830 H 959.798 -3.38918 0.546763 0
M  V30 9831 N 962.243 0.219913 -1.56058 0
M  V30 9832 C 963.153 1.29349 -1.95719 0
M  V30 9833 C 964.169 1.5119 -0.861248 0
M  V30 9834 O 965.345 1.64289 -1.16495 0
M  V30 9835 C 962.41 2.6229 -2.26726 0
M  V30 9836 C 961.471 2.48738 -3.49897 0
M  V30 9837 C 960.704 3.75339 -3.79416 0
M  V30 9838 O 960.927 4.78427 -3.10586 0
M  V30 9839 O 959.861 3.72352 -4.72903 0
M  V30 9840 H 963.687 0.986979 -2.87215 0
M  V30 9841 H 961.272 0.42291 -1.43289 0
M  V30 9842 H 963.154 3.408 -2.47857 0
M  V30 9843 H 961.829 2.92619 -1.38404 0
M  V30 9844 H 960.736 1.68422 -3.34043 0
M  V30 9845 H 962.069 2.23347 -4.38608 0
M  V30 9846 N 963.721 1.49897 0.486681 0
M  V30 9847 C 964.631 1.70379 1.6127 0
M  V30 9848 C 965.647 0.58659 1.63814 0
M  V30 9849 O 966.823 0.863044 1.81971 0
M  V30 9850 C 963.888 1.77911 2.97571 0
M  V30 9851 C 962.949 3.01569 3.0554 0
M  V30 9852 C 962.182 3.08732 4.35339 0
M  V30 9853 O 962.405 2.23099 5.2496 0
M  V30 9854 O 961.339 4.01325 4.48578 0
M  V30 9855 H 965.165 2.65799 1.46916 0
M  V30 9856 H 962.75 1.33808 0.664516 0
M  V30 9857 H 964.632 1.85135 3.78554 0
M  V30 9858 H 963.307 0.856722 3.12157 0
M  V30 9859 H 962.214 2.99854 2.23693 0
M  V30 9860 H 963.547 3.93335 2.95886 0
M  V30 9861 N 965.199 -0.738761 1.39212 0
M  V30 9862 C 966.447 -1.49529 1.35962 0
M  V30 9863 C 966.768 -1.94948 -0.0450152 0
M  V30 9864 O 966.038 -1.68717 -0.995552 0
M  V30 9865 H 964.618 -0.554692 0.500326 0
M  V30 9866 H 967.28 -0.877255 1.74041 0
M  V30 9867 H 966.376 -2.37919 2.01993 0
M  V30 9868 N 966.677 -1.24326 -0.968545 0
M  V30 9869 C 967.587 -1.05194 -2.09694 0
M  V30 9870 C 968.603 0.00701291 -1.73999 0
M  V30 9871 O 969.779 -0.190981 -2.00492 0
M  V30 9872 C 966.844 -0.658075 -3.40397 0
M  V30 9873 C 965.905 -1.79341 -3.90045 0
M  V30 9874 C 965.138 -1.41824 -5.14511 0
M  V30 9875 O 965.361 -0.307693 -5.69569 0
M  V30 9876 O 964.295 -2.24358 -5.58522 0
M  V30 9877 H 968.121 -1.99791 -2.2873 0
M  V30 9878 H 965.706 -1.03138 -1.08088 0
M  V30 9879 H 967.588 -0.449911 -4.18991 0
M  V30 9880 H 966.263 0.258782 -3.22664 0
M  V30 9881 H 965.17 -2.05632 -3.12516 0
M  V30 9882 H 966.503 -2.68901 -4.12254 0
M  V30 9883 N 968.156 1.1691 -1.05688 0
M  V30 9884 C 969.066 2.24735 -0.67315 0
M  V30 9885 C 970.082 1.71252 0.308043 0
M  V30 9886 O 971.258 2.00772 0.158889 0
M  V30 9887 C 968.323 3.4665 -0.059026 0
M  V30 9888 C 967.384 4.15198 -1.0913 0
M  V30 9889 C 966.617 5.31292 -0.50639 0
M  V30 9890 O 966.84 5.663 0.682692 0
M  V30 9891 O 965.774 5.88923 -1.2431 0
M  V30 9892 H 969.6 2.59855 -1.57191 0
M  V30 9893 H 967.185 1.24306 -0.828751 0
M  V30 9894 H 969.067 4.20455 0.282018 0
M  V30 9895 H 967.742 3.13316 0.813304 0
M  V30 9896 H 966.649 3.43389 -1.48442 0
M  V30 9897 H 967.982 4.52571 -1.93495 0
M  V30 9898 N 969.634 0.838594 1.33437 0
M  V30 9899 C 971.045 0.490934 1.8013 0
M  V30 9900 C 971.396 -0.990024 1.6939 0
M  V30 9901 O 970.521 -1.77139 1.24302 0
M  V30 9902 C 971.116 0.884347 3.27055 0
M  V30 9903 C 969.675 0.588829 3.71766 0
M  V30 9904 C 968.822 1.09282 2.54858 0
M  V30 9905 H 971.773 1.02732 1.20962 0
M  V30 9906 H 971.794 0.194283 3.80004 0
M  V30 9907 H 971.306 1.96225 3.34839 0
M  V30 9908 H 969.407 -0.479018 3.69508 0
M  V30 9909 H 969.52 1.14387 4.65245 0
M  V30 9910 H 967.884 0.513702 2.49466 0
M  V30 9911 H 968.667 2.1775 2.65405 0
M  V30 9912 N 971.112 -1.45937 0.595003 0
M  V30 9913 C 972.36 -2.01921 0.0851368 0
M  V30 9914 C 972.681 -1.46748 -1.28413 0
M  V30 9915 O 971.951 -0.656873 -1.84559 0
M  V30 9916 H 970.531 -0.746457 0.0284826 0
M  V30 9917 H 973.193 -1.78891 0.773561 0
M  V30 9918 H 972.289 -3.1209 0.0254002 0
M  V30 9919 N 972.59 -0.333456 -1.54032 0
M  V30 9920 C 973.838 0.265608 -2.00347 0
M  V30 9921 C 974.159 1.51873 -1.2231 0
M  V30 9922 O 973.429 1.93142 -0.327549 0
M  V30 9923 H 972.009 0.101135 -0.740122 0
M  V30 9924 H 974.671 -0.452285 -1.8958 0
M  V30 9925 H 973.767 0.51511 -3.0782 0
M  V30 9926 N 974.068 1.57479 -0.061844 0
M  V30 9927 C 975.316 1.92727 0.608336 0
M  V30 9928 C 975.637 0.941799 1.70749 0
M  V30 9929 O 974.907 -0.0116608 1.95897 0
M  V30 9930 H 973.487 0.71145 0.2277 0
M  V30 9931 H 976.149 1.94546 -0.117359 0
M  V30 9932 H 975.245 2.9426 1.04007 0
M  V30 9933 N 975.546 -0.211634 1.56173 0
M  V30 9934 C 976.456 -1.2831 1.96402 0
M  V30 9935 C 977.472 -1.50731 0.869254 0
M  V30 9936 O 978.648 -1.63669 1.17365 0
M  V30 9937 C 975.713 -2.61084 2.28114 0
M  V30 9938 C 974.774 -2.46879 3.51211 0
M  V30 9939 C 974.007 -3.73321 3.81401 0
M  V30 9940 O 974.23 -4.76773 3.13119 0
M  V30 9941 O 973.164 -3.69839 4.74871 0
M  V30 9942 H 976.99 -0.971733 2.87734 0
M  V30 9943 H 974.575 -0.415305 1.43512 0
M  V30 9944 H 976.457 -3.39481 2.49661 0
M  V30 9945 H 975.132 -2.91881 1.39954 0
M  V30 9946 H 974.039 -1.66648 3.34932 0
M  V30 9947 H 975.372 -2.21018 4.39786 0
M  V30 9948 N 977.024 -1.50153 -0.478725 0
M  V30 9949 C 978.272 -1.60443 -1.22892 0
M  V30 9950 C 978.593 -0.303276 -1.92627 0
M  V30 9951 O 977.863 0.678798 -1.83764 0
M  V30 9952 H 976.443 -0.591205 -0.456602 0
M  V30 9953 H 979.105 -1.86893 -0.552905 0
M  V30 9954 H 978.201 -2.41175 -1.98094 0
M  V30 9955 N 978.502 0.731368 -1.39602 0
M  V30 9956 C 979.913 1.30981 -1.33045 0
M  V30 9957 C 980.264 1.962 0.00349918 0
M  V30 9958 O 979.389 1.96539 0.905615 0
M  V30 9959 C 979.984 2.3817 -2.40958 0
M  V30 9960 C 978.543 2.91678 -2.3791 0
M  V30 9961 C 977.69 1.65286 -2.22656 0
M  V30 9962 H 980.641 0.528615 -1.49637 0
M  V30 9963 H 980.662 3.18645 -2.07955 0
M  V30 9964 H 980.174 1.90673 -3.38032 0
M  V30 9965 H 978.275 3.43446 -1.44485 0
M  V30 9966 H 978.388 3.44545 -3.32904 0
M  V30 9967 H 976.752 1.89759 -1.69893 0
M  V30 9968 H 977.535 1.19836 -3.21705 0
M  V30 9969 N 979.98 1.24838 0.961938 0
M  V30 9970 C 981.228 1.08936 1.70227 0
M  V30 9971 C 981.549 -0.371582 1.91427 0
M  V30 9972 O 980.819 -1.26461 1.49614 0
M  V30 9973 H 979.399 0.400128 0.630799 0
M  V30 9974 H 982.061 1.56848 1.15692 0
M  V30 9975 H 981.157 1.59195 2.68446 0
M  V30 9976 N 981.458 -1.16348 1.06306 0
M  V30 9977 C 982.706 -1.86512 0.778311 0
M  V30 9978 C 983.027 -1.82107 -0.697273 0
M  V30 9979 O 982.297 -1.2547 -1.50446 0
M  V30 9980 H 980.877 -0.690529 0.284919 0
M  V30 9981 H 983.539 -1.41092 1.34458 0
M  V30 9982 H 982.635 -2.91947 1.10333 0
M  V30 9983 N 982.937 -0.845659 -1.3299 0
M  V30 9984 C 984.185 -0.443774 -1.97168 0
M  V30 9985 C 984.506 1.00192 -1.67292 0
M  V30 9986 O 983.776 1.69891 -0.975397 0
M  V30 9987 H 982.356 -0.161111 -0.729419 0
M  V30 9988 H 985.018 -1.08011 -1.62233 0
M  V30 9989 H 984.114 -0.581414 -3.06637 0
M  V30 9990 N 984.415 1.45619 -0.602734 0
M  V30 9991 C 985.325 2.34288 0.120902 0
M  V30 9992 C 986.341 1.50952 0.865414 0
M  V30 9993 O 987.517 1.83768 0.824094 0
M  V30 9994 C 984.582 3.28489 1.10888 0
M  V30 9995 C 983.643 4.2773 0.366853 0
M  V30 9996 C 982.876 5.17429 1.30776 0
M  V30 9997 O 983.099 5.10459 2.54535 0
M  V30 9998 O 982.033 5.96459 0.807464 0
M  V30 9999 H 985.859 2.97559 -0.60765 0
M  V30 10000 H 983.444 1.44922 -0.363019 0
M  V30 10001 H 985.326 3.86549 1.67803 0
M  V30 10002 H 984.001 2.67789 1.81854 0
M  V30 10003 H 982.908 3.73299 -0.244643 0
M  V30 10004 H 984.241 4.91271 -0.302226 0
M  V30 10005 N 985.893 0.34162 1.53853 0
M  V30 10006 C 986.803 -0.524555 2.2866 0
M  V30 10007 C 987.819 -1.1136 1.33697 0
M  V30 10008 O 988.995 -1.1297 1.66732 0
M  V30 10009 C 986.06 -1.66065 3.04341 0
M  V30 10010 C 985.121 -1.10158 4.14926 0
M  V30 10011 C 984.354 -2.18353 4.86988 0
M  V30 10012 O 984.577 -3.39038 4.58704 0
M  V30 10013 O 983.511 -1.82756 5.73484 0
M  V30 10014 H 987.337 0.0835014 3.03585 0
M  V30 10015 H 984.922 0.106727 1.49018 0
M  V30 10016 H 986.804 -2.3217 3.51674 0
M  V30 10017 H 985.479 -2.25456 2.32275 0
M  V30 10018 H 984.386 -0.405109 3.719 0
M  V30 10019 H 985.719 -0.552567 4.89088 0
M  V30 10020 N 987.371 -1.57444 0.0701946 0
M  V30 10021 C 988.782 -1.80875 -0.462709 0
M  V30 10022 C 989.133 -0.983975 -1.69742 0
M  V30 10023 O 988.258 -0.206027 -2.15417 0
M  V30 10024 C 988.853 -3.28062 -0.84623 0
M  V30 10025 C 987.412 -3.52345 -1.32401 0
M  V30 10026 C 986.559 -2.7558 -0.308399 0
M  V30 10027 H 989.51 -1.55917 0.295907 0
M  V30 10028 H 989.531 -3.40023 -1.70776 0
M  V30 10029 H 989.043 -3.88064 0.0526033 0
M  V30 10030 H 987.144 -2.97645 -2.24139 0
M  V30 10031 H 987.257 -4.6104 -1.30304 0
M  V30 10032 H 985.621 -2.4229 -0.785337 0
M  V30 10033 H 986.404 -3.38319 0.582679 0
M  V30 10034 N 988.849 0.203349 -1.56283 0
M  V30 10035 C 990.097 0.923183 -1.79782 0
M  V30 10036 C 990.418 1.84134 -0.64185 0
M  V30 10037 O 989.688 1.92922 0.340292 0
M  V30 10038 H 988.268 0.343881 -0.66314 0
M  V30 10039 H 990.93 0.210837 -1.93756 0
M  V30 10040 H 990.026 1.51921 -2.72629 0
M  V30 10041 N 990.327 1.50405 0.470755 0
M  V30 10042 C 991.237 1.7208 1.59454 0
M  V30 10043 C 992.253 0.603932 1.63183 0
M  V30 10044 O 993.429 0.882296 1.81046 0
M  V30 10045 C 990.494 1.81057 2.95667 0
M  V30 10046 C 989.555 3.04792 3.02324 0
M  V30 10047 C 988.788 3.13332 4.3204 0
M  V30 10048 O 989.011 2.28655 5.22564 0
M  V30 10049 O 987.945 4.0606 4.44296 0
M  V30 10050 H 991.771 2.67343 1.44089 0
M  V30 10051 H 989.356 1.34505 0.650286 0
M  V30 10052 H 991.238 1.8914 3.76569 0
M  V30 10053 H 989.913 0.889782 3.11231 0
M  V30 10054 H 988.82 3.0221 2.205 0
M  V30 10055 H 990.153 3.96451 2.91698 0
M  V30 10056 N 991.805 -0.723954 1.39988 0
M  V30 10057 C 993.082 -1.4763 1.28316 0
M  V30 10058 C 993.462 -2.10852 -0.102302 0
M  V30 10059 O 992.81 -1.9948 -1.11445 0
M  V30 10060 C 993.02 -2.51878 2.41574 0
M  V30 10061 C 994.368 -3.17948 2.81415 0
M  V30 10062 O 995.392 -2.62195 2.41106 0
M  V30 10063 O 994.251 -4.18858 3.51027 0
M  V30 10064 H 991.345 -0.656092 0.50346 0
M  V30 10065 H 993.891 -0.75684 1.51888 0
M  V30 10066 H 992.663 -2.03618 3.34149 0
M  V30 10067 H 992.286 -3.3137 2.19727 0
M  V30 10068 N 993.283 -1.25346 -0.955304 0
M  V30 10069 C 994.529 -1.10218 -1.70235 0
M  V30 10070 C 994.862 0.356124 -1.90907 0
M  V30 10071 O 994.137 1.26253 -1.47954 0
M  V30 10072 C 994.42 -1.85627 -3.08569 0
M  V30 10073 C 994.273 -3.39281 -2.95311 0
M  V30 10074 C 995.592 -1.63886 -4.08448 0
M  V30 10075 H 992.711 -0.401781 -0.617852 0
M  V30 10076 H 995.353 -1.5417 -1.11048 0
M  V30 10077 H 993.503 -1.48269 -3.59094 0
M  V30 10078 H 995.175 -3.8631 -2.52116 0
M  V30 10079 H 993.418 -3.67027 -2.31244 0
M  V30 10080 H 994.089 -3.87258 -3.93364 0
M  V30 10081 H 996.565 -1.96406 -3.6683 0
M  V30 10082 H 995.441 -2.19087 -5.03281 0
M  V30 10083 H 995.702 -0.580021 -4.38279 0
M  V30 10084 N 994.761 1.15782 -1.06922 0
M  V30 10085 C 995.989 1.90355 -0.81072 0
M  V30 10086 C 996.404 1.77779 0.635614 0
M  V30 10087 O 995.761 1.12675 1.43564 0
M  V30 10088 C 995.812 3.4085 -1.2043 0
M  V30 10089 O 995.533 3.53057 -2.59388 0
M  V30 10090 C 997.034 4.32457 -0.974473 0
M  V30 10091 H 994.254 0.60343 -0.293451 0
M  V30 10092 H 996.798 1.46723 -1.42452 0
M  V30 10093 H 994.953 3.82162 -0.634909 0
M  V30 10094 H 995.367 4.46426 -2.75326 0
M  V30 10095 H 996.841 5.36488 -1.29942 0
M  V30 10096 H 997.318 4.39109 0.0894481 0
M  V30 10097 H 997.924 3.96882 -1.52856 0
M  V30 10098 N 996.239 0.8527 1.3254 0
M  V30 10099 C 997.65 0.510012 1.79599 0
M  V30 10100 C 998.001 -0.972002 1.70431 0
M  V30 10101 O 997.126 -1.7581 1.26173 0
M  V30 10102 C 997.721 0.918986 3.26098 0
M  V30 10103 C 996.28 0.628227 3.7112 0
M  V30 10104 C 995.427 1.11979 2.53685 0
M  V30 10105 H 998.378 1.04009 1.19866 0
M  V30 10106 H 998.399 0.234577 3.79776 0
M  V30 10107 H 997.911 1.99765 3.32739 0
M  V30 10108 H 996.012 -0.4398 3.69995 0
M  V30 10109 H 996.125 1.19315 4.64005 0
M  V30 10110 H 994.489 0.540133 2.48907 0
M  V30 10111 H 995.272 2.20552 2.63081 0
M  V30 10112 N 997.718 -1.45297 0.610449 0
M  V30 10113 C 999.129 -1.85715 0.191488 0
M  V30 10114 C 999.48 -1.51036 -1.25229 0
M  V30 10115 O 998.605 -0.938422 -1.94994 0
M  V30 10116 C 999.2 -3.37082 0.340747 0
M  V30 10117 C 997.759 -3.76393 -0.0235433 0
M  V30 10118 C 996.906 -2.69237 0.663849 0
M  V30 10119 H 999.857 -1.36058 0.816948 0
M  V30 10120 H 999.878 -3.78105 -0.426233 0
M  V30 10121 H 999.39 -3.62291 1.39164 0
M  V30 10122 H 997.491 -3.56801 -1.07351 0
M  V30 10123 H 997.604 -4.77653 0.372102 0
M  V30 10124 H 995.968 -2.54499 0.101204 0
M  V30 10125 H 996.751 -2.97281 1.71694 0
M  V30 10126 N 999.196 -0.349774 -1.5367 0
M  V30 10127 C 1000.42 0.248692 -2.05904 0
M  V30 10128 C 1000.85 1.42942 -1.22267 0
M  V30 10129 O 1000.2 1.79732 -0.237899 0
M  V30 10130 C 1000.25 0.635639 -3.54953 0
M  V30 10131 O 999.356 1.7349 -3.74132 0
M  V30 10132 H 998.697 0.0399477 -0.662797 0
M  V30 10133 H 1001.23 -0.505795 -1.9825 0
M  V30 10134 H 1001.24 0.911064 -3.97698 0
M  V30 10135 H 999.912 -0.227805 -4.15276 0
M  V30 10136 H 998.489 1.45626 -3.43289 0
M  V30 10137 N 1000.67 1.57404 -0.0785433 0
M  V30 10138 C 1001.64 2.11977 0.871693 0
M  V30 10139 C 1002.64 1.04529 1.2219 0
M  V30 10140 O 1003.83 1.30488 1.15406 0
M  V30 10141 C 1000.96 2.6267 2.17296 0
M  V30 10142 H 1002.15 2.97246 0.398115 0
M  V30 10143 H 999.705 1.5537 0.170251 0
M  V30 10144 H 1000.44 1.80873 2.69175 0
M  V30 10145 H 1000.22 3.41214 1.93171 0
M  V30 10146 H 1001.71 3.04943 2.85306 0
M  V30 10147 N 1002.15 -0.195058 1.56388 0
M  V30 10148 C 1003.56 -0.75973 1.70543 0
M  V30 10149 C 1003.91 -1.83849 0.685118 0
M  V30 10150 O 1003.04 -2.15819 -0.158457 0
M  V30 10151 C 1003.63 -1.38485 3.09204 0
M  V30 10152 C 1002.19 -1.89661 3.25124 0
M  V30 10153 C 1001.34 -0.766563 2.66494 0
M  V30 10154 H 1004.29 0.0300148 1.58672 0
M  V30 10155 H 1004.31 -2.25424 3.06536 0
M  V30 10156 H 1003.82 -0.599479 3.83442 0
M  V30 10157 H 1001.92 -2.70917 2.55802 0
M  V30 10158 H 1002.04 -2.05837 4.32629 0
M  V30 10159 H 1000.4 -1.18086 2.25672 0
M  V30 10160 H 1001.18 0.00657102 3.43299 0
M  V30 10161 N 1003.63 -1.50653 -0.462772 0
M  V30 10162 C 1004.88 -1.61737 -1.21184 0
M  V30 10163 C 1005.2 -0.32369 -1.92295 0
M  V30 10164 O 1004.47 0.659269 -1.84473 0
M  V30 10165 H 1003.05 -0.596015 -0.450306 0
M  V30 10166 H 1005.71 -1.87469 -0.533051 0
M  V30 10167 H 1004.81 -2.43262 -1.95525 0
M  V30 10168 N 1005.11 0.71652 -1.4037 0
M  V30 10169 C 1006.33 1.51069 -1.42102 0
M  V30 10170 C 1006.76 1.88087 -0.0222387 0
M  V30 10171 O 1006.12 1.53204 0.969448 0
M  V30 10172 C 1006.16 2.76307 -2.31704 0
M  V30 10173 O 1005.27 3.72975 -1.75964 0
M  V30 10174 H 1004.61 0.455502 -0.483129 0
M  V30 10175 H 1007.14 0.882514 -1.84588 0
M  V30 10176 H 1007.15 3.24846 -2.46859 0
M  V30 10177 H 1005.82 2.48698 -3.3335 0
M  V30 10178 H 1004.4 3.31818 -1.70151 0
M  V30 10179 N 1006.59 1.25851 0.948643 0
M  V30 10180 C 1008 1.09975 1.50872 0
M  V30 10181 C 1008.35 -0.322497 1.93531 0
M  V30 10182 O 1007.47 -1.21316 1.79197 0
M  V30 10183 C 1008.07 1.99021 2.74182 0
M  V30 10184 C 1006.63 1.87313 3.26483 0
M  V30 10185 C 1005.77 1.92815 1.99293 0
M  V30 10186 H 1008.73 1.3905 0.764908 0
M  V30 10187 H 1008.75 1.53372 3.4822 0
M  V30 10188 H 1008.26 3.02527 2.43103 0
M  V30 10189 H 1006.36 0.867136 3.62369 0
M  V30 10190 H 1006.47 2.72446 3.94094 0
M  V30 10191 H 1004.84 1.36774 2.1486 0
M  V30 10192 H 1005.62 2.97936 1.70554 0
M  V30 10193 N 1008.06 -1.15214 1.07534 0
M  V30 10194 C 1009.03 -2.18209 0.701237 0
M  V30 10195 C 1010.03 -1.58693 -0.25946 0
M  V30 10196 O 1011.22 -1.74154 -0.0401744 0
M  V30 10197 C 1008.35 -3.40883 0.0338703 0
M  V30 10198 H 1009.54 -2.5282 1.61314 0
M  V30 10199 H 1007.1 -1.29707 0.872105 0
M  V30 10200 H 1007.83 -3.11843 -0.890187 0
M  V30 10201 H 1007.62 -3.85342 0.72486 0
M  V30 10202 H 1009.11 -4.17056 -0.213152 0
M  V30 10203 N 1009.54 -0.859717 -1.32086 0
M  V30 10204 C 1010.79 -0.466271 -1.97367 0
M  V30 10205 C 1011.12 0.976728 -1.6785 0
M  V30 10206 O 1010.4 1.68618 -0.969449 0
M  V30 10207 C 1010.68 -0.711851 -3.52994 0
M  V30 10208 C 1010.53 -2.20364 -3.92122 0
M  V30 10209 C 1011.85 -0.17156 -4.39765 0
M  V30 10210 H 1008.97 -0.170883 -0.716916 0
M  V30 10211 H 1011.61 -1.07907 -1.56384 0
M  V30 10212 H 1009.76 -0.190258 -3.88034 0
M  V30 10213 H 1011.43 -2.7917 -3.67236 0
M  V30 10214 H 1009.68 -2.68019 -3.41099 0
M  V30 10215 H 1010.35 -2.32615 -5.00594 0
M  V30 10216 H 1012.82 -0.617665 -4.1149 0
M  V30 10217 H 1011.7 -0.372921 -5.47632 0
M  V30 10218 H 1011.96 0.925959 -4.32294 0
M  V30 10219 N 1011.02 1.44971 -0.618145 0
M  V30 10220 C 1012.44 1.57077 -0.282666 0
M  V30 10221 C 1012.64 1.60782 1.21456 0
M  V30 10222 O 1011.69 1.54382 1.99806 0
M  V30 10223 C 1013.01 2.84858 -0.963148 0
M  V30 10224 C 1014.55 2.9855 -0.940062 0
M  V30 10225 C 1015.03 4.29115 -1.60076 0
M  V30 10226 N 1016.52 4.35899 -1.56674 0
M  V30 10227 C 1017.25 5.35617 -2.04701 0
M  V30 10228 N 1016.75 6.41813 -2.6086 0
M  V30 10229 N 1018.54 5.27042 -1.95406 0
M  V30 10230 H 1010.69 1.4081 -1.59017 0
M  V30 10231 H 1012.96 0.673914 -0.666741 0
M  V30 10232 H 1012.66 2.88059 -2.0178 0
M  V30 10233 H 1012.54 3.73966 -0.492901 0
M  V30 10234 H 1014.92 2.94909 0.10607 0
M  V30 10235 H 1015.01 2.10825 -1.44868 0
M  V30 10236 H 1014.65 4.33514 -2.64627 0
M  V30 10237 H 1014.58 5.15675 -1.06708 0
M  V30 10238 H 1017.07 3.59766 -1.15659 0
M  V30 10239 H 1017.38 7.14166 -2.95273 0
M  V30 10240 H 1015.73 6.42534 -2.64905 0
M  V30 10241 H 1018.92 4.42987 -1.51263 0
M  V30 10242 H 1019.09 6.04604 -2.33147 0
M  V30 10243 N 1012.5 0.357919 1.53482 0
M  V30 10244 C 1013.78 -0.290164 1.93436 0
M  V30 10245 C 1014.16 -1.67039 1.29079 0
M  V30 10246 O 1013.5 -2.24085 0.447017 0
M  V30 10247 C 1013.71 -0.348055 3.4726 0
M  V30 10248 C 1015.06 -0.59206 4.20452 0
M  V30 10249 O 1016.09 -0.429581 3.536 0
M  V30 10250 O 1014.94 -0.907855 5.38907 0
M  V30 10251 H 1012.04 -0.172312 0.80885 0
M  V30 10252 H 1014.58 0.410144 1.64669 0
M  V30 10253 H 1013.36 0.619953 3.86358 0
M  V30 10254 H 1012.98 -1.09457 3.82237 0
M  V30 10255 N 1013.98 -1.5736 0.0868897 0
M  V30 10256 C 1015.22 -1.94341 -0.579598 0
M  V30 10257 C 1015.56 -0.968238 -1.68341 0
M  V30 10258 O 1014.83 8.29649e-05 -1.945 0
M  V30 10259 C 1015.11 -3.41497 -1.14245 0
M  V30 10260 C 1014.97 -4.49778 -0.044255 0
M  V30 10261 C 1016.29 -3.89788 -2.04336 0
M  V30 10262 H 1013.4 -0.70668 -0.20922 0
M  V30 10263 H 1016.05 -1.89359 0.15593 0
M  V30 10264 H 1014.2 -3.45873 -1.76929 0
M  V30 10265 H 1015.87 -4.57517 0.58959 0
M  V30 10266 H 1014.11 -4.293 0.623207 0
M  V30 10267 H 1014.78 -5.4992 -0.478749 0
M  V30 10268 H 1017.26 -3.87513 -1.51569 0
M  V30 10269 H 1016.13 -4.93335 -2.40648 0
M  V30 10270 H 1016.4 -3.28603 -2.95757 0
M  V30 10271 N 1015.45 0.186762 -1.56489 0
M  V30 10272 C 1016.68 0.921832 -1.85229 0
M  V30 10273 C 1017.1 1.76496 -0.670416 0
M  V30 10274 O 1016.45 1.78899 0.360758 0
M  V30 10275 C 1016.51 1.81121 -3.12854 0
M  V30 10276 O 1016.23 1.00211 -4.26485 0
M  V30 10277 C 1017.73 2.65725 -3.54831 0
M  V30 10278 H 1014.95 0.268563 -0.61491 0
M  V30 10279 H 1017.49 0.191505 -2.03601 0
M  V30 10280 H 1015.65 2.49506 -2.96354 0
M  V30 10281 H 1016.06 1.60893 -4.99213 0
M  V30 10282 H 1017.53 3.23771 -4.47075 0
M  V30 10283 H 1018.01 3.39843 -2.78215 0
M  V30 10284 H 1018.62 2.02698 -3.7389 0
M  V30 10285 N 1016.93 1.50896 0.454776 0
M  V30 10286 C 1018.16 1.66759 1.23313 0
M  V30 10287 C 1018.58 0.35722 1.84677 0
M  V30 10288 O 1017.94 -0.680771 1.68033 0
M  V30 10289 C 1017.99 2.77254 2.3057 0
M  V30 10290 O 1017.09 2.39642 3.35627 0
M  V30 10291 H 1016.43 0.556599 0.362068 0
M  V30 10292 H 1018.96 1.97365 0.539274 0
M  V30 10293 H 1018.97 3.0082 2.75629 0
M  V30 10294 H 1017.65 3.72349 1.85281 0
M  V30 10295 H 1016.23 2.26584 2.96165 0
M  V30 10296 N 1018.41 -0.709066 1.40748 0
M  V30 10297 C 1019.64 -1.49808 1.42707 0
M  V30 10298 C 1020.05 -1.88778 0.0285574 0
M  V30 10299 O 1019.41 -1.55883 -0.949035 0
M  V30 10300 C 1019.46 -2.76926 2.32366 0
M  V30 10301 O 1019.18 -2.39602 3.66773 0
M  V30 10302 C 1020.68 -3.70773 2.42986 0
M  V30 10303 H 1017.9 -0.462106 0.486517 0
M  V30 10304 H 1020.45 -0.874135 1.84876 0
M  V30 10305 H 1018.6 -3.3559 1.93541 0
M  V30 10306 H 1019.02 -3.21443 4.14457 0
M  V30 10307 H 1020.49 -4.56789 3.09916 0
M  V30 10308 H 1020.97 -4.14332 1.45691 0
M  V30 10309 H 1021.57 -3.18019 2.8239 0
M  V30 10310 N 1019.89 -1.26353 -0.941956 0
M  V30 10311 C 1021.11 -1.14731 -1.72776 0
M  V30 10312 C 1021.54 0.293766 -1.85792 0
M  V30 10313 O 1020.9 1.21284 -1.34759 0
M  V30 10314 C 1020.95 -1.82041 -3.11277 0
M  V30 10315 O 1020.05 -1.10867 -3.97218 0
M  V30 10316 H 1019.39 -0.399823 -0.53013 0
M  V30 10317 H 1021.92 -1.67157 -1.17981 0
M  V30 10318 H 1021.93 -1.88834 -3.61671 0
M  V30 10319 H 1020.61 -2.86879 -3.0112 0
M  V30 10320 H 1019.18 -1.12044 -3.55669 0
M  V30 10321 N 1021.37 1.14642 -1.08144 0
M  V30 10322 C 1022.33 2.17834 -0.712799 0
M  V30 10323 C 1023.33 1.58828 0.251041 0
M  V30 10324 O 1024.52 1.74173 0.0309381 0
M  V30 10325 C 1021.65 3.4086 -0.0519477 0
M  V30 10326 H 1022.85 2.51961 -1.62653 0
M  V30 10327 H 1020.4 1.29243 -0.878971 0
M  V30 10328 H 1021.13 3.12311 0.873636 0
M  V30 10329 H 1020.92 3.84952 -0.745286 0
M  V30 10330 H 1022.41 4.17163 0.191031 0
M  V30 10331 N 1022.85 0.866709 1.31628 0
M  V30 10332 C 1024.09 0.476731 1.97117 0
M  V30 10333 C 1024.42 -0.967813 1.68366 0
M  V30 10334 O 1023.7 -1.68101 0.978377 0
M  V30 10335 C 1023.98 0.730561 3.52611 0
M  V30 10336 C 1023.84 2.2244 3.90948 0
M  V30 10337 C 1025.15 0.19488 4.39668 0
M  V30 10338 H 1022.27 0.174682 0.715999 0
M  V30 10339 H 1024.92 1.08735 1.5581 0
M  V30 10340 H 1023.07 0.210834 3.87927 0
M  V30 10341 H 1024.74 2.81113 3.6575 0
M  V30 10342 H 1022.98 2.69824 3.39673 0
M  V30 10343 H 1023.65 2.35266 4.99353 0
M  V30 10344 H 1026.13 0.639478 4.11157 0
M  V30 10345 H 1025 0.401958 5.47426 0
M  V30 10346 H 1025.26 -0.90302 4.32779 0
M  V30 10347 N 1024.32 -1.44642 0.625825 0
M  V30 10348 C 1025.25 -2.33397 -0.0692188 0
M  V30 10349 C 1026.23 -1.47898 -0.840241 0
M  V30 10350 O 1027.42 -1.7663 -0.807176 0
M  V30 10351 C 1024.55 -3.30888 -1.055 0
M  V30 10352 C 1023.5 -4.26164 -0.395968 0
M  V30 10353 C 1022.83 -5.13483 -1.49128 0
M  V30 10354 C 1024.13 -5.17663 0.694433 0
M  V30 10355 H 1025.82 -2.91763 0.671925 0
M  V30 10356 H 1023.37 -1.40294 0.324573 0
M  V30 10357 H 1025.32 -3.91861 -1.54993 0
M  V30 10358 H 1024.05 -2.7072 -1.82696 0
M  V30 10359 H 1022.71 -3.66516 0.0782691 0
M  V30 10360 H 1022.35 -4.49672 -2.25399 0
M  V30 10361 H 1022.05 -5.78038 -1.05573 0
M  V30 10362 H 1023.58 -5.77327 -1.98813 0
M  V30 10363 H 1024.99 -5.72602 0.282818 0
M  V30 10364 H 1023.39 -5.90793 1.05281 0
M  V30 10365 H 1024.46 -4.58994 1.56372 0
M  V30 10366 N 1025.8 -0.366053 -1.5329 0
M  V30 10367 C 1027.03 0.224236 -2.05681 0
M  V30 10368 C 1027.44 1.42412 -1.23952 0
M  V30 10369 O 1026.8 1.80334 -0.280309 0
M  V30 10370 C 1026.85 0.617266 -3.56191 0
M  V30 10371 O 1026.57 -0.534931 -4.34822 0
M  V30 10372 C 1028.07 1.26589 -4.24841 0
M  V30 10373 H 1025.29 0.0392928 -0.669849 0
M  V30 10374 H 1027.84 -0.52456 -1.97658 0
M  V30 10375 H 1025.99 1.31598 -3.64364 0
M  V30 10376 H 1026.41 -0.217123 -5.2405 0
M  V30 10377 H 1027.88 1.49146 -5.31469 0
M  V30 10378 H 1028.36 2.22633 -3.78591 0
M  V30 10379 H 1028.96 0.6086 -4.20923 0
M  V30 10380 N 1027.28 1.57312 -0.0952337 0
M  V30 10381 C 1028.53 1.95449 0.563155 0
M  V30 10382 C 1028.88 0.976396 1.65784 0
M  V30 10383 O 1028.17 0.00241533 1.916 0
M  V30 10384 C 1028.37 3.37937 1.16332 0
M  V30 10385 C 1028.2 4.49517 0.128308 0
M  V30 10386 C 1026.97 5.04437 -0.295252 0
M  V30 10387 C 1029.16 5.10257 -0.643571 0
M  V30 10388 N 1027.15 5.99573 -1.31852 0
M  V30 10389 C 1028.52 6.01113 -1.51867 0
M  V30 10390 C 1030.57 4.92996 -0.697074 0
M  V30 10391 C 1029.28 6.76559 -2.44256 0
M  V30 10392 C 1031.3 5.69104 -1.60857 0
M  V30 10393 C 1030.66 6.59626 -2.47129 0
M  V30 10394 H 1026.76 0.761844 0.176402 0
M  V30 10395 H 1029.35 1.93886 -0.177833 0
M  V30 10396 H 1027.52 3.40193 1.87413 0
M  V30 10397 H 1029.25 3.63253 1.78408 0
M  V30 10398 H 1026 4.7351 0.0925153 0
M  V30 10399 H 1026.43 6.51843 -1.82836 0
M  V30 10400 H 1031.07 4.22777 -0.0442422 0
M  V30 10401 H 1028.79 7.4604 -3.10564 0
M  V30 10402 H 1032.37 5.57761 -1.65511 0
M  V30 10403 H 1031.25 7.17487 -3.16515 0
M  V30 10404 N 1028.76 -0.17846 1.56586 0
M  V30 10405 C 1029.98 -0.916061 1.86073 0
M  V30 10406 C 1030.41 -1.75349 0.680754 0
M  V30 10407 O 1029.77 -1.77479 -0.37028 0
M  V30 10408 C 1029.81 -1.77445 3.1392 0
M  V30 10409 O 1028.92 -2.87524 2.95641 0
M  V30 10410 H 1028.26 -0.257031 0.612234 0
M  V30 10411 H 1030.79 -0.178755 2.03818 0
M  V30 10412 H 1030.8 -2.1758 3.45142 0
M  V30 10413 H 1029.47 -1.15927 3.99417 0
M  V30 10414 H 1028.05 -2.51023 2.75757 0
M  V30 10415 N 1030.24 -1.51135 -0.446768 0
M  V30 10416 C 1031.2 -1.71187 -1.52406 0
M  V30 10417 C 1032.2 -0.582037 -1.49897 0
M  V30 10418 O 1033.39 -0.849452 -1.52085 0
M  V30 10419 C 1030.52 -1.75962 -2.91976 0
M  V30 10420 H 1031.71 -2.67324 -1.35934 0
M  V30 10421 H 1029.27 -1.40982 -0.674813 0
M  V30 10422 H 1030 -0.816065 -3.13864 0
M  V30 10423 H 1029.79 -2.58065 -2.95203 0
M  V30 10424 H 1031.28 -1.93347 -3.70144 0
M  V30 10425 N 1031.71 0.701592 -1.41122 0
M  V30 10426 C 1032.94 1.49553 -1.43696 0
M  V30 10427 C 1033.36 1.88053 -0.0421865 0
M  V30 10428 O 1032.72 1.54223 0.953144 0
M  V30 10429 C 1032.77 2.73834 -2.34622 0
M  V30 10430 O 1031.87 3.71088 -1.7991 0
M  V30 10431 H 1031.21 0.450352 -0.487933 0
M  V30 10432 H 1033.74 0.862886 -1.85514 0
M  V30 10433 H 1033.75 3.22209 -2.5029 0
M  V30 10434 H 1032.43 2.45149 -3.35969 0
M  V30 10435 H 1031.01 3.29994 -1.73661 0
M  V30 10436 N 1033.19 1.2685 0.935242 0
M  V30 10437 C 1034.42 1.15645 1.72165 0
M  V30 10438 C 1034.84 -0.283909 1.85945 0
M  V30 10439 O 1034.2 -1.20567 1.354 0
M  V30 10440 C 1034.25 1.83689 3.10307 0
M  V30 10441 O 1033.35 1.12972 3.96625 0
M  V30 10442 H 1032.69 0.402629 0.528002 0
M  V30 10443 H 1035.22 1.67781 1.17093 0
M  V30 10444 H 1035.23 1.90749 3.60664 0
M  V30 10445 H 1033.91 2.88472 2.99595 0
M  V30 10446 H 1032.48 1.13929 3.5507 0
M  V30 10447 N 1034.67 -1.14067 1.0875 0
M  V30 10448 C 1035.95 -1.81389 0.73195 0
M  V30 10449 C 1036.33 -1.96005 -0.78391 0
M  V30 10450 O 1035.68 -1.52267 -1.70373 0
M  V30 10451 C 1035.89 -3.16858 1.46294 0
M  V30 10452 C 1037.23 -3.92305 1.62426 0
M  V30 10453 O 1038.26 -3.26459 1.42488 0
M  V30 10454 O 1037.12 -5.10393 1.9535 0
M  V30 10455 H 1034.21 -0.784354 0.262141 0
M  V30 10456 H 1036.76 -1.21054 1.18929 0
M  V30 10457 H 1035.53 -3.01404 2.49542 0
M  V30 10458 H 1035.15 -3.84889 0.997318 0
M  V30 10459 N 1036.15 -0.873678 -1.31166 0
M  V30 10460 C 1037.38 -0.501043 -2.00742 0
M  V30 10461 C 1037.79 0.907477 -1.65561 0
M  V30 10462 O 1037.15 1.59507 -0.886771 0
M  V30 10463 C 1037.2 -0.652877 -3.55556 0
M  V30 10464 O 1036.92 -2.00593 -3.89479 0
M  V30 10465 C 1038.42 -0.281742 -4.42404 0
M  V30 10466 H 1035.64 -0.194829 -0.642092 0
M  V30 10467 H 1038.19 -1.17587 -1.67313 0
M  V30 10468 H 1036.34 -0.0255627 -3.87392 0
M  V30 10469 H 1036.75 -2.01638 -4.84193 0
M  V30 10470 H 1038.23 -0.43892 -5.50252 0
M  V30 10471 H 1038.71 0.779389 -4.32229 0
M  V30 10472 H 1039.31 -0.88491 -4.15992 0
M  V30 10473 N 1037.63 1.44308 -0.633487 0
M  V30 10474 C 1038.87 2.01624 -0.138643 0
M  V30 10475 C 1039.2 1.50101 1.24477 0
M  V30 10476 O 1038.47 0.705575 1.82752 0
M  V30 10477 H 1037.05 0.745439 -0.0482636 0
M  V30 10478 H 1039.71 1.76777 -0.820719 0
M  V30 10479 H 1038.8 3.11913 -0.108136 0
M  V30 10480 N 1039.1 0.374177 1.53094 0
M  V30 10481 C 1040.35 -0.212396 2.00981 0
M  V30 10482 C 1040.67 -1.48576 1.26293 0
M  V30 10483 O 1039.94 -1.92206 0.378642 0
M  V30 10484 H 1038.52 -0.0814763 0.742543 0
M  V30 10485 H 1041.19 0.502389 1.88314 0
M  V30 10486 H 1040.28 -0.433316 3.09077 0
M  V30 10487 N 1040.58 -1.57259 0.103575 0
M  V30 10488 C 1041.81 -1.99424 -0.569638 0
M  V30 10489 C 1042.23 -0.982475 -1.60403 0
M  V30 10490 O 1041.59 0.0479231 -1.81237 0
M  V30 10491 C 1041.64 -3.40527 -1.18633 0
M  V30 10492 O 1040.74 -3.42167 -2.30208 0
M  V30 10493 H 1040.08 -0.648251 -0.143759 0
M  V30 10494 H 1042.61 -2.03739 0.187493 0
M  V30 10495 H 1042.62 -3.78404 -1.5256 0
M  V30 10496 H 1041.3 -4.13686 -0.428582 0
M  V30 10497 H 1039.88 -3.16093 -1.97837 0
M  V30 10498 N 1042.06 0.170153 -1.56679 0
M  V30 10499 C 1043.31 0.884841 -1.817 0
M  V30 10500 C 1043.63 1.82731 -0.680763 0
M  V30 10501 O 1042.9 1.936 0.299294 0
M  V30 10502 H 1041.48 0.329738 -0.670285 0
M  V30 10503 H 1044.14 0.169691 -1.9416 0
M  V30 10504 H 1043.24 1.46104 -2.7579 0
M  V30 10505 N 1043.54 1.5137 0.438746 0
M  V30 10506 C 1044.78 1.64211 1.19006 0
M  V30 10507 C 1045.12 0.356607 1.90898 0
M  V30 10508 O 1044.39 -0.643722 1.83539 0
M  V30 10509 C 1044.68 2.8445 2.20817 0
M  V30 10510 C 1044.53 4.22972 1.53018 0
M  V30 10511 C 1045.85 3.00207 3.21813 0
M  V30 10512 H 1042.97 0.597628 0.431288 0
M  V30 10513 H 1045.61 1.8385 0.479487 0
M  V30 10514 H 1043.76 2.67836 2.81418 0
M  V30 10515 H 1045.43 4.5125 0.957654 0
M  V30 10516 H 1043.67 4.25736 0.832556 0
M  V30 10517 H 1044.34 5.03094 2.27158 0
M  V30 10518 H 1046.82 3.15522 2.71266 0
M  V30 10519 H 1045.7 3.85904 3.90345 0
M  V30 10520 H 1045.96 2.12216 3.87836 0
M  V30 10521 N 1045.02 -0.694098 1.41492 0
M  V30 10522 C 1045.98 -1.78976 1.43179 0
M  V30 10523 C 1046.98 -1.57539 0.322191 0
M  V30 10524 O 1048.17 -1.64185 0.582138 0
M  V30 10525 C 1045.3 -3.17368 1.2446 0
M  V30 10526 H 1046.49 -1.78874 2.40716 0
M  V30 10527 H 1044.05 -0.901867 1.27656 0
M  V30 10528 H 1044.78 -3.23109 0.277691 0
M  V30 10529 H 1044.57 -3.3433 2.04856 0
M  V30 10530 H 1046.06 -3.97345 1.28479 0
M  V30 10531 N 1046.49 -1.27344 -0.928501 0
M  V30 10532 C 1047.74 -1.13411 -1.67279 0
M  V30 10533 C 1048.06 0.320698 -1.92345 0
M  V30 10534 O 1047.33 1.2245 -1.52915 0
M  V30 10535 H 1045.91 -0.416712 -0.619968 0
M  V30 10536 H 1048.58 -1.5986 -1.11493 0
M  V30 10537 H 1047.67 -1.66256 -2.64131 0
M  V30 10538 N 1047.97 1.13488 -1.09353 0
M  V30 10539 C 1049.2 1.88319 -0.849681 0
M  V30 10540 C 1049.61 1.79347 0.602616 0
M  V30 10541 O 1048.95 1.15744 1.4265 0
M  V30 10542 C 1049.02 3.38698 -1.20514 0
M  V30 10543 C 1048.68 3.71452 -2.66219 0
M  V30 10544 C 1049.68 3.70755 -3.64467 0
M  V30 10545 C 1047.36 4.01132 -3.02321 0
M  V30 10546 C 1049.36 3.9928 -4.96845 0
M  V30 10547 C 1047.04 4.29318 -4.3489 0
M  V30 10548 C 1048.04 4.28376 -5.31961 0
M  V30 10549 O 1047.73 4.55872 -6.62145 0
M  V30 10550 H 1047.46 0.603053 -0.305455 0
M  V30 10551 H 1050.01 1.44592 -1.45884 0
M  V30 10552 H 1048.24 3.82925 -0.539022 0
M  V30 10553 H 1049.93 3.94852 -0.940552 0
M  V30 10554 H 1050.7 3.47901 -3.3792 0
M  V30 10555 H 1046.58 4.01013 -2.27398 0
M  V30 10556 H 1050.12 3.9846 -5.72604 0
M  V30 10557 H 1046.02 4.51644 -4.61181 0
M  V30 10558 H 1046.79 4.73544 -6.67607 0
M  V30 10559 N 1049.45 0.880621 1.30701 0
M  V30 10560 C 1050.73 0.41712 1.91101 0
M  V30 10561 C 1051.11 -1.10177 1.80067 0
M  V30 10562 O 1050.46 -1.93513 1.21511 0
M  V30 10563 C 1050.67 0.910364 3.36917 0
M  V30 10564 C 1052.01 0.942764 4.14001 0
M  V30 10565 O 1053.04 0.856733 3.45743 0
M  V30 10566 O 1051.9 1.06913 5.3594 0
M  V30 10567 H 1048.99 0.126775 0.817225 0
M  V30 10568 H 1051.54 0.969236 1.39298 0
M  V30 10569 H 1050.31 1.95414 3.39012 0
M  V30 10570 H 1049.93 0.337164 3.96168 0
M  V30 10571 N 1050.93 -1.4397 0.641131 0
M  V30 10572 C 1052.18 -2.02246 0.14985 0
M  V30 10573 C 1052.51 -1.50387 -1.22871 0
M  V30 10574 O 1051.78 -0.692003 -1.81773 0
M  V30 10575 C 1052.07 -3.59798 0.147449 0
M  V30 10576 C 1051.92 -4.21916 1.55907 0
M  V30 10577 C 1053.24 -4.36985 -0.522667 0
M  V30 10578 H 1050.36 -0.734875 0.0559274 0
M  V30 10579 H 1053 -1.71418 0.819513 0
M  V30 10580 H 1051.15 -3.86193 -0.422789 0
M  V30 10581 H 1052.82 -4.06594 2.17896 0
M  V30 10582 H 1051.06 -3.79028 2.10998 0
M  V30 10583 H 1051.74 -5.30964 1.50934 0
M  V30 10584 H 1054.21 -4.16083 -0.0376226 0
M  V30 10585 H 1053.09 -5.46676 -0.493572 0
M  V30 10586 H 1053.35 -4.12335 -1.59475 0
M  V30 10587 N 1052.41 -0.382291 -1.52893 0
M  V30 10588 C 1053.65 0.202133 -2.01489 0
M  V30 10589 C 1053.98 1.47399 -1.26901 0
M  V30 10590 O 1053.24 1.92439 -0.355771 0
M  V30 10591 C 1053.54 0.523437 -3.53546 0
M  V30 10592 C 1053.2 -0.656042 -4.46102 0
M  V30 10593 C 1051.86 -0.979633 -4.71123 0
M  V30 10594 C 1054.22 -1.44545 -5.00756 0
M  V30 10595 C 1051.54 -2.0943 -5.48047 0
M  V30 10596 C 1053.9 -2.55066 -5.78899 0
M  V30 10597 C 1052.56 -2.87942 -6.02201 0
M  V30 10598 H 1051.83 0.0739659 -0.737299 0
M  V30 10599 H 1054.48 -0.518196 -1.84356 0
M  V30 10600 H 1052.78 1.325 -3.68715 0
M  V30 10601 H 1054.48 0.988148 -3.88634 0
M  V30 10602 H 1051.07 -0.393818 -4.26787 0
M  V30 10603 H 1055.25 -1.20869 -4.81357 0
M  V30 10604 H 1050.51 -2.3528 -5.64317 0
M  V30 10605 H 1054.68 -3.1664 -6.20252 0
M  V30 10606 H 1052.31 -3.74435 -6.61591 0
M  V30 10607 N 1053.89 1.57202 -0.111913 0
M  V30 10608 C 1054.82 2.17957 0.837683 0
M  V30 10609 C 1055.8 1.1176 1.28233 0
M  V30 10610 O 1056.98 1.39967 1.34621 0
M  V30 10611 C 1054.11 2.77333 2.09054 0
M  V30 10612 C 1053.07 3.8905 1.78393 0
M  V30 10613 C 1052.39 4.35203 3.10649 0
M  V30 10614 C 1053.69 5.11477 1.05775 0
M  V30 10615 H 1055.39 2.9756 0.331441 0
M  V30 10616 H 1052.93 1.43131 0.157979 0
M  V30 10617 H 1054.88 3.18492 2.75936 0
M  V30 10618 H 1053.61 1.95009 2.6199 0
M  V30 10619 H 1052.27 3.48456 1.13903 0
M  V30 10620 H 1051.92 3.49747 3.61506 0
M  V30 10621 H 1051.62 5.10534 2.9091 0
M  V30 10622 H 1053.14 4.79007 3.78661 0
M  V30 10623 H 1054.55 5.497 1.62798 0
M  V30 10624 H 1052.95 5.92346 0.961573 0
M  V30 10625 H 1054.02 4.84881 0.043297 0
M  V30 10626 N 1055.36 -0.161842 1.56767 0
M  V30 10627 C 1056.78 -0.51396 1.51098 0
M  V30 10628 C 1056.98 -1.84158 0.817815 0
M  V30 10629 O 1056.04 -2.49592 0.382133 0
M  V30 10630 C 1057.35 -0.537966 2.95849 0
M  V30 10631 C 1058.9 -0.624512 3.06706 0
M  V30 10632 C 1059.37 -0.679322 4.52934 0
M  V30 10633 N 1060.86 -0.741953 4.57219 0
M  V30 10634 C 1061.6 -0.805096 5.6772 0
M  V30 10635 N 1061.09 -0.828492 6.87828 0
M  V30 10636 N 1062.89 -0.844843 5.55715 0
M  V30 10637 H 1055.04 0.708581 2.00232 0
M  V30 10638 H 1057.3 0.25663 0.912603 0
M  V30 10639 H 1057.01 0.369052 3.49758 0
M  V30 10640 H 1056.88 -1.38113 3.51005 0
M  V30 10641 H 1059.27 -1.52195 2.52825 0
M  V30 10642 H 1059.35 0.245515 2.54619 0
M  V30 10643 H 1058.99 0.213901 5.07449 0
M  V30 10644 H 1058.92 -1.56563 5.02788 0
M  V30 10645 H 1061.41 -0.731772 3.70747 0
M  V30 10646 H 1061.73 -0.878109 7.67795 0
M  V30 10647 H 1060.07 -0.796612 6.9042 0
M  V30 10648 H 1063.26 -0.823632 4.60797 0
M  V30 10649 H 1063.44 -0.890588 6.41851 0
M  V30 10650 N 1056.84 -1.516 -0.430713 0
M  V30 10651 C 1057.8 -1.72794 -1.50582 0
M  V30 10652 C 1058.8 -0.597903 -1.49271 0
M  V30 10653 O 1059.99 -0.865535 -1.51176 0
M  V30 10654 C 1057.13 -1.79049 -2.90093 0
M  V30 10655 H 1058.32 -2.68751 -1.33091 0
M  V30 10656 H 1055.87 -1.4169 -0.659822 0
M  V30 10657 H 1056.61 -0.849309 -3.12981 0
M  V30 10658 H 1056.39 -2.61181 -2.92449 0
M  V30 10659 H 1057.88 -1.97262 -3.68072 0
M  V30 10660 N 1058.32 0.686584 -1.41858 0
M  V30 10661 C 1059.57 1.44379 -1.41418 0
M  V30 10662 C 1059.89 1.94981 -0.0273696 0
M  V30 10663 O 1059.16 1.72296 0.932248 0
M  V30 10664 H 1057.74 0.53574 -0.520568 0
M  V30 10665 H 1060.4 0.812056 -1.77177 0
M  V30 10666 H 1059.5 2.30258 -2.10684 0
M  V30 10667 N 1059.8 1.27835 0.921735 0
M  V30 10668 C 1061.03 1.17352 1.704 0
M  V30 10669 C 1061.44 -0.268892 1.86875 0
M  V30 10670 O 1060.8 -1.18253 1.39005 0
M  V30 10671 C 1060.85 1.85889 3.10045 0
M  V30 10672 O 1060.57 3.24495 2.94338 0
M  V30 10673 C 1062.07 1.81607 4.04393 0
M  V30 10674 H 1059.29 0.40773 0.532914 0
M  V30 10675 H 1061.83 1.68815 1.15419 0
M  V30 10676 H 1059.99 1.38316 3.61867 0
M  V30 10677 H 1060.4 3.58705 3.82663 0
M  V30 10678 H 1061.88 2.34165 4.99871 0
M  V30 10679 H 1062.35 0.786697 4.32097 0
M  V30 10680 H 1062.96 2.28822 3.58498 0
M  V30 10681 N 1061.28 -1.12907 1.09954 0
M  V30 10682 C 1062.52 -1.83941 0.837255 0
M  V30 10683 C 1062.84 -1.84234 -0.638984 0
M  V30 10684 O 1062.11 -1.30193 -1.46378 0
M  V30 10685 H 1060.69 -0.681115 0.306743 0
M  V30 10686 H 1063.36 -1.36743 1.38879 0
M  V30 10687 H 1062.45 -2.88289 1.19565 0
M  V30 10688 N 1062.75 -0.88754 -1.30232 0
M  V30 10689 C 1063.69 -0.313488 -2.27046 0
M  V30 10690 C 1064.7 0.533383 -1.53814 0
M  V30 10691 O 1065.89 0.352516 -1.74984 0
M  V30 10692 C 1062.99 0.572674 -3.34026 0
M  V30 10693 C 1062.16 -0.245712 -4.36709 0
M  V30 10694 C 1061.22 0.57135 -5.23089 0
M  V30 10695 O 1060.25 -0.00685948 -5.692 0
M  V30 10696 N 1061.45 1.87994 -5.49216 0
M  V30 10697 H 1064.21 -1.14553 -2.76943 0
M  V30 10698 H 1061.77 -0.750785 -1.43439 0
M  V30 10699 H 1063.77 1.12539 -3.88738 0
M  V30 10700 H 1062.34 1.3054 -2.84039 0
M  V30 10701 H 1061.56 -0.979869 -3.81827 0
M  V30 10702 H 1062.84 -0.806618 -5.02366 0
M  V30 10703 H 1062.24 2.3726 -5.13541 0
M  V30 10704 H 1060.8 2.38005 -6.06792 0
M  V30 10705 N 1064.23 1.43628 -0.648757 0
M  V30 10706 C 1065.14 2.34554 0.0463037 0
M  V30 10707 C 1066.16 1.53629 0.816952 0
M  V30 10708 O 1067.33 1.86297 0.765212 0
M  V30 10709 C 1064.4 3.3185 1.00381 0
M  V30 10710 C 1063.46 4.2868 0.230589 0
M  V30 10711 C 1062.69 5.21328 1.14249 0
M  V30 10712 O 1062.92 5.18298 2.38166 0
M  V30 10713 O 1061.85 5.98726 0.617296 0
M  V30 10714 H 1065.68 2.95475 -0.702008 0
M  V30 10715 H 1063.26 1.43694 -0.408942 0
M  V30 10716 H 1065.14 3.91692 1.5542 0
M  V30 10717 H 1063.82 2.73439 1.73243 0
M  V30 10718 H 1062.73 3.72332 -0.363282 0
M  V30 10719 H 1064.06 4.90061 -0.458368 0
M  V30 10720 N 1065.71 0.390394 1.52688 0
M  V30 10721 C 1066.64 -0.479319 2.24132 0
M  V30 10722 C 1067.66 -1.0258 1.26416 0
M  V30 10723 O 1068.84 -0.927943 1.52484 0
M  V30 10724 C 1065.94 -1.67711 2.94493 0
M  V30 10725 C 1065.12 -1.2578 4.18925 0
M  V30 10726 C 1064.18 -2.3204 4.72275 0
M  V30 10727 O 1063.2 -1.93402 5.35336 0
M  V30 10728 N 1064.4 -3.63967 4.52226 0
M  V30 10729 H 1067.17 0.132777 2.99406 0
M  V30 10730 H 1064.73 0.216807 1.60442 0
M  V30 10731 H 1066.72 -2.38323 3.27084 0
M  V30 10732 H 1065.29 -2.19552 2.22521 0
M  V30 10733 H 1064.51 -0.380528 3.92359 0
M  V30 10734 H 1065.8 -0.954329 4.9977 0
M  V30 10735 H 1065.2 -3.98119 4.01892 0
M  V30 10736 H 1063.76 -4.30611 4.89303 0
M  V30 10737 N 1067.19 -1.57141 0.120249 0
M  V30 10738 C 1068.14 -2.15379 -0.829497 0
M  V30 10739 C 1069.11 -1.07913 -1.2627 0
M  V30 10740 O 1070.29 -1.35827 -1.33999 0
M  V30 10741 C 1067.43 -2.75847 -2.0737 0
M  V30 10742 C 1066.54 -3.97624 -1.68875 0
M  V30 10743 C 1065.68 -4.46175 -2.88272 0
M  V30 10744 C 1064.72 -5.60481 -2.46023 0
M  V30 10745 N 1063.85 -6.0377 -3.58337 0
M  V30 10746 H 1068.69 -2.96211 -0.326031 0
M  V30 10747 H 1066.23 -1.46341 -0.149235 0
M  V30 10748 H 1068.19 -3.09037 -2.80272 0
M  V30 10749 H 1066.82 -1.97703 -2.55174 0
M  V30 10750 H 1065.87 -3.70588 -0.858431 0
M  V30 10751 H 1067.18 -4.80512 -1.33827 0
M  V30 10752 H 1066.34 -4.8128 -3.69397 0
M  V30 10753 H 1065.08 -3.6224 -3.26548 0
M  V30 10754 H 1064.08 -5.24979 -1.63331 0
M  V30 10755 H 1065.31 -6.46184 -2.08863 0
M  V30 10756 H 1063.25 -5.22776 -3.96284 0
M  V30 10757 H 1063.17 -6.81517 -3.27217 0
M  V30 10758 H 1064.44 -6.43514 -4.39898 0
M  V30 10759 N 1068.67 0.153526 -1.5685 0
M  V30 10760 C 1069.91 0.868517 -1.83261 0
M  V30 10761 C 1070.25 1.81112 -0.700857 0
M  V30 10762 O 1069.52 1.92235 0.295989 0
M  V30 10763 C 1069.8 1.6487 -3.2014 0
M  V30 10764 C 1069.66 0.728021 -4.43869 0
M  V30 10765 C 1070.98 2.61259 -3.54163 0
M  V30 10766 H 1068.09 0.314297 -0.666623 0
M  V30 10767 H 1070.74 0.133971 -1.89527 0
M  V30 10768 H 1068.89 2.2749 -3.1493 0
M  V30 10769 H 1070.56 0.113328 -4.61161 0
M  V30 10770 H 1068.8 0.0371744 -4.33784 0
M  V30 10771 H 1069.47 1.30981 -5.36235 0
M  V30 10772 H 1071.95 2.0876 -3.59942 0
M  V30 10773 H 1070.82 3.12902 -4.50981 0
M  V30 10774 H 1071.09 3.42307 -2.79782 0
M  V30 10775 N 1070.14 1.51827 0.422667 0
M  V30 10776 C 1071.39 1.64893 1.16853 0
M  V30 10777 C 1071.71 0.37456 1.91369 0
M  V30 10778 O 1070.98 -0.610128 1.86157 0
M  V30 10779 H 1069.56 0.607744 0.434345 0
M  V30 10780 H 1072.23 1.88816 0.483159 0
M  V30 10781 H 1071.32 2.48361 1.89006 0
M  V30 10782 N 1071.62 -0.679052 1.4222 0
M  V30 10783 C 1072.85 -1.47248 1.46058 0
M  V30 10784 C 1073.27 -1.87962 0.0720987 0
M  V30 10785 O 1072.63 -1.5572 -0.928488 0
M  V30 10786 C 1072.68 -2.70067 2.38948 0
M  V30 10787 O 1071.78 -3.68178 1.85791 0
M  V30 10788 H 1071.12 -0.442533 0.495036 0
M  V30 10789 H 1073.65 -0.833263 1.86863 0
M  V30 10790 H 1073.66 -3.18187 2.55385 0
M  V30 10791 H 1072.34 -2.39773 3.39826 0
M  V30 10792 H 1070.92 -3.2719 1.78889 0
M  V30 10793 N 1073.1 -1.28322 -0.914942 0
M  V30 10794 C 1074.33 -1.18254 -1.69775 0
M  V30 10795 C 1074.74 0.258978 -1.87015 0
M  V30 10796 O 1074.1 1.17514 -1.3963 0
M  V30 10797 C 1074.15 -1.8753 -3.09054 0
M  V30 10798 O 1073.87 -3.26051 -2.92613 0
M  V30 10799 C 1075.37 -1.83749 -4.03424 0
M  V30 10800 H 1072.59 -0.41055 -0.530744 0
M  V30 10801 H 1075.14 -1.69425 -1.14523 0
M  V30 10802 H 1073.29 -1.40233 -3.61128 0
M  V30 10803 H 1073.71 -3.60729 -3.80756 0
M  V30 10804 H 1075.18 -2.36813 -4.98622 0
M  V30 10805 H 1075.66 -0.809601 -4.31674 0
M  V30 10806 H 1076.26 -2.3072 -3.57279 0
M  V30 10807 N 1074.58 1.12322 -1.10551 0
M  V30 10808 C 1075.81 1.87679 -0.87087 0
M  V30 10809 C 1076.22 1.79711 0.578733 0
M  V30 10810 O 1075.58 1.17185 1.39907 0
M  V30 10811 C 1075.63 3.36846 -1.31213 0
M  V30 10812 O 1075.35 3.44626 -2.70489 0
M  V30 10813 C 1076.85 4.29138 -1.11156 0
M  V30 10814 H 1074.07 0.593788 -0.3125 0
M  V30 10815 H 1076.62 1.42116 -1.47048 0
M  V30 10816 H 1074.77 3.79948 -0.756169 0
M  V30 10817 H 1075.18 4.37441 -2.89389 0
M  V30 10818 H 1076.66 5.32082 -1.46944 0
M  V30 10819 H 1077.14 4.39171 -0.0502963 0
M  V30 10820 H 1077.74 3.91818 -1.65405 0
M  V30 10821 N 1076.06 0.894434 1.2976 0
M  V30 10822 C 1077.47 0.589778 1.48303 0
M  V30 10823 C 1077.67 -0.870085 1.81746 0
M  V30 10824 O 1076.73 -1.65065 1.91076 0
M  V30 10825 C 1078.04 1.51107 2.59975 0
M  V30 10826 C 1079.59 1.51571 2.73853 0
M  V30 10827 C 1080.06 2.42316 3.88648 0
M  V30 10828 N 1081.56 2.40333 3.95973 0
M  V30 10829 C 1082.29 3.07254 4.84131 0
M  V30 10830 N 1081.79 3.83435 5.77018 0
M  V30 10831 N 1083.58 2.96438 4.77578 0
M  V30 10832 H 1075.73 1.83871 1.06327 0
M  V30 10833 H 1077.99 0.78758 0.527657 0
M  V30 10834 H 1077.7 2.55097 2.42112 0
M  V30 10835 H 1077.57 1.22767 3.56662 0
M  V30 10836 H 1079.96 0.483277 2.91116 0
M  V30 10837 H 1080.04 1.83946 1.77757 0
M  V30 10838 H 1079.69 3.4565 3.72141 0
M  V30 10839 H 1079.62 2.07252 4.84101 0
M  V30 10840 H 1082.11 1.84979 3.29532 0
M  V30 10841 H 1082.42 4.31565 6.4107 0
M  V30 10842 H 1080.76 3.87542 5.7692 0
M  V30 10843 H 1083.96 2.36442 4.03996 0
M  V30 10844 H 1084.13 3.48867 5.46073 0
M  V30 10845 N 1077.53 -1.43282 0.656365 0
M  V30 10846 C 1078.76 -2.06125 0.178879 0
M  V30 10847 C 1079.18 -1.49216 -1.15672 0
M  V30 10848 O 1078.53 -0.624693 -1.71475 0
M  V30 10849 C 1078.59 -3.614 0.0851785 0
M  V30 10850 O 1078.31 -4.16194 1.36798 0
M  V30 10851 C 1079.81 -4.41325 -0.41801 0
M  V30 10852 H 1077.03 -0.664753 0.0913504 0
M  V30 10853 H 1079.57 -1.83733 0.897901 0
M  V30 10854 H 1077.73 -3.82966 -0.584421 0
M  V30 10855 H 1078.14 -5.09892 1.22924 0
M  V30 10856 H 1079.61 -5.50303 -0.432519 0
M  V30 10857 H 1080.09 -4.14577 -1.44991 0
M  V30 10858 H 1080.7 -4.24735 0.219208 0
M  V30 10859 N 1079.01 -0.398486 -1.52479 0
M  V30 10860 C 1080.24 0.183059 -2.06591 0
M  V30 10861 C 1080.66 1.3898 -1.26753 0
M  V30 10862 O 1080.02 1.78885 -0.294959 0
M  V30 10863 C 1080.07 0.522392 -3.56796 0
M  V30 10864 O 1079.17 1.61499 -3.79462 0
M  V30 10865 H 1078.51 0.0188411 -0.663733 0
M  V30 10866 H 1081.04 -0.56861 -1.9654 0
M  V30 10867 H 1081.05 0.784078 -4.00395 0
M  V30 10868 H 1079.73 -0.359807 -4.14341 0
M  V30 10869 H 1078.31 1.3463 -3.47749 0
M  V30 10870 N 1080.49 1.57075 -0.12858 0
M  V30 10871 C 1081.74 1.9552 0.527087 0
M  V30 10872 C 1082.07 1.01243 1.66072 0
M  V30 10873 O 1081.32 0.0381076 1.95663 0
M  V30 10874 C 1081.62 3.40329 1.09138 0
M  V30 10875 C 1081.29 4.50832 0.0781039 0
M  V30 10876 C 1079.95 4.80782 -0.200493 0
M  V30 10877 C 1082.3 5.17595 -0.61192 0
M  V30 10878 C 1079.63 5.74809 -1.17524 0
M  V30 10879 C 1081.98 6.12671 -1.57536 0
M  V30 10880 C 1080.64 6.41008 -1.86184 0
M  V30 10881 H 1079.91 0.715458 0.192875 0
M  V30 10882 H 1082.56 1.90328 -0.211515 0
M  V30 10883 H 1080.87 3.42262 1.90694 0
M  V30 10884 H 1082.56 3.67393 1.60696 0
M  V30 10885 H 1079.15 4.2751 0.30543 0
M  V30 10886 H 1083.34 4.94605 -0.40986 0
M  V30 10887 H 1078.59 5.95065 -1.40384 0
M  V30 10888 H 1082.77 6.63486 -2.11565 0
M  V30 10889 H 1080.39 7.13673 -2.61868 0
M  V30 10890 N 1081.97 -0.145205 1.5693 0
M  V30 10891 C 1083.2 -0.872398 1.87608 0
M  V30 10892 C 1083.61 -1.74657 0.716975 0
M  V30 10893 O 1082.97 -1.79792 -0.3132 0
M  V30 10894 C 1083.02 -1.72762 3.17546 0
M  V30 10895 O 1082.74 -0.888681 4.28992 0
M  V30 10896 C 1084.24 -2.56224 3.61751 0
M  V30 10897 H 1081.46 -0.252166 0.621815 0
M  V30 10898 H 1084.01 -0.137456 2.04038 0
M  V30 10899 H 1082.16 -2.41561 3.02865 0
M  V30 10900 H 1082.58 -1.47601 5.03303 0
M  V30 10901 H 1084.05 -3.11804 4.55502 0
M  V30 10902 H 1084.53 -3.32347 2.87127 0
M  V30 10903 H 1085.13 -1.92714 3.79133 0
M  V30 10904 N 1083.45 -1.52049 -0.414609 0
M  V30 10905 C 1084.38 -1.77956 -1.51175 0
M  V30 10906 C 1085.36 -0.630282 -1.57992 0
M  V30 10907 O 1086.54 -0.875324 -1.73354 0
M  V30 10908 C 1083.67 -1.92527 -2.89051 0
M  V30 10909 C 1082.63 -3.08096 -2.97087 0
M  V30 10910 C 1081.95 -3.07882 -4.37164 0
M  V30 10911 C 1083.25 -4.47656 -2.69075 0
M  V30 10912 H 1084.95 -2.69827 -1.29746 0
M  V30 10913 H 1082.49 -1.29839 -0.62273 0
M  V30 10914 H 1084.45 -2.09234 -3.65786 0
M  V30 10915 H 1083.17 -0.973235 -3.11762 0
M  V30 10916 H 1081.83 -2.91131 -2.22797 0
M  V30 10917 H 1081.48 -2.10411 -4.56877 0
M  V30 10918 H 1081.18 -3.85501 -4.43467 0
M  V30 10919 H 1082.7 -3.26712 -5.15841 0
M  V30 10920 H 1084.12 -4.64855 -3.35534 0
M  V30 10921 H 1082.51 -5.27151 -2.8676 0
M  V30 10922 H 1083.58 -4.56129 -1.64544 0
M  V30 10923 N 1084.93 0.6715 -1.42579 0
M  V30 10924 C 1086.15 1.45972 -1.46628 0
M  V30 10925 C 1086.57 1.88636 -0.0785986 0
M  V30 10926 O 1085.93 1.58345 0.907372 0
M  V30 10927 C 1085.98 2.70668 -2.39627 0
M  V30 10928 O 1085.7 2.29793 -3.72997 0
M  V30 10929 C 1087.2 3.64201 -2.52731 0
M  V30 10930 H 1084.42 0.449044 -0.498598 0
M  V30 10931 H 1086.96 0.824811 -1.87129 0
M  V30 10932 H 1085.12 3.3034 -2.02371 0
M  V30 10933 H 1085.53 3.10341 -4.22834 0
M  V30 10934 H 1087.01 4.48412 -3.21918 0
M  V30 10935 H 1087.48 4.10323 -1.56626 0
M  V30 10936 H 1088.09 3.1042 -2.90722 0
M  V30 10937 N 1086.4 1.28806 0.908124 0
M  V30 10938 C 1087.65 1.16058 1.65454 0
M  V30 10939 C 1087.97 -0.290057 1.92831 0
M  V30 10940 O 1087.24 -1.20001 1.54843 0
M  V30 10941 H 1085.82 0.426522 0.61326 0
M  V30 10942 H 1088.48 1.61614 1.08936 0
M  V30 10943 H 1087.58 1.70437 2.61453 0
M  V30 10944 N 1087.88 -1.11734 1.11145 0
M  V30 10945 C 1088.81 -2.1976 0.789152 0
M  V30 10946 C 1089.79 -1.68382 -0.241143 0
M  V30 10947 O 1090.98 -1.93914 -0.105292 0
M  V30 10948 C 1088.11 -3.46549 0.228204 0
M  V30 10949 C 1087.06 -4.11123 1.19002 0
M  V30 10950 C 1086.39 -5.32451 0.489928 0
M  V30 10951 C 1087.69 -4.56406 2.53951 0
M  V30 10952 H 1089.38 -2.46978 1.69241 0
M  V30 10953 H 1086.93 -1.18705 0.81517 0
M  V30 10954 H 1088.88 -4.21399 -0.00945908 0
M  V30 10955 H 1087.6 -3.18782 -0.71033 0
M  V30 10956 H 1086.26 -3.38264 1.41326 0
M  V30 10957 H 1085.91 -5.00953 -0.453315 0
M  V30 10958 H 1085.61 -5.76605 1.1314 0
M  V30 10959 H 1087.14 -6.10042 0.260984 0
M  V30 10960 H 1088.55 -5.22592 2.35733 0
M  V30 10961 H 1086.95 -5.11363 3.14051 0
M  V30 10962 H 1088.02 -3.7001 3.13402 0
M  V30 10963 N 1089.36 -0.901303 -1.29284 0
M  V30 10964 C 1090.27 -0.3849 -2.31421 0
M  V30 10965 C 1091.29 0.521163 -1.66012 0
M  V30 10966 O 1092.46 0.410356 -1.97175 0
M  V30 10967 C 1089.53 0.377804 -3.44635 0
M  V30 10968 C 1088.59 -0.559974 -4.25632 0
M  V30 10969 C 1087.82 0.166425 -5.3344 0
M  V30 10970 O 1088.04 1.39012 -5.53202 0
M  V30 10971 O 1086.98 -0.491875 -5.99887 0
M  V30 10972 H 1090.8 -1.2323 -2.77575 0
M  V30 10973 H 1088.39 -0.665683 -1.3375 0
M  V30 10974 H 1090.27 0.809041 -4.13561 0
M  V30 10975 H 1088.95 1.20124 -3.00586 0
M  V30 10976 H 1087.85 -1.04036 -3.59343 0
M  V30 10977 H 1089.19 -1.34987 -4.73328 0
M  V30 10978 N 1090.84 1.42931 -0.663954 0
M  V30 10979 C 1092.25 1.84877 -0.260283 0
M  V30 10980 C 1092.6 1.5558 1.19538 0
M  V30 10981 O 1091.72 1.01015 1.91377 0
M  V30 10982 C 1092.32 3.35585 -0.465618 0
M  V30 10983 C 1090.88 3.76221 -0.116169 0
M  V30 10984 C 1090.03 2.66587 -0.763317 0
M  V30 10985 H 1092.98 1.32932 -0.866882 0
M  V30 10986 H 1093 3.79427 0.285608 0
M  V30 10987 H 1092.51 3.56877 -1.52515 0
M  V30 10988 H 1090.61 3.60539 0.940342 0
M  V30 10989 H 1090.72 4.75943 -0.549123 0
M  V30 10990 H 1089.09 2.53948 -0.19559 0
M  V30 10991 H 1089.87 2.90704 -1.82609 0
M  V30 10992 N 1092.32 0.406567 1.52266 0
M  V30 10993 C 1093.59 -0.228477 1.94261 0
M  V30 10994 C 1093.97 -1.62848 1.34328 0
M  V30 10995 O 1093.32 -2.22549 0.518082 0
M  V30 10996 C 1093.53 -0.237401 3.48192 0
M  V30 10997 C 1094.88 -0.457997 4.22123 0
M  V30 10998 O 1095.9 -0.316868 3.54788 0
M  V30 10999 O 1094.76 -0.735946 5.41522 0
M  V30 11000 H 1091.86 -0.146492 0.813922 0
M  V30 11001 H 1094.4 0.462325 1.63281 0
M  V30 11002 H 1093.17 0.742556 3.8419 0
M  V30 11003 H 1092.8 -0.972408 3.85526 0
M  V30 11004 N 1093.79 -1.57004 0.136909 0
M  V30 11005 C 1095.02 -2.00156 -0.523936 0
M  V30 11006 C 1095.44 -1.01688 -1.59075 0
M  V30 11007 O 1094.79 -0.0123678 -1.82496 0
M  V30 11008 C 1094.85 -3.4326 -1.13379 0
M  V30 11009 O 1094.57 -4.37963 -0.109598 0
M  V30 11010 C 1096.07 -4.01637 -1.87623 0
M  V30 11011 H 1093.29 -0.65681 -0.137263 0
M  V30 11012 H 1095.83 -2.03219 0.228522 0
M  V30 11013 H 1093.99 -3.4108 -1.83693 0
M  V30 11014 H 1094.4 -5.21555 -0.55503 0
M  V30 11015 H 1095.87 -5.03795 -2.25597 0
M  V30 11016 H 1096.35 -3.41781 -2.75831 0
M  V30 11017 H 1096.96 -4.07417 -1.22031 0
M  V30 11018 N 1095.27 0.136881 -1.57004 0
M  V30 11019 C 1096.5 0.862436 -1.88068 0
M  V30 11020 C 1096.92 1.74274 -0.726227 0
M  V30 11021 O 1096.27 1.79956 0.30366 0
M  V30 11022 C 1096.32 1.71076 -3.18458 0
M  V30 11023 O 1096.04 0.865918 -4.29457 0
M  V30 11024 C 1097.55 2.54302 -3.63105 0
M  V30 11025 H 1094.77 0.248865 -0.623143 0
M  V30 11026 H 1097.31 0.126633 -2.04108 0
M  V30 11027 H 1095.46 2.39951 -3.04142 0
M  V30 11028 H 1095.88 1.4493 -5.04079 0
M  V30 11029 H 1097.35 3.09384 -4.57149 0
M  V30 11030 H 1097.83 3.3082 -2.88886 0
M  V30 11031 H 1098.44 1.907 -3.80149 0
M  V30 11032 N 1096.75 1.52266 0.40654 0
M  V30 11033 C 1097.98 1.70057 1.1732 0
M  V30 11034 C 1098.39 0.41084 1.84686 0
M  V30 11035 O 1097.73 -0.623187 1.72806 0
M  V30 11036 C 1097.79 2.78197 2.27698 0
M  V30 11037 C 1097.46 4.19866 1.80447 0
M  V30 11038 C 1098.45 5.03621 1.29082 0
M  V30 11039 C 1096.14 4.66112 1.87202 0
M  V30 11040 C 1098.13 6.31694 0.850973 0
M  V30 11041 C 1095.82 5.94174 1.42829 0
M  V30 11042 C 1096.82 6.76794 0.918621 0
M  V30 11043 O 1096.51 8.02458 0.481302 0
M  V30 11044 H 1096.24 0.573137 0.358455 0
M  V30 11045 H 1098.79 1.99615 0.484064 0
M  V30 11046 H 1097.02 2.44022 2.99983 0
M  V30 11047 H 1098.71 2.84562 2.89446 0
M  V30 11048 H 1099.48 4.69083 1.23234 0
M  V30 11049 H 1095.36 4.01905 2.25816 0
M  V30 11050 H 1098.9 6.96131 0.452471 0
M  V30 11051 H 1094.8 6.2822 1.48358 0
M  V30 11052 H 1095.57 8.16266 0.604376 0
M  V30 11053 N 1098.23 -0.663929 1.42933 0
M  V30 11054 C 1099.48 -1.41973 1.43271 0
M  V30 11055 C 1099.79 -1.95518 0.0566103 0
M  V30 11056 O 1101 -2.71428 -0.0625862 0
M  V30 11057 C 1099.45 -2.56882 2.52071 0
M  V30 11058 C 1099.06 -2.0999 3.95737 0
M  V30 11059 C 1100.8 -3.34322 2.61589 0
M  V30 11060 C 1098.71 -3.22046 4.96025 0
M  V30 11061 H 1097.64 -0.5334 0.532917 0
M  V30 11062 H 1100.29 -0.717709 1.68882 0
M  V30 11063 H 1098.67 -3.29504 2.19643 0
M  V30 11064 H 1099.85 -1.44449 4.37574 0
M  V30 11065 H 1098.16 -1.45459 3.90168 0
M  V30 11066 H 1100.76 -4.17796 3.33692 0
M  V30 11067 H 1101.1 -3.8164 1.66302 0
M  V30 11068 H 1101.64 -2.68775 2.93266 0
M  V30 11069 H 1098.38 -2.79708 5.92827 0
M  V30 11070 H 1097.9 -3.86333 4.5881 0
M  V30 11071 H 1099.57 -3.87345 5.1824 0
M  V30 11072 N 1099.71 -1.29285 -0.901281 0
M  V30 11073 C 1100.67 -1.14283 -1.98676 0
M  V30 11074 C 1101.67 -0.0787641 -1.60607 0
M  V30 11075 O 1102.86 -0.325574 -1.71131 0
M  V30 11076 C 1099.99 -0.747279 -3.32609 0
M  V30 11077 H 1101.18 -2.10701 -2.13413 0
M  V30 11078 H 1098.74 -1.12449 -1.08558 0
M  V30 11079 H 1099.47 0.217111 -3.23572 0
M  V30 11080 H 1099.26 -1.51608 -3.61604 0
M  V30 11081 H 1100.75 -0.665322 -4.12266 0
M  V30 11082 N 1101.18 1.11143 -1.11736 0
M  V30 11083 C 1102.15 2.15456 -0.78174 0
M  V30 11084 C 1103.15 1.59547 0.200383 0
M  V30 11085 O 1104.34 1.74183 -0.0244893 0
M  V30 11086 C 1101.47 3.40523 -0.160364 0
M  V30 11087 H 1102.66 2.46658 -1.70586 0
M  V30 11088 H 1100.22 1.26381 -0.919644 0
M  V30 11089 H 1100.95 3.14932 0.773835 0
M  V30 11090 H 1100.74 3.82386 -0.867378 0
M  V30 11091 H 1102.23 4.17559 0.0582175 0
M  V30 11092 N 1102.66 0.908147 1.28804 0
M  V30 11093 C 1103.91 0.539201 1.95501 0
M  V30 11094 C 1104.24 -0.913759 1.7136 0
M  V30 11095 O 1103.52 -1.64904 1.03136 0
M  V30 11096 C 1103.8 0.842372 3.50109 0
M  V30 11097 C 1103.65 2.34765 3.83673 0
M  V30 11098 C 1104.97 0.334658 4.38826 0
M  V30 11099 H 1102.09 0.197373 0.71008 0
M  V30 11100 H 1104.73 1.13637 1.52272 0
M  V30 11101 H 1102.88 0.334143 3.8706 0
M  V30 11102 H 1104.55 2.92607 3.56621 0
M  V30 11103 H 1102.8 2.80494 3.30916 0
M  V30 11104 H 1103.47 2.51034 4.91616 0
M  V30 11105 H 1105.94 0.769961 4.08914 0
M  V30 11106 H 1104.82 0.575914 5.4587 0
M  V30 11107 H 1105.08 -0.764878 4.35433 0
M  V30 11108 N 1104.14 -1.42577 0.671525 0
M  V30 11109 C 1105.39 -2.01882 0.192716 0
M  V30 11110 C 1105.72 -1.52959 -1.19654 0
M  V30 11111 O 1104.99 -0.730404 -1.80265 0
M  V30 11112 C 1105.28 -3.59404 0.223734 0
M  V30 11113 C 1105.13 -4.18514 1.64821 0
M  V30 11114 C 1106.45 -4.37996 -0.429858 0
M  V30 11115 H 1103.57 -0.733523 0.0715026 0
M  V30 11116 H 1106.21 -1.69641 0.855689 0
M  V30 11117 H 1104.36 -3.87003 -0.340776 0
M  V30 11118 H 1106.03 -4.01881 2.26472 0
M  V30 11119 H 1104.28 -3.74467 2.1899 0
M  V30 11120 H 1104.95 -5.27643 1.62162 0
M  V30 11121 H 1107.42 -4.16069 0.0506433 0
M  V30 11122 H 1106.3 -5.476 -0.377503 0
M  V30 11123 H 1106.56 -4.15625 -1.50693 0
M  V30 11124 N 1105.62 -0.414636 -1.52048 0
M  V30 11125 C 1106.58 0.396285 -2.25748 0
M  V30 11126 C 1107.58 0.969003 -1.28324 0
M  V30 11127 O 1108.77 0.847016 -1.52221 0
M  V30 11128 C 1105.9 1.55838 -3.03195 0
M  V30 11129 H 1107.1 -0.249311 -2.98862 0
M  V30 11130 H 1104.65 -0.167276 -1.55402 0
M  V30 11131 H 1105.38 2.24068 -2.34444 0
M  V30 11132 H 1105.17 1.15414 -3.74729 0
M  V30 11133 H 1106.66 2.13187 -3.59084 0
M  V30 11134 N 1107.1 1.56929 -0.145233 0
M  V30 11135 C 1108.51 1.58196 0.211194 0
M  V30 11136 C 1108.71 1.15941 1.64803 0
M  V30 11137 O 1107.77 0.858888 2.37443 0
M  V30 11138 C 1109.08 3.00665 -0.0459569 0
M  V30 11139 C 1110.63 3.12995 0.0178913 0
M  V30 11140 C 1111.1 4.5751 -0.211905 0
M  V30 11141 N 1112.6 4.62928 -0.158772 0
M  V30 11142 C 1113.33 5.72555 -0.311111 0
M  V30 11143 N 1112.83 6.90838 -0.521074 0
M  V30 11144 N 1114.62 5.61549 -0.248838 0
M  V30 11145 H 1106.77 1.8269 -1.08342 0
M  V30 11146 H 1109.03 0.845514 -0.428731 0
M  V30 11147 H 1108.74 3.35962 -1.0403 0
M  V30 11148 H 1108.61 3.71125 0.674246 0
M  V30 11149 H 1111 2.7754 1.00278 0
M  V30 11150 H 1111.08 2.45025 -0.734612 0
M  V30 11151 H 1110.73 4.93669 -1.19389 0
M  V30 11152 H 1110.66 5.23604 0.560901 0
M  V30 11153 H 1113.15 3.779 -0.00107283 0
M  V30 11154 H 1113.46 7.70248 -0.62747 0
M  V30 11155 H 1111.8 6.92761 -0.557374 0
M  V30 11156 H 1115 4.68022 -0.0855821 0
M  V30 11157 H 1115.17 6.46937 -0.370997 0
M  V30 11158 N 1108.58 -0.128553 1.57075 0
M  V30 11159 C 1109.85 -0.867766 1.75297 0
M  V30 11160 C 1110.23 -1.98508 0.718176 0
M  V30 11161 O 1109.58 -2.2702 -0.259616 0
M  V30 11162 C 1109.79 -1.39326 3.19983 0
M  V30 11163 C 1111.14 -1.84939 3.82208 0
M  V30 11164 O 1112.16 -1.49027 3.23527 0
M  V30 11165 O 1111.02 -2.51227 4.85332 0
M  V30 11166 H 1108.12 -0.411393 0.717415 0
M  V30 11167 H 1110.66 -0.113038 1.69323 0
M  V30 11168 H 1109.43 -0.591172 3.86809 0
M  V30 11169 H 1109.06 -2.21097 3.30457 0
M  V30 11170 N 1110.05 -1.5248 -0.398459 0
M  V30 11171 C 1111 -1.77211 -1.50662 0
M  V30 11172 C 1112 -0.639638 -1.5686 0
M  V30 11173 O 1113.2 -0.821917 -1.60139 0
M  V30 11174 H 1109.58 -0.56057 -0.501264 0
M  V30 11175 H 1111.55 -2.70028 -1.26993 0
M  V30 11176 C 1110.3 -1.94944 -2.8791 0
M  V30 11177 H 1109.62 -2.8151 -2.83888 0
M  V30 11178 H 1111.06 -2.16243 -3.64712 0
M  V30 11179 C 1109.52 -0.719402 -3.29129 0
M  V30 11180 O 1110.05 0.107671 -4.01556 0
M  V30 11181 N 1108.25 -0.552228 -2.85305 0
M  V30 11182 H 1107.8 -1.22638 -2.26534 0
M  V30 11183 H 1107.76 0.269447 -3.13243 0
M  V30 11184 N 1111.53 0.65634 -1.43283 0
M  V30 11185 C 1112.49 1.75117 -1.47874 0
M  V30 11186 C 1113.49 1.56629 -0.363846 0
M  V30 11187 O 1114.68 1.62584 -0.625464 0
M  V30 11188 C 1111.82 3.13957 -1.32831 0
M  V30 11189 H 1113.01 1.72429 -2.45374 0
M  V30 11190 H 1110.56 0.867704 -1.30002 0
M  V30 11191 H 1111.3 3.22259 -0.36326 0
M  V30 11192 H 1111.08 3.28781 -2.13649 0
M  V30 11193 H 1112.57 3.93799 -1.38969 0
M  V30 11194 N 1113.01 1.29761 0.894412 0
M  V30 11195 C 1114.26 1.17806 1.64214 0
M  V30 11196 C 1114.58 -0.269588 1.93127 0
M  V30 11197 O 1113.85 -1.18352 1.56107 0
M  V30 11198 H 1112.43 0.433002 0.608702 0
M  V30 11199 H 1115.09 1.6276 1.07216 0
M  V30 11200 H 1114.19 1.73201 2.5963 0
M  V30 11201 N 1114.49 -1.10549 1.12324 0
M  V30 11202 C 1115.44 -2.18944 0.785248 0
M  V30 11203 C 1116.43 -1.67867 -0.227389 0
M  V30 11204 O 1117.64 -1.79796 -0.0857162 0
M  V30 11205 H 1114.01 -0.713976 0.236098 0
M  V30 11206 H 1115.98 -2.44692 1.70788 0
M  V30 11207 C 1114.73 -3.46765 0.25485 0
M  V30 11208 H 1114.05 -3.86428 1.02534 0
M  V30 11209 H 1115.49 -4.23962 0.0566526 0
M  V30 11210 C 1113.95 -3.21185 -1.01695 0
M  V30 11211 O 1114.48 -3.42745 -2.09497 0
M  V30 11212 N 1112.69 -2.7486 -0.943423 0
M  V30 11213 H 1112.24 -2.57515 -0.0660366 0
M  V30 11214 H 1112.19 -2.58122 -1.795 0
M  V30 11215 N 1115.97 -0.914965 -1.28321 0
M  V30 11216 C 1117.21 -0.549562 -1.95212 0
M  V30 11217 C 1117.54 0.904658 -1.71842 0
M  V30 11218 O 1116.82 1.64354 -1.04009 0
M  V30 11219 C 1117.1 -0.860927 -3.49657 0
M  V30 11220 C 1116.96 -2.36797 -3.82423 0
M  V30 11221 C 1118.27 -0.357926 -4.38642 0
M  V30 11222 H 1115.39 -0.201136 -0.709023 0
M  V30 11223 H 1118.04 -1.14443 -1.51667 0
M  V30 11224 H 1116.19 -0.354665 -3.86878 0
M  V30 11225 H 1117.86 -2.94494 -3.55065 0
M  V30 11226 H 1116.1 -2.82245 -3.29424 0
M  V30 11227 H 1116.77 -2.53637 -4.90278 0
M  V30 11228 H 1119.25 -0.791636 -4.085 0
M  V30 11229 H 1118.12 -0.604855 -5.45557 0
M  V30 11230 H 1118.38 0.741775 -4.35833 0
M  V30 11231 N 1117.44 1.42219 -0.679077 0
M  V30 11232 C 1118.67 2.06333 -0.210097 0
M  V30 11233 C 1119.09 1.50703 1.12562 0
M  V30 11234 O 1118.45 0.627241 1.70104 0
M  V30 11235 C 1118.5 3.60243 -0.160322 0
M  V30 11236 O 1117.6 4.03122 0.869872 0
M  V30 11237 H 1116.94 0.655362 -0.106754 0
M  V30 11238 H 1119.47 1.82278 -0.929294 0
M  V30 11239 H 1119.48 4.07997 0.014384 0
M  V30 11240 H 1118.16 4.00106 -1.13526 0
M  V30 11241 H 1116.74 3.66907 0.66586 0
M  V30 11242 N 1118.92 0.422693 1.51826 0
M  V30 11243 C 1119.85 -0.43167 2.25098 0
M  V30 11244 C 1120.87 -0.998758 1.28564 0
M  V30 11245 O 1122.06 -0.89539 1.54418 0
M  V30 11246 C 1119.16 -1.61426 2.97985 0
M  V30 11247 C 1118.33 -1.16866 4.21499 0
M  V30 11248 C 1117.39 -2.2197 4.77091 0
M  V30 11249 O 1116.41 -1.82004 5.39317 0
M  V30 11250 N 1117.62 -3.54293 4.59844 0
M  V30 11251 H 1120.38 0.196255 2.99057 0
M  V30 11252 H 1117.94 0.25079 1.59946 0
M  V30 11253 H 1119.93 -2.31331 3.32066 0
M  V30 11254 H 1118.5 -2.14783 2.27128 0
M  V30 11255 H 1117.72 -0.297217 3.93078 0
M  V30 11256 H 1119.01 -0.848106 5.01682 0
M  V30 11257 H 1118.41 -3.89505 4.10247 0
M  V30 11258 H 1116.97 -4.20135 4.98327 0
M  V30 11259 N 1120.4 -1.5685 0.153553 0
M  V30 11260 C 1121.82 -1.58306 -0.202801 0
M  V30 11261 C 1122.02 -1.16813 -1.64186 0
M  V30 11262 O 1121.07 -0.871468 -2.36985 0
M  V30 11263 C 1122.38 -3.00636 0.0619012 0
M  V30 11264 C 1123.93 -3.13 -0.00129219 0
M  V30 11265 C 1124.41 -4.57391 0.236164 0
M  V30 11266 N 1125.9 -4.62837 0.18332 0
M  V30 11267 C 1126.63 -5.72382 0.341471 0
M  V30 11268 N 1126.13 -6.90552 0.557704 0
M  V30 11269 N 1127.92 -5.61409 0.278615 0
M  V30 11270 H 1120.07 -1.82113 1.09309 0
M  V30 11271 H 1122.34 -0.843228 0.433209 0
M  V30 11272 H 1122.04 -3.35406 1.0581 0
M  V30 11273 H 1121.92 -3.71477 -0.654555 0
M  V30 11274 H 1124.3 -2.78068 -0.98805 0
M  V30 11275 H 1124.38 -2.44632 0.747596 0
M  V30 11276 H 1124.03 -4.93029 1.22005 0
M  V30 11277 H 1123.96 -5.23894 -0.533125 0
M  V30 11278 H 1126.45 -3.77894 0.0211138 0
M  V30 11279 H 1126.76 -7.69905 0.66831 0
M  V30 11280 H 1125.11 -6.92456 0.594105 0
M  V30 11281 H 1128.3 -4.6797 0.110401 0
M  V30 11282 H 1128.47 -6.46731 0.4053 0
M  V30 11283 N 1121.88 0.120221 -1.57141 0
M  V30 11284 C 1123.1 0.84637 -1.89344 0
M  V30 11285 C 1123.53 1.72702 -0.745365 0
M  V30 11286 O 1122.89 1.7873 0.304155 0
M  V30 11287 C 1122.93 1.65671 -3.20289 0
M  V30 11288 O 1122.04 2.76353 -3.06109 0
M  V30 11289 H 1121.38 0.234132 -0.621352 0
M  V30 11290 H 1123.91 0.102986 -2.04341 0
M  V30 11291 H 1123.92 2.04621 -3.52979 0
M  V30 11292 H 1122.59 1.01023 -4.03444 0
M  V30 11293 H 1121.17 2.40615 -2.84884 0
M  V30 11294 N 1123.36 1.52689 0.390367 0
M  V30 11295 C 1124.58 1.71541 1.15678 0
M  V30 11296 C 1125 0.433171 1.83764 0
M  V30 11297 O 1124.36 -0.592248 1.72623 0
M  V30 11298 C 1124.41 2.864 2.20584 0
M  V30 11299 O 1124.13 4.0966 1.55274 0
M  V30 11300 C 1125.63 3.1692 3.09962 0
M  V30 11301 H 1122.85 0.574381 0.346883 0
M  V30 11302 H 1125.39 1.99332 0.456851 0
M  V30 11303 H 1123.55 2.61075 2.86214 0
M  V30 11304 H 1123.96 4.73802 2.2497 0
M  V30 11305 H 1125.44 4.00755 3.79604 0
M  V30 11306 H 1125.91 2.31245 3.73393 0
M  V30 11307 H 1126.52 3.4408 2.49979 0
M  V30 11308 N 1124.83 -0.648732 1.43629 0
M  V30 11309 C 1126.08 -1.41066 1.45699 0
M  V30 11310 C 1126.41 -1.94024 0.082612 0
M  V30 11311 O 1125.69 -1.7257 -0.897207 0
M  V30 11312 C 1125.97 -2.58882 2.50304 0
M  V30 11313 C 1125.82 -2.11387 3.97033 0
M  V30 11314 C 1127.14 -3.61092 2.51597 0
M  V30 11315 H 1124.26 -0.511591 0.530512 0
M  V30 11316 H 1126.9 -0.735069 1.75205 0
M  V30 11317 H 1125.05 -3.16518 2.25274 0
M  V30 11318 H 1126.73 -1.58718 4.33136 0
M  V30 11319 H 1124.97 -1.4272 4.0965 0
M  V30 11320 H 1125.64 -2.96129 4.65845 0
M  V30 11321 H 1128.12 -3.13223 2.73917 0
M  V30 11322 H 1126.99 -4.41071 3.26722 0
M  V30 11323 H 1127.25 -4.13985 1.55141 0
M  V30 11324 N 1126.31 -1.30234 -0.887518 0
M  V30 11325 C 1127.54 -1.21955 -1.67755 0
M  V30 11326 C 1127.96 0.214701 -1.86871 0
M  V30 11327 O 1127.32 1.15459 -1.39782 0
M  V30 11328 C 1127.37 -1.95079 -3.03276 0
M  V30 11329 O 1126.47 -1.27615 -3.92158 0
M  V30 11330 H 1125.81 -0.421948 -0.512695 0
M  V30 11331 H 1128.34 -1.72011 -1.10785 0
M  V30 11332 H 1128.35 -2.04004 -3.53336 0
M  V30 11333 H 1127.03 -2.99392 -2.88682 0
M  V30 11334 H 1125.61 -1.27029 -3.50597 0
M  V30 11335 N 1127.79 1.09952 -1.12909 0
M  V30 11336 C 1129.04 1.82016 -0.887482 0
M  V30 11337 C 1129.37 1.85445 0.586546 0
M  V30 11338 O 1128.62 1.31446 1.44984 0
M  V30 11339 C 1128.92 3.28252 -1.41369 0
M  V30 11340 C 1128.59 3.44965 -2.90362 0
M  V30 11341 C 1127.25 3.49233 -3.31043 0
M  V30 11342 C 1129.6 3.49947 -3.86247 0
M  V30 11343 C 1126.93 3.56057 -4.66305 0
M  V30 11344 C 1129.28 3.58305 -5.21345 0
M  V30 11345 C 1127.94 3.6084 -5.61561 0
M  V30 11346 H 1127.21 0.666046 -0.324753 0
M  V30 11347 H 1129.86 1.29568 -1.41012 0
M  V30 11348 H 1128.17 3.83301 -0.81163 0
M  V30 11349 H 1129.86 3.82533 -1.20289 0
M  V30 11350 H 1126.45 3.42323 -2.57901 0
M  V30 11351 H 1130.64 3.45895 -3.55908 0
M  V30 11352 H 1125.89 3.56305 -4.96847 0
M  V30 11353 H 1130.07 3.61104 -5.95463 0
M  V30 11354 H 1127.69 3.6588 -6.6636 0
M  V30 11355 N 1129.27 0.921757 1.27833 0
M  V30 11356 C 1130.5 0.575202 1.98744 0
M  V30 11357 C 1130.91 -0.845405 1.68815 0
M  V30 11358 O 1130.27 -1.56106 0.94536 0
M  V30 11359 C 1130.32 0.784389 3.52888 0
M  V30 11360 O 1130.04 2.1491 3.81766 0
M  V30 11361 C 1131.54 0.445744 4.41053 0
M  V30 11362 H 1128.76 0.218525 0.634419 0
M  V30 11363 H 1131.31 1.23715 1.62834 0
M  V30 11364 H 1129.46 0.169323 3.8703 0
M  V30 11365 H 1129.87 2.19469 4.76375 0
M  V30 11366 H 1131.35 0.64284 5.48244 0
M  V30 11367 H 1131.83 -0.618433 4.34824 0
M  V30 11368 H 1132.43 1.03869 4.12421 0
M  V30 11369 N 1130.75 -1.41857 0.686609 0
M  V30 11370 C 1131.97 -2.05699 0.222561 0
M  V30 11371 C 1132.39 -1.51636 -1.12481 0
M  V30 11372 O 1131.75 -0.660925 -1.70112 0
M  V30 11373 C 1131.8 -3.61138 0.161818 0
M  V30 11374 O 1131.52 -4.13199 1.45596 0
M  V30 11375 C 1133.02 -4.42112 -0.324304 0
M  V30 11376 H 1130.24 -0.662665 0.10543 0
M  V30 11377 H 1132.78 -1.81788 0.936671 0
M  V30 11378 H 1130.94 -3.8412 -0.503056 0
M  V30 11379 H 1131.35 -5.0717 1.33712 0
M  V30 11380 H 1132.83 -5.51097 -0.315694 0
M  V30 11381 H 1133.3 -4.1756 -1.36164 0
M  V30 11382 H 1133.91 -4.24174 0.309251 0
M  V30 11383 N 1132.22 -0.430739 -1.51599 0
M  V30 11384 C 1133.15 0.374695 -2.30474 0
M  V30 11385 C 1134.14 1.02694 -1.35602 0
M  V30 11386 O 1135.32 1.03184 -1.6452 0
M  V30 11387 C 1132.45 1.47981 -3.14196 0
M  V30 11388 C 1131.4 0.951415 -4.17291 0
M  V30 11389 C 1130.73 2.15177 -4.89492 0
M  V30 11390 C 1132.03 -0.00957951 -5.22299 0
M  V30 11391 H 1133.72 -0.283508 -2.98055 0
M  V30 11392 H 1131.27 -0.13779 -1.43339 0
M  V30 11393 H 1133.22 2.05043 -3.68151 0
M  V30 11394 H 1131.95 2.16621 -2.44424 0
M  V30 11395 H 1130.61 0.403052 -3.64378 0
M  V30 11396 H 1130.25 2.82421 -4.1623 0
M  V30 11397 H 1129.95 1.80464 -5.59202 0
M  V30 11398 H 1131.48 2.72806 -5.46269 0
M  V30 11399 H 1132.89 0.470527 -5.71366 0
M  V30 11400 H 1131.29 -0.268959 -5.99497 0
M  V30 11401 H 1132.36 -0.948297 -4.75537 0
M  V30 11402 N 1133.7 1.56767 -0.161869 0
M  V30 11403 C 1134.67 2.16299 0.758104 0
M  V30 11404 C 1135.67 1.10859 1.16478 0
M  V30 11405 O 1136.86 1.36422 1.08327 0
M  V30 11406 C 1133.99 2.73819 2.03067 0
M  V30 11407 H 1135.18 2.98938 0.239992 0
M  V30 11408 H 1132.73 1.56054 0.0876532 0
M  V30 11409 H 1133.47 1.94887 2.59209 0
M  V30 11410 H 1133.25 3.50974 1.74813 0
M  V30 11411 H 1134.74 3.19638 2.68741 0
M  V30 11412 N 1135.18 -0.111886 1.57202 0
M  V30 11413 C 1136.09 -1.1556 2.04165 0
M  V30 11414 C 1137.11 -1.44898 0.963354 0
M  V30 11415 O 1138.28 -1.55873 1.27536 0
M  V30 11416 C 1135.35 -2.46048 2.44256 0
M  V30 11417 C 1134.41 -2.24043 3.66201 0
M  V30 11418 C 1133.64 -3.4831 4.04371 0
M  V30 11419 O 1133.86 -4.55895 3.42806 0
M  V30 11420 O 1132.8 -3.38891 4.9743 0
M  V30 11421 H 1136.62 -0.786778 2.93332 0
M  V30 11422 H 1134.21 -0.323196 1.45862 0
M  V30 11423 H 1136.09 -3.22916 2.70745 0
M  V30 11424 H 1134.77 -2.8239 1.58233 0
M  V30 11425 H 1133.67 -1.4501 3.44852 0
M  V30 11426 H 1135.01 -1.92602 4.52952 0
M  V30 11427 N 1136.66 -1.52894 -0.382264 0
M  V30 11428 C 1137.61 -1.78799 -1.48774 0
M  V30 11429 C 1138.6 -0.65624 -1.56173 0
M  V30 11430 O 1139.81 -0.838856 -1.59258 0
M  V30 11431 H 1136.18 -0.565855 -0.49529 0
M  V30 11432 H 1138.15 -2.7136 -1.24122 0
M  V30 11433 C 1136.9 -1.97987 -2.85826 0
M  V30 11434 H 1136.22 -2.84505 -2.80886 0
M  V30 11435 H 1137.66 -2.20099 -3.62398 0
M  V30 11436 C 1136.12 -0.75427 -3.28348 0
M  V30 11437 O 1136.65 0.0650749 -4.01647 0
M  V30 11438 N 1134.86 -0.582457 -2.84703 0
M  V30 11439 H 1134.41 -1.25034 -2.2522 0
M  V30 11440 H 1134.36 0.236208 -3.13511 0
M  V30 11441 N 1138.14 0.641106 -1.43971 0
M  V30 11442 C 1139.39 1.39807 -1.4594 0
M  V30 11443 C 1139.71 1.94795 -0.0893874 0
M  V30 11444 O 1138.98 1.75175 0.876962 0
M  V30 11445 H 1137.56 0.518908 -0.537349 0
M  V30 11446 H 1140.22 0.755278 -1.79671 0
M  V30 11447 H 1139.31 2.23439 -2.17903 0
M  V30 11448 N 1139.62 1.30703 0.880598 0
M  V30 11449 C 1140.86 1.19541 1.62955 0
M  V30 11450 C 1141.18 -0.249089 1.93403 0
M  V30 11451 O 1140.45 -1.1669 1.57354 0
M  V30 11452 H 1139.03 0.439434 0.604075 0
M  V30 11453 H 1141.7 1.63888 1.05483 0
M  V30 11454 H 1140.79 1.75945 2.57779 0
M  V30 11455 N 1141.09 -1.09351 1.1349 0
M  V30 11456 C 1142.34 -1.81185 0.89535 0
M  V30 11457 C 1142.66 -1.86173 -0.580048 0
M  V30 11458 O 1141.93 -1.34784 -1.42162 0
M  V30 11459 H 1140.51 -0.671011 0.328257 0
M  V30 11460 H 1143.17 -1.32255 1.43159 0
M  V30 11461 H 1142.27 -2.84339 1.28676 0
M  V30 11462 N 1142.57 -0.928524 -1.27343 0
M  V30 11463 C 1143.98 -0.613856 -1.7632 0
M  V30 11464 C 1144.33 0.870983 -1.75808 0
M  V30 11465 O 1143.46 1.68155 -1.36209 0
M  V30 11466 C 1144.05 -1.10755 -3.20186 0
M  V30 11467 C 1142.61 -0.843532 -3.66826 0
M  V30 11468 C 1141.76 -1.26579 -2.46724 0
M  V30 11469 H 1144.71 -1.10821 -1.13598 0
M  V30 11470 H 1144.73 -0.455598 -3.77763 0
M  V30 11471 H 1144.24 -2.18825 -3.20526 0
M  V30 11472 H 1142.34 0.223334 -3.7193 0
M  V30 11473 H 1142.46 -1.46165 -4.56259 0
M  V30 11474 H 1140.82 -0.684334 -2.45334 0
M  V30 11475 H 1141.6 -2.35516 -2.49774 0
M  V30 11476 N 1144.05 1.41491 -0.694123 0
M  V30 11477 C 1145.33 1.95004 -0.152571 0
M  V30 11478 C 1145.71 1.63357 1.33707 0
M  V30 11479 O 1145.05 0.939815 2.08278 0
M  V30 11480 C 1145.26 3.46186 -0.44232 0
M  V30 11481 C 1146.61 4.22991 -0.369279 0
M  V30 11482 O 1147.64 3.54198 -0.377152 0
M  V30 11483 O 1146.5 5.45514 -0.328145 0
M  V30 11484 H 1143.59 0.826879 -0.0141253 0
M  V30 11485 H 1146.14 1.51216 -0.770183 0
M  V30 11486 H 1144.91 3.62497 -1.47348 0
M  V30 11487 H 1144.53 3.97064 0.206337 0
M  V30 11488 N 1145.53 0.438773 1.51369 0
M  V30 11489 C 1146.49 -0.36032 2.2635 0
M  V30 11490 C 1147.49 -0.948465 1.29849 0
M  V30 11491 O 1148.68 -0.822692 1.53549 0
M  V30 11492 C 1145.81 -1.50994 3.05636 0
M  V30 11493 H 1147.01 0.296826 2.98427 0
M  V30 11494 H 1144.56 0.191978 1.55117 0
M  V30 11495 H 1145.29 -2.2031 2.37979 0
M  V30 11496 H 1145.08 -1.09437 3.76518 0
M  V30 11497 H 1146.57 -2.07447 3.6243 0
M  V30 11498 N 1147.01 -1.56678 0.170181 0
M  V30 11499 C 1148.23 -2.0166 -0.484543 0
M  V30 11500 C 1148.66 -1.04962 -1.56091 0
M  V30 11501 O 1148.01 -0.0289887 -1.81277 0
M  V30 11502 C 1148.06 -3.45252 -1.04084 0
M  V30 11503 O 1147.17 -3.51623 -2.15488 0
M  V30 11504 H 1146.51 -0.653765 -0.116135 0
M  V30 11505 H 1149.04 -2.02761 0.273737 0
M  V30 11506 H 1149.05 -3.84534 -1.36373 0
M  V30 11507 H 1147.72 -4.15131 -0.252738 0
M  V30 11508 H 1146.3 -3.242 -1.84252 0
M  V30 11509 N 1148.48 0.103547 -1.57259 0
M  V30 11510 C 1149.72 0.814289 -1.8748 0
M  V30 11511 C 1150.09 1.76312 -0.760126 0
M  V30 11512 O 1151.29 2.51659 -0.944514 0
M  V30 11513 C 1149.56 1.53119 -3.22938 0
M  V30 11514 S 1151.12 2.28138 -3.74831 0
M  V30 11515 H 1147.94 0.271464 -0.657136 0
M  V30 11516 H 1150.54 0.07183 -1.95368 0
M  V30 11517 H 1149.24 0.826397 -4.01994 0
M  V30 11518 H 1148.77 2.31372 -3.18167 0
M  V30 11519 H 1150.79 3.54132 -3.4757 0
M  V30 11520 N 1149.96 1.53094 0.37415 0
M  V30 11521 C 1151.19 1.72758 1.13852 0
M  V30 11522 C 1151.6 0.452638 1.83294 0
M  V30 11523 O 1150.96 -0.573906 1.73241 0
M  V30 11524 C 1151.01 2.88724 2.17534 0
M  V30 11525 O 1150.73 4.11284 1.5092 0
M  V30 11526 C 1152.23 3.2019 3.06584 0
M  V30 11527 H 1149.45 0.578028 0.340771 0
M  V30 11528 H 1152 1.99805 0.435683 0
M  V30 11529 H 1150.15 2.64096 2.83429 0
M  V30 11530 H 1150.57 4.76162 2.19932 0
M  V30 11531 H 1152.04 4.04759 3.75332 0
M  V30 11532 H 1152.52 2.35193 3.70919 0
M  V30 11533 H 1153.12 3.46712 2.46315 0
M  V30 11534 N 1151.44 -0.633461 1.44309 0
M  V30 11535 C 1152.69 -1.39513 1.47187 0
M  V30 11536 C 1153.02 -1.93926 0.103186 0
M  V30 11537 O 1152.29 -1.73512 -0.878853 0
M  V30 11538 C 1152.58 -2.56213 2.53036 0
M  V30 11539 C 1152.43 -2.07164 3.99253 0
M  V30 11540 C 1153.75 -3.58403 2.55412 0
M  V30 11541 H 1150.87 -0.505936 0.535908 0
M  V30 11542 H 1153.51 -0.716445 1.75975 0
M  V30 11543 H 1151.66 -3.14111 2.28619 0
M  V30 11544 H 1153.33 -1.54115 4.34795 0
M  V30 11545 H 1151.57 -1.38367 4.11141 0
M  V30 11546 H 1152.25 -2.91172 4.6896 0
M  V30 11547 H 1154.72 -3.103 2.77224 0
M  V30 11548 H 1153.6 -4.37581 3.31382 0
M  V30 11549 H 1153.86 -4.12316 1.59523 0
M  V30 11550 N 1152.92 -1.31168 -0.873655 0
M  V30 11551 C 1154.17 -1.20404 -1.62319 0
M  V30 11552 C 1154.49 0.238829 -1.93532 0
M  V30 11553 O 1153.76 1.15854 -1.57971 0
M  V30 11554 H 1152.34 -0.442632 -0.601736 0
M  V30 11555 H 1155 -1.64445 -1.04613 0
M  V30 11556 H 1154.1 -1.77309 -2.56842 0
M  V30 11557 N 1154.4 1.08748 -1.14068 0
M  V30 11558 C 1155.63 1.84546 -0.928789 0
M  V30 11559 C 1156.03 1.81741 0.526007 0
M  V30 11560 O 1155.38 1.2169 1.37613 0
M  V30 11561 C 1155.44 3.33282 -1.34771 0
M  V30 11562 C 1155.1 3.59826 -2.81734 0
M  V30 11563 C 1156.1 3.54964 -3.79864 0
M  V30 11564 C 1153.79 3.87949 -3.19063 0
M  V30 11565 C 1155.78 3.77847 -5.13332 0
M  V30 11566 C 1153.47 4.10487 -4.52707 0
M  V30 11567 C 1154.46 4.05429 -5.49651 0
M  V30 11568 O 1154.15 4.27378 -6.80884 0
M  V30 11569 H 1153.88 0.589555 -0.330758 0
M  V30 11570 H 1156.44 1.38275 -1.51886 0
M  V30 11571 H 1154.67 3.80294 -0.700948 0
M  V30 11572 H 1156.36 3.90508 -1.10718 0
M  V30 11573 H 1157.12 3.33256 -3.52371 0
M  V30 11574 H 1153 3.91007 -2.44201 0
M  V30 11575 H 1156.55 3.73815 -5.88989 0
M  V30 11576 H 1152.44 4.31677 -4.79922 0
M  V30 11577 H 1153.21 4.44802 -6.8709 0
M  V30 11578 N 1155.87 0.935264 1.26849 0
M  V30 11579 C 1157.1 0.595704 1.98661 0
M  V30 11580 C 1157.52 -0.821001 1.69237 0
M  V30 11581 O 1156.88 -1.55211 0.936982 0
M  V30 11582 C 1156.93 0.837275 3.50745 0
M  V30 11583 O 1156.03 -0.0934914 4.12294 0
M  V30 11584 H 1155.38 0.228512 0.623441 0
M  V30 11585 H 1157.91 1.25658 1.61466 0
M  V30 11586 H 1157.92 0.755827 4.00938 0
M  V30 11587 H 1156.59 1.86993 3.71492 0
M  V30 11588 H 1155.17 0.0385124 3.7288 0
M  V30 11589 N 1157.35 -1.41121 0.701616 0
M  V30 11590 C 1158.58 -2.05452 0.244365 0
M  V30 11591 C 1159 -1.5282 -1.10866 0
M  V30 11592 O 1158.35 -0.67893 -1.69401 0
M  V30 11593 C 1158.4 -3.60946 0.200112 0
M  V30 11594 O 1158.12 -4.11632 1.4997 0
M  V30 11595 C 1159.63 -4.42431 -0.277394 0
M  V30 11596 H 1156.85 -0.66151 0.112453 0
M  V30 11597 H 1159.39 -1.80784 0.9559 0
M  V30 11598 H 1157.54 -3.84632 -0.462287 0
M  V30 11599 H 1157.96 -5.05723 1.39084 0
M  V30 11600 H 1159.43 -5.514 -0.257225 0
M  V30 11601 H 1159.91 -4.1898 -1.31728 0
M  V30 11602 H 1160.52 -4.23822 0.354223 0
M  V30 11603 N 1158.83 -0.446794 -1.51134 0
M  V30 11604 C 1159.78 0.374154 -2.29571 0
M  V30 11605 C 1160.77 1.01241 -1.35818 0
M  V30 11606 O 1161.98 0.946293 -1.53119 0
M  V30 11607 H 1158.35 0.13948 -0.738951 0
M  V30 11608 H 1160.32 -0.308117 -2.96805 0
M  V30 11609 C 1159.07 1.45754 -3.15675 0
M  V30 11610 H 1158.4 0.975787 -3.87709 0
M  V30 11611 H 1159.84 2.00502 -3.73597 0
M  V30 11612 C 1158.3 2.44606 -2.31667 0
M  V30 11613 O 1158.83 3.49352 -1.98284 0
M  V30 11614 N 1157.03 2.15725 -1.94708 0
M  V30 11615 H 1156.58 1.30572 -2.22056 0
M  V30 11616 H 1156.54 2.82103 -1.38798 0
M  V30 11617 N 1160.31 1.56586 -0.178487 0
M  V30 11618 C 1161.59 1.88798 0.511356 0
M  V30 11619 C 1161.97 1.08949 1.80813 0
M  V30 11620 O 1161.31 0.185551 2.27745 0
M  V30 11621 C 1161.52 3.40927 0.746298 0
M  V30 11622 C 1162.87 4.10816 1.0731 0
M  V30 11623 O 1163.9 3.46285 0.834592 0
M  V30 11624 O 1162.75 5.24837 1.52343 0
M  V30 11625 H 1159.85 0.783574 0.264463 0
M  V30 11626 H 1162.39 1.68301 -0.21746 0
M  V30 11627 H 1161.17 3.9093 -0.17015 0
M  V30 11628 H 1160.79 3.67059 1.52817 0
M  V30 11629 N 1161.79 -0.095206 1.57312 0
M  V30 11630 C 1163.03 -0.794786 1.87229 0
M  V30 11631 C 1163.39 -1.7635 0.769305 0
M  V30 11632 O 1162.68 -1.9023 -0.228704 0
M  V30 11633 C 1162.87 -1.56244 3.21438 0
M  V30 11634 C 1162.7 -0.669563 4.44687 0
M  V30 11635 C 1161.47 -0.315338 5.04315 0
M  V30 11636 C 1163.67 0.0234175 5.14295 0
M  V30 11637 N 1161.65 0.585709 6.111 0
M  V30 11638 C 1163.02 0.782538 6.15042 0
M  V30 11639 C 1165.08 0.0973496 4.97805 0
M  V30 11640 C 1163.78 1.60868 7.01081 0
M  V30 11641 C 1165.81 0.910394 5.84351 0
M  V30 11642 C 1165.17 1.65763 6.84618 0
M  V30 11643 H 1161.27 -0.267005 0.735005 0
M  V30 11644 H 1163.85 -0.0573245 1.94616 0
M  V30 11645 H 1162.02 -2.27077 3.15104 0
M  V30 11646 H 1163.76 -2.2092 3.39082 0
M  V30 11647 H 1160.51 -0.662971 4.68937 0
M  V30 11648 H 1160.94 1.02878 6.69138 0
M  V30 11649 H 1165.58 -0.46602 4.20224 0
M  V30 11650 H 1163.3 2.18312 7.78052 0
M  V30 11651 H 1166.88 0.97027 5.73652 0
M  V30 11652 H 1165.76 2.27663 7.50426 0
M  V30 11653 N 1163.26 -1.53291 -0.366026 0
M  V30 11654 C 1164.54 -1.60055 -1.12436 0
M  V30 11655 C 1164.92 -0.407811 -2.07123 0
M  V30 11656 O 1164.27 0.601977 -2.20428 0
M  V30 11657 C 1164.48 -2.95062 -1.86385 0
M  V30 11658 C 1165.83 -3.49623 -2.40934 0
M  V30 11659 O 1166.85 -2.97088 -1.96512 0
M  V30 11660 O 1165.71 -4.41461 -3.2214 0
M  V30 11661 H 1162.8 -0.646476 -0.51575 0
M  V30 11662 H 1165.35 -1.65632 -0.369326 0
M  V30 11663 H 1164.12 -3.73312 -1.17277 0
M  V30 11664 H 1163.75 -2.92973 -2.68798 0
M  V30 11665 N 1164.74 0.6258 -1.44643 0
M  V30 11666 C 1165.97 1.41726 -1.51422 0
M  V30 11667 C 1166.39 1.87565 -0.14181 0
M  V30 11668 O 1165.75 1.59059 0.870054 0
M  V30 11669 C 1165.8 2.61012 -2.48807 0
M  V30 11670 O 1164.9 3.61029 -1.99328 0
M  V30 11671 H 1164.24 0.423855 -0.511119 0
M  V30 11672 H 1166.77 0.763336 -1.89827 0
M  V30 11673 H 1166.78 3.08489 -2.67018 0
M  V30 11674 H 1165.46 2.26995 -3.48491 0
M  V30 11675 H 1164.04 3.20325 -1.90909 0
M  V30 11676 N 1166.22 1.31629 0.866686 0
M  V30 11677 C 1167.47 1.21263 1.61678 0
M  V30 11678 C 1167.79 -0.228562 1.93656 0
M  V30 11679 O 1167.06 -1.15014 1.58583 0
M  V30 11680 H 1165.64 0.445817 0.59938 0
M  V30 11681 H 1168.3 1.64998 1.03739 0
M  V30 11682 H 1167.4 1.78669 2.55898 0
M  V30 11683 N 1167.7 -1.08142 1.14644 0
M  V30 11684 C 1168.95 -1.80582 0.916327 0
M  V30 11685 C 1169.27 -1.86355 -0.556969 0
M  V30 11686 O 1168.53 -1.33736 -1.42875 0
M  V30 11687 C 1168.83 -3.25962 1.46573 0
M  V30 11688 C 1168.49 -3.40302 2.95814 0
M  V30 11689 C 1167.16 -3.43922 3.36557 0
M  V30 11690 C 1169.51 -3.43758 3.91765 0
M  V30 11691 C 1166.84 -3.48594 4.7191 0
M  V30 11692 C 1169.19 -3.49965 5.26979 0
M  V30 11693 C 1167.85 -3.5186 5.67231 0
M  V30 11694 H 1167.12 -0.660795 0.335308 0
M  V30 11695 H 1169.77 -1.27309 1.43055 0
M  V30 11696 H 1168.07 -3.81961 0.872507 0
M  V30 11697 H 1169.77 -3.80571 1.2636 0
M  V30 11698 H 1166.36 -3.38176 2.63315 0
M  V30 11699 H 1170.55 -3.40189 3.61366 0
M  V30 11700 H 1165.8 -3.48355 5.02453 0
M  V30 11701 H 1169.98 -3.51585 6.01133 0
M  V30 11702 H 1167.6 -3.55233 6.72097 0
M  V30 11703 N 1169.18 -0.941978 -1.26351 0
M  V30 11704 C 1170.41 -0.606748 -1.97803 0
M  V30 11705 C 1170.82 0.818441 -1.70138 0
M  V30 11706 O 1170.18 1.54583 -0.970076 0
M  V30 11707 C 1170.23 -0.840431 -3.51595 0
M  V30 11708 O 1169.95 -2.20957 -3.78299 0
M  V30 11709 C 1171.45 -0.515855 -4.40288 0
M  V30 11710 H 1168.67 -0.228591 -0.630862 0
M  V30 11711 H 1171.21 -1.2629 -1.60845 0
M  V30 11712 H 1169.37 -0.230875 -3.86711 0
M  V30 11713 H 1169.78 -2.2702 -4.72824 0
M  V30 11714 H 1171.26 -0.72998 -5.47152 0
M  V30 11715 H 1171.73 0.549178 -4.35753 0
M  V30 11716 H 1172.34 -1.10417 -4.10717 0
M  V30 11717 N 1170.66 1.40747 -0.709091 0
M  V30 11718 C 1171.62 2.29118 -0.0611607 0
M  V30 11719 C 1172.62 1.45049 0.694081 0
M  V30 11720 O 1173.81 1.66039 0.526952 0
M  V30 11721 C 1170.94 3.28154 0.923447 0
M  V30 11722 H 1172.13 2.87913 -0.839413 0
M  V30 11723 H 1169.69 1.4896 -0.473363 0
M  V30 11724 H 1170.42 2.74366 1.72899 0
M  V30 11725 H 1170.21 3.90207 0.384862 0
M  V30 11726 H 1171.7 3.94343 1.37417 0
M  V30 11727 N 1172.13 0.454803 1.50895 0
M  V30 11728 C 1173.36 -0.106259 2.07128 0
M  V30 11729 C 1173.78 -1.3418 1.31823 0
M  V30 11730 O 1173.14 -1.77667 0.361147 0
M  V30 11731 C 1173.19 -0.389609 3.58489 0
M  V30 11732 O 1172.29 -1.47305 3.85195 0
M  V30 11733 H 1171.63 0.00580588 0.663975 0
M  V30 11734 H 1174.16 0.641163 1.94294 0
M  V30 11735 H 1174.17 -0.634934 4.03029 0
M  V30 11736 H 1172.85 0.513338 4.1272 0
M  V30 11737 H 1171.43 -1.21631 3.52506 0
M  V30 11738 N 1173.61 -1.56489 0.186789 0
M  V30 11739 C 1174.86 -1.96517 -0.45433 0
M  V30 11740 C 1175.17 -1.07618 -1.63333 0
M  V30 11741 O 1176.38 -1.37392 -2.3417 0
M  V30 11742 C 1174.84 -3.49482 -0.859685 0
M  V30 11743 C 1174.44 -4.47031 0.294572 0
M  V30 11744 C 1176.19 -3.98296 -1.46835 0
M  V30 11745 C 1174.09 -5.91254 -0.131279 0
M  V30 11746 H 1173.02 -0.733765 -0.17351 0
M  V30 11747 H 1175.68 -1.8139 0.277485 0
M  V30 11748 H 1174.06 -3.60082 -1.64793 0
M  V30 11749 H 1175.23 -4.48156 1.07205 0
M  V30 11750 H 1173.55 -4.08362 0.814197 0
M  V30 11751 H 1176.14 -5.03518 -1.79928 0
M  V30 11752 H 1176.49 -3.42123 -2.37186 0
M  V30 11753 H 1177.02 -3.90776 -0.744247 0
M  V30 11754 H 1173.76 -6.51334 0.737839 0
M  V30 11755 H 1173.28 -5.93401 -0.873786 0
M  V30 11756 H 1174.96 -6.44485 -0.569913 0
M  V30 11757 N 1175.09 0.086862 -1.5736 0
M  V30 11758 C 1176.51 0.441284 -1.53378 0
M  V30 11759 C 1176.71 1.80046 -0.904748 0
M  V30 11760 O 1175.76 2.47484 -0.500781 0
M  V30 11761 C 1177.07 0.3962 -2.98078 0
M  V30 11762 C 1178.62 0.477468 -3.09337 0
M  V30 11763 C 1179.1 0.462448 -4.55659 0
M  V30 11764 N 1180.59 0.522963 -4.60238 0
M  V30 11765 C 1181.32 0.533313 -5.70914 0
M  V30 11766 N 1180.82 0.499376 -6.90998 0
M  V30 11767 N 1182.61 0.578742 -5.59113 0
M  V30 11768 H 1174.76 -0.803308 -1.96623 0
M  V30 11769 H 1177.03 -0.299879 -0.89932 0
M  V30 11770 H 1176.73 -0.535505 -3.47599 0
M  V30 11771 H 1176.61 1.21209 -3.57195 0
M  V30 11772 H 1178.99 1.39959 -2.59799 0
M  V30 11773 H 1179.07 -0.366717 -2.53158 0
M  V30 11774 H 1178.72 -0.455768 -5.05851 0
M  V30 11775 H 1178.65 1.32396 -5.09685 0
M  V30 11776 H 1181.14 0.554051 -3.73816 0
M  V30 11777 H 1181.45 0.510784 -7.7111 0
M  V30 11778 H 1179.8 0.466296 -6.93434 0
M  V30 11779 H 1182.99 0.602841 -4.64202 0
M  V30 11780 H 1183.16 0.583339 -6.45369 0
M  V30 11781 N 1176.57 1.53483 0.357892 0
M  V30 11782 C 1177.82 1.69256 1.09706 0
M  V30 11783 C 1178.13 0.454888 1.90237 0
M  V30 11784 O 1179.34 0.4933 2.66981 0
M  V30 11785 C 1177.79 2.99238 1.99961 0
M  V30 11786 C 1177.4 4.30293 1.24706 0
M  V30 11787 C 1179.14 3.24378 2.73823 0
M  V30 11788 C 1177.05 5.5136 2.13907 0
M  V30 11789 H 1175.98 0.630657 0.413265 0
M  V30 11790 H 1178.63 1.79983 0.357518 0
M  V30 11791 H 1177.01 2.82332 2.77677 0
M  V30 11792 H 1178.19 4.57857 0.519995 0
M  V30 11793 H 1176.5 4.11656 0.626736 0
M  V30 11794 H 1179.1 4.12015 3.40805 0
M  V30 11795 H 1179.44 2.40769 3.39612 0
M  V30 11796 H 1179.98 3.41994 2.03187 0
M  V30 11797 H 1176.71 6.3747 1.52684 0
M  V30 11798 H 1176.23 5.28065 2.84442 0
M  V30 11799 H 1177.91 5.86448 2.7329 0
M  V30 11800 N 1178.05 -0.61812 1.44973 0
M  V30 11801 C 1179.27 -1.40429 1.51945 0
M  V30 11802 C 1179.69 -1.88215 0.148556 0
M  V30 11803 O 1179.05 -1.61603 -0.847978 0
M  V30 11804 C 1179.1 -2.61588 2.49507 0
M  V30 11805 O 1178.82 -2.15791 3.81269 0
M  V30 11806 C 1180.32 -3.5457 2.66074 0
M  V30 11807 H 1177.54 -0.43023 0.514921 0
M  V30 11808 H 1180.08 -0.754791 1.90061 0
M  V30 11809 H 1178.24 -3.22602 2.14492 0
M  V30 11810 H 1178.65 -2.94434 4.34061 0
M  V30 11811 H 1180.13 -4.36155 3.38338 0
M  V30 11812 H 1180.6 -4.04227 1.71746 0
M  V30 11813 H 1181.21 -2.99416 3.02043 0
M  V30 11814 N 1179.52 -1.32087 -0.859693 0
M  V30 11815 C 1180.75 -1.25167 -1.64368 0
M  V30 11816 C 1181.16 0.183572 -1.88307 0
M  V30 11817 O 1180.5 1.12945 -1.44876 0
M  V30 11818 C 1180.57 -1.93641 -3.02892 0
M  V30 11819 C 1180.23 -3.4298 -3.02017 0
M  V30 11820 C 1181.23 -4.38551 -2.79229 0
M  V30 11821 C 1178.91 -3.84835 -3.22812 0
M  V30 11822 C 1180.91 -5.73952 -2.77232 0
M  V30 11823 C 1178.59 -5.20346 -3.20442 0
M  V30 11824 C 1179.59 -6.14716 -2.97681 0
M  V30 11825 O 1179.28 -7.47748 -2.95175 0
M  V30 11826 H 1179.01 -0.433327 -0.518848 0
M  V30 11827 H 1181.57 -1.7468 -1.08055 0
M  V30 11828 H 1179.8 -1.3869 -3.60974 0
M  V30 11829 H 1181.48 -1.80497 -3.63559 0
M  V30 11830 H 1182.25 -4.07542 -2.62935 0
M  V30 11831 H 1178.13 -3.11806 -3.39555 0
M  V30 11832 H 1181.67 -6.47584 -2.59385 0
M  V30 11833 H 1177.57 -5.50987 -3.36279 0
M  V30 11834 H 1178.34 -7.57046 -3.11165 0
M  V30 11835 N 1181 1.07532 -1.15215 0
M  V30 11836 C 1181.95 2.12909 -0.815714 0
M  V30 11837 C 1182.94 1.59662 0.1992 0
M  V30 11838 O 1184.13 1.77 0.000215597 0
M  V30 11839 C 1181.26 3.41945 -0.304717 0
M  V30 11840 C 1180.34 4.0205 -1.34968 0
M  V30 11841 N 1180.73 4.36439 -2.55646 0
M  V30 11842 C 1179.03 4.29498 -1.20199 0
M  V30 11843 C 1179.73 4.84044 -3.22609 0
M  V30 11844 N 1178.71 4.82702 -2.5 0
M  V30 11845 H 1182.51 2.37327 -1.73358 0
M  V30 11846 H 1180.02 1.24952 -1.03734 0
M  V30 11847 H 1182.02 4.16875 -0.0453503 0
M  V30 11848 H 1180.68 3.18971 0.607235 0
M  V30 11849 H 1181.69 4.27184 -2.92804 0
M  V30 11850 H 1178.37 4.16032 -0.349781 0
M  V30 11851 H 1179.76 5.19959 -4.2555 0
M  V30 11852 N 1182.48 0.948665 1.2585 0
M  V30 11853 C 1183.73 0.59905 1.93018 0
M  V30 11854 C 1184.05 -0.865813 1.74725 0
M  V30 11855 O 1183.32 -1.61602 1.10732 0
M  V30 11856 H 1181.9 0.218565 0.71431 0
M  V30 11857 H 1184.56 1.20561 1.53137 0
M  V30 11858 H 1183.66 0.823244 3.01047 0
M  V30 11859 N 1183.96 -1.40369 0.716545 0
M  V30 11860 C 1185.19 -2.05181 0.266143 0
M  V30 11861 C 1185.6 -1.53988 -1.09239 0
M  V30 11862 O 1184.96 -0.696859 -1.68672 0
M  V30 11863 C 1185.01 -3.60713 0.238384 0
M  V30 11864 O 1184.73 -4.10018 1.54328 0
M  V30 11865 C 1186.23 -4.42701 -0.230453 0
M  V30 11866 H 1183.45 -0.66028 0.119463 0
M  V30 11867 H 1186 -1.7976 0.97502 0
M  V30 11868 H 1184.15 -3.85101 -0.421466 0
M  V30 11869 H 1184.56 -5.0422 1.4444 0
M  V30 11870 H 1186.04 -5.51642 -0.198728 0
M  V30 11871 H 1186.52 -4.20354 -1.27276 0
M  V30 11872 H 1187.12 -4.23423 0.399155 0
M  V30 11873 N 1185.44 -0.462799 -1.50652 0
M  V30 11874 C 1186.4 0.324264 -2.26895 0
M  V30 11875 C 1187.4 0.927687 -1.31342 0
M  V30 11876 O 1188.59 0.798159 -1.54839 0
M  V30 11877 C 1185.72 1.46113 -3.08 0
M  V30 11878 H 1186.91 -0.344266 -2.97917 0
M  V30 11879 H 1184.47 -0.216631 -1.54791 0
M  V30 11880 H 1185.2 2.16496 -2.41454 0
M  V30 11881 H 1184.99 1.03433 -3.78212 0
M  V30 11882 H 1186.48 2.01655 -3.65684 0
M  V30 11883 N 1186.91 1.56388 -0.195085 0
M  V30 11884 C 1188.33 1.8398 0.317513 0
M  V30 11885 C 1188.68 1.11575 1.61386 0
M  V30 11886 O 1187.8 0.376557 2.13099 0
M  V30 11887 C 1188.4 3.33749 0.582859 0
M  V30 11888 C 1186.96 3.61752 1.03983 0
M  V30 11889 C 1186.1 2.77159 0.088434 0
M  V30 11890 H 1189.05 1.53072 -0.418871 0
M  V30 11891 H 1189.07 3.52519 1.43216 0
M  V30 11892 H 1188.59 3.86419 -0.360813 0
M  V30 11893 H 1186.69 3.14515 1.99778 0
M  V30 11894 H 1186.8 4.69937 0.932549 0
M  V30 11895 H 1185.16 2.47765 0.590317 0
M  V30 11896 H 1185.95 3.32619 -0.849682 0
M  V30 11897 N 1188.39 -0.0785156 1.57404 0
M  V30 11898 C 1189.32 -1.09446 2.06262 0
M  V30 11899 C 1190.3 -1.40777 0.954772 0
M  V30 11900 O 1191.49 -1.5052 1.22708 0
M  V30 11901 C 1188.62 -2.40979 2.50093 0
M  V30 11902 C 1187.57 -2.24017 3.64692 0
M  V30 11903 C 1186.9 -3.60873 3.94556 0
M  V30 11904 C 1188.2 -1.66696 4.94985 0
M  V30 11905 H 1189.89 -0.687928 2.9139 0
M  V30 11906 H 1187.44 -0.329466 1.4018 0
M  V30 11907 H 1189.39 -3.12337 2.82884 0
M  V30 11908 H 1188.12 -2.83599 1.61985 0
M  V30 11909 H 1186.77 -1.55101 3.32174 0
M  V30 11910 H 1186.42 -4.01051 3.0359 0
M  V30 11911 H 1186.12 -3.50365 4.71718 0
M  V30 11912 H 1187.65 -4.33673 4.29837 0
M  V30 11913 H 1189.06 -2.27913 5.2605 0
M  V30 11914 H 1187.46 -1.66902 5.76423 0
M  V30 11915 H 1188.53 -0.627827 4.80818 0
M  V30 11916 N 1189.87 -1.5367 -0.349747 0
M  V30 11917 C 1191.1 -1.74858 -1.11532 0
M  V30 11918 C 1191.52 -0.483591 -1.81777 0
M  V30 11919 O 1190.88 0.563399 -1.72324 0
M  V30 11920 C 1190.93 -2.92479 -2.10923 0
M  V30 11921 O 1190.03 -2.62194 -3.18321 0
M  V30 11922 H 1189.37 -0.580219 -0.322865 0
M  V30 11923 H 1191.9 -2.00611 -0.402033 0
M  V30 11924 H 1191.91 -3.19093 -2.54252 0
M  V30 11925 H 1190.59 -3.84228 -1.59191 0
M  V30 11926 H 1189.16 -2.46448 -2.79853 0
M  V30 11927 N 1191.35 0.610423 -1.45298 0
M  V30 11928 C 1192.57 1.40112 -1.52917 0
M  V30 11929 C 1193 1.87404 -0.161696 0
M  V30 11930 O 1192.36 1.59973 0.853135 0
M  V30 11931 C 1192.4 2.58359 -2.51561 0
M  V30 11932 O 1191.51 3.58895 -2.03146 0
M  V30 11933 H 1190.85 0.41841 -0.515586 0
M  V30 11934 H 1193.38 0.743159 -1.90626 0
M  V30 11935 H 1193.39 3.0564 -2.70275 0
M  V30 11936 H 1192.06 2.23286 -3.50879 0
M  V30 11937 H 1190.64 3.18282 -1.94296 0
M  V30 11938 N 1192.83 1.32541 0.852676 0
M  V30 11939 C 1194.07 1.24406 1.60918 0
M  V30 11940 C 1194.43 -0.19184 1.91441 0
M  V30 11941 O 1193.72 -1.13016 1.54719 0
M  V30 11942 C 1193.91 2.039 2.9353 0
M  V30 11943 C 1193.74 3.55074 2.75957 0
M  V30 11944 C 1192.51 4.24409 2.74236 0
M  V30 11945 C 1194.71 4.49686 2.49574 0
M  V30 11946 N 1192.69 5.61624 2.47895 0
M  V30 11947 C 1194.06 5.74692 2.32658 0
M  V30 11948 C 1196.12 4.38921 2.35058 0
M  V30 11949 C 1194.82 6.90149 2.027 0
M  V30 11950 C 1196.85 5.5418 2.06491 0
M  V30 11951 C 1196.21 6.78186 1.90377 0
M  V30 11952 H 1192.31 0.510401 0.592465 0
M  V30 11953 H 1194.89 1.66929 1.00214 0
M  V30 11954 H 1193.06 1.6372 3.52208 0
M  V30 11955 H 1194.8 1.87644 3.58569 0
M  V30 11956 H 1191.55 3.76546 2.87246 0
M  V30 11957 H 1191.98 6.33918 2.37648 0
M  V30 11958 H 1196.62 3.43697 2.46236 0
M  V30 11959 H 1194.34 7.85383 1.90259 0
M  V30 11960 H 1197.92 5.47779 1.96035 0
M  V30 11961 H 1196.8 7.65864 1.68587 0
M  V30 11962 N 1194.3 -1.0692 1.15784 0
M  V30 11963 C 1195.21 -2.17762 0.872753 0
M  V30 11964 C 1196.23 -1.73329 -0.152608 0
M  V30 11965 O 1197.41 -2.01387 0.022519 0
M  V30 11966 C 1194.47 -3.4471 0.370887 0
M  V30 11967 C 1193.53 -4.03686 1.46069 0
M  V30 11968 C 1192.77 -5.24575 0.982675 0
M  V30 11969 O 1192.99 -5.70146 -0.17006 0
M  V30 11970 O 1191.92 -5.7534 1.76828 0
M  V30 11971 H 1195.75 -2.44648 1.79948 0
M  V30 11972 H 1193.33 -1.1634 0.937303 0
M  V30 11973 H 1195.22 -4.21287 0.0976779 0
M  V30 11974 H 1193.89 -3.19366 -0.527912 0
M  V30 11975 H 1192.8 -3.28629 1.78756 0
M  V30 11976 H 1194.13 -4.33312 2.33456 0
M  V30 11977 N 1195.78 -0.955326 -1.25345 0
M  V30 11978 C 1196.71 -0.494145 -2.28211 0
M  V30 11979 C 1197.69 0.459875 -1.63766 0
M  V30 11980 O 1198.88 0.358679 -1.90859 0
M  V30 11981 C 1196.01 0.228228 -3.46549 0
M  V30 11982 C 1194.96 -0.640601 -4.23179 0
M  V30 11983 C 1194.29 0.212553 -5.34277 0
M  V30 11984 C 1195.59 -1.91906 -4.85767 0
M  V30 11985 H 1197.28 -1.35391 -2.67039 0
M  V30 11986 H 1194.83 -0.652462 -1.2837 0
M  V30 11987 H 1196.78 0.561995 -4.17636 0
M  V30 11988 H 1195.51 1.12224 -3.06714 0
M  V30 11989 H 1194.16 -0.957462 -3.53876 0
M  V30 11990 H 1193.81 1.10634 -4.90682 0
M  V30 11991 H 1193.51 -0.365473 -5.86462 0
M  V30 11992 H 1195.04 0.541271 -6.08196 0
M  V30 11993 H 1196.45 -1.65165 -5.48993 0
M  V30 11994 H 1194.85 -2.44279 -5.48131 0
M  V30 11995 H 1195.92 -2.62173 -4.07914 0
M  V30 11996 N 1197.26 1.39987 -0.723979 0
M  V30 11997 C 1198.49 2.0556 -0.275634 0
M  V30 11998 C 1198.91 1.54207 1.07711 0
M  V30 11999 O 1198.27 0.681041 1.68022 0
M  V30 12000 C 1198.32 3.59551 -0.27485 0
M  V30 12001 O 1197.42 4.05685 0.741182 0
M  V30 12002 H 1196.76 0.651634 -0.12755 0
M  V30 12003 H 1199.29 1.79229 -0.986814 0
M  V30 12004 H 1199.3 4.07837 -0.115425 0
M  V30 12005 H 1197.98 3.96291 -1.26198 0
M  V30 12006 H 1196.55 3.6884 0.548795 0
M  V30 12007 N 1198.74 0.470782 1.50404 0
M  V30 12008 C 1199.99 -0.084316 2.02324 0
M  V30 12009 C 1200.31 -1.39749 1.35279 0
M  V30 12010 O 1199.57 -1.90037 0.467364 0
M  V30 12011 C 1199.87 -0.316419 3.55997 0
M  V30 12012 C 1199.53 0.915017 4.41518 0
M  V30 12013 C 1198.2 1.25265 4.6461 0
M  V30 12014 C 1200.55 1.73494 4.91477 0
M  V30 12015 C 1197.88 2.41027 5.34905 0
M  V30 12016 C 1200.23 2.88384 5.63043 0
M  V30 12017 C 1198.89 3.22562 5.84389 0
M  V30 12018 H 1198.16 -0.0308534 0.740357 0
M  V30 12019 H 1200.81 0.624799 1.81021 0
M  V30 12020 H 1199.11 -1.10778 3.75813 0
M  V30 12021 H 1200.81 -0.759882 3.93734 0
M  V30 12022 H 1197.4 0.641977 4.23765 0
M  V30 12023 H 1201.59 1.48728 4.73491 0
M  V30 12024 H 1196.84 2.67781 5.49639 0
M  V30 12025 H 1201.02 3.52264 6.00735 0
M  V30 12026 H 1198.64 4.1237 6.38635 0
M  V30 12027 N 1200.22 -1.56282 0.203376 0
M  V30 12028 C 1201.45 -2.02198 -0.438572 0
M  V30 12029 C 1201.86 -1.08343 -1.54619 0
M  V30 12030 O 1201.22 -0.0897594 -1.82279 0
M  V30 12031 C 1201.27 -3.4776 -0.987184 0
M  V30 12032 O 1200.99 -4.38034 0.0762552 0
M  V30 12033 C 1202.49 -4.09234 -1.70419 0
M  V30 12034 H 1199.71 -0.662041 -0.109282 0
M  V30 12035 H 1202.25 -2.02067 0.314509 0
M  V30 12036 H 1200.41 -3.48564 -1.69061 0
M  V30 12037 H 1200.82 -5.2344 -0.333322 0
M  V30 12038 H 1202.3 -5.1291 -2.04027 0
M  V30 12039 H 1202.77 -3.53172 -2.61087 0
M  V30 12040 H 1203.38 -4.12226 -1.04641 0
M  V30 12041 N 1201.7 0.070167 -1.57444 0
M  V30 12042 C 1202.94 0.769014 -1.8733 0
M  V30 12043 C 1203.27 1.77496 -0.79533 0
M  V30 12044 O 1202.53 1.94586 0.208495 0
M  V30 12045 C 1202.82 1.5111 -3.23883 0
M  V30 12046 C 1202.49 0.644988 -4.46263 0
M  V30 12047 C 1201.15 0.406307 -4.79482 0
M  V30 12048 C 1203.5 0.0444938 -5.21181 0
M  V30 12049 C 1200.83 -0.442322 -5.8503 0
M  V30 12050 C 1203.18 -0.791599 -6.27628 0
M  V30 12051 C 1201.85 -1.04014 -6.59346 0
M  V30 12052 H 1201.12 0.281402 -0.685488 0
M  V30 12053 H 1203.77 0.029752 -1.91477 0
M  V30 12054 H 1202.07 2.32261 -3.15535 0
M  V30 12055 H 1203.77 2.05665 -3.44242 0
M  V30 12056 H 1200.36 0.841148 -4.20265 0
M  V30 12057 H 1204.54 0.216005 -4.9583 0
M  V30 12058 H 1199.8 -0.643607 -6.08003 0
M  V30 12059 H 1203.97 -1.26363 -6.8484 0
M  V30 12060 H 1201.6 -1.69949 -7.4096 0
M  V30 12061 N 1203.17 1.53854 0.341593 0
M  V30 12062 C 1204.58 1.62623 0.917093 0
M  V30 12063 C 1204.94 0.508781 1.89488 0
M  V30 12064 O 1204.06 -0.361171 2.13365 0
M  V30 12065 C 1204.66 2.94775 1.67012 0
M  V30 12066 C 1203.21 3.058 2.19461 0
M  V30 12067 C 1202.36 2.58082 1.01433 0
M  V30 12068 H 1205.31 1.58248 0.119674 0
M  V30 12069 H 1205.33 2.83924 2.53313 0
M  V30 12070 H 1204.85 3.76085 0.958221 0
M  V30 12071 H 1202.95 2.29128 2.93821 0
M  V30 12072 H 1203.06 4.11302 2.45698 0
M  V30 12073 H 1201.42 2.13537 1.38831 0
M  V30 12074 H 1202.21 3.41833 0.317033 0
M  V30 12075 N 1204.65 -0.602709 1.4562 0
M  V30 12076 C 1205.61 -1.69508 1.54271 0
M  V30 12077 C 1206.61 -1.55171 0.421727 0
M  V30 12078 O 1207.8 -1.60151 0.685375 0
M  V30 12079 C 1204.94 -3.0881 1.44392 0
M  V30 12080 H 1206.13 -1.63203 2.51605 0
M  V30 12081 H 1203.68 -0.818857 1.33133 0
M  V30 12082 H 1204.42 -3.20689 0.482614 0
M  V30 12083 H 1204.2 -3.20625 2.25704 0
M  V30 12084 H 1205.69 -3.8837 1.53488 0
M  V30 12085 N 1206.13 -1.32992 -0.845635 0
M  V30 12086 C 1207.38 -1.2382 -1.59728 0
M  V30 12087 C 1207.7 0.197724 -1.93995 0
M  V30 12088 O 1206.97 1.12477 -1.60392 0
M  V30 12089 H 1205.55 -0.455296 -0.592212 0
M  V30 12090 H 1208.21 -1.66627 -1.01101 0
M  V30 12091 H 1207.31 -1.82717 -2.53023 0
M  V30 12092 N 1207.61 1.06304 -1.1635 0
M  V30 12093 C 1208.54 2.13732 -0.827721 0
M  V30 12094 C 1209.55 1.61962 0.164983 0
M  V30 12095 O 1210.74 1.784 -0.0597591 0
M  V30 12096 C 1207.84 3.38239 -0.211623 0
M  V30 12097 C 1207.01 4.19325 -1.2444 0
M  V30 12098 C 1206.07 5.22193 -0.648127 0
M  V30 12099 O 1205.1 5.53755 -1.31695 0
M  V30 12100 N 1206.3 5.77742 0.565179 0
M  V30 12101 H 1209.07 2.43136 -1.75228 0
M  V30 12102 H 1206.63 1.22304 -1.06081 0
M  V30 12103 H 1208.62 4.04204 0.200306 0
M  V30 12104 H 1207.19 3.06461 0.616491 0
M  V30 12105 H 1206.41 3.49017 -1.83251 0
M  V30 12106 H 1207.7 4.70306 -1.94138 0
M  V30 12107 H 1207.1 5.54366 1.12673 0
M  V30 12108 H 1205.65 6.45284 0.919321 0
M  V30 12109 N 1209.09 0.96196 1.24836 0
M  V30 12110 C 1210.02 0.445329 2.24832 0
M  V30 12111 C 1211.03 -0.442797 1.56663 0
M  V30 12112 O 1212.22 -0.249896 1.76742 0
M  V30 12113 C 1209.32 -0.376953 3.36797 0
M  V30 12114 C 1208.49 0.499908 4.34534 0
M  V30 12115 C 1207.55 -0.265402 5.2553 0
M  V30 12116 O 1206.58 0.338707 5.68191 0
M  V30 12117 N 1207.78 -1.55654 5.59243 0
M  V30 12118 H 1210.54 1.30505 2.69793 0
M  V30 12119 H 1208.11 0.833137 1.38818 0
M  V30 12120 H 1210.1 -0.896831 3.94638 0
M  V30 12121 H 1208.67 -1.13757 2.91167 0
M  V30 12122 H 1207.89 1.20082 3.75465 0
M  V30 12123 H 1209.18 1.09814 4.96808 0
M  V30 12124 H 1208.57 -2.06916 5.265 0
M  V30 12125 H 1207.13 -2.02223 6.19636 0
M  V30 12126 N 1210.56 -1.39601 0.731392 0
M  V30 12127 C 1211.81 -2.00883 0.278168 0
M  V30 12128 C 1212.14 -1.57897 -1.13059 0
M  V30 12129 O 1211.42 -0.806203 -1.77005 0
M  V30 12130 C 1211.7 -3.58132 0.375969 0
M  V30 12131 C 1211.55 -4.11147 1.82423 0
M  V30 12132 C 1212.87 -4.39425 -0.243702 0
M  V30 12133 H 1209.99 -0.729831 0.102549 0
M  V30 12134 H 1212.63 -1.65859 0.926869 0
M  V30 12135 H 1210.78 -3.881 -0.176329 0
M  V30 12136 H 1212.46 -3.91914 2.43313 0
M  V30 12137 H 1210.7 -3.64842 2.34675 0
M  V30 12138 H 1211.37 -5.20291 1.84396 0
M  V30 12139 H 1213.85 -4.1548 0.227067 0
M  V30 12140 H 1212.72 -5.48709 -0.144907 0
M  V30 12141 H 1212.98 -4.21642 -1.32929 0
M  V30 12142 N 1212.04 -0.478751 -1.50152 0
M  V30 12143 C 1213.27 0.0710485 -2.06778 0
M  V30 12144 C 1213.69 1.32826 -1.34174 0
M  V30 12145 O 1213.04 1.77758 -0.413304 0
M  V30 12146 C 1213.09 0.351351 -3.59789 0
M  V30 12147 O 1212.81 -0.855998 -4.29656 0
M  V30 12148 C 1214.32 0.947269 -4.33061 0
M  V30 12149 H 1211.54 -0.0105032 -0.670918 0
M  V30 12150 H 1214.08 -0.669732 -1.93222 0
M  V30 12151 H 1212.23 1.04207 -3.73121 0
M  V30 12152 H 1212.65 -0.605252 -5.20996 0
M  V30 12153 H 1214.12 1.09312 -5.41068 0
M  V30 12154 H 1214.6 1.93937 -3.94062 0
M  V30 12155 H 1215.21 0.294693 -4.24278 0
M  V30 12156 N 1213.52 1.56172 -0.211661 0
M  V30 12157 C 1214.47 2.16477 0.715675 0
M  V30 12158 C 1215.45 1.11023 1.16459 0
M  V30 12159 O 1216.65 1.3704 1.12023 0
M  V30 12160 C 1213.78 2.84055 1.92789 0
M  V30 12161 C 1212.86 3.96721 1.49911 0
M  V30 12162 N 1213.25 4.99714 0.782304 0
M  V30 12163 C 1211.55 4.08628 1.78716 0
M  V30 12164 C 1212.25 5.78949 0.565043 0
M  V30 12165 N 1211.23 5.31963 1.11878 0
M  V30 12166 H 1215.03 2.93467 0.15948 0
M  V30 12167 H 1212.54 1.62395 -0.012521 0
M  V30 12168 H 1214.54 3.25662 2.60289 0
M  V30 12169 H 1213.2 2.08558 2.48865 0
M  V30 12170 H 1214.21 5.16061 0.436021 0
M  V30 12171 H 1210.89 3.44273 2.36183 0
M  V30 12172 H 1212.28 6.719 -0.00477074 0
M  V30 12173 N 1215 -0.0618163 1.57479 0
M  V30 12174 C 1216.25 -0.757569 1.87364 0
M  V30 12175 C 1216.57 -1.77607 0.805025 0
M  V30 12176 O 1215.84 -1.95202 -0.165216 0
M  V30 12177 H 1214.42 -0.28278 0.691408 0
M  V30 12178 H 1217.08 -0.0355354 1.94868 0
M  V30 12179 H 1216.18 -1.26758 2.85199 0
M  V30 12180 N 1216.48 -1.54033 -0.333429 0
M  V30 12181 C 1217.72 -1.72958 -1.07038 0
M  V30 12182 C 1218.08 -0.492055 -1.86002 0
M  V30 12183 O 1217.37 0.515453 -1.84536 0
M  V30 12184 C 1217.56 -2.93926 -2.03328 0
M  V30 12185 C 1217.39 -4.29324 -1.33831 0
M  V30 12186 C 1216.16 -4.93647 -1.07892 0
M  V30 12187 C 1218.36 -5.08664 -0.75929 0
M  V30 12188 N 1216.34 -6.12897 -0.35082 0
M  V30 12189 C 1217.71 -6.19788 -0.162281 0
M  V30 12190 C 1219.77 -4.93491 -0.661131 0
M  V30 12191 C 1218.47 -7.17394 0.523351 0
M  V30 12192 C 1220.5 -5.91399 0.0107794 0
M  V30 12193 C 1219.86 -7.01867 0.596775 0
M  V30 12194 H 1215.96 -0.685828 -0.375718 0
M  V30 12195 H 1218.54 -1.91478 -0.35274 0
M  V30 12196 H 1216.71 -2.76889 -2.72373 0
M  V30 12197 H 1218.45 -3.01524 -2.69936 0
M  V30 12198 H 1215.2 -4.53392 -1.36868 0
M  V30 12199 H 1215.63 -6.77 -0.00120039 0
M  V30 12200 H 1220.27 -4.08242 -1.09991 0
M  V30 12201 H 1217.99 -8.02209 0.973994 0
M  V30 12202 H 1221.57 -5.81736 0.0862353 0
M  V30 12203 H 1220.45 -7.76327 1.10845 0
M  V30 12204 N 1217.95 0.594978 -1.45938 0
M  V30 12205 C 1218.9 1.726 -1.55923 0
M  V30 12206 C 1219.9 1.63893 -0.428411 0
M  V30 12207 O 1221.1 1.69535 -0.604815 0
M  V30 12208 H 1217.48 0.570447 -0.489994 0
M  V30 12209 H 1219.45 1.61308 -2.51043 0
M  V30 12210 C 1218.2 3.10988 -1.55505 0
M  V30 12211 H 1217.52 3.18353 -2.4185 0
M  V30 12212 H 1218.96 3.8992 -1.66548 0
M  V30 12213 C 1217.42 3.35721 -0.281573 0
M  V30 12214 O 1217.95 3.96676 0.633336 0
M  V30 12215 N 1216.16 2.90083 -0.173314 0
M  V30 12216 H 1215.7 2.4066 -0.91872 0
M  V30 12217 H 1215.66 3.07005 0.677903 0
M  V30 12218 N 1219.43 1.33438 0.838571 0
M  V30 12219 C 1220.4 1.23632 1.92997 0
M  V30 12220 C 1221.4 0.155302 1.60048 0
M  V30 12221 O 1222.59 0.406852 1.69382 0
M  V30 12222 C 1219.72 0.90512 3.28665 0
M  V30 12223 H 1220.91 2.20643 2.03117 0
M  V30 12224 H 1218.46 1.17501 1.03069 0
M  V30 12225 H 1219.2 -0.0624833 3.2424 0
M  V30 12226 H 1218.98 1.68688 3.53959 0
M  V30 12227 H 1220.47 0.861262 4.08622 0
M  V30 12228 N 1220.91 -1.05686 1.16912 0
M  V30 12229 C 1222.14 -1.82282 0.978811 0
M  V30 12230 C 1222.55 -1.8278 -0.472972 0
M  V30 12231 O 1221.91 -1.25143 -1.32836 0
M  V30 12232 C 1221.96 -3.28623 1.50629 0
M  V30 12233 O 1221.68 -3.28269 2.90122 0
M  V30 12234 C 1223.18 -4.21927 1.35987 0
M  V30 12235 H 1220.4 -0.574558 0.346588 0
M  V30 12236 H 1222.95 -1.33301 1.55084 0
M  V30 12237 H 1221.1 -3.74893 0.976404 0
M  V30 12238 H 1221.52 -4.19824 3.14401 0
M  V30 12239 H 1222.99 -5.2261 1.77716 0
M  V30 12240 H 1223.47 -4.38131 0.30626 0
M  V30 12241 H 1224.07 -3.81508 1.87968 0
M  V30 12242 N 1222.39 -0.968567 -1.24324 0
M  V30 12243 C 1223.63 -0.641458 -1.9302 0
M  V30 12244 C 1223.99 0.814553 -1.74307 0
M  V30 12245 O 1223.28 1.57848 -1.08603 0
M  V30 12246 C 1223.48 -0.952762 -3.44467 0
M  V30 12247 C 1223.31 -2.43748 -3.77911 0
M  V30 12248 C 1222.08 -3.09746 -3.99231 0
M  V30 12249 C 1224.27 -3.4176 -3.84324 0
M  V30 12250 N 1222.26 -4.47947 -4.19782 0
M  V30 12251 C 1223.63 -4.65321 -4.09728 0
M  V30 12252 C 1225.68 -3.36406 -3.67064 0
M  V30 12253 C 1224.38 -5.84186 -4.19665 0
M  V30 12254 C 1226.41 -4.54624 -3.78248 0
M  V30 12255 C 1225.77 -5.76976 -4.04077 0
M  V30 12256 H 1221.87 -0.285584 -0.727987 0
M  V30 12257 H 1224.46 -1.2436 -1.49808 0
M  V30 12258 H 1222.63 -0.379421 -3.86542 0
M  V30 12259 H 1224.36 -0.584137 -4.00462 0
M  V30 12260 H 1221.11 -2.60274 -3.95669 0
M  V30 12261 H 1221.54 -5.19559 -4.34036 0
M  V30 12262 H 1226.18 -2.42847 -3.461 0
M  V30 12263 H 1223.9 -6.78172 -4.3944 0
M  V30 12264 H 1227.48 -4.52043 -3.66262 0
M  V30 12265 H 1226.36 -6.66925 -4.1253 0
M  V30 12266 N 1223.87 1.39211 -0.738786 0
M  V30 12267 C 1225.28 1.54116 -0.414773 0
M  V30 12268 C 1225.48 1.70497 1.07392 0
M  V30 12269 O 1224.54 1.7076 1.86003 0
M  V30 12270 C 1225.85 2.7567 -1.2011 0
M  V30 12271 C 1227.4 2.89508 -1.1897 0
M  V30 12272 C 1227.87 4.14005 -1.95868 0
M  V30 12273 N 1229.37 4.21052 -1.93053 0
M  V30 12274 C 1230.1 5.16341 -2.49358 0
M  V30 12275 N 1229.6 6.17396 -3.14316 0
M  V30 12276 N 1231.39 5.08585 -2.3937 0
M  V30 12277 H 1223.54 1.26827 -1.70378 0
M  V30 12278 H 1225.8 0.614983 -0.721457 0
M  V30 12279 H 1225.51 2.69922 -2.25467 0
M  V30 12280 H 1225.38 3.68443 -0.808065 0
M  V30 12281 H 1227.77 2.94747 -0.144248 0
M  V30 12282 H 1227.85 1.97788 -1.62214 0
M  V30 12283 H 1227.5 4.09527 -3.00416 0
M  V30 12284 H 1227.43 5.04776 -1.50028 0
M  V30 12285 H 1229.92 3.48669 -1.45733 0
M  V30 12286 H 1230.23 6.86572 -3.54737 0
M  V30 12287 H 1228.57 6.17772 -3.18407 0
M  V30 12288 H 1231.77 4.28573 -1.88262 0
M  V30 12289 H 1231.94 5.8267 -2.83549 0
M  V30 12290 N 1225.34 0.486708 1.49896 0
M  V30 12291 C 1226.28 -0.335809 2.26727 0
M  V30 12292 C 1227.29 -0.94333 1.32684 0
M  V30 12293 O 1228.48 -0.82909 1.58077 0
M  V30 12294 C 1225.58 -1.48642 3.04563 0
M  V30 12295 C 1224.75 -0.988837 4.26076 0
M  V30 12296 C 1223.81 -2.01535 4.86076 0
M  V30 12297 O 1222.84 -1.58966 5.46552 0
M  V30 12298 N 1224.04 -3.34471 4.74457 0
M  V30 12299 H 1226.8 0.322919 2.97955 0
M  V30 12300 H 1224.36 0.318403 1.58738 0
M  V30 12301 H 1226.36 -2.17039 3.41579 0
M  V30 12302 H 1224.93 -2.04956 2.36033 0
M  V30 12303 H 1224.15 -0.130232 3.93985 0
M  V30 12304 H 1225.43 -0.634562 5.04827 0
M  V30 12305 H 1224.83 -3.71755 4.26398 0
M  V30 12306 H 1223.39 -3.98621 5.15698 0
M  V30 12307 N 1226.82 -1.56058 0.219941 0
M  V30 12308 C 1228.1 -1.90087 -0.46112 0
M  V30 12309 C 1228.48 -1.13705 -1.77861 0
M  V30 12310 O 1227.83 -0.245868 -2.27173 0
M  V30 12311 C 1228.04 -3.42786 -0.655644 0
M  V30 12312 C 1229.39 -4.13517 -0.963803 0
M  V30 12313 O 1230.41 -3.48376 -0.742488 0
M  V30 12314 O 1229.27 -5.28692 -1.38374 0
M  V30 12315 H 1226.36 -0.790311 -0.243595 0
M  V30 12316 H 1228.91 -1.67665 0.262005 0
M  V30 12317 H 1227.68 -3.90341 0.273738 0
M  V30 12318 H 1227.3 -3.70982 -1.43032 0
M  V30 12319 N 1228.3 0.053464 -1.57509 0
M  V30 12320 C 1229.55 0.747622 -1.87763 0
M  V30 12321 C 1229.87 1.77178 -0.814433 0
M  V30 12322 O 1229.14 1.95287 0.154862 0
M  V30 12323 H 1227.72 0.279109 -0.692898 0
M  V30 12324 H 1230.38 0.0252006 -1.94884 0
M  V30 12325 H 1229.48 1.25244 -2.85868 0
M  V30 12326 N 1229.78 1.54207 0.325255 0
M  V30 12327 C 1230.74 1.82757 1.38321 0
M  V30 12328 C 1231.74 0.699312 1.44797 0
M  V30 12329 O 1232.93 0.96762 1.44854 0
M  V30 12330 C 1230.06 1.98608 2.7707 0
M  V30 12331 H 1231.26 2.7728 1.14261 0
M  V30 12332 H 1228.81 1.45899 0.560647 0
M  V30 12333 H 1229.55 1.0629 3.06387 0
M  V30 12334 H 1229.33 2.80707 2.73763 0
M  V30 12335 H 1230.82 2.2215 3.53609 0
M  V30 12336 N 1231.26 -0.58723 1.46251 0
M  V30 12337 C 1232.22 -1.67863 1.5606 0
M  V30 12338 C 1233.22 -1.54715 0.438162 0
M  V30 12339 O 1234.41 -1.59415 0.702323 0
M  V30 12340 C 1231.54 -3.07262 1.47659 0
M  V30 12341 H 1232.74 -1.60525 2.53321 0
M  V30 12342 H 1230.29 -0.804691 1.33994 0
M  V30 12343 H 1231.02 -3.20159 0.5166 0
M  V30 12344 H 1230.81 -3.18213 2.29092 0
M  V30 12345 H 1232.3 -3.8672 1.57599 0
M  V30 12346 N 1232.74 -1.33881 -0.831482 0
M  V30 12347 C 1233.98 -1.25942 -1.58955 0
M  V30 12348 C 1234.31 0.172542 -1.93432 0
M  V30 12349 O 1233.59 1.11577 -1.59314 0
M  V30 12350 C 1233.87 -2.14193 -2.89471 0
M  V30 12351 C 1233.73 -3.65883 -2.61628 0
M  V30 12352 C 1235.04 -2.02071 -3.90967 0
M  V30 12353 H 1232.16 -0.458841 -0.576744 0
M  V30 12354 H 1234.81 -1.64052 -0.958482 0
M  V30 12355 H 1232.96 -1.81821 -3.43327 0
M  V30 12356 H 1234.63 -4.08581 -2.14148 0
M  V30 12357 H 1232.87 -3.87397 -1.95208 0
M  V30 12358 H 1233.54 -4.22988 -3.54662 0
M  V30 12359 H 1236.02 -2.30476 -3.46439 0
M  V30 12360 H 1234.89 -2.66059 -4.80108 0
M  V30 12361 H 1235.15 -0.995121 -4.30755 0
M  V30 12362 N 1234.21 1.05064 -1.1747 0
M  V30 12363 C 1235.44 1.81761 -0.988464 0
M  V30 12364 C 1235.86 1.83028 0.463272 0
M  V30 12365 O 1235.21 1.25846 1.32171 0
M  V30 12366 C 1235.26 3.2782 -1.5237 0
M  V30 12367 O 1234.99 3.26726 -2.91859 0
M  V30 12368 C 1236.49 4.212 -1.38223 0
M  V30 12369 H 1233.71 0.572712 -0.349631 0
M  V30 12370 H 1236.25 1.32477 -1.55789 0
M  V30 12371 H 1234.41 3.7437 -0.996272 0
M  V30 12372 H 1234.82 4.18151 -3.16623 0
M  V30 12373 H 1236.29 5.2166 -1.80485 0
M  V30 12374 H 1236.77 4.37962 -0.329491 0
M  V30 12375 H 1237.38 3.80506 -1.89988 0
M  V30 12376 N 1235.69 0.975146 1.23809 0
M  V30 12377 C 1236.65 0.516157 2.23312 0
M  V30 12378 C 1237.65 -0.39136 1.55965 0
M  V30 12379 O 1238.84 -0.185783 1.73206 0
M  V30 12380 C 1235.98 -0.251534 3.39971 0
M  V30 12381 H 1237.17 1.3959 2.65433 0
M  V30 12382 H 1234.72 0.760493 1.36551 0
M  V30 12383 H 1235.46 -1.14805 3.03299 0
M  V30 12384 H 1235.24 0.399825 3.90056 0
M  V30 12385 H 1236.73 -0.561438 4.13809 0
M  V30 12386 N 1237.17 -1.38817 0.746158 0
M  V30 12387 C 1238.4 -2.0457 0.309605 0
M  V30 12388 C 1238.81 -1.5627 -1.05948 0
M  V30 12389 O 1238.17 -0.73248 -1.67156 0
M  V30 12390 C 1238.22 -3.60126 0.314843 0
M  V30 12391 O 1237.94 -4.06652 1.6299 0
M  V30 12392 C 1239.44 -4.4309 -0.136497 0
M  V30 12393 H 1236.66 -0.657597 0.133441 0
M  V30 12394 H 1239.21 -1.77651 1.01293 0
M  V30 12395 H 1237.36 -3.85908 -0.339685 0
M  V30 12396 H 1237.78 -5.01042 1.55103 0
M  V30 12397 H 1239.25 -5.5194 -0.0816714 0
M  V30 12398 H 1239.73 -4.22959 -1.18332 0
M  V30 12399 H 1240.33 -4.22481 0.488879 0
M  V30 12400 N 1238.65 -0.49465 -1.49636 0
M  V30 12401 C 1240.06 -0.0452894 -1.86645 0
M  V30 12402 C 1240.41 1.36686 -1.40753 0
M  V30 12403 O 1239.53 2.01751 -0.78265 0
M  V30 12404 C 1240.13 -0.0754115 -3.38716 0
M  V30 12405 C 1238.69 0.318579 -3.75049 0
M  V30 12406 C 1237.84 -0.450712 -2.73613 0
M  V30 12407 H 1240.79 -0.707758 -1.42044 0
M  V30 12408 H 1240.81 0.721372 -3.73599 0
M  V30 12409 H 1240.32 -1.10331 -3.72087 0
M  V30 12410 H 1238.42 1.34995 -3.47285 0
M  V30 12411 H 1238.53 0.00354416 -4.791 0
M  V30 12412 H 1236.9 0.0986455 -2.54509 0
M  V30 12413 H 1237.68 -1.47857 -3.09828 0
M  V30 12414 N 1240.13 1.55939 -0.228214 0
M  V30 12415 C 1241.06 2.16566 0.719321 0
M  V30 12416 C 1242.04 1.11204 1.18627 0
M  V30 12417 O 1243.22 1.39495 1.2678 0
M  V30 12418 C 1240.35 2.75132 1.97536 0
M  V30 12419 C 1239.39 3.93381 1.64783 0
M  V30 12420 S 1240.23 5.29982 0.76678 0
M  V30 12421 C 1241.38 5.91989 2.03223 0
M  V30 12422 H 1241.62 2.96599 0.204035 0
M  V30 12423 H 1239.15 1.54395 -0.0128406 0
M  V30 12424 H 1241.11 3.09512 2.69652 0
M  V30 12425 H 1239.77 1.95079 2.46176 0
M  V30 12426 H 1238.96 4.32884 2.58122 0
M  V30 12427 H 1238.56 3.60181 1.00724 0
M  V30 12428 H 1240.85 6.08368 2.98152 0
M  V30 12429 H 1241.8 6.87858 1.68099 0
M  V30 12430 H 1242.21 5.20883 2.1758 0
M  V30 12431 N 1241.6 -0.0451101 1.57535 0
M  V30 12432 C 1242.83 -0.755068 1.93167 0
M  V30 12433 C 1243.25 -1.68949 0.826915 0
M  V30 12434 O 1242.61 -1.79978 -0.218534 0
M  V30 12435 C 1242.66 -1.50201 3.27829 0
M  V30 12436 O 1241.76 -2.61434 3.18945 0
M  V30 12437 H 1241.11 -0.204219 0.631815 0
M  V30 12438 H 1243.64 -0.00537504 2.04599 0
M  V30 12439 H 1243.65 -1.87547 3.6234 0
M  V30 12440 H 1242.32 -0.816591 4.07805 0
M  V30 12441 H 1240.9 -2.26749 2.96039 0
M  V30 12442 N 1243.08 -1.54377 -0.317073 0
M  V30 12443 C 1244.33 -1.74083 -1.05198 0
M  V30 12444 C 1244.68 -0.511755 -1.85469 0
M  V30 12445 O 1243.98 0.495851 -1.85073 0
M  V30 12446 C 1244.17 -2.96066 -2.00199 0
M  V30 12447 C 1244 -4.3072 -1.29269 0
M  V30 12448 C 1242.77 -4.94764 -1.0265 0
M  V30 12449 C 1244.97 -5.09441 -0.705297 0
M  V30 12450 N 1242.95 -6.13234 -0.285795 0
M  V30 12451 C 1244.32 -6.19925 -0.0965349 0
M  V30 12452 C 1246.38 -4.94165 -0.608753 0
M  V30 12453 C 1245.08 -7.16798 0.599411 0
M  V30 12454 C 1247.1 -5.91354 0.0735046 0
M  V30 12455 C 1246.47 -7.01195 0.671184 0
M  V30 12456 H 1242.57 -0.689774 -0.368423 0
M  V30 12457 H 1245.15 -1.91841 -0.332412 0
M  V30 12458 H 1243.32 -2.79762 -2.69421 0
M  V30 12459 H 1245.05 -3.0437 -2.66722 0
M  V30 12460 H 1241.81 -4.54818 -1.32052 0
M  V30 12461 H 1242.23 -6.76963 0.0706046 0
M  V30 12462 H 1246.87 -4.09386 -1.05655 0
M  V30 12463 H 1244.59 -8.01131 1.05902 0
M  V30 12464 H 1248.18 -5.81612 0.147931 0
M  V30 12465 H 1247.06 -7.75107 1.19073 0
M  V30 12466 N 1244.56 0.579466 -1.4656 0
M  V30 12467 C 1245.51 1.70937 -1.57744 0
M  V30 12468 C 1246.5 1.6343 -0.44577 0
M  V30 12469 O 1247.71 1.68884 -0.622762 0
M  V30 12470 H 1244.08 0.565218 -0.496017 0
M  V30 12471 H 1246.05 1.58636 -2.52739 0
M  V30 12472 C 1244.8 3.09321 -1.58794 0
M  V30 12473 H 1244.13 3.1577 -2.45213 0
M  V30 12474 H 1245.57 3.88132 -1.70674 0
M  V30 12475 C 1244.03 3.35404 -0.317165 0
M  V30 12476 O 1244.56 3.97325 0.591228 0
M  V30 12477 N 1242.76 2.89883 -0.204071 0
M  V30 12478 H 1242.31 2.39672 -0.944194 0
M  V30 12479 H 1242.27 3.07706 0.645303 0
M  V30 12480 N 1246.04 1.3432 0.824371 0
M  V30 12481 C 1247.26 1.2982 1.61745 0
M  V30 12482 C 1247.69 -0.125298 1.87682 0
M  V30 12483 O 1247.05 -1.08658 1.45131 0
M  V30 12484 C 1247.09 2.09327 2.93623 0
M  V30 12485 O 1246.2 1.4618 3.85623 0
M  V30 12486 H 1245.54 0.445929 0.491979 0
M  V30 12487 H 1248.07 1.77101 1.02452 0
M  V30 12488 H 1248.08 2.20629 3.43201 0
M  V30 12489 H 1246.75 3.12825 2.74069 0
M  V30 12490 H 1245.33 1.43611 3.44137 0
M  V30 12491 N 1247.52 -1.0444 1.18026 0
M  V30 12492 C 1248.74 -1.81772 0.998684 0
M  V30 12493 C 1249.17 -1.82682 -0.448225 0
M  V30 12494 O 1248.52 -1.24136 -1.32136 0
M  V30 12495 C 1248.57 -3.2542 1.55352 0
M  V30 12496 O 1247.68 -4.05103 0.772351 0
M  V30 12497 H 1247.02 -0.561731 0.354054 0
M  V30 12498 H 1249.55 -1.31557 1.56697 0
M  V30 12499 H 1249.56 -3.76206 1.57903 0
M  V30 12500 H 1248.23 -3.24073 2.60672 0
M  V30 12501 H 1246.81 -3.63798 0.818852 0
M  V30 12502 N 1248.99 -0.981699 -1.2329 0
M  V30 12503 C 1249.92 -0.542441 -2.27112 0
M  V30 12504 C 1250.91 0.425034 -1.64704 0
M  V30 12505 O 1252.09 0.318114 -1.91577 0
M  V30 12506 C 1249.22 0.154668 -3.46955 0
M  V30 12507 C 1248.17 -0.73022 -4.21725 0
M  V30 12508 C 1247.5 0.0991766 -5.34608 0
M  V30 12509 C 1248.8 -2.02166 -4.81587 0
M  V30 12510 H 1250.49 -1.41024 -2.64107 0
M  V30 12511 H 1248.04 -0.679544 -1.26957 0
M  V30 12512 H 1249.99 0.473281 -4.18734 0
M  V30 12513 H 1248.72 1.05693 -3.09025 0
M  V30 12514 H 1247.38 -1.03231 -3.51765 0
M  V30 12515 H 1247.02 1.00201 -4.92919 0
M  V30 12516 H 1246.72 -0.489788 -5.85555 0
M  V30 12517 H 1248.25 0.412141 -6.09207 0
M  V30 12518 H 1249.66 -1.76773 -5.45366 0
M  V30 12519 H 1248.06 -2.55851 -5.42826 0
M  V30 12520 H 1249.13 -2.70766 -4.02261 0
M  V30 12521 N 1250.47 1.3842 -0.753509 0
M  V30 12522 C 1251.44 2.28808 -0.134022 0
M  V30 12523 C 1252.44 1.47184 0.647583 0
M  V30 12524 O 1253.63 1.67631 0.473861 0
M  V30 12525 C 1250.76 3.30926 0.81858 0
M  V30 12526 H 1251.95 2.85097 -0.930586 0
M  V30 12527 H 1249.5 1.47378 -0.520514 0
M  V30 12528 H 1250.24 2.79728 1.64082 0
M  V30 12529 H 1250.02 3.91234 0.260526 0
M  V30 12530 H 1251.51 3.98515 1.24802 0
M  V30 12531 N 1251.95 0.502579 1.49372 0
M  V30 12532 C 1253.36 0.055187 1.86618 0
M  V30 12533 C 1253.71 -1.35938 1.41476 0
M  V30 12534 O 1252.84 -2.01333 0.793338 0
M  V30 12535 C 1253.43 0.0933734 3.38671 0
M  V30 12536 C 1251.99 -0.298685 3.75213 0
M  V30 12537 C 1251.14 0.465216 2.7337 0
M  V30 12538 H 1254.09 0.715281 1.41667 0
M  V30 12539 H 1254.11 -0.701549 3.73977 0
M  V30 12540 H 1253.62 1.12303 3.71497 0
M  V30 12541 H 1251.72 -1.33151 3.47996 0
M  V30 12542 H 1251.84 0.0218637 4.79095 0
M  V30 12543 H 1250.2 -0.0851469 2.54558 0
M  V30 12544 H 1250.98 1.49498 3.09039 0
M  V30 12545 N 1253.43 -1.55816 0.23648 0
M  V30 12546 C 1254.68 -1.98294 -0.390373 0
M  V30 12547 C 1255 -1.12573 -1.59224 0
M  V30 12548 O 1254.27 -0.206128 -1.94813 0
M  V30 12549 H 1252.85 -0.732349 -0.14722 0
M  V30 12550 H 1255.51 -1.92037 0.332848 0
M  V30 12551 H 1254.61 -3.03996 -0.706595 0
M  V30 12552 N 1254.91 0.036755 -1.57557 0
M  V30 12553 C 1255.87 1.02435 -2.05036 0
M  V30 12554 C 1256.87 1.29506 -0.953146 0
M  V30 12555 O 1258.06 1.24638 -1.217 0
M  V30 12556 C 1255.19 2.3592 -2.46079 0
M  V30 12557 H 1256.38 0.614384 -2.93539 0
M  V30 12558 H 1253.94 0.283396 -1.53709 0
M  V30 12559 H 1254.67 2.8168 -1.60708 0
M  V30 12560 H 1254.46 2.17603 -3.26177 0
M  V30 12561 H 1255.95 3.06839 -2.83266 0
M  V30 12562 N 1256.39 1.54543 0.308881 0
M  V30 12563 C 1257.61 1.77431 1.06422 0
M  V30 12564 C 1258.03 0.529972 1.81209 0
M  V30 12565 O 1257.39 -0.499912 1.7552 0
M  V30 12566 C 1257.44 2.9769 2.05092 0
M  V30 12567 O 1257.16 4.17315 1.33341 0
M  V30 12568 C 1258.66 3.32905 2.92727 0
M  V30 12569 H 1255.88 0.591961 0.315948 0
M  V30 12570 H 1258.42 2.01473 0.350547 0
M  V30 12571 H 1256.58 2.7588 2.71973 0
M  V30 12572 H 1256.99 4.85061 1.99539 0
M  V30 12573 H 1258.47 4.20314 3.57827 0
M  V30 12574 H 1258.94 2.50713 3.6061 0
M  V30 12575 H 1259.55 3.56847 2.31388 0
M  V30 12576 N 1257.86 -0.571685 1.46866 0
M  V30 12577 C 1259.11 -1.33145 1.52972 0
M  V30 12578 C 1259.44 -1.93314 0.185344 0
M  V30 12579 O 1258.72 -1.77083 -0.80447 0
M  V30 12580 C 1259 -2.4525 2.63675 0
M  V30 12581 C 1258.85 -1.90044 4.0768 0
M  V30 12582 C 1260.17 -3.47247 2.70384 0
M  V30 12583 H 1257.29 -0.482751 0.556885 0
M  V30 12584 H 1259.93 -0.641163 1.78855 0
M  V30 12585 H 1258.08 -3.04132 2.41735 0
M  V30 12586 H 1259.76 -1.35535 4.4094 0
M  V30 12587 H 1258 -1.20805 4.1664 0
M  V30 12588 H 1258.67 -2.71019 4.80887 0
M  V30 12589 H 1261.15 -2.98263 2.90135 0
M  V30 12590 H 1260.02 -4.23132 3.49643 0
M  V30 12591 H 1260.28 -4.05179 1.76868 0
M  V30 12592 N 1259.34 -1.34755 -0.817236 0
M  V30 12593 C 1260.25 -1.28888 -1.96023 0
M  V30 12594 C 1261.27 -0.195582 -1.72897 0
M  V30 12595 O 1262.44 -0.423071 -1.96906 0
M  V30 12596 C 1259.51 -1.04985 -3.30423 0
M  V30 12597 C 1258.57 -2.23526 -3.66517 0
M  V30 12598 C 1257.8 -2.00753 -4.94504 0
M  V30 12599 O 1258.03 -0.968622 -5.62116 0
M  V30 12600 O 1256.96 -2.87848 -5.28608 0
M  V30 12601 H 1260.79 -2.25059 -2.03917 0
M  V30 12602 H 1258.37 -1.15019 -0.953467 0
M  V30 12603 H 1260.25 -0.934589 -4.10906 0
M  V30 12604 H 1258.93 -0.118582 -3.23483 0
M  V30 12605 H 1257.83 -2.40613 -2.86455 0
M  V30 12606 H 1259.17 -3.15062 -3.78149 0
M  V30 12607 N 1260.82 1.03812 -1.18578 0
M  V30 12608 C 1262.07 1.77319 -0.984173 0
M  V30 12609 C 1262.4 1.88052 0.484789 0
M  V30 12610 O 1261.67 1.3905 1.35998 0
M  V30 12611 C 1261.96 3.20448 -1.6427 0
M  V30 12612 C 1261.81 3.17643 -3.1847 0
M  V30 12613 C 1263.13 4.18623 -1.35805 0
M  V30 12614 H 1260.25 0.643681 -0.358949 0
M  V30 12615 H 1262.89 1.21249 -1.46283 0
M  V30 12616 H 1261.04 3.68324 -1.23572 0
M  V30 12617 H 1262.71 2.77738 -3.6832 0
M  V30 12618 H 1260.95 2.55606 -3.50497 0
M  V30 12619 H 1261.63 4.18724 -3.59686 0
M  V30 12620 H 1264.1 3.79306 -1.71073 0
M  V30 12621 H 1262.98 5.16982 -1.84446 0
M  V30 12622 H 1263.24 4.41203 -0.281418 0
M  V30 12623 N 1262.3 0.988223 1.22768 0
M  V30 12624 C 1263.55 0.660154 1.91014 0
M  V30 12625 C 1263.87 -0.809788 1.77391 0
M  V30 12626 O 1263.14 -1.57998 1.15817 0
M  V30 12627 H 1261.72 0.24118 0.706995 0
M  V30 12628 H 1264.38 1.25372 1.49224 0
M  V30 12629 H 1263.47 0.918603 2.98275 0
M  V30 12630 N 1263.78 -1.38018 0.760839 0
M  V30 12631 C 1265.02 -1.99952 0.320241 0
M  V30 12632 C 1265.35 -1.60397 -1.10014 0
M  V30 12633 O 1264.61 -0.836407 -1.76926 0
M  V30 12634 C 1264.9 -3.55168 0.398778 0
M  V30 12635 C 1264.57 -4.14457 1.77585 0
M  V30 12636 C 1263.23 -4.30363 2.15269 0
M  V30 12637 C 1265.58 -4.47089 2.67883 0
M  V30 12638 C 1262.91 -4.762 3.4271 0
M  V30 12639 C 1265.26 -4.94345 3.94722 0
M  V30 12640 C 1263.93 -5.08458 4.32466 0
M  V30 12641 H 1263.2 -0.731675 0.117185 0
M  V30 12642 H 1265.85 -1.64955 0.972736 0
M  V30 12643 H 1264.15 -3.90346 -0.337273 0
M  V30 12644 H 1265.85 -4.00981 0.0393393 0
M  V30 12645 H 1262.44 -4.02496 1.47292 0
M  V30 12646 H 1266.62 -4.34395 2.40031 0
M  V30 12647 H 1261.88 -4.85312 3.71863 0
M  V30 12648 H 1266.05 -5.18563 4.64828 0
M  V30 12649 H 1263.68 -5.43735 5.31278 0
M  V30 12650 N 1265.25 -0.510493 -1.49103 0
M  V30 12651 C 1266.2 0.276449 -2.30951 0
M  V30 12652 C 1267.2 0.953893 -1.3999 0
M  V30 12653 O 1268.4 0.880499 -1.56994 0
M  V30 12654 H 1264.78 0.108013 -0.744202 0
M  V30 12655 H 1266.75 -0.433725 -2.95231 0
M  V30 12656 C 1265.5 1.32234 -3.21573 0
M  V30 12657 H 1264.82 0.810468 -3.91499 0
M  V30 12658 H 1266.26 1.84476 -3.81765 0
M  V30 12659 C 1264.72 2.3456 -2.41833 0
M  V30 12660 O 1265.25 3.40627 -2.12922 0
M  V30 12661 N 1263.45 2.07272 -2.03682 0
M  V30 12662 H 1263 1.21036 -2.27394 0
M  V30 12663 H 1262.96 2.75963 -1.50638 0
M  V30 12664 N 1266.73 1.55688 -0.24474 0
M  V30 12665 C 1267.98 1.98498 0.379852 0
M  V30 12666 C 1268.3 1.13416 1.58625 0
M  V30 12667 O 1267.57 0.216456 1.947 0
M  V30 12668 H 1266.15 0.73312 0.143334 0
M  V30 12669 H 1268.81 1.91858 -0.343027 0
M  V30 12670 H 1267.91 3.04367 0.690463 0
M  V30 12671 N 1268.21 -0.0283989 1.57574 0
M  V30 12672 C 1269.43 -0.734537 1.93957 0
M  V30 12673 C 1269.86 -1.68062 0.844787 0
M  V30 12674 O 1269.22 -1.802 -0.199432 0
M  V30 12675 C 1269.27 -1.46716 3.29404 0
M  V30 12676 O 1268.37 -2.58036 3.217 0
M  V30 12677 H 1267.71 -0.197507 0.633946 0
M  V30 12678 H 1270.24 0.0163258 2.04593 0
M  V30 12679 H 1270.25 -1.83693 3.64309 0
M  V30 12680 H 1268.93 -0.773292 4.08648 0
M  V30 12681 H 1267.5 -2.23597 2.98427 0
M  V30 12682 N 1269.69 -1.54705 -0.300681 0
M  V30 12683 C 1270.93 -1.75189 -1.03345 0
M  V30 12684 C 1271.29 -0.531398 -1.84916 0
M  V30 12685 O 1270.58 0.476194 -1.85588 0
M  V30 12686 C 1270.78 -2.98173 -1.97047 0
M  V30 12687 C 1270.6 -4.32067 -1.24694 0
M  V30 12688 C 1269.37 -4.95825 -0.973967 0
M  V30 12689 C 1271.57 -5.1016 -0.651224 0
M  V30 12690 N 1269.55 -6.13503 -0.220737 0
M  V30 12691 C 1270.93 -6.19992 -0.0307781 0
M  V30 12692 C 1272.98 -4.94782 -0.556306 0
M  V30 12693 C 1271.68 -7.16122 0.675403 0
M  V30 12694 C 1273.71 -5.91243 0.136221 0
M  V30 12695 C 1273.07 -7.00444 0.745517 0
M  V30 12696 H 1269.17 -0.693643 -0.361087 0
M  V30 12697 H 1271.75 -1.92183 -0.312046 0
M  V30 12698 H 1269.93 -2.82604 -2.66439 0
M  V30 12699 H 1271.66 -3.07182 -2.63479 0
M  V30 12700 H 1268.41 -4.56193 -1.2722 0
M  V30 12701 H 1268.84 -6.7685 0.142402 0
M  V30 12702 H 1273.48 -4.10483 -1.01307 0
M  V30 12703 H 1271.2 -7.99962 1.14394 0
M  V30 12704 H 1274.78 -5.81422 0.209611 0
M  V30 12705 H 1273.66 -7.73801 1.27287 0
M  V30 12706 N 1271.17 0.563888 -1.47167 0
M  V30 12707 C 1272.39 1.35176 -1.57297 0
M  V30 12708 C 1272.82 1.86794 -0.221235 0
M  V30 12709 O 1272.17 1.62606 0.801809 0
M  V30 12710 C 1272.22 2.50225 -2.59654 0
M  V30 12711 O 1271.33 3.5225 -2.14461 0
M  V30 12712 H 1270.67 0.401795 -0.528637 0
M  V30 12713 H 1273.2 0.682137 -1.92894 0
M  V30 12714 H 1273.21 2.96886 -2.79862 0
M  V30 12715 H 1271.88 2.1201 -3.57805 0
M  V30 12716 H 1270.46 3.1194 -2.04323 0
M  V30 12717 N 1272.64 1.35187 0.810078 0
M  V30 12718 C 1273.89 1.28011 1.56389 0
M  V30 12719 C 1274.21 -0.14622 1.94451 0
M  V30 12720 O 1273.48 -1.08185 1.63318 0
M  V30 12721 H 1272.06 0.470837 0.579932 0
M  V30 12722 H 1274.73 1.69249 0.966476 0
M  V30 12723 H 1273.82 1.89362 2.4809 0
M  V30 12724 N 1274.12 -1.03182 1.19127 0
M  V30 12725 C 1275.35 -1.80703 1.01791 0
M  V30 12726 C 1275.77 -1.83147 -0.428824 0
M  V30 12727 O 1275.13 -1.2553 -1.30812 0
M  V30 12728 C 1275.18 -3.23754 1.58794 0
M  V30 12729 O 1274.28 -4.04261 0.815274 0
M  V30 12730 H 1273.62 -0.557944 0.359992 0
M  V30 12731 H 1276.15 -1.29887 1.58084 0
M  V30 12732 H 1276.16 -3.7451 1.61884 0
M  V30 12733 H 1274.84 -3.2129 2.64094 0
M  V30 12734 H 1273.42 -3.62909 0.857392 0
M  V30 12735 N 1275.6 -0.99472 -1.22242 0
M  V30 12736 C 1276.55 -0.53946 -2.26258 0
M  V30 12737 C 1277.54 0.410796 -1.64344 0
M  V30 12738 O 1278.75 0.283116 -1.7776 0
M  V30 12739 H 1275.12 -0.156069 -0.735627 0
M  V30 12740 H 1277.09 -1.42814 -2.62005 0
M  V30 12741 C 1275.84 0.12842 -3.47463 0
M  V30 12742 H 1275.17 -0.593727 -3.95367 0
M  V30 12743 H 1276.61 0.410393 -4.22009 0
M  V30 12744 C 1275.07 1.36433 -3.08038 0
M  V30 12745 O 1275.6 2.45953 -3.176 0
M  V30 12746 N 1273.8 1.24026 -2.62804 0
M  V30 12747 H 1273.35 0.349111 -2.55223 0
M  V30 12748 H 1273.31 2.06824 -2.36794 0
M  V30 12749 N 1277.08 1.37613 -0.768148 0
M  V30 12750 C 1278.31 2.04052 -0.342111 0
M  V30 12751 C 1278.72 1.57936 1.03449 0
M  V30 12752 O 1278.08 0.758981 1.65969 0
M  V30 12753 C 1278.13 3.5958 -0.372096 0
M  V30 12754 O 1277.85 4.04008 -1.69439 0
M  V30 12755 C 1279.35 4.43251 0.0659884 0
M  V30 12756 H 1276.57 0.655391 -0.143886 0
M  V30 12757 H 1279.12 1.76017 -1.04107 0
M  V30 12758 H 1277.27 3.86399 0.278248 0
M  V30 12759 H 1277.68 4.98511 -1.63054 0
M  V30 12760 H 1279.16 5.52 -0.00614775 0
M  V30 12761 H 1279.64 4.24788 1.11588 0
M  V30 12762 H 1280.24 4.2165 -0.55603 0
M  V30 12763 N 1278.56 0.518393 1.4883 0
M  V30 12764 C 1279.97 0.0749773 1.86549 0
M  V30 12765 C 1280.32 -1.34429 1.4291 0
M  V30 12766 O 1279.44 -2.00481 0.814648 0
M  V30 12767 C 1280.04 0.129289 3.38553 0
M  V30 12768 C 1278.6 -0.258871 3.75509 0
M  V30 12769 C 1277.74 0.494185 2.72861 0
M  V30 12770 H 1280.7 0.730266 1.409 0
M  V30 12771 H 1280.72 -0.661844 3.747 0
M  V30 12772 H 1280.23 1.16237 3.70285 0
M  V30 12773 H 1278.33 -1.29453 3.49389 0
M  V30 12774 H 1278.44 0.0726769 4.79045 0
M  V30 12775 H 1276.81 -0.0581428 2.54634 0
M  V30 12776 H 1277.59 1.52767 3.07436 0
M  V30 12777 N 1280.03 -1.55556 0.252993 0
M  V30 12778 C 1281.45 -1.85032 -0.249011 0
M  V30 12779 C 1281.8 -1.17488 -1.57134 0
M  V30 12780 O 1280.92 -0.455387 -2.11554 0
M  V30 12781 C 1281.52 -3.35682 -0.458589 0
M  V30 12782 C 1280.08 -3.65362 -0.90485 0
M  V30 12783 C 1279.22 -2.77296 0.0144927 0
M  V30 12784 H 1282.17 -1.51412 0.475394 0
M  V30 12785 H 1282.19 -3.57591 -1.30034 0
M  V30 12786 H 1281.71 -3.84814 0.503981 0
M  V30 12787 H 1279.81 -3.21713 -1.87967 0
M  V30 12788 H 1279.92 -4.73074 -0.757492 0
M  V30 12789 H 1278.28 -2.49785 -0.497954 0
M  V30 12790 H 1279.07 -3.29236 0.972546 0
M  V30 12791 N 1281.51 0.0200419 -1.57587 0
M  V30 12792 C 1282.74 0.720556 -1.93947 0
M  V30 12793 C 1283.16 1.68407 -0.853499 0
M  V30 12794 O 1282.51 1.81713 0.169337 0
M  V30 12795 C 1282.56 1.46982 -3.3027 0
M  V30 12796 O 1282.28 0.544971 -4.34697 0
M  V30 12797 C 1283.79 2.26667 -3.80968 0
M  V30 12798 H 1281.01 0.201956 -0.639887 0
M  V30 12799 H 1283.55 -0.0251175 -2.04485 0
M  V30 12800 H 1281.7 2.16729 -3.21103 0
M  V30 12801 H 1282.12 1.07139 -5.13441 0
M  V30 12802 H 1283.59 2.74621 -4.78839 0
M  V30 12803 H 1284.07 3.0848 -3.12629 0
M  V30 12804 H 1284.68 1.61976 -3.93248 0
M  V30 12805 N 1282.99 1.54862 0.292472 0
M  V30 12806 C 1284.27 1.65237 1.04671 0
M  V30 12807 C 1284.65 0.506168 2.04942 0
M  V30 12808 O 1284 -0.496123 2.23049 0
M  V30 12809 C 1284.21 3.03618 1.72095 0
M  V30 12810 C 1285.55 3.6072 2.23979 0
M  V30 12811 O 1286.58 3.06126 1.82114 0
M  V30 12812 O 1285.44 4.56328 3.0071 0
M  V30 12813 H 1282.53 0.670347 0.484319 0
M  V30 12814 H 1285.08 1.67206 0.28988 0
M  V30 12815 H 1283.85 3.78482 0.993324 0
M  V30 12816 H 1283.47 3.05464 2.54514 0
M  V30 12817 N 1284.47 -0.556076 1.47464 0
M  V30 12818 C 1285.72 -1.3132 1.54147 0
M  V30 12819 C 1286.04 -1.93425 0.204221 0
M  V30 12820 O 1285.3 -1.78467 -0.803002 0
M  V30 12821 C 1285.6 -2.44298 2.6087 0
M  V30 12822 C 1285.26 -2.00016 4.04109 0
M  V30 12823 C 1283.93 -1.87656 4.43101 0
M  V30 12824 C 1286.28 -1.66228 4.93981 0
M  V30 12825 C 1283.61 -1.39805 5.698 0
M  V30 12826 C 1285.96 -1.19848 6.21144 0
M  V30 12827 C 1284.62 -1.06084 6.59016 0
M  V30 12828 H 1283.89 -0.480534 0.564064 0
M  V30 12829 H 1286.54 -0.623449 1.81067 0
M  V30 12830 H 1284.84 -3.18834 2.27711 0
M  V30 12831 H 1286.54 -3.02479 2.63263 0
M  V30 12832 H 1283.13 -2.1058 3.73302 0
M  V30 12833 H 1287.31 -1.7465 4.64555 0
M  V30 12834 H 1282.57 -1.27814 5.97891 0
M  V30 12835 H 1286.74 -0.927657 6.90194 0
M  V30 12836 H 1284.37 -0.687834 7.57082 0
M  V30 12837 N 1285.95 -1.35615 -0.802897 0
M  V30 12838 C 1287.18 -1.32217 -1.59142 0
M  V30 12839 C 1287.59 0.0995496 -1.88537 0
M  V30 12840 O 1286.95 1.05258 -1.49087 0
M  V30 12841 C 1287 -2.13048 -2.92049 0
M  V30 12842 O 1286.72 -3.49677 -2.63927 0
M  V30 12843 C 1288.22 -2.17278 -3.864 0
M  V30 12844 H 1285.44 -0.454054 -0.49404 0
M  V30 12845 H 1287.98 -1.78521 -0.997516 0
M  V30 12846 H 1286.14 -1.70334 -3.47944 0
M  V30 12847 H 1286.55 -3.917 -3.48814 0
M  V30 12848 H 1288.03 -2.7822 -4.76758 0
M  V30 12849 H 1288.5 -1.17253 -4.23259 0
M  V30 12850 H 1289.11 -2.6017 -3.3644 0
M  V30 12851 N 1287.43 1.02549 -1.19673 0
M  V30 12852 C 1288.36 2.12794 -0.961289 0
M  V30 12853 C 1289.34 1.69766 0.106575 0
M  V30 12854 O 1290.52 1.94138 -0.0491358 0
M  V30 12855 C 1287.65 3.4364 -0.502868 0
M  V30 12856 C 1286.61 4.00367 -1.51296 0
M  V30 12857 C 1285.93 5.26874 -0.911491 0
M  V30 12858 C 1287.23 4.34782 -2.89416 0
M  V30 12859 H 1288.93 2.32748 -1.88331 0
M  V30 12860 H 1286.47 1.11852 -0.906922 0
M  V30 12861 H 1288.42 4.20141 -0.325436 0
M  V30 12862 H 1287.15 3.23418 0.454764 0
M  V30 12863 H 1285.81 3.25964 -1.67759 0
M  V30 12864 H 1285.46 5.02971 0.0537982 0
M  V30 12865 H 1285.16 5.65791 -1.58602 0
M  V30 12866 H 1286.68 6.06039 -0.74493 0
M  V30 12867 H 1288.09 5.02207 -2.76516 0
M  V30 12868 H 1286.49 4.8479 -3.53693 0
M  V30 12869 H 1287.56 3.43935 -3.41814 0
M  V30 12870 N 1288.9 1.00119 1.21713 0
M  V30 12871 C 1289.85 0.551452 2.25969 0
M  V30 12872 C 1290.85 -0.402075 1.64559 0
M  V30 12873 O 1292.05 -0.273685 1.77907 0
M  V30 12874 H 1288.43 0.159968 0.734789 0
M  V30 12875 H 1290.4 1.44201 2.61244 0
M  V30 12876 C 1289.15 -0.109992 3.47526 0
M  V30 12877 H 1288.47 0.614686 3.95046 0
M  V30 12878 H 1289.91 -0.388007 4.22221 0
M  V30 12879 C 1288.37 -1.34798 3.08757 0
M  V30 12880 O 1288.9 -2.44266 3.189 0
M  V30 12881 N 1287.1 -1.2263 2.63458 0
M  V30 12882 H 1286.65 -0.335571 2.55405 0
M  V30 12883 H 1286.61 -2.05565 2.37887 0
M  V30 12884 N 1290.38 -1.37203 0.775435 0
M  V30 12885 C 1291.63 -1.99207 0.340756 0
M  V30 12886 C 1291.95 -1.61861 -1.08747 0
M  V30 12887 O 1291.22 -0.88583 -1.74728 0
M  V30 12888 H 1289.8 -0.736803 0.123004 0
M  V30 12889 H 1292.46 -1.67625 0.994379 0
M  V30 12890 H 1291.56 -3.09243 0.421346 0
M  V30 12891 N 1291.86 -0.526279 -1.48553 0
M  V30 12892 C 1292.77 0.24244 -2.33344 0
M  V30 12893 C 1293.79 0.942658 -1.46253 0
M  V30 12894 O 1294.96 0.91844 -1.79239 0
M  V30 12895 C 1292.03 1.27801 -3.22285 0
M  V30 12896 C 1291.09 0.588543 -4.25247 0
M  V30 12897 C 1290.32 1.57478 -5.09938 0
M  V30 12898 O 1290.54 2.80707 -4.96548 0
M  V30 12899 O 1289.48 1.11621 -5.9146 0
M  V30 12900 H 1293.3 -0.452262 -3.00314 0
M  V30 12901 H 1290.89 -0.287249 -1.46613 0
M  V30 12902 H 1292.77 1.87656 -3.7731 0
M  V30 12903 H 1291.45 1.95519 -2.57981 0
M  V30 12904 H 1290.35 -0.0504022 -3.74066 0
M  V30 12905 H 1291.69 -0.046627 -4.92178 0
M  V30 12906 N 1293.34 1.5542 -0.261239 0
M  V30 12907 C 1294.75 1.85161 0.239195 0
M  V30 12908 C 1295.1 1.18319 1.56509 0
M  V30 12909 O 1294.22 0.4666 2.1131 0
M  V30 12910 C 1294.82 3.3592 0.440781 0
M  V30 12911 C 1293.38 3.65837 0.885461 0
M  V30 12912 C 1292.53 2.77285 -0.0291982 0
M  V30 12913 H 1295.48 1.51158 -0.483417 0
M  V30 12914 H 1295.5 3.58276 1.28136 0
M  V30 12915 H 1295.01 3.84541 -0.524382 0
M  V30 12916 H 1293.11 3.22705 1.86259 0
M  V30 12917 H 1293.22 4.73469 0.732394 0
M  V30 12918 H 1291.59 2.50045 0.484701 0
M  V30 12919 H 1292.37 3.28716 -0.989992 0
M  V30 12920 N 1294.82 -0.0116844 1.57596 0
M  V30 12921 C 1296.06 -0.703597 1.91908 0
M  V30 12922 C 1296.42 -1.71581 0.861628 0
M  V30 12923 O 1297.62 -2.45724 1.08963 0
M  V30 12924 C 1295.89 -1.34031 3.31316 0
M  V30 12925 S 1297.45 -2.05896 3.87495 0
M  V30 12926 H 1294.27 -0.23269 0.671846 0
M  V30 12927 H 1296.87 0.0421973 1.95454 0
M  V30 12928 H 1295.57 -0.590617 4.06128 0
M  V30 12929 H 1295.11 -2.12428 3.31116 0
M  V30 12930 H 1297.12 -3.33266 3.67626 0
M  V30 12931 N 1296.29 -1.55015 -0.284256 0
M  V30 12932 C 1297.26 -1.8636 -1.33426 0
M  V30 12933 C 1298.26 -0.737457 -1.42892 0
M  V30 12934 O 1299.45 -1.00569 -1.42238 0
M  V30 12935 C 1296.58 -2.05884 -2.71707 0
M  V30 12936 H 1297.77 -2.80212 -1.06869 0
M  V30 12937 H 1295.32 -1.47334 -0.521767 0
M  V30 12938 H 1296.06 -1.14376 -3.03461 0
M  V30 12939 H 1295.84 -2.87867 -2.66224 0
M  V30 12940 H 1297.33 -2.31447 -3.47595 0
M  V30 12941 N 1297.77 0.548248 -1.47757 0
M  V30 12942 C 1298.7 1.66409 -1.63799 0
M  V30 12943 C 1299.68 1.62973 -0.487211 0
M  V30 12944 O 1300.87 1.80455 -0.717612 0
M  V30 12945 C 1298 3.05035 -1.66046 0
M  V30 12946 C 1296.95 3.23322 -2.80441 0
M  V30 12947 C 1296.28 4.62824 -2.67765 0
M  V30 12948 C 1297.58 3.07837 -4.2194 0
M  V30 12949 H 1299.27 1.53239 -2.57212 0
M  V30 12950 H 1296.82 0.735783 -1.23783 0
M  V30 12951 H 1298.77 3.82951 -1.75859 0
M  V30 12952 H 1297.49 3.19185 -0.69199 0
M  V30 12953 H 1296.15 2.47816 -2.70153 0
M  V30 12954 H 1295.8 4.73786 -1.68927 0
M  V30 12955 H 1295.5 4.76007 -3.44515 0
M  V30 12956 H 1297.03 5.42864 -2.7952 0
M  V30 12957 H 1298.44 3.75563 -4.33157 0
M  V30 12958 H 1296.84 3.32525 -4.99547 0
M  V30 12959 H 1297.91 2.04474 -4.3968 0
M  V30 12960 N 1299.25 1.36039 0.795694 0
M  V30 12961 C 1300.21 1.29709 1.88966 0
M  V30 12962 C 1301.21 0.206142 1.59473 0
M  V30 12963 O 1302.4 0.460534 1.68002 0
M  V30 12964 C 1299.53 1.00922 3.25619 0
M  V30 12965 H 1300.73 2.26993 1.95995 0
M  V30 12966 H 1298.28 1.2072 0.992791 0
M  V30 12967 H 1299.02 0.0407027 3.24274 0
M  V30 12968 H 1298.8 1.79863 3.48413 0
M  V30 12969 H 1300.29 0.990826 4.05675 0
M  V30 12970 O 1300.77 -0.935015 1.3168 0
M  V30 12971 H 1301.46 -1.56589 1.14015 0
M  V30 END ATOM
M  V30 BEGIN BOND
M  V30 END BOND
M  V30 END CTAB
M  END
$$$$
