drugbank_target|P24530 Endothelin B receptor (DB00559; DB06138; DB06268; DB06403; DB06460; DB06558; DB08932)
 OpenBabel12092119233D

  0  0  0     0  0            999 V3000
M  V30 BEGIN CTAB
M  V30 COUNTS 7098 7185 0 0 0
M  V30 BEGIN ATOM
M  V30 1 H -0.908 1.98254 -0.117106 0
M  V30 2 N 0 1.576 0 0
M  V30 3 C 0.933 2.03868 1.02534 0
M  V30 4 C 1.911 0.928543 1.3348 0
M  V30 5 O 3.095 1.19667 1.45644 0
M  V30 6 C 0.222 2.43627 2.35294 0
M  V30 7 C -0.732 3.65373 2.2001 0
M  V30 8 S 0.101 5.13292 1.52614 0
M  V30 9 C 1.257 5.56322 2.86805 0
M  V30 10 H 1.49 2.90518 0.631377 0
M  V30 11 H -0.977 1.52953 0.210867 0
M  V30 12 H 0.981 2.67203 3.11629 0
M  V30 13 H -0.358 1.57376 2.7183 0
M  V30 14 H -1.165 3.90944 3.18086 0
M  V30 15 H -1.563 3.418 1.51819 0
M  V30 16 H 0.729 5.58782 3.83104 0
M  V30 17 H 1.672 6.56266 2.65933 0
M  V30 18 H 2.08 4.83886 2.90714 0
M  V30 19 N 1.4781 -0.272755 1.55222 0
M  V30 20 C 2.4101 -1.35946 1.8453 0
M  V30 21 C 3.4231 -1.45525 0.729818 0
M  V30 22 O 4.6121 -1.47337 1.00767 0
M  V30 23 C 1.7121 -2.74069 1.99347 0
M  V30 24 C 0.8851 -2.87079 3.30007 0
M  V30 25 C -0.0559 -4.05879 3.34886 0
M  V30 26 O -1.0299 -3.96626 4.08261 0
M  V30 27 N 0.1721 -5.17857 2.62307 0
M  V30 28 H 2.9371 -1.11149 2.78327 0
M  V30 29 H 0.4981 -0.462869 1.55142 0
M  V30 30 H 2.4901 -3.51838 1.99981 0
M  V30 31 H 1.0601 -2.91688 1.12415 0
M  V30 32 H 0.2801 -1.96193 3.41909 0
M  V30 33 H 1.5681 -2.92701 4.16177 0
M  V30 34 H 0.9661 -5.28261 2.02377 0
M  V30 35 H -0.4769 -5.93855 2.68663 0
M  V30 36 N 2.9562 -1.48159 -0.537278 0
M  V30 37 C 4.3672 -1.49429 -1.11928 0
M  V30 38 C 4.7182 -0.26 -1.9447 0
M  V30 39 O 3.8432 0.633489 -2.0692 0
M  V30 40 C 4.4382 -2.70758 -2.03656 0
M  V30 41 C 2.9972 -2.74923 -2.57088 0
M  V30 42 C 2.1442 -2.42835 -1.3389 0
M  V30 43 H 5.0952 -1.55381 -0.322886 0
M  V30 44 H 5.1162 -2.48861 -2.87834 0
M  V30 45 H 4.6282 -3.60575 -1.43553 0
M  V30 46 H 2.7292 -1.89296 -3.20933 0
M  V30 47 H 2.8422 -3.76157 -2.9672 0
M  V30 48 H 1.2062 -1.93836 -1.65226 0
M  V30 49 H 1.9892 -3.34884 -0.755504 0
M  V30 50 N 4.4343 0.785586 -1.36625 0
M  V30 51 C 5.8453 1.36101 -1.27803 0
M  V30 52 C 6.1963 1.96035 0.0804875 0
M  V30 53 O 5.3213 1.92834 0.982042 0
M  V30 54 C 5.9163 2.47442 -2.31426 0
M  V30 55 C 4.4753 3.00789 -2.26281 0
M  V30 56 C 3.6223 1.73896 -2.15999 0
M  V30 57 H 6.5733 0.586928 -1.47448 0
M  V30 58 H 6.5943 3.2656 -1.95291 0
M  V30 59 H 6.1063 2.03791 -3.30289 0
M  V30 60 H 4.2073 3.48851 -1.30896 0
M  V30 61 H 4.3203 3.57343 -3.19128 0
M  V30 62 H 2.6843 1.9628 -1.62316 0
M  V30 63 H 3.4673 1.32368 -3.16755 0
M  V30 64 N 5.9124 1.20967 1.01018 0
M  V30 65 C 7.3234 1.02319 1.56165 0
M  V30 66 C 7.6744 -0.418546 1.91684 0
M  V30 67 O 6.7994 -1.30096 1.72928 0
M  V30 68 C 7.3944 1.85109 2.8376 0
M  V30 69 C 5.9534 1.70809 3.35412 0
M  V30 70 C 5.1004 1.82643 2.08655 0
M  V30 71 H 8.0514 1.35065 0.833255 0
M  V30 72 H 8.0724 1.35827 3.55431 0
M  V30 73 H 7.5844 2.90035 2.57878 0
M  V30 74 H 5.6854 0.685464 3.66241 0
M  V30 75 H 5.7984 2.52467 4.07182 0
M  V30 76 H 4.1624 1.25896 2.21409 0
M  V30 77 H 4.9454 2.89066 1.85191 0
M  V30 78 N 7.3905 -1.2043 1.01659 0
M  V30 79 C 8.6155 -1.94318 0.724942 0
M  V30 80 C 9.0405 -1.74266 -0.708034 0
M  V30 81 O 8.3985 -1.03694 -1.48719 0
M  V30 82 C 8.4465 -3.44486 1.06591 0
M  V30 83 O 7.5505 -4.12017 0.177599 0
M  V30 84 H 6.8915 -0.60708 0.26898 0
M  V30 85 H 9.4215 -1.52861 1.35995 0
M  V30 86 H 9.4315 -3.95106 1.01762 0
M  V30 87 H 8.1065 -3.58404 2.10997 0
M  V30 88 H 6.6835 -3.71821 0.283421 0
M  V30 89 N 8.8686 -0.792821 -1.36206 0
M  V30 90 C 9.7986 -0.207853 -2.32573 0
M  V30 91 C 10.7796 0.659055 -1.56813 0
M  V30 92 O 11.9646 0.592176 -1.84951 0
M  V30 93 C 9.0946 0.655449 -3.41059 0
M  V30 94 C 8.0486 -0.111842 -4.27854 0
M  V30 95 C 7.3746 0.872274 -5.27537 0
M  V30 96 C 8.6746 -1.30299 -5.05786 0
M  V30 97 H 10.3686 -1.01294 -2.81744 0
M  V30 98 H 7.9146 -0.48854 -1.3546 0
M  V30 99 H 9.8676 1.07464 -4.07467 0
M  V30 100 H 8.5916 1.49328 -2.90463 0
M  V30 101 H 7.2506 -0.512053 -3.63006 0
M  V30 102 H 6.8986 1.70523 -4.73214 0
M  V30 103 H 6.5986 0.363291 -5.86476 0
M  V30 104 H 8.1226 1.28996 -5.96818 0
M  V30 105 H 9.5366 -0.959379 -5.65216 0
M  V30 106 H 7.9336 -1.7455 -5.74154 0
M  V30 107 H 9.0036 -2.09663 -4.37229 0
M  V30 108 N 10.3467 1.47872 -0.545128 0
M  V30 109 C 11.5867 2.04391 -0.0187854 0
M  V30 110 C 11.9507 1.41162 1.30144 0
M  V30 111 O 13.1517 1.88656 1.91474 0
M  V30 112 C 11.4227 3.57299 0.0850867 0
M  V30 113 S 12.9817 4.35221 0.559302 0
M  V30 114 H 9.7997 0.710737 -0.0193301 0
M  V30 115 H 12.4017 1.81395 -0.729125 0
M  V30 116 H 11.1057 4.00847 -0.880351 0
M  V30 117 H 10.6367 3.84773 0.819348 0
M  V30 118 H 12.6517 4.61571 1.82118 0
M  V30 119 N 11.8248 0.280983 1.55075 0
M  V30 120 C 13.0728 -0.333455 1.9933 0
M  V30 121 C 13.3938 -1.55937 1.17085 0
M  V30 122 O 12.6638 -1.94143 0.261805 0
M  V30 123 H 11.2438 -0.126197 0.736263 0
M  V30 124 H 13.9058 0.387678 1.91005 0
M  V30 125 H 13.0018 -0.619292 3.05894 0
M  V30 126 N 13.3029 -1.57598 0.00835791 0
M  V30 127 C 14.7189 -1.55764 -0.347822 0
M  V30 128 C 14.9189 -1.01186 -1.74252 0
M  V30 129 O 13.9749 -0.649371 -2.44007 0
M  V30 130 C 15.2879 -2.99927 -0.215407 0
M  V30 131 C 16.8359 -3.11656 -0.289725 0
M  V30 132 C 17.3109 -4.57621 -0.18634 0
M  V30 133 N 18.8019 -4.62557 -0.243978 0
M  V30 134 C 19.5369 -5.73094 -0.18745 0
M  V30 135 N 19.0329 -6.92753 -0.0810331 0
M  V30 136 N 20.8259 -5.61588 -0.239925 0
M  V30 137 H 12.9769 -1.91411 0.92062 0
M  V30 138 H 15.2399 -0.879562 0.353659 0
M  V30 139 H 14.9459 -3.43729 0.744512 0
M  V30 140 H 14.8199 -3.63865 -0.994097 0
M  V30 141 H 17.2069 -2.67779 -1.24009 0
M  V30 142 H 17.2879 -2.5048 0.51898 0
M  V30 143 H 16.9319 -5.02174 0.760519 0
M  V30 144 H 16.8619 -5.16752 -1.01364 0
M  V30 145 H 19.3529 -3.76481 -0.327217 0
M  V30 146 H 19.6659 -7.72787 -0.0440241 0
M  V30 147 H 18.0109 -6.94984 -0.0465419 0
M  V30 148 H 21.2019 -4.66996 -0.321317 0
M  V30 149 H 21.3749 -6.47714 -0.192407 0
M  V30 150 N 14.781 0.264519 -1.55364 0
M  V30 151 C 15.744 1.31046 -1.88042 0
M  V30 152 C 16.744 1.41943 -0.755569 0
M  V30 153 O 17.934 1.40947 -1.02369 0
M  V30 154 C 15.066 2.69067 -2.09323 0
M  V30 155 H 16.259 1.03297 -2.81549 0
M  V30 156 H 13.812 0.502989 -1.47986 0
M  V30 157 H 14.547 3.01982 -1.18226 0
M  V30 158 H 14.332 2.62542 -2.91229 0
M  V30 159 H 15.822 3.44623 -2.35848 0
M  V30 160 N 16.2591 1.48442 0.529413 0
M  V30 161 C 17.1891 1.65902 1.64313 0
M  V30 162 C 18.1701 0.507897 1.6234 0
M  V30 163 O 19.3551 0.740503 1.79528 0
M  V30 164 C 16.4851 1.69911 3.02898 0
M  V30 165 C 15.4391 2.8453 3.19729 0
M  V30 166 C 14.7651 2.73629 4.59381 0
M  V30 167 C 16.0651 4.25821 3.02447 0
M  V30 168 H 17.7591 2.5914 1.49955 0
M  V30 169 H 15.3051 1.24709 0.719982 0
M  V30 170 H 17.2581 1.80715 3.80684 0
M  V30 171 H 15.9821 0.732524 3.18279 0
M  V30 172 H 14.6411 2.73283 2.44361 0
M  V30 173 H 14.2891 1.74938 4.71599 0
M  V30 174 H 13.9891 3.50541 4.71588 0
M  V30 175 H 15.5131 2.86401 5.39265 0
M  V30 176 H 16.9271 4.37898 3.70024 0
M  V30 177 H 15.3241 5.03735 3.26146 0
M  V30 178 H 16.3941 4.42244 1.98867 0
M  V30 179 N 17.7372 -0.778329 1.37039 0
M  V30 180 C 18.9832 -1.53892 1.32079 0
M  V30 181 C 19.3162 -1.9396 -0.0965386 0
M  V30 182 O 18.5912 -1.63568 -1.05242 0
M  V30 183 C 18.8742 -2.80847 2.25382 0
M  V30 184 C 18.7272 -2.47076 3.75864 0
M  V30 185 C 20.0462 -3.82741 2.1725 0
M  V30 186 H 17.1652 -0.558303 0.48111 0
M  V30 187 H 19.8072 -0.893397 1.67685 0
M  V30 188 H 17.9572 -3.35931 1.95148 0
M  V30 189 H 19.6292 -1.97957 4.16666 0
M  V30 190 H 17.8722 -1.79863 3.94755 0
M  V30 191 H 18.5432 -3.37798 4.36574 0
M  V30 192 H 21.0192 -3.37133 2.43887 0
M  V30 193 H 19.8952 -4.69303 2.84686 0
M  V30 194 H 20.1562 -4.2652 1.16331 0
M  V30 195 N 19.2153 -1.21501 -1.00376 0
M  V30 196 C 20.1783 -0.976927 -2.07337 0
M  V30 197 C 21.1783 0.0525322 -1.60714 0
M  V30 198 O 22.3683 -0.184869 -1.73216 0
M  V30 199 C 19.5003 -0.473423 -3.37597 0
M  V30 200 H 20.6933 -1.92587 -2.29892 0
M  V30 201 H 18.2463 -1.03217 -1.17371 0
M  V30 202 H 18.9813 0.480379 -3.20722 0
M  V30 203 H 18.7663 -1.216 -3.72768 0
M  V30 204 H 20.2563 -0.32675 -4.1632 0
M  V30 205 N 20.6934 1.19889 -1.02296 0
M  V30 206 C 21.6234 2.25141 -0.619174 0
M  V30 207 C 22.6044 1.66051 0.368915 0
M  V30 208 O 23.7894 1.92546 0.252941 0
M  V30 209 C 20.9194 3.4728 0.0368783 0
M  V30 210 C 19.8734 4.19005 -0.872865 0
M  V30 211 C 19.1994 5.34637 -0.0822402 0
M  V30 212 C 20.4994 4.74452 -2.18387 0
M  V30 213 H 22.1934 2.59171 -1.49903 0
M  V30 214 H 19.7394 1.24579 -0.722222 0
M  V30 215 H 21.6924 4.20098 0.330958 0
M  V30 216 H 20.4164 3.12433 0.95149 0
M  V30 217 H 19.0754 3.48061 -1.15105 0
M  V30 218 H 18.7234 4.96034 0.83422 0
M  V30 219 H 18.4234 5.83557 -0.688149 0
M  V30 220 H 19.9474 6.10255 0.205238 0
M  V30 221 H 21.3614 5.39055 -1.95172 0
M  V30 222 H 19.7584 5.33834 -2.74119 0
M  V30 223 H 20.8284 3.92844 -2.84257 0
M  V30 224 N 22.1715 0.800033 1.35784 0
M  V30 225 C 23.4175 0.377901 1.99248 0
M  V30 226 C 23.7505 -1.05052 1.63333 0
M  V30 227 O 23.0255 -1.72768 0.893385 0
M  V30 228 C 23.3085 0.553922 3.55814 0
M  V30 229 C 23.1615 2.0268 4.01548 0
M  V30 230 C 24.4805 -0.0244802 4.40093 0
M  V30 231 H 21.5995 0.138782 0.723815 0
M  V30 232 H 24.2415 1.00835 1.61035 0
M  V30 233 H 22.3915 0.0172398 3.88496 0
M  V30 234 H 24.0635 2.62536 3.79305 0
M  V30 235 H 22.3065 2.5256 3.52698 0
M  V30 236 H 22.9775 2.10087 5.10458 0
M  V30 237 H 25.4535 0.433775 4.13833 0
M  V30 238 H 24.3295 0.128637 5.48749 0
M  V30 239 H 24.5905 -1.11758 4.27741 0
M  V30 240 N 23.6496 -1.47581 0.552962 0
M  V30 241 C 24.5796 -2.32762 -0.185451 0
M  V30 242 C 25.5606 -1.43527 -0.912905 0
M  V30 243 O 26.7456 -1.72388 -0.894201 0
M  V30 244 C 23.8756 -3.25219 -1.21859 0
M  V30 245 C 22.8296 -4.23661 -0.607864 0
M  V30 246 C 22.1556 -5.05413 -1.74533 0
M  V30 247 C 23.4556 -5.20481 0.435582 0
M  V30 248 H 25.1496 -2.94749 0.525684 0
M  V30 249 H 22.6956 -1.41738 0.254251 0
M  V30 250 H 24.6486 -3.8365 -1.7433 0
M  V30 251 H 23.3726 -2.61279 -1.95961 0
M  V30 252 H 22.0316 -3.66451 -0.104489 0
M  V30 253 H 21.6796 -4.3788 -2.47529 0
M  V30 254 H 21.3796 -5.72059 -1.34249 0
M  V30 255 H 22.9036 -5.66701 -2.27338 0
M  V30 256 H 24.3176 -5.733 -0.00290157 0
M  V30 257 H 22.7146 -5.95305 0.757067 0
M  V30 258 H 23.7846 -4.66217 1.33303 0
M  V30 259 N 25.1277 -0.289203 -1.54924 0
M  V30 260 C 26.0907 0.579144 -2.21762 0
M  V30 261 C 27.0907 1.07047 -1.1999 0
M  V30 262 O 28.2807 0.968384 -1.44803 0
M  V30 263 C 25.4127 1.80055 -2.8947 0
M  V30 264 H 26.6057 -0.00464908 -2.999 0
M  V30 265 H 24.1587 -0.0399306 -1.56249 0
M  V30 266 H 24.8937 2.42449 -2.15381 0
M  V30 267 H 24.6787 1.45602 -3.64064 0
M  V30 268 H 26.1687 2.41773 -3.40493 0
M  V30 269 N 26.6058 1.57591 -0.0167156 0
M  V30 270 C 27.8458 1.93145 0.668902 0
M  V30 271 C 28.2098 0.892406 1.7 0
M  V30 272 O 29.4108 1.13373 2.43721 0
M  V30 273 C 27.6818 3.33678 1.28039 0
M  V30 274 S 29.2408 3.91142 1.9888 0
M  V30 275 H 26.0588 0.67593 0.220545 0
M  V30 276 H 28.6608 1.95347 -0.0774105 0
M  V30 277 H 27.3648 4.07126 0.517339 0
M  V30 278 H 26.8958 3.3489 2.06427 0
M  V30 279 H 28.9108 3.73571 3.26587 0
M  V30 280 N 28.0839 -0.256276 1.55502 0
M  V30 281 C 29.3319 -0.983672 1.76545 0
M  V30 282 C 29.6529 -1.86206 0.578982 0
M  V30 283 O 28.9229 -1.91656 -0.405577 0
M  V30 284 H 27.5029 -0.366191 0.651086 0
M  V30 285 H 30.1649 -0.276479 1.92929 0
M  V30 286 H 29.2609 -1.61087 2.67315 0
M  V30 287 N 29.562 -1.4872 -0.521534 0
M  V30 288 C 30.492 -1.66771 -1.63431 0
M  V30 289 C 31.473 -0.516499 -1.62069 0
M  V30 290 O 32.658 -0.750013 -1.79132 0
M  V30 291 C 29.788 -1.71515 -3.01993 0
M  V30 292 C 28.742 -2.86222 -3.18216 0
M  V30 293 C 28.068 -2.76061 -4.57924 0
M  V30 294 C 29.368 -4.27419 -3.00184 0
M  V30 295 H 31.062 -2.59932 -1.48579 0
M  V30 296 H 28.608 -1.25089 -0.713358 0
M  V30 297 H 30.561 -1.82731 -3.7972 0
M  V30 298 H 29.285 -0.749393 -3.17886 0
M  V30 299 H 27.944 -2.74575 -2.42908 0
M  V30 300 H 27.592 -1.77437 -4.70665 0
M  V30 301 H 27.292 -3.53037 -4.69722 0
M  V30 302 H 28.816 -2.89256 -5.37739 0
M  V30 303 H 30.23 -4.39855 -3.67697 0
M  V30 304 H 28.627 -5.05458 -3.2347 0
M  V30 305 H 29.697 -4.43293 -1.96518 0
M  V30 306 N 31.0401 0.771051 -1.3745 0
M  V30 307 C 32.2651 1.56529 -1.36065 0
M  V30 308 C 32.6901 1.88029 0.0515859 0
M  V30 309 O 32.0481 1.49282 1.02882 0
M  V30 310 C 32.0961 2.85187 -2.20683 0
M  V30 311 O 31.2001 3.79593 -1.61193 0
M  V30 312 H 30.5411 0.47411 -0.464883 0
M  V30 313 H 33.0711 0.954269 -1.80983 0
M  V30 314 H 33.0811 3.34283 -2.33921 0
M  V30 315 H 31.7561 2.61588 -3.23334 0
M  V30 316 H 30.3331 3.38239 -1.56999 0
M  V30 317 N 32.5182 1.22032 0.997298 0
M  V30 318 C 33.9342 0.979326 1.26021 0
M  V30 319 C 34.1342 -0.32972 1.98784 0
M  V30 320 O 33.1902 -1.05345 2.29475 0
M  V30 321 C 34.5032 2.17509 2.07631 0
M  V30 322 C 36.0512 2.21817 2.2083 0
M  V30 323 C 36.5262 3.40933 3.05825 0
M  V30 324 N 38.0172 3.41067 3.13412 0
M  V30 325 C 38.7522 4.29885 3.79455 0
M  V30 326 N 38.2482 5.28914 4.47462 0
M  V30 327 N 40.0412 4.17673 3.76173 0
M  V30 328 H 32.1922 2.06202 0.509352 0
M  V30 329 H 34.4552 0.90334 0.287541 0
M  V30 330 H 34.1612 3.12415 1.61524 0
M  V30 331 H 34.0352 2.17206 3.08385 0
M  V30 332 H 36.4222 1.27462 2.66153 0
M  V30 333 H 36.5032 2.2616 1.1952 0
M  V30 334 H 36.1472 4.35586 2.61203 0
M  V30 335 H 36.0772 3.33829 4.07266 0
M  V30 336 H 38.5682 2.69406 2.65007 0
M  V30 337 H 38.8812 5.92973 4.95583 0
M  V30 338 H 37.2262 5.32831 4.46224 0
M  V30 339 H 40.4172 3.39564 3.22202 0
M  V30 340 H 40.5902 4.87098 4.27363 0
M  V30 341 N 33.9963 -1.19345 1.0293 0
M  V30 342 C 35.2453 -1.88363 0.721256 0
M  V30 343 C 35.5583 -1.80514 -0.753254 0
M  V30 344 O 36.7643 -2.44788 -1.17436 0
M  V30 345 C 35.2203 -3.37872 1.23978 0
M  V30 346 C 34.8283 -3.54278 2.74211 0
M  V30 347 C 36.5723 -4.12365 1.00775 0
M  V30 348 C 34.4793 -4.97682 3.19479 0
M  V30 349 H 33.4093 -0.705484 0.266098 0
M  V30 350 H 36.0603 -1.34928 1.24365 0
M  V30 351 H 34.4423 -3.90707 0.6453 0
M  V30 352 H 35.6163 -3.11769 3.39318 0
M  V30 353 H 33.9313 -2.93174 2.95699 0
M  V30 354 H 36.5283 -5.18119 1.32123 0
M  V30 355 H 36.8713 -4.16263 -0.0554308 0
M  V30 356 H 37.4043 -3.65668 1.56625 0
M  V30 357 H 34.1433 -4.98945 4.25128 0
M  V30 358 H 33.6633 -5.4095 2.591 0
M  V30 359 H 35.3423 -5.66337 3.12845 0
M  V30 360 N 35.4744 -0.807222 -1.35358 0
M  V30 361 C 36.7204 -0.397594 -1.99476 0
M  V30 362 C 37.0754 1.02405 -1.62883 0
M  V30 363 O 36.3684 1.70077 -0.882282 0
M  V30 364 C 36.5624 -0.519036 -3.53611 0
M  V30 365 C 36.3914 -1.95094 -4.05177 0
M  V30 366 C 35.1614 -2.57945 -4.34503 0
M  V30 367 C 37.3594 -2.91558 -4.23673 0
M  V30 368 N 35.3414 -3.92539 -4.72003 0
M  V30 369 C 36.7124 -4.11024 -4.64176 0
M  V30 370 C 38.7674 -2.88381 -4.05883 0
M  V30 371 C 37.4704 -5.27745 -4.88751 0
M  V30 372 C 39.4964 -4.04306 -4.31614 0
M  V30 373 C 38.8584 -5.22519 -4.72391 0
M  V30 374 H 34.9574 -0.193274 -0.75774 0
M  V30 375 H 37.5414 -1.0486 -1.6405 0
M  V30 376 H 35.7124 0.101979 -3.88266 0
M  V30 377 H 37.4444 -0.0839321 -4.04613 0
M  V30 378 H 34.1994 -2.09295 -4.24844 0
M  V30 379 H 34.6234 -4.61836 -4.95011 0
M  V30 380 H 39.2654 -1.98137 -3.73499 0
M  V30 381 H 36.9834 -6.1856 -5.20008 0
M  V30 382 H 40.5694 -4.03229 -4.19402 0
M  V30 383 H 39.4494 -6.1073 -4.91913 0
M  V30 384 N 36.9525 1.47285 -0.560781 0
M  V30 385 C 38.2005 2.02064 -0.0379868 0
M  V30 386 C 38.5215 1.43711 1.31803 0
M  V30 387 O 37.7915 0.61362 1.86042 0
M  V30 388 H 36.3715 0.746918 -0.0110531 0
M  V30 389 H 39.0335 1.80648 -0.731598 0
M  V30 390 H 38.1295 3.12064 0.0474463 0
M  V30 391 N 38.4306 0.297415 1.54768 0
M  V30 392 C 39.3406 -0.58983 2.27064 0
M  V30 393 C 40.3566 -1.15144 1.30453 0
M  V30 394 O 41.5326 -1.17699 1.63428 0
M  V30 395 C 38.5976 -1.74714 2.9946 0
M  V30 396 C 37.6586 -1.21997 4.11601 0
M  V30 397 C 36.8916 -2.32212 4.80535 0
M  V30 398 O 37.1146 -3.52036 4.48806 0
M  V30 399 O 36.0486 -1.99106 5.68014 0
M  V30 400 H 39.8746 -0.00348199 3.037 0
M  V30 401 H 37.4596 0.0640035 1.49263 0
M  V30 402 H 39.3416 -2.42147 3.44881 0
M  V30 403 H 38.0166 -2.32016 2.25722 0
M  V30 404 H 36.9236 -0.511458 3.70587 0
M  V30 405 H 38.2566 -0.692419 4.87305 0
M  V30 406 N 39.9087 -1.5758 0.0250728 0
M  V30 407 C 40.8187 -2.1343 -0.973905 0
M  V30 408 C 41.8347 -1.08556 -1.35984 0
M  V30 409 O 43.0107 -1.40592 -1.44207 0
M  V30 410 C 40.0757 -2.64703 -2.23904 0
M  V30 411 C 39.1367 -3.84276 -1.91391 0
M  V30 412 C 38.3697 -4.33095 -3.11873 0
M  V30 413 O 38.5927 -3.81107 -4.24398 0
M  V30 414 O 37.5267 -5.24984 -2.94406 0
M  V30 415 H 41.3527 -2.99057 -0.529036 0
M  V30 416 H 38.9377 -1.48118 -0.195288 0
M  V30 417 H 40.8197 -2.97769 -2.98181 0
M  V30 418 H 39.4947 -1.82161 -2.6758 0
M  V30 419 H 38.4017 -3.56143 -1.14511 0
M  V30 420 H 39.7347 -4.67968 -1.52534 0
M  V30 421 N 41.3868 0.248026 -1.55636 0
M  V30 422 C 42.8028 0.596483 -1.48035 0
M  V30 423 C 43.0028 1.88386 -0.715039 0
M  V30 424 O 42.0588 2.51319 -0.243944 0
M  V30 425 C 43.3718 0.700258 -2.92433 0
M  V30 426 C 44.9198 0.792659 -3.02797 0
M  V30 427 C 45.3948 0.928005 -4.485 0
M  V30 428 N 46.8858 0.992903 -4.52433 0
M  V30 429 C 47.6208 1.11687 -5.62418 0
M  V30 430 N 47.1168 1.20645 -6.82214 0
M  V30 431 N 48.9098 1.14994 -5.50212 0
M  V30 432 H 41.0608 -0.597109 -2.03834 0
M  V30 433 H 43.3238 -0.205925 -0.925364 0
M  V30 434 H 43.0298 -0.175658 -3.51261 0
M  V30 435 H 42.9038 1.57255 -3.42857 0
M  V30 436 H 45.2908 1.65903 -2.4405 0
M  V30 437 H 45.3718 -0.104762 -2.55585 0
M  V30 438 H 45.0158 0.0661971 -5.07857 0
M  V30 439 H 44.9458 1.84045 -4.93391 0
M  V30 440 H 47.4368 0.935064 -3.66149 0
M  V30 441 H 47.7498 1.30008 -7.61786 0
M  V30 442 H 46.0948 1.17605 -6.84977 0
M  V30 443 H 49.2858 1.07643 -4.55555 0
M  V30 444 H 49.4588 1.24311 -6.35965 0
M  V30 445 N 42.8649 1.48995 0.513639 0
M  V30 446 C 44.1129 1.57531 1.26604 0
M  V30 447 C 44.4339 0.258236 1.93283 0
M  V30 448 O 43.7039 -0.721502 1.8213 0
M  V30 449 H 42.2839 0.580387 0.470276 0
M  V30 450 H 44.9459 1.85552 0.596373 0
M  V30 451 H 44.0419 2.36486 2.03669 0
M  V30 452 N 44.343 -0.763751 1.37857 0
M  V30 453 C 45.59 -1.52257 1.33506 0
M  V30 454 C 45.918 -1.94343 -0.078022 0
M  V30 455 O 45.173 -1.64958 -1.05297 0
M  V30 456 C 45.472 -2.79499 2.22745 0
M  V30 457 C 45.138 -2.56426 3.70886 0
M  V30 458 C 43.8 -2.49842 4.11257 0
M  V30 459 C 46.152 -2.36008 4.64704 0
M  V30 460 C 43.48 -2.20841 5.43549 0
M  V30 461 C 45.832 -2.0853 5.97242 0
M  V30 462 C 44.496 -2.00396 6.36709 0
M  V30 463 H 43.766 -0.557149 0.488534 0
M  V30 464 H 46.413 -0.879073 1.70131 0
M  V30 465 H 44.718 -3.48447 1.79142 0
M  V30 466 H 46.415 -3.37413 2.16688 0
M  V30 467 H 43.005 -2.62416 3.38874 0
M  V30 468 H 47.189 -2.40079 4.34368 0
M  V30 469 H 42.445 -2.13045 5.73081 0
M  V30 470 H 46.619 -1.91732 6.69486 0
M  V30 471 H 44.246 -1.77688 7.39142 0
M  V30 472 N 45.8211 -1.22559 -0.990812 0
M  V30 473 C 47.2321 -1.04791 -1.54518 0
M  V30 474 C 47.5831 0.387998 -1.92325 0
M  V30 475 O 46.7081 1.27328 -1.74976 0
M  V30 476 C 47.3031 -1.896 -2.80779 0
M  V30 477 C 45.8621 -1.76124 -3.32652 0
M  V30 478 C 45.0091 -1.8594 -2.05722 0
M  V30 479 H 47.9601 -1.36374 -0.811662 0
M  V30 480 H 47.9811 -1.41464 -3.53225 0
M  V30 481 H 47.4931 -2.94101 -2.53231 0
M  V30 482 H 45.5941 -0.743643 -3.65104 0
M  V30 483 H 45.7071 -2.58913 -4.03114 0
M  V30 484 H 44.0711 -1.29403 -2.19379 0
M  V30 485 H 44.8541 -2.91976 -1.80568 0
M  V30 486 N 47.2992 1.18797 -1.03562 0
M  V30 487 C 48.7102 1.70322 -0.764676 0
M  V30 488 C 49.0612 1.82708 0.714996 0
M  V30 489 O 48.1862 1.50299 1.55689 0
M  V30 490 C 48.7812 3.09356 -1.38145 0
M  V30 491 C 47.3402 3.58114 -1.15895 0
M  V30 492 C 46.4872 2.34798 -1.4753 0
M  V30 493 H 49.4382 1.03543 -1.20268 0
M  V30 494 H 49.4592 3.72378 -0.781977 0
M  V30 495 H 48.9712 3.00309 -2.45837 0
M  V30 496 H 47.0722 3.72464 -0.100544 0
M  V30 497 H 47.1852 4.4184 -1.8524 0
M  V30 498 H 45.5492 2.38464 -0.894829 0
M  V30 499 H 46.3322 2.28375 -2.56319 0
M  V30 500 N 48.7773 0.814389 1.34928 0
M  V30 501 C 50.0543 0.321363 1.92942 0
M  V30 502 C 50.4343 -1.19014 1.74353 0
M  V30 503 O 49.7823 -1.99328 1.11716 0
M  V30 504 C 49.9923 0.741323 3.41036 0
M  V30 505 C 51.3403 0.735266 4.18185 0
M  V30 506 O 52.3643 0.68336 3.49584 0
M  V30 507 O 51.2233 0.800703 5.40602 0
M  V30 508 H 48.3173 0.0858893 0.822528 0
M  V30 509 H 50.8633 0.898609 1.43955 0
M  V30 510 H 49.6353 1.78276 3.4833 0
M  V30 511 H 49.2583 0.139307 3.97356 0
M  V30 512 N 50.2554 -1.46986 0.568584 0
M  V30 513 C 51.6714 -1.57946 0.229189 0
M  V30 514 C 51.8714 -1.56567 -1.26843 0
M  V30 515 O 50.9274 -1.47511 -2.04931 0
M  V30 516 C 52.2404 -2.87963 0.865909 0
M  V30 517 C 53.7884 -3.01568 0.838188 0
M  V30 518 C 54.2634 -4.34301 1.45419 0
M  V30 519 N 55.7544 -4.40965 1.41788 0
M  V30 520 C 56.4894 -5.42256 1.86403 0
M  V30 521 N 55.9854 -6.50297 2.38926 0
M  V30 522 N 57.7784 -5.3337 1.77405 0
M  V30 523 H 49.9294 -1.46126 1.54146 0
M  V30 524 H 52.1924 -0.696156 0.643484 0
M  V30 525 H 51.8984 -2.94742 1.91886 0
M  V30 526 H 51.7724 -3.75423 0.365687 0
M  V30 527 H 54.1594 -2.94379 -0.206106 0
M  V30 528 H 54.2404 -2.1562 1.37629 0
M  V30 529 H 53.8844 -4.42247 2.49761 0
M  V30 530 H 53.8144 -5.19 0.891435 0
M  V30 531 H 56.3054 -3.63484 1.03381 0
M  V30 532 H 56.6184 -7.23777 2.70863 0
M  V30 533 H 54.9634 -6.51155 2.42944 0
M  V30 534 H 58.1544 -4.47865 1.3614 0
M  V30 535 H 58.3274 -6.12169 2.12492 0
M  V30 536 N 51.7335 -0.305618 -1.54608 0
M  V30 537 C 52.6965 0.555591 -2.22364 0
M  V30 538 C 53.6965 1.05768 -1.21119 0
M  V30 539 O 54.8865 0.952972 -1.45822 0
M  V30 540 C 52.0185 1.76974 -2.91364 0
M  V30 541 H 53.2115 -0.0364572 -2.99878 0
M  V30 542 H 50.7645 -0.0565007 -1.56198 0
M  V30 543 H 51.4995 2.40151 -2.17941 0
M  V30 544 H 51.2845 1.41732 -3.65588 0
M  V30 545 H 52.7745 2.38148 -3.43038 0
M  V30 546 N 53.2116 1.57565 -0.0334293 0
M  V30 547 C 54.4396 1.9628 0.654347 0
M  V30 548 C 54.8546 0.910138 1.65414 0
M  V30 549 O 54.2116 -0.107595 1.82183 0
M  V30 550 C 54.2626 3.35067 1.35693 0
M  V30 551 O 53.9836 4.36296 0.397191 0
M  V30 552 C 55.4846 3.88439 2.13613 0
M  V30 553 H 52.7046 0.646369 0.180132 0
M  V30 554 H 55.2486 2.04282 -0.0944721 0
M  V30 555 H 53.4036 3.2827 2.05712 0
M  V30 556 H 53.8176 5.1678 0.896597 0
M  V30 557 H 55.2916 4.8788 2.58219 0
M  V30 558 H 55.7686 3.22914 2.97696 0
M  V30 559 H 56.3746 3.98516 1.48543 0
M  V30 560 N 54.6897 -0.239769 1.55765 0
M  V30 561 C 56.1007 -0.808263 1.68297 0
M  V30 562 C 56.4517 -1.85736 0.632181 0
M  V30 563 O 55.5767 -2.15277 -0.220204 0
M  V30 564 C 56.1717 -1.47284 3.05111 0
M  V30 565 C 54.7307 -1.98895 3.19559 0
M  V30 566 C 53.8777 -0.842575 2.64189 0
M  V30 567 H 56.8287 -0.0154422 1.58692 0
M  V30 568 H 56.8497 -2.34111 2.99954 0
M  V30 569 H 56.3617 -0.709053 3.81568 0
M  V30 570 H 54.4627 -2.78132 2.47938 0
M  V30 571 H 54.5757 -2.18143 4.26556 0
M  V30 572 H 52.9397 -1.24501 2.22197 0
M  V30 573 H 53.7227 -0.0917552 3.43177 0
M  V30 574 N 56.1678 -1.49265 -0.50573 0
M  V30 575 C 57.0978 -1.68495 -1.61653 0
M  V30 576 C 58.0788 -0.53366 -1.61512 0
M  V30 577 O 59.2638 -0.76897 -1.78327 0
M  V30 578 C 56.3938 -1.74709 -3.00157 0
M  V30 579 C 55.3478 -2.89581 -3.15162 0
M  V30 580 C 54.6738 -2.80903 -4.5497 0
M  V30 581 C 55.9738 -4.30578 -2.95634 0
M  V30 582 H 57.6678 -2.61493 -1.45814 0
M  V30 583 H 55.2138 -1.25838 -0.70005 0
M  V30 584 H 57.1668 -1.86748 -3.77761 0
M  V30 585 H 55.8908 -0.783067 -3.17074 0
M  V30 586 H 54.5498 -2.77136 -2.39982 0
M  V30 587 H 54.1978 -1.82419 -4.68756 0
M  V30 588 H 53.8978 -3.57999 -4.65951 0
M  V30 589 H 55.4218 -2.94944 -5.34641 0
M  V30 590 H 56.8358 -4.4373 -3.63011 0
M  V30 591 H 55.2328 -5.0886 -3.18091 0
M  V30 592 H 56.3028 -4.45352 -1.91806 0
M  V30 593 N 57.6459 0.756429 -1.3826 0
M  V30 594 C 58.5759 1.88374 -1.37976 0
M  V30 595 C 59.5569 1.68311 -0.246082 0
M  V30 596 O 60.7419 1.88944 -0.44874 0
M  V30 597 C 57.8719 3.25864 -1.20125 0
M  V30 598 C 56.8259 3.60523 -2.30666 0
M  V30 599 C 56.1519 4.9672 -1.97923 0
M  V30 600 C 57.4519 3.65692 -3.72916 0
M  V30 601 H 59.1459 1.88869 -2.32312 0
M  V30 602 H 56.6919 0.907272 -1.11824 0
M  V30 603 H 58.6449 4.0438 -1.18552 0
M  V30 604 H 57.3689 3.25841 -0.222498 0
M  V30 605 H 56.0279 2.84324 -2.3142 0
M  V30 606 H 55.6759 4.93253 -0.985393 0
M  V30 607 H 55.3759 5.20878 -2.71955 0
M  V30 608 H 56.8999 5.77618 -1.97964 0
M  V30 609 H 58.3139 4.34328 -3.74208 0
M  V30 610 H 56.7109 4.01358 -4.4613 0
M  V30 611 H 57.7809 2.65987 -4.05436 0
M  V30 612 N 59.124 1.23083 0.984299 0
M  V30 613 C 60.056 0.96636 2.07832 0
M  V30 614 C 61.069 -0.0582135 1.62696 0
M  V30 615 O 62.258 0.176843 1.77622 0
M  V30 616 C 59.358 0.433397 3.36117 0
M  V30 617 C 58.531 1.51722 4.10243 0
M  V30 618 C 57.59 0.989821 5.16807 0
M  V30 619 O 56.616 1.67794 5.43906 0
M  V30 620 N 57.818 -0.184367 5.80207 0
M  V30 621 H 60.583 1.90824 2.31098 0
M  V30 622 H 58.144 1.13888 1.1507 0
M  V30 623 H 60.136 0.065699 4.04647 0
M  V30 624 H 58.706 -0.413806 3.09849 0
M  V30 625 H 57.926 2.05786 3.36223 0
M  V30 626 H 59.214 2.24619 4.56534 0
M  V30 627 H 58.612 -0.760062 5.60571 0
M  V30 628 H 57.169 -0.493366 6.4993 0
M  V30 629 N 60.6021 -1.18246 1.0419 0
M  V30 630 C 61.8301 -1.92195 0.766072 0
M  V30 631 C 62.2451 -1.76247 -0.676933 0
M  V30 632 O 61.6021 -1.09293 -1.46155 0
M  V30 633 C 61.6531 -3.43568 1.12442 0
M  V30 634 O 61.3741 -3.59015 2.51078 0
M  V30 635 C 62.8751 -4.34613 0.873275 0
M  V30 636 H 60.0951 -0.610114 0.279288 0
M  V30 637 H 62.6391 -1.50007 1.38989 0
M  V30 638 H 60.7941 -3.8354 0.545542 0
M  V30 639 H 61.2081 -4.5273 2.64831 0
M  V30 640 H 62.6821 -5.39374 1.17385 0
M  V30 641 H 63.1591 -4.38781 -0.191909 0
M  V30 642 H 63.7651 -4.00341 1.43551 0
M  V30 643 N 62.0802 -0.821533 -1.34494 0
M  V30 644 C 63.0432 -0.247847 -2.27856 0
M  V30 645 C 64.0432 0.573453 -1.50227 0
M  V30 646 O 65.2332 0.389759 -1.69784 0
M  V30 647 C 62.3652 0.652698 -3.34593 0
M  V30 648 H 63.5582 -1.07146 -2.80107 0
M  V30 649 H 61.1112 -0.593291 -1.44602 0
M  V30 650 H 61.8462 1.49943 -2.87555 0
M  V30 651 H 61.6312 0.065292 -3.92046 0
M  V30 652 H 63.1212 1.04793 -4.04238 0
M  V30 653 N 63.5583 1.46682 -0.576371 0
M  V30 654 C 64.4683 2.34032 0.163141 0
M  V30 655 C 65.4843 1.49367 0.892501 0
M  V30 656 O 66.6603 1.82252 0.857106 0
M  V30 657 C 63.7253 3.26435 1.16795 0
M  V30 658 C 62.7863 4.26998 0.443944 0
M  V30 659 C 62.0193 5.14986 1.40088 0
M  V30 660 O 62.2423 5.05785 2.637 0
M  V30 661 O 61.1763 5.94906 0.914917 0
M  V30 662 H 65.0023 2.98607 -0.55388 0
M  V30 663 H 62.5873 1.45554 -0.336821 0
M  V30 664 H 64.4693 3.83459 1.74748 0
M  V30 665 H 63.1443 2.64465 1.86655 0
M  V30 666 H 62.0513 3.7368 -0.177271 0
M  V30 667 H 63.3843 4.91736 -0.213566 0
M  V30 668 N 65.0364 0.313813 1.54444 0
M  V30 669 C 66.2854 -0.292519 1.99568 0
M  V30 670 C 66.5984 -1.54011 1.20582 0
M  V30 671 O 67.8044 -2.22183 1.56035 0
M  V30 672 C 66.2604 -0.571752 3.55329 0
M  V30 673 C 65.8684 0.658229 4.43138 0
M  V30 674 C 67.6124 -1.13857 4.08946 0
M  V30 675 C 65.5194 0.351439 5.90355 0
M  V30 676 H 64.4494 -0.113079 0.745472 0
M  V30 677 H 67.1004 0.424518 1.78522 0
M  V30 678 H 65.4824 -1.34872 3.72325 0
M  V30 679 H 66.6564 1.43403 4.37918 0
M  V30 680 H 64.9714 1.14458 4.0036 0
M  V30 681 H 67.5684 -1.38257 5.16516 0
M  V30 682 H 67.9114 -2.08489 3.6033 0
M  V30 683 H 68.4444 -0.423015 3.95544 0
M  V30 684 H 65.1834 1.26667 6.43145 0
M  V30 685 H 64.7034 -0.386842 5.98551 0
M  V30 686 H 66.3824 -0.0423134 6.46986 0
M  V30 687 N 66.5145 -1.57545 0.0417849 0
M  V30 688 C 67.4475 -2.06514 -0.970928 0
M  V30 689 C 68.4255 -0.963607 -1.30971 0
M  V30 690 O 69.6095 -1.23486 -1.4242 0
M  V30 691 C 66.7365 -2.4978 -2.28752 0
M  V30 692 C 65.7825 -3.71078 -2.10246 0
M  V30 693 S 66.6155 -5.17158 -1.38952 0
M  V30 694 C 67.7715 -5.6373 -2.71954 0
M  V30 695 H 68.0045 -2.9209 -0.554129 0
M  V30 696 H 65.5375 -1.53459 -0.17024 0
M  V30 697 H 67.4955 -2.75371 -3.04435 0
M  V30 698 H 66.1565 -1.64527 -2.67562 0
M  V30 699 H 65.3495 -3.9924 -3.07609 0
M  V30 700 H 64.9515 -3.45705 -1.42704 0
M  V30 701 H 67.2435 -5.68743 -3.68154 0
M  V30 702 H 68.1865 -6.63086 -2.4844 0
M  V30 703 H 68.5945 -4.91424 -2.77782 0
M  V30 704 N 67.9926 0.231505 -1.5589 0
M  V30 705 C 69.2206 0.974505 -1.82513 0
M  V30 706 C 69.6356 1.78344 -0.619591 0
M  V30 707 O 68.9926 1.77792 0.411848 0
M  V30 708 C 69.0436 1.90007 -3.07538 0
M  V30 709 O 68.7646 1.12385 -4.2344 0
M  V30 710 C 70.2656 2.75779 -3.47075 0
M  V30 711 H 67.4856 0.286065 -0.606966 0
M  V30 712 H 70.0296 0.249739 -2.02969 0
M  V30 713 H 68.1846 2.57891 -2.89086 0
M  V30 714 H 68.5986 1.75125 -4.944 0
M  V30 715 H 70.0726 3.36443 -4.37619 0
M  V30 716 H 70.5496 3.47672 -2.68367 0
M  V30 717 H 71.1556 2.13323 -3.67931 0
M  V30 718 N 69.4707 1.49531 0.497807 0
M  V30 719 C 70.8817 1.52344 1.07927 0
M  V30 720 C 71.2327 0.311469 1.93712 0
M  V30 721 O 70.3577 -0.578405 2.08527 0
M  V30 722 C 70.9527 2.76062 1.96405 0
M  V30 723 C 69.5117 2.81643 2.49709 0
M  V30 724 C 68.6587 2.46299 1.27404 0
M  V30 725 H 71.6097 1.56182 0.281576 0
M  V30 726 H 71.6307 2.56405 2.81135 0
M  V30 727 H 71.1427 3.64254 1.33943 0
M  V30 728 H 69.2437 1.97739 3.15801 0
M  V30 729 H 69.3567 3.83891 2.86643 0
M  V30 730 H 67.7207 1.98148 1.60029 0
M  V30 731 H 68.5037 3.36769 0.66645 0
M  V30 732 N 70.9488 -0.749086 1.3866 0
M  V30 733 C 72.3598 -1.32664 1.31366 0
M  V30 734 C 72.7108 -1.96179 -0.028484 0
M  V30 735 O 71.8358 -1.9537 -0.93057 0
M  V30 736 C 72.4308 -2.41219 2.37905 0
M  V30 737 C 70.9898 -2.94684 2.34176 0
M  V30 738 C 70.1368 -1.68108 2.20533 0
M  V30 739 H 73.0878 -0.547628 1.48952 0
M  V30 740 H 73.1088 -3.21268 2.0388 0
M  V30 741 H 72.6208 -1.94962 3.35576 0
M  V30 742 H 70.7218 -3.45258 1.401 0
M  V30 743 H 70.8348 -3.48757 3.2849 0
M  V30 744 H 69.1988 -1.91907 1.67463 0
M  V30 745 H 69.9818 -1.23923 3.20153 0
M  V30 746 N 72.4269 -1.23603 -0.977757 0
M  V30 747 C 73.6549 -1.09646 -1.75458 0
M  V30 748 C 74.0699 0.351859 -1.85492 0
M  V30 749 O 73.4269 1.24327 -1.336 0
M  V30 750 C 73.4779 -1.71895 -3.18016 0
M  V30 751 O 73.1989 -3.11063 -3.08498 0
M  V30 752 C 74.6999 -1.63415 -4.12081 0
M  V30 753 H 71.9199 -0.38359 -0.550545 0
M  V30 754 H 74.4639 -1.63507 -1.22824 0
M  V30 755 H 72.6189 -1.22061 -3.67668 0
M  V30 756 H 73.0329 -3.41305 -3.9826 0
M  V30 757 H 74.5069 -2.11669 -5.09804 0
M  V30 758 H 74.9839 -0.593462 -4.35172 0
M  V30 759 H 75.5899 -2.12628 -3.68334 0
M  V30 760 N 73.905 1.17692 -1.04816 0
M  V30 761 C 74.852 2.21581 -0.645797 0
M  V30 762 C 75.822 1.62367 0.350159 0
M  V30 763 O 77.007 1.89254 0.242433 0
M  V30 764 C 74.147 3.45092 -0.0227568 0
M  V30 765 C 73.26 4.18613 -1.06709 0
M  V30 766 C 72.395 5.29602 -0.411767 0
M  V30 767 C 71.434 5.94904 -1.44067 0
M  V30 768 N 70.571 6.97414 -0.809781 0
M  V30 769 H 75.411 2.55353 -1.5362 0
M  V30 770 H 72.948 1.25438 -0.768364 0
M  V30 771 H 74.906 4.15679 0.35588 0
M  V30 772 H 73.536 3.11917 0.831122 0
M  V30 773 H 72.588 3.46779 -1.5636 0
M  V30 774 H 73.9 4.63293 -1.84827 0
M  V30 775 H 73.054 6.06696 0.0206623 0
M  V30 776 H 71.793 4.86045 0.401438 0
M  V30 777 H 70.798 5.16544 -1.88316 0
M  V30 778 H 72.023 6.40542 -2.25571 0
M  V30 779 H 69.969 6.55998 -0.0170186 0
M  V30 780 H 69.886 7.40386 -1.52856 0
M  V30 781 H 71.154 7.78463 -0.401999 0
M  V30 782 N 75.3831 0.828654 1.34056 0
M  V30 783 C 76.6111 0.43262 2.02326 0
M  V30 784 C 77.0261 -0.963147 1.62385 0
M  V30 785 O 76.3831 -1.62425 0.832121 0
M  V30 786 C 76.4341 0.53182 3.57567 0
M  V30 787 O 76.1551 1.87258 3.96063 0
M  V30 788 C 77.6561 0.131422 4.43105 0
M  V30 789 H 74.8761 0.172923 0.648335 0
M  V30 790 H 77.4201 1.1184 1.71208 0
M  V30 791 H 75.5751 -0.105938 3.87255 0
M  V30 792 H 75.9891 1.85087 4.90758 0
M  V30 793 H 77.4631 0.251904 5.51425 0
M  V30 794 H 77.9401 -0.925645 4.29335 0
M  V30 795 H 78.5461 0.743207 4.18756 0
M  V30 796 N 76.8612 -1.46375 0.584142 0
M  V30 797 C 77.7912 -2.33103 -0.136037 0
M  V30 798 C 78.7722 -1.45431 -0.882255 0
M  V30 799 O 79.9572 -1.74246 -0.857434 0
M  V30 800 C 77.0872 -3.27731 -1.14933 0
M  V30 801 C 76.0412 -4.24855 -0.517862 0
M  V30 802 C 75.3672 -5.09001 -1.63773 0
M  V30 803 C 76.6672 -5.19439 0.545886 0
M  V30 804 H 78.3612 -2.93568 0.588086 0
M  V30 805 H 75.9072 -1.41166 0.284259 0
M  V30 806 H 77.8602 -3.87261 -1.66153 0
M  V30 807 H 76.5842 -2.65377 -1.90375 0
M  V30 808 H 75.2432 -3.6659 -0.0267361 0
M  V30 809 H 74.8912 -4.43031 -2.38185 0
M  V30 810 H 74.5912 -5.74777 -1.22085 0
M  V30 811 H 76.1152 -5.71396 -2.15266 0
M  V30 812 H 77.5292 -5.73177 0.118704 0
M  V30 813 H 75.9262 -5.93566 0.88317 0
M  V30 814 H 76.9962 -4.63285 1.43162 0
M  V30 815 N 78.3393 -0.321999 -1.54275 0
M  V30 816 C 79.5853 0.274234 -2.01543 0
M  V30 817 C 79.9403 1.499 -1.20614 0
M  V30 818 O 79.2333 1.89546 -0.279804 0
M  V30 819 C 79.4273 0.661769 -3.5122 0
M  V30 820 C 79.2563 -0.523892 -4.46638 0
M  V30 821 C 78.0263 -1.02251 -4.94846 0
M  V30 822 C 80.2243 -1.37558 -4.95563 0
M  V30 823 N 78.2063 -2.17274 -5.74165 0
M  V30 824 C 79.5773 -2.37301 -5.7279 0
M  V30 825 C 81.6323 -1.40353 -4.77709 0
M  V30 826 C 80.3353 -3.3964 -6.34064 0
M  V30 827 C 82.3613 -2.41562 -5.39817 0
M  V30 828 C 81.7233 -3.40031 -6.16894 0
M  V30 829 H 77.8223 0.0642367 -0.779357 0
M  V30 830 H 80.4063 -0.456683 -1.89268 0
M  V30 831 H 78.5773 1.36182 -3.63743 0
M  V30 832 H 80.3093 1.23934 -3.85256 0
M  V30 833 H 77.0643 -0.594046 -4.6986 0
M  V30 834 H 77.4883 -2.75289 -6.18502 0
M  V30 835 H 82.1303 -0.655907 -4.17681 0
M  V30 836 H 79.8483 -4.15309 -6.93213 0
M  V30 837 H 83.4343 -2.44524 -5.2792 0
M  V30 838 H 82.3143 -4.17063 -6.64099 0
M  V30 839 N 79.8174 1.5752 -0.0501392 0
M  V30 840 C 81.2284 1.80271 0.485705 0
M  V30 841 C 81.5794 0.96228 1.70981 0
M  V30 842 O 80.7044 0.178578 2.15662 0
M  V30 843 C 81.2994 3.26957 0.887938 0
M  V30 844 C 79.8584 3.5063 1.36877 0
M  V30 845 C 79.0054 2.75165 0.343468 0
M  V30 846 H 81.9564 1.56281 -0.276028 0
M  V30 847 H 81.9774 3.37821 1.75093 0
M  V30 848 H 81.4894 3.881 -0.0031809 0
M  V30 849 H 79.5904 2.94766 2.27911 0
M  V30 850 H 79.7034 4.59343 1.36164 0
M  V30 851 H 78.0674 2.4127 0.816128 0
M  V30 852 H 78.8504 3.39034 -0.539548 0
M  V30 853 N 81.2955 -0.223234 1.56011 0
M  V30 854 C 82.2425 -1.27664 1.92277 0
M  V30 855 C 83.2125 -1.46659 0.779763 0
M  V30 856 O 84.3975 -1.60256 1.03551 0
M  V30 857 C 81.5375 -2.62234 2.24338 0
M  V30 858 C 80.6505 -2.51051 3.51564 0
M  V30 859 C 79.7855 -3.78133 3.7308 0
M  V30 860 C 78.8245 -3.61665 4.93827 0
M  V30 861 N 77.9615 -4.80693 5.11741 0
M  V30 862 H 82.8015 -0.960358 2.82101 0
M  V30 863 H 80.3385 -0.462901 1.39627 0
M  V30 864 H 82.2965 -3.40596 2.40936 0
M  V30 865 H 80.9265 -2.91961 1.3769 0
M  V30 866 H 79.9785 -1.64132 3.43169 0
M  V30 867 H 81.2905 -2.34803 4.40079 0
M  V30 868 H 80.4445 -4.64938 3.89766 0
M  V30 869 H 79.1835 -3.97304 2.82844 0
M  V30 870 H 78.1885 -2.73244 4.77093 0
M  V30 871 H 79.4135 -3.43966 5.85546 0
M  V30 872 H 77.3595 -5.00181 4.24446 0
M  V30 873 H 77.2765 -4.67165 5.94384 0
M  V30 874 H 78.5445 -5.6893 5.3286 0
M  V30 875 N 82.7736 -1.49793 -0.48987 0
M  V30 876 C 84.0216 -1.59525 -1.24081 0
M  V30 877 C 84.3426 -0.288953 -1.92847 0
M  V30 878 O 83.6126 0.692436 -1.83254 0
M  V30 879 H 82.1926 -0.587796 -0.460983 0
M  V30 880 H 84.8546 -1.86477 -0.566778 0
M  V30 881 H 83.9506 -2.39696 -1.99881 0
M  V30 882 N 84.2517 0.741722 -1.39055 0
M  V30 883 C 85.4767 1.53607 -1.39354 0
M  V30 884 C 85.9017 1.88096 0.0116905 0
M  V30 885 O 85.2597 1.5143 0.996924 0
M  V30 886 C 85.3077 2.80441 -2.26682 0
M  V30 887 O 84.4117 3.76088 -1.69208 0
M  V30 888 H 83.7527 0.464142 -0.474835 0
M  V30 889 H 86.2827 0.915665 -1.82967 0
M  V30 890 H 86.2927 3.29246 -2.40959 0
M  V30 891 H 84.9677 2.5467 -3.2881 0
M  V30 892 H 83.5447 3.34833 -1.64138 0
M  V30 893 N 85.7298 1.2412 0.971189 0
M  V30 894 C 86.6778 1.02812 2.08644 0
M  V30 895 C 87.6718 -0.0358403 1.69362 0
M  V30 896 O 88.8778 0.118429 1.7961 0
M  V30 897 H 85.2528 0.315428 0.682649 0
M  V30 898 H 87.2238 1.97397 2.23779 0
M  V30 899 C 85.9728 0.645874 3.41649 0
M  V30 900 H 85.2958 1.45632 3.72332 0
M  V30 901 H 86.7358 0.536366 4.20594 0
M  V30 902 C 85.1948 -0.646713 3.30635 0
M  V30 903 O 85.7248 -1.69338 3.64263 0
M  V30 904 N 83.9308 -0.626115 2.83775 0
M  V30 905 H 83.4778 0.225988 2.56607 0
M  V30 906 H 83.4358 -1.49117 2.76788 0
M  V30 907 N 87.2079 -1.17134 1.05439 0
M  V30 908 C 88.1709 -2.19439 0.661764 0
M  V30 909 C 89.1709 -1.58199 -0.288042 0
M  V30 910 O 90.3609 -1.74053 -0.0715803 0
M  V30 911 C 87.4929 -3.40889 -0.0276209 0
M  V30 912 H 88.6859 -2.55688 1.56728 0
M  V30 913 H 86.2389 -1.31259 0.848567 0
M  V30 914 H 86.9739 -3.10187 -0.94629 0
M  V30 915 H 86.7589 -3.86586 0.655238 0
M  V30 916 H 88.2489 -4.16603 -0.288342 0
M  V30 917 N 88.686 -0.835752 -1.33615 0
M  V30 918 C 89.911 -0.442389 -2.02627 0
M  V30 919 C 90.336 0.947735 -1.62479 0
M  V30 920 O 89.694 1.61907 -0.815826 0
M  V30 921 C 89.742 -0.567216 -3.56111 0
M  V30 922 O 88.846 0.407799 -4.10379 0
M  V30 923 H 88.187 -0.180278 -0.639059 0
M  V30 924 H 90.717 -1.12972 -1.70583 0
M  V30 925 H 90.727 -0.447708 -4.05536 0
M  V30 926 H 89.402 -1.58103 -3.84677 0
M  V30 927 H 87.979 0.246107 -3.72087 0
M  V30 928 N 90.1641 1.46063 -0.591896 0
M  V30 929 C 91.0941 2.33172 0.123673 0
M  V30 930 C 92.0751 1.45897 0.87453 0
M  V30 931 O 93.2601 1.74698 0.848181 0
M  V30 932 C 90.3901 3.28336 1.13194 0
M  V30 933 C 89.3441 4.25124 0.495324 0
M  V30 934 C 88.6701 5.09863 1.61071 0
M  V30 935 C 89.9701 5.19143 -0.573425 0
M  V30 936 H 91.6641 2.93252 -0.603646 0
M  V30 937 H 89.2101 1.41014 -0.291741 0
M  V30 938 H 91.1631 3.88137 1.64097 0
M  V30 939 H 89.8871 2.66383 1.88965 0
M  V30 940 H 88.5461 3.66599 0.00729452 0
M  V30 941 H 88.1941 4.44288 2.35832 0
M  V30 942 H 87.8941 5.75417 1.19035 0
M  V30 943 H 89.4181 5.72529 2.12233 0
M  V30 944 H 90.8321 5.73106 -0.1491 0
M  V30 945 H 89.2291 5.93089 -0.914636 0
M  V30 946 H 90.2991 4.62519 -1.45617 0
M  V30 947 N 91.6422 0.330177 1.54103 0
M  V30 948 C 92.6052 -0.520144 2.2322 0
M  V30 949 C 93.6052 -1.03828 1.22786 0
M  V30 950 O 94.7952 -0.929652 1.4732 0
M  V30 951 C 91.9272 -1.72317 2.94142 0
M  V30 952 H 93.1202 0.0841605 2.99782 0
M  V30 953 H 90.6732 0.0813433 1.56088 0
M  V30 954 H 91.4082 -2.36653 2.21734 0
M  V30 955 H 91.1932 -1.35898 3.67796 0
M  V30 956 H 92.6832 -2.3266 3.46784 0
M  V30 957 N 93.1203 -1.57491 0.0584922 0
M  V30 958 C 94.5363 -1.56792 -0.298091 0
M  V30 959 C 94.7363 -1.06679 -1.70944 0
M  V30 960 O 93.7923 -0.726672 -2.41818 0
M  V30 961 C 95.1053 -3.00461 -0.119879 0
M  V30 962 C 96.6533 -3.1242 -0.190428 0
M  V30 963 C 97.1283 -4.57982 -0.0406567 0
M  V30 964 N 98.6193 -4.63099 -0.0966958 0
M  V30 965 C 99.3543 -5.734 -0.00502943 0
M  V30 966 N 98.8503 -6.9266 0.139402 0
M  V30 967 N 100.643 -5.62067 -0.0611391 0
M  V30 968 H 92.7943 -1.88386 0.98105 0
M  V30 969 H 95.0573 -0.867865 0.381463 0
M  V30 970 H 94.7633 -3.41187 0.85349 0
M  V30 971 H 94.6373 -3.66843 -0.877833 0
M  V30 972 H 97.0243 -2.71589 -1.15427 0
M  V30 973 H 97.1053 -2.48702 0.598405 0
M  V30 974 H 96.7493 -4.995 0.919897 0
M  V30 975 H 96.6793 -5.19715 -0.848727 0
M  V30 976 H 99.1703 -3.77331 -0.207277 0
M  V30 977 H 99.4833 -7.72536 0.201855 0
M  V30 978 H 97.8283 -6.94781 0.174586 0
M  V30 979 H 101.019 -4.67782 -0.172583 0
M  V30 980 H 101.192 -6.47999 0.0137562 0
M  V30 981 N 94.5984 0.214957 -1.56127 0
M  V30 982 C 95.8234 0.95924 -1.83884 0
M  V30 983 C 96.2484 1.7689 -0.639644 0
M  V30 984 O 95.6064 1.76566 0.411601 0
M  V30 985 C 95.6544 1.84723 -3.09693 0
M  V30 986 O 94.7584 2.94346 -2.8885 0
M  V30 987 H 94.0994 0.27125 -0.606069 0
M  V30 988 H 96.6294 0.226276 -2.03345 0
M  V30 989 H 96.6394 2.25576 -3.39969 0
M  V30 990 H 95.3144 1.25218 -3.96602 0
M  V30 991 H 93.8914 2.57391 -2.69823 0
M  V30 992 N 96.0765 1.50051 0.48192 0
M  V30 993 C 97.0065 1.71046 1.58951 0
M  V30 994 C 97.9875 0.559288 1.60642 0
M  V30 995 O 99.1725 0.797243 1.77081 0
M  V30 996 C 96.3025 1.79462 2.97339 0
M  V30 997 C 95.2565 2.94558 3.10515 0
M  V30 998 C 94.5825 2.88105 4.50444 0
M  V30 999 C 95.8825 4.35227 2.88747 0
M  V30 1000 H 97.5765 2.6378 1.41635 0
M  V30 1001 H 95.1225 1.26936 0.679942 0
M  V30 1002 H 97.0755 1.92734 3.74742 0
M  V30 1003 H 95.7995 0.833412 3.15788 0
M  V30 1004 H 94.4585 2.80918 2.35543 0
M  V30 1005 H 94.1065 1.89853 4.65795 0
M  V30 1006 H 93.8065 3.65366 4.60197 0
M  V30 1007 H 95.3305 3.03412 5.29881 0
M  V30 1008 H 96.7445 4.49449 3.55905 0
M  V30 1009 H 95.1415 5.13856 3.09955 0
M  V30 1010 H 96.2115 4.48347 1.84696 0
M  V30 1011 N 97.5546 -0.734337 1.39446 0
M  V30 1012 C 98.5176 -1.83004 1.37994 0
M  V30 1013 C 99.5176 -1.58397 0.276938 0
M  V30 1014 O 100.708 -1.65785 0.534875 0
M  V30 1015 C 97.8396 -3.20802 1.1532 0
M  V30 1016 H 99.0326 -1.85694 2.35494 0
M  V30 1017 H 96.5856 -0.938059 1.25021 0
M  V30 1018 H 97.3206 -3.23772 0.185036 0
M  V30 1019 H 97.1056 -3.4006 1.95197 0
M  V30 1020 H 98.5956 -4.00862 1.17046 0
M  V30 1021 N 99.0327 -1.24633 -0.964593 0
M  V30 1022 C 100.444 -1.08045 -1.5226 0
M  V30 1023 C 100.795 0.347116 -1.93105 0
M  V30 1024 O 99.9197 1.23588 -1.77637 0
M  V30 1025 C 100.515 -1.95514 -2.76695 0
M  V30 1026 C 99.0737 -1.8314 -3.28841 0
M  V30 1027 C 98.2207 -1.90262 -2.01732 0
M  V30 1028 H 101.172 -1.38064 -0.782553 0
M  V30 1029 H 101.193 -1.48925 -3.50145 0
M  V30 1030 H 100.705 -2.99407 -2.46936 0
M  V30 1031 H 98.8057 -0.82092 -3.63444 0
M  V30 1032 H 98.9187 -2.67406 -3.97531 0
M  V30 1033 H 97.2827 -1.34027 -2.16584 0
M  V30 1034 H 98.0657 -2.9574 -1.74334 0
M  V30 1035 N 100.511 1.16574 -1.06058 0
M  V30 1036 C 101.474 2.19085 -0.673392 0
M  V30 1037 C 102.474 1.5835 0.279648 0
M  V30 1038 O 103.664 1.74088 0.0623488 0
M  V30 1039 C 100.796 3.40899 0.00954234 0
M  V30 1040 H 101.989 2.54853 -1.58081 0
M  V30 1041 H 99.5418 1.30808 -0.855516 0
M  V30 1042 H 100.277 3.10684 0.929826 0
M  V30 1043 H 100.062 3.86233 -0.67573 0
M  V30 1044 H 101.552 4.1675 0.266245 0
M  V30 1045 N 101.989 0.842826 1.3317 0
M  V30 1046 C 102.899 0.281444 2.32906 0
M  V30 1047 C 103.915 -0.594587 1.63526 0
M  V30 1048 O 105.091 -0.49777 1.95152 0
M  V30 1049 C 102.156 -0.530929 3.42611 0
M  V30 1050 C 101.217 0.369843 4.27704 0
M  V30 1051 C 100.45 -0.403853 5.3217 0
M  V30 1052 O 100.673 -1.63513 5.46461 0
M  V30 1053 O 99.6069 0.224199 6.01482 0
M  V30 1054 H 103.433 1.10744 2.82789 0
M  V30 1055 H 101.018 0.60545 1.36582 0
M  V30 1056 H 102.9 -0.992437 4.09547 0
M  V30 1057 H 101.575 -1.33392 2.94938 0
M  V30 1058 H 100.482 0.879275 3.6362 0
M  V30 1059 H 101.815 1.13771 4.78871 0
M  V30 1060 N 103.467 -1.45747 0.599634 0
M  V30 1061 C 104.713 -2.02592 0.0918643 0
M  V30 1062 C 105.046 -1.46806 -1.27128 0
M  V30 1063 O 104.321 -0.639658 -1.83681 0
M  V30 1064 C 104.604 -3.60073 0.0443398 0
M  V30 1065 C 104.457 -4.26208 1.43759 0
M  V30 1066 C 105.776 -4.35309 -0.647608 0
M  V30 1067 H 102.895 -0.736175 0.034857 0
M  V30 1068 H 105.537 -1.73694 0.770081 0
M  V30 1069 H 103.687 -3.84823 -0.533224 0
M  V30 1070 H 105.359 -4.12668 2.06162 0
M  V30 1071 H 103.602 -3.84916 2.00056 0
M  V30 1072 H 104.273 -5.35069 1.35665 0
M  V30 1073 H 106.749 -4.15805 -0.156776 0
M  V30 1074 H 105.625 -5.45038 -0.649942 0
M  V30 1075 H 105.886 -4.07598 -1.71219 0
M  V30 1076 N 104.945 -0.338344 -1.53925 0
M  V30 1077 C 106.356 0.146651 -1.86123 0
M  V30 1078 C 106.707 1.5042 -1.2597 0
M  V30 1079 O 105.832 2.08723 -0.571294 0
M  V30 1080 C 106.427 0.272879 -3.37699 0
M  V30 1081 C 104.986 0.702103 -3.69794 0
M  V30 1082 C 104.133 -0.167304 -2.76795 0
M  V30 1083 H 107.084 -0.558123 -1.48562 0
M  V30 1084 H 107.105 1.10128 -3.64214 0
M  V30 1085 H 106.617 -0.715307 -3.81451 0
M  V30 1086 H 104.718 1.6995 -3.31584 0
M  V30 1087 H 104.831 0.495604 -4.7653 0
M  V30 1088 H 103.195 0.359527 -2.5215 0
M  V30 1089 H 103.978 -1.15253 -3.23375 0
M  V30 1090 N 106.423 1.57458 -0.0668435 0
M  V30 1091 C 107.37 2.12439 0.902122 0
M  V30 1092 C 108.34 1.03565 1.2986 0
M  V30 1093 O 109.525 1.312 1.38532 0
M  V30 1094 C 106.665 2.6865 2.16614 0
M  V30 1095 C 105.778 3.91663 1.82274 0
M  V30 1096 C 104.913 4.36134 3.0325 0
M  V30 1097 C 103.952 5.51808 2.64904 0
M  V30 1098 N 103.089 5.9126 3.78624 0
M  V30 1099 H 107.929 2.94934 0.426382 0
M  V30 1100 H 105.466 1.4575 0.198819 0
M  V30 1101 H 107.424 2.99346 2.90599 0
M  V30 1102 H 106.054 1.88928 2.61737 0
M  V30 1103 H 105.106 3.6746 0.983719 0
M  V30 1104 H 106.418 4.75693 1.50059 0
M  V30 1105 H 105.572 4.68465 3.85519 0
M  V30 1106 H 104.311 3.50948 3.38655 0
M  V30 1107 H 103.316 5.19133 1.81055 0
M  V30 1108 H 104.541 6.38722 2.30675 0
M  V30 1109 H 102.487 5.09024 4.138 0
M  V30 1110 H 102.404 6.70018 3.5016 0
M  V30 1111 H 103.672 6.28212 4.61486 0
M  V30 1112 N 107.901 -0.206675 1.56239 0
M  V30 1113 C 109.149 -0.927007 1.79586 0
M  V30 1114 C 109.47 -1.8427 0.637929 0
M  V30 1115 O 108.74 -1.92849 -0.344398 0
M  V30 1116 H 107.32 -0.345292 0.662407 0
M  V30 1117 H 109.982 -0.21496 1.93711 0
M  V30 1118 H 109.078 -1.52501 2.72305 0
M  V30 1119 N 109.379 -1.50304 -0.473955 0
M  V30 1120 C 110.656 -1.51667 -1.23518 0
M  V30 1121 C 111.036 -0.259701 -2.09496 0
M  V30 1122 O 110.384 0.756986 -2.15597 0
M  V30 1123 C 110.594 -2.81082 -2.06868 0
M  V30 1124 C 111.942 -3.31631 -2.65153 0
M  V30 1125 O 112.966 -2.82384 -2.17113 0
M  V30 1126 O 111.825 -4.17471 -3.52675 0
M  V30 1127 H 108.919 -0.60822 -0.560355 0
M  V30 1128 H 111.465 -1.62592 -0.486011 0
M  V30 1129 H 110.237 -3.64041 -1.4349 0
M  V30 1130 H 109.86 -2.73146 -2.88924 0
M  V30 1131 N 110.857 0.726932 -1.39834 0
M  V30 1132 C 112.273 1.03354 -1.21615 0
M  V30 1133 C 112.473 2.01327 -0.08338 0
M  V30 1134 O 111.529 2.46158 0.56238 0
M  V30 1135 C 112.842 1.58811 -2.55342 0
M  V30 1136 C 114.39 1.70851 -2.62257 0
M  V30 1137 C 114.865 2.29716 -3.96225 0
M  V30 1138 N 116.356 2.37116 -3.97907 0
M  V30 1139 C 117.091 2.83619 -4.98345 0
M  V30 1140 N 116.587 3.29958 -6.09179 0
M  V30 1141 N 118.38 2.82901 -4.8572 0
M  V30 1142 H 110.531 0.0773069 -2.12259 0
M  V30 1143 H 112.794 0.0969102 -0.943034 0
M  V30 1144 H 112.5 0.942855 -3.38826 0
M  V30 1145 H 112.374 2.57502 -2.75632 0
M  V30 1146 H 114.761 2.34497 -1.79152 0
M  V30 1147 H 114.842 0.707913 -2.45809 0
M  V30 1148 H 114.486 1.66696 -4.79765 0
M  V30 1149 H 114.416 3.30469 -4.09997 0
M  V30 1150 H 116.907 2.04374 -3.17868 0
M  V30 1151 H 117.22 3.63976 -6.8172 0
M  V30 1152 H 115.565 3.27946 -6.12761 0
M  V30 1153 H 118.756 2.46027 -3.98231 0
M  V30 1154 H 118.929 3.18827 -5.6414 0
M  V30 1155 N 112.336 1.25143 0.95797 0
M  V30 1156 C 113.564 1.12424 1.73691 0
M  V30 1157 C 113.979 -0.322304 1.86029 0
M  V30 1158 O 113.336 -1.22186 1.35561 0
M  V30 1159 C 113.387 1.76933 3.15241 0
M  V30 1160 O 113.108 3.15932 3.03511 0
M  V30 1161 C 114.609 1.6995 4.09429 0
M  V30 1162 H 111.829 0.3923 0.544373 0
M  V30 1163 H 114.373 1.6544 1.20207 0
M  V30 1164 H 112.528 1.27895 3.6568 0
M  V30 1165 H 112.942 3.47598 3.9278 0
M  V30 1166 H 114.416 2.19753 5.06372 0
M  V30 1167 H 114.893 0.662619 4.34173 0
M  V30 1168 H 115.499 2.18461 3.64904 0
M  V30 1169 N 113.814 -1.1601 1.06675 0
M  V30 1170 C 114.777 -2.18724 0.685001 0
M  V30 1171 C 115.777 -1.58496 -0.271246 0
M  V30 1172 O 116.967 -1.74119 -0.0531156 0
M  V30 1173 C 114.099 -3.40899 0.00853648 0
M  V30 1174 H 115.292 -2.54011 1.59431 0
M  V30 1175 H 112.845 -1.30352 0.862441 0
M  V30 1176 H 113.58 -3.11173 -0.913337 0
M  V30 1177 H 113.365 -3.8587 0.696204 0
M  V30 1178 H 114.855 -4.16886 -0.24414 0
M  V30 1179 N 115.292 -0.849877 -1.32721 0
M  V30 1180 C 116.54 -0.450032 -1.97026 0
M  V30 1181 C 116.861 0.996604 -1.67609 0
M  V30 1182 O 116.131 1.6958 -0.980786 0
M  V30 1183 H 114.711 -0.163426 -0.728904 0
M  V30 1184 H 117.373 -1.08526 -1.6189 0
M  V30 1185 H 116.469 -0.591146 -3.0645 0
M  V30 1186 N 116.77 1.45427 -0.607355 0
M  V30 1187 C 117.995 2.07124 -0.107006 0
M  V30 1188 C 118.42 1.44906 1.19933 0
M  V30 1189 O 117.778 0.541687 1.73019 0
M  V30 1190 C 117.826 3.60595 0.0194119 0
M  V30 1191 O 116.93 3.98285 1.0697 0
M  V30 1192 H 116.271 0.659868 -0.0739597 0
M  V30 1193 H 118.801 1.86683 -0.837297 0
M  V30 1194 H 118.811 4.07419 0.2177 0
M  V30 1195 H 117.486 4.05266 -0.934453 0
M  V30 1196 H 116.063 3.63133 0.847889 0
M  V30 1197 N 118.248 0.346503 1.53744 0
M  V30 1198 C 119.659 -0.136779 1.86198 0
M  V30 1199 C 120.01 -1.49749 1.26766 0
M  V30 1200 O 119.135 -2.08417 0.582355 0
M  V30 1201 C 119.73 -0.254966 3.37839 0
M  V30 1202 C 118.289 -0.682482 3.70161 0
M  V30 1203 C 117.436 0.181981 2.76702 0
M  V30 1204 H 120.387 0.565994 1.48264 0
M  V30 1205 H 120.408 -1.08195 3.64793 0
M  V30 1206 H 119.92 0.735526 3.81066 0
M  V30 1207 H 118.021 -1.68189 3.3248 0
M  V30 1208 H 118.134 -0.470326 4.76786 0
M  V30 1209 H 116.498 -0.34615 2.52337 0
M  V30 1210 H 117.281 1.16966 3.2276 0
M  V30 1211 N 119.726 -1.57421 0.075193 0
M  V30 1212 C 121.137 -1.81021 -0.456964 0
M  V30 1213 C 121.488 -0.98936 -1.69429 0
M  V30 1214 O 120.613 -0.212865 -2.15351 0
M  V30 1215 C 121.208 -3.28329 -0.83581 0
M  V30 1216 C 119.767 -3.52764 -1.31281 0
M  V30 1217 C 118.914 -2.75676 -0.299648 0
M  V30 1218 H 121.865 -1.55822 0.300856 0
M  V30 1219 H 121.886 -3.40564 -1.69696 0
M  V30 1220 H 121.398 -3.88046 0.0649238 0
M  V30 1221 H 119.499 -2.98355 -2.23193 0
M  V30 1222 H 119.612 -4.61451 -1.28839 0
M  V30 1223 H 117.976 -2.42538 -0.777641 0
M  V30 1224 H 118.759 -3.38132 0.593417 0
M  V30 1225 N 121.204 0.198386 -1.56346 0
M  V30 1226 C 122.62 0.549085 -1.49857 0
M  V30 1227 C 122.82 1.86016 -0.774611 0
M  V30 1228 O 121.876 2.50416 -0.323776 0
M  V30 1229 C 123.189 0.606868 -2.94512 0
M  V30 1230 C 124.737 0.695925 -3.05165 0
M  V30 1231 C 125.212 0.784848 -4.51225 0
M  V30 1232 N 126.703 0.848463 -4.55363 0
M  V30 1233 C 127.438 0.937378 -5.65686 0
M  V30 1234 N 126.934 0.9888 -6.85707 0
M  V30 1235 N 128.727 0.974312 -5.53592 0
M  V30 1236 H 120.878 -0.661655 -2.01831 0
M  V30 1237 H 123.141 -0.235261 -0.918344 0
M  V30 1238 H 122.847 -0.28732 -3.50524 0
M  V30 1239 H 122.721 1.46268 -3.47686 0
M  V30 1240 H 125.108 1.58055 -2.49204 0
M  V30 1241 H 125.189 -0.186022 -2.55123 0
M  V30 1242 H 124.833 -0.0954072 -5.0781 0
M  V30 1243 H 124.763 1.68255 -4.98997 0
M  V30 1244 H 127.254 0.818103 -3.68938 0
M  V30 1245 H 127.567 1.05707 -7.65536 0
M  V30 1246 H 125.912 0.957534 -6.88372 0
M  V30 1247 H 129.103 0.930954 -4.58749 0
M  V30 1248 H 129.276 1.04015 -6.39597 0
M  V30 1249 N 122.682 1.50554 0.465978 0
M  V30 1250 C 123.91 1.65563 1.24083 0
M  V30 1251 C 124.325 0.341051 1.85694 0
M  V30 1252 O 123.682 -0.677543 1.69457 0
M  V30 1253 C 123.733 2.75051 2.34583 0
M  V30 1254 O 123.454 4.01413 1.75497 0
M  V30 1255 C 124.955 3.01078 3.25372 0
M  V30 1256 H 122.175 0.55638 0.375077 0
M  V30 1257 H 124.719 1.96807 0.555624 0
M  V30 1258 H 122.874 2.46486 2.9887 0
M  V30 1259 H 123.288 4.62002 2.48303 0
M  V30 1260 H 124.762 3.81339 3.99105 0
M  V30 1261 H 125.239 2.12349 3.84453 0
M  V30 1262 H 125.845 3.31194 2.66816 0
M  V30 1263 N 124.16 -0.719506 1.40217 0
M  V30 1264 C 125.409 -1.47486 1.37589 0
M  V30 1265 C 125.722 -1.9559 -0.0201568 0
M  V30 1266 O 126.928 -2.70973 -0.169049 0
M  V30 1267 C 125.384 -2.66575 2.41796 0
M  V30 1268 C 124.992 -2.25358 3.87192 0
M  V30 1269 C 126.736 -3.4433 2.48269 0
M  V30 1270 C 124.643 -3.41262 4.83005 0
M  V30 1271 H 123.573 -0.553901 0.511576 0
M  V30 1272 H 126.224 -0.783427 1.65936 0
M  V30 1273 H 124.606 -3.3787 2.06543 0
M  V30 1274 H 125.78 -1.61509 4.31569 0
M  V30 1275 H 124.095 -1.60657 3.84159 0
M  V30 1276 H 126.692 -4.30569 3.17041 0
M  V30 1277 H 127.035 -3.87872 1.51198 0
M  V30 1278 H 127.568 -2.80076 2.82493 0
M  V30 1279 H 124.307 -3.02755 5.81394 0
M  V30 1280 H 123.827 -4.0404 4.43297 0
M  V30 1281 H 125.506 -4.07383 5.02641 0
M  V30 1282 N 125.638 -1.25649 -0.95132 0
M  V30 1283 C 126.863 -1.13443 -1.73624 0
M  V30 1284 C 127.288 0.307565 -1.85568 0
M  V30 1285 O 126.646 1.22282 -1.33854 0
M  V30 1286 C 126.694 -1.79723 -3.12621 0
M  V30 1287 O 125.798 -1.07912 -3.98031 0
M  V30 1288 H 125.139 -0.395872 -0.533086 0
M  V30 1289 H 127.669 -1.66276 -1.1922 0
M  V30 1290 H 127.679 -1.86141 -3.63064 0
M  V30 1291 H 126.354 -2.84633 -3.03244 0
M  V30 1292 H 124.931 -1.09398 -3.56492 0
M  V30 1293 N 127.117 1.15442 -1.07289 0
M  V30 1294 C 128.528 1.67803 -0.818475 0
M  V30 1295 C 128.879 1.8489 0.656507 0
M  V30 1296 O 128.004 1.55176 1.50829 0
M  V30 1297 C 128.599 3.04805 -1.47917 0
M  V30 1298 C 127.158 3.54245 -1.27229 0
M  V30 1299 C 126.305 2.29986 -1.54925 0
M  V30 1300 H 129.256 0.996646 -1.23502 0
M  V30 1301 H 129.277 3.69702 -0.90005 0
M  V30 1302 H 128.789 2.92336 -2.55267 0
M  V30 1303 H 126.89 3.71956 -0.21899 0
M  V30 1304 H 127.003 4.35723 -1.99203 0
M  V30 1305 H 125.367 2.35496 -0.970242 0
M  V30 1306 H 126.15 2.20105 -2.63455 0
M  V30 1307 N 128.595 0.856903 1.32268 0
M  V30 1308 C 130.006 0.515711 1.79436 0
M  V30 1309 C 130.357 -0.966586 1.70738 0
M  V30 1310 O 129.482 -1.75409 1.26731 0
M  V30 1311 C 130.077 0.929335 3.25805 0
M  V30 1312 C 128.636 0.640006 3.70919 0
M  V30 1313 C 127.783 1.12784 2.53328 0
M  V30 1314 H 130.734 1.04389 1.19535 0
M  V30 1315 H 130.755 0.246633 3.797 0
M  V30 1316 H 130.267 2.00821 3.32103 0
M  V30 1317 H 128.368 -0.428051 3.70133 0
M  V30 1318 H 128.481 1.20788 4.63624 0
M  V30 1319 H 126.845 0.548033 2.48734 0
M  V30 1320 H 127.628 2.21387 2.62379 0
M  V30 1321 N 130.073 -1.45103 0.615059 0
M  V30 1322 C 131.484 -1.85654 0.197383 0
M  V30 1323 C 131.835 -1.51433 -1.24749 0
M  V30 1324 O 130.96 -0.944608 -1.94695 0
M  V30 1325 C 131.555 -3.36972 0.351448 0
M  V30 1326 C 130.114 -3.76398 -0.011593 0
M  V30 1327 C 129.261 -2.69024 0.672394 0
M  V30 1328 H 132.212 -1.35797 0.821263 0
M  V30 1329 H 132.233 -3.78239 -0.414227 0
M  V30 1330 H 131.745 -3.61847 1.40314 0
M  V30 1331 H 129.846 -3.5714 -1.06217 0
M  V30 1332 H 129.959 -4.77532 0.387265 0
M  V30 1333 H 128.323 -2.54465 0.109284 0
M  V30 1334 H 129.106 -2.96735 1.72636 0
M  V30 1335 N 131.551 -0.354651 -1.53558 0
M  V30 1336 C 132.791 0.238651 -2.03002 0
M  V30 1337 C 133.155 1.46878 -1.23656 0
M  V30 1338 O 134.356 2.13699 -1.63053 0
M  V30 1339 C 132.627 0.534175 -3.53386 0
M  V30 1340 S 134.186 1.10271 -4.24719 0
M  V30 1341 H 131.004 0.0702908 -0.707517 0
M  V30 1342 H 133.606 -0.494987 -1.8913 0
M  V30 1343 H 132.31 -0.368765 -4.0874 0
M  V30 1344 H 131.841 1.29718 -3.71398 0
M  V30 1345 H 133.856 2.38772 -4.34974 0
M  V30 1346 N 133.029 1.57378 -0.0835403 0
M  V30 1347 C 133.961 2.10389 0.909338 0
M  V30 1348 C 134.974 1.03858 1.25369 0
M  V30 1349 O 136.163 1.31338 1.20882 0
M  V30 1350 C 133.263 2.55908 2.2218 0
M  V30 1351 C 132.436 3.86145 2.05453 0
M  V30 1352 C 131.495 4.17633 3.20108 0
M  V30 1353 O 130.521 4.87043 2.94581 0
M  V30 1354 N 131.723 3.72113 4.45547 0
M  V30 1355 H 134.488 2.962 0.456657 0
M  V30 1356 H 132.049 1.61579 0.101877 0
M  V30 1357 H 134.041 2.74027 2.97811 0
M  V30 1358 H 132.611 1.75171 2.58909 0
M  V30 1359 H 131.831 3.7729 1.1422 0
M  V30 1360 H 133.119 4.7137 1.91541 0
M  V30 1361 H 132.517 3.16062 4.69171 0
M  V30 1362 H 131.074 3.95409 5.18165 0
M  V30 1363 N 134.507 -0.190092 1.56449 0
M  V30 1364 C 135.755 -0.907908 1.80559 0
M  V30 1365 C 136.076 -1.83583 0.657438 0
M  V30 1366 O 135.346 -1.93203 -0.323924 0
M  V30 1367 H 133.926 -0.338247 0.666032 0
M  V30 1368 H 136.588 -0.194403 1.93928 0
M  V30 1369 H 135.684 -1.49604 2.73907 0
M  V30 1370 N 135.985 -1.50799 -0.457987 0
M  V30 1371 C 137.396 -1.55152 -1.0385 0
M  V30 1372 C 137.747 -0.362719 -1.92818 0
M  V30 1373 O 136.872 0.522915 -2.09987 0
M  V30 1374 C 137.467 -2.81173 -1.89017 0
M  V30 1375 C 136.026 -2.88164 -2.42154 0
M  V30 1376 C 135.173 -2.49591 -1.20829 0
M  V30 1377 H 138.124 -1.56874 -0.240068 0
M  V30 1378 H 138.145 -2.63769 -2.74238 0
M  V30 1379 H 137.657 -3.67677 -1.24238 0
M  V30 1380 H 135.758 -2.06042 -3.10447 0
M  V30 1381 H 135.871 -3.91356 -2.76364 0
M  V30 1382 H 134.235 -2.02322 -1.54719 0
M  V30 1383 H 135.018 -3.38418 -0.576927 0
M  V30 1384 N 137.463 0.71206 -1.40597 0
M  V30 1385 C 138.712 1.46754 -1.38369 0
M  V30 1386 C 139.025 1.95598 0.0097839 0
M  V30 1387 O 140.231 2.71059 0.154677 0
M  V30 1388 C 138.687 2.65289 -2.43207 0
M  V30 1389 C 138.295 2.23301 -3.88382 0
M  V30 1390 C 140.039 3.43008 -2.50091 0
M  V30 1391 C 137.946 3.38696 -4.84808 0
M  V30 1392 H 136.876 0.55118 -0.514506 0
M  V30 1393 H 139.527 0.774616 -1.66349 0
M  V30 1394 H 137.909 3.36769 -2.08332 0
M  V30 1395 H 139.083 1.59218 -4.32419 0
M  V30 1396 H 137.398 1.58618 -3.85006 0
M  V30 1397 H 139.995 4.28881 -3.1932 0
M  V30 1398 H 140.338 3.87065 -1.53253 0
M  V30 1399 H 140.871 2.78574 -2.83974 0
M  V30 1400 H 137.61 2.99668 -5.82992 0
M  V30 1401 H 137.13 4.01683 -4.45433 0
M  V30 1402 H 138.809 4.04712 -5.04794 0
M  V30 1403 N 138.941 1.26152 0.944643 0
M  V30 1404 C 139.851 1.09176 2.07648 0
M  V30 1405 C 140.867 0.0261935 1.7398 0
M  V30 1406 O 142.043 0.229208 2.00091 0
M  V30 1407 C 139.108 0.722915 3.39079 0
M  V30 1408 C 138.169 1.86752 3.86552 0
M  V30 1409 C 137.402 1.51617 5.11711 0
M  V30 1410 O 137.625 0.416331 5.68879 0
M  V30 1411 O 136.559 2.34975 5.54139 0
M  V30 1412 H 140.385 2.0412 2.24875 0
M  V30 1413 H 137.97 1.05182 1.061 0
M  V30 1414 H 139.852 0.529787 4.18056 0
M  V30 1415 H 138.527 -0.197159 3.23099 0
M  V30 1416 H 137.434 2.11558 3.08535 0
M  V30 1417 H 138.767 2.76719 4.07047 0
M  V30 1418 N 140.419 -1.14872 1.07899 0
M  V30 1419 C 141.668 -1.85135 0.800499 0
M  V30 1420 C 141.981 -1.83547 -0.676014 0
M  V30 1421 O 143.187 -2.49548 -1.06948 0
M  V30 1422 C 141.643 -3.3231 1.38197 0
M  V30 1423 C 141.251 -3.42329 2.8899 0
M  V30 1424 C 142.995 -4.0772 1.18174 0
M  V30 1425 C 140.902 -4.83684 3.403 0
M  V30 1426 H 139.832 -0.693563 0.29578 0
M  V30 1427 H 142.483 -1.29532 1.29976 0
M  V30 1428 H 140.865 -3.87618 0.810431 0
M  V30 1429 H 142.039 -2.97097 3.52236 0
M  V30 1430 H 140.354 -2.80369 3.07867 0
M  V30 1431 H 142.951 -5.12049 1.5398 0
M  V30 1432 H 143.294 -4.16124 0.12117 0
M  V30 1433 H 143.827 -3.58696 1.71994 0
M  V30 1434 H 140.566 -4.80465 4.45907 0
M  V30 1435 H 140.086 -5.29474 2.81811 0
M  V30 1436 H 141.765 -5.52558 3.36584 0
M  V30 1437 N 141.898 -0.863906 -1.31812 0
M  V30 1438 C 142.845 -0.313303 -2.28664 0
M  V30 1439 C 143.815 0.584868 -1.55462 0
M  V30 1440 O 145 0.517805 -1.83639 0
M  V30 1441 C 142.14 0.48441 -3.41683 0
M  V30 1442 C 141.253 -0.440594 -4.29747 0
M  V30 1443 C 140.388 0.370652 -5.29905 0
M  V30 1444 C 139.427 -0.551164 -6.09613 0
M  V30 1445 N 138.564 0.223462 -7.01744 0
M  V30 1446 H 143.404 -1.14444 -2.75148 0
M  V30 1447 H 140.941 -0.575769 -1.35364 0
M  V30 1448 H 142.899 0.962627 -4.05943 0
M  V30 1449 H 141.529 1.28029 -2.96325 0
M  V30 1450 H 140.581 -1.03724 -3.65986 0
M  V30 1451 H 141.893 -1.14767 -4.85417 0
M  V30 1452 H 141.047 0.911638 -5.99812 0
M  V30 1453 H 139.786 1.11105 -4.74876 0
M  V30 1454 H 138.791 -1.10396 -5.38603 0
M  V30 1455 H 140.016 -1.29032 -6.66729 0
M  V30 1456 H 137.962 0.946787 -6.49132 0
M  V30 1457 H 137.879 -0.424399 -7.54808 0
M  V30 1458 H 139.147 0.745876 -7.75923 0
M  V30 1459 N 143.376 1.44774 -0.622745 0
M  V30 1460 C 144.286 2.34433 0.0886031 0
M  V30 1461 C 145.302 1.52131 0.844529 0
M  V30 1462 O 146.478 1.84886 0.798691 0
M  V30 1463 C 143.543 3.29986 1.0635 0
M  V30 1464 C 142.604 4.28195 0.307873 0
M  V30 1465 C 141.837 5.19183 1.23633 0
M  V30 1466 O 142.06 5.13918 2.47476 0
M  V30 1467 O 140.994 5.97515 0.725189 0
M  V30 1468 H 144.82 2.96693 -0.648599 0
M  V30 1469 H 142.405 1.44408 -0.382957 0
M  V30 1470 H 144.287 3.88825 1.6246 0
M  V30 1471 H 142.962 2.70269 1.78146 0
M  V30 1472 H 141.869 3.72927 -0.296064 0
M  V30 1473 H 143.202 4.90808 -0.3699 0
M  V30 1474 N 144.854 0.36279 1.53368 0
M  V30 1475 C 146.082 -0.228613 2.05633 0
M  V30 1476 C 146.497 -1.42676 1.23649 0
M  V30 1477 O 145.854 -1.80394 0.27647 0
M  V30 1478 C 145.905 -0.624845 3.56059 0
M  V30 1479 O 145.626 0.525675 4.34935 0
M  V30 1480 C 147.127 -1.27493 4.24571 0
M  V30 1481 H 144.347 -0.0407183 0.669763 0
M  V30 1482 H 146.891 0.520352 1.97769 0
M  V30 1483 H 145.046 -1.32373 3.64083 0
M  V30 1484 H 145.46 0.205969 5.24095 0
M  V30 1485 H 146.934 -1.50277 5.31151 0
M  V30 1486 H 147.411 -2.23439 3.78116 0
M  V30 1487 H 148.017 -0.617558 4.20792 0
M  V30 1488 N 146.332 -1.57332 0.0918853 0
M  V30 1489 C 147.579 -1.94236 -0.572577 0
M  V30 1490 C 147.907 -0.973398 -1.6839 0
M  V30 1491 O 147.162 0.00756912 -1.95699 0
M  V30 1492 C 147.461 -3.37689 -1.17051 0
M  V30 1493 C 147.127 -4.50527 -0.183304 0
M  V30 1494 C 145.789 -4.81119 0.0882276 0
M  V30 1495 C 148.141 -5.18883 0.49095 0
M  V30 1496 C 145.469 -5.77395 1.04076 0
M  V30 1497 C 147.821 -6.1618 1.43193 0
M  V30 1498 C 146.485 -6.45179 1.71173 0
M  V30 1499 H 145.755 -0.710762 -0.209521 0
M  V30 1500 H 148.402 -1.9077 0.167036 0
M  V30 1501 H 146.707 -3.37718 -1.9863 0
M  V30 1502 H 148.404 -3.63543 -1.69227 0
M  V30 1503 H 144.994 -4.26681 -0.405124 0
M  V30 1504 H 149.178 -4.95427 0.294312 0
M  V30 1505 H 144.434 -5.98179 1.26457 0
M  V30 1506 H 148.608 -6.68243 1.96023 0
M  V30 1507 H 146.235 -7.1959 2.4514 0
M  V30 1508 N 147.81 0.181792 -1.56548 0
M  V30 1509 C 148.757 1.22521 -1.95595 0
M  V30 1510 C 149.727 1.4454 -0.818373 0
M  V30 1511 O 150.912 1.57454 -1.07763 0
M  V30 1512 C 148.052 2.56193 -2.31212 0
M  V30 1513 C 147.165 2.41641 -3.58097 0
M  V30 1514 C 146.3 3.68108 -3.82975 0
M  V30 1515 C 145.339 3.48445 -5.03242 0
M  V30 1516 N 144.476 4.66956 -5.24306 0
M  V30 1517 H 149.316 0.885226 -2.84548 0
M  V30 1518 H 146.853 0.425718 -1.40805 0
M  V30 1519 H 148.811 3.34088 -2.49882 0
M  V30 1520 H 147.441 2.88208 -1.45382 0
M  V30 1521 H 146.493 1.54976 -3.474 0
M  V30 1522 H 147.805 2.23052 -4.46149 0
M  V30 1523 H 146.959 4.54441 -4.01956 0
M  V30 1524 H 145.698 3.89666 -2.93278 0
M  V30 1525 H 144.703 2.60499 -4.8417 0
M  V30 1526 H 145.928 3.2832 -5.9446 0
M  V30 1527 H 143.874 4.88752 -4.37559 0
M  V30 1528 H 143.791 4.51242 -6.06561 0
M  V30 1529 H 145.059 5.54602 -5.47756 0
M  V30 1530 N 149.288 1.51039 0.449983 0
M  V30 1531 C 150.518 1.66627 1.22143 0
M  V30 1532 C 150.926 0.357776 1.85786 0
M  V30 1533 O 150.269 -0.672424 1.70951 0
M  V30 1534 C 150.331 2.71562 2.35573 0
M  V30 1535 C 149.995 4.14526 1.92399 0
M  V30 1536 C 150.992 4.99717 1.43453 0
M  V30 1537 C 148.677 4.60559 2.00475 0
M  V30 1538 C 150.671 6.28998 1.03155 0
M  V30 1539 C 148.358 5.8984 1.59788 0
M  V30 1540 C 149.356 6.73886 1.11208 0
M  V30 1541 O 149.044 8.0075 0.710935 0
M  V30 1542 H 148.776 0.562635 0.374724 0
M  V30 1543 H 151.33 1.98146 0.541036 0
M  V30 1544 H 149.56 2.3533 3.06849 0
M  V30 1545 H 151.249 2.76156 2.97478 0
M  V30 1546 H 152.015 4.65361 1.36618 0
M  V30 1547 H 147.894 3.95273 2.37235 0
M  V30 1548 H 151.438 6.9455 0.651663 0
M  V30 1549 H 147.335 6.23713 1.66289 0
M  V30 1550 H 148.103 8.142 0.837913 0
M  V30 1551 N 150.766 -0.704594 1.40972 0
M  V30 1552 C 152.015 -1.46018 1.39146 0
M  V30 1553 C 152.328 -1.956 0.000589254 0
M  V30 1554 O 153.534 -2.71137 -0.1403 0
M  V30 1555 C 151.99 -2.63996 2.4461 0
M  V30 1556 C 151.598 -2.21238 3.89561 0
M  V30 1557 C 153.342 -3.41677 2.51907 0
M  V30 1558 C 151.249 -3.3612 4.86598 0
M  V30 1559 H 150.179 -0.548444 0.517422 0
M  V30 1560 H 152.83 -0.765784 1.66757 0
M  V30 1561 H 151.212 -3.3566 2.10115 0
M  V30 1562 H 152.386 -1.56923 4.33257 0
M  V30 1563 H 150.701 -1.56574 3.85841 0
M  V30 1564 H 153.298 -4.27182 3.2159 0
M  V30 1565 H 153.641 -3.86247 1.55303 0
M  V30 1566 H 154.174 -2.77064 2.85448 0
M  V30 1567 H 150.913 -2.96572 5.84573 0
M  V30 1568 H 150.433 -3.99315 4.47557 0
M  V30 1569 H 152.112 -4.02029 5.06934 0
M  V30 1570 N 152.244 -1.26651 -0.937939 0
M  V30 1571 C 153.192 -1.08308 -2.05845 0
M  V30 1572 C 154.186 -0.0090757 -1.69398 0
M  V30 1573 O 155.392 -0.166007 -1.79233 0
M  V30 1574 H 151.767 -0.333416 -0.674046 0
M  V30 1575 H 153.738 -2.03261 -2.18467 0
M  V30 1576 C 152.487 -0.736229 -3.39816 0
M  V30 1577 H 151.81 -1.55453 -3.6834 0
M  V30 1578 H 153.25 -0.64769 -4.19024 0
M  V30 1579 C 151.709 0.558824 -3.32233 0
M  V30 1580 O 152.239 1.59621 -3.68624 0
M  V30 1581 N 150.445 0.550657 -2.85335 0
M  V30 1582 H 149.992 -0.293943 -2.55917 0
M  V30 1583 H 149.95 1.41726 -2.80644 0
M  V30 1584 N 153.722 1.14298 -1.08507 0
M  V30 1585 C 154.95 1.89219 -0.836876 0
M  V30 1586 C 155.365 1.78638 0.611054 0
M  V30 1587 O 154.722 1.14643 1.41998 0
M  V30 1588 C 154.773 3.39158 -1.25116 0
M  V30 1589 O 154.494 3.49449 -2.64229 0
M  V30 1590 C 155.995 4.31073 -1.03398 0
M  V30 1591 H 153.215 0.599328 -0.301739 0
M  V30 1592 H 155.759 1.44746 -1.44461 0
M  V30 1593 H 153.914 3.81251 -0.687514 0
M  V30 1594 H 154.328 4.42589 -2.81452 0
M  V30 1595 H 155.802 5.34646 -1.37323 0
M  V30 1596 H 156.279 4.3919 0.0289259 0
M  V30 1597 H 156.885 3.94738 -1.58311 0
M  V30 1598 N 155.201 0.870884 1.31352 0
M  V30 1599 C 156.447 0.482987 1.96965 0
M  V30 1600 C 156.78 -0.962462 1.68672 0
M  V30 1601 O 156.055 -1.6779 0.98371 0
M  V30 1602 C 156.338 0.741752 3.52378 0
M  V30 1603 C 156.191 2.2368 3.9024 0
M  V30 1604 C 157.51 0.208838 4.39604 0
M  V30 1605 H 154.629 0.176955 0.715441 0
M  V30 1606 H 157.271 1.09229 1.55464 0
M  V30 1607 H 155.421 0.223149 3.87859 0
M  V30 1608 H 157.093 2.82273 3.64856 0
M  V30 1609 H 155.336 2.70901 3.38814 0
M  V30 1610 H 156.007 2.3685 4.98604 0
M  V30 1611 H 158.483 0.652529 4.10952 0
M  V30 1612 H 157.359 0.419336 5.47296 0
M  V30 1613 H 157.62 -0.889275 4.33064 0
M  V30 1614 N 156.679 -1.44442 0.630414 0
M  V30 1615 C 157.925 -2.02351 0.134816 0
M  V30 1616 C 158.258 -1.4947 -1.23986 0
M  V30 1617 O 157.533 -0.678475 -1.82283 0
M  V30 1618 C 157.816 -3.59898 0.120707 0
M  V30 1619 C 157.669 -4.23063 1.52767 0
M  V30 1620 C 158.988 -4.36585 -0.555127 0
M  V30 1621 H 156.107 -0.73527 0.0504646 0
M  V30 1622 H 158.749 -1.72022 0.806751 0
M  V30 1623 H 156.899 -3.85868 -0.451477 0
M  V30 1624 H 158.571 -4.08202 2.14869 0
M  V30 1625 H 156.814 -3.80586 2.08175 0
M  V30 1626 H 157.485 -5.32071 1.46984 0
M  V30 1627 H 159.961 -4.16044 -0.0685429 0
M  V30 1628 H 158.837 -5.46294 -0.534185 0
M  V30 1629 H 159.098 -4.11138 -1.62535 0
M  V30 1630 N 158.157 -0.370918 -1.53173 0
M  V30 1631 C 159.382 0.220293 -2.06227 0
M  V30 1632 C 159.807 1.41243 -1.24225 0
M  V30 1633 O 159.165 1.79387 -0.262645 0
M  V30 1634 C 159.213 0.586663 -3.55796 0
M  V30 1635 O 158.317 1.68317 -3.76488 0
M  V30 1636 H 157.658 0.0308099 -0.663285 0
M  V30 1637 H 160.188 -0.533068 -1.97534 0
M  V30 1638 H 160.198 0.85617 -3.98916 0
M  V30 1639 H 158.873 -0.285013 -4.14922 0
M  V30 1640 H 157.45 1.40881 -3.45264 0
M  V30 1641 N 159.635 1.57281 -0.100228 0
M  V30 1642 C 160.875 1.96419 0.56558 0
M  V30 1643 C 161.239 0.981265 1.65031 0
M  V30 1644 O 162.44 1.26133 2.37369 0
M  V30 1645 C 160.711 3.39996 1.10171 0
M  V30 1646 S 162.27 4.01134 1.77867 0
M  V30 1647 H 159.088 0.68667 0.184406 0
M  V30 1648 H 161.69 1.94662 -0.180851 0
M  V30 1649 H 160.394 4.09296 0.300803 0
M  V30 1650 H 159.925 3.45361 1.88385 0
M  V30 1651 H 161.94 3.90358 3.06326 0
M  V30 1652 N 161.113 -0.173488 1.56642 0
M  V30 1653 C 162.043 -1.2171 1.99271 0
M  V30 1654 C 163.024 -1.46289 0.867959 0
M  V30 1655 O 164.209 -1.5766 1.13388 0
M  V30 1656 C 161.339 -2.55651 2.35074 0
M  V30 1657 C 160.293 -2.45645 3.50489 0
M  V30 1658 C 159.619 -3.84056 3.72028 0
M  V30 1659 C 160.919 -1.96302 4.84007 0
M  V30 1660 H 162.613 -0.86275 2.867 0
M  V30 1661 H 160.159 -0.413571 1.37933 0
M  V30 1662 H 162.112 -3.2886 2.63494 0
M  V30 1663 H 160.836 -2.92869 1.44552 0
M  V30 1664 H 159.495 -1.7489 3.22194 0
M  V30 1665 H 159.143 -4.18664 2.788 0
M  V30 1666 H 158.843 -3.7823 4.49684 0
M  V30 1667 H 160.367 -4.58854 4.02846 0
M  V30 1668 H 161.781 -2.59284 5.11317 0
M  V30 1669 H 160.178 -2.01429 5.65284 0
M  V30 1670 H 161.248 -0.917226 4.76146 0
M  V30 1671 N 162.591 -1.51276 -0.441967 0
M  V30 1672 C 163.837 -1.63958 -1.19355 0
M  V30 1673 C 164.17 -0.352543 -1.90973 0
M  V30 1674 O 163.445 0.647627 -1.83401 0
M  V30 1675 C 163.728 -2.83979 -2.21422 0
M  V30 1676 C 163.581 -4.22646 -1.53918 0
M  V30 1677 C 164.9 -2.99521 -3.22451 0
M  V30 1678 H 162.019 -0.596709 -0.432559 0
M  V30 1679 H 164.661 -1.83748 -0.483398 0
M  V30 1680 H 162.811 -2.67237 -2.81987 0
M  V30 1681 H 164.483 -4.51045 -0.967256 0
M  V30 1682 H 162.726 -4.25558 -0.841615 0
M  V30 1683 H 163.397 -5.02609 -2.28229 0
M  V30 1684 H 165.873 -3.14944 -2.71937 0
M  V30 1685 H 164.749 -3.85072 -3.91166 0
M  V30 1686 H 165.01 -2.11391 -3.88287 0
M  V30 1687 N 164.069 0.697108 -1.41344 0
M  V30 1688 C 165.316 1.45714 -1.40619 0
M  V30 1689 C 165.644 1.94494 -0.0147907 0
M  V30 1690 O 164.899 1.69794 0.973066 0
M  V30 1691 C 165.198 2.68553 -2.35826 0
M  V30 1692 C 164.864 2.38438 -3.82698 0
M  V30 1693 C 163.526 2.29936 -4.22709 0
M  V30 1694 C 165.878 2.13567 -4.75435 0
M  V30 1695 C 163.206 1.94656 -5.53467 0
M  V30 1696 C 165.558 1.79797 -6.06511 0
M  V30 1697 C 164.222 1.69789 -6.45545 0
M  V30 1698 H 163.492 0.533206 -0.51456 0
M  V30 1699 H 166.139 0.796901 -1.74131 0
M  V30 1700 H 164.444 3.39503 -1.95563 0
M  V30 1701 H 166.141 3.2669 -2.32539 0
M  V30 1702 H 162.731 2.4595 -3.51008 0
M  V30 1703 H 166.915 2.19082 -4.45328 0
M  V30 1704 H 162.171 1.8546 -5.82593 0
M  V30 1705 H 166.345 1.59572 -6.77872 0
M  V30 1706 H 163.972 1.4222 -7.46778 0
M  V30 1707 N 165.547 1.27147 0.931209 0
M  V30 1708 C 166.793 1.13446 1.68101 0
M  V30 1709 C 167.126 -0.319628 1.91552 0
M  V30 1710 O 166.401 -1.23407 1.50336 0
M  V30 1711 C 166.684 1.91482 3.0497 0
M  V30 1712 C 166.537 3.44855 2.88782 0
M  V30 1713 C 167.856 1.71651 4.05246 0
M  V30 1714 H 164.975 0.413498 0.610072 0
M  V30 1715 H 167.617 1.56261 1.08086 0
M  V30 1716 H 165.767 1.55095 3.56199 0
M  V30 1717 H 167.439 3.9105 2.44698 0
M  V30 1718 H 165.682 3.71373 2.24198 0
M  V30 1719 H 166.353 3.94694 3.85902 0
M  V30 1720 H 168.829 2.0337 3.63015 0
M  V30 1721 H 167.705 2.28651 4.99009 0
M  V30 1722 H 167.966 0.663555 4.37092 0
M  V30 1723 N 167.025 -1.13721 1.09112 0
M  V30 1724 C 167.955 -2.21148 0.749385 0
M  V30 1725 C 168.936 -1.6792 -0.271475 0
M  V30 1726 O 170.121 -1.93693 -0.140251 0
M  V30 1727 C 167.251 -3.46905 0.165659 0
M  V30 1728 C 166.205 -4.13203 1.11567 0
M  V30 1729 C 165.531 -5.33248 0.393809 0
M  V30 1730 C 166.831 -4.60912 2.45678 0
M  V30 1731 H 168.525 -2.4999 1.64758 0
M  V30 1732 H 166.071 -1.20156 0.793626 0
M  V30 1733 H 168.024 -4.21313 -0.085466 0
M  V30 1734 H 166.748 -3.17449 -0.767714 0
M  V30 1735 H 165.407 -3.40758 1.35202 0
M  V30 1736 H 165.055 -5.00054 -0.543599 0
M  V30 1737 H 164.755 -5.78552 1.02721 0
M  V30 1738 H 166.279 -6.10413 0.150908 0
M  V30 1739 H 167.693 -5.26759 2.26269 0
M  V30 1740 H 166.09 -5.16944 3.04776 0
M  V30 1741 H 167.16 -3.75603 3.06677 0
M  V30 1742 N 168.503 -0.877838 -1.30888 0
M  V30 1743 C 169.751 -0.491723 -1.96027 0
M  V30 1744 C 170.072 0.960827 -1.69685 0
M  V30 1745 O 169.342 1.67462 -1.01654 0
M  V30 1746 H 167.922 -0.17885 -0.725273 0
M  V30 1747 H 170.584 -1.11935 -1.59551 0
M  V30 1748 H 169.68 -0.656016 -3.05128 0
M  V30 1749 N 169.982 1.44106 -0.638065 0
M  V30 1750 C 171.231 2.01194 -0.142744 0
M  V30 1751 C 171.544 1.50835 1.24532 0
M  V30 1752 O 172.75 2.00096 1.83504 0
M  V30 1753 C 171.206 3.59319 -0.20442 0
M  V30 1754 C 170.814 4.18674 -1.59423 0
M  V30 1755 C 172.558 4.23854 0.234079 0
M  V30 1756 C 170.465 5.69045 -1.61065 0
M  V30 1757 H 169.395 0.752367 -0.0495998 0
M  V30 1758 H 172.046 1.65246 -0.797881 0
M  V30 1759 H 170.428 3.92598 0.517946 0
M  V30 1760 H 171.602 3.96921 -2.34074 0
M  V30 1761 H 169.917 3.66453 -1.97741 0
M  V30 1762 H 172.514 5.34155 0.241443 0
M  V30 1763 H 172.857 3.96688 1.2627 0
M  V30 1764 H 173.39 3.95403 -0.436025 0
M  V30 1765 H 170.129 6.00956 -2.61787 0
M  V30 1766 H 169.649 5.929 -0.90718 0
M  V30 1767 H 171.328 6.32809 -1.34766 0
M  V30 1768 N 171.46 0.379036 1.52974 0
M  V30 1769 C 172.709 -0.207612 2.00629 0
M  V30 1770 C 173.022 -1.48758 1.27006 0
M  V30 1771 O 174.228 -2.15365 1.65318 0
M  V30 1772 C 172.684 -0.42053 3.57435 0
M  V30 1773 C 172.292 0.845587 4.39948 0
M  V30 1774 C 174.036 -0.964102 4.13407 0
M  V30 1775 C 171.943 0.601513 5.88333 0
M  V30 1776 H 170.873 -0.0813591 0.749598 0
M  V30 1777 H 173.524 0.499853 1.76561 0
M  V30 1778 H 171.906 -1.18959 3.7771 0
M  V30 1779 H 173.08 1.61848 4.31442 0
M  V30 1780 H 171.395 1.31336 3.95145 0
M  V30 1781 H 173.992 -1.16225 5.21916 0
M  V30 1782 H 174.335 -1.93019 3.68849 0
M  V30 1783 H 174.868 -0.25487 3.96983 0
M  V30 1784 H 171.607 1.53831 6.37194 0
M  V30 1785 H 171.127 -0.132628 5.99653 0
M  V30 1786 H 172.806 0.232134 6.46583 0
M  V30 1787 N 172.938 -1.57226 0.108567 0
M  V30 1788 C 174.186 -1.94448 -0.550853 0
M  V30 1789 C 174.507 -0.992074 -1.67878 0
M  V30 1790 O 173.777 -0.0465 -1.95845 0
M  V30 1791 H 172.357 -0.717897 -0.206479 0
M  V30 1792 H 175.019 -1.94112 0.175062 0
M  V30 1793 H 174.115 -2.97218 -0.952259 0
M  V30 1794 N 174.416 0.165178 -1.56732 0
M  V30 1795 C 175.364 1.22369 -1.97809 0
M  V30 1796 C 176.358 1.45488 -0.867741 0
M  V30 1797 O 177.564 1.45995 -1.05288 0
M  V30 1798 H 173.939 0.411486 -0.629431 0
M  V30 1799 H 175.91 0.850425 -2.86025 0
M  V30 1800 C 174.659 2.55403 -2.35934 0
M  V30 1801 H 173.982 2.38438 -3.20916 0
M  V30 1802 H 175.422 3.2814 -2.68514 0
M  V30 1803 C 173.881 3.14611 -1.20506 0
M  V30 1804 O 174.411 3.98626 -0.496016 0
M  V30 1805 N 172.617 2.7379 -0.97403 0
M  V30 1806 H 172.164 2.0557 -1.55238 0
M  V30 1807 H 172.122 3.1374 -0.203573 0
M  V30 1808 N 175.894 1.51508 0.433938 0
M  V30 1809 C 177.119 1.68443 1.21003 0
M  V30 1810 C 177.544 0.382636 1.84167 0
M  V30 1811 O 176.902 -0.65755 1.68956 0
M  V30 1812 C 176.95 2.80405 2.26727 0
M  V30 1813 O 176.054 2.44245 3.32292 0
M  V30 1814 H 175.395 0.561536 0.354363 0
M  V30 1815 H 177.925 1.9809 0.512024 0
M  V30 1816 H 177.935 3.0459 2.71457 0
M  V30 1817 H 176.61 3.74867 1.80132 0
M  V30 1818 H 175.187 2.30644 2.93015 0
M  V30 1819 N 177.372 -0.689602 1.41712 0
M  V30 1820 C 178.6 -1.47827 1.44758 0
M  V30 1821 C 179.015 -1.88721 0.0545703 0
M  V30 1822 O 178.372 -1.57176 -0.927463 0
M  V30 1823 C 178.423 -2.73698 2.3616 0
M  V30 1824 O 178.144 -2.34524 3.7004 0
M  V30 1825 C 179.645 -3.67389 2.48072 0
M  V30 1826 H 176.865 -0.455357 0.49284 0
M  V30 1827 H 179.409 -0.848574 1.86063 0
M  V30 1828 H 177.564 -3.32891 1.98148 0
M  V30 1829 H 177.978 -3.15701 4.18847 0
M  V30 1830 H 179.452 -4.52475 3.16181 0
M  V30 1831 H 179.929 -4.12284 1.51388 0
M  V30 1832 H 180.535 -3.14097 2.86746 0
M  V30 1833 N 178.85 -1.27639 -0.924453 0
M  V30 1834 C 179.78 -1.13166 -2.04244 0
M  V30 1835 C 180.761 -0.032256 -1.70069 0
M  V30 1836 O 181.946 -0.207328 -1.9309 0
M  V30 1837 C 179.076 -0.781496 -3.38393 0
M  V30 1838 C 178.03 -1.83449 -3.86692 0
M  V30 1839 C 177.356 -1.33822 -5.17683 0
M  V30 1840 C 178.656 -3.23917 -4.09726 0
M  V30 1841 H 180.35 -2.06689 -2.1661 0
M  V30 1842 H 177.896 -0.995136 -1.04082 0
M  V30 1843 H 179.849 -0.667057 -4.16087 0
M  V30 1844 H 178.573 0.189439 -3.2605 0
M  V30 1845 H 177.232 -1.93789 -3.11193 0
M  V30 1846 H 176.88 -0.35665 -5.01734 0
M  V30 1847 H 176.58 -2.04224 -5.50968 0
M  V30 1848 H 178.104 -1.23679 -5.97943 0
M  V30 1849 H 179.518 -3.16559 -4.77978 0
M  V30 1850 H 177.915 -3.92059 -4.54324 0
M  V30 1851 H 178.985 -3.68729 -3.14908 0
M  V30 1852 N 180.328 1.1314 -1.09713 0
M  V30 1853 C 181.258 2.20748 -0.761102 0
M  V30 1854 C 182.239 1.68061 0.262566 0
M  V30 1855 O 183.424 1.93765 0.129977 0
M  V30 1856 C 180.554 3.46812 -0.184054 0
M  V30 1857 C 179.508 4.12606 -1.13757 0
M  V30 1858 C 178.834 5.33031 -0.422083 0
M  V30 1859 C 180.134 4.59603 -2.48118 0
M  V30 1860 H 181.828 2.49113 -1.66082 0
M  V30 1861 H 179.374 1.19734 -0.799987 0
M  V30 1862 H 181.327 4.21353 0.0631215 0
M  V30 1863 H 180.051 3.17851 0.750868 0
M  V30 1864 H 178.71 3.40036 -1.37007 0
M  V30 1865 H 178.358 5.00335 0.517072 0
M  V30 1866 H 178.058 5.77999 -1.05788 0
M  V30 1867 H 179.582 6.10325 -0.183277 0
M  V30 1868 H 180.996 5.25552 -2.29059 0
M  V30 1869 H 179.393 5.15321 -3.07514 0
M  V30 1870 H 180.463 3.73971 -3.08665 0
M  V30 1871 N 181.806 0.884767 1.30421 0
M  V30 1872 C 183.222 0.57874 1.48737 0
M  V30 1873 C 183.422 -0.883567 1.81095 0
M  V30 1874 O 182.478 -1.6648 1.89844 0
M  V30 1875 C 183.791 1.49171 2.61091 0
M  V30 1876 C 185.339 1.49532 2.74971 0
M  V30 1877 C 185.814 2.39421 3.90438 0
M  V30 1878 N 187.305 2.37383 3.97748 0
M  V30 1879 C 188.04 3.03647 4.86401 0
M  V30 1880 N 187.536 3.79136 5.79852 0
M  V30 1881 N 189.329 2.9288 4.79768 0
M  V30 1882 H 181.48 1.83075 1.0769 0
M  V30 1883 H 183.743 0.783637 0.533495 0
M  V30 1884 H 183.449 2.53291 2.44001 0
M  V30 1885 H 183.323 1.20113 3.57565 0
M  V30 1886 H 185.71 0.46163 2.91467 0
M  V30 1887 H 185.791 1.8262 1.79119 0
M  V30 1888 H 185.435 3.42874 3.74699 0
M  V30 1889 H 185.365 2.03649 4.85628 0
M  V30 1890 H 187.856 1.82525 3.30897 0
M  V30 1891 H 188.169 4.26789 6.4426 0
M  V30 1892 H 186.514 3.83243 5.79784 0
M  V30 1893 H 189.705 2.33433 4.05742 0
M  V30 1894 H 189.878 3.448 5.4865 0
M  V30 1895 N 183.284 -1.43765 0.645699 0
M  V30 1896 C 184.533 -2.01116 0.153412 0
M  V30 1897 C 184.846 -1.51493 -1.23731 0
M  V30 1898 O 186.052 -2.01067 -1.8244 0
M  V30 1899 C 184.508 -3.59206 0.223473 0
M  V30 1900 C 184.116 -4.17823 1.61642 0
M  V30 1901 C 185.86 -4.23972 -0.211597 0
M  V30 1902 C 183.767 -5.68183 1.64081 0
M  V30 1903 H 182.697 -0.752093 0.0535891 0
M  V30 1904 H 185.348 -1.6482 0.806633 0
M  V30 1905 H 183.73 -3.92867 -0.497118 0
M  V30 1906 H 184.904 -3.95674 2.36176 0
M  V30 1907 H 183.219 -3.65399 1.99681 0
M  V30 1908 H 185.816 -5.34275 -0.213112 0
M  V30 1909 H 186.159 -3.97352 -1.24165 0
M  V30 1910 H 186.692 -3.95166 0.456988 0
M  V30 1911 H 183.431 -5.99559 2.64971 0
M  V30 1912 H 182.951 -5.9241 0.938611 0
M  V30 1913 H 184.63 -6.32085 1.3812 0
M  V30 1914 N 184.763 -0.387143 -1.52771 0
M  V30 1915 C 186.012 0.19697 -2.00736 0
M  V30 1916 C 186.325 1.48082 -1.27793 0
M  V30 1917 O 187.531 2.14485 -1.66458 0
M  V30 1918 C 185.987 0.401568 -3.57653 0
M  V30 1919 C 185.595 -0.868907 -4.39493 0
M  V30 1920 C 187.339 0.942164 -4.13912 0
M  V30 1921 C 185.246 -0.632705 -5.88006 0
M  V30 1922 H 184.176 0.0773827 -0.750019 0
M  V30 1923 H 186.827 -0.50921 -1.76293 0
M  V30 1924 H 185.209 1.16954 -3.78335 0
M  V30 1925 H 186.383 -1.64133 -4.30577 0
M  V30 1926 H 184.698 -1.33429 -3.94443 0
M  V30 1927 H 187.295 1.13455 -5.22525 0
M  V30 1928 H 187.638 1.9106 -3.69867 0
M  V30 1929 H 188.171 0.233814 -3.97112 0
M  V30 1930 H 184.91 -1.57208 -6.36369 0
M  V30 1931 H 184.43 0.100825 -5.99715 0
M  V30 1932 H 186.109 -0.26642 -6.46451 0
M  V30 1933 N 186.241 1.57166 -0.116904 0
M  V30 1934 C 187.471 1.99184 0.548586 0
M  V30 1935 C 187.879 0.995436 1.60897 0
M  V30 1936 O 187.222 -0.0201293 1.83689 0
M  V30 1937 C 187.284 3.37611 1.23526 0
M  V30 1938 C 186.948 4.55857 0.323077 0
M  V30 1939 C 187.945 5.18056 -0.437476 0
M  V30 1940 C 185.63 5.01751 0.234761 0
M  V30 1941 C 187.624 6.24536 -1.2741 0
M  V30 1942 C 185.311 6.08093 -0.605496 0
M  V30 1943 C 186.309 6.69352 -1.35856 0
M  V30 1944 O 185.997 7.7364 -2.18487 0
M  V30 1945 H 185.729 0.659148 0.149999 0
M  V30 1946 H 188.283 2.0443 -0.199428 0
M  V30 1947 H 186.513 3.29113 2.0303 0
M  V30 1948 H 188.202 3.63932 1.79745 0
M  V30 1949 H 188.968 4.83516 -0.379105 0
M  V30 1950 H 184.847 4.53817 0.810601 0
M  V30 1951 H 188.391 6.72281 -1.86237 0
M  V30 1952 H 184.288 6.42063 -0.665268 0
M  V30 1953 H 185.056 7.90727 -2.11406 0
M  V30 1954 N 187.719 -0.156864 1.56817 0
M  V30 1955 C 188.666 -1.19394 1.97519 0
M  V30 1956 C 189.636 -1.4322 0.841265 0
M  V30 1957 O 190.821 -1.55719 1.10255 0
M  V30 1958 C 187.961 -2.52483 2.35258 0
M  V30 1959 C 187.074 -2.35914 3.61896 0
M  V30 1960 C 186.209 -3.61969 3.88782 0
M  V30 1961 C 185.248 -3.40395 5.08722 0
M  V30 1962 N 184.385 -4.58556 5.31668 0
M  V30 1963 H 189.225 -0.839845 2.85921 0
M  V30 1964 H 186.762 -0.403264 1.41464 0
M  V30 1965 H 188.72 -3.30071 2.55165 0
M  V30 1966 H 187.35 -2.85859 1.49949 0
M  V30 1967 H 186.402 -1.49429 3.49821 0
M  V30 1968 H 187.714 -2.15926 4.49641 0
M  V30 1969 H 186.868 -4.47989 4.09135 0
M  V30 1970 H 185.607 -3.84951 2.9944 0
M  V30 1971 H 184.612 -2.52763 4.88253 0
M  V30 1972 H 185.837 -3.18822 5.99608 0
M  V30 1973 H 183.783 -4.81729 4.45279 0
M  V30 1974 H 183.7 -4.41535 6.13664 0
M  V30 1975 H 184.968 -5.45817 5.5651 0
M  V30 1976 N 189.197 -1.51736 -0.425897 0
M  V30 1977 C 190.145 -1.74464 -1.53834 0
M  V30 1978 C 191.139 -0.611241 -1.57988 0
M  V30 1979 O 192.345 -0.792899 -1.61596 0
M  V30 1980 H 188.72 -0.551437 -0.511293 0
M  V30 1981 H 190.691 -2.67694 -1.31843 0
M  V30 1982 C 189.44 -1.8972 -2.91379 0
M  V30 1983 H 188.763 -2.76344 -2.88919 0
M  V30 1984 H 190.203 -2.09629 -3.68553 0
M  V30 1985 C 188.662 -0.65992 -3.30374 0
M  V30 1986 O 189.192 0.180083 -4.01296 0
M  V30 1987 N 187.398 -0.500677 -2.86254 0
M  V30 1988 H 186.945 -1.18532 -2.28709 0
M  V30 1989 H 186.903 0.325903 -3.12706 0
M  V30 1990 N 190.675 0.682077 -1.42076 0
M  V30 1991 C 191.622 1.79578 -1.44984 0
M  V30 1992 C 192.592 1.6332 -0.302614 0
M  V30 1993 O 193.777 1.83978 -0.505633 0
M  V30 1994 C 190.917 3.1756 -1.35091 0
M  V30 1995 C 190.03 3.45156 -2.59791 0
M  V30 1996 C 189.165 4.72826 -2.42093 0
M  V30 1997 C 188.204 4.93433 -3.62202 0
M  V30 1998 N 187.341 6.12338 -3.43491 0
M  V30 1999 H 192.181 1.76427 -2.40161 0
M  V30 2000 H 189.718 0.861376 -1.19242 0
M  V30 2001 H 191.676 3.97287 -1.27354 0
M  V30 2002 H 190.306 3.19854 -0.435133 0
M  V30 2003 H 189.358 2.59736 -2.77923 0
M  V30 2004 H 190.67 3.5628 -3.49094 0
M  V30 2005 H 189.824 5.60631 -2.319 0
M  V30 2006 H 188.563 4.63973 -1.50268 0
M  V30 2007 H 187.568 4.04073 -3.72834 0
M  V30 2008 H 188.793 5.04136 -4.54998 0
M  V30 2009 H 186.739 6.04672 -2.54377 0
M  V30 2010 H 186.656 6.2429 -4.26377 0
M  V30 2011 H 187.924 7.02841 -3.37097 0
M  V30 2012 N 192.153 1.28127 0.917671 0
M  V30 2013 C 193.393 1.163 1.68088 0
M  V30 2014 C 193.757 -0.284515 1.8988 0
M  V30 2015 O 194.958 -0.525413 2.63615 0
M  V30 2016 C 193.229 1.93546 3.00457 0
M  V30 2017 S 194.788 1.98048 3.91564 0
M  V30 2018 H 191.606 0.415005 0.577315 0
M  V30 2019 H 194.208 1.62173 1.09179 0
M  V30 2020 H 192.912 2.97888 2.82295 0
M  V30 2021 H 192.443 1.48207 3.64415 0
M  V30 2022 H 194.458 1.08415 4.84211 0
M  V30 2023 N 193.631 -1.12557 1.10312 0
M  V30 2024 C 194.564 -2.1737 0.694674 0
M  V30 2025 C 195.542 -1.59745 -0.303373 0
M  V30 2026 O 196.726 -1.87408 -0.202578 0
M  V30 2027 C 193.853 -3.38691 0.0248052 0
M  V30 2028 C 192.899 -4.14943 0.986121 0
M  V30 2029 S 193.732 -4.73413 2.50281 0
M  V30 2030 C 194.888 -5.9807 1.84562 0
M  V30 2031 H 195.121 -2.5168 1.58255 0
M  V30 2032 H 192.654 -1.23998 0.919992 0
M  V30 2033 H 194.612 -4.08959 -0.355361 0
M  V30 2034 H 193.273 -3.02664 -0.839851 0
M  V30 2035 H 192.466 -5.01854 0.464651 0
M  V30 2036 H 192.068 -3.50377 1.30813 0
M  V30 2037 H 194.36 -6.67232 1.17507 0
M  V30 2038 H 195.303 -6.54841 2.69423 0
M  V30 2039 H 195.711 -5.49073 1.31069 0
M  V30 2040 N 195.109 -0.891671 -1.2995 0
M  V30 2041 C 196.525 -0.58662 -1.48428 0
M  V30 2042 C 196.725 0.873951 -1.81561 0
M  V30 2043 O 195.781 1.65471 -1.90724 0
M  V30 2044 C 197.094 -1.50553 -2.60296 0
M  V30 2045 C 198.642 -1.50988 -2.74175 0
M  V30 2046 C 199.117 -2.41488 -3.89163 0
M  V30 2047 N 200.608 -2.39489 -3.96483 0
M  V30 2048 C 201.343 -3.06223 -4.84784 0
M  V30 2049 N 200.839 -3.82206 -5.77833 0
M  V30 2050 N 202.632 -2.95421 -4.78208 0
M  V30 2051 H 194.783 -1.83644 -1.06718 0
M  V30 2052 H 197.046 -0.786455 -0.529332 0
M  V30 2053 H 196.752 -2.54581 -2.42654 0
M  V30 2054 H 196.626 -1.22008 -3.56923 0
M  V30 2055 H 199.013 -0.47708 -2.91218 0
M  V30 2056 H 199.094 -1.83567 -1.78148 0
M  V30 2057 H 198.738 -3.44857 -3.72876 0
M  V30 2058 H 198.668 -2.06222 -4.84541 0
M  V30 2059 H 201.159 -1.84278 -3.29924 0
M  V30 2060 H 201.472 -4.302 -6.41988 0
M  V30 2061 H 199.817 -3.86313 -5.77743 0
M  V30 2062 H 203.008 -2.35581 -4.04499 0
M  V30 2063 H 203.181 -3.47704 -5.46814 0
M  V30 2064 N 196.587 1.43421 -0.653314 0
M  V30 2065 C 197.535 2.32546 0.0501531 0
M  V30 2066 C 198.529 1.48617 0.812985 0
M  V30 2067 O 199.735 1.64825 0.723375 0
M  V30 2068 H 196.11 0.751185 0.0350032 0
M  V30 2069 H 198.081 2.89602 -0.719261 0
M  V30 2070 C 196.83 3.32925 1.00279 0
M  V30 2071 H 196.153 3.97532 0.425236 0
M  V30 2072 H 197.593 3.9792 1.46409 0
M  V30 2073 C 196.052 2.63532 2.09886 0
M  V30 2074 O 196.582 2.45092 3.18265 0
M  V30 2075 N 194.788 2.22905 1.86445 0
M  V30 2076 H 194.335 2.38103 0.98309 0
M  V30 2077 H 194.293 1.76805 2.59976 0
M  V30 2078 N 198.065 0.39524 1.52563 0
M  V30 2079 C 199.313 -0.184678 2.01254 0
M  V30 2080 C 199.634 -1.46822 1.28329 0
M  V30 2081 O 198.904 -1.91666 0.405094 0
M  V30 2082 H 197.484 -0.0712355 0.743596 0
M  V30 2083 H 200.146 0.528293 1.87603 0
M  V30 2084 H 199.242 -0.390681 3.09645 0
M  V30 2085 N 199.544 -1.57102 0.125237 0
M  V30 2086 C 200.955 -1.82384 -0.399142 0
M  V30 2087 C 201.306 -1.04276 -1.66195 0
M  V30 2088 O 200.431 -0.281269 -2.14564 0
M  V30 2089 C 201.026 -3.30821 -0.730932 0
M  V30 2090 C 199.585 -3.56762 -1.19992 0
M  V30 2091 C 198.732 -2.7649 -0.211792 0
M  V30 2092 H 201.683 -1.54786 0.350277 0
M  V30 2093 H 201.704 -3.4579 -1.58775 0
M  V30 2094 H 201.216 -3.87643 0.188345 0
M  V30 2095 H 199.317 -3.05305 -2.13588 0
M  V30 2096 H 199.43 -4.65317 -1.14093 0
M  V30 2097 H 197.794 -2.4489 -0.700085 0
M  V30 2098 H 198.577 -3.36073 0.700691 0
M  V30 2099 N 201.022 0.148545 -1.56898 0
M  V30 2100 C 201.97 1.20265 -1.99096 0
M  V30 2101 C 202.964 1.44559 -0.883123 0
M  V30 2102 O 204.17 1.4487 -1.0683 0
M  V30 2103 H 200.545 0.404786 -0.63376 0
M  V30 2104 H 202.516 0.82004 -2.86911 0
M  V30 2105 C 201.265 2.52886 -2.3863 0
M  V30 2106 H 200.588 2.35021 -3.23427 0
M  V30 2107 H 202.028 3.25274 -2.7198 0
M  V30 2108 C 200.487 3.13315 -1.23837 0
M  V30 2109 O 201.017 3.98077 -0.538268 0
M  V30 2110 N 199.223 2.72742 -1.00301 0
M  V30 2111 H 198.77 2.03912 -1.5741 0
M  V30 2112 H 198.728 3.13507 -0.236838 0
M  V30 2113 N 202.5 1.5196 0.417844 0
M  V30 2114 C 203.749 1.6482 1.16264 0
M  V30 2115 C 204.062 0.379886 1.91876 0
M  V30 2116 O 205.268 0.388154 2.68711 0
M  V30 2117 C 203.724 2.91161 2.1155 0
M  V30 2118 C 203.332 4.25068 1.41495 0
M  V30 2119 C 205.076 3.13383 2.86341 0
M  V30 2120 C 202.983 5.42541 2.35379 0
M  V30 2121 H 201.913 0.613954 0.437694 0
M  V30 2122 H 204.564 1.78442 0.427871 0
M  V30 2123 H 202.946 2.71218 2.88543 0
M  V30 2124 H 204.12 4.55463 0.699263 0
M  V30 2125 H 202.435 4.0888 0.787792 0
M  V30 2126 H 205.032 3.98324 3.5671 0
M  V30 2127 H 205.375 2.27256 3.48798 0
M  V30 2128 H 205.908 3.33757 2.1645 0
M  V30 2129 H 202.647 6.30987 1.77582 0
M  V30 2130 H 202.167 5.16497 3.04945 0
M  V30 2131 H 203.846 5.75272 2.96093 0
M  V30 2132 N 203.978 -0.674533 1.42435 0
M  V30 2133 C 204.908 -1.80009 1.48724 0
M  V30 2134 C 205.889 -1.6659 0.343793 0
M  V30 2135 O 207.074 -1.86007 0.558137 0
M  V30 2136 C 204.204 -3.18306 1.38919 0
M  V30 2137 C 203.158 -3.46461 2.51294 0
M  V30 2138 C 202.484 -4.84335 2.26547 0
M  V30 2139 C 203.784 -3.43328 3.93603 0
M  V30 2140 H 205.478 -1.75004 2.42928 0
M  V30 2141 H 203.024 -0.840533 1.16923 0
M  V30 2142 H 204.977 -3.9678 1.41927 0
M  V30 2143 H 203.701 -3.2399 0.412094 0
M  V30 2144 H 202.36 -2.70348 2.47604 0
M  V30 2145 H 202.008 -4.86669 1.2713 0
M  V30 2146 H 201.708 -5.04136 3.01861 0
M  V30 2147 H 203.232 -5.65094 2.31304 0
M  V30 2148 H 204.646 -4.11772 3.98894 0
M  V30 2149 H 203.043 -3.74664 4.68771 0
M  V30 2150 H 204.113 -2.41897 4.20255 0
M  V30 2151 N 205.456 -1.28612 -0.910864 0
M  V30 2152 C 206.705 -1.15311 -1.65488 0
M  V30 2153 C 207.018 0.296999 -1.93332 0
M  V30 2154 O 208.224 0.551168 -2.65847 0
M  V30 2155 C 206.68 -2.01599 -2.98137 0
M  V30 2156 C 206.288 -3.51367 -2.7793 0
M  V30 2157 C 208.032 -1.96993 -3.76024 0
M  V30 2158 C 205.939 -4.29797 -4.06237 0
M  V30 2159 H 204.869 -0.42796 -0.620779 0
M  V30 2160 H 207.52 -1.53166 -1.01057 0
M  V30 2161 H 205.902 -1.56603 -3.63719 0
M  V30 2162 H 207.076 -4.0434 -2.21011 0
M  V30 2163 H 205.391 -3.57529 -2.13452 0
M  V30 2164 H 207.988 -2.52856 -4.71135 0
M  V30 2165 H 208.331 -0.94733 -4.05378 0
M  V30 2166 H 208.864 -2.39973 -3.17266 0
M  V30 2167 H 205.603 -5.32648 -3.82055 0
M  V30 2168 H 205.123 -3.81596 -4.62757 0
M  V30 2169 H 206.802 -4.39869 -4.74473 0
M  V30 2170 N 206.934 1.1197 -1.10907 0
M  V30 2171 C 207.897 2.16031 -0.765707 0
M  V30 2172 C 208.897 1.59393 0.212235 0
M  V30 2173 O 210.087 1.74196 -0.0115441 0
M  V30 2174 C 207.219 3.40632 -0.135053 0
M  V30 2175 H 208.412 2.47919 -1.68748 0
M  V30 2176 H 205.965 1.27061 -0.910226 0
M  V30 2177 H 206.7 3.14348 0.797218 0
M  V30 2178 H 206.485 3.8302 -0.838937 0
M  V30 2179 H 207.975 4.17505 0.0892469 0
M  V30 2180 N 208.412 0.89855 1.29475 0
M  V30 2181 C 209.637 0.538561 2.00285 0
M  V30 2182 C 210.062 -0.869135 1.66816 0
M  V30 2183 O 209.42 -1.57831 0.892145 0
M  V30 2184 C 209.468 0.736475 3.52999 0
M  V30 2185 O 208.572 -0.211537 4.11857 0
M  V30 2186 H 207.913 0.210563 0.62973 0
M  V30 2187 H 210.443 1.20982 1.64998 0
M  V30 2188 H 210.453 0.640685 4.02938 0
M  V30 2189 H 209.128 1.76276 3.76696 0
M  V30 2190 H 207.705 -0.0682991 3.72837 0
M  V30 2191 N 209.89 -1.43072 0.660911 0
M  V30 2192 C 210.82 -2.33497 -0.0122829 0
M  V30 2193 C 211.801 -1.49903 -0.803925 0
M  V30 2194 O 212.986 -1.78546 -0.763864 0
M  V30 2195 C 210.116 -3.33363 -0.973994 0
M  V30 2196 C 209.07 -4.27003 -0.291928 0
M  V30 2197 C 208.396 -5.16967 -1.36562 0
M  V30 2198 C 209.696 -5.15816 0.820462 0
M  V30 2199 H 211.39 -2.90038 0.742873 0
M  V30 2200 H 208.936 -1.39461 0.358688 0
M  V30 2201 H 210.889 -3.95524 -1.45392 0
M  V30 2202 H 209.613 -2.75095 -1.7604 0
M  V30 2203 H 208.272 -3.66217 0.167623 0
M  V30 2204 H 207.92 -4.55034 -2.14366 0
M  V30 2205 H 207.62 -5.80441 -0.914454 0
M  V30 2206 H 209.144 -5.82003 -1.84675 0
M  V30 2207 H 210.558 -5.71742 0.422366 0
M  V30 2208 H 208.955 -5.8805 1.19656 0
M  V30 2209 H 210.025 -4.55045 1.67518 0
M  V30 2210 N 211.368 -0.403325 -1.52352 0
M  V30 2211 C 212.331 0.413051 -2.25447 0
M  V30 2212 C 213.331 0.978513 -1.276 0
M  V30 2213 O 214.521 0.858305 -1.51587 0
M  V30 2214 C 211.653 1.58087 -3.02029 0
M  V30 2215 H 212.846 -0.227094 -2.99039 0
M  V30 2216 H 210.399 -0.155722 -1.55522 0
M  V30 2217 H 211.134 2.25804 -2.32772 0
M  V30 2218 H 210.919 1.18195 -3.73861 0
M  V30 2219 H 212.409 2.1585 -3.57489 0
M  V30 2220 N 212.846 1.57033 -0.133567 0
M  V30 2221 C 213.776 2.1909 0.807567 0
M  V30 2222 C 214.757 1.13517 1.26681 0
M  V30 2223 O 215.942 1.41809 1.32679 0
M  V30 2224 C 213.072 2.80188 2.05212 0
M  V30 2225 C 212.026 3.91471 1.73015 0
M  V30 2226 C 211.352 4.39443 3.04622 0
M  V30 2227 C 212.652 5.12886 0.987168 0
M  V30 2228 H 214.346 2.97988 0.290403 0
M  V30 2229 H 211.892 1.43335 0.138239 0
M  V30 2230 H 213.845 3.22264 2.71521 0
M  V30 2231 H 212.569 1.98601 2.59278 0
M  V30 2232 H 211.228 3.49993 1.0909 0
M  V30 2233 H 210.876 3.54695 3.56651 0
M  V30 2234 H 210.576 5.14495 2.83847 0
M  V30 2235 H 212.1 4.8418 3.72024 0
M  V30 2236 H 213.514 5.51891 1.55208 0
M  V30 2237 H 211.911 5.93615 0.87985 0
M  V30 2238 H 212.981 4.84894 -0.0235286 0
M  V30 2239 N 214.325 -0.140222 1.56975 0
M  V30 2240 C 215.573 -0.850005 1.83356 0
M  V30 2241 C 215.894 -1.81399 0.71551 0
M  V30 2242 O 215.164 -1.94136 -0.262294 0
M  V30 2243 H 213.744 -0.316886 0.676456 0
M  V30 2244 H 216.406 -0.132608 1.94448 0
M  V30 2245 H 215.502 -1.40814 2.78528 0
M  V30 2246 N 215.803 -1.52179 -0.40978 0
M  V30 2247 C 217.08 -1.56769 -1.16974 0
M  V30 2248 C 217.46 -0.348322 -2.08206 0
M  V30 2249 O 216.808 0.664862 -2.18613 0
M  V30 2250 C 217.018 -2.89603 -1.9476 0
M  V30 2251 C 218.366 -3.42579 -2.50849 0
M  V30 2252 O 219.39 -2.91338 -2.04941 0
M  V30 2253 O 218.249 -4.32054 -3.34652 0
M  V30 2254 H 215.343 -0.631439 -0.534054 0
M  V30 2255 H 217.889 -1.64507 -0.416613 0
M  V30 2256 H 216.661 -3.698 -1.27921 0
M  V30 2257 H 216.284 -2.85155 -2.77079 0
M  V30 2258 N 217.281 0.66697 -1.42791 0
M  V30 2259 C 218.211 1.79218 -1.49677 0
M  V30 2260 C 219.192 1.66405 -0.352623 0
M  V30 2261 O 220.377 1.85708 -0.567993 0
M  V30 2262 C 217.507 3.17565 -1.40605 0
M  V30 2263 C 216.461 3.45124 -2.53127 0
M  V30 2264 C 215.787 4.83127 -2.29112 0
M  V30 2265 C 217.087 3.41236 -3.95418 0
M  V30 2266 H 218.781 1.73713 -2.43853 0
M  V30 2267 H 216.327 0.83432 -1.17367 0
M  V30 2268 H 218.28 3.96022 -1.44029 0
M  V30 2269 H 217.004 3.23767 -0.429271 0
M  V30 2270 H 215.663 2.69031 -2.49034 0
M  V30 2271 H 215.311 4.85988 -1.29709 0
M  V30 2272 H 215.011 5.02528 -3.04531 0
M  V30 2273 H 216.535 5.63859 -2.34297 0
M  V30 2274 H 217.949 4.09651 -4.01073 0
M  V30 2275 H 216.346 3.72173 -4.70752 0
M  V30 2276 H 217.416 2.39665 -4.21532 0
M  V30 2277 N 218.759 1.29093 0.90403 0
M  V30 2278 C 219.689 1.16401 2.02418 0
M  V30 2279 C 220.67 0.0593085 1.69997 0
M  V30 2280 O 221.855 0.238021 1.92736 0
M  V30 2281 C 218.985 0.835233 3.37107 0
M  V30 2282 C 217.939 1.89578 3.83724 0
M  V30 2283 C 217.265 1.42041 5.15489 0
M  V30 2284 C 218.565 3.30394 4.04521 0
M  V30 2285 H 220.259 2.10109 2.13295 0
M  V30 2286 H 217.805 1.01157 1.02486 0
M  V30 2287 H 219.758 0.733169 4.14973 0
M  V30 2288 H 218.482 -0.137543 3.2631 0
M  V30 2289 H 217.141 1.98715 3.08071 0
M  V30 2290 H 216.789 0.436426 5.01103 0
M  V30 2291 H 216.489 2.12964 5.4765 0
M  V30 2292 H 218.013 1.33176 5.959 0
M  V30 2293 H 219.427 3.24123 4.72882 0
M  V30 2294 H 217.824 3.99237 4.48029 0
M  V30 2295 H 218.894 3.73692 3.09002 0
M  V30 2296 N 220.237 -1.11381 1.11499 0
M  V30 2297 C 221.187 -2.15555 0.74298 0
M  V30 2298 C 222.171 -1.58894 -0.253276 0
M  V30 2299 O 223.363 -1.76897 -0.0602918 0
M  V30 2300 C 220.492 -3.42782 0.188481 0
M  V30 2301 C 219.578 -4.064 1.21244 0
M  V30 2302 N 219.969 -4.44864 2.40685 0
M  V30 2303 C 218.267 -4.3333 1.05552 0
M  V30 2304 C 218.968 -4.94715 3.05994 0
M  V30 2305 N 217.944 -4.90909 2.33472 0
M  V30 2306 H 221.746 -2.43074 1.65203 0
M  V30 2307 H 219.26 -1.28401 0.994329 0
M  V30 2308 H 221.257 -4.16789 -0.0961693 0
M  V30 2309 H 219.917 -3.16727 -0.715149 0
M  V30 2310 H 220.928 -4.36876 2.78136 0
M  V30 2311 H 217.605 -4.1698 0.208372 0
M  V30 2312 H 218.995 -5.34103 4.07656 0
M  V30 2313 N 221.715 -0.905404 -1.28997 0
M  V30 2314 C 222.964 -0.530191 -1.94607 0
M  V30 2315 C 223.277 0.929185 -1.72121 0
M  V30 2316 O 224.483 1.41218 -2.31883 0
M  V30 2317 C 222.939 -0.897333 -3.48534 0
M  V30 2318 C 222.547 -2.37587 -3.79811 0
M  V30 2319 C 224.291 -0.592304 -4.20347 0
M  V30 2320 C 222.198 -2.68357 -5.27009 0
M  V30 2321 H 221.128 -0.194558 -0.728466 0
M  V30 2322 H 223.779 -1.10318 -1.46636 0
M  V30 2323 H 222.161 -0.253214 -3.9519 0
M  V30 2324 H 223.335 -3.06602 -3.43994 0
M  V30 2325 H 221.65 -2.6505 -3.2115 0
M  V30 2326 H 224.247 -0.798975 -5.28697 0
M  V30 2327 H 224.59 0.469474 -4.13644 0
M  V30 2328 H 225.123 -1.19452 -3.79442 0
M  V30 2329 H 221.862 -3.73355 -5.38782 0
M  V30 2330 H 221.382 -2.03971 -5.64053 0
M  V30 2331 H 223.061 -2.54922 -5.94663 0
M  V30 2332 N 223.193 1.4272 -0.668489 0
M  V30 2333 C 224.439 2.01923 -0.188419 0
M  V30 2334 C 224.772 1.52704 1.19979 0
M  V30 2335 O 224.047 0.726566 1.8042 0
M  V30 2336 C 224.33 3.59451 -0.216085 0
M  V30 2337 C 224.183 4.18864 -1.6393 0
M  V30 2338 C 225.502 4.37903 0.439179 0
M  V30 2339 H 222.621 0.733674 -0.0699412 0
M  V30 2340 H 225.263 1.69822 -0.852076 0
M  V30 2341 H 223.413 3.86929 0.349012 0
M  V30 2342 H 225.085 4.02362 -2.25616 0
M  V30 2343 H 223.328 3.74933 -2.18193 0
M  V30 2344 H 223.999 5.27987 -1.61039 0
M  V30 2345 H 226.475 4.16079 -0.0417878 0
M  V30 2346 H 225.351 5.47519 0.389157 0
M  V30 2347 H 225.612 4.15303 1.51577 0
M  V30 2348 N 224.671 0.411399 1.52136 0
M  V30 2349 C 225.92 -0.165009 2.01024 0
M  V30 2350 C 226.233 -1.4603 1.30133 0
M  V30 2351 O 227.439 -2.1181 1.69849 0
M  V30 2352 C 225.895 -0.344618 3.58246 0
M  V30 2353 C 225.503 0.938716 4.38055 0
M  V30 2354 C 227.247 -0.876195 4.15359 0
M  V30 2355 C 225.154 0.726172 5.86925 0
M  V30 2356 H 224.084 -0.0654407 0.751155 0
M  V30 2357 H 226.735 0.537192 1.75461 0
M  V30 2358 H 225.117 -1.10921 3.80148 0
M  V30 2359 H 226.291 1.70963 4.27912 0
M  V30 2360 H 224.606 1.39688 3.92271 0
M  V30 2361 H 227.203 -1.05128 5.24263 0
M  V30 2362 H 227.546 -1.85152 3.7286 0
M  V30 2363 H 228.079 -0.170607 3.97434 0
M  V30 2364 H 224.818 1.67312 6.33788 0
M  V30 2365 H 224.338 -0.00540283 5.998 0
M  V30 2366 H 226.017 0.369231 6.45946 0
M  V30 2367 N 226.149 -1.5696 0.141893 0
M  V30 2368 C 227.426 -1.87553 -0.555281 0
M  V30 2369 C 227.806 -1.04699 -1.83306 0
M  V30 2370 O 227.154 -0.132346 -2.28116 0
M  V30 2371 C 227.364 -3.39093 -0.825664 0
M  V30 2372 C 228.712 -4.08199 -1.16869 0
M  V30 2373 O 229.736 -3.44242 -0.915185 0
M  V30 2374 O 228.595 -5.21139 -1.6455 0
M  V30 2375 H 225.689 -0.777188 -0.282679 0
M  V30 2376 H 228.235 -1.68763 0.17812 0
M  V30 2377 H 227.007 -3.91221 0.0788633 0
M  V30 2378 H 226.63 -3.63393 -1.61343 0
M  V30 2379 N 227.627 0.131896 -1.57047 0
M  V30 2380 C 228.876 0.84044 -1.83356 0
M  V30 2381 C 229.189 1.81646 -0.725535 0
M  V30 2382 O 230.395 2.57025 -0.874659 0
M  V30 2383 C 228.851 1.54528 -3.25037 0
M  V30 2384 C 228.459 0.610902 -4.43815 0
M  V30 2385 C 230.203 2.23972 -3.60606 0
M  V30 2386 C 228.11 1.31823 -5.76521 0
M  V30 2387 H 227.04 0.317599 -0.683847 0
M  V30 2388 H 229.691 0.0931561 -1.83263 0
M  V30 2389 H 228.073 2.33873 -3.19561 0
M  V30 2390 H 229.247 -0.148407 -4.60561 0
M  V30 2391 H 227.562 0.0241016 -4.16393 0
M  V30 2392 H 230.159 2.77558 -4.57018 0
M  V30 2393 H 230.502 3.01173 -2.87403 0
M  V30 2394 H 231.035 1.51529 -3.6781 0
M  V30 2395 H 227.774 0.587771 -6.52859 0
M  V30 2396 H 227.294 2.04987 -5.63685 0
M  V30 2397 H 228.973 1.855 -6.19838 0
M  V30 2398 N 229.106 1.52395 0.401703 0
M  V30 2399 C 230.517 1.58899 0.980202 0
M  V30 2400 C 230.868 0.434032 1.91339 0
M  V30 2401 O 229.993 -0.444619 2.11783 0
M  V30 2402 C 230.588 2.87994 1.78451 0
M  V30 2403 C 229.147 2.96953 2.31292 0
M  V30 2404 C 228.294 2.53903 1.11483 0
M  V30 2405 H 231.245 1.57657 0.18168 0
M  V30 2406 H 231.266 2.73765 2.64259 0
M  V30 2407 H 230.778 3.72035 1.10506 0
M  V30 2408 H 228.879 2.17422 3.02586 0
M  V30 2409 H 228.992 4.01344 2.61649 0
M  V30 2410 H 227.356 2.07925 1.47104 0
M  V30 2411 H 228.139 3.40326 0.450928 0
M  V30 2412 N 230.584 -0.659388 1.43143 0
M  V30 2413 C 231.833 -1.41518 1.43721 0
M  V30 2414 C 232.146 -1.95499 0.0628176 0
M  V30 2415 O 233.352 -2.71446 -0.0539683 0
M  V30 2416 C 231.808 -2.5608 2.52885 0
M  V30 2417 C 231.416 -2.08733 3.96402 0
M  V30 2418 C 233.16 -3.3349 2.62649 0
M  V30 2419 C 231.067 -3.20469 4.97045 0
M  V30 2420 H 229.997 -0.531705 0.534608 0
M  V30 2421 H 232.648 -0.712343 1.69109 0
M  V30 2422 H 231.03 -3.28805 2.20688 0
M  V30 2423 H 232.204 -1.43059 4.3803 0
M  V30 2424 H 230.519 -1.44219 3.90627 0
M  V30 2425 H 233.116 -4.16734 3.35017 0
M  V30 2426 H 233.459 -3.8111 1.67513 0
M  V30 2427 H 233.992 -2.67842 2.94118 0
M  V30 2428 H 230.731 -2.77824 5.93712 0
M  V30 2429 H 230.251 -3.84874 4.60034 0
M  V30 2430 H 231.93 -3.85698 5.19467 0
M  V30 2431 N 232.062 -1.29571 -0.897171 0
M  V30 2432 C 233.01 -1.14802 -2.02295 0
M  V30 2433 C 234.004 -0.0629637 -1.69283 0
M  V30 2434 O 235.21 -0.222945 -1.78614 0
M  V30 2435 H 231.585 -0.354692 -0.663097 0
M  V30 2436 H 233.556 -2.10108 -2.11889 0
M  V30 2437 C 232.305 -0.843966 -3.37302 0
M  V30 2438 H 231.628 -1.67093 -3.63208 0
M  V30 2439 H 233.068 -0.780672 -4.16751 0
M  V30 2440 C 231.527 0.452843 -3.33843 0
M  V30 2441 O 232.057 1.47813 -3.73516 0
M  V30 2442 N 230.263 0.459601 -2.86943 0
M  V30 2443 H 229.81 -0.375213 -2.54853 0
M  V30 2444 H 229.768 1.32726 -2.85011 0
M  V30 2445 N 233.54 1.10788 -1.12088 0
M  V30 2446 C 234.786 1.82942 -0.875226 0
M  V30 2447 C 235.119 1.84779 0.597538 0
M  V30 2448 O 234.394 1.30578 1.44152 0
M  V30 2449 C 234.677 3.29789 -1.44606 0
M  V30 2450 C 234.53 3.36307 -2.98693 0
M  V30 2451 C 235.849 4.26064 -1.10261 0
M  V30 2452 H 232.968 0.664195 -0.319397 0
M  V30 2453 H 235.61 1.29867 -1.38689 0
M  V30 2454 H 233.76 3.75118 -1.01089 0
M  V30 2455 H 235.432 2.99487 -3.50864 0
M  V30 2456 H 233.675 2.76318 -3.34411 0
M  V30 2457 H 234.346 4.39694 -3.33726 0
M  V30 2458 H 236.822 3.88951 -1.4784 0
M  V30 2459 H 235.698 5.27183 -1.52869 0
M  V30 2460 H 235.959 4.42098 -0.0142953 0
M  V30 2461 N 235.018 0.912232 1.28515 0
M  V30 2462 C 236.248 0.559604 1.98877 0
M  V30 2463 C 236.656 -0.863113 1.68366 0
M  V30 2464 O 235.999 -1.58304 0.931969 0
M  V30 2465 C 236.061 0.68703 3.52874 0
M  V30 2466 C 235.725 2.07901 4.06972 0
M  V30 2467 C 236.722 3.05157 4.20922 0
M  V30 2468 C 234.407 2.39178 4.417 0
M  V30 2469 C 236.401 4.31806 4.68852 0
M  V30 2470 C 234.088 3.66068 4.89324 0
M  V30 2471 C 235.086 4.62195 5.02856 0
M  V30 2472 O 234.774 5.86829 5.49442 0
M  V30 2473 H 234.506 0.212191 0.641834 0
M  V30 2474 H 237.06 1.22712 1.64715 0
M  V30 2475 H 235.29 -0.0375486 3.86682 0
M  V30 2476 H 236.979 0.341727 4.04459 0
M  V30 2477 H 237.745 2.82311 3.94367 0
M  V30 2478 H 233.624 1.65109 4.30418 0
M  V30 2479 H 237.168 5.06842 4.79329 0
M  V30 2480 H 233.065 3.88739 5.15318 0
M  V30 2481 H 233.833 5.89597 5.6773 0
M  V30 2482 N 236.496 -1.42363 0.676048 0
M  V30 2483 C 237.443 -2.308 -0.00150904 0
M  V30 2484 C 238.413 -1.46032 -0.791444 0
M  V30 2485 O 239.598 -1.74861 -0.76344 0
M  V30 2486 C 236.738 -3.31883 -0.945919 0
M  V30 2487 C 235.851 -4.31741 -0.149675 0
M  V30 2488 C 234.986 -5.19898 -1.08995 0
M  V30 2489 C 234.025 -6.11434 -0.285465 0
M  V30 2490 N 233.162 -6.92138 -1.17851 0
M  V30 2491 H 238.002 -2.88187 0.758455 0
M  V30 2492 H 235.539 -1.41952 0.38576 0
M  V30 2493 H 237.497 -3.89019 -1.50731 0
M  V30 2494 H 236.127 -2.76093 -1.6725 0
M  V30 2495 H 235.179 -3.76713 0.528359 0
M  V30 2496 H 236.491 -4.96534 0.474866 0
M  V30 2497 H 235.645 -5.81772 -1.72123 0
M  V30 2498 H 234.384 -4.55284 -1.74837 0
M  V30 2499 H 233.389 -5.48627 0.359018 0
M  V30 2500 H 234.614 -6.78097 0.368883 0
M  V30 2501 H 232.56 -6.30152 -1.82332 0
M  V30 2502 H 232.477 -7.53542 -0.609082 0
M  V30 2503 H 233.745 -7.58499 -1.79722 0
M  V30 2504 N 237.974 -0.419461 -1.51915 0
M  V30 2505 C 238.904 0.391813 -2.30189 0
M  V30 2506 C 239.885 1.03699 -1.34836 0
M  V30 2507 O 241.07 1.04403 -1.63748 0
M  V30 2508 C 238.2 1.50312 -3.13087 0
M  V30 2509 C 237.154 0.9824 -4.16573 0
M  V30 2510 C 236.48 2.18809 -4.8788 0
M  V30 2511 C 237.78 0.0292356 -5.22292 0
M  V30 2512 H 239.474 -0.26135 -2.98257 0
M  V30 2513 H 237.02 -0.127134 -1.43438 0
M  V30 2514 H 238.973 2.07773 -3.66617 0
M  V30 2515 H 237.697 2.18431 -2.42807 0
M  V30 2516 H 236.356 0.430119 -3.64068 0
M  V30 2517 H 236.004 2.85507 -4.14119 0
M  V30 2518 H 235.704 1.84615 -5.57845 0
M  V30 2519 H 237.228 2.76858 -5.44226 0
M  V30 2520 H 238.642 0.512976 -5.71 0
M  V30 2521 H 237.039 -0.2244 -5.9968 0
M  V30 2522 H 238.109 -0.912931 -4.76228 0
M  V30 2523 N 239.452 1.56882 -0.150215 0
M  V30 2524 C 240.382 2.19935 0.784284 0
M  V30 2525 C 241.363 1.14854 1.25469 0
M  V30 2526 O 242.548 1.43209 1.31168 0
M  V30 2527 C 239.678 2.82349 2.02229 0
M  V30 2528 C 238.632 3.93285 1.68853 0
M  V30 2529 C 237.958 4.42649 2.99944 0
M  V30 2530 C 239.258 5.13904 0.932714 0
M  V30 2531 H 240.952 2.9828 0.258781 0
M  V30 2532 H 238.498 1.43473 0.123029 0
M  V30 2533 H 240.451 3.25126 2.68088 0
M  V30 2534 H 239.175 2.0134 2.57157 0
M  V30 2535 H 237.834 3.5113 1.05371 0
M  V30 2536 H 237.482 3.58458 3.52869 0
M  V30 2537 H 237.182 5.17476 2.78374 0
M  V30 2538 H 238.706 4.88099 3.66868 0
M  V30 2539 H 240.12 5.53506 1.49345 0
M  V30 2540 H 238.517 5.94515 0.81684 0
M  V30 2541 H 239.587 4.84842 -0.0749568 0
M  V30 2542 N 240.93 -0.123565 1.57115 0
M  V30 2543 C 241.893 -1.13583 1.99076 0
M  V30 2544 C 242.893 -1.34564 0.880296 0
M  V30 2545 O 244.083 -1.31158 1.14644 0
M  V30 2546 C 241.215 -2.49128 2.32698 0
M  V30 2547 H 242.408 -0.775287 2.89706 0
M  V30 2548 H 239.961 -0.36771 1.51913 0
M  V30 2549 H 240.696 -2.90111 1.44934 0
M  V30 2550 H 240.481 -2.35255 3.13684 0
M  V30 2551 H 241.971 -3.2199 2.65918 0
M  V30 2552 N 242.408 -1.52605 -0.393616 0
M  V30 2553 C 243.318 -1.79971 -1.50492 0
M  V30 2554 C 244.334 -0.686181 -1.59899 0
M  V30 2555 O 245.51 -0.973274 -1.76322 0
M  V30 2556 C 242.575 -1.95867 -2.86072 0
M  V30 2557 C 241.636 -3.19781 -2.86424 0
M  V30 2558 C 240.869 -3.34909 -4.15538 0
M  V30 2559 O 241.092 -2.54948 -5.10253 0
M  V30 2560 O 240.026 -4.28141 -4.23059 0
M  V30 2561 H 243.852 -2.74328 -1.30299 0
M  V30 2562 H 241.437 -1.3764 -0.581005 0
M  V30 2563 H 243.319 -2.08056 -3.66457 0
M  V30 2564 H 241.994 -1.04699 -3.063 0
M  V30 2565 H 240.901 -3.13038 -2.04837 0
M  V30 2566 H 242.234 -4.1078 -2.71147 0
M  V30 2567 N 243.887 0.651787 -1.4349 0
M  V30 2568 C 245.164 1.40909 -1.35661 0
M  V30 2569 C 245.544 2.11099 -0.00511733 0
M  V30 2570 O 244.892 2.04892 1.0115 0
M  V30 2571 C 245.102 2.3926 -2.54078 0
M  V30 2572 C 246.45 3.03217 -2.97228 0
M  V30 2573 O 247.474 2.49588 -2.54135 0
M  V30 2574 O 246.333 4.00455 -3.71885 0
M  V30 2575 H 243.427 0.629625 -0.536191 0
M  V30 2576 H 245.973 0.678575 -1.55542 0
M  V30 2577 H 244.745 1.86352 -3.44076 0
M  V30 2578 H 244.368 3.1976 -2.36303 0
M  V30 2579 N 245.365 1.30045 0.890287 0
M  V30 2580 C 246.611 1.19747 1.64415 0
M  V30 2581 C 246.966 -0.246591 1.90813 0
M  V30 2582 O 246.259 -1.174 1.51419 0
M  V30 2583 C 246.453 1.95409 2.99249 0
M  V30 2584 C 246.282 3.47025 2.86013 0
M  V30 2585 C 245.052 4.1638 2.86279 0
M  V30 2586 C 247.25 4.42353 2.62351 0
M  V30 2587 N 245.232 5.54293 2.63879 0
M  V30 2588 C 246.603 5.67792 2.49022 0
M  V30 2589 C 248.658 4.32009 2.47533 0
M  V30 2590 C 247.361 6.8406 2.22383 0
M  V30 2591 C 249.387 5.48038 2.22279 0
M  V30 2592 C 248.749 6.72455 2.09722 0
M  V30 2593 H 244.848 0.493223 0.60684 0
M  V30 2594 H 247.432 1.6399 1.04954 0
M  V30 2595 H 245.603 1.53565 3.56752 0
M  V30 2596 H 247.335 1.77298 3.63796 0
M  V30 2597 H 244.09 3.68164 2.97913 0
M  V30 2598 H 244.514 6.26852 2.55706 0
M  V30 2599 H 249.156 3.36503 2.55979 0
M  V30 2600 H 246.874 7.79612 2.12675 0
M  V30 2601 H 250.46 5.41939 2.11643 0
M  V30 2602 H 249.34 7.60722 1.90453 0
M  V30 2603 N 246.843 -1.10192 1.12674 0
M  V30 2604 C 248.254 -1.63707 0.897604 0
M  V30 2605 C 248.605 -1.87812 -0.567546 0
M  V30 2606 O 247.73 -1.62196 -1.43253 0
M  V30 2607 C 248.325 -2.974 1.62292 0
M  V30 2608 C 246.884 -3.47772 1.43986 0
M  V30 2609 C 246.031 -2.22332 1.65722 0
M  V30 2610 H 248.982 -0.936587 1.28116 0
M  V30 2611 H 249.003 -3.64986 1.07541 0
M  V30 2612 H 248.515 -2.79824 2.68924 0
M  V30 2613 H 246.616 -3.70487 0.396206 0
M  V30 2614 H 246.729 -4.25723 2.19765 0
M  V30 2615 H 245.093 -2.30599 1.08149 0
M  V30 2616 H 245.876 -2.07285 2.73657 0
M  V30 2617 N 248.321 -0.919034 -1.28029 0
M  V30 2618 C 249.568 -0.554934 -1.94748 0
M  V30 2619 C 249.896 0.90231 -1.72304 0
M  V30 2620 O 249.151 1.65767 -1.04018 0
M  V30 2621 C 249.45 -0.816855 -3.4794 0
M  V30 2622 C 249.116 -2.25448 -3.90492 0
M  V30 2623 C 247.778 -2.64752 -4.01821 0
M  V30 2624 C 250.13 -3.18977 -4.12193 0
M  V30 2625 C 247.458 -3.96727 -4.32232 0
M  V30 2626 C 249.81 -4.50523 -4.44086 0
M  V30 2627 C 248.474 -4.89673 -4.53626 0
M  V30 2628 H 247.744 -0.203065 -0.712633 0
M  V30 2629 H 250.391 -1.16136 -1.52265 0
M  V30 2630 H 248.696 -0.127677 -3.91592 0
M  V30 2631 H 250.393 -0.514238 -3.97689 0
M  V30 2632 H 246.983 -1.93952 -3.82205 0
M  V30 2633 H 251.167 -2.89817 -4.02889 0
M  V30 2634 H 246.423 -4.26754 -4.37825 0
M  V30 2635 H 250.597 -5.23005 -4.59825 0
M  V30 2636 H 248.224 -5.91969 -4.76946 0
M  V30 2637 N 249.799 1.42003 -0.683588 0
M  V30 2638 C 251.047 2.01015 -0.209101 0
M  V30 2639 C 251.368 1.54365 1.19149 0
M  V30 2640 O 250.638 0.769083 1.80172 0
M  V30 2641 H 249.218 0.743294 -0.074315 0
M  V30 2642 H 251.88 1.73798 -0.882066 0
M  V30 2643 H 250.976 3.11343 -0.2172 0
M  V30 2644 N 251.277 0.427512 1.51691 0
M  V30 2645 C 252.24 -0.377132 2.26076 0
M  V30 2646 C 253.24 -0.958089 1.29141 0
M  V30 2647 O 254.43 -0.83408 1.52934 0
M  V30 2648 C 251.562 -1.53262 3.04506 0
M  V30 2649 H 252.755 0.27464 2.9864 0
M  V30 2650 H 250.308 0.180445 1.55255 0
M  V30 2651 H 251.043 -2.22072 2.36335 0
M  V30 2652 H 250.828 -1.12232 3.75694 0
M  V30 2653 H 252.318 -2.10135 3.60878 0
M  V30 2654 N 252.755 -1.56801 0.158532 0
M  V30 2655 C 253.665 -2.20916 -0.789518 0
M  V30 2656 C 254.681 -1.1969 -1.26294 0
M  V30 2657 O 255.857 -1.52308 -1.31773 0
M  V30 2658 C 252.922 -2.82727 -2.00665 0
M  V30 2659 C 251.983 -3.99114 -1.58134 0
M  V30 2660 C 251.216 -4.57968 -2.74045 0
M  V30 2661 O 251.439 -4.15704 -3.90572 0
M  V30 2662 O 250.373 -5.48047 -2.48855 0
M  V30 2663 H 254.199 -3.02464 -0.273681 0
M  V30 2664 H 251.784 -1.4924 -0.0690548 0
M  V30 2665 H 253.666 -3.21968 -2.71872 0
M  V30 2666 H 252.341 -2.04184 -2.51179 0
M  V30 2667 H 251.248 -3.64567 -0.839155 0
M  V30 2668 H 252.581 -4.79212 -1.12325 0
M  V30 2669 N 254.233 0.115231 -1.57178 0
M  V30 2670 C 255.166 1.17166 -1.95825 0
M  V30 2671 C 256.144 1.39912 -0.828463 0
M  V30 2672 O 257.328 1.54004 -1.08697 0
M  V30 2673 C 254.455 2.52478 -2.25771 0
M  V30 2674 C 253.501 2.46136 -3.48309 0
M  V30 2675 S 254.334 1.89736 -5.0076 0
M  V30 2676 C 255.49 3.26713 -5.33863 0
M  V30 2677 H 255.723 0.842103 -2.85124 0
M  V30 2678 H 253.256 0.322136 -1.51002 0
M  V30 2679 H 255.214 3.30332 -2.43702 0
M  V30 2680 H 253.875 2.82609 -1.37079 0
M  V30 2681 H 253.068 3.45819 -3.66641 0
M  V30 2682 H 252.67 1.76404 -3.29784 0
M  V30 2683 H 254.962 4.22935 -5.29275 0
M  V30 2684 H 255.905 3.13205 -6.35065 0
M  V30 2685 H 256.313 3.25316 -4.61335 0
M  V30 2686 N 255.711 1.52812 0.385517 0
M  V30 2687 C 256.951 1.69716 1.13911 0
M  V30 2688 C 257.315 0.42962 1.87132 0
M  V30 2689 O 258.516 0.475071 2.64569 0
M  V30 2690 C 256.787 2.90021 2.0886 0
M  V30 2691 S 258.346 3.27531 2.92009 0
M  V30 2692 H 255.164 0.59739 0.385547 0
M  V30 2693 H 257.766 1.90868 0.423061 0
M  V30 2694 H 256.47 3.80493 1.53797 0
M  V30 2695 H 256.001 2.71213 2.84969 0
M  V30 2696 H 258.016 2.77989 4.11019 0
M  V30 2697 N 257.189 -0.644168 1.43834 0
M  V30 2698 C 258.136 -1.75671 1.49694 0
M  V30 2699 C 259.106 -1.6246 0.345809 0
M  V30 2700 O 260.291 -1.82573 0.554234 0
M  V30 2701 C 257.431 -3.13867 1.43463 0
M  V30 2702 C 256.544 -3.38147 2.6885 0
M  V30 2703 C 255.679 -4.66241 2.54544 0
M  V30 2704 C 254.718 -4.83657 3.75157 0
M  V30 2705 N 253.855 -6.03016 3.59605 0
M  V30 2706 H 258.695 -1.69998 2.44754 0
M  V30 2707 H 256.232 -0.829458 1.21484 0
M  V30 2708 H 258.19 -3.9377 1.37843 0
M  V30 2709 H 256.82 -3.18588 0.519783 0
M  V30 2710 H 255.872 -2.52276 2.84712 0
M  V30 2711 H 257.184 -3.46899 3.58417 0
M  V30 2712 H 256.338 -5.54285 2.46683 0
M  V30 2713 H 255.077 -4.59826 1.62516 0
M  V30 2714 H 254.082 -3.94046 3.83416 0
M  V30 2715 H 255.307 -4.91896 4.68204 0
M  V30 2716 H 253.253 -5.97715 2.7032 0
M  V30 2717 H 253.17 -6.12766 4.42779 0
M  V30 2718 H 254.438 -6.93657 3.55613 0
M  V30 2719 N 258.668 -1.30515 -0.883378 0
M  V30 2720 C 259.598 -1.19607 -2.00541 0
M  V30 2721 C 260.579 -0.086346 -1.69881 0
M  V30 2722 O 261.764 -0.268654 -1.92333 0
M  V30 2723 C 258.894 -0.888758 -3.35736 0
M  V30 2724 C 257.848 -1.95659 -3.8066 0
M  V30 2725 C 257.174 -1.50224 -5.13164 0
M  V30 2726 C 258.474 -3.36788 -3.99213 0
M  V30 2727 H 260.168 -2.13476 -2.09925 0
M  V30 2728 H 257.714 -1.02775 -1.00863 0
M  V30 2729 H 259.667 -0.799094 -4.13754 0
M  V30 2730 H 258.391 0.0856125 -3.26488 0
M  V30 2731 H 257.05 -2.03591 -3.04871 0
M  V30 2732 H 256.698 -0.516092 -5.00345 0
M  V30 2733 H 256.398 -2.2165 -5.44192 0
M  V30 2734 H 257.922 -1.42639 -5.93706 0
M  V30 2735 H 259.336 -3.31605 -4.67665 0
M  V30 2736 H 257.733 -4.06314 -4.41621 0
M  V30 2737 H 258.803 -3.78561 -3.03017 0
M  V30 2738 N 260.146 1.09593 -1.13257 0
M  V30 2739 C 261.392 1.82003 -0.89458 0
M  V30 2740 C 261.725 1.85402 0.577906 0
M  V30 2741 O 261 1.32099 1.42759 0
M  V30 2742 C 261.283 3.28237 -1.48096 0
M  V30 2743 C 261.136 3.3312 -3.02244 0
M  V30 2744 C 262.455 4.24871 -1.14774 0
M  V30 2745 H 259.574 0.66077 -0.326424 0
M  V30 2746 H 262.216 1.28389 -1.40058 0
M  V30 2747 H 260.366 3.74024 -1.05062 0
M  V30 2748 H 262.038 2.95748 -3.54021 0
M  V30 2749 H 260.281 2.72756 -3.37323 0
M  V30 2750 H 260.952 4.3613 -3.38371 0
M  V30 2751 H 263.428 3.87361 -1.51957 0
M  V30 2752 H 262.304 5.25532 -1.58452 0
M  V30 2753 H 262.565 4.42058 -0.0611849 0
M  V30 2754 N 261.624 0.925811 1.2754 0
M  V30 2755 C 263.035 0.610102 1.7645 0
M  V30 2756 C 263.386 -0.874723 1.75622 0
M  V30 2757 O 262.511 -1.68444 1.35851 0
M  V30 2758 C 263.106 1.10073 3.20421 0
M  V30 2759 C 261.665 0.835723 3.67005 0
M  V30 2760 C 260.812 1.26054 2.46993 0
M  V30 2761 H 263.763 1.10579 1.13833 0
M  V30 2762 H 263.784 0.447557 3.77859 0
M  V30 2763 H 263.296 2.18143 3.20991 0
M  V30 2764 H 261.397 -0.231249 3.71882 0
M  V30 2765 H 261.51 1.45193 4.56569 0
M  V30 2766 H 259.874 0.679111 2.45479 0
M  V30 2767 H 260.657 2.34984 2.50275 0
M  V30 2768 N 263.102 -1.41638 0.69111 0
M  V30 2769 C 264.349 -2.01299 0.220193 0
M  V30 2770 C 264.677 -1.54715 -1.17871 0
M  V30 2771 O 263.932 -0.747193 -1.80874 0
M  V30 2772 C 264.231 -3.56714 0.221277 0
M  V30 2773 C 263.897 -4.22792 1.56709 0
M  V30 2774 C 262.559 -4.40557 1.93554 0
M  V30 2775 C 264.911 -4.59883 2.45268 0
M  V30 2776 C 262.239 -4.92688 3.18552 0
M  V30 2777 C 264.591 -5.13403 3.69595 0
M  V30 2778 C 263.255 -5.29379 4.06589 0
M  V30 2779 H 262.525 -0.736606 0.0805743 0
M  V30 2780 H 265.172 -1.69598 0.889319 0
M  V30 2781 H 263.477 -3.8818 -0.531391 0
M  V30 2782 H 265.174 -4.00678 -0.160547 0
M  V30 2783 H 261.764 -4.09336 1.2705 0
M  V30 2784 H 265.948 -4.45817 2.18084 0
M  V30 2785 H 261.204 -5.03242 3.47214 0
M  V30 2786 H 265.378 -5.41084 4.38407 0
M  V30 2787 H 263.005 -5.69537 5.03519 0
M  V30 2788 N 264.58 -0.43555 -1.51462 0
M  V30 2789 C 265.829 0.133007 -2.01261 0
M  V30 2790 C 266.142 1.43942 -1.32439 0
M  V30 2791 O 267.348 2.09081 -1.73198 0
M  V30 2792 C 265.804 0.287581 -3.58749 0
M  V30 2793 C 265.412 -1.00829 -4.36506 0
M  V30 2794 C 267.156 0.810004 -4.167 0
M  V30 2795 C 265.063 -0.819454 -5.85695 0
M  V30 2796 H 263.993 0.0534822 -0.752101 0
M  V30 2797 H 266.644 -0.565038 -1.74584 0
M  V30 2798 H 265.026 1.04859 -3.81865 0
M  V30 2799 H 266.2 -1.77749 -4.25138 0
M  V30 2800 H 264.515 -1.45911 -3.89999 0
M  V30 2801 H 267.112 0.967743 -5.2587 0
M  V30 2802 H 267.455 1.79196 -3.75758 0
M  V30 2803 H 267.988 0.107357 -3.97655 0
M  V30 2804 H 264.727 -1.77374 -6.31046 0
M  V30 2805 H 264.247 -0.0900208 -5.99732 0
M  V30 2806 H 265.926 -0.471949 -6.45276 0
M  V30 2807 N 266.058 1.56714 -0.166846 0
M  V30 2808 C 266.99 2.14914 0.796537 0
M  V30 2809 C 268.003 1.10357 1.19688 0
M  V30 2810 O 269.192 1.37561 1.13751 0
M  V30 2811 C 266.292 2.67326 2.08303 0
M  V30 2812 C 265.465 3.96493 1.84696 0
M  V30 2813 C 264.524 4.34014 2.97521 0
M  V30 2814 O 263.55 5.01973 2.6835 0
M  V30 2815 N 264.752 3.95208 4.25196 0
M  V30 2816 H 267.517 2.98205 0.299006 0
M  V30 2817 H 265.078 1.61892 0.0160839 0
M  V30 2818 H 267.07 2.89428 2.82867 0
M  V30 2819 H 265.64 1.88649 2.4926 0
M  V30 2820 H 264.86 3.82814 0.940602 0
M  V30 2821 H 266.148 4.8086 1.66285 0
M  V30 2822 H 265.546 3.40487 4.51758 0
M  V30 2823 H 264.103 4.2232 4.96477 0
M  V30 2824 N 267.536 -0.106894 1.57237 0
M  V30 2825 C 268.483 -1.13049 2.01217 0
M  V30 2826 C 269.453 -1.40471 0.886403 0
M  V30 2827 O 270.638 -1.52133 1.15153 0
M  V30 2828 C 267.778 -2.4487 2.43172 0
M  V30 2829 C 266.891 -2.24281 3.69218 0
M  V30 2830 C 266.026 -3.49417 4.00101 0
M  V30 2831 C 265.065 -3.24038 5.19294 0
M  V30 2832 N 264.202 -4.41409 5.45988 0
M  V30 2833 H 269.042 -0.748456 2.88448 0
M  V30 2834 H 266.579 -0.358054 1.42676 0
M  V30 2835 H 268.537 -3.21786 2.65537 0
M  V30 2836 H 267.167 -2.80944 1.58967 0
M  V30 2837 H 266.219 -1.38224 3.54398 0
M  V30 2838 H 267.531 -2.01512 4.56283 0
M  V30 2839 H 266.685 -4.34746 4.2318 0
M  V30 2840 H 265.424 -3.75229 3.11535 0
M  V30 2841 H 264.429 -2.37102 4.96047 0
M  V30 2842 H 265.654 -2.99584 6.09447 0
M  V30 2843 H 263.6 -4.67319 4.60379 0
M  V30 2844 H 263.517 -4.21788 6.274 0
M  V30 2845 H 264.785 -5.27836 5.73593 0
M  V30 2846 N 269.014 -1.53014 -0.377408 0
M  V30 2847 C 269.977 -1.77957 -1.44444 0
M  V30 2848 C 270.977 -0.649763 -1.47087 0
M  V30 2849 O 272.167 -0.917897 -1.48055 0
M  V30 2850 C 269.299 -1.89089 -2.83651 0
M  V30 2851 H 270.492 -2.73243 -1.23606 0
M  V30 2852 H 268.045 -1.43912 -0.609844 0
M  V30 2853 H 268.78 -0.958293 -3.09818 0
M  V30 2854 H 268.565 -2.71254 -2.83132 0
M  V30 2855 H 270.055 -2.1002 -3.60945 0
M  V30 2856 N 270.492 0.636531 -1.44174 0
M  V30 2857 C 271.717 1.42847 -1.50364 0
M  V30 2858 C 272.142 1.87665 -0.127867 0
M  V30 2859 O 271.5 1.58408 0.88185 0
M  V30 2860 C 271.548 2.62854 -2.4686 0
M  V30 2861 O 270.652 3.62501 -1.9664 0
M  V30 2862 H 269.993 0.427642 -0.507955 0
M  V30 2863 H 272.523 0.777422 -1.89255 0
M  V30 2864 H 272.533 3.10465 -2.64718 0
M  V30 2865 H 271.208 2.29578 -3.46795 0
M  V30 2866 H 269.785 3.21735 -1.88523 0
M  V30 2867 N 271.97 1.30982 0.876444 0
M  V30 2868 C 273.216 1.20474 1.63138 0
M  V30 2869 C 273.549 -0.238096 1.92735 0
M  V30 2870 O 272.824 -1.1692 1.55435 0
M  V30 2871 C 273.107 2.04244 2.96574 0
M  V30 2872 C 272.96 3.56793 2.73896 0
M  V30 2873 C 274.279 1.88684 3.97601 0
M  V30 2874 H 271.398 0.439001 0.591985 0
M  V30 2875 H 274.04 1.60704 1.01361 0
M  V30 2876 H 272.19 1.70063 3.493 0
M  V30 2877 H 273.862 4.01077 2.27892 0
M  V30 2878 H 272.105 3.80548 2.08245 0
M  V30 2879 H 272.776 4.10706 3.68815 0
M  V30 2880 H 275.252 2.18584 3.54062 0
M  V30 2881 H 274.128 2.4961 4.88862 0
M  V30 2882 H 274.389 0.848343 4.33884 0
M  V30 2883 N 273.449 -1.08991 1.13837 0
M  V30 2884 C 274.697 -1.80899 0.901098 0
M  V30 2885 C 275.018 -1.86356 -0.574134 0
M  V30 2886 O 274.288 -1.35235 -1.41733 0
M  V30 2887 H 272.868 -0.669966 0.330386 0
M  V30 2888 H 275.53 -1.318 1.43578 0
M  V30 2889 H 274.626 -2.83929 1.29578 0
M  V30 2890 N 274.927 -0.932562 -1.27047 0
M  V30 2891 C 276.176 -0.571351 -1.93439 0
M  V30 2892 C 276.489 0.892467 -1.74053 0
M  V30 2893 O 277.695 1.36267 -2.34826 0
M  V30 2894 C 276.151 -0.97106 -3.46552 0
M  V30 2895 C 275.759 -2.4559 -3.74686 0
M  V30 2896 C 277.503 -0.681333 -4.18997 0
M  V30 2897 C 275.41 -2.79475 -5.21198 0
M  V30 2898 H 274.34 -0.209966 -0.724176 0
M  V30 2899 H 276.991 -1.13403 -1.44263 0
M  V30 2900 H 275.373 -0.336983 -3.94564 0
M  V30 2901 H 276.547 -3.13829 -3.37414 0
M  V30 2902 H 274.862 -2.71802 -3.15456 0
M  V30 2903 H 277.459 -0.910939 -5.26883 0
M  V30 2904 H 277.802 0.381628 -4.14547 0
M  V30 2905 H 278.335 -1.27473 -3.76823 0
M  V30 2906 H 275.074 -3.847 -5.30741 0
M  V30 2907 H 274.594 -2.1589 -5.596 0
M  V30 2908 H 276.273 -2.67478 -5.89122 0
M  V30 2909 N 276.405 1.4127 -0.698611 0
M  V30 2910 C 277.633 2.05503 -0.239992 0
M  V30 2911 C 278.048 1.52584 1.11191 0
M  V30 2912 O 277.405 0.675323 1.69545 0
M  V30 2913 C 277.456 3.60987 -0.192429 0
M  V30 2914 O 277.177 4.1195 -1.49094 0
M  V30 2915 C 278.678 4.42371 0.28681 0
M  V30 2916 H 275.898 0.661748 -0.111045 0
M  V30 2917 H 278.442 1.80987 -0.95205 0
M  V30 2918 H 276.597 3.84533 0.470472 0
M  V30 2919 H 277.011 5.06018 -1.38007 0
M  V30 2920 H 278.485 5.51344 0.26896 0
M  V30 2921 H 278.962 4.18699 1.32619 0
M  V30 2922 H 279.568 4.23897 -0.345201 0
M  V30 2923 N 277.883 0.443576 1.51229 0
M  V30 2924 C 279.129 -0.120975 2.02439 0
M  V30 2925 C 279.462 -1.41815 1.32674 0
M  V30 2926 O 278.737 -1.89373 0.443622 0
M  V30 2927 C 279.02 -0.333291 3.58554 0
M  V30 2928 C 278.873 0.982968 4.38928 0
M  V30 2929 C 280.192 -1.10028 4.26124 0
M  V30 2930 H 277.311 -0.0424923 0.735774 0
M  V30 2931 H 279.953 0.583794 1.80809 0
M  V30 2932 H 278.103 -0.933614 3.77115 0
M  V30 2933 H 279.775 1.61775 4.32003 0
M  V30 2934 H 278.018 1.58611 4.03763 0
M  V30 2935 H 278.689 0.788379 5.46341 0
M  V30 2936 H 281.165 -0.591711 4.11871 0
M  V30 2937 H 280.041 -1.21761 5.35225 0
M  V30 2938 H 280.302 -2.12996 3.87408 0
M  V30 2939 N 279.361 -1.56624 0.175154 0
M  V30 2940 C 280.291 -2.21155 -0.749195 0
M  V30 2941 C 281.272 -1.16836 -1.23626 0
M  V30 2942 O 282.457 -1.45277 -1.28873 0
M  V30 2943 C 279.587 -2.8553 -1.97711 0
M  V30 2944 C 278.541 -3.95921 -1.62575 0
M  V30 2945 C 277.867 -4.47365 -2.92864 0
M  V30 2946 C 279.167 -5.15323 -0.850838 0
M  V30 2947 H 280.861 -2.98653 -0.211295 0
M  V30 2948 H 278.407 -1.43651 -0.100188 0
M  V30 2949 H 280.36 -3.2935 -2.62881 0
M  V30 2950 H 279.084 -2.05406 -2.53921 0
M  V30 2951 H 277.743 -3.52762 -0.997719 0
M  V30 2952 H 277.391 -3.64027 -3.47122 0
M  V30 2953 H 277.091 -5.21839 -2.70106 0
M  V30 2954 H 278.615 -4.93873 -3.59056 0
M  V30 2955 H 280.029 -5.55812 -1.40521 0
M  V30 2956 H 278.426 -5.95739 -0.722154 0
M  V30 2957 H 279.496 -4.84661 0.152082 0
M  V30 2958 N 280.839 0.0985539 -1.57292 0
M  V30 2959 C 282.064 0.820196 -1.90493 0
M  V30 2960 C 282.489 1.71658 -0.769094 0
M  V30 2961 O 281.847 1.79133 0.279495 0
M  V30 2962 C 281.895 1.61242 -3.22542 0
M  V30 2963 O 280.999 2.72108 -3.09888 0
M  V30 2964 H 280.34 0.225547 -0.62452 0
M  V30 2965 H 282.87 0.0748159 -2.04463 0
M  V30 2966 H 282.88 1.99737 -3.55766 0
M  V30 2967 H 281.555 0.954535 -4.04798 0
M  V30 2968 H 280.132 2.36667 -2.88172 0
M  V30 2969 N 282.317 1.53212 0.369288 0
M  V30 2970 C 283.247 1.82365 1.45826 0
M  V30 2971 C 284.228 0.676907 1.56051 0
M  V30 2972 O 285.413 0.926401 1.70679 0
M  V30 2973 C 282.543 2.01023 2.83208 0
M  V30 2974 C 281.497 3.1678 2.8781 0
M  V30 2975 C 280.823 3.20724 4.27832 0
M  V30 2976 C 282.123 4.55447 2.55667 0
M  V30 2977 H 283.817 2.73559 1.21678 0
M  V30 2978 H 281.363 1.3163 0.583911 0
M  V30 2979 H 283.316 2.20001 3.59413 0
M  V30 2980 H 282.04 1.06536 3.08736 0
M  V30 2981 H 280.699 2.97616 2.14056 0
M  V30 2982 H 280.347 2.23882 4.50429 0
M  V30 2983 H 280.047 3.98496 4.31827 0
M  V30 2984 H 281.571 3.41881 5.05915 0
M  V30 2985 H 282.985 4.74611 3.21586 0
M  V30 2986 H 281.382 5.35432 2.70984 0
M  V30 2987 H 282.452 4.60812 1.5093 0
M  V30 2988 N 283.795 -0.628877 1.44509 0
M  V30 2989 C 285.035 -1.39993 1.48934 0
M  V30 2990 C 285.399 -1.91627 0.119604 0
M  V30 2991 O 286.6 -2.68772 0.0385283 0
M  V30 2992 C 284.871 -2.53241 2.52198 0
M  V30 2993 S 286.43 -3.41383 2.75687 0
M  V30 2994 H 283.248 -0.477558 0.526744 0
M  V30 2995 H 285.85 -0.727804 1.81448 0
M  V30 2996 H 284.554 -2.13622 3.50419 0
M  V30 2997 H 284.085 -3.25278 2.21264 0
M  V30 2998 H 286.1 -4.50752 2.07453 0
M  V30 2999 N 285.273 -1.31445 -0.869486 0
M  V30 3000 C 286.236 -1.19094 -1.9583 0
M  V30 3001 C 287.236 -0.117906 -1.60367 0
M  V30 3002 O 288.426 -0.367208 -1.70286 0
M  V30 3003 C 285.558 -0.828165 -3.30688 0
M  V30 3004 H 286.751 -2.15842 -2.08212 0
M  V30 3005 H 284.304 -1.15063 -1.05784 0
M  V30 3006 H 285.039 0.138142 -3.24006 0
M  V30 3007 H 284.824 -1.6038 -3.578 0
M  V30 3008 H 286.314 -0.765658 -4.10521 0
M  V30 3009 N 286.751 1.08385 -1.14413 0
M  V30 3010 C 287.681 2.17321 -0.854044 0
M  V30 3011 C 288.662 1.69024 0.191049 0
M  V30 3012 O 289.847 1.94141 0.0476779 0
M  V30 3013 C 286.977 3.45719 -0.330983 0
M  V30 3014 C 285.931 4.07409 -1.31155 0
M  V30 3015 C 285.257 5.30762 -0.64778 0
M  V30 3016 C 286.557 4.48665 -2.67388 0
M  V30 3017 H 288.251 2.41845 -1.76498 0
M  V30 3018 H 285.797 1.16233 -0.850051 0
M  V30 3019 H 287.75 4.21241 -0.115645 0
M  V30 3020 H 286.474 3.2075 0.615381 0
M  V30 3021 H 285.133 3.33919 -1.51306 0
M  V30 3022 H 284.781 5.02078 0.304398 0
M  V30 3023 H 284.481 5.72992 -1.30207 0
M  V30 3024 H 286.005 6.08998 -0.441972 0
M  V30 3025 H 287.419 5.15364 -2.51143 0
M  V30 3026 H 285.816 5.01814 -3.29093 0
M  V30 3027 H 286.886 3.60543 -3.24248 0
M  V30 3028 N 288.23 0.939286 1.26551 0
M  V30 3029 C 289.455 0.602008 1.98471 0
M  V30 3030 C 289.88 -0.815624 1.69497 0
M  V30 3031 O 289.238 -1.54912 0.941905 0
M  V30 3032 C 289.286 0.848407 3.50477 0
M  V30 3033 O 288.39 -0.0804009 4.12322 0
M  V30 3034 H 287.731 0.23049 0.622712 0
M  V30 3035 H 290.261 1.2617 1.61066 0
M  V30 3036 H 290.271 0.768553 4.00696 0
M  V30 3037 H 288.946 1.88171 3.70897 0
M  V30 3038 H 287.523 0.0503508 3.72866 0
M  V30 3039 N 289.708 -1.40897 0.706093 0
M  V30 3040 C 290.957 -2.00284 0.238574 0
M  V30 3041 C 291.27 -1.56604 -1.17194 0
M  V30 3042 O 292.476 -2.08624 -1.73748 0
M  V30 3043 C 290.932 -3.57934 0.375623 0
M  V30 3044 C 290.54 -4.10591 1.79217 0
M  V30 3045 C 292.284 -4.24488 -0.0315857 0
M  V30 3046 C 290.191 -5.60712 1.88032 0
M  V30 3047 H 289.121 -0.749144 0.0854398 0
M  V30 3048 H 291.772 -1.61251 0.875813 0
M  V30 3049 H 290.154 -3.94622 -0.330042 0
M  V30 3050 H 291.328 -3.85301 2.52745 0
M  V30 3051 H 289.643 -3.56601 2.15 0
M  V30 3052 H 292.24 -5.34698 0.0136842 0
M  V30 3053 H 292.583 -4.02261 -1.072 0
M  V30 3054 H 293.116 -3.92873 0.624181 0
M  V30 3055 H 289.855 -5.87781 2.90161 0
M  V30 3056 H 289.375 -5.87896 1.18903 0
M  V30 3057 H 291.054 -6.25658 1.64805 0
M  V30 3058 N 291.186 -0.45159 -1.50991 0
M  V30 3059 C 292.463 0.170707 -1.94854 0
M  V30 3060 C 292.843 1.58788 -1.39103 0
M  V30 3061 O 292.191 2.20913 -0.583921 0
M  V30 3062 C 292.401 0.133929 -3.48743 0
M  V30 3063 C 293.749 0.33248 -4.23296 0
M  V30 3064 O 294.773 0.211403 -3.55572 0
M  V30 3065 O 293.632 0.57486 -5.43468 0
M  V30 3066 H 290.726 0.122264 -0.817912 0
M  V30 3067 H 293.272 -0.510594 -1.61836 0
M  V30 3068 H 292.044 -0.856283 -3.81816 0
M  V30 3069 H 291.667 0.857529 -3.88242 0
M  V30 3070 N 292.664 1.56529 -0.183458 0
M  V30 3071 C 294.08 1.58664 0.172554 0
M  V30 3072 C 294.28 1.19925 1.61926 0
M  V30 3073 O 293.336 0.916534 2.35278 0
M  V30 3074 C 294.649 3.00463 -0.119262 0
M  V30 3075 C 296.197 3.12945 -0.0584396 0
M  V30 3076 C 296.672 4.56857 -0.323408 0
M  V30 3077 N 298.163 4.62403 -0.271612 0
M  V30 3078 C 298.898 5.71626 -0.450639 0
M  V30 3079 N 298.394 6.89362 -0.689384 0
M  V30 3080 N 300.187 5.60775 -0.385701 0
M  V30 3081 H 292.338 1.79994 -1.12765 0
M  V30 3082 H 294.601 0.834808 -0.449222 0
M  V30 3083 H 294.307 3.33326 -1.12192 0
M  V30 3084 H 294.181 3.72659 0.583544 0
M  V30 3085 H 296.568 2.79902 0.934805 0
M  V30 3086 H 296.649 2.4316 -0.794144 0
M  V30 3087 H 296.293 4.9061 -1.31392 0
M  V30 3088 H 296.223 5.24816 0.43305 0
M  V30 3089 H 298.714 3.77785 -0.0932256 0
M  V30 3090 H 299.027 7.68489 -0.815113 0
M  V30 3091 H 297.372 6.91196 -0.726142 0
M  V30 3092 H 300.563 4.67674 -0.199687 0
M  V30 3093 H 300.736 6.4584 -0.528646 0
M  V30 3094 N 294.142 -0.090211 1.57342 0
M  V30 3095 C 295.372 -0.805055 1.90269 0
M  V30 3096 C 295.78 -1.72561 0.775842 0
M  V30 3097 O 295.123 -1.81839 -0.260843 0
M  V30 3098 C 295.185 -1.66734 3.18497 0
M  V30 3099 C 294.849 -0.918092 4.47683 0
M  V30 3100 C 295.846 -0.245674 5.19319 0
M  V30 3101 C 293.531 -0.890724 4.94339 0
M  V30 3102 C 295.525 0.444088 6.35851 0
M  V30 3103 C 293.212 -0.197179 6.10782 0
M  V30 3104 C 294.21 0.469044 6.81388 0
M  V30 3105 O 293.898 1.15146 7.95611 0
M  V30 3106 H 293.63 -0.235143 0.633785 0
M  V30 3107 H 296.184 -0.0703805 2.05279 0
M  V30 3108 H 294.414 -2.44437 2.99646 0
M  V30 3109 H 296.103 -2.25919 3.37217 0
M  V30 3110 H 296.869 -0.258246 4.84312 0
M  V30 3111 H 292.748 -1.39873 4.39268 0
M  V30 3112 H 296.292 0.964667 6.90898 0
M  V30 3113 H 292.189 -0.18247 6.45242 0
M  V30 3114 H 292.957 1.05885 8.11622 0
M  V30 3115 N 295.62 -1.53406 -0.361157 0
M  V30 3116 C 297.036 -1.43277 -0.703124 0
M  V30 3117 C 297.236 -0.575384 -1.9311 0
M  V30 3118 O 296.292 -0.0595362 -2.5243 0
M  V30 3119 C 297.605 -2.8653 -0.9122 0
M  V30 3120 C 299.153 -2.96191 -1.01193 0
M  V30 3121 C 299.628 -4.40514 -1.25345 0
M  V30 3122 N 301.119 -4.43962 -1.32105 0
M  V30 3123 C 301.854 -5.52746 -1.5251 0
M  V30 3124 N 301.35 -6.71567 -1.70203 0
M  V30 3125 N 303.143 -5.40331 -1.54916 0
M  V30 3126 H 295.294 -2.07654 0.446475 0
M  V30 3127 H 297.557 -0.937944 0.137715 0
M  V30 3128 H 297.263 -3.51605 -0.0816414 0
M  V30 3129 H 297.137 -3.30441 -1.81903 0
M  V30 3130 H 299.524 -2.31266 -1.83303 0
M  V30 3131 H 299.605 -2.55667 -0.0823929 0
M  V30 3132 H 299.249 -5.06014 -0.437346 0
M  V30 3133 H 299.179 -4.78614 -2.19627 0
M  V30 3134 H 301.67 -3.58332 -1.20028 0
M  V30 3135 H 301.983 -7.50241 -1.85359 0
M  V30 3136 H 300.328 -6.74545 -1.67373 0
M  V30 3137 H 303.519 -4.46465 -1.40663 0
M  V30 3138 H 303.692 -6.25173 -1.70477 0
M  V30 3139 N 297.098 0.621204 -1.44841 0
M  V30 3140 C 298.061 1.71459 -1.521 0
M  V30 3141 C 299.061 1.55696 -0.401933 0
M  V30 3142 O 300.251 1.61011 -0.664925 0
M  V30 3143 C 297.383 3.10624 -1.40447 0
M  V30 3144 H 298.576 1.66394 -2.49506 0
M  V30 3145 H 296.129 0.835745 -1.3208 0
M  V30 3146 H 296.864 3.21277 -0.441737 0
M  V30 3147 H 296.649 3.23473 -2.21602 0
M  V30 3148 H 298.139 3.90293 -1.4853 0
M  V30 3149 N 298.576 1.31904 0.862503 0
M  V30 3150 C 299.822 1.22197 1.61851 0
M  V30 3151 C 300.155 -0.217641 1.92977 0
M  V30 3152 O 299.43 -1.15264 1.56666 0
M  V30 3153 C 299.713 2.07378 2.94391 0
M  V30 3154 C 299.566 3.59678 2.70096 0
M  V30 3155 C 300.885 1.92891 3.95577 0
M  V30 3156 H 298.004 0.445255 0.587296 0
M  V30 3157 H 300.646 1.6177 0.99651 0
M  V30 3158 H 298.796 1.73758 3.47477 0
M  V30 3159 H 300.468 4.03472 2.23625 0
M  V30 3160 H 298.711 3.82735 2.04197 0
M  V30 3161 H 299.382 4.14595 3.64438 0
M  V30 3162 H 301.858 2.22327 3.51724 0
M  V30 3163 H 300.734 2.54781 4.86187 0
M  V30 3164 H 300.995 0.894315 4.3296 0
M  V30 3165 N 300.054 -1.07777 1.14986 0
M  V30 3166 C 301.017 -2.13041 0.845358 0
M  V30 3167 C 302.017 -1.60071 -0.152931 0
M  V30 3168 O 303.207 -1.74033 0.0761879 0
M  V30 3169 C 300.339 -3.39896 0.261383 0
M  V30 3170 H 301.532 -2.41485 1.77834 0
M  V30 3171 H 299.085 -1.23595 0.956757 0
M  V30 3172 H 299.82 -3.17091 -0.68 0
M  V30 3173 H 299.605 -3.79642 0.980514 0
M  V30 3174 H 301.095 -4.17548 0.0657687 0
M  V30 3175 N 301.532 -0.945985 -1.26051 0
M  V30 3176 C 302.757 -0.612525 -1.98149 0
M  V30 3177 C 303.182 0.806623 -1.69927 0
M  V30 3178 O 302.54 1.54411 -0.950108 0
M  V30 3179 C 302.588 -0.866981 -3.50023 0
M  V30 3180 O 301.692 0.0585333 -4.12358 0
M  V30 3181 H 301.033 -0.23379 -0.621481 0
M  V30 3182 H 303.563 -1.27023 -1.60395 0
M  V30 3183 H 303.573 -0.789792 -4.00283 0
M  V30 3184 H 302.248 -1.90135 -3.69894 0
M  V30 3185 H 300.825 -0.0701241 -3.72834 0
M  V30 3186 N 303.011 1.40521 -0.713556 0
M  V30 3187 C 304.257 2.01714 -0.261382 0
M  V30 3188 C 304.612 1.55562 1.13217 0
M  V30 3189 O 303.905 0.764893 1.7567 0
M  V30 3190 C 304.099 3.56317 -0.278 0
M  V30 3191 C 303.928 4.17476 -1.67163 0
M  V30 3192 C 302.698 4.50998 -2.2788 0
M  V30 3193 C 304.896 4.42472 -2.6215 0
M  V30 3194 N 302.878 4.9754 -3.5962 0
M  V30 3195 C 304.249 4.90985 -3.78594 0
M  V30 3196 C 306.304 4.24508 -2.60188 0
M  V30 3197 C 305.007 5.2342 -4.9338 0
M  V30 3198 C 307.033 4.58043 -3.741 0
M  V30 3199 C 306.395 5.06743 -4.89276 0
M  V30 3200 H 302.494 0.769104 -0.141434 0
M  V30 3201 H 305.078 1.70785 -0.934915 0
M  V30 3202 H 303.249 3.8668 0.36509 0
M  V30 3203 H 304.981 4.0425 0.190695 0
M  V30 3204 H 301.736 4.38062 -1.79997 0
M  V30 3205 H 302.16 5.25196 -4.27198 0
M  V30 3206 H 306.802 3.86078 -1.72348 0
M  V30 3207 H 304.52 5.60765 -5.81866 0
M  V30 3208 H 308.106 4.45785 -3.73854 0
M  V30 3209 H 306.986 5.32204 -5.75959 0
M  V30 3210 N 304.489 0.459591 1.5075 0
M  V30 3211 C 305.714 -0.0996819 2.0716 0
M  V30 3212 C 306.139 -1.33761 1.32249 0
M  V30 3213 O 305.497 -1.77551 0.366786 0
M  V30 3214 C 305.545 -0.378226 3.58611 0
M  V30 3215 O 304.649 -1.46081 3.85661 0
M  V30 3216 H 303.99 0.00791392 0.663953 0
M  V30 3217 H 306.52 0.647329 1.9409 0
M  V30 3218 H 306.53 -0.622135 4.03229 0
M  V30 3219 H 305.205 0.526439 4.12555 0
M  V30 3220 H 303.782 -1.20511 3.5289 0
M  V30 3221 N 305.967 -1.56429 0.191757 0
M  V30 3222 C 307.383 -1.58754 -0.164137 0
M  V30 3223 C 307.583 -1.20782 -1.61288 0
M  V30 3224 O 306.639 -0.928999 -2.34789 0
M  V30 3225 C 307.952 -3.00396 0.135195 0
M  V30 3226 C 309.5 -3.1291 0.0750351 0
M  V30 3227 C 309.975 -4.56679 0.347632 0
M  V30 3228 N 311.466 -4.62252 0.296131 0
M  V30 3229 C 312.201 -5.71379 0.480948 0
M  V30 3230 N 311.697 -6.88986 0.725933 0
M  V30 3231 N 313.49 -5.60563 0.415435 0
M  V30 3232 H 305.641 -1.79393 1.13718 0
M  V30 3233 H 307.904 -0.832414 0.453643 0
M  V30 3234 H 307.61 -3.32726 1.13958 0
M  V30 3235 H 307.484 -3.72963 -0.563773 0
M  V30 3236 H 309.871 -2.80394 -0.919948 0
M  V30 3237 H 309.952 -2.42736 0.807029 0
M  V30 3238 H 309.596 -4.89907 1.33992 0
M  V30 3239 H 309.526 -5.25039 -0.405212 0
M  V30 3240 H 312.017 -3.7773 0.113259 0
M  V30 3241 H 312.33 -7.68046 0.855857 0
M  V30 3242 H 310.675 -6.90801 0.762788 0
M  V30 3243 H 313.866 -4.67561 0.224486 0
M  V30 3244 H 314.039 -6.45551 0.562889 0
M  V30 3245 N 307.445 0.0818655 -1.57387 0
M  V30 3246 C 308.694 0.781681 -1.85937 0
M  V30 3247 C 309.007 1.79246 -0.782957 0
M  V30 3248 O 310.213 2.54112 -0.955987 0
M  V30 3249 C 308.669 1.44109 -3.29789 0
M  V30 3250 C 308.277 0.469396 -4.45534 0
M  V30 3251 C 310.021 2.12386 -3.67549 0
M  V30 3252 C 307.928 1.13415 -5.80423 0
M  V30 3253 H 306.858 0.295682 -0.693605 0
M  V30 3254 H 309.509 0.0348051 -1.83467 0
M  V30 3255 H 307.891 2.23588 -3.2684 0
M  V30 3256 H 309.065 -0.294856 -4.59856 0
M  V30 3257 H 307.38 -0.108383 -4.16259 0
M  V30 3258 H 309.977 2.62878 -4.65617 0
M  V30 3259 H 310.32 2.91877 -2.96839 0
M  V30 3260 H 310.853 1.39751 -3.72444 0
M  V30 3261 H 307.592 0.379771 -6.54399 0
M  V30 3262 H 307.112 1.8695 -5.69921 0
M  V30 3263 H 308.791 1.65686 -6.25426 0
M  V30 3264 N 308.923 1.53595 0.353017 0
M  V30 3265 C 309.87 1.80919 1.43308 0
M  V30 3266 C 310.84 0.654288 1.5267 0
M  V30 3267 O 312.025 0.897759 1.6836 0
M  V30 3268 C 309.165 2.01605 2.80089 0
M  V30 3269 C 308.278 3.29321 2.79593 0
M  V30 3270 C 307.413 3.40125 4.0803 0
M  V30 3271 C 306.452 4.61826 4.01725 0
M  V30 3272 N 305.589 4.69716 5.21834 0
M  V30 3273 H 310.429 2.73074 1.19308 0
M  V30 3274 H 307.966 1.35263 0.578131 0
M  V30 3275 H 309.924 2.11586 3.59565 0
M  V30 3276 H 308.554 1.12772 3.0246 0
M  V30 3277 H 307.606 3.28229 1.92276 0
M  V30 3278 H 308.918 4.18884 2.70809 0
M  V30 3279 H 308.072 3.49488 4.95927 0
M  V30 3280 H 306.811 2.48601 4.19582 0
M  V30 3281 H 305.816 4.52552 3.12213 0
M  V30 3282 H 307.041 5.54705 3.91764 0
M  V30 3283 H 304.987 3.81097 5.33948 0
M  V30 3284 H 304.904 5.53202 5.1527 0
M  V30 3285 H 306.172 4.83376 6.11529 0
M  V30 3286 N 310.401 -0.613514 1.45168 0
M  V30 3287 C 311.649 -1.36997 1.48581 0
M  V30 3288 C 311.97 -1.94589 0.126545 0
M  V30 3289 O 311.24 -1.76816 -0.843372 0
M  V30 3290 H 309.82 -0.508558 0.547154 0
M  V30 3291 H 312.482 -0.720853 1.81079 0
M  V30 3292 H 311.578 -2.1924 2.22127 0
M  V30 3293 N 311.879 -1.3236 -0.855495 0
M  V30 3294 C 313.128 -1.22226 -1.60448 0
M  V30 3295 C 313.441 0.214733 -1.94418 0
M  V30 3296 O 314.647 0.437917 -2.67945 0
M  V30 3297 C 313.103 -2.14063 -2.89318 0
M  V30 3298 C 312.711 -3.62839 -2.62777 0
M  V30 3299 C 314.455 -2.12764 -3.67331 0
M  V30 3300 C 312.362 -4.4664 -3.87643 0
M  V30 3301 H 311.292 -0.453904 -0.602069 0
M  V30 3302 H 313.943 -1.57314 -0.944698 0
M  V30 3303 H 312.325 -1.71889 -3.5675 0
M  V30 3304 H 313.499 -4.1335 -2.03662 0
M  V30 3305 H 311.814 -3.66261 -1.98096 0
M  V30 3306 H 314.411 -2.72611 -4.59987 0
M  V30 3307 H 314.754 -1.11841 -4.00995 0
M  V30 3308 H 315.287 -2.53214 -3.06802 0
M  V30 3309 H 312.026 -5.48373 -3.5912 0
M  V30 3310 H 311.546 -4.0088 -4.46156 0
M  V30 3311 H 313.225 -4.59597 -4.55389 0
M  V30 3312 N 313.357 1.07166 -1.15556 0
M  V30 3313 C 314.605 1.79443 -0.929764 0
M  V30 3314 C 314.926 1.87246 0.544414 0
M  V30 3315 O 314.196 1.37473 1.39564 0
M  V30 3316 H 312.776 0.664625 -0.341003 0
M  V30 3317 H 315.438 1.29499 -1.45657 0
M  V30 3318 H 314.534 2.81832 -1.34079 0
M  V30 3319 N 314.835 0.952656 1.25548 0
M  V30 3320 C 316.081 0.607272 1.93494 0
M  V30 3321 C 316.414 -0.853245 1.74452 0
M  V30 3322 O 315.689 -1.61194 1.08843 0
M  V30 3323 C 315.972 0.96435 3.46947 0
M  V30 3324 C 315.825 2.48045 3.75225 0
M  V30 3325 C 317.144 0.487987 4.37386 0
M  V30 3326 H 314.263 0.222096 0.702739 0
M  V30 3327 H 316.905 1.18895 1.48203 0
M  V30 3328 H 315.055 0.469361 3.85654 0
M  V30 3329 H 316.727 3.04905 3.46166 0
M  V30 3330 H 314.97 2.919 3.209 0
M  V30 3331 H 315.641 2.6808 4.82532 0
M  V30 3332 H 318.117 0.912558 4.0597 0
M  V30 3333 H 316.993 0.766547 5.43521 0
M  V30 3334 H 317.254 -0.612063 4.37843 0
M  V30 3335 N 316.313 -1.40141 0.720998 0
M  V30 3336 C 317.724 -1.83678 0.334553 0
M  V30 3337 C 318.075 -1.6027 -1.13173 0
M  V30 3338 O 317.2 -1.08643 -1.87152 0
M  V30 3339 C 317.795 -3.33437 0.600437 0
M  V30 3340 C 316.354 -3.75447 0.267642 0
M  V30 3341 C 315.501 -2.63296 0.870097 0
M  V30 3342 H 318.452 -1.29331 0.919732 0
M  V30 3343 H 318.473 -3.80269 -0.132517 0
M  V30 3344 H 317.985 -3.50442 1.66768 0
M  V30 3345 H 316.086 -3.64035 -0.794329 0
M  V30 3346 H 316.199 -4.73344 0.74042 0
M  V30 3347 H 314.563 -2.52954 0.297739 0
M  V30 3348 H 315.346 -2.83112 1.94172 0
M  V30 3349 N 317.792 -0.46758 -1.50504 0
M  V30 3350 C 318.739 0.328413 -2.28452 0
M  V30 3351 C 319.709 0.990313 -1.33349 0
M  V30 3352 O 320.894 1.00343 -1.62284 0
M  V30 3353 C 318.034 1.40648 -3.15138 0
M  V30 3354 C 317.147 0.759709 -4.25267 0
M  V30 3355 C 316.282 1.81537 -4.99217 0
M  V30 3356 C 315.321 1.14866 -6.01226 0
M  V30 3357 N 314.458 2.14702 -6.68467 0
M  V30 3358 H 319.298 -0.342603 -2.96024 0
M  V30 3359 H 316.835 -0.180801 -1.45985 0
M  V30 3360 H 318.793 2.04315 -3.63746 0
M  V30 3361 H 317.423 2.04671 -2.49619 0
M  V30 3362 H 316.475 0.0105671 -3.80399 0
M  V30 3363 H 317.787 0.233243 -4.98254 0
M  V30 3364 H 316.941 2.52793 -5.51526 0
M  V30 3365 H 315.68 2.37564 -4.25928 0
M  V30 3366 H 314.685 0.42171 -5.4818 0
M  V30 3367 H 315.91 0.595334 -6.76485 0
M  V30 3368 H 313.856 2.69752 -5.97972 0
M  V30 3369 H 313.773 1.6703 -7.37317 0
M  V30 3370 H 315.041 2.85348 -7.25394 0
M  V30 3371 N 319.27 1.56325 -0.20005 0
M  V30 3372 C 320.516 1.98772 0.431408 0
M  V30 3373 C 320.871 1.0849 1.58895 0
M  V30 3374 O 320.164 0.130331 1.91156 0
M  V30 3375 C 320.358 3.4495 0.935103 0
M  V30 3376 C 320.187 4.49371 -0.172096 0
M  V30 3377 C 318.957 5.0134 -0.631377 0
M  V30 3378 C 321.155 5.04822 -0.982806 0
M  V30 3379 N 319.137 5.89433 -1.71588 0
M  V30 3380 C 320.508 5.89632 -1.91661 0
M  V30 3381 C 322.563 4.87242 -1.02467 0
M  V30 3382 C 321.266 6.58741 -2.88881 0
M  V30 3383 C 323.292 5.57094 -1.98494 0
M  V30 3384 C 322.654 6.41655 -2.90617 0
M  V30 3385 H 318.753 0.771922 0.125144 0
M  V30 3386 H 321.337 1.92266 -0.306883 0
M  V30 3387 H 319.508 3.51946 1.64282 0
M  V30 3388 H 321.24 3.74354 1.53758 0
M  V30 3389 H 317.995 4.73071 -0.223827 0
M  V30 3390 H 318.419 6.38182 -2.25948 0
M  V30 3391 H 323.061 4.21538 -0.326408 0
M  V30 3392 H 320.779 7.23641 -3.5968 0
M  V30 3393 H 324.365 5.45466 -2.0238 0
M  V30 3394 H 323.245 6.94755 -3.63711 0
M  V30 3395 N 320.748 -0.0735177 1.57428 0
M  V30 3396 C 321.976 -0.785969 1.9139 0
M  V30 3397 C 322.391 -1.71207 0.795847 0
M  V30 3398 O 321.748 -1.81033 -0.230915 0
M  V30 3399 C 321.799 -1.58107 3.25091 0
M  V30 3400 O 321.52 -0.6922 4.32597 0
M  V30 3401 C 323.021 -2.39467 3.73055 0
M  V30 3402 H 320.241 -0.223558 0.632663 0
M  V30 3403 H 322.785 -0.044302 2.04452 0
M  V30 3404 H 320.94 -2.27503 3.13562 0
M  V30 3405 H 321.354 -1.24504 5.09508 0
M  V30 3406 H 322.828 -2.90716 4.69242 0
M  V30 3407 H 323.305 -3.18913 3.01979 0
M  V30 3408 H 323.911 -1.7523 3.87523 0
M  V30 3409 N 322.226 -1.5378 -0.344866 0
M  V30 3410 C 323.189 -1.80981 -1.40637 0
M  V30 3411 C 324.189 -0.680816 -1.45676 0
M  V30 3412 O 325.379 -0.949095 -1.46075 0
M  V30 3413 C 322.511 -1.95063 -2.79577 0
M  V30 3414 H 323.704 -2.75803 -1.17783 0
M  V30 3415 H 321.257 -1.45173 -0.579181 0
M  V30 3416 H 321.992 -1.02379 -3.07716 0
M  V30 3417 H 321.777 -2.77198 -2.77315 0
M  V30 3418 H 323.267 -2.17629 -3.56409 0
M  V30 3419 N 323.704 0.605807 -1.45491 0
M  V30 3420 C 324.95 1.36679 -1.49823 0
M  V30 3421 C 325.283 1.93693 -0.140175 0
M  V30 3422 O 324.558 1.75158 0.845581 0
M  V30 3423 C 324.841 2.51337 -2.57879 0
M  V30 3424 C 324.694 1.99508 -4.03134 0
M  V30 3425 C 326.013 3.53463 -2.62205 0
M  V30 3426 H 323.132 0.495617 -0.545466 0
M  V30 3427 H 325.774 0.682732 -1.7731 0
M  V30 3428 H 323.924 3.09691 -2.34571 0
M  V30 3429 H 325.596 1.45789 -4.37656 0
M  V30 3430 H 323.839 1.30496 -4.13707 0
M  V30 3431 H 324.51 2.82169 -4.74431 0
M  V30 3432 H 326.986 3.04953 -2.83095 0
M  V30 3433 H 325.862 4.31178 -3.39672 0
M  V30 3434 H 326.123 4.09197 -1.67363 0
M  V30 3435 N 325.182 1.32811 0.848464 0
M  V30 3436 C 326.092 1.24278 1.98978 0
M  V30 3437 C 327.108 0.155176 1.73307 0
M  V30 3438 O 328.284 0.376999 1.9784 0
M  V30 3439 C 325.349 0.972444 3.32783 0
M  V30 3440 C 324.41 2.14911 3.71634 0
M  V30 3441 C 323.643 1.89157 4.99054 0
M  V30 3442 O 323.866 0.837165 5.64223 0
M  V30 3443 O 322.8 2.75433 5.35183 0
M  V30 3444 H 326.626 2.20238 2.09115 0
M  V30 3445 H 324.211 1.12762 0.980052 0
M  V30 3446 H 326.093 0.838432 4.12975 0
M  V30 3447 H 324.768 0.043051 3.23671 0
M  V30 3448 H 323.675 2.33862 2.91992 0
M  V30 3449 H 325.008 3.06151 3.85399 0
M  V30 3450 N 326.66 -1.06551 1.16123 0
M  V30 3451 C 327.909 -1.78687 0.935622 0
M  V30 3452 C 328.222 -1.88056 -0.538001 0
M  V30 3453 O 329.428 -2.56794 -0.88143 0
M  V30 3454 C 327.884 -3.21143 1.62466 0
M  V30 3455 C 327.492 -3.19949 3.13587 0
M  V30 3456 C 329.236 -3.9783 1.48092 0
M  V30 3457 C 327.143 -4.57108 3.75241 0
M  V30 3458 H 326.073 -0.669712 0.346412 0
M  V30 3459 H 328.724 -1.19534 1.39226 0
M  V30 3460 H 327.106 -3.80539 1.09572 0
M  V30 3461 H 328.28 -2.70151 3.73303 0
M  V30 3462 H 326.595 -2.5676 3.27816 0
M  V30 3463 H 329.192 -4.99217 1.91538 0
M  V30 3464 H 329.535 -4.14078 0.429507 0
M  V30 3465 H 330.068 -3.4495 1.98127 0
M  V30 3466 H 326.807 -4.46065 4.80319 0
M  V30 3467 H 326.327 -5.07111 3.20309 0
M  V30 3468 H 328.006 -5.26069 3.76644 0
M  V30 3469 N 328.138 -0.959301 -1.25041 0
M  V30 3470 C 329.384 -0.617525 -1.9317 0
M  V30 3471 C 329.717 0.843981 -1.74902 0
M  V30 3472 O 328.992 1.60615 -1.09696 0
M  V30 3473 C 329.275 -0.982736 -3.46431 0
M  V30 3474 C 329.128 -2.50032 -3.73904 0
M  V30 3475 C 330.447 -0.511176 -4.37121 0
M  V30 3476 H 327.566 -0.22582 -0.701552 0
M  V30 3477 H 330.208 -1.19679 -1.4757 0
M  V30 3478 H 328.358 -0.489806 -3.854 0
M  V30 3479 H 330.03 -3.06737 -3.44544 0
M  V30 3480 H 328.273 -2.93598 -3.19348 0
M  V30 3481 H 328.944 -2.70635 -4.81103 0
M  V30 3482 H 331.42 -0.934075 -4.0548 0
M  V30 3483 H 330.296 -0.795361 -5.43107 0
M  V30 3484 H 330.557 0.588834 -4.38161 0
M  V30 3485 N 329.616 1.39756 -0.72842 0
M  V30 3486 C 330.546 2.33289 -0.0991354 0
M  V30 3487 C 331.527 1.53568 0.731489 0
M  V30 3488 O 332.712 1.81987 0.677807 0
M  V30 3489 C 329.842 3.3763 0.813834 0
M  V30 3490 C 328.796 4.2791 0.0878663 0
M  V30 3491 C 328.122 5.22894 1.11741 0
M  V30 3492 C 329.422 5.11314 -1.06563 0
M  V30 3493 H 331.116 2.86163 -0.880408 0
M  V30 3494 H 328.662 1.37591 -0.424819 0
M  V30 3495 H 330.615 4.0201 1.26355 0
M  V30 3496 H 329.339 2.83181 1.62715 0
M  V30 3497 H 327.998 3.65 -0.342159 0
M  V30 3498 H 327.646 4.64744 1.92412 0
M  V30 3499 H 327.346 5.84143 0.636477 0
M  V30 3500 H 328.87 5.90151 1.56697 0
M  V30 3501 H 330.284 5.69076 -0.694671 0
M  V30 3502 H 328.681 5.81671 -1.47577 0
M  V30 3503 H 329.751 4.46534 -1.89038 0
M  V30 3504 N 331.094 0.475555 1.50254 0
M  V30 3505 C 332.343 -0.0795996 2.01543 0
M  V30 3506 C 332.656 -1.4038 1.36209 0
M  V30 3507 O 333.862 -2.04415 1.7868 0
M  V30 3508 C 332.318 -0.192363 3.59386 0
M  V30 3509 C 331.926 1.12367 4.33679 0
M  V30 3510 C 333.67 -0.699238 4.18701 0
M  V30 3511 C 331.577 0.974453 5.83317 0
M  V30 3512 H 330.507 -0.0335228 0.753254 0
M  V30 3513 H 333.158 0.611128 1.73025 0
M  V30 3514 H 331.54 -0.946974 3.84511 0
M  V30 3515 H 332.714 1.88958 4.20276 0
M  V30 3516 H 331.029 1.562 3.85993 0
M  V30 3517 H 333.626 -0.827978 5.28251 0
M  V30 3518 H 333.969 -1.69171 3.80377 0
M  V30 3519 H 334.502 -0.00188807 3.978 0
M  V30 3520 H 331.241 1.94042 6.26121 0
M  V30 3521 H 330.761 0.248998 5.99283 0
M  V30 3522 H 332.44 0.642867 6.43798 0
M  V30 3523 N 332.573 -1.56217 0.208337 0
M  V30 3524 C 333.819 -1.98998 -0.42086 0
M  V30 3525 C 334.174 -1.09331 -1.58317 0
M  V30 3526 O 333.467 -0.140466 -1.91084 0
M  V30 3527 C 333.661 -3.45441 -0.916797 0
M  V30 3528 C 333.49 -4.49273 0.195925 0
M  V30 3529 C 332.26 -5.00998 0.657956 0
M  V30 3530 C 334.458 -5.04294 1.00956 0
M  V30 3531 N 332.44 -5.88514 1.74712 0
M  V30 3532 C 333.811 -5.88607 1.94785 0
M  V30 3533 C 335.866 -4.86692 1.05049 0
M  V30 3534 C 334.569 -6.572 2.9237 0
M  V30 3535 C 336.595 -5.56034 2.01446 0
M  V30 3536 C 335.957 -6.40105 2.94016 0
M  V30 3537 H 332.056 -0.772574 -0.121048 0
M  V30 3538 H 334.64 -1.92101 0.317075 0
M  V30 3539 H 332.811 -3.52812 -1.62413 0
M  V30 3540 H 334.543 -3.75164 -1.51771 0
M  V30 3541 H 331.298 -4.72945 0.248912 0
M  V30 3542 H 331.722 -6.36975 2.2933 0
M  V30 3543 H 336.364 -4.21359 0.348759 0
M  V30 3544 H 334.082 -7.21723 3.63512 0
M  V30 3545 H 337.668 -5.44385 2.0527 0
M  V30 3546 H 336.548 -6.92816 3.6739 0
M  V30 3547 N 334.051 0.0651679 -1.57465 0
M  V30 3548 C 335.297 0.764193 -1.87851 0
M  V30 3549 C 335.63 1.76889 -0.801495 0
M  V30 3550 O 334.905 1.93594 0.187528 0
M  V30 3551 C 335.188 1.46625 -3.28897 0
M  V30 3552 C 335.041 0.477515 -4.47258 0
M  V30 3553 C 336.36 2.4095 -3.68281 0
M  V30 3554 H 333.479 0.276351 -0.683227 0
M  V30 3555 H 336.121 0.0272868 -1.8998 0
M  V30 3556 H 334.271 2.09438 -3.27212 0
M  V30 3557 H 335.943 -0.145922 -4.61069 0
M  V30 3558 H 334.186 -0.206576 -4.33308 0
M  V30 3559 H 334.857 1.0065 -5.42746 0
M  V30 3560 H 337.333 1.88209 -3.71102 0
M  V30 3561 H 336.209 2.87072 -4.67847 0
M  V30 3562 H 336.47 3.26049 -2.98571 0
M  V30 3563 N 335.529 1.53961 0.336706 0
M  V30 3564 C 336.775 1.7179 1.07777 0
M  V30 3565 C 337.108 0.483263 1.88091 0
M  V30 3566 O 336.383 -0.519747 1.87427 0
M  V30 3567 C 336.666 2.98558 2.01334 0
M  V30 3568 C 336.519 4.32245 1.24437 0
M  V30 3569 C 337.838 3.21023 3.01052 0
M  V30 3570 H 334.957 0.625089 0.390426 0
M  V30 3571 H 337.599 1.86641 0.35567 0
M  V30 3572 H 335.749 2.86028 2.62908 0
M  V30 3573 H 337.421 4.56637 0.654243 0
M  V30 3574 H 335.664 4.30344 0.546458 0
M  V30 3575 H 336.335 5.17137 1.93063 0
M  V30 3576 H 338.811 3.32929 2.49595 0
M  V30 3577 H 337.687 4.11104 3.6371 0
M  V30 3578 H 337.948 2.37637 3.72802 0
M  V30 3579 N 337.007 -0.598083 1.45811 0
M  V30 3580 C 338.232 -1.3881 1.54099 0
M  V30 3581 C 338.657 -1.8726 0.177578 0
M  V30 3582 O 338.015 -1.6069 -0.839541 0
M  V30 3583 C 338.063 -2.56217 2.53743 0
M  V30 3584 O 337.167 -3.5716 2.06182 0
M  V30 3585 H 336.508 -0.414024 0.519115 0
M  V30 3586 H 339.038 -0.726971 1.91249 0
M  V30 3587 H 339.048 -3.03337 2.72856 0
M  V30 3588 H 337.723 -2.20303 3.5276 0
M  V30 3589 H 336.3 -3.16624 1.96987 0
M  V30 3590 N 338.485 -1.33259 -0.841409 0
M  V30 3591 C 339.731 -1.24757 -1.59886 0
M  V30 3592 C 340.064 0.186913 -1.93298 0
M  V30 3593 O 339.339 1.12757 -1.5848 0
M  V30 3594 C 339.622 -2.12036 -2.91055 0
M  V30 3595 C 339.475 -3.63929 -2.6434 0
M  V30 3596 C 340.794 -1.9916 -3.92458 0
M  V30 3597 H 337.913 -0.454542 -0.580138 0
M  V30 3598 H 340.555 -1.63335 -0.970647 0
M  V30 3599 H 338.705 -1.79265 -3.44669 0
M  V30 3600 H 340.377 -4.06978 -2.17178 0
M  V30 3601 H 338.62 -3.85935 -1.98082 0
M  V30 3602 H 339.291 -4.20341 -3.57796 0
M  V30 3603 H 341.767 -2.27895 -3.48143 0
M  V30 3604 H 340.643 -2.62484 -4.82072 0
M  V30 3605 H 340.904 -0.963082 -4.31482 0
M  V30 3606 N 339.963 1.05934 -1.16686 0
M  V30 3607 C 341.209 1.79065 -0.95203 0
M  V30 3608 C 341.542 1.87147 0.518629 0
M  V30 3609 O 340.817 1.36574 1.38484 0
M  V30 3610 C 341.1 3.23359 -1.58464 0
M  V30 3611 C 340.953 3.23336 -3.12689 0
M  V30 3612 C 342.272 4.21004 -1.28232 0
M  V30 3613 H 339.391 0.65005 -0.34728 0
M  V30 3614 H 342.033 1.23868 -1.44072 0
M  V30 3615 H 340.183 3.70493 -1.16908 0
M  V30 3616 H 341.855 2.84336 -3.6325 0
M  V30 3617 H 340.098 2.61886 -3.4583 0
M  V30 3618 H 340.769 4.25144 -3.52075 0
M  V30 3619 H 343.245 3.8233 -1.64203 0
M  V30 3620 H 342.121 5.20225 -1.75092 0
M  V30 3621 H 342.382 4.41639 -0.201791 0
M  V30 3622 N 341.441 0.965919 1.2453 0
M  V30 3623 C 342.371 0.513476 2.27784 0
M  V30 3624 C 343.352 -0.445974 1.6415 0
M  V30 3625 O 344.537 -0.342485 1.91156 0
M  V30 3626 C 341.667 -0.198839 3.4673 0
M  V30 3627 C 340.621 0.676456 4.2262 0
M  V30 3628 C 339.947 -0.167248 5.34438 0
M  V30 3629 C 341.247 1.96017 4.84123 0
M  V30 3630 H 342.941 1.3765 2.65881 0
M  V30 3631 H 340.487 0.663321 1.27813 0
M  V30 3632 H 342.44 -0.526567 4.18097 0
M  V30 3633 H 341.164 -1.0962 3.07654 0
M  V30 3634 H 339.823 0.98743 3.53052 0
M  V30 3635 H 339.471 -1.0647 4.91603 0
M  V30 3636 H 339.171 0.415181 5.86131 0
M  V30 3637 H 340.695 -0.489688 6.08633 0
M  V30 3638 H 342.109 1.69814 5.47573 0
M  V30 3639 H 340.506 2.48918 5.4604 0
M  V30 3640 H 341.576 2.65622 4.05676 0
M  V30 3641 N 342.919 -1.39368 0.735821 0
M  V30 3642 C 343.882 -2.2896 0.104874 0
M  V30 3643 C 344.882 -1.46347 -0.666274 0
M  V30 3644 O 346.072 -1.67014 -0.49517 0
M  V30 3645 C 343.204 -3.29857 -0.860656 0
M  V30 3646 H 344.397 -2.86259 0.894205 0
M  V30 3647 H 341.95 -1.48029 0.501704 0
M  V30 3648 H 342.685 -2.77615 -1.67631 0
M  V30 3649 H 342.47 -3.9087 -0.310327 0
M  V30 3650 H 343.96 -3.96893 -1.29867 0
M  V30 3651 N 344.397 -0.483516 -1.5 0
M  V30 3652 C 345.643 0.0672592 -2.02688 0
M  V30 3653 C 345.976 1.38247 -1.36387 0
M  V30 3654 O 345.251 1.88131 -0.493675 0
M  V30 3655 C 345.534 0.238109 -3.59312 0
M  V30 3656 C 345.387 -1.099 -4.36168 0
M  V30 3657 C 346.706 0.986916 -4.28892 0
M  V30 3658 H 343.825 0.0229696 -0.736642 0
M  V30 3659 H 346.467 -0.631527 -1.79197 0
M  V30 3660 H 344.617 0.8333 -3.79458 0
M  V30 3661 H 346.289 -1.73172 -4.27562 0
M  V30 3662 H 344.532 -1.69261 -3.99416 0
M  V30 3663 H 345.203 -0.932954 -5.44059 0
M  V30 3664 H 347.679 0.482302 -4.13295 0
M  V30 3665 H 346.555 1.07527 -5.38265 0
M  V30 3666 H 346.816 2.0265 -3.92919 0
M  V30 3667 N 345.875 1.56104 -0.216619 0
M  V30 3668 C 347.286 1.844 0.292128 0
M  V30 3669 C 347.637 1.13788 1.59833 0
M  V30 3670 O 346.762 0.405888 2.12559 0
M  V30 3671 C 347.357 3.3452 0.53681 0
M  V30 3672 C 345.916 3.63151 0.989876 0
M  V30 3673 C 345.063 2.77255 0.0502302 0
M  V30 3674 H 348.014 1.52481 -0.439926 0
M  V30 3675 H 348.035 3.54459 1.38345 0
M  V30 3676 H 347.547 3.85885 -0.414031 0
M  V30 3677 H 345.648 3.17238 1.95425 0
M  V30 3678 H 345.761 4.71177 0.867698 0
M  V30 3679 H 344.125 2.48555 0.556117 0
M  V30 3680 H 344.908 3.31416 -0.89544 0
M  V30 3681 N 347.353 -0.0568162 1.57498 0
M  V30 3682 C 348.263 -1.08346 2.08083 0
M  V30 3683 C 349.279 -1.41439 1.01346 0
M  V30 3684 O 350.455 -1.51316 1.32912 0
M  V30 3685 C 347.52 -2.37352 2.52715 0
M  V30 3686 C 346.581 -2.11093 3.73816 0
M  V30 3687 C 345.814 -3.33949 4.1631 0
M  V30 3688 O 346.037 -4.43622 3.58547 0
M  V30 3689 O 344.971 -3.21279 5.08983 0
M  V30 3690 H 348.797 -0.683667 2.95905 0
M  V30 3691 H 346.382 -0.271965 1.46904 0
M  V30 3692 H 348.264 -3.13246 2.81877 0
M  V30 3693 H 346.939 -2.76681 1.68016 0
M  V30 3694 H 345.846 -1.32856 3.49714 0
M  V30 3695 H 347.179 -1.76637 4.59413 0
M  V30 3696 N 348.832 -1.54138 -0.328536 0
M  V30 3697 C 349.795 -1.82462 -1.38709 0
M  V30 3698 C 350.795 -0.696229 -1.44946 0
M  V30 3699 O 351.985 -0.964535 -1.4506 0
M  V30 3700 C 349.117 -1.98018 -2.77492 0
M  V30 3701 H 350.31 -2.77037 -1.14851 0
M  V30 3702 H 347.863 -1.45779 -0.563751 0
M  V30 3703 H 348.598 -1.05637 -3.06613 0
M  V30 3704 H 348.383 -2.80124 -2.74359 0
M  V30 3705 H 349.873 -2.21396 -3.54081 0
M  V30 3706 N 350.31 0.590341 -1.46126 0
M  V30 3707 C 351.559 1.34499 -1.50309 0
M  V30 3708 C 351.872 1.94977 -0.156021 0
M  V30 3709 O 353.078 2.71395 -0.0756037 0
M  V30 3710 C 351.534 2.43723 -2.64815 0
M  V30 3711 C 351.142 1.89582 -4.0591 0
M  V30 3712 C 352.886 3.20579 -2.78262 0
M  V30 3713 C 350.793 2.9639 -5.11769 0
M  V30 3714 H 349.723 0.505593 -0.559368 0
M  V30 3715 H 352.374 0.630848 -1.72315 0
M  V30 3716 H 350.756 3.17902 -2.36124 0
M  V30 3717 H 351.93 1.21997 -4.44357 0
M  V30 3718 H 350.245 1.25418 -3.97063 0
M  V30 3719 H 352.842 4.00276 -3.54519 0
M  V30 3720 H 353.185 3.72684 -1.85505 0
M  V30 3721 H 353.718 2.53505 -3.06562 0
M  V30 3722 H 350.457 2.49181 -6.06291 0
M  V30 3723 H 349.977 3.62487 -4.77873 0
M  V30 3724 H 351.656 3.60474 -5.37278 0
M  V30 3725 N 351.788 1.33704 0.83433 0
M  V30 3726 C 353.036 1.25169 1.58673 0
M  V30 3727 C 353.357 -0.18127 1.94156 0
M  V30 3728 O 352.627 -1.11113 1.6134 0
M  V30 3729 H 351.207 0.4603 0.58833 0
M  V30 3730 H 353.869 1.67478 0.996847 0
M  V30 3731 H 352.965 1.84856 2.51465 0
M  V30 3732 N 353.266 -1.05314 1.17247 0
M  V30 3733 C 354.513 -1.78293 0.960091 0
M  V30 3734 C 354.841 -1.87658 -0.51136 0
M  V30 3735 O 354.096 -1.3718 -1.39571 0
M  V30 3736 C 354.395 -3.2229 1.54479 0
M  V30 3737 C 354.061 -3.32987 3.04024 0
M  V30 3738 C 352.723 -3.35613 3.44844 0
M  V30 3739 C 355.075 -3.34102 4.00031 0
M  V30 3740 C 352.403 -3.36982 4.8027 0
M  V30 3741 C 354.755 -3.3701 5.35357 0
M  V30 3742 C 353.419 -3.37923 5.75642 0
M  V30 3743 H 352.689 -0.652422 0.351322 0
M  V30 3744 H 355.336 -1.23782 1.46117 0
M  V30 3745 H 353.641 -3.7972 0.965391 0
M  V30 3746 H 355.338 -3.77376 1.35603 0
M  V30 3747 H 351.928 -3.31655 2.71483 0
M  V30 3748 H 356.112 -3.31276 3.69554 0
M  V30 3749 H 351.368 -3.35999 5.10798 0
M  V30 3750 H 355.542 -3.36822 6.09528 0
M  V30 3751 H 353.169 -3.38738 6.80559 0
M  V30 3752 N 354.744 -0.972509 -1.24016 0
M  V30 3753 C 356.021 -0.553733 -1.87598 0
M  V30 3754 C 356.401 0.969158 -1.87538 0
M  V30 3755 O 355.749 1.84255 -1.35139 0
M  V30 3756 C 355.959 -1.15076 -3.29482 0
M  V30 3757 C 357.307 -1.23862 -4.06132 0
M  V30 3758 O 358.331 -1.10363 -3.38672 0
M  V30 3759 O 357.19 -1.45252 -5.26844 0
M  V30 3760 H 354.284 -0.185331 -0.805966 0
M  V30 3761 H 356.83 -1.06709 -1.31952 0
M  V30 3762 H 355.602 -2.19333 -3.2405 0
M  V30 3763 H 355.225 -0.621746 -3.92709 0
M  V30 3764 N 356.222 1.38976 -0.743202 0
M  V30 3765 C 357.471 1.99581 -0.291592 0
M  V30 3766 C 357.784 1.59656 1.13001 0
M  V30 3767 O 358.99 2.13157 1.68156 0
M  V30 3768 C 357.446 3.56813 -0.470391 0
M  V30 3769 C 357.054 4.05695 -1.90041 0
M  V30 3770 C 358.798 4.24423 -0.0809709 0
M  V30 3771 C 356.705 5.5553 -2.02832 0
M  V30 3772 H 355.635 0.746615 -0.105272 0
M  V30 3773 H 358.286 1.58872 -0.918258 0
M  V30 3774 H 356.668 3.95359 0.225299 0
M  V30 3775 H 357.842 3.78464 -2.62872 0
M  V30 3776 H 356.157 3.50775 -2.24379 0
M  V30 3777 H 358.754 5.34474 -0.155445 0
M  V30 3778 H 359.097 4.04962 0.96497 0
M  V30 3779 H 359.63 3.9108 -0.728124 0
M  V30 3780 H 356.369 5.79881 -3.05643 0
M  V30 3781 H 355.889 5.84537 -1.34448 0
M  V30 3782 H 357.568 6.21069 -1.81335 0
M  V30 3783 N 357.7 0.491464 1.49741 0
M  V30 3784 C 358.949 -0.0582189 2.01616 0
M  V30 3785 C 359.262 -1.38927 1.3769 0
M  V30 3786 O 360.468 -2.02509 1.80838 0
M  V30 3787 C 358.924 -0.154235 3.59569 0
M  V30 3788 C 358.532 1.1696 4.32463 0
M  V30 3789 C 360.276 -0.65479 4.1942 0
M  V30 3790 C 358.183 1.03627 5.8225 0
M  V30 3791 H 357.113 -0.0255317 0.753568 0
M  V30 3792 H 359.764 0.629445 1.72367 0
M  V30 3793 H 358.146 -0.906138 3.85493 0
M  V30 3794 H 359.32 1.93405 4.18248 0
M  V30 3795 H 357.635 1.60285 3.84315 0
M  V30 3796 H 360.232 -0.771903 5.29099 0
M  V30 3797 H 360.575 -1.65127 3.8215 0
M  V30 3798 H 361.108 0.040304 3.9778 0
M  V30 3799 H 357.847 2.00672 6.24028 0
M  V30 3800 H 357.367 0.312546 5.98985 0
M  V30 3801 H 359.046 0.711114 6.4308 0
M  V30 3802 N 359.178 -1.55987 0.224894 0
M  V30 3803 C 360.406 -2.02784 -0.410665 0
M  V30 3804 C 360.821 -1.10464 -1.53112 0
M  V30 3805 O 360.178 -0.114871 -1.82138 0
M  V30 3806 C 360.229 -3.49087 -0.939165 0
M  V30 3807 O 359.95 -4.37887 0.136614 0
M  V30 3808 C 361.451 -4.11543 -1.64763 0
M  V30 3809 H 358.671 -0.663484 -0.100148 0
M  V30 3810 H 361.215 -2.01614 0.342326 0
M  V30 3811 H 359.37 -3.50861 -1.64242 0
M  V30 3812 H 359.784 -5.23849 -0.261155 0
M  V30 3813 H 361.258 -5.15673 -1.96939 0
M  V30 3814 H 361.735 -3.56736 -2.56195 0
M  V30 3815 H 362.341 -4.13629 -0.989503 0
M  V30 3816 N 360.656 0.0484629 -1.57525 0
M  V30 3817 C 361.589 1.08755 -2.00618 0
M  V30 3818 C 362.567 1.36272 -0.887058 0
M  V30 3819 O 363.751 1.49255 -1.15131 0
M  V30 3820 C 360.878 2.42675 -2.36277 0
M  V30 3821 C 359.924 2.31142 -3.58435 0
M  V30 3822 S 360.757 1.68326 -5.08357 0
M  V30 3823 C 361.913 3.03776 -5.47239 0
M  V30 3824 H 362.146 0.720415 -2.88439 0
M  V30 3825 H 359.679 0.257801 -1.52233 0
M  V30 3826 H 361.637 3.19699 -2.57494 0
M  V30 3827 H 360.298 2.76541 -1.48942 0
M  V30 3828 H 359.491 3.29957 -3.80978 0
M  V30 3829 H 359.093 1.62258 -3.36969 0
M  V30 3830 H 361.385 4.00106 -5.46737 0
M  V30 3831 H 362.328 2.85988 -6.47778 0
M  V30 3832 H 362.736 3.05456 -4.74718 0
M  V30 3833 N 362.134 1.5431 0.320358 0
M  V30 3834 C 363.411 1.63322 1.07635 0
M  V30 3835 C 363.791 0.46912 2.05821 0
M  V30 3836 O 363.139 -0.536274 2.22118 0
M  V30 3837 C 363.349 3.00465 1.77544 0
M  V30 3838 C 364.697 3.56621 2.30449 0
M  V30 3839 O 365.721 3.02791 1.87606 0
M  V30 3840 O 364.58 4.5083 3.08892 0
M  V30 3841 H 361.674 0.661502 0.496331 0
M  V30 3842 H 364.22 1.66656 0.319992 0
M  V30 3843 H 362.992 3.76629 1.06143 0
M  V30 3844 H 362.615 3.00824 2.59982 0
M  V30 3845 N 363.613 -0.582584 1.46437 0
M  V30 3846 C 364.843 -1.36484 1.55099 0
M  V30 3847 C 365.251 -1.88233 0.191056 0
M  V30 3848 O 364.594 -1.6429 -0.821858 0
M  V30 3849 C 364.656 -2.588 2.49525 0
M  V30 3850 C 364.32 -2.28517 3.95764 0
M  V30 3851 C 365.317 -1.87346 4.84972 0
M  V30 3852 C 363.002 -2.40658 4.40896 0
M  V30 3853 C 364.996 -1.5871 6.17325 0
M  V30 3854 C 362.683 -2.11635 5.73284 0
M  V30 3855 C 363.681 -1.70725 6.61318 0
M  V30 3856 O 363.369 -1.42057 7.91249 0
M  V30 3857 H 363.101 -0.423297 0.527063 0
M  V30 3858 H 365.655 -0.715188 1.92547 0
M  V30 3859 H 363.885 -3.26571 2.07095 0
M  V30 3860 H 365.574 -3.20868 2.48593 0
M  V30 3861 H 366.34 -1.77481 4.5136 0
M  V30 3862 H 362.219 -2.71463 3.72598 0
M  V30 3863 H 365.763 -1.26704 6.85997 0
M  V30 3864 H 361.66 -2.21124 6.06444 0
M  V30 3865 H 362.428 -1.55901 8.03515 0
M  V30 3866 N 365.091 -1.34144 -0.827227 0
M  V30 3867 C 366.038 -1.25364 -1.93785 0
M  V30 3868 C 367.008 -0.129774 -1.65592 0
M  V30 3869 O 368.193 -0.310024 -1.88264 0
M  V30 3870 C 365.333 -1.01064 -3.2997 0
M  V30 3871 C 364.446 -2.22185 -3.70484 0
M  V30 3872 C 363.581 -1.91203 -4.95595 0
M  V30 3873 C 362.62 -3.08491 -5.28677 0
M  V30 3874 N 361.757 -2.77421 -6.44967 0
M  V30 3875 H 366.597 -2.20347 -2.00627 0
M  V30 3876 H 364.134 -1.09558 -0.981608 0
M  V30 3877 H 366.092 -0.850139 -4.08446 0
M  V30 3878 H 364.722 -0.0975026 -3.22653 0
M  V30 3879 H 363.774 -2.4917 -2.87434 0
M  V30 3880 H 365.086 -3.0983 -3.90905 0
M  V30 3881 H 364.24 -1.71864 -5.81848 0
M  V30 3882 H 362.979 -1.00812 -4.77167 0
M  V30 3883 H 361.984 -3.28431 -4.40923 0
M  V30 3884 H 363.209 -3.99655 -5.49047 0
M  V30 3885 H 361.155 -1.89601 -6.28003 0
M  V30 3886 H 361.072 -3.58598 -6.6554 0
M  V30 3887 H 362.34 -2.61577 -7.34301 0
M  V30 3888 N 366.569 1.04691 -1.17803 0
M  V30 3889 C 367.817 1.7743 -0.967617 0
M  V30 3890 C 368.138 1.88359 0.504574 0
M  V30 3891 O 367.408 1.40402 1.36617 0
M  V30 3892 H 365.988 0.657242 -0.355024 0
M  V30 3893 H 368.65 1.2638 -1.48371 0
M  V30 3894 H 367.746 2.78924 -1.40027 0
M  V30 3895 N 368.047 0.979072 1.23499 0
M  V30 3896 C 369.272 0.664845 1.96455 0
M  V30 3897 C 369.697 -0.761287 1.72006 0
M  V30 3898 O 369.055 -1.51837 0.990713 0
M  V30 3899 C 369.103 0.959479 3.47601 0
M  V30 3900 O 368.207 0.0508168 4.12369 0
M  V30 3901 H 367.548 0.250185 0.615064 0
M  V30 3902 H 370.078 1.31231 1.5697 0
M  V30 3903 H 370.088 0.895642 3.98048 0
M  V30 3904 H 368.763 1.99876 3.64723 0
M  V30 3905 H 367.34 0.16895 3.72517 0
M  V30 3906 N 369.525 -1.3858 0.750561 0
M  V30 3907 C 370.755 -2.04175 0.31564 0
M  V30 3908 C 371.163 -1.56726 -1.05989 0
M  V30 3909 O 370.506 -0.734225 -1.68389 0
M  V30 3910 C 370.568 -3.58585 0.256389 0
M  V30 3911 C 370.232 -4.29077 1.57296 0
M  V30 3912 C 371.229 -4.54656 2.52159 0
M  V30 3913 C 368.914 -4.67324 1.84156 0
M  V30 3914 C 370.908 -5.17512 3.72103 0
M  V30 3915 C 368.595 -5.29905 3.04374 0
M  V30 3916 C 369.593 -5.54933 3.98168 0
M  V30 3917 O 369.281 -6.16212 5.16273 0
M  V30 3918 H 369.013 -0.662742 0.133226 0
M  V30 3919 H 371.567 -1.78313 1.01948 0
M  V30 3920 H 369.797 -3.83406 -0.503677 0
M  V30 3921 H 371.486 -4.05628 -0.148612 0
M  V30 3922 H 372.252 -4.25539 2.32683 0
M  V30 3923 H 368.131 -4.47191 1.11988 0
M  V30 3924 H 371.675 -5.36963 4.45327 0
M  V30 3925 H 367.572 -5.58444 3.23745 0
M  V30 3926 H 368.34 -6.34701 5.16815 0
M  V30 3927 N 371.003 -0.499398 -1.49478 0
M  V30 3928 C 371.933 0.269244 -2.31943 0
M  V30 3929 C 372.914 0.964054 -1.40143 0
M  V30 3930 O 374.099 0.955767 -1.69052 0
M  V30 3931 C 371.229 1.33504 -3.20615 0
M  V30 3932 C 370.183 0.760202 -4.21195 0
M  V30 3933 C 369.509 1.9264 -4.98792 0
M  V30 3934 C 370.809 -0.247661 -5.21712 0
M  V30 3935 H 372.503 -0.419082 -2.96452 0
M  V30 3936 H 370.049 -0.202988 -1.42562 0
M  V30 3937 H 372.002 1.88048 -3.77115 0
M  V30 3938 H 370.726 2.05253 -2.54045 0
M  V30 3939 H 369.385 0.23653 -3.65836 0
M  V30 3940 H 369.033 2.63154 -4.28671 0
M  V30 3941 H 368.733 1.54785 -5.66847 0
M  V30 3942 H 370.257 2.4762 -5.58137 0
M  V30 3943 H 371.671 0.209579 -5.72917 0
M  V30 3944 H 370.068 -0.541962 -5.97648 0
M  V30 3945 H 371.138 -1.16409 -4.7072 0
M  V30 3946 N 372.481 1.55866 -0.233164 0
M  V30 3947 C 373.897 1.59133 0.121988 0
M  V30 3948 C 374.097 1.25016 1.58029 0
M  V30 3949 O 373.153 0.990922 2.32243 0
M  V30 3950 C 374.466 2.99932 -0.214792 0
M  V30 3951 C 376.014 3.12601 -0.157971 0
M  V30 3952 C 376.489 4.55597 -0.46859 0
M  V30 3953 N 377.98 4.61305 -0.418585 0
M  V30 3954 C 378.715 5.69903 -0.63227 0
M  V30 3955 N 378.211 6.86819 -0.90835 0
M  V30 3956 N 380.004 5.59264 -0.563913 0
M  V30 3957 H 372.155 1.76315 -1.18434 0
M  V30 3958 H 374.418 0.820093 -0.475553 0
M  V30 3959 H 374.124 3.29588 -1.22739 0
M  V30 3960 H 373.998 3.74327 0.464691 0
M  V30 3961 H 376.385 2.82735 0.845283 0
M  V30 3962 H 376.466 2.40511 -0.871102 0
M  V30 3963 H 376.11 4.86182 -1.46934 0
M  V30 3964 H 376.04 5.25928 0.265865 0
M  V30 3965 H 378.531 3.77297 -0.213368 0
M  V30 3966 H 378.844 7.65507 -1.05919 0
M  V30 3967 H 377.189 6.88536 -0.945673 0
M  V30 3968 H 380.38 4.66802 -0.348372 0
M  V30 3969 H 380.553 6.43831 -0.733847 0
M  V30 3970 N 373.959 -0.0401083 1.57549 0
M  V30 3971 C 375.208 -0.732108 1.87944 0
M  V30 3972 C 375.521 -1.77107 0.830206 0
M  V30 3973 O 376.727 -2.51488 1.02302 0
M  V30 3974 C 375.183 -1.35315 3.33494 0
M  V30 3975 C 374.791 -0.351105 4.46622 0
M  V30 3976 C 376.535 -2.02566 3.73051 0
M  V30 3977 C 374.442 -0.979859 5.83226 0
M  V30 3978 H 373.372 -0.277188 0.701201 0
M  V30 3979 H 376.023 0.0138501 1.83495 0
M  V30 3980 H 374.405 -2.14844 3.32653 0
M  V30 3981 H 375.579 0.416674 4.58912 0
M  V30 3982 H 373.894 0.218708 4.15825 0
M  V30 3983 H 376.491 -2.50441 4.72423 0
M  V30 3984 H 376.834 -2.83904 3.04474 0
M  V30 3985 H 377.367 -1.29827 3.76018 0
M  V30 3986 H 374.106 -0.206135 6.55176 0
M  V30 3987 H 373.626 -1.71774 5.74677 0
M  V30 3988 H 375.305 -1.49046 6.29599 0
M  V30 3989 N 375.437 -1.54477 -0.31217 0
M  V30 3990 C 376.677 -1.74958 -1.05684 0
M  V30 3991 C 377.041 -0.518414 -1.84869 0
M  V30 3992 O 378.242 -0.600759 -2.62001 0
M  V30 3993 C 376.513 -2.99656 -1.94785 0
M  V30 3994 S 378.072 -3.4109 -2.76049 0
M  V30 3995 H 374.89 -0.615104 -0.356606 0
M  V30 3996 H 377.492 -1.92669 -0.331514 0
M  V30 3997 H 376.196 -3.87397 -1.35468 0
M  V30 3998 H 375.727 -2.845 -2.71704 0
M  V30 3999 H 377.742 -2.97283 -3.97287 0
M  V30 4000 N 376.915 0.57481 -1.46744 0
M  V30 4001 C 377.845 1.69337 -1.60771 0
M  V30 4002 C 378.826 1.63825 -0.457736 0
M  V30 4003 O 380.011 1.8172 -0.684947 0
M  V30 4004 C 377.141 3.0798 -1.60517 0
M  V30 4005 C 376.095 3.28327 -2.74564 0
M  V30 4006 C 375.421 4.67578 -2.59373 0
M  V30 4007 C 376.721 3.15398 -4.16319 0
M  V30 4008 H 378.415 1.57853 -2.54407 0
M  V30 4009 H 375.961 0.75799 -1.22436 0
M  V30 4010 H 377.914 3.86061 -1.68923 0
M  V30 4011 H 376.638 3.20381 -0.634305 0
M  V30 4012 H 375.297 2.52649 -2.65639 0
M  V30 4013 H 374.945 4.76755 -1.60353 0
M  V30 4014 H 374.645 4.82144 -3.35873 0
M  V30 4015 H 376.169 5.47817 -2.69682 0
M  V30 4016 H 377.583 3.83315 -4.26313 0
M  V30 4017 H 375.98 3.41482 -4.93468 0
M  V30 4018 H 377.05 2.12372 -4.3592 0
M  V30 4019 N 378.394 1.34581 0.820102 0
M  V30 4020 C 379.324 1.29038 1.94606 0
M  V30 4021 C 380.305 0.1673 1.69275 0
M  V30 4022 O 381.49 0.360112 1.90832 0
M  V30 4023 C 378.62 1.04793 3.31113 0
M  V30 4024 C 377.574 2.13597 3.70891 0
M  V30 4025 C 376.9 1.74537 5.05412 0
M  V30 4026 C 378.2 3.55451 3.8269 0
M  V30 4027 H 379.894 2.23248 1.99501 0
M  V30 4028 H 377.44 1.0747 0.958449 0
M  V30 4029 H 379.393 0.995592 4.0947 0
M  V30 4030 H 378.117 0.0702565 3.26524 0
M  V30 4031 H 376.776 2.17905 2.9481 0
M  V30 4032 H 376.424 0.754226 4.97313 0
M  V30 4033 H 376.124 2.47361 5.32997 0
M  V30 4034 H 377.648 1.70803 5.86224 0
M  V30 4035 H 379.062 3.5354 4.51312 0
M  V30 4036 H 377.459 4.26922 4.21732 0
M  V30 4037 H 378.529 3.92587 2.84611 0
M  V30 4038 N 379.872 -1.04064 1.18357 0
M  V30 4039 C 380.822 -2.10393 0.878561 0
M  V30 4040 C 381.806 -1.60183 -0.151713 0
M  V30 4041 O 382.998 -1.76923 0.0523303 0
M  V30 4042 C 380.127 -3.4089 0.406096 0
M  V30 4043 C 379.213 -3.97866 1.46844 0
M  V30 4044 N 379.604 -4.28657 2.68489 0
M  V30 4045 C 377.902 -4.2574 1.32896 0
M  V30 4046 C 378.603 -4.74253 3.36836 0
M  V30 4047 N 377.579 -4.75068 2.64219 0
M  V30 4048 H 381.381 -2.32076 1.80327 0
M  V30 4049 H 378.895 -1.21818 1.07397 0
M  V30 4050 H 380.892 -4.16557 0.169088 0
M  V30 4051 H 379.552 -3.20633 -0.512275 0
M  V30 4052 H 380.563 -4.18304 3.05356 0
M  V30 4053 H 377.24 -4.1481 0.473134 0
M  V30 4054 H 378.63 -5.07096 4.40798 0
M  V30 4055 N 381.35 -0.985608 -1.22978 0
M  V30 4056 C 382.761 -0.693593 -1.73338 0
M  V30 4057 C 383.112 0.789935 -1.79595 0
M  V30 4058 O 382.237 1.61771 -1.43733 0
M  V30 4059 C 382.832 -1.25235 -3.14804 0
M  V30 4060 C 381.391 -1.00987 -3.626 0
M  V30 4061 C 380.538 -1.37695 -2.40698 0
M  V30 4062 H 383.489 -1.15884 -1.08428 0
M  V30 4063 H 383.51 -0.627329 -3.75293 0
M  V30 4064 H 383.022 -2.33209 -3.10218 0
M  V30 4065 H 381.123 0.0535565 -3.72562 0
M  V30 4066 H 381.236 -1.66812 -4.49122 0
M  V30 4067 H 379.6 -0.795459 -2.4196 0
M  V30 4068 H 380.383 -2.46657 -2.38779 0
M  V30 4069 N 382.828 1.3818 -0.7579 0
M  V30 4070 C 384.074 2.00316 -0.316453 0
M  V30 4071 C 384.407 1.60026 1.10025 0
M  V30 4072 O 383.682 0.839835 1.75434 0
M  V30 4073 C 383.965 3.57349 -0.444245 0
M  V30 4074 C 383.818 4.07591 -1.90236 0
M  V30 4075 C 385.137 4.3981 0.1598 0
M  V30 4076 H 382.256 0.727741 -0.116459 0
M  V30 4077 H 384.898 1.6406 -0.958352 0
M  V30 4078 H 383.048 3.88365 0.102233 0
M  V30 4079 H 384.72 3.87199 -2.50748 0
M  V30 4080 H 382.963 3.60297 -2.41595 0
M  V30 4081 H 383.634 5.16677 -1.94291 0
M  V30 4082 H 386.11 4.14971 -0.306314 0
M  V30 4083 H 384.986 5.48885 0.0401675 0
M  V30 4084 H 385.247 4.24102 1.24859 0
M  V30 4085 N 384.306 0.507319 1.49211 0
M  V30 4086 C 385.238 -0.304532 2.27168 0
M  V30 4087 C 386.251 -0.924956 1.33972 0
M  V30 4088 O 387.44 -0.807227 1.59205 0
M  V30 4089 C 384.54 -1.44431 3.06583 0
M  V30 4090 C 383.713 -0.930026 4.27398 0
M  V30 4091 C 382.772 -1.94817 4.88807 0
M  V30 4092 O 381.798 -1.51418 5.4869 0
M  V30 4093 N 383 -3.279 4.79022 0
M  V30 4094 H 385.765 0.36395 2.97482 0
M  V30 4095 H 383.326 0.340249 1.58284 0
M  V30 4096 H 385.318 -2.12311 3.44537 0
M  V30 4097 H 383.888 -2.01684 2.38835 0
M  V30 4098 H 383.108 -0.0759244 3.94127 0
M  V30 4099 H 384.396 -0.564932 5.05654 0
M  V30 4100 H 383.794 -3.65843 4.3148 0
M  V30 4101 H 382.351 -3.91476 5.21142 0
M  V30 4102 N 385.784 -1.5574 0.241426 0
M  V30 4103 C 386.731 -2.21149 -0.660432 0
M  V30 4104 C 387.701 -1.17356 -1.17545 0
M  V30 4105 O 388.886 -1.45784 -1.23093 0
M  V30 4106 C 386.026 -2.91059 -1.85414 0
M  V30 4107 C 385.139 -4.09495 -1.37616 0
M  V30 4108 C 384.274 -4.67135 -2.529 0
M  V30 4109 C 383.313 -5.77831 -2.01936 0
M  V30 4110 N 382.45 -6.29677 -3.10566 0
M  V30 4111 H 387.29 -2.97845 -0.095955 0
M  V30 4112 H 384.827 -1.47057 -0.0356024 0
M  V30 4113 H 386.785 -3.29788 -2.5553 0
M  V30 4114 H 385.415 -2.16846 -2.39118 0
M  V30 4115 H 384.467 -3.76117 -0.569235 0
M  V30 4116 H 385.779 -4.89423 -0.962618 0
M  V30 4117 H 384.933 -5.08409 -3.31067 0
M  V30 4118 H 383.672 -3.86411 -2.97553 0
M  V30 4119 H 382.677 -5.36039 -1.22238 0
M  V30 4120 H 383.902 -6.60402 -1.58259 0
M  V30 4121 H 381.848 -5.5186 -3.54664 0
M  V30 4122 H 381.765 -7.04783 -2.73526 0
M  V30 4123 H 383.033 -6.75609 -3.88809 0
M  V30 4124 N 387.262 0.0317525 -1.57568 0
M  V30 4125 C 388.49 0.734949 -1.93407 0
M  V30 4126 C 388.905 1.69036 -0.84096 0
M  V30 4127 O 388.262 1.81582 0.182836 0
M  V30 4128 C 388.313 1.49432 -3.29169 0
M  V30 4129 O 388.034 0.577261 -4.3428 0
M  V30 4130 C 389.535 2.29492 -3.79273 0
M  V30 4131 H 386.755 0.206706 -0.638368 0
M  V30 4132 H 389.299 -0.00992046 -2.04498 0
M  V30 4133 H 387.454 2.1911 -3.19483 0
M  V30 4134 H 387.868 1.10952 -5.1263 0
M  V30 4135 H 389.342 2.78172 -4.76785 0
M  V30 4136 H 389.819 3.10794 -3.10328 0
M  V30 4137 H 390.425 1.64894 -3.92033 0
M  V30 4138 N 388.74 1.54641 0.303973 0
M  V30 4139 C 389.703 1.84646 1.35789 0
M  V30 4140 C 390.703 0.7192 1.4382 0
M  V30 4141 O 391.893 0.987491 1.43507 0
M  V30 4142 C 389.025 2.02407 2.74307 0
M  V30 4143 H 390.218 2.78829 1.10429 0
M  V30 4144 H 387.771 1.46658 0.540487 0
M  V30 4145 H 388.506 1.10502 3.04893 0
M  V30 4146 H 388.291 2.84453 2.69868 0
M  V30 4147 H 389.781 2.27002 3.50514 0
M  V30 4148 N 390.218 -0.567019 1.47046 0
M  V30 4149 C 391.465 -1.32462 1.53167 0
M  V30 4150 C 391.793 -1.93571 0.189841 0
M  V30 4151 O 391.048 -1.77865 -0.816243 0
M  V30 4152 C 391.347 -2.4623 2.59047 0
M  V30 4153 C 391.013 -2.03014 4.02612 0
M  V30 4154 C 389.675 -1.90944 4.41694 0
M  V30 4155 C 392.027 -1.69895 4.92732 0
M  V30 4156 C 389.355 -1.44035 5.68745 0
M  V30 4157 C 391.707 -1.2446 6.20236 0
M  V30 4158 C 390.371 -1.10979 6.5821 0
M  V30 4159 H 389.641 -0.484713 0.560477 0
M  V30 4160 H 392.288 -0.636888 1.80599 0
M  V30 4161 H 390.593 -3.20517 2.25335 0
M  V30 4162 H 392.29 -3.04427 2.61008 0
M  V30 4163 H 388.88 -2.13348 3.71726 0
M  V30 4164 H 393.064 -1.78098 4.63244 0
M  V30 4165 H 388.32 -1.32254 5.96925 0
M  V30 4166 H 392.494 -0.978924 6.89485 0
M  V30 4167 H 390.121 -0.744078 7.5655 0
M  V30 4168 N 391.696 -1.35014 -0.812953 0
M  V30 4169 C 392.629 -1.21761 -1.93001 0
M  V30 4170 C 393.607 -0.10694 -1.62248 0
M  V30 4171 O 394.791 -0.273891 -1.865 0
M  V30 4172 C 391.918 -0.873404 -3.27245 0
M  V30 4173 C 390.964 -1.99523 -3.76952 0
M  V30 4174 S 391.797 -3.61009 -3.95516 0
M  V30 4175 C 392.953 -3.28651 -5.32672 0
M  V30 4176 H 393.186 -2.16315 -2.03948 0
M  V30 4177 H 390.719 -1.20156 -0.969631 0
M  V30 4178 H 392.677 -0.68161 -4.04802 0
M  V30 4179 H 391.338 0.053971 -3.14054 0
M  V30 4180 H 390.531 -1.70838 -4.74163 0
M  V30 4181 H 390.133 -2.14503 -3.06373 0
M  V30 4182 H 392.425 -2.81085 -6.1644 0
M  V30 4183 H 393.368 -4.25039 -5.66346 0
M  V30 4184 H 393.776 -2.6458 -4.98656 0
M  V30 4185 N 393.175 1.03435 -1.18907 0
M  V30 4186 C 394.107 2.1165 -0.879595 0
M  V30 4187 C 395.12 1.62316 0.125439 0
M  V30 4188 O 396.309 1.78201 -0.103245 0
M  V30 4189 C 393.409 3.37622 -0.294042 0
M  V30 4190 C 392.582 4.16166 -1.34629 0
M  V30 4191 C 391.641 5.20457 -0.775274 0
M  V30 4192 O 390.667 5.50379 -1.4516 0
M  V30 4193 N 391.869 5.78949 0.424126 0
M  V30 4194 H 394.634 2.38791 -1.81105 0
M  V30 4195 H 392.195 1.19681 -1.09032 0
M  V30 4196 H 394.187 4.04572 0.101679 0
M  V30 4197 H 392.757 3.07873 0.541575 0
M  V30 4198 H 391.977 3.44444 -1.91707 0
M  V30 4199 H 393.265 4.65432 -2.05549 0
M  V30 4200 H 392.663 5.56948 0.991209 0
M  V30 4201 H 391.22 6.47334 0.761691 0
M  V30 4202 N 394.653 0.992116 1.22453 0
M  V30 4203 C 395.9 0.667534 1.91181 0
M  V30 4204 C 396.228 -0.800317 1.77271 0
M  V30 4205 O 395.483 -1.59421 1.13505 0
M  V30 4206 C 395.782 1.01832 3.42586 0
M  V30 4207 C 395.448 2.47831 3.76684 0
M  V30 4208 C 394.11 2.87729 3.85701 0
M  V30 4209 C 396.462 3.42466 3.92895 0
M  V30 4210 C 393.79 4.21252 4.08367 0
M  V30 4211 C 396.142 4.75648 4.17064 0
M  V30 4212 C 394.806 5.15288 4.24305 0
M  V30 4213 H 394.076 0.244268 0.699581 0
M  V30 4214 H 396.723 1.24816 1.45235 0
M  V30 4215 H 395.028 0.355769 3.90181 0
M  V30 4216 H 396.725 0.745228 3.94014 0
M  V30 4217 H 393.315 2.15905 3.70247 0
M  V30 4218 H 397.499 3.12814 3.85307 0
M  V30 4219 H 392.755 4.51554 4.122 0
M  V30 4220 H 396.929 5.48924 4.2855 0
M  V30 4221 H 394.556 6.18769 4.41621 0
M  V30 4222 N 396.131 -1.37776 0.765217 0
M  V30 4223 C 397.361 -2.03828 0.337277 0
M  V30 4224 C 397.769 -1.57841 -1.04321 0
M  V30 4225 O 397.112 -0.752043 -1.67601 0
M  V30 4226 C 397.174 -3.58292 0.294407 0
M  V30 4227 C 396.838 -4.27384 1.61838 0
M  V30 4228 C 397.835 -4.51956 2.56967 0
M  V30 4229 C 395.52 -4.65345 1.89102 0
M  V30 4230 C 397.514 -5.13536 3.77571 0
M  V30 4231 C 395.201 -5.26647 3.09978 0
M  V30 4232 C 396.199 -5.50679 4.04032 0
M  V30 4233 O 395.887 -6.10702 5.2278 0
M  V30 4234 H 395.619 -0.661292 0.140248 0
M  V30 4235 H 398.173 -1.77222 1.03834 0
M  V30 4236 H 396.403 -3.83918 -0.462983 0
M  V30 4237 H 398.092 -4.05763 -0.105581 0
M  V30 4238 H 398.858 -4.23048 2.37183 0
M  V30 4239 H 394.737 -4.45978 1.16725 0
M  V30 4240 H 398.281 -5.3221 4.50997 0
M  V30 4241 H 394.178 -5.54979 3.29649 0
M  V30 4242 H 394.946 -6.29183 5.23517 0
M  V30 4243 N 397.609 -0.515225 -1.4894 0
M  V30 4244 C 398.556 0.255567 -2.29381 0
M  V30 4245 C 399.526 0.947387 -1.36432 0
M  V30 4246 O 400.711 0.951288 -1.65394 0
M  V30 4247 C 397.851 1.30551 -3.19453 0
M  V30 4248 C 396.964 0.624029 -4.27469 0
M  V30 4249 C 396.099 1.65563 -5.0474 0
M  V30 4250 C 395.138 0.956802 -6.04576 0
M  V30 4251 N 394.275 1.93326 -6.74959 0
M  V30 4252 H 399.115 -0.436607 -2.94784 0
M  V30 4253 H 396.652 -0.227154 -1.45336 0
M  V30 4254 H 398.61 1.92639 -3.70062 0
M  V30 4255 H 397.24 1.96626 -2.56004 0
M  V30 4256 H 396.292 -0.110459 -3.8024 0
M  V30 4257 H 397.604 0.0746092 -4.98744 0
M  V30 4258 H 396.758 2.35119 -5.59289 0
M  V30 4259 H 395.497 2.23893 -4.3327 0
M  V30 4260 H 394.502 0.247097 -5.49244 0
M  V30 4261 H 395.727 0.379814 -6.78037 0
M  V30 4262 H 393.673 2.50591 -6.06251 0
M  V30 4263 H 393.59 1.43489 -7.42258 0
M  V30 4264 H 394.858 2.62126 -7.34105 0
M  V30 4265 N 399.087 1.5561 -0.249682 0
M  V30 4266 C 400.315 2.03411 0.378352 0
M  V30 4267 C 400.73 1.12886 1.51335 0
M  V30 4268 O 400.087 0.143833 1.81932 0
M  V30 4269 C 400.138 3.50537 0.88351 0
M  V30 4270 O 399.859 4.37614 -0.20626 0
M  V30 4271 C 401.36 4.14113 1.58195 0
M  V30 4272 H 398.58 0.664994 0.08958 0
M  V30 4273 H 401.124 2.01044 -0.374357 0
M  V30 4274 H 399.279 3.5343 1.58639 0
M  V30 4275 H 399.693 5.24199 0.177782 0
M  V30 4276 H 401.167 5.18741 1.8871 0
M  V30 4277 H 401.644 3.60767 2.50487 0
M  V30 4278 H 402.25 4.15151 0.923573 0
M  V30 4279 N 400.565 -0.0233959 1.57583 0
M  V30 4280 C 401.528 -1.00693 2.05897 0
M  V30 4281 C 402.528 -1.28693 0.964092 0
M  V30 4282 O 403.718 -1.23602 1.22753 0
M  V30 4283 C 400.85 -2.33825 2.4807 0
M  V30 4284 H 402.043 -0.589476 2.9405 0
M  V30 4285 H 399.596 -0.270354 1.53944 0
M  V30 4286 H 400.331 -2.80307 1.6309 0
M  V30 4287 H 400.116 -2.1483 3.2801 0
M  V30 4288 H 401.606 -3.04426 2.85857 0
M  V30 4289 N 402.043 -1.548 -0.295768 0
M  V30 4290 C 402.99 -1.86113 -1.36494 0
M  V30 4291 C 403.96 -0.7105 -1.50137 0
M  V30 4292 O 405.145 -0.959626 -1.64912 0
M  V30 4293 C 402.285 -2.11861 -2.72413 0
M  V30 4294 C 401.398 -3.39471 -2.67177 0
M  V30 4295 C 400.533 -3.55035 -3.95125 0
M  V30 4296 C 399.572 -4.76418 -3.84308 0
M  V30 4297 N 398.709 -4.8876 -5.04042 0
M  V30 4298 H 403.549 -2.77314 -1.09091 0
M  V30 4299 H 401.086 -1.37315 -0.52753 0
M  V30 4300 H 403.044 -2.24786 -3.51464 0
M  V30 4301 H 401.674 -1.2392 -2.98066 0
M  V30 4302 H 400.726 -3.35139 -1.79962 0
M  V30 4303 H 402.038 -4.28646 -2.55076 0
M  V30 4304 H 401.192 -3.67653 -4.82614 0
M  V30 4305 H 399.931 -2.64002 -4.10066 0
M  V30 4306 H 398.936 -4.63827 -2.95202 0
M  V30 4307 H 400.161 -5.68863 -3.70906 0
M  V30 4308 H 398.107 -4.00652 -5.19436 0
M  V30 4309 H 398.024 -5.71945 -4.94384 0
M  V30 4310 H 399.292 -5.0574 -5.93167 0
M  V30 4311 N 403.521 0.559213 -1.47345 0
M  V30 4312 C 404.798 1.31997 -1.44348 0
M  V30 4313 C 405.178 2.1064 -0.139358 0
M  V30 4314 O 404.526 2.1091 0.879153 0
M  V30 4315 C 404.736 2.22618 -2.68779 0
M  V30 4316 C 406.084 2.83701 -3.1591 0
M  V30 4317 O 407.108 2.32921 -2.69493 0
M  V30 4318 O 405.967 3.75993 -3.966 0
M  V30 4319 H 403.061 0.594251 -0.575147 0
M  V30 4320 H 405.607 0.578282 -1.59543 0
M  V30 4321 H 404.379 1.64093 -3.55231 0
M  V30 4322 H 404.002 3.04085 -2.5616 0
M  V30 4323 N 404.999 1.35443 0.805782 0
M  V30 4324 C 406.245 1.2996 1.56467 0
M  V30 4325 C 406.6 -0.124742 1.91995 0
M  V30 4326 O 405.893 -1.07533 1.58579 0
M  V30 4327 C 406.087 2.14045 2.86216 0
M  V30 4328 C 405.916 3.64512 2.63365 0
M  V30 4329 C 404.686 4.33744 2.59219 0
M  V30 4330 C 406.884 4.58142 2.33688 0
M  V30 4331 N 404.866 5.69953 2.28094 0
M  V30 4332 C 406.237 5.8248 2.12408 0
M  V30 4333 C 408.292 4.46877 2.19558 0
M  V30 4334 C 406.995 6.96818 1.78429 0
M  V30 4335 C 409.021 5.61065 1.86976 0
M  V30 4336 C 408.383 6.84431 1.66532 0
M  V30 4337 H 404.482 0.530817 0.574245 0
M  V30 4338 H 407.066 1.70333 0.943126 0
M  V30 4339 H 405.237 1.75942 3.46264 0
M  V30 4340 H 406.969 2.00075 3.51784 0
M  V30 4341 H 403.724 3.86365 2.73896 0
M  V30 4342 H 404.148 6.41845 2.15323 0
M  V30 4343 H 408.79 3.52102 2.34061 0
M  V30 4344 H 406.508 7.91559 1.62664 0
M  V30 4345 H 410.094 5.54302 1.7675 0
M  V30 4346 H 408.974 7.71294 1.41688 0
M  V30 4347 N 406.477 -1.02803 1.19454 0
M  V30 4348 C 407.723 -1.76598 1.0092 0
M  V30 4349 C 408.078 -1.86939 -0.455142 0
M  V30 4350 O 407.371 -1.37575 -1.33355 0
M  V30 4351 C 407.565 -3.18941 1.6128 0
M  V30 4352 C 407.394 -3.22476 3.13431 0
M  V30 4353 C 406.164 -3.30375 3.82336 0
M  V30 4354 C 408.362 -3.09451 4.10785 0
M  V30 4355 N 406.344 -3.23292 5.21877 0
M  V30 4356 C 407.715 -3.10012 5.36929 0
M  V30 4357 C 409.77 -2.93585 4.02135 0
M  V30 4358 C 408.473 -2.96334 6.55423 0
M  V30 4359 C 410.499 -2.81256 5.20239 0
M  V30 4360 C 409.861 -2.82472 6.45282 0
M  V30 4361 H 405.96 -0.657447 0.423424 0
M  V30 4362 H 408.544 -1.22369 1.5144 0
M  V30 4363 H 406.715 -3.71489 1.1336 0
M  V30 4364 H 408.447 -3.81102 1.36173 0
M  V30 4365 H 405.202 -3.3663 3.33132 0
M  V30 4366 H 405.626 -3.23156 5.94894 0
M  V30 4367 H 410.268 -2.91466 3.0628 0
M  V30 4368 H 407.986 -2.97203 7.51463 0
M  V30 4369 H 411.572 -2.70014 5.15348 0
M  V30 4370 H 410.452 -2.73036 7.35133 0
M  V30 4371 N 407.956 -0.998596 -1.21925 0
M  V30 4372 C 408.886 -0.573688 -2.26343 0
M  V30 4373 C 409.867 0.402296 -1.65274 0
M  V30 4374 O 411.052 0.291683 -1.91997 0
M  V30 4375 C 408.182 0.106839 -3.47136 0
M  V30 4376 C 407.136 -0.788269 -4.20678 0
M  V30 4377 C 406.462 0.0254927 -5.34694 0
M  V30 4378 C 407.762 -2.08784 -4.78755 0
M  V30 4379 H 409.456 -1.44651 -2.62138 0
M  V30 4380 H 407.002 -0.696975 -1.26009 0
M  V30 4381 H 408.955 0.415531 -4.19346 0
M  V30 4382 H 407.679 1.01424 -3.10452 0
M  V30 4383 H 406.338 -1.08069 -3.50309 0
M  V30 4384 H 405.986 0.933989 -4.94253 0
M  V30 4385 H 405.686 -0.570437 -5.84825 0
M  V30 4386 H 407.21 0.328147 -6.09718 0
M  V30 4387 H 408.624 -1.84272 -5.42878 0
M  V30 4388 H 407.021 -2.63307 -5.39249 0
M  V30 4389 H 408.091 -2.76284 -3.98491 0
M  V30 4390 N 409.434 1.37368 -0.772513 0
M  V30 4391 C 410.681 1.99673 -0.337182 0
M  V30 4392 C 411.009 1.61324 1.0865 0
M  V30 4393 O 410.264 0.851377 1.7621 0
M  V30 4394 C 410.563 3.54817 -0.428876 0
M  V30 4395 C 410.229 4.12936 -1.81092 0
M  V30 4396 C 408.891 4.28523 -2.1891 0
M  V30 4397 C 411.243 4.44801 -2.71664 0
M  V30 4398 C 408.571 4.73277 -3.46735 0
M  V30 4399 C 410.923 4.90981 -3.98899 0
M  V30 4400 C 409.587 5.04773 -4.36761 0
M  V30 4401 H 408.857 0.730656 -0.123384 0
M  V30 4402 H 411.504 1.64124 -0.986686 0
M  V30 4403 H 409.809 3.90618 0.304167 0
M  V30 4404 H 411.506 4.00933 -0.0733334 0
M  V30 4405 H 408.096 4.01233 -1.50699 0
M  V30 4406 H 412.28 4.32344 -2.43706 0
M  V30 4407 H 407.536 4.82142 -3.75964 0
M  V30 4408 H 411.71 5.14603 -4.69208 0
M  V30 4409 H 409.337 5.39211 -5.35868 0
M  V30 4410 N 410.912 0.523116 1.48665 0
M  V30 4411 C 412.137 -0.0117284 2.07397 0
M  V30 4412 C 412.562 -1.28031 1.37803 0
M  V30 4413 O 411.92 -1.75836 0.441762 0
M  V30 4414 C 411.968 -0.225786 3.59892 0
M  V30 4415 O 411.072 -1.29592 3.91509 0
M  V30 4416 H 410.413 0.0360673 0.66302 0
M  V30 4417 H 412.943 0.729066 1.9117 0
M  V30 4418 H 412.953 -0.450552 4.05505 0
M  V30 4419 H 411.628 0.700944 4.09951 0
M  V30 4420 H 410.205 -1.05436 3.57684 0
M  V30 4421 N 412.39 -1.55475 0.257931 0
M  V30 4422 C 413.637 -1.99207 -0.363728 0
M  V30 4423 C 413.965 -1.1462 -1.57139 0
M  V30 4424 O 413.22 -0.199653 -1.94679 0
M  V30 4425 C 413.519 -3.48183 -0.806433 0
M  V30 4426 C 413.185 -4.49936 0.294684 0
M  V30 4427 C 411.847 -4.77481 0.597076 0
M  V30 4428 C 414.199 -5.10769 1.03751 0
M  V30 4429 C 411.527 -5.63132 1.64618 0
M  V30 4430 C 413.879 -5.97558 2.07622 0
M  V30 4431 C 412.543 -6.23432 2.38514 0
M  V30 4432 H 411.813 -0.728949 -0.133097 0
M  V30 4433 H 414.46 -1.8793 0.368059 0
M  V30 4434 H 412.765 -3.56848 -1.61761 0
M  V30 4435 H 414.462 -3.79415 -1.29789 0
M  V30 4436 H 411.052 -4.28572 0.0488649 0
M  V30 4437 H 415.236 -4.89527 0.817149 0
M  V30 4438 H 410.492 -5.8143 1.89074 0
M  V30 4439 H 414.666 -6.43735 2.65666 0
M  V30 4440 H 412.293 -6.89594 3.19943 0
M  V30 4441 N 413.868 0.0150385 -1.57593 0
M  V30 4442 C 415.098 0.713359 -1.93894 0
M  V30 4443 C 415.506 1.68663 -0.857289 0
M  V30 4444 O 414.849 1.82876 0.173788 0
M  V30 4445 C 414.911 1.51348 -3.26089 0
M  V30 4446 C 414.575 0.703451 -4.51554 0
M  V30 4447 C 415.572 -0.00237924 -5.199 0
M  V30 4448 C 413.257 0.653854 -4.98026 0
M  V30 4449 C 415.251 -0.746955 -6.33008 0
M  V30 4450 C 412.938 -0.0944578 -6.11027 0
M  V30 4451 C 413.936 -0.793609 -6.78374 0
M  V30 4452 O 413.624 -1.52974 -7.89211 0
M  V30 4453 H 413.356 0.204637 -0.644282 0
M  V30 4454 H 415.91 -0.0276411 -2.05381 0
M  V30 4455 H 414.14 2.29862 -3.10967 0
M  V30 4456 H 415.829 2.09572 -3.47612 0
M  V30 4457 H 416.595 0.0268803 -4.84993 0
M  V30 4458 H 412.474 1.18756 -4.45441 0
M  V30 4459 H 416.018 -1.2932 -6.85509 0
M  V30 4460 H 411.915 -0.125591 -6.45378 0
M  V30 4461 H 412.683 -1.44488 -8.05646 0
M  V30 4462 N 415.346 1.54954 0.287554 0
M  V30 4463 C 416.593 1.74873 1.02106 0
M  V30 4464 C 416.921 0.541829 1.86801 0
M  V30 4465 O 416.176 -0.475992 1.89823 0
M  V30 4466 C 416.475 2.99833 1.94512 0
M  V30 4467 C 416.141 4.33029 1.25686 0
M  V30 4468 C 414.803 4.69233 1.06649 0
M  V30 4469 C 417.155 5.15542 0.765913 0
M  V30 4470 C 414.483 5.85518 0.372222 0
M  V30 4471 C 416.835 6.32542 0.0853101 0
M  V30 4472 C 415.499 6.67398 -0.1169 0
M  V30 4473 H 414.769 0.639906 0.373632 0
M  V30 4474 H 417.416 1.89219 0.294665 0
M  V30 4475 H 415.721 2.80325 2.73725 0
M  V30 4476 H 417.418 3.1244 2.51361 0
M  V30 4477 H 414.008 4.04564 1.41512 0
M  V30 4478 H 418.192 4.88059 0.90066 0
M  V30 4479 H 413.448 6.11057 0.204695 0
M  V30 4480 H 417.622 6.95741 -0.302936 0
M  V30 4481 H 415.249 7.57357 -0.656859 0
M  V30 4482 N 416.824 -0.551391 1.4764 0
M  V30 4483 C 418.064 -1.31901 1.56145 0
M  V30 4484 C 418.428 -1.90724 0.221013 0
M  V30 4485 O 419.629 -2.6819 0.180945 0
M  V30 4486 C 417.9 -2.39517 2.65267 0
M  V30 4487 S 419.459 -3.26289 2.93395 0
M  V30 4488 H 416.277 -0.448965 0.551318 0
M  V30 4489 H 418.879 -0.630599 1.85051 0
M  V30 4490 H 417.583 -1.94747 3.6125 0
M  V30 4491 H 417.114 -3.13092 2.38195 0
M  V30 4492 H 419.129 -4.39122 2.31055 0
M  V30 4493 N 418.302 -1.35869 -0.798587 0
M  V30 4494 C 419.232 -1.32118 -1.92528 0
M  V30 4495 C 420.213 -0.194209 -1.68988 0
M  V30 4496 O 421.398 -0.390426 -1.90235 0
M  V30 4497 C 418.528 -1.10047 -3.29404 0
M  V30 4498 C 417.482 -2.19471 -3.67446 0
M  V30 4499 C 416.808 -1.82555 -5.02571 0
M  V30 4500 C 418.108 -3.61495 -3.76987 0
M  V30 4501 H 419.802 -2.26394 -1.95924 0
M  V30 4502 H 417.348 -1.08981 -0.94123 0
M  V30 4503 H 419.301 -1.06061 -4.07835 0
M  V30 4504 H 418.025 -0.122195 -3.26371 0
M  V30 4505 H 416.684 -2.22568 -2.91306 0
M  V30 4506 H 416.332 -0.833249 -4.9605 0
M  V30 4507 H 416.032 -2.5581 -5.28995 0
M  V30 4508 H 417.556 -1.80108 -5.83432 0
M  V30 4509 H 418.97 -3.60676 -4.4563 0
M  V30 4510 H 417.367 -4.33577 -4.14887 0
M  V30 4511 H 418.437 -3.97065 -2.78329 0
M  V30 4512 N 419.78 1.02168 -1.19998 0
M  V30 4513 C 421.191 1.57135 -1.00825 0
M  V30 4514 C 421.542 1.91276 0.436818 0
M  V30 4515 O 420.667 1.71679 1.3174 0
M  V30 4516 C 421.262 2.85514 -1.82393 0
M  V30 4517 C 419.821 3.37027 -1.67601 0
M  V30 4518 C 418.968 2.10388 -1.80644 0
M  V30 4519 H 421.919 0.846106 -1.34264 0
M  V30 4520 H 421.94 3.56711 -1.32429 0
M  V30 4521 H 421.452 2.60634 -2.87561 0
M  V30 4522 H 419.553 3.66878 -0.650485 0
M  V30 4523 H 419.666 4.09572 -2.4857 0
M  V30 4524 H 418.03 2.22601 -1.23778 0
M  V30 4525 H 418.813 1.8794 -2.87286 0
M  V30 4526 N 421.258 1.00505 1.21394 0
M  V30 4527 C 422.188 0.585684 2.26035 0
M  V30 4528 C 423.169 -0.393525 1.65485 0
M  V30 4529 O 424.354 -0.281497 1.92149 0
M  V30 4530 C 421.484 -0.0884283 3.47187 0
M  V30 4531 C 420.438 0.810567 4.20254 0
M  V30 4532 C 419.764 0.00286382 5.347 0
M  V30 4533 C 421.064 2.1132 4.77641 0
M  V30 4534 H 422.758 1.46039 2.61368 0
M  V30 4535 H 420.304 0.703648 1.25638 0
M  V30 4536 H 422.257 -0.393286 4.19561 0
M  V30 4537 H 420.981 -0.997766 3.10986 0
M  V30 4538 H 419.64 1.09925 3.49731 0
M  V30 4539 H 419.288 -0.907765 4.94741 0
M  V30 4540 H 418.988 0.601444 5.84514 0
M  V30 4541 H 420.512 -0.295808 6.09883 0
M  V30 4542 H 421.926 1.87148 5.41893 0
M  V30 4543 H 420.323 2.66164 5.37845 0
M  V30 4544 H 421.393 2.78393 3.9702 0
M  V30 4545 N 422.737 -1.36956 0.779787 0
M  V30 4546 C 423.7 -2.2851 0.177662 0
M  V30 4547 C 424.7 -1.48393 -0.619377 0
M  V30 4548 O 425.89 -1.68505 -0.441785 0
M  V30 4549 C 423.022 -3.32428 -0.755279 0
M  V30 4550 H 424.215 -2.83269 0.984823 0
M  V30 4551 H 421.768 -1.46358 0.548544 0
M  V30 4552 H 422.503 -2.82808 -1.58714 0
M  V30 4553 H 422.288 -3.91659 -0.185817 0
M  V30 4554 H 423.778 -4.00824 -1.17174 0
M  V30 4555 N 424.215 -0.530993 -1.48385 0
M  V30 4556 C 425.464 0.00474348 -2.01699 0
M  V30 4557 C 425.777 1.35227 -1.41325 0
M  V30 4558 O 426.983 1.97643 -1.86144 0
M  V30 4559 C 425.439 0.0588473 -3.59852 0
M  V30 4560 C 425.047 -1.28385 -4.2921 0
M  V30 4561 C 426.791 0.543358 -4.21008 0
M  V30 4562 C 424.698 -1.19028 -5.79298 0
M  V30 4563 H 423.628 0.00554317 -0.75398 0
M  V30 4564 H 426.279 -0.674924 -1.70637 0
M  V30 4565 H 424.661 0.803612 -3.8776 0
M  V30 4566 H 425.835 -2.04426 -4.12973 0
M  V30 4567 H 424.15 -1.70418 -3.7993 0
M  V30 4568 H 426.747 0.631351 -5.3096 0
M  V30 4569 H 427.09 1.54937 -3.86394 0
M  V30 4570 H 427.623 -0.145754 -3.97533 0
M  V30 4571 H 424.362 -2.17147 -6.18488 0
M  V30 4572 H 423.882 -0.471246 -5.97946 0
M  V30 4573 H 425.561 -0.881365 -6.40969 0
M  V30 4574 N 425.693 1.55336 -0.266172 0
M  V30 4575 C 426.921 2.03801 0.356756 0
M  V30 4576 C 427.336 1.14485 1.50129 0
M  V30 4577 O 426.693 0.163121 1.8177 0
M  V30 4578 C 426.744 3.51455 0.846281 0
M  V30 4579 O 426.465 4.37371 -0.252663 0
M  V30 4580 C 427.966 4.15767 1.53794 0
M  V30 4581 H 425.186 0.665906 0.0825218 0
M  V30 4582 H 427.73 2.00636 -0.39566 0
M  V30 4583 H 425.885 3.55092 1.54881 0
M  V30 4584 H 426.299 5.24358 0.122173 0
M  V30 4585 H 427.773 5.20714 1.83198 0
M  V30 4586 H 428.25 3.63404 2.46646 0
M  V30 4587 H 428.856 4.16107 0.879488 0
M  V30 4588 N 427.171 -0.0066808 1.57599 0
M  V30 4589 C 428.134 -0.985035 2.06953 0
M  V30 4590 C 429.134 -1.27663 0.977687 0
M  V30 4591 O 430.324 -1.22293 1.24057 0
M  V30 4592 C 427.456 -2.3118 2.50536 0
M  V30 4593 H 428.649 -0.558255 2.94658 0
M  V30 4594 H 426.202 -0.254011 1.54222 0
M  V30 4595 H 426.937 -2.78561 1.66054 0
M  V30 4596 H 426.722 -2.11338 3.3027 0
M  V30 4597 H 428.212 -3.01377 2.8907 0
M  V30 4598 N 428.649 -1.55105 -0.279332 0
M  V30 4599 C 429.896 -1.75412 -1.01177 0
M  V30 4600 C 430.224 -0.551728 -1.86511 0
M  V30 4601 O 429.479 0.465919 -1.90073 0
M  V30 4602 C 429.778 -3.0086 -1.92919 0
M  V30 4603 C 429.444 -4.33689 -1.23387 0
M  V30 4604 C 428.106 -4.69792 -1.04159 0
M  V30 4605 C 430.458 -5.15941 -0.738562 0
M  V30 4606 C 427.786 -5.85707 -0.341166 0
M  V30 4607 C 430.138 -6.32579 -0.0517636 0
M  V30 4608 C 428.802 -6.67326 0.152292 0
M  V30 4609 H 428.072 -0.641879 -0.370233 0
M  V30 4610 H 430.719 -1.89373 -0.284627 0
M  V30 4611 H 429.024 -2.81773 -2.72234 0
M  V30 4612 H 430.721 -3.13768 -2.49701 0
M  V30 4613 H 427.311 -4.05309 -1.39364 0
M  V30 4614 H 431.495 -4.8853 -0.874764 0
M  V30 4615 H 426.751 -6.11157 -0.172287 0
M  V30 4616 H 430.925 -6.9557 0.339828 0
M  V30 4617 H 428.552 -7.56998 0.697014 0
M  V30 4618 N 430.127 0.543554 -1.4793 0
M  V30 4619 C 431.374 1.30008 -1.55255 0
M  V30 4620 C 431.702 1.93245 -0.220612 0
M  V30 4621 O 430.957 1.79141 0.787843 0
M  V30 4622 C 431.256 2.42078 -2.62932 0
M  V30 4623 C 430.922 1.96583 -4.0579 0
M  V30 4624 C 429.584 1.83893 -4.44676 0
M  V30 4625 C 431.936 1.62034 -4.95373 0
M  V30 4626 C 429.264 1.34969 -5.70964 0
M  V30 4627 C 431.616 1.14577 -6.22137 0
M  V30 4628 C 430.28 1.00493 -6.59892 0
M  V30 4629 H 429.55 0.475735 -0.568117 0
M  V30 4630 H 432.197 0.608075 -1.81589 0
M  V30 4631 H 430.502 3.16892 -2.30406 0
M  V30 4632 H 432.199 3.00236 -2.65818 0
M  V30 4633 H 428.789 2.07407 -3.75074 0
M  V30 4634 H 432.973 1.70705 -4.66019 0
M  V30 4635 H 428.229 1.2274 -5.98953 0
M  V30 4636 H 432.403 0.869109 -6.90955 0
M  V30 4637 H 430.03 0.623624 -7.57638 0
M  V30 4638 N 431.605 1.3629 0.791371 0
M  V30 4639 C 432.835 1.33368 1.57786 0
M  V30 4640 C 433.243 -0.0875188 1.88997 0
M  V30 4641 O 432.586 -1.05427 1.50435 0
M  V30 4642 C 432.648 2.08802 2.92646 0
M  V30 4643 C 432.312 3.57903 2.84174 0
M  V30 4644 C 433.309 4.52191 2.56553 0
M  V30 4645 C 430.994 4.00762 3.02812 0
M  V30 4646 C 432.988 5.87315 2.47669 0
M  V30 4647 C 430.675 5.35977 2.93551 0
M  V30 4648 C 431.673 6.29066 2.66017 0
M  V30 4649 O 431.361 7.61798 2.56746 0
M  V30 4650 H 431.093 0.459166 0.496128 0
M  V30 4651 H 433.647 1.79952 0.990269 0
M  V30 4652 H 431.877 1.56878 3.53449 0
M  V30 4653 H 433.566 1.98762 3.53904 0
M  V30 4654 H 434.332 4.20393 2.41858 0
M  V30 4655 H 430.211 3.2868 3.2325 0
M  V30 4656 H 433.755 6.59943 2.26099 0
M  V30 4657 H 429.652 5.67384 3.07808 0
M  V30 4658 H 430.42 7.71898 2.72242 0
M  V30 4659 N 433.083 -1.0153 1.20538 0
M  V30 4660 C 434.311 -1.78746 1.04199 0
M  V30 4661 C 434.726 -1.84323 -0.408733 0
M  V30 4662 O 434.083 -1.29714 -1.28377 0
M  V30 4663 C 434.134 -3.23152 1.62035 0
M  V30 4664 O 433.855 -3.17918 3.0143 0
M  V30 4665 C 435.356 -4.16911 1.50666 0
M  V30 4666 H 432.576 -0.56208 0.366479 0
M  V30 4667 H 435.12 -1.27794 1.59653 0
M  V30 4668 H 433.275 -3.71248 1.10697 0
M  V30 4669 H 433.689 -4.08567 3.28897 0
M  V30 4670 H 435.163 -5.16072 1.95892 0
M  V30 4671 H 435.64 -4.36791 0.459363 0
M  V30 4672 H 436.246 -3.74698 2.01201 0
M  V30 4673 N 434.561 -1.01147 -1.20859 0
M  V30 4674 C 435.491 -0.597663 -2.25722 0
M  V30 4675 C 436.472 0.384744 -1.65692 0
M  V30 4676 O 437.657 0.271303 -1.92296 0
M  V30 4677 C 434.787 0.0700149 -3.47229 0
M  V30 4678 C 433.741 -0.832843 -4.19819 0
M  V30 4679 C 433.067 -0.0312202 -5.34691 0
M  V30 4680 C 434.367 -2.1385 -4.76514 0
M  V30 4681 H 436.061 -1.47423 -2.60589 0
M  V30 4682 H 433.607 -0.710301 -1.25263 0
M  V30 4683 H 435.56 0.37103 -4.19763 0
M  V30 4684 H 434.284 0.981259 -3.11511 0
M  V30 4685 H 432.943 -1.11778 -3.49144 0
M  V30 4686 H 432.591 0.881515 -4.95215 0
M  V30 4687 H 432.291 -0.632434 -5.84187 0
M  V30 4688 H 433.815 0.26346 -6.10031 0
M  V30 4689 H 435.229 -1.9002 -5.40893 0
M  V30 4690 H 433.626 -2.69012 -5.36426 0
M  V30 4691 H 434.696 -2.80495 -3.95538 0
M  V30 4692 N 436.039 1.36541 -0.78704 0
M  V30 4693 C 436.972 2.27831 -0.129765 0
M  V30 4694 C 437.95 1.47105 0.692732 0
M  V30 4695 O 439.134 1.7641 0.664222 0
M  V30 4696 C 436.261 3.28577 0.821883 0
M  V30 4697 C 435.307 4.26422 0.0814771 0
M  V30 4698 S 436.14 5.20919 -1.24112 0
M  V30 4699 C 437.296 6.25212 -0.293409 0
M  V30 4700 H 437.529 2.83229 -0.903811 0
M  V30 4701 H 435.062 1.43046 -0.581144 0
M  V30 4702 H 437.02 3.87123 1.3655 0
M  V30 4703 H 435.681 2.72096 1.56916 0
M  V30 4704 H 434.874 4.97554 0.803485 0
M  V30 4705 H 434.476 3.71944 -0.391589 0
M  V30 4706 H 436.768 6.75435 0.528622 0
M  V30 4707 H 437.711 7.01378 -0.973344 0
M  V30 4708 H 438.119 5.64407 0.102196 0
M  V30 4709 N 437.518 0.538854 1.48102 0
M  V30 4710 C 438.746 0.0123136 2.06896 0
M  V30 4711 C 439.161 -1.27312 1.39417 0
M  V30 4712 O 438.518 -1.75949 0.484582 0
M  V30 4713 C 438.569 -0.206118 3.60912 0
M  V30 4714 O 438.29 1.0284 4.25859 0
M  V30 4715 C 439.791 -0.772033 4.36526 0
M  V30 4716 H 437.011 0.0375239 0.66995 0
M  V30 4717 H 439.555 0.747032 1.90367 0
M  V30 4718 H 437.71 -0.89091 3.77017 0
M  V30 4719 H 438.124 0.814654 5.18135 0
M  V30 4720 H 439.598 -0.874251 5.45033 0
M  V30 4721 H 440.075 -1.77904 4.01555 0
M  V30 4722 H 440.681 -0.123526 4.25121 0
M  V30 4723 N 438.996 -1.55193 0.274407 0
M  V30 4724 C 440.236 -2.01488 -0.343778 0
M  V30 4725 C 440.6 -1.1586 -1.53103 0
M  V30 4726 O 441.801 -1.51732 -2.2188 0
M  V30 4727 C 440.072 -3.50134 -0.717021 0
M  V30 4728 S 441.631 -4.18417 -1.32184 0
M  V30 4729 H 438.449 -0.70291 -0.106948 0
M  V30 4730 H 441.051 -1.91446 0.396075 0
M  V30 4731 H 439.755 -4.10104 0.155947 0
M  V30 4732 H 439.286 -3.64159 -1.48835 0
M  V30 4733 H 441.301 -4.21984 -2.61044 0
M  V30 4734 N 440.474 -0.00167713 -1.576 0
M  V30 4735 C 441.384 1.00548 -2.1196 0
M  V30 4736 C 442.4 1.3758 -1.06526 0
M  V30 4737 O 443.576 1.46278 -1.38436 0
M  V30 4738 C 440.641 2.27809 -2.6135 0
M  V30 4739 C 439.702 1.97074 -3.81393 0
M  V30 4740 C 438.935 3.18267 -4.28417 0
M  V30 4741 O 439.158 4.30009 -3.74765 0
M  V30 4742 O 438.092 3.02167 -5.20556 0
M  V30 4743 H 441.918 0.573373 -2.98238 0
M  V30 4744 H 439.503 0.217255 -1.47812 0
M  V30 4745 H 441.385 3.02568 -2.93309 0
M  V30 4746 H 440.06 2.70254 -1.78169 0
M  V30 4747 H 438.967 1.19785 -3.54404 0
M  V30 4748 H 440.3 1.59464 -4.65652 0
M  V30 4749 N 441.952 1.55251 0.271103 0
M  V30 4750 C 442.885 1.83191 1.36075 0
M  V30 4751 C 443.863 0.685091 1.47463 0
M  V30 4752 O 445.047 0.928292 1.64058 0
M  V30 4753 C 442.174 1.99521 2.73696 0
M  V30 4754 C 441.22 3.22081 2.79582 0
M  V30 4755 S 442.053 4.79388 2.38636 0
M  V30 4756 C 443.209 4.98693 3.78228 0
M  V30 4757 H 443.442 2.75327 1.12171 0
M  V30 4758 H 440.975 1.47046 0.470833 0
M  V30 4759 H 442.933 2.09613 3.52948 0
M  V30 4760 H 441.594 1.0827 2.9485 0
M  V30 4761 H 440.787 3.304 3.80594 0
M  V30 4762 H 440.389 3.10589 2.08352 0
M  V30 4763 H 442.681 4.84551 4.73515 0
M  V30 4764 H 443.624 6.00738 3.7486 0
M  V30 4765 H 444.032 4.26665 3.69618 0
M  V30 4766 N 443.43 -0.535701 1.48216 0
M  V30 4767 C 444.36 -1.65014 1.65204 0
M  V30 4768 C 445.341 -1.62554 0.501011 0
M  V30 4769 O 446.526 -1.7984 0.732886 0
M  V30 4770 C 443.656 -3.03616 1.68626 0
M  V30 4771 C 442.61 -3.20932 2.83172 0
M  V30 4772 C 441.936 -4.60537 2.71679 0
M  V30 4773 C 443.236 -3.04249 4.24535 0
M  V30 4774 H 444.93 -1.51053 2.58502 0
M  V30 4775 H 442.476 -0.725262 1.24402 0
M  V30 4776 H 444.429 -3.81446 1.79099 0
M  V30 4777 H 443.153 -3.18587 0.719026 0
M  V30 4778 H 441.812 -2.45517 2.72244 0
M  V30 4779 H 441.46 -4.72336 1.72937 0
M  V30 4780 H 441.16 -4.73069 3.48538 0
M  V30 4781 H 442.684 -5.40475 2.84112 0
M  V30 4782 H 444.098 -3.71877 4.36326 0
M  V30 4783 H 442.495 -3.28278 5.02348 0
M  V30 4784 H 443.565 -2.00739 4.41397 0
M  V30 4785 N 444.908 -1.36708 -0.784132 0
M  V30 4786 C 446.324 -1.17237 -1.08294 0
M  V30 4787 C 446.524 -5.93947e-05 -2.015 0
M  V30 4788 O 445.58 0.663686 -2.43622 0
M  V30 4789 C 446.893 -2.48557 -1.69233 0
M  V30 4790 C 448.441 -2.54968 -1.8155 0
M  V30 4791 C 448.916 -3.86388 -2.45904 0
M  V30 4792 N 450.407 -3.87762 -2.53367 0
M  V30 4793 C 451.142 -4.86191 -3.03983 0
M  V30 4794 N 450.638 -5.95015 -3.54866 0
M  V30 4795 N 452.431 -4.73606 -3.02743 0
M  V30 4796 H 444.582 -2.11758 -0.16501 0
M  V30 4797 H 446.845 -0.93822 -0.135822 0
M  V30 4798 H 446.551 -3.34638 -1.08215 0
M  V30 4799 H 446.425 -2.64748 -2.68679 0
M  V30 4800 H 448.812 -1.69302 -2.41704 0
M  V30 4801 H 448.893 -2.42672 -0.80895 0
M  V30 4802 H 448.537 -4.72462 -1.86392 0
M  V30 4803 H 448.467 -3.95982 -3.4714 0
M  V30 4804 H 450.958 -3.09145 -2.17343 0
M  V30 4805 H 451.271 -6.66086 -3.91854 0
M  V30 4806 H 449.616 -5.98676 -3.53003 0
M  V30 4807 H 452.807 -3.87717 -2.62284 0
M  V30 4808 H 452.98 -5.50473 -3.41881 0
M  V30 4809 N 446.386 1.0089 -1.21074 0
M  V30 4810 C 447.333 2.09588 -0.966512 0
M  V30 4811 C 448.303 1.65761 0.106089 0
M  V30 4812 O 449.488 1.90758 -0.0402287 0
M  V30 4813 C 446.628 3.40958 -0.533058 0
M  V30 4814 C 445.741 3.9822 -1.67467 0
M  V30 4815 C 444.876 5.17682 -1.19076 0
M  V30 4816 C 443.915 5.67043 -2.30496 0
M  V30 4817 N 443.052 6.77759 -1.83267 0
M  V30 4818 H 447.892 2.29815 -1.89708 0
M  V30 4819 H 445.429 1.12689 -0.945489 0
M  V30 4820 H 447.387 4.1637 -0.263019 0
M  V30 4821 H 446.017 3.20781 0.360505 0
M  V30 4822 H 445.069 3.1983 -2.05944 0
M  V30 4823 H 446.381 4.3085 -2.51336 0
M  V30 4824 H 445.535 6.00326 -0.877151 0
M  V30 4825 H 444.274 4.86635 -0.322066 0
M  V30 4826 H 443.279 4.82999 -2.62664 0
M  V30 4827 H 444.504 6.00121 -3.17855 0
M  V30 4828 H 442.45 6.48527 -0.987356 0
M  V30 4829 H 442.367 7.09624 -2.60711 0
M  V30 4830 H 443.635 7.63949 -1.54928 0
M  V30 4831 N 447.864 1.01787 1.20321 0
M  V30 4832 C 448.811 0.589197 2.23153 0
M  V30 4833 C 449.781 -0.391367 1.61423 0
M  V30 4834 O 450.966 -0.290518 1.88575 0
M  V30 4835 C 448.106 -0.0650747 3.45039 0
M  V30 4836 C 447.219 0.960207 4.21194 0
M  V30 4837 C 446.354 0.276854 5.30478 0
M  V30 4838 C 445.393 1.2888 5.98378 0
M  V30 4839 N 444.53 0.632031 6.99249 0
M  V30 4840 H 449.37 1.47071 2.59179 0
M  V30 4841 H 446.907 0.736192 1.27352 0
M  V30 4842 H 448.865 -0.461552 4.14639 0
M  V30 4843 H 447.495 -0.910233 3.09701 0
M  V30 4844 H 446.547 1.47484 3.50646 0
M  V30 4845 H 447.859 1.72977 4.67847 0
M  V30 4846 H 447.013 -0.175056 6.06447 0
M  V30 4847 H 445.752 -0.525004 4.84866 0
M  V30 4848 H 444.757 1.75109 5.21169 0
M  V30 4849 H 445.982 2.09196 6.46076 0
M  V30 4850 H 443.928 -0.149935 6.55829 0
M  V30 4851 H 443.845 1.33964 7.44036 0
M  V30 4852 H 445.113 0.203755 7.79234 0
M  V30 4853 N 449.342 -1.36122 0.79427 0
M  V30 4854 C 450.567 -2.03891 0.379871 0
M  V30 4855 C 450.992 -1.59488 -0.997251 0
M  V30 4856 O 450.35 -0.765652 -1.64339 0
M  V30 4857 C 450.398 -3.57687 0.457442 0
M  V30 4858 O 449.502 -4.08931 -0.5338 0
M  V30 4859 H 448.843 -0.6443 0.160541 0
M  V30 4860 H 451.373 -1.73976 1.07673 0
M  V30 4861 H 451.383 -4.06721 0.322792 0
M  V30 4862 H 450.058 -3.89357 1.46199 0
M  V30 4863 H 448.635 -3.71154 -0.360409 0
M  V30 4864 N 450.82 -0.546701 -1.47814 0
M  V30 4865 C 452.068 -0.0187037 -2.02091 0
M  V30 4866 C 452.389 1.33168 -1.42447 0
M  V30 4867 O 451.659 1.86619 -0.595839 0
M  V30 4868 H 450.239 -0.00392531 -0.74699 0
M  V30 4869 H 452.901 -0.714327 -1.81338 0
M  V30 4870 H 451.997 0.0772219 -3.12004 0
M  V30 4871 N 452.299 1.55045 -0.282633 0
M  V30 4872 C 453.232 2.18951 0.64311 0
M  V30 4873 C 454.21 1.15287 1.14664 0
M  V30 4874 O 455.394 1.43846 1.21822 0
M  V30 4875 C 452.521 2.81874 1.87789 0
M  V30 4876 C 451.567 3.98906 1.50919 0
M  V30 4877 S 452.4 5.3234 0.580884 0
M  V30 4878 C 453.556 5.98737 1.82387 0
M  V30 4879 H 453.789 2.97131 0.100138 0
M  V30 4880 H 451.322 1.54255 -0.0668514 0
M  V30 4881 H 453.28 3.18757 2.58658 0
M  V30 4882 H 451.941 2.03573 2.392 0
M  V30 4883 H 451.134 4.4165 2.42819 0
M  V30 4884 H 450.736 3.63485 0.88061 0
M  V30 4885 H 453.028 6.18427 2.76684 0
M  V30 4886 H 453.971 6.93318 1.4393 0
M  V30 4887 H 454.379 5.28177 1.99223 0
M  V30 4888 N 453.777 0.010035 1.57597 0
M  V30 4889 C 454.709 -1.00649 2.05918 0
M  V30 4890 C 455.722 -1.30077 0.978964 0
M  V30 4891 O 456.911 -1.26878 1.25556 0
M  V30 4892 C 454.011 -2.33876 2.45265 0
M  V30 4893 C 453.184 -2.23242 3.7614 0
M  V30 4894 C 452.243 -3.39242 4.02245 0
M  V30 4895 O 451.269 -3.1698 4.72771 0
M  V30 4896 N 452.471 -4.6242 3.50924 0
M  V30 4897 H 455.236 -0.594333 2.93748 0
M  V30 4898 H 452.797 -0.17714 1.60928 0
M  V30 4899 H 454.789 -3.1027 2.59836 0
M  V30 4900 H 453.359 -2.66799 1.62902 0
M  V30 4901 H 452.579 -1.31696 3.71551 0
M  V30 4902 H 453.867 -2.13321 4.61922 0
M  V30 4903 H 453.265 -4.83404 2.93832 0
M  V30 4904 H 451.822 -5.36046 3.70807 0
M  V30 4905 N 455.255 -1.55392 -0.262866 0
M  V30 4906 C 456.504 -1.75679 -0.990943 0
M  V30 4907 C 456.817 -0.57097 -1.87081 0
M  V30 4908 O 458.023 -0.656486 -2.63444 0
M  V30 4909 C 456.479 -3.10964 -1.81188 0
M  V30 4910 C 456.087 -4.37146 -0.980188 0
M  V30 4911 C 457.831 -3.40597 -2.53365 0
M  V30 4912 C 455.738 -5.63466 -1.7961 0
M  V30 4913 H 454.668 -0.654868 -0.373716 0
M  V30 4914 H 457.319 -1.81841 -0.246203 0
M  V30 4915 H 455.701 -2.98867 -2.59797 0
M  V30 4916 H 456.875 -4.60187 -0.237558 0
M  V30 4917 H 455.19 -4.14731 -0.372497 0
M  V30 4918 H 457.787 -4.32186 -3.14833 0
M  V30 4919 H 458.13 -2.6119 -3.24169 0
M  V30 4920 H 458.663 -3.53838 -1.81779 0
M  V30 4921 H 455.402 -6.4565 -1.13209 0
M  V30 4922 H 454.922 -5.44552 -2.51443 0
M  V30 4923 H 456.601 -6.02139 -2.36723 0
M  V30 4924 N 456.733 0.527833 -1.48498 0
M  V30 4925 C 457.696 1.61439 -1.62696 0
M  V30 4926 C 458.696 1.52824 -0.500136 0
M  V30 4927 O 459.886 1.56456 -0.765976 0
M  V30 4928 C 457.018 3.01063 -1.59918 0
M  V30 4929 H 458.211 1.50189 -2.59583 0
M  V30 4930 H 455.764 0.750055 -1.37127 0
M  V30 4931 H 456.499 3.17818 -0.645163 0
M  V30 4932 H 456.284 3.08725 -2.41726 0
M  V30 4933 H 457.774 3.80057 -1.73051 0
M  V30 4934 N 458.211 1.37122 0.776871 0
M  V30 4935 C 459.141 1.35164 1.90402 0
M  V30 4936 C 460.122 0.221069 1.68657 0
M  V30 4937 O 461.307 0.420642 1.8959 0
M  V30 4938 C 458.437 1.15274 3.27611 0
M  V30 4939 C 457.391 2.25289 3.63908 0
M  V30 4940 C 456.717 1.90527 4.99603 0
M  V30 4941 C 458.017 3.67446 3.71188 0
M  V30 4942 H 459.711 2.29482 1.92297 0
M  V30 4943 H 457.257 1.10465 0.923773 0
M  V30 4944 H 459.21 1.12536 4.06096 0
M  V30 4945 H 457.934 0.174102 3.26136 0
M  V30 4946 H 456.593 2.27174 2.87728 0
M  V30 4947 H 456.241 0.91206 4.94662 0
M  V30 4948 H 455.941 2.64193 5.24858 0
M  V30 4949 H 457.465 1.89367 5.80493 0
M  V30 4950 H 458.879 3.67719 4.39836 0
M  V30 4951 H 457.276 4.40123 4.07936 0
M  V30 4952 H 458.346 4.01443 2.71977 0
M  V30 4953 N 459.689 -1.00246 1.21608 0
M  V30 4954 C 460.637 -2.11193 0.97469 0
M  V30 4955 C 461.631 -1.69216 -0.0789303 0
M  V30 4956 O 462.837 -1.79853 0.0726806 0
M  V30 4957 H 459.212 -0.690455 0.297953 0
M  V30 4958 H 461.183 -2.2873 1.91638 0
M  V30 4959 C 459.932 -3.43182 0.558717 0
M  V30 4960 H 459.255 -3.75918 1.3611 0
M  V30 4961 H 460.695 -4.21823 0.429154 0
M  V30 4962 C 459.154 -3.28882 -0.730648 0
M  V30 4963 O 459.684 -3.59835 -1.78554 0
M  V30 4964 N 457.89 -2.8209 -0.698131 0
M  V30 4965 H 457.437 -2.57099 0.16061 0
M  V30 4966 H 457.395 -2.72903 -1.56113 0
M  V30 4967 N 461.167 -1.02423 -1.1978 0
M  V30 4968 C 462.444 -0.632802 -1.85081 0
M  V30 4969 C 462.824 0.888745 -1.9148 0
M  V30 4970 O 462.172 1.78357 -1.42832 0
M  V30 4971 C 462.382 -1.28947 -3.24305 0
M  V30 4972 C 463.73 -1.40976 -4.00513 0
M  V30 4973 O 464.754 -1.24628 -3.33686 0
M  V30 4974 O 463.613 -1.67467 -5.20209 0
M  V30 4975 H 460.707 -0.219348 -0.79738 0
M  V30 4976 H 463.253 -1.12209 -1.27307 0
M  V30 4977 H 462.025 -2.3288 -3.14456 0
M  V30 4978 H 461.648 -0.787748 -3.89718 0
M  V30 4979 N 462.645 1.35699 -0.801477 0
M  V30 4980 C 463.595 2.2728 -0.181073 0
M  V30 4981 C 464.579 1.47533 0.642098 0
M  V30 4982 O 465.771 1.69785 0.500193 0
M  V30 4983 C 462.9 3.36626 0.673612 0
M  V30 4984 C 461.986 4.23802 -0.159008 0
M  V30 4985 N 462.377 4.90879 -1.2195 0
M  V30 4986 C 460.675 4.45959 0.0602005 0
M  V30 4987 C 461.376 5.5546 -1.72738 0
M  V30 4988 N 460.352 5.33663 -1.03465 0
M  V30 4989 H 464.154 2.76632 -0.992582 0
M  V30 4990 H 461.668 1.49166 -0.642127 0
M  V30 4991 H 463.665 4.01179 1.13408 0
M  V30 4992 H 462.325 2.88828 1.48353 0
M  V30 4993 H 463.336 4.92497 -1.60209 0
M  V30 4994 H 460.013 4.08969 0.839664 0
M  V30 4995 H 461.403 6.18991 -2.61342 0
M  V30 4996 N 464.123 0.554532 1.47522 0
M  V30 4997 C 465.053 -0.182974 2.32782 0
M  V30 4998 C 466.034 -0.911377 1.43624 0
M  V30 4999 O 467.219 -0.892366 1.72483 0
M  V30 5000 C 464.349 -1.21513 3.25349 0
M  V30 5001 C 463.303 -0.603355 4.23726 0
M  V30 5002 C 462.629 -1.73995 5.05598 0
M  V30 5003 C 463.929 0.441121 5.20434 0
M  V30 5004 H 465.623 0.52882 2.94693 0
M  V30 5005 H 463.169 0.255759 1.41711 0
M  V30 5006 H 465.122 -1.73922 3.83835 0
M  V30 5007 H 463.846 -1.95683 2.61487 0
M  V30 5008 H 462.505 -0.10059 3.66462 0
M  V30 5009 H 462.153 -2.47063 4.38143 0
M  V30 5010 H 461.853 -1.3364 5.72201 0
M  V30 5011 H 463.377 -2.26735 5.66942 0
M  V30 5012 H 464.791 0.00319931 5.733 0
M  V30 5013 H 463.188 0.763402 5.95224 0
M  V30 5014 H 464.258 1.33799 4.66075 0
M  V30 5015 N 465.601 -1.54893 0.290851 0
M  V30 5016 C 466.548 -2.23138 -0.58974 0
M  V30 5017 C 467.518 -1.21036 -1.13752 0
M  V30 5018 O 468.703 -1.49626 -1.18392 0
M  V30 5019 C 465.843 -2.96811 -1.76061 0
M  V30 5020 C 464.956 -4.13665 -1.24519 0
M  V30 5021 C 464.091 -4.74944 -2.3791 0
M  V30 5022 C 463.13 -5.83963 -1.83451 0
M  V30 5023 N 462.267 -6.39239 -2.90376 0
M  V30 5024 H 467.107 -2.98 -0.00114915 0
M  V30 5025 H 464.644 -1.47096 0.0112006 0
M  V30 5026 H 466.602 -3.37751 -2.44909 0
M  V30 5027 H 465.232 -2.24344 -2.32098 0
M  V30 5028 H 464.284 -3.77737 -0.449288 0
M  V30 5029 H 465.596 -4.92238 -0.806424 0
M  V30 5030 H 464.75 -5.18684 -3.14724 0
M  V30 5031 H 463.489 -3.95682 -2.85109 0
M  V30 5032 H 462.494 -5.39657 -1.05122 0
M  V30 5033 H 463.719 -6.65103 -1.37169 0
M  V30 5034 H 461.665 -5.62864 -3.36927 0
M  V30 5035 H 461.582 -7.13129 -2.50965 0
M  V30 5036 H 462.85 -6.87637 -3.67118 0
M  V30 5037 N 467.08 -0.0183926 -1.57589 0
M  V30 5038 C 468.012 0.995557 -2.06449 0
M  V30 5039 C 469.025 1.29556 -0.985849 0
M  V30 5040 O 470.214 1.2621 -1.26227 0
M  V30 5041 C 467.314 2.32572 -2.46502 0
M  V30 5042 C 466.487 2.21245 -3.77319 0
M  V30 5043 C 465.546 3.37104 -4.04039 0
M  V30 5044 O 464.572 3.14468 -4.74445 0
M  V30 5045 N 465.774 4.60553 -3.53372 0
M  V30 5046 H 468.539 0.578746 -2.94059 0
M  V30 5047 H 466.1 0.168603 -1.6102 0
M  V30 5048 H 468.092 3.08887 -2.61478 0
M  V30 5049 H 466.662 2.65931 -1.64315 0
M  V30 5050 H 465.882 1.29723 -3.72244 0
M  V30 5051 H 467.17 2.10868 -4.63047 0
M  V30 5052 H 466.568 4.81839 -2.96391 0
M  V30 5053 H 465.125 5.34072 -3.73644 0
M  V30 5054 N 468.558 1.5553 0.254621 0
M  V30 5055 C 469.974 1.4778 0.602753 0
M  V30 5056 C 470.174 0.707047 1.88688 0
M  V30 5057 O 469.23 0.233288 2.5142 0
M  V30 5058 C 470.543 2.92133 0.712648 0
M  V30 5059 C 472.091 3.02458 0.805488 0
M  V30 5060 C 472.566 4.48102 0.947009 0
M  V30 5061 N 474.057 4.52008 1.01207 0
M  V30 5062 C 474.792 5.61939 1.1407 0
M  V30 5063 N 474.288 6.81697 1.23536 0
M  V30 5064 N 476.081 5.49719 1.17325 0
M  V30 5065 H 468.232 2.04085 -0.588463 0
M  V30 5066 H 470.495 0.926229 -0.202001 0
M  V30 5067 H 470.201 3.51332 -0.160766 0
M  V30 5068 H 470.075 3.42187 1.58707 0
M  V30 5069 H 472.462 2.43344 1.66936 0
M  V30 5070 H 472.543 2.55627 -0.0939266 0
M  V30 5071 H 472.187 5.07824 0.087725 0
M  V30 5072 H 472.117 4.92607 1.86135 0
M  V30 5073 H 474.608 3.65749 0.950577 0
M  V30 5074 H 474.921 7.61228 1.33236 0
M  V30 5075 H 473.266 6.84473 1.20508 0
M  V30 5076 H 476.457 4.55095 1.09573 0
M  V30 5077 H 476.63 6.35432 1.27005 0
M  V30 5078 N 470.036 -0.519951 1.48776 0
M  V30 5079 C 471.452 -0.849418 1.35119 0
M  V30 5080 C 471.652 -1.98077 0.36982 0
M  V30 5081 O 470.708 -2.51664 -0.205359 0
M  V30 5082 C 472.021 -1.20748 2.75391 0
M  V30 5083 C 473.569 -1.31679 2.83954 0
M  V30 5084 C 474.044 -1.70824 4.24951 0
M  V30 5085 N 475.535 -1.77908 4.27672 0
M  V30 5086 C 476.27 -2.09603 5.33717 0
M  V30 5087 N 475.766 -2.39652 6.5003 0
M  V30 5088 N 477.559 -2.10694 5.21119 0
M  V30 5089 H 469.71 0.226377 2.1119 0
M  V30 5090 H 471.973 0.0386519 0.947212 0
M  V30 5091 H 471.679 -0.449703 3.48813 0
M  V30 5092 H 471.553 -2.15534 3.09556 0
M  V30 5093 H 473.94 -2.06532 2.10781 0
M  V30 5094 H 474.021 -0.3499 2.53396 0
M  V30 5095 H 473.665 -0.965282 4.98643 0
M  V30 5096 H 473.595 -2.6858 4.52959 0
M  V30 5097 H 476.086 -1.56923 3.43779 0
M  V30 5098 H 476.399 -2.6297 7.26682 0
M  V30 5099 H 474.744 -2.37149 6.53288 0
M  V30 5100 H 477.935 -1.86682 4.29264 0
M  V30 5101 H 478.108 -2.35062 6.03863 0
M  V30 5102 N 471.514 -1.37532 -0.769588 0
M  V30 5103 C 472.424 -1.35668 -1.91393 0
M  V30 5104 C 473.44 -0.255954 -1.72107 0
M  V30 5105 O 474.616 -0.491704 -1.95305 0
M  V30 5106 C 471.681 -1.16481 -3.26547 0
M  V30 5107 C 470.742 -2.36212 -3.58472 0
M  V30 5108 C 469.975 -2.17932 -4.87177 0
M  V30 5109 O 470.198 -1.1647 -5.58382 0
M  V30 5110 O 469.132 -3.06167 -5.18214 0
M  V30 5111 H 472.958 -2.32055 -1.95918 0
M  V30 5112 H 470.543 -1.18284 -0.912641 0
M  V30 5113 H 472.425 -1.07778 -4.07384 0
M  V30 5114 H 471.1 -0.231687 -3.2287 0
M  V30 5115 H 470.007 -2.50488 -2.77861 0
M  V30 5116 H 471.34 -3.281 -3.66894 0
M  V30 5117 N 472.992 0.995999 -1.22138 0
M  V30 5118 C 474.238 1.73767 -1.04561 0
M  V30 5119 C 474.571 1.89633 0.418698 0
M  V30 5120 O 473.846 1.43723 1.3105 0
M  V30 5121 C 474.129 3.14505 -1.75382 0
M  V30 5122 C 473.982 3.06306 -3.29388 0
M  V30 5123 C 475.301 4.13615 -1.50369 0
M  V30 5124 H 472.42 0.630728 -0.38125 0
M  V30 5125 H 475.062 1.16057 -1.50435 0
M  V30 5126 H 473.212 3.63775 -1.36383 0
M  V30 5127 H 474.884 2.64681 -3.77812 0
M  V30 5128 H 473.127 2.43186 -3.59226 0
M  V30 5129 H 473.798 4.05884 -3.74116 0
M  V30 5130 H 476.274 3.73089 -1.84239 0
M  V30 5131 H 475.15 5.10212 -2.02421 0
M  V30 5132 H 475.411 4.39949 -0.435611 0
M  V30 5133 N 474.47 1.03057 1.19235 0
M  V30 5134 C 475.433 0.617418 2.20727 0
M  V30 5135 C 476.433 -0.319856 1.57587 0
M  V30 5136 O 477.623 -0.106633 1.73873 0
M  V30 5137 C 474.755 -0.096296 3.40764 0
M  V30 5138 H 475.948 1.51544 2.58794 0
M  V30 5139 H 473.501 0.821949 1.32942 0
M  V30 5140 H 474.236 -1.00859 3.08217 0
M  V30 5141 H 474.021 0.577217 3.87828 0
M  V30 5142 H 475.511 -0.372219 4.15938 0
M  V30 5143 N 475.948 -1.35272 0.808662 0
M  V30 5144 C 476.895 -2.29764 0.218482 0
M  V30 5145 C 477.865 -1.52911 -0.648652 0
M  V30 5146 O 479.05 -1.81341 -0.593297 0
M  V30 5147 C 476.19 -3.39388 -0.625282 0
M  V30 5148 C 475.303 -4.31202 0.262516 0
M  V30 5149 C 474.438 -5.27919 -0.589451 0
M  V30 5150 C 473.477 -6.11371 0.298617 0
M  V30 5151 N 472.614 -7.0022 -0.513443 0
M  V30 5152 H 477.454 -2.79645 1.02968 0
M  V30 5153 H 474.991 -1.37629 0.519303 0
M  V30 5154 H 476.949 -4.01615 -1.12966 0
M  V30 5155 H 475.579 -2.90777 -1.40173 0
M  V30 5156 H 474.631 -3.69962 0.885013 0
M  V30 5157 H 475.943 -4.89748 0.945971 0
M  V30 5158 H 475.097 -5.95529 -1.15888 0
M  V30 5159 H 473.836 -4.69875 -1.30647 0
M  V30 5160 H 472.841 -5.42707 0.880301 0
M  V30 5161 H 474.066 -6.71494 1.01352 0
M  V30 5162 H 472.012 -6.44662 -1.21439 0
M  V30 5163 H 471.929 -7.55917 0.111922 0
M  V30 5164 H 473.197 -7.72175 -1.06608 0
M  V30 5165 N 477.426 -0.562348 -1.47226 0
M  V30 5166 C 478.654 -0.0452275 -2.06851 0
M  V30 5167 C 479.069 1.25078 -1.41424 0
M  V30 5168 O 478.426 1.75156 -0.512513 0
M  V30 5169 C 478.477 0.148674 -3.61194 0
M  V30 5170 O 478.198 -1.09602 -4.24169 0
M  V30 5171 C 479.699 0.702488 -4.37699 0
M  V30 5172 H 476.919 -0.0481775 -0.669268 0
M  V30 5173 H 479.463 -0.777223 -1.89155 0
M  V30 5174 H 477.618 0.830817 -3.78386 0
M  V30 5175 H 478.032 -0.896982 -5.16773 0
M  V30 5176 H 479.506 0.78743 -5.46355 0
M  V30 5177 H 479.983 1.71493 -4.04335 0
M  V30 5178 H 480.589 0.0558772 -4.25263 0
M  V30 5179 N 478.904 1.54736 -0.299062 0
M  V30 5180 C 480.15 2.00397 0.311244 0
M  V30 5181 C 480.483 1.18716 1.53688 0
M  V30 5182 O 479.758 0.263154 1.92712 0
M  V30 5183 C 480.041 3.53817 0.669761 0
M  V30 5184 C 479.894 4.46239 -0.564882 0
M  V30 5185 C 481.213 4.13856 1.49702 0
M  V30 5186 H 478.332 0.728493 0.111653 0
M  V30 5187 H 480.974 1.85506 -0.410774 0
M  V30 5188 H 479.124 3.66637 1.28491 0
M  V30 5189 H 480.796 4.45328 -1.20337 0
M  V30 5190 H 479.039 4.16916 -1.19849 0
M  V30 5191 H 479.71 5.5134 -0.269918 0
M  V30 5192 H 482.186 4.04461 0.977284 0
M  V30 5193 H 481.062 5.21365 1.71666 0
M  V30 5194 H 481.323 3.65608 2.48563 0
M  V30 5195 N 480.382 0.0267497 1.57577 0
M  V30 5196 C 481.629 -0.652404 1.91703 0
M  V30 5197 C 481.957 -1.72271 0.902936 0
M  V30 5198 O 481.212 -1.955 -0.0884843 0
M  V30 5199 C 481.511 -1.30914 3.3256 0
M  V30 5200 C 481.177 -0.369441 4.49384 0
M  V30 5201 C 479.839 -0.110791 4.81072 0
M  V30 5202 C 482.191 0.275971 5.20469 0
M  V30 5203 C 479.519 0.801116 5.81205 0
M  V30 5204 C 481.871 1.17592 6.21575 0
M  V30 5205 C 480.535 1.44348 6.51705 0
M  V30 5206 H 479.805 -0.238732 0.70149 0
M  V30 5207 H 482.452 0.0880091 1.91298 0
M  V30 5208 H 480.757 -2.12425 3.29216 0
M  V30 5209 H 482.454 -1.84115 3.56234 0
M  V30 5210 H 479.044 -0.581211 4.24641 0
M  V30 5211 H 483.228 0.0892 4.9622 0
M  V30 5212 H 478.484 1.01614 6.02897 0
M  V30 5213 H 482.658 1.68223 6.75777 0
M  V30 5214 H 480.285 2.15176 7.29111 0
M  V30 5215 N 481.861 -1.55662 -0.24637 0
M  V30 5216 C 483.101 -1.79283 -0.981685 0
M  V30 5217 C 483.465 -0.596356 -1.82504 0
M  V30 5218 O 484.666 -0.711342 -2.59217 0
M  V30 5219 C 482.937 -3.07648 -1.819 0
M  V30 5220 S 484.496 -3.52491 -2.61334 0
M  V30 5221 H 481.314 -0.629676 -0.330196 0
M  V30 5222 H 483.916 -1.93901 -0.249498 0
M  V30 5223 H 482.62 -3.92794 -1.18915 0
M  V30 5224 H 482.151 -2.95768 -2.59393 0
M  V30 5225 H 484.166 -3.13866 -3.84321 0
M  V30 5226 N 483.339 0.512053 -1.4905 0
M  V30 5227 C 484.269 1.62365 -1.67809 0
M  V30 5228 C 485.25 1.61737 -0.526809 0
M  V30 5229 O 486.435 1.78651 -0.761404 0
M  V30 5230 C 483.565 3.00895 -1.73435 0
M  V30 5231 C 482.519 3.16387 -2.88242 0
M  V30 5232 C 481.845 4.56157 -2.78971 0
M  V30 5233 C 483.145 2.97457 -4.29321 0
M  V30 5234 H 484.839 1.46921 -2.60873 0
M  V30 5235 H 482.385 0.705379 -1.2554 0
M  V30 5236 H 484.338 3.78549 -1.85145 0
M  V30 5237 H 483.062 3.17403 -0.769619 0
M  V30 5238 H 481.721 2.41155 -2.76116 0
M  V30 5239 H 481.369 4.69525 -1.8043 0
M  V30 5240 H 481.069 4.67465 -3.5602 0
M  V30 5241 H 482.593 5.35886 -2.92675 0
M  V30 5242 H 484.007 3.64888 -4.42187 0
M  V30 5243 H 482.404 3.20245 -5.07507 0
M  V30 5244 H 483.474 1.93692 -4.44535 0
M  V30 5245 N 484.817 1.37938 0.762283 0
M  V30 5246 C 486.063 1.33866 1.52341 0
M  V30 5247 C 486.396 -0.0738961 1.94059 0
M  V30 5248 O 485.671 -1.03326 1.64785 0
M  V30 5249 C 485.954 2.28644 2.78197 0
M  V30 5250 C 485.807 3.78722 2.42672 0
M  V30 5251 C 487.126 2.21702 3.80179 0
M  V30 5252 H 484.245 0.487593 0.55265 0
M  V30 5253 H 486.887 1.68717 0.873767 0
M  V30 5254 H 485.037 1.99055 3.33631 0
M  V30 5255 H 486.709 4.18948 1.93081 0
M  V30 5256 H 484.952 3.96827 1.75244 0
M  V30 5257 H 485.623 4.40486 3.3268 0
M  V30 5258 H 488.099 2.47805 3.34263 0
M  V30 5259 H 486.975 2.90143 4.65949 0
M  V30 5260 H 487.236 1.21301 4.25133 0
M  V30 5261 N 486.295 -0.989507 1.22664 0
M  V30 5262 C 487.225 -2.09847 1.02404 0
M  V30 5263 C 488.206 -1.70007 -0.0561303 0
M  V30 5264 O 489.391 -1.93906 0.106748 0
M  V30 5265 C 486.521 -3.41996 0.604663 0
M  V30 5266 C 485.475 -3.95699 1.63115 0
M  V30 5267 C 484.801 -5.23936 1.0675 0
M  V30 5268 C 486.101 -4.25999 3.02196 0
M  V30 5269 H 487.795 -2.27054 1.95158 0
M  V30 5270 H 485.341 -1.09111 0.939727 0
M  V30 5271 H 487.294 -4.1899 0.45002 0
M  V30 5272 H 486.018 -3.24626 -0.35855 0
M  V30 5273 H 484.677 -3.2084 1.77362 0
M  V30 5274 H 484.325 -5.02909 0.0955422 0
M  V30 5275 H 484.025 -5.60833 1.75328 0
M  V30 5276 H 485.549 -6.0356 0.924516 0
M  V30 5277 H 486.963 -4.93777 2.91303 0
M  V30 5278 H 485.36 -4.74076 3.67929 0
M  V30 5279 H 486.43 -3.33636 3.51873 0
M  V30 5280 N 487.773 -1.03688 -1.18687 0
M  V30 5281 C 489.019 -0.739123 -1.88851 0
M  V30 5282 C 489.352 0.731042 -1.79915 0
M  V30 5283 O 488.627 1.53313 -1.19688 0
M  V30 5284 C 488.91 -1.20106 -3.3948 0
M  V30 5285 C 488.763 -2.73304 -3.57246 0
M  V30 5286 C 490.082 -0.788134 -4.32986 0
M  V30 5287 H 487.201 -0.269978 -0.68577 0
M  V30 5288 H 489.843 -1.28822 -1.3966 0
M  V30 5289 H 487.993 -0.733915 -3.81505 0
M  V30 5290 H 489.665 -3.28027 -3.24339 0
M  V30 5291 H 487.908 -3.13313 -3.00029 0
M  V30 5292 H 488.579 -3.00684 -4.62918 0
M  V30 5293 H 491.055 -1.19005 -3.98719 0
M  V30 5294 H 489.931 -1.13915 -5.36949 0
M  V30 5295 H 490.192 0.308988 -4.41019 0
M  V30 5296 N 489.251 1.34841 -0.815825 0
M  V30 5297 C 490.498 1.98499 -0.400535 0
M  V30 5298 C 490.826 1.64699 1.03463 0
M  V30 5299 O 490.081 0.907006 1.73412 0
M  V30 5300 C 490.38 3.53273 -0.541541 0
M  V30 5301 C 490.046 4.06966 -1.94138 0
M  V30 5302 C 488.708 4.21341 -2.32433 0
M  V30 5303 C 491.06 4.35933 -2.85677 0
M  V30 5304 C 488.388 4.62007 -3.61617 0
M  V30 5305 C 490.74 4.78042 -4.14317 0
M  V30 5306 C 489.404 4.90622 -4.52599 0
M  V30 5307 H 488.674 0.72636 -0.146566 0
M  V30 5308 H 491.321 1.60902 -1.0384 0
M  V30 5309 H 489.626 3.91387 0.179741 0
M  V30 5310 H 491.323 4.00497 -0.20085 0
M  V30 5311 H 487.913 3.96235 -1.63388 0
M  V30 5312 H 492.097 4.24372 -2.57337 0
M  V30 5313 H 487.353 4.69937 -3.91113 0
M  V30 5314 H 491.527 4.99415 -4.85342 0
M  V30 5315 H 489.154 5.2189 -5.52752 0
M  V30 5316 N 490.729 0.570148 1.46925 0
M  V30 5317 C 491.692 -0.159933 2.28641 0
M  V30 5318 C 492.692 -0.830638 1.37685 0
M  V30 5319 O 493.882 -0.684516 1.60187 0
M  V30 5320 C 491.014 -1.2354 3.17727 0
M  V30 5321 H 492.207 0.558035 2.94662 0
M  V30 5322 H 489.76 0.327603 1.52828 0
M  V30 5323 H 490.495 -1.98535 2.56426 0
M  V30 5324 H 490.28 -0.759125 3.84681 0
M  V30 5325 H 491.77 -1.74782 3.79264 0
M  V30 5326 N 492.207 -1.54576 0.307264 0
M  V30 5327 C 493.137 -2.26708 -0.55907 0
M  V30 5328 C 494.118 -1.26893 -1.1328 0
M  V30 5329 O 495.303 -1.55677 -1.16097 0
M  V30 5330 C 492.433 -3.01259 -1.72801 0
M  V30 5331 C 491.387 -4.08275 -1.28435 0
M  V30 5332 C 490.713 -4.70575 -2.53895 0
M  V30 5333 C 492.013 -5.2068 -0.411038 0
M  V30 5334 H 493.707 -2.9937 0.042576 0
M  V30 5335 H 491.253 -1.43983 0.0219173 0
M  V30 5336 H 493.206 -3.50444 -2.34023 0
M  V30 5337 H 491.93 -2.26187 -2.356 0
M  V30 5338 H 490.589 -3.59949 -0.695161 0
M  V30 5339 H 490.237 -3.92136 -3.15021 0
M  V30 5340 H 489.937 -5.42854 -2.24908 0
M  V30 5341 H 491.461 -5.22527 -3.15908 0
M  V30 5342 H 492.875 -5.65721 -0.929097 0
M  V30 5343 H 491.272 -5.99716 -0.214664 0
M  V30 5344 H 492.342 -4.81629 0.562287 0
M  V30 5345 N 493.685 -0.035106 -1.57561 0
M  V30 5346 C 494.925 0.646316 -1.93913 0
M  V30 5347 C 495.289 1.68947 -0.912185 0
M  V30 5348 O 496.49 2.42381 -1.1621 0
M  V30 5349 C 494.761 1.24136 -3.35149 0
M  V30 5350 S 496.32 1.94302 -3.93436 0
M  V30 5351 H 493.138 0.212642 -0.678457 0
M  V30 5352 H 495.74 -0.100203 -1.95243 0
M  V30 5353 H 494.444 0.46979 -4.07702 0
M  V30 5354 H 493.975 2.02505 -3.37276 0
M  V30 5355 H 495.99 3.22205 -3.77357 0
M  V30 5356 N 495.163 1.55791 0.238111 0
M  V30 5357 C 496.409 1.79211 0.962035 0
M  V30 5358 C 496.764 0.605463 1.82625 0
M  V30 5359 O 496.057 -0.40104 1.87356 0
M  V30 5360 C 496.251 3.05869 1.84875 0
M  V30 5361 C 496.08 4.36739 1.07186 0
M  V30 5362 C 494.85 4.99346 0.773424 0
M  V30 5363 C 497.048 5.1237 0.445168 0
M  V30 5364 N 495.03 6.13894 -0.0266037 0
M  V30 5365 C 496.401 6.19613 -0.219023 0
M  V30 5366 C 498.456 4.96622 0.356522 0
M  V30 5367 C 497.159 7.1282 -0.963358 0
M  V30 5368 C 499.185 5.90214 -0.374304 0
M  V30 5369 C 498.547 6.96872 -1.0271 0
M  V30 5370 H 494.646 0.707627 0.332849 0
M  V30 5371 H 497.23 1.93284 0.234368 0
M  V30 5372 H 495.401 2.93108 2.54837 0
M  V30 5373 H 497.133 3.17547 2.5089 0
M  V30 5374 H 493.888 4.60948 1.08738 0
M  V30 5375 H 494.312 6.75727 -0.414968 0
M  V30 5376 H 498.954 4.14232 0.846878 0
M  V30 5377 H 496.672 7.94704 -1.46529 0
M  V30 5378 H 500.258 5.80106 -0.443678 0
M  V30 5379 H 499.138 7.68045 -1.58358 0
M  V30 5380 N 496.642 -0.504142 1.49319 0
M  V30 5381 C 497.572 -1.61473 1.68667 0
M  V30 5382 C 498.553 -1.61455 0.535378 0
M  V30 5383 O 499.738 -1.78245 0.770868 0
M  V30 5384 C 496.868 -2.99971 1.75028 0
M  V30 5385 C 495.822 -3.14854 2.89916 0
M  V30 5386 C 495.148 -4.54671 2.81387 0
M  V30 5387 C 496.448 -2.95176 4.30893 0
M  V30 5388 H 498.142 -1.45535 2.61648 0
M  V30 5389 H 495.688 -0.698711 1.25913 0
M  V30 5390 H 497.641 -3.77562 1.8715 0
M  V30 5391 H 496.365 -3.1699 0.786441 0
M  V30 5392 H 495.024 -2.39687 2.77391 0
M  V30 5393 H 494.672 -4.68562 1.82917 0
M  V30 5394 H 494.372 -4.6557 3.58494 0
M  V30 5395 H 495.896 -5.34327 2.95512 0
M  V30 5396 H 497.31 -3.62538 4.44116 0
M  V30 5397 H 495.707 -3.17549 5.09198 0
M  V30 5398 H 496.777 -1.91332 4.45556 0
M  V30 5399 N 498.12 -1.38341 -0.754957 0
M  V30 5400 C 499.531 -1.30803 -1.3322 0
M  V30 5401 C 499.882 0.0368 -1.96165 0
M  V30 5402 O 499.007 0.938844 -1.94974 0
M  V30 5403 C 499.602 -2.3688 -2.42225 0
M  V30 5404 C 498.161 -2.32925 -2.95674 0
M  V30 5405 C 497.308 -2.19819 -1.69042 0
M  V30 5406 H 500.259 -1.48719 -0.553937 0
M  V30 5407 H 500.28 -2.02517 -3.22129 0
M  V30 5408 H 499.792 -3.34747 -1.96383 0
M  V30 5409 H 497.893 -1.38635 -3.45848 0
M  V30 5410 H 498.006 -3.27008 -3.50146 0
M  V30 5411 H 496.37 -1.66648 -1.92615 0
M  V30 5412 H 497.153 -3.19625 -1.25279 0
M  V30 5413 N 499.598 0.982988 -1.23187 0
M  V30 5414 C 500.528 2.09301 -1.03515 0
M  V30 5415 C 501.509 1.70035 0.0471136 0
M  V30 5416 O 502.694 1.93847 -0.117029 0
M  V30 5417 C 499.824 3.4167 -0.622791 0
M  V30 5418 C 498.778 3.94828 -1.65211 0
M  V30 5419 C 498.104 5.23362 -1.09527 0
M  V30 5420 C 499.404 4.2439 -3.04451 0
M  V30 5421 H 501.098 2.26016 -1.96359 0
M  V30 5422 H 498.644 1.08611 -0.945501 0
M  V30 5423 H 500.597 4.18746 -0.472233 0
M  V30 5424 H 499.321 3.24811 0.341329 0
M  V30 5425 H 497.98 3.19895 -1.79061 0
M  V30 5426 H 497.628 5.02852 -0.122211 0
M  V30 5427 H 497.328 5.59895 -1.783 0
M  V30 5428 H 498.852 6.03062 -0.956511 0
M  V30 5429 H 500.266 4.92225 -2.93917 0
M  V30 5430 H 498.663 4.72118 -3.70438 0
M  V30 5431 H 499.733 3.31765 -3.53638 0
M  V30 5432 N 501.076 1.04316 1.18135 0
M  V30 5433 C 502.026 0.606731 2.19779 0
M  V30 5434 C 503.01 -0.352144 1.56999 0
M  V30 5435 O 504.202 -0.170795 1.76174 0
M  V30 5436 C 501.331 -0.0262443 3.4329 0
M  V30 5437 C 500.417 0.955928 4.13186 0
M  V30 5438 N 500.808 2.12395 4.59045 0
M  V30 5439 C 499.106 0.782473 4.39082 0
M  V30 5440 C 499.807 2.74458 5.12882 0
M  V30 5441 N 498.783 2.02316 5.04548 0
M  V30 5442 H 502.585 1.49679 2.5293 0
M  V30 5443 H 500.099 0.912088 1.34368 0
M  V30 5444 H 502.096 -0.356617 4.15372 0
M  V30 5445 H 500.756 -0.911811 3.11635 0
M  V30 5446 H 501.767 2.50272 4.53414 0
M  V30 5447 H 498.444 -0.0527906 4.17467 0
M  V30 5448 H 499.834 3.73459 5.5855 0
M  V30 5449 N 502.554 -1.34406 0.822964 0
M  V30 5450 C 503.484 -2.32052 0.259608 0
M  V30 5451 C 504.465 -1.58243 -0.623961 0
M  V30 5452 O 505.65 -1.86224 -0.55083 0
M  V30 5453 C 502.78 -3.42434 -0.579314 0
M  V30 5454 C 501.734 -4.27499 0.20712 0
M  V30 5455 C 501.06 -5.29349 -0.754547 0
M  V30 5456 C 502.36 -5.02758 1.41533 0
M  V30 5457 H 504.054 -2.79418 1.07545 0
M  V30 5458 H 501.6 -1.34338 0.518593 0
M  V30 5459 H 503.553 -4.0976 -0.983612 0
M  V30 5460 H 502.277 -2.93717 -1.4282 0
M  V30 5461 H 500.936 -3.61776 0.592787 0
M  V30 5462 H 500.584 -4.76895 -1.59939 0
M  V30 5463 H 500.284 -5.8714 -0.232561 0
M  V30 5464 H 501.808 -5.99544 -1.1567 0
M  V30 5465 H 503.222 -5.62938 1.08504 0
M  V30 5466 H 501.619 -5.70123 1.87296 0
M  V30 5467 H 502.689 -4.32451 2.1935 0
M  V30 5468 N 504.032 -0.577932 -1.46621 0
M  V30 5469 C 505.257 -0.0652536 -2.07297 0
M  V30 5470 C 505.682 1.22828 -1.4246 0
M  V30 5471 O 505.04 1.74075 -0.506718 0
M  V30 5472 C 505.088 0.0920589 -3.60482 0
M  V30 5473 O 504.192 1.14972 -3.96049 0
M  V30 5474 H 503.533 -0.06065 -0.661224 0
M  V30 5475 H 506.063 -0.799515 -1.88332 0
M  V30 5476 H 506.073 0.299741 -4.06897 0
M  V30 5477 H 504.748 -0.852612 -4.07067 0
M  V30 5478 H 503.325 0.920879 -3.61351 0
M  V30 5479 N 505.51 1.54411 -0.315457 0
M  V30 5480 C 506.926 1.59556 0.037464 0
M  V30 5481 C 507.126 1.33217 1.5118 0
M  V30 5482 O 506.182 1.11264 2.26664 0
M  V30 5483 C 507.495 2.98372 -0.373477 0
M  V30 5484 C 509.043 3.11324 -0.323452 0
M  V30 5485 C 509.518 4.52472 -0.709433 0
M  V30 5486 N 511.009 4.58437 -0.662524 0
M  V30 5487 C 511.744 5.65751 -0.933474 0
M  V30 5488 N 511.24 6.81039 -1.27114 0
M  V30 5489 N 513.033 5.55489 -0.859573 0
M  V30 5490 H 505.184 1.6979 -1.27614 0
M  V30 5491 H 507.447 0.793732 -0.518356 0
M  V30 5492 H 507.153 3.22618 -1.40037 0
M  V30 5493 H 507.027 3.76264 0.265615 0
M  V30 5494 H 509.414 2.86818 0.694223 0
M  V30 5495 H 509.495 2.35555 -0.997367 0
M  V30 5496 H 509.139 4.7771 -1.72498 0
M  V30 5497 H 509.069 5.26598 -0.0132923 0
M  V30 5498 H 511.56 3.75636 -0.413065 0
M  V30 5499 H 511.873 7.58816 -1.46348 0
M  V30 5500 H 510.218 6.82555 -1.30932 0
M  V30 5501 H 513.409 4.64299 -0.595324 0
M  V30 5502 H 513.582 6.39036 -1.0741 0
M  V30 5503 N 506.988 0.0434614 1.5754 0
M  V30 5504 C 508.237 -0.631454 1.91561 0
M  V30 5505 C 508.55 -1.72457 0.92292 0
M  V30 5506 O 509.756 -2.45712 1.15489 0
M  V30 5507 C 508.212 -1.17447 3.40197 0
M  V30 5508 C 507.82 -0.113867 4.47855 0
M  V30 5509 C 509.564 -1.82507 3.83264 0
M  V30 5510 C 507.471 -0.669326 5.876 0
M  V30 5511 H 506.401 -0.239629 0.714908 0
M  V30 5512 H 509.052 0.111097 1.83163 0
M  V30 5513 H 507.434 -1.96909 3.43574 0
M  V30 5514 H 508.608 0.659348 4.56058 0
M  V30 5515 H 506.923 0.438821 4.14081 0
M  V30 5516 H 509.52 -2.25047 4.85034 0
M  V30 5517 H 509.863 -2.67365 3.19095 0
M  V30 5518 H 510.396 -1.09712 3.82372 0
M  V30 5519 H 507.135 0.141449 6.55347 0
M  V30 5520 H 506.655 -1.4107 5.82974 0
M  V30 5521 H 508.334 -1.15463 6.36614 0
M  V30 5522 N 508.466 -1.55915 -0.229846 0
M  V30 5523 C 509.396 -1.94754 -1.28815 0
M  V30 5524 C 510.377 -0.814657 -1.49323 0
M  V30 5525 O 511.562 -1.07631 -1.61645 0
M  V30 5526 C 508.692 -2.25705 -2.63959 0
M  V30 5527 C 507.646 -3.41406 -2.5812 0
M  V30 5528 C 506.972 -3.57941 -3.97218 0
M  V30 5529 C 508.272 -4.76616 -2.13623 0
M  V30 5530 H 509.966 -2.83404 -0.965547 0
M  V30 5531 H 507.512 -1.36353 -0.463028 0
M  V30 5532 H 509.465 -2.51467 -3.38146 0
M  V30 5533 H 508.189 -1.339 -2.9789 0
M  V30 5534 H 506.848 -3.1568 -1.86391 0
M  V30 5535 H 506.496 -2.63526 -4.28443 0
M  V30 5536 H 506.196 -4.35757 -3.94195 0
M  V30 5537 H 507.72 -3.86042 -4.73079 0
M  V30 5538 H 509.134 -5.01637 -2.77549 0
M  V30 5539 H 507.531 -5.57655 -2.21677 0
M  V30 5540 H 508.601 -4.7253 -1.08829 0
M  V30 5541 N 509.944 0.496216 -1.49584 0
M  V30 5542 C 510.891 1.59722 -1.66606 0
M  V30 5543 C 511.861 1.58158 -0.507477 0
M  V30 5544 O 513.046 1.76072 -0.735076 0
M  V30 5545 C 510.186 2.97844 -1.74308 0
M  V30 5546 C 509.299 3.09388 -3.01502 0
M  V30 5547 C 508.434 4.38271 -3.00153 0
M  V30 5548 C 507.473 4.43466 -4.21906 0
M  V30 5549 N 506.61 5.63784 -4.1844 0
M  V30 5550 H 511.45 1.44515 -2.60613 0
M  V30 5551 H 508.987 0.703048 -1.29212 0
M  V30 5552 H 510.945 3.77907 -1.76754 0
M  V30 5553 H 509.575 3.11743 -0.837619 0
M  V30 5554 H 508.627 2.22357 -3.08645 0
M  V30 5555 H 509.939 3.09085 -3.91494 0
M  V30 5556 H 509.093 5.2666 -3.01188 0
M  V30 5557 H 507.832 4.41146 -2.07947 0
M  V30 5558 H 506.837 3.53478 -4.21109 0
M  V30 5559 H 508.062 4.42303 -5.1531 0
M  V30 5560 H 506.008 5.67491 -3.29074 0
M  V30 5561 H 505.925 5.65118 -5.02173 0
M  V30 5562 H 507.193 6.54367 -4.23585 0
M  V30 5563 N 511.423 1.38739 0.74761 0
M  V30 5564 C 512.353 1.39173 1.87492 0
M  V30 5565 C 513.334 0.256794 1.6815 0
M  V30 5566 O 514.519 0.460762 1.88655 0
M  V30 5567 C 511.649 1.22197 3.25093 0
M  V30 5568 C 510.603 2.32957 3.59047 0
M  V30 5569 C 509.929 2.01082 4.95449 0
M  V30 5570 C 511.229 3.75237 3.6331 0
M  V30 5571 H 512.923 2.3351 1.87386 0
M  V30 5572 H 510.469 1.12399 0.900134 0
M  V30 5573 H 512.422 1.21124 4.03617 0
M  V30 5574 H 511.146 0.243241 3.25693 0
M  V30 5575 H 509.805 2.33226 2.82845 0
M  V30 5576 H 509.453 1.01678 4.92616 0
M  V30 5577 H 509.153 2.75267 5.19136 0
M  V30 5578 H 510.677 2.01638 5.76346 0
M  V30 5579 H 512.091 3.76966 4.31937 0
M  V30 5580 H 510.488 4.48677 3.98509 0
M  V30 5581 H 511.558 4.07122 2.634 0
M  V30 5582 N 512.901 -0.976442 1.23707 0
M  V30 5583 C 514.129 -1.75341 1.09833 0
M  V30 5584 C 514.544 -1.8553 -0.349885 0
M  V30 5585 O 513.901 -1.33732 -1.24185 0
M  V30 5586 C 513.952 -3.17833 1.72233 0
M  V30 5587 O 513.673 -3.08167 3.11391 0
M  V30 5588 C 515.174 -4.11906 1.63853 0
M  V30 5589 H 512.394 -0.550137 0.384175 0
M  V30 5590 H 514.938 -1.2265 1.63638 0
M  V30 5591 H 513.093 -3.67538 1.22452 0
M  V30 5592 H 513.507 -3.97897 3.41729 0
M  V30 5593 H 514.981 -5.09579 2.12211 0
M  V30 5594 H 515.458 -4.35109 0.598092 0
M  V30 5595 H 516.064 -3.68107 2.13019 0
M  V30 5596 N 514.379 -1.04941 -1.1758 0
M  V30 5597 C 515.309 -0.669172 -2.23706 0
M  V30 5598 C 516.29 0.331835 -1.66832 0
M  V30 5599 O 517.475 0.209988 -1.93061 0
M  V30 5600 C 514.605 -0.0404889 -3.47276 0
M  V30 5601 C 513.559 -0.965983 -4.16957 0
M  V30 5602 C 512.885 -0.201312 -5.34321 0
M  V30 5603 C 514.185 -2.28902 -4.69469 0
M  V30 5604 H 515.879 -1.55639 -2.55767 0
M  V30 5605 H 513.425 -0.749793 -1.22939 0
M  V30 5606 H 515.378 0.237298 -4.20731 0
M  V30 5607 H 514.102 0.881658 -3.14475 0
M  V30 5608 H 512.761 -1.22829 -3.45411 0
M  V30 5609 H 512.409 0.723519 -4.97769 0
M  V30 5610 H 512.109 -0.817968 -5.81879 0
M  V30 5611 H 513.633 0.0692499 -6.10561 0
M  V30 5612 H 515.047 -2.07132 -5.34574 0
M  V30 5613 H 513.444 -2.85942 -5.27596 0
M  V30 5614 H 514.514 -2.92937 -3.86414 0
M  V30 5615 N 515.857 1.33968 -0.830081 0
M  V30 5616 C 517.087 2.01987 -0.434142 0
M  V30 5617 C 517.495 1.62639 0.96671 0
M  V30 5618 O 516.838 0.831151 1.63822 0
M  V30 5619 C 516.9 3.5648 -0.465018 0
M  V30 5620 C 516.564 4.19176 -1.82045 0
M  V30 5621 C 517.561 4.39181 -2.78237 0
M  V30 5622 C 515.246 4.55792 -2.11089 0
M  V30 5623 C 517.24 4.94937 -4.01642 0
M  V30 5624 C 514.927 5.11258 -3.34752 0
M  V30 5625 C 515.925 5.30775 -4.29845 0
M  V30 5626 O 515.613 5.85064 -5.51322 0
M  V30 5627 H 515.345 0.653847 -0.171639 0
M  V30 5628 H 517.899 1.72066 -1.12171 0
M  V30 5629 H 516.129 3.8569 0.279284 0
M  V30 5630 H 517.818 4.05804 -0.0881334 0
M  V30 5631 H 518.584 4.11249 -2.57097 0
M  V30 5632 H 514.463 4.39901 -1.3787 0
M  V30 5633 H 518.007 5.10086 -4.75876 0
M  V30 5634 H 513.904 5.38619 -3.55753 0
M  V30 5635 H 514.672 6.03489 -5.5294 0
M  V30 5636 N 517.335 0.585699 1.46312 0
M  V30 5637 C 518.283 -0.158577 2.32059 0
M  V30 5638 C 519.277 -0.881427 1.44662 0
M  V30 5639 O 520.483 -0.799476 1.61271 0
M  V30 5640 H 516.858 -0.0700066 0.748734 0
M  V30 5641 H 518.829 0.583383 2.92642 0
M  V30 5642 C 517.578 -1.15701 3.27885 0
M  V30 5643 H 516.901 -0.610215 3.95116 0
M  V30 5644 H 518.341 -1.64812 3.90657 0
M  V30 5645 C 516.8 -2.21951 2.53455 0
M  V30 5646 O 517.33 -3.29352 2.29978 0
M  V30 5647 N 515.536 -1.9664 2.13965 0
M  V30 5648 H 515.083 -1.09309 2.33258 0
M  V30 5649 H 515.041 -2.6794 1.64485 0
M  V30 5650 N 518.813 -1.54241 0.323641 0
M  V30 5651 C 519.745 -2.21836 -0.576311 0
M  V30 5652 C 520.758 -1.21837 -1.07979 0
M  V30 5653 O 521.947 -1.48306 -0.99336 0
M  V30 5654 C 519.047 -2.86923 -1.80356 0
M  V30 5655 C 518.22 -4.1306 -1.43875 0
M  V30 5656 C 517.279 -4.6174 -2.52353 0
M  V30 5657 O 516.305 -5.26421 -2.16494 0
M  V30 5658 N 517.507 -4.35974 -3.83284 0
M  V30 5659 H 520.272 -2.997 0.00247987 0
M  V30 5660 H 517.833 -1.61233 0.146848 0
M  V30 5661 H 519.825 -3.16414 -2.52318 0
M  V30 5662 H 518.395 -2.12765 -2.29019 0
M  V30 5663 H 517.615 -3.90334 -0.550752 0
M  V30 5664 H 518.903 -4.95148 -1.17071 0
M  V30 5665 H 518.301 -3.84203 -4.15216 0
M  V30 5666 H 516.858 -4.70119 -4.51477 0
M  V30 5667 N 520.291 -0.0518155 -1.57515 0
M  V30 5668 C 521.239 0.940195 -2.12751 0
M  V30 5669 C 522.233 1.3218 -1.05948 0
M  V30 5670 O 523.439 1.30138 -1.24355 0
M  V30 5671 H 519.814 0.321066 -0.680015 0
M  V30 5672 H 521.785 0.449217 -2.94999 0
M  V30 5673 C 520.534 2.2055 -2.68799 0
M  V30 5674 H 519.857 1.92066 -3.50643 0
M  V30 5675 H 521.297 2.88119 -3.11068 0
M  V30 5676 C 519.756 2.95061 -1.62605 0
M  V30 5677 O 520.286 3.88025 -1.03921 0
M  V30 5678 N 518.492 2.57804 -1.34111 0
M  V30 5679 H 518.039 1.82281 -1.8202 0
M  V30 5680 H 517.997 3.07964 -0.632872 0
M  V30 5681 N 521.769 1.56035 0.221574 0
M  V30 5682 C 523.046 1.69837 0.970301 0
M  V30 5683 C 523.426 0.599065 2.02421 0
M  V30 5684 O 522.774 -0.393929 2.25079 0
M  V30 5685 C 522.984 3.11148 1.58076 0
M  V30 5686 C 524.332 3.70555 2.07302 0
M  V30 5687 O 525.356 3.14109 1.6797 0
M  V30 5688 O 524.215 4.69562 2.79596 0
M  V30 5689 H 521.309 0.691727 0.453257 0
M  V30 5690 H 523.855 1.68353 0.213358 0
M  V30 5691 H 522.627 3.82617 0.819759 0
M  V30 5692 H 522.25 3.16749 2.40324 0
M  V30 5693 N 523.247 -0.488276 1.49845 0
M  V30 5694 C 524.658 -1.06955 1.53028 0
M  V30 5695 C 525.009 -1.9351 0.323797 0
M  V30 5696 O 524.134 -2.08891 -0.565116 0
M  V30 5697 C 524.729 -1.94643 2.77307 0
M  V30 5698 C 523.288 -2.4791 2.83227 0
M  V30 5699 C 522.435 -1.25833 2.47106 0
M  V30 5700 H 525.386 -0.271626 1.56358 0
M  V30 5701 H 525.407 -2.79496 2.5819 0
M  V30 5702 H 524.919 -1.31621 3.65099 0
M  V30 5703 H 523.02 -3.14535 1.99745 0
M  V30 5704 H 523.133 -2.84193 3.85709 0
M  V30 5705 H 521.497 -1.58764 1.99163 0
M  V30 5706 H 522.28 -0.644993 3.37186 0
M  V30 5707 N 524.725 -1.39134 -0.740242 0
M  V30 5708 C 525.673 -1.3757 -1.87556 0
M  V30 5709 C 526.667 -0.259593 -1.67399 0
M  V30 5710 O 527.873 -0.429349 -1.74804 0
M  V30 5711 H 524.248 -0.42947 -0.6173 0
M  V30 5712 H 526.219 -2.33345 -1.85991 0
M  V30 5713 C 524.968 -1.23087 -3.25184 0
M  V30 5714 H 524.291 -2.08237 -3.41288 0
M  V30 5715 H 525.731 -1.26049 -4.0483 0
M  V30 5716 C 524.19 0.0611471 -3.36845 0
M  V30 5717 O 524.72 1.03328 -3.88183 0
M  V30 5718 N 522.926 0.122454 -2.90342 0
M  V30 5719 H 522.473 -0.669329 -2.48752 0
M  V30 5720 H 522.431 0.986463 -2.98523 0
M  V30 5721 N 526.204 0.969867 -1.24223 0
M  V30 5722 C 527.62 1.23809 -1.00716 0
M  V30 5723 C 527.82 1.99469 0.285358 0
M  V30 5724 O 526.876 2.31764 1.00207 0
M  V30 5725 C 528.189 2.02734 -2.2208 0
M  V30 5726 C 529.737 2.15834 -2.26681 0
M  V30 5727 C 530.212 2.98154 -3.47661 0
M  V30 5728 N 531.703 3.05737 -3.47964 0
M  V30 5729 C 532.438 3.69785 -4.38231 0
M  V30 5730 N 531.934 4.35569 -5.3875 0
M  V30 5731 N 533.727 3.66775 -4.25949 0
M  V30 5732 H 525.878 0.463294 -2.07286 0
M  V30 5733 H 528.141 0.267348 -0.909521 0
M  V30 5734 H 527.847 1.54524 -3.15935 0
M  V30 5735 H 527.721 3.0347 -2.24021 0
M  V30 5736 H 530.108 2.63248 -1.33359 0
M  V30 5737 H 530.189 1.14453 -2.28767 0
M  V30 5738 H 529.833 2.51435 -4.41297 0
M  V30 5739 H 529.763 3.99729 -3.42818 0
M  V30 5740 H 532.254 2.58941 -2.75242 0
M  V30 5741 H 532.567 4.82251 -6.03866 0
M  V30 5742 H 530.912 4.34244 -5.42639 0
M  V30 5743 H 534.103 3.14558 -3.46657 0
M  V30 5744 H 534.276 4.16407 -4.96497 0
M  V30 5745 N 527.682 1.05563 1.17022 0
M  V30 5746 C 528.922 0.777033 1.89054 0
M  V30 5747 C 529.286 -0.683617 1.79418 0
M  V30 5748 O 530.487 -1.07648 2.46303 0
M  V30 5749 C 528.758 1.24886 3.34871 0
M  V30 5750 S 530.317 1.0982 4.24835 0
M  V30 5751 H 527.135 0.282082 0.652649 0
M  V30 5752 H 529.737 1.35103 1.41306 0
M  V30 5753 H 528.441 2.30699 3.3942 0
M  V30 5754 H 527.972 0.669292 3.87665 0
M  V30 5755 H 529.987 0.02462 4.96194 0
M  V30 5756 N 529.16 -1.33526 0.837174 0
M  V30 5757 C 530.07 -2.33023 0.271568 0
M  V30 5758 C 531.086 -1.63272 -0.601514 0
M  V30 5759 O 532.262 -1.94939 -0.506038 0
M  V30 5760 C 529.327 -3.42382 -0.545448 0
M  V30 5761 C 528.388 -4.27857 0.351709 0
M  V30 5762 C 527.621 -5.31994 -0.426409 0
M  V30 5763 O 527.844 -5.45763 -1.65828 0
M  V30 5764 O 526.778 -6.01572 0.1987 0
M  V30 5765 H 530.604 -2.83256 1.09545 0
M  V30 5766 H 528.189 -1.36837 0.599655 0
M  V30 5767 H 530.071 -4.09122 -1.00979 0
M  V30 5768 H 528.746 -2.94369 -1.34641 0
M  V30 5769 H 527.653 -3.6399 0.863853 0
M  V30 5770 H 528.986 -4.79349 1.1174 0
M  V30 5771 N 530.638 -0.59345 -1.46 0
M  V30 5772 C 531.568 0.121192 -2.33185 0
M  V30 5773 C 532.549 0.872977 -1.4599 0
M  V30 5774 O 533.734 0.846321 -1.74789 0
M  V30 5775 C 530.864 1.12844 -3.28456 0
M  V30 5776 C 529.818 0.4908 -4.25177 0
M  V30 5777 C 529.144 1.60529 -5.10034 0
M  V30 5778 C 530.444 -0.578949 -5.19081 0
M  V30 5779 H 532.138 -0.606767 -2.93187 0
M  V30 5780 H 529.684 -0.293242 -1.40983 0
M  V30 5781 H 531.637 1.63684 -3.88311 0
M  V30 5782 H 530.361 1.88681 -2.66584 0
M  V30 5783 H 529.02 0.00339328 -3.666 0
M  V30 5784 H 528.668 2.35359 -4.44539 0
M  V30 5785 H 528.368 1.18422 -5.75543 0
M  V30 5786 H 529.892 2.11623 -5.72755 0
M  V30 5787 H 531.306 -0.155199 -5.7309 0
M  V30 5788 H 529.703 -0.920947 -5.92991 0
M  V30 5789 H 530.773 -1.46109 -4.62364 0
M  V30 5790 N 532.116 1.54067 -0.331816 0
M  V30 5791 C 533.046 2.27569 0.522932 0
M  V30 5792 C 534.027 1.28679 1.11247 0
M  V30 5793 O 535.212 1.57504 1.13605 0
M  V30 5794 C 532.342 3.0397 1.67987 0
M  V30 5795 C 531.296 4.10267 1.21924 0
M  V30 5796 C 530.622 4.74555 2.46377 0
M  V30 5797 C 531.922 5.21268 0.32815 0
M  V30 5798 H 533.616 2.99264 -0.0901977 0
M  V30 5799 H 531.162 1.4393 -0.044821 0
M  V30 5800 H 533.115 3.54123 2.28418 0
M  V30 5801 H 531.839 2.29906 2.31971 0
M  V30 5802 H 530.498 3.61009 0.637809 0
M  V30 5803 H 530.146 3.97098 3.08743 0
M  V30 5804 H 529.846 5.46363 2.16243 0
M  V30 5805 H 531.37 5.27487 3.07555 0
M  V30 5806 H 532.784 5.67128 0.838978 0
M  V30 5807 H 531.181 5.99982 0.119228 0
M  V30 5808 H 532.251 4.80673 -0.638839 0
M  V30 5809 N 533.594 0.0601682 1.57485 0
M  V30 5810 C 534.819 -0.624416 1.97777 0
M  V30 5811 C 535.244 -1.63051 0.937867 0
M  V30 5812 O 534.602 -1.81036 -0.0978845 0
M  V30 5813 C 534.65 -1.27979 3.37126 0
M  V30 5814 O 533.754 -2.39556 3.35688 0
M  V30 5815 H 533.095 -0.161581 0.64404 0
M  V30 5816 H 535.625 0.131237 2.04179 0
M  V30 5817 H 535.635 -1.62937 3.74053 0
M  V30 5818 H 534.31 -0.542501 4.12347 0
M  V30 5819 H 532.887 -2.06478 3.10517 0
M  V30 5820 N 535.072 -1.5615 -0.213296 0
M  V30 5821 C 536.319 -1.79546 -0.936462 0
M  V30 5822 C 536.647 -0.630337 -1.84003 0
M  V30 5823 O 535.902 0.384883 -1.91878 0
M  V30 5824 C 536.201 -3.08772 -1.79985 0
M  V30 5825 C 535.867 -4.38532 -1.04882 0
M  V30 5826 C 534.529 -4.73787 -0.841393 0
M  V30 5827 C 536.881 -5.18609 -0.51907 0
M  V30 5828 C 534.209 -5.86627 -0.0924403 0
M  V30 5829 C 536.561 -6.32229 0.216581 0
M  V30 5830 C 535.225 -6.6608 0.435191 0
M  V30 5831 H 534.495 -0.657004 -0.342676 0
M  V30 5832 H 537.142 -1.9041 -0.204051 0
M  V30 5833 H 535.447 -2.93065 -2.60038 0
M  V30 5834 H 537.144 -3.24077 -2.36168 0
M  V30 5835 H 533.734 -4.10855 -1.22048 0
M  V30 5836 H 537.918 -4.91801 -0.666775 0
M  V30 5837 H 533.174 -6.11338 0.087081 0
M  V30 5838 H 537.348 -6.93503 0.634538 0
M  V30 5839 H 534.975 -7.5336 1.01746 0
M  V30 5840 N 536.55 0.480323 -1.50102 0
M  V30 5841 C 537.48 1.58769 -1.71215 0
M  V30 5842 C 538.461 1.60583 -0.560997 0
M  V30 5843 O 539.646 1.76996 -0.799127 0
M  V30 5844 C 536.776 2.97148 -1.79778 0
M  V30 5845 C 535.73 3.10201 -2.94888 0
M  V30 5846 C 535.056 4.50137 -2.88584 0
M  V30 5847 C 536.356 2.88283 -4.35534 0
M  V30 5848 H 538.05 1.41354 -2.6393 0
M  V30 5849 H 535.596 0.678591 -1.27008 0
M  V30 5850 H 537.549 3.74536 -1.93133 0
M  V30 5851 H 536.273 3.15699 -0.836772 0
M  V30 5852 H 534.932 2.35244 -2.81169 0
M  V30 5853 H 534.58 4.65593 -1.90349 0
M  V30 5854 H 534.28 4.59808 -3.65856 0
M  V30 5855 H 535.804 5.29558 -3.03976 0
M  V30 5856 H 537.218 3.55427 -4.49827 0
M  V30 5857 H 535.615 3.09408 -5.14186 0
M  V30 5858 H 536.685 1.84219 -4.48544 0
M  V30 5859 N 538.028 1.39524 0.732853 0
M  V30 5860 C 538.958 1.41153 1.86005 0
M  V30 5861 C 539.939 0.274614 1.67869 0
M  V30 5862 O 541.124 0.480745 1.88155 0
M  V30 5863 C 538.254 1.25638 3.23778 0
M  V30 5864 C 537.208 2.36752 3.56556 0
M  V30 5865 C 536.534 2.06326 4.93289 0
M  V30 5866 C 537.834 3.79069 3.5931 0
M  V30 5867 H 539.528 2.35484 1.84899 0
M  V30 5868 H 537.074 1.13348 0.888162 0
M  V30 5869 H 539.027 1.25398 4.0231 0
M  V30 5870 H 537.751 0.277772 3.25417 0
M  V30 5871 H 536.41 2.36213 2.80355 0
M  V30 5872 H 536.058 1.06897 4.9151 0
M  V30 5873 H 535.758 2.80757 5.16187 0
M  V30 5874 H 537.282 2.07739 5.74175 0
M  V30 5875 H 538.696 3.81526 4.27914 0
M  V30 5876 H 537.093 4.52878 3.93728 0
M  V30 5877 H 538.163 4.09893 2.59068 0
M  V30 5878 N 539.506 -0.963266 1.24736 0
M  V30 5879 C 540.752 -1.70933 1.09131 0
M  V30 5880 C 541.085 -1.90676 -0.368273 0
M  V30 5881 O 540.36 -1.47147 -1.27193 0
M  V30 5882 C 540.643 -3.09744 1.83658 0
M  V30 5883 C 540.496 -2.97465 3.37394 0
M  V30 5884 C 541.815 -4.09483 1.61282 0
M  V30 5885 H 538.934 -0.620398 0.397838 0
M  V30 5886 H 541.576 -1.12028 1.53459 0
M  V30 5887 H 539.726 -3.60031 1.4598 0
M  V30 5888 H 541.398 -2.54571 3.84696 0
M  V30 5889 H 539.641 -2.33576 3.65547 0
M  V30 5890 H 540.312 -3.95822 3.84745 0
M  V30 5891 H 542.788 -3.68073 1.94066 0
M  V30 5892 H 541.664 -5.04666 2.15878 0
M  V30 5893 H 541.925 -4.38639 0.552102 0
M  V30 5894 N 540.985 -1.06182 -1.16461 0
M  V30 5895 C 541.915 -0.692861 -2.22984 0
M  V30 5896 C 542.896 0.314122 -1.67174 0
M  V30 5897 O 544.081 0.189499 -1.93273 0
M  V30 5898 C 541.211 -0.07732 -3.47214 0
M  V30 5899 C 540.165 -1.01015 -4.15909 0
M  V30 5900 C 539.491 -0.257973 -5.34077 0
M  V30 5901 C 540.791 -2.33868 -4.67015 0
M  V30 5902 H 542.485 -1.58343 -2.54102 0
M  V30 5903 H 540.031 -0.76279 -1.22137 0
M  V30 5904 H 541.984 0.19266 -4.20959 0
M  V30 5905 H 540.708 0.848254 -3.15392 0
M  V30 5906 H 539.367 -1.26486 -3.44088 0
M  V30 5907 H 539.015 0.670684 -4.98509 0
M  V30 5908 H 538.715 -0.879638 -5.80979 0
M  V30 5909 H 540.239 0.00448788 -6.106 0
M  V30 5910 H 541.653 -2.1279 -5.32347 0
M  V30 5911 H 540.05 -2.91522 -5.24533 0
M  V30 5912 H 541.12 -2.97019 -3.83286 0
M  V30 5913 N 542.463 1.3308 -0.844243 0
M  V30 5914 C 543.74 1.92178 -0.364261 0
M  V30 5915 C 544.12 1.76961 1.15101 0
M  V30 5916 O 543.468 1.16128 1.9679 0
M  V30 5917 C 543.678 3.393 -0.817106 0
M  V30 5918 C 545.026 4.16444 -0.828236 0
M  V30 5919 O 546.05 3.47975 -0.761062 0
M  V30 5920 O 544.909 5.38685 -0.920926 0
M  V30 5921 H 542.003 0.820411 -0.10419 0
M  V30 5922 H 544.549 1.41918 -0.930453 0
M  V30 5923 H 543.321 3.44272 -1.85991 0
M  V30 5924 H 542.944 3.96947 -0.227785 0
M  V30 5925 N 543.941 0.601185 1.45683 0
M  V30 5926 C 545.171 0.0999093 2.06358 0
M  V30 5927 C 545.579 -1.21831 1.44754 0
M  V30 5928 O 544.922 -1.75157 0.553695 0
M  V30 5929 C 544.984 -0.12085 3.59297 0
M  V30 5930 C 544.648 1.11459 4.432 0
M  V30 5931 C 545.645 2.03118 4.7858 0
M  V30 5932 C 543.33 1.34162 4.84051 0
M  V30 5933 C 545.324 3.15814 5.53661 0
M  V30 5934 C 543.011 2.4716 5.58888 0
M  V30 5935 C 544.009 3.37814 5.93608 0
M  V30 5936 O 543.697 4.48846 6.66928 0
M  V30 5937 H 543.429 0.0630316 0.673055 0
M  V30 5938 H 545.983 0.826982 1.88016 0
M  V30 5939 H 544.213 -0.902744 3.76015 0
M  V30 5940 H 545.902 -0.572925 4.01836 0
M  V30 5941 H 546.668 1.86801 4.47583 0
M  V30 5942 H 542.547 0.645018 4.56465 0
M  V30 5943 H 546.091 3.86596 5.8068 0
M  V30 5944 H 541.988 2.63432 5.89299 0
M  V30 5945 H 542.756 4.47446 6.85371 0
M  V30 5946 N 545.419 -1.53889 0.339982 0
M  V30 5947 C 546.668 -2.00035 -0.258604 0
M  V30 5948 C 546.981 -1.23179 -1.51942 0
M  V30 5949 O 548.187 -1.59784 -2.19503 0
M  V30 5950 C 546.643 -3.56249 -0.511359 0
M  V30 5951 C 546.251 -4.41957 0.733349 0
M  V30 5952 C 547.995 -4.1082 -1.069 0
M  V30 5953 C 545.902 -5.89673 0.451591 0
M  V30 5954 H 544.832 -0.747284 -0.10041 0
M  V30 5955 H 547.483 -1.77776 0.454758 0
M  V30 5956 H 545.865 -3.7456 -1.28533 0
M  V30 5957 H 547.039 -4.35421 1.50815 0
M  V30 5958 H 545.354 -3.9836 1.21237 0
M  V30 5959 H 547.951 -5.18789 -1.2947 0
M  V30 5960 H 548.294 -3.63817 -2.02343 0
M  V30 5961 H 548.827 -3.96205 -0.355817 0
M  V30 5962 H 545.566 -6.40903 1.37565 0
M  V30 5963 H 545.086 -5.99122 -0.285193 0
M  V30 5964 H 546.765 -6.46965 0.0675067 0
M  V30 5965 N 546.897 -0.0685191 -1.57451 0
M  V30 5966 C 548.145 0.60016 -1.92983 0
M  V30 5967 C 548.466 1.70348 -0.949028 0
M  V30 5968 O 547.736 1.959 0.00335647 0
M  V30 5969 H 546.316 0.224682 -0.712409 0
M  V30 5970 H 548.978 -0.125605 -1.94495 0
M  V30 5971 H 548.074 1.02759 -2.94698 0
M  V30 5972 N 548.375 1.56261 0.205012 0
M  V30 5973 C 549.624 1.79236 0.925058 0
M  V30 5974 C 549.937 0.640011 1.84833 0
M  V30 5975 O 551.143 0.753809 2.60826 0
M  V30 5976 C 549.599 3.17475 1.69522 0
M  V30 5977 C 549.207 4.40482 0.817269 0
M  V30 5978 C 550.951 3.49766 2.4055 0
M  V30 5979 C 548.858 5.69744 1.58573 0
M  V30 5980 H 547.788 0.668287 0.349153 0
M  V30 5981 H 550.439 1.82629 0.178544 0
M  V30 5982 H 548.821 3.08304 2.48526 0
M  V30 5983 H 549.995 4.60752 0.0665988 0
M  V30 5984 H 548.31 4.15827 0.218316 0
M  V30 5985 H 550.907 4.43573 2.98575 0
M  V30 5986 H 551.25 2.73041 3.14252 0
M  V30 5987 H 551.783 3.60341 1.68522 0
M  V30 5988 H 548.522 6.49407 0.891679 0
M  V30 5989 H 548.042 5.53509 2.31059 0
M  V30 5990 H 549.721 6.1051 2.14212 0
M  V30 5991 N 549.853 -0.472356 1.50355 0
M  V30 5992 C 550.801 -1.59126 1.69651 0
M  V30 5993 C 551.795 -1.59793 0.56237 0
M  V30 5994 O 553.001 -1.63957 0.742832 0
M  V30 5995 H 549.376 -0.528008 0.535454 0
M  V30 5996 H 551.347 -1.40013 2.63513 0
M  V30 5997 C 550.096 -2.97075 1.8067 0
M  V30 5998 H 549.419 -2.9728 2.67329 0
M  V30 5999 H 550.859 -3.74825 1.98197 0
M  V30 6000 C 549.318 -3.32247 0.558016 0
M  V30 6001 O 549.848 -4.00553 -0.303399 0
M  V30 6002 N 548.054 -2.87659 0.412415 0
M  V30 6003 H 547.601 -2.32246 1.11443 0
M  V30 6004 H 547.559 -3.11556 -0.421908 0
M  V30 6005 N 551.331 -1.39911 -0.725443 0
M  V30 6006 C 552.264 -1.33788 -1.84867 0
M  V30 6007 C 553.242 -0.209907 -1.61239 0
M  V30 6008 O 554.426 -0.391943 -1.8438 0
M  V30 6009 C 551.553 -1.07975 -3.21028 0
M  V30 6010 C 550.599 -2.23092 -3.635 0
M  V30 6011 S 551.432 -3.85431 -3.71757 0
M  V30 6012 C 552.588 -3.61862 -5.10692 0
M  V30 6013 H 552.821 -2.28848 -1.89779 0
M  V30 6014 H 550.354 -1.26079 -0.891254 0
M  V30 6015 H 552.312 -0.937669 -3.99647 0
M  V30 6016 H 550.973 -0.145865 -3.13761 0
M  V30 6017 H 550.166 -2.00647 -4.62338 0
M  V30 6018 H 549.768 -2.33553 -2.92112 0
M  V30 6019 H 552.06 -3.19719 -5.97316 0
M  V30 6020 H 553.003 -4.60196 -5.38169 0
M  V30 6021 H 553.411 -2.95757 -4.8082 0
M  V30 6022 N 552.809 0.956637 -1.25245 0
M  V30 6023 C 553.772 2.03457 -1.05537 0
M  V30 6024 C 554.772 1.60798 -0.00886317 0
M  V30 6025 O 555.962 1.72384 -0.250865 0
M  V30 6026 C 553.094 3.35543 -0.601965 0
M  V30 6027 H 554.287 2.22372 -2.01223 0
M  V30 6028 H 551.84 1.13344 -1.07623 0
M  V30 6029 H 552.575 3.22323 0.357584 0
M  V30 6030 H 552.36 3.67854 -1.35743 0
M  V30 6031 H 553.85 4.14769 -0.485454 0
M  V30 6032 N 554.287 1.06798 1.15896 0
M  V30 6033 C 555.512 0.808739 1.90982 0
M  V30 6034 C 555.937 -0.6316 1.77179 0
M  V30 6035 O 555.295 -1.4407 1.10061 0
M  V30 6036 C 555.343 1.21468 3.39526 0
M  V30 6037 O 554.447 0.356562 4.10856 0
M  V30 6038 H 553.788 0.29512 0.594811 0
M  V30 6039 H 556.318 1.42513 1.46804 0
M  V30 6040 H 556.328 1.18844 3.90308 0
M  V30 6041 H 555.003 2.26379 3.48891 0
M  V30 6042 H 553.58 0.444808 3.70238 0
M  V30 6043 N 555.766 -1.3263 0.851289 0
M  V30 6044 C 556.696 -2.31449 0.308771 0
M  V30 6045 C 557.677 -1.59531 -0.590255 0
M  V30 6046 O 558.862 -1.87351 -0.511205 0
M  V30 6047 C 555.992 -3.43586 -0.506548 0
M  V30 6048 C 554.946 -4.26963 0.297753 0
M  V30 6049 C 554.272 -5.30831 -0.642094 0
M  V30 6050 C 555.572 -4.99643 1.52166 0
M  V30 6051 H 557.266 -2.77074 1.13447 0
M  V30 6052 H 554.812 -1.33207 0.546971 0
M  V30 6053 H 556.765 -4.11754 -0.896474 0
M  V30 6054 H 555.489 -2.96681 -1.36558 0
M  V30 6055 H 554.148 -3.60437 0.669391 0
M  V30 6056 H 553.796 -4.8018 -1.49788 0
M  V30 6057 H 553.496 -5.87501 -0.107968 0
M  V30 6058 H 555.02 -6.01862 -1.02927 0
M  V30 6059 H 556.434 -5.6051 1.20421 0
M  V30 6060 H 554.831 -5.66022 1.99347 0
M  V30 6061 H 555.901 -4.27701 2.28474 0
M  V30 6062 N 557.244 -0.608902 -1.45362 0
M  V30 6063 C 558.192 0.121639 -2.32282 0
M  V30 6064 C 559.186 0.858301 -1.46046 0
M  V30 6065 O 560.392 0.773718 -1.62523 0
M  V30 6066 H 556.767 0.058086 -0.749753 0
M  V30 6067 H 558.738 -0.629866 -2.91677 0
M  V30 6068 C 557.487 1.1047 -3.29684 0
M  V30 6069 H 556.81 0.547278 -3.96036 0
M  V30 6070 H 558.25 1.58576 -3.9323 0
M  V30 6071 C 556.709 2.17891 -2.56954 0
M  V30 6072 O 557.239 3.25652 -2.35189 0
M  V30 6073 N 555.445 1.93211 -2.17066 0
M  V30 6074 H 554.992 1.05584 -2.34967 0
M  V30 6075 H 554.95 2.6529 -1.68727 0
M  V30 6076 N 558.722 1.53707 -0.348139 0
M  V30 6077 C 559.947 2.05877 0.250883 0
M  V30 6078 C 560.372 1.22115 1.43072 0
M  V30 6079 O 559.73 0.235986 1.79758 0
M  V30 6080 C 559.778 3.54886 0.639416 0
M  V30 6081 O 558.882 3.73948 1.73888 0
M  V30 6082 H 558.223 0.662754 0.040653 0
M  V30 6083 H 560.753 1.98303 -0.503685 0
M  V30 6084 H 560.763 3.97601 0.915295 0
M  V30 6085 H 559.438 4.153 -0.223386 0
M  V30 6086 H 558.015 3.43134 1.45991 0
M  V30 6087 N 560.2 0.0768682 1.57412 0
M  V30 6088 C 561.44 -0.594676 1.95558 0
M  V30 6089 C 561.804 -1.66469 0.956658 0
M  V30 6090 O 563.005 -2.39215 1.22595 0
M  V30 6091 C 561.276 -1.15206 3.38323 0
M  V30 6092 S 562.835 -1.83803 3.9845 0
M  V30 6093 H 559.653 -0.194579 0.683857 0
M  V30 6094 H 562.255 0.151933 1.94909 0
M  V30 6095 H 560.959 -0.36153 4.08805 0
M  V30 6096 H 560.49 -1.93491 3.42527 0
M  V30 6097 H 562.505 -3.12087 3.85767 0
M  V30 6098 N 561.678 -1.56367 -0.196722 0
M  V30 6099 C 562.927 -1.79724 -0.915539 0
M  V30 6100 C 563.24 -0.649804 -1.84491 0
M  V30 6101 O 564.446 -0.767631 -2.60422 0
M  V30 6102 C 562.902 -3.18369 -1.67836 0
M  V30 6103 C 562.51 -4.4091 -0.793897 0
M  V30 6104 C 564.254 -3.51037 -2.38691 0
M  V30 6105 C 562.161 -5.70577 -1.55549 0
M  V30 6106 H 561.091 -0.67013 -0.345604 0
M  V30 6107 H 563.742 -1.82721 -0.168856 0
M  V30 6108 H 562.124 -3.09617 -2.46887 0
M  V30 6109 H 563.298 -4.60781 -0.042163 0
M  V30 6110 H 561.613 -4.15937 -0.19626 0
M  V30 6111 H 564.21 -4.4515 -2.96219 0
M  V30 6112 H 564.553 -2.74704 -3.12799 0
M  V30 6113 H 565.086 -3.61229 -1.66608 0
M  V30 6114 H 561.825 -6.49871 -0.857226 0
M  V30 6115 H 561.345 -5.54726 -2.2812 0
M  V30 6116 H 563.024 -6.11637 -2.10971 0
M  V30 6117 N 563.156 0.464375 -1.50603 0
M  V30 6118 C 564.104 1.58224 -1.70493 0
M  V30 6119 C 565.098 1.59492 -0.570836 0
M  V30 6120 O 566.304 1.63561 -0.751517 0
M  V30 6121 H 562.679 0.525161 -0.538247 0
M  V30 6122 H 564.65 1.38613 -2.64252 0
M  V30 6123 C 563.399 2.96113 -1.82243 0
M  V30 6124 H 562.722 2.95858 -2.68901 0
M  V30 6125 H 564.162 3.73769 -2.00182 0
M  V30 6126 C 562.621 3.31946 -0.575628 0
M  V30 6127 O 563.151 4.00708 0.282152 0
M  V30 6128 N 561.357 2.87436 -0.427665 0
M  V30 6129 H 560.904 2.31652 -1.12674 0
M  V30 6130 H 560.862 3.11776 0.405379 0
M  V30 6131 N 564.634 1.40294 0.718013 0
M  V30 6132 C 566.045 1.34289 1.29705 0
M  V30 6133 C 566.396 0.0152228 1.96194 0
M  V30 6134 O 565.521 -0.88682 1.97394 0
M  V30 6135 C 566.116 2.43219 2.3586 0
M  V30 6136 C 564.675 2.40682 2.89394 0
M  V30 6137 C 563.822 2.24223 1.63154 0
M  V30 6138 H 566.773 1.50135 0.514312 0
M  V30 6139 H 566.794 2.10986 3.16647 0
M  V30 6140 H 566.306 3.39836 1.87439 0
M  V30 6141 H 564.407 1.47756 3.42051 0
M  V30 6142 H 564.52 3.36177 3.41353 0
M  V30 6143 H 562.884 1.71696 1.88129 0
M  V30 6144 H 563.667 3.22834 1.16761 0
M  V30 6145 N 566.112 -0.949982 1.2575 0
M  V30 6146 C 567.361 -1.68956 1.10168 0
M  V30 6147 C 567.674 -1.92327 -0.356309 0
M  V30 6148 O 568.88 -2.64026 -0.632657 0
M  V30 6149 C 567.336 -3.04196 1.92336 0
M  V30 6150 C 566.944 -2.88603 3.42655 0
M  V30 6151 C 568.688 -3.81904 1.85336 0
M  V30 6152 C 566.595 -4.19262 4.17101 0
M  V30 6153 H 565.525 -0.633645 0.408668 0
M  V30 6154 H 568.176 -1.05719 1.49986 0
M  V30 6155 H 566.558 -3.68363 1.45344 0
M  V30 6156 H 567.732 -2.3334 3.97353 0
M  V30 6157 H 566.047 -2.24345 3.50796 0
M  V30 6158 H 568.644 -4.78688 2.38248 0
M  V30 6159 H 568.987 -4.08099 0.822226 0
M  V30 6160 H 569.52 -3.24495 2.30104 0
M  V30 6161 H 566.259 -3.98254 5.20648 0
M  V30 6162 H 565.779 -4.74273 3.67186 0
M  V30 6163 H 567.458 -4.87775 4.25071 0
M  V30 6164 N 567.59 -1.07411 -1.15328 0
M  V30 6165 C 568.553 -0.698914 -2.18284 0
M  V30 6166 C 569.553 0.261149 -1.58665 0
M  V30 6167 O 570.743 0.0420277 -1.74149 0
M  V30 6168 C 567.875 -0.0302427 -3.40887 0
M  V30 6169 H 569.068 -1.61045 -2.52991 0
M  V30 6170 H 566.621 -0.870724 -1.298 0
M  V30 6171 H 567.356 0.893505 -3.11748 0
M  V30 6172 H 567.141 -0.720759 -3.85419 0
M  V30 6173 H 568.631 0.21759 -4.17033 0
M  V30 6174 N 569.068 1.32177 -0.85831 0
M  V30 6175 C 569.998 2.31282 -0.321041 0
M  V30 6176 C 570.979 1.59841 0.581786 0
M  V30 6177 O 572.164 1.87619 0.501262 0
M  V30 6178 C 569.294 3.4385 0.48832 0
M  V30 6179 C 568.248 4.26799 -0.320391 0
M  V30 6180 C 567.574 5.31164 0.613934 0
M  V30 6181 C 568.874 4.98829 -1.54813 0
M  V30 6182 H 570.568 2.76469 -1.14915 0
M  V30 6183 H 568.114 1.32916 -0.554028 0
M  V30 6184 H 570.067 4.12224 0.874626 0
M  V30 6185 H 568.791 2.97401 1.34983 0
M  V30 6186 H 567.45 3.60077 -0.688497 0
M  V30 6187 H 567.098 4.80967 1.47239 0
M  V30 6188 H 566.798 5.8755 0.0768097 0
M  V30 6189 H 568.322 6.024 0.997336 0
M  V30 6190 H 569.736 5.59864 -1.23392 0
M  V30 6191 H 568.133 5.64957 -2.02346 0
M  V30 6192 H 569.203 4.26483 -2.30739 0
M  V30 6193 N 570.547 0.616602 1.45037 0
M  V30 6194 C 571.777 0.121791 2.06241 0
M  V30 6195 C 572.185 -1.20289 1.46038 0
M  V30 6196 O 571.528 -1.7456 0.572242 0
M  V30 6197 C 571.59 -0.0827345 3.59405 0
M  V30 6198 C 571.254 1.16153 4.41993 0
M  V30 6199 C 572.251 2.08183 4.76399 0
M  V30 6200 C 569.936 1.39288 4.82601 0
M  V30 6201 C 571.93 3.21668 5.5028 0
M  V30 6202 C 569.617 2.53073 5.56235 0
M  V30 6203 C 570.615 3.44091 5.89992 0
M  V30 6204 O 570.303 4.55894 6.6213 0
M  V30 6205 H 570.035 0.0701667 0.672349 0
M  V30 6206 H 572.589 0.846877 1.87129 0
M  V30 6207 H 570.819 -0.862812 3.76952 0
M  V30 6208 H 572.508 -0.530273 4.02421 0
M  V30 6209 H 573.274 1.91538 4.45576 0
M  V30 6210 H 569.153 0.693396 4.55755 0
M  V30 6211 H 572.697 3.92733 5.76547 0
M  V30 6212 H 568.594 2.69667 5.86472 0
M  V30 6213 H 569.362 4.5469 6.80587 0
M  V30 6214 N 572.025 -1.5352 0.356285 0
M  V30 6215 C 572.955 -2.28372 -0.486661 0
M  V30 6216 C 573.936 -1.30432 -1.09185 0
M  V30 6217 O 575.121 -1.59291 -1.11085 0
M  V30 6218 C 572.251 -3.06604 -1.63129 0
M  V30 6219 C 571.205 -4.12154 -1.15381 0
M  V30 6220 C 570.531 -4.78415 -2.38796 0
M  V30 6221 C 571.831 -5.21724 -0.245179 0
M  V30 6222 H 573.525 -2.99083 0.137797 0
M  V30 6223 H 571.071 -1.43841 0.0677134 0
M  V30 6224 H 573.024 -3.57712 -2.22755 0
M  V30 6225 H 571.748 -2.33568 -2.28284 0
M  V30 6226 H 570.407 -3.61978 -0.580294 0
M  V30 6227 H 570.055 -4.01959 -3.02387 0
M  V30 6228 H 569.755 -5.49734 -2.07524 0
M  V30 6229 H 571.279 -5.32313 -2.99125 0
M  V30 6230 H 572.693 -5.68391 -0.748646 0
M  V30 6231 H 571.09 -6.00095 -0.0237608 0
M  V30 6232 H 572.16 -4.79596 0.715229 0
M  V30 6233 N 573.503 -0.0852151 -1.57369 0
M  V30 6234 C 574.749 0.581666 -1.94279 0
M  V30 6235 C 575.082 1.68444 -0.966446 0
M  V30 6236 O 574.357 1.945 0.00215277 0
M  V30 6237 C 574.64 1.14609 -3.41375 0
M  V30 6238 C 574.493 0.0490414 -4.49773 0
M  V30 6239 C 575.812 2.04751 -3.8957 0
M  V30 6240 H 572.931 0.209972 -0.706456 0
M  V30 6241 H 575.573 -0.153915 -1.89376 0
M  V30 6242 H 573.723 1.77297 -3.45685 0
M  V30 6243 H 575.395 -0.584721 -4.57579 0
M  V30 6244 H 573.638 -0.618638 -4.29366 0
M  V30 6245 H 574.309 0.484601 -5.49869 0
M  V30 6246 H 576.785 1.51981 -3.87351 0
M  V30 6247 H 575.661 2.41173 -4.93079 0
M  V30 6248 H 575.922 2.96107 -3.28288 0
M  V30 6249 N 574.981 1.5647 0.188427 0
M  V30 6250 C 576.206 1.85486 0.927891 0
M  V30 6251 C 576.631 0.669575 1.75779 0
M  V30 6252 O 575.989 -0.381573 1.77239 0
M  V30 6253 C 576.037 3.12784 1.7944 0
M  V30 6254 O 575.141 2.93805 2.894 0
M  V30 6255 H 574.482 0.610585 0.260925 0
M  V30 6256 H 577.012 2.037 0.191729 0
M  V30 6257 H 577.022 3.43749 2.19774 0
M  V30 6258 H 575.697 3.98671 1.18468 0
M  V30 6259 H 574.274 2.74153 2.52774 0
M  V30 6260 N 576.459 -0.456382 1.50847 0
M  V30 6261 C 577.406 -1.55249 1.70782 0
M  V30 6262 C 578.376 -1.56757 0.549231 0
M  V30 6263 O 579.561 -1.74061 0.7815 0
M  V30 6264 C 576.701 -2.93118 1.82143 0
M  V30 6265 C 575.814 -3.01285 3.09598 0
M  V30 6266 C 574.949 -4.30159 3.11667 0
M  V30 6267 C 573.988 -4.32124 4.33515 0
M  V30 6268 N 573.125 -5.52492 4.3324 0
M  V30 6269 H 577.965 -1.37555 2.64353 0
M  V30 6270 H 575.502 -0.668543 1.3103 0
M  V30 6271 H 577.46 -3.73088 1.86711 0
M  V30 6272 H 576.09 -3.09413 0.919978 0
M  V30 6273 H 575.142 -2.14096 3.14431 0
M  V30 6274 H 576.454 -2.98597 3.99551 0
M  V30 6275 H 575.608 -5.18489 3.15046 0
M  V30 6276 H 574.347 -4.35477 2.1957 0
M  V30 6277 H 573.352 -3.42189 4.30333 0
M  V30 6278 H 574.577 -4.28485 5.26856 0
M  V30 6279 H 572.523 -5.58567 3.44004 0
M  V30 6280 H 572.44 -5.51605 5.16979 0
M  V30 6281 H 573.708 -6.42906 4.40786 0
M  V30 6282 N 577.937 -1.40673 -0.710563 0
M  V30 6283 C 579.353 -1.22813 -1.01928 0
M  V30 6284 C 579.553 -0.10687 -2.01216 0
M  V30 6285 O 578.609 0.533614 -2.46797 0
M  V30 6286 C 579.922 -2.57178 -1.5582 0
M  V30 6287 C 581.47 -2.64233 -1.67779 0
M  V30 6288 C 581.945 -3.98879 -2.25076 0
M  V30 6289 N 583.436 -4.00647 -2.32456 0
M  V30 6290 C 584.171 -5.01621 -2.77784 0
M  V30 6291 N 583.667 -6.12989 -3.22826 0
M  V30 6292 N 585.46 -4.88988 -2.77213 0
M  V30 6293 H 577.611 -2.12335 -0.05253 0
M  V30 6294 H 579.874 -0.9441 -0.085898 0
M  V30 6295 H 579.58 -3.39903 -0.903249 0
M  V30 6296 H 579.454 -2.78618 -2.54267 0
M  V30 6297 H 581.841 -1.81876 -2.3239 0
M  V30 6298 H 581.922 -2.46619 -0.679178 0
M  V30 6299 H 581.566 -4.81678 -1.61086 0
M  V30 6300 H 581.496 -4.13826 -3.25661 0
M  V30 6301 H 583.987 -3.20231 -2.0065 0
M  V30 6302 H 584.3 -6.85921 -3.55995 0
M  V30 6303 H 582.645 -6.16547 -3.20773 0
M  V30 6304 H 585.836 -4.01075 -2.41363 0
M  V30 6305 H 586.009 -5.67822 -3.12221 0
M  V30 6306 N 579.415 0.9433 -1.26252 0
M  V30 6307 C 580.662 1.68925 -1.11672 0
M  V30 6308 C 580.99 1.91499 0.340329 0
M  V30 6309 O 580.245 1.49189 1.26653 0
M  V30 6310 C 580.544 3.07073 -1.82868 0
M  V30 6311 C 580.21 3.04262 -3.32769 0
M  V30 6312 C 578.872 3.03203 -3.7366 0
M  V30 6313 C 581.224 2.96729 -4.28487 0
M  V30 6314 C 578.552 2.92373 -5.0866 0
M  V30 6315 C 580.904 2.87442 -5.63525 0
M  V30 6316 C 579.568 2.84724 -6.03729 0
M  V30 6317 H 578.838 0.618141 -0.408635 0
M  V30 6318 H 581.485 1.10124 -1.56668 0
M  V30 6319 H 579.79 3.69486 -1.30335 0
M  V30 6320 H 581.487 3.63635 -1.69029 0
M  V30 6321 H 578.077 3.05865 -3.00241 0
M  V30 6322 H 582.261 2.96658 -3.97879 0
M  V30 6323 H 577.517 2.88645 -5.38975 0
M  V30 6324 H 581.691 2.80576 -6.37377 0
M  V30 6325 H 579.318 2.76089 -7.08293 0
M  V30 6326 N 580.893 1.08022 1.14757 0
M  V30 6327 C 581.84 0.706657 2.19716 0
M  V30 6328 C 582.81 -0.30525 1.63271 0
M  V30 6329 O 583.995 -0.19015 1.8985 0
M  V30 6330 C 581.135 0.117914 3.44898 0
M  V30 6331 C 580.248 1.18212 4.15512 0
M  V30 6332 C 579.383 0.557659 5.28265 0
M  V30 6333 C 578.422 1.60418 5.90705 0
M  V30 6334 N 577.559 1.0018 6.94916 0
M  V30 6335 H 582.399 1.60603 2.51019 0
M  V30 6336 H 579.936 0.802664 1.23271 0
M  V30 6337 H 581.894 -0.241112 4.16503 0
M  V30 6338 H 580.524 -0.744788 3.1409 0
M  V30 6339 H 579.576 1.65863 3.42335 0
M  V30 6340 H 580.888 1.97533 4.5802 0
M  V30 6341 H 580.042 0.146654 6.06523 0
M  V30 6342 H 578.781 -0.267249 4.86967 0
M  V30 6343 H 577.786 2.02489 5.11154 0
M  V30 6344 H 579.011 2.43149 6.34078 0
M  V30 6345 H 576.957 0.197917 6.55701 0
M  V30 6346 H 576.874 1.73216 7.35889 0
M  V30 6347 H 578.142 0.616523 7.77058 0
M  V30 6348 N 582.371 -1.3172 0.865308 0
M  V30 6349 C 583.319 -2.30569 0.306674 0
M  V30 6350 C 584.313 -1.59317 -0.575724 0
M  V30 6351 O 585.519 -1.73961 -0.462343 0
M  V30 6352 H 581.894 -0.747681 0.0804834 0
M  V30 6353 H 583.865 -2.75165 1.15441 0
M  V30 6354 C 582.614 -3.44358 -0.480952 0
M  V30 6355 H 581.937 -3.99354 0.18876 0
M  V30 6356 H 583.377 -4.15652 -0.837241 0
M  V30 6357 C 581.836 -2.92574 -1.67039 0
M  V30 6358 O 582.366 -2.90954 -2.76964 0
M  V30 6359 N 580.572 -2.48835 -1.50097 0
M  V30 6360 H 580.119 -2.50353 -0.606738 0
M  V30 6361 H 580.077 -2.14543 -2.29823 0
M  V30 6362 N 583.85 -0.624285 -1.44708 0
M  V30 6363 C 585.09 -0.129273 -2.03991 0
M  V30 6364 C 585.454 1.22321 -1.47992 0
M  V30 6365 O 586.654 1.80993 -1.98734 0
M  V30 6366 C 584.926 -0.108231 -3.57236 0
M  V30 6367 S 586.485 0.323158 -4.37608 0
M  V30 6368 H 583.303 -0.0577318 -0.708652 0
M  V30 6369 H 585.904 -0.826139 -1.77187 0
M  V30 6370 H 584.609 -1.0958 -3.955 0
M  V30 6371 H 584.139 0.610101 -3.8864 0
M  V30 6372 H 586.154 1.56894 -4.70743 0
M  V30 6373 N 585.328 1.53329 -0.364422 0
M  V30 6374 C 586.575 2.01239 0.225634 0
M  V30 6375 C 586.903 1.25172 1.48869 0
M  V30 6376 O 586.158 0.333289 1.92841 0
M  V30 6377 C 586.457 3.52911 0.564661 0
M  V30 6378 C 586.123 4.46837 -0.603936 0
M  V30 6379 C 584.785 4.72234 -0.924585 0
M  V30 6380 C 587.137 5.02409 -1.38691 0
M  V30 6381 C 584.465 5.50454 -2.0302 0
M  V30 6382 C 586.817 5.81836 -2.48293 0
M  V30 6383 C 585.481 6.0552 -2.80894 0
M  V30 6384 H 584.751 0.736386 0.0825654 0
M  V30 6385 H 587.398 1.84948 -0.496645 0
M  V30 6386 H 585.703 3.67144 1.36794 0
M  V30 6387 H 587.4 3.87455 1.03344 0
M  V30 6388 H 583.99 4.27217 -0.343983 0
M  V30 6389 H 588.174 4.82735 -1.15243 0
M  V30 6390 H 583.43 5.67024 -2.28678 0
M  V30 6391 H 587.604 6.23905 -3.0938 0
M  V30 6392 H 585.231 6.65916 -3.66688 0
M  V30 6393 N 586.806 0.0935595 1.57322 0
M  V30 6394 C 587.753 -0.865935 2.1394 0
M  V30 6395 C 588.723 -1.28083 1.05754 0
M  V30 6396 O 589.908 -1.36285 1.33533 0
M  V30 6397 C 587.048 -2.12023 2.72287 0
M  V30 6398 C 586.161 -1.756 3.94701 0
M  V30 6399 C 585.296 -2.95804 4.41218 0
M  V30 6400 C 584.335 -2.555 5.56225 0
M  V30 6401 N 583.472 -3.68534 5.97601 0
M  V30 6402 H 588.312 -0.376261 2.95615 0
M  V30 6403 H 585.849 -0.174052 1.46067 0
M  V30 6404 H 587.807 -2.85477 3.04235 0
M  V30 6405 H 586.437 -2.58492 1.93343 0
M  V30 6406 H 585.489 -0.921208 3.69077 0
M  V30 6407 H 586.801 -1.41964 4.78171 0
M  V30 6408 H 585.955 -3.77513 4.74941 0
M  V30 6409 H 584.694 -3.32649 3.56645 0
M  V30 6410 H 583.699 -1.72218 5.22131 0
M  V30 6411 H 584.924 -2.19801 6.42545 0
M  V30 6412 H 582.87 -4.051 5.15974 0
M  V30 6413 H 582.787 -3.38737 6.75865 0
M  V30 6414 H 584.055 -4.50757 6.35955 0
M  V30 6415 N 588.284 -1.56567 -0.180126 0
M  V30 6416 C 589.509 -1.85975 -0.918041 0
M  V30 6417 C 589.934 -0.678888 -1.75422 0
M  V30 6418 O 589.292 0.372168 -1.77439 0
M  V30 6419 C 589.34 -3.13731 -1.77779 0
M  V30 6420 O 588.444 -2.95335 -2.87838 0
M  V30 6421 H 587.785 -0.61196 -0.257683 0
M  V30 6422 H 590.315 -2.03798 -0.180923 0
M  V30 6423 H 590.325 -3.4491 -2.17948 0
M  V30 6424 H 589 -3.99293 -1.16352 0
M  V30 6425 H 587.577 -2.7549 -2.51316 0
M  V30 6426 N 589.762 0.448376 -1.51087 0
M  V30 6427 C 591.002 1.20832 -1.64861 0
M  V30 6428 C 591.366 1.88748 -0.351873 0
M  V30 6429 O 592.567 2.66307 -0.365265 0
M  V30 6430 C 590.838 2.20674 -2.81137 0
M  V30 6431 S 592.397 3.05303 -3.15176 0
M  V30 6432 H 589.215 0.40992 -0.580936 0
M  V30 6433 H 591.817 0.501624 -1.88955 0
M  V30 6434 H 590.521 1.69399 -3.73808 0
M  V30 6435 H 590.052 2.9594 -2.59198 0
M  V30 6436 H 592.067 4.22162 -2.60756 0
M  V30 6437 N 591.24 1.41047 0.703093 0
M  V30 6438 C 592.17 1.45067 1.82969 0
M  V30 6439 C 593.151 0.31016 1.67248 0
M  V30 6440 O 594.336 0.520548 1.87093 0
M  V30 6441 C 591.466 1.32478 3.2104 0
M  V30 6442 C 590.42 2.44262 3.51454 0
M  V30 6443 C 589.746 2.16742 4.88801 0
M  V30 6444 C 591.046 3.86606 3.51189 0
M  V30 6445 H 592.74 2.39353 1.79863 0
M  V30 6446 H 590.286 1.15206 0.863919 0
M  V30 6447 H 592.239 1.33904 3.99559 0
M  V30 6448 H 590.963 0.346735 3.24754 0
M  V30 6449 H 589.622 2.42107 2.75282 0
M  V30 6450 H 589.27 1.17299 4.89132 0
M  V30 6451 H 588.97 2.91643 5.10116 0
M  V30 6452 H 590.494 2.19872 5.69639 0
M  V30 6453 H 591.908 3.90517 4.19725 0
M  V30 6454 H 590.305 4.61128 3.84033 0
M  V30 6455 H 591.375 4.15296 2.50315 0
M  V30 6456 N 592.718 -0.936591 1.26751 0
M  V30 6457 C 593.958 -1.69796 1.13792 0
M  V30 6458 C 594.322 -1.89437 -0.312671 0
M  V30 6459 O 595.523 -2.62806 -0.564489 0
M  V30 6460 C 593.794 -3.03297 1.89065 0
M  V30 6461 S 595.353 -3.94461 1.92214 0
M  V30 6462 H 592.171 -0.583412 0.406389 0
M  V30 6463 H 594.773 -1.11575 1.60535 0
M  V30 6464 H 593.477 -2.86687 2.93665 0
M  V30 6465 H 593.008 -3.66575 1.42781 0
M  V30 6466 H 595.023 -4.85767 1.01215 0
M  V30 6467 N 594.196 -1.08629 -1.14182 0
M  V30 6468 C 595.436 -0.826884 -1.86928 0
M  V30 6469 C 595.8 0.635808 -1.81167 0
M  V30 6470 O 597.001 1.0108 -2.49071 0
M  V30 6471 C 595.272 -1.33721 -3.31442 0
M  V30 6472 S 596.831 -1.21045 -4.21774 0
M  V30 6473 H 593.649 -0.299286 -0.644941 0
M  V30 6474 H 596.251 -1.38802 -1.37674 0
M  V30 6475 H 594.955 -2.39617 -3.33184 0
M  V30 6476 H 594.486 -0.771839 -3.85754 0
M  V30 6477 H 596.501 -0.156168 -4.95954 0
M  V30 6478 N 595.674 1.31259 -0.872281 0
M  V30 6479 C 596.92 1.973 -0.494414 0
M  V30 6480 C 597.275 1.67684 0.94339 0
M  V30 6481 O 596.568 0.964186 1.65572 0
M  V30 6482 C 596.762 3.50659 -0.690889 0
M  V30 6483 C 596.591 3.95179 -2.14624 0
M  V30 6484 C 595.361 4.21405 -2.7883 0
M  V30 6485 C 597.559 4.08948 -3.11875 0
M  V30 6486 N 595.541 4.52295 -4.15093 0
M  V30 6487 C 596.912 4.43576 -4.33174 0
M  V30 6488 C 598.967 3.91334 -3.07835 0
M  V30 6489 C 597.67 4.62429 -5.50956 0
M  V30 6490 C 599.696 4.11381 -4.24876 0
M  V30 6491 C 599.058 4.46343 -5.44938 0
M  V30 6492 H 595.157 0.747411 -0.230002 0
M  V30 6493 H 597.741 1.58741 -1.12736 0
M  V30 6494 H 595.912 3.88301 -0.0875162 0
M  V30 6495 H 597.644 4.03722 -0.281179 0
M  V30 6496 H 594.399 4.14131 -2.29767 0
M  V30 6497 H 594.823 4.71897 -4.8543 0
M  V30 6498 H 599.465 3.6339 -2.16119 0
M  V30 6499 H 597.183 4.8922 -6.43187 0
M  V30 6500 H 600.769 3.99235 -4.23205 0
M  V30 6501 H 599.649 4.6154 -6.33996 0
M  V30 6502 N 597.152 0.631951 1.44375 0
M  V30 6503 C 598.392 0.14009 2.03919 0
M  V30 6504 C 598.756 -1.21534 1.48639 0
M  V30 6505 O 599.957 -1.79936 1.99691 0
M  V30 6506 C 598.228 0.127174 3.57174 0
M  V30 6507 S 599.787 -0.299946 4.37774 0
M  V30 6508 H 596.605 0.0614891 0.708336 0
M  V30 6509 H 599.207 0.835524 1.76746 0
M  V30 6510 H 597.911 1.11676 3.94913 0
M  V30 6511 H 597.442 -0.589482 3.88958 0
M  V30 6512 H 599.457 -1.54396 4.71568 0
M  V30 6513 N 598.631 -1.53133 0.372548 0
M  V30 6514 C 599.563 -2.23557 -0.505444 0
M  V30 6515 C 600.576 -1.25211 -1.04049 0
M  V30 6516 O 601.765 -1.51391 -0.945675 0
M  V30 6517 C 598.865 -2.92516 -1.71136 0
M  V30 6518 C 598.038 -4.17428 -1.30661 0
M  V30 6519 C 597.097 -4.69535 -2.37536 0
M  V30 6520 O 596.123 -5.33042 -1.99637 0
M  V30 6521 N 597.325 -4.47947 -3.6922 0
M  V30 6522 H 600.09 -2.9954 0.0978259 0
M  V30 6523 H 597.651 -1.60684 0.198068 0
M  V30 6524 H 599.643 -3.24281 -2.42124 0
M  V30 6525 H 598.213 -2.19944 -2.22134 0
M  V30 6526 H 597.433 -3.91888 -0.426292 0
M  V30 6527 H 598.721 -4.98622 -1.01259 0
M  V30 6528 H 598.119 -3.97219 -4.02783 0
M  V30 6529 H 596.676 -4.84245 -4.36292 0
M  V30 6530 N 600.109 -0.101901 -1.5727 0
M  V30 6531 C 601.334 0.571759 -1.99363 0
M  V30 6532 C 601.759 1.60507 -0.980768 0
M  V30 6533 O 601.117 1.81231 0.0498517 0
M  V30 6534 C 601.165 1.18996 -3.404 0
M  V30 6535 O 600.269 2.30572 -3.41922 0
M  V30 6536 H 599.61 0.144449 -0.648098 0
M  V30 6537 H 602.14 -0.185325 -2.03759 0
M  V30 6538 H 602.15 1.52962 -3.78241 0
M  V30 6539 H 600.825 0.432984 -4.1364 0
M  V30 6540 H 599.402 1.98173 -3.15883 0
M  V30 6541 N 601.587 1.56661 0.17182 0
M  V30 6542 C 602.834 1.81965 0.888529 0
M  V30 6543 C 603.162 0.6789 1.82267 0
M  V30 6544 O 602.417 -0.333875 1.92831 0
M  V30 6545 C 602.716 3.13435 1.71736 0
M  V30 6546 C 602.382 4.41159 0.932184 0
M  V30 6547 C 601.044 4.75851 0.715481 0
M  V30 6548 C 603.396 5.19803 0.381387 0
M  V30 6549 C 600.724 5.86666 -0.063126 0
M  V30 6550 C 603.076 6.31433 -0.384129 0
M  V30 6551 C 601.74 6.64692 -0.611637 0
M  V30 6552 H 601.01 0.665859 0.325136 0
M  V30 6553 H 603.657 1.90884 0.153495 0
M  V30 6554 H 601.962 2.99857 2.52177 0
M  V30 6555 H 603.659 3.30224 2.27493 0
M  V30 6556 H 600.249 4.13947 1.11112 0
M  V30 6557 H 604.433 4.93396 0.536148 0
M  V30 6558 H 599.689 6.10892 -0.249136 0
M  V30 6559 H 603.863 6.91577 -0.818185 0
M  V30 6560 H 601.49 7.50398 -1.21684 0
M  V30 6561 N 603.065 -0.440357 1.51323 0
M  V30 6562 C 603.975 -1.55955 1.75258 0
M  V30 6563 C 604.991 -1.61933 0.636687 0
M  V30 6564 O 606.167 -1.79231 0.918593 0
M  V30 6565 C 603.232 -2.9196 1.86977 0
M  V30 6566 C 602.293 -2.96122 3.10822 0
M  V30 6567 C 601.526 -4.2564 3.21973 0
M  V30 6568 O 601.749 -5.17851 2.39137 0
M  V30 6569 O 600.683 -4.36025 4.14929 0
M  V30 6570 H 604.509 -1.38673 2.70191 0
M  V30 6571 H 602.094 -0.623055 1.35788 0
M  V30 6572 H 603.976 -3.72682 1.96688 0
M  V30 6573 H 602.651 -3.09375 0.952307 0
M  V30 6574 H 601.558 -2.14366 3.06591 0
M  V30 6575 H 602.891 -2.83651 4.02247 0
M  V30 6576 N 604.543 -1.41418 -0.695603 0
M  V30 6577 C 605.453 -1.45622 -1.83933 0
M  V30 6578 C 606.469 -0.346825 -1.70508 0
M  V30 6579 O 607.645 -0.59454 -1.92424 0
M  V30 6580 C 604.71 -1.33627 -3.19914 0
M  V30 6581 C 603.771 -2.54882 -3.45447 0
M  V30 6582 C 603.004 -2.43449 -4.7494 0
M  V30 6583 O 603.227 -1.45905 -5.51424 0
M  V30 6584 O 602.161 -3.33206 -5.01256 0
M  V30 6585 H 605.987 -2.42114 -1.83342 0
M  V30 6586 H 603.572 -1.22956 -0.848658 0
M  V30 6587 H 605.454 -1.29221 -4.01098 0
M  V30 6588 H 604.129 -0.402508 -3.21188 0
M  V30 6589 H 603.036 -2.64865 -2.64192 0
M  V30 6590 H 604.369 -3.47087 -3.48987 0
M  V30 6591 N 606.021 0.929856 -1.27246 0
M  V30 6592 C 606.968 2.03017 -1.09785 0
M  V30 6593 C 607.938 1.661 0.000456744 0
M  V30 6594 O 609.123 1.90116 -0.161462 0
M  V30 6595 C 606.263 3.36878 -0.748816 0
M  V30 6596 C 605.376 3.86763 -1.92453 0
M  V30 6597 C 604.511 5.09061 -1.51758 0
M  V30 6598 C 603.55 5.51237 -2.66091 0
M  V30 6599 N 602.687 6.64732 -2.25999 0
M  V30 6600 H 607.527 2.17285 -2.03939 0
M  V30 6601 H 605.064 1.06448 -1.01524 0
M  V30 6602 H 607.022 4.13855 -0.527283 0
M  V30 6603 H 605.652 3.22424 0.155771 0
M  V30 6604 H 604.704 3.06086 -2.25867 0
M  V30 6605 H 606.016 4.13994 -2.78227 0
M  V30 6606 H 605.17 5.93532 -1.25716 0
M  V30 6607 H 603.909 4.83602 -0.630896 0
M  V30 6608 H 602.914 4.65316 -2.92849 0
M  V30 6609 H 604.139 5.78692 -3.55377 0
M  V30 6610 H 602.085 6.40935 -1.3978 0
M  V30 6611 H 602.002 6.91607 -3.05313 0
M  V30 6612 H 603.27 7.52549 -2.03199 0
M  V30 6613 N 607.499 1.09233 1.13605 0
M  V30 6614 C 608.431 0.687794 2.18637 0
M  V30 6615 C 609.444 -0.26936 1.60556 0
M  V30 6616 O 610.633 -0.0557162 1.78413 0
M  V30 6617 C 607.733 -0.00751901 3.38899 0
M  V30 6618 C 606.906 0.97067 4.26494 0
M  V30 6619 C 605.965 0.309129 5.25291 0
M  V30 6620 O 604.991 0.956149 5.61112 0
M  V30 6621 N 606.193 -0.937555 5.72879 0
M  V30 6622 H 608.958 1.59141 2.53957 0
M  V30 6623 H 606.519 0.979515 1.28907 0
M  V30 6624 H 608.511 -0.461238 4.02063 0
M  V30 6625 H 607.081 -0.813353 3.01833 0
M  V30 6626 H 606.301 1.603 3.60135 0
M  V30 6627 H 607.589 1.63323 4.81875 0
M  V30 6628 H 606.987 -1.48281 5.4592 0
M  V30 6629 H 605.544 -1.33463 6.3799 0
M  V30 6630 N 608.977 -1.30795 0.87923 0
M  V30 6631 C 610.202 -2.01063 0.508769 0
M  V30 6632 C 610.627 -1.65508 -0.893803 0
M  V30 6633 O 609.985 -0.868616 -1.59138 0
M  V30 6634 C 610.033 -3.54054 0.683991 0
M  V30 6635 O 609.137 -4.11498 -0.272654 0
M  V30 6636 H 608.478 -0.632786 0.201191 0
M  V30 6637 H 611.008 -1.66776 1.18519 0
M  V30 6638 H 611.018 -4.03845 0.580798 0
M  V30 6639 H 609.693 -3.79271 1.70665 0
M  V30 6640 H 608.27 -3.72695 -0.12364 0
M  V30 6641 N 610.455 -0.639598 -1.44038 0
M  V30 6642 C 611.385 0.0469443 -2.33453 0
M  V30 6643 C 612.366 0.82609 -1.48694 0
M  V30 6644 O 613.551 0.790285 -1.77393 0
M  V30 6645 C 610.681 1.02338 -3.3188 0
M  V30 6646 C 609.635 0.355284 -4.26523 0
M  V30 6647 C 608.961 1.44221 -5.14883 0
M  V30 6648 C 610.261 -0.743798 -5.16977 0
M  V30 6649 H 611.955 -0.699735 -2.91108 0
M  V30 6650 H 609.501 -0.337946 -1.39978 0
M  V30 6651 H 611.454 1.51247 -3.93322 0
M  V30 6652 H 610.178 1.80105 -2.72451 0
M  V30 6653 H 608.837 -0.113239 -3.66425 0
M  V30 6654 H 608.485 2.21097 -4.51802 0
M  V30 6655 H 608.185 1.00052 -5.79019 0
M  V30 6656 H 609.709 1.93295 -5.79197 0
M  V30 6657 H 611.123 -0.337444 -5.72306 0
M  V30 6658 H 609.52 -1.10914 -5.89761 0
M  V30 6659 H 610.59 -1.60745 -4.57481 0
M  V30 6660 N 611.933 1.52934 -0.380664 0
M  V30 6661 C 612.843 2.29921 0.466192 0
M  V30 6662 C 613.859 1.36488 1.07922 0
M  V30 6663 O 615.035 1.69553 1.0869 0
M  V30 6664 C 612.1 3.08468 1.58266 0
M  V30 6665 C 611.161 4.17595 0.995627 0
M  V30 6666 C 610.394 4.92387 2.05889 0
M  V30 6667 O 610.617 4.67184 3.27254 0
M  V30 6668 O 609.551 5.77949 1.68102 0
M  V30 6669 H 613.377 3.03274 -0.160735 0
M  V30 6670 H 610.962 1.48698 -0.144617 0
M  V30 6671 H 612.844 3.57469 2.23145 0
M  V30 6672 H 611.519 2.37937 2.19471 0
M  V30 6673 H 610.426 3.72811 0.310332 0
M  V30 6674 H 611.759 4.90336 0.427918 0
M  V30 6675 N 613.412 0.11024 1.57214 0
M  V30 6676 C 614.322 -0.857077 2.18383 0
M  V30 6677 C 615.338 -1.29915 1.1575 0
M  V30 6678 O 616.514 -1.36394 1.48184 0
M  V30 6679 C 613.579 -2.09264 2.76423 0
M  V30 6680 C 612.64 -1.70333 3.94063 0
M  V30 6681 C 611.873 -2.87999 4.49324 0
M  V30 6682 O 612.096 -4.0317 4.03497 0
M  V30 6683 O 611.03 -2.6559 5.40135 0
M  V30 6684 H 614.856 -0.366561 3.0148 0
M  V30 6685 H 612.441 -0.114914 1.48957 0
M  V30 6686 H 614.323 -2.81644 3.13456 0
M  V30 6687 H 612.998 -2.57339 1.96363 0
M  V30 6688 H 611.905 -0.950864 3.61814 0
M  V30 6689 H 613.238 -1.27007 4.75531 0
M  V30 6690 N 614.89 -1.56749 -0.16351 0
M  V30 6691 C 615.837 -1.97011 -1.2023 0
M  V30 6692 C 616.807 -0.835186 -1.43575 0
M  V30 6693 O 617.992 -1.09594 -1.56185 0
M  V30 6694 C 615.132 -2.34186 -2.53478 0
M  V30 6695 C 614.245 -3.60893 -2.37446 0
M  V30 6696 C 613.38 -3.87245 -3.63614 0
M  V30 6697 C 612.419 -5.07274 -3.42548 0
M  V30 6698 N 611.556 -5.29719 -4.60806 0
M  V30 6699 H 616.396 -2.85562 -0.851958 0
M  V30 6700 H 613.933 -1.41292 -0.409257 0
M  V30 6701 H 615.891 -2.53764 -3.31149 0
M  V30 6702 H 614.521 -1.48736 -2.86492 0
M  V30 6703 H 613.573 -3.49185 -1.50911 0
M  V30 6704 H 614.885 -4.48722 -2.1783 0
M  V30 6705 H 614.039 -4.07232 -4.49719 0
M  V30 6706 H 612.778 -2.97806 -3.86216 0
M  V30 6707 H 611.783 -4.87177 -2.5483 0
M  V30 6708 H 613.008 -5.98251 -3.2136 0
M  V30 6709 H 610.954 -4.43233 -4.83612 0
M  V30 6710 H 610.871 -6.11786 -4.44132 0
M  V30 6711 H 612.139 -5.54192 -5.48171 0
M  V30 6712 N 616.368 0.432326 -1.51554 0
M  V30 6713 C 617.3 1.54357 -1.6943 0
M  V30 6714 C 618.313 1.52311 -0.574897 0
M  V30 6715 O 619.502 1.56997 -0.849369 0
M  V30 6716 C 616.602 2.93273 -1.69836 0
M  V30 6717 C 615.775 3.19768 -2.98442 0
M  V30 6718 C 614.834 4.38433 -2.90969 0
M  V30 6719 O 613.86 4.36842 -3.64908 0
M  V30 6720 N 615.062 5.42276 -2.07163 0
M  V30 6721 H 617.827 1.39426 -2.65293 0
M  V30 6722 H 615.388 0.621331 -1.49503 0
M  V30 6723 H 617.38 3.70687 -1.62399 0
M  V30 6724 H 615.95 3.01777 -0.815456 0
M  V30 6725 H 615.17 2.30607 -3.19709 0
M  V30 6726 H 616.458 3.343 -3.83563 0
M  V30 6727 H 615.856 5.46407 -1.46477 0
M  V30 6728 H 614.413 6.18524 -2.05601 0
M  V30 6729 N 617.846 1.41785 0.688094 0
M  V30 6730 C 619.071 1.45117 1.48175 0
M  V30 6731 C 619.496 0.060129 1.88004 0
M  V30 6732 O 618.854 -0.938385 1.55126 0
M  V30 6733 C 618.902 2.37224 2.71583 0
M  V30 6734 O 618.006 1.83443 3.69354 0
M  V30 6735 H 617.347 0.492208 0.445676 0
M  V30 6736 H 619.877 1.86329 0.845145 0
M  V30 6737 H 619.887 2.53353 3.19806 0
M  V30 6738 H 618.562 3.38293 2.41931 0
M  V30 6739 H 617.139 1.76802 3.28322 0
M  V30 6740 N 619.324 -0.923095 1.27737 0
M  V30 6741 C 620.564 -1.6858 1.15586 0
M  V30 6742 C 620.928 -1.89758 -0.292562 0
M  V30 6743 O 622.129 -2.6339 -0.536583 0
M  V30 6744 C 620.4 -3.01275 1.92271 0
M  V30 6745 S 621.959 -3.924 1.96387 0
M  V30 6746 H 618.777 -0.579069 0.412554 0
M  V30 6747 H 621.379 -1.09866 1.61709 0
M  V30 6748 H 620.083 -2.83556 2.96689 0
M  V30 6749 H 619.614 -3.6504 1.46661 0
M  V30 6750 H 621.629 -4.84667 1.06361 0
M  V30 6751 N 620.802 -1.09834 -1.13024 0
M  V30 6752 C 621.732 -0.763451 -2.20666 0
M  V30 6753 C 622.713 0.260778 -1.68089 0
M  V30 6754 O 623.898 0.127915 -1.93778 0
M  V30 6755 C 621.028 -0.187744 -3.46792 0
M  V30 6756 C 619.982 -1.14196 -4.12484 0
M  V30 6757 C 619.308 -0.427755 -5.32986 0
M  V30 6758 C 620.608 -2.48607 -4.59338 0
M  V30 6759 H 622.302 -1.66347 -2.48936 0
M  V30 6760 H 619.848 -0.801261 -1.19649 0
M  V30 6761 H 621.801 0.0586375 -4.21359 0
M  V30 6762 H 620.525 0.747485 -3.17931 0
M  V30 6763 H 619.184 -1.37369 -3.3989 0
M  V30 6764 H 618.832 0.511747 -5.0039 0
M  V30 6765 H 618.532 -1.06403 -5.77886 0
M  V30 6766 H 620.056 -0.189772 -6.10305 0
M  V30 6767 H 621.47 -2.29618 -5.25308 0
M  V30 6768 H 619.867 -3.08062 -5.14993 0
M  V30 6769 H 620.937 -3.09062 -3.73642 0
M  V30 6770 N 622.28 1.30327 -0.886154 0
M  V30 6771 C 623.227 2.28099 -0.352069 0
M  V30 6772 C 624.197 1.56433 0.558397 0
M  V30 6773 O 625.382 1.84492 0.486561 0
M  V30 6774 C 622.522 3.42456 0.426346 0
M  V30 6775 C 621.635 4.28938 -0.513472 0
M  V30 6776 C 620.77 5.30458 0.280657 0
M  V30 6777 C 619.809 6.0859 -0.654556 0
M  V30 6778 N 618.946 7.02022 0.104322 0
M  V30 6779 H 623.786 2.73166 -1.19097 0
M  V30 6780 H 621.323 1.34367 -0.598662 0
M  V30 6781 H 623.281 4.07518 0.893587 0
M  V30 6782 H 621.911 2.98455 1.22981 0
M  V30 6783 H 620.963 3.64173 -1.09921 0
M  V30 6784 H 622.275 4.83399 -1.2299 0
M  V30 6785 H 621.429 6.01273 0.8097 0
M  V30 6786 H 620.168 4.76693 1.03029 0
M  V30 6787 H 619.173 5.36651 -1.19522 0
M  V30 6788 H 620.398 6.64443 -1.4033 0
M  V30 6789 H 618.344 6.50645 0.836472 0
M  V30 6790 H 618.261 7.53979 -0.552453 0
M  V30 6791 H 619.529 7.77077 0.614069 0
M  V30 6792 N 623.758 0.647228 1.43697 0
M  V30 6793 C 625.005 0.158188 2.01881 0
M  V30 6794 C 625.333 -1.22573 1.51017 0
M  V30 6795 O 624.588 -1.83086 0.69122 0
M  V30 6796 C 624.887 0.111481 3.57226 0
M  V30 6797 C 624.553 1.43633 4.27411 0
M  V30 6798 C 623.215 1.79915 4.463 0
M  V30 6799 C 625.567 2.31011 4.67208 0
M  V30 6800 C 622.895 3.03251 5.02251 0
M  V30 6801 C 625.247 3.53633 5.24525 0
M  V30 6802 C 623.911 3.90118 5.41631 0
M  V30 6803 H 623.181 0.0578851 0.738736 0
M  V30 6804 H 625.828 0.836746 1.72252 0
M  V30 6805 H 624.133 -0.650507 3.86362 0
M  V30 6806 H 625.83 -0.283682 3.99995 0
M  V30 6807 H 622.42 1.14403 4.1305 0
M  V30 6808 H 626.604 2.04272 4.52313 0
M  V30 6809 H 621.86 3.31575 5.13681 0
M  V30 6810 H 626.034 4.21561 5.5431 0
M  V30 6811 H 623.661 4.85768 5.84751 0
M  V30 6812 N 625.236 -1.5273 0.388769 0
M  V30 6813 C 626.183 -2.26437 -0.446639 0
M  V30 6814 C 627.153 -1.28025 -1.05824 0
M  V30 6815 O 628.338 -1.56852 -1.08637 0
M  V30 6816 C 625.478 -3.07407 -1.56828 0
M  V30 6817 C 624.591 -4.20747 -0.979589 0
M  V30 6818 C 623.726 -4.89113 -2.07224 0
M  V30 6819 C 622.765 -5.94447 -1.45942 0
M  V30 6820 N 621.902 -6.56411 -2.49135 0
M  V30 6821 H 626.742 -2.97404 0.18837 0
M  V30 6822 H 624.279 -1.46727 0.104725 0
M  V30 6823 H 626.237 -3.52642 -2.22934 0
M  V30 6824 H 624.867 -2.3865 -2.17361 0
M  V30 6825 H 623.919 -3.7983 -0.208151 0
M  V30 6826 H 625.231 -4.9637 -0.491747 0
M  V30 6827 H 624.385 -5.3765 -2.81101 0
M  V30 6828 H 623.124 -4.13013 -2.59368 0
M  V30 6829 H 622.129 -5.4525 -0.705894 0
M  V30 6830 H 623.354 -6.7248 -0.945932 0
M  V30 6831 H 621.3 -5.83152 -3.00449 0
M  V30 6832 H 621.217 -7.27645 -2.05105 0
M  V30 6833 H 622.485 -7.09592 -3.22644 0
M  V30 6834 N 626.714 -0.118576 -1.57153 0
M  V30 6835 C 627.677 0.817464 -2.14127 0
M  V30 6836 C 628.677 1.1949 -1.07604 0
M  V30 6837 O 629.867 1.12048 -1.33382 0
M  V30 6838 C 626.999 2.10541 -2.68115 0
M  V30 6839 H 628.192 0.322339 -2.98163 0
M  V30 6840 H 625.745 0.130655 -1.55753 0
M  V30 6841 H 626.48 2.64485 -1.87665 0
M  V30 6842 H 626.265 1.84425 -3.4602 0
M  V30 6843 H 627.755 2.77453 -3.12105 0
M  V30 6844 N 628.193 1.56834 0.155195 0
M  V30 6845 C 629.141 1.98584 1.21107 0
M  V30 6846 C 630.135 0.876987 1.44932 0
M  V30 6847 O 631.341 1.06215 1.45322 0
M  V30 6848 H 627.716 0.632039 0.407469 0
M  V30 6849 H 629.687 2.86561 0.832195 0
M  V30 6850 C 628.436 2.37555 2.53895 0
M  V30 6851 H 627.759 3.22428 2.3639 0
M  V30 6852 H 629.199 2.70598 3.26424 0
M  V30 6853 C 627.658 1.22507 3.13837 0
M  V30 6854 O 628.188 0.521388 3.98302 0
M  V30 6855 N 626.394 0.991444 2.73164 0
M  V30 6856 H 625.941 1.56544 2.04577 0
M  V30 6857 H 625.899 0.223546 3.13604 0
M  V30 6858 N 629.671 -0.424282 1.51781 0
M  V30 6859 C 630.948 -1.18464 1.55646 0
M  V30 6860 C 631.328 -2.08529 0.328438 0
M  V30 6861 O 630.676 -2.17969 -0.685693 0
M  V30 6862 C 630.886 -1.97514 2.87731 0
M  V30 6863 C 632.234 -2.54106 3.40169 0
M  V30 6864 O 633.258 -2.07711 2.89369 0
M  V30 6865 O 632.117 -3.38759 4.28841 0
M  V30 6866 H 629.211 -0.540055 0.626314 0
M  V30 6867 H 631.757 -0.432291 1.64102 0
M  V30 6868 H 630.529 -1.31444 3.68562 0
M  V30 6869 H 630.152 -2.79787 2.82498 0
M  V30 6870 N 631.149 -1.42148 -0.680565 0
M  V30 6871 C 632.099 -1.41634 -1.78672 0
M  V30 6872 C 633.083 -0.288494 -1.58293 0
M  V30 6873 O 634.275 -0.530295 -1.68869 0
M  V30 6874 C 631.404 -1.31558 -3.17092 0
M  V30 6875 C 630.49 -2.49265 -3.43115 0
M  V30 6876 N 630.881 -3.74702 -3.39753 0
M  V30 6877 C 629.179 -2.43401 -3.73727 0
M  V30 6878 C 629.88 -4.52854 -3.651 0
M  V30 6879 N 628.856 -3.83181 -3.85582 0
M  V30 6880 H 632.658 -2.3652 -1.74458 0
M  V30 6881 H 630.172 -1.36415 -0.881171 0
M  V30 6882 H 632.169 -1.29272 -3.96351 0
M  V30 6883 H 630.829 -0.376696 -3.22508 0
M  V30 6884 H 631.84 -4.07378 -3.19787 0
M  V30 6885 H 628.517 -1.58062 -3.86423 0
M  V30 6886 H 629.907 -5.61827 -3.6851 0
M  V30 6887 N 632.627 0.916307 -1.28225 0
M  V30 6888 C 633.875 1.6619 -1.15002 0
M  V30 6889 C 634.196 1.92642 0.302329 0
M  V30 6890 O 633.466 1.54076 1.20985 0
M  V30 6891 H 632.046 0.615964 -0.422608 0
M  V30 6892 H 634.708 1.09963 -1.60917 0
M  V30 6893 H 633.804 2.62533 -1.68769 0
M  V30 6894 N 634.105 1.10431 1.1244 0
M  V30 6895 C 635.335 0.867612 1.87499 0
M  V30 6896 C 635.743 -0.585475 1.79913 0
M  V30 6897 O 635.086 -1.41539 1.171 0
M  V30 6898 C 635.148 1.2374 3.37533 0
M  V30 6899 C 634.812 2.69751 3.68895 0
M  V30 6900 C 635.809 3.67988 3.67261 0
M  V30 6901 C 633.494 3.06135 3.98229 0
M  V30 6902 C 635.488 5.00632 3.9452 0
M  V30 6903 C 633.175 4.38967 4.25149 0
M  V30 6904 C 634.173 5.36025 4.23281 0
M  V30 6905 O 633.861 6.66465 4.49533 0
M  V30 6906 H 633.593 0.311196 0.600111 0
M  V30 6907 H 636.147 1.47257 1.43194 0
M  V30 6908 H 634.377 0.575537 3.82393 0
M  V30 6909 H 636.066 0.978187 3.93937 0
M  V30 6910 H 636.832 3.41224 3.44661 0
M  V30 6911 H 632.711 2.31214 3.98825 0
M  V30 6912 H 636.255 5.7638 3.92978 0
M  V30 6913 H 632.152 4.6547 4.47223 0
M  V30 6914 H 632.92 6.72095 4.67152 0
M  V30 6915 N 635.583 -1.29855 0.893053 0
M  V30 6916 C 636.86 -1.90694 0.435336 0
M  V30 6917 C 637.24 -1.8111 -1.08454 0
M  V30 6918 O 636.588 -1.23352 -1.92345 0
M  V30 6919 C 636.798 -3.36033 0.942472 0
M  V30 6920 C 638.146 -4.13083 0.982226 0
M  V30 6921 O 639.17 -3.4491 0.889686 0
M  V30 6922 O 638.029 -5.34896 1.12022 0
M  V30 6923 H 635.123 -0.815978 0.134567 0
M  V30 6924 H 637.669 -1.38367 0.982484 0
M  V30 6925 H 636.441 -3.37132 1.9864 0
M  V30 6926 H 636.064 -3.95828 0.374952 0
M  V30 6927 N 637.061 -0.65484 -1.43351 0
M  V30 6928 C 638.009 0.0476784 -2.32551 0
M  V30 6929 C 639.003 0.811403 -1.48703 0
M  V30 6930 O 640.209 0.721621 -1.64902 0
M  V30 6931 H 636.584 0.0342038 -0.751222 0
M  V30 6932 H 638.555 -0.722342 -2.89525 0
M  V30 6933 C 637.304 0.999251 -3.33032 0
M  V30 6934 H 636.627 0.421005 -3.97577 0
M  V30 6935 H 638.067 1.45986 -3.98076 0
M  V30 6936 C 636.526 2.09606 -2.63756 0
M  V30 6937 O 637.056 3.18004 -2.4543 0
M  V30 6938 N 635.262 1.86207 -2.23103 0
M  V30 6939 H 634.809 0.980555 -2.38208 0
M  V30 6940 H 634.767 2.59787 -1.77081 0
M  V30 6941 N 638.539 1.52521 -0.396863 0
M  V30 6942 C 639.786 2.01672 0.182898 0
M  V30 6943 C 640.114 1.28302 1.46181 0
M  V30 6944 O 639.369 0.374118 1.92091 0
M  V30 6945 C 639.668 3.5403 0.489677 0
M  V30 6946 C 639.334 4.45456 -0.698581 0
M  V30 6947 C 637.996 4.70166 -1.02454 0
M  V30 6948 C 640.348 4.99354 -1.49316 0
M  V30 6949 C 637.676 5.46024 -2.1465 0
M  V30 6950 C 640.028 5.76439 -2.60579 0
M  V30 6951 C 638.692 5.99426 -2.93675 0
M  V30 6952 H 637.962 0.737971 0.066927 0
M  V30 6953 H 640.609 1.83853 -0.535764 0
M  V30 6954 H 638.914 3.69963 1.28976 0
M  V30 6955 H 640.611 3.8956 0.951018 0
M  V30 6956 H 637.201 4.26392 -0.434525 0
M  V30 6957 H 641.385 4.80182 -1.25457 0
M  V30 6958 H 636.641 5.62046 -2.40654 0
M  V30 6959 H 640.815 6.17202 -3.22544 0
M  V30 6960 H 638.442 6.57988 -3.80731 0
M  V30 6961 N 640.017 0.126909 1.57088 0
M  V30 6962 C 641.433 -0.229641 1.57939 0
M  V30 6963 C 641.633 -1.66145 1.1401 0
M  V30 6964 O 640.689 -2.3843 0.831119 0
M  V30 6965 C 642.002 0.0108648 3.00698 0
M  V30 6966 C 643.55 -0.054418 3.12953 0
M  V30 6967 C 644.025 0.158497 4.57726 0
M  V30 6968 N 645.516 0.104735 4.63082 0
M  V30 6969 C 646.251 0.24427 5.72879 0
M  V30 6970 N 645.747 0.440415 6.91399 0
M  V30 6971 N 647.54 0.183286 5.61801 0
M  V30 6972 H 639.691 1.06203 1.83942 0
M  V30 6973 H 641.954 0.418834 0.85046 0
M  V30 6974 H 641.66 1.00102 3.37154 0
M  V30 6975 H 641.534 -0.717512 3.70313 0
M  V30 6976 H 643.921 -1.0351 2.7635 0
M  V30 6977 H 644.002 0.705967 2.45865 0
M  V30 6978 H 643.646 1.13619 4.95028 0
M  V30 6979 H 643.576 -0.62197 5.22914 0
M  V30 6980 H 646.067 -0.0430298 3.77876 0
M  V30 6981 H 646.38 0.537536 7.70928 0
M  V30 6982 H 644.725 0.476488 6.93365 0
M  V30 6983 H 647.916 0.0309561 4.6809 0
M  V30 6984 H 648.089 0.295471 6.47326 0
M  V30 6985 N 641.495 -1.56914 -0.146875 0
M  V30 6986 C 642.72 -1.87881 -0.878386 0
M  V30 6987 C 643.145 -0.715945 -1.73942 0
M  V30 6988 O 642.503 0.334447 -1.78189 0
M  V30 6989 C 642.551 -3.17431 -1.71084 0
M  V30 6990 O 641.655 -3.01374 -2.81509 0
M  V30 6991 H 640.996 -0.617289 -0.244644 0
M  V30 6992 H 643.526 -2.04136 -0.137654 0
M  V30 6993 H 643.536 -3.49455 -2.10582 0
M  V30 6994 H 642.211 -4.01671 -1.07856 0
M  V30 6995 H 640.788 -2.80758 -2.45416 0
M  V30 6996 N 642.974 0.416227 -1.52004 0
M  V30 6997 C 644.199 1.19029 -1.69843 0
M  V30 6998 C 644.624 1.83708 -0.404103 0
M  V30 6999 O 643.982 1.69711 0.637787 0
M  V30 7000 C 644.03 2.23439 -2.83032 0
M  V30 7001 O 643.134 3.29419 -2.48106 0
M  V30 7002 H 642.475 0.347785 -0.565634 0
M  V30 7003 H 645.005 0.488871 -1.98674 0
M  V30 7004 H 645.015 2.67884 -3.07737 0
M  V30 7005 H 643.69 1.75745 -3.76944 0
M  V30 7006 H 642.267 2.90303 -2.34048 0
M  V30 7007 N 644.452 1.42507 0.673017 0
M  V30 7008 C 645.4 1.46362 1.80779 0
M  V30 7009 C 646.394 0.339166 1.6597 0
M  V30 7010 O 647.6 0.512262 1.72557 0
M  V30 7011 H 643.975 0.458433 0.596107 0
M  V30 7012 H 645.946 2.41953 1.74646 0
M  V30 7013 C 644.695 1.38462 3.18941 0
M  V30 7014 H 644.018 2.24283 3.30964 0
M  V30 7015 H 645.458 1.45221 3.98355 0
M  V30 7016 C 643.917 0.0996354 3.36753 0
M  V30 7017 O 644.447 -0.846894 3.92671 0
M  V30 7018 N 642.653 0.016211 2.90595 0
M  V30 7019 H 642.2 0.78725 2.45276 0
M  V30 7020 H 642.158 -0.84291 3.0289 0
M  V30 7021 N 645.93 -0.909495 1.28709 0
M  V30 7022 C 646.877 -2.01245 1.13 0
M  V30 7023 C 647.847 -1.6608 0.0259684 0
M  V30 7024 O 649.032 -1.89835 0.191687 0
M  V30 7025 C 646.172 -3.35644 0.802315 0
M  V30 7026 C 645.285 -3.83653 1.98582 0
M  V30 7027 C 644.42 -5.06582 1.59837 0
M  V30 7028 C 643.459 -5.46934 2.74827 0
M  V30 7029 N 642.596 -6.61053 2.36546 0
M  V30 7030 H 647.436 -2.14013 2.0737 0
M  V30 7031 H 644.973 -1.0482 1.03205 0
M  V30 7032 H 646.931 -4.12963 0.593057 0
M  V30 7033 H 645.561 -3.22631 -0.104457 0
M  V30 7034 H 644.613 -3.02454 2.30708 0
M  V30 7035 H 645.925 -4.09515 2.84779 0
M  V30 7036 H 645.079 -5.91457 1.35143 0
M  V30 7037 H 643.818 -4.82537 0.707753 0
M  V30 7038 H 642.823 -4.60599 3.00215 0
M  V30 7039 H 644.048 -5.72965 3.64538 0
M  V30 7040 H 641.994 -6.3863 1.49959 0
M  V30 7041 H 641.911 -6.86662 3.16277 0
M  V30 7042 H 643.179 -7.49221 2.15146 0
M  V30 7043 N 647.408 -1.11026 -1.11852 0
M  V30 7044 C 648.638 -0.877544 -1.87037 0
M  V30 7045 C 649.046 0.575925 -1.80221 0
M  V30 7046 O 648.389 1.40916 -1.17849 0
M  V30 7047 C 648.451 -1.25529 -3.36872 0
M  V30 7048 C 648.115 -2.71704 -3.67459 0
M  V30 7049 C 649.112 -3.69931 -3.65304 0
M  V30 7050 C 646.797 -3.08243 -3.966 0
M  V30 7051 C 648.791 -5.02717 -3.9186 0
M  V30 7052 C 646.478 -4.41215 -4.22815 0
M  V30 7053 C 647.476 -5.38262 -4.20432 0
M  V30 7054 O 647.164 -6.68839 -4.45992 0
M  V30 7055 H 646.896 -0.314374 -0.598452 0
M  V30 7056 H 649.45 -1.48015 -1.42411 0
M  V30 7057 H 647.68 -0.595808 -3.82082 0
M  V30 7058 H 649.369 -0.999064 -3.93413 0
M  V30 7059 H 650.135 -3.43047 -3.42846 0
M  V30 7060 H 646.014 -2.33326 -3.97593 0
M  V30 7061 H 649.558 -5.78456 -3.89916 0
M  V30 7062 H 645.455 -4.67835 -4.44748 0
M  V30 7063 H 646.223 -6.74563 -4.63581 0
M  V30 7064 N 648.886 1.2938 -0.899927 0
M  V30 7065 C 650.111 2.00228 -0.540692 0
M  V30 7066 C 650.536 1.66909 0.867359 0
M  V30 7067 O 649.894 0.893824 1.57735 0
M  V30 7068 C 649.942 3.52921 -0.740232 0
M  V30 7069 O 649.046 4.11879 0.207154 0
M  V30 7070 H 648.387 0.629505 -0.211233 0
M  V30 7071 H 650.917 1.6487 -1.21158 0
M  V30 7072 H 650.927 4.0287 -0.644973 0
M  V30 7073 H 649.602 3.76508 -1.76677 0
M  V30 7074 H 648.179 3.72845 0.0643315 0
M  V30 7075 N 650.364 0.662433 1.43002 0
M  V30 7076 C 651.589 0.186003 2.06564 0
M  V30 7077 C 652.014 -1.14314 1.49379 0
M  V30 7078 O 651.372 -1.70824 0.607346 0
M  V30 7079 C 651.42 0.118269 3.60406 0
M  V30 7080 O 650.524 -0.916859 4.02079 0
M  V30 7081 H 649.865 0.0990981 0.656563 0
M  V30 7082 H 652.395 0.907958 1.8335 0
M  V30 7083 H 652.405 -0.0619981 4.07953 0
M  V30 7084 H 651.08 1.08849 4.01403 0
M  V30 7085 H 649.657 -0.708635 3.66105 0
M  V30 7086 N 651.842 -1.52309 0.404946 0
M  V30 7087 C 653.067 -2.06666 -0.1743 0
M  V30 7088 C 653.492 -1.27341 -1.38441 0
M  V30 7089 O 652.85 -0.302539 -1.78758 0
M  V30 7090 C 652.898 -3.57014 -0.507262 0
M  V30 7091 O 652.002 -3.80144 -1.59889 0
M  V30 7092 H 651.343 -0.663807 -0.0160273 0
M  V30 7093 H 653.873 -1.96297 0.576937 0
M  V30 7094 H 653.883 -4.00724 -0.767098 0
M  V30 7095 H 652.558 -4.14184 0.377368 0
M  V30 7096 H 651.135 -3.48316 -1.33155 0
M  V30 7097 O 653.359 -0.275866 -1.59126 0
M  V30 7098 H 654.05 0.293949 -1.91457 0
M  V30 END ATOM
M  V30 BEGIN BOND
M  V30 END BOND
M  V30 END CTAB
M  END
$$$$
