drugbank_target|Q37875 Lysozyme (DB04272)
 OpenBabel12092120293D

  0  0  0     0  0            999 V3000
M  V30 BEGIN CTAB
M  V30 COUNTS 2818 2842 0 0 0
M  V30 BEGIN ATOM
M  V30 1 H -0.908 1.98254 -0.117106 0
M  V30 2 N 0 1.576 0 0
M  V30 3 C 0.933 2.03868 1.02534 0
M  V30 4 C 1.911 0.928543 1.3348 0
M  V30 5 O 3.095 1.19667 1.45644 0
M  V30 6 C 0.222 2.43627 2.35294 0
M  V30 7 C -0.732 3.65373 2.2001 0
M  V30 8 S 0.101 5.13292 1.52614 0
M  V30 9 C 1.257 5.56322 2.86805 0
M  V30 10 H 1.49 2.90518 0.631377 0
M  V30 11 H -0.977 1.52953 0.210867 0
M  V30 12 H 0.981 2.67203 3.11629 0
M  V30 13 H -0.358 1.57376 2.7183 0
M  V30 14 H -1.165 3.90944 3.18086 0
M  V30 15 H -1.563 3.418 1.51819 0
M  V30 16 H 0.729 5.58782 3.83104 0
M  V30 17 H 1.672 6.56266 2.65933 0
M  V30 18 H 2.08 4.83886 2.90714 0
M  V30 19 N 1.4781 -0.272755 1.55222 0
M  V30 20 C 2.4251 -1.33716 1.88119 0
M  V30 21 C 3.3951 -1.49066 0.73271 0
M  V30 22 O 4.5801 -1.63469 0.984002 0
M  V30 23 C 1.7201 -2.69238 2.15882 0
M  V30 24 C 0.8331 -2.62108 3.43399 0
M  V30 25 C -0.0319 -3.89811 3.60861 0
M  V30 26 C -0.9929 -3.77193 4.8207 0
M  V30 27 N -1.8559 -4.9673 4.96189 0
M  V30 28 H 2.9841 -1.04962 2.78903 0
M  V30 29 H 0.5211 -0.507088 1.38083 0
M  V30 30 H 2.4791 -3.48089 2.29978 0
M  V30 31 H 1.1091 -2.96194 1.28331 0
M  V30 32 H 0.1611 -1.74967 3.37773 0
M  V30 33 H 1.4731 -2.48685 4.32386 0
M  V30 34 H 0.6271 -4.77103 3.74777 0
M  V30 35 H -0.6339 -4.06102 2.7006 0
M  V30 36 H -1.6289 -2.88284 4.68159 0
M  V30 37 H -0.4039 -3.62421 5.74307 0
M  V30 38 H -2.4579 -5.13431 4.08319 0
M  V30 39 H -2.5409 -4.85839 5.79221 0
M  V30 40 H -1.2729 -5.85594 5.1449 0
M  V30 41 N 2.9562 -1.48159 -0.537278 0
M  V30 42 C 4.2042 -1.55497 -1.29094 0
M  V30 43 C 4.5252 -0.227454 -1.93669 0
M  V30 44 O 3.7952 0.750386 -1.80959 0
M  V30 45 H 2.3752 -0.572832 -0.47945 0
M  V30 46 H 5.0372 -1.84579 -0.625818 0
M  V30 47 H 4.1332 -2.33216 -2.07405 0
M  V30 48 N 4.4343 0.785586 -1.36625 0
M  V30 49 C 5.3813 1.89838 -1.31264 0
M  V30 50 C 6.3513 1.65115 -0.180633 0
M  V30 51 O 7.5363 1.87222 -0.36777 0
M  V30 52 C 4.6763 3.26706 -1.11163 0
M  V30 53 C 3.7893 3.63476 -2.33472 0
M  V30 54 C 2.9243 4.89481 -2.06353 0
M  V30 55 C 1.9633 5.18941 -3.24602 0
M  V30 56 N 1.1003 6.36131 -2.97123 0
M  V30 57 H 5.9403 1.93756 -2.26413 0
M  V30 58 H 3.4773 0.947454 -1.12524 0
M  V30 59 H 5.4353 4.05639 -0.975337 0
M  V30 60 H 4.0653 3.222 -0.196674 0
M  V30 61 H 3.1173 2.79636 -2.57891 0
M  V30 62 H 4.4293 3.81193 -3.21704 0
M  V30 63 H 3.5833 5.76288 -1.89675 0
M  V30 64 H 2.3223 4.73841 -1.15437 0
M  V30 65 H 1.3273 4.30615 -3.41834 0
M  V30 66 H 2.5523 5.36498 -4.16349 0
M  V30 67 H 0.4983 6.21875 -2.08823 0
M  V30 68 H 0.4153 6.54198 -3.78894 0
M  V30 69 H 1.6833 7.2591 -2.84033 0
M  V30 70 N 5.9124 1.20967 1.01018 0
M  V30 71 C 7.1404 1.04956 1.78303 0
M  V30 72 C 7.5554 -0.400915 1.84494 0
M  V30 73 O 6.9124 -1.27826 1.30257 0
M  V30 74 C 6.9634 1.63403 3.22462 0
M  V30 75 O 6.6844 3.02775 3.16637 0
M  V30 76 C 8.1854 1.52432 4.16268 0
M  V30 77 H 5.4054 0.368858 0.560522 0
M  V30 78 H 7.9494 1.60193 1.27116 0
M  V30 79 H 6.1044 1.1227 3.70775 0
M  V30 80 H 6.5184 3.30626 4.07169 0
M  V30 81 H 7.9924 1.98078 5.15237 0
M  V30 82 H 8.4694 0.477875 4.36592 0
M  V30 83 H 9.0754 2.02787 3.73841 0
M  V30 84 N 7.3905 -1.2043 1.01659 0
M  V30 85 C 8.3535 -2.21433 0.591616 0
M  V30 86 C 9.3535 -1.57203 -0.338226 0
M  V30 87 O 10.5435 -1.73737 -0.126918 0
M  V30 88 C 7.6755 -3.40628 -0.136058 0
M  V30 89 H 8.8685 -2.60545 1.48514 0
M  V30 90 H 6.4215 -1.33893 0.806379 0
M  V30 91 H 7.1565 -3.07019 -1.04449 0
M  V30 92 H 6.9415 -3.88475 0.531917 0
M  V30 93 H 8.4315 -4.15475 -0.420735 0
M  V30 94 N 8.8686 -0.792821 -1.36206 0
M  V30 95 C 9.8316 -0.199459 -2.2833 0
M  V30 96 C 10.8316 0.605189 -1.48977 0
M  V30 97 O 12.0216 0.425685 -1.68919 0
M  V30 98 C 9.1536 0.723523 -3.33134 0
M  V30 99 H 10.3466 -1.01181 -2.82316 0
M  V30 100 H 7.8996 -0.562485 -1.45828 0
M  V30 101 H 8.6346 1.56008 -2.84309 0
M  V30 102 H 8.4196 0.148436 -3.91819 0
M  V30 103 H 9.9096 1.13344 -4.01924 0
M  V30 104 N 10.3467 1.47872 -0.545128 0
M  V30 105 C 11.5947 2.02093 -0.016553 0
M  V30 106 C 11.9157 1.42305 1.3332 0
M  V30 107 O 11.1857 0.593853 1.86682 0
M  V30 108 H 9.7657 0.746993 -0.00313038 0
M  V30 109 H 12.4277 1.81414 -0.712397 0
M  V30 110 H 11.5237 3.11996 0.0805422 0
M  V30 111 N 11.8248 0.280983 1.55075 0
M  V30 112 C 13.0728 -0.333455 1.9933 0
M  V30 113 C 13.3938 -1.55937 1.17085 0
M  V30 114 O 12.6638 -1.94143 0.261805 0
M  V30 115 H 11.2438 -0.126197 0.736263 0
M  V30 116 H 13.9058 0.387678 1.91005 0
M  V30 117 H 13.0018 -0.619292 3.05894 0
M  V30 118 N 13.3029 -1.57598 0.00835791 0
M  V30 119 C 14.5509 -1.90551 -0.6734 0
M  V30 120 C 14.8719 -0.883301 -1.73847 0
M  V30 121 O 14.1419 0.0781442 -1.95744 0
M  V30 122 H 12.7219 -0.703312 -0.251717 0
M  V30 123 H 15.3839 -1.94833 0.0512592 0
M  V30 124 H 14.4799 -2.9056 -1.13935 0
M  V30 125 N 14.781 0.264519 -1.55364 0
M  V30 126 C 15.744 1.31046 -1.88042 0
M  V30 127 C 16.744 1.41943 -0.755569 0
M  V30 128 O 17.934 1.40947 -1.02369 0
M  V30 129 C 15.066 2.69067 -2.09323 0
M  V30 130 H 16.259 1.03297 -2.81549 0
M  V30 131 H 13.812 0.502989 -1.47986 0
M  V30 132 H 14.547 3.01982 -1.18226 0
M  V30 133 H 14.332 2.62542 -2.91229 0
M  V30 134 H 15.822 3.44623 -2.35848 0
M  V30 135 N 16.2591 1.48442 0.529413 0
M  V30 136 C 17.5081 1.55742 1.28169 0
M  V30 137 C 17.8211 0.236511 1.94165 0
M  V30 138 O 19.0271 0.187761 2.7085 0
M  V30 139 C 17.4831 2.74667 2.32564 0
M  V30 140 C 17.0911 4.13402 1.72636 0
M  V30 141 C 18.8351 2.9128 3.08798 0
M  V30 142 C 16.7421 5.23587 2.74975 0
M  V30 143 H 15.6721 0.579796 0.48203 0
M  V30 144 H 18.3231 1.74776 0.559056 0
M  V30 145 H 16.7051 2.49067 3.07866 0
M  V30 146 H 17.8791 4.49022 1.03519 0
M  V30 147 H 16.1941 4.0191 1.08892 0
M  V30 148 H 18.7911 3.70767 3.85274 0
M  V30 149 H 19.1341 2.00757 3.64695 0
M  V30 150 H 19.6671 3.16782 2.40611 0
M  V30 151 H 16.4061 6.16076 2.23897 0
M  V30 152 H 15.9261 4.92454 3.42417 0
M  V30 153 H 17.6051 5.51724 3.37949 0
M  V30 154 N 17.7372 -0.778329 1.37039 0
M  V30 155 C 18.9772 -1.54973 1.33276 0
M  V30 156 C 19.3412 -1.91816 -0.0839376 0
M  V30 157 O 20.5422 -2.6767 -0.246228 0
M  V30 158 C 18.8132 -2.78517 2.23971 0
M  V30 159 S 20.3722 -3.6865 2.37997 0
M  V30 160 H 17.1902 -0.530639 0.473226 0
M  V30 161 H 19.7922 -0.915806 1.72723 0
M  V30 162 H 18.4962 -2.4952 3.25835 0
M  V30 163 H 18.0272 -3.46875 1.85584 0
M  V30 164 H 20.0422 -4.70182 1.58567 0
M  V30 165 N 19.2153 -1.21501 -1.00376 0
M  V30 166 C 20.1783 -0.976927 -2.07337 0
M  V30 167 C 21.1783 0.0525322 -1.60714 0
M  V30 168 O 22.3683 -0.184869 -1.73216 0
M  V30 169 C 19.5003 -0.473423 -3.37597 0
M  V30 170 H 20.6933 -1.92587 -2.29892 0
M  V30 171 H 18.2463 -1.03217 -1.17371 0
M  V30 172 H 18.9813 0.480379 -3.20722 0
M  V30 173 H 18.7663 -1.216 -3.72768 0
M  V30 174 H 20.2563 -0.32675 -4.1632 0
M  V30 175 N 20.6934 1.19889 -1.02296 0
M  V30 176 C 21.9424 1.88743 -0.711257 0
M  V30 177 C 22.2554 1.80112 0.762817 0
M  V30 178 O 23.4614 2.44161 1.18733 0
M  V30 179 C 21.9174 3.38525 -1.22185 0
M  V30 180 C 21.5254 3.55727 -2.72328 0
M  V30 181 C 23.2694 4.12893 -0.985864 0
M  V30 182 C 21.1764 4.99369 -3.16835 0
M  V30 183 H 20.1064 0.706885 -0.262353 0
M  V30 184 H 22.7574 1.35586 -1.23648 0
M  V30 185 H 21.1394 3.91044 -0.624571 0
M  V30 186 H 22.3134 3.13564 -3.3766 0
M  V30 187 H 20.6284 2.94739 -2.9414 0
M  V30 188 H 23.2254 5.18813 -1.29374 0
M  V30 189 H 23.5684 4.16228 0.0775055 0
M  V30 190 H 24.1014 3.66494 -1.54684 0
M  V30 191 H 20.8404 5.01193 -4.22476 0
M  V30 192 H 20.3604 5.42317 -2.56228 0
M  V30 193 H 22.0394 5.67988 -3.09837 0
M  V30 194 N 22.1715 0.800033 1.35784 0
M  V30 195 C 23.1345 0.211565 2.28221 0
M  V30 196 C 24.1345 -0.59728 1.49296 0
M  V30 197 O 25.3245 -0.416721 1.69142 0
M  V30 198 C 22.4565 -0.705846 3.33513 0
M  V30 199 H 23.6495 1.02677 2.81776 0
M  V30 200 H 21.2025 0.570211 1.45528 0
M  V30 201 H 21.9375 -1.54498 2.85133 0
M  V30 202 H 21.7225 -0.127655 3.91892 0
M  V30 203 H 23.2125 -1.11211 4.02519 0
M  V30 204 N 23.6496 -1.47581 0.552962 0
M  V30 205 C 24.8956 -2.02782 0.0273648 0
M  V30 206 C 25.2286 -1.42687 -1.31734 0
M  V30 207 O 24.5036 -0.580897 -1.85623 0
M  V30 208 C 24.7866 -3.60031 -0.0702371 0
M  V30 209 C 24.6396 -4.30566 1.30126 0
M  V30 210 C 25.9586 -4.33028 -0.785771 0
M  V30 211 H 23.0776 -0.736912 0.0114185 0
M  V30 212 H 25.7196 -1.76056 0.714432 0
M  V30 213 H 23.8696 -3.82932 -0.655382 0
M  V30 214 H 25.5416 -4.19018 1.92929 0
M  V30 215 H 23.7846 -3.91086 1.87709 0
M  V30 216 H 24.4556 -5.39114 1.18573 0
M  V30 217 H 26.9316 -4.15095 -0.288982 0
M  V30 218 H 25.8076 -5.42695 -0.823013 0
M  V30 219 H 26.0686 -4.01945 -1.841 0
M  V30 220 N 25.1277 -0.289203 -1.54924 0
M  V30 221 C 26.0607 0.633823 -2.19221 0
M  V30 222 C 27.0387 1.14174 -1.15772 0
M  V30 223 O 28.2227 1.21211 -1.44361 0
M  V30 224 C 25.3497 1.86592 -2.82668 0
M  V30 225 C 24.3957 1.49227 -3.99542 0
M  V30 226 S 25.2287 0.558312 -5.32582 0
M  V30 227 C 26.3847 1.79847 -5.99505 0
M  V30 228 H 26.6177 0.0875416 -2.97171 0
M  V30 229 H 24.1507 -0.0733899 -1.54225 0
M  V30 230 H 26.1087 2.57305 -3.19851 0
M  V30 231 H 24.7697 2.38335 -2.04585 0
M  V30 232 H 23.9627 2.40945 -4.42676 0
M  V30 233 H 23.5647 0.865193 -3.63855 0
M  V30 234 H 25.8567 2.7406 -6.19595 0
M  V30 235 H 26.7997 1.4099 -6.93922 0
M  V30 236 H 27.2077 1.96982 -5.29016 0
M  V30 237 N 26.6058 1.57591 -0.0167156 0
M  V30 238 C 27.8548 1.90461 0.663877 0
M  V30 239 C 28.1678 0.893515 1.73999 0
M  V30 240 O 29.3738 1.11302 2.47637 0
M  V30 241 C 27.8298 3.38155 1.23204 0
M  V30 242 C 27.4378 4.47597 0.189866 0
M  V30 243 C 29.1818 3.80111 1.88986 0
M  V30 244 C 27.0888 5.86379 0.768964 0
M  V30 245 H 26.0188 0.710738 0.251729 0
M  V30 246 H 28.6698 1.83326 -0.0799926 0
M  V30 247 H 27.0518 3.40182 2.02712 0
M  V30 248 H 28.2258 4.57112 -0.581846 0
M  V30 249 H 26.5408 4.14766 -0.368475 0
M  V30 250 H 29.1378 4.81145 2.33247 0
M  V30 251 H 29.4808 3.14511 2.72743 0
M  V30 252 H 30.0138 3.80454 1.16187 0
M  V30 253 H 26.7528 6.55493 -0.0301957 0
M  V30 254 H 26.2728 5.80496 1.50945 0
M  V30 255 H 27.9518 6.34563 1.26251 0
M  V30 256 N 28.0839 -0.256276 1.55502 0
M  V30 257 C 29.3119 -1.00342 1.8094 0
M  V30 258 C 29.7269 -1.79307 0.59114 0
M  V30 259 O 29.0839 -1.77114 -0.440081 0
M  V30 260 C 29.1349 -1.94875 3.04476 0
M  V30 261 O 28.8559 -1.19107 4.21598 0
M  V30 262 C 30.3569 -2.81266 3.42644 0
M  V30 263 H 27.5769 -0.295685 0.602338 0
M  V30 264 H 30.1209 -0.281998 2.02546 0
M  V30 265 H 28.2759 -2.62457 2.84947 0
M  V30 266 H 28.6899 -1.82969 4.91551 0
M  V30 267 H 30.1639 -3.43362 4.32211 0
M  V30 268 H 30.6409 -3.51897 2.62802 0
M  V30 269 H 31.2469 -2.1915 3.64491 0
M  V30 270 N 29.562 -1.4872 -0.521534 0
M  V30 271 C 30.811 -1.56419 -1.27341 0
M  V30 272 C 31.124 -0.246805 -1.94037 0
M  V30 273 O 32.33 -0.202122 -2.70747 0
M  V30 274 C 30.786 -2.75896 -2.31105 0
M  V30 275 C 30.394 -4.14311 -1.70441 0
M  V30 276 C 32.138 -2.92913 -3.07249 0
M  V30 277 C 30.045 -5.25038 -2.72194 0
M  V30 278 H 28.975 -0.582344 -0.478949 0
M  V30 279 H 31.626 -1.75071 -0.549779 0
M  V30 280 H 30.008 -2.50697 -3.06541 0
M  V30 281 H 31.182 -4.49564 -1.01136 0
M  V30 282 H 29.497 -4.02482 -1.06759 0
M  V30 283 H 32.094 -3.72805 -3.83302 0
M  V30 284 H 32.437 -2.02689 -3.63625 0
M  V30 285 H 32.97 -3.18054 -2.38928 0
M  V30 286 H 29.709 -6.17255 -2.20627 0
M  V30 287 H 29.229 -4.94263 -3.39801 0
M  V30 288 H 30.908 -5.53508 -3.35019 0
M  V30 289 N 31.0401 0.771051 -1.3745 0
M  V30 290 C 32.2861 1.5319 -1.32894 0
M  V30 291 C 32.6191 1.94008 0.0862511 0
M  V30 292 O 31.8941 1.64124 1.04373 0
M  V30 293 C 32.1771 2.79648 -2.26868 0
M  V30 294 C 32.0301 2.45079 -3.77169 0
M  V30 295 C 33.3491 3.81583 -2.19277 0
M  V30 296 H 30.4681 0.555744 -0.484064 0
M  V30 297 H 33.1101 0.884492 -1.68157 0
M  V30 298 H 31.2601 3.34891 -1.96926 0
M  V30 299 H 32.9321 1.95745 -4.1771 0
M  V30 300 H 31.1751 1.77767 -3.95704 0
M  V30 301 H 31.8461 3.35478 -4.38359 0
M  V30 302 H 34.3221 3.35835 -2.45671 0
M  V30 303 H 33.1981 4.67787 -2.87171 0
M  V30 304 H 33.4591 4.25897 -1.18592 0
M  V30 305 N 32.5182 1.22032 0.997298 0
M  V30 306 C 33.4512 0.929735 2.08401 0
M  V30 307 C 34.4292 -0.125681 1.62114 0
M  V30 308 O 35.6132 0.00495409 1.88499 0
M  V30 309 C 32.7402 0.397488 3.3636 0
M  V30 310 C 31.7862 1.4369 4.01566 0
M  V30 311 S 32.6192 3.00874 4.42984 0
M  V30 312 C 33.7752 2.49276 5.74119 0
M  V30 313 H 34.0082 1.84998 2.32729 0
M  V30 314 H 31.5412 1.0509 1.13117 0
M  V30 315 H 33.4992 0.0969846 4.10385 0
M  V30 316 H 32.1602 -0.501571 3.10069 0
M  V30 317 H 31.3532 1.01427 4.93689 0
M  V30 318 H 30.9552 1.68588 3.33847 0
M  V30 319 H 33.2472 1.90242 6.50242 0
M  V30 320 H 34.1902 3.39872 6.21203 0
M  V30 321 H 34.5982 1.90714 5.31308 0
M  V30 322 N 33.9963 -1.19345 1.0293 0
M  V30 323 C 35.2443 -1.88665 0.724574 0
M  V30 324 C 35.5653 -1.80036 -0.749144 0
M  V30 325 O 34.8353 -1.2111 -1.53978 0
M  V30 326 H 33.4153 -0.698406 0.265025 0
M  V30 327 H 36.0773 -1.44885 1.30362 0
M  V30 328 H 35.1733 -2.94987 1.01926 0
M  V30 329 N 35.4744 -0.807222 -1.35358 0
M  V30 330 C 36.4224 -0.20614 -2.31685 0
M  V30 331 C 37.4164 0.644445 -1.56663 0
M  V30 332 O 38.6224 0.537538 -1.71786 0
M  V30 333 H 34.9974 -0.0479006 -0.750473 0
M  V30 334 H 36.9684 -1.03369 -2.79924 0
M  V30 335 C 35.7174 0.630212 -3.41941 0
M  V30 336 H 35.0404 -0.0149558 -3.99797 0
M  V30 337 H 36.4804 1.01716 -4.11619 0
M  V30 338 C 34.9394 1.79601 -2.85035 0
M  V30 339 O 35.4694 2.89351 -2.78637 0
M  V30 340 N 33.6754 1.60774 -2.42074 0
M  V30 341 H 33.2224 0.715009 -2.47478 0
M  V30 342 H 33.1804 2.38933 -2.04349 0
M  V30 343 N 36.9525 1.47285 -0.560781 0
M  V30 344 C 38.2005 2.02064 -0.0379868 0
M  V30 345 C 38.5215 1.43711 1.31803 0
M  V30 346 O 37.7915 0.61362 1.86042 0
M  V30 347 H 36.3715 0.746918 -0.0110531 0
M  V30 348 H 39.0335 1.80648 -0.731598 0
M  V30 349 H 38.1295 3.12064 0.0474463 0
M  V30 350 N 38.4306 0.297415 1.54768 0
M  V30 351 C 39.3786 -0.596051 2.24833 0
M  V30 352 C 40.3726 -1.13992 1.25308 0
M  V30 353 O 41.5786 -1.09098 1.4317 0
M  V30 354 H 37.9536 -0.210814 0.721846 0
M  V30 355 H 39.9246 0.0174667 2.98395 0
M  V30 356 C 38.6736 -1.75818 2.99972 0
M  V30 357 H 37.9966 -1.3489 3.76357 0
M  V30 358 H 39.4366 -2.35949 3.52284 0
M  V30 359 C 37.8956 -2.66014 2.06732 0
M  V30 360 O 38.4256 -3.67009 1.63302 0
M  V30 361 N 36.6316 -2.33669 1.72763 0
M  V30 362 H 36.1786 -1.51586 2.08277 0
M  V30 363 H 36.1366 -2.94285 1.10652 0
M  V30 364 N 39.9087 -1.5758 0.0250728 0
M  V30 365 C 41.1547 -1.91917 -0.655413 0
M  V30 366 C 41.4877 -0.901433 -1.72011 0
M  V30 367 O 40.7627 0.0764069 -1.9435 0
M  V30 368 C 41.0457 -3.36751 -1.27558 0
M  V30 369 C 40.8987 -4.49258 -0.220719 0
M  V30 370 C 42.2177 -3.81469 -2.19475 0
M  V30 371 H 39.3367 -0.697925 -0.23679 0
M  V30 372 H 41.9787 -1.89825 0.0815036 0
M  V30 373 H 40.1287 -3.38664 -1.90365 0
M  V30 374 H 41.8007 -4.59478 0.409601 0
M  V30 375 H 40.0437 -4.31415 0.454264 0
M  V30 376 H 40.7147 -5.47618 -0.694175 0
M  V30 377 H 43.1907 -3.81266 -1.66659 0
M  V30 378 H 42.0667 -4.83512 -2.59822 0
M  V30 379 H 42.3277 -3.16744 -3.08424 0
M  V30 380 N 41.3868 0.248026 -1.55636 0
M  V30 381 C 42.8028 0.596483 -1.48035 0
M  V30 382 C 43.0028 1.88386 -0.715039 0
M  V30 383 O 42.0588 2.51319 -0.243944 0
M  V30 384 C 43.3718 0.700258 -2.92433 0
M  V30 385 C 44.9198 0.792659 -3.02797 0
M  V30 386 C 45.3948 0.928005 -4.485 0
M  V30 387 N 46.8858 0.992903 -4.52433 0
M  V30 388 C 47.6208 1.11687 -5.62418 0
M  V30 389 N 47.1168 1.20645 -6.82214 0
M  V30 390 N 48.9098 1.14994 -5.50212 0
M  V30 391 H 41.0608 -0.597109 -2.03834 0
M  V30 392 H 43.3238 -0.205925 -0.925364 0
M  V30 393 H 43.0298 -0.175658 -3.51261 0
M  V30 394 H 42.9038 1.57255 -3.42857 0
M  V30 395 H 45.2908 1.65903 -2.4405 0
M  V30 396 H 45.3718 -0.104762 -2.55585 0
M  V30 397 H 45.0158 0.0661971 -5.07857 0
M  V30 398 H 44.9458 1.84045 -4.93391 0
M  V30 399 H 47.4368 0.935064 -3.66149 0
M  V30 400 H 47.7498 1.30008 -7.61786 0
M  V30 401 H 46.0948 1.17605 -6.84977 0
M  V30 402 H 49.2858 1.07643 -4.55555 0
M  V30 403 H 49.4588 1.24311 -6.35965 0
M  V30 404 N 42.8649 1.48995 0.513639 0
M  V30 405 C 44.0929 1.61531 1.29288 0
M  V30 406 C 44.5079 0.281801 1.86685 0
M  V30 407 O 43.8649 -0.731111 1.67215 0
M  V30 408 C 43.9159 2.67449 2.43215 0
M  V30 409 O 43.6369 3.95626 1.88179 0
M  V30 410 C 45.1379 2.90575 3.34785 0
M  V30 411 H 42.3579 0.544165 0.392588 0
M  V30 412 H 44.9019 1.9494 0.617956 0
M  V30 413 H 43.0569 2.36853 3.0656 0
M  V30 414 H 43.4709 4.53868 2.62876 0
M  V30 415 H 44.9449 3.68449 4.11035 0
M  V30 416 H 45.4219 2.00011 3.91015 0
M  V30 417 H 46.0279 3.22538 2.77218 0
M  V30 418 N 44.343 -0.763751 1.37857 0
M  V30 419 C 45.291 -1.89864 1.34367 0
M  V30 420 C 46.285 -1.67816 0.231143 0
M  V30 421 O 47.491 -1.75508 0.399617 0
M  V30 422 H 43.866 -0.624501 0.41893 0
M  V30 423 H 45.837 -1.89925 2.30155 0
M  V30 424 C 44.586 -3.27227 1.1755 0
M  V30 425 H 43.909 -3.44773 2.02414 0
M  V30 426 H 45.349 -4.06911 1.1916 0
M  V30 427 C 43.808 -3.36692 -0.118311 0
M  V30 428 O 44.338 -3.86374 -1.09902 0
M  V30 429 N 42.544 -2.90092 -0.171717 0
M  V30 430 H 42.091 -2.49853 0.627012 0
M  V30 431 H 42.049 -2.96806 -1.03699 0
M  V30 432 N 45.8211 -1.22559 -0.990812 0
M  V30 433 C 46.7531 -0.955325 -2.08342 0
M  V30 434 C 47.7661 0.0668408 -1.62663 0
M  V30 435 O 48.9551 -0.167421 -1.77713 0
M  V30 436 C 46.0551 -0.415566 -3.36342 0
M  V30 437 C 45.2281 -1.49544 -4.11042 0
M  V30 438 C 44.2871 -0.962399 -5.17324 0
M  V30 439 O 43.3131 -1.64907 -5.44788 0
M  V30 440 N 44.5151 0.215134 -5.80101 0
M  V30 441 H 47.2801 -1.89596 -2.32106 0
M  V30 442 H 44.8411 -1.13276 -1.15673 0
M  V30 443 H 46.8331 -0.0442386 -4.04676 0
M  V30 444 H 45.4031 0.430232 -3.09625 0
M  V30 445 H 44.6231 -2.04 -3.37309 0
M  V30 446 H 45.9111 -2.22195 -4.57719 0
M  V30 447 H 45.3091 0.789779 -5.6016 0
M  V30 448 H 43.8661 0.527826 -6.49659 0
M  V30 449 N 47.2992 1.18797 -1.03562 0
M  V30 450 C 48.2622 2.20464 -0.626769 0
M  V30 451 C 49.2622 1.57721 0.313173 0
M  V30 452 O 50.4522 1.73917 0.0992615 0
M  V30 453 C 47.5842 3.40802 0.0818498 0
M  V30 454 H 48.7772 2.58149 -1.5264 0
M  V30 455 H 46.3302 1.32593 -0.827578 0
M  V30 456 H 47.0652 3.08642 0.995518 0
M  V30 457 H 46.8502 3.8758 -0.593652 0
M  V30 458 H 48.3402 4.16092 0.354584 0
M  V30 459 N 48.7773 0.814389 1.34928 0
M  V30 460 C 50.0253 0.397636 1.9815 0
M  V30 461 C 50.3463 -1.04069 1.64908 0
M  V30 462 O 49.6163 -1.72121 0.93548 0
M  V30 463 H 48.1963 0.144043 0.732981 0
M  V30 464 H 50.8583 1.04195 1.6471 0
M  V30 465 H 49.9543 0.509688 3.0791 0
M  V30 466 N 50.2554 -1.46986 0.568584 0
M  V30 467 C 51.1854 -2.32946 -0.160753 0
M  V30 468 C 52.1664 -1.44487 -0.897631 0
M  V30 469 O 53.3514 -1.73327 -0.875867 0
M  V30 470 C 50.4814 -3.26494 -1.18403 0
M  V30 471 C 49.4354 -4.24282 -0.562895 0
M  V30 472 C 48.7614 -5.07236 -1.69163 0
M  V30 473 C 50.0614 -5.19989 0.490761 0
M  V30 474 H 51.7554 -2.94175 0.556916 0
M  V30 475 H 49.3014 -1.4146 0.26927 0
M  V30 476 H 51.2544 -3.85477 -1.70251 0
M  V30 477 H 49.9784 -2.63343 -1.93179 0
M  V30 478 H 48.6374 -3.66541 -0.0656164 0
M  V30 479 H 48.2854 -4.4048 -2.42871 0
M  V30 480 H 47.9854 -5.7345 -1.28174 0
M  V30 481 H 49.5094 -5.6908 -2.21314 0
M  V30 482 H 50.9234 -5.73271 0.0579047 0
M  V30 483 H 49.3204 -5.94469 0.820165 0
M  V30 484 H 50.3904 -4.64777 1.3824 0
M  V30 485 N 51.7335 -0.305618 -1.54608 0
M  V30 486 C 52.6435 0.57778 -2.27374 0
M  V30 487 C 53.6595 1.14451 -1.31061 0
M  V30 488 O 54.8355 1.16831 -1.6405 0
M  V30 489 C 51.9005 1.73123 -3.00382 0
M  V30 490 C 50.9615 1.19812 -4.12242 0
M  V30 491 C 50.1945 2.2966 -4.81759 0
M  V30 492 O 50.4175 3.49651 -4.50666 0
M  V30 493 O 49.3515 1.96091 -5.69062 0
M  V30 494 H 53.1775 -0.012624 -3.03697 0
M  V30 495 H 50.7625 -0.0719184 -1.49227 0
M  V30 496 H 52.6445 2.40315 -3.4616 0
M  V30 497 H 51.3195 2.30815 -2.26949 0
M  V30 498 H 50.2265 0.491798 -3.70853 0
M  V30 499 H 51.5595 0.666566 -4.87666 0
M  V30 500 N 53.2116 1.57565 -0.0334293 0
M  V30 501 C 54.1416 2.13511 0.945265 0
M  V30 502 C 55.1226 1.05231 1.33643 0
M  V30 503 O 56.3076 1.33084 1.41429 0
M  V30 504 C 53.4376 2.6657 2.22616 0
M  V30 505 C 52.3916 3.79676 1.97561 0
M  V30 506 C 51.7176 4.1918 3.31952 0
M  V30 507 C 53.0176 5.0557 1.31135 0
M  V30 508 H 54.7116 2.95538 0.479325 0
M  V30 509 H 52.2576 1.42166 0.229115 0
M  V30 510 H 54.2106 3.04344 2.91466 0
M  V30 511 H 52.9346 1.8171 2.71384 0
M  V30 512 H 51.5936 3.42347 1.31127 0
M  V30 513 H 51.2416 3.31296 3.78487 0
M  V30 514 H 50.9416 4.95402 3.15992 0
M  V30 515 H 52.4656 4.59541 4.02063 0
M  V30 516 H 53.8796 5.40903 1.89992 0
M  V30 517 H 52.2766 5.86818 1.25559 0
M  V30 518 H 53.3466 4.84062 0.284894 0
M  V30 519 N 54.6897 -0.239769 1.55765 0
M  V30 520 C 55.9387 -0.964754 1.77131 0
M  V30 521 C 56.2517 -1.86213 0.59868 0
M  V30 522 O 57.4577 -2.6244 0.695522 0
M  V30 523 C 55.9137 -1.76552 3.1362 0
M  V30 524 C 55.5217 -0.915185 4.38553 0
M  V30 525 C 57.2657 -2.48281 3.44321 0
M  V30 526 C 55.1727 -1.71225 5.66071 0
M  V30 527 H 54.1027 -0.363953 0.660344 0
M  V30 528 H 56.7537 -0.219181 1.82186 0
M  V30 529 H 55.1357 -2.55331 3.02691 0
M  V30 530 H 56.3097 -0.169217 4.60489 0
M  V30 531 H 54.6247 -0.310889 4.15238 0
M  V30 532 H 57.2217 -3.08382 4.36812 0
M  V30 533 H 57.5647 -3.20256 2.65973 0
M  V30 534 H 58.0977 -1.76507 3.56497 0
M  V30 535 H 54.8367 -1.03612 6.4726 0
M  V30 536 H 54.3567 -2.43331 5.48224 0
M  V30 537 H 56.0357 -2.27758 6.05587 0
M  V30 538 N 56.1678 -1.49265 -0.50573 0
M  V30 539 C 57.4158 -1.582 -1.25766 0
M  V30 540 C 57.7368 -0.268482 -1.93143 0
M  V30 541 O 57.0068 0.711833 -1.8251 0
M  V30 542 H 55.5868 -0.582873 -0.467191 0
M  V30 543 H 58.2488 -1.85865 -0.586525 0
M  V30 544 H 57.3448 -2.37563 -2.02412 0
M  V30 545 N 57.6459 0.756429 -1.3826 0
M  V30 546 C 58.5939 1.89149 -1.35372 0
M  V30 547 C 59.5879 1.67691 -0.24004 0
M  V30 548 O 60.7939 1.75294 -0.408919 0
M  V30 549 H 57.1689 0.622271 -0.422236 0
M  V30 550 H 59.1399 1.88701 -2.31159 0
M  V30 551 C 57.8889 3.26599 -1.19284 0
M  V30 552 H 57.2119 3.43695 -2.0424 0
M  V30 553 H 58.6519 4.06274 -1.21316 0
M  V30 554 C 57.1109 3.3675 0.100454 0
M  V30 555 O 57.6409 3.86951 1.07851 0
M  V30 556 N 55.8469 2.90179 0.15633 0
M  V30 557 H 55.3939 2.49517 -0.640253 0
M  V30 558 H 55.3519 2.97352 1.02123 0
M  V30 559 N 59.124 1.23083 0.984299 0
M  V30 560 C 60.087 1.00979 2.05757 0
M  V30 561 C 61.087 -0.0269573 1.60777 0
M  V30 562 O 62.277 0.212403 1.729 0
M  V30 563 C 59.409 0.527072 3.36801 0
M  V30 564 H 60.602 1.9622 2.26799 0
M  V30 565 H 58.155 1.05072 1.15714 0
M  V30 566 H 58.89 -0.429294 3.21446 0
M  V30 567 H 58.675 1.27515 3.70786 0
M  V30 568 H 60.165 0.392942 4.15747 0
M  V30 569 N 60.6021 -1.18246 1.0419 0
M  V30 570 C 61.5121 -2.25574 0.644476 0
M  V30 571 C 62.5281 -1.70845 -0.329826 0
M  V30 572 O 63.7041 -2.00554 -0.184443 0
M  V30 573 C 60.7691 -3.46697 0.014877 0
M  V30 574 C 59.8301 -4.16554 1.03834 0
M  V30 575 C 59.0631 -5.31894 0.438692 0
M  V30 576 O 59.2861 -5.65385 -0.754752 0
M  V30 577 O 58.2201 -5.90459 1.168 0
M  V30 578 H 62.0461 -2.61836 1.53869 0
M  V30 579 H 59.6311 -1.25352 0.812854 0
M  V30 580 H 61.5131 -4.20062 -0.335538 0
M  V30 581 H 60.1881 -3.12255 -0.853138 0
M  V30 582 H 59.0951 -3.45251 1.44057 0
M  V30 583 H 60.4281 -4.54998 1.87716 0
M  V30 584 N 62.0802 -0.821533 -1.34494 0
M  V30 585 C 63.3282 -0.408139 -1.97936 0
M  V30 586 C 63.6492 1.03193 -1.65457 0
M  V30 587 O 62.9192 1.71622 -0.944595 0
M  V30 588 H 61.4992 -0.147928 -0.732206 0
M  V30 589 H 64.1612 -1.05067 -1.64155 0
M  V30 590 H 63.2572 -0.52601 -3.07635 0
M  V30 591 N 63.5583 1.46682 -0.576371 0
M  V30 592 C 64.7983 2.04306 -0.0621356 0
M  V30 593 C 65.1623 1.4389 1.2712 0
M  V30 594 O 66.3633 1.92675 1.87429 0
M  V30 595 C 64.6343 3.57399 0.00927922 0
M  V30 596 S 66.1933 4.36309 0.466859 0
M  V30 597 H 63.0113 0.710167 -0.0344016 0
M  V30 598 H 65.6133 1.79807 -0.767437 0
M  V30 599 H 64.3173 3.98889 -0.965178 0
M  V30 600 H 63.8483 3.86424 0.737547 0
M  V30 601 H 65.8633 4.6533 1.72287 0
M  V30 602 N 65.0364 0.313813 1.54444 0
M  V30 603 C 66.4524 -0.0391619 1.59552 0
M  V30 604 C 66.6524 -1.51322 1.33056 0
M  V30 605 O 65.7084 -2.26782 1.11022 0
M  V30 606 C 67.0214 0.370302 2.98411 0
M  V30 607 C 68.5694 0.320139 3.11358 0
M  V30 608 C 69.0444 0.704617 4.52547 0
M  V30 609 N 70.5354 0.657645 4.58508 0
M  V30 610 C 71.2704 0.927453 5.6585 0
M  V30 611 N 70.7664 1.26389 6.81174 0
M  V30 612 N 72.5594 0.853662 5.5558 0
M  V30 613 H 64.7104 1.27433 1.69925 0
M  V30 614 H 66.9734 0.517511 0.794284 0
M  V30 615 H 66.6794 1.39694 3.22767 0
M  V30 616 H 66.5534 -0.269619 3.76235 0
M  V30 617 H 68.9404 -0.697275 2.86744 0
M  V30 618 H 69.0214 0.99486 2.35661 0
M  V30 619 H 68.6654 1.7199 4.77893 0
M  V30 620 H 68.5954 0.00768843 5.26599 0
M  V30 621 H 71.0864 0.409067 3.75679 0
M  V30 622 H 71.3994 1.4554 7.58972 0
M  V30 623 H 69.7444 1.30206 6.82694 0
M  V30 624 H 72.9354 0.590383 4.64362 0
M  V30 625 H 73.1084 1.0673 6.3915 0
M  V30 626 N 66.5145 -1.57545 0.0417849 0
M  V30 627 C 67.9305 -1.56467 -0.314704 0
M  V30 628 C 68.1305 -1.04859 -1.72066 0
M  V30 629 O 67.1865 -0.700983 -2.42575 0
M  V30 630 C 68.4995 -3.00317 -0.15174 0
M  V30 631 C 70.0475 -3.12201 -0.223553 0
M  V30 632 C 70.5225 -4.57913 -0.0892295 0
M  V30 633 N 72.0135 -4.6297 -0.145808 0
M  V30 634 C 72.7485 -5.73362 -0.0658459 0
M  V30 635 N 72.2445 -6.92769 0.0659282 0
M  V30 636 N 74.0375 -5.6197 -0.12075 0
M  V30 637 H 66.1885 -1.89416 0.961014 0
M  V30 638 H 68.4515 -0.871862 0.372237 0
M  V30 639 H 68.1575 -3.42073 0.817254 0
M  V30 640 H 68.0315 -3.65892 -0.916692 0
M  V30 641 H 70.4185 -2.70349 -1.18301 0
M  V30 642 H 70.4995 -2.49323 0.571994 0
M  V30 643 H 70.1435 -5.00448 0.866867 0
M  V30 644 H 70.0735 -5.18786 -0.903802 0
M  V30 645 H 72.5645 -3.7709 -0.247286 0
M  V30 646 H 72.8775 -7.72707 0.119905 0
M  V30 647 H 71.2225 -6.94927 0.100885 0
M  V30 648 H 74.4135 -4.67572 -0.222187 0
M  V30 649 H 74.5865 -6.47977 -0.0549735 0
M  V30 650 N 67.9926 0.231505 -1.5589 0
M  V30 651 C 69.2696 0.981096 -1.69215 0
M  V30 652 C 69.6496 2.02799 -0.586164 0
M  V30 653 O 68.9976 2.24823 0.408253 0
M  V30 654 C 69.2076 1.60054 -3.10135 0
M  V30 655 C 70.5556 2.09658 -3.69227 0
M  V30 656 O 71.5796 1.69967 -3.13033 0
M  V30 657 O 70.4386 2.8258 -4.67772 0
M  V30 658 H 67.5326 0.457653 -0.688827 0
M  V30 659 H 70.0786 0.224073 -1.68214 0
M  V30 660 H 68.8506 0.844105 -3.82087 0
M  V30 661 H 68.4736 2.42336 -3.15212 0
M  V30 662 N 69.4707 1.49531 0.497807 0
M  V30 663 C 70.8817 1.52344 1.07927 0
M  V30 664 C 71.2327 0.311469 1.93712 0
M  V30 665 O 70.3577 -0.578405 2.08527 0
M  V30 666 C 70.9527 2.76062 1.96405 0
M  V30 667 C 69.5117 2.81643 2.49709 0
M  V30 668 C 68.6587 2.46299 1.27404 0
M  V30 669 H 71.6097 1.56182 0.281576 0
M  V30 670 H 71.6307 2.56405 2.81135 0
M  V30 671 H 71.1427 3.64254 1.33943 0
M  V30 672 H 69.2437 1.97739 3.15801 0
M  V30 673 H 69.3567 3.83891 2.86643 0
M  V30 674 H 67.7207 1.98148 1.60029 0
M  V30 675 H 68.5037 3.36769 0.66645 0
M  V30 676 N 70.9488 -0.749086 1.3866 0
M  V30 677 C 72.1788 -1.53611 1.38157 0
M  V30 678 C 72.5868 -1.89177 -0.0293595 0
M  V30 679 O 71.9298 -1.53606 -1.00752 0
M  V30 680 C 71.9918 -2.86087 2.17702 0
M  V30 681 C 71.6558 -2.73034 3.66472 0
M  V30 682 C 72.6528 -2.42526 4.59866 0
M  V30 683 C 70.3378 -2.90345 4.09884 0
M  V30 684 C 72.3318 -2.29492 5.94653 0
M  V30 685 C 70.0188 -2.7693 5.4475 0
M  V30 686 C 71.0168 -2.46547 6.36949 0
M  V30 687 O 70.7048 -2.33199 7.69333 0
M  V30 688 H 70.4368 -0.481773 0.474205 0
M  V30 689 H 72.9908 -0.934465 1.82912 0
M  V30 690 H 71.2208 -3.48458 1.67672 0
M  V30 691 H 72.9098 -3.47625 2.09551 0
M  V30 692 H 73.6758 -2.28816 4.27631 0
M  V30 693 H 69.5548 -3.1299 3.38464 0
M  V30 694 H 73.0988 -2.05698 6.66584 0
M  V30 695 H 68.9958 -2.90215 5.76581 0
M  V30 696 H 69.7638 -2.48376 7.79905 0
M  V30 697 N 72.4269 -1.23603 -0.977757 0
M  V30 698 C 73.3599 -0.962772 -2.06896 0
M  V30 699 C 74.3379 0.0998743 -1.62293 0
M  V30 700 O 75.5219 -0.0349421 -1.88468 0
M  V30 701 C 72.6489 -0.45095 -3.35685 0
M  V30 702 C 71.6949 -1.50061 -3.99229 0
M  V30 703 S 72.5279 -3.07884 -4.38142 0
M  V30 704 C 73.6839 -2.58378 -5.7008 0
M  V30 705 H 73.9169 -1.88677 -2.29757 0
M  V30 706 H 71.4499 -1.06876 -1.11431 0
M  V30 707 H 73.4079 -0.162261 -4.10179 0
M  V30 708 H 72.0689 0.452179 -3.10828 0
M  V30 709 H 71.2619 -1.09269 -4.92013 0
M  V30 710 H 70.8639 -1.73878 -3.31123 0
M  V30 711 H 73.1559 -2.00563 -6.47133 0
M  V30 712 H 74.0989 -3.49711 -6.15717 0
M  V30 713 H 74.5069 -1.99143 -5.28207 0
M  V30 714 N 73.905 1.17692 -1.04816 0
M  V30 715 C 75.145 1.89545 -0.764979 0
M  V30 716 C 75.509 1.78979 0.695028 0
M  V30 717 O 76.71 2.45613 1.09215 0
M  V30 718 C 74.981 3.35659 -1.22751 0
M  V30 719 S 76.54 4.25526 -1.07112 0
M  V30 720 H 73.358 0.654432 -0.27792 0
M  V30 721 H 75.96 1.42163 -1.34201 0
M  V30 722 H 74.664 3.40882 -2.28533 0
M  V30 723 H 74.195 3.88083 -0.644594 0
M  V30 724 H 76.21 4.962 0.00697508 0
M  V30 725 N 75.3831 0.828654 1.34056 0
M  V30 726 C 76.7941 0.477534 1.8049 0
M  V30 727 C 77.1451 -1.00258 1.6865 0
M  V30 728 O 76.2701 -1.78057 1.22982 0
M  V30 729 C 76.8651 0.860018 3.27703 0
M  V30 730 C 75.4241 0.561185 3.72193 0
M  V30 731 C 74.5711 1.07385 2.55663 0
M  V30 732 H 77.5221 1.0183 1.21722 0
M  V30 733 H 77.5431 0.166038 3.80138 0
M  V30 734 H 77.0551 1.93731 3.36288 0
M  V30 735 H 75.1561 -0.506465 3.69142 0
M  V30 736 H 75.2691 1.10926 4.66082 0
M  V30 737 H 73.6331 0.495149 2.49841 0
M  V30 738 H 74.4161 2.15771 2.67016 0
M  V30 739 N 76.8612 -1.46375 0.584142 0
M  V30 740 C 77.8242 -2.28784 -0.138108 0
M  V30 741 C 78.8242 -1.38471 -0.817462 0
M  V30 742 O 80.0142 -1.60833 -0.669199 0
M  V30 743 C 77.1462 -3.18892 -1.20503 0
M  V30 744 H 78.3392 -2.94117 0.586127 0
M  V30 745 H 75.8922 -1.52509 0.342171 0
M  V30 746 H 76.6272 -2.58309 -1.96079 0
M  V30 747 H 76.4122 -3.85388 -0.722384 0
M  V30 748 H 77.9022 -3.80914 -1.71155 0
M  V30 749 N 78.3393 -0.321999 -1.54275 0
M  V30 750 C 79.5873 0.280489 -2.00144 0
M  V30 751 C 79.9083 1.52777 -1.21178 0
M  V30 752 O 79.1783 1.9338 -0.313187 0
M  V30 753 H 77.7583 0.106632 -0.73935 0
M  V30 754 H 80.4203 -0.438184 -1.8991 0
M  V30 755 H 79.5163 0.537972 -3.07428 0
M  V30 756 N 79.8174 1.5752 -0.0501392 0
M  V30 757 C 81.0634 1.92936 0.624798 0
M  V30 758 C 81.3964 0.928685 1.70555 0
M  V30 759 O 80.6714 -0.0454779 1.94447 0
M  V30 760 C 80.9544 3.38737 1.22185 0
M  V30 761 C 80.8074 4.49552 0.149218 0
M  V30 762 C 82.1264 3.84913 2.13378 0
M  V30 763 H 79.2454 0.701604 0.225657 0
M  V30 764 H 81.8874 1.89671 -0.111693 0
M  V30 765 H 80.0374 3.4165 1.84953 0
M  V30 766 H 81.7094 4.58768 -0.482648 0
M  V30 767 H 79.9524 4.30638 -0.522841 0
M  V30 768 H 80.6234 5.48653 0.606966 0
M  V30 769 H 83.0994 3.8387 1.60572 0
M  V30 770 H 81.9754 4.87584 2.52097 0
M  V30 771 H 82.2364 3.21611 3.03346 0
M  V30 772 N 81.2955 -0.223234 1.56011 0
M  V30 773 C 82.5415 -0.944891 1.8012 0
M  V30 774 C 82.8965 -1.82039 0.622862 0
M  V30 775 O 82.1895 -1.8773 -0.383143 0
M  V30 776 C 82.3835 -1.81948 3.0762 0
M  V30 777 C 82.2125 -1.03014 4.37742 0
M  V30 778 C 80.9825 -0.72574 5.00061 0
M  V30 779 C 83.1805 -0.396256 5.12771 0
M  V30 780 N 81.1625 0.0851816 6.13841 0
M  V30 781 C 82.5335 0.278137 6.19376 0
M  V30 782 C 84.5885 -0.309117 4.9694 0
M  V30 783 C 83.2915 1.03133 7.11868 0
M  V30 784 C 85.3175 0.430607 5.8983 0
M  V30 785 C 84.6795 1.09355 6.9586 0
M  V30 786 H 80.7785 -0.326081 0.710771 0
M  V30 787 H 83.3625 -0.215914 1.93499 0
M  V30 788 H 81.5335 -2.52029 2.95527 0
M  V30 789 H 83.2655 -2.47848 3.19927 0
M  V30 790 H 80.0205 -1.04335 4.61964 0
M  V30 791 H 80.4445 0.479428 6.753 0
M  V30 792 H 85.0865 -0.807313 4.15021 0
M  V30 793 H 82.8045 1.54105 7.9327 0
M  V30 794 H 86.3905 0.499012 5.79656 0
M  V30 795 H 85.2705 1.65679 7.66499 0
M  V30 796 N 82.7736 -1.49793 -0.48987 0
M  V30 797 C 84.0016 -1.63568 -1.26701 0
M  V30 798 C 84.4166 -0.311465 -1.86213 0
M  V30 799 O 83.7736 0.704416 -1.68357 0
M  V30 800 C 83.8246 -2.71284 -2.38929 0
M  V30 801 O 83.5456 -3.9857 -1.81861 0
M  V30 802 C 85.0466 -2.95864 -3.3012 0
M  V30 803 H 82.2666 -0.550342 -0.383881 0
M  V30 804 H 84.8106 -1.95898 -0.586864 0
M  V30 805 H 82.9656 -2.417 -3.02753 0
M  V30 806 H 83.3796 -4.57993 -2.55622 0
M  V30 807 H 84.8536 -3.74941 -4.05121 0
M  V30 808 H 85.3306 -2.06206 -3.87783 0
M  V30 809 H 85.9366 -3.26907 -2.72051 0
M  V30 810 N 84.2517 0.741722 -1.39055 0
M  V30 811 C 85.5287 1.49252 -1.26425 0
M  V30 812 C 85.9087 2.10705 0.129144 0
M  V30 813 O 85.2567 1.98045 1.13976 0
M  V30 814 C 85.4667 2.54934 -2.38347 0
M  V30 815 C 86.8147 3.21506 -2.77343 0
M  V30 816 O 87.8387 2.65245 -2.37747 0
M  V30 817 O 86.6977 4.23294 -3.45665 0
M  V30 818 H 83.7917 0.662451 -0.495064 0
M  V30 819 H 86.3377 0.776121 -1.50912 0
M  V30 820 H 85.1097 2.07857 -3.31529 0
M  V30 821 H 84.7327 3.34141 -2.15489 0
M  V30 822 N 85.7298 1.2412 0.971189 0
M  V30 823 C 86.9778 1.07668 1.71032 0
M  V30 824 C 87.2988 -0.385797 1.91146 0
M  V30 825 O 86.5688 -1.27569 1.4867 0
M  V30 826 H 85.1488 0.395429 0.633755 0
M  V30 827 H 87.8108 1.55984 1.16855 0
M  V30 828 H 86.9068 1.57195 2.69622 0
M  V30 829 N 87.2079 -1.17134 1.05439 0
M  V30 830 C 88.4569 -1.86791 0.761049 0
M  V30 831 C 88.7699 -1.82072 -0.714795 0
M  V30 832 O 89.9759 -2.47223 -1.12218 0
M  V30 833 C 88.4319 -3.35166 1.31117 0
M  V30 834 C 88.0399 -3.48381 2.81664 0
M  V30 835 C 89.7839 -4.10134 1.09499 0
M  V30 836 C 87.6909 -4.90793 3.29964 0
M  V30 837 H 86.6209 -0.699681 0.281002 0
M  V30 838 H 89.2719 -1.3226 1.27199 0
M  V30 839 H 87.6539 -3.8925 0.72803 0
M  V30 840 H 88.8279 -3.04502 3.45855 0
M  V30 841 H 87.1429 -2.86836 3.01851 0
M  V30 842 H 89.7399 -5.152 1.43084 0
M  V30 843 H 90.0829 -4.16287 0.0328772 0
M  V30 844 H 90.6159 -3.62264 1.64346 0
M  V30 845 H 87.3549 -4.89816 4.35616 0
M  V30 846 H 86.8749 -5.35333 2.70516 0
M  V30 847 H 88.5539 -5.59573 3.24787 0
M  V30 848 N 88.686 -0.835752 -1.33615 0
M  V30 849 C 89.934 -0.429109 -1.97492 0
M  V30 850 C 90.255 1.01433 -1.66543 0
M  V30 851 O 89.525 1.70611 -0.962744 0
M  V30 852 H 88.105 -0.155686 -0.730596 0
M  V30 853 H 90.767 -1.06802 -1.63031 0
M  V30 854 H 89.863 -0.55861 -3.0706 0
M  V30 855 N 90.1641 1.46063 -0.591896 0
M  V30 856 C 91.1121 2.32124 0.148739 0
M  V30 857 C 92.1061 1.45035 0.875286 0
M  V30 858 O 93.3121 1.61609 0.792632 0
M  V30 859 H 89.6871 0.749024 0.066832 0
M  V30 860 H 91.6581 2.92392 -0.595783 0
M  V30 861 C 90.4071 3.28373 1.1431 0
M  V30 862 H 89.7301 3.95371 0.59346 0
M  V30 863 H 91.1701 3.91352 1.63155 0
M  V30 864 C 89.6291 2.54393 2.20875 0
M  V30 865 O 90.1591 2.31373 3.28374 0
M  V30 866 N 88.3651 2.14797 1.95731 0
M  V30 867 H 87.9121 2.33719 1.08319 0
M  V30 868 H 87.8701 1.65619 2.67241 0
M  V30 869 N 91.6422 0.330177 1.54103 0
M  V30 870 C 92.8702 -0.272179 2.05102 0
M  V30 871 C 93.2852 -1.45267 1.20595 0
M  V30 872 O 92.6422 -1.8094 0.238144 0
M  V30 873 C 92.6932 -0.70023 3.54653 0
M  V30 874 O 92.4142 0.433301 4.35952 0
M  V30 875 C 93.9152 -1.3647 4.21771 0
M  V30 876 H 91.1352 -0.0549159 0.668749 0
M  V30 877 H 93.6792 0.478285 1.98828 0
M  V30 878 H 91.8342 -1.40066 3.61193 0
M  V30 879 H 92.2482 0.0947539 5.24414 0
M  V30 880 H 93.7222 -1.61509 5.27843 0
M  V30 881 H 94.1992 -2.31409 3.73292 0
M  V30 882 H 94.8052 -0.706675 4.19388 0
M  V30 883 N 93.1203 -1.57491 0.0584922 0
M  V30 884 C 94.0703 -2.08474 -0.923188 0
M  V30 885 C 95.0543 -0.991479 -1.26722 0
M  V30 886 O 96.2463 -1.25473 -1.24842 0
M  V30 887 C 93.3753 -2.6392 -2.19548 0
M  V30 888 C 92.4613 -3.80227 -1.87852 0
M  V30 889 N 92.8523 -4.89714 -1.26546 0
M  V30 890 C 91.1503 -3.89271 -2.17679 0
M  V30 891 C 91.8513 -5.70689 -1.12644 0
M  V30 892 N 90.8273 -5.18531 -1.63176 0
M  V30 893 H 94.6293 -2.90517 -0.444653 0
M  V30 894 H 92.1433 -1.61745 -0.145764 0
M  V30 895 H 94.1403 -2.98752 -2.9078 0
M  V30 896 H 92.8003 -1.83318 -2.68001 0
M  V30 897 H 93.8113 -5.09358 -0.936757 0
M  V30 898 H 90.4883 -3.19623 -2.68602 0
M  V30 899 H 91.8783 -6.6875 -0.6499 0
M  V30 900 N 94.5984 0.214957 -1.56127 0
M  V30 901 C 95.8464 0.936518 -1.79091 0
M  V30 902 C 96.1674 1.84606 -0.628148 0
M  V30 903 O 95.4374 1.92664 0.35462 0
M  V30 904 H 94.0174 0.3488 -0.660566 0
M  V30 905 H 96.6794 0.22523 -1.93594 0
M  V30 906 H 95.7754 1.53943 -2.71492 0
M  V30 907 N 96.0765 1.50051 0.48192 0
M  V30 908 C 97.3225 1.60736 1.2366 0
M  V30 909 C 97.6555 0.301786 1.91841 0
M  V30 910 O 96.9305 -0.696025 1.8162 0
M  V30 911 C 97.2135 2.78009 2.28874 0
M  V30 912 C 97.0665 4.18416 1.65069 0
M  V30 913 C 98.3855 2.90867 3.30279 0
M  V30 914 H 95.5045 0.585031 0.448228 0
M  V30 915 H 98.1465 1.82402 0.531946 0
M  V30 916 H 96.2965 2.59667 2.88973 0
M  V30 917 H 97.9685 4.48322 1.0865 0
M  V30 918 H 96.2115 4.23177 0.954148 0
M  V30 919 H 96.8825 4.96381 2.41474 0
M  V30 920 H 99.3585 3.07623 2.80191 0
M  V30 921 H 98.2345 3.74566 4.01238 0
M  V30 922 H 98.4955 2.01021 3.93755 0
M  V30 923 N 97.5546 -0.734337 1.39446 0
M  V30 924 C 98.7826 -1.52358 1.39981 0
M  V30 925 C 99.1976 -1.88799 -0.0054975 0
M  V30 926 O 98.5546 -1.54146 -0.976998 0
M  V30 927 C 98.6056 -2.81072 2.27333 0
M  V30 928 O 98.3266 -2.46178 3.62392 0
M  V30 929 C 99.8276 -3.75096 2.36259 0
M  V30 930 H 97.0476 -0.470806 0.478103 0
M  V30 931 H 99.5916 -0.907339 1.83269 0
M  V30 932 H 97.7466 -3.39026 1.87457 0
M  V30 933 H 98.1606 -3.28866 4.08592 0
M  V30 934 H 99.6346 -4.62305 3.01626 0
M  V30 935 H 100.112 -4.16892 1.38194 0
M  V30 936 H 100.718 -3.23061 2.76608 0
M  V30 937 N 99.0327 -1.24633 -0.964593 0
M  V30 938 C 100.444 -1.08045 -1.5226 0
M  V30 939 C 100.795 0.347116 -1.93105 0
M  V30 940 O 99.9197 1.23588 -1.77637 0
M  V30 941 C 100.515 -1.95514 -2.76695 0
M  V30 942 C 99.0737 -1.8314 -3.28841 0
M  V30 943 C 98.2207 -1.90262 -2.01732 0
M  V30 944 H 101.172 -1.38064 -0.782553 0
M  V30 945 H 101.193 -1.48925 -3.50145 0
M  V30 946 H 100.705 -2.99407 -2.46936 0
M  V30 947 H 98.8057 -0.82092 -3.63444 0
M  V30 948 H 98.9187 -2.67406 -3.97531 0
M  V30 949 H 97.2827 -1.34027 -2.16584 0
M  V30 950 H 98.0657 -2.9574 -1.74334 0
M  V30 951 N 100.511 1.16574 -1.06058 0
M  V30 952 C 101.759 1.86677 -0.77434 0
M  V30 953 C 102.08 1.81959 0.701147 0
M  V30 954 O 101.35 1.2515 1.50713 0
M  V30 955 H 99.9298 0.691134 -0.283449 0
M  V30 956 H 102.592 1.41378 -1.34158 0
M  V30 957 H 101.688 2.92181 -1.09711 0
M  V30 958 N 101.989 0.842826 1.3317 0
M  V30 959 C 103.235 0.441099 1.97945 0
M  V30 960 C 103.568 -0.998024 1.66593 0
M  V30 961 O 102.843 -1.69839 0.947898 0
M  V30 962 C 103.126 0.666841 3.53872 0
M  V30 963 C 102.979 2.15352 3.94897 0
M  V30 964 C 104.298 0.115544 4.39948 0
M  V30 965 H 101.417 0.161739 0.719034 0
M  V30 966 H 104.059 1.05907 1.57746 0
M  V30 967 H 102.209 0.140828 3.88245 0
M  V30 968 H 103.881 2.7447 3.70761 0
M  V30 969 H 102.124 2.63653 3.44484 0
M  V30 970 H 102.795 2.26221 5.03516 0
M  V30 971 H 105.271 0.565213 4.12243 0
M  V30 972 H 104.147 0.303152 5.48062 0
M  V30 973 H 104.408 -0.980935 4.3108 0
M  V30 974 N 103.467 -1.45747 0.599634 0
M  V30 975 C 104.883 -1.57424 0.26264 0
M  V30 976 C 105.083 -1.59222 -1.23493 0
M  V30 977 O 104.139 -1.51825 -2.01756 0
M  V30 978 C 105.452 -2.86061 0.926795 0
M  V30 979 C 107 -2.99722 0.901967 0
M  V30 980 C 107.475 -4.31119 1.54598 0
M  V30 981 N 108.966 -4.37858 1.5111 0
M  V30 982 C 109.701 -5.3818 1.97863 0
M  V30 983 N 109.197 -6.45083 2.52666 0
M  V30 984 N 110.99 -5.29487 1.88679 0
M  V30 985 H 103.141 -1.42823 1.57211 0
M  V30 986 H 105.404 -0.68235 0.658105 0
M  V30 987 H 105.11 -2.90605 1.98095 0
M  V30 988 H 104.984 -3.74563 0.445238 0
M  V30 989 H 107.371 -2.9475 -0.143617 0
M  V30 990 H 107.452 -2.12652 1.42171 0
M  V30 991 H 107.096 -4.36849 2.59085 0
M  V30 992 H 107.026 -5.16992 1.00132 0
M  V30 993 H 109.517 -3.61209 1.11068 0
M  V30 994 H 109.83 -7.17869 2.86155 0
M  V30 995 H 108.175 -6.45856 2.56701 0
M  V30 996 H 111.366 -4.44877 1.4561 0
M  V30 997 H 111.539 -6.07524 2.25429 0
M  V30 998 N 104.945 -0.338344 -1.53925 0
M  V30 999 C 105.892 0.520845 -2.24846 0
M  V30 1000 C 106.862 1.09976 -1.24477 0
M  V30 1001 O 108.047 1.13735 -1.53196 0
M  V30 1002 C 105.187 1.6685 -3.02084 0
M  V30 1003 C 104.3 1.11739 -4.17299 0
M  V30 1004 C 103.435 2.23193 -4.82036 0
M  V30 1005 C 102.474 1.65407 -5.89328 0
M  V30 1006 N 101.611 2.70582 -6.47866 0
M  V30 1007 H 106.451 -0.0904881 -2.97863 0
M  V30 1008 H 103.988 -0.0564282 -1.46992 0
M  V30 1009 H 105.946 2.34407 -3.45122 0
M  V30 1010 H 104.576 2.2509 -2.31375 0
M  V30 1011 H 103.628 0.332919 -3.7894 0
M  V30 1012 H 104.94 0.654677 -4.94485 0
M  V30 1013 H 104.094 2.98626 -5.28117 0
M  V30 1014 H 102.833 2.72807 -4.04262 0
M  V30 1015 H 101.838 0.884779 -5.42634 0
M  V30 1016 H 103.063 1.16652 -6.69006 0
M  V30 1017 H 101.009 3.1946 -5.72959 0
M  V30 1018 H 100.926 2.28917 -7.20509 0
M  V30 1019 H 102.194 3.45799 -6.98601 0
M  V30 1020 N 106.423 1.57458 -0.0668435 0
M  V30 1021 C 107.651 1.97624 0.612565 0
M  V30 1022 C 108.066 0.94502 1.63447 0
M  V30 1023 O 107.423 -0.0689276 1.8237 0
M  V30 1024 C 107.474 3.37869 1.28555 0
M  V30 1025 O 107.195 4.3704 0.304557 0
M  V30 1026 C 108.696 3.92882 2.05325 0
M  V30 1027 H 105.916 0.650045 0.166381 0
M  V30 1028 H 108.46 2.04035 -0.137782 0
M  V30 1029 H 106.615 3.3256 1.98702 0
M  V30 1030 H 107.029 5.18565 0.786779 0
M  V30 1031 H 108.503 4.93247 2.47812 0
M  V30 1032 H 108.98 3.29156 2.9078 0
M  V30 1033 H 109.586 4.01577 1.40056 0
M  V30 1034 N 107.901 -0.206675 1.56239 0
M  V30 1035 C 109.178 -0.954051 1.70755 0
M  V30 1036 C 109.558 -2.01841 0.618353 0
M  V30 1037 O 108.906 -2.25444 -0.372434 0
M  V30 1038 C 109.116 -1.551 3.12642 0
M  V30 1039 C 110.464 -2.03757 3.72516 0
M  V30 1040 O 111.488 -1.64965 3.15698 0
M  V30 1041 O 110.347 -2.75103 4.72208 0
M  V30 1042 H 107.441 -0.446636 0.696021 0
M  V30 1043 H 109.987 -0.197283 1.68549 0
M  V30 1044 H 108.759 -0.783212 3.83382 0
M  V30 1045 H 108.382 -2.37291 3.19028 0
M  V30 1046 N 109.379 -1.50304 -0.473955 0
M  V30 1047 C 110.311 -1.65109 -1.58971 0
M  V30 1048 C 111.324 -0.532676 -1.53839 0
M  V30 1049 O 112.513 -0.805751 -1.59279 0
M  V30 1050 C 109.613 -1.61684 -2.97845 0
M  V30 1051 C 108.786 -2.8951 -3.27876 0
M  V30 1052 C 107.845 -2.78768 -4.4629 0
M  V30 1053 O 106.871 -3.52722 -4.46739 0
M  V30 1054 N 108.073 -1.9213 -5.47783 0
M  V30 1055 H 110.838 -2.61347 -1.46689 0
M  V30 1056 H 108.399 -1.47732 -0.662324 0
M  V30 1057 H 110.391 -1.52114 -3.75024 0
M  V30 1058 H 108.961 -0.731925 -3.03911 0
M  V30 1059 H 108.181 -3.13228 -2.39336 0
M  V30 1060 H 109.469 -3.74199 -3.4475 0
M  V30 1061 H 108.867 -1.31353 -5.50239 0
M  V30 1062 H 107.424 -1.88466 -6.23958 0
M  V30 1063 N 110.857 0.726932 -1.39834 0
M  V30 1064 C 111.789 1.85147 -1.35104 0
M  V30 1065 C 112.802 1.60736 -0.258392 0
M  V30 1066 O 113.991 1.70821 -0.517931 0
M  V30 1067 C 111.091 3.21332 -1.07697 0
M  V30 1068 C 110.264 3.73033 -2.28396 0
M  V30 1069 C 109.323 4.87802 -1.97322 0
M  V30 1070 O 108.349 5.01043 -2.70083 0
M  V30 1071 N 109.551 5.72768 -0.944273 0
M  V30 1072 H 112.316 1.89706 -2.32017 0
M  V30 1073 H 109.877 0.908006 -1.3404 0
M  V30 1074 H 111.869 3.95691 -0.849144 0
M  V30 1075 H 110.439 3.11992 -0.194909 0
M  V30 1076 H 109.659 2.89934 -2.6708 0
M  V30 1077 H 110.947 4.0431 -3.08887 0
M  V30 1078 H 110.345 5.64669 -0.341427 0
M  V30 1079 H 108.902 6.4716 -0.776346 0
M  V30 1080 N 112.336 1.25143 0.95797 0
M  V30 1081 C 113.585 1.0909 1.69654 0
M  V30 1082 C 113.898 -0.368548 1.92097 0
M  V30 1083 O 115.104 -0.649455 2.63618 0
M  V30 1084 C 113.56 1.90395 3.05414 0
M  V30 1085 C 113.168 3.4081 2.90779 0
M  V30 1086 C 114.912 1.82901 3.83076 0
M  V30 1087 C 112.819 4.14423 4.21909 0
M  V30 1088 H 111.749 0.404625 0.636235 0
M  V30 1089 H 114.4 1.4931 1.06672 0
M  V30 1090 H 112.782 1.42996 3.69281 0
M  V30 1091 H 113.956 3.95859 2.35865 0
M  V30 1092 H 112.271 3.49361 2.26575 0
M  V30 1093 H 114.868 2.35196 4.80195 0
M  V30 1094 H 115.211 0.796224 4.08615 0
M  V30 1095 H 115.744 2.28033 3.25954 0
M  V30 1096 H 112.483 5.18102 4.01561 0
M  V30 1097 H 112.003 3.64159 4.76601 0
M  V30 1098 H 113.682 4.21956 4.90471 0
M  V30 1099 N 113.814 -1.1601 1.06675 0
M  V30 1100 C 114.777 -2.18724 0.685001 0
M  V30 1101 C 115.777 -1.58496 -0.271246 0
M  V30 1102 O 116.967 -1.74119 -0.0531156 0
M  V30 1103 C 114.099 -3.40899 0.00853648 0
M  V30 1104 H 115.292 -2.54011 1.59431 0
M  V30 1105 H 112.845 -1.30352 0.862441 0
M  V30 1106 H 113.58 -3.11173 -0.913337 0
M  V30 1107 H 113.365 -3.8587 0.696204 0
M  V30 1108 H 114.855 -4.16886 -0.24414 0
M  V30 1109 N 115.292 -0.849877 -1.32721 0
M  V30 1110 C 116.255 -0.296122 -2.27279 0
M  V30 1111 C 117.255 0.541458 -1.5141 0
M  V30 1112 O 118.445 0.353658 -1.70572 0
M  V30 1113 C 115.577 0.581579 -3.35902 0
M  V30 1114 H 116.77 -1.13064 -2.77771 0
M  V30 1115 H 114.323 -0.62383 -1.43311 0
M  V30 1116 H 115.058 1.43809 -2.9067 0
M  V30 1117 H 114.843 -0.0178814 -3.92096 0
M  V30 1118 H 116.333 0.961951 -4.0637 0
M  V30 1119 N 116.77 1.45427 -0.607355 0
M  V30 1120 C 118.047 1.9557 -0.0344566 0
M  V30 1121 C 118.427 1.54979 1.43334 0
M  V30 1122 O 117.775 0.812241 2.13576 0
M  V30 1123 C 117.985 3.48226 -0.232321 0
M  V30 1124 C 119.333 4.2445 -0.113001 0
M  V30 1125 O 120.357 3.55829 -0.162431 0
M  V30 1126 O 119.216 5.465 0.00209442 0
M  V30 1127 H 116.31 0.826222 0.0358667 0
M  V30 1128 H 118.856 1.55594 -0.6774 0
M  V30 1129 H 117.628 3.70739 -1.25174 0
M  V30 1130 H 117.251 3.95092 0.445896 0
M  V30 1131 N 118.248 0.346503 1.53744 0
M  V30 1132 C 119.494 -0.242135 2.01954 0
M  V30 1133 C 119.849 -1.47962 1.22984 0
M  V30 1134 O 119.142 -1.89077 0.309924 0
M  V30 1135 C 119.336 -0.605809 3.52228 0
M  V30 1136 C 119.165 0.594882 4.45748 0
M  V30 1137 C 117.935 1.1011 4.93157 0
M  V30 1138 C 120.133 1.45425 4.93311 0
M  V30 1139 N 118.115 2.26381 5.70636 0
M  V30 1140 C 119.486 2.46383 5.68942 0
M  V30 1141 C 121.541 1.47935 4.75415 0
M  V30 1142 C 120.244 3.49684 6.28581 0
M  V30 1143 C 122.27 2.50119 5.35905 0
M  V30 1144 C 121.632 3.49803 6.11406 0
M  V30 1145 H 117.731 -0.0518296 0.780281 0
M  V30 1146 H 120.315 0.486736 1.88518 0
M  V30 1147 H 118.486 -1.30378 3.65864 0
M  V30 1148 H 120.218 -1.17789 3.87179 0
M  V30 1149 H 116.973 0.668721 4.68855 0
M  V30 1150 H 117.397 2.85094 6.14044 0
M  V30 1151 H 122.039 0.722274 4.16585 0
M  V30 1152 H 119.757 4.26285 6.86518 0
M  V30 1153 H 123.343 2.52892 5.23963 0
M  V30 1154 H 122.223 4.27576 6.5738 0
M  V30 1155 N 119.726 -1.57421 0.075193 0
M  V30 1156 C 120.636 -2.1642 -0.905511 0
M  V30 1157 C 121.652 -1.12828 -1.32461 0
M  V30 1158 O 122.828 -1.45109 -1.39661 0
M  V30 1159 C 119.893 -2.71693 -2.15369 0
M  V30 1160 C 118.954 -3.90171 -1.79068 0
M  V30 1161 C 118.187 -4.42798 -2.97936 0
M  V30 1162 O 118.41 -3.94416 -4.12058 0
M  V30 1163 O 117.344 -5.34085 -2.77555 0
M  V30 1164 H 121.17 -3.00588 -0.433626 0
M  V30 1165 H 118.755 -1.48664 -0.148067 0
M  V30 1166 H 120.637 -3.07104 -2.88557 0
M  V30 1167 H 119.312 -1.90582 -2.61649 0
M  V30 1168 H 118.219 -3.59606 -1.03122 0
M  V30 1169 H 119.552 -4.72584 -1.37569 0
M  V30 1170 N 121.204 0.198386 -1.56346 0
M  V30 1171 C 122.151 1.24589 -1.94284 0
M  V30 1172 C 123.121 1.454 -0.802997 0
M  V30 1173 O 124.306 1.58588 -1.06087 0
M  V30 1174 C 121.446 2.58631 -2.28482 0
M  V30 1175 C 120.559 2.45426 -3.55514 0
M  V30 1176 C 119.694 3.7215 -3.79049 0
M  V30 1177 C 118.733 3.53763 -4.99518 0
M  V30 1178 N 117.87 4.72491 -5.19323 0
M  V30 1179 H 122.71 0.915356 -2.83593 0
M  V30 1180 H 120.247 0.440629 -1.40346 0
M  V30 1181 H 122.205 3.3672 -2.46324 0
M  V30 1182 H 120.835 2.89734 -1.42317 0
M  V30 1183 H 119.887 1.58652 -3.45737 0
M  V30 1184 H 121.199 2.27772 -4.43758 0
M  V30 1185 H 120.353 4.58679 -3.97113 0
M  V30 1186 H 119.092 3.92754 -2.89129 0
M  V30 1187 H 118.097 2.65619 -4.8138 0
M  V30 1188 H 119.322 3.34607 -5.90944 0
M  V30 1189 H 117.268 4.93365 -4.3235 0
M  V30 1190 H 117.185 4.5765 -6.01741 0
M  V30 1191 H 118.453 5.6038 -5.41843 0
M  V30 1192 N 122.682 1.50554 0.465978 0
M  V30 1193 C 123.63 1.70324 1.58406 0
M  V30 1194 C 124.624 0.569139 1.59553 0
M  V30 1195 O 125.83 0.749776 1.63641 0
M  V30 1196 H 122.205 0.537688 0.525734 0
M  V30 1197 H 124.176 2.64104 1.38894 0
M  V30 1198 C 122.925 1.81928 2.96307 0
M  V30 1199 H 122.248 2.68586 2.96144 0
M  V30 1200 H 123.688 1.99784 3.73982 0
M  V30 1201 C 122.147 0.572095 3.32007 0
M  V30 1202 O 122.677 -0.286416 4.00678 0
M  V30 1203 N 120.883 0.424606 2.87481 0
M  V30 1204 H 120.43 1.12427 2.31771 0
M  V30 1205 H 120.388 -0.408697 3.11732 0
M  V30 1206 N 124.16 -0.719506 1.40217 0
M  V30 1207 C 125.409 -1.47486 1.37589 0
M  V30 1208 C 125.722 -1.9559 -0.0201568 0
M  V30 1209 O 126.928 -2.70973 -0.169049 0
M  V30 1210 C 125.384 -2.66575 2.41796 0
M  V30 1211 C 124.992 -2.25358 3.87192 0
M  V30 1212 C 126.736 -3.4433 2.48269 0
M  V30 1213 C 124.643 -3.41262 4.83005 0
M  V30 1214 H 123.573 -0.553901 0.511576 0
M  V30 1215 H 126.224 -0.783427 1.65936 0
M  V30 1216 H 124.606 -3.3787 2.06543 0
M  V30 1217 H 125.78 -1.61509 4.31569 0
M  V30 1218 H 124.095 -1.60657 3.84159 0
M  V30 1219 H 126.692 -4.30569 3.17041 0
M  V30 1220 H 127.035 -3.87872 1.51198 0
M  V30 1221 H 127.568 -2.80076 2.82493 0
M  V30 1222 H 124.307 -3.02755 5.81394 0
M  V30 1223 H 123.827 -4.0404 4.43297 0
M  V30 1224 H 125.506 -4.07383 5.02641 0
M  V30 1225 N 125.638 -1.25649 -0.95132 0
M  V30 1226 C 126.568 -1.08808 -2.06599 0
M  V30 1227 C 127.549 0.00382547 -1.701 0
M  V30 1228 O 128.734 -0.166325 -1.93486 0
M  V30 1229 C 125.864 -0.709542 -3.39975 0
M  V30 1230 C 124.818 -1.75206 -3.90496 0
M  V30 1231 C 124.144 -1.22811 -5.20405 0
M  V30 1232 C 125.444 -3.15153 -4.16504 0
M  V30 1233 H 127.138 -2.02048 -2.20946 0
M  V30 1234 H 124.684 -0.972835 -1.06169 0
M  V30 1235 H 126.637 -0.578649 -4.17408 0
M  V30 1236 H 125.361 0.258556 -3.25575 0
M  V30 1237 H 124.02 -1.87145 -3.15234 0
M  V30 1238 H 123.668 -0.250145 -5.02378 0
M  V30 1239 H 123.368 -1.92492 -5.55176 0
M  V30 1240 H 124.892 -1.10968 -6.00432 0
M  V30 1241 H 126.306 -3.06349 -4.84586 0
M  V30 1242 H 124.703 -3.82333 -4.62538 0
M  V30 1243 H 125.773 -3.61966 -3.22658 0
M  V30 1244 N 127.117 1.15442 -1.07289 0
M  V30 1245 C 128.366 1.85557 -0.790669 0
M  V30 1246 C 128.679 1.83186 0.685739 0
M  V30 1247 O 129.885 2.48977 1.0827 0
M  V30 1248 C 128.341 3.33038 -1.36433 0
M  V30 1249 C 127.949 3.43856 -2.8717 0
M  V30 1250 C 129.693 4.0834 -1.1601 0
M  V30 1251 C 127.6 4.85482 -3.3773 0
M  V30 1252 H 126.53 0.695122 -0.292098 0
M  V30 1253 H 129.181 1.30219 -1.29287 0
M  V30 1254 H 127.563 3.88043 -0.789864 0
M  V30 1255 H 128.737 2.98961 -3.50655 0
M  V30 1256 H 127.052 2.81998 -3.06376 0
M  V30 1257 H 129.649 5.12859 -1.51262 0
M  V30 1258 H 129.992 4.16182 -0.0991007 0
M  V30 1259 H 130.525 3.59603 -1.70089 0
M  V30 1260 H 127.264 4.82823 -4.43353 0
M  V30 1261 H 126.784 5.30961 -2.78999 0
M  V30 1262 H 128.463 5.54335 -3.33648 0
M  V30 1263 N 128.595 0.856903 1.32268 0
M  V30 1264 C 129.558 0.308171 2.27119 0
M  V30 1265 C 130.558 -0.533421 1.51695 0
M  V30 1266 O 131.748 -0.344607 1.70757 0
M  V30 1267 C 128.88 -0.563757 3.36206 0
M  V30 1268 H 130.073 1.14535 2.77167 0
M  V30 1269 H 127.626 0.631421 1.42978 0
M  V30 1270 H 128.361 -1.42266 2.91429 0
M  V30 1271 H 128.146 0.0386749 3.92081 0
M  V30 1272 H 129.636 -0.940386 4.06874 0
M  V30 1273 N 130.073 -1.45103 0.615059 0
M  V30 1274 C 130.983 -2.34382 -0.101034 0
M  V30 1275 C 131.999 -1.51681 -0.852585 0
M  V30 1276 O 133.175 -1.8446 -0.808484 0
M  V30 1277 C 130.24 -3.29417 -1.08099 0
M  V30 1278 C 129.301 -4.28025 -0.330577 0
M  V30 1279 C 128.534 -5.1852 -1.26385 0
M  V30 1280 O 128.757 -5.12598 -2.50198 0
M  V30 1281 O 127.691 -5.97122 -0.756866 0
M  V30 1282 H 131.517 -2.97033 0.632855 0
M  V30 1283 H 129.102 -1.4461 0.375293 0
M  V30 1284 H 130.984 -3.87958 -1.6452 0
M  V30 1285 H 129.659 -2.69321 -1.79577 0
M  V30 1286 H 128.566 -3.73078 0.276283 0
M  V30 1287 H 129.899 -4.90997 0.343866 0
M  V30 1288 N 131.551 -0.354651 -1.53558 0
M  V30 1289 C 132.967 -0.00315426 -1.596 0
M  V30 1290 C 133.167 1.47741 -1.37021 0
M  V30 1291 O 132.223 2.23759 -1.16996 0
M  V30 1292 C 133.536 -0.44929 -2.97325 0
M  V30 1293 C 135.084 -0.402578 -3.104 0
M  V30 1294 C 135.559 -0.824355 -4.5052 0
M  V30 1295 N 137.05 -0.778979 -4.56603 0
M  V30 1296 C 137.785 -1.07715 -5.63192 0
M  V30 1297 N 137.281 -1.44405 -6.77583 0
M  V30 1298 N 139.074 -1.00066 -5.53121 0
M  V30 1299 H 131.225 -1.31893 -1.66487 0
M  V30 1300 H 133.488 -0.538388 -0.780284 0
M  V30 1301 H 133.194 -1.48202 -3.1895 0
M  V30 1302 H 133.068 0.169772 -3.76818 0
M  V30 1303 H 135.455 0.621004 -2.88492 0
M  V30 1304 H 135.536 -1.05699 -2.32941 0
M  V30 1305 H 135.18 -1.846 -4.73165 0
M  V30 1306 H 135.11 -0.147304 -5.26394 0
M  V30 1307 H 137.601 -0.508528 -3.74463 0
M  V30 1308 H 137.914 -1.65612 -7.54846 0
M  V30 1309 H 136.259 -1.4826 -6.79002 0
M  V30 1310 H 139.45 -0.713293 -4.62633 0
M  V30 1311 H 139.623 -1.23638 -6.36096 0
M  V30 1312 N 133.029 1.57378 -0.0835403 0
M  V30 1313 C 134.269 1.95808 0.586381 0
M  V30 1314 C 134.633 0.963706 1.66062 0
M  V30 1315 O 135.834 1.23608 2.38693 0
M  V30 1316 C 134.105 3.38808 1.13771 0
M  V30 1317 S 135.664 3.99225 1.82112 0
M  V30 1318 H 132.482 0.684675 0.191679 0
M  V30 1319 H 135.084 1.94843 -0.160194 0
M  V30 1320 H 133.788 4.08954 0.344197 0
M  V30 1321 H 133.319 3.43344 1.92038 0
M  V30 1322 H 135.334 3.87087 3.10449 0
M  V30 1323 N 134.507 -0.190092 1.56449 0
M  V30 1324 C 135.756 -0.907912 1.80111 0
M  V30 1325 C 136.069 -1.84214 0.657619 0
M  V30 1326 O 137.275 -2.60094 0.778663 0
M  V30 1327 C 135.731 -1.66485 3.19078 0
M  V30 1328 C 135.339 -0.7752 4.41242 0
M  V30 1329 C 137.083 -2.37201 3.52045 0
M  V30 1330 C 134.99 -1.53129 5.71231 0
M  V30 1331 H 133.92 -0.34276 0.671589 0
M  V30 1332 H 136.571 -0.161109 1.82791 0
M  V30 1333 H 134.953 -2.45572 3.10661 0
M  V30 1334 H 136.127 -0.0226298 4.60794 0
M  V30 1335 H 134.442 -0.178627 4.16017 0
M  V30 1336 H 137.039 -2.94329 4.46402 0
M  V30 1337 H 137.382 -3.11632 2.76028 0
M  V30 1338 H 137.915 -1.65075 3.61932 0
M  V30 1339 H 134.654 -0.82967 6.50228 0
M  V30 1340 H 134.174 -2.25767 5.55688 0
M  V30 1341 H 135.853 -2.08377 6.12526 0
M  V30 1342 N 135.985 -1.50799 -0.457987 0
M  V30 1343 C 136.933 -1.71162 -1.575 0
M  V30 1344 C 137.927 -0.577592 -1.59249 0
M  V30 1345 O 139.133 -0.758443 -1.63241 0
M  V30 1346 H 135.508 -0.540468 -0.522875 0
M  V30 1347 H 137.479 -2.64837 -1.37492 0
M  V30 1348 C 136.228 -1.83496 -2.95338 0
M  V30 1349 H 135.551 -2.70153 -2.94716 0
M  V30 1350 H 136.991 -2.01765 -3.72917 0
M  V30 1351 C 135.45 -0.589694 -3.31699 0
M  V30 1352 O 135.98 0.265163 -4.00824 0
M  V30 1353 N 134.186 -0.439845 -2.87252 0
M  V30 1354 H 133.733 -1.13655 -2.31172 0
M  V30 1355 H 133.691 0.392159 -3.11945 0
M  V30 1356 N 137.463 0.71206 -1.40597 0
M  V30 1357 C 138.395 1.83704 -1.37061 0
M  V30 1358 C 139.408 1.60453 -0.275426 0
M  V30 1359 O 140.597 1.70262 -0.53602 0
M  V30 1360 C 137.697 3.20172 -1.11099 0
M  V30 1361 C 136.87 3.7059 -2.3234 0
M  V30 1362 C 135.929 4.85681 -2.02485 0
M  V30 1363 O 134.955 4.9815 -2.75382 0
M  V30 1364 N 136.157 5.71735 -1.00497 0
M  V30 1365 H 138.922 1.87235 -2.34016 0
M  V30 1366 H 136.483 0.893739 -1.34996 0
M  V30 1367 H 138.475 3.94768 -0.891064 0
M  V30 1368 H 137.045 3.11767 -0.227989 0
M  V30 1369 H 136.265 2.87085 -2.7014 0
M  V30 1370 H 137.553 4.01011 -3.13157 0
M  V30 1371 H 136.951 5.64275 -0.401298 0
M  V30 1372 H 135.508 6.463 -0.844942 0
M  V30 1373 N 138.941 1.26152 0.944643 0
M  V30 1374 C 139.891 1.04081 2.02857 0
M  V30 1375 C 140.875 -0.0256555 1.6088 0
M  V30 1376 O 142.067 0.190884 1.75968 0
M  V30 1377 C 139.196 0.672118 3.36656 0
M  V30 1378 C 138.282 1.77586 3.85128 0
M  V30 1379 N 138.673 3.01272 4.06287 0
M  V30 1380 C 136.971 1.65867 4.1401 0
M  V30 1381 C 137.672 3.72983 4.46384 0
M  V30 1382 N 136.648 3.00653 4.52889 0
M  V30 1383 H 140.45 1.97968 2.17223 0
M  V30 1384 H 137.964 1.16618 1.13022 0
M  V30 1385 H 139.961 0.495166 4.13949 0
M  V30 1386 H 138.621 -0.259307 3.23663 0
M  V30 1387 H 139.632 3.37213 3.93075 0
M  V30 1388 H 136.309 0.796907 4.09824 0
M  V30 1389 H 137.699 4.792 4.70975 0
M  V30 1390 N 140.419 -1.14872 1.07899 0
M  V30 1391 C 141.666 -1.85789 0.805532 0
M  V30 1392 C 141.994 -1.82649 -0.668561 0
M  V30 1393 O 141.249 -1.24858 -1.50695 0
M  V30 1394 C 141.548 -3.34223 1.26609 0
M  V30 1395 C 141.214 -3.57555 2.74709 0
M  V30 1396 C 139.876 -3.63631 3.1516 0
M  V30 1397 C 142.228 -3.66803 3.70277 0
M  V30 1398 C 139.556 -3.76473 4.49983 0
M  V30 1399 C 141.908 -3.8117 5.04869 0
M  V30 1400 C 140.572 -3.85494 5.44932 0
M  V30 1401 H 139.842 -0.679849 0.294765 0
M  V30 1402 H 142.489 -1.3572 1.35101 0
M  V30 1403 H 140.794 -3.86536 0.640103 0
M  V30 1404 H 142.491 -3.87511 1.03132 0
M  V30 1405 H 139.081 -3.5347 2.42398 0
M  V30 1406 H 143.265 -3.61404 3.40149 0
M  V30 1407 H 138.521 -3.7808 4.80484 0
M  V30 1408 H 142.695 -3.87268 5.78789 0
M  V30 1409 H 140.322 -3.95197 6.49403 0
M  V30 1410 N 141.898 -0.863906 -1.31812 0
M  V30 1411 C 143.314 -0.555004 -1.49639 0
M  V30 1412 C 143.514 0.912266 -1.79666 0
M  V30 1413 O 142.57 1.69479 -1.87171 0
M  V30 1414 C 143.883 -1.44998 -2.63431 0
M  V30 1415 C 145.431 -1.45138 -2.77316 0
M  V30 1416 C 145.906 -2.33179 -3.94197 0
M  V30 1417 N 147.397 -2.31025 -4.01474 0
M  V30 1418 C 148.132 -2.95871 -4.9117 0
M  V30 1419 N 147.628 -3.69863 -5.8581 0
M  V30 1420 N 149.421 -2.85211 -4.84367 0
M  V30 1421 H 141.572 -1.81339 -1.10589 0
M  V30 1422 H 143.835 -0.77505 -0.545895 0
M  V30 1423 H 143.541 -2.49377 -2.48 0
M  V30 1424 H 143.415 -1.14409 -3.59431 0
M  V30 1425 H 145.802 -0.415201 -2.92164 0
M  V30 1426 H 145.883 -1.79747 -1.82001 0
M  V30 1427 H 145.527 -3.3687 -3.80107 0
M  V30 1428 H 145.457 -1.95897 -4.88807 0
M  V30 1429 H 147.948 -1.77238 -3.33759 0
M  V30 1430 H 148.261 -4.16486 -6.50968 0
M  V30 1431 H 146.606 -3.73971 -5.85808 0
M  V30 1432 H 149.797 -2.26948 -4.09405 0
M  V30 1433 H 149.97 -3.36027 -5.54066 0
M  V30 1434 N 143.376 1.44774 -0.622745 0
M  V30 1435 C 144.624 2.01721 -0.123655 0
M  V30 1436 C 144.945 1.49172 1.25589 0
M  V30 1437 O 144.215 0.691974 1.83272 0
M  V30 1438 H 142.795 0.745777 -0.0427225 0
M  V30 1439 H 145.457 1.77382 -0.807559 0
M  V30 1440 H 144.553 3.11984 -0.0849534 0
M  V30 1441 N 144.854 0.36279 1.53368 0
M  V30 1442 C 145.801 -0.485008 2.25646 0
M  V30 1443 C 146.771 -1.07982 1.2621 0
M  V30 1444 O 147.956 -1.11284 1.54986 0
M  V30 1445 C 145.096 -1.62023 3.04701 0
M  V30 1446 C 144.209 -1.05086 4.19024 0
M  V30 1447 C 143.344 -2.15496 4.85525 0
M  V30 1448 C 142.383 -1.5601 5.91884 0
M  V30 1449 N 141.52 -2.60241 6.52088 0
M  V30 1450 H 146.36 0.137864 2.97681 0
M  V30 1451 H 143.897 0.0798061 1.46883 0
M  V30 1452 H 145.855 -2.28887 3.48807 0
M  V30 1453 H 144.485 -2.2138 2.34927 0
M  V30 1454 H 143.537 -0.27259 3.79422 0
M  V30 1455 H 144.849 -0.575926 4.95464 0
M  V30 1456 H 144.003 -2.90186 5.32801 0
M  V30 1457 H 142.742 -2.66341 4.08551 0
M  V30 1458 H 141.747 -0.798338 5.43973 0
M  V30 1459 H 142.972 -1.05994 6.70777 0
M  V30 1460 H 140.918 -3.10304 5.77968 0
M  V30 1461 H 140.835 -2.17426 7.24059 0
M  V30 1462 H 142.103 -3.34641 7.04014 0
M  V30 1463 N 146.332 -1.57332 0.0918853 0
M  V30 1464 C 147.609 -1.85691 -0.614668 0
M  V30 1465 C 147.989 -0.988146 -1.86545 0
M  V30 1466 O 147.337 -0.0597055 -2.28422 0
M  V30 1467 C 147.547 -3.36294 -0.933126 0
M  V30 1468 C 148.895 -4.04275 -1.29796 0
M  V30 1469 O 149.919 -3.41157 -1.02424 0
M  V30 1470 O 148.778 -5.1564 -1.81047 0
M  V30 1471 H 145.872 -0.767802 -0.307261 0
M  V30 1472 H 148.418 -1.69244 0.12434 0
M  V30 1473 H 147.19 -3.91273 -0.0456404 0
M  V30 1474 H 146.813 -3.58076 -1.72822 0
M  V30 1475 N 147.81 0.181792 -1.56548 0
M  V30 1476 C 148.743 1.25366 -1.90679 0
M  V30 1477 C 149.721 1.43299 -0.768376 0
M  V30 1478 O 150.905 1.58475 -1.02068 0
M  V30 1479 C 148.032 2.61826 -2.1486 0
M  V30 1480 C 147.078 2.60688 -3.37556 0
M  V30 1481 S 147.911 2.10804 -4.92262 0
M  V30 1482 C 149.067 3.49062 -5.19525 0
M  V30 1483 H 149.3 0.962277 -2.81296 0
M  V30 1484 H 146.833 0.385892 -1.495 0
M  V30 1485 H 148.791 3.40371 -2.29473 0
M  V30 1486 H 147.452 2.88169 -1.24969 0
M  V30 1487 H 146.645 3.61058 -3.51643 0
M  V30 1488 H 146.247 1.90232 -3.22006 0
M  V30 1489 H 148.539 4.45003 -5.10861 0
M  V30 1490 H 149.482 3.39859 -6.2121 0
M  V30 1491 H 149.89 3.4459 -4.47122 0
M  V30 1492 N 149.288 1.51039 0.449983 0
M  V30 1493 C 150.699 1.557 1.03026 0
M  V30 1494 C 151.05 0.372939 1.92623 0
M  V30 1495 O 150.175 -0.511771 2.10261 0
M  V30 1496 C 150.77 2.82171 1.87523 0
M  V30 1497 C 149.329 2.89444 2.40622 0
M  V30 1498 C 148.476 2.50228 1.19504 0
M  V30 1499 H 151.427 1.56999 0.231745 0
M  V30 1500 H 151.448 2.65219 2.72835 0
M  V30 1501 H 150.96 3.68331 1.22286 0
M  V30 1502 H 149.061 2.07685 3.0935 0
M  V30 1503 H 149.174 3.92816 2.74285 0
M  V30 1504 H 147.538 2.03139 1.53644 0
M  V30 1505 H 148.321 3.38719 0.558972 0
M  V30 1506 N 150.766 -0.704594 1.40972 0
M  V30 1507 C 152.043 -1.45847 1.30338 0
M  V30 1508 C 152.423 -2.10973 -0.0732344 0
M  V30 1509 O 151.771 -2.00997 -1.08685 0
M  V30 1510 C 151.981 -2.48525 2.45023 0
M  V30 1511 C 153.329 -3.1404 2.8577 0
M  V30 1512 O 154.353 -2.58848 2.44696 0
M  V30 1513 O 153.212 -4.13981 3.56766 0
M  V30 1514 H 150.306 -0.649092 0.512454 0
M  V30 1515 H 152.852 -0.735836 1.52917 0
M  V30 1516 H 151.624 -1.98994 3.36923 0
M  V30 1517 H 151.247 -3.2831 2.24272 0
M  V30 1518 N 152.244 -1.26651 -0.937939 0
M  V30 1519 C 153.192 -1.08308 -2.05845 0
M  V30 1520 C 154.186 -0.0090757 -1.69398 0
M  V30 1521 O 155.392 -0.166007 -1.79233 0
M  V30 1522 H 151.767 -0.333416 -0.674046 0
M  V30 1523 H 153.738 -2.03261 -2.18467 0
M  V30 1524 C 152.487 -0.736229 -3.39816 0
M  V30 1525 H 151.81 -1.55453 -3.6834 0
M  V30 1526 H 153.25 -0.64769 -4.19024 0
M  V30 1527 C 151.709 0.558824 -3.32233 0
M  V30 1528 O 152.239 1.59621 -3.68624 0
M  V30 1529 N 150.445 0.550657 -2.85335 0
M  V30 1530 H 149.992 -0.293943 -2.55917 0
M  V30 1531 H 149.95 1.41726 -2.80644 0
M  V30 1532 N 153.722 1.14298 -1.08507 0
M  V30 1533 C 154.685 2.17607 -0.719711 0
M  V30 1534 C 155.685 1.58907 0.245997 0
M  V30 1535 O 156.875 1.74181 0.0254081 0
M  V30 1536 C 154.007 3.40842 -0.0627695 0
M  V30 1537 H 155.2 2.51443 -1.63452 0
M  V30 1538 H 152.753 1.28963 -0.88307 0
M  V30 1539 H 153.488 3.12587 0.863716 0
M  V30 1540 H 153.273 3.84713 -0.757504 0
M  V30 1541 H 154.763 4.17221 0.177786 0
M  V30 1542 N 155.201 0.870884 1.31352 0
M  V30 1543 C 156.448 0.482273 1.96673 0
M  V30 1544 C 156.776 -0.965638 1.68836 0
M  V30 1545 O 156.031 -1.69514 0.977937 0
M  V30 1546 C 156.33 0.687157 3.50732 0
M  V30 1547 C 155.996 2.108 3.9859 0
M  V30 1548 C 154.658 2.49656 4.1137 0
M  V30 1549 C 157.01 3.03459 4.23748 0
M  V30 1550 C 154.338 3.80412 4.46659 0
M  V30 1551 C 156.69 4.3373 4.60501 0
M  V30 1552 C 155.354 4.725 4.71487 0
M  V30 1553 H 154.624 0.176476 0.719679 0
M  V30 1554 H 157.271 1.10405 1.56471 0
M  V30 1555 H 155.576 -0.0177476 3.91796 0
M  V30 1556 H 157.273 0.366284 3.99324 0
M  V30 1557 H 153.863 1.79633 3.8914 0
M  V30 1558 H 158.047 2.74665 4.13368 0
M  V30 1559 H 153.303 4.1021 4.53362 0
M  V30 1560 H 157.477 5.05578 4.78919 0
M  V30 1561 H 155.104 5.73859 4.98588 0
M  V30 1562 N 156.679 -1.44442 0.630414 0
M  V30 1563 C 157.904 -2.06927 0.139944 0
M  V30 1564 C 158.329 -1.46795 -1.17613 0
M  V30 1565 O 157.687 -0.569144 -1.72135 0
M  V30 1566 C 157.735 -3.6058 0.0379581 0
M  V30 1567 O 156.839 -3.99937 -1.0062 0
M  V30 1568 H 156.18 -0.658608 0.0844483 0
M  V30 1569 H 158.71 -1.85327 0.866891 0
M  V30 1570 H 158.72 -4.07714 -0.152856 0
M  V30 1571 H 157.395 -4.03728 0.998809 0
M  V30 1572 H 155.972 -3.64436 -0.79001 0
M  V30 1573 N 158.157 -0.370918 -1.53173 0
M  V30 1574 C 159.12 0.460778 -2.24521 0
M  V30 1575 C 160.12 1.00536 -1.25496 0
M  V30 1576 O 161.31 0.890266 -1.49733 0
M  V30 1577 C 158.442 1.64457 -2.98608 0
M  V30 1578 H 159.635 -0.163613 -2.99453 0
M  V30 1579 H 157.188 -0.122699 -1.55818 0
M  V30 1580 H 157.923 2.30691 -2.2793 0
M  V30 1581 H 157.708 1.26099 -3.7127 0
M  V30 1582 H 159.198 2.23384 -3.5283 0
M  V30 1583 N 159.635 1.57281 -0.100228 0
M  V30 1584 C 160.568 2.09976 0.893612 0
M  V30 1585 C 161.546 1.01155 1.27304 0
M  V30 1586 O 162.73 1.28687 1.37739 0
M  V30 1587 C 159.857 2.58098 2.19324 0
M  V30 1588 C 158.903 3.78626 1.96328 0
M  V30 1589 S 159.736 5.21959 1.19662 0
M  V30 1590 C 160.892 5.73435 2.50844 0
M  V30 1591 H 161.125 2.93946 0.44534 0
M  V30 1592 H 158.658 1.53985 0.113167 0
M  V30 1593 H 160.616 2.8648 2.94005 0
M  V30 1594 H 159.277 1.74344 2.61272 0
M  V30 1595 H 158.47 4.10382 2.92579 0
M  V30 1596 H 158.072 3.50763 1.29775 0
M  V30 1597 H 160.364 5.82015 3.46792 0
M  V30 1598 H 161.307 6.7185 2.23659 0
M  V30 1599 H 161.715 5.01395 2.59352 0
M  V30 1600 N 161.113 -0.173488 1.56642 0
M  V30 1601 C 162.341 -0.906095 1.86004 0
M  V30 1602 C 162.756 -1.75921 0.685355 0
M  V30 1603 O 162.113 -1.79198 -0.345578 0
M  V30 1604 C 162.164 -1.78462 3.14378 0
M  V30 1605 O 161.885 -0.965914 4.27319 0
M  V30 1606 C 163.386 -2.62707 3.57071 0
M  V30 1607 H 160.606 -0.263341 0.617165 0
M  V30 1608 H 163.15 -0.174236 2.03756 0
M  V30 1609 H 161.305 -2.46984 2.98459 0
M  V30 1610 H 161.719 -1.56655 5.00559 0
M  V30 1611 H 163.193 -3.19969 4.49804 0
M  V30 1612 H 163.67 -3.37472 2.81086 0
M  V30 1613 H 164.276 -1.99521 3.75595 0
M  V30 1614 N 162.591 -1.51276 -0.441967 0
M  V30 1615 C 163.816 -1.67799 -1.21895 0
M  V30 1616 C 164.241 -0.372864 -1.84367 0
M  V30 1617 O 163.599 0.666501 -1.68604 0
M  V30 1618 C 163.647 -2.79199 -2.28211 0
M  V30 1619 O 162.751 -2.42479 -3.33583 0
M  V30 1620 H 162.092 -0.559649 -0.357336 0
M  V30 1621 H 164.622 -1.97815 -0.522522 0
M  V30 1622 H 164.632 -3.03146 -2.73069 0
M  V30 1623 H 163.307 -3.73906 -1.82118 0
M  V30 1624 H 161.884 -2.29087 -2.94234 0
M  V30 1625 N 164.069 0.697108 -1.41344 0
M  V30 1626 C 165.032 1.79281 -1.42797 0
M  V30 1627 C 166.032 1.57607 -0.318837 0
M  V30 1628 O 167.222 1.64309 -0.578642 0
M  V30 1629 C 164.354 3.17632 -1.23785 0
M  V30 1630 H 165.547 1.79385 -2.40335 0
M  V30 1631 H 163.1 0.904582 -1.27464 0
M  V30 1632 H 163.835 3.23167 -0.270814 0
M  V30 1633 H 163.62 3.34765 -2.04144 0
M  V30 1634 H 165.11 3.97617 -1.27633 0
M  V30 1635 N 165.547 1.27147 0.931209 0
M  V30 1636 C 166.51 1.09615 2.01289 0
M  V30 1637 C 167.51 0.0412581 1.60747 0
M  V30 1638 O 168.7 0.285545 1.71844 0
M  V30 1639 C 165.832 0.669447 3.34262 0
M  V30 1640 H 167.025 2.05662 2.18273 0
M  V30 1641 H 164.578 1.09885 1.11153 0
M  V30 1642 H 165.313 -0.292572 3.22978 0
M  V30 1643 H 165.098 1.43127 3.65044 0
M  V30 1644 H 166.588 0.568921 4.13706 0
M  V30 1645 N 167.025 -1.13721 1.09112 0
M  V30 1646 C 168.272 -1.84924 0.825192 0
M  V30 1647 C 168.6 -1.83347 -0.649151 0
M  V30 1648 O 167.855 -1.26449 -1.49362 0
M  V30 1649 C 168.154 -3.32861 1.30146 0
M  V30 1650 C 167.82 -3.54621 2.78486 0
M  V30 1651 C 166.482 -3.60268 3.18999 0
M  V30 1652 C 168.834 -3.62855 3.74146 0
M  V30 1653 C 166.162 -3.71679 4.53951 0
M  V30 1654 C 168.514 -3.75793 5.08883 0
M  V30 1655 C 167.178 -3.79692 5.4899 0
M  V30 1656 H 166.448 -0.676684 0.301959 0
M  V30 1657 H 169.095 -1.3428 1.36533 0
M  V30 1658 H 167.4 -3.85835 0.681064 0
M  V30 1659 H 169.097 -3.86395 1.07236 0
M  V30 1660 H 165.687 -3.50879 2.46134 0
M  V30 1661 H 169.871 -3.57775 3.43963 0
M  V30 1662 H 165.127 -3.72963 4.84467 0
M  V30 1663 H 169.301 -3.81107 5.82864 0
M  V30 1664 H 166.928 -3.88287 6.53558 0
M  V30 1665 N 168.503 -0.877838 -1.30888 0
M  V30 1666 C 169.451 -0.328662 -2.30266 0
M  V30 1667 C 170.445 0.560496 -1.59859 0
M  V30 1668 O 171.651 0.445722 -1.74394 0
M  V30 1669 H 168.026 -0.0876142 -0.746879 0
M  V30 1670 H 169.997 -1.18061 -2.74051 0
M  V30 1671 C 168.746 0.448071 -3.44801 0
M  V30 1672 H 168.069 -0.226859 -3.99156 0
M  V30 1673 H 169.509 0.797541 -4.16432 0
M  V30 1674 C 167.968 1.64239 -2.94155 0
M  V30 1675 O 168.498 2.74175 -2.93583 0
M  V30 1676 N 166.704 1.47716 -2.50256 0
M  V30 1677 H 166.251 0.582821 -2.5092 0
M  V30 1678 H 166.209 2.27765 -2.16727 0
M  V30 1679 N 169.982 1.44106 -0.638065 0
M  V30 1680 C 170.915 2.27924 0.112161 0
M  V30 1681 C 171.893 1.38945 0.844574 0
M  V30 1682 O 173.077 1.68386 0.847248 0
M  V30 1683 C 170.204 3.18029 1.16512 0
M  V30 1684 C 169.25 4.23163 0.532458 0
M  V30 1685 S 170.083 5.31131 -0.682666 0
M  V30 1686 C 171.239 6.24805 0.37013 0
M  V30 1687 H 171.472 2.91205 -0.598887 0
M  V30 1688 H 169.005 1.48394 -0.426441 0
M  V30 1689 H 170.963 3.70492 1.76766 0
M  V30 1690 H 169.624 2.53955 1.8484 0
M  V30 1691 H 168.817 4.86252 1.32571 0
M  V30 1692 H 168.419 3.74 0.00437644 0
M  V30 1693 H 170.711 6.66042 1.24071 0
M  V30 1694 H 171.654 7.07741 -0.225349 0
M  V30 1695 H 172.062 5.60154 0.699141 0
M  V30 1696 N 171.46 0.379036 1.52974 0
M  V30 1697 C 172.708 -0.206014 2.01047 0
M  V30 1698 C 173.029 -1.48175 1.26765 0
M  V30 1699 O 172.299 -1.92085 0.384743 0
M  V30 1700 H 170.879 -0.0791184 0.742798 0
M  V30 1701 H 173.541 0.508366 1.88153 0
M  V30 1702 H 172.637 -0.423501 3.09213 0
M  V30 1703 N 172.938 -1.57226 0.108567 0
M  V30 1704 C 174.178 -1.96717 -0.555155 0
M  V30 1705 C 174.542 -0.990003 -1.64508 0
M  V30 1706 O 175.743 -1.2739 -2.36696 0
M  V30 1707 C 174.014 -3.40575 -1.08367 0
M  V30 1708 S 175.573 -4.02072 -1.75737 0
M  V30 1709 H 172.391 -0.687638 -0.180762 0
M  V30 1710 H 174.993 -1.94563 0.191172 0
M  V30 1711 H 173.697 -4.0945 -0.279092 0
M  V30 1712 H 173.228 -3.46356 -1.86551 0
M  V30 1713 H 175.243 -3.91977 -3.04251 0
M  V30 1714 N 174.416 0.165178 -1.56732 0
M  V30 1715 C 175.364 1.22369 -1.97809 0
M  V30 1716 C 176.358 1.45488 -0.867741 0
M  V30 1717 O 177.564 1.45995 -1.05288 0
M  V30 1718 H 173.939 0.411486 -0.629431 0
M  V30 1719 H 175.91 0.850425 -2.86025 0
M  V30 1720 C 174.659 2.55403 -2.35934 0
M  V30 1721 H 173.982 2.38438 -3.20916 0
M  V30 1722 H 175.422 3.2814 -2.68514 0
M  V30 1723 C 173.881 3.14611 -1.20506 0
M  V30 1724 O 174.411 3.98626 -0.496016 0
M  V30 1725 N 172.617 2.7379 -0.97403 0
M  V30 1726 H 172.164 2.0557 -1.55238 0
M  V30 1727 H 172.122 3.1374 -0.203573 0
M  V30 1728 N 175.894 1.51508 0.433938 0
M  V30 1729 C 177.119 1.68443 1.21003 0
M  V30 1730 C 177.544 0.382636 1.84167 0
M  V30 1731 O 176.902 -0.65755 1.68956 0
M  V30 1732 C 176.95 2.80405 2.26727 0
M  V30 1733 O 176.054 2.44245 3.32292 0
M  V30 1734 H 175.395 0.561536 0.354363 0
M  V30 1735 H 177.925 1.9809 0.512024 0
M  V30 1736 H 177.935 3.0459 2.71457 0
M  V30 1737 H 176.61 3.74867 1.80132 0
M  V30 1738 H 175.187 2.30644 2.93015 0
M  V30 1739 N 177.372 -0.689602 1.41712 0
M  V30 1740 C 178.302 -1.81577 1.46806 0
M  V30 1741 C 179.283 -1.66945 0.326105 0
M  V30 1742 O 180.468 -1.86588 0.538377 0
M  V30 1743 C 177.598 -3.19762 1.35535 0
M  V30 1744 C 176.552 -3.49107 2.47605 0
M  V30 1745 C 175.878 -4.86711 2.21397 0
M  V30 1746 C 177.178 -3.47483 3.89939 0
M  V30 1747 H 178.872 -1.7757 2.41058 0
M  V30 1748 H 176.418 -0.852887 1.16025 0
M  V30 1749 H 178.371 -3.98263 1.3771 0
M  V30 1750 H 177.095 -3.24409 0.377708 0
M  V30 1751 H 175.754 -2.72959 2.44722 0
M  V30 1752 H 175.402 -4.8799 1.21961 0
M  V30 1753 H 175.102 -5.0731 2.96497 0
M  V30 1754 H 176.626 -5.67515 2.25297 0
M  V30 1755 H 178.04 -4.1598 3.94505 0
M  V30 1756 H 176.437 -3.79615 4.64771 0
M  V30 1757 H 177.507 -2.46341 4.17665 0
M  V30 1758 N 178.85 -1.27639 -0.924453 0
M  V30 1759 C 180.266 -1.05113 -1.20097 0
M  V30 1760 C 180.466 0.213262 -2.00368 0
M  V30 1761 O 179.522 0.91787 -2.35226 0
M  V30 1762 C 180.835 -2.29244 -1.94596 0
M  V30 1763 C 182.383 -2.34315 -2.07522 0
M  V30 1764 C 182.858 -3.58183 -2.85427 0
M  V30 1765 N 184.349 -3.5876 -2.92994 0
M  V30 1766 C 185.084 -4.51277 -3.53746 0
M  V30 1767 N 184.58 -5.54102 -4.15863 0
M  V30 1768 N 186.373 -4.38894 -3.51181 0
M  V30 1769 H 178.524 -2.08821 -0.388264 0
M  V30 1770 H 180.787 -0.918568 -0.234385 0
M  V30 1771 H 180.493 -3.21301 -1.43034 0
M  V30 1772 H 180.367 -2.34816 -2.95197 0
M  V30 1773 H 182.754 -1.42762 -2.58269 0
M  V30 1774 H 182.835 -2.32744 -1.06131 0
M  V30 1775 H 182.479 -4.50074 -2.35363 0
M  V30 1776 H 182.409 -3.57006 -3.8711 0
M  V30 1777 H 184.9 -2.84398 -2.4885 0
M  V30 1778 H 185.213 -6.20859 -4.60168 0
M  V30 1779 H 183.558 -5.57941 -4.144 0
M  V30 1780 H 186.749 -3.57772 -3.01856 0
M  V30 1781 H 186.922 -5.11186 -3.98237 0
M  V30 1782 N 180.328 1.1314 -1.09713 0
M  V30 1783 C 181.556 1.88321 -0.856898 0
M  V30 1784 C 181.971 1.79276 0.592073 0
M  V30 1785 O 181.328 1.16142 1.40774 0
M  V30 1786 C 181.379 3.37812 -1.28706 0
M  V30 1787 O 181.1 3.46627 -2.67921 0
M  V30 1788 C 182.601 4.29952 -1.07964 0
M  V30 1789 H 179.821 0.596094 -0.308079 0
M  V30 1790 H 182.365 1.43205 -1.45988 0
M  V30 1791 H 180.52 3.805 -0.727912 0
M  V30 1792 H 180.934 4.39579 -2.8613 0
M  V30 1793 H 182.408 5.33159 -1.42986 0
M  V30 1794 H 182.885 4.39196 -0.0176577 0
M  V30 1795 H 183.491 3.93036 -1.62489 0
M  V30 1796 N 181.806 0.884767 1.30421 0
M  V30 1797 C 183.036 0.517293 2.00019 0
M  V30 1798 C 183.444 -0.898632 1.66497 0
M  V30 1799 O 182.787 -1.60245 0.898181 0
M  V30 1800 C 182.849 0.612025 3.54252 0
M  V30 1801 C 182.513 1.99222 4.1129 0
M  V30 1802 C 183.51 2.9616 4.273 0
M  V30 1803 C 181.195 2.29755 4.46674 0
M  V30 1804 C 183.189 4.21764 4.77906 0
M  V30 1805 C 180.876 3.55606 4.96979 0
M  V30 1806 C 181.874 4.51425 5.12547 0
M  V30 1807 O 181.562 5.75043 5.61766 0
M  V30 1808 H 181.294 0.198529 0.64619 0
M  V30 1809 H 183.848 1.1919 1.67281 0
M  V30 1810 H 182.078 -0.119561 3.86515 0
M  V30 1811 H 183.767 0.255859 4.05093 0
M  V30 1812 H 184.533 2.73882 4.00267 0
M  V30 1813 H 180.412 1.55942 4.33824 0
M  V30 1814 H 183.956 4.96561 4.89972 0
M  V30 1815 H 179.853 3.7772 5.23448 0
M  V30 1816 H 180.621 5.77422 5.80109 0
M  V30 1817 N 183.284 -1.43765 0.645699 0
M  V30 1818 C 184.514 -2.05953 0.163318 0
M  V30 1819 C 184.922 -1.48432 -1.17322 0
M  V30 1820 O 184.265 -0.607295 -1.73371 0
M  V30 1821 C 184.327 -3.59499 -0.0103065 0
M  V30 1822 C 183.991 -4.39563 1.25035 0
M  V30 1823 C 184.988 -4.72108 2.17739 0
M  V30 1824 C 182.673 -4.79697 1.48983 0
M  V30 1825 C 184.667 -5.43688 3.3269 0
M  V30 1826 C 182.354 -5.51023 2.64229 0
M  V30 1827 C 183.352 -5.8294 3.55908 0
M  V30 1828 O 183.04 -6.5281 4.69142 0
M  V30 1829 H 182.772 -0.670798 0.0836986 0
M  V30 1830 H 185.326 -1.85384 0.884407 0
M  V30 1831 H 183.556 -3.78613 -0.78669 0
M  V30 1832 H 185.245 -4.03408 -0.449087 0
M  V30 1833 H 186.011 -4.41627 2.00476 0
M  V30 1834 H 181.89 -4.54266 0.785078 0
M  V30 1835 H 185.434 -5.68517 4.04269 0
M  V30 1836 H 181.331 -5.8092 2.81429 0
M  V30 1837 H 182.099 -6.71288 4.6831 0
M  V30 1838 N 184.763 -0.387143 -1.52771 0
M  V30 1839 C 185.988 0.198407 -2.06449 0
M  V30 1840 C 186.413 1.39918 -1.25716 0
M  V30 1841 O 185.771 1.79099 -0.281657 0
M  V30 1842 C 185.819 0.548893 -3.56398 0
M  V30 1843 O 184.923 1.64315 -3.78252 0
M  V30 1844 H 184.264 0.0237731 -0.663574 0
M  V30 1845 H 186.794 -0.553989 -1.96957 0
M  V30 1846 H 186.804 0.813812 -3.99801 0
M  V30 1847 H 185.479 -0.329005 -4.14597 0
M  V30 1848 H 184.056 1.37211 -3.46738 0
M  V30 1849 N 186.241 1.57166 -0.116904 0
M  V30 1850 C 187.188 2.15202 0.83408 0
M  V30 1851 C 188.158 1.07644 1.26499 0
M  V30 1852 O 189.343 1.35541 1.34288 0
M  V30 1853 C 186.483 2.75405 2.07957 0
M  V30 1854 C 185.596 3.97264 1.69721 0
M  V30 1855 C 184.731 4.45561 2.89221 0
M  V30 1856 C 183.77 5.59956 2.47215 0
M  V30 1857 N 182.907 6.03006 3.59622 0
M  V30 1858 H 187.747 2.96141 0.332335 0
M  V30 1859 H 185.284 1.46309 0.152349 0
M  V30 1860 H 187.242 3.08439 2.80929 0
M  V30 1861 H 185.872 1.97159 2.55594 0
M  V30 1862 H 184.924 3.70404 0.866316 0
M  V30 1863 H 186.236 4.80226 1.34849 0
M  V30 1864 H 185.39 4.80493 3.7042 0
M  V30 1865 H 184.129 3.61544 3.27318 0
M  V30 1866 H 183.134 5.2463 1.64448 0
M  V30 1867 H 184.359 6.45738 2.10238 0
M  V30 1868 H 182.305 5.21931 3.97396 0
M  V30 1869 H 182.222 6.80819 3.28667 0
M  V30 1870 H 183.49 6.42576 4.41267 0
M  V30 1871 N 187.719 -0.156864 1.56817 0
M  V30 1872 C 188.682 -1.17781 1.96622 0
M  V30 1873 C 189.682 -1.36401 0.851555 0
M  V30 1874 O 190.872 -1.33561 1.11836 0
M  V30 1875 C 188.004 -2.54008 2.27361 0
M  V30 1876 H 189.197 -0.836564 2.87996 0
M  V30 1877 H 186.75 -0.39985 1.51099 0
M  V30 1878 H 187.485 -2.9312 1.38748 0
M  V30 1879 H 187.27 -2.41856 3.08623 0
M  V30 1880 H 188.76 -3.27558 2.59029 0
M  V30 1881 N 189.197 -1.51736 -0.425897 0
M  V30 1882 C 190.613 -1.40166 -0.76326 0
M  V30 1883 C 190.813 -0.492962 -1.95377 0
M  V30 1884 O 189.869 0.0475815 -2.52455 0
M  V30 1885 C 191.182 -2.82403 -1.03291 0
M  V30 1886 C 192.73 -2.91632 -1.13665 0
M  V30 1887 C 193.205 -4.34801 -1.43916 0
M  V30 1888 N 194.696 -4.3796 -1.50816 0
M  V30 1889 C 195.431 -5.4578 -1.75817 0
M  V30 1890 N 194.927 -6.63744 -1.98534 0
M  V30 1891 N 196.72 -5.33274 -1.77694 0
M  V30 1892 H 188.871 -2.09361 0.358 0
M  V30 1893 H 191.134 -0.942941 0.0978094 0
M  V30 1894 H 190.84 -3.50943 -0.230696 0
M  V30 1895 H 190.714 -3.22428 -1.95754 0
M  V30 1896 H 193.101 -2.23284 -1.92947 0
M  V30 1897 H 193.182 -2.55088 -0.190756 0
M  V30 1898 H 192.826 -5.03703 -0.65157 0
M  V30 1899 H 192.756 -4.68868 -2.39729 0
M  V30 1900 H 195.247 -3.52919 -1.35118 0
M  V30 1901 H 195.56 -7.41704 -2.17013 0
M  V30 1902 H 193.905 -6.66839 -1.95832 0
M  V30 1903 H 197.096 -4.40098 -1.59473 0
M  V30 1904 H 197.269 -6.1738 -1.9684 0
M  V30 1905 N 190.675 0.682077 -1.42076 0
M  V30 1906 C 191.923 1.4393 -1.41876 0
M  V30 1907 C 192.244 1.94971 -0.0335599 0
M  V30 1908 O 191.514 1.72591 0.926773 0
M  V30 1909 H 190.094 0.534085 -0.522267 0
M  V30 1910 H 192.756 0.806427 -1.77434 0
M  V30 1911 H 191.852 2.29588 -2.11414 0
M  V30 1912 N 192.153 1.28127 0.917671 0
M  V30 1913 C 193.086 1.06039 2.02067 0
M  V30 1914 C 194.064 -0.0223285 1.62585 0
M  V30 1915 O 195.248 0.124823 1.88086 0
M  V30 1916 C 192.375 0.610596 3.33151 0
M  V30 1917 C 191.421 1.68937 3.91615 0
M  V30 1918 S 192.254 3.28437 4.22953 0
M  V30 1919 C 193.41 2.85283 5.57103 0
M  V30 1920 H 193.643 1.99425 2.20493 0
M  V30 1921 H 191.176 1.12071 1.06205 0
M  V30 1922 H 193.134 0.357778 4.08938 0
M  V30 1923 H 191.795 -0.303364 3.12632 0
M  V30 1924 H 190.988 1.32619 4.86239 0
M  V30 1925 H 190.59 1.89478 3.2245 0
M  V30 1926 H 192.882 2.3121 6.36827 0
M  V30 1927 H 193.825 3.7869 5.98331 0
M  V30 1928 H 194.233 2.24118 5.18104 0
M  V30 1929 N 193.631 -1.12557 1.10312 0
M  V30 1930 C 195.047 -1.36036 0.834649 0
M  V30 1931 C 195.247 -1.93946 -0.546539 0
M  V30 1932 O 194.303 -2.16484 -1.29966 0
M  V30 1933 C 195.616 -2.30312 1.9333 0
M  V30 1934 C 197.164 -2.43906 1.9616 0
M  V30 1935 C 197.639 -3.41496 3.05195 0
M  V30 1936 N 199.13 -3.49053 3.04494 0
M  V30 1937 C 199.865 -4.24471 3.85502 0
M  V30 1938 N 199.361 -5.02966 4.76442 0
M  V30 1939 N 201.154 -4.19864 3.73725 0
M  V30 1940 H 193.305 -0.733246 1.99342 0
M  V30 1941 H 195.568 -0.385234 0.866198 0
M  V30 1942 H 195.274 -1.94933 2.92735 0
M  V30 1943 H 195.148 -3.30421 1.81939 0
M  V30 1944 H 197.535 -2.78567 0.973886 0
M  V30 1945 H 197.616 -1.4369 2.11629 0
M  V30 1946 H 197.26 -3.07565 4.04186 0
M  V30 1947 H 197.19 -4.41539 2.86968 0
M  V30 1948 H 199.681 -2.93053 2.38596 0
M  V30 1949 H 199.994 -5.57846 5.34815 0
M  V30 1950 H 198.339 -5.02167 4.80472 0
M  V30 1951 H 201.53 -3.57623 3.02032 0
M  V30 1952 H 201.703 -4.78386 4.37093 0
M  V30 1953 N 195.109 -0.891671 -1.2995 0
M  V30 1954 C 196.355 -0.514261 -1.96171 0
M  V30 1955 C 196.688 0.935506 -1.70182 0
M  V30 1956 O 195.963 1.66204 -1.01028 0
M  V30 1957 C 196.246 -0.797719 -3.51153 0
M  V30 1958 C 196.099 -2.2986 -3.86632 0
M  V30 1959 C 197.418 -0.278749 -4.39216 0
M  V30 1960 H 194.537 -0.188314 -0.712535 0
M  V30 1961 H 197.179 -1.11689 -1.53706 0
M  V30 1962 H 195.329 -0.284826 -3.87455 0
M  V30 1963 H 197.001 -2.88042 -3.60319 0
M  V30 1964 H 195.244 -2.76257 -3.34462 0
M  V30 1965 H 195.915 -2.44753 -4.94773 0
M  V30 1966 H 198.391 -0.717825 -4.09862 0
M  V30 1967 H 197.267 -0.506353 -5.46559 0
M  V30 1968 H 197.528 0.820266 -4.34424 0
M  V30 1969 N 196.587 1.43421 -0.653314 0
M  V30 1970 C 197.497 2.34568 0.0388565 0
M  V30 1971 C 198.513 1.53888 0.81207 0
M  V30 1972 O 199.689 1.86539 0.759294 0
M  V30 1973 C 196.754 3.32167 0.993269 0
M  V30 1974 C 195.815 4.28751 0.216977 0
M  V30 1975 C 195.048 5.21688 1.12593 0
M  V30 1976 O 195.271 5.19052 2.36519 0
M  V30 1977 O 194.205 5.98919 0.598284 0
M  V30 1978 H 198.031 2.95251 -0.711386 0
M  V30 1979 H 195.616 1.43564 -0.413502 0
M  V30 1980 H 197.498 3.92183 1.54176 0
M  V30 1981 H 196.173 2.73987 1.72374 0
M  V30 1982 H 195.08 3.72215 -0.375101 0
M  V30 1983 H 196.413 4.89913 -0.473924 0
M  V30 1984 N 198.065 0.39524 1.52563 0
M  V30 1985 C 199.293 -0.184943 2.06072 0
M  V30 1986 C 199.708 -1.40021 1.26647 0
M  V30 1987 O 199.065 -1.79767 0.314672 0
M  V30 1988 C 199.116 -0.549179 3.57304 0
M  V30 1989 O 198.837 0.617813 4.33722 0
M  V30 1990 C 200.338 -1.18459 4.2718 0
M  V30 1991 H 197.558 -0.0265025 0.670476 0
M  V30 1992 H 200.102 0.562184 1.96621 0
M  V30 1993 H 198.257 -1.2462 3.66809 0
M  V30 1994 H 198.671 0.317091 5.23541 0
M  V30 1995 H 200.145 -1.38976 5.34219 0
M  V30 1996 H 200.622 -2.15368 3.82771 0
M  V30 1997 H 201.228 -0.528163 4.22008 0
M  V30 1998 N 199.544 -1.57102 0.125237 0
M  V30 1999 C 200.769 -2.0019 -0.542101 0
M  V30 2000 C 201.194 -1.00449 -1.59034 0
M  V30 2001 O 200.552 0.0229423 -1.81285 0
M  V30 2002 C 200.6 -3.42129 -1.13929 0
M  V30 2003 O 199.704 -3.45307 -2.2547 0
M  V30 2004 H 199.045 -0.650171 -0.134812 0
M  V30 2005 H 201.575 -2.03461 0.215553 0
M  V30 2006 H 201.585 -3.80471 -1.4733 0
M  V30 2007 H 200.26 -4.14237 -0.371531 0
M  V30 2008 H 198.837 -3.1879 -1.93462 0
M  V30 2009 N 201.022 0.148545 -1.56898 0
M  V30 2010 C 202.271 0.85984 -1.82454 0
M  V30 2011 C 202.584 1.82406 -0.706229 0
M  V30 2012 O 203.79 2.57938 -0.847349 0
M  V30 2013 C 202.246 1.57967 -3.2338 0
M  V30 2014 C 201.854 0.65794 -4.43142 0
M  V30 2015 C 203.598 2.27784 -3.58211 0
M  V30 2016 C 201.505 1.3793 -5.75091 0
M  V30 2017 H 200.435 0.324834 -0.68044 0
M  V30 2018 H 203.086 0.112588 -1.83154 0
M  V30 2019 H 201.468 2.37249 -3.17063 0
M  V30 2020 H 202.642 -0.0995497 -4.60692 0
M  V30 2021 H 200.957 0.0682643 -4.16344 0
M  V30 2022 H 203.554 2.8239 -4.54048 0
M  V30 2023 H 203.897 3.04204 -2.84193 0
M  V30 2024 H 204.43 1.55421 -3.66182 0
M  V30 2025 H 201.169 0.656982 -6.52199 0
M  V30 2026 H 200.689 2.10954 -5.61479 0
M  V30 2027 H 202.368 1.92063 -6.17835 0
M  V30 2028 N 202.5 1.5196 0.417844 0
M  V30 2029 C 203.45 1.7106 1.5074 0
M  V30 2030 C 204.434 0.564487 1.50673 0
M  V30 2031 O 205.626 0.821206 1.56797 0
M  V30 2032 C 202.755 1.85677 2.88754 0
M  V30 2033 C 201.841 3.06133 2.93502 0
M  V30 2034 N 202.232 4.28987 2.67962 0
M  V30 2035 C 200.53 3.05787 3.24669 0
M  V30 2036 C 201.231 5.10395 2.79055 0
M  V30 2037 N 200.207 4.45455 3.11561 0
M  V30 2038 H 204.009 2.63696 1.29775 0
M  V30 2039 H 201.523 1.49873 0.625436 0
M  V30 2040 H 203.52 1.97475 3.67164 0
M  V30 2041 H 202.18 0.942348 3.10725 0
M  V30 2042 H 203.191 4.57607 2.4252 0
M  V30 2043 H 199.868 2.2405 3.52289 0
M  V30 2044 H 201.258 6.18247 2.63097 0
M  V30 2045 N 203.978 -0.674533 1.42435 0
M  V30 2046 C 204.925 -1.78807 1.45934 0
M  V30 2047 C 205.895 -1.63157 0.311271 0
M  V30 2048 O 207.08 -1.83707 0.515383 0
M  V30 2049 C 204.22 -3.16839 1.36773 0
M  V30 2050 C 203.333 -3.43774 2.61617 0
M  V30 2051 C 202.468 -4.71536 2.44597 0
M  V30 2052 C 201.507 -4.91505 3.64814 0
M  V30 2053 N 200.644 -6.10508 3.46734 0
M  V30 2054 H 205.484 -1.75151 2.41093 0
M  V30 2055 H 203.021 -0.85504 1.19697 0
M  V30 2056 H 204.979 -3.96606 1.29459 0
M  V30 2057 H 203.609 -3.19619 0.452089 0
M  V30 2058 H 202.661 -2.58259 2.79297 0
M  V30 2059 H 203.973 -3.54423 3.50978 0
M  V30 2060 H 203.127 -5.59393 2.3487 0
M  V30 2061 H 201.866 -4.6317 1.52726 0
M  V30 2062 H 200.871 -4.0209 3.74972 0
M  V30 2063 H 202.096 -5.01716 4.57665 0
M  V30 2064 H 200.042 -6.03315 2.5758 0
M  V30 2065 H 199.959 -6.2202 4.29682 0
M  V30 2066 H 201.227 -7.01044 3.40819 0
M  V30 2067 N 205.456 -1.28612 -0.910864 0
M  V30 2068 C 206.702 -1.17116 -1.66299 0
M  V30 2069 C 207.057 0.276917 -1.90397 0
M  V30 2070 O 206.35 1.19795 -1.49532 0
M  V30 2071 C 206.544 -1.90624 -3.0232 0
M  V30 2072 C 206.373 -3.42431 -2.91498 0
M  V30 2073 C 205.143 -4.11773 -2.92867 0
M  V30 2074 C 207.341 -4.38124 -2.69355 0
M  V30 2075 N 205.323 -5.50025 -2.72664 0
M  V30 2076 C 206.694 -5.63759 -2.58023 0
M  V30 2077 C 208.749 -4.28016 -2.54375 0
M  V30 2078 C 207.452 -6.80436 -2.33238 0
M  V30 2079 C 209.478 -5.44433 -2.30969 0
M  V30 2080 C 208.84 -6.69034 -2.20394 0
M  V30 2081 H 204.939 -0.483506 -0.61461 0
M  V30 2082 H 207.523 -1.62299 -1.0755 0
M  V30 2083 H 205.694 -1.4787 -3.5915 0
M  V30 2084 H 207.426 -1.71488 -3.66571 0
M  V30 2085 H 204.181 -3.63378 -3.03732 0
M  V30 2086 H 204.605 -6.22705 -2.65646 0
M  V30 2087 H 209.247 -3.32388 -2.613 0
M  V30 2088 H 206.965 -7.7613 -2.25051 0
M  V30 2089 H 210.551 -5.38504 -2.20238 0
M  V30 2090 H 209.431 -7.57595 -2.02531 0
M  V30 2091 N 206.934 1.1197 -1.10907 0
M  V30 2092 C 207.897 2.16031 -0.765707 0
M  V30 2093 C 208.897 1.59393 0.212235 0
M  V30 2094 O 210.087 1.74196 -0.0115441 0
M  V30 2095 C 207.219 3.40632 -0.135053 0
M  V30 2096 H 208.412 2.47919 -1.68748 0
M  V30 2097 H 205.965 1.27061 -0.910226 0
M  V30 2098 H 206.7 3.14348 0.797218 0
M  V30 2099 H 206.485 3.8302 -0.838937 0
M  V30 2100 H 207.975 4.17505 0.0892469 0
M  V30 2101 N 208.412 0.89855 1.29475 0
M  V30 2102 C 209.344 0.332726 2.26772 0
M  V30 2103 C 210.357 -0.520323 1.54261 0
M  V30 2104 O 211.546 -0.337668 1.75277 0
M  V30 2105 C 208.646 -0.544334 3.345 0
M  V30 2106 C 207.819 0.282728 4.36485 0
M  V30 2107 C 206.878 -0.526982 5.23555 0
M  V30 2108 O 205.904 0.0551165 5.69173 0
M  V30 2109 N 207.106 -1.83331 5.5079 0
M  V30 2110 H 209.871 1.16897 2.75962 0
M  V30 2111 H 207.432 0.762919 1.42798 0
M  V30 2112 H 209.424 -1.09239 3.89678 0
M  V30 2113 H 207.994 -1.28127 2.85136 0
M  V30 2114 H 207.214 1.01221 3.80983 0
M  V30 2115 H 208.502 0.84918 5.01664 0
M  V30 2116 H 207.9 -2.32898 5.15534 0
M  V30 2117 H 206.457 -2.32852 6.08788 0
M  V30 2118 N 209.89 -1.43072 0.660911 0
M  V30 2119 C 210.837 -2.30785 -0.0259884 0
M  V30 2120 C 211.807 -1.45184 -0.806888 0
M  V30 2121 O 212.992 -1.74041 -0.781943 0
M  V30 2122 C 210.132 -3.30861 -0.981067 0
M  V30 2123 C 209.245 -4.31558 -0.195458 0
M  V30 2124 C 208.38 -5.18712 -1.14503 0
M  V30 2125 C 207.419 -6.11097 -0.350299 0
M  V30 2126 N 206.556 -6.90849 -1.25186 0
M  V30 2127 H 211.396 -2.88975 0.727846 0
M  V30 2128 H 208.933 -1.42353 0.370682 0
M  V30 2129 H 210.891 -3.87399 -1.54849 0
M  V30 2130 H 209.521 -2.74304 -1.70169 0
M  V30 2131 H 208.573 -3.77252 0.488374 0
M  V30 2132 H 209.885 -4.9701 0.422176 0
M  V30 2133 H 209.039 -5.79914 -1.78284 0
M  V30 2134 H 207.778 -4.53404 -1.79656 0
M  V30 2135 H 206.783 -5.48976 0.300808 0
M  V30 2136 H 208.008 -6.7845 0.296941 0
M  V30 2137 H 205.954 -6.28182 -1.89005 0
M  V30 2138 H 205.871 -7.52854 -0.688971 0
M  V30 2139 H 207.139 -7.5655 -1.87757 0
M  V30 2140 N 211.368 -0.403325 -1.52352 0
M  V30 2141 C 212.616 0.174003 -2.0135 0
M  V30 2142 C 212.937 1.46139 -1.29106 0
M  V30 2143 O 212.207 1.91448 -0.415253 0
M  V30 2144 H 210.787 0.0672911 -0.743963 0
M  V30 2145 H 213.449 -0.538235 -1.87321 0
M  V30 2146 H 212.545 0.374254 -3.09848 0
M  V30 2147 N 212.846 1.57033 -0.133567 0
M  V30 2148 C 213.756 2.19632 0.824564 0
M  V30 2149 C 214.772 1.17666 1.28182 0
M  V30 2150 O 215.948 1.50193 1.3418 0
M  V30 2151 C 213.013 2.79499 2.05137 0
M  V30 2152 C 212.074 3.96548 1.64464 0
M  V30 2153 C 211.307 4.5355 2.81297 0
M  V30 2154 O 211.53 4.09438 3.97136 0
M  V30 2155 O 210.464 5.44018 2.57542 0
M  V30 2156 H 214.29 3.01991 0.321766 0
M  V30 2157 H 211.875 1.49112 0.0927889 0
M  V30 2158 H 213.757 3.17602 2.7696 0
M  V30 2159 H 212.432 2.00162 2.54395 0
M  V30 2160 H 211.339 3.63186 0.897048 0
M  V30 2161 H 212.672 4.77364 1.19934 0
M  V30 2162 N 214.325 -0.140222 1.56975 0
M  V30 2163 C 215.571 -0.848084 1.84876 0
M  V30 2164 C 215.926 -1.78481 0.718481 0
M  V30 2165 O 215.219 -1.89497 -0.283093 0
M  V30 2166 C 215.413 -1.65386 3.16832 0
M  V30 2167 C 215.242 -0.79665 4.42587 0
M  V30 2168 C 214.012 -0.459648 5.03205 0
M  V30 2169 C 216.21 -0.12389 5.14151 0
M  V30 2170 N 214.192 0.410446 6.12526 0
M  V30 2171 C 215.563 0.606064 6.17031 0
M  V30 2172 C 217.618 -0.0452654 4.97879 0
M  V30 2173 C 216.321 1.40723 7.054 0
M  V30 2174 C 218.347 0.742658 5.86718 0
M  V30 2175 C 217.709 1.46087 6.89085 0
M  V30 2176 H 213.808 -0.287946 0.727056 0
M  V30 2177 H 216.392 -0.11304 1.94372 0
M  V30 2178 H 214.563 -2.36009 3.08471 0
M  V30 2179 H 216.295 -2.30541 3.32615 0
M  V30 2180 H 213.05 -0.797006 4.66846 0
M  V30 2181 H 213.474 0.836716 6.7181 0
M  V30 2182 H 218.116 -0.586184 4.18717 0
M  V30 2183 H 215.834 1.95938 7.83986 0
M  V30 2184 H 219.42 0.805574 5.76196 0
M  V30 2185 H 218.3 2.06077 7.56639 0
M  V30 2186 N 215.803 -1.52179 -0.40978 0
M  V30 2187 C 217.049 -1.66453 -1.15851 0
M  V30 2188 C 217.382 -0.392972 -1.90182 0
M  V30 2189 O 216.657 0.608579 -1.84734 0
M  V30 2190 C 216.94 -2.88612 -2.15349 0
M  V30 2191 C 216.793 -4.25815 -1.44918 0
M  V30 2192 C 218.112 -3.06294 -3.16026 0
M  V30 2193 H 215.231 -0.60575 -0.419805 0
M  V30 2194 H 217.873 -1.84732 -0.444314 0
M  V30 2195 H 216.023 -2.73158 -2.76255 0
M  V30 2196 H 217.695 -4.52995 -0.871365 0
M  V30 2197 H 215.938 -4.27247 -0.751159 0
M  V30 2198 H 216.609 -5.07337 -2.17516 0
M  V30 2199 H 219.085 -3.20641 -2.65195 0
M  V30 2200 H 217.961 -3.93283 -3.8291 0
M  V30 2201 H 218.222 -2.19579 -3.83715 0
M  V30 2202 N 217.281 0.66697 -1.42791 0
M  V30 2203 C 218.229 1.80157 -1.47127 0
M  V30 2204 C 219.223 1.65825 -0.346199 0
M  V30 2205 O 220.429 1.72338 -0.519572 0
M  V30 2206 H 216.804 0.594158 -0.460956 0
M  V30 2207 H 218.775 1.73619 -2.42692 0
M  V30 2208 C 217.524 3.18351 -1.39813 0
M  V30 2209 H 216.847 3.3001 -2.25684 0
M  V30 2210 H 218.287 3.97736 -1.46908 0
M  V30 2211 C 216.746 3.36707 -0.11391 0
M  V30 2212 O 217.276 3.93027 0.830241 0
M  V30 2213 N 215.482 2.90586 -0.0285295 0
M  V30 2214 H 215.029 2.4494 -0.79764 0
M  V30 2215 H 214.987 3.03245 0.830063 0
M  V30 2216 N 218.759 1.29093 0.90403 0
M  V30 2217 C 219.692 1.08176 2.00931 0
M  V30 2218 C 220.67 -0.005083 1.62599 0
M  V30 2219 O 221.854 0.144765 1.87943 0
M  V30 2220 C 218.981 0.645897 3.32484 0
M  V30 2221 C 218.027 1.73081 3.89801 0
M  V30 2222 S 218.86 3.32905 4.19446 0
M  V30 2223 C 220.016 2.91176 5.54046 0
M  V30 2224 H 220.249 2.01752 2.18365 0
M  V30 2225 H 217.782 1.13191 1.0501 0
M  V30 2226 H 219.74 0.401131 4.08535 0
M  V30 2227 H 218.401 -0.270188 3.12936 0
M  V30 2228 H 217.594 1.37768 4.84805 0
M  V30 2229 H 217.196 1.92888 3.20422 0
M  V30 2230 H 219.488 2.37952 6.34338 0
M  V30 2231 H 220.431 3.85014 5.94281 0
M  V30 2232 H 220.839 2.296 5.15698 0
M  V30 2233 N 220.237 -1.11381 1.11499 0
M  V30 2234 C 221.477 -1.84763 0.874188 0
M  V30 2235 C 221.841 -1.82726 -0.589496 0
M  V30 2236 O 223.042 -2.51562 -0.947089 0
M  V30 2237 C 221.313 -3.27931 1.42112 0
M  V30 2238 S 222.872 -4.18557 1.31739 0
M  V30 2239 H 219.69 -0.637115 0.315603 0
M  V30 2240 H 222.292 -1.34097 1.42261 0
M  V30 2241 H 220.996 -3.26978 2.48019 0
M  V30 2242 H 220.527 -3.83665 0.869761 0
M  V30 2243 H 222.542 -4.95396 0.282335 0
M  V30 2244 N 221.715 -0.905404 -1.28997 0
M  V30 2245 C 222.663 -0.377431 -2.29517 0
M  V30 2246 C 223.657 0.526461 -1.61012 0
M  V30 2247 O 224.863 0.40863 -1.753 0
M  V30 2248 H 221.238 -0.103437 -0.744852 0
M  V30 2249 H 223.209 -1.23848 -2.71485 0
M  V30 2250 C 221.958 0.374833 -3.45674 0
M  V30 2251 H 221.281 -0.311474 -3.98585 0
M  V30 2252 H 222.721 0.70903 -4.1803 0
M  V30 2253 C 221.18 1.57963 -2.97572 0
M  V30 2254 O 221.71 2.67886 -2.99333 0
M  V30 2255 N 219.916 1.42375 -2.53333 0
M  V30 2256 H 219.463 0.529466 -2.521 0
M  V30 2257 H 219.421 2.23117 -2.21509 0
M  V30 2258 N 223.193 1.4272 -0.668489 0
M  V30 2259 C 224.143 2.27971 0.0363806 0
M  V30 2260 C 225.127 1.40741 0.779794 0
M  V30 2261 O 226.319 1.64245 0.659745 0
M  V30 2262 C 223.448 3.28673 0.991398 0
M  V30 2263 C 222.534 4.23388 0.245658 0
M  V30 2264 N 222.925 5.00267 -0.746069 0
M  V30 2265 C 221.223 4.43355 0.484988 0
M  V30 2266 C 221.924 5.69396 -1.19009 0
M  V30 2267 N 220.9 5.41095 -0.521287 0
M  V30 2268 H 224.702 2.84833 -0.724394 0
M  V30 2269 H 222.216 1.54607 -0.497028 0
M  V30 2270 H 224.213 3.88543 1.51129 0
M  V30 2271 H 222.873 2.73373 1.75207 0
M  V30 2272 H 223.884 5.05525 -1.12537 0
M  V30 2273 H 220.561 3.99104 1.22565 0
M  V30 2274 H 221.951 6.41083 -2.01153 0
M  V30 2275 N 224.671 0.411399 1.52136 0
M  V30 2276 C 225.601 -0.404015 2.29978 0
M  V30 2277 C 226.582 -1.04412 1.34284 0
M  V30 2278 O 227.767 -1.0527 1.63192 0
M  V30 2279 C 224.897 -1.5197 3.12286 0
M  V30 2280 C 223.851 -1.00448 4.16046 0
M  V30 2281 C 223.177 -2.21393 4.86712 0
M  V30 2282 C 224.477 -0.0569336 5.22269 0
M  V30 2283 H 226.171 0.245529 2.98392 0
M  V30 2284 H 223.717 0.119525 1.43503 0
M  V30 2285 H 225.67 -2.09715 3.6551 0
M  V30 2286 H 224.394 -2.19716 2.41646 0
M  V30 2287 H 223.053 -0.449421 3.63835 0
M  V30 2288 H 222.701 -2.87699 4.12599 0
M  V30 2289 H 222.401 -1.87571 5.56858 0
M  V30 2290 H 223.925 -2.7974 5.4275 0
M  V30 2291 H 225.339 -0.54325 5.7072 0
M  V30 2292 H 223.736 0.192594 5.99791 0
M  V30 2293 H 224.806 0.887663 4.76706 0
M  V30 2294 N 226.149 -1.5696 0.141893 0
M  V30 2295 C 227.56 -1.82797 -0.379776 0
M  V30 2296 C 227.911 -1.06033 -1.6508 0
M  V30 2297 O 227.036 -0.304011 -2.14254 0
M  V30 2298 C 227.631 -3.31578 -0.695802 0
M  V30 2299 C 226.19 -3.58014 -1.16201 0
M  V30 2300 C 225.337 -2.76699 -0.182455 0
M  V30 2301 H 228.288 -1.54406 0.366675 0
M  V30 2302 H 228.309 -3.47454 -1.55099 0
M  V30 2303 H 227.821 -3.87421 0.229449 0
M  V30 2304 H 225.922 -3.07553 -2.10338 0
M  V30 2305 H 226.035 -4.66501 -1.09151 0
M  V30 2306 H 224.399 -2.45618 -0.674072 0
M  V30 2307 H 225.182 -3.35311 0.736297 0
M  V30 2308 N 227.627 0.131896 -1.57047 0
M  V30 2309 C 228.904 0.871495 -1.75112 0
M  V30 2310 C 229.284 1.9866 -0.713949 0
M  V30 2311 O 228.632 2.26965 0.264447 0
M  V30 2312 C 228.842 1.40007 -3.19686 0
M  V30 2313 C 230.19 1.85752 -3.81813 0
M  V30 2314 O 231.214 1.49715 -3.23209 0
M  V30 2315 O 230.073 2.5226 -4.84796 0
M  V30 2316 H 227.167 0.412919 -0.716538 0
M  V30 2317 H 229.713 0.116641 -1.69299 0
M  V30 2318 H 228.485 0.599404 -3.86682 0
M  V30 2319 H 228.108 2.218 -3.29986 0
M  V30 2320 N 229.106 1.52395 0.401703 0
M  V30 2321 C 230.353 1.66817 1.14796 0
M  V30 2322 C 230.681 0.401772 1.90305 0
M  V30 2323 O 229.936 -0.615487 1.85769 0
M  V30 2324 C 230.235 2.84578 2.16217 0
M  V30 2325 C 229.901 4.22513 1.5746 0
M  V30 2326 C 228.563 4.60029 1.41161 0
M  V30 2327 C 230.915 5.0844 1.14622 0
M  V30 2328 C 228.243 5.81144 0.80552 0
M  V30 2329 C 230.595 6.30167 0.55428 0
M  V30 2330 C 229.259 6.66426 0.378482 0
M  V30 2331 H 228.529 0.610428 0.420069 0
M  V30 2332 H 231.176 1.86512 0.434212 0
M  V30 2333 H 229.481 2.59248 2.93764 0
M  V30 2334 H 231.178 2.92933 2.73845 0
M  V30 2335 H 227.768 3.92953 1.71132 0
M  V30 2336 H 231.952 4.80034 1.26021 0
M  V30 2337 H 227.208 6.07855 0.657399 0
M  V30 2338 H 231.382 6.96071 0.213983 0
M  V30 2339 H 229.009 7.60143 -0.0932606 0
M  V30 2340 N 230.584 -0.659388 1.43143 0
M  V30 2341 C 231.83 -1.42145 1.44647 0
M  V30 2342 C 232.163 -1.9408 0.0681907 0
M  V30 2343 O 231.438 -1.71899 -0.910007 0
M  V30 2344 C 231.721 -2.60735 2.48373 0
M  V30 2345 C 231.574 -2.14332 3.95451 0
M  V30 2346 C 232.893 -3.62951 2.48906 0
M  V30 2347 H 230.012 -0.51552 0.526696 0
M  V30 2348 H 232.654 -0.748069 1.74654 0
M  V30 2349 H 230.804 -3.18184 2.22916 0
M  V30 2350 H 232.476 -1.61932 4.31944 0
M  V30 2351 H 230.719 -1.4576 4.08578 0
M  V30 2352 H 231.39 -2.99583 4.63631 0
M  V30 2353 H 233.866 -3.1525 2.71582 0
M  V30 2354 H 232.742 -4.43487 3.23435 0
M  V30 2355 H 233.003 -4.15126 1.52061 0
M  V30 2356 N 232.062 -1.29571 -0.897171 0
M  V30 2357 C 233.01 -1.14802 -2.02295 0
M  V30 2358 C 234.004 -0.0629637 -1.69283 0
M  V30 2359 O 235.21 -0.222945 -1.78614 0
M  V30 2360 H 231.585 -0.354692 -0.663097 0
M  V30 2361 H 233.556 -2.10108 -2.11889 0
M  V30 2362 C 232.305 -0.843966 -3.37302 0
M  V30 2363 H 231.628 -1.67093 -3.63208 0
M  V30 2364 H 233.068 -0.780672 -4.16751 0
M  V30 2365 C 231.527 0.452843 -3.33843 0
M  V30 2366 O 232.057 1.47813 -3.73516 0
M  V30 2367 N 230.263 0.459601 -2.86943 0
M  V30 2368 H 229.81 -0.375213 -2.54853 0
M  V30 2369 H 229.768 1.32726 -2.85011 0
M  V30 2370 N 233.54 1.10788 -1.12088 0
M  V30 2371 C 234.765 1.87002 -0.896949 0
M  V30 2372 C 235.19 1.79933 0.548261 0
M  V30 2373 O 234.548 1.16662 1.38779 0
M  V30 2374 C 234.596 3.3349 -1.37174 0
M  V30 2375 O 233.7 4.08745 -0.547831 0
M  V30 2376 H 233.041 0.580397 -0.322545 0
M  V30 2377 H 235.571 1.39996 -1.49206 0
M  V30 2378 H 235.581 3.84339 -1.36922 0
M  V30 2379 H 234.256 3.37951 -2.42408 0
M  V30 2380 H 232.833 3.6776 -0.617034 0
M  V30 2381 N 235.018 0.912232 1.28515 0
M  V30 2382 C 235.966 0.389597 2.29314 0
M  V30 2383 C 236.96 -0.517915 1.61289 0
M  V30 2384 O 238.166 -0.399328 1.75515 0
M  V30 2385 H 234.541 0.107386 0.744293 0
M  V30 2386 H 236.512 1.25286 2.70825 0
M  V30 2387 C 235.261 -0.356496 3.45868 0
M  V30 2388 H 234.584 0.332608 3.98414 0
M  V30 2389 H 236.024 -0.686851 4.184 0
M  V30 2390 C 234.483 -1.56383 2.98406 0
M  V30 2391 O 235.013 -2.66294 3.00749 0
M  V30 2392 N 233.219 -1.41029 2.54085 0
M  V30 2393 H 232.766 -0.516089 2.52377 0
M  V30 2394 H 232.724 -2.21939 2.22689 0
M  V30 2395 N 236.496 -1.42363 0.676048 0
M  V30 2396 C 237.744 -2.01123 0.198437 0
M  V30 2397 C 238.065 -1.53731 -1.19966 0
M  V30 2398 O 237.335 -0.759518 -1.80577 0
M  V30 2399 H 235.915 -0.743678 0.0703721 0
M  V30 2400 H 238.577 -1.74263 0.872837 0
M  V30 2401 H 237.673 -3.11454 0.200686 0
M  V30 2402 N 237.974 -0.419461 -1.51915 0
M  V30 2403 C 239.22 0.153166 -2.02221 0
M  V30 2404 C 239.553 1.43907 -1.30401 0
M  V30 2405 O 238.828 1.90055 -0.413438 0
M  V30 2406 C 239.111 0.390291 -3.57979 0
M  V30 2407 C 238.964 -0.913014 -4.40436 0
M  V30 2408 C 240.283 1.16794 -4.2432 0
M  V30 2409 H 237.402 0.0541924 -0.735005 0
M  V30 2410 H 240.044 -0.554955 -1.81715 0
M  V30 2411 H 238.194 0.993491 -3.75582 0
M  V30 2412 H 239.866 -1.54882 -4.34522 0
M  V30 2413 H 238.109 -1.52168 -4.06236 0
M  V30 2414 H 238.78 -0.701361 -5.47526 0
M  V30 2415 H 241.256 0.657161 -4.10878 0
M  V30 2416 H 240.132 1.3026 -5.3322 0
M  V30 2417 H 240.393 2.19132 -3.83971 0
M  V30 2418 N 239.452 1.56882 -0.150215 0
M  V30 2419 C 240.863 1.82995 0.370076 0
M  V30 2420 C 241.214 1.06907 1.64515 0
M  V30 2421 O 240.339 0.315369 2.1409 0
M  V30 2422 C 240.934 3.31942 0.678208 0
M  V30 2423 C 239.493 3.58625 1.14301 0
M  V30 2424 C 238.64 2.76792 0.167778 0
M  V30 2425 H 241.591 1.54209 -0.374858 0
M  V30 2426 H 241.612 3.48272 1.53254 0
M  V30 2427 H 241.124 3.87294 -0.249991 0
M  V30 2428 H 239.225 3.08664 2.08704 0
M  V30 2429 H 239.338 4.67073 1.06676 0
M  V30 2430 H 237.702 2.45972 0.661037 0
M  V30 2431 H 238.485 3.34916 -0.754069 0
M  V30 2432 N 240.93 -0.123565 1.57115 0
M  V30 2433 C 241.86 -1.15309 2.03042 0
M  V30 2434 C 242.841 -1.43454 0.914061 0
M  V30 2435 O 244.026 -1.53973 1.18347 0
M  V30 2436 C 241.156 -2.48043 2.43089 0
M  V30 2437 C 240.11 -2.3437 3.58127 0
M  V30 2438 C 239.436 -3.72026 3.84059 0
M  V30 2439 C 240.736 -1.80804 4.90007 0
M  V30 2440 H 242.43 -0.771102 2.893 0
M  V30 2441 H 239.976 -0.369479 1.39179 0
M  V30 2442 H 241.929 -3.20311 2.73823 0
M  V30 2443 H 240.653 -2.88122 1.53796 0
M  V30 2444 H 239.312 -1.64551 3.27595 0
M  V30 2445 H 238.96 -4.09582 2.91979 0
M  V30 2446 H 238.66 -3.63732 4.6149 0
M  V30 2447 H 240.184 -4.45806 4.1724 0
M  V30 2448 H 241.598 -2.42886 5.19307 0
M  V30 2449 H 239.995 -1.83343 5.71407 0
M  V30 2450 H 241.065 -0.76528 4.78823 0
M  V30 2451 N 242.408 -1.52605 -0.393616 0
M  V30 2452 C 243.824 -1.41753 -0.733357 0
M  V30 2453 C 244.024 -0.534293 -1.94287 0
M  V30 2454 O 243.08 -0.0059787 -2.52499 0
M  V30 2455 C 244.393 -2.84531 -0.972772 0
M  V30 2456 C 245.941 -2.93978 -1.07453 0
M  V30 2457 C 246.416 -4.37756 -1.3466 0
M  V30 2458 N 247.907 -4.4106 -1.41492 0
M  V30 2459 C 248.642 -5.49387 -1.642 0
M  V30 2460 N 248.138 -6.67806 -1.8441 0
M  V30 2461 N 249.931 -5.36923 -1.66342 0
M  V30 2462 H 242.082 -2.08555 0.402328 0
M  V30 2463 H 244.345 -0.940654 0.117789 0
M  V30 2464 H 244.051 -3.51353 -0.156204 0
M  V30 2465 H 243.925 -3.26508 -1.88871 0
M  V30 2466 H 246.312 -2.27326 -1.88167 0
M  V30 2467 H 246.393 -2.55435 -0.136605 0
M  V30 2468 H 246.037 -5.04972 -0.544581 0
M  V30 2469 H 245.967 -4.73848 -2.2973 0
M  V30 2470 H 248.458 -3.55705 -1.27601 0
M  V30 2471 H 248.771 -7.46141 -2.01231 0
M  V30 2472 H 247.116 -6.70843 -1.81644 0
M  V30 2473 H 250.307 -4.43381 -1.50102 0
M  V30 2474 H 250.48 -6.21416 -1.837 0
M  V30 2475 N 243.887 0.651787 -1.4349 0
M  V30 2476 C 245.135 1.40888 -1.44897 0
M  V30 2477 C 245.456 1.94856 -0.0749086 0
M  V30 2478 O 244.726 1.74518 0.889956 0
M  V30 2479 H 243.306 0.522887 -0.533478 0
M  V30 2480 H 245.968 0.768609 -1.79104 0
M  V30 2481 H 245.064 2.25052 -2.16236 0
M  V30 2482 N 245.365 1.30045 0.890287 0
M  V30 2483 C 246.295 1.18541 2.01172 0
M  V30 2484 C 247.276 0.0773356 1.69924 0
M  V30 2485 O 248.461 0.25845 1.92473 0
M  V30 2486 C 245.591 0.870941 3.36202 0
M  V30 2487 C 244.545 1.93637 3.81692 0
M  V30 2488 C 243.871 1.475 5.13953 0
M  V30 2489 C 245.171 3.34666 4.00994 0
M  V30 2490 H 246.865 2.12359 2.11054 0
M  V30 2491 H 244.411 1.02238 1.01407 0
M  V30 2492 H 246.364 0.777141 4.14172 0
M  V30 2493 H 245.088 -0.102926 3.26438 0
M  V30 2494 H 243.747 2.01972 3.05946 0
M  V30 2495 H 243.395 0.489551 5.00612 0
M  V30 2496 H 243.095 2.1876 5.4536 0
M  V30 2497 H 244.619 1.39489 5.94454 0
M  V30 2498 H 246.033 3.2912 4.69417 0
M  V30 2499 H 244.43 4.03966 4.43769 0
M  V30 2500 H 245.5 3.76949 3.05021 0
M  V30 2501 N 246.843 -1.10192 1.12674 0
M  V30 2502 C 247.79 -2.16606 0.796906 0
M  V30 2503 C 248.76 -1.64394 -0.237476 0
M  V30 2504 O 249.945 -1.90474 -0.111484 0
M  V30 2505 C 247.085 -3.44116 0.26043 0
M  V30 2506 C 246.198 -4.10268 1.35293 0
M  V30 2507 C 245.333 -5.25507 0.775621 0
M  V30 2508 C 244.372 -5.83567 1.84706 0
M  V30 2509 N 243.509 -6.90179 1.28829 0
M  V30 2510 H 248.349 -2.44163 1.70846 0
M  V30 2511 H 245.886 -1.19846 0.85295 0
M  V30 2512 H 247.844 -4.17143 -0.0686814 0
M  V30 2513 H 246.474 -3.16901 -0.614274 0
M  V30 2514 H 245.526 -3.35184 1.79877 0
M  V30 2515 H 246.838 -4.4946 2.16303 0
M  V30 2516 H 245.992 -6.05398 0.397327 0
M  V30 2517 H 244.731 -4.87656 -0.0656581 0
M  V30 2518 H 243.736 -5.02344 2.23452 0
M  V30 2519 H 244.961 -6.23482 2.69161 0
M  V30 2520 H 242.907 -6.54322 0.468881 0
M  V30 2521 H 242.824 -7.28097 2.03497 0
M  V30 2522 H 244.092 -7.73844 0.937311 0
M  V30 2523 N 248.321 -0.919034 -1.28029 0
M  V30 2524 C 249.57 -0.550802 -1.94034 0
M  V30 2525 C 249.883 0.910877 -1.73096 0
M  V30 2526 O 251.089 1.3875 -2.33368 0
M  V30 2527 C 249.545 -0.934249 -3.47563 0
M  V30 2528 C 249.153 -2.41602 -3.7727 0
M  V30 2529 C 250.897 -0.636854 -4.19696 0
M  V30 2530 C 248.804 -2.73932 -5.24133 0
M  V30 2531 H 247.734 -0.202273 -0.726362 0
M  V30 2532 H 250.385 -1.11867 -1.45458 0
M  V30 2533 H 248.767 -0.295115 -3.94899 0
M  V30 2534 H 249.941 -3.10233 -3.40723 0
M  V30 2535 H 248.256 -2.68441 -3.18321 0
M  V30 2536 H 250.853 -0.855005 -5.2782 0
M  V30 2537 H 251.196 0.425575 -4.14119 0
M  V30 2538 H 251.729 -1.23469 -3.78154 0
M  V30 2539 H 248.468 -3.79049 -5.34792 0
M  V30 2540 H 247.988 -2.09942 -5.61858 0
M  V30 2541 H 249.667 -2.61215 -5.91925 0
M  V30 2542 N 249.799 1.42003 -0.683588 0
M  V30 2543 C 251.215 1.55625 -0.353976 0
M  V30 2544 C 251.415 1.66151 1.14 0
M  V30 2545 O 250.471 1.63329 1.92561 0
M  V30 2546 C 251.784 2.80171 -1.092 0
M  V30 2547 C 253.332 2.93954 -1.07518 0
M  V30 2548 C 253.807 4.21372 -1.79471 0
M  V30 2549 N 255.298 4.28303 -1.76381 0
M  V30 2550 C 256.033 5.25729 -2.28904 0
M  V30 2551 N 255.529 6.29254 -2.89846 0
M  V30 2552 N 257.322 5.17586 -2.19228 0
M  V30 2553 H 249.473 1.33415 -1.6527 0
M  V30 2554 H 251.736 0.64282 -0.696769 0
M  V30 2555 H 251.442 2.78561 -2.14701 0
M  V30 2556 H 251.316 3.7133 -0.662862 0
M  V30 2557 H 253.703 2.95086 -0.028475 0
M  V30 2558 H 253.784 2.04002 -1.54328 0
M  V30 2559 H 253.428 4.21001 -2.84114 0
M  V30 2560 H 253.358 5.10275 -1.30104 0
M  V30 2561 H 255.849 3.54119 -1.31939 0
M  V30 2562 H 256.162 6.99964 -3.27522 0
M  V30 2563 H 254.507 6.29791 -2.93919 0
M  V30 2564 H 257.698 4.35631 -1.71299 0
M  V30 2565 H 257.871 5.93348 -2.60466 0
M  V30 2566 N 251.277 0.427512 1.51691 0
M  V30 2567 C 252.693 0.0792977 1.59403 0
M  V30 2568 C 252.893 -1.41035 1.43914 0
M  V30 2569 O 251.949 -2.17922 1.27539 0
M  V30 2570 C 253.262 0.590636 2.94842 0
M  V30 2571 C 254.81 0.550215 3.08126 0
M  V30 2572 C 255.285 1.03836 4.46074 0
M  V30 2573 N 256.776 0.995943 4.52366 0
M  V30 2574 C 257.511 1.34463 5.57411 0
M  V30 2575 N 257.007 1.76569 6.69922 0
M  V30 2576 N 258.8 1.26343 5.47717 0
M  V30 2577 H 250.951 1.39687 1.60004 0
M  V30 2578 H 253.214 0.575003 0.753708 0
M  V30 2579 H 252.92 1.63251 3.11516 0
M  V30 2580 H 252.794 0.0102061 3.77199 0
M  V30 2581 H 255.181 -0.482654 2.91126 0
M  V30 2582 H 255.262 1.16693 2.27632 0
M  V30 2583 H 254.906 2.06965 4.63819 0
M  V30 2584 H 254.836 0.398286 5.25092 0
M  V30 2585 H 257.327 0.68661 3.7161 0
M  V30 2586 H 257.64 2.01438 7.46085 0
M  V30 2587 H 255.985 1.80488 6.71155 0
M  V30 2588 H 259.176 0.933209 4.58703 0
M  V30 2589 H 259.349 1.53846 6.29472 0
M  V30 2590 N 252.755 -1.56801 0.158532 0
M  V30 2591 C 253.665 -2.20916 -0.789518 0
M  V30 2592 C 254.681 -1.1969 -1.26294 0
M  V30 2593 O 255.857 -1.52308 -1.31773 0
M  V30 2594 C 252.922 -2.82727 -2.00665 0
M  V30 2595 C 251.983 -3.99114 -1.58134 0
M  V30 2596 C 251.216 -4.57968 -2.74045 0
M  V30 2597 O 251.439 -4.15704 -3.90572 0
M  V30 2598 O 250.373 -5.48047 -2.48855 0
M  V30 2599 H 254.199 -3.02464 -0.273681 0
M  V30 2600 H 251.784 -1.4924 -0.0690548 0
M  V30 2601 H 253.666 -3.21968 -2.71872 0
M  V30 2602 H 252.341 -2.04184 -2.51179 0
M  V30 2603 H 251.248 -3.64567 -0.839155 0
M  V30 2604 H 252.581 -4.79212 -1.12325 0
M  V30 2605 N 254.233 0.115231 -1.57178 0
M  V30 2606 C 255.18 1.14115 -2.00615 0
M  V30 2607 C 256.15 1.40939 -0.878941 0
M  V30 2608 O 257.335 1.52741 -1.14345 0
M  V30 2609 C 254.475 2.46156 -2.4187 0
M  V30 2610 C 253.588 2.26236 -3.68024 0
M  V30 2611 C 252.723 3.51534 -3.98243 0
M  V30 2612 C 251.762 3.26787 -5.17568 0
M  V30 2613 N 250.899 4.44298 -5.43639 0
M  V30 2614 H 255.739 0.763743 -2.88047 0
M  V30 2615 H 253.276 0.365615 -1.42484 0
M  V30 2616 H 255.234 3.23189 -2.63827 0
M  V30 2617 H 253.864 2.81783 -1.57475 0
M  V30 2618 H 252.916 1.40102 -3.5366 0
M  V30 2619 H 254.228 2.03929 -4.55208 0
M  V30 2620 H 253.382 4.36984 -4.20868 0
M  V30 2621 H 252.121 3.76876 -3.09541 0
M  V30 2622 H 251.126 2.39729 -4.94783 0
M  V30 2623 H 252.351 3.02812 -6.0785 0
M  V30 2624 H 250.297 4.69754 -4.57895 0
M  V30 2625 H 250.214 4.25109 -6.25154 0
M  V30 2626 H 251.482 5.3087 -5.70786 0
M  V30 2627 N 255.711 1.52812 0.385517 0
M  V30 2628 C 256.621 1.80766 1.49535 0
M  V30 2629 C 257.637 0.694651 1.59532 0
M  V30 2630 O 258.813 0.982611 1.75803 0
M  V30 2631 C 255.878 1.97381 2.85029 0
M  V30 2632 C 254.939 3.21295 2.84724 0
M  V30 2633 C 254.172 3.37108 4.13756 0
M  V30 2634 O 254.395 2.5765 5.08893 0
M  V30 2635 O 253.329 4.30378 4.20783 0
M  V30 2636 H 257.155 2.75015 1.28842 0
M  V30 2637 H 254.74 1.37946 0.573697 0
M  V30 2638 H 256.622 2.09996 3.65349 0
M  V30 2639 H 255.297 1.06322 3.05741 0
M  V30 2640 H 254.204 3.1412 2.03174 0
M  V30 2641 H 255.537 4.12212 2.68965 0
M  V30 2642 N 257.189 -0.644168 1.43834 0
M  V30 2643 C 258.605 -0.960875 1.27434 0
M  V30 2644 C 258.805 -2.00499 0.200618 0
M  V30 2645 O 257.861 -2.49018 -0.417906 0
M  V30 2646 C 259.174 -1.43653 2.64167 0
M  V30 2647 C 260.722 -1.55271 2.71772 0
M  V30 2648 C 261.197 -2.06224 4.08944 0
M  V30 2649 N 262.688 -2.13513 4.11055 0
M  V30 2650 C 263.423 -2.54081 5.14033 0
M  V30 2651 N 262.919 -2.9388 6.27381 0
M  V30 2652 N 264.712 -2.54101 5.01387 0
M  V30 2653 H 256.863 0.0465779 2.12349 0
M  V30 2654 H 259.126 -0.0417638 0.94708 0
M  V30 2655 H 258.832 -0.743706 3.43747 0
M  V30 2656 H 258.706 -2.40993 2.90176 0
M  V30 2657 H 261.093 -2.23653 1.92519 0
M  V30 2658 H 261.174 -0.563395 2.49519 0
M  V30 2659 H 260.818 -1.38441 4.88668 0
M  V30 2660 H 260.748 -3.06003 4.28567 0
M  V30 2661 H 263.239 -1.85493 3.29242 0
M  V30 2662 H 263.552 -3.2361 7.01781 0
M  V30 2663 H 261.897 -2.91663 6.30839 0
M  V30 2664 H 265.088 -2.22391 4.11898 0
M  V30 2665 H 265.261 -2.85394 5.81768 0
M  V30 2666 N 258.668 -1.30515 -0.883378 0
M  V30 2667 C 259.6 -1.12846 -1.99496 0
M  V30 2668 C 260.613 -0.0712571 -1.62644 0
M  V30 2669 O 261.802 -0.317432 -1.75655 0
M  V30 2670 C 258.902 -0.699123 -3.3161 0
M  V30 2671 C 258.075 -1.83842 -3.96889 0
M  V30 2672 C 257.134 -1.39737 -5.07307 0
M  V30 2673 O 256.16 -2.10485 -5.28852 0
M  V30 2674 N 257.362 -0.277279 -5.79837 0
M  V30 2675 H 260.127 -2.08585 -2.15203 0
M  V30 2676 H 257.688 -1.22672 -1.05656 0
M  V30 2677 H 259.68 -0.387044 -4.02845 0
M  V30 2678 H 258.25 0.166276 -3.12157 0
M  V30 2679 H 257.47 -2.31853 -3.18807 0
M  V30 2680 H 258.758 -2.60187 -4.37241 0
M  V30 2681 H 258.156 0.3122 -5.64838 0
M  V30 2682 H 256.713 -0.0246623 -6.51795 0
M  V30 2683 N 260.146 1.09593 -1.13257 0
M  V30 2684 C 261.076 2.18214 -0.830946 0
M  V30 2685 C 262.057 1.68812 0.208966 0
M  V30 2686 O 263.242 1.9408 0.0682666 0
M  V30 2687 C 260.372 3.46051 -0.294296 0
M  V30 2688 C 259.326 4.08778 -1.26826 0
M  V30 2689 C 258.652 5.31419 -0.591449 0
M  V30 2690 C 259.952 4.51476 -2.62615 0
M  V30 2691 H 261.646 2.43703 -1.73923 0
M  V30 2692 H 259.192 1.17128 -0.837675 0
M  V30 2693 H 261.145 4.2134 -0.0709606 0
M  V30 2694 H 259.869 3.20079 0.649366 0
M  V30 2695 H 258.528 3.35505 -1.47756 0
M  V30 2696 H 258.176 5.01727 0.357633 0
M  V30 2697 H 257.876 5.74341 -1.24123 0
M  V30 2698 H 259.4 6.09433 -0.377355 0
M  V30 2699 H 260.814 5.17999 -2.45663 0
M  V30 2700 H 259.211 5.05277 -3.23752 0
M  V30 2701 H 260.281 3.63962 -3.20406 0
M  V30 2702 N 261.624 0.925811 1.2754 0
M  V30 2703 C 262.864 0.572521 1.96218 0
M  V30 2704 C 263.228 -0.869719 1.71172 0
M  V30 2705 O 264.429 -1.33119 2.33523 0
M  V30 2706 C 262.7 0.887325 3.4621 0
M  V30 2707 S 264.259 0.642266 4.34074 0
M  V30 2708 H 261.077 0.211403 0.678845 0
M  V30 2709 H 263.679 1.19384 1.54815 0
M  V30 2710 H 262.383 1.93469 3.61936 0
M  V30 2711 H 261.914 0.255123 3.92572 0
M  V30 2712 H 263.929 -0.500822 4.93666 0
M  V30 2713 N 263.102 -1.41638 0.69111 0
M  V30 2714 C 264.032 -2.3347 0.037248 0
M  V30 2715 C 265.013 -1.51575 -0.771947 0
M  V30 2716 O 266.198 -1.80126 -0.72582 0
M  V30 2717 C 263.328 -3.35354 -0.903064 0
M  V30 2718 C 262.282 -4.27526 -0.201288 0
M  V30 2719 C 261.608 -5.19747 -1.25565 0
M  V30 2720 C 262.908 -5.13959 0.929689 0
M  V30 2721 H 264.602 -2.88397 0.804227 0
M  V30 2722 H 262.148 -1.38669 0.388189 0
M  V30 2723 H 264.101 -3.98519 -1.36969 0
M  V30 2724 H 262.825 -2.78767 -1.70166 0
M  V30 2725 H 261.484 -3.65779 0.245265 0
M  V30 2726 H 261.132 -4.59479 -2.04666 0
M  V30 2727 H 260.832 -5.8225 -0.791128 0
M  V30 2728 H 262.356 -5.85789 -1.72288 0
M  V30 2729 H 263.77 -5.70718 0.543546 0
M  V30 2730 H 262.167 -5.85379 1.32103 0
M  V30 2731 H 263.237 -4.51389 1.77133 0
M  V30 2732 N 264.58 -0.43555 -1.51462 0
M  V30 2733 C 265.808 0.130242 -2.0649 0
M  V30 2734 C 266.223 1.36614 -1.30315 0
M  V30 2735 O 265.58 1.78869 -0.362223 0
M  V30 2736 C 265.631 0.454253 -3.58635 0
M  V30 2737 O 265.352 -0.73259 -4.31931 0
M  V30 2738 C 266.853 1.07091 -4.3017 0
M  V30 2739 H 264.073 0.00871669 -0.670943 0
M  V30 2740 H 266.617 -0.614117 -1.95061 0
M  V30 2741 H 264.772 1.14851 -3.69984 0
M  V30 2742 H 265.186 -0.455787 -5.22516 0
M  V30 2743 H 266.66 1.24764 -5.37716 0
M  V30 2744 H 267.137 2.05144 -3.88346 0
M  V30 2745 H 267.743 0.416089 -4.2326 0
M  V30 2746 N 266.058 1.56714 -0.166846 0
M  V30 2747 C 267.306 1.96358 0.478305 0
M  V30 2748 C 267.627 1.0537 1.6408 0
M  V30 2749 O 266.897 0.119154 1.95537 0
M  V30 2750 H 265.477 0.725065 0.179692 0
M  V30 2751 H 268.139 1.93329 -0.246985 0
M  V30 2752 H 267.235 3.00547 0.841292 0
M  V30 2753 N 267.536 -0.106894 1.57237 0
M  V30 2754 C 268.466 -1.13148 2.04254 0
M  V30 2755 C 269.447 -1.42476 0.929224 0
M  V30 2756 O 270.632 -1.52709 1.19973 0
M  V30 2757 C 267.762 -2.4545 2.45706 0
M  V30 2758 C 266.716 -2.30558 3.60592 0
M  V30 2759 C 266.042 -3.67931 3.87983 0
M  V30 2760 C 267.342 -1.75597 4.91897 0
M  V30 2761 H 269.036 -0.740374 2.90101 0
M  V30 2762 H 266.582 -0.354696 1.39563 0
M  V30 2763 H 268.535 -3.17389 2.77205 0
M  V30 2764 H 267.259 -2.86475 1.56843 0
M  V30 2765 H 265.918 -1.61067 3.29322 0
M  V30 2766 H 265.566 -4.06462 2.96306 0
M  V30 2767 H 265.266 -3.58817 4.65322 0
M  V30 2768 H 266.79 -4.41356 4.21945 0
M  V30 2769 H 268.204 -2.37364 5.21854 0
M  V30 2770 H 266.601 -1.77272 5.73319 0
M  V30 2771 H 267.671 -0.714451 4.79608 0
M  V30 2772 N 269.014 -1.53014 -0.377408 0
M  V30 2773 C 270.26 -1.68872 -1.12294 0
M  V30 2774 C 270.593 -0.433224 -1.89306 0
M  V30 2775 O 269.868 0.569258 -1.85983 0
M  V30 2776 C 270.151 -2.93115 -2.09179 0
M  V30 2777 C 270.004 -4.28794 -1.35853 0
M  V30 2778 C 271.323 -3.12928 -3.09458 0
M  V30 2779 H 268.442 -0.614518 -0.406862 0
M  V30 2780 H 271.084 -1.85633 -0.40503 0
M  V30 2781 H 269.234 -2.78956 -2.70399 0
M  V30 2782 H 270.906 -4.54742 -0.775082 0
M  V30 2783 H 269.149 -4.28744 -0.660364 0
M  V30 2784 H 269.82 -5.11837 -2.06706 0
M  V30 2785 H 272.296 -3.26194 -2.58334 0
M  V30 2786 H 271.172 -4.01316 -3.74482 0
M  V30 2787 H 271.433 -2.27669 -3.78971 0
M  V30 2788 N 270.492 0.636531 -1.44174 0
M  V30 2789 C 271.44 1.76995 -1.50915 0
M  V30 2790 C 272.434 1.65053 -0.381295 0
M  V30 2791 O 273.64 1.71197 -0.55601 0
M  V30 2792 H 270.015 0.584247 -0.473455 0
M  V30 2793 H 271.986 1.68432 -2.4632 0
M  V30 2794 C 270.735 3.15314 -1.46534 0
M  V30 2795 H 270.058 3.25149 -2.32633 0
M  V30 2796 H 271.498 3.9453 -1.55312 0
M  V30 2797 C 269.957 3.3639 -0.185305 0
M  V30 2798 O 270.487 3.94699 0.746688 0
M  V30 2799 N 268.693 2.9046 -0.0901606 0
M  V30 2800 H 268.24 2.43193 -0.849416 0
M  V30 2801 H 268.198 3.04937 0.765553 0
M  V30 2802 N 271.97 1.30982 0.876444 0
M  V30 2803 C 272.88 1.2003 2.01569 0
M  V30 2804 C 273.896 0.11838 1.73597 0
M  V30 2805 O 275.072 0.33495 1.98595 0
M  V30 2806 C 272.137 0.901637 3.34771 0
M  V30 2807 C 271.198 2.06979 3.76109 0
M  V30 2808 C 270.431 1.78529 5.02954 0
M  V30 2809 O 270.654 0.717296 5.65872 0
M  V30 2810 O 269.588 2.64019 5.40905 0
M  V30 2811 H 273.414 2.15753 2.13739 0
M  V30 2812 H 270.999 1.10658 1.00375 0
M  V30 2813 H 272.881 0.750645 4.1466 0
M  V30 2814 H 271.556 -0.0256141 3.2369 0
M  V30 2815 H 270.463 2.27616 2.96887 0
M  V30 2816 H 271.796 2.97907 3.91807 0
M  V30 2817 O 273.487 -1.01288 1.2579 0
M  V30 2818 H 274.178 -1.63193 1.04345 0
M  V30 END ATOM
M  V30 BEGIN BOND
M  V30 END BOND
M  V30 END CTAB
M  END
$$$$
