drugbank_target|Q9X5N2 Prolyl endopeptidase Pep (DB03814; DB04033)
 OpenBabel12092120283D

  0  0  0     0  0            999 V3000
M  V30 BEGIN CTAB
M  V30 COUNTS 10730 10879 0 0 0
M  V30 BEGIN ATOM
M  V30 1 H -0.908 1.98254 -0.117106 0
M  V30 2 N 0 1.576 0 0
M  V30 3 C 0.933 2.03868 1.02534 0
M  V30 4 C 1.911 0.928543 1.3348 0
M  V30 5 O 3.095 1.19667 1.45644 0
M  V30 6 C 0.222 2.43627 2.35294 0
M  V30 7 C -0.732 3.65373 2.2001 0
M  V30 8 S 0.101 5.13292 1.52614 0
M  V30 9 C 1.257 5.56322 2.86805 0
M  V30 10 H 1.49 2.90518 0.631377 0
M  V30 11 H -0.977 1.52953 0.210867 0
M  V30 12 H 0.981 2.67203 3.11629 0
M  V30 13 H -0.358 1.57376 2.7183 0
M  V30 14 H -1.165 3.90944 3.18086 0
M  V30 15 H -1.563 3.418 1.51819 0
M  V30 16 H 0.729 5.58782 3.83104 0
M  V30 17 H 1.672 6.56266 2.65933 0
M  V30 18 H 2.08 4.83886 2.90714 0
M  V30 19 N 1.4781 -0.272755 1.55222 0
M  V30 20 C 2.7031 -1.02683 1.80197 0
M  V30 21 C 3.1281 -1.79142 0.573551 0
M  V30 22 O 2.4861 -1.74917 -0.476849 0
M  V30 23 C 2.5341 -1.9609 3.02624 0
M  V30 24 O 1.6381 -3.04863 2.77727 0
M  V30 25 H 0.9791 -0.293557 0.595584 0
M  V30 26 H 3.5091 -0.30159 2.02365 0
M  V30 27 H 3.5191 -2.38039 3.31363 0
M  V30 28 H 2.1941 -1.39851 3.91682 0
M  V30 29 H 0.7711 -2.67228 2.60084 0
M  V30 30 N 2.9562 -1.48159 -0.537278 0
M  V30 31 C 4.1862 -1.59223 -1.3165 0
M  V30 32 C 4.5942 -0.248849 -1.87556 0
M  V30 33 O 3.9372 0.770949 -1.6674 0
M  V30 34 C 3.9992 -2.57365 -2.51005 0
M  V30 35 C 3.6632 -4.02603 -2.16239 0
M  V30 36 C 4.6602 -4.90503 -1.72344 0
M  V30 37 C 2.3452 -4.48088 -2.26986 0
M  V30 38 C 4.3392 -6.21913 -1.39651 0
M  V30 39 C 2.0262 -5.7952 -1.93906 0
M  V30 40 C 3.0242 -6.66255 -1.50309 0
M  V30 41 O 2.7122 -7.95243 -1.17659 0
M  V30 42 H 2.4442 -0.539831 -0.406889 0
M  V30 43 H 4.9982 -1.94655 -0.655641 0
M  V30 44 H 3.2282 -2.1704 -3.20048 0
M  V30 45 H 4.9172 -2.58342 -3.13072 0
M  V30 46 H 5.6832 -4.56604 -1.63517 0
M  V30 47 H 1.5622 -3.80769 -2.59877 0
M  V30 48 H 5.1062 -6.89569 -1.0555 0
M  V30 49 H 1.0032 -6.12957 -2.02371 0
M  V30 50 H 1.7712 -8.0793 -1.31119 0
M  V30 51 N 4.4343 0.785586 -1.36625 0
M  V30 52 C 5.8453 1.36101 -1.27803 0
M  V30 53 C 6.1963 1.96035 0.0804875 0
M  V30 54 O 5.3213 1.92834 0.982042 0
M  V30 55 C 5.9163 2.47442 -2.31426 0
M  V30 56 C 4.4753 3.00789 -2.26281 0
M  V30 57 C 3.6223 1.73896 -2.15999 0
M  V30 58 H 6.5733 0.586928 -1.47448 0
M  V30 59 H 6.5943 3.2656 -1.95291 0
M  V30 60 H 6.1063 2.03791 -3.30289 0
M  V30 61 H 4.2073 3.48851 -1.30896 0
M  V30 62 H 4.3203 3.57343 -3.19128 0
M  V30 63 H 2.6843 1.9628 -1.62316 0
M  V30 64 H 3.4673 1.32368 -3.16755 0
M  V30 65 N 5.9124 1.20967 1.01018 0
M  V30 66 C 6.8754 0.965918 2.07853 0
M  V30 67 C 7.8754 -0.0610545 1.60684 0
M  V30 68 O 9.0654 0.175681 1.73312 0
M  V30 69 C 6.1974 0.455513 3.37843 0
M  V30 70 H 7.3904 1.91365 2.3091 0
M  V30 71 H 4.9434 1.02594 1.17916 0
M  V30 72 H 5.6784 -0.497381 3.20463 0
M  V30 73 H 5.4634 1.19622 3.73407 0
M  V30 74 H 6.9534 0.304667 4.16487 0
M  V30 75 N 7.3905 -1.2043 1.01659 0
M  V30 76 C 8.6185 -1.93777 0.725132 0
M  V30 77 C 9.0335 -1.74772 -0.714166 0
M  V30 78 O 8.3905 -1.06169 -1.4844 0
M  V30 79 C 8.4415 -3.45876 1.05129 0
M  V30 80 O 8.1625 -3.6426 2.43406 0
M  V30 81 C 9.6635 -4.36368 0.780891 0
M  V30 82 H 6.8835 -0.615901 0.266284 0
M  V30 83 H 9.4275 -1.52922 1.35776 0
M  V30 84 H 7.5825 -3.8461 0.464065 0
M  V30 85 H 7.9965 -4.58246 2.55169 0
M  V30 86 H 9.4705 -5.41743 1.05918 0
M  V30 87 H 9.9475 -4.38275 -0.284937 0
M  V30 88 H 10.5535 -4.03296 1.35027 0
M  V30 89 N 8.8686 -0.792821 -1.36206 0
M  V30 90 C 10.2846 -0.474903 -1.52371 0
M  V30 91 C 10.4846 1.00622 -1.74578 0
M  V30 92 O 9.5406 1.79162 -1.77924 0
M  V30 93 C 10.8536 -1.3083 -2.70747 0
M  V30 94 C 12.4016 -1.30234 -2.84619 0
M  V30 95 C 12.8766 -2.11956 -4.06004 0
M  V30 96 N 14.3676 -2.09419 -4.13156 0
M  V30 97 C 15.1026 -2.69419 -5.06163 0
M  V30 98 N 14.5986 -3.3829 -6.04592 0
M  V30 99 N 16.3916 -2.59134 -4.98804 0
M  V30 100 H 8.5426 -1.75222 -1.20046 0
M  V30 101 H 10.8056 -0.745024 -0.586211 0
M  V30 102 H 10.5116 -2.35881 -2.6087 0
M  V30 103 H 10.3856 -0.95196 -3.6499 0
M  V30 104 H 12.7726 -0.259748 -2.93955 0
M  V30 105 H 12.8536 -1.69847 -1.91274 0
M  V30 106 H 12.4976 -3.16248 -3.97429 0
M  V30 107 H 12.4276 -1.69711 -4.98503 0
M  V30 108 H 14.9186 -1.59297 -3.42685 0
M  V30 109 H 15.2316 -3.81394 -6.7213 0
M  V30 110 H 13.5766 -3.42393 -6.04807 0
M  V30 111 H 16.7676 -2.04927 -4.20859 0
M  V30 112 H 16.9406 -3.06185 -5.711 0
M  V30 113 N 10.3467 1.47872 -0.545128 0
M  V30 114 C 11.3097 2.28337 0.198717 0
M  V30 115 C 12.3097 1.36255 0.853888 0
M  V30 116 O 13.4997 1.59003 0.711606 0
M  V30 117 C 10.6317 3.15585 1.28915 0
M  V30 118 H 11.8247 2.95567 -0.507941 0
M  V30 119 H 9.3777 1.53362 -0.301616 0
M  V30 120 H 10.1127 2.53019 2.02859 0
M  V30 121 H 9.8977 3.83337 0.824309 0
M  V30 122 H 11.3877 3.76243 1.81194 0
M  V30 123 N 11.8248 0.280983 1.55075 0
M  V30 124 C 12.7348 -0.61388 2.26426 0
M  V30 125 C 13.7508 -1.16521 1.29224 0
M  V30 126 O 14.9268 -1.19426 1.62171 0
M  V30 127 C 11.9918 -1.7788 2.9759 0
M  V30 128 C 11.0528 -1.26355 4.10284 0
M  V30 129 C 10.2858 -2.37295 4.78045 0
M  V30 130 O 10.5088 -3.56777 4.45047 0
M  V30 131 O 9.4428 -2.05119 5.65871 0
M  V30 132 H 13.2688 -0.0356932 3.03679 0
M  V30 133 H 10.8538 0.0481686 1.49322 0
M  V30 134 H 12.7358 -2.45791 3.42293 0
M  V30 135 H 11.4108 -2.34397 2.23249 0
M  V30 136 H 10.3178 -0.550735 3.70024 0
M  V30 137 H 11.6508 -0.744065 4.86543 0
M  V30 138 N 13.3029 -1.57598 0.00835791 0
M  V30 139 C 14.2349 -2.05811 -1.00868 0
M  V30 140 C 15.2479 -0.977579 -1.30182 0
M  V30 141 O 16.4369 -1.25421 -1.27011 0
M  V30 142 C 13.5369 -2.45016 -2.34137 0
M  V30 143 C 12.7099 -3.75903 -2.23643 0
M  V30 144 C 11.7689 -4.01884 -3.3967 0
M  V30 145 O 10.7949 -4.72433 -3.17483 0
M  V30 146 N 11.9969 -3.50432 -4.62793 0
M  V30 147 H 14.7619 -2.93684 -0.597458 0
M  V30 148 H 12.3229 -1.60909 -0.178852 0
M  V30 149 H 14.3149 -2.59506 -3.10546 0
M  V30 150 H 12.8849 -1.62618 -2.66972 0
M  V30 151 H 12.1049 -3.7141 -1.32091 0
M  V30 152 H 13.3929 -4.61695 -2.13812 0
M  V30 153 H 12.7909 -2.93317 -4.83716 0
M  V30 154 H 11.3479 -3.70236 -5.3644 0
M  V30 155 N 14.781 0.264519 -1.55364 0
M  V30 156 C 16.027 0.99646 -1.76631 0
M  V30 157 C 16.36 1.85632 -0.570478 0
M  V30 158 O 15.635 1.89647 0.43175 0
M  V30 159 C 15.918 1.87187 -3.07625 0
M  V30 160 C 15.771 1.04138 -4.37579 0
M  V30 161 C 17.09 2.85749 -3.34717 0
M  V30 162 H 14.209 0.360841 -0.642622 0
M  V30 163 H 16.851 0.268218 -1.88097 0
M  V30 164 H 15.001 2.49279 -2.9798 0
M  V30 165 H 16.673 0.440517 -4.59192 0
M  V30 166 H 14.916 0.345115 -4.32425 0
M  V30 167 H 15.587 1.68729 -5.2558 0
M  V30 168 H 18.063 2.33793 -3.4421 0
M  V30 169 H 16.939 3.44136 -4.27623 0
M  V30 170 H 17.2 3.61311 -2.54768 0
M  V30 171 N 16.2591 1.48442 0.529413 0
M  V30 172 C 17.5051 1.5672 1.28711 0
M  V30 173 C 17.8381 0.2406 1.92704 0
M  V30 174 O 17.1131 -0.753454 1.79313 0
M  V30 175 C 17.3961 2.70587 2.37603 0
M  V30 176 C 17.2491 4.12953 1.78297 0
M  V30 177 C 18.5681 2.80212 3.39366 0
M  V30 178 H 15.6871 0.570474 0.466613 0
M  V30 179 H 18.3291 1.80617 0.589706 0
M  V30 180 H 16.4791 2.50342 2.97088 0
M  V30 181 H 18.1511 4.44639 1.22858 0
M  V30 182 H 16.3941 4.19927 1.0883 0
M  V30 183 H 17.0651 4.88448 2.57144 0
M  V30 184 H 19.5411 2.98553 2.89836 0
M  V30 185 H 18.4171 3.61611 4.12951 0
M  V30 186 H 18.6781 1.88393 3.99951 0
M  V30 187 N 17.7372 -0.778329 1.37039 0
M  V30 188 C 19.0142 -1.52551 1.22424 0
M  V30 189 C 19.3942 -2.10288 -0.184964 0
M  V30 190 O 18.7422 -1.94953 -1.19187 0
M  V30 191 C 18.9522 -2.61164 2.31504 0
M  V30 192 C 20.3002 -3.28746 2.68721 0
M  V30 193 O 21.3242 -2.71455 2.30631 0
M  V30 194 O 20.1832 -4.3231 3.3432 0
M  V30 195 H 17.2772 -0.675343 0.477326 0
M  V30 196 H 19.8232 -0.815859 1.48801 0
M  V30 197 H 18.5952 -2.16574 3.25901 0
M  V30 198 H 18.2182 -3.39737 2.06554 0
M  V30 199 N 19.2153 -1.21501 -1.00376 0
M  V30 200 C 20.4433 -1.059 -1.77744 0
M  V30 201 C 20.8583 0.391125 -1.84704 0
M  V30 202 O 20.2153 1.27133 -1.30933 0
M  V30 203 C 20.2663 -1.65111 -3.21591 0
M  V30 204 O 19.9873 -3.0445 -3.15027 0
M  V30 205 C 21.4883 -1.54637 -4.15454 0
M  V30 206 H 18.7083 -0.371825 -0.558558 0
M  V30 207 H 21.2523 -1.60865 -1.26264 0
M  V30 208 H 19.4073 -1.14235 -3.70175 0
M  V30 209 H 19.8213 -3.3278 -4.0541 0
M  V30 210 H 21.2953 -2.00808 -5.14179 0
M  V30 211 H 21.7723 -0.501022 -4.36333 0
M  V30 212 H 22.3783 -2.04767 -3.72761 0
M  V30 213 N 20.6934 1.19889 -1.02296 0
M  V30 214 C 21.6234 2.25141 -0.619174 0
M  V30 215 C 22.6044 1.66051 0.368915 0
M  V30 216 O 23.7894 1.92546 0.252941 0
M  V30 217 C 20.9194 3.4728 0.0368783 0
M  V30 218 C 19.8734 4.19005 -0.872865 0
M  V30 219 C 19.1994 5.34637 -0.0822402 0
M  V30 220 C 20.4994 4.74452 -2.18387 0
M  V30 221 H 22.1934 2.59171 -1.49903 0
M  V30 222 H 19.7394 1.24579 -0.722222 0
M  V30 223 H 21.6924 4.20098 0.330958 0
M  V30 224 H 20.4164 3.12433 0.95149 0
M  V30 225 H 19.0754 3.48061 -1.15105 0
M  V30 226 H 18.7234 4.96034 0.83422 0
M  V30 227 H 18.4234 5.83557 -0.688149 0
M  V30 228 H 19.9474 6.10255 0.205238 0
M  V30 229 H 21.3614 5.39055 -1.95172 0
M  V30 230 H 19.7584 5.33834 -2.74119 0
M  V30 231 H 20.8284 3.92844 -2.84257 0
M  V30 232 N 22.1715 0.800033 1.35784 0
M  V30 233 C 23.1215 0.178654 2.27299 0
M  V30 234 C 24.1055 -0.643667 1.47464 0
M  V30 235 O 25.2975 -0.502 1.69732 0
M  V30 236 C 22.4265 -0.677194 3.36555 0
M  V30 237 C 21.5125 0.154497 4.23818 0
M  V30 238 N 21.9035 1.21427 4.91008 0
M  V30 239 C 20.2015 -0.0649462 4.45953 0
M  V30 240 C 20.9025 1.72147 5.55644 0
M  V30 241 N 19.8785 1.02897 5.33773 0
M  V30 242 H 23.6805 0.989637 2.76737 0
M  V30 243 H 21.1945 0.64054 1.49234 0
M  V30 244 H 23.1915 -1.13835 4.01058 0
M  V30 245 H 21.8515 -1.4866 2.8867 0
M  V30 246 H 22.8625 1.59684 4.92668 0
M  V30 247 H 19.5395 -0.844016 4.0888 0
M  V30 248 H 20.9295 2.60683 6.19269 0
M  V30 249 N 23.6496 -1.47581 0.552962 0
M  V30 250 C 24.8976 -2.02082 0.0272703 0
M  V30 251 C 25.2186 -1.4301 -1.32563 0
M  V30 252 O 24.4886 -0.603745 -1.86365 0
M  V30 253 H 23.0686 -0.746966 0.00709182 0
M  V30 254 H 25.7306 -1.81033 0.722008 0
M  V30 255 H 24.8266 -3.12034 -0.0639951 0
M  V30 256 N 25.1277 -0.289203 -1.54924 0
M  V30 257 C 26.3737 0.323998 -2.00195 0
M  V30 258 C 26.7067 1.54441 -1.17735 0
M  V30 259 O 25.9817 1.92875 -0.250878 0
M  V30 260 C 26.2647 0.692276 -3.53383 0
M  V30 261 C 26.1177 -0.536457 -4.46589 0
M  V30 262 C 27.4367 1.52335 -4.12895 0
M  V30 263 H 24.5557 0.116289 -0.727768 0
M  V30 264 H 27.1977 -0.398954 -1.85764 0
M  V30 265 H 25.3477 1.30822 -3.65811 0
M  V30 266 H 27.0197 -1.17499 -4.46085 0
M  V30 267 H 25.2627 -1.17192 -4.1767 0
M  V30 268 H 25.9337 -0.234806 -5.515 0
M  V30 269 H 28.4097 1.00302 -4.0383 0
M  V30 270 H 27.2857 1.74982 -5.20262 0
M  V30 271 H 27.5467 2.50886 -3.64018 0
M  V30 272 N 26.6058 1.57591 -0.0167156 0
M  V30 273 C 27.5378 2.06343 0.997753 0
M  V30 274 C 28.5508 0.984469 1.29661 0
M  V30 275 O 29.7398 1.26093 1.26344 0
M  V30 276 C 26.8398 2.46255 2.32834 0
M  V30 277 C 26.0128 3.77083 2.21646 0
M  V30 278 C 25.0718 4.0368 3.37534 0
M  V30 279 O 24.0978 4.7411 3.14973 0
M  V30 280 N 25.2998 3.52881 4.60929 0
M  V30 281 H 28.0648 2.93997 0.581875 0
M  V30 282 H 25.6258 1.61002 0.170316 0
M  V30 283 H 27.6178 2.61149 3.09166 0
M  V30 284 H 26.1878 1.64032 2.66106 0
M  V30 285 H 25.4078 3.72106 1.30119 0
M  V30 286 H 26.6958 4.62822 2.11361 0
M  V30 287 H 26.0938 2.95878 4.82154 0
M  V30 288 H 24.6508 3.73076 5.34469 0
M  V30 289 N 28.0839 -0.256276 1.55502 0
M  V30 290 C 29.3299 -0.987079 1.77157 0
M  V30 291 C 29.6629 -1.85327 0.580315 0
M  V30 292 O 28.9379 -1.89874 -0.421686 0
M  V30 293 C 29.2209 -1.85553 3.08613 0
M  V30 294 C 29.0739 -1.01816 4.38125 0
M  V30 295 C 30.3929 -2.8397 3.36228 0
M  V30 296 H 27.5119 -0.357428 0.644526 0
M  V30 297 H 30.1539 -0.258239 1.88237 0
M  V30 298 H 28.3039 -2.47695 2.99298 0
M  V30 299 H 29.9759 -0.416159 4.59419 0
M  V30 300 H 28.2189 -0.322178 4.32602 0
M  V30 301 H 28.8899 -1.65939 5.26468 0
M  V30 302 H 31.3659 -2.31964 3.45445 0
M  V30 303 H 30.2419 -3.41864 4.29442 0
M  V30 304 H 30.5029 -3.59955 2.56681 0
M  V30 305 N 29.562 -1.4872 -0.521534 0
M  V30 306 C 30.525 -1.63379 -1.60748 0
M  V30 307 C 31.525 -0.50661 -1.52611 0
M  V30 308 O 32.715 -0.772601 -1.5613 0
M  V30 309 C 29.847 -1.61192 -3.00383 0
M  V30 310 H 31.04 -2.60217 -1.49087 0
M  V30 311 H 28.593 -1.37444 -0.744235 0
M  V30 312 H 29.328 -0.65863 -3.17541 0
M  V30 313 H 29.113 -2.43032 -3.07698 0
M  V30 314 H 30.603 -1.7466 -3.7932 0
M  V30 315 N 31.0401 0.771051 -1.3745 0
M  V30 316 C 32.3171 1.519 -1.23231 0
M  V30 317 C 32.6971 2.10383 0.173809 0
M  V30 318 O 32.0451 1.95583 1.18151 0
M  V30 319 C 32.2551 2.59933 -2.32886 0
M  V30 320 C 33.6031 3.27316 -2.70461 0
M  V30 321 O 34.6271 2.70228 -2.32068 0
M  V30 322 O 33.4861 4.30531 -3.36608 0
M  V30 323 H 30.5801 0.672803 -0.480901 0
M  V30 324 H 33.1261 0.807957 -1.49232 0
M  V30 325 H 31.8981 2.14842 -3.27045 0
M  V30 326 H 31.5211 3.38637 -2.08353 0
M  V30 327 N 32.5182 1.22032 0.997298 0
M  V30 328 C 33.9292 1.0397 1.55071 0
M  V30 329 C 34.2802 -0.398192 1.92117 0
M  V30 330 O 33.4052 -1.28254 1.74298 0
M  V30 331 C 34.0002 1.88109 2.81781 0
M  V30 332 C 32.5592 1.74357 3.33581 0
M  V30 333 C 31.7062 1.84846 2.06706 0
M  V30 334 H 34.6572 1.35941 0.818883 0
M  V30 335 H 34.6782 1.39589 3.53971 0
M  V30 336 H 34.1902 2.92754 2.54787 0
M  V30 337 H 32.2912 0.72427 3.65493 0
M  V30 338 H 32.4042 2.56772 4.04481 0
M  V30 339 H 30.7682 1.28238 2.20062 0
M  V30 340 H 31.5512 2.91014 1.82114 0
M  V30 341 N 33.9963 -1.19345 1.0293 0
M  V30 342 C 35.2263 -1.92717 0.744563 0
M  V30 343 C 35.6343 -1.75751 -0.700579 0
M  V30 344 O 34.9773 -1.07703 -1.48815 0
M  V30 345 C 35.0393 -3.44828 1.01657 0
M  V30 346 C 34.7033 -3.85564 2.45335 0
M  V30 347 C 35.7003 -3.90286 3.43472 0
M  V30 348 C 33.3853 -4.1719 2.79746 0
M  V30 349 C 35.3793 -4.26065 4.74075 0
M  V30 350 C 33.0663 -4.52642 4.10559 0
M  V30 351 C 34.0643 -4.57054 5.07534 0
M  V30 352 O 33.7523 -4.91685 6.36004 0
M  V30 353 H 33.4843 -0.618977 0.271742 0
M  V30 354 H 36.0383 -1.52415 1.37691 0
M  V30 355 H 34.2683 -3.85314 0.327084 0
M  V30 356 H 35.9573 -3.99437 0.721427 0
M  V30 357 H 36.7233 -3.66002 3.18225 0
M  V30 358 H 32.6023 -4.1294 2.04943 0
M  V30 359 H 36.1463 -4.29423 5.49765 0
M  V30 360 H 32.0433 -4.76383 4.35579 0
M  V30 361 H 32.8113 -5.09631 6.40483 0
M  V30 362 N 35.4744 -0.807222 -1.35358 0
M  V30 363 C 36.8904 -0.491038 -1.51858 0
M  V30 364 C 37.0904 0.987648 -1.75635 0
M  V30 365 O 36.1464 1.77265 -1.79815 0
M  V30 366 C 37.4594 -1.33695 -2.69344 0
M  V30 367 C 39.0074 -1.33246 -2.83222 0
M  V30 368 C 39.4824 -2.1625 -4.03733 0
M  V30 369 N 40.9734 -2.1379 -4.10911 0
M  V30 370 C 41.7084 -2.74772 -5.03277 0
M  V30 371 N 41.2044 -3.44684 -6.0097 0
M  V30 372 N 42.9974 -2.6441 -4.96028 0
M  V30 373 H 35.1484 -1.76485 -1.18181 0
M  V30 374 H 37.4114 -0.751199 -0.578276 0
M  V30 375 H 37.1174 -2.38634 -2.58354 0
M  V30 376 H 36.9914 -0.990618 -3.6396 0
M  V30 377 H 39.3784 -0.290911 -2.93663 0
M  V30 378 H 39.4594 -1.71866 -1.89461 0
M  V30 379 H 39.1034 -3.20445 -3.94052 0
M  V30 380 H 39.0334 -1.74989 -4.96675 0
M  V30 381 H 41.5244 -1.62923 -3.40976 0
M  V30 382 H 41.8374 -3.88501 -6.68047 0
M  V30 383 H 40.1824 -3.48788 -6.01142 0
M  V30 384 H 43.3734 -2.0938 -4.18662 0
M  V30 385 H 43.5464 -3.12225 -5.6782 0
M  V30 386 N 36.9525 1.47285 -0.560781 0
M  V30 387 C 38.1985 2.03347 -0.0463654 0
M  V30 388 C 38.5535 1.42702 1.2905 0
M  V30 389 O 37.8465 0.574619 1.8278 0
M  V30 390 C 38.0405 3.57258 0.100784 0
M  V30 391 C 37.8695 4.32827 -1.22027 0
M  V30 392 C 36.6395 4.72588 -1.78854 0
M  V30 393 C 38.8375 4.67739 -2.13834 0
M  V30 394 N 36.8195 5.32816 -3.04927 0
M  V30 395 C 38.1905 5.28307 -3.24487 0
M  V30 396 C 40.2455 4.49667 -2.13784 0
M  V30 397 C 38.9485 5.72711 -4.35194 0
M  V30 398 C 40.9745 4.95073 -3.23506 0
M  V30 399 C 40.3365 5.55693 -4.32879 0
M  V30 400 H 36.4355 0.779755 -0.0592166 0
M  V30 401 H 39.0195 1.79723 -0.748857 0
M  V30 402 H 37.1905 3.80642 0.772404 0
M  V30 403 H 38.9225 3.9996 0.617589 0
M  V30 404 H 35.6775 4.54656 -1.32609 0
M  V30 405 H 36.1015 5.67471 -3.69197 0
M  V30 406 H 40.7435 4.02154 -1.30507 0
M  V30 407 H 38.4615 6.19214 -5.1923 0
M  V30 408 H 42.0475 4.82859 -3.24559 0
M  V30 409 H 40.9275 5.90188 -5.1638 0
M  V30 410 N 38.4306 0.297415 1.54768 0
M  V30 411 C 39.3606 -0.573494 2.26348 0
M  V30 412 C 40.3416 -1.14085 1.26169 0
M  V30 413 O 41.5266 -1.17086 1.54934 0
M  V30 414 C 38.6566 -1.74716 3.00153 0
M  V30 415 C 37.6106 -1.31032 4.07449 0
M  V30 416 C 36.9366 -2.56887 4.68949 0
M  V30 417 C 38.2366 -0.444183 5.20408 0
M  V30 418 H 39.9306 0.0235131 2.99391 0
M  V30 419 H 37.4766 0.0127488 1.43994 0
M  V30 420 H 39.4296 -2.3625 3.48947 0
M  V30 421 H 38.1536 -2.37035 2.24682 0
M  V30 422 H 36.8126 -0.718066 3.59499 0
M  V30 423 H 36.4606 -3.17512 3.90122 0
M  V30 424 H 36.1606 -2.2836 5.41411 0
M  V30 425 H 37.6846 -3.19229 5.20505 0
M  V30 426 H 39.0986 -0.9651 5.65118 0
M  V30 427 H 37.4956 -0.252846 5.99567 0
M  V30 428 H 38.5656 0.531609 4.81977 0
M  V30 429 N 39.9087 -1.5758 0.0250728 0
M  V30 430 C 40.8187 -2.1343 -0.973905 0
M  V30 431 C 41.8347 -1.08556 -1.35984 0
M  V30 432 O 43.0107 -1.40592 -1.44207 0
M  V30 433 C 40.0757 -2.64703 -2.23904 0
M  V30 434 C 39.1367 -3.84276 -1.91391 0
M  V30 435 C 38.3697 -4.33095 -3.11873 0
M  V30 436 O 38.5927 -3.81107 -4.24398 0
M  V30 437 O 37.5267 -5.24984 -2.94406 0
M  V30 438 H 41.3527 -2.99057 -0.529036 0
M  V30 439 H 38.9377 -1.48118 -0.195288 0
M  V30 440 H 40.8197 -2.97769 -2.98181 0
M  V30 441 H 39.4947 -1.82161 -2.6758 0
M  V30 442 H 38.4017 -3.56143 -1.14511 0
M  V30 443 H 39.7347 -4.67968 -1.52534 0
M  V30 444 N 41.3868 0.248026 -1.55636 0
M  V30 445 C 42.6638 0.998988 -1.68165 0
M  V30 446 C 43.0438 2.03409 -0.564621 0
M  V30 447 O 42.3918 2.24378 0.432076 0
M  V30 448 C 42.6018 1.63334 -3.0842 0
M  V30 449 C 43.9498 2.13562 -3.66983 0
M  V30 450 O 44.9738 1.73277 -3.11213 0
M  V30 451 O 43.8328 2.87526 -4.64749 0
M  V30 452 H 40.9268 0.464933 -0.683935 0
M  V30 453 H 43.4728 0.241902 -1.67967 0
M  V30 454 H 42.2448 0.884583 -3.8117 0
M  V30 455 H 41.8678 2.45666 -3.12624 0
M  V30 456 N 42.8649 1.48995 0.513639 0
M  V30 457 C 43.7749 1.67443 1.64317 0
M  V30 458 C 44.7909 0.556947 1.64846 0
M  V30 459 O 45.9669 0.830082 1.83498 0
M  V30 460 C 43.0319 1.72515 3.00732 0
M  V30 461 C 42.0929 2.96009 3.1093 0
M  V30 462 C 41.3259 3.00829 4.40837 0
M  V30 463 O 41.5489 2.13594 5.28898 0
M  V30 464 O 40.4829 3.93168 4.55744 0
M  V30 465 H 44.3089 2.63106 1.51687 0
M  V30 466 H 41.8939 1.32588 0.688543 0
M  V30 467 H 43.7759 1.78277 3.81831 0
M  V30 468 H 42.4509 0.800278 3.13651 0
M  V30 469 H 41.3579 2.9577 2.29065 0
M  V30 470 H 42.6909 3.87934 3.02933 0
M  V30 471 N 44.343 -0.763751 1.37857 0
M  V30 472 C 45.29 -1.87726 1.34267 0
M  V30 473 C 46.26 -1.64807 0.206879 0
M  V30 474 O 47.445 -1.86613 0.397508 0
M  V30 475 C 44.585 -3.24896 1.16346 0
M  V30 476 C 43.698 -3.59716 2.39225 0
M  V30 477 C 42.833 -4.86137 2.14114 0
M  V30 478 C 41.872 -5.13711 3.32817 0
M  V30 479 N 41.009 -6.31323 3.07206 0
M  V30 480 H 45.849 -1.90129 2.29466 0
M  V30 481 H 43.386 -0.929433 1.14017 0
M  V30 482 H 45.344 -4.04036 1.03975 0
M  V30 483 H 43.974 -3.21847 0.247909 0
M  V30 484 H 43.026 -2.75498 2.62307 0
M  V30 485 H 44.338 -3.76027 3.27728 0
M  V30 486 H 43.492 -5.73198 1.9882 0
M  V30 487 H 42.231 -4.71945 1.22961 0
M  V30 488 H 41.236 -4.25123 3.48641 0
M  V30 489 H 42.461 -5.29807 4.24832 0
M  V30 490 H 40.407 -6.18474 2.1869 0
M  V30 491 H 40.324 -6.48087 3.89254 0
M  V30 492 H 41.592 -7.213 2.95546 0
M  V30 493 N 45.8211 -1.22559 -0.990812 0
M  V30 494 C 46.7841 -0.998863 -2.0629 0
M  V30 495 C 47.7841 0.0354834 -1.60761 0
M  V30 496 O 48.9741 -0.203231 -1.7301 0
M  V30 497 C 46.1061 -0.509203 -3.37076 0
M  V30 498 H 47.2991 -1.95014 -2.27837 0
M  V30 499 H 44.8521 -1.04456 -1.16269 0
M  V30 500 H 45.5871 0.446335 -3.21214 0
M  V30 501 H 45.3721 -1.25547 -3.71457 0
M  V30 502 H 46.8621 -0.370888 -4.1595 0
M  V30 503 N 47.2992 1.18797 -1.03562 0
M  V30 504 C 48.7102 1.70322 -0.764676 0
M  V30 505 C 49.0612 1.82708 0.714996 0
M  V30 506 O 48.1862 1.50299 1.55689 0
M  V30 507 C 48.7812 3.09356 -1.38145 0
M  V30 508 C 47.3402 3.58114 -1.15895 0
M  V30 509 C 46.4872 2.34798 -1.4753 0
M  V30 510 H 49.4382 1.03543 -1.20268 0
M  V30 511 H 49.4592 3.72378 -0.781977 0
M  V30 512 H 48.9712 3.00309 -2.45837 0
M  V30 513 H 47.0722 3.72464 -0.100544 0
M  V30 514 H 47.1852 4.4184 -1.8524 0
M  V30 515 H 45.5492 2.38464 -0.894829 0
M  V30 516 H 46.3322 2.28375 -2.56319 0
M  V30 517 N 48.7773 0.814389 1.34928 0
M  V30 518 C 49.6873 0.231978 2.3345 0
M  V30 519 C 50.7033 -0.629139 1.62228 0
M  V30 520 O 51.8793 -0.539052 1.94052 0
M  V30 521 C 48.9443 -0.603482 3.41407 0
M  V30 522 C 48.0053 0.279037 4.28392 0
M  V30 523 C 47.2383 -0.516643 5.31193 0
M  V30 524 O 47.4613 -1.75068 5.4287 0
M  V30 525 O 46.3953 0.0965652 6.01823 0
M  V30 526 H 50.2213 1.04721 2.85074 0
M  V30 527 H 47.8063 0.576343 1.37836 0
M  V30 528 H 49.6883 -1.07908 4.0735 0
M  V30 529 H 48.3633 -1.39618 2.92042 0
M  V30 530 H 47.2703 0.801948 3.65403 0
M  V30 531 H 48.6033 1.03588 4.81176 0
M  V30 532 N 50.2554 -1.46986 0.568584 0
M  V30 533 C 51.5014 -2.02741 0.0488709 0
M  V30 534 C 51.8344 -1.44077 -1.30214 0
M  V30 535 O 51.1094 -0.600552 -1.84996 0
M  V30 536 C 51.3924 -3.60086 -0.032047 0
M  V30 537 C 51.2454 -4.29162 1.34686 0
M  V30 538 C 52.5644 -4.33838 -0.739798 0
M  V30 539 H 49.6834 -0.736749 0.0192338 0
M  V30 540 H 52.3254 -1.75289 0.733065 0
M  V30 541 H 50.4754 -3.83606 -0.61473 0
M  V30 542 H 52.1474 -4.16948 1.97362 0
M  V30 543 H 50.3904 -3.89073 1.91846 0
M  V30 544 H 51.0614 -5.37826 1.24285 0
M  V30 545 H 53.5374 -4.15378 -0.244939 0
M  V30 546 H 52.4134 -5.43537 -0.765406 0
M  V30 547 H 52.6744 -4.03875 -1.79827 0
M  V30 548 N 51.7335 -0.305618 -1.54608 0
M  V30 549 C 52.6655 0.602161 -2.21149 0
M  V30 550 C 53.6785 1.09394 -1.20569 0
M  V30 551 O 54.8675 1.0106 -1.47136 0
M  V30 552 C 51.9675 1.83692 -2.84799 0
M  V30 553 C 51.1405 1.48686 -4.11353 0
M  V30 554 C 50.1995 2.57725 -4.58764 0
M  V30 555 O 49.2255 2.22623 -5.23858 0
M  V30 556 N 50.4275 3.88346 -4.31471 0
M  V30 557 H 53.1925 0.0324966 -2.99682 0
M  V30 558 H 50.7535 -0.128021 -1.61393 0
M  V30 559 H 52.7455 2.55994 -3.13448 0
M  V30 560 H 51.3155 2.31486 -2.10078 0
M  V30 561 H 50.5355 0.596269 -3.89664 0
M  V30 562 H 51.8235 1.22842 -4.93748 0
M  V30 563 H 51.2215 4.19671 -3.79331 0
M  V30 564 H 49.7785 4.56932 -4.64818 0
M  V30 565 N 53.2116 1.57565 -0.0334293 0
M  V30 566 C 54.4396 1.9628 0.654347 0
M  V30 567 C 54.8546 0.910138 1.65414 0
M  V30 568 O 54.2116 -0.107595 1.82183 0
M  V30 569 C 54.2626 3.35067 1.35693 0
M  V30 570 O 53.9836 4.36296 0.397191 0
M  V30 571 C 55.4846 3.88439 2.13613 0
M  V30 572 H 52.7046 0.646369 0.180132 0
M  V30 573 H 55.2486 2.04282 -0.0944721 0
M  V30 574 H 53.4036 3.2827 2.05712 0
M  V30 575 H 53.8176 5.1678 0.896597 0
M  V30 576 H 55.2916 4.8788 2.58219 0
M  V30 577 H 55.7686 3.22914 2.97696 0
M  V30 578 H 56.3746 3.98516 1.48543 0
M  V30 579 N 54.6897 -0.239769 1.55765 0
M  V30 580 C 55.9357 -0.963942 1.79108 0
M  V30 581 C 56.2907 -1.82689 0.60352 0
M  V30 582 O 55.5837 -1.87313 -0.403033 0
M  V30 583 C 55.7777 -1.852 3.05672 0
M  V30 584 C 55.6067 -1.07651 4.36625 0
M  V30 585 C 54.3767 -0.778738 4.99263 0
M  V30 586 C 56.5747 -0.45062 5.12322 0
M  V30 587 N 54.5567 0.0200708 6.13897 0
M  V30 588 C 55.9277 0.212429 6.19636 0
M  V30 589 C 57.9827 -0.361806 4.96584 0
M  V30 590 C 56.6857 0.955772 7.12922 0
M  V30 591 C 58.7117 0.368023 5.90254 0
M  V30 592 C 58.0737 1.01968 6.96981 0
M  V30 593 H 54.1727 -0.333601 0.707272 0
M  V30 594 H 56.7567 -0.236425 1.93259 0
M  V30 595 H 54.9277 -2.55149 2.92837 0
M  V30 596 H 56.6597 -2.51228 3.1728 0
M  V30 597 H 53.4147 -1.09229 4.60832 0
M  V30 598 H 53.8387 0.407777 6.75771 0
M  V30 599 H 58.4807 -0.851286 4.14141 0
M  V30 600 H 56.1987 1.45683 7.9486 0
M  V30 601 H 59.7847 0.437504 5.80153 0
M  V30 602 H 58.6647 1.5754 7.68213 0
M  V30 603 N 56.1678 -1.49265 -0.50573 0
M  V30 604 C 57.1008 -1.60183 -1.62532 0
M  V30 605 C 58.0788 -0.451107 -1.56217 0
M  V30 606 O 59.2628 -0.666016 -1.76342 0
M  V30 607 C 56.3898 -1.55238 -3.01029 0
M  V30 608 C 55.4358 -2.7545 -3.25621 0
M  V30 609 S 56.2688 -4.37174 -3.09256 0
M  V30 610 C 57.4248 -4.34866 -4.50158 0
M  V30 611 H 57.6578 -2.54894 -1.53025 0
M  V30 612 H 55.1908 -1.38098 -0.690535 0
M  V30 613 H 57.1488 -1.53071 -3.80893 0
M  V30 614 H 55.8098 -0.618238 -3.07956 0
M  V30 615 H 55.0028 -2.68197 -4.26716 0
M  V30 616 H 54.6048 -2.75005 -2.53472 0
M  V30 617 H 56.8968 -4.06295 -5.42154 0
M  V30 618 H 57.8398 -5.36223 -4.62462 0
M  V30 619 H 58.2478 -3.65007 -4.30616 0
M  V30 620 N 57.6459 0.756429 -1.3826 0
M  V30 621 C 58.8739 1.54565 -1.3754 0
M  V30 622 C 59.2889 1.88767 0.0355331 0
M  V30 623 O 58.6459 1.52572 1.0014 0
M  V30 624 C 58.6969 2.84654 -2.22833 0
M  V30 625 O 58.4179 2.51912 -3.5843 0
M  V30 626 C 59.9189 3.78807 -2.30261 0
M  V30 627 H 57.1389 0.478353 -0.470553 0
M  V30 628 H 59.6829 0.936381 -1.81803 0
M  V30 629 H 57.8379 3.41965 -1.8204 0
M  V30 630 H 58.2519 3.35325 -4.03308 0
M  V30 631 H 59.7259 4.67045 -2.94233 0
M  V30 632 H 60.2029 4.19038 -1.31545 0
M  V30 633 H 60.8089 3.2742 -2.71433 0
M  V30 634 N 59.124 1.23083 0.984299 0
M  V30 635 C 60.087 1.00979 2.05757 0
M  V30 636 C 61.087 -0.0269573 1.60777 0
M  V30 637 O 62.277 0.212403 1.729 0
M  V30 638 C 59.409 0.527072 3.36801 0
M  V30 639 H 60.602 1.9622 2.26799 0
M  V30 640 H 58.155 1.05072 1.15714 0
M  V30 641 H 58.89 -0.429294 3.21446 0
M  V30 642 H 58.675 1.27515 3.70786 0
M  V30 643 H 60.165 0.392942 4.15747 0
M  V30 644 N 60.6021 -1.18246 1.0419 0
M  V30 645 C 61.5341 -2.2142 0.592088 0
M  V30 646 C 62.5471 -1.59233 -0.338909 0
M  V30 647 O 63.7361 -1.78002 -0.133231 0
M  V30 648 C 60.8361 -3.38546 -0.154854 0
M  V30 649 C 60.0091 -4.3031 0.784328 0
M  V30 650 C 59.0681 -5.26138 0.0804583 0
M  V30 651 O 58.0941 -5.64738 0.711292 0
M  V30 652 N 59.2961 -5.68261 -1.18574 0
M  V30 653 H 62.0611 -2.60636 1.47949 0
M  V30 654 H 59.6221 -1.33044 0.922544 0
M  V30 655 H 61.6141 -3.99678 -0.635606 0
M  V30 656 H 60.1841 -2.98012 -0.943811 0
M  V30 657 H 59.4041 -3.66764 1.44491 0
M  V30 658 H 60.6921 -4.8852 1.42218 0
M  V30 659 H 60.0901 -5.38957 -1.71876 0
M  V30 660 H 58.6471 -6.31584 -1.61074 0
M  V30 661 N 62.0802 -0.821533 -1.34494 0
M  V30 662 C 63.0282 -0.230702 -2.31453 0
M  V30 663 C 64.0222 0.627793 -1.57338 0
M  V30 664 O 65.2282 0.519288 -1.72347 0
M  V30 665 H 61.6032 -0.0558577 -0.749923 0
M  V30 666 H 63.5742 -1.06332 -2.78812 0
M  V30 667 C 62.3232 0.59391 -3.4259 0
M  V30 668 H 61.6462 -0.0573588 -3.99759 0
M  V30 669 H 63.0862 0.973446 -4.12674 0
M  V30 670 C 61.5452 1.76568 -2.86924 0
M  V30 671 O 62.0752 2.8638 -2.81691 0
M  V30 672 N 60.2812 1.58198 -2.43766 0
M  V30 673 H 59.8282 0.68872 -2.48222 0
M  V30 674 H 59.7862 2.36752 -2.06871 0
M  V30 675 N 63.5583 1.46682 -0.576371 0
M  V30 676 C 64.5213 2.28707 0.150239 0
M  V30 677 C 65.5213 1.38035 0.824794 0
M  V30 678 O 66.7113 1.60476 0.677719 0
M  V30 679 C 63.8433 3.18248 1.22192 0
M  V30 680 H 65.0363 2.94423 -0.570521 0
M  V30 681 H 62.5893 1.52688 -0.334078 0
M  V30 682 H 63.3243 2.57265 1.97447 0
M  V30 683 H 63.1093 3.85 0.742812 0
M  V30 684 H 64.5993 3.80001 1.73172 0
M  V30 685 N 65.0364 0.313813 1.54444 0
M  V30 686 C 65.9864 -0.571898 2.20711 0
M  V30 687 C 66.9704 -1.08913 1.18435 0
M  V30 688 O 68.1624 -1.02777 1.44104 0
M  V30 689 C 65.2914 -1.7371 2.96108 0
M  V30 690 C 64.3774 -1.23522 4.05713 0
M  V30 691 N 64.7684 -0.452288 5.03774 0
M  V30 692 C 63.0664 -1.51482 4.19487 0
M  V30 693 C 63.7674 -0.183438 5.81411 0
M  V30 694 N 62.7434 -0.766845 5.38164 0
M  V30 695 H 66.5454 0.0336802 2.93881 0
M  V30 696 H 64.0594 0.119192 1.61962 0
M  V30 697 H 66.0564 -2.38329 3.4206 0
M  V30 698 H 64.7164 -2.34625 2.24458 0
M  V30 699 H 65.7274 -0.0960131 5.17811 0
M  V30 700 H 62.4044 -2.13053 3.59047 0
M  V30 701 H 63.7944 0.446216 6.70417 0
M  V30 702 N 66.5145 -1.57545 0.0417849 0
M  V30 703 C 67.4775 -2.09885 -0.92093 0
M  V30 704 C 68.4775 -1.01648 -1.24596 0
M  V30 705 O 69.6675 -1.27759 -1.1842 0
M  V30 706 C 66.7995 -2.57527 -2.23367 0
M  V30 707 H 67.9925 -2.96236 -0.467382 0
M  V30 708 H 65.5455 -1.5493 -0.206467 0
M  V30 709 H 66.2805 -1.74542 -2.73323 0
M  V30 710 H 66.0655 -3.36613 -2.01083 0
M  V30 711 H 67.5555 -2.98201 -2.92346 0
M  V30 712 N 67.9926 0.231505 -1.5589 0
M  V30 713 C 69.4086 0.580748 -1.48659 0
M  V30 714 C 69.6086 1.87617 -0.73498 0
M  V30 715 O 68.6646 2.51046 -0.270586 0
M  V30 716 C 69.9776 0.669202 -2.93159 0
M  V30 717 C 71.5256 0.760499 -3.03621 0
M  V30 718 C 72.0006 0.880383 -4.49459 0
M  V30 719 N 73.4916 0.944861 -4.53461 0
M  V30 720 C 74.2266 1.05716 -5.63571 0
M  V30 721 N 73.7226 1.13403 -6.83456 0
M  V30 722 N 75.5156 1.09152 -5.514 0
M  V30 723 H 67.6666 -0.618695 -2.03189 0
M  V30 724 H 69.9296 -0.215728 -0.923128 0
M  V30 725 H 69.6356 -0.212904 -3.51055 0
M  V30 726 H 69.5096 1.5361 -3.44505 0
M  V30 727 H 71.8966 1.63305 -2.45796 0
M  V30 728 H 71.9776 -0.131864 -2.5546 0
M  V30 729 H 71.6216 0.0123284 -5.07899 0
M  V30 730 H 71.5516 1.78802 -4.95316 0
M  V30 731 H 74.0426 0.896176 -3.6712 0
M  V30 732 H 74.3556 1.21921 -7.63122 0
M  V30 733 H 72.7006 1.10333 -6.86186 0
M  V30 734 H 75.8916 1.02805 -4.56671 0
M  V30 735 H 76.0646 1.17558 -6.37247 0
M  V30 736 N 69.4707 1.49531 0.497807 0
M  V30 737 C 70.3807 1.69176 1.62532 0
M  V30 738 C 71.3967 0.5744 1.64246 0
M  V30 739 O 72.5727 0.849497 1.82608 0
M  V30 740 C 69.6377 1.75695 2.98885 0
M  V30 741 C 68.6987 2.9929 3.07773 0
M  V30 742 C 67.9317 3.05488 4.37622 0
M  V30 743 O 68.1547 2.19192 5.26603 0
M  V30 744 O 67.0887 3.9798 4.51548 0
M  V30 745 H 70.9147 2.647 1.48887 0
M  V30 746 H 68.4997 1.3331 0.674441 0
M  V30 747 H 70.3817 1.82317 3.79919 0
M  V30 748 H 69.0567 0.8335 3.12785 0
M  V30 749 H 67.9637 2.98183 2.25915 0
M  V30 750 H 69.2967 3.91125 2.98801 0
M  V30 751 N 70.9488 -0.749086 1.3866 0
M  V30 752 C 71.9118 -1.84457 1.36045 0
M  V30 753 C 72.9118 -1.58682 0.260122 0
M  V30 754 O 74.1018 -1.66343 0.517261 0
M  V30 755 C 71.2338 -3.22008 1.11911 0
M  V30 756 H 72.4268 -1.88182 2.33512 0
M  V30 757 H 69.9798 -0.951266 1.24019 0
M  V30 758 H 70.7148 -3.2395 0.150686 0
M  V30 759 H 70.4998 -3.42111 1.91579 0
M  V30 760 H 71.9898 -4.0208 1.12788 0
M  V30 761 N 72.4269 -1.23603 -0.977757 0
M  V30 762 C 73.3569 -1.04401 -2.0886 0
M  V30 763 C 74.3379 0.0399052 -1.70053 0
M  V30 764 O 75.5229 -0.125246 -1.93796 0
M  V30 765 C 72.6529 -0.637269 -3.41403 0
M  V30 766 C 71.6069 -1.66883 -3.94124 0
M  V30 767 C 70.9329 -1.11745 -5.22893 0
M  V30 768 C 72.2329 -3.06247 -4.23096 0
M  V30 769 H 73.9269 -1.97316 -2.25182 0
M  V30 770 H 71.4729 -0.950096 -1.08209 0
M  V30 771 H 73.4259 -0.48998 -4.18542 0
M  V30 772 H 72.1499 0.327557 -3.24953 0
M  V30 773 H 70.8089 -1.80416 -3.19133 0
M  V30 774 H 70.4569 -0.143527 -5.02795 0
M  V30 775 H 70.1569 -1.80672 -5.59134 0
M  V30 776 H 71.6809 -0.982067 -6.02651 0
M  V30 777 H 73.0949 -2.96001 -4.90975 0
M  V30 778 H 71.4919 -3.72436 -4.70544 0
M  V30 779 H 72.5619 -3.55041 -3.30263 0
M  V30 780 N 73.905 1.17692 -1.04816 0
M  V30 781 C 74.868 2.19787 -0.650117 0
M  V30 782 C 75.868 1.58044 0.296427 0
M  V30 783 O 77.058 1.74012 0.0808097 0
M  V30 784 C 74.19 3.40869 0.0456987 0
M  V30 785 H 75.383 2.56516 -1.5537 0
M  V30 786 H 72.936 1.31708 -0.841594 0
M  V30 787 H 73.671 3.09681 0.962726 0
M  V30 788 H 73.456 3.86928 -0.634727 0
M  V30 789 H 74.946 4.16445 0.310432 0
M  V30 790 N 75.3831 0.828654 1.34056 0
M  V30 791 C 76.3301 0.252567 2.29414 0
M  V30 792 C 77.3001 -0.62588 1.53857 0
M  V30 793 O 78.4851 -0.566312 1.82202 0
M  V30 794 C 75.6251 -0.574831 3.40279 0
M  V30 795 C 74.7381 0.326499 4.30764 0
M  V30 796 C 73.8731 -0.511016 5.28736 0
M  V30 797 C 72.9121 0.389342 6.1086 0
M  V30 798 N 72.0491 -0.409439 7.00905 0
M  V30 799 H 76.8891 1.07108 2.78086 0
M  V30 800 H 74.4261 0.539677 1.36843 0
M  V30 801 H 76.3841 -1.06992 4.03248 0
M  V30 802 H 75.0141 -1.35841 2.92826 0
M  V30 803 H 74.0661 0.939837 3.68607 0
M  V30 804 H 75.3781 1.01857 4.88289 0
M  V30 805 H 74.5321 -1.07035 5.97184 0
M  V30 806 H 73.2711 -1.23657 4.71763 0
M  V30 807 H 72.2761 0.960769 5.4134 0
M  V30 808 H 73.5011 1.1131 6.69916 0
M  V30 809 H 71.4471 -1.11856 6.46393 0
M  V30 810 H 71.3641 0.224126 7.55668 0
M  V30 811 H 72.6321 -0.951336 7.73673 0
M  V30 812 N 76.8612 -1.46375 0.584142 0
M  V30 813 C 78.1082 -2.02378 0.0702675 0
M  V30 814 C 78.4362 -1.45545 -1.29023 0
M  V30 815 O 77.6912 -0.610967 -1.85918 0
M  V30 816 C 77.9902 -3.57373 -0.0439342 0
M  V30 817 C 77.6562 -4.33252 1.24915 0
M  V30 818 C 76.3182 -4.53701 1.60341 0
M  V30 819 C 78.6702 -4.7681 2.1048 0
M  V30 820 C 75.9982 -5.1496 2.81128 0
M  V30 821 C 78.3502 -5.39404 3.30494 0
M  V30 822 C 77.0142 -5.5808 3.66201 0
M  V30 823 H 76.2842 -0.740554 0.0257127 0
M  V30 824 H 78.9312 -1.75727 0.761065 0
M  V30 825 H 77.2362 -3.83169 -0.817869 0
M  V30 826 H 78.9332 -3.98384 -0.457318 0
M  V30 827 H 75.5232 -4.17633 0.963364 0
M  V30 828 H 79.7072 -4.60766 1.84414 0
M  V30 829 H 74.9632 -5.27611 3.08928 0
M  V30 830 H 79.1372 -5.72114 3.97063 0
M  V30 831 H 76.7642 -6.05318 4.59885 0
M  V30 832 N 78.3393 -0.321999 -1.54275 0
M  V30 833 C 79.7503 0.166384 -1.85957 0
M  V30 834 C 80.1013 1.51747 -1.24367 0
M  V30 835 O 79.2263 2.09317 -0.549124 0
M  V30 836 C 79.8213 0.308681 -3.37391 0
M  V30 837 C 78.3803 0.741286 -3.69028 0
M  V30 838 C 77.5273 -0.137937 -2.76957 0
M  V30 839 H 80.4783 -0.542335 -1.49146 0
M  V30 840 H 80.4993 1.13984 -3.63026 0
M  V30 841 H 80.0113 -0.674809 -3.82188 0
M  V30 842 H 78.1123 1.73458 -3.29762 0
M  V30 843 H 78.2253 0.546118 -4.75977 0
M  V30 844 H 76.5893 0.386251 -2.51754 0
M  V30 845 H 77.3723 -1.11816 -3.2458 0
M  V30 846 N 79.8174 1.5752 -0.0501392 0
M  V30 847 C 81.0654 1.9227 0.622642 0
M  V30 848 C 81.3864 0.929083 1.71444 0
M  V30 849 O 80.6564 -0.0262186 1.95882 0
M  V30 850 H 79.2364 0.709739 0.232981 0
M  V30 851 H 81.8984 1.94628 -0.102898 0
M  V30 852 H 80.9944 2.93479 1.06191 0
M  V30 853 N 81.2955 -0.223234 1.56011 0
M  V30 854 C 82.7115 -0.572856 1.48965 0
M  V30 855 C 82.9115 -1.87225 0.74492 0
M  V30 856 O 81.9675 -2.50899 0.283896 0
M  V30 857 C 83.2805 -0.653646 2.9351 0
M  V30 858 C 84.8285 -0.744386 3.0402 0
M  V30 859 C 85.3035 -0.856535 4.49919 0
M  V30 860 N 86.7945 -0.9208 4.53955 0
M  V30 861 C 87.5295 -1.02726 5.64123 0
M  V30 862 N 87.0255 -1.09777 6.84047 0
M  V30 863 N 88.8185 -1.06226 5.51971 0
M  V30 864 H 80.9695 0.629462 2.02858 0
M  V30 865 H 83.2325 0.220621 0.921971 0
M  V30 866 H 82.9385 0.231518 3.50937 0
M  V30 867 H 82.8125 -1.51781 3.45315 0
M  V30 868 H 85.1995 -1.61999 2.46658 0
M  V30 869 H 85.2805 0.14541 2.55386 0
M  V30 870 H 84.9245 0.0146069 5.07898 0
M  V30 871 H 84.8545 -1.76172 4.96257 0
M  V30 872 H 87.3455 -0.876694 3.6759 0
M  V30 873 H 87.6585 -1.17872 7.63758 0
M  V30 874 H 86.0035 -1.06693 6.86762 0
M  V30 875 H 89.1945 -1.00382 4.5721 0
M  V30 876 H 89.3675 -1.14177 6.37862 0
M  V30 877 N 82.7736 -1.49793 -0.48987 0
M  V30 878 C 83.6836 -1.70036 -1.61632 0
M  V30 879 C 84.6996 -0.583102 -1.63939 0
M  V30 880 O 85.8756 -0.859169 -1.82154 0
M  V30 881 C 82.9406 -1.77277 -2.97949 0
M  V30 882 C 82.0016 -3.00918 -3.06181 0
M  V30 883 C 81.2346 -3.07804 -4.35996 0
M  V30 884 O 81.4576 -2.21982 -5.25433 0
M  V30 885 O 80.3916 -4.00369 -4.49431 0
M  V30 886 H 84.2176 -2.65486 -1.47482 0
M  V30 887 H 81.8026 -1.33666 -0.667362 0
M  V30 888 H 83.6846 -1.84329 -3.78947 0
M  V30 889 H 82.3596 -0.850076 -3.12339 0
M  V30 890 H 81.2666 -2.99377 -2.2433 0
M  V30 891 H 82.5996 -3.92704 -2.96723 0
M  V30 892 N 84.2517 0.741722 -1.39055 0
M  V30 893 C 85.2147 1.83733 -1.37021 0
M  V30 894 C 86.2147 1.58542 -0.268534 0
M  V30 895 O 87.4047 1.66067 -0.526076 0
M  V30 896 C 84.5367 3.2141 -1.13617 0
M  V30 897 H 85.7297 1.86941 -2.34506 0
M  V30 898 H 83.2827 0.944676 -1.24521 0
M  V30 899 H 84.0177 3.23865 -0.167863 0
M  V30 900 H 83.8027 3.4109 -1.93391 0
M  V30 901 H 85.2927 4.01477 -1.14918 0
M  V30 902 N 85.7298 1.2412 0.971189 0
M  V30 903 C 86.6598 1.05508 2.08304 0
M  V30 904 C 87.6408 -0.0308864 1.70072 0
M  V30 905 O 88.8258 0.135521 1.93727 0
M  V30 906 C 85.9558 0.655365 3.4106 0
M  V30 907 C 84.9098 1.68971 3.93234 0
M  V30 908 C 84.2358 1.14516 5.22293 0
M  V30 909 C 85.5358 3.08487 4.21465 0
M  V30 910 H 87.2298 1.98507 2.24132 0
M  V30 911 H 84.7758 0.955821 1.07704 0
M  V30 912 H 86.7288 0.51217 4.18276 0
M  V30 913 H 85.4528 -0.31032 3.25122 0
M  V30 914 H 84.1118 1.82106 3.18171 0
M  V30 915 H 83.7598 0.170189 5.02712 0
M  V30 916 H 83.4598 1.83635 5.58168 0
M  V30 917 H 84.9838 1.01401 6.02121 0
M  V30 918 H 86.3978 2.98601 4.89398 0
M  V30 919 H 84.7948 3.74926 4.68562 0
M  V30 920 H 85.8648 3.56787 3.28376 0
M  V30 921 N 87.2079 -1.17134 1.05439 0
M  V30 922 C 88.1709 -2.19439 0.661764 0
M  V30 923 C 89.1709 -1.58199 -0.288042 0
M  V30 924 O 90.3609 -1.74053 -0.0715803 0
M  V30 925 C 87.4929 -3.40889 -0.0276209 0
M  V30 926 H 88.6859 -2.55688 1.56728 0
M  V30 927 H 86.2389 -1.31259 0.848567 0
M  V30 928 H 86.9739 -3.10187 -0.94629 0
M  V30 929 H 86.7589 -3.86586 0.655238 0
M  V30 930 H 88.2489 -4.16603 -0.288342 0
M  V30 931 N 88.686 -0.835752 -1.33615 0
M  V30 932 C 89.649 -0.272 -2.2758 0
M  V30 933 C 90.649 0.557487 -1.50827 0
M  V30 934 O 91.839 0.37173 -1.70188 0
M  V30 935 C 88.971 0.617173 -3.35267 0
M  V30 936 H 90.164 -1.10111 -2.78954 0
M  V30 937 H 87.717 -0.608594 -1.43965 0
M  V30 938 H 88.452 1.46884 -2.89129 0
M  V30 939 H 88.237 0.0237066 -3.92093 0
M  V30 940 H 89.727 1.005 -4.05326 0
M  V30 941 N 90.1641 1.46063 -0.591896 0
M  V30 942 C 91.5801 1.57561 -0.254288 0
M  V30 943 C 91.7801 1.58565 1.24336 0
M  V30 944 O 90.8361 1.50753 2.02558 0
M  V30 945 C 92.1491 2.86549 -0.911611 0
M  V30 946 C 93.6971 3.00197 -0.886059 0
M  V30 947 C 94.1721 4.31933 -1.5231 0
M  V30 948 N 95.6631 4.38654 -1.48786 0
M  V30 949 C 96.3981 5.39222 -1.95006 0
M  V30 950 N 95.8941 6.46414 -2.49241 0
M  V30 951 N 97.6871 5.3048 -1.85868 0
M  V30 952 H 89.8381 1.43655 -1.56451 0
M  V30 953 H 92.1011 0.68583 -0.654478 0
M  V30 954 H 91.8071 2.91651 -1.96551 0
M  V30 955 H 91.6811 3.74794 -0.425368 0
M  V30 956 H 94.0681 2.9467 0.159246 0
M  V30 957 H 94.1491 2.13403 -1.41041 0
M  V30 958 H 93.7931 4.38217 -2.56765 0
M  V30 959 H 93.7231 5.17516 -0.973891 0
M  V30 960 H 96.2141 3.61793 -1.09151 0
M  V30 961 H 96.5271 7.19376 -2.82344 0
M  V30 962 H 94.8721 6.47208 -2.53272 0
M  V30 963 H 98.0631 4.45643 -1.43248 0
M  V30 964 H 98.2361 6.08711 -2.22204 0
M  V30 965 N 91.6422 0.330177 1.54103 0
M  V30 966 C 92.8892 -0.270405 2.00686 0
M  V30 967 C 93.2172 -1.51621 1.21825 0
M  V30 968 O 92.4722 -1.93536 0.29025 0
M  V30 969 C 92.7712 -0.643134 3.51566 0
M  V30 970 C 92.4372 0.504251 4.48072 0
M  V30 971 C 91.0992 0.819163 4.74176 0
M  V30 972 C 93.4512 1.27465 5.05373 0
M  V30 973 C 90.7792 1.90708 5.5484 0
M  V30 974 C 93.1312 2.35271 5.87223 0
M  V30 975 C 91.7952 2.67336 6.11627 0
M  V30 976 H 91.0652 -0.0989482 0.734364 0
M  V30 977 H 93.7122 0.455324 1.86008 0
M  V30 978 H 92.0172 -1.44938 3.64006 0
M  V30 979 H 93.7142 -1.11949 3.85056 0
M  V30 980 H 90.3042 0.248733 4.27878 0
M  V30 981 H 94.4882 1.04462 4.85182 0
M  V30 982 H 89.7442 2.15991 5.71977 0
M  V30 983 H 93.9182 2.95405 6.30641 0
M  V30 984 H 91.5452 3.51763 6.73919 0
M  V30 985 N 93.1203 -1.57491 0.0584922 0
M  V30 986 C 94.0673 -2.11958 -0.913376 0
M  V30 987 C 95.0373 -1.02875 -1.30407 0
M  V30 988 O 96.2223 -1.30464 -1.39226 0
M  V30 989 C 93.3623 -2.67497 -2.18035 0
M  V30 990 C 92.4753 -3.90691 -1.84349 0
M  V30 991 C 91.6103 -4.3452 -3.05559 0
M  V30 992 C 90.6493 -5.50395 -2.67827 0
M  V30 993 N 89.7863 -5.89244 -3.81754 0
M  V30 994 H 94.6263 -2.94704 -0.442017 0
M  V30 995 H 92.1633 -1.45643 -0.206545 0
M  V30 996 H 94.1213 -2.978 -2.92183 0
M  V30 997 H 92.7513 -1.87537 -2.62735 0
M  V30 998 H 91.8033 -3.66934 -1.00319 0
M  V30 999 H 93.1153 -4.7489 -1.5258 0
M  V30 1000 H 92.2693 -4.66414 -3.87998 0
M  V30 1001 H 91.0083 -3.49147 -3.40511 0
M  V30 1002 H 90.0133 -5.18165 -1.83806 0
M  V30 1003 H 91.2383 -6.3749 -2.34059 0
M  V30 1004 H 89.1843 -5.06823 -4.16493 0
M  V30 1005 H 89.1013 -6.68151 -3.53708 0
M  V30 1006 H 90.3693 -6.25756 -4.64811 0
M  V30 1007 N 94.5984 0.214957 -1.56127 0
M  V30 1008 C 95.5084 1.28727 -1.96129 0
M  V30 1009 C 96.5244 1.50916 -0.866044 0
M  V30 1010 O 97.7004 1.63918 -1.17016 0
M  V30 1011 C 94.7654 2.61569 -2.27558 0
M  V30 1012 C 93.8264 2.47625 -3.50685 0
M  V30 1013 C 93.0594 3.74132 -3.80606 0
M  V30 1014 O 93.2824 4.77438 -3.12104 0
M  V30 1015 O 92.2164 3.70849 -4.74083 0
M  V30 1016 H 96.0424 0.977855 -2.87527 0
M  V30 1017 H 93.6274 0.418358 -1.43423 0
M  V30 1018 H 95.5094 3.40012 -2.48938 0
M  V30 1019 H 94.1844 2.92178 -1.39332 0
M  V30 1020 H 93.0914 1.67361 -3.34576 0
M  V30 1021 H 94.4244 2.21954 -4.39315 0
M  V30 1022 N 96.0765 1.50051 0.48192 0
M  V30 1023 C 97.0065 1.71046 1.58951 0
M  V30 1024 C 97.9875 0.559288 1.60642 0
M  V30 1025 O 99.1725 0.797243 1.77081 0
M  V30 1026 C 96.3025 1.79462 2.97339 0
M  V30 1027 C 95.2565 2.94558 3.10515 0
M  V30 1028 C 94.5825 2.88105 4.50444 0
M  V30 1029 C 95.8825 4.35227 2.88747 0
M  V30 1030 H 97.5765 2.6378 1.41635 0
M  V30 1031 H 95.1225 1.26936 0.679942 0
M  V30 1032 H 97.0755 1.92734 3.74742 0
M  V30 1033 H 95.7995 0.833412 3.15788 0
M  V30 1034 H 94.4585 2.80918 2.35543 0
M  V30 1035 H 94.1065 1.89853 4.65795 0
M  V30 1036 H 93.8065 3.65366 4.60197 0
M  V30 1037 H 95.3305 3.03412 5.29881 0
M  V30 1038 H 96.7445 4.49449 3.55905 0
M  V30 1039 H 95.1415 5.13856 3.09955 0
M  V30 1040 H 96.2115 4.48347 1.84696 0
M  V30 1041 N 97.5546 -0.734337 1.39446 0
M  V30 1042 C 98.8016 -1.49391 1.36706 0
M  V30 1043 C 99.1296 -1.94465 -0.0367813 0
M  V30 1044 O 98.3846 -1.67154 -1.01774 0
M  V30 1045 C 98.6836 -2.74711 2.28623 0
M  V30 1046 C 98.3496 -2.48501 3.76242 0
M  V30 1047 C 97.0116 -2.41062 4.16464 0
M  V30 1048 C 99.3636 -2.26098 4.69606 0
M  V30 1049 C 96.6916 -2.09262 5.48112 0
M  V30 1050 C 99.0436 -1.95814 6.01531 0
M  V30 1051 C 97.7076 -1.86845 6.40816 0
M  V30 1052 H 96.9776 -0.546661 0.500243 0
M  V30 1053 H 99.6246 -0.842788 1.71957 0
M  V30 1054 H 97.9296 -3.44569 1.86492 0
M  V30 1055 H 99.6266 -3.32741 2.23796 0
M  V30 1056 H 96.2166 -2.55169 3.44364 0
M  V30 1057 H 100.401 -2.30812 4.39363 0
M  V30 1058 H 95.6566 -2.00841 5.77471 0
M  V30 1059 H 99.8306 -1.77488 6.73403 0
M  V30 1060 H 97.4576 -1.6197 7.42745 0
M  V30 1061 N 99.0327 -1.24633 -0.964593 0
M  V30 1062 C 100.263 -1.11339 -1.74032 0
M  V30 1063 C 100.671 0.336593 -1.86182 0
M  V30 1064 O 100.014 1.24389 -1.35178 0
M  V30 1065 C 100.076 -1.68284 -3.1768 0
M  V30 1066 C 99.7397 -3.17196 -3.28992 0
M  V30 1067 C 100.737 -4.14308 -3.14078 0
M  V30 1068 C 98.4217 -3.57215 -3.53133 0
M  V30 1069 C 100.416 -5.4942 -3.23135 0
M  V30 1070 C 98.1027 -4.92468 -3.61827 0
M  V30 1071 C 99.1007 -5.8838 -3.46841 0
M  V30 1072 O 98.7887 -7.21173 -3.55197 0
M  V30 1073 H 98.5207 -0.389551 -0.552472 0
M  V30 1074 H 101.075 -1.65282 -1.21946 0
M  V30 1075 H 99.3047 -1.08777 -3.71085 0
M  V30 1076 H 100.994 -1.50234 -3.77074 0
M  V30 1077 H 101.76 -3.84731 -2.95308 0
M  V30 1078 H 97.6387 -2.83063 -3.63863 0
M  V30 1079 H 101.183 -6.24263 -3.11355 0
M  V30 1080 H 97.0797 -5.21714 -3.80111 0
M  V30 1081 H 97.8477 -7.29135 -3.71892 0
M  V30 1082 N 100.511 1.16574 -1.06058 0
M  V30 1083 C 101.739 1.90952 -0.796552 0
M  V30 1084 C 102.154 1.77302 0.648808 0
M  V30 1085 O 101.511 1.11605 1.44397 0
M  V30 1086 C 101.562 3.41736 -1.17894 0
M  V30 1087 O 101.283 3.54975 -2.56758 0
M  V30 1088 C 102.784 4.33169 -0.942308 0
M  V30 1089 H 100.004 0.605594 -0.288959 0
M  V30 1090 H 102.548 1.47777 -1.41358 0
M  V30 1091 H 100.703 3.82623 -0.606491 0
M  V30 1092 H 101.117 4.4846 -2.72 0
M  V30 1093 H 102.591 5.37439 -1.25952 0
M  V30 1094 H 103.068 4.3903 0.122078 0
M  V30 1095 H 103.674 3.98007 -1.49902 0
M  V30 1096 N 101.989 0.842826 1.3317 0
M  V30 1097 C 103.266 0.362216 1.92217 0
M  V30 1098 C 103.646 -1.15289 1.76838 0
M  V30 1099 O 102.994 -1.96914 1.15919 0
M  V30 1100 C 103.204 0.813495 3.39387 0
M  V30 1101 C 104.552 0.823804 4.16532 0
M  V30 1102 O 105.576 0.757358 3.48055 0
M  V30 1103 O 104.435 0.915193 5.38782 0
M  V30 1104 H 101.529 0.103317 0.820521 0
M  V30 1105 H 104.075 0.928942 1.42017 0
M  V30 1106 H 102.847 1.85624 3.4447 0
M  V30 1107 H 102.47 0.223561 3.96971 0
M  V30 1108 N 103.467 -1.45747 0.599634 0
M  V30 1109 C 104.692 -2.07178 0.0960198 0
M  V30 1110 C 105.117 -1.44268 -1.207 0
M  V30 1111 O 104.475 -0.532503 -1.73303 0
M  V30 1112 C 104.523 -3.60579 -0.0385348 0
M  V30 1113 O 103.627 -3.97713 -1.0908 0
M  V30 1114 H 102.968 -0.660251 0.0704593 0
M  V30 1115 H 105.498 -1.87124 0.827385 0
M  V30 1116 H 105.508 -4.07298 -0.239304 0
M  V30 1117 H 104.183 -4.05756 0.912947 0
M  V30 1118 H 102.76 -3.62678 -0.867135 0
M  V30 1119 N 104.945 -0.338344 -1.53925 0
M  V30 1120 C 106.191 0.260143 -2.01125 0
M  V30 1121 C 106.524 1.50617 -1.22589 0
M  V30 1122 O 105.799 1.91979 -0.312113 0
M  V30 1123 C 106.082 0.579499 -3.55407 0
M  V30 1124 C 105.935 -0.678264 -4.44657 0
M  V30 1125 C 107.254 1.39122 -4.17532 0
M  V30 1126 H 104.373 0.0930772 -0.731099 0
M  V30 1127 H 107.015 -0.457852 -1.84401 0
M  V30 1128 H 105.165 1.19118 -3.69788 0
M  V30 1129 H 106.837 -1.31631 -4.42121 0
M  V30 1130 H 105.08 -1.3042 -4.13731 0
M  V30 1131 H 105.751 -0.410143 -5.50474 0
M  V30 1132 H 108.227 0.874035 -4.06817 0
M  V30 1133 H 107.103 1.58342 -5.25565 0
M  V30 1134 H 107.364 2.39178 -3.71815 0
M  V30 1135 N 106.423 1.57458 -0.0668435 0
M  V30 1136 C 107.648 1.9804 0.616027 0
M  V30 1137 C 108.073 0.944771 1.62652 0
M  V30 1138 O 107.431 -0.0902094 1.81075 0
M  V30 1139 C 107.479 3.37665 1.26549 0
M  V30 1140 O 106.583 3.36701 2.38131 0
M  V30 1141 H 105.924 0.644719 0.158849 0
M  V30 1142 H 108.454 2.04121 -0.139891 0
M  V30 1143 H 108.464 3.7474 1.6135 0
M  V30 1144 H 107.139 4.12573 0.525016 0
M  V30 1145 H 105.716 3.1139 2.0516 0
M  V30 1146 N 107.901 -0.206675 1.56239 0
M  V30 1147 C 109.129 -0.945345 1.8404 0
M  V30 1148 C 109.544 -1.77336 0.647885 0
M  V30 1149 O 108.901 -1.78425 -0.383511 0
M  V30 1150 C 108.952 -1.8509 3.10522 0
M  V30 1151 O 108.673 -1.05634 4.25174 0
M  V30 1152 C 110.174 -2.70222 3.51418 0
M  V30 1153 H 107.394 -0.276372 0.61144 0
M  V30 1154 H 109.938 -0.217417 2.03341 0
M  V30 1155 H 108.093 -2.53259 2.93153 0
M  V30 1156 H 108.507 -1.67238 4.97124 0
M  V30 1157 H 109.981 -3.29438 4.42916 0
M  V30 1158 H 110.458 -3.43358 2.73864 0
M  V30 1159 H 111.064 -2.07443 3.71278 0
M  V30 1160 N 109.379 -1.50304 -0.473955 0
M  V30 1161 C 110.79 -1.54042 -1.0549 0
M  V30 1162 C 111.141 -0.342248 -1.93192 0
M  V30 1163 O 110.266 0.545157 -2.09421 0
M  V30 1164 C 110.861 -2.79152 -1.91989 0
M  V30 1165 C 109.42 -2.8558 -2.45196 0
M  V30 1166 C 108.567 -2.48295 -1.2347 0
M  V30 1167 H 111.518 -1.5661 -0.256693 0
M  V30 1168 H 111.539 -2.60845 -2.7702 0
M  V30 1169 H 111.051 -3.66339 -1.28131 0
M  V30 1170 H 109.152 -2.02738 -3.12615 0
M  V30 1171 H 109.265 -3.88403 -2.80499 0
M  V30 1172 H 107.629 -2.00669 -1.56856 0
M  V30 1173 H 108.412 -3.37787 -0.612789 0
M  V30 1174 N 110.857 0.726932 -1.39834 0
M  V30 1175 C 112.082 1.52121 -1.40976 0
M  V30 1176 C 112.507 1.88098 -0.00826029 0
M  V30 1177 O 111.865 1.52479 0.980807 0
M  V30 1178 C 111.913 2.78021 -2.29644 0
M  V30 1179 O 111.017 3.74272 -1.73188 0
M  V30 1180 H 110.358 0.45908 -0.479731 0
M  V30 1181 H 112.888 0.896207 -1.83927 0
M  V30 1182 H 112.898 3.26671 -2.44438 0
M  V30 1183 H 111.573 2.51169 -3.31492 0
M  V30 1184 H 110.15 3.33073 -1.6768 0
M  V30 1185 N 112.336 1.25143 0.95797 0
M  V30 1186 C 113.752 1.01892 1.22842 0
M  V30 1187 C 113.952 -0.266311 1.99732 0
M  V30 1188 O 113.008 -0.979913 2.3271 0
M  V30 1189 C 114.321 2.24004 2.00606 0
M  V30 1190 C 115.869 2.28731 2.13662 0
M  V30 1191 C 116.344 3.5049 2.94823 0
M  V30 1192 N 117.835 3.50866 3.02403 0
M  V30 1193 C 118.57 4.4174 3.65586 0
M  V30 1194 N 118.066 5.42882 4.30408 0
M  V30 1195 N 119.859 4.29429 3.62694 0
M  V30 1196 H 112.01 2.07718 0.443493 0
M  V30 1197 H 114.273 0.912031 0.258657 0
M  V30 1198 H 113.979 3.17395 1.51503 0
M  V30 1199 H 113.853 2.26907 3.01319 0
M  V30 1200 H 116.24 1.35865 2.61963 0
M  V30 1201 H 116.321 2.29848 1.12265 0
M  V30 1202 H 115.965 4.43676 2.47213 0
M  V30 1203 H 115.895 3.46617 3.96439 0
M  V30 1204 H 118.386 2.777 2.56302 0
M  V30 1205 H 118.699 6.0844 4.76467 0
M  V30 1206 H 117.044 5.46758 4.29047 0
M  V30 1207 H 120.235 3.49643 3.11236 0
M  V30 1208 H 120.408 5.00448 4.1165 0
M  V30 1209 N 113.814 -1.1601 1.06675 0
M  V30 1210 C 115.23 -1.38622 0.790948 0
M  V30 1211 C 115.43 -1.92109 -0.607965 0
M  V30 1212 O 114.486 -2.12239 -1.36787 0
M  V30 1213 C 115.799 -2.36347 1.85905 0
M  V30 1214 C 117.347 -2.50023 1.88301 0
M  V30 1215 C 117.822 -3.51033 2.94176 0
M  V30 1216 N 119.313 -3.58563 2.93235 0
M  V30 1217 C 120.048 -4.36521 3.71803 0
M  V30 1218 N 119.544 -5.17869 4.602 0
M  V30 1219 N 121.337 -4.31541 3.60178 0
M  V30 1220 H 113.488 -0.796294 1.96908 0
M  V30 1221 H 115.751 -0.412597 0.853503 0
M  V30 1222 H 115.457 -2.04147 2.86386 0
M  V30 1223 H 115.331 -3.36042 1.71334 0
M  V30 1224 H 117.718 -2.81524 0.884769 0
M  V30 1225 H 117.799 -1.5035 2.06951 0
M  V30 1226 H 117.443 -3.20268 3.94196 0
M  V30 1227 H 117.373 -4.50445 2.72776 0
M  V30 1228 H 119.864 -3.00496 2.29152 0
M  V30 1229 H 120.177 -5.74578 5.16797 0
M  V30 1230 H 118.522 -5.17199 4.64253 0
M  V30 1231 H 121.713 -3.67051 2.90502 0
M  V30 1232 H 121.886 -4.9205 4.21653 0
M  V30 1233 N 115.292 -0.849877 -1.32721 0
M  V30 1234 C 116.24 -0.279745 -2.30912 0
M  V30 1235 C 117.234 0.594278 -1.58634 0
M  V30 1236 O 118.44 0.482613 -1.73409 0
M  V30 1237 H 114.815 -0.0717521 -0.748569 0
M  V30 1238 H 116.786 -1.12222 -2.76494 0
M  V30 1239 C 115.535 0.521108 -3.43773 0
M  V30 1240 H 114.858 -0.142141 -3.99547 0
M  V30 1241 H 116.298 0.885693 -4.14646 0
M  V30 1242 C 114.757 1.70442 -2.90605 0
M  V30 1243 O 115.287 2.8034 -2.87702 0
M  V30 1244 N 113.493 1.52991 -2.47067 0
M  V30 1245 H 113.04 0.635914 -2.49628 0
M  V30 1246 H 112.998 2.32311 -2.11847 0
M  V30 1247 N 116.77 1.45427 -0.607355 0
M  V30 1248 C 118.018 2.01841 -0.102253 0
M  V30 1249 C 118.339 1.47832 1.27164 0
M  V30 1250 O 117.609 0.672497 1.83995 0
M  V30 1251 H 116.189 0.746188 -0.0348101 0
M  V30 1252 H 118.851 1.78229 -0.7887 0
M  V30 1253 H 117.947 3.12057 -0.0518585 0
M  V30 1254 N 118.248 0.346503 1.53744 0
M  V30 1255 C 119.664 -0.00530975 1.59599 0
M  V30 1256 C 119.864 -1.48465 1.36236 0
M  V30 1257 O 118.92 -2.24376 1.15808 0
M  V30 1258 C 120.233 0.433516 2.97559 0
M  V30 1259 C 121.781 0.386111 3.10609 0
M  V30 1260 C 122.256 0.800451 4.50951 0
M  V30 1261 N 123.747 0.754753 4.5701 0
M  V30 1262 C 124.482 1.04727 5.63755 0
M  V30 1263 N 123.978 1.4081 6.7834 0
M  V30 1264 N 125.771 0.971316 5.53644 0
M  V30 1265 H 117.922 1.31009 1.67184 0
M  V30 1266 H 120.185 0.534242 0.783128 0
M  V30 1267 H 119.891 1.46509 3.19731 0
M  V30 1268 H 119.765 -0.189753 3.76722 0
M  V30 1269 H 122.152 -0.636295 2.88158 0
M  V30 1270 H 122.233 1.04462 2.33498 0
M  V30 1271 H 121.877 1.82088 4.74137 0
M  V30 1272 H 121.807 0.119386 5.26465 0
M  V30 1273 H 124.298 0.488662 3.74727 0
M  V30 1274 H 124.611 1.61607 7.55714 0
M  V30 1275 H 122.956 1.44657 6.79779 0
M  V30 1276 H 126.147 0.688748 4.63005 0
M  V30 1277 H 126.32 1.20263 6.36742 0
M  V30 1278 N 119.726 -1.57421 0.075193 0
M  V30 1279 C 120.973 -1.93618 -0.593146 0
M  V30 1280 C 121.301 -0.955484 -1.69413 0
M  V30 1281 O 120.556 0.0283251 -1.9568 0
M  V30 1282 C 120.855 -3.36428 -1.20626 0
M  V30 1283 C 120.521 -4.50307 -0.231078 0
M  V30 1284 C 119.183 -4.81186 0.0371936 0
M  V30 1285 C 121.535 -5.19374 0.435888 0
M  V30 1286 C 118.863 -5.78466 0.979461 0
M  V30 1287 C 121.215 -6.17665 1.3665 0
M  V30 1288 C 119.879 -6.46958 1.6432 0
M  V30 1289 H 119.149 -0.708499 -0.217047 0
M  V30 1290 H 121.796 -1.90937 0.146793 0
M  V30 1291 H 120.101 -3.35592 -2.02201 0
M  V30 1292 H 121.798 -3.61727 -1.73073 0
M  V30 1293 H 118.388 -4.26227 -0.450357 0
M  V30 1294 H 122.572 -4.95711 0.241748 0
M  V30 1295 H 117.828 -5.99487 1.20106 0
M  V30 1296 H 122.002 -6.70284 1.88924 0
M  V30 1297 H 119.629 -7.2215 2.37494 0
M  V30 1298 N 121.204 0.198386 -1.56346 0
M  V30 1299 C 122.451 0.919286 -1.80431 0
M  V30 1300 C 122.779 1.83393 -0.647866 0
M  V30 1301 O 122.034 1.92236 0.366556 0
M  V30 1302 C 122.333 1.77031 -3.10475 0
M  V30 1303 C 121.999 1.00693 -4.39513 0
M  V30 1304 C 120.661 0.796145 -4.74568 0
M  V30 1305 C 123.013 0.469559 -5.19081 0
M  V30 1306 C 120.341 0.0364588 -5.86689 0
M  V30 1307 C 122.693 -0.2769 -6.31994 0
M  V30 1308 C 121.357 -0.49873 -6.65634 0
M  V30 1309 H 120.627 0.336391 -0.660244 0
M  V30 1310 H 123.274 0.185872 -1.90596 0
M  V30 1311 H 121.579 2.5723 -2.95533 0
M  V30 1312 H 123.276 2.33065 -3.26315 0
M  V30 1313 H 119.866 1.18122 -4.12001 0
M  V30 1314 H 124.05 0.619816 -4.92414 0
M  V30 1315 H 119.306 -0.145412 -6.11227 0
M  V30 1316 H 123.48 -0.700684 -6.92866 0
M  V30 1317 H 121.107 -1.0893 -7.52355 0
M  V30 1318 N 122.682 1.50554 0.465978 0
M  V30 1319 C 123.912 1.65323 1.23903 0
M  V30 1320 C 124.32 0.338051 1.86155 0
M  V30 1321 O 123.663 -0.690518 1.70228 0
M  V30 1322 C 123.725 2.69048 2.3844 0
M  V30 1323 C 123.389 4.12462 1.96784 0
M  V30 1324 C 124.386 4.98168 1.48745 0
M  V30 1325 C 122.071 4.58407 2.05349 0
M  V30 1326 C 124.065 6.27868 1.0982 0
M  V30 1327 C 121.752 5.88112 1.66035 0
M  V30 1328 C 122.75 6.72668 1.18349 0
M  V30 1329 O 122.438 7.99951 0.795825 0
M  V30 1330 H 122.17 0.558629 0.38067 0
M  V30 1331 H 124.724 1.97561 0.562022 0
M  V30 1332 H 122.954 2.32062 3.09328 0
M  V30 1333 H 124.643 2.72985 3.0039 0
M  V30 1334 H 125.409 4.63885 1.41546 0
M  V30 1335 H 121.288 3.92735 2.41414 0
M  V30 1336 H 124.832 6.93819 0.725293 0
M  V30 1337 H 120.729 6.21914 1.72895 0
M  V30 1338 H 121.497 8.13265 0.924222 0
M  V30 1339 N 124.16 -0.719506 1.40217 0
M  V30 1340 C 125.406 -1.48152 1.38488 0
M  V30 1341 C 125.739 -1.94195 -0.0141867 0
M  V30 1342 O 125.014 -1.67884 -0.982096 0
M  V30 1343 C 125.297 -2.71035 2.37091 0
M  V30 1344 C 125.15 -2.30912 3.86005 0
M  V30 1345 C 126.469 -3.73182 2.33288 0
M  V30 1346 H 123.588 -0.537395 0.504357 0
M  V30 1347 H 126.23 -0.821472 1.71324 0
M  V30 1348 H 124.38 -3.27352 2.0922 0
M  V30 1349 H 126.052 -1.80107 4.24687 0
M  V30 1350 H 124.295 -1.62958 4.02029 0
M  V30 1351 H 124.966 -3.18978 4.50508 0
M  V30 1352 H 127.442 -3.26485 2.57966 0
M  V30 1353 H 126.318 -4.56806 3.04334 0
M  V30 1354 H 126.579 -4.21202 1.34317 0
M  V30 1355 N 125.638 -1.25649 -0.95132 0
M  V30 1356 C 127.054 -1.02542 -1.223 0
M  V30 1357 C 127.254 0.255715 -1.99871 0
M  V30 1358 O 126.31 0.967558 -2.33226 0
M  V30 1359 C 127.623 -2.25065 -1.99415 0
M  V30 1360 C 129.171 -2.29861 -2.12446 0
M  V30 1361 C 129.646 -3.52048 -2.92961 0
M  V30 1362 N 131.137 -3.52465 -3.00538 0
M  V30 1363 C 131.872 -4.43672 -3.63239 0
M  V30 1364 N 131.368 -5.45157 -4.27523 0
M  V30 1365 N 133.161 -4.31346 -3.60412 0
M  V30 1366 H 125.312 -2.07951 -0.432471 0
M  V30 1367 H 127.575 -0.91339 -0.253816 0
M  V30 1368 H 127.281 -3.18194 -1.49817 0
M  V30 1369 H 127.155 -2.28502 -3.00111 0
M  V30 1370 H 129.542 -1.37252 -2.61239 0
M  V30 1371 H 129.623 -2.3044 -1.11044 0
M  V30 1372 H 129.267 -4.44981 -2.44856 0
M  V30 1373 H 129.197 -3.48715 -3.94596 0
M  V30 1374 H 131.688 -2.79056 -2.54826 0
M  V30 1375 H 132.001 -6.10958 -4.73234 0
M  V30 1376 H 130.346 -5.49025 -4.26141 0
M  V30 1377 H 133.537 -3.51288 -3.09377 0
M  V30 1378 H 133.71 -5.02624 -4.0899 0
M  V30 1379 N 127.117 1.15442 -1.07289 0
M  V30 1380 C 128.345 1.90096 -0.81676 0
M  V30 1381 C 128.76 1.7798 0.629966 0
M  V30 1382 O 128.117 1.1313 1.43206 0
M  V30 1383 C 128.168 3.40466 -1.21512 0
M  V30 1384 O 127.889 3.52232 -2.60508 0
M  V30 1385 C 129.39 4.32145 -0.988198 0
M  V30 1386 H 126.61 0.602495 -0.295366 0
M  V30 1387 H 129.154 1.4627 -1.42918 0
M  V30 1388 H 127.309 3.81958 -0.647039 0
M  V30 1389 H 127.723 4.45549 -2.76742 0
M  V30 1390 H 129.197 5.36072 -1.31645 0
M  V30 1391 H 129.674 4.39135 0.0755063 0
M  V30 1392 H 130.28 3.96395 -1.54115 0
M  V30 1393 N 128.595 0.856903 1.32268 0
M  V30 1394 C 129.545 0.274899 2.26337 0
M  V30 1395 C 130.529 -0.580543 1.50062 0
M  V30 1396 O 131.721 -0.429559 1.71708 0
M  V30 1397 C 128.85 -0.533841 3.39124 0
M  V30 1398 C 127.936 0.334114 4.22782 0
M  V30 1399 N 128.327 1.42143 4.85416 0
M  V30 1400 C 126.625 0.124256 4.45827 0
M  V30 1401 C 127.326 1.95559 5.47843 0
M  V30 1402 N 126.302 1.25444 5.28928 0
M  V30 1403 H 130.104 1.10612 2.72291 0
M  V30 1404 H 127.618 0.703258 1.46383 0
M  V30 1405 H 129.615 -0.96722 4.05525 0
M  V30 1406 H 128.275 -1.36283 2.94715 0
M  V30 1407 H 129.286 1.80436 4.85451 0
M  V30 1408 H 125.963 -0.669837 4.12092 0
M  V30 1409 H 127.353 2.86714 6.07655 0
M  V30 1410 N 130.073 -1.45103 0.615059 0
M  V30 1411 C 131.02 -2.30586 -0.0993978 0
M  V30 1412 C 131.99 -1.42544 -0.852669 0
M  V30 1413 O 133.175 -1.71465 -0.836917 0
M  V30 1414 C 130.315 -3.27572 -1.08583 0
M  V30 1415 C 129.428 -4.30717 -0.332656 0
M  V30 1416 C 128.563 -5.14807 -1.30947 0
M  V30 1417 C 127.602 -6.09673 -0.544538 0
M  V30 1418 N 126.739 -6.86517 -1.47101 0
M  V30 1419 H 131.579 -2.91144 0.635542 0
M  V30 1420 H 129.116 -1.4346 0.325206 0
M  V30 1421 H 131.074 -3.82276 -1.67095 0
M  V30 1422 H 129.704 -2.68751 -1.78809 0
M  V30 1423 H 128.756 -3.78615 0.368107 0
M  V30 1424 H 130.068 -4.98102 0.263842 0
M  V30 1425 H 129.222 -5.73948 -1.96643 0
M  V30 1426 H 127.961 -4.47458 -1.9399 0
M  V30 1427 H 126.966 -5.49656 0.126003 0
M  V30 1428 H 128.191 -6.79052 0.080947 0
M  V30 1429 H 126.137 -6.21851 -2.08895 0
M  V30 1430 H 126.054 -7.50281 -0.928137 0
M  V30 1431 H 127.322 -7.50194 -2.11731 0
M  V30 1432 N 131.551 -0.354651 -1.53558 0
M  V30 1433 C 132.828 0.294281 -1.93374 0
M  V30 1434 C 133.208 1.67313 -1.28723 0
M  V30 1435 O 132.556 2.24179 -0.442247 0
M  V30 1436 C 132.766 0.355445 -3.47185 0
M  V30 1437 C 134.114 0.601007 -4.20325 0
M  V30 1438 O 135.138 0.437106 -3.53508 0
M  V30 1439 O 133.997 0.919322 -5.38712 0
M  V30 1440 H 131.091 0.174033 -0.808481 0
M  V30 1441 H 133.637 -0.406638 -1.64756 0
M  V30 1442 H 132.409 -0.611729 -3.86489 0
M  V30 1443 H 132.032 1.1027 -3.82003 0
M  V30 1444 N 133.029 1.57378 -0.0835403 0
M  V30 1445 C 133.976 2.13384 0.879539 0
M  V30 1446 C 134.946 1.04936 1.28754 0
M  V30 1447 O 136.131 1.32662 1.37133 0
M  V30 1448 C 133.271 2.70932 2.13752 0
M  V30 1449 C 132.384 3.93575 1.7811 0
M  V30 1450 C 131.519 4.39326 2.98607 0
M  V30 1451 C 130.558 5.54587 2.59037 0
M  V30 1452 N 129.695 5.95243 3.72331 0
M  V30 1453 H 134.535 2.9537 0.395076 0
M  V30 1454 H 132.072 1.45953 0.183349 0
M  V30 1455 H 134.03 3.02411 2.87408 0
M  V30 1456 H 132.66 1.91693 2.59718 0
M  V30 1457 H 131.712 3.68483 0.94469 0
M  V30 1458 H 133.024 4.77258 1.45005 0
M  V30 1459 H 132.178 4.72528 3.80529 0
M  V30 1460 H 130.917 3.5452 3.34913 0
M  V30 1461 H 129.922 5.21024 1.75539 0
M  V30 1462 H 131.147 6.41133 2.23887 0
M  V30 1463 H 129.093 5.13385 4.08378 0
M  V30 1464 H 129.01 6.73694 3.43034 0
M  V30 1465 H 130.278 6.33072 4.54797 0
M  V30 1466 N 134.507 -0.190092 1.56449 0
M  V30 1467 C 135.417 -1.25591 1.98152 0
M  V30 1468 C 136.433 -1.49519 0.889944 0
M  V30 1469 O 137.609 -1.62036 1.19609 0
M  V30 1470 C 134.674 -2.57916 2.3169 0
M  V30 1471 C 133.735 -2.42015 3.5458 0
M  V30 1472 C 132.968 -3.6803 3.8651 0
M  V30 1473 O 133.191 -4.72413 3.1966 0
M  V30 1474 O 132.125 -3.6326 4.79923 0
M  V30 1475 H 135.951 -0.931988 2.89046 0
M  V30 1476 H 133.536 -0.395488 1.4407 0
M  V30 1477 H 135.418 -3.36008 2.54316 0
M  V30 1478 H 134.093 -2.89925 1.43963 0
M  V30 1479 H 133 -1.62017 3.37196 0
M  V30 1480 H 134.333 -2.14937 4.4279 0
M  V30 1481 N 135.985 -1.50799 -0.457987 0
M  V30 1482 C 136.932 -1.70617 -1.5543 0
M  V30 1483 C 137.902 -0.547562 -1.56815 0
M  V30 1484 O 139.087 -0.779647 -1.74144 0
M  V30 1485 C 136.227 -1.81831 -2.93311 0
M  V30 1486 C 135.34 -3.09278 -3.01615 0
M  V30 1487 C 134.475 -3.11209 -4.30491 0
M  V30 1488 C 133.514 -4.33055 -4.32585 0
M  V30 1489 N 132.651 -4.32652 -5.52952 0
M  V30 1490 H 137.491 -2.64207 -1.37836 0
M  V30 1491 H 135.028 -1.30959 -0.669937 0
M  V30 1492 H 136.986 -1.86314 -3.73287 0
M  V30 1493 H 135.616 -0.916685 -3.0951 0
M  V30 1494 H 134.668 -3.14203 -2.1443 0
M  V30 1495 H 135.98 -3.99233 -2.99022 0
M  V30 1496 H 135.134 -3.14494 -5.18824 0
M  V30 1497 H 133.873 -2.19106 -4.35711 0
M  V30 1498 H 132.878 -4.29969 -3.42647 0
M  V30 1499 H 134.103 -5.264 -4.29046 0
M  V30 1500 H 132.049 -3.43409 -5.58933 0
M  V30 1501 H 131.966 -5.16392 -5.52155 0
M  V30 1502 H 133.234 -4.40101 -6.43375 0
M  V30 1503 N 137.463 0.71206 -1.40597 0
M  V30 1504 C 138.426 1.80785 -1.40888 0
M  V30 1505 C 139.426 1.57937 -0.302103 0
M  V30 1506 O 140.616 1.64913 -0.561182 0
M  V30 1507 C 137.748 3.18927 -1.20409 0
M  V30 1508 H 138.941 1.81924 -2.38419 0
M  V30 1509 H 136.494 0.91805 -1.26497 0
M  V30 1510 H 137.229 3.23436 -0.236522 0
M  V30 1511 H 137.014 3.36911 -2.00582 0
M  V30 1512 H 138.504 3.98949 -1.23408 0
M  V30 1513 N 138.941 1.26152 0.944643 0
M  V30 1514 C 140.19 1.10883 1.68487 0
M  V30 1515 C 140.503 -0.348153 1.92477 0
M  V30 1516 O 141.709 -0.621459 2.64292 0
M  V30 1517 C 140.165 1.93624 3.03377 0
M  V30 1518 C 139.773 3.43875 2.87148 0
M  V30 1519 C 141.517 1.86954 3.81115 0
M  V30 1520 C 139.424 4.18875 4.1749 0
M  V30 1521 H 138.354 0.41135 0.631907 0
M  V30 1522 H 141.005 1.50433 1.05082 0
M  V30 1523 H 139.387 1.46904 3.67743 0
M  V30 1524 H 140.561 3.98338 2.31653 0
M  V30 1525 H 138.876 3.51744 2.22856 0
M  V30 1526 H 141.473 2.40275 4.77673 0
M  V30 1527 H 141.816 0.839518 4.07747 0
M  V30 1528 H 142.349 2.31477 3.23517 0
M  V30 1529 H 139.088 5.22332 3.96043 0
M  V30 1530 H 138.608 3.69193 4.72712 0
M  V30 1531 H 140.287 4.27134 4.85968 0
M  V30 1532 N 140.419 -1.14872 1.07899 0
M  V30 1533 C 141.349 -2.2193 0.725887 0
M  V30 1534 C 142.33 -1.67622 -0.28927 0
M  V30 1535 O 143.515 -1.93533 -0.160787 0
M  V30 1536 C 140.645 -3.47061 0.128856 0
M  V30 1537 C 139.599 -4.14363 1.07178 0
M  V30 1538 C 138.925 -5.33636 0.337229 0
M  V30 1539 C 140.225 -4.63492 2.40775 0
M  V30 1540 H 141.919 -2.51724 1.62097 0
M  V30 1541 H 139.465 -1.20991 0.780838 0
M  V30 1542 H 141.418 -4.21199 -0.130147 0
M  V30 1543 H 140.142 -3.16617 -0.80134 0
M  V30 1544 H 138.801 -3.42173 1.3158 0
M  V30 1545 H 138.449 -4.99449 -0.596606 0
M  V30 1546 H 138.149 -5.79609 0.965788 0
M  V30 1547 H 139.673 -6.10539 0.0861567 0
M  V30 1548 H 141.087 -5.2913 2.20669 0
M  V30 1549 H 139.484 -5.20148 2.99276 0
M  V30 1550 H 140.554 -3.78834 3.02676 0
M  V30 1551 N 141.898 -0.863906 -1.31812 0
M  V30 1552 C 143.128 -0.485406 -2.00817 0
M  V30 1553 C 143.536 0.925007 -1.65046 0
M  V30 1554 O 142.879 1.61653 -0.872574 0
M  V30 1555 C 142.941 -0.555589 -3.55181 0
M  V30 1556 C 142.605 -1.92654 -4.14407 0
M  V30 1557 C 143.602 -2.89324 -4.31958 0
M  V30 1558 C 141.287 -2.2262 -4.50273 0
M  V30 1559 C 143.281 -4.14108 -4.84555 0
M  V30 1560 C 140.968 -3.47654 -5.02573 0
M  V30 1561 C 141.966 -4.43214 -5.19664 0
M  V30 1562 O 141.654 -5.66033 -5.70843 0
M  V30 1563 H 141.386 -0.188224 -0.649267 0
M  V30 1564 H 143.94 -1.16514 -1.69156 0
M  V30 1565 H 142.17 0.181037 -3.86276 0
M  V30 1566 H 143.859 -0.19138 -4.05449 0
M  V30 1567 H 144.625 -2.6748 -4.04573 0
M  V30 1568 H 140.504 -1.4902 -4.3625 0
M  V30 1569 H 144.048 -4.88703 -4.9781 0
M  V30 1570 H 139.945 -3.69345 -5.29391 0
M  V30 1571 H 140.713 -5.6812 -5.89222 0
M  V30 1572 N 143.376 1.44774 -0.622745 0
M  V30 1573 C 144.622 2.02968 -0.13257 0
M  V30 1574 C 144.977 1.48047 1.22881 0
M  V30 1575 O 144.27 0.651625 1.80179 0
M  V30 1576 C 144.464 3.57364 -0.0508323 0
M  V30 1577 C 144.293 4.27262 -1.40275 0
M  V30 1578 C 143.063 4.64577 -1.98737 0
M  V30 1579 C 145.261 4.58248 -2.3348 0
M  V30 1580 N 143.243 5.19404 -3.27251 0
M  V30 1581 C 144.614 5.14069 -3.46603 0
M  V30 1582 C 146.669 4.40195 -2.32664 0
M  V30 1583 C 145.372 5.53738 -4.59093 0
M  V30 1584 C 147.398 4.80907 -3.44213 0
M  V30 1585 C 146.76 5.36834 -4.56058 0
M  V30 1586 H 142.859 0.776541 -0.0922354 0
M  V30 1587 H 145.443 1.76385 -0.82441 0
M  V30 1588 H 143.614 3.83576 0.610265 0
M  V30 1589 H 145.346 4.02219 0.447397 0
M  V30 1590 H 142.101 4.48622 -1.51774 0
M  V30 1591 H 142.525 5.51301 -3.92933 0
M  V30 1592 H 147.167 3.96257 -1.47446 0
M  V30 1593 H 144.885 5.96635 -5.45025 0
M  V30 1594 H 148.471 4.68659 -3.44747 0
M  V30 1595 H 147.351 5.67755 -5.40947 0
M  V30 1596 N 144.854 0.36279 1.53368 0
M  V30 1597 C 146.27 0.0116182 1.59596 0
M  V30 1598 C 146.47 -1.47012 1.37803 0
M  V30 1599 O 145.526 -2.23136 1.18181 0
M  V30 1600 C 146.839 0.465052 2.97082 0
M  V30 1601 C 148.387 0.419033 3.10182 0
M  V30 1602 C 148.862 0.848235 4.50077 0
M  V30 1603 N 150.353 0.803183 4.56183 0
M  V30 1604 C 151.088 1.107 5.62613 0
M  V30 1605 N 150.584 1.47996 6.76808 0
M  V30 1606 N 152.377 1.02998 5.52583 0
M  V30 1607 H 144.528 1.32775 1.65785 0
M  V30 1608 H 146.791 0.542518 0.777417 0
M  V30 1609 H 146.497 1.49892 3.18159 0
M  V30 1610 H 146.371 -0.149786 3.76902 0
M  V30 1611 H 148.758 -0.605696 2.88817 0
M  V30 1612 H 148.839 1.06933 2.32377 0
M  V30 1613 H 148.483 1.87107 4.7218 0
M  V30 1614 H 148.413 0.175218 5.26308 0
M  V30 1615 H 150.904 0.52838 3.74188 0
M  V30 1616 H 151.217 1.69613 7.53957 0
M  V30 1617 H 149.562 1.51859 6.78206 0
M  V30 1618 H 152.753 0.737817 4.62249 0
M  V30 1619 H 152.926 1.2701 6.35431 0
M  V30 1620 N 146.332 -1.57332 0.0918853 0
M  V30 1621 C 147.264 -2.10869 -0.898168 0
M  V30 1622 C 148.277 -1.04521 -1.24817 0
M  V30 1623 O 149.466 -1.31977 -1.20184 0
M  V30 1624 C 146.566 -2.57083 -2.2082 0
M  V30 1625 C 145.739 -3.87229 -2.03402 0
M  V30 1626 C 144.798 -4.19324 -3.17889 0
M  V30 1627 O 143.824 -4.88598 -2.91994 0
M  V30 1628 N 145.026 -3.74471 -4.43567 0
M  V30 1629 H 147.791 -2.96439 -0.440943 0
M  V30 1630 H 145.352 -1.61631 -0.0933064 0
M  V30 1631 H 147.344 -2.75602 -2.96354 0
M  V30 1632 H 145.914 -1.76541 -2.57977 0
M  V30 1633 H 145.134 -3.7789 -1.12218 0
M  V30 1634 H 146.422 -4.72379 -1.89038 0
M  V30 1635 H 145.82 -3.18546 -4.67488 0
M  V30 1636 H 144.377 -3.98151 -5.16061 0
M  V30 1637 N 147.81 0.181792 -1.56548 0
M  V30 1638 C 149.058 0.89832 -1.81038 0
M  V30 1639 C 149.379 1.83232 -0.667164 0
M  V30 1640 O 148.649 1.93372 0.313673 0
M  V30 1641 H 147.229 0.33471 -0.667816 0
M  V30 1642 H 149.891 0.184116 -1.94028 0
M  V30 1643 H 148.987 1.4815 -2.74696 0
M  V30 1644 N 149.288 1.51039 0.449983 0
M  V30 1645 C 150.198 1.74261 1.57067 0
M  V30 1646 C 151.214 0.626363 1.62335 0
M  V30 1647 O 152.39 0.907162 1.79812 0
M  V30 1648 C 149.455 1.85114 2.93144 0
M  V30 1649 C 148.516 3.0893 2.98095 0
M  V30 1650 C 147.749 3.19256 4.27681 0
M  V30 1651 O 147.972 2.35835 5.19363 0
M  V30 1652 O 146.906 4.12144 4.38658 0
M  V30 1653 H 150.732 2.69303 1.40391 0
M  V30 1654 H 148.317 1.35389 0.631688 0
M  V30 1655 H 150.199 1.94311 3.73926 0
M  V30 1656 H 148.874 0.932588 3.09975 0
M  V30 1657 H 147.781 3.0522 2.16314 0
M  V30 1658 H 149.114 4.00433 2.86206 0
M  V30 1659 N 150.766 -0.704594 1.40972 0
M  V30 1660 C 151.991 -1.49858 1.43378 0
M  V30 1661 C 152.416 -1.88061 0.038184 0
M  V30 1662 O 151.774 -1.5402 -0.956425 0
M  V30 1663 C 151.822 -2.74333 2.34038 0
M  V30 1664 O 150.926 -3.7147 1.7912 0
M  V30 1665 H 150.267 -0.45139 0.486974 0
M  V30 1666 H 152.797 -0.866832 1.8533 0
M  V30 1667 H 152.807 -3.22741 2.49604 0
M  V30 1668 H 151.482 -2.45863 3.35446 0
M  V30 1669 H 150.059 -3.30363 1.72958 0
M  V30 1670 N 152.244 -1.26651 -0.937939 0
M  V30 1671 C 153.492 -1.12165 -1.68118 0
M  V30 1672 C 153.813 0.334983 -1.92101 0
M  V30 1673 O 153.083 1.23583 -1.52 0
M  V30 1674 H 151.663 -0.412093 -0.623048 0
M  V30 1675 H 154.325 -1.59027 -1.12678 0
M  V30 1676 H 153.421 -1.64289 -2.6536 0
M  V30 1677 N 153.722 1.14298 -1.08507 0
M  V30 1678 C 154.654 2.1907 -0.673859 0
M  V30 1679 C 155.667 1.60381 0.279577 0
M  V30 1680 O 156.856 1.78374 0.0670754 0
M  V30 1681 C 153.956 3.38888 0.0290979 0
M  V30 1682 C 153.129 4.27103 -0.943494 0
M  V30 1683 C 152.188 5.25477 -0.275676 0
M  V30 1684 O 151.214 5.61709 -0.920401 0
M  V30 1685 N 152.416 5.7227 0.974013 0
M  V30 1686 H 155.181 2.54965 -1.57521 0
M  V30 1687 H 152.742 1.29528 -0.971287 0
M  V30 1688 H 154.734 4.01761 0.48683 0
M  V30 1689 H 153.304 3.01309 0.832555 0
M  V30 1690 H 152.524 3.61149 -1.58004 0
M  V30 1691 H 153.812 4.82905 -1.60251 0
M  V30 1692 H 153.21 5.44965 1.51755 0
M  V30 1693 H 151.767 6.37127 1.37522 0
M  V30 1694 N 155.201 0.870884 1.31352 0
M  V30 1695 C 156.111 0.330783 2.32256 0
M  V30 1696 C 157.127 -0.559767 1.6475 0
M  V30 1697 O 158.303 -0.456263 1.96164 0
M  V30 1698 C 155.368 -0.458137 3.4366 0
M  V30 1699 C 154.429 0.460482 4.26823 0
M  V30 1700 C 153.662 -0.290881 5.32907 0
M  V30 1701 O 153.885 -1.51885 5.49806 0
M  V30 1702 O 152.819 0.351732 6.00871 0
M  V30 1703 H 156.645 1.16718 2.80376 0
M  V30 1704 H 154.23 0.634285 1.35267 0
M  V30 1705 H 156.112 -0.905343 4.1156 0
M  V30 1706 H 154.787 -1.27106 2.97701 0
M  V30 1707 H 153.694 0.956207 3.61673 0
M  V30 1708 H 155.027 1.23903 4.7635 0
M  V30 1709 N 156.679 -1.44442 0.630414 0
M  V30 1710 C 157.626 -2.30678 -0.0749355 0
M  V30 1711 C 158.596 -1.4344 -0.837502 0
M  V30 1712 O 159.781 -1.72343 -0.818684 0
M  V30 1713 C 156.921 -3.28706 -1.05103 0
M  V30 1714 C 156.034 -4.31046 -0.286954 0
M  V30 1715 C 155.169 -5.16167 -1.2548 0
M  V30 1716 C 154.208 -6.10216 -0.479843 0
M  V30 1717 N 153.345 -6.88039 -1.39811 0
M  V30 1718 H 158.185 -2.90454 0.666386 0
M  V30 1719 H 155.722 -1.43107 0.340404 0
M  V30 1720 H 157.68 -3.84027 -1.63031 0
M  V30 1721 H 156.31 -2.70632 -1.75949 0
M  V30 1722 H 155.362 -3.78203 0.408243 0
M  V30 1723 H 156.674 -4.97794 0.316657 0
M  V30 1724 H 155.828 -5.76002 -1.90544 0
M  V30 1725 H 154.567 -4.49491 -1.89233 0
M  V30 1726 H 153.572 -5.49491 0.184295 0
M  V30 1727 H 154.797 -6.78928 0.152965 0
M  V30 1728 H 152.743 -6.24032 -2.02287 0
M  V30 1729 H 152.66 -7.51223 -0.848508 0
M  V30 1730 H 153.928 -7.52397 -2.03762 0
M  V30 1731 N 158.157 -0.370918 -1.53173 0
M  V30 1732 C 159.403 0.217423 -2.01631 0
M  V30 1733 C 159.736 1.47983 -1.25756 0
M  V30 1734 O 159.011 1.91274 -0.352764 0
M  V30 1735 C 159.294 0.503982 -3.56556 0
M  V30 1736 C 159.147 -0.77243 -4.43118 0
M  V30 1737 C 160.466 1.30234 -4.20389 0
M  V30 1738 H 157.585 0.0775486 -0.732909 0
M  V30 1739 H 160.227 -0.496863 -1.83388 0
M  V30 1740 H 158.377 1.11248 -3.72231 0
M  V30 1741 H 160.049 -1.4098 -4.39229 0
M  V30 1742 H 158.292 -1.39167 -4.10871 0
M  V30 1743 H 158.963 -0.526815 -5.4948 0
M  V30 1744 H 161.439 0.787546 -4.08579 0
M  V30 1745 H 160.315 1.47158 -5.28806 0
M  V30 1746 H 160.576 2.31237 -3.76805 0
M  V30 1747 N 159.635 1.57281 -0.100228 0
M  V30 1748 C 160.565 2.17328 0.853857 0
M  V30 1749 C 161.546 1.10804 1.2906 0
M  V30 1750 O 162.731 1.38963 1.35657 0
M  V30 1751 C 159.861 2.75772 2.11109 0
M  V30 1752 C 158.815 3.87713 1.81279 0
M  V30 1753 C 158.141 4.32882 3.13874 0
M  V30 1754 C 159.441 5.10677 1.09574 0
M  V30 1755 H 161.135 2.97305 0.353545 0
M  V30 1756 H 158.681 1.43009 0.168612 0
M  V30 1757 H 160.634 3.16433 2.78296 0
M  V30 1758 H 159.358 1.93057 2.63432 0
M  V30 1759 H 158.017 3.476 1.16489 0
M  V30 1760 H 157.665 3.47051 3.64095 0
M  V30 1761 H 157.365 5.08358 2.94696 0
M  V30 1762 H 158.889 4.7618 3.82211 0
M  V30 1763 H 160.303 5.48474 1.66879 0
M  V30 1764 H 158.7 5.91615 1.00557 0
M  V30 1765 H 159.77 4.84835 0.0793299 0
M  V30 1766 N 161.113 -0.173488 1.56642 0
M  V30 1767 C 162.043 -1.2171 1.99271 0
M  V30 1768 C 163.024 -1.46289 0.867959 0
M  V30 1769 O 164.209 -1.5766 1.13388 0
M  V30 1770 C 161.339 -2.55651 2.35074 0
M  V30 1771 C 160.293 -2.45645 3.50489 0
M  V30 1772 C 159.619 -3.84056 3.72028 0
M  V30 1773 C 160.919 -1.96302 4.84007 0
M  V30 1774 H 162.613 -0.86275 2.867 0
M  V30 1775 H 160.159 -0.413571 1.37933 0
M  V30 1776 H 162.112 -3.2886 2.63494 0
M  V30 1777 H 160.836 -2.92869 1.44552 0
M  V30 1778 H 159.495 -1.7489 3.22194 0
M  V30 1779 H 159.143 -4.18664 2.788 0
M  V30 1780 H 158.843 -3.7823 4.49684 0
M  V30 1781 H 160.367 -4.58854 4.02846 0
M  V30 1782 H 161.781 -2.59284 5.11317 0
M  V30 1783 H 160.178 -2.01429 5.65284 0
M  V30 1784 H 161.248 -0.917226 4.76146 0
M  V30 1785 N 162.591 -1.51276 -0.441967 0
M  V30 1786 C 163.868 -1.54252 -1.20273 0
M  V30 1787 C 164.248 -0.30408 -2.08898 0
M  V30 1788 O 163.596 0.711084 -2.17154 0
M  V30 1789 C 163.806 -2.85406 -2.00859 0
M  V30 1790 C 165.154 -3.37181 -2.58059 0
M  V30 1791 O 166.178 -2.86925 -2.11074 0
M  V30 1792 O 165.037 -4.24858 -3.43741 0
M  V30 1793 H 162.131 -0.619969 -0.547328 0
M  V30 1794 H 164.677 -1.63586 -0.451413 0
M  V30 1795 H 163.449 -3.67003 -1.35736 0
M  V30 1796 H 163.072 -2.79213 -2.83065 0
M  V30 1797 N 164.069 0.697108 -1.41344 0
M  V30 1798 C 165.48 1.27697 -1.36199 0
M  V30 1799 C 165.831 1.9615 -0.0443463 0
M  V30 1800 O 164.956 1.98689 0.857419 0
M  V30 1801 C 165.551 2.32223 -2.46694 0
M  V30 1802 C 164.11 2.8579 -2.44952 0
M  V30 1803 C 163.257 1.59807 -2.26621 0
M  V30 1804 H 166.208 0.491968 -1.50882 0
M  V30 1805 H 166.229 3.1348 -2.15664 0
M  V30 1806 H 165.741 1.82373 -3.42581 0
M  V30 1807 H 163.842 3.3982 -1.52817 0
M  V30 1808 H 163.955 3.36325 -3.41207 0
M  V30 1809 H 162.319 1.8556 -1.7447 0
M  V30 1810 H 163.102 1.11956 -3.24532 0
M  V30 1811 N 165.547 1.27147 0.931209 0
M  V30 1812 C 166.495 1.09398 2.05268 0
M  V30 1813 C 167.489 0.0180591 1.6939 0
M  V30 1814 O 168.695 0.17551 1.79142 0
M  V30 1815 H 165.07 0.336986 0.672268 0
M  V30 1816 H 167.041 2.04416 2.17386 0
M  V30 1817 C 165.79 0.75424 3.39421 0
M  V30 1818 H 165.113 1.57404 3.67511 0
M  V30 1819 H 166.553 0.669903 4.18674 0
M  V30 1820 C 165.012 -0.541197 3.32525 0
M  V30 1821 O 165.542 -1.57664 3.69466 0
M  V30 1822 N 163.748 -0.535517 2.85623 0
M  V30 1823 H 163.295 0.307511 2.55758 0
M  V30 1824 H 163.253 -1.40236 2.81392 0
M  V30 1825 N 167.025 -1.13721 1.09112 0
M  V30 1826 C 168.273 -1.84559 0.823562 0
M  V30 1827 C 168.594 -1.83754 -0.652658 0
M  V30 1828 O 167.864 -1.29102 -1.47342 0
M  V30 1829 H 166.444 -0.683376 0.301673 0
M  V30 1830 H 169.106 -1.37771 1.37859 0
M  V30 1831 H 168.202 -2.8917 1.17419 0
M  V30 1832 N 168.503 -0.877838 -1.30888 0
M  V30 1833 C 169.749 -0.502773 -1.97088 0
M  V30 1834 C 170.104 0.936274 -1.68082 0
M  V30 1835 O 169.397 1.65162 -0.971196 0
M  V30 1836 C 169.591 -0.705748 -3.50363 0
M  V30 1837 C 169.42 -2.16297 -3.94266 0
M  V30 1838 C 168.19 -2.80614 -4.20219 0
M  V30 1839 C 170.388 -3.13606 -4.07622 0
M  V30 1840 N 168.37 -4.17007 -4.50532 0
M  V30 1841 C 169.741 -4.35051 -4.41736 0
M  V30 1842 C 171.796 -3.09491 -3.90026 0
M  V30 1843 C 170.499 -5.52911 -4.60089 0
M  V30 1844 C 172.525 -4.26616 -4.09576 0
M  V30 1845 C 171.887 -5.46825 -4.44029 0
M  V30 1846 H 167.986 -0.233168 -0.746429 0
M  V30 1847 H 170.57 -1.13408 -1.58261 0
M  V30 1848 H 168.741 -0.103976 -3.88261 0
M  V30 1849 H 170.473 -0.298291 -4.03599 0
M  V30 1850 H 167.228 -2.3152 -4.13153 0
M  V30 1851 H 167.652 -4.87426 -4.69834 0
M  V30 1852 H 172.294 -2.17657 -3.62471 0
M  V30 1853 H 170.012 -6.45255 -4.86489 0
M  V30 1854 H 173.598 -4.24894 -3.97438 0
M  V30 1855 H 172.478 -6.35947 -4.58848 0
M  V30 1856 N 169.982 1.44106 -0.638065 0
M  V30 1857 C 171.207 2.0685 -0.150916 0
M  V30 1858 C 171.632 1.47417 1.16833 0
M  V30 1859 O 170.99 0.578264 1.71831 0
M  V30 1860 C 171.038 3.60555 -0.05708 0
M  V30 1861 O 170.142 4.00465 0.984972 0
M  V30 1862 H 169.483 0.658151 -0.0879399 0
M  V30 1863 H 172.013 1.84865 -0.876707 0
M  V30 1864 H 172.023 4.07789 0.131232 0
M  V30 1865 H 170.698 4.03193 -1.02021 0
M  V30 1866 H 169.275 3.64849 0.770672 0
M  V30 1867 N 171.46 0.379036 1.52974 0
M  V30 1868 C 172.407 -0.461048 2.26148 0
M  V30 1869 C 173.377 -1.06637 1.27349 0
M  V30 1870 O 174.562 -1.09633 1.56157 0
M  V30 1871 C 171.702 -1.58782 3.06402 0
M  V30 1872 C 170.815 -1.00636 4.20115 0
M  V30 1873 C 169.95 -2.10334 4.87784 0
M  V30 1874 C 168.989 -1.49724 5.93506 0
M  V30 1875 N 168.126 -2.5331 6.54812 0
M  V30 1876 H 172.966 0.169429 2.97518 0
M  V30 1877 H 170.503 0.0953806 1.4679 0
M  V30 1878 H 172.461 -2.25174 3.51215 0
M  V30 1879 H 171.091 -2.18876 2.37261 0
M  V30 1880 H 170.143 -0.232332 3.7969 0
M  V30 1881 H 171.455 -0.523343 4.96047 0
M  V30 1882 H 170.609 -2.84519 5.35849 0
M  V30 1883 H 169.348 -2.61992 4.11353 0
M  V30 1884 H 168.353 -0.740598 5.44789 0
M  V30 1885 H 169.578 -0.988732 6.71864 0
M  V30 1886 H 167.524 -3.04156 5.81227 0
M  V30 1887 H 167.441 -2.09734 7.26325 0
M  V30 1888 H 168.709 -3.27155 7.07524 0
M  V30 1889 N 172.938 -1.57226 0.108567 0
M  V30 1890 C 174.215 -1.86333 -0.594939 0
M  V30 1891 C 174.595 -1.00788 -1.85486 0
M  V30 1892 O 173.943 -0.0839293 -2.28346 0
M  V30 1893 C 174.153 -3.37265 -0.897405 0
M  V30 1894 C 175.501 -4.05629 -1.25501 0
M  V30 1895 O 176.525 -3.42224 -0.987998 0
M  V30 1896 O 175.384 -5.17531 -1.75567 0
M  V30 1897 H 172.478 -0.771018 -0.2991 0
M  V30 1898 H 175.024 -1.69102 0.142283 0
M  V30 1899 H 173.796 -3.913 -0.00413806 0
M  V30 1900 H 173.419 -3.59889 -1.69014 0
M  V30 1901 N 174.416 0.165178 -1.56732 0
M  V30 1902 C 175.664 0.879068 -1.8198 0
M  V30 1903 C 175.985 1.82514 -0.686561 0
M  V30 1904 O 175.255 1.93694 0.293146 0
M  V30 1905 H 173.835 0.327608 -0.671329 0
M  V30 1906 H 176.497 0.163526 -1.94213 0
M  V30 1907 H 175.593 1.45228 -2.76252 0
M  V30 1908 N 175.894 1.51508 0.433938 0
M  V30 1909 C 177.122 1.68157 1.20543 0
M  V30 1910 C 177.537 0.380362 1.84929 0
M  V30 1911 O 176.894 -0.641446 1.70856 0
M  V30 1912 C 176.945 2.79965 2.28696 0
M  V30 1913 O 176.666 4.05045 1.66943 0
M  V30 1914 C 178.167 3.07912 3.18912 0
M  V30 1915 H 175.387 0.56421 0.363191 0
M  V30 1916 H 177.931 1.97941 0.513754 0
M  V30 1917 H 176.086 2.5277 2.93574 0
M  V30 1918 H 176.5 4.67165 2.38448 0
M  V30 1919 H 177.974 3.89719 3.90926 0
M  V30 1920 H 178.451 2.20456 3.79863 0
M  V30 1921 H 179.057 3.36779 2.59731 0
M  V30 1922 N 177.372 -0.689602 1.41712 0
M  V30 1923 C 178.618 -1.45181 1.41599 0
M  V30 1924 C 178.951 -1.94181 0.0270081 0
M  V30 1925 O 178.226 -1.6993 -0.946265 0
M  V30 1926 C 178.509 -2.65945 2.42787 0
M  V30 1927 C 178.362 -2.22672 3.90816 0
M  V30 1928 C 179.681 -3.68149 2.41151 0
M  V30 1929 H 176.8 -0.526576 0.515642 0
M  V30 1930 H 179.442 -0.784947 1.73028 0
M  V30 1931 H 177.592 -3.2284 2.16116 0
M  V30 1932 H 179.264 -1.71058 4.28412 0
M  V30 1933 H 177.507 -1.54394 4.05395 0
M  V30 1934 H 178.178 -3.0935 4.57172 0
M  V30 1935 H 180.654 -3.2094 2.64834 0
M  V30 1936 H 179.53 -4.50248 3.13955 0
M  V30 1937 H 179.791 -4.18259 1.43221 0
M  V30 1938 N 178.85 -1.27639 -0.924453 0
M  V30 1939 C 180.075 -1.17101 -1.71179 0
M  V30 1940 C 180.5 0.268134 -1.86179 0
M  V30 1941 O 179.858 1.19415 -1.36418 0
M  V30 1942 C 179.906 -1.86313 -3.08739 0
M  V30 1943 O 179.01 -1.16331 -3.95652 0
M  V30 1944 H 178.351 -0.407091 -0.524569 0
M  V30 1945 H 180.881 -1.68767 -1.15666 0
M  V30 1946 H 180.891 -1.938 -3.59034 0
M  V30 1947 H 179.566 -2.91001 -2.97138 0
M  V30 1948 H 178.143 -1.16935 -3.54091 0
M  V30 1949 N 180.328 1.1314 -1.09713 0
M  V30 1950 C 181.258 2.20748 -0.761102 0
M  V30 1951 C 182.239 1.68061 0.262566 0
M  V30 1952 O 183.424 1.93765 0.129977 0
M  V30 1953 C 180.554 3.46812 -0.184054 0
M  V30 1954 C 179.508 4.12606 -1.13757 0
M  V30 1955 C 178.834 5.33031 -0.422083 0
M  V30 1956 C 180.134 4.59603 -2.48118 0
M  V30 1957 H 181.828 2.49113 -1.66082 0
M  V30 1958 H 179.374 1.19734 -0.799987 0
M  V30 1959 H 181.327 4.21353 0.0631215 0
M  V30 1960 H 180.051 3.17851 0.750868 0
M  V30 1961 H 178.71 3.40036 -1.37007 0
M  V30 1962 H 178.358 5.00335 0.517072 0
M  V30 1963 H 178.058 5.77999 -1.05788 0
M  V30 1964 H 179.582 6.10325 -0.183277 0
M  V30 1965 H 180.996 5.25552 -2.29059 0
M  V30 1966 H 179.393 5.15321 -3.07514 0
M  V30 1967 H 180.463 3.73971 -3.08665 0
M  V30 1968 N 181.806 0.884767 1.30421 0
M  V30 1969 C 183.054 0.502112 1.95763 0
M  V30 1970 C 183.375 -0.951815 1.70192 0
M  V30 1971 O 182.645 -1.6692 1.0254 0
M  V30 1972 H 181.225 0.182694 0.724315 0
M  V30 1973 H 183.887 1.1278 1.58955 0
M  V30 1974 H 182.983 0.672188 3.04775 0
M  V30 1975 N 183.284 -1.43765 0.645699 0
M  V30 1976 C 184.512 -2.06253 0.163556 0
M  V30 1977 C 184.927 -1.48352 -1.16778 0
M  V30 1978 O 184.284 -0.611932 -1.71935 0
M  V30 1979 C 184.335 -3.61453 0.0583186 0
M  V30 1980 O 184.056 -4.172 1.33702 0
M  V30 1981 C 185.557 -4.41002 -0.450795 0
M  V30 1982 H 182.777 -0.665413 0.0864077 0
M  V30 1983 H 185.321 -1.84396 0.884222 0
M  V30 1984 H 183.476 -3.82522 -0.612865 0
M  V30 1985 H 183.89 -5.10791 1.19131 0
M  V30 1986 H 185.364 -5.49966 -0.473403 0
M  V30 1987 H 185.841 -4.13488 -1.48068 0
M  V30 1988 H 186.447 -4.24886 0.187637 0
M  V30 1989 N 184.763 -0.387143 -1.52771 0
M  V30 1990 C 186.009 0.188506 -2.02525 0
M  V30 1991 C 186.364 1.44649 -1.26864 0
M  V30 1992 O 185.657 1.88189 -0.359945 0
M  V30 1993 C 185.851 0.512209 -3.53711 0
M  V30 1994 C 185.68 -0.712855 -4.44014 0
M  V30 1995 C 184.45 -1.23147 -4.90064 0
M  V30 1996 C 186.648 -1.58453 -4.89282 0
M  V30 1997 N 184.63 -2.41431 -5.64433 0
M  V30 1998 C 186.001 -2.61381 -5.6221 0
M  V30 1999 C 188.056 -1.60488 -4.71326 0
M  V30 2000 C 186.759 -3.66227 -6.19088 0
M  V30 2001 C 188.785 -2.6424 -5.29085 0
M  V30 2002 C 188.147 -3.6589 -6.01917 0
M  V30 2003 H 184.246 0.0311236 -0.78138 0
M  V30 2004 H 186.83 -0.536548 -1.87161 0
M  V30 2005 H 185.001 1.20632 -3.69192 0
M  V30 2006 H 186.733 1.07482 -3.90166 0
M  V30 2007 H 183.488 -0.792795 -4.66917 0
M  V30 2008 H 183.912 -3.01274 -6.0627 0
M  V30 2009 H 188.554 -0.83247 -4.14524 0
M  V30 2010 H 186.272 -4.44337 -6.74974 0
M  V30 2011 H 189.858 -2.66695 -5.17074 0
M  V30 2012 H 188.738 -4.44855 -6.45813 0
M  V30 2013 N 186.241 1.57166 -0.116904 0
M  V30 2014 C 187.204 2.14039 0.819742 0
M  V30 2015 C 188.204 1.07477 1.19605 0
M  V30 2016 O 189.394 1.33263 1.1219 0
M  V30 2017 C 186.526 2.67891 2.10826 0
M  V30 2018 H 187.719 2.98128 0.325511 0
M  V30 2019 H 185.272 1.55739 0.132312 0
M  V30 2020 H 186.007 1.87384 2.64685 0
M  V30 2021 H 185.792 3.45823 1.84793 0
M  V30 2022 H 187.282 3.11809 2.77785 0
M  V30 2023 N 187.719 -0.156864 1.56817 0
M  V30 2024 C 188.965 -0.872416 1.83076 0
M  V30 2025 C 189.298 -1.81261 0.697001 0
M  V30 2026 O 188.573 -1.92171 -0.30008 0
M  V30 2027 C 188.856 -1.65551 3.19789 0
M  V30 2028 C 188.709 -0.737467 4.43713 0
M  V30 2029 C 190.028 -2.62012 3.53606 0
M  V30 2030 H 187.147 -0.315715 0.665953 0
M  V30 2031 H 189.789 -0.138004 1.89498 0
M  V30 2032 H 187.939 -2.28159 3.14445 0
M  V30 2033 H 189.611 -0.123143 4.61136 0
M  V30 2034 H 187.854 -0.0464067 4.33775 0
M  V30 2035 H 188.525 -1.32122 5.35955 0
M  V30 2036 H 191.001 -2.09525 3.59497 0
M  V30 2037 H 189.877 -3.13861 4.50314 0
M  V30 2038 H 190.138 -3.42902 2.79053 0
M  V30 2039 N 189.197 -1.51736 -0.425897 0
M  V30 2040 C 190.422 -1.69082 -1.20108 0
M  V30 2041 C 190.847 -0.392398 -1.83962 0
M  V30 2042 O 190.205 0.64858 -1.69302 0
M  V30 2043 C 190.253 -2.81604 -2.25237 0
M  V30 2044 O 189.357 -2.46004 -3.30992 0
M  V30 2045 H 188.698 -0.563408 -0.35138 0
M  V30 2046 H 191.228 -1.98358 -0.501512 0
M  V30 2047 H 191.238 -3.06025 -2.69838 0
M  V30 2048 H 189.913 -3.75817 -1.78142 0
M  V30 2049 H 188.49 -2.32195 -2.91787 0
M  V30 2050 N 190.675 0.682077 -1.42076 0
M  V30 2051 C 191.921 1.44283 -1.43366 0
M  V30 2052 C 192.276 1.92344 -0.0465775 0
M  V30 2053 O 191.569 1.67517 0.929973 0
M  V30 2054 C 191.763 2.66036 -2.38662 0
M  V30 2055 C 191.592 2.29889 -3.86499 0
M  V30 2056 C 190.362 2.19599 -4.55087 0
M  V30 2057 C 192.56 1.91999 -4.77117 0
M  V30 2058 N 190.542 1.76478 -5.87987 0
M  V30 2059 C 191.913 1.59741 -5.99068 0
M  V30 2060 C 193.968 1.78927 -4.64639 0
M  V30 2061 C 192.671 1.15723 -7.0993 0
M  V30 2062 C 194.697 1.36314 -5.75476 0
M  V30 2063 C 194.059 1.04975 -6.96534 0
M  V30 2064 H 190.158 0.524739 -0.579805 0
M  V30 2065 H 192.742 0.787834 -1.78048 0
M  V30 2066 H 190.913 3.29237 -2.06053 0
M  V30 2067 H 192.645 3.32588 -2.30581 0
M  V30 2068 H 189.4 2.38433 -4.09202 0
M  V30 2069 H 189.824 1.57362 -6.58458 0
M  V30 2070 H 194.466 2.01805 -3.7153 0
M  V30 2071 H 192.184 0.91591 -8.02893 0
M  V30 2072 H 195.77 1.26731 -5.6783 0
M  V30 2073 H 194.65 0.725017 -7.80841 0
M  V30 2074 N 192.153 1.28127 0.917671 0
M  V30 2075 C 193.43 1.05761 1.64542 0
M  V30 2076 C 193.81 -0.404344 2.07191 0
M  V30 2077 O 193.158 -1.38963 1.81388 0
M  V30 2078 C 193.368 2.02857 2.83989 0
M  V30 2079 C 194.716 2.32786 3.551 0
M  V30 2080 O 195.74 2.0091 2.94132 0
M  V30 2081 O 194.599 2.87169 4.64969 0
M  V30 2082 H 191.693 0.403916 0.721652 0
M  V30 2083 H 194.239 1.39431 0.967322 0
M  V30 2084 H 193.011 3.01407 2.49538 0
M  V30 2085 H 192.634 1.69809 3.59514 0
M  V30 2086 N 193.631 -1.12557 1.10312 0
M  V30 2087 C 194.879 -1.83675 0.843091 0
M  V30 2088 C 195.2 -1.84435 -0.633131 0
M  V30 2089 O 194.47 -1.30657 -1.45964 0
M  V30 2090 H 193.05 -0.680138 0.308904 0
M  V30 2091 H 195.712 -1.36301 1.39313 0
M  V30 2092 H 194.808 -2.87908 1.2048 0
M  V30 2093 N 195.109 -0.891671 -1.2995 0
M  V30 2094 C 196.056 -0.361736 -2.27948 0
M  V30 2095 C 197.026 0.551761 -1.56668 0
M  V30 2096 O 198.211 0.478736 -1.84696 0
M  V30 2097 C 195.351 0.411825 -3.42634 0
M  V30 2098 C 194.464 -0.531651 -4.28716 0
M  V30 2099 C 193.599 0.258167 -5.30572 0
M  V30 2100 C 192.638 -0.680349 -6.08307 0
M  V30 2101 N 191.775 0.0745613 -7.0206 0
M  V30 2102 H 196.615 -1.20254 -2.72659 0
M  V30 2103 H 194.152 -0.604352 -1.34112 0
M  V30 2104 H 196.11 0.876304 -4.07893 0
M  V30 2105 H 194.74 1.21715 -2.98974 0
M  V30 2106 H 193.792 -1.11463 -3.63703 0
M  V30 2107 H 195.104 -1.25038 -4.82874 0
M  V30 2108 H 194.258 0.784204 -6.0161 0
M  V30 2109 H 192.997 1.01008 -4.77126 0
M  V30 2110 H 192.002 -1.21796 -5.3614 0
M  V30 2111 H 193.227 -1.43145 -6.63842 0
M  V30 2112 H 191.173 0.808883 -6.50994 0
M  V30 2113 H 191.09 -0.584409 -7.53738 0
M  V30 2114 H 192.358 0.581123 -7.77331 0
M  V30 2115 N 196.587 1.43421 -0.653314 0
M  V30 2116 C 197.534 2.30768 0.0382271 0
M  V30 2117 C 198.504 1.44755 0.814576 0
M  V30 2118 O 199.689 1.73624 0.791162 0
M  V30 2119 C 196.829 3.30336 0.998599 0
M  V30 2120 C 195.942 4.31448 0.218342 0
M  V30 2121 C 195.077 5.18098 1.17252 0
M  V30 2122 C 194.116 6.10902 0.382702 0
M  V30 2123 N 193.253 6.90176 1.28848 0
M  V30 2124 H 198.093 2.89357 -0.712511 0
M  V30 2125 H 195.63 1.42548 -0.363128 0
M  V30 2126 H 197.588 3.86572 1.56901 0
M  V30 2127 H 196.218 2.73397 1.71621 0
M  V30 2128 H 195.27 3.77506 -0.46836 0
M  V30 2129 H 196.582 4.97227 -0.395812 0
M  V30 2130 H 195.736 5.7896 1.81356 0
M  V30 2131 H 194.475 4.52444 1.82058 0
M  V30 2132 H 193.48 5.49128 -0.27169 0
M  V30 2133 H 194.705 6.78598 -0.260957 0
M  V30 2134 H 192.651 6.27171 1.92334 0
M  V30 2135 H 192.568 7.52478 0.728887 0
M  V30 2136 H 193.836 7.55543 1.91766 0
M  V30 2137 N 198.065 0.39524 1.52563 0
M  V30 2138 C 199.311 -0.185318 2.01952 0
M  V30 2139 C 199.644 -1.45964 1.28095 0
M  V30 2140 O 198.919 -1.90689 0.38315 0
M  V30 2141 C 199.202 -0.447193 3.57312 0
M  V30 2142 C 199.055 0.842828 4.41833 0
M  V30 2143 C 200.374 -1.23529 4.22408 0
M  V30 2144 H 197.493 -0.0658788 0.73405 0
M  V30 2145 H 200.135 0.525975 1.82575 0
M  V30 2146 H 198.285 -1.05312 3.73954 0
M  V30 2147 H 199.957 1.4795 4.36931 0
M  V30 2148 H 198.2 1.45686 4.08605 0
M  V30 2149 H 198.871 0.614165 5.48573 0
M  V30 2150 H 201.347 -0.722445 4.0978 0
M  V30 2151 H 200.223 -1.38727 5.3108 0
M  V30 2152 H 200.484 -2.25213 3.80436 0
M  V30 2153 N 199.544 -1.57102 0.125237 0
M  V30 2154 C 200.507 -2.14471 -0.80838 0
M  V30 2155 C 201.507 -1.0811 -1.19033 0
M  V30 2156 O 202.697 -1.33856 -1.11482 0
M  V30 2157 C 199.829 -2.69005 -2.09402 0
M  V30 2158 H 201.022 -2.98297 -0.309696 0
M  V30 2159 H 198.575 -1.55807 -0.124051 0
M  V30 2160 H 199.31 -1.88785 -2.63687 0
M  V30 2161 H 199.095 -3.46799 -1.82957 0
M  V30 2162 H 200.585 -3.13278 -2.76128 0
M  V30 2163 N 201.022 0.148545 -1.56898 0
M  V30 2164 C 202.269 0.861418 -1.83264 0
M  V30 2165 C 202.597 1.81239 -0.705883 0
M  V30 2166 O 201.852 1.93305 0.305212 0
M  V30 2167 C 202.151 1.67064 -3.1595 0
M  V30 2168 C 201.817 0.866591 -4.42494 0
M  V30 2169 C 200.479 0.644762 -4.76861 0
M  V30 2170 C 202.831 0.30418 -5.20312 0
M  V30 2171 C 200.159 -0.15021 -5.86508 0
M  V30 2172 C 202.511 -0.477824 -6.30793 0
M  V30 2173 C 201.175 -0.710244 -6.63711 0
M  V30 2174 H 200.445 0.315215 -0.670612 0
M  V30 2175 H 203.092 0.125142 -1.91091 0
M  V30 2176 H 201.397 2.47698 -3.03567 0
M  V30 2177 H 203.094 2.22566 -3.33565 0
M  V30 2178 H 199.684 1.04955 -4.15551 0
M  V30 2179 H 203.868 0.462844 -4.94137 0
M  V30 2180 H 199.124 -0.339796 -6.10455 0
M  V30 2181 H 203.298 -0.92076 -6.90286 0
M  V30 2182 H 200.925 -1.3281 -7.48509 0
M  V30 2183 N 202.5 1.5196 0.417844 0
M  V30 2184 C 203.463 1.74065 1.49111 0
M  V30 2185 C 204.463 0.610537 1.48758 0
M  V30 2186 O 205.653 0.87832 1.50437 0
M  V30 2187 C 202.785 1.81502 2.88565 0
M  V30 2188 H 203.978 2.69869 1.30807 0
M  V30 2189 H 201.531 1.42244 0.647785 0
M  V30 2190 H 202.266 0.875813 3.1225 0
M  V30 2191 H 202.051 2.63651 2.90225 0
M  V30 2192 H 203.541 2.00376 3.66387 0
M  V30 2193 N 203.978 -0.674533 1.42435 0
M  V30 2194 C 204.91 -1.80005 1.41883 0
M  V30 2195 C 205.923 -1.59667 0.31787 0
M  V30 2196 O 207.112 -1.68781 0.580973 0
M  V30 2197 C 204.212 -3.17114 1.19549 0
M  V30 2198 C 203.385 -3.64299 2.42084 0
M  V30 2199 C 202.444 -4.80142 2.15291 0
M  V30 2200 O 201.47 -4.90673 2.88493 0
M  V30 2201 N 202.672 -5.68869 1.1562 0
M  V30 2202 H 205.437 -1.80964 2.38898 0
M  V30 2203 H 202.998 -0.857633 1.37318 0
M  V30 2204 H 204.99 -3.92267 0.995417 0
M  V30 2205 H 203.56 -3.11053 0.310569 0
M  V30 2206 H 202.78 -2.79822 2.77657 0
M  V30 2207 H 204.068 -3.92567 3.23679 0
M  V30 2208 H 203.466 -5.63012 0.550765 0
M  V30 2209 H 202.023 -6.43833 1.016 0
M  V30 2210 N 205.456 -1.28612 -0.910864 0
M  V30 2211 C 206.403 -1.12786 -2.01365 0
M  V30 2212 C 207.373 -0.024201 -1.66082 0
M  V30 2213 O 208.558 -0.189667 -1.89855 0
M  V30 2214 C 205.698 -0.798743 -3.35729 0
M  V30 2215 C 204.811 -1.98173 -3.83864 0
M  V30 2216 C 203.946 -1.59298 -5.06752 0
M  V30 2217 C 202.985 -2.74245 -5.47226 0
M  V30 2218 N 202.122 -2.35842 -6.61304 0
M  V30 2219 H 206.962 -2.07142 -2.14234 0
M  V30 2220 H 204.499 -1.03093 -1.0493 0
M  V30 2221 H 206.457 -0.588662 -4.13026 0
M  V30 2222 H 205.087 0.10789 -3.2262 0
M  V30 2223 H 204.139 -2.30386 -3.02699 0
M  V30 2224 H 205.451 -2.84343 -4.09818 0
M  V30 2225 H 204.605 -1.34513 -5.916 0
M  V30 2226 H 203.344 -0.702618 -4.82612 0
M  V30 2227 H 202.349 -2.99725 -4.60918 0
M  V30 2228 H 203.574 -3.63928 -5.73353 0
M  V30 2229 H 201.52 -1.49279 -6.38789 0
M  V30 2230 H 201.437 -3.15546 -6.86998 0
M  V30 2231 H 202.705 -2.14348 -7.4945 0
M  V30 2232 N 206.934 1.1197 -1.10907 0
M  V30 2233 C 208.345 1.65114 -0.871446 0
M  V30 2234 C 208.696 1.86885 0.597353 0
M  V30 2235 O 207.821 1.59896 1.45816 0
M  V30 2236 C 208.416 2.99944 -1.5754 0
M  V30 2237 C 206.975 3.50018 -1.38435 0
M  V30 2238 C 206.122 2.24941 -1.62164 0
M  V30 2239 H 209.073 0.956851 -1.2661 0
M  V30 2240 H 209.094 3.66651 -1.01721 0
M  V30 2241 H 208.606 2.84067 -2.64438 0
M  V30 2242 H 206.707 3.71071 -0.337214 0
M  V30 2243 H 206.82 4.29165 -2.12965 0
M  V30 2244 H 205.184 2.3229 -1.04467 0
M  V30 2245 H 205.967 2.11612 -2.70324 0
M  V30 2246 N 208.412 0.89855 1.29475 0
M  V30 2247 C 209.36 0.365253 2.29714 0
M  V30 2248 C 210.354 -0.534993 1.6073 0
M  V30 2249 O 211.56 -0.417921 1.75081 0
M  V30 2250 H 207.935 0.0994853 0.74539 0
M  V30 2251 H 209.906 1.22406 2.72138 0
M  V30 2252 C 208.655 -0.393159 3.4547 0
M  V30 2253 H 207.978 0.290332 3.98744 0
M  V30 2254 H 209.418 -0.731189 4.17648 0
M  V30 2255 C 207.877 -1.59539 2.9673 0
M  V30 2256 O 208.407 -2.69469 2.97908 0
M  V30 2257 N 206.613 -1.43716 2.52575 0
M  V30 2258 H 206.16 -0.542828 2.51816 0
M  V30 2259 H 206.118 -2.24288 2.20323 0
M  V30 2260 N 209.89 -1.43072 0.660911 0
M  V30 2261 C 210.853 -2.29194 -0.0166406 0
M  V30 2262 C 211.853 -1.42609 -0.742912 0
M  V30 2263 O 213.043 -1.64155 -0.583004 0
M  V30 2264 C 210.175 -3.24831 -1.0343 0
M  V30 2265 H 211.368 -2.90596 0.741208 0
M  V30 2266 H 208.921 -1.5048 0.422532 0
M  V30 2267 H 209.656 -2.68339 -1.82111 0
M  V30 2268 H 209.441 -3.88676 -0.517082 0
M  V30 2269 H 210.931 -3.89451 -1.50723 0
M  V30 2270 N 211.368 -0.403325 -1.52352 0
M  V30 2271 C 212.331 0.413051 -2.25447 0
M  V30 2272 C 213.331 0.978513 -1.276 0
M  V30 2273 O 214.521 0.858305 -1.51587 0
M  V30 2274 C 211.653 1.58087 -3.02029 0
M  V30 2275 H 212.846 -0.227094 -2.99039 0
M  V30 2276 H 210.399 -0.155722 -1.55522 0
M  V30 2277 H 211.134 2.25804 -2.32772 0
M  V30 2278 H 210.919 1.18195 -3.73861 0
M  V30 2279 H 212.409 2.1585 -3.57489 0
M  V30 2280 N 212.846 1.57033 -0.133567 0
M  V30 2281 C 214.123 1.87256 0.56522 0
M  V30 2282 C 214.503 1.03726 1.83859 0
M  V30 2283 O 213.851 0.120247 2.28183 0
M  V30 2284 C 214.061 3.3865 0.843636 0
M  V30 2285 C 215.409 4.07574 1.19032 0
M  V30 2286 O 216.433 3.43752 0.933429 0
M  V30 2287 O 215.292 5.20259 1.67312 0
M  V30 2288 H 212.386 0.775678 0.286796 0
M  V30 2289 H 214.932 1.68855 -0.169168 0
M  V30 2290 H 213.704 3.91257 -0.0581149 0
M  V30 2291 H 213.327 3.62532 1.63268 0
M  V30 2292 N 214.325 -0.140222 1.56975 0
M  V30 2293 C 215.235 -1.19223 2.02047 0
M  V30 2294 C 216.251 -1.46612 0.937062 0
M  V30 2295 O 217.427 -1.58148 1.24704 0
M  V30 2296 C 214.492 -2.50414 2.39778 0
M  V30 2297 C 213.553 -2.30612 3.621 0
M  V30 2298 C 212.786 -3.55547 3.98023 0
M  V30 2299 O 213.009 -4.62004 3.34528 0
M  V30 2300 O 211.943 -3.47808 4.91237 0
M  V30 2301 H 215.769 -0.839559 2.91865 0
M  V30 2302 H 213.354 -0.349453 1.45256 0
M  V30 2303 H 215.236 -3.27747 2.64877 0
M  V30 2304 H 213.911 -2.85198 1.53114 0
M  V30 2305 H 212.818 -1.51207 3.4218 0
M  V30 2306 H 214.151 -2.00741 4.49404 0
M  V30 2307 N 215.803 -1.52179 -0.40978 0
M  V30 2308 C 216.766 -1.74853 -1.48186 0
M  V30 2309 C 217.766 -0.618417 -1.48433 0
M  V30 2310 O 218.956 -0.886286 -1.49969 0
M  V30 2311 C 216.088 -1.8303 -2.87598 0
M  V30 2312 H 217.281 -2.70559 -1.29374 0
M  V30 2313 H 214.834 -1.42586 -0.640233 0
M  V30 2314 H 215.569 -0.89236 -3.11781 0
M  V30 2315 H 215.354 -2.65187 -2.88822 0
M  V30 2316 H 216.844 -2.02316 -3.65319 0
M  V30 2317 N 217.281 0.66697 -1.42791 0
M  V30 2318 C 218.527 1.4291 -1.43891 0
M  V30 2319 C 218.86 1.94114 -0.0578972 0
M  V30 2320 O 218.135 1.71414 0.91911 0
M  V30 2321 C 218.418 2.62049 -2.46987 0
M  V30 2322 C 218.271 2.16426 -3.94309 0
M  V30 2323 C 219.59 3.64266 -2.46978 0
M  V30 2324 H 216.709 0.518306 -0.523954 0
M  V30 2325 H 219.351 0.757321 -1.74255 0
M  V30 2326 H 217.501 3.19361 -2.21225 0
M  V30 2327 H 219.173 1.64221 -4.31079 0
M  V30 2328 H 217.416 1.47925 -4.078 0
M  V30 2329 H 218.087 3.02038 -4.62036 0
M  V30 2330 H 220.563 3.16686 -2.69906 0
M  V30 2331 H 219.439 4.45196 -3.21079 0
M  V30 2332 H 219.7 4.15927 -1.49857 0
M  V30 2333 N 218.759 1.29093 0.90403 0
M  V30 2334 C 219.689 1.16401 2.02418 0
M  V30 2335 C 220.67 0.0593085 1.69997 0
M  V30 2336 O 221.855 0.238021 1.92736 0
M  V30 2337 C 218.985 0.835233 3.37107 0
M  V30 2338 C 217.939 1.89578 3.83724 0
M  V30 2339 C 217.265 1.42041 5.15489 0
M  V30 2340 C 218.565 3.30394 4.04521 0
M  V30 2341 H 220.259 2.10109 2.13295 0
M  V30 2342 H 217.805 1.01157 1.02486 0
M  V30 2343 H 219.758 0.733169 4.14973 0
M  V30 2344 H 218.482 -0.137543 3.2631 0
M  V30 2345 H 217.141 1.98715 3.08071 0
M  V30 2346 H 216.789 0.436426 5.01103 0
M  V30 2347 H 216.489 2.12964 5.4765 0
M  V30 2348 H 218.013 1.33176 5.959 0
M  V30 2349 H 219.427 3.24123 4.72882 0
M  V30 2350 H 217.824 3.99237 4.48029 0
M  V30 2351 H 218.894 3.73692 3.09002 0
M  V30 2352 N 220.237 -1.11381 1.11499 0
M  V30 2353 C 221.187 -2.15555 0.74298 0
M  V30 2354 C 222.171 -1.58894 -0.253276 0
M  V30 2355 O 223.363 -1.76897 -0.0602918 0
M  V30 2356 C 220.492 -3.42782 0.188481 0
M  V30 2357 C 219.578 -4.064 1.21244 0
M  V30 2358 N 219.969 -4.44864 2.40685 0
M  V30 2359 C 218.267 -4.3333 1.05552 0
M  V30 2360 C 218.968 -4.94715 3.05994 0
M  V30 2361 N 217.944 -4.90909 2.33472 0
M  V30 2362 H 221.746 -2.43074 1.65203 0
M  V30 2363 H 219.26 -1.28401 0.994329 0
M  V30 2364 H 221.257 -4.16789 -0.0961693 0
M  V30 2365 H 219.917 -3.16727 -0.715149 0
M  V30 2366 H 220.928 -4.36876 2.78136 0
M  V30 2367 H 217.605 -4.1698 0.208372 0
M  V30 2368 H 218.995 -5.34103 4.07656 0
M  V30 2369 N 221.715 -0.905404 -1.28997 0
M  V30 2370 C 222.961 -0.535039 -1.95615 0
M  V30 2371 C 223.294 0.917404 -1.71165 0
M  V30 2372 O 222.569 1.65123 -1.02785 0
M  V30 2373 C 222.852 -0.834918 -3.50287 0
M  V30 2374 C 222.705 -2.33948 -3.84172 0
M  V30 2375 C 224.024 -0.325318 -4.38896 0
M  V30 2376 H 221.143 -0.195861 -0.710498 0
M  V30 2377 H 223.785 -1.13313 -1.52513 0
M  V30 2378 H 221.935 -0.325904 -3.87131 0
M  V30 2379 H 223.607 -2.91847 -3.57243 0
M  V30 2380 H 221.85 -2.79789 -3.31513 0
M  V30 2381 H 222.521 -2.49987 -4.92149 0
M  V30 2382 H 224.997 -0.761256 -4.09077 0
M  V30 2383 H 223.873 -0.564295 -5.45992 0
M  V30 2384 H 224.134 0.774144 -4.35269 0
M  V30 2385 N 223.193 1.4272 -0.668489 0
M  V30 2386 C 224.442 2.00846 -0.185389 0
M  V30 2387 C 224.755 1.53442 1.21305 0
M  V30 2388 O 225.961 2.03944 1.79218 0
M  V30 2389 C 224.417 3.58805 -0.280591 0
M  V30 2390 C 224.025 4.15198 -1.68268 0
M  V30 2391 C 225.769 4.24255 0.14412 0
M  V30 2392 C 223.676 5.655 -1.73099 0
M  V30 2393 H 222.606 0.751145 -0.0655475 0
M  V30 2394 H 225.257 1.63516 -0.832752 0
M  V30 2395 H 223.639 3.93608 0.434553 0
M  V30 2396 H 224.813 3.91866 -2.42441 0
M  V30 2397 H 223.128 3.62176 -2.05469 0
M  V30 2398 H 225.725 5.34547 0.128086 0
M  V30 2399 H 226.068 3.99277 1.17827 0
M  V30 2400 H 226.601 3.94389 -0.519798 0
M  V30 2401 H 223.34 5.95268 -2.74475 0
M  V30 2402 H 222.86 5.90842 -1.03274 0
M  V30 2403 H 224.539 6.29808 -1.48158 0
M  V30 2404 N 224.671 0.411399 1.52136 0
M  V30 2405 C 225.948 -0.222308 1.94333 0
M  V30 2406 C 226.328 -1.6242 1.34844 0
M  V30 2407 O 225.676 -2.22384 0.525145 0
M  V30 2408 C 225.886 -0.226345 3.48265 0
M  V30 2409 C 227.234 -0.444592 4.22266 0
M  V30 2410 O 228.258 -0.305602 3.54887 0
M  V30 2411 O 227.117 -0.718749 5.41753 0
M  V30 2412 H 224.211 -0.143907 0.814383 0
M  V30 2413 H 226.757 0.467506 1.63133 0
M  V30 2414 H 225.529 0.75475 3.83952 0
M  V30 2415 H 225.152 -0.960163 3.85832 0
M  V30 2416 N 226.149 -1.5696 0.141893 0
M  V30 2417 C 227.395 -1.9625 -0.511248 0
M  V30 2418 C 227.728 -1.02654 -1.64851 0
M  V30 2419 O 227.003 -0.0679676 -1.94381 0
M  V30 2420 C 227.286 -3.45285 -1.02227 0
M  V30 2421 C 227.139 -4.49658 0.113138 0
M  V30 2422 C 228.458 -3.96698 -1.90574 0
M  V30 2423 H 225.577 -0.713567 -0.184367 0
M  V30 2424 H 228.219 -1.88698 0.222087 0
M  V30 2425 H 226.369 -3.51852 -1.64719 0
M  V30 2426 H 228.041 -4.55174 0.749302 0
M  V30 2427 H 226.284 -4.26857 0.773026 0
M  V30 2428 H 226.955 -5.51258 -0.286053 0
M  V30 2429 H 229.431 -3.92578 -1.37918 0
M  V30 2430 H 228.307 -5.01453 -2.2324 0
M  V30 2431 H 228.568 -3.3875 -2.84079 0
M  V30 2432 N 227.627 0.131896 -1.57047 0
M  V30 2433 C 228.904 0.871495 -1.75112 0
M  V30 2434 C 229.284 1.9866 -0.713949 0
M  V30 2435 O 228.632 2.26965 0.264447 0
M  V30 2436 C 228.842 1.40007 -3.19686 0
M  V30 2437 C 230.19 1.85752 -3.81813 0
M  V30 2438 O 231.214 1.49715 -3.23209 0
M  V30 2439 O 230.073 2.5226 -4.84796 0
M  V30 2440 H 227.167 0.412919 -0.716538 0
M  V30 2441 H 229.713 0.116641 -1.69299 0
M  V30 2442 H 228.485 0.599404 -3.86682 0
M  V30 2443 H 228.108 2.218 -3.29986 0
M  V30 2444 N 229.106 1.52395 0.401703 0
M  V30 2445 C 230.331 1.70972 1.17403 0
M  V30 2446 C 230.756 0.421615 1.83314 0
M  V30 2447 O 230.114 -0.621564 1.70312 0
M  V30 2448 C 230.162 2.85151 2.20728 0
M  V30 2449 O 229.266 2.51238 3.27037 0
M  V30 2450 H 228.607 0.568927 0.342372 0
M  V30 2451 H 231.137 1.99131 0.469891 0
M  V30 2452 H 231.147 3.10279 2.64936 0
M  V30 2453 H 229.822 3.78603 1.7214 0
M  V30 2454 H 228.399 2.36808 2.88057 0
M  V30 2455 N 230.584 -0.659388 1.43143 0
M  V30 2456 C 231.832 -1.41654 1.44147 0
M  V30 2457 C 232.153 -1.94893 0.0645739 0
M  V30 2458 O 231.423 -1.74044 -0.899198 0
M  V30 2459 H 230.003 -0.525708 0.530697 0
M  V30 2460 H 232.665 -0.778097 1.78694 0
M  V30 2461 H 231.761 -2.26195 2.1504 0
M  V30 2462 N 232.062 -1.29571 -0.897171 0
M  V30 2463 C 232.972 -1.16808 -2.03453 0
M  V30 2464 C 233.988 -0.0907471 -1.73763 0
M  V30 2465 O 235.164 -0.303312 -1.99103 0
M  V30 2466 C 232.229 -0.848264 -3.36163 0
M  V30 2467 C 231.29 -2.0097 -3.79354 0
M  V30 2468 C 230.523 -1.70505 -5.05731 0
M  V30 2469 O 230.746 -0.62718 -5.66941 0
M  V30 2470 O 229.68 -2.5538 -5.45036 0
M  V30 2471 H 233.506 -2.12325 -2.17144 0
M  V30 2472 H 231.091 -1.09047 -1.02123 0
M  V30 2473 H 232.973 -0.684581 -4.15802 0
M  V30 2474 H 231.648 0.0771071 -3.23608 0
M  V30 2475 H 230.555 -2.22863 -3.00471 0
M  V30 2476 H 231.888 -2.91636 -3.96496 0
M  V30 2477 N 233.54 1.10788 -1.12088 0
M  V30 2478 C 234.786 1.8313 -0.885148 0
M  V30 2479 C 235.141 1.8336 0.582839 0
M  V30 2480 O 234.434 1.28062 1.42516 0
M  V30 2481 C 234.628 3.29294 -1.38926 0
M  V30 2482 C 234.457 3.43302 -2.90472 0
M  V30 2483 C 233.227 3.55928 -3.58669 0
M  V30 2484 C 235.425 3.37014 -3.88492 0
M  V30 2485 N 233.407 3.58475 -4.98366 0
M  V30 2486 C 234.778 3.46263 -5.14298 0
M  V30 2487 C 236.833 3.20589 -3.80955 0
M  V30 2488 C 235.536 3.4078 -6.33452 0
M  V30 2489 C 237.562 3.16427 -4.99628 0
M  V30 2490 C 236.924 3.26253 -6.2429 0
M  V30 2491 H 233.023 0.685054 -0.377128 0
M  V30 2492 H 235.607 1.3251 -1.4265 0
M  V30 2493 H 233.778 3.78416 -0.874999 0
M  V30 2494 H 235.51 3.89578 -1.09596 0
M  V30 2495 H 232.265 3.58779 -3.09151 0
M  V30 2496 H 232.689 3.6337 -5.71219 0
M  V30 2497 H 237.331 3.11873 -2.85474 0
M  V30 2498 H 235.049 3.48263 -7.29204 0
M  V30 2499 H 238.635 3.04874 -4.95523 0
M  V30 2500 H 237.515 3.2303 -7.14578 0
M  V30 2501 N 235.018 0.912232 1.28515 0
M  V30 2502 C 236.243 0.559774 1.99703 0
M  V30 2503 C 236.668 -0.851393 1.67729 0
M  V30 2504 O 236.026 -1.56875 0.908834 0
M  V30 2505 C 236.074 0.773874 3.52198 0
M  V30 2506 O 235.178 -0.167842 4.12058 0
M  V30 2507 H 234.519 0.21723 0.627461 0
M  V30 2508 H 237.049 1.22725 1.63706 0
M  V30 2509 H 237.059 0.683386 4.02236 0
M  V30 2510 H 235.734 1.80261 3.74805 0
M  V30 2511 H 234.311 -0.0287509 3.72889 0
M  V30 2512 N 236.496 -1.42363 0.676048 0
M  V30 2513 C 237.443 -2.308 -0.00150904 0
M  V30 2514 C 238.413 -1.46032 -0.791444 0
M  V30 2515 O 239.598 -1.74861 -0.76344 0
M  V30 2516 C 236.738 -3.31883 -0.945919 0
M  V30 2517 C 235.851 -4.31741 -0.149675 0
M  V30 2518 C 234.986 -5.19898 -1.08995 0
M  V30 2519 C 234.025 -6.11434 -0.285465 0
M  V30 2520 N 233.162 -6.92138 -1.17851 0
M  V30 2521 H 238.002 -2.88187 0.758455 0
M  V30 2522 H 235.539 -1.41952 0.38576 0
M  V30 2523 H 237.497 -3.89019 -1.50731 0
M  V30 2524 H 236.127 -2.76093 -1.6725 0
M  V30 2525 H 235.179 -3.76713 0.528359 0
M  V30 2526 H 236.491 -4.96534 0.474866 0
M  V30 2527 H 235.645 -5.81772 -1.72123 0
M  V30 2528 H 234.384 -4.55284 -1.74837 0
M  V30 2529 H 233.389 -5.48627 0.359018 0
M  V30 2530 H 234.614 -6.78097 0.368883 0
M  V30 2531 H 232.56 -6.30152 -1.82332 0
M  V30 2532 H 232.477 -7.53542 -0.609082 0
M  V30 2533 H 233.745 -7.58499 -1.79722 0
M  V30 2534 N 237.974 -0.419461 -1.51915 0
M  V30 2535 C 239.22 0.153166 -2.02221 0
M  V30 2536 C 239.553 1.43907 -1.30401 0
M  V30 2537 O 238.828 1.90055 -0.413438 0
M  V30 2538 C 239.111 0.390291 -3.57979 0
M  V30 2539 C 238.964 -0.913014 -4.40436 0
M  V30 2540 C 240.283 1.16794 -4.2432 0
M  V30 2541 H 237.402 0.0541924 -0.735005 0
M  V30 2542 H 240.044 -0.554955 -1.81715 0
M  V30 2543 H 238.194 0.993491 -3.75582 0
M  V30 2544 H 239.866 -1.54882 -4.34522 0
M  V30 2545 H 238.109 -1.52168 -4.06236 0
M  V30 2546 H 238.78 -0.701361 -5.47526 0
M  V30 2547 H 241.256 0.657161 -4.10878 0
M  V30 2548 H 240.132 1.3026 -5.3322 0
M  V30 2549 H 240.393 2.19132 -3.83971 0
M  V30 2550 N 239.452 1.56882 -0.150215 0
M  V30 2551 C 240.729 1.87844 0.545327 0
M  V30 2552 C 241.109 1.0567 1.82749 0
M  V30 2553 O 240.457 0.144442 2.28043 0
M  V30 2554 C 240.667 3.39526 0.80767 0
M  V30 2555 C 242.015 4.08814 1.14703 0
M  V30 2556 O 243.039 3.44723 0.896917 0
M  V30 2557 O 241.898 5.22004 1.61784 0
M  V30 2558 H 238.992 0.778677 0.278553 0
M  V30 2559 H 241.538 1.68666 -0.187068 0
M  V30 2560 H 240.31 3.91173 -0.0996096 0
M  V30 2561 H 239.933 3.64243 1.59413 0
M  V30 2562 N 240.93 -0.123565 1.57115 0
M  V30 2563 C 242.176 -0.833386 1.84885 0
M  V30 2564 C 242.509 -1.79742 0.735292 0
M  V30 2565 O 241.784 -1.92764 -0.25925 0
M  V30 2566 C 242.067 -1.5873 3.23228 0
M  V30 2567 C 241.92 -0.643183 4.45178 0
M  V30 2568 C 243.239 -2.54453 3.59085 0
M  V30 2569 H 240.358 -0.301518 0.6725 0
M  V30 2570 H 243 -0.097778 1.89748 0
M  V30 2571 H 241.15 -2.21438 3.19214 0
M  V30 2572 H 242.822 -0.0253015 4.61293 0
M  V30 2573 H 241.065 0.0456139 4.33776 0
M  V30 2574 H 241.736 -1.20724 5.38637 0
M  V30 2575 H 244.212 -2.01853 3.63861 0
M  V30 2576 H 243.088 -3.04238 4.5687 0
M  V30 2577 H 243.349 -3.36906 2.86264 0
M  V30 2578 N 242.408 -1.52605 -0.393616 0
M  V30 2579 C 243.657 -1.66649 -1.13627 0
M  V30 2580 C 243.97 -0.410364 -1.91247 0
M  V30 2581 O 245.176 -0.430854 -2.68059 0
M  V30 2582 C 243.632 -2.9449 -2.06891 0
M  V30 2583 C 243.24 -4.27266 -1.34714 0
M  V30 2584 C 244.984 -3.17899 -2.81319 0
M  V30 2585 C 242.891 -5.46217 -2.26717 0
M  V30 2586 H 241.821 -0.62084 -0.427871 0
M  V30 2587 H 244.472 -1.791 -0.399428 0
M  V30 2588 H 242.854 -2.75774 -2.84191 0
M  V30 2589 H 244.028 -4.56518 -0.626714 0
M  V30 2590 H 242.343 -4.10081 -0.722643 0
M  V30 2591 H 244.94 -4.03949 -3.50328 0
M  V30 2592 H 245.283 -2.32777 -3.45139 0
M  V30 2593 H 245.816 -3.37159 -2.11113 0
M  V30 2594 H 242.555 -6.33733 -1.67521 0
M  V30 2595 H 242.075 -5.21283 -2.96689 0
M  V30 2596 H 243.754 -5.7991 -2.86903 0
M  V30 2597 N 243.887 0.651787 -1.4349 0
M  V30 2598 C 244.797 1.79368 -1.5121 0
M  V30 2599 C 245.813 1.69361 -0.399093 0
M  V30 2600 O 246.989 1.90505 -0.653431 0
M  V30 2601 C 244.054 3.15653 -1.43401 0
M  V30 2602 C 243.115 3.37446 -2.65384 0
M  V30 2603 C 242.348 4.67229 -2.57939 0
M  V30 2604 O 242.571 5.46676 -1.62792 0
M  V30 2605 O 241.505 4.90773 -3.48462 0
M  V30 2606 H 245.331 1.7581 -2.47638 0
M  V30 2607 H 242.916 0.810447 -1.25507 0
M  V30 2608 H 244.798 3.96935 -1.41494 0
M  V30 2609 H 243.473 3.19798 -0.501085 0
M  V30 2610 H 242.38 2.55923 -2.72863 0
M  V30 2611 H 243.713 3.38148 -3.57654 0
M  V30 2612 N 245.365 1.30045 0.890287 0
M  V30 2613 C 246.613 1.18327 1.63839 0
M  V30 2614 C 246.934 -0.263455 1.93212 0
M  V30 2615 O 246.204 -1.17856 1.56482 0
M  V30 2616 H 244.784 0.434933 0.607324 0
M  V30 2617 H 247.446 1.631 1.06698 0
M  V30 2618 H 246.542 1.74024 2.59079 0
M  V30 2619 N 246.843 -1.10192 1.12674 0
M  V30 2620 C 248.091 -1.81845 0.881861 0
M  V30 2621 C 248.412 -1.85737 -0.593867 0
M  V30 2622 O 247.682 -1.33724 -1.4316 0
M  V30 2623 H 246.262 -0.673432 0.323261 0
M  V30 2624 H 248.924 -1.33316 1.42172 0
M  V30 2625 H 248.02 -2.85288 1.2656 0
M  V30 2626 N 248.321 -0.919034 -1.28029 0
M  V30 2627 C 249.268 -0.410005 -2.27129 0
M  V30 2628 C 250.238 0.518405 -1.57803 0
M  V30 2629 O 251.423 0.439451 -1.8567 0
M  V30 2630 C 248.563 0.339054 -3.4343 0
M  V30 2631 C 247.676 -0.622468 -4.27492 0
M  V30 2632 C 246.811 0.145567 -5.31001 0
M  V30 2633 C 245.85 -0.809226 -6.06727 0
M  V30 2634 N 244.987 -0.0743728 -7.02061 0
M  V30 2635 H 249.827 -1.26011 -2.70047 0
M  V30 2636 H 247.364 -0.632663 -1.328 0
M  V30 2637 H 249.322 0.789586 -4.0966 0
M  V30 2638 H 247.952 1.15346 -3.01488 0
M  V30 2639 H 247.004 -1.19153 -3.61257 0
M  V30 2640 H 248.316 -1.35252 -4.80113 0
M  V30 2641 H 247.47 0.656417 -6.03139 0
M  V30 2642 H 246.209 0.908643 -4.79161 0
M  V30 2643 H 245.214 -1.3314 -5.33436 0
M  V30 2644 H 246.439 -1.57194 -6.60656 0
M  V30 2645 H 244.385 0.670616 -6.52563 0
M  V30 2646 H 244.302 -0.744157 -7.52329 0
M  V30 2647 H 245.57 0.416109 -7.78389 0
M  V30 2648 N 249.799 1.42003 -0.683588 0
M  V30 2649 C 251.029 2.05448 -0.217866 0
M  V30 2650 C 251.437 1.51491 1.13346 0
M  V30 2651 O 250.78 0.653048 1.717 0
M  V30 2652 C 250.842 3.59399 -0.0850118 0
M  V30 2653 C 250.506 4.36093 -1.36645 0
M  V30 2654 C 251.503 4.66169 -2.30179 0
M  V30 2655 C 249.188 4.75578 -1.61649 0
M  V30 2656 C 251.182 5.34676 -3.46988 0
M  V30 2657 C 248.869 5.43824 -2.78745 0
M  V30 2658 C 249.867 5.73299 -3.71238 0
M  V30 2659 O 249.555 6.40142 -4.86285 0
M  V30 2660 H 249.287 0.668344 -0.101454 0
M  V30 2661 H 251.841 1.82974 -0.933248 0
M  V30 2662 H 250.071 3.80566 0.686031 0
M  V30 2663 H 251.76 4.04457 0.341973 0
M  V30 2664 H 252.526 4.36156 -2.12115 0
M  V30 2665 H 248.405 4.52025 -0.905243 0
M  V30 2666 H 251.949 5.57599 -4.19201 0
M  V30 2667 H 247.846 5.73254 -2.96732 0
M  V30 2668 H 248.614 6.58636 -4.85944 0
M  V30 2669 N 251.277 0.427512 1.51691 0
M  V30 2670 C 252.24 -0.377132 2.26076 0
M  V30 2671 C 253.24 -0.958089 1.29141 0
M  V30 2672 O 254.43 -0.83408 1.52934 0
M  V30 2673 C 251.562 -1.53262 3.04506 0
M  V30 2674 H 252.755 0.27464 2.9864 0
M  V30 2675 H 250.308 0.180445 1.55255 0
M  V30 2676 H 251.043 -2.22072 2.36335 0
M  V30 2677 H 250.828 -1.12232 3.75694 0
M  V30 2678 H 252.318 -2.10135 3.60878 0
M  V30 2679 N 252.755 -1.56801 0.158532 0
M  V30 2680 C 253.983 -2.00859 -0.496303 0
M  V30 2681 C 254.398 -1.03871 -1.57659 0
M  V30 2682 O 253.755 -0.0375165 -1.82461 0
M  V30 2683 C 253.806 -3.4479 -1.08638 0
M  V30 2684 O 253.527 -4.38072 -0.0492322 0
M  V30 2685 C 255.028 -4.04185 -1.8207 0
M  V30 2686 H 252.248 -0.65864 -0.128199 0
M  V30 2687 H 254.792 -2.02885 0.256506 0
M  V30 2688 H 252.947 -3.43579 -1.78975 0
M  V30 2689 H 253.361 -5.2227 -0.483102 0
M  V30 2690 H 254.835 -5.06857 -2.18633 0
M  V30 2691 H 255.312 -3.45549 -2.71095 0
M  V30 2692 H 255.918 -4.0906 -1.16405 0
M  V30 2693 N 254.233 0.115231 -1.57178 0
M  V30 2694 C 255.644 0.67197 -1.74188 0
M  V30 2695 C 255.995 1.80125 -0.777777 0
M  V30 2696 O 255.12 2.16346 0.0484376 0
M  V30 2697 C 255.715 1.22573 -3.1585 0
M  V30 2698 C 254.274 1.72872 -3.34353 0
M  V30 2699 C 253.421 0.629972 -2.70049 0
M  V30 2700 H 256.372 -0.110712 -1.58313 0
M  V30 2701 H 256.393 2.09535 -3.17609 0
M  V30 2702 H 255.905 0.403598 -3.85996 0
M  V30 2703 H 254.006 2.5755 -2.69256 0
M  V30 2704 H 254.119 1.83557 -4.42542 0
M  V30 2705 H 252.483 1.0645 -2.31388 0
M  V30 2706 H 253.266 -0.181241 -3.42821 0
M  V30 2707 N 255.711 1.52812 0.385517 0
M  V30 2708 C 256.658 1.77838 1.47113 0
M  V30 2709 C 257.628 0.621757 1.54024 0
M  V30 2710 O 258.813 0.861846 1.70226 0
M  V30 2711 C 255.953 1.95618 2.84302 0
M  V30 2712 C 255.066 3.23316 2.86515 0
M  V30 2713 C 254.201 3.31394 4.15152 0
M  V30 2714 C 253.24 4.53201 4.1143 0
M  V30 2715 N 252.377 4.58542 5.3168 0
M  V30 2716 H 257.217 2.70482 1.25073 0
M  V30 2717 H 254.754 1.34006 0.606692 0
M  V30 2718 H 256.712 2.03912 3.63972 0
M  V30 2719 H 255.342 1.06331 3.04784 0
M  V30 2720 H 254.394 3.24076 1.99195 0
M  V30 2721 H 255.706 4.13045 2.79634 0
M  V30 2722 H 254.86 3.3889 5.03228 0
M  V30 2723 H 253.599 2.39645 4.24761 0
M  V30 2724 H 252.604 4.45827 3.21742 0
M  V30 2725 H 253.829 5.46271 4.03442 0
M  V30 2726 H 251.775 3.69686 5.41912 0
M  V30 2727 H 251.692 5.42148 5.26889 0
M  V30 2728 H 252.96 4.70296 6.21644 0
M  V30 2729 N 257.189 -0.644168 1.43834 0
M  V30 2730 C 258.435 -1.40431 1.47141 0
M  V30 2731 C 258.79 -1.92153 0.0975577 0
M  V30 2732 O 258.083 -1.69924 -0.885232 0
M  V30 2733 C 258.277 -2.59615 2.45631 0
M  V30 2734 C 258.106 -2.1956 3.92458 0
M  V30 2735 C 256.876 -2.07456 4.60749 0
M  V30 2736 C 259.074 -1.79281 4.8204 0
M  V30 2737 N 257.056 -1.60827 5.92459 0
M  V30 2738 C 258.427 -1.43801 6.03093 0
M  V30 2739 C 260.482 -1.66545 4.6922 0
M  V30 2740 C 259.185 -0.968599 7.12749 0
M  V30 2741 C 261.211 -1.21008 5.78888 0
M  V30 2742 C 260.573 -0.864711 6.99072 0
M  V30 2743 H 256.672 -0.509182 0.593513 0
M  V30 2744 H 259.256 -0.740351 1.80075 0
M  V30 2745 H 257.427 -3.23658 2.1471 0
M  V30 2746 H 259.159 -3.26357 2.39318 0
M  V30 2747 H 255.914 -2.275 4.1538 0
M  V30 2748 H 256.338 -1.39848 6.62398 0
M  V30 2749 H 260.98 -1.91883 3.7675 0
M  V30 2750 H 258.698 -0.702715 8.05039 0
M  V30 2751 H 262.284 -1.11631 5.7099 0
M  V30 2752 H 261.164 -0.517736 7.82489 0
M  V30 2753 N 258.668 -1.30515 -0.883378 0
M  V30 2754 C 259.896 -1.22359 -1.66841 0
M  V30 2755 C 260.311 0.213296 -1.87591 0
M  V30 2756 O 259.668 1.14075 -1.42454 0
M  V30 2757 C 259.719 -1.95011 -3.04389 0
M  V30 2758 O 259.44 -3.3309 -2.84575 0
M  V30 2759 C 260.941 -1.93532 -3.98824 0
M  V30 2760 H 258.161 -0.423371 -0.520575 0
M  V30 2761 H 260.705 -1.72167 -1.10357 0
M  V30 2762 H 258.86 -1.48997 -3.57601 0
M  V30 2763 H 259.274 -3.69907 -3.71846 0
M  V30 2764 H 260.748 -2.48902 -4.92699 0
M  V30 2765 H 261.225 -0.914627 -4.29571 0
M  V30 2766 H 261.831 -2.39364 -3.51547 0
M  V30 2767 N 260.146 1.09593 -1.13257 0
M  V30 2768 C 261.557 1.63229 -0.906274 0
M  V30 2769 C 261.908 1.8811 0.557578 0
M  V30 2770 O 261.033 1.62953 1.42391 0
M  V30 2771 C 261.628 2.96535 -1.63867 0
M  V30 2772 C 260.187 3.47003 -1.45828 0
M  V30 2773 C 259.334 2.2145 -1.66898 0
M  V30 2774 H 262.285 0.92978 -1.28611 0
M  V30 2775 H 262.306 3.64411 -1.09476 0
M  V30 2776 H 261.818 2.78394 -2.70404 0
M  V30 2777 H 259.919 3.70272 -0.415848 0
M  V30 2778 H 260.032 4.24551 -2.2202 0
M  V30 2779 H 258.396 2.30022 -1.09371 0
M  V30 2780 H 259.179 2.0583 -2.74752 0
M  V30 2781 N 261.624 0.925811 1.2754 0
M  V30 2782 C 262.901 0.483726 1.89524 0
M  V30 2783 C 263.281 -1.03809 1.83812 0
M  V30 2784 O 262.629 -1.89143 1.28207 0
M  V30 2785 C 262.839 1.02769 3.33526 0
M  V30 2786 C 264.187 1.08703 4.10449 0
M  V30 2787 O 265.211 0.977175 3.42534 0
M  V30 2788 O 264.07 1.25599 5.31871 0
M  V30 2789 H 261.164 0.15529 0.812289 0
M  V30 2790 H 263.71 1.01738 1.35822 0
M  V30 2791 H 262.482 2.07155 3.31967 0
M  V30 2792 H 262.105 0.475567 3.94746 0
M  V30 2793 N 263.102 -1.41638 0.69111 0
M  V30 2794 C 264.327 -2.06148 0.227583 0
M  V30 2795 C 264.752 -1.51652 -1.11281 0
M  V30 2796 O 264.11 -0.64164 -1.69566 0
M  V30 2797 C 264.158 -3.60095 0.190858 0
M  V30 2798 O 263.262 -4.03845 -0.835664 0
M  V30 2799 H 262.603 -0.654434 0.112306 0
M  V30 2800 H 265.133 -1.81484 0.944714 0
M  V30 2801 H 265.143 -4.07995 0.020207 0
M  V30 2802 H 263.818 -3.99129 1.16915 0
M  V30 2803 H 262.395 -3.67458 -0.63473 0
M  V30 2804 N 264.58 -0.43555 -1.51462 0
M  V30 2805 C 265.527 0.376797 -2.27703 0
M  V30 2806 C 266.497 1.01838 -1.31219 0
M  V30 2807 O 267.682 1.03762 -1.60119 0
M  V30 2808 C 264.822 1.47301 -3.12084 0
M  V30 2809 C 263.935 0.849744 -4.2356 0
M  V30 2810 C 263.07 1.92086 -4.95254 0
M  V30 2811 C 262.109 1.27593 -5.98654 0
M  V30 2812 N 261.246 2.28833 -6.63762 0
M  V30 2813 H 266.086 -0.279734 -2.96684 0
M  V30 2814 H 263.623 -0.149795 -1.46335 0
M  V30 2815 H 265.581 2.11984 -3.59331 0
M  V30 2816 H 264.211 2.0992 -2.45221 0
M  V30 2817 H 263.263 0.0912529 -3.80291 0
M  V30 2818 H 264.575 0.338878 -4.97648 0
M  V30 2819 H 263.729 2.64435 -5.46039 0
M  V30 2820 H 262.468 2.46545 -4.20793 0
M  V30 2821 H 261.473 0.537893 -5.47162 0
M  V30 2822 H 262.698 0.738693 -6.7507 0
M  V30 2823 H 260.644 2.82375 -5.92115 0
M  V30 2824 H 260.561 1.82632 -7.33608 0
M  V30 2825 H 261.829 3.00671 -7.19178 0
M  V30 2826 N 266.058 1.56714 -0.166846 0
M  V30 2827 C 267.306 1.96358 0.478305 0
M  V30 2828 C 267.627 1.0537 1.6408 0
M  V30 2829 O 266.897 0.119154 1.95537 0
M  V30 2830 H 265.477 0.725065 0.179692 0
M  V30 2831 H 268.139 1.93329 -0.246985 0
M  V30 2832 H 267.235 3.00547 0.841292 0
M  V30 2833 N 267.536 -0.106894 1.57237 0
M  V30 2834 C 268.783 -0.812526 1.85484 0
M  V30 2835 C 269.111 -1.79304 0.753687 0
M  V30 2836 O 268.366 -1.94047 -0.253853 0
M  V30 2837 C 268.665 -1.58628 3.20268 0
M  V30 2838 C 268.331 -0.748967 4.44636 0
M  V30 2839 C 266.993 -0.518104 4.78403 0
M  V30 2840 C 269.345 -0.166122 5.20935 0
M  V30 2841 C 266.673 0.305659 5.85903 0
M  V30 2842 C 269.025 0.644899 6.29304 0
M  V30 2843 C 267.689 0.885965 6.61594 0
M  V30 2844 H 266.959 -0.297324 0.678734 0
M  V30 2845 H 269.606 -0.0744332 1.91355 0
M  V30 2846 H 267.911 -2.39562 3.10028 0
M  V30 2847 H 269.608 -2.13643 3.39349 0
M  V30 2848 H 266.198 -0.939006 4.18187 0
M  V30 2849 H 270.382 -0.33167 4.95191 0
M  V30 2850 H 265.638 0.501528 6.0934 0
M  V30 2851 H 269.812 1.10345 6.87602 0
M  V30 2852 H 267.439 1.52609 7.44725 0
M  V30 2853 N 269.014 -1.53014 -0.377408 0
M  V30 2854 C 270.244 -1.72265 -1.14054 0
M  V30 2855 C 270.652 -0.44601 -1.83868 0
M  V30 2856 O 269.995 0.590095 -1.73964 0
M  V30 2857 C 270.057 -2.82492 -2.22348 0
M  V30 2858 C 269.721 -4.23233 -1.72402 0
M  V30 2859 C 270.718 -5.05992 -1.19448 0
M  V30 2860 C 268.403 -4.696 -1.78273 0
M  V30 2861 C 270.397 -6.33203 -0.730268 0
M  V30 2862 C 268.084 -5.96792 -1.31464 0
M  V30 2863 C 269.082 -6.78424 -0.789297 0
M  V30 2864 O 268.77 -8.0323 -0.328077 0
M  V30 2865 H 268.502 -0.579873 -0.347453 0
M  V30 2866 H 271.056 -2.00502 -0.445882 0
M  V30 2867 H 269.286 -2.49702 -2.95272 0
M  V30 2868 H 270.975 -2.90034 -2.83963 0
M  V30 2869 H 271.741 -4.71349 -1.14259 0
M  V30 2870 H 267.62 -4.06142 -2.18106 0
M  V30 2871 H 271.164 -6.96868 -0.319542 0
M  V30 2872 H 267.061 -6.30937 -1.36342 0
M  V30 2873 H 267.829 -8.1727 -0.448493 0
M  V30 2874 N 270.492 0.636531 -1.44174 0
M  V30 2875 C 271.722 1.42146 -1.49927 0
M  V30 2876 C 272.13 1.88812 -0.121063 0
M  V30 2877 O 271.473 1.61126 0.882267 0
M  V30 2878 C 271.535 2.67883 -2.39748 0
M  V30 2879 C 271.199 2.43048 -3.8701 0
M  V30 2880 C 272.196 2.05216 -4.77684 0
M  V30 2881 C 269.881 2.56856 -4.3166 0
M  V30 2882 C 271.875 1.81512 -6.11009 0
M  V30 2883 C 269.562 2.32766 -5.65034 0
M  V30 2884 C 270.56 1.95152 -6.54526 0
M  V30 2885 O 270.248 1.71326 -7.85431 0
M  V30 2886 H 269.98 0.442567 -0.51099 0
M  V30 2887 H 272.534 0.786158 -1.8976 0
M  V30 2888 H 270.764 3.34032 -1.94832 0
M  V30 2889 H 272.453 3.29874 -2.36513 0
M  V30 2890 H 273.219 1.94111 -4.44462 0
M  V30 2891 H 269.098 2.85104 -3.62266 0
M  V30 2892 H 272.642 1.52077 -6.80822 0
M  V30 2893 H 268.539 2.43479 -5.97819 0
M  V30 2894 H 269.307 1.85616 -7.97176 0
M  V30 2895 N 271.97 1.30982 0.876444 0
M  V30 2896 C 272.88 1.2003 2.01569 0
M  V30 2897 C 273.896 0.11838 1.73597 0
M  V30 2898 O 275.072 0.33495 1.98595 0
M  V30 2899 C 272.137 0.901637 3.34771 0
M  V30 2900 C 271.198 2.06979 3.76109 0
M  V30 2901 C 270.431 1.78529 5.02954 0
M  V30 2902 O 270.654 0.717296 5.65872 0
M  V30 2903 O 269.588 2.64019 5.40905 0
M  V30 2904 H 273.414 2.15753 2.13739 0
M  V30 2905 H 270.999 1.10658 1.00375 0
M  V30 2906 H 272.881 0.750645 4.1466 0
M  V30 2907 H 271.556 -0.0256141 3.2369 0
M  V30 2908 H 270.463 2.27616 2.96887 0
M  V30 2909 H 271.796 2.97907 3.91807 0
M  V30 2910 N 273.449 -1.08991 1.13837 0
M  V30 2911 C 274.695 -1.81699 0.91417 0
M  V30 2912 C 275.05 -1.84264 -0.553594 0
M  V30 2913 O 274.343 -1.30313 -1.4046 0
M  V30 2914 C 274.537 -3.27042 1.44147 0
M  V30 2915 C 274.366 -3.38637 2.95897 0
M  V30 2916 C 273.136 -3.50177 3.64286 0
M  V30 2917 C 275.334 -3.30791 3.93804 0
M  V30 2918 N 273.316 -3.50501 5.04006 0
M  V30 2919 C 274.687 -3.38037 5.19741 0
M  V30 2920 C 276.742 -3.14488 3.86007 0
M  V30 2921 C 275.445 -3.30659 6.38793 0
M  V30 2922 C 277.471 -3.08438 5.04599 0
M  V30 2923 C 276.833 -3.1628 6.29402 0
M  V30 2924 H 272.932 -0.678967 0.387979 0
M  V30 2925 H 275.516 -1.30224 1.4474 0
M  V30 2926 H 273.687 -3.76976 0.935091 0
M  V30 2927 H 275.419 -3.87785 1.1578 0
M  V30 2928 H 272.174 -3.53815 3.1482 0
M  V30 2929 H 272.598 -3.54236 5.76928 0
M  V30 2930 H 277.24 -3.07291 2.90399 0
M  V30 2931 H 274.958 -3.36618 7.34652 0
M  V30 2932 H 278.544 -2.96952 5.0031 0
M  V30 2933 H 277.424 -3.1162 7.19627 0
M  V30 2934 N 274.927 -0.932562 -1.27047 0
M  V30 2935 C 275.857 -0.452902 -2.29066 0
M  V30 2936 C 276.838 0.489338 -1.62909 0
M  V30 2937 O 278.023 0.393046 -1.90181 0
M  V30 2938 C 275.153 0.290698 -3.46081 0
M  V30 2939 C 274.107 -0.564168 -4.24265 0
M  V30 2940 C 273.433 0.308886 -5.33807 0
M  V30 2941 C 274.733 -1.83112 -4.89149 0
M  V30 2942 H 276.427 -1.30552 -2.69437 0
M  V30 2943 H 273.973 -0.629201 -1.29526 0
M  V30 2944 H 275.926 0.637233 -4.16554 0
M  V30 2945 H 274.65 1.17738 -3.0464 0
M  V30 2946 H 273.309 -0.893477 -3.55545 0
M  V30 2947 H 272.957 1.19467 -4.88607 0
M  V30 2948 H 272.657 -0.259633 -5.87026 0
M  V30 2949 H 274.181 0.650884 -6.07121 0
M  V30 2950 H 275.595 -1.55236 -5.51883 0
M  V30 2951 H 273.992 -2.34353 -5.52448 0
M  V30 2952 H 275.062 -2.54772 -4.12576 0
M  V30 2953 N 276.405 1.4127 -0.698611 0
M  V30 2954 C 277.816 1.84187 -0.305289 0
M  V30 2955 C 278.167 1.58449 1.15708 0
M  V30 2956 O 277.292 1.05651 1.88856 0
M  V30 2957 C 277.887 3.3435 -0.547314 0
M  V30 2958 C 276.446 3.75826 -0.207878 0
M  V30 2959 C 275.593 2.64647 -0.828099 0
M  V30 2960 H 278.544 1.30778 -0.89904 0
M  V30 2961 H 278.565 3.8001 0.192998 0
M  V30 2962 H 278.077 3.53051 -1.61172 0
M  V30 2963 H 276.178 3.62725 0.852143 0
M  V30 2964 H 276.291 4.74462 -0.665021 0
M  V30 2965 H 274.655 2.53395 -0.257458 0
M  V30 2966 H 275.438 2.86165 -1.89643 0
M  V30 2967 N 277.883 0.443576 1.51229 0
M  V30 2968 C 279.111 -0.11929 2.06556 0
M  V30 2969 C 279.526 -1.35921 1.31038 0
M  V30 2970 O 278.883 -1.78675 0.371704 0
M  V30 2971 C 278.934 -0.435228 3.5887 0
M  V30 2972 O 278.655 0.755486 4.31537 0
M  V30 2973 C 280.156 -1.04808 4.30732 0
M  V30 2974 H 277.376 -0.0051584 0.67098 0
M  V30 2975 H 279.92 0.624453 1.94733 0
M  V30 2976 H 278.075 -1.12887 3.70588 0
M  V30 2977 H 278.489 0.483491 5.22267 0
M  V30 2978 H 279.963 -1.2191 5.3837 0
M  V30 2979 H 280.44 -2.03081 3.89429 0
M  V30 2980 H 281.046 -0.393637 4.23474 0
M  V30 2981 N 279.361 -1.56624 0.175154 0
M  V30 2982 C 280.638 -1.88688 -0.515373 0
M  V30 2983 C 281.018 -1.08564 -1.81044 0
M  V30 2984 O 280.366 -0.180703 -2.27784 0
M  V30 2985 C 280.576 -3.40768 -0.753552 0
M  V30 2986 C 281.924 -4.10587 -1.08184 0
M  V30 2987 O 282.948 -3.46106 -0.841961 0
M  V30 2988 O 281.807 -5.24512 -1.53459 0
M  V30 2989 H 278.901 -0.78301 -0.26613 0
M  V30 2990 H 281.447 -1.68347 0.213877 0
M  V30 2991 H 280.219 -3.90965 0.161829 0
M  V30 2992 H 279.842 -3.66733 -1.53598 0
M  V30 2993 N 280.839 0.0985539 -1.57292 0
M  V30 2994 C 282.25 0.653457 -1.74891 0
M  V30 2995 C 282.601 1.7929 -0.796838 0
M  V30 2996 O 281.726 2.16385 0.0254886 0
M  V30 2997 C 282.321 1.19216 -3.17133 0
M  V30 2998 C 280.88 1.69316 -3.36168 0
M  V30 2999 C 280.027 0.601294 -2.70702 0
M  V30 3000 H 282.978 -0.127497 -1.58187 0
M  V30 3001 H 282.999 2.06154 -3.19814 0
M  V30 3002 H 282.511 0.362635 -3.86402 0
M  V30 3003 H 280.612 2.5468 -2.71972 0
M  V30 3004 H 280.725 1.78853 -4.44464 0
M  V30 3005 H 279.089 1.0399 -2.32504 0
M  V30 3006 H 279.872 -0.217592 -3.4261 0
M  V30 3007 N 282.317 1.53212 0.369288 0
M  V30 3008 C 283.542 1.73423 1.1375 0
M  V30 3009 C 283.967 0.460404 1.82378 0
M  V30 3010 O 283.325 -0.585298 1.71592 0
M  V30 3011 C 283.373 2.89769 2.1463 0
M  V30 3012 O 282.477 2.58119 3.21634 0
M  V30 3013 H 281.818 0.576061 0.330227 0
M  V30 3014 H 284.348 2.00083 0.427547 0
M  V30 3015 H 284.358 3.15829 2.58294 0
M  V30 3016 H 283.033 3.8217 1.64071 0
M  V30 3017 H 281.61 2.42864 2.82969 0
M  V30 3018 N 283.795 -0.628877 1.44509 0
M  V30 3019 C 285.044 -1.38437 1.4669 0
M  V30 3020 C 285.357 -1.95322 0.104272 0
M  V30 3021 O 286.563 -2.715 0.00362163 0
M  V30 3022 C 285.019 -2.50659 2.5826 0
M  V30 3023 C 284.627 -2.00277 4.0074 0
M  V30 3024 C 286.371 -3.27844 2.69664 0
M  V30 3025 C 284.278 -3.09854 5.0373 0
M  V30 3026 H 283.208 -0.520245 0.545766 0
M  V30 3027 H 285.859 -0.676313 1.70582 0
M  V30 3028 H 284.241 -3.2405 2.27612 0
M  V30 3029 H 285.415 -1.33736 4.40966 0
M  V30 3030 H 283.73 -1.35901 3.93599 0
M  V30 3031 H 286.327 -4.09534 3.43781 0
M  V30 3032 H 286.67 -3.77471 1.75559 0
M  V30 3033 H 287.203 -2.61543 2.99733 0
M  V30 3034 H 283.942 -2.65168 5.99472 0
M  V30 3035 H 283.462 -3.7503 4.68095 0
M  V30 3036 H 285.141 -3.74592 5.27532 0
M  V30 3037 N 285.273 -1.31445 -0.869486 0
M  V30 3038 C 286.22 -1.19135 -1.97675 0
M  V30 3039 C 287.19 -0.0770266 -1.65921 0
M  V30 3040 O 288.375 -0.249972 -1.89155 0
M  V30 3041 C 285.515 -0.905149 -3.33018 0
M  V30 3042 C 284.628 -2.10285 -3.77365 0
M  V30 3043 C 283.763 -1.75339 -5.01427 0
M  V30 3044 C 282.802 -2.91515 -5.38224 0
M  V30 3045 N 281.939 -2.56762 -6.53466 0
M  V30 3046 H 286.779 -2.13853 -2.07535 0
M  V30 3047 H 284.316 -1.06379 -1.01597 0
M  V30 3048 H 286.274 -0.719765 -4.10944 0
M  V30 3049 H 284.904 0.00519624 -3.228 0
M  V30 3050 H 283.956 -2.39899 -2.95216 0
M  V30 3051 H 285.268 -2.97237 -4.00564 0
M  V30 3052 H 284.422 -1.53266 -5.87022 0
M  V30 3053 H 283.161 -0.855801 -4.80133 0
M  V30 3054 H 282.166 -3.14237 -4.51149 0
M  V30 3055 H 283.391 -3.81985 -5.61484 0
M  V30 3056 H 281.337 -1.69526 -6.33717 0
M  V30 3057 H 281.254 -3.37243 -6.76612 0
M  V30 3058 H 282.522 -2.38083 -7.42251 0
M  V30 3059 N 286.751 1.08385 -1.14413 0
M  V30 3060 C 287.997 1.81044 -0.913834 0
M  V30 3061 C 288.33 1.86004 0.558209 0
M  V30 3062 O 287.605 1.33606 1.4135 0
M  V30 3063 C 287.888 3.26648 -1.51569 0
M  V30 3064 C 287.741 3.29895 -3.0576 0
M  V30 3065 C 289.06 4.23629 -1.19273 0
M  V30 3066 H 286.179 0.65727 -0.333414 0
M  V30 3067 H 288.821 1.26896 -1.41412 0
M  V30 3068 H 286.971 3.72889 -1.09023 0
M  V30 3069 H 288.643 2.91977 -3.57137 0
M  V30 3070 H 286.886 2.69163 -3.40197 0
M  V30 3071 H 287.557 4.32516 -3.42977 0
M  V30 3072 H 290.033 3.85727 -1.56057 0
M  V30 3073 H 288.909 5.23822 -1.64017 0
M  V30 3074 H 289.17 4.41968 -0.108068 0
M  V30 3075 N 288.23 0.939286 1.26551 0
M  V30 3076 C 289.507 0.5038 1.89001 0
M  V30 3077 C 289.887 -1.01854 1.84903 0
M  V30 3078 O 289.235 -1.87773 1.30206 0
M  V30 3079 C 289.445 1.063 3.32417 0
M  V30 3080 C 290.793 1.13051 4.09273 0
M  V30 3081 O 291.817 1.01345 3.41479 0
M  V30 3082 O 290.676 1.31233 5.30509 0
M  V30 3083 H 287.77 0.163897 0.810597 0
M  V30 3084 H 290.316 1.03173 1.34735 0
M  V30 3085 H 289.088 2.10665 3.29752 0
M  V30 3086 H 288.711 0.517408 3.94219 0
M  V30 3087 N 289.708 -1.40897 0.706093 0
M  V30 3088 C 290.618 -2.3455 0.0482286 0
M  V30 3089 C 291.634 -1.56796 -0.754396 0
M  V30 3090 O 292.81 -1.89228 -0.689538 0
M  V30 3091 C 289.875 -3.35625 -0.869303 0
M  V30 3092 C 288.936 -4.29261 -0.0576994 0
M  V30 3093 C 288.169 -5.25508 -0.931531 0
M  V30 3094 O 288.392 -5.27472 -2.17092 0
M  V30 3095 O 287.326 -6.00727 -0.375587 0
M  V30 3096 H 291.152 -2.92407 0.820476 0
M  V30 3097 H 288.737 -1.4193 0.4665 0
M  V30 3098 H 290.619 -3.97635 -1.39514 0
M  V30 3099 H 289.294 -2.80196 -1.62086 0
M  V30 3100 H 288.201 -3.70566 0.512988 0
M  V30 3101 H 289.534 -4.87817 0.655426 0
M  V30 3102 N 291.186 -0.45159 -1.50991 0
M  V30 3103 C 292.602 -0.104647 -1.59257 0
M  V30 3104 C 292.802 1.38728 -1.4614 0
M  V30 3105 O 291.858 2.15866 -1.30989 0
M  V30 3106 C 293.171 -0.637468 -2.93865 0
M  V30 3107 C 294.719 -0.599166 -3.07212 0
M  V30 3108 C 295.194 -1.1092 -4.44366 0
M  V30 3109 N 296.685 -1.06778 -4.50725 0
M  V30 3110 C 297.42 -1.43314 -5.55201 0
M  V30 3111 N 296.916 -1.87204 -6.67028 0
M  V30 3112 N 298.709 -1.3504 -5.45638 0
M  V30 3113 H 290.86 -1.42214 -1.57762 0
M  V30 3114 H 293.123 -0.586921 -0.744465 0
M  V30 3115 H 292.829 -1.68187 -3.08879 0
M  V30 3116 H 292.703 -0.0702139 -3.77135 0
M  V30 3117 H 295.09 0.436277 -2.91857 0
M  V30 3118 H 295.171 -1.20299 -2.25747 0
M  V30 3119 H 294.815 -2.14318 -4.60467 0
M  V30 3120 H 294.745 -0.481773 -5.24392 0
M  V30 3121 H 297.236 -0.745643 -3.70471 0
M  V30 3122 H 297.549 -2.13282 -7.42786 0
M  V30 3123 H 295.894 -1.91142 -6.68199 0
M  V30 3124 H 299.085 -1.00607 -4.57161 0
M  V30 3125 H 299.258 -1.63841 -6.26945 0
M  V30 3126 N 292.664 1.56529 -0.183458 0
M  V30 3127 C 294.075 1.83739 0.331177 0
M  V30 3128 C 294.426 1.10373 1.62211 0
M  V30 3129 O 293.551 0.36071 2.13373 0
M  V30 3130 C 294.146 3.33306 0.607646 0
M  V30 3131 C 292.705 3.60969 1.06668 0
M  V30 3132 C 291.852 2.77086 0.109029 0
M  V30 3133 H 294.803 1.53379 -0.407484 0
M  V30 3134 H 294.824 3.51444 1.45832 0
M  V30 3135 H 294.336 3.86677 -0.332086 0
M  V30 3136 H 292.437 3.13021 2.0211 0
M  V30 3137 H 292.55 4.69231 0.967447 0
M  V30 3138 H 290.914 2.47319 0.608714 0
M  V30 3139 H 291.697 3.33241 -0.82494 0
M  V30 3140 N 294.142 -0.090211 1.57342 0
M  V30 3141 C 295.39 -0.791241 1.85967 0
M  V30 3142 C 295.711 -1.7903 0.772859 0
M  V30 3143 O 294.981 -1.94872 -0.200398 0
M  V30 3144 H 293.561 -0.295205 0.686195 0
M  V30 3145 H 296.223 -0.0706782 1.94772 0
M  V30 3146 H 295.319 -1.31882 2.82867 0
M  V30 3147 N 295.62 -1.53406 -0.361157 0
M  V30 3148 C 296.85 -1.73465 -1.1222 0
M  V30 3149 C 297.258 -0.465486 -1.83384 0
M  V30 3150 O 296.601 0.571611 -1.7458 0
M  V30 3151 C 296.663 -2.84834 -2.19339 0
M  V30 3152 C 296.327 -4.25038 -1.67903 0
M  V30 3153 C 297.324 -5.07231 -1.14074 0
M  V30 3154 C 295.009 -4.71464 -1.73282 0
M  V30 3155 C 297.003 -6.33942 -0.663068 0
M  V30 3156 C 294.69 -5.98153 -1.25127 0
M  V30 3157 C 295.688 -6.79223 -0.717296 0
M  V30 3158 O 295.376 -8.03533 -0.242865 0
M  V30 3159 H 295.108 -0.583526 -0.341283 0
M  V30 3160 H 297.662 -2.00964 -0.424591 0
M  V30 3161 H 295.892 -2.5282 -2.92607 0
M  V30 3162 H 297.581 -2.9303 -2.80871 0
M  V30 3163 H 298.347 -4.72534 -1.09254 0
M  V30 3164 H 294.226 -4.08432 -2.13786 0
M  V30 3165 H 297.77 -6.97167 -0.245612 0
M  V30 3166 H 293.667 -6.32347 -1.29642 0
M  V30 3167 H 294.435 -8.177 -0.361786 0
M  V30 3168 N 297.098 0.621204 -1.44841 0
M  V30 3169 C 298.326 1.40752 -1.51646 0
M  V30 3170 C 298.741 1.88246 -0.144549 0
M  V30 3171 O 298.098 1.61422 0.851416 0
M  V30 3172 C 298.149 2.62119 -2.4895 0
M  V30 3173 O 297.87 2.16602 -3.80808 0
M  V30 3174 C 299.371 3.55135 -2.65319 0
M  V30 3175 H 296.591 0.431325 -0.514004 0
M  V30 3176 H 299.135 0.758835 -1.899 0
M  V30 3177 H 297.29 3.23058 -2.13805 0
M  V30 3178 H 297.704 2.95358 -4.33433 0
M  V30 3179 H 299.178 4.36874 -3.37409 0
M  V30 3180 H 299.655 4.04592 -1.70886 0
M  V30 3181 H 300.261 3.00058 -3.01405 0
M  V30 3182 N 298.576 1.31904 0.862503 0
M  V30 3183 C 299.804 1.24998 1.64873 0
M  V30 3184 C 300.219 -0.183425 1.87907 0
M  V30 3185 O 299.576 -1.11794 1.44251 0
M  V30 3186 C 299.627 1.99829 3.01248 0
M  V30 3187 O 299.348 3.37575 2.79239 0
M  V30 3188 C 300.849 1.99852 3.95694 0
M  V30 3189 H 298.069 0.431599 0.513773 0
M  V30 3190 H 300.613 1.73901 1.07604 0
M  V30 3191 H 298.768 1.54668 3.55185 0
M  V30 3192 H 299.182 3.75776 3.65914 0
M  V30 3193 H 300.656 2.56709 4.88676 0
M  V30 3194 H 301.133 0.982852 4.28062 0
M  V30 3195 H 301.739 2.44926 3.47694 0
M  V30 3196 N 300.054 -1.07777 1.14986 0
M  V30 3197 C 301.303 -1.79669 0.916617 0
M  V30 3198 C 301.616 -1.87474 -0.557917 0
M  V30 3199 O 302.822 -2.55845 -0.908617 0
M  V30 3200 C 301.278 -3.22848 1.59051 0
M  V30 3201 C 300.886 -3.23257 3.10176 0
M  V30 3202 C 302.63 -3.99379 1.43864 0
M  V30 3203 C 300.537 -4.61063 3.70372 0
M  V30 3204 H 299.467 -0.673349 0.33929 0
M  V30 3205 H 302.118 -1.21003 1.37951 0
M  V30 3206 H 300.5 -3.8168 1.0553 0
M  V30 3207 H 301.674 -2.74095 3.70417 0
M  V30 3208 H 299.989 -2.60222 3.25074 0
M  V30 3209 H 302.586 -5.0122 1.86232 0
M  V30 3210 H 302.929 -4.14511 0.385564 0
M  V30 3211 H 303.462 -3.47032 1.94457 0
M  V30 3212 H 300.201 -4.51135 4.7556 0
M  V30 3213 H 299.721 -5.1048 3.14913 0
M  V30 3214 H 301.4 -5.30034 3.71043 0
M  V30 3215 N 301.532 -0.945985 -1.26051 0
M  V30 3216 C 302.948 -0.649045 -1.45807 0
M  V30 3217 C 303.148 0.796158 -1.85104 0
M  V30 3218 O 302.204 1.57233 -1.97571 0
M  V30 3219 C 303.517 -1.61458 -2.53677 0
M  V30 3220 C 305.065 -1.62481 -2.67524 0
M  V30 3221 C 305.54 -2.57776 -3.7857 0
M  V30 3222 N 307.031 -2.5609 -3.85969 0
M  V30 3223 C 307.766 -3.26508 -4.7136 0
M  V30 3224 N 307.262 -4.0637 -5.61102 0
M  V30 3225 N 309.055 -3.15437 -4.65248 0
M  V30 3226 H 301.206 -1.88005 -0.988328 0
M  V30 3227 H 303.469 -0.808198 -0.4955 0
M  V30 3228 H 303.175 -2.64644 -2.31638 0
M  V30 3229 H 303.049 -1.37036 -3.51427 0
M  V30 3230 H 305.436 -0.600167 -2.88933 0
M  V30 3231 H 305.517 -1.90958 -1.70202 0
M  V30 3232 H 305.161 -3.60361 -3.57913 0
M  V30 3233 H 305.091 -2.26587 -4.75359 0
M  V30 3234 H 307.582 -1.98105 -3.21812 0
M  V30 3235 H 307.895 -4.57042 -6.23164 0
M  V30 3236 H 306.24 -4.10469 -5.60839 0
M  V30 3237 H 309.431 -2.52525 -3.94143 0
M  V30 3238 H 309.604 -3.70584 -5.31575 0
M  V30 3239 N 303.011 1.40521 -0.713556 0
M  V30 3240 C 304.241 2.0494 -0.261395 0
M  V30 3241 C 304.649 1.53861 1.10107 0
M  V30 3242 O 303.992 0.689321 1.70276 0
M  V30 3243 C 304.054 3.59138 -0.161227 0
M  V30 3244 C 303.718 4.33096 -1.45865 0
M  V30 3245 C 304.715 4.61182 -2.40016 0
M  V30 3246 C 302.4 4.72043 -1.71701 0
M  V30 3247 C 304.394 5.27196 -3.58251 0
M  V30 3248 C 302.081 5.37789 -2.90218 0
M  V30 3249 C 303.079 5.65295 -3.83315 0
M  V30 3250 O 302.767 6.29683 -4.99754 0
M  V30 3251 H 302.499 0.666041 -0.115608 0
M  V30 3252 H 305.053 1.80954 -0.971849 0
M  V30 3253 H 303.283 3.81936 0.605153 0
M  V30 3254 H 304.972 4.05091 0.256105 0
M  V30 3255 H 305.738 4.31559 -2.21318 0
M  V30 3256 H 301.617 4.50003 -1.00092 0
M  V30 3257 H 305.161 5.48582 -4.30934 0
M  V30 3258 H 301.058 5.66831 -3.08825 0
M  V30 3259 H 301.826 6.4818 -4.99805 0
M  V30 3260 N 304.489 0.459591 1.5075 0
M  V30 3261 C 305.439 -0.358926 2.25157 0
M  V30 3262 C 306.423 -0.971285 1.28276 0
M  V30 3263 O 307.615 -0.885739 1.53244 0
M  V30 3264 C 304.744 -1.44695 3.11317 0
M  V30 3265 C 303.83 -0.842894 4.15639 0
M  V30 3266 N 304.221 0.0299373 5.05791 0
M  V30 3267 C 302.519 -1.10809 4.32015 0
M  V30 3268 C 303.22 0.371563 5.80512 0
M  V30 3269 N 302.196 -0.250409 5.43023 0
M  V30 3270 H 305.998 0.313636 2.92222 0
M  V30 3271 H 303.512 0.273021 1.60089 0
M  V30 3272 H 305.509 -2.04641 3.63218 0
M  V30 3273 H 304.169 -2.12162 2.45799 0
M  V30 3274 H 305.18 0.39797 5.16369 0
M  V30 3275 H 301.857 -1.7786 3.77719 0
M  V30 3276 H 303.247 1.08319 6.63111 0
M  V30 3277 N 305.967 -1.56429 0.191757 0
M  V30 3278 C 307.195 -2.01867 -0.453586 0
M  V30 3279 C 307.61 -1.07191 -1.5542 0
M  V30 3280 O 306.967 -0.0762108 -1.82341 0
M  V30 3281 C 307.018 -3.47017 -1.013 0
M  V30 3282 O 306.739 -4.38078 0.0437005 0
M  V30 3283 C 308.24 -4.07956 -1.73456 0
M  V30 3284 H 305.46 -0.661211 -0.114199 0
M  V30 3285 H 308.004 -2.02295 0.299483 0
M  V30 3286 H 306.159 -3.47298 -1.71647 0
M  V30 3287 H 306.573 -5.23178 -0.372212 0
M  V30 3288 H 308.047 -5.1138 -2.07833 0
M  V30 3289 H 308.524 -3.51222 -2.63704 0
M  V30 3290 H 309.13 -4.11437 -1.07702 0
M  V30 3291 N 307.445 0.0818655 -1.57387 0
M  V30 3292 C 308.375 1.09885 -2.06028 0
M  V30 3293 C 309.356 1.4098 -0.951774 0
M  V30 3294 O 310.541 1.50781 -1.22387 0
M  V30 3295 C 307.671 2.4151 -2.4958 0
M  V30 3296 C 306.625 2.24792 -3.64215 0
M  V30 3297 C 305.951 3.61712 -3.93787 0
M  V30 3298 C 307.251 1.67749 -4.94629 0
M  V30 3299 H 308.945 0.694128 -2.91243 0
M  V30 3300 H 306.491 0.332448 -1.4011 0
M  V30 3301 H 308.444 3.12939 -2.82219 0
M  V30 3302 H 307.168 2.83943 -1.61381 0
M  V30 3303 H 305.827 1.55807 -3.31843 0
M  V30 3304 H 305.475 4.01697 -3.02735 0
M  V30 3305 H 305.175 3.51368 -4.70971 0
M  V30 3306 H 306.699 4.34587 -4.28913 0
M  V30 3307 H 308.113 2.29032 -5.25564 0
M  V30 3308 H 306.51 1.68128 -5.76067 0
M  V30 3309 H 307.58 0.638059 -4.80684 0
M  V30 3310 N 308.923 1.53595 0.353017 0
M  V30 3311 C 310.171 1.70049 1.09215 0
M  V30 3312 C 310.492 0.461406 1.89463 0
M  V30 3313 O 309.762 -0.524633 1.88744 0
M  V30 3314 H 308.342 0.626912 0.40619 0
M  V30 3315 H 311.004 1.90822 0.396585 0
M  V30 3316 H 310.1 2.56718 1.77488 0
M  V30 3317 N 310.401 -0.613514 1.45168 0
M  V30 3318 C 311.629 -1.39946 1.5239 0
M  V30 3319 C 312.044 -1.88167 0.154531 0
M  V30 3320 O 311.401 -1.61872 -0.842843 0
M  V30 3321 C 311.452 -2.60795 2.50337 0
M  V30 3322 O 311.173 -2.1458 3.81952 0
M  V30 3323 C 312.674 -3.53723 2.67198 0
M  V30 3324 H 309.894 -0.428593 0.516284 0
M  V30 3325 H 312.438 -0.748753 1.903 0
M  V30 3326 H 310.593 -3.21919 2.15515 0
M  V30 3327 H 311.007 -2.93055 4.34993 0
M  V30 3328 H 312.481 -4.35079 3.39721 0
M  V30 3329 H 312.958 -4.0368 1.73029 0
M  V30 3330 H 313.564 -2.98456 3.02992 0
M  V30 3331 N 311.879 -1.3236 -0.855495 0
M  V30 3332 C 312.789 -1.23221 -1.99634 0
M  V30 3333 C 313.805 -0.145983 -1.73387 0
M  V30 3334 O 314.981 -0.366502 -1.98037 0
M  V30 3335 C 312.046 -0.954782 -3.33294 0
M  V30 3336 C 311.107 -2.12937 -3.72769 0
M  V30 3337 C 310.34 -1.86508 -5.00051 0
M  V30 3338 O 310.563 -0.807231 -5.64659 0
M  V30 3339 O 309.497 -2.72591 -5.36636 0
M  V30 3340 H 313.323 -2.19126 -2.1028 0
M  V30 3341 H 310.908 -1.12241 -0.986018 0
M  V30 3342 H 312.79 -0.816519 -4.13414 0
M  V30 3343 H 311.465 -0.0258854 -3.2369 0
M  V30 3344 H 310.372 -2.3231 -2.93228 0
M  V30 3345 H 311.705 -3.04102 -3.87018 0
M  V30 3346 N 313.357 1.07166 -1.15556 0
M  V30 3347 C 314.768 1.6127 -0.940693 0
M  V30 3348 C 315.119 1.89251 0.517551 0
M  V30 3349 O 314.244 1.65937 1.38903 0
M  V30 3350 C 314.839 2.92993 -1.7012 0
M  V30 3351 C 313.398 3.43832 -1.53156 0
M  V30 3352 C 312.545 2.1786 -1.71558 0
M  V30 3353 H 315.496 0.90229 -1.30554 0
M  V30 3354 H 315.517 3.62007 -1.17181 0
M  V30 3355 H 315.029 2.72596 -2.76248 0
M  V30 3356 H 313.13 3.69307 -0.494294 0
M  V30 3357 H 313.243 4.19747 -2.30975 0
M  V30 3358 H 311.607 2.2765 -1.14225 0
M  V30 3359 H 312.39 1.99956 -2.79056 0
M  V30 3360 N 314.835 0.952656 1.25548 0
M  V30 3361 C 316.06 0.623025 1.97821 0
M  V30 3362 C 316.485 -0.7976 1.70352 0
M  V30 3363 O 315.843 -1.53905 0.958283 0
M  V30 3364 C 315.891 0.885532 3.49558 0
M  V30 3365 O 314.995 -0.0366641 4.12384 0
M  V30 3366 H 314.336 0.237082 0.620232 0
M  V30 3367 H 316.866 1.27871 1.59719 0
M  V30 3368 H 316.876 0.811009 3.99858 0
M  V30 3369 H 315.551 1.92094 3.6888 0
M  V30 3370 H 314.128 0.0898954 3.72792 0
M  V30 3371 N 316.313 -1.40141 0.720998 0
M  V30 3372 C 317.26 -2.30688 0.071919 0
M  V30 3373 C 318.23 -1.48476 -0.744584 0
M  V30 3374 O 319.415 -1.77201 -0.707423 0
M  V30 3375 C 316.555 -3.34724 -0.839855 0
M  V30 3376 C 315.668 -4.31998 -0.0122438 0
M  V30 3377 C 314.803 -5.23102 -0.923995 0
M  V30 3378 C 313.842 -6.12033 -0.0907969 0
M  V30 3379 N 312.979 -6.95537 -0.957718 0
M  V30 3380 H 317.819 -2.85628 0.849755 0
M  V30 3381 H 315.356 -1.40653 0.430726 0
M  V30 3382 H 317.314 -3.93618 -1.38279 0
M  V30 3383 H 315.944 -2.81274 -1.58381 0
M  V30 3384 H 314.996 -3.74841 0.64794 0
M  V30 3385 H 316.308 -4.94772 0.632595 0
M  V30 3386 H 315.462 -5.86953 -1.53527 0
M  V30 3387 H 314.201 -4.60615 -1.60264 0
M  V30 3388 H 313.206 -5.47207 0.533377 0
M  V30 3389 H 314.431 -6.76581 0.584428 0
M  V30 3390 H 312.377 -6.35633 -1.62192 0
M  V30 3391 H 312.294 -7.55099 -0.36904 0
M  V30 3392 H 313.562 -7.63832 -1.555 0
M  V30 3393 N 317.792 -0.46758 -1.50504 0
M  V30 3394 C 319.069 0.15003 -1.95024 0
M  V30 3395 C 319.449 1.57304 -1.40779 0
M  V30 3396 O 318.797 2.20281 -0.607319 0
M  V30 3397 C 319.007 0.0969324 -3.48865 0
M  V30 3398 C 320.355 0.287565 -4.23625 0
M  V30 3399 O 321.379 0.173678 -3.55776 0
M  V30 3400 O 320.238 0.517186 -5.44047 0
M  V30 3401 H 317.332 0.113582 -0.819163 0
M  V30 3402 H 319.878 -0.52773 -1.61286 0
M  V30 3403 H 318.65 -0.896732 -3.80886 0
M  V30 3404 H 318.273 0.816303 -3.8913 0
M  V30 3405 N 319.27 1.56325 -0.20005 0
M  V30 3406 C 320.498 2.02105 0.442874 0
M  V30 3407 C 320.913 1.08014 1.5485 0
M  V30 3408 O 320.27 0.0858797 1.82298 0
M  V30 3409 C 320.321 3.47549 0.994583 0
M  V30 3410 O 320.042 4.38049 -0.0669322 0
M  V30 3411 C 321.543 4.0887 1.7129 0
M  V30 3412 H 318.763 0.661807 0.110691 0
M  V30 3413 H 321.307 2.02134 -0.310207 0
M  V30 3414 H 319.462 3.48204 1.69803 0
M  V30 3415 H 319.876 5.23368 0.344462 0
M  V30 3416 H 321.35 5.12475 2.05118 0
M  V30 3417 H 321.827 3.52615 2.61838 0
M  V30 3418 H 322.433 4.12002 1.05518 0
M  V30 3419 N 320.748 -0.0735177 1.57428 0
M  V30 3420 C 321.994 -0.774145 1.87443 0
M  V30 3421 C 322.327 -1.77311 0.792103 0
M  V30 3422 O 321.602 -1.93492 -0.197793 0
M  V30 3423 C 321.885 -1.48367 3.28115 0
M  V30 3424 C 321.738 -0.501227 4.46999 0
M  V30 3425 C 323.057 -2.429 3.66998 0
M  V30 3426 H 320.176 -0.279971 0.681752 0
M  V30 3427 H 322.818 -0.0373616 1.89963 0
M  V30 3428 H 320.968 -2.11171 3.26097 0
M  V30 3429 H 322.64 0.121468 4.6114 0
M  V30 3430 H 320.883 0.183593 4.33411 0
M  V30 3431 H 321.554 -1.03526 5.42205 0
M  V30 3432 H 324.03 -1.90175 3.70098 0
M  V30 3433 H 322.906 -2.89549 4.66318 0
M  V30 3434 H 323.167 -3.27628 2.96837 0
M  V30 3435 N 322.226 -1.5378 -0.344866 0
M  V30 3436 C 323.472 -1.71216 -1.08687 0
M  V30 3437 C 323.805 -0.473281 -1.88345 0
M  V30 3438 O 323.08 0.52968 -1.87149 0
M  V30 3439 C 323.363 -2.97486 -2.02914 0
M  V30 3440 C 323.216 -4.31579 -1.26727 0
M  V30 3441 C 324.535 -3.19422 -3.0275 0
M  V30 3442 H 321.654 -0.62301 -0.393735 0
M  V30 3443 H 324.296 -1.8645 -0.365563 0
M  V30 3444 H 322.446 -2.84629 -2.64421 0
M  V30 3445 H 324.118 -4.56284 -0.67845 0
M  V30 3446 H 322.361 -4.30049 -0.569273 0
M  V30 3447 H 323.032 -5.16106 -1.95803 0
M  V30 3448 H 325.508 -3.316 -2.51357 0
M  V30 3449 H 324.384 -4.09169 -3.65885 0
M  V30 3450 H 324.645 -2.35656 -3.74057 0
M  V30 3451 N 323.704 0.605807 -1.45491 0
M  V30 3452 C 324.654 1.71074 -1.50724 0
M  V30 3453 C 325.638 1.5658 -0.37033 0
M  V30 3454 O 326.83 1.65887 -0.617299 0
M  V30 3455 C 323.959 3.0983 -1.47852 0
M  V30 3456 C 323.045 3.29704 -2.66751 0
M  V30 3457 N 323.436 3.19831 -3.91844 0
M  V30 3458 C 321.734 3.60579 -2.62486 0
M  V30 3459 C 322.435 3.41083 -4.71208 0
M  V30 3460 N 321.411 3.65157 -4.02693 0
M  V30 3461 H 325.213 1.61937 -2.45263 0
M  V30 3462 H 322.727 0.80912 -1.40808 0
M  V30 3463 H 324.724 3.89101 -1.49686 0
M  V30 3464 H 323.384 3.20115 -0.543714 0
M  V30 3465 H 324.395 2.98194 -4.23439 0
M  V30 3466 H 321.072 3.7769 -1.77922 0
M  V30 3467 H 322.462 3.38828 -5.80211 0
M  V30 3468 N 325.182 1.32811 0.848464 0
M  V30 3469 C 326.092 1.24278 1.98978 0
M  V30 3470 C 327.108 0.155176 1.73307 0
M  V30 3471 O 328.284 0.376999 1.9784 0
M  V30 3472 C 325.349 0.972444 3.32783 0
M  V30 3473 C 324.41 2.14911 3.71634 0
M  V30 3474 C 323.643 1.89157 4.99054 0
M  V30 3475 O 323.866 0.837165 5.64223 0
M  V30 3476 O 322.8 2.75433 5.35183 0
M  V30 3477 H 326.626 2.20238 2.09115 0
M  V30 3478 H 324.211 1.12762 0.980052 0
M  V30 3479 H 326.093 0.838432 4.12975 0
M  V30 3480 H 324.768 0.043051 3.23671 0
M  V30 3481 H 323.675 2.33862 2.91992 0
M  V30 3482 H 325.008 3.06151 3.85399 0
M  V30 3483 N 326.66 -1.06551 1.16123 0
M  V30 3484 C 328.076 -1.3142 0.905585 0
M  V30 3485 C 328.276 -1.96571 -0.442964 0
M  V30 3486 O 327.332 -2.23068 -1.18308 0
M  V30 3487 C 328.645 -2.19741 2.05267 0
M  V30 3488 C 330.193 -2.33165 2.08813 0
M  V30 3489 C 330.668 -3.24838 3.22868 0
M  V30 3490 N 332.159 -3.32421 3.22568 0
M  V30 3491 C 332.894 -4.0344 4.0746 0
M  V30 3492 N 332.39 -4.77003 5.02434 0
M  V30 3493 N 334.183 -3.99464 3.95456 0
M  V30 3494 H 326.334 -0.626548 2.02949 0
M  V30 3495 H 328.597 -0.338777 0.8854 0
M  V30 3496 H 328.303 -1.79142 3.02657 0
M  V30 3497 H 328.177 -3.20313 1.99198 0
M  V30 3498 H 330.564 -2.73013 1.12018 0
M  V30 3499 H 330.645 -1.3227 2.18948 0
M  V30 3500 H 330.289 -2.85708 4.19921 0
M  V30 3501 H 330.219 -4.25707 3.0997 0
M  V30 3502 H 332.71 -2.79994 2.53795 0
M  V30 3503 H 333.023 -5.28712 5.63634 0
M  V30 3504 H 331.368 -4.75992 5.06415 0
M  V30 3505 H 334.559 -3.4111 3.20564 0
M  V30 3506 H 334.732 -4.54544 4.61837 0
M  V30 3507 N 328.138 -0.959301 -1.25041 0
M  V30 3508 C 329.366 -0.633949 -1.96948 0
M  V30 3509 C 329.781 0.794916 -1.7125 0
M  V30 3510 O 329.138 1.53231 -0.991287 0
M  V30 3511 C 329.189 -0.888805 -3.50403 0
M  V30 3512 O 328.91 -2.26149 -3.75218 0
M  V30 3513 C 330.411 -0.576482 -4.39536 0
M  V30 3514 H 327.631 -0.237263 -0.627652 0
M  V30 3515 H 330.175 -1.28495 -1.59089 0
M  V30 3516 H 328.33 -0.284145 -3.86357 0
M  V30 3517 H 328.744 -2.33514 -4.6965 0
M  V30 3518 H 330.218 -0.805314 -5.46094 0
M  V30 3519 H 330.695 0.489075 -4.36468 0
M  V30 3520 H 331.301 -1.16067 -4.09156 0
M  V30 3521 N 329.616 1.39756 -0.72842 0
M  V30 3522 C 330.864 2.00248 -0.272946 0
M  V30 3523 C 331.185 1.58077 1.14178 0
M  V30 3524 O 330.455 0.826014 1.77634 0
M  V30 3525 H 329.035 0.740554 -0.0979247 0
M  V30 3526 H 331.697 1.70903 -0.936912 0
M  V30 3527 H 330.793 3.10495 -0.316142 0
M  V30 3528 N 331.094 0.475555 1.50254 0
M  V30 3529 C 332.371 -0.139685 1.95101 0
M  V30 3530 C 332.751 -1.56555 1.41611 0
M  V30 3531 O 332.099 -2.19956 0.618993 0
M  V30 3532 C 332.309 -0.0784298 3.48912 0
M  V30 3533 C 333.657 -0.265095 4.23772 0
M  V30 3534 O 334.681 -0.154808 3.55863 0
M  V30 3535 O 333.54 -0.488327 5.44314 0
M  V30 3536 H 330.634 -0.109236 0.819754 0
M  V30 3537 H 333.18 0.536276 1.61004 0
M  V30 3538 H 331.952 0.916918 3.80405 0
M  V30 3539 H 331.575 -0.795655 3.89558 0
M  V30 3540 N 332.573 -1.56217 0.208337 0
M  V30 3541 C 333.984 -1.84243 -0.301904 0
M  V30 3542 C 334.335 -1.12939 -1.60434 0
M  V30 3543 O 333.46 -0.39461 -2.12772 0
M  V30 3544 C 334.055 -3.34231 -0.554543 0
M  V30 3545 C 332.614 -3.62621 -1.00912 0
M  V30 3546 C 331.761 -2.77224 -0.064933 0
M  V30 3547 H 334.712 -1.52712 0.431833 0
M  V30 3548 H 334.733 -3.5372 -1.40223 0
M  V30 3549 H 334.245 -3.86099 0.393561 0
M  V30 3550 H 332.346 -3.16197 -1.97104 0
M  V30 3551 H 332.459 -4.7071 -0.892674 0
M  V30 3552 H 330.823 -2.48256 -0.56929 0
M  V30 3553 H 331.606 -3.31887 0.877851 0
M  V30 3554 N 334.051 0.0651679 -1.57465 0
M  V30 3555 C 335.279 0.775808 -1.91804 0
M  V30 3556 C 335.694 1.70782 -0.804916 0
M  V30 3557 O 335.051 1.81153 0.221311 0
M  V30 3558 C 335.102 1.56381 -3.25925 0
M  V30 3559 O 334.823 0.669248 -4.32958 0
M  V30 3560 C 336.324 2.37485 -3.7432 0
M  V30 3561 H 333.544 0.2202 -0.63384 0
M  V30 3562 H 336.088 0.0334587 -2.04473 0
M  V30 3563 H 334.243 2.25837 -3.14764 0
M  V30 3564 H 334.657 1.21801 -5.10162 0
M  V30 3565 H 336.131 2.88223 -4.70778 0
M  V30 3566 H 336.608 3.17307 -3.03666 0
M  V30 3567 H 337.214 1.73173 -3.88447 0
M  V30 3568 N 335.529 1.53961 0.336706 0
M  V30 3569 C 336.757 1.75483 1.09605 0
M  V30 3570 C 337.172 0.4972 1.82136 0
M  V30 3571 O 336.529 -0.53149 1.74589 0
M  V30 3572 C 336.58 2.93943 2.10428 0
M  V30 3573 O 336.301 4.14842 1.40846 0
M  V30 3574 C 337.802 3.27571 2.98684 0
M  V30 3575 H 335.022 0.586166 0.326574 0
M  V30 3576 H 337.566 2.00808 0.38683 0
M  V30 3577 H 335.721 2.70929 2.76905 0
M  V30 3578 H 336.135 4.81383 2.08255 0
M  V30 3579 H 337.609 4.13791 3.6535 0
M  V30 3580 H 338.086 2.44168 3.65074 0
M  V30 3581 H 338.692 3.52615 2.37787 0
M  V30 3582 N 337.007 -0.598083 1.45811 0
M  V30 3583 C 338.254 -1.35681 1.50323 0
M  V30 3584 C 338.582 -1.9393 0.148739 0
M  V30 3585 O 337.837 -1.76094 -0.853787 0
M  V30 3586 C 338.136 -2.51669 2.53766 0
M  V30 3587 C 337.802 -2.11508 3.98215 0
M  V30 3588 C 336.464 -2.0027 4.37545 0
M  V30 3589 C 338.816 -1.80308 4.89018 0
M  V30 3590 C 336.144 -1.56067 5.65562 0
M  V30 3591 C 338.496 -1.37589 6.17456 0
M  V30 3592 C 337.16 -1.24916 6.55708 0
M  V30 3593 H 336.43 -0.496492 0.550069 0
M  V30 3594 H 339.077 -0.675052 1.79207 0
M  V30 3595 H 337.382 -3.25225 2.18486 0
M  V30 3596 H 339.079 -3.09895 2.54492 0
M  V30 3597 H 335.669 -2.21185 3.67117 0
M  V30 3598 H 339.853 -1.87884 4.59362 0
M  V30 3599 H 335.109 -1.44886 5.93985 0
M  V30 3600 H 339.283 -1.12495 6.87254 0
M  V30 3601 H 336.91 -0.904386 7.54801 0
M  V30 3602 N 338.485 -1.33259 -0.841409 0
M  V30 3603 C 339.415 -1.25926 -1.96634 0
M  V30 3604 C 340.396 -0.140349 -1.6952 0
M  V30 3605 O 341.581 -0.329707 -1.91381 0
M  V30 3606 C 338.711 -0.99512 -3.32738 0
M  V30 3607 C 337.665 -2.0767 -3.74242 0
M  V30 3608 C 336.991 -1.66474 -5.08125 0
M  V30 3609 C 338.291 -3.49318 -3.88297 0
M  V30 3610 H 339.985 -2.20046 -2.03027 0
M  V30 3611 H 337.531 -1.05931 -0.975425 0
M  V30 3612 H 339.484 -0.930323 -4.11002 0
M  V30 3613 H 338.208 -0.0183004 -3.26595 0
M  V30 3614 H 336.867 -2.13187 -2.98239 0
M  V30 3615 H 336.515 -0.675012 -4.9845 0
M  V30 3616 H 336.215 -2.3885 -5.36865 0
M  V30 3617 H 337.739 -1.61455 -5.88867 0
M  V30 3618 H 339.153 -3.46316 -4.56879 0
M  V30 3619 H 337.55 -4.20158 -4.28471 0
M  V30 3620 H 338.62 -3.8801 -2.9082 0
M  V30 3621 N 339.963 1.05934 -1.16686 0
M  V30 3622 C 340.895 2.13468 -0.834503 0
M  V30 3623 C 341.908 1.62013 0.15984 0
M  V30 3624 O 343.097 1.7838 -0.0654228 0
M  V30 3625 C 340.197 3.3817 -0.222361 0
M  V30 3626 C 339.37 4.18928 -1.25771 0
M  V30 3627 C 338.429 5.21985 -0.664703 0
M  V30 3628 O 337.455 5.53334 -1.33453 0
M  V30 3629 N 338.657 5.77919 0.546834 0
M  V30 3630 H 341.422 2.42578 -1.75999 0
M  V30 3631 H 338.983 1.21967 -1.06469 0
M  V30 3632 H 340.975 4.04266 0.187472 0
M  V30 3633 H 339.545 3.06655 0.606758 0
M  V30 3634 H 338.765 3.48433 -1.84358 0
M  V30 3635 H 340.053 4.69687 -1.95631 0
M  V30 3636 H 339.451 5.54721 1.10912 0
M  V30 3637 H 338.008 6.45573 0.898829 0
M  V30 3638 N 341.441 0.965919 1.2453 0
M  V30 3639 C 342.666 0.643971 1.97149 0
M  V30 3640 C 343.091 -0.779487 1.71189 0
M  V30 3641 O 342.449 -1.5288 0.974553 0
M  V30 3642 C 342.497 0.922557 3.48599 0
M  V30 3643 O 341.601 0.00707672 4.12399 0
M  V30 3644 H 340.942 0.243647 0.617683 0
M  V30 3645 H 343.472 1.29558 1.58353 0
M  V30 3646 H 343.482 0.853373 3.98976 0
M  V30 3647 H 342.157 1.95996 3.66822 0
M  V30 3648 H 340.734 0.12943 3.72675 0
M  V30 3649 N 342.919 -1.39368 0.735821 0
M  V30 3650 C 344.196 -1.94465 0.210395 0
M  V30 3651 C 344.576 -1.67254 -1.28799 0
M  V30 3652 O 343.924 -1.00123 -2.05396 0
M  V30 3653 C 344.134 -3.4472 0.544897 0
M  V30 3654 C 345.482 -4.21708 0.494689 0
M  V30 3655 O 346.506 -3.52922 0.482136 0
M  V30 3656 O 345.365 -5.44299 0.489947 0
M  V30 3657 H 342.459 -0.826096 0.0386666 0
M  V30 3658 H 345.005 -1.48863 0.814735 0
M  V30 3659 H 343.777 -3.57963 1.58045 0
M  V30 3660 H 343.4 -3.97502 -0.08837 0
M  V30 3661 N 344.397 -0.483516 -1.5 0
M  V30 3662 C 345.327 0.293829 -2.31644 0
M  V30 3663 C 346.308 0.978864 -1.39112 0
M  V30 3664 O 347.493 0.973644 -1.68029 0
M  V30 3665 C 344.623 1.36897 -3.19181 0
M  V30 3666 C 343.577 0.804833 -4.20365 0
M  V30 3667 C 342.903 1.9792 -4.96721 0
M  V30 3668 C 344.203 -0.192313 -5.21946 0
M  V30 3669 H 345.897 -0.387616 -2.9688 0
M  V30 3670 H 343.443 -0.187856 -1.42769 0
M  V30 3671 H 345.396 1.92037 -3.751 0
M  V30 3672 H 344.12 2.07936 -2.51853 0
M  V30 3673 H 342.779 0.275319 -3.65565 0
M  V30 3674 H 342.427 2.67686 -4.25856 0
M  V30 3675 H 342.127 1.60789 -5.65173 0
M  V30 3676 H 343.651 2.53526 -5.55479 0
M  V30 3677 H 345.065 0.270333 -5.72662 0
M  V30 3678 H 343.462 -0.478543 -5.98189 0
M  V30 3679 H 344.532 -1.11409 -4.71928 0
M  V30 3680 N 345.875 1.56104 -0.216619 0
M  V30 3681 C 347.1 2.0301 0.424462 0
M  V30 3682 C 347.525 1.0955 1.52907 0
M  V30 3683 O 346.883 0.0827914 1.81111 0
M  V30 3684 C 346.931 3.4819 0.937883 0
M  V30 3685 O 346.035 3.57865 2.04955 0
M  V30 3686 H 345.376 0.656925 0.0966755 0
M  V30 3687 H 347.906 2.01859 -0.33381 0
M  V30 3688 H 347.916 3.88413 1.24897 0
M  V30 3689 H 346.591 4.15699 0.129387 0
M  V30 3690 H 345.168 3.29527 1.74546 0
M  V30 3691 N 347.353 -0.0568162 1.57498 0
M  V30 3692 C 348.769 -0.411933 1.54192 0
M  V30 3693 C 348.969 -1.78287 0.938942 0
M  V30 3694 O 348.025 -2.46483 0.547919 0
M  V30 3695 C 349.338 -0.339244 2.9878 0
M  V30 3696 C 350.886 -0.418348 3.10192 0
M  V30 3697 C 351.361 -0.375407 4.56459 0
M  V30 3698 N 352.852 -0.435038 4.61153 0
M  V30 3699 C 353.587 -0.424265 5.71828 0
M  V30 3700 N 353.083 -0.367418 6.91825 0
M  V30 3701 N 354.876 -0.471938 5.60115 0
M  V30 3702 H 347.027 0.840684 1.95055 0
M  V30 3703 H 349.29 0.316987 0.893433 0
M  V30 3704 H 348.996 0.601742 3.46514 0
M  V30 3705 H 348.87 -1.14371 3.59443 0
M  V30 3706 H 351.257 -1.34976 2.62422 0
M  V30 3707 H 351.338 0.414962 2.52412 0
M  V30 3708 H 350.982 0.552219 5.04889 0
M  V30 3709 H 350.912 -1.22645 5.12119 0
M  V30 3710 H 353.403 -0.482612 3.74806 0
M  V30 3711 H 353.716 -0.363535 7.71944 0
M  V30 3712 H 352.061 -0.333879 6.94198 0
M  V30 3713 H 355.252 -0.514145 4.65268 0
M  V30 3714 H 355.425 -0.460073 6.46365 0
M  V30 3715 N 348.832 -1.54138 -0.328536 0
M  V30 3716 C 350.109 -1.62749 -1.08499 0
M  V30 3717 C 350.489 -0.458198 -2.06067 0
M  V30 3718 O 349.837 0.548046 -2.2183 0
M  V30 3719 C 350.047 -2.99519 -1.79135 0
M  V30 3720 C 351.395 -3.55394 -2.32337 0
M  V30 3721 O 352.419 -3.01792 -1.89209 0
M  V30 3722 O 351.278 -4.49186 -3.11279 0
M  V30 3723 H 348.372 -0.65886 -0.499832 0
M  V30 3724 H 350.918 -1.66484 -0.328826 0
M  V30 3725 H 349.69 -3.76061 -1.08139 0
M  V30 3726 H 349.313 -2.99441 -2.61574 0
M  V30 3727 N 350.31 0.590341 -1.46126 0
M  V30 3728 C 351.558 1.34616 -1.50742 0
M  V30 3729 C 351.879 1.94363 -0.157486 0
M  V30 3730 O 351.149 1.78136 0.815136 0
M  V30 3731 H 349.729 0.499789 -0.555175 0
M  V30 3732 H 352.391 0.691953 -1.82203 0
M  V30 3733 H 351.487 2.15678 -2.25587 0
M  V30 3734 N 351.788 1.33704 0.83433 0
M  V30 3735 C 352.735 1.24335 1.94447 0
M  V30 3736 C 353.705 0.120991 1.65659 0
M  V30 3737 O 354.89 0.300035 1.88426 0
M  V30 3738 C 352.03 0.993124 3.30501 0
M  V30 3739 C 351.143 2.20217 3.71657 0
M  V30 3740 C 350.278 1.88572 4.96602 0
M  V30 3741 C 349.317 3.05683 5.30306 0
M  V30 3742 N 348.454 2.73997 6.46429 0
M  V30 3743 H 353.294 2.1928 2.01792 0
M  V30 3744 H 350.831 1.09035 0.987404 0
M  V30 3745 H 352.789 0.828467 4.08892 0
M  V30 3746 H 351.419 0.0803902 3.227 0
M  V30 3747 H 350.471 2.47642 2.88752 0
M  V30 3748 H 351.783 3.07752 3.92543 0
M  V30 3749 H 350.937 1.68776 5.82752 0
M  V30 3750 H 349.676 0.982799 4.77695 0
M  V30 3751 H 348.681 3.26088 4.42659 0
M  V30 3752 H 349.906 3.96737 5.51159 0
M  V30 3753 H 347.852 1.86268 6.28999 0
M  V30 3754 H 347.769 3.55064 6.67432 0
M  V30 3755 H 349.037 2.57679 7.35678 0
M  V30 3756 N 353.266 -1.05314 1.17247 0
M  V30 3757 C 354.496 -1.81707 0.983166 0
M  V30 3758 C 354.904 -1.83222 -0.471822 0
M  V30 3759 O 354.247 -1.25721 -1.3394 0
M  V30 3760 C 354.309 -3.29134 1.44606 0
M  V30 3761 C 353.973 -3.51304 2.92292 0
M  V30 3762 C 354.97 -3.4353 3.90235 0
M  V30 3763 C 352.655 -3.78306 3.30439 0
M  V30 3764 C 354.649 -3.62442 5.24323 0
M  V30 3765 C 352.336 -3.96866 4.64694 0
M  V30 3766 C 353.334 -3.88933 5.61445 0
M  V30 3767 O 353.022 -4.06976 6.93272 0
M  V30 3768 H 352.754 -0.579476 0.348114 0
M  V30 3769 H 355.308 -1.33705 1.55924 0
M  V30 3770 H 353.538 -3.78046 0.813537 0
M  V30 3771 H 355.227 -3.87049 1.22262 0
M  V30 3772 H 355.993 -3.22648 3.62109 0
M  V30 3773 H 351.872 -3.83585 2.55702 0
M  V30 3774 H 355.416 -3.56165 5.99827 0
M  V30 3775 H 351.313 -4.1724 4.92525 0
M  V30 3776 H 352.081 -4.24209 6.99992 0
M  V30 3777 N 354.744 -0.972509 -1.24016 0
M  V30 3778 C 355.674 -0.525548 -2.27509 0
M  V30 3779 C 356.655 0.437262 -1.64384 0
M  V30 3780 O 357.84 0.332343 -1.91335 0
M  V30 3781 C 354.97 0.180448 -3.46831 0
M  V30 3782 C 353.924 -0.698859 -4.22256 0
M  V30 3783 C 353.25 0.138903 -5.3452 0
M  V30 3784 C 354.55 -1.98582 -4.83076 0
M  V30 3785 H 356.244 -1.39058 -2.65148 0
M  V30 3786 H 353.79 -0.67009 -1.27459 0
M  V30 3787 H 355.743 0.504387 -4.18371 0
M  V30 3788 H 354.467 1.07987 -3.08231 0
M  V30 3789 H 353.126 -1.00614 -3.52523 0
M  V30 3790 H 352.774 1.03862 -4.9216 0
M  V30 3791 H 352.474 -0.446259 -5.85903 0
M  V30 3792 H 353.998 0.457404 -6.08884 0
M  V30 3793 H 355.412 -1.72715 -5.46665 0
M  V30 3794 H 353.809 -2.5181 -5.44713 0
M  V30 3795 H 354.879 -2.67769 -4.04262 0
M  V30 3796 N 356.222 1.38976 -0.743202 0
M  V30 3797 C 357.469 2.00343 -0.294752 0
M  V30 3798 C 357.797 1.58983 1.12047 0
M  V30 3799 O 357.052 0.813809 1.77977 0
M  V30 3800 C 357.351 3.55647 -0.353517 0
M  V30 3801 C 357.017 4.16685 -1.72292 0
M  V30 3802 C 355.679 4.3307 -2.09771 0
M  V30 3803 C 358.031 4.50464 -2.62168 0
M  V30 3804 C 355.359 4.80526 -3.36618 0
M  V30 3805 C 357.711 4.99332 -3.88395 0
M  V30 3806 C 356.375 5.13924 -4.25956 0
M  V30 3807 H 355.645 0.733108 -0.107857 0
M  V30 3808 H 358.292 1.6618 -0.951651 0
M  V30 3809 H 356.597 3.89884 0.386954 0
M  V30 3810 H 358.294 4.00998 0.0117269 0
M  V30 3811 H 354.884 4.04339 -1.42155 0
M  V30 3812 H 359.068 4.37416 -2.3448 0
M  V30 3813 H 354.324 4.90008 -3.65653 0
M  V30 3814 H 358.498 5.2444 -4.58187 0
M  V30 3815 H 356.125 5.50457 -5.2431 0
M  V30 3816 N 357.7 0.491464 1.49741 0
M  V30 3817 C 358.946 -0.0565092 2.02721 0
M  V30 3818 C 359.279 -1.37522 1.37118 0
M  V30 3819 O 358.554 -1.87866 0.503645 0
M  V30 3820 C 358.837 -0.219051 3.59433 0
M  V30 3821 C 358.69 1.12211 4.35579 0
M  V30 3822 C 360.009 -0.964157 4.29409 0
M  V30 3823 H 357.128 -0.0190627 0.736753 0
M  V30 3824 H 359.77 0.641021 1.7886 0
M  V30 3825 H 357.92 -0.813165 3.79895 0
M  V30 3826 H 359.592 1.75437 4.26637 0
M  V30 3827 H 357.835 1.71377 3.98513 0
M  V30 3828 H 358.506 0.961794 5.43556 0
M  V30 3829 H 360.982 -0.460378 4.13545 0
M  V30 3830 H 359.858 -1.04671 5.38828 0
M  V30 3831 H 360.119 -2.00563 3.93988 0
M  V30 3832 N 359.178 -1.55987 0.224894 0
M  V30 3833 C 360.408 -2.02489 -0.41007 0
M  V30 3834 C 360.816 -1.10391 -1.53657 0
M  V30 3835 O 360.159 -0.106458 -1.83391 0
M  V30 3836 C 360.221 -3.45319 -0.999757 0
M  V30 3837 C 359.885 -4.56999 -0.00827976 0
M  V30 3838 C 360.882 -5.13812 0.793314 0
M  V30 3839 C 358.567 -5.02176 0.111442 0
M  V30 3840 C 360.561 -6.14276 1.7013 0
M  V30 3841 C 358.248 -6.02477 1.02296 0
M  V30 3842 C 359.246 -6.58403 1.81643 0
M  V30 3843 O 358.934 -7.56751 2.71262 0
M  V30 3844 H 358.666 -0.667915 -0.104235 0
M  V30 3845 H 361.22 -2.0257 0.339782 0
M  V30 3846 H 359.45 -3.42318 -1.79876 0
M  V30 3847 H 361.139 -3.7545 -1.54248 0
M  V30 3848 H 361.905 -4.79756 0.711288 0
M  V30 3849 H 357.784 -4.58323 -0.49605 0
M  V30 3850 H 361.328 -6.57854 2.32107 0
M  V30 3851 H 357.225 -6.35954 1.10599 0
M  V30 3852 H 357.993 -7.74286 2.65375 0
M  V30 3853 N 360.656 0.0484629 -1.57525 0
M  V30 3854 C 361.905 0.742065 -1.87553 0
M  V30 3855 C 362.218 1.77545 -0.820802 0
M  V30 3856 O 363.424 2.52027 -1.00967 0
M  V30 3857 C 361.88 1.37081 -3.32771 0
M  V30 3858 C 361.488 0.374786 -4.4643 0
M  V30 3859 C 363.232 2.04542 -3.71972 0
M  V30 3860 C 361.139 1.01077 -5.82698 0
M  V30 3861 H 360.069 0.280903 -0.699721 0
M  V30 3862 H 362.72 -0.00411877 -1.835 0
M  V30 3863 H 361.102 2.16605 -3.31509 0
M  V30 3864 H 362.276 -0.392331 -4.59127 0
M  V30 3865 H 360.591 -0.196653 -4.15935 0
M  V30 3866 H 363.188 2.52943 -4.71088 0
M  V30 3867 H 363.531 2.85515 -3.02964 0
M  V30 3868 H 364.064 1.31819 -3.75325 0
M  V30 3869 H 360.803 0.240878 -6.55057 0
M  V30 3870 H 360.323 1.74819 -5.73758 0
M  V30 3871 H 362.002 1.52383 -6.28799 0
M  V30 3872 N 362.134 1.5431 0.320358 0
M  V30 3873 C 363.064 1.86912 1.3995 0
M  V30 3874 C 364.045 0.726211 1.53819 0
M  V30 3875 O 365.23 0.980233 1.67646 0
M  V30 3876 C 362.36 2.09932 2.7667 0
M  V30 3877 C 361.314 3.25776 2.77586 0
M  V30 3878 C 360.64 3.34173 4.17412 0
M  V30 3879 C 361.94 4.6335 2.41048 0
M  V30 3880 H 363.634 2.77292 1.12914 0
M  V30 3881 H 361.18 1.33421 0.541738 0
M  V30 3882 H 363.133 2.31324 3.52232 0
M  V30 3883 H 361.857 1.16304 3.0519 0
M  V30 3884 H 360.516 3.04276 2.04479 0
M  V30 3885 H 360.164 2.38098 4.43078 0
M  V30 3886 H 359.864 4.12033 4.18931 0
M  V30 3887 H 361.388 3.57803 4.94782 0
M  V30 3888 H 362.802 4.84602 3.06324 0
M  V30 3889 H 361.199 5.43782 2.53813 0
M  V30 3890 H 362.269 4.65381 1.36193 0
M  V30 3891 N 363.613 -0.582584 1.46437 0
M  V30 3892 C 365.029 -0.905962 1.31394 0
M  V30 3893 C 365.229 -1.99468 0.285476 0
M  V30 3894 O 364.285 -2.50566 -0.311914 0
M  V30 3895 C 365.598 -1.3232 2.70022 0
M  V30 3896 C 367.146 -1.43604 2.78113 0
M  V30 3897 C 367.621 -1.88694 4.17323 0
M  V30 3898 N 369.112 -1.95887 4.19741 0
M  V30 3899 C 369.847 -2.32051 5.24347 0
M  V30 3900 N 369.343 -2.67006 6.39281 0
M  V30 3901 N 371.136 -2.32606 5.11713 0
M  V30 3902 H 363.287 0.1366 2.1196 0
M  V30 3903 H 365.55 -0.00155736 0.947999 0
M  V30 3904 H 365.256 -0.597242 3.46592 0
M  V30 3905 H 365.13 -2.28469 3.00136 0
M  V30 3906 H 367.517 -2.15286 2.01832 0
M  V30 3907 H 367.598 -0.457059 2.51684 0
M  V30 3908 H 367.242 -1.1759 4.941 0
M  V30 3909 H 367.172 -2.8755 4.4116 0
M  V30 3910 H 369.663 -1.71362 3.36814 0
M  V30 3911 H 369.976 -2.93554 7.14875 0
M  V30 3912 H 368.321 -2.64644 6.42642 0
M  V30 3913 H 371.512 -2.04721 4.2096 0
M  V30 3914 H 371.685 -2.60462 5.93349 0
M  V30 3915 N 365.091 -1.34144 -0.827227 0
M  V30 3916 C 366.339 -1.26009 -1.58007 0
M  V30 3917 C 366.66 0.170971 -1.94249 0
M  V30 3918 O 365.93 1.10256 -1.61927 0
M  V30 3919 H 364.51 -0.463414 -0.585881 0
M  V30 3920 H 367.172 -1.68005 -0.987951 0
M  V30 3921 H 366.268 -1.86187 -2.50481 0
M  V30 3922 N 366.569 1.04691 -1.17803 0
M  V30 3923 C 367.815 1.78181 -0.980977 0
M  V30 3924 C 368.17 1.86191 0.484825 0
M  V30 3925 O 367.463 1.35436 1.35527 0
M  V30 3926 C 367.657 3.21467 -1.56186 0
M  V30 3927 C 367.486 3.27422 -3.08261 0
M  V30 3928 C 366.256 3.36415 -3.77032 0
M  V30 3929 C 368.454 3.15947 -4.0581 0
M  V30 3930 N 366.436 3.31554 -5.16667 0
M  V30 3931 C 367.807 3.18514 -5.31929 0
M  V30 3932 C 369.862 2.99945 -3.97413 0
M  V30 3933 C 368.565 3.06723 -6.50625 0
M  V30 3934 C 370.591 2.89497 -5.15699 0
M  V30 3935 C 369.953 2.92702 -6.40706 0
M  V30 3936 H 366.052 0.6641 -0.412911 0
M  V30 3937 H 368.636 1.24762 -1.49474 0
M  V30 3938 H 366.807 3.73245 -1.07436 0
M  V30 3939 H 368.539 3.8322 -1.30093 0
M  V30 3940 H 365.294 3.41887 -3.27735 0
M  V30 3941 H 365.718 3.3258 -5.89678 0
M  V30 3942 H 370.36 2.96302 -3.01604 0
M  V30 3943 H 368.078 3.0912 -7.46639 0
M  V30 3944 H 371.664 2.78179 -5.10987 0
M  V30 3945 H 370.544 2.84697 -7.30696 0
M  V30 3946 N 368.047 0.979072 1.23499 0
M  V30 3947 C 369.272 0.664845 1.96455 0
M  V30 3948 C 369.697 -0.761287 1.72006 0
M  V30 3949 O 369.055 -1.51837 0.990713 0
M  V30 3950 C 369.103 0.959479 3.47601 0
M  V30 3951 O 368.207 0.0508168 4.12369 0
M  V30 3952 H 367.548 0.250185 0.615064 0
M  V30 3953 H 370.078 1.31231 1.5697 0
M  V30 3954 H 370.088 0.895642 3.98048 0
M  V30 3955 H 368.763 1.99876 3.64723 0
M  V30 3956 H 367.34 0.16895 3.72517 0
M  V30 3957 N 369.525 -1.3858 0.750561 0
M  V30 3958 C 370.435 -2.34278 0.122825 0
M  V30 3959 C 371.451 -1.59116 -0.704131 0
M  V30 3960 O 372.627 -1.91326 -0.628987 0
M  V30 3961 C 369.692 -3.38221 -0.762086 0
M  V30 3962 C 368.753 -4.29227 0.078896 0
M  V30 3963 C 367.986 -5.28205 -0.763874 0
M  V30 3964 O 368.209 -5.34112 -2.00201 0
M  V30 3965 O 367.143 -6.01618 -0.18428 0
M  V30 3966 H 370.969 -2.89649 0.913088 0
M  V30 3967 H 368.554 -1.40374 0.511417 0
M  V30 3968 H 370.436 -4.01872 -1.26793 0
M  V30 3969 H 369.111 -2.85211 -1.5309 0
M  V30 3970 H 368.018 -3.68747 0.630621 0
M  V30 3971 H 369.351 -4.85484 0.810289 0
M  V30 3972 N 371.003 -0.499398 -1.49478 0
M  V30 3973 C 371.951 0.293604 -2.3074 0
M  V30 3974 C 372.945 0.96427 -1.39277 0
M  V30 3975 O 374.151 0.892141 -1.56336 0
M  V30 3976 H 370.526 0.113541 -0.743379 0
M  V30 3977 H 372.497 -0.411772 -2.95545 0
M  V30 3978 C 371.246 1.3462 -3.20582 0
M  V30 3979 H 370.569 0.83954 -3.90886 0
M  V30 3980 H 372.009 1.87308 -3.80384 0
M  V30 3981 C 370.468 2.36351 -2.40083 0
M  V30 3982 O 370.998 3.422 -2.10385 0
M  V30 3983 N 369.204 2.0878 -2.02137 0
M  V30 3984 H 368.751 1.22723 -2.26488 0
M  V30 3985 H 368.709 2.77075 -1.48583 0
M  V30 3986 N 372.481 1.55866 -0.233164 0
M  V30 3987 C 373.758 1.90471 0.444988 0
M  V30 3988 C 374.138 1.15209 1.7689 0
M  V30 3989 O 373.486 0.265119 2.26957 0
M  V30 3990 C 373.696 3.4333 0.626559 0
M  V30 3991 C 375.044 4.14319 0.92871 0
M  V30 3992 O 376.068 3.48993 0.712926 0
M  V30 3993 O 374.927 5.29846 1.33887 0
M  V30 3994 H 372.021 0.792347 0.236885 0
M  V30 3995 H 374.567 1.67437 -0.276211 0
M  V30 3996 H 373.339 3.90095 -0.306822 0
M  V30 3997 H 372.962 3.72181 1.39881 0
M  V30 3998 N 373.959 -0.0401083 1.57549 0
M  V30 3999 C 375.205 -0.734211 1.89043 0
M  V30 4000 C 375.538 -1.75591 0.829535 0
M  V30 4001 O 374.813 -1.93868 -0.156706 0
M  V30 4002 C 375.096 -1.41374 3.31188 0
M  V30 4003 C 374.949 -0.406299 4.47961 0
M  V30 4004 C 376.268 -2.35061 3.72068 0
M  V30 4005 H 373.387 -0.265447 0.687537 0
M  V30 4006 H 376.029 0.00294087 1.9 0
M  V30 4007 H 374.179 -2.04206 3.30503 0
M  V30 4008 H 375.851 0.219255 4.60779 0
M  V30 4009 H 374.094 0.275485 4.32924 0
M  V30 4010 H 374.765 -0.920022 5.44279 0
M  V30 4011 H 377.241 -1.82282 3.74049 0
M  V30 4012 H 376.117 -2.79593 4.72355 0
M  V30 4013 H 376.378 -3.21258 3.0372 0
M  V30 4014 N 375.437 -1.54477 -0.31217 0
M  V30 4015 C 376.667 -1.76948 -1.06645 0
M  V30 4016 C 377.075 -0.523593 -1.81811 0
M  V30 4017 O 376.418 0.51578 -1.76311 0
M  V30 4018 C 376.48 -2.91668 -2.10166 0
M  V30 4019 C 376.144 -4.30165 -1.54296 0
M  V30 4020 C 377.141 -5.10603 -0.978793 0
M  V30 4021 C 374.826 -4.76738 -1.58196 0
M  V30 4022 C 376.82 -6.3573 -0.461048 0
M  V30 4023 C 374.507 -6.01831 -1.06034 0
M  V30 4024 C 375.505 -6.81161 -0.500844 0
M  V30 4025 O 375.193 -8.03899 0.0128958 0
M  V30 4026 H 374.925 -0.594088 -0.322546 0
M  V30 4027 H 377.479 -2.02213 -0.360441 0
M  V30 4028 H 375.709 -2.62001 -2.84416 0
M  V30 4029 H 377.398 -3.01817 -2.71406 0
M  V30 4030 H 378.164 -4.75771 -0.941651 0
M  V30 4031 H 374.043 -4.15027 -2.00683 0
M  V30 4032 H 377.587 -6.97596 -0.0236894 0
M  V30 4033 H 373.484 -6.36152 -1.09459 0
M  V30 4034 H 374.252 -8.18437 -0.101457 0
M  V30 4035 N 376.915 0.57481 -1.46744 0
M  V30 4036 C 378.161 1.33251 -1.53674 0
M  V30 4037 C 378.516 1.91468 -0.189125 0
M  V30 4038 O 377.809 1.73954 0.803151 0
M  V30 4039 C 378.003 2.476 -2.57738 0
M  V30 4040 C 377.832 2.00586 -4.02487 0
M  V30 4041 C 376.602 1.85237 -4.70123 0
M  V30 4042 C 378.8 1.56078 -4.90045 0
M  V30 4043 N 376.782 1.32377 -5.99458 0
M  V30 4044 C 378.153 1.14863 -6.09267 0
M  V30 4045 C 380.208 1.43968 -4.76632 0
M  V30 4046 C 378.911 0.627435 -7.16558 0
M  V30 4047 C 380.937 0.932512 -5.84002 0
M  V30 4048 C 380.299 0.53019 -7.02402 0
M  V30 4049 H 376.398 0.480284 -0.617131 0
M  V30 4050 H 378.982 0.653592 -1.83402 0
M  V30 4051 H 377.153 3.13045 -2.29907 0
M  V30 4052 H 378.885 3.14567 -2.54616 0
M  V30 4053 H 375.64 2.07423 -4.25761 0
M  V30 4054 H 376.064 1.08085 -6.68316 0
M  V30 4055 H 380.706 1.73689 -3.85476 0
M  V30 4056 H 378.424 0.317821 -8.07475 0
M  V30 4057 H 382.01 0.842611 -5.75666 0
M  V30 4058 H 380.89 0.14381 -7.84068 0
M  V30 4059 N 378.394 1.34581 0.820102 0
M  V30 4060 C 379.341 1.2639 1.93117 0
M  V30 4061 C 380.311 0.138554 1.65521 0
M  V30 4062 O 381.496 0.320004 1.88097 0
M  V30 4063 C 378.636 1.02812 3.29429 0
M  V30 4064 C 377.749 2.24146 3.693 0
M  V30 4065 C 376.884 1.93829 4.94574 0
M  V30 4066 C 375.923 3.1129 5.27034 0
M  V30 4067 N 375.06 2.80838 6.43486 0
M  V30 4068 H 379.9 2.21408 1.99455 0
M  V30 4069 H 377.437 1.10077 0.975784 0
M  V30 4070 H 379.395 0.871788 4.0799 0
M  V30 4071 H 378.025 0.114612 3.22596 0
M  V30 4072 H 377.077 2.50691 2.86109 0
M  V30 4073 H 378.389 3.11899 3.89257 0
M  V30 4074 H 377.543 1.74948 5.80929 0
M  V30 4075 H 376.282 1.03341 4.76626 0
M  V30 4076 H 375.287 3.30764 4.39175 0
M  V30 4077 H 376.512 4.02561 5.4692 0
M  V30 4078 H 374.458 1.92929 6.26988 0
M  V30 4079 H 374.375 3.62123 6.63629 0
M  V30 4080 H 375.643 2.65467 7.32903 0
M  V30 4081 N 379.872 -1.04064 1.18357 0
M  V30 4082 C 381.288 -1.2947 0.933258 0
M  V30 4083 C 381.488 -1.97466 -0.401169 0
M  V30 4084 O 380.544 -2.25528 -1.13549 0
M  V30 4085 C 381.857 -2.15337 2.09882 0
M  V30 4086 C 383.405 -2.28683 2.13712 0
M  V30 4087 C 383.88 -3.17917 3.29686 0
M  V30 4088 N 385.371 -3.25504 3.29547 0
M  V30 4089 C 386.106 -3.94706 4.15926 0
M  V30 4090 N 385.602 -4.66239 5.12439 0
M  V30 4091 N 387.395 -3.90986 4.0384 0
M  V30 4092 H 379.546 -0.583359 2.04232 0
M  V30 4093 H 381.809 -0.319921 0.892387 0
M  V30 4094 H 381.515 -1.72682 3.06389 0
M  V30 4095 H 381.389 -3.16015 2.05947 0
M  V30 4096 H 383.776 -2.70575 1.17784 0
M  V30 4097 H 383.857 -1.27596 2.21705 0
M  V30 4098 H 383.501 -2.76736 4.25887 0
M  V30 4099 H 383.431 -4.19036 3.1893 0
M  V30 4100 H 385.922 -2.74547 2.59677 0
M  V30 4101 H 386.235 -5.16638 5.74722 0
M  V30 4102 H 384.58 -4.65143 5.16398 0
M  V30 4103 H 387.771 -3.34234 3.27727 0
M  V30 4104 H 387.944 -4.44646 4.71375 0
M  V30 4105 N 381.35 -0.985608 -1.22978 0
M  V30 4106 C 382.761 -0.693593 -1.73338 0
M  V30 4107 C 383.112 0.789935 -1.79595 0
M  V30 4108 O 382.237 1.61771 -1.43733 0
M  V30 4109 C 382.832 -1.25235 -3.14804 0
M  V30 4110 C 381.391 -1.00987 -3.626 0
M  V30 4111 C 380.538 -1.37695 -2.40698 0
M  V30 4112 H 383.489 -1.15884 -1.08428 0
M  V30 4113 H 383.51 -0.627329 -3.75293 0
M  V30 4114 H 383.022 -2.33209 -3.10218 0
M  V30 4115 H 381.123 0.0535565 -3.72562 0
M  V30 4116 H 381.236 -1.66812 -4.49122 0
M  V30 4117 H 379.6 -0.795459 -2.4196 0
M  V30 4118 H 380.383 -2.46657 -2.38779 0
M  V30 4119 N 382.828 1.3818 -0.7579 0
M  V30 4120 C 384.076 1.99624 -0.315361 0
M  V30 4121 C 384.397 1.60464 1.10799 0
M  V30 4122 O 383.667 0.863507 1.75842 0
M  V30 4123 H 382.247 0.73831 -0.113611 0
M  V30 4124 H 384.909 1.68878 -0.972952 0
M  V30 4125 H 384.005 3.09754 -0.381931 0
M  V30 4126 N 384.306 0.507319 1.49211 0
M  V30 4127 C 385.216 -0.272136 2.33016 0
M  V30 4128 C 386.232 -0.961206 1.45041 0
M  V30 4129 O 387.408 -0.941191 1.78055 0
M  V30 4130 C 384.473 -1.31895 3.20631 0
M  V30 4131 C 383.534 -0.642648 4.24463 0
M  V30 4132 C 382.767 -1.63959 5.07891 0
M  V30 4133 O 382.99 -2.87007 4.92933 0
M  V30 4134 O 381.924 -1.19143 5.8999 0
M  V30 4135 H 385.75 0.413982 3.00865 0
M  V30 4136 H 383.335 0.268556 1.46966 0
M  V30 4137 H 385.217 -1.92446 3.7489 0
M  V30 4138 H 383.892 -1.98788 2.5547 0
M  V30 4139 H 382.799 0.00276252 3.741 0
M  V30 4140 H 384.132 -0.0160534 4.92197 0
M  V30 4141 N 385.784 -1.5574 0.241426 0
M  V30 4142 C 386.731 -2.21149 -0.660432 0
M  V30 4143 C 387.701 -1.17356 -1.17545 0
M  V30 4144 O 388.886 -1.45784 -1.23093 0
M  V30 4145 C 386.026 -2.91059 -1.85414 0
M  V30 4146 C 385.139 -4.09495 -1.37616 0
M  V30 4147 C 384.274 -4.67135 -2.529 0
M  V30 4148 C 383.313 -5.77831 -2.01936 0
M  V30 4149 N 382.45 -6.29677 -3.10566 0
M  V30 4150 H 387.29 -2.97845 -0.095955 0
M  V30 4151 H 384.827 -1.47057 -0.0356024 0
M  V30 4152 H 386.785 -3.29788 -2.5553 0
M  V30 4153 H 385.415 -2.16846 -2.39118 0
M  V30 4154 H 384.467 -3.76117 -0.569235 0
M  V30 4155 H 385.779 -4.89423 -0.962618 0
M  V30 4156 H 384.933 -5.08409 -3.31067 0
M  V30 4157 H 383.672 -3.86411 -2.97553 0
M  V30 4158 H 382.677 -5.36039 -1.22238 0
M  V30 4159 H 383.902 -6.60402 -1.58259 0
M  V30 4160 H 381.848 -5.5186 -3.54664 0
M  V30 4161 H 381.765 -7.04783 -2.73526 0
M  V30 4162 H 383.033 -6.75609 -3.88809 0
M  V30 4163 N 387.262 0.0317525 -1.57568 0
M  V30 4164 C 388.539 0.758366 -1.803 0
M  V30 4165 C 388.919 1.93718 -0.838845 0
M  V30 4166 O 388.267 2.28187 0.119571 0
M  V30 4167 C 388.477 1.19392 -3.27943 0
M  V30 4168 C 389.825 1.61094 -3.92854 0
M  V30 4169 O 390.849 1.28857 -3.32076 0
M  V30 4170 O 389.708 2.20918 -4.99858 0
M  V30 4171 H 386.802 0.366514 -0.741348 0
M  V30 4172 H 389.348 0.00873765 -1.69698 0
M  V30 4173 H 388.12 0.352275 -3.89711 0
M  V30 4174 H 387.743 2.00365 -3.43424 0
M  V30 4175 N 388.74 1.54641 0.303973 0
M  V30 4176 C 389.987 1.7378 1.03955 0
M  V30 4177 C 390.315 0.521986 1.87365 0
M  V30 4178 O 389.57 -0.496099 1.89308 0
M  V30 4179 C 389.869 2.97753 1.97681 0
M  V30 4180 C 389.535 4.31671 1.30271 0
M  V30 4181 C 388.197 4.68075 1.11619 0
M  V30 4182 C 390.549 5.147 0.82055 0
M  V30 4183 C 387.877 5.8509 0.434304 0
M  V30 4184 C 390.229 6.32416 0.152395 0
M  V30 4185 C 388.893 6.67484 -0.0461067 0
M  V30 4186 H 388.163 0.635908 0.380398 0
M  V30 4187 H 390.81 1.88896 0.314718 0
M  V30 4188 H 389.115 2.77406 2.76682 0
M  V30 4189 H 390.812 3.09756 2.54661 0
M  V30 4190 H 387.402 4.03041 1.45795 0
M  V30 4191 H 391.586 4.87077 0.952374 0
M  V30 4192 H 386.842 6.10806 0.269495 0
M  V30 4193 H 391.016 6.96023 -0.229126 0
M  V30 4194 H 388.643 7.58011 -0.576494 0
M  V30 4195 N 390.218 -0.567019 1.47046 0
M  V30 4196 C 391.634 -0.891975 1.32348 0
M  V30 4197 C 391.834 -1.99154 0.306616 0
M  V30 4198 O 390.89 -2.50883 -0.28532 0
M  V30 4199 C 392.203 -1.29449 2.7141 0
M  V30 4200 C 393.751 -1.40646 2.79621 0
M  V30 4201 C 394.226 -1.84257 4.19301 0
M  V30 4202 N 395.717 -1.91424 4.21795 0
M  V30 4203 C 396.452 -2.26476 5.26779 0
M  V30 4204 N 395.948 -2.60211 6.42077 0
M  V30 4205 N 397.741 -2.27166 5.14152 0
M  V30 4206 H 389.892 0.159074 2.11803 0
M  V30 4207 H 392.155 0.00849752 0.947962 0
M  V30 4208 H 391.861 -0.560448 3.47206 0
M  V30 4209 H 391.735 -2.25273 3.02542 0
M  V30 4210 H 394.122 -2.13133 2.04104 0
M  V30 4211 H 394.203 -0.430339 2.52154 0
M  V30 4212 H 393.847 -1.12343 4.95319 0
M  V30 4213 H 393.777 -2.82855 4.44185 0
M  V30 4214 H 396.268 -1.6778 3.38612 0
M  V30 4215 H 396.581 -2.85956 7.17948 0
M  V30 4216 H 394.926 -2.57813 6.45413 0
M  V30 4217 H 398.117 -2.00244 4.23107 0
M  V30 4218 H 398.29 -2.54154 5.96079 0
M  V30 4219 N 391.696 -1.35014 -0.812953 0
M  V30 4220 C 392.626 -1.30069 -1.93919 0
M  V30 4221 C 393.607 -0.176275 -1.69184 0
M  V30 4222 O 394.792 -0.370227 -1.90638 0
M  V30 4223 C 391.922 -1.06547 -3.30552 0
M  V30 4224 C 390.876 -2.15561 -3.69753 0
M  V30 4225 C 390.202 -1.77214 -5.04479 0
M  V30 4226 C 391.502 -3.57476 -3.808 0
M  V30 4227 H 393.196 -2.24303 -1.98314 0
M  V30 4228 H 390.742 -1.07977 -0.952736 0
M  V30 4229 H 392.695 -1.01729 -4.08937 0
M  V30 4230 H 391.419 -0.0875719 -3.26483 0
M  V30 4231 H 390.078 -2.19466 -2.9365 0
M  V30 4232 H 389.726 -0.780589 -4.96906 0
M  V30 4233 H 389.426 -2.50184 -5.31678 0
M  V30 4234 H 390.95 -1.7391 -5.8531 0
M  V30 4235 H 392.364 -3.55929 -4.4943 0
M  V30 4236 H 390.761 -4.29152 -4.19462 0
M  V30 4237 H 391.831 -3.94091 -2.82525 0
M  V30 4238 N 393.175 1.03435 -1.18907 0
M  V30 4239 C 394.105 2.13503 -0.945448 0
M  V30 4240 C 395.086 1.69682 0.119189 0
M  V30 4241 O 396.271 1.94169 -0.034707 0
M  V30 4242 C 393.401 3.44004 -0.477316 0
M  V30 4243 C 392.355 4.0148 -1.48316 0
M  V30 4244 C 391.681 5.27537 -0.872311 0
M  V30 4245 C 392.981 4.36921 -2.86177 0
M  V30 4246 H 394.675 2.34141 -1.86597 0
M  V30 4247 H 392.221 1.12523 -0.898584 0
M  V30 4248 H 394.174 4.20372 -0.294204 0
M  V30 4249 H 392.898 3.23072 0.478786 0
M  V30 4250 H 391.557 3.27201 -1.65332 0
M  V30 4251 H 391.205 5.02917 0.0911752 0
M  V30 4252 H 390.905 5.66954 -1.54393 0
M  V30 4253 H 392.429 6.06576 -0.699871 0
M  V30 4254 H 393.843 5.04248 -2.72776 0
M  V30 4255 H 392.24 4.87405 -3.50081 0
M  V30 4256 H 393.31 3.46466 -3.39248 0
M  V30 4257 N 394.653 0.992116 1.22453 0
M  V30 4258 C 395.899 0.668523 1.91464 0
M  V30 4259 C 396.232 -0.797313 1.77078 0
M  V30 4260 O 395.507 -1.5765 1.13916 0
M  V30 4261 C 395.79 1.07424 3.43703 0
M  V30 4262 C 395.643 2.59857 3.67143 0
M  V30 4263 C 396.962 0.626891 4.35612 0
M  V30 4264 H 394.081 0.244341 0.695318 0
M  V30 4265 H 396.723 1.2355 1.44345 0
M  V30 4266 H 394.873 0.591816 3.83966 0
M  V30 4267 H 396.545 3.15764 3.3629 0
M  V30 4268 H 394.788 3.01961 3.11451 0
M  V30 4269 H 395.459 2.83296 4.73759 0
M  V30 4270 H 397.935 1.04125 4.02861 0
M  V30 4271 H 396.811 0.939076 5.40807 0
M  V30 4272 H 397.072 -0.472457 4.39568 0
M  V30 4273 N 396.131 -1.37776 0.765217 0
M  V30 4274 C 397.078 -2.30342 0.145274 0
M  V30 4275 C 398.048 -1.5077 -0.696971 0
M  V30 4276 O 399.233 -1.79362 -0.650689 0
M  V30 4277 C 396.373 -3.37227 -0.732939 0
M  V30 4278 C 395.486 -4.31819 0.125199 0
M  V30 4279 C 394.621 -5.25777 -0.757107 0
M  V30 4280 C 393.66 -6.12012 0.103963 0
M  V30 4281 N 392.797 -6.98232 -0.735953 0
M  V30 4282 H 397.637 -2.8278 0.940195 0
M  V30 4283 H 395.174 -1.39211 0.475255 0
M  V30 4284 H 397.132 -3.97818 -1.25686 0
M  V30 4285 H 395.762 -2.86171 -1.49353 0
M  V30 4286 H 394.814 -3.7259 0.766865 0
M  V30 4287 H 396.126 -4.92509 0.789683 0
M  V30 4288 H 395.28 -5.91541 -1.34776 0
M  V30 4289 H 394.019 -4.65481 -1.45529 0
M  V30 4290 H 393.024 -5.45233 0.707197 0
M  V30 4291 H 394.249 -6.74379 0.799381 0
M  V30 4292 H 392.195 -6.40472 -1.41887 0
M  V30 4293 H 392.112 -7.55891 -0.128624 0
M  V30 4294 H 393.38 -7.68393 -1.31121 0
M  V30 4295 N 397.609 -0.515225 -1.4894 0
M  V30 4296 C 398.857 0.0241671 -2.02086 0
M  V30 4297 C 399.178 1.3616 -1.3959 0
M  V30 4298 O 398.448 1.87841 -0.556121 0
M  V30 4299 H 397.028 0.0119203 -0.746905 0
M  V30 4300 H 399.69 -0.675702 -1.82812 0
M  V30 4301 H 398.786 0.143385 -3.1177 0
M  V30 4302 N 399.087 1.5561 -0.249682 0
M  V30 4303 C 400.333 1.99306 0.374841 0
M  V30 4304 C 400.666 1.13767 1.57387 0
M  V30 4305 O 399.941 0.201711 1.93451 0
M  V30 4306 C 400.224 3.51507 0.781986 0
M  V30 4307 C 400.077 4.4781 -0.422629 0
M  V30 4308 C 401.396 4.08884 1.62793 0
M  V30 4309 H 398.515 0.724572 0.134773 0
M  V30 4310 H 401.157 1.86719 -0.351549 0
M  V30 4311 H 399.307 3.62363 1.4009 0
M  V30 4312 H 400.979 4.48931 -1.06108 0
M  V30 4313 H 399.222 4.20518 -1.06524 0
M  V30 4314 H 399.893 5.51919 -0.0943766 0
M  V30 4315 H 402.369 4.01147 1.10547 0
M  V30 4316 H 401.245 5.1564 1.88166 0
M  V30 4317 H 401.506 3.57515 2.60068 0
M  V30 4318 N 400.565 -0.0233959 1.57583 0
M  V30 4319 C 401.813 -0.711654 1.89156 0
M  V30 4320 C 402.134 -1.75591 0.848096 0
M  V30 4321 O 401.404 -1.95547 -0.117566 0
M  V30 4322 H 399.984 -0.265835 0.698098 0
M  V30 4323 H 402.646 0.0119948 1.94896 0
M  V30 4324 H 401.742 -1.19766 2.88206 0
M  V30 4325 N 402.043 -1.548 -0.295768 0
M  V30 4326 C 403.006 -1.85363 -1.34808 0
M  V30 4327 C 404.006 -0.726817 -1.43436 0
M  V30 4328 O 405.196 -0.995088 -1.42981 0
M  V30 4329 C 402.328 -2.03859 -2.73229 0
M  V30 4330 H 403.521 -2.7941 -1.08949 0
M  V30 4331 H 401.074 -1.46942 -0.532702 0
M  V30 4332 H 401.809 -1.12117 -3.04303 0
M  V30 4333 H 401.594 -2.8588 -2.68356 0
M  V30 4334 H 403.084 -2.28857 -3.49305 0
M  V30 4335 N 403.521 0.559213 -1.47345 0
M  V30 4336 C 404.468 1.66645 -1.59682 0
M  V30 4337 C 405.438 1.60168 -0.43994 0
M  V30 4338 O 406.623 1.79031 -0.659736 0
M  V30 4339 C 403.763 3.04969 -1.61518 0
M  V30 4340 C 402.876 3.21897 -2.88108 0
M  V30 4341 C 402.011 4.50608 -2.81294 0
M  V30 4342 C 401.05 4.60961 -4.02717 0
M  V30 4343 N 400.187 5.81024 -3.94151 0
M  V30 4344 H 405.027 1.55439 -2.54249 0
M  V30 4345 H 402.564 0.757219 -1.26113 0
M  V30 4346 H 404.522 3.85064 -1.60566 0
M  V30 4347 H 403.152 3.15015 -0.704645 0
M  V30 4348 H 402.204 2.35248 -2.98936 0
M  V30 4349 H 403.516 3.25412 -3.78032 0
M  V30 4350 H 402.67 5.3896 -2.7858 0
M  V30 4351 H 401.409 4.49568 -1.89049 0
M  V30 4352 H 400.414 3.71021 -4.05738 0
M  V30 4353 H 401.639 4.63761 -4.96087 0
M  V30 4354 H 399.585 5.80938 -3.04708 0
M  V30 4355 H 399.502 5.85909 -4.77752 0
M  V30 4356 H 400.77 6.71744 -3.9545 0
M  V30 4357 N 404.999 1.35443 0.805782 0
M  V30 4358 C 406.229 1.31687 1.59192 0
M  V30 4359 C 406.637 -0.10756 1.88894 0
M  V30 4360 O 405.98 -1.07017 1.49309 0
M  V30 4361 C 406.042 2.05686 2.94845 0
M  V30 4362 C 405.706 3.54868 2.87954 0
M  V30 4363 C 406.703 4.49444 2.61335 0
M  V30 4364 C 404.388 3.97528 3.07046 0
M  V30 4365 C 406.382 5.84655 2.53885 0
M  V30 4366 C 404.069 5.32833 2.99219 0
M  V30 4367 C 405.067 6.26209 2.72674 0
M  V30 4368 O 404.755 7.59032 2.64811 0
M  V30 4369 H 404.487 0.453878 0.50097 0
M  V30 4370 H 407.041 1.78892 1.0093 0
M  V30 4371 H 405.271 1.5312 3.55093 0
M  V30 4372 H 406.96 1.94998 3.55993 0
M  V30 4373 H 407.726 4.17804 2.46303 0
M  V30 4374 H 403.605 3.25233 3.26718 0
M  V30 4375 H 407.149 6.57508 2.33086 0
M  V30 4376 H 403.046 5.64087 3.13809 0
M  V30 4377 H 403.814 7.68967 2.80413 0
M  V30 4378 N 406.477 -1.02803 1.19454 0
M  V30 4379 C 407.387 -2.14575 0.948408 0
M  V30 4380 C 408.403 -1.73757 -0.091871 0
M  V30 4381 O 409.579 -2.01185 0.0929654 0
M  V30 4382 C 406.644 -3.43202 0.491265 0
M  V30 4383 C 405.705 -3.98328 1.60103 0
M  V30 4384 C 404.938 -5.20816 1.16561 0
M  V30 4385 O 405.161 -5.70392 0.0295238 0
M  V30 4386 O 404.095 -5.68801 1.96849 0
M  V30 4387 H 407.921 -2.38202 1.88397 0
M  V30 4388 H 405.506 -1.12989 0.977433 0
M  V30 4389 H 407.388 -4.20687 0.245015 0
M  V30 4390 H 406.063 -3.21018 -0.415851 0
M  V30 4391 H 404.97 -3.22174 1.90144 0
M  V30 4392 H 406.303 -4.24879 2.48473 0
M  V30 4393 N 407.956 -0.998596 -1.21925 0
M  V30 4394 C 409.202 -0.678667 -1.91107 0
M  V30 4395 C 409.535 0.78791 -1.77498 0
M  V30 4396 O 408.81 1.57043 -1.1475 0
M  V30 4397 C 409.093 -1.09245 -3.43129 0
M  V30 4398 C 408.946 -2.61801 -3.6576 0
M  V30 4399 C 410.265 -0.649984 -4.35274 0
M  V30 4400 H 407.384 -0.248025 -0.694012 0
M  V30 4401 H 410.026 -1.24314 -1.43688 0
M  V30 4402 H 408.176 -0.612171 -3.83647 0
M  V30 4403 H 409.848 -3.17543 -3.34611 0
M  V30 4404 H 408.091 -3.03609 -3.09845 0
M  V30 4405 H 408.762 -2.85804 -4.7225 0
M  V30 4406 H 411.238 -1.0626 -4.02303 0
M  V30 4407 H 410.114 -0.967743 -5.40302 0
M  V30 4408 H 410.375 0.449139 -4.39813 0
M  V30 4409 N 409.434 1.37368 -0.772513 0
M  V30 4410 C 410.384 2.27613 -0.132823 0
M  V30 4411 C 411.368 1.46138 0.673247 0
M  V30 4412 O 412.56 1.68686 0.536095 0
M  V30 4413 C 409.689 3.35122 0.744864 0
M  V30 4414 C 408.775 4.24044 -0.0690771 0
M  V30 4415 N 409.166 4.93355 -1.1151 0
M  V30 4416 C 407.464 4.45731 0.154782 0
M  V30 4417 C 408.165 5.59 -1.60917 0
M  V30 4418 N 407.141 5.35737 -0.921222 0
M  V30 4419 H 410.943 2.78675 -0.933681 0
M  V30 4420 H 408.457 1.50494 -0.610342 0
M  V30 4421 H 410.454 3.98683 1.21892 0
M  V30 4422 H 409.114 2.85616 1.54446 0
M  V30 4423 H 410.125 4.95785 -1.49726 0
M  V30 4424 H 406.802 4.07096 0.926224 0
M  V30 4425 H 408.192 6.24395 -2.48153 0
M  V30 4426 N 410.912 0.523116 1.48665 0
M  V30 4427 C 411.875 -0.232592 2.28017 0
M  V30 4428 C 412.875 -0.874021 1.34972 0
M  V30 4429 O 414.065 -0.735132 1.57929 0
M  V30 4430 C 411.197 -1.33586 3.13636 0
M  V30 4431 H 412.39 0.464008 2.96289 0
M  V30 4432 H 409.943 0.278816 1.53793 0
M  V30 4433 H 410.678 -2.06593 2.4998 0
M  V30 4434 H 410.463 -0.881125 3.82071 0
M  V30 4435 H 411.953 -1.86759 3.73511 0
M  V30 4436 N 412.39 -1.55475 0.257931 0
M  V30 4437 C 413.636 -2.00237 -0.357338 0
M  V30 4438 C 413.991 -1.14313 -1.54759 0
M  V30 4439 O 413.284 -0.201187 -1.90541 0
M  V30 4440 C 413.478 -3.48183 -0.806433 0
M  V30 4441 C 413.307 -4.48422 0.338758 0
M  V30 4442 C 412.077 -4.98651 0.817011 0
M  V30 4443 C 414.275 -5.00827 1.16949 0
M  V30 4444 N 412.257 -5.82658 1.93346 0
M  V30 4445 C 413.628 -5.82113 2.13413 0
M  V30 4446 C 415.683 -4.83104 1.2048 0
M  V30 4447 C 414.386 -6.47566 3.13131 0
M  V30 4448 C 416.412 -5.49343 2.19034 0
M  V30 4449 C 415.774 -6.30427 3.14232 0
M  V30 4450 H 411.873 -0.776034 -0.0964083 0
M  V30 4451 H 414.457 -1.90995 0.37803 0
M  V30 4452 H 412.628 -3.57801 -1.51107 0
M  V30 4453 H 414.36 -3.79802 -1.39758 0
M  V30 4454 H 411.115 -4.71914 0.39925 0
M  V30 4455 H 411.539 -6.29356 2.49478 0
M  V30 4456 H 416.181 -4.20036 0.482634 0
M  V30 4457 H 413.899 -7.09793 3.8629 0
M  V30 4458 H 417.485 -5.37579 2.22485 0
M  V30 4459 H 416.365 -6.80777 3.89246 0
M  V30 4460 N 413.868 0.0150385 -1.57593 0
M  V30 4461 C 414.815 1.01126 -2.07466 0
M  V30 4462 C 415.785 1.35064 -0.966794 0
M  V30 4463 O 416.97 1.4516 -1.23827 0
M  V30 4464 C 414.11 2.30276 -2.57035 0
M  V30 4465 C 413.223 2.02373 -3.81666 0
M  V30 4466 C 412.358 3.25496 -4.19793 0
M  V30 4467 C 411.397 2.93211 -5.37303 0
M  V30 4468 N 410.534 4.08826 -5.70794 0
M  V30 4469 H 415.374 0.57901 -2.92321 0
M  V30 4470 H 412.911 0.27426 -1.44521 0
M  V30 4471 H 414.869 3.05757 -2.83846 0
M  V30 4472 H 413.499 2.71197 -1.75077 0
M  V30 4473 H 412.551 1.17327 -3.61854 0
M  V30 4474 H 413.863 1.74567 -4.67256 0
M  V30 4475 H 413.017 4.09333 -4.47807 0
M  V30 4476 H 411.756 3.56428 -3.32882 0
M  V30 4477 H 410.761 2.07777 -5.09027 0
M  V30 4478 H 411.986 2.63542 -6.25877 0
M  V30 4479 H 409.932 4.39682 -4.86842 0
M  V30 4480 H 409.849 3.84491 -6.50924 0
M  V30 4481 H 411.117 4.93496 -6.03392 0
M  V30 4482 N 415.346 1.54954 0.287554 0
M  V30 4483 C 416.623 1.65569 1.04146 0
M  V30 4484 C 417.003 0.512672 2.0478 0
M  V30 4485 O 416.351 -0.489038 2.23205 0
M  V30 4486 C 416.561 3.04163 1.71131 0
M  V30 4487 C 417.909 3.61429 2.22832 0
M  V30 4488 O 418.933 3.06702 1.81141 0
M  V30 4489 O 417.792 4.57281 2.9926 0
M  V30 4490 H 414.886 0.671881 0.482188 0
M  V30 4491 H 417.432 1.67297 0.28457 0
M  V30 4492 H 416.204 3.78796 0.981303 0
M  V30 4493 H 415.827 3.06271 2.53543 0
M  V30 4494 N 416.824 -0.551391 1.4764 0
M  V30 4495 C 418.24 -0.877887 1.33287 0
M  V30 4496 C 418.44 -1.98817 0.327721 0
M  V30 4497 O 417.496 -2.51171 -0.258695 0
M  V30 4498 C 418.809 -1.26563 2.72768 0
M  V30 4499 C 420.357 -1.37673 2.81097 0
M  V30 4500 C 420.832 -1.79799 4.21232 0
M  V30 4501 N 422.323 -1.8694 4.23802 0
M  V30 4502 C 423.058 -2.20876 5.29151 0
M  V30 4503 N 422.554 -2.53386 6.448 0
M  V30 4504 N 424.347 -2.217 5.16532 0
M  V30 4505 H 416.498 0.18153 2.11623 0
M  V30 4506 H 418.761 0.0185514 0.947818 0
M  V30 4507 H 418.467 -0.523591 3.47781 0
M  V30 4508 H 418.341 -2.22052 3.04915 0
M  V30 4509 H 420.728 -2.10956 2.06353 0
M  V30 4510 H 420.809 -0.40357 2.52596 0
M  V30 4511 H 420.453 -1.07083 4.96483 0
M  V30 4512 H 420.383 -2.78128 4.4716 0
M  V30 4513 H 422.874 -1.64179 3.40373 0
M  V30 4514 H 423.187 -2.78325 7.20941 0
M  V30 4515 H 421.532 -2.50953 6.48111 0
M  V30 4516 H 424.723 -1.95745 4.25207 0
M  V30 4517 H 424.896 -2.47818 5.98741 0
M  V30 4518 N 418.302 -1.35869 -0.798587 0
M  V30 4519 C 419.549 -1.29588 -1.55606 0
M  V30 4520 C 419.877 0.127456 -1.94082 0
M  V30 4521 O 419.132 1.09461 -1.62225 0
M  V30 4522 C 419.431 -2.1556 -2.85077 0
M  V30 4523 C 419.097 -3.6424 -2.65781 0
M  V30 4524 C 417.759 -4.04766 -2.60227 0
M  V30 4525 C 420.111 -4.58547 -2.47758 0
M  V30 4526 C 417.439 -5.37753 -2.34603 0
M  V30 4527 C 419.791 -5.91742 -2.23662 0
M  V30 4528 C 418.455 -6.31402 -2.16534 0
M  V30 4529 H 417.725 -0.474197 -0.569402 0
M  V30 4530 H 420.372 -1.67839 -0.922086 0
M  V30 4531 H 418.677 -1.70216 -3.52893 0
M  V30 4532 H 420.374 -2.08031 -3.42818 0
M  V30 4533 H 416.964 -3.32086 -2.70956 0
M  V30 4534 H 421.148 -4.28117 -2.51056 0
M  V30 4535 H 416.404 -5.67474 -2.2756 0
M  V30 4536 H 420.578 -6.6439 -2.08708 0
M  V30 4537 H 418.205 -7.34381 -1.96441 0
M  V30 4538 N 419.78 1.02168 -1.19998 0
M  V30 4539 C 421.01 1.79036 -1.031 0
M  V30 4540 C 421.418 1.84409 0.423078 0
M  V30 4541 O 420.761 1.29228 1.30559 0
M  V30 4542 C 420.823 3.25185 -1.53281 0
M  V30 4543 C 420.487 3.43431 -3.01503 0
M  V30 4544 C 421.484 3.33063 -3.99206 0
M  V30 4545 C 419.169 3.69412 -3.40353 0
M  V30 4546 C 421.163 3.48413 -5.33748 0
M  V30 4547 C 418.85 3.84406 -4.75053 0
M  V30 4548 C 419.848 3.7391 -5.71559 0
M  V30 4549 O 419.536 3.88452 -7.03818 0
M  V30 4550 H 419.268 0.570043 -0.363355 0
M  V30 4551 H 421.822 1.29524 -1.59414 0
M  V30 4552 H 420.052 3.75756 -0.913483 0
M  V30 4553 H 421.741 3.83671 -1.32481 0
M  V30 4554 H 422.507 3.12934 -3.70537 0
M  V30 4555 H 418.386 3.76671 -2.65782 0
M  V30 4556 H 421.93 3.40137 -6.09059 0
M  V30 4557 H 417.827 4.04035 -5.03415 0
M  V30 4558 H 418.595 4.055 -7.10993 0
M  V30 4559 N 421.258 1.00505 1.21394 0
M  V30 4560 C 422.504 0.688793 1.90745 0
M  V30 4561 C 422.837 -0.778486 1.77914 0
M  V30 4562 O 422.112 -1.56433 1.15581 0
M  V30 4563 C 422.395 1.11063 3.42545 0
M  V30 4564 C 422.248 2.63737 3.64367 0
M  V30 4565 C 423.567 0.673059 4.34923 0
M  V30 4566 H 420.686 0.251702 0.692687 0
M  V30 4567 H 423.328 1.25074 1.43026 0
M  V30 4568 H 421.478 0.632508 3.83317 0
M  V30 4569 H 423.15 3.19313 3.32922 0
M  V30 4570 H 421.393 3.05248 3.08231 0
M  V30 4571 H 422.064 2.88305 4.70727 0
M  V30 4572 H 424.54 1.08392 4.01734 0
M  V30 4573 H 423.416 0.996383 5.39781 0
M  V30 4574 H 423.677 -0.425808 4.40045 0
M  V30 4575 N 422.737 -1.36956 0.779787 0
M  V30 4576 C 423.667 -2.32761 0.185651 0
M  V30 4577 C 424.648 -1.56177 -0.673989 0
M  V30 4578 O 425.833 -1.84378 -0.609797 0
M  V30 4579 C 422.963 -3.40418 -0.687964 0
M  V30 4580 C 421.917 -4.27941 0.0710102 0
M  V30 4581 C 421.243 -5.26681 -0.922573 0
M  V30 4582 C 422.543 -5.07006 1.25467 0
M  V30 4583 H 424.237 -2.82698 0.986008 0
M  V30 4584 H 421.783 -1.3592 0.475592 0
M  V30 4585 H 423.736 -4.06423 -1.11348 0
M  V30 4586 H 422.46 -2.89025 -1.52093 0
M  V30 4587 H 421.119 -3.63478 0.47739 0
M  V30 4588 H 420.767 -4.71565 -1.7503 0
M  V30 4589 H 420.467 -5.86103 -0.419237 0
M  V30 4590 H 421.991 -5.9556 -1.34686 0
M  V30 4591 H 423.405 -5.66105 0.905401 0
M  V30 4592 H 421.802 -5.75793 1.69063 0
M  V30 4593 H 422.872 -4.3921 2.05481 0
M  V30 4594 N 424.215 -0.530993 -1.48385 0
M  V30 4595 C 425.443 -0.00134122 -2.069 0
M  V30 4596 C 425.858 1.2805 -1.3874 0
M  V30 4597 O 425.215 1.76204 -0.475244 0
M  V30 4598 C 425.266 0.225256 -3.60798 0
M  V30 4599 O 424.987 -1.0058 -4.26398 0
M  V30 4600 C 426.488 0.795172 -4.3611 0
M  V30 4601 H 423.708 -0.0339704 -0.67014 0
M  V30 4602 H 426.252 -0.736926 -1.90761 0
M  V30 4603 H 424.407 0.910891 -3.76539 0
M  V30 4604 H 424.821 -0.787165 -5.1856 0
M  V30 4605 H 426.295 0.903143 -5.44562 0
M  V30 4606 H 426.772 1.80031 -4.00606 0
M  V30 4607 H 427.378 0.146069 -4.25049 0
M  V30 4608 N 425.693 1.55336 -0.266172 0
M  V30 4609 C 426.97 1.91372 0.404486 0
M  V30 4610 C 427.35 1.18935 1.74407 0
M  V30 4611 O 426.698 0.3132 2.26343 0
M  V30 4612 C 426.908 3.44581 0.553593 0
M  V30 4613 C 428.256 4.16196 0.840618 0
M  V30 4614 O 429.28 3.50426 0.638739 0
M  V30 4615 O 428.139 5.32567 1.22618 0
M  V30 4616 H 425.233 0.797194 0.220025 0
M  V30 4617 H 427.779 1.66813 -0.311664 0
M  V30 4618 H 426.551 3.89357 -0.389498 0
M  V30 4619 H 426.174 3.75065 1.31955 0
M  V30 4620 N 427.171 -0.0066808 1.57599 0
M  V30 4621 C 428.081 -1.01671 2.11424 0
M  V30 4622 C 429.097 -1.38143 1.05795 0
M  V30 4623 O 430.273 -1.47011 1.37658 0
M  V30 4624 C 427.338 -2.29192 2.60139 0
M  V30 4625 C 426.399 -1.99094 3.80342 0
M  V30 4626 C 425.632 -3.20535 4.26724 0
M  V30 4627 O 425.855 -4.3199 3.72479 0
M  V30 4628 O 424.789 -3.04924 5.18946 0
M  V30 4629 H 428.615 -0.589181 2.9793 0
M  V30 4630 H 426.2 -0.225091 1.47695 0
M  V30 4631 H 428.082 -3.0412 2.917 0
M  V30 4632 H 426.757 -2.71195 1.76733 0
M  V30 4633 H 425.664 -1.21663 3.53764 0
M  V30 4634 H 426.997 -1.61931 4.648 0
M  V30 4635 N 428.649 -1.55105 -0.279332 0
M  V30 4636 C 429.897 -1.75066 -1.00977 0
M  V30 4637 C 430.218 -0.551276 -1.87045 0
M  V30 4638 O 429.488 0.433984 -1.91032 0
M  V30 4639 H 428.068 -0.645578 -0.375816 0
M  V30 4640 H 430.73 -1.92497 -0.305089 0
M  V30 4641 H 429.826 -2.64894 -1.65038 0
M  V30 4642 N 430.127 0.543554 -1.4793 0
M  V30 4643 C 431.09 1.63156 -1.60975 0
M  V30 4644 C 432.09 1.53346 -0.483899 0
M  V30 4645 O 433.28 1.5726 -0.749339 0
M  V30 4646 C 430.412 3.02743 -1.56716 0
M  V30 4647 H 431.605 1.52934 -2.57975 0
M  V30 4648 H 429.158 0.764557 -1.36324 0
M  V30 4649 H 429.893 3.18484 -0.611418 0
M  V30 4650 H 429.678 3.11272 -2.38438 0
M  V30 4651 H 431.168 3.81871 -1.6901 0
M  V30 4652 N 431.605 1.3629 0.791371 0
M  V30 4653 C 433.016 1.27225 1.36641 0
M  V30 4654 C 433.367 -0.0887968 1.95999 0
M  V30 4655 O 432.492 -0.990207 1.92416 0
M  V30 4656 C 433.087 2.30375 2.48421 0
M  V30 4657 C 431.646 2.25004 3.01746 0
M  V30 4658 C 430.793 2.15259 1.7481 0
M  V30 4659 H 433.744 1.47198 0.593173 0
M  V30 4660 H 433.765 1.93905 3.27385 0
M  V30 4661 H 433.277 3.29422 2.05189 0
M  V30 4662 H 431.378 1.29417 3.49403 0
M  V30 4663 H 431.491 3.1761 3.58693 0
M  V30 4664 H 429.855 1.61482 1.96966 0
M  V30 4665 H 430.638 3.16191 1.33709 0
M  V30 4666 N 433.083 -1.0153 1.20538 0
M  V30 4667 C 434.499 -1.27461 0.96051 0
M  V30 4668 C 434.699 -1.98273 -0.359193 0
M  V30 4669 O 433.755 -2.27886 -1.0874 0
M  V30 4670 C 435.068 -2.10837 2.14402 0
M  V30 4671 C 436.616 -2.24099 2.18515 0
M  V30 4672 C 437.091 -3.10852 3.36355 0
M  V30 4673 N 438.582 -3.18441 3.36377 0
M  V30 4674 C 439.317 -3.85795 4.24205 0
M  V30 4675 N 438.813 -4.55264 5.22213 0
M  V30 4676 N 440.606 -3.82331 4.12043 0
M  V30 4677 H 432.757 -0.539907 2.05423 0
M  V30 4678 H 435.02 -0.30092 0.898972 0
M  V30 4679 H 434.726 -1.66144 3.09983 0
M  V30 4680 H 434.6 -3.11576 2.12604 0
M  V30 4681 H 436.987 -2.68016 1.23497 0
M  V30 4682 H 437.068 -1.22865 2.24361 0
M  V30 4683 H 436.712 -2.6764 4.31661 0
M  V30 4684 H 436.642 -4.12177 3.27746 0
M  V30 4685 H 439.133 -2.68978 2.65442 0
M  V30 4686 H 439.446 -5.04331 5.85551 0
M  V30 4687 H 437.791 -4.54085 5.26148 0
M  V30 4688 H 440.982 -3.27207 3.34743 0
M  V30 4689 H 441.155 -4.34547 4.807 0
M  V30 4690 N 434.561 -1.01147 -1.20859 0
M  V30 4691 C 435.493 -0.535546 -2.22855 0
M  V30 4692 C 436.506 0.379323 -1.58319 0
M  V30 4693 O 437.695 0.178489 -1.77605 0
M  V30 4694 C 434.795 0.240962 -3.38042 0
M  V30 4695 C 433.968 -0.674562 -4.32167 0
M  V30 4696 C 433.027 0.053467 -5.26173 0
M  V30 4697 O 432.053 -0.567339 -5.66366 0
M  V30 4698 N 433.255 1.32997 -5.65059 0
M  V30 4699 H 436.02 -1.41268 -2.64317 0
M  V30 4700 H 433.581 -0.888386 -1.35349 0
M  V30 4701 H 435.573 0.737115 -3.97931 0
M  V30 4702 H 434.143 1.01935 -2.95513 0
M  V30 4703 H 433.363 -1.35111 -3.70322 0
M  V30 4704 H 434.651 -1.2974 -4.91981 0
M  V30 4705 H 434.049 1.85536 -5.34409 0
M  V30 4706 H 432.606 1.77095 -6.2728 0
M  V30 4707 N 436.039 1.36541 -0.78704 0
M  V30 4708 C 437.455 1.52571 -0.46844 0
M  V30 4709 C 437.655 1.7415 1.01361 0
M  V30 4710 O 436.711 1.77163 1.79915 0
M  V30 4711 C 438.024 2.71299 -1.29682 0
M  V30 4712 C 439.572 2.85169 -1.29027 0
M  V30 4713 C 440.047 4.06898 -2.10233 0
M  V30 4714 N 441.538 4.1404 -2.07666 0
M  V30 4715 C 442.273 5.07301 -2.67271 0
M  V30 4716 N 441.769 6.06021 -3.35724 0
M  V30 4717 N 443.562 4.99898 -2.57018 0
M  V30 4718 H 435.713 1.20788 -1.74711 0
M  V30 4719 H 437.976 0.589364 -0.742532 0
M  V30 4720 H 437.682 2.61868 -2.34773 0
M  V30 4721 H 437.556 3.6539 -0.936479 0
M  V30 4722 H 439.943 2.94062 -0.247284 0
M  V30 4723 H 440.024 1.91992 -1.69035 0
M  V30 4724 H 439.668 3.98766 -3.1456 0
M  V30 4725 H 439.598 4.99218 -1.67597 0
M  V30 4726 H 442.089 3.43357 -1.57843 0
M  V30 4727 H 442.402 6.73741 -3.78541 0
M  V30 4728 H 440.747 6.06253 -3.39826 0
M  V30 4729 H 443.938 4.21724 -2.03142 0
M  V30 4730 H 444.111 5.72392 -3.03761 0
M  V30 4731 N 437.518 0.538854 1.48102 0
M  V30 4732 C 438.764 0.00801365 2.02798 0
M  V30 4733 C 439.097 -1.3309 1.41424 0
M  V30 4734 O 438.372 -1.86169 0.563158 0
M  V30 4735 C 438.655 -0.104589 3.59948 0
M  V30 4736 C 438.508 1.26012 4.31788 0
M  V30 4737 C 439.827 -0.827055 4.32259 0
M  V30 4738 H 436.946 0.00438624 0.736987 0
M  V30 4739 H 439.588 0.6976 1.7673 0
M  V30 4740 H 437.738 -0.691893 3.82289 0
M  V30 4741 H 439.41 1.88922 4.2084 0
M  V30 4742 H 437.653 1.83968 3.92859 0
M  V30 4743 H 438.324 1.13424 5.40221 0
M  V30 4744 H 440.8 -0.328578 4.14801 0
M  V30 4745 H 439.676 -0.87476 5.41885 0
M  V30 4746 H 439.937 -1.87927 4.0017 0
M  V30 4747 N 438.996 -1.55193 0.274407 0
M  V30 4748 C 440.243 -1.99581 -0.342579 0
M  V30 4749 C 440.571 -1.1628 -1.55914 0
M  V30 4750 O 439.826 -0.22029 -1.94456 0
M  V30 4751 C 440.125 -3.49019 -0.769458 0
M  V30 4752 C 439.791 -4.49598 0.342389 0
M  V30 4753 C 438.453 -4.76821 0.647686 0
M  V30 4754 C 440.805 -5.0964 1.09163 0
M  V30 4755 C 438.133 -5.61354 1.70581 0
M  V30 4756 C 440.485 -5.95323 2.13948 0
M  V30 4757 C 439.149 -6.20867 2.45113 0
M  V30 4758 H 438.419 -0.730319 -0.125358 0
M  V30 4759 H 441.066 -1.87529 0.387971 0
M  V30 4760 H 439.371 -3.58544 -1.57967 0
M  V30 4761 H 441.068 -3.8077 -1.25757 0
M  V30 4762 H 437.658 -4.28496 0.094318 0
M  V30 4763 H 441.842 -4.88632 0.869024 0
M  V30 4764 H 437.098 -5.79392 1.9523 0
M  V30 4765 H 441.272 -6.40881 2.72478 0
M  V30 4766 H 438.899 -6.86162 3.27239 0
M  V30 4767 N 440.474 -0.00167713 -1.576 0
M  V30 4768 C 441.384 1.00548 -2.1196 0
M  V30 4769 C 442.4 1.3758 -1.06526 0
M  V30 4770 O 443.576 1.46278 -1.38436 0
M  V30 4771 C 440.641 2.27809 -2.6135 0
M  V30 4772 C 439.702 1.97074 -3.81393 0
M  V30 4773 C 438.935 3.18267 -4.28417 0
M  V30 4774 O 439.158 4.30009 -3.74765 0
M  V30 4775 O 438.092 3.02167 -5.20556 0
M  V30 4776 H 441.918 0.573373 -2.98238 0
M  V30 4777 H 439.503 0.217255 -1.47812 0
M  V30 4778 H 441.385 3.02568 -2.93309 0
M  V30 4779 H 440.06 2.70254 -1.78169 0
M  V30 4780 H 438.967 1.19785 -3.54404 0
M  V30 4781 H 440.3 1.59464 -4.65652 0
M  V30 4782 N 441.952 1.55251 0.271103 0
M  V30 4783 C 443.198 1.76207 1.00394 0
M  V30 4784 C 443.531 0.562604 1.85872 0
M  V30 4785 O 442.806 -0.439785 1.89463 0
M  V30 4786 C 443.089 3.06828 1.8849 0
M  V30 4787 C 442.942 4.37134 1.05992 0
M  V30 4788 C 444.261 3.33503 2.87165 0
M  V30 4789 H 441.38 0.641086 0.363562 0
M  V30 4790 H 444.022 1.87982 0.276189 0
M  V30 4791 H 442.172 2.96921 2.5054 0
M  V30 4792 H 443.844 4.59001 0.459978 0
M  V30 4793 H 442.087 4.32275 0.363443 0
M  V30 4794 H 442.758 5.2486 1.70955 0
M  V30 4795 H 445.234 3.43215 2.3525 0
M  V30 4796 H 444.11 4.2616 3.45946 0
M  V30 4797 H 444.371 2.53235 3.62387 0
M  V30 4798 N 443.43 -0.535701 1.48216 0
M  V30 4799 C 444.707 -1.29683 1.46429 0
M  V30 4800 C 445.087 -2.10391 0.172852 0
M  V30 4801 O 444.435 -2.12282 -0.845488 0
M  V30 4802 C 444.645 -2.18313 2.72287 0
M  V30 4803 C 445.993 -2.78639 3.20383 0
M  V30 4804 O 447.017 -2.28604 2.73164 0
M  V30 4805 O 445.876 -3.69636 4.02531 0
M  V30 4806 H 442.97 -0.585026 0.584529 0
M  V30 4807 H 445.516 -0.552827 1.60443 0
M  V30 4808 H 444.288 -1.58421 3.57797 0
M  V30 4809 H 443.911 -2.99971 2.60966 0
M  V30 4810 N 444.908 -1.36708 -0.784132 0
M  V30 4811 C 446.319 -1.27947 -1.35965 0
M  V30 4812 C 446.67 0.0784013 -1.96043 0
M  V30 4813 O 445.795 0.979989 -1.92938 0
M  V30 4814 C 446.39 -2.31689 -2.47195 0
M  V30 4815 C 444.949 -2.26601 -3.00548 0
M  V30 4816 C 444.096 -2.16184 -1.73666 0
M  V30 4817 H 447.047 -1.4751 -0.585358 0
M  V30 4818 H 447.068 -1.95638 -3.26352 0
M  V30 4819 H 446.58 -3.30506 -2.03439 0
M  V30 4820 H 444.681 -1.31268 -3.48711 0
M  V30 4821 H 444.794 -3.19508 -3.57004 0
M  V30 4822 H 443.158 -1.62524 -1.96107 0
M  V30 4823 H 443.941 -3.16896 -1.32031 0
M  V30 4824 N 446.386 1.0089 -1.21074 0
M  V30 4825 C 447.349 2.0775 -0.968129 0
M  V30 4826 C 448.349 1.6069 0.0593445 0
M  V30 4827 O 449.539 1.73293 -0.177525 0
M  V30 4828 C 446.671 3.37794 -0.459108 0
M  V30 4829 H 447.864 2.30707 -1.9161 0
M  V30 4830 H 445.417 1.17807 -1.02719 0
M  V30 4831 H 446.152 3.20516 0.49397 0
M  V30 4832 H 445.937 3.7328 -1.20019 0
M  V30 4833 H 447.427 4.16454 -0.309099 0
M  V30 4834 N 447.864 1.01787 1.20321 0
M  V30 4835 C 448.811 0.589197 2.23153 0
M  V30 4836 C 449.781 -0.391367 1.61423 0
M  V30 4837 O 450.966 -0.290518 1.88575 0
M  V30 4838 C 448.106 -0.0650747 3.45039 0
M  V30 4839 C 447.219 0.960207 4.21194 0
M  V30 4840 C 446.354 0.276854 5.30478 0
M  V30 4841 C 445.393 1.2888 5.98378 0
M  V30 4842 N 444.53 0.632031 6.99249 0
M  V30 4843 H 449.37 1.47071 2.59179 0
M  V30 4844 H 446.907 0.736192 1.27352 0
M  V30 4845 H 448.865 -0.461552 4.14639 0
M  V30 4846 H 447.495 -0.910233 3.09701 0
M  V30 4847 H 446.547 1.47484 3.50646 0
M  V30 4848 H 447.859 1.72977 4.67847 0
M  V30 4849 H 447.013 -0.175056 6.06447 0
M  V30 4850 H 445.752 -0.525004 4.84866 0
M  V30 4851 H 444.757 1.75109 5.21169 0
M  V30 4852 H 445.982 2.09196 6.46076 0
M  V30 4853 H 443.928 -0.149935 6.55829 0
M  V30 4854 H 443.845 1.33964 7.44036 0
M  V30 4855 H 445.113 0.203755 7.79234 0
M  V30 4856 N 449.342 -1.36122 0.79427 0
M  V30 4857 C 450.753 -1.81646 0.431446 0
M  V30 4858 C 451.104 -1.66043 -1.04518 0
M  V30 4859 O 450.229 -1.1841 -1.8113 0
M  V30 4860 C 450.824 -3.29785 0.776341 0
M  V30 4861 C 449.383 -3.73501 0.466282 0
M  V30 4862 C 448.53 -2.58313 1.00844 0
M  V30 4863 H 451.481 -1.24274 0.986995 0
M  V30 4864 H 451.502 -3.80437 0.0692413 0
M  V30 4865 H 451.014 -3.4111 1.8511 0
M  V30 4866 H 449.115 -3.67733 -0.600245 0
M  V30 4867 H 449.228 -4.68754 0.990288 0
M  V30 4868 H 447.592 -2.5102 0.431406 0
M  V30 4869 H 448.375 -2.72421 2.08906 0
M  V30 4870 N 450.82 -0.546701 -1.47814 0
M  V30 4871 C 451.783 0.196287 -2.28358 0
M  V30 4872 C 452.783 0.852437 -1.36346 0
M  V30 4873 O 453.973 0.709913 -1.59078 0
M  V30 4874 C 451.105 1.28579 -3.15722 0
M  V30 4875 H 452.298 -0.511086 -2.95513 0
M  V30 4876 H 449.851 -0.303248 -1.5333 0
M  V30 4877 H 450.586 2.0259 -2.53235 0
M  V30 4878 H 450.371 0.820229 -3.83425 0
M  V30 4879 H 451.861 1.80793 -3.76435 0
M  V30 4880 N 452.299 1.55045 -0.282633 0
M  V30 4881 C 453.715 1.59441 0.0712997 0
M  V30 4882 C 453.915 1.2998 1.53972 0
M  V30 4883 O 452.971 1.06431 2.28973 0
M  V30 4884 C 454.284 2.99097 -0.310104 0
M  V30 4885 C 455.832 3.1194 -0.257343 0
M  V30 4886 C 456.307 4.53875 -0.613297 0
M  V30 4887 N 457.798 4.5974 -0.565134 0
M  V30 4888 C 458.533 5.67603 -0.81326 0
M  V30 4889 N 458.029 6.83582 -1.1264 0
M  V30 4890 N 459.822 5.57187 -0.741553 0
M  V30 4891 H 451.973 1.72458 -1.23984 0
M  V30 4892 H 454.236 0.804549 -0.501403 0
M  V30 4893 H 453.942 3.25516 -1.33163 0
M  V30 4894 H 453.816 3.75616 0.345366 0
M  V30 4895 H 456.203 2.85281 0.754905 0
M  V30 4896 H 456.284 2.37618 -0.947178 0
M  V30 4897 H 455.928 4.81261 -1.62327 0
M  V30 4898 H 455.858 5.26508 0.09841 0
M  V30 4899 H 458.349 3.76427 -0.333294 0
M  V30 4900 H 458.662 7.6175 -1.30219 0
M  V30 4901 H 457.007 6.85179 -1.16425 0
M  V30 4902 H 460.198 4.65457 -0.496705 0
M  V30 4903 H 460.371 6.41171 -0.938306 0
M  V30 4904 N 453.777 0.010035 1.57597 0
M  V30 4905 C 454.74 -0.963029 2.07986 0
M  V30 4906 C 455.74 -1.26619 0.991173 0
M  V30 4907 O 456.93 -1.2097 1.25347 0
M  V30 4908 C 454.062 -2.2851 2.52974 0
M  V30 4909 H 455.255 -0.526971 2.95234 0
M  V30 4910 H 452.808 -0.237639 1.54483 0
M  V30 4911 H 453.543 -2.76784 1.69 0
M  V30 4912 H 453.328 -2.07824 3.32493 0
M  V30 4913 H 454.818 -2.98294 2.9225 0
M  V30 4914 N 455.255 -1.55392 -0.262866 0
M  V30 4915 C 456.48 -1.80847 -1.01533 0
M  V30 4916 C 456.905 -0.584946 -1.78774 0
M  V30 4917 O 456.263 0.465701 -1.75217 0
M  V30 4918 C 456.311 -3.03866 -1.94159 0
M  V30 4919 O 455.415 -2.79662 -3.03089 0
M  V30 4920 H 454.756 -0.597441 -0.289759 0
M  V30 4921 H 457.286 -2.02553 -0.288698 0
M  V30 4922 H 457.296 -3.32872 -2.35924 0
M  V30 4923 H 455.971 -3.92564 -1.37354 0
M  V30 4924 H 454.548 -2.61781 -2.65566 0
M  V30 4925 N 456.733 0.527833 -1.48498 0
M  V30 4926 C 457.979 1.28295 -1.57836 0
M  V30 4927 C 458.334 1.9077 -0.249943 0
M  V30 4928 O 457.627 1.76421 0.747402 0
M  V30 4929 C 457.821 2.39275 -2.65485 0
M  V30 4930 C 457.65 1.87679 -4.08664 0
M  V30 4931 C 456.42 1.70187 -4.75778 0
M  V30 4932 C 458.618 1.40409 -4.94762 0
M  V30 4933 N 456.6 1.13238 -6.03366 0
M  V30 4934 C 457.971 0.954216 -6.12613 0
M  V30 4935 C 460.026 1.28732 -4.8097 0
M  V30 4936 C 458.729 0.39915 -7.18192 0
M  V30 4937 C 460.755 0.746244 -5.86673 0
M  V30 4938 C 460.117 0.306457 -7.03733 0
M  V30 4939 H 456.216 0.460408 -0.632099 0
M  V30 4940 H 458.8 0.594913 -1.85388 0
M  V30 4941 H 456.971 3.05572 -2.3975 0
M  V30 4942 H 458.703 3.06308 -2.64495 0
M  V30 4943 H 455.458 1.93772 -4.32145 0
M  V30 4944 H 455.882 0.867687 -6.71417 0
M  V30 4945 H 460.524 1.61338 -3.90807 0
M  V30 4946 H 458.242 0.0607678 -8.08077 0
M  V30 4947 H 461.828 0.659041 -5.78055 0
M  V30 4948 H 460.708 -0.105708 -7.84129 0
M  V30 4949 N 458.211 1.37122 0.776871 0
M  V30 4950 C 459.158 1.3247 1.88998 0
M  V30 4951 C 460.128 0.191143 1.64997 0
M  V30 4952 O 461.313 0.379683 1.86984 0
M  V30 4953 C 458.453 1.13241 3.25992 0
M  V30 4954 C 457.566 2.35782 3.61982 0
M  V30 4955 C 456.701 2.09465 4.88158 0
M  V30 4956 C 455.74 3.279 5.16864 0
M  V30 4957 N 454.877 3.01167 6.34226 0
M  V30 4958 H 459.717 2.27642 1.9231 0
M  V30 4959 H 457.254 1.13125 0.94027 0
M  V30 4960 H 459.212 1.00115 4.0501 0
M  V30 4961 H 457.842 0.217186 3.22069 0
M  V30 4962 H 456.894 2.59666 2.77989 0
M  V30 4963 H 458.206 3.24125 3.79137 0
M  V30 4964 H 457.36 1.93341 5.75069 0
M  V30 4965 H 456.099 1.18452 4.73097 0
M  V30 4966 H 455.104 3.44569 4.2843 0
M  V30 4967 H 456.329 4.19757 5.33836 0
M  V30 4968 H 454.275 2.12779 6.20533 0
M  V30 4969 H 454.192 3.83052 6.51772 0
M  V30 4970 H 455.46 2.88649 7.24087 0
M  V30 4971 N 459.689 -1.00246 1.21608 0
M  V30 4972 C 460.599 -2.12515 0.993709 0
M  V30 4973 C 461.615 -1.73913 -0.0549939 0
M  V30 4974 O 462.791 -2.00943 0.135619 0
M  V30 4975 C 459.856 -3.42083 0.563953 0
M  V30 4976 C 458.917 -3.94843 1.68516 0
M  V30 4977 C 458.15 -5.18226 1.27582 0
M  V30 4978 O 458.373 -5.70201 0.150506 0
M  V30 4979 O 457.307 -5.64497 2.0887 0
M  V30 4980 H 461.133 -2.34152 1.93407 0
M  V30 4981 H 458.718 -1.10891 1.00118 0
M  V30 4982 H 460.6 -4.20073 0.334194 0
M  V30 4983 H 459.275 -3.21828 -0.347665 0
M  V30 4984 H 458.182 -3.18068 1.96935 0
M  V30 4985 H 459.515 -4.19512 2.5743 0
M  V30 4986 N 461.167 -1.02423 -1.1978 0
M  V30 4987 C 462.416 -0.713265 -1.88667 0
M  V30 4988 C 462.729 0.7609 -1.80193 0
M  V30 4989 O 463.935 1.18473 -2.44288 0
M  V30 4990 C 462.391 -1.22545 -3.38394 0
M  V30 4991 C 461.999 -2.72706 -3.55437 0
M  V30 4992 C 463.743 -0.990257 -4.12788 0
M  V30 4993 C 461.65 -3.17367 -4.99031 0
M  V30 4994 H 460.58 -0.263105 -0.706606 0
M  V30 4995 H 463.231 -1.23792 -1.35454 0
M  V30 4996 H 461.613 -0.628732 -3.90977 0
M  V30 4997 H 462.787 -3.37993 -3.13205 0
M  V30 4998 H 461.102 -2.94453 -2.94425 0
M  V30 4999 H 463.699 -1.29926 -5.18675 0
M  V30 5000 H 464.042 0.0730761 -4.16236 0
M  V30 5001 H 464.575 -1.55074 -3.66329 0
M  V30 5002 H 461.314 -4.23009 -5.00743 0
M  V30 5003 H 460.834 -2.56805 -5.42044 0
M  V30 5004 H 462.513 -3.10441 -5.67658 0
M  V30 5005 N 462.645 1.35699 -0.801477 0
M  V30 5006 C 463.891 1.99208 -0.380022 0
M  V30 5007 C 464.224 1.63445 1.04878 0
M  V30 5008 O 463.499 0.895223 1.72673 0
M  V30 5009 C 463.782 3.55755 -0.557708 0
M  V30 5010 C 463.635 4.01332 -2.03107 0
M  V30 5011 C 464.954 4.40096 0.0197968 0
M  V30 5012 H 462.073 0.723667 -0.139552 0
M  V30 5013 H 464.715 1.60928 -1.01006 0
M  V30 5014 H 462.865 3.88494 -0.0213741 0
M  V30 5015 H 464.537 3.79026 -2.62939 0
M  V30 5016 H 462.78 3.52429 -2.52936 0
M  V30 5017 H 463.451 5.10234 -2.1063 0
M  V30 5018 H 465.927 4.13786 -0.438179 0
M  V30 5019 H 464.803 5.48735 -0.134477 0
M  V30 5020 H 465.064 4.2786 1.11303 0
M  V30 5021 N 464.123 0.554532 1.47522 0
M  V30 5022 C 465.534 0.120446 1.86311 0
M  V30 5023 C 465.885 -1.30904 1.46145 0
M  V30 5024 O 465.01 -1.98434 0.863294 0
M  V30 5025 C 465.605 0.211808 3.38137 0
M  V30 5026 C 464.164 -0.167224 3.76028 0
M  V30 5027 C 463.311 0.560576 2.71575 0
M  V30 5028 H 466.262 0.764408 1.39077 0
M  V30 5029 H 466.283 -0.570275 3.76202 0
M  V30 5030 H 465.795 1.25232 3.6734 0
M  V30 5031 H 463.896 -1.20894 3.52442 0
M  V30 5032 H 464.009 0.189473 4.78725 0
M  V30 5033 H 462.373 0.00396836 2.547 0
M  V30 5034 H 463.156 1.60219 3.0362 0
M  V30 5035 N 465.601 -1.54893 0.290851 0
M  V30 5036 C 466.511 -2.26812 -0.59945 0
M  V30 5037 C 467.527 -1.29963 -1.15696 0
M  V30 5038 O 468.703 -1.62928 -1.18391 0
M  V30 5039 C 465.768 -2.98716 -1.75982 0
M  V30 5040 C 464.829 -4.1108 -1.2374 0
M  V30 5041 C 464.062 -4.79546 -2.34246 0
M  V30 5042 O 464.285 -4.47309 -3.53936 0
M  V30 5043 O 463.219 -5.67165 -2.01512 0
M  V30 5044 H 467.045 -3.03696 -0.0163561 0
M  V30 5045 H 464.63 -1.49289 0.0576755 0
M  V30 5046 H 466.512 -3.43851 -2.43607 0
M  V30 5047 H 465.187 -2.24737 -2.3297 0
M  V30 5048 H 464.094 -3.70367 -0.527163 0
M  V30 5049 H 465.427 -4.87007 -0.71307 0
M  V30 5050 N 467.08 -0.0183926 -1.57589 0
M  V30 5051 C 468.357 0.700621 -1.82622 0
M  V30 5052 C 468.737 1.90951 -0.90005 0
M  V30 5053 O 468.085 2.28452 0.0469145 0
M  V30 5054 C 468.295 1.08899 -3.31575 0
M  V30 5055 C 469.643 1.48514 -3.9778 0
M  V30 5056 O 470.667 1.18227 -3.36007 0
M  V30 5057 O 469.526 2.04903 -5.06633 0
M  V30 5058 H 466.62 0.342743 -0.752633 0
M  V30 5059 H 469.166 -0.0452548 -1.6964 0
M  V30 5060 H 467.938 0.228113 -3.90635 0
M  V30 5061 H 467.561 1.89338 -3.49624 0
M  V30 5062 N 468.558 1.5553 0.254621 0
M  V30 5063 C 469.783 1.81383 1.00573 0
M  V30 5064 C 470.208 0.594419 1.78461 0
M  V30 5065 O 469.566 -0.456403 1.75461 0
M  V30 5066 C 469.614 3.04892 1.92545 0
M  V30 5067 O 468.718 2.81266 3.01601 0
M  V30 5068 H 468.059 0.598969 0.286587 0
M  V30 5069 H 470.589 2.02703 0.277952 0
M  V30 5070 H 470.599 3.34119 2.34155 0
M  V30 5071 H 469.274 3.93287 1.3527 0
M  V30 5072 H 467.851 2.63185 2.64174 0
M  V30 5073 N 470.036 -0.519951 1.48776 0
M  V30 5074 C 471.261 -1.30447 1.6124 0
M  V30 5075 C 471.686 -1.86055 0.276591 0
M  V30 5076 O 471.044 -1.64915 -0.753183 0
M  V30 5077 C 471.092 -2.42406 2.66967 0
M  V30 5078 O 470.196 -3.45728 2.24824 0
M  V30 5079 H 469.537 -0.385924 0.540332 0
M  V30 5080 H 472.067 -0.624572 1.94834 0
M  V30 5081 H 472.077 -2.88447 2.88552 0
M  V30 5082 H 470.752 -2.01294 3.63941 0
M  V30 5083 H 469.329 -3.05737 2.13494 0
M  V30 5084 N 471.514 -1.37532 -0.769588 0
M  V30 5085 C 472.477 -1.33292 -1.86456 0
M  V30 5086 C 473.477 -0.236537 -1.59051 0
M  V30 5087 O 474.667 -0.492511 -1.67093 0
M  V30 5088 C 471.799 -1.07118 -3.23633 0
M  V30 5089 H 472.992 -2.30692 -1.91628 0
M  V30 5090 H 470.545 -1.22593 -0.969572 0
M  V30 5091 H 471.28 -0.102578 -3.24138 0
M  V30 5092 H 471.065 -1.86479 -3.44917 0
M  V30 5093 H 472.555 -1.06806 -4.03711 0
M  V30 5094 N 472.992 0.995999 -1.22138 0
M  V30 5095 C 474.217 1.77601 -1.0711 0
M  V30 5096 C 474.642 1.84339 0.374264 0
M  V30 5097 O 474 1.29359 1.27028 0
M  V30 5098 C 474.048 3.18897 -1.68336 0
M  V30 5099 O 473.152 4.01663 -0.934928 0
M  V30 5100 H 472.493 0.547011 -0.376397 0
M  V30 5101 H 475.023 1.25137 -1.6187 0
M  V30 5102 H 475.033 3.69539 -1.72931 0
M  V30 5103 H 473.708 3.13308 -2.73516 0
M  V30 5104 H 472.285 3.60204 -0.964751 0
M  V30 5105 N 474.47 1.03057 1.19235 0
M  V30 5106 C 475.4 0.633497 2.24742 0
M  V30 5107 C 476.381 -0.358335 1.66283 0
M  V30 5108 O 477.566 -0.240676 1.92703 0
M  V30 5109 C 474.696 -0.0147648 3.47297 0
M  V30 5110 C 473.65 0.899527 4.18441 0
M  V30 5111 C 472.976 0.116281 5.34574 0
M  V30 5112 C 474.276 2.21404 4.73051 0
M  V30 5113 H 475.97 1.5155 2.58211 0
M  V30 5114 H 473.516 0.73014 1.24117 0
M  V30 5115 H 475.469 -0.304202 4.20301 0
M  V30 5116 H 474.193 -0.931577 3.13032 0
M  V30 5117 H 472.852 1.17319 3.47321 0
M  V30 5118 H 472.5 -0.802619 4.96555 0
M  V30 5119 H 472.2 0.725293 5.83107 0
M  V30 5120 H 473.724 -0.166376 6.10373 0
M  V30 5121 H 475.138 1.98601 5.37802 0
M  V30 5122 H 473.535 2.77512 5.32078 0
M  V30 5123 H 474.605 2.86752 3.91026 0
M  V30 5124 N 475.948 -1.35272 0.808662 0
M  V30 5125 C 476.878 -2.32315 0.234981 0
M  V30 5126 C 477.859 -1.57572 -0.64071 0
M  V30 5127 O 479.044 -1.8563 -0.570551 0
M  V30 5128 C 476.174 -3.41801 -0.615601 0
M  V30 5129 C 475.128 -4.27694 0.161767 0
M  V30 5130 C 474.454 -5.28519 -0.810649 0
M  V30 5131 C 475.754 -5.04231 1.36193 0
M  V30 5132 H 477.448 -2.80543 1.04575 0
M  V30 5133 H 474.994 -1.3488 0.504315 0
M  V30 5134 H 476.947 -4.08693 -1.02702 0
M  V30 5135 H 475.671 -2.92186 -1.45928 0
M  V30 5136 H 474.33 -3.62384 0.554382 0
M  V30 5137 H 473.978 -4.75171 -1.64988 0
M  V30 5138 H 473.678 -5.8686 -0.294822 0
M  V30 5139 H 475.202 -5.98283 -1.22023 0
M  V30 5140 H 476.616 -5.64058 1.02528 0
M  V30 5141 H 475.013 -5.72077 1.81239 0
M  V30 5142 H 476.083 -4.34753 2.14751 0
M  V30 5143 N 477.426 -0.562348 -1.47226 0
M  V30 5144 C 478.651 -0.0432632 -2.07355 0
M  V30 5145 C 479.076 1.24332 -1.41149 0
M  V30 5146 O 478.434 1.74603 -0.488226 0
M  V30 5147 C 478.482 0.130288 -3.60365 0
M  V30 5148 O 477.586 1.19166 -3.94808 0
M  V30 5149 H 476.927 -0.0536334 -0.66183 0
M  V30 5150 H 479.457 -0.779495 -1.89169 0
M  V30 5151 H 479.467 0.342881 -4.06557 0
M  V30 5152 H 478.142 -0.809389 -4.07948 0
M  V30 5153 H 476.719 0.959153 -3.60354 0
M  V30 5154 N 478.904 1.54736 -0.299062 0
M  V30 5155 C 480.15 2.00397 0.311244 0
M  V30 5156 C 480.483 1.18716 1.53688 0
M  V30 5157 O 479.758 0.263154 1.92712 0
M  V30 5158 C 480.041 3.53817 0.669761 0
M  V30 5159 C 479.894 4.46239 -0.564882 0
M  V30 5160 C 481.213 4.13856 1.49702 0
M  V30 5161 H 478.332 0.728493 0.111653 0
M  V30 5162 H 480.974 1.85506 -0.410774 0
M  V30 5163 H 479.124 3.66637 1.28491 0
M  V30 5164 H 480.796 4.45328 -1.20337 0
M  V30 5165 H 479.039 4.16916 -1.19849 0
M  V30 5166 H 479.71 5.5134 -0.269918 0
M  V30 5167 H 482.186 4.04461 0.977284 0
M  V30 5168 H 481.062 5.21365 1.71666 0
M  V30 5169 H 481.323 3.65608 2.48563 0
M  V30 5170 N 480.382 0.0267497 1.57577 0
M  V30 5171 C 481.607 -0.666227 1.96408 0
M  V30 5172 C 482.032 -1.65004 0.903071 0
M  V30 5173 O 481.39 -1.80787 -0.136263 0
M  V30 5174 C 481.438 -1.35101 3.34335 0
M  V30 5175 O 480.542 -2.46623 3.30531 0
M  V30 5176 H 479.883 -0.175206 0.640468 0
M  V30 5177 H 482.413 0.0878977 2.04411 0
M  V30 5178 H 482.423 -1.70834 3.70513 0
M  V30 5179 H 481.098 -0.629844 4.11103 0
M  V30 5180 H 479.675 -2.13019 3.06068 0
M  V30 5181 N 481.861 -1.55662 -0.24637 0
M  V30 5182 C 483.11 -1.7672 -0.972254 0
M  V30 5183 C 483.423 -0.59078 -1.86465 0
M  V30 5184 O 484.629 -0.684391 -2.62732 0
M  V30 5185 C 483.085 -3.12869 -1.7788 0
M  V30 5186 C 482.693 -4.38161 -0.933768 0
M  V30 5187 C 484.437 -3.43265 -2.49738 0
M  V30 5188 C 482.344 -5.6534 -1.73623 0
M  V30 5189 H 481.274 -0.658795 -0.366749 0
M  V30 5190 H 483.925 -1.82092 -0.226902 0
M  V30 5191 H 482.307 -3.01606 -2.56612 0
M  V30 5192 H 483.481 -4.60413 -0.188736 0
M  V30 5193 H 481.796 -4.15102 -0.328488 0
M  V30 5194 H 484.393 -4.35501 -3.10231 0
M  V30 5195 H 484.736 -2.64614 -3.2138 0
M  V30 5196 H 485.269 -3.55746 -1.78016 0
M  V30 5197 H 482.008 -6.46814 -1.06354 0
M  V30 5198 H 481.528 -5.47188 -2.45653 0
M  V30 5199 H 483.207 -6.04616 -2.30323 0
M  V30 5200 N 483.339 0.512053 -1.4905 0
M  V30 5201 C 484.585 1.26874 -1.58212 0
M  V30 5202 C 484.918 1.9241 -0.263073 0
M  V30 5203 O 484.193 1.80181 0.732476 0
M  V30 5204 C 484.476 2.34428 -2.73341 0
M  V30 5205 C 484.329 1.73466 -4.15006 0
M  V30 5206 C 485.648 3.36073 -2.84154 0
M  V30 5207 H 482.767 0.459924 -0.575881 0
M  V30 5208 H 485.409 0.568587 -1.81293 0
M  V30 5209 H 483.559 2.94146 -2.53792 0
M  V30 5210 H 485.231 1.17661 -4.46042 0
M  V30 5211 H 483.474 1.03921 -4.21168 0
M  V30 5212 H 484.145 2.51426 -4.91415 0
M  V30 5213 H 486.621 2.86332 -3.01916 0
M  V30 5214 H 485.497 4.08703 -3.66406 0
M  V30 5215 H 485.758 3.97725 -1.93048 0
M  V30 5216 N 484.817 1.37938 0.762283 0
M  V30 5217 C 486.065 1.33404 1.51815 0
M  V30 5218 C 486.386 -0.0780975 1.94844 0
M  V30 5219 O 485.656 -1.02405 1.67003 0
M  V30 5220 H 484.236 0.490839 0.563104 0
M  V30 5221 H 486.898 1.72527 0.906669 0
M  V30 5222 H 485.994 1.97926 2.41313 0
M  V30 5223 N 486.295 -0.989507 1.22664 0
M  V30 5224 C 487.543 -1.72612 1.05117 0
M  V30 5225 C 487.864 -1.90552 -0.414131 0
M  V30 5226 O 487.134 -1.4676 -1.29762 0
M  V30 5227 H 485.714 -0.639555 0.385977 0
M  V30 5228 H 488.376 -1.19158 1.54232 0
M  V30 5229 H 487.472 -2.71926 1.53175 0
M  V30 5230 N 487.773 -1.03688 -1.18687 0
M  V30 5231 C 488.723 -0.595067 -2.20098 0
M  V30 5232 C 489.707 0.360465 -1.5681 0
M  V30 5233 O 490.899 0.180136 -1.76081 0
M  V30 5234 C 488.028 0.0444495 -3.43271 0
M  V30 5235 C 487.114 -0.934002 -4.13687 0
M  V30 5236 N 487.505 -2.09957 -4.60165 0
M  V30 5237 C 485.803 -0.759177 -4.39491 0
M  V30 5238 C 486.504 -2.71735 -5.1433 0
M  V30 5239 N 485.48 -1.99638 -5.05614 0
M  V30 5240 H 489.282 -1.48336 -2.5372 0
M  V30 5241 H 486.796 -0.904949 -1.3485 0
M  V30 5242 H 488.793 0.37864 -4.15177 0
M  V30 5243 H 487.453 0.928325 -3.11147 0
M  V30 5244 H 488.464 -2.47863 -4.54735 0
M  V30 5245 H 485.141 0.0749292 -4.17433 0
M  V30 5246 H 486.531 -3.70492 -5.60523 0
M  V30 5247 N 489.251 1.34841 -0.815825 0
M  V30 5248 C 490.181 2.32187 -0.247298 0
M  V30 5249 C 491.162 1.5791 0.632344 0
M  V30 5250 O 492.347 1.8593 0.560698 0
M  V30 5251 C 489.477 3.42122 0.597466 0
M  V30 5252 C 488.431 4.27602 -0.184446 0
M  V30 5253 C 487.757 5.28942 0.782609 0
M  V30 5254 C 489.057 5.03502 -1.38865 0
M  V30 5255 H 490.751 2.79985 -1.06061 0
M  V30 5256 H 488.297 1.34611 -0.511461 0
M  V30 5257 H 490.25 4.09232 1.00533 0
M  V30 5258 H 488.974 2.92956 1.44376 0
M  V30 5259 H 487.633 3.62085 -0.573592 0
M  V30 5260 H 487.281 4.7604 1.62466 0
M  V30 5261 H 486.981 5.87008 0.263695 0
M  V30 5262 H 488.505 5.98922 1.18848 0
M  V30 5263 H 489.919 5.63506 -1.05518 0
M  V30 5264 H 488.316 5.71108 -1.8427 0
M  V30 5265 H 489.386 4.33608 -2.17054 0
M  V30 5266 N 490.729 0.570148 1.46925 0
M  V30 5267 C 491.954 0.0542592 2.07329 0
M  V30 5268 C 492.379 -1.23582 1.41806 0
M  V30 5269 O 491.737 -1.74341 0.497479 0
M  V30 5270 C 491.785 -0.111175 3.60429 0
M  V30 5271 O 490.889 -1.17071 3.95434 0
M  V30 5272 H 490.23 0.0571425 0.661537 0
M  V30 5273 H 492.76 0.789516 1.88753 0
M  V30 5274 H 492.77 -0.321315 4.06733 0
M  V30 5275 H 491.445 0.831012 4.07513 0
M  V30 5276 H 490.022 -0.940029 3.60857 0
M  V30 5277 N 492.207 -1.54576 0.307264 0
M  V30 5278 C 493.137 -2.26708 -0.55907 0
M  V30 5279 C 494.118 -1.26893 -1.1328 0
M  V30 5280 O 495.303 -1.55677 -1.16097 0
M  V30 5281 C 492.433 -3.01259 -1.72801 0
M  V30 5282 C 491.387 -4.08275 -1.28435 0
M  V30 5283 C 490.713 -4.70575 -2.53895 0
M  V30 5284 C 492.013 -5.2068 -0.411038 0
M  V30 5285 H 493.707 -2.9937 0.042576 0
M  V30 5286 H 491.253 -1.43983 0.0219173 0
M  V30 5287 H 493.206 -3.50444 -2.34023 0
M  V30 5288 H 491.93 -2.26187 -2.356 0
M  V30 5289 H 490.589 -3.59949 -0.695161 0
M  V30 5290 H 490.237 -3.92136 -3.15021 0
M  V30 5291 H 489.937 -5.42854 -2.24908 0
M  V30 5292 H 491.461 -5.22527 -3.15908 0
M  V30 5293 H 492.875 -5.65721 -0.929097 0
M  V30 5294 H 491.272 -5.99716 -0.214664 0
M  V30 5295 H 492.342 -4.81629 0.562287 0
M  V30 5296 N 493.685 -0.035106 -1.57561 0
M  V30 5297 C 494.595 0.960295 -2.14046 0
M  V30 5298 C 495.611 1.3529 -1.0942 0
M  V30 5299 O 496.787 1.43309 -1.41508 0
M  V30 5300 C 493.852 2.22214 -2.66124 0
M  V30 5301 C 492.913 1.8894 -3.85487 0
M  V30 5302 C 492.146 3.09109 -4.35072 0
M  V30 5303 O 492.369 4.21963 -3.83802 0
M  V30 5304 O 491.303 2.91058 -5.26848 0
M  V30 5305 H 495.129 0.509983 -2.99387 0
M  V30 5306 H 492.714 0.185853 -1.48239 0
M  V30 5307 H 494.596 2.96279 -2.99661 0
M  V30 5308 H 493.271 2.66414 -1.83862 0
M  V30 5309 H 492.178 1.12241 -3.56865 0
M  V30 5310 H 493.511 1.49551 -4.6893 0
M  V30 5311 N 495.163 1.55791 0.238111 0
M  V30 5312 C 496.393 1.81834 0.980809 0
M  V30 5313 C 496.801 0.609741 1.79106 0
M  V30 5314 O 496.144 -0.431073 1.78571 0
M  V30 5315 C 496.206 3.01363 1.96011 0
M  V30 5316 C 495.87 4.37037 1.33597 0
M  V30 5317 C 496.867 5.14692 0.734063 0
M  V30 5318 C 494.552 4.83743 1.3527 0
M  V30 5319 C 496.546 6.37206 0.157208 0
M  V30 5320 C 494.233 6.06204 0.77199 0
M  V30 5321 C 495.231 6.82775 0.175282 0
M  V30 5322 O 494.919 8.02922 -0.396432 0
M  V30 5323 H 494.651 0.6088 0.293834 0
M  V30 5324 H 497.205 2.03702 0.263552 0
M  V30 5325 H 495.435 2.75273 2.71591 0
M  V30 5326 H 497.124 3.14422 2.56697 0
M  V30 5327 H 497.89 4.79722 0.713582 0
M  V30 5328 H 493.769 4.24129 1.80653 0
M  V30 5329 H 497.313 6.96915 -0.30917 0
M  V30 5330 H 493.21 6.4065 0.789828 0
M  V30 5331 H 493.978 8.17989 -0.289145 0
M  V30 5332 N 496.642 -0.504142 1.49319 0
M  V30 5333 C 497.572 -1.61473 1.68667 0
M  V30 5334 C 498.553 -1.61455 0.535378 0
M  V30 5335 O 499.738 -1.78245 0.770868 0
M  V30 5336 C 496.868 -2.99971 1.75028 0
M  V30 5337 C 495.822 -3.14854 2.89916 0
M  V30 5338 C 495.148 -4.54671 2.81387 0
M  V30 5339 C 496.448 -2.95176 4.30893 0
M  V30 5340 H 498.142 -1.45535 2.61648 0
M  V30 5341 H 495.688 -0.698711 1.25913 0
M  V30 5342 H 497.641 -3.77562 1.8715 0
M  V30 5343 H 496.365 -3.1699 0.786441 0
M  V30 5344 H 495.024 -2.39687 2.77391 0
M  V30 5345 H 494.672 -4.68562 1.82917 0
M  V30 5346 H 494.372 -4.6557 3.58494 0
M  V30 5347 H 495.896 -5.34327 2.95512 0
M  V30 5348 H 497.31 -3.62538 4.44116 0
M  V30 5349 H 495.707 -3.17549 5.09198 0
M  V30 5350 H 496.777 -1.91332 4.45556 0
M  V30 5351 N 498.12 -1.38341 -0.754957 0
M  V30 5352 C 499.067 -1.3546 -1.86867 0
M  V30 5353 C 500.037 -0.217369 -1.64672 0
M  V30 5354 O 501.222 -0.409383 -1.86356 0
M  V30 5355 C 498.362 -1.18413 -3.24149 0
M  V30 5356 C 497.475 -2.41511 -3.58185 0
M  V30 5357 C 496.61 -2.17205 -4.84763 0
M  V30 5358 C 495.649 -3.36081 -5.11582 0
M  V30 5359 N 494.786 -3.11219 -6.29354 0
M  V30 5360 H 499.626 -2.30672 -1.88664 0
M  V30 5361 H 497.163 -1.14607 -0.922154 0
M  V30 5362 H 499.121 -1.06545 -4.03366 0
M  V30 5363 H 497.751 -0.268397 -3.21682 0
M  V30 5364 H 496.803 -2.64056 -2.73822 0
M  V30 5365 H 498.115 -3.30115 -3.73932 0
M  V30 5366 H 497.269 -2.02465 -5.7192 0
M  V30 5367 H 496.008 -1.25964 -4.71152 0
M  V30 5368 H 495.013 -3.51341 -4.22894 0
M  V30 5369 H 496.238 -4.28196 -5.27091 0
M  V30 5370 H 494.184 -2.22624 -6.17069 0
M  V30 5371 H 494.101 -3.93373 -6.45596 0
M  V30 5372 H 495.369 -3.00132 -7.19403 0
M  V30 5373 N 499.598 0.982988 -1.23187 0
M  V30 5374 C 500.875 1.69814 -0.970707 0
M  V30 5375 C 501.255 2.04811 0.511424 0
M  V30 5376 O 500.603 1.73924 1.48198 0
M  V30 5377 C 500.813 2.94143 -1.87831 0
M  V30 5378 C 502.161 3.66712 -2.14026 0
M  V30 5379 O 503.185 3.04171 -1.8536 0
M  V30 5380 O 502.044 4.79258 -2.62629 0
M  V30 5381 H 499.138 0.741659 -0.365884 0
M  V30 5382 H 501.684 1.03844 -1.34218 0
M  V30 5383 H 500.456 2.64858 -2.88038 0
M  V30 5384 H 500.079 3.6785 -1.50905 0
M  V30 5385 N 501.076 1.04316 1.18135 0
M  V30 5386 C 502.039 0.640794 2.2006 0
M  V30 5387 C 503.039 -0.303124 1.57917 0
M  V30 5388 O 504.229 -0.0881855 1.73977 0
M  V30 5389 C 501.361 -0.060148 3.40847 0
M  V30 5390 H 502.554 1.54281 2.57172 0
M  V30 5391 H 500.107 0.836004 1.32063 0
M  V30 5392 H 500.842 -0.975845 3.0927 0
M  V30 5393 H 500.627 0.618319 3.87194 0
M  V30 5394 H 502.117 -0.328082 4.16309 0
M  V30 5395 N 502.554 -1.34406 0.822964 0
M  V30 5396 C 503.782 -2.02508 0.424039 0
M  V30 5397 C 504.197 -1.61975 -0.970022 0
M  V30 5398 O 503.554 -0.825228 -1.62777 0
M  V30 5399 C 503.605 -3.57789 0.516657 0
M  V30 5400 O 503.326 -3.96853 1.85577 0
M  V30 5401 C 504.827 -4.43157 0.112637 0
M  V30 5402 H 502.047 -0.649063 0.170173 0
M  V30 5403 H 504.591 -1.7168 1.11113 0
M  V30 5404 H 502.746 -3.87207 -0.122353 0
M  V30 5405 H 503.16 -4.91538 1.83005 0
M  V30 5406 H 504.634 -5.51527 0.228526 0
M  V30 5407 H 505.111 -4.28939 -0.943837 0
M  V30 5408 H 505.717 -4.19067 0.725449 0
M  V30 5409 N 504.032 -0.577932 -1.46621 0
M  V30 5410 C 505.257 -0.0652536 -2.07297 0
M  V30 5411 C 505.682 1.22828 -1.4246 0
M  V30 5412 O 505.04 1.74075 -0.506718 0
M  V30 5413 C 505.088 0.0920589 -3.60482 0
M  V30 5414 O 504.192 1.14972 -3.96049 0
M  V30 5415 H 503.533 -0.06065 -0.661224 0
M  V30 5416 H 506.063 -0.799515 -1.88332 0
M  V30 5417 H 506.073 0.299741 -4.06897 0
M  V30 5418 H 504.748 -0.852612 -4.07067 0
M  V30 5419 H 503.325 0.920879 -3.61351 0
M  V30 5420 N 505.51 1.54411 -0.315457 0
M  V30 5421 C 506.42 2.27737 0.56329 0
M  V30 5422 C 507.436 1.31787 1.13614 0
M  V30 5423 O 508.612 1.64791 1.15784 0
M  V30 5424 C 505.677 3.01478 1.71207 0
M  V30 5425 C 504.738 4.12997 1.17185 0
M  V30 5426 C 503.971 4.83212 2.26588 0
M  V30 5427 O 504.194 4.52884 3.46775 0
M  V30 5428 O 503.128 5.70299 1.92463 0
M  V30 5429 H 506.954 3.03683 -0.0319614 0
M  V30 5430 H 504.539 1.49178 -0.0814188 0
M  V30 5431 H 506.421 3.47683 2.38106 0
M  V30 5432 H 505.096 2.28414 2.29366 0
M  V30 5433 H 504.003 3.71159 0.468174 0
M  V30 5434 H 505.336 4.8808 0.635501 0
M  V30 5435 N 506.988 0.0434614 1.5754 0
M  V30 5436 C 508.234 -0.632971 1.92669 0
M  V30 5437 C 508.567 -1.70947 0.921446 0
M  V30 5438 O 507.842 -1.94426 -0.0537202 0
M  V30 5439 C 508.125 -1.23619 3.38216 0
M  V30 5440 C 507.978 -0.168274 4.49485 0
M  V30 5441 C 509.297 -2.15008 3.84005 0
M  V30 5442 H 506.416 -0.228629 0.700641 0
M  V30 5443 H 509.058 0.103651 1.89717 0
M  V30 5444 H 507.208 -1.864 3.40863 0
M  V30 5445 H 508.88 0.463196 4.58969 0
M  V30 5446 H 507.123 0.504581 4.30855 0
M  V30 5447 H 507.794 -0.630218 5.48391 0
M  V30 5448 H 510.27 -1.62198 3.83185 0
M  V30 5449 H 509.146 -2.54161 4.86511 0
M  V30 5450 H 509.407 -3.04707 3.20322 0
M  V30 5451 N 508.466 -1.55915 -0.229846 0
M  V30 5452 C 509.882 -1.48721 -0.579166 0
M  V30 5453 C 510.082 -0.736976 -1.87539 0
M  V30 5454 O 509.138 -0.273258 -2.51017 0
M  V30 5455 C 510.451 -2.9323 -0.666082 0
M  V30 5456 C 511.999 -3.03701 -0.757267 0
M  V30 5457 C 512.474 -4.49552 -0.8756 0
M  V30 5458 N 513.965 -4.53561 -0.940035 0
M  V30 5459 C 514.7 -5.63683 -1.05116 0
M  V30 5460 N 514.196 -6.83576 -1.12675 0
M  V30 5461 N 515.989 -5.51516 -1.08565 0
M  V30 5462 H 508.14 -2.03123 0.620857 0
M  V30 5463 H 510.403 -0.922898 0.21671 0
M  V30 5464 H 510.109 -3.51032 0.21664 0
M  V30 5465 H 509.983 -3.44668 -1.53243 0
M  V30 5466 H 512.37 -2.45969 -1.63043 0
M  V30 5467 H 512.451 -2.55446 0.134583 0
M  V30 5468 H 512.095 -5.079 -0.00692351 0
M  V30 5469 H 512.025 -4.95506 -1.78274 0
M  V30 5470 H 514.516 -3.67215 -0.892269 0
M  V30 5471 H 514.829 -7.63251 -1.21109 0
M  V30 5472 H 513.174 -6.86303 -1.09603 0
M  V30 5473 H 516.365 -4.5678 -1.02319 0
M  V30 5474 H 516.538 -6.37372 -1.1688 0
M  V30 5475 N 509.944 0.496216 -1.49584 0
M  V30 5476 C 511.19 1.25189 -1.59548 0
M  V30 5477 C 511.523 1.9212 -0.283466 0
M  V30 5478 O 510.798 1.80947 0.713324 0
M  V30 5479 C 511.081 2.31516 -2.75812 0
M  V30 5480 C 510.934 1.69054 -4.16822 0
M  V30 5481 C 512.253 3.3304 -2.87702 0
M  V30 5482 H 509.372 0.45379 -0.580727 0
M  V30 5483 H 512.014 0.549327 -1.81886 0
M  V30 5484 H 510.164 2.91438 -2.56897 0
M  V30 5485 H 511.836 1.12923 -4.47265 0
M  V30 5486 H 510.079 0.994485 -4.22247 0
M  V30 5487 H 510.75 2.462 -4.94054 0
M  V30 5488 H 513.226 2.83114 -3.04936 0
M  V30 5489 H 512.102 4.04794 -3.7072 0
M  V30 5490 H 512.363 3.95655 -1.97255 0
M  V30 5491 N 511.423 1.38739 0.74761 0
M  V30 5492 C 512.386 1.36241 1.84312 0
M  V30 5493 C 513.386 0.261811 1.58654 0
M  V30 5494 O 514.576 0.519031 1.66288 0
M  V30 5495 C 511.708 1.12253 3.21888 0
M  V30 5496 H 512.901 2.33712 1.87933 0
M  V30 5497 H 510.454 1.2412 0.949946 0
M  V30 5498 H 511.189 0.154133 3.23934 0
M  V30 5499 H 510.974 1.91943 3.41907 0
M  V30 5500 H 512.464 1.13215 4.0196 0
M  V30 5501 N 512.901 -0.976442 1.23707 0
M  V30 5502 C 514.129 -1.75341 1.09833 0
M  V30 5503 C 514.544 -1.8553 -0.349885 0
M  V30 5504 O 513.901 -1.33732 -1.24185 0
M  V30 5505 C 513.952 -3.17833 1.72233 0
M  V30 5506 O 513.673 -3.08167 3.11391 0
M  V30 5507 C 515.174 -4.11906 1.63853 0
M  V30 5508 H 512.394 -0.550137 0.384175 0
M  V30 5509 H 514.938 -1.2265 1.63638 0
M  V30 5510 H 513.093 -3.67538 1.22452 0
M  V30 5511 H 513.507 -3.97897 3.41729 0
M  V30 5512 H 514.981 -5.09579 2.12211 0
M  V30 5513 H 515.458 -4.35109 0.598092 0
M  V30 5514 H 516.064 -3.68107 2.13019 0
M  V30 5515 N 514.379 -1.04941 -1.1758 0
M  V30 5516 C 515.309 -0.669172 -2.23706 0
M  V30 5517 C 516.29 0.331835 -1.66832 0
M  V30 5518 O 517.475 0.209988 -1.93061 0
M  V30 5519 C 514.605 -0.0404889 -3.47276 0
M  V30 5520 C 513.559 -0.965983 -4.16957 0
M  V30 5521 C 512.885 -0.201312 -5.34321 0
M  V30 5522 C 514.185 -2.28902 -4.69469 0
M  V30 5523 H 515.879 -1.55639 -2.55767 0
M  V30 5524 H 513.425 -0.749793 -1.22939 0
M  V30 5525 H 515.378 0.237298 -4.20731 0
M  V30 5526 H 514.102 0.881658 -3.14475 0
M  V30 5527 H 512.761 -1.22829 -3.45411 0
M  V30 5528 H 512.409 0.723519 -4.97769 0
M  V30 5529 H 512.109 -0.817968 -5.81879 0
M  V30 5530 H 513.633 0.0692499 -6.10561 0
M  V30 5531 H 515.047 -2.07132 -5.34574 0
M  V30 5532 H 513.444 -2.85942 -5.27596 0
M  V30 5533 H 514.514 -2.92937 -3.86414 0
M  V30 5534 N 515.857 1.33968 -0.830081 0
M  V30 5535 C 516.804 2.29387 -0.255008 0
M  V30 5536 C 517.774 1.53923 0.624243 0
M  V30 5537 O 518.959 1.82262 0.564372 0
M  V30 5538 C 516.099 3.4034 0.571209 0
M  V30 5539 C 515.212 4.30729 -0.331083 0
M  V30 5540 C 514.347 5.2879 0.505389 0
M  V30 5541 C 513.386 6.10819 -0.395843 0
M  V30 5542 N 512.523 7.00948 0.401979 0
M  V30 5543 H 517.363 2.77972 -1.07404 0
M  V30 5544 H 514.9 1.36785 -0.541133 0
M  V30 5545 H 516.858 4.03361 1.06562 0
M  V30 5546 H 515.488 2.9297 1.35529 0
M  V30 5547 H 514.54 3.68507 -0.943759 0
M  V30 5548 H 515.852 4.88181 -1.02377 0
M  V30 5549 H 515.006 5.97297 1.06399 0
M  V30 5550 H 513.745 4.71894 1.23155 0
M  V30 5551 H 512.75 5.41238 -0.966529 0
M  V30 5552 H 513.975 6.69797 -1.12023 0
M  V30 5553 H 511.921 6.46512 1.11168 0
M  V30 5554 H 511.838 7.55643 -0.232167 0
M  V30 5555 H 513.106 7.73774 0.943102 0
M  V30 5556 N 517.335 0.585699 1.46312 0
M  V30 5557 C 518.583 0.072278 2.01971 0
M  V30 5558 C 518.904 -1.29345 1.45928 0
M  V30 5559 O 518.174 -1.84973 0.645109 0
M  V30 5560 H 516.754 0.023729 0.746623 0
M  V30 5561 H 519.416 0.762155 1.7938 0
M  V30 5562 H 518.512 0.00552767 3.121 0
M  V30 5563 N 518.813 -1.54241 0.323641 0
M  V30 5564 C 519.76 -2.24339 -0.542277 0
M  V30 5565 C 520.73 -1.23421 -1.11159 0
M  V30 5566 O 521.915 -1.52104 -1.15192 0
M  V30 5567 C 519.055 -3.00479 -1.69725 0
M  V30 5568 C 518.168 -4.16214 -1.15716 0
M  V30 5569 C 517.303 -4.79884 -2.27783 0
M  V30 5570 C 516.342 -5.87722 -1.71023 0
M  V30 5571 N 515.479 -6.45254 -2.76752 0
M  V30 5572 H 520.319 -2.97935 0.0620613 0
M  V30 5573 H 517.856 -1.47039 0.0423993 0
M  V30 5574 H 519.814 -3.42869 -2.3769 0
M  V30 5575 H 518.444 -2.29217 -2.27288 0
M  V30 5576 H 517.496 -3.78605 -0.369063 0
M  V30 5577 H 518.808 -4.93838 -0.701832 0
M  V30 5578 H 517.962 -5.25243 -3.03651 0
M  V30 5579 H 516.701 -4.01641 -2.76652 0
M  V30 5580 H 515.706 -5.41765 -0.936518 0
M  V30 5581 H 516.931 -6.67863 -1.2303 0
M  V30 5582 H 514.877 -5.69884 -3.24912 0
M  V30 5583 H 514.794 -7.18292 -2.35782 0
M  V30 5584 H 516.062 -6.95269 -3.5245 0
M  V30 5585 N 520.291 -0.0518155 -1.57515 0
M  V30 5586 C 521.702 0.483787 -1.80323 0
M  V30 5587 C 522.053 1.70879 -0.964099 0
M  V30 5588 O 521.178 2.15643 -0.180872 0
M  V30 5589 C 521.773 0.884459 -3.27052 0
M  V30 5590 C 520.332 1.36504 -3.50776 0
M  V30 5591 C 519.479 0.340539 -2.75201 0
M  V30 5592 H 522.43 -0.277691 -1.56252 0
M  V30 5593 H 522.451 1.74733 -3.38007 0
M  V30 5594 H 521.963 -0.00731093 -3.88099 0
M  V30 5595 H 520.064 2.27598 -2.95009 0
M  V30 5596 H 520.177 1.35675 -4.59488 0
M  V30 5597 H 518.541 0.81356 -2.41357 0
M  V30 5598 H 519.324 -0.543156 -3.38976 0
M  V30 5599 N 521.769 1.56035 0.221574 0
M  V30 5600 C 523.015 1.79312 0.947372 0
M  V30 5601 C 523.348 0.621453 1.83988 0
M  V30 5602 O 522.623 -0.379287 1.90766 0
M  V30 5603 C 522.906 3.1267 1.78633 0
M  V30 5604 C 522.759 4.40284 0.920312 0
M  V30 5605 C 524.078 3.4247 2.7641 0
M  V30 5606 H 521.197 0.652328 0.342982 0
M  V30 5607 H 523.839 1.88765 0.216244 0
M  V30 5608 H 521.989 3.04741 2.40967 0
M  V30 5609 H 523.661 4.60232 0.313718 0
M  V30 5610 H 521.904 4.33212 0.225734 0
M  V30 5611 H 522.575 5.30033 1.54171 0
M  V30 5612 H 525.051 3.50526 2.24211 0
M  V30 5613 H 523.927 4.3695 3.32213 0
M  V30 5614 H 524.188 2.64635 3.54148 0
M  V30 5615 N 523.247 -0.488276 1.49845 0
M  V30 5616 C 524.663 -0.820566 1.3689 0
M  V30 5617 C 524.863 -1.97248 0.411752 0
M  V30 5618 O 523.919 -2.52042 -0.151931 0
M  V30 5619 C 525.232 -1.1488 2.77891 0
M  V30 5620 C 526.78 -1.25626 2.86683 0
M  V30 5621 C 527.255 -1.61772 4.28479 0
M  V30 5622 N 528.746 -1.68797 4.31349 0
M  V30 5623 C 529.481 -1.98235 5.38043 0
M  V30 5624 N 528.977 -2.2581 6.54967 0
M  V30 5625 N 530.77 -1.99593 5.2547 0
M  V30 5626 H 522.921 0.271123 2.10662 0
M  V30 5627 H 525.184 0.058735 0.946179 0
M  V30 5628 H 524.89 -0.375614 3.49688 0
M  V30 5629 H 524.764 -2.08919 3.14058 0
M  V30 5630 H 527.151 -2.02014 2.15114 0
M  V30 5631 H 527.232 -0.296072 2.54081 0
M  V30 5632 H 526.876 -0.859295 5.00578 0
M  V30 5633 H 526.806 -2.58912 4.58554 0
M  V30 5634 H 529.297 -1.49595 3.4703 0
M  V30 5635 H 529.61 -2.47497 7.32096 0
M  V30 5636 H 527.955 -2.23239 6.58171 0
M  V30 5637 H 531.146 -1.77535 4.33127 0
M  V30 5638 H 531.319 -2.222 6.08713 0
M  V30 5639 N 524.725 -1.39134 -0.740242 0
M  V30 5640 C 525.953 -1.39334 -1.5295 0
M  V30 5641 C 526.368 0.0135008 -1.88795 0
M  V30 5642 O 525.725 0.983524 -1.5373 0
M  V30 5643 C 525.776 -2.2614 -2.82034 0
M  V30 5644 O 525.497 -3.61345 -2.47712 0
M  V30 5645 C 526.998 -2.34666 -3.76094 0
M  V30 5646 H 524.218 -0.476103 -0.472828 0
M  V30 5647 H 526.762 -1.82883 -0.9151 0
M  V30 5648 H 524.917 -1.86018 -3.39818 0
M  V30 5649 H 525.331 -4.07194 -3.30595 0
M  V30 5650 H 526.805 -2.99663 -4.63579 0
M  V30 5651 H 527.282 -1.36426 -4.17474 0
M  V30 5652 H 527.888 -2.75236 -3.2423 0
M  V30 5653 N 526.204 0.969867 -1.24223 0
M  V30 5654 C 527.45 1.7151 -1.08223 0
M  V30 5655 C 527.783 1.90478 0.37838 0
M  V30 5656 O 527.058 1.4647 1.27971 0
M  V30 5657 C 527.341 3.10714 -1.82013 0
M  V30 5658 C 527.194 2.9925 -3.35811 0
M  V30 5659 C 528.513 4.10332 -1.59108 0
M  V30 5660 H 525.632 0.622499 -0.394543 0
M  V30 5661 H 528.274 1.1284 -1.52863 0
M  V30 5662 H 526.424 3.608 -1.44068 0
M  V30 5663 H 528.096 2.56608 -3.83341 0
M  V30 5664 H 526.339 2.35512 -3.64303 0
M  V30 5665 H 527.01 3.97857 -3.82641 0
M  V30 5666 H 529.486 3.69097 -1.92111 0
M  V30 5667 H 528.362 5.05804 -2.13198 0
M  V30 5668 H 528.623 4.38926 -0.528832 0
M  V30 5669 N 527.682 1.05563 1.17022 0
M  V30 5670 C 528.614 0.617888 2.20714 0
M  V30 5671 C 529.627 -0.320303 1.59618 0
M  V30 5672 O 530.816 -0.112449 1.78145 0
M  V30 5673 C 527.916 -0.115333 3.38704 0
M  V30 5674 C 527.089 0.834493 4.29366 0
M  V30 5675 C 526.148 0.141855 5.26009 0
M  V30 5676 O 525.174 0.777151 5.6387 0
M  V30 5677 N 526.376 -1.11934 5.69606 0
M  V30 5678 H 529.141 1.50981 2.58892 0
M  V30 5679 H 526.702 0.938008 1.31958 0
M  V30 5680 H 528.694 -0.588918 4.00392 0
M  V30 5681 H 527.264 -0.908967 2.99093 0
M  V30 5682 H 526.484 1.48762 3.65053 0
M  V30 5683 H 527.772 1.4791 4.86827 0
M  V30 5684 H 527.17 -1.65574 5.40927 0
M  V30 5685 H 525.727 -1.53692 6.33421 0
M  V30 5686 N 529.16 -1.33526 0.837174 0
M  V30 5687 C 530.09 -2.31764 0.284206 0
M  V30 5688 C 531.071 -1.58896 -0.607142 0
M  V30 5689 O 532.256 -1.86798 -0.531047 0
M  V30 5690 C 529.386 -3.43029 -0.542962 0
M  V30 5691 C 528.34 -4.27255 0.252451 0
M  V30 5692 C 527.666 -5.3012 -0.69836 0
M  V30 5693 C 528.966 -5.01229 1.46858 0
M  V30 5694 H 530.66 -2.78262 1.10502 0
M  V30 5695 H 528.206 -1.3378 0.532812 0
M  V30 5696 H 530.159 -4.1078 -0.940096 0
M  V30 5697 H 528.883 -2.95216 -1.39697 0
M  V30 5698 H 527.542 -3.61127 0.631124 0
M  V30 5699 H 527.19 -4.78564 -1.54872 0
M  V30 5700 H 526.89 -5.87353 -0.170274 0
M  V30 5701 H 528.414 -6.00737 -1.09305 0
M  V30 5702 H 529.828 -5.61756 1.14469 0
M  V30 5703 H 528.225 -5.68104 1.93333 0
M  V30 5704 H 529.295 -4.301 2.23924 0
M  V30 5705 N 530.638 -0.59345 -1.46 0
M  V30 5706 C 532.049 -0.169801 -1.85926 0
M  V30 5707 C 532.4 1.26984 -1.49565 0
M  V30 5708 O 531.525 1.96076 -0.915602 0
M  V30 5709 C 532.12 -0.301385 -3.37457 0
M  V30 5710 C 530.679 0.0674684 -3.7634 0
M  V30 5711 C 529.826 -0.632383 -2.69993 0
M  V30 5712 H 532.777 -0.801014 -1.37002 0
M  V30 5713 H 532.798 0.470331 -3.77582 0
M  V30 5714 H 532.31 -1.34927 -3.63891 0
M  V30 5715 H 530.411 1.11507 -3.55523 0
M  V30 5716 H 530.524 -0.316332 -4.78055 0
M  V30 5717 H 528.888 -0.0714961 -2.546 0
M  V30 5718 H 529.671 -1.68212 -2.99265 0
M  V30 5719 N 532.116 1.54067 -0.331816 0
M  V30 5720 C 533.364 2.00319 0.267739 0
M  V30 5721 C 533.685 1.22148 1.52003 0
M  V30 5722 O 532.955 0.325494 1.93177 0
M  V30 5723 H 531.535 0.740014 0.101922 0
M  V30 5724 H 534.197 1.89628 -0.450267 0
M  V30 5725 H 533.293 3.07765 0.518385 0
M  V30 5726 N 533.594 0.0601682 1.57485 0
M  V30 5727 C 534.84 -0.612501 1.93329 0
M  V30 5728 C 535.173 -1.6996 0.939526 0
M  V30 5729 O 534.448 -1.94472 -0.0330957 0
M  V30 5730 C 534.731 -1.20025 3.39508 0
M  V30 5731 C 534.584 -0.12059 4.49638 0
M  V30 5732 C 535.903 -2.10923 3.86264 0
M  V30 5733 H 533.022 -0.221185 0.703027 0
M  V30 5734 H 535.664 0.123768 1.89596 0
M  V30 5735 H 533.814 -1.82774 3.42821 0
M  V30 5736 H 535.486 0.51185 4.58452 0
M  V30 5737 H 533.729 0.550251 4.30296 0
M  V30 5738 H 534.4 -0.572019 5.49028 0
M  V30 5739 H 536.876 -1.58124 3.84884 0
M  V30 5740 H 535.752 -2.48987 4.8918 0
M  V30 5741 H 536.013 -3.01292 3.23536 0
M  V30 5742 N 535.072 -1.5615 -0.213296 0
M  V30 5743 C 536.32 -1.79191 -0.934612 0
M  V30 5744 C 536.641 -0.630112 -1.84539 0
M  V30 5745 O 535.911 0.35257 -1.92701 0
M  V30 5746 H 534.491 -0.660937 -0.348097 0
M  V30 5747 H 537.153 -1.93618 -0.22317 0
M  V30 5748 H 536.249 -2.71656 -1.53654 0
M  V30 5749 N 536.55 0.480323 -1.50102 0
M  V30 5750 C 537.513 1.56181 -1.6775 0
M  V30 5751 C 538.513 1.51156 -0.548503 0
M  V30 5752 O 539.703 1.5394 -0.815363 0
M  V30 5753 C 536.835 2.95823 -1.69415 0
M  V30 5754 H 538.028 1.41855 -2.6423 0
M  V30 5755 H 535.581 0.70605 -1.39444 0
M  V30 5756 H 536.316 3.15604 -0.745948 0
M  V30 5757 H 536.101 3.00878 -2.51425 0
M  V30 5758 H 537.591 3.74359 -1.85054 0
M  V30 5759 N 538.028 1.39524 0.732853 0
M  V30 5760 C 538.991 1.38189 1.82857 0
M  V30 5761 C 539.991 0.278624 1.58368 0
M  V30 5762 O 541.181 0.536639 1.65728 0
M  V30 5763 C 538.313 1.15661 3.2068 0
M  V30 5764 H 539.506 2.35692 1.85444 0
M  V30 5765 H 537.059 1.2512 0.936728 0
M  V30 5766 H 537.794 0.188482 3.23752 0
M  V30 5767 H 537.579 1.95559 3.39852 0
M  V30 5768 H 539.069 1.17472 4.00737 0
M  V30 5769 N 539.506 -0.963266 1.24736 0
M  V30 5770 C 540.731 -1.74699 1.11781 0
M  V30 5771 C 541.156 -1.85267 -0.325258 0
M  V30 5772 O 540.514 -1.32681 -1.23553 0
M  V30 5773 C 540.562 -3.14322 1.76731 0
M  V30 5774 O 539.666 -3.99043 1.04109 0
M  V30 5775 H 539.007 -0.53684 0.390767 0
M  V30 5776 H 541.537 -1.20801 1.65131 0
M  V30 5777 H 541.547 -3.64824 1.82668 0
M  V30 5778 H 540.222 -3.05946 2.81726 0
M  V30 5779 H 538.799 -3.5752 1.05991 0
M  V30 5780 N 540.985 -1.06182 -1.16461 0
M  V30 5781 C 541.933 -0.665716 -2.2287 0
M  V30 5782 C 542.927 0.317822 -1.66392 0
M  V30 5783 O 544.133 0.182807 -1.79069 0
M  V30 5784 H 540.508 -0.197148 -0.725697 0
M  V30 5785 H 542.479 -1.57307 -2.53569 0
M  V30 5786 C 541.228 -0.0669803 -3.47635 0
M  V30 5787 H 540.551 -0.814899 -3.91407 0
M  V30 5788 H 541.991 0.172669 -4.23648 0
M  V30 5789 C 540.45 1.18913 -3.15216 0
M  V30 5790 O 540.98 2.27723 -3.30916 0
M  V30 5791 N 539.186 1.09066 -2.69357 0
M  V30 5792 H 538.733 0.20518 -2.56782 0
M  V30 5793 H 538.691 1.93195 -2.48039 0
M  V30 5794 N 542.463 1.3308 -0.844243 0
M  V30 5795 C 543.393 2.3161 -0.296493 0
M  V30 5796 C 544.374 1.59215 0.598707 0
M  V30 5797 O 545.559 1.87077 0.521134 0
M  V30 5798 C 542.689 3.43313 0.524762 0
M  V30 5799 C 541.643 4.27115 -0.275106 0
M  V30 5800 C 540.969 5.30483 0.670236 0
M  V30 5801 C 542.269 5.00443 -1.49514 0
M  V30 5802 H 543.963 2.77672 -1.11976 0
M  V30 5803 H 541.509 1.33496 -0.539899 0
M  V30 5804 H 543.462 4.11273 0.918298 0
M  V30 5805 H 542.186 2.95952 1.3813 0
M  V30 5806 H 540.845 3.60787 -0.650267 0
M  V30 5807 H 540.493 4.79379 1.52332 0
M  V30 5808 H 540.193 5.87435 0.139123 0
M  V30 5809 H 541.717 6.01308 1.06117 0
M  V30 5810 H 543.131 5.61141 -1.17447 0
M  V30 5811 H 541.528 5.67071 -1.96343 0
M  V30 5812 H 542.598 4.28906 -2.26202 0
M  V30 5813 N 543.941 0.601185 1.45683 0
M  V30 5814 C 544.874 -0.17013 2.27565 0
M  V30 5815 C 545.852 -0.879661 1.36751 0
M  V30 5816 O 547.036 -0.889827 1.66176 0
M  V30 5817 C 544.163 -1.24568 3.14961 0
M  V30 5818 C 543.209 -0.639978 4.21671 0
M  V30 5819 S 544.042 0.547275 5.32696 0
M  V30 5820 C 545.198 -0.529019 6.2366 0
M  V30 5821 H 545.431 0.524583 2.92635 0
M  V30 5822 H 542.964 0.388537 1.49431 0
M  V30 5823 H 544.922 -1.86138 3.65873 0
M  V30 5824 H 543.583 -1.91243 2.49169 0
M  V30 5825 H 542.776 -1.44903 4.8272 0
M  V30 5826 H 542.378 -0.0995558 3.73867 0
M  V30 5827 H 544.67 -1.40981 6.62669 0
M  V30 5828 H 545.613 0.0451599 7.08086 0
M  V30 5829 H 546.021 -0.84147 5.58193 0
M  V30 5830 N 545.419 -1.53889 0.339982 0
M  V30 5831 C 546.667 -2.00458 -0.257112 0
M  V30 5832 C 546.988 -1.22953 -1.51353 0
M  V30 5833 O 546.258 -0.335734 -1.93002 0
M  V30 5834 H 544.838 -0.740544 -0.0979965 0
M  V30 5835 H 547.5 -1.89386 0.460317 0
M  V30 5836 H 546.596 -3.08035 -0.502057 0
M  V30 5837 N 546.897 -0.0685191 -1.57451 0
M  V30 5838 C 547.827 0.89747 -2.15564 0
M  V30 5839 C 548.808 1.31266 -1.08181 0
M  V30 5840 O 549.993 1.38429 -1.36202 0
M  V30 5841 C 547.123 2.16623 -2.71463 0
M  V30 5842 C 546.077 1.89054 -3.83982 0
M  V30 5843 C 545.403 3.22532 -4.26471 0
M  V30 5844 C 546.703 1.1984 -5.08366 0
M  V30 5845 H 548.397 0.413373 -2.96533 0
M  V30 5846 H 545.943 0.197391 -1.42641 0
M  V30 5847 H 547.896 2.84614 -3.10761 0
M  V30 5848 H 546.62 2.67269 -1.8771 0
M  V30 5849 H 545.279 1.23469 -3.45183 0
M  V30 5850 H 544.927 3.71013 -3.39644 0
M  V30 5851 H 544.627 3.04879 -5.02317 0
M  V30 5852 H 546.151 3.91727 -4.68383 0
M  V30 5853 H 547.565 1.77896 -5.45001 0
M  V30 5854 H 545.962 1.12456 -5.89469 0
M  V30 5855 H 547.032 0.176996 -4.84577 0
M  V30 5856 N 548.375 1.56261 0.205012 0
M  V30 5857 C 549.285 1.96944 1.27476 0
M  V30 5858 C 550.301 0.875636 1.50362 0
M  V30 5859 O 551.477 1.18058 1.6317 0
M  V30 5860 C 548.542 2.29219 2.60115 0
M  V30 5861 C 547.603 3.52255 2.45387 0
M  V30 5862 C 546.836 3.8298 3.71701 0
M  V30 5863 O 547.059 3.15138 4.75441 0
M  V30 5864 O 545.993 4.76435 3.67823 0
M  V30 5865 H 549.819 2.88144 0.959527 0
M  V30 5866 H 547.404 1.43686 0.409217 0
M  V30 5867 H 549.286 2.51098 3.3842 0
M  V30 5868 H 547.961 1.4119 2.91285 0
M  V30 5869 H 546.868 3.35635 1.65227 0
M  V30 5870 H 548.201 4.40719 2.19152 0
M  V30 5871 N 549.853 -0.472356 1.50355 0
M  V30 5872 C 551.13 -1.23356 1.51798 0
M  V30 5873 C 551.51 -2.09469 0.26193 0
M  V30 5874 O 550.858 -2.15677 -0.754691 0
M  V30 5875 C 551.068 -2.06568 2.81302 0
M  V30 5876 C 552.416 -2.648 3.31913 0
M  V30 5877 O 553.44 -2.16812 2.82614 0
M  V30 5878 O 552.299 -3.52231 4.17846 0
M  V30 5879 H 549.393 -0.559707 0.608816 0
M  V30 5880 H 551.939 -0.48428 1.62643 0
M  V30 5881 H 550.711 -1.43103 3.64194 0
M  V30 5882 H 550.334 -2.88633 2.73454 0
M  V30 5883 N 551.331 -1.39911 -0.725443 0
M  V30 5884 C 552.261 -1.42138 -1.85254 0
M  V30 5885 C 553.242 -0.283513 -1.67721 0
M  V30 5886 O 554.427 -0.490717 -1.87898 0
M  V30 5887 C 551.557 -1.27354 -3.23107 0
M  V30 5888 C 550.511 -2.3864 -3.55296 0
M  V30 5889 C 549.837 -2.08939 -4.92188 0
M  V30 5890 C 551.137 -3.8097 -3.57295 0
M  V30 5891 H 552.831 -2.36461 -1.83648 0
M  V30 5892 H 550.377 -1.13817 -0.882138 0
M  V30 5893 H 552.33 -1.2753 -4.01639 0
M  V30 5894 H 551.054 -0.295025 -3.25265 0
M  V30 5895 H 549.713 -2.37696 -2.79099 0
M  V30 5896 H 549.361 -1.09502 -4.90936 0
M  V30 5897 H 549.061 -2.83491 -5.14691 0
M  V30 5898 H 550.585 -2.10781 -5.73065 0
M  V30 5899 H 551.999 -3.8379 -4.25885 0
M  V30 5900 H 550.396 -4.5496 -3.9132 0
M  V30 5901 H 551.466 -4.11261 -2.5689 0
M  V30 5902 N 552.809 0.956637 -1.25245 0
M  V30 5903 C 554.086 1.67716 -1.00651 0
M  V30 5904 C 554.466 2.0585 0.467866 0
M  V30 5905 O 553.814 1.77029 1.44475 0
M  V30 5906 C 554.024 2.90093 -1.94028 0
M  V30 5907 C 555.372 3.6209 -2.21756 0
M  V30 5908 O 556.396 3.00171 -1.9177 0
M  V30 5909 O 555.255 4.7358 -2.72735 0
M  V30 5910 H 552.349 0.733731 -0.381533 0
M  V30 5911 H 554.895 1.00974 -1.3639 0
M  V30 5912 H 553.667 2.58689 -2.93591 0
M  V30 5913 H 553.29 3.64566 -1.58674 0
M  V30 5914 N 554.287 1.06798 1.15896 0
M  V30 5915 C 555.564 0.701057 1.82605 0
M  V30 5916 C 555.944 -0.817066 1.94646 0
M  V30 5917 O 555.292 -1.72933 1.49353 0
M  V30 5918 C 555.502 1.40895 3.19296 0
M  V30 5919 C 556.85 1.55744 3.95005 0
M  V30 5920 O 557.874 1.36927 3.28831 0
M  V30 5921 O 556.733 1.86658 5.13635 0
M  V30 5922 H 553.827 0.248791 0.78869 0
M  V30 5923 H 556.373 1.16857 1.23055 0
M  V30 5924 H 555.145 2.4439 3.05596 0
M  V30 5925 H 554.768 0.931847 3.86526 0
M  V30 5926 N 555.766 -1.3263 0.851289 0
M  V30 5927 C 556.729 -2.27247 0.298541 0
M  V30 5928 C 557.729 -1.51467 -0.539847 0
M  V30 5929 O 558.919 -1.7061 -0.351843 0
M  V30 5930 C 556.051 -3.35964 -0.578004 0
M  V30 5931 H 557.244 -2.7765 1.13359 0
M  V30 5932 H 554.797 -1.43245 0.625354 0
M  V30 5933 H 555.532 -2.90823 -1.435 0
M  V30 5934 H 555.317 -3.92094 0.0220539 0
M  V30 5935 H 556.807 -4.06472 -0.957626 0
M  V30 5936 N 557.244 -0.608902 -1.45362 0
M  V30 5937 C 558.474 -0.110852 -2.06302 0
M  V30 5938 C 558.882 1.21062 -1.45398 0
M  V30 5939 O 558.225 1.74861 -0.562976 0
M  V30 5940 C 558.287 0.101793 -3.59356 0
M  V30 5941 C 557.951 -1.13808 -4.42602 0
M  V30 5942 C 558.948 -2.05653 -4.77496 0
M  V30 5943 C 556.633 -1.36727 -4.83333 0
M  V30 5944 C 558.627 -3.18745 -5.51978 0
M  V30 5945 C 556.314 -2.5012 -5.57569 0
M  V30 5946 C 557.312 -3.40957 -5.91809 0
M  V30 5947 O 557 -4.52376 -6.64538 0
M  V30 5948 H 556.732 -0.0666001 -0.672711 0
M  V30 5949 H 559.286 -0.836942 -1.87575 0
M  V30 5950 H 557.516 0.88279 -3.76489 0
M  V30 5951 H 559.205 0.551607 -4.02134 0
M  V30 5952 H 559.971 -1.89172 -4.46586 0
M  V30 5953 H 555.85 -0.669216 -4.56117 0
M  V30 5954 H 559.394 -3.8967 -5.78622 0
M  V30 5955 H 555.291 -2.66553 -5.87894 0
M  V30 5956 H 556.059 -4.51075 -6.82989 0
M  V30 5957 N 558.722 1.53707 -0.348139 0
M  V30 5958 C 559.952 2.05108 0.247864 0
M  V30 5959 C 560.36 1.22252 1.44399 0
M  V30 5960 O 559.703 0.251853 1.81965 0
M  V30 5961 C 559.765 3.52171 0.722187 0
M  V30 5962 C 559.429 4.5562 -0.354902 0
M  V30 5963 C 560.426 5.05883 -1.19911 0
M  V30 5964 C 558.111 4.99703 -0.510145 0
M  V30 5965 C 560.105 5.98814 -2.18406 0
M  V30 5966 C 557.792 5.92443 -1.49848 0
M  V30 5967 C 558.79 6.41887 -2.33389 0
M  V30 5968 O 558.478 7.32802 -3.3054 0
M  V30 5969 H 558.21 0.674086 0.0508296 0
M  V30 5970 H 560.764 1.99229 -0.49968 0
M  V30 5971 H 558.994 3.55529 1.52105 0
M  V30 5972 H 560.683 3.8652 1.23925 0
M  V30 5973 H 561.449 4.72586 -1.09028 0
M  V30 5974 H 557.328 4.60816 0.130274 0
M  V30 5975 H 560.872 6.3733 -2.83649 0
M  V30 5976 H 556.769 6.25155 -1.60786 0
M  V30 5977 H 557.537 7.50749 -3.26064 0
M  V30 5978 N 560.2 0.0768682 1.57412 0
M  V30 5979 C 561.446 -0.591961 1.93968 0
M  V30 5980 C 561.779 -1.68954 0.9575 0
M  V30 5981 O 561.054 -1.94496 -0.0124675 0
M  V30 5982 C 561.337 -1.16418 3.40762 0
M  V30 5983 C 561.19 -0.0728933 4.49741 0
M  V30 5984 C 562.509 -2.06814 3.88479 0
M  V30 5985 H 559.628 -0.213716 0.705333 0
M  V30 5986 H 562.27 0.14387 1.89455 0
M  V30 5987 H 560.42 -1.79128 3.4474 0
M  V30 5988 H 562.092 0.560446 4.57883 0
M  V30 5989 H 560.335 0.595859 4.29688 0
M  V30 5990 H 561.006 -0.513755 5.49604 0
M  V30 5991 H 563.482 -1.54033 3.8654 0
M  V30 5992 H 562.358 -2.43785 4.91793 0
M  V30 5993 H 562.619 -2.97844 3.26713 0
M  V30 5994 N 561.678 -1.56367 -0.196722 0
M  V30 5995 C 562.925 -1.80529 -0.917366 0
M  V30 5996 C 563.253 -0.649817 -1.83324 0
M  V30 5997 O 562.508 0.36451 -1.92275 0
M  V30 5998 C 562.807 -3.10663 -1.767 0
M  V30 5999 C 562.473 -4.3962 -1.00225 0
M  V30 6000 C 561.135 -4.74653 -0.791095 0
M  V30 6001 C 563.487 -5.1913 -0.464035 0
M  V30 6002 C 560.815 -5.86692 -0.0302155 0
M  V30 6003 C 563.167 -6.31964 0.283625 0
M  V30 6004 C 561.831 -6.65581 0.505813 0
M  V30 6005 H 561.101 -0.660602 -0.335688 0
M  V30 6006 H 563.748 -1.90615 -0.183844 0
M  V30 6007 H 562.053 -2.95807 -2.56915 0
M  V30 6008 H 563.75 -3.26563 -2.32718 0
M  V30 6009 H 560.34 -4.12127 -1.17684 0
M  V30 6010 H 564.524 -4.9248 -0.614575 0
M  V30 6011 H 559.78 -6.11211 0.151917 0
M  V30 6012 H 563.954 -6.92791 0.708057 0
M  V30 6013 H 561.581 -7.52239 1.0973 0
M  V30 6014 N 563.156 0.464375 -1.50603 0
M  V30 6015 C 564.384 1.23907 -1.65695 0
M  V30 6016 C 564.799 1.85658 -0.343027 0
M  V30 6017 O 564.156 1.69529 0.675739 0
M  V30 6018 C 564.207 2.3429 -2.75301 0
M  V30 6019 O 563.928 1.7507 -4.01599 0
M  V30 6020 C 565.429 3.25051 -3.01424 0
M  V30 6021 H 562.649 0.374485 -0.556778 0
M  V30 6022 H 565.193 0.55353 -1.96866 0
M  V30 6023 H 563.348 2.98607 -2.46804 0
M  V30 6024 H 563.762 2.47812 -4.62266 0
M  V30 6025 H 565.236 3.98699 -3.81763 0
M  V30 6026 H 565.713 3.84227 -2.12758 0
M  V30 6027 H 566.319 2.66463 -3.31477 0
M  V30 6028 N 564.634 1.40294 0.718013 0
M  V30 6029 C 565.859 1.41941 1.5122 0
M  V30 6030 C 566.284 0.0202371 1.88089 0
M  V30 6031 O 565.642 -0.971078 1.53101 0
M  V30 6032 C 565.69 2.3141 2.76554 0
M  V30 6033 O 564.794 1.75567 3.73162 0
M  V30 6034 H 564.135 0.482644 0.456016 0
M  V30 6035 H 566.665 1.84494 0.884478 0
M  V30 6036 H 566.675 2.46513 3.25108 0
M  V30 6037 H 565.35 3.33085 2.49053 0
M  V30 6038 H 563.927 1.69798 3.31999 0
M  V30 6039 N 566.112 -0.949982 1.2575 0
M  V30 6040 C 567.359 -1.69515 1.10774 0
M  V30 6041 C 567.687 -1.91316 -0.350479 0
M  V30 6042 O 566.942 -1.48515 -1.27443 0
M  V30 6043 C 567.241 -3.08039 1.81237 0
M  V30 6044 C 566.907 -3.06023 3.31151 0
M  V30 6045 C 565.569 -3.0518 3.72047 0
M  V30 6046 C 567.921 -2.98998 4.26907 0
M  V30 6047 C 565.249 -2.95067 5.07102 0
M  V30 6048 C 567.601 -2.90426 5.61992 0
M  V30 6049 C 566.265 -2.87922 6.0221 0
M  V30 6050 H 565.535 -0.6203 0.405351 0
M  V30 6051 H 568.182 -1.10953 1.56082 0
M  V30 6052 H 566.487 -3.70172 1.28373 0
M  V30 6053 H 568.184 -3.64526 1.67098 0
M  V30 6054 H 564.774 -3.07453 2.98614 0
M  V30 6055 H 568.958 -2.98764 3.963 0
M  V30 6056 H 564.214 -2.915 5.37436 0
M  V30 6057 H 568.388 -2.83952 6.35881 0
M  V30 6058 H 566.015 -2.79841 7.06819 0
M  V30 6059 N 567.59 -1.07411 -1.15328 0
M  V30 6060 C 568.818 -0.818782 -1.90009 0
M  V30 6061 C 569.233 0.628072 -1.78047 0
M  V30 6062 O 568.59 1.43085 -1.13282 0
M  V30 6063 C 568.641 -1.21874 -3.40337 0
M  V30 6064 O 568.362 -2.60883 -3.51954 0
M  V30 6065 C 569.863 -0.992796 -4.3204 0
M  V30 6066 H 567.083 -0.296007 -0.60218 0
M  V30 6067 H 569.627 -1.43073 -1.46117 0
M  V30 6068 H 567.782 -0.651103 -3.81889 0
M  V30 6069 H 568.196 -2.77216 -4.45255 0
M  V30 6070 H 569.67 -1.32215 -5.35932 0
M  V30 6071 H 570.147 0.0708331 -4.39143 0
M  V30 6072 H 570.753 -1.54537 -3.9623 0
M  V30 6073 N 569.068 1.32177 -0.85831 0
M  V30 6074 C 570.296 2.01313 -0.477582 0
M  V30 6075 C 570.711 1.6449 0.926736 0
M  V30 6076 O 570.068 0.868096 1.60531 0
M  V30 6077 C 570.119 3.56293 -0.611337 0
M  V30 6078 O 569.84 3.91794 -1.96034 0
M  V30 6079 C 571.341 4.42702 -0.230093 0
M  V30 6080 H 568.561 0.644323 -0.187322 0
M  V30 6081 H 571.105 1.68674 -1.15626 0
M  V30 6082 H 569.26 3.87395 0.0196494 0
M  V30 6083 H 569.674 4.86513 -1.95973 0
M  V30 6084 H 571.148 5.50727 -0.374674 0
M  V30 6085 H 571.625 4.3129 0.829779 0
M  V30 6086 H 572.231 4.16997 -0.836302 0
M  V30 6087 N 570.547 0.616602 1.45037 0
M  V30 6088 C 571.958 0.199359 1.85633 0
M  V30 6089 C 572.309 -1.24588 1.51566 0
M  V30 6090 O 571.434 -1.94594 0.94668 0
M  V30 6091 C 572.029 0.355033 3.36935 0
M  V30 6092 C 570.588 -0.00758748 3.76399 0
M  V30 6093 C 569.735 0.675256 2.68953 0
M  V30 6094 H 572.686 0.822708 1.3571 0
M  V30 6095 H 572.707 -0.410201 3.78282 0
M  V30 6096 H 572.219 1.40699 3.61698 0
M  V30 6097 H 570.32 -1.05837 3.57252 0
M  V30 6098 H 570.433 0.392346 4.77491 0
M  V30 6099 H 568.797 0.111992 2.54454 0
M  V30 6100 H 569.58 1.72952 2.96551 0
M  V30 6101 N 572.025 -1.5352 0.356285 0
M  V30 6102 C 573.441 -1.59599 0.00485267 0
M  V30 6103 C 573.641 -1.37179 -1.47595 0
M  V30 6104 O 572.697 -1.17234 -2.23635 0
M  V30 6105 C 574.01 -2.97277 0.452454 0
M  V30 6106 C 575.558 -3.10357 0.405881 0
M  V30 6107 C 576.033 -4.50432 0.829148 0
M  V30 6108 N 577.524 -4.5652 0.783838 0
M  V30 6109 C 578.259 -5.63077 1.08315 0
M  V30 6110 N 577.755 -6.77429 1.45126 0
M  V30 6111 N 579.548 -5.53014 1.00655 0
M  V30 6112 H 571.699 -1.66346 1.32071 0
M  V30 6113 H 573.962 -0.77971 0.539218 0
M  V30 6114 H 573.668 -3.18792 1.48542 0
M  V30 6115 H 573.542 -3.76836 -0.165762 0
M  V30 6116 H 575.929 -2.88558 -0.617934 0
M  V30 6117 H 576.01 -2.32828 1.05947 0
M  V30 6118 H 575.654 -4.72968 1.85103 0
M  V30 6119 H 575.584 -5.26378 0.152906 0
M  V30 6120 H 578.075 -3.74408 0.512513 0
M  V30 6121 H 578.388 -7.54669 1.66415 0
M  V30 6122 H 576.733 -6.78844 1.48983 0
M  V30 6123 H 579.924 -4.62557 0.718215 0
M  V30 6124 H 580.097 -6.35964 1.24315 0
M  V30 6125 N 573.503 -0.0852151 -1.57369 0
M  V30 6126 C 574.435 0.907099 -2.10486 0
M  V30 6127 C 575.448 1.25259 -1.03991 0
M  V30 6128 O 576.637 1.20743 -1.31467 0
M  V30 6129 C 573.737 2.21908 -2.56145 0
M  V30 6130 C 572.91 2.05042 -3.86363 0
M  V30 6131 C 571.969 3.19664 -4.17973 0
M  V30 6132 O 570.995 2.94062 -4.87356 0
M  V30 6133 N 572.197 4.45151 -3.72587 0
M  V30 6134 H 574.962 0.453505 -2.96249 0
M  V30 6135 H 572.523 0.100157 -1.6159 0
M  V30 6136 H 574.515 2.97519 -2.74343 0
M  V30 6137 H 573.085 2.58723 -1.75446 0
M  V30 6138 H 572.305 1.13819 -3.77411 0
M  V30 6139 H 573.593 1.91039 -4.71574 0
M  V30 6140 H 572.991 4.68834 -3.16561 0
M  V30 6141 H 571.548 5.17744 -3.9596 0
M  V30 6142 N 574.981 1.5647 0.188427 0
M  V30 6143 C 576.23 1.80207 0.905995 0
M  V30 6144 C 576.543 0.659579 1.84144 0
M  V30 6145 O 577.749 0.781431 2.60011 0
M  V30 6146 C 576.205 3.19255 1.66145 0
M  V30 6147 C 575.813 4.41324 0.770504 0
M  V30 6148 C 577.557 3.52298 2.36826 0
M  V30 6149 C 575.464 5.71394 1.52521 0
M  V30 6150 H 574.394 0.671953 0.342045 0
M  V30 6151 H 577.045 1.82808 0.159164 0
M  V30 6152 H 575.427 3.10922 2.45242 0
M  V30 6153 H 576.601 4.60797 0.0177261 0
M  V30 6154 H 574.916 4.16035 0.174199 0
M  V30 6155 H 577.513 4.46715 2.93854 0
M  V30 6156 H 577.856 2.76359 3.11338 0
M  V30 6157 H 578.389 3.62108 1.6469 0
M  V30 6158 H 575.128 6.50316 0.82275 0
M  V30 6159 H 574.648 5.55928 2.25175 0
M  V30 6160 H 576.327 6.12747 2.07725 0
M  V30 6161 N 576.459 -0.456382 1.50847 0
M  V30 6162 C 577.689 -1.22848 1.66108 0
M  V30 6163 C 578.097 -1.85936 0.349897 0
M  V30 6164 O 577.44 -1.70664 -0.679665 0
M  V30 6165 C 577.502 -2.36722 2.70561 0
M  V30 6166 C 577.166 -1.94154 4.13707 0
M  V30 6167 C 578.163 -1.4557 4.99105 0
M  V30 6168 C 575.848 -2.02426 4.59705 0
M  V30 6169 C 577.842 -1.0582 6.28555 0
M  V30 6170 C 575.529 -1.62287 5.89157 0
M  V30 6171 C 576.527 -1.14064 6.73408 0
M  V30 6172 O 576.215 -0.744873 8.00442 0
M  V30 6173 H 575.947 -0.377105 0.561042 0
M  V30 6174 H 578.501 -0.549431 1.97915 0
M  V30 6175 H 576.731 -3.07844 2.34027 0
M  V30 6176 H 578.42 -2.98646 2.74892 0
M  V30 6177 H 579.186 -1.38589 4.64777 0
M  V30 6178 H 575.065 -2.38908 3.94264 0
M  V30 6179 H 578.609 -0.6811 6.94267 0
M  V30 6180 H 574.506 -1.68932 6.23003 0
M  V30 6181 H 575.274 -0.87242 8.13837 0
M  V30 6182 N 577.937 -1.40673 -0.710563 0
M  V30 6183 C 578.884 -1.41336 -1.82463 0
M  V30 6184 C 579.854 -0.269648 -1.63897 0
M  V30 6185 O 581.039 -0.468463 -1.8496 0
M  V30 6186 C 578.179 -1.28665 -3.20218 0
M  V30 6187 C 577.292 -2.52784 -3.5032 0
M  V30 6188 C 576.427 -2.32517 -4.77608 0
M  V30 6189 C 575.466 -3.52187 -5.0063 0
M  V30 6190 N 574.603 -3.31084 -6.19135 0
M  V30 6191 H 579.443 -2.36558 -1.8123 0
M  V30 6192 H 576.98 -1.17483 -0.885226 0
M  V30 6193 H 578.938 -1.19324 -3.99772 0
M  V30 6194 H 577.568 -0.370602 -3.20666 0
M  V30 6195 H 576.62 -2.72634 -2.65283 0
M  V30 6196 H 577.932 -3.41845 -3.63241 0
M  V30 6197 H 577.086 -2.20558 -5.65189 0
M  V30 6198 H 575.825 -1.40889 -4.66906 0
M  V30 6199 H 574.83 -3.64617 -4.11502 0
M  V30 6200 H 576.055 -4.44749 -5.13201 0
M  V30 6201 H 574.001 -2.42143 -6.09674 0
M  V30 6202 H 573.918 -4.13713 -6.32754 0
M  V30 6203 H 575.186 -3.22868 -7.0949 0
M  V30 6204 N 579.415 0.9433 -1.26252 0
M  V30 6205 C 580.643 1.72367 -1.14443 0
M  V30 6206 C 581.058 1.86392 0.300572 0
M  V30 6207 O 580.415 1.36978 1.20596 0
M  V30 6208 C 580.466 3.13155 -1.806 0
M  V30 6209 O 580.187 2.99803 -3.19452 0
M  V30 6210 C 581.688 4.07417 -1.74717 0
M  V30 6211 H 578.908 0.539758 -0.398626 0
M  V30 6212 H 581.452 1.18268 -1.66832 0
M  V30 6213 H 579.607 3.64162 -1.32154 0
M  V30 6214 H 580.021 3.88697 -3.52158 0
M  V30 6215 H 581.495 5.03773 -2.25647 0
M  V30 6216 H 581.972 4.3337 -0.713244 0
M  V30 6217 H 582.578 3.6233 -2.22704 0
M  V30 6218 N 580.893 1.08022 1.14757 0
M  V30 6219 C 582.118 0.82895 1.90114 0
M  V30 6220 C 582.543 -0.612772 1.77839 0
M  V30 6221 O 581.901 -1.42895 1.11583 0
M  V30 6222 C 581.949 1.25062 3.38219 0
M  V30 6223 O 581.053 0.400119 4.10454 0
M  V30 6224 H 580.394 0.301412 0.591648 0
M  V30 6225 H 582.924 1.44062 1.45284 0
M  V30 6226 H 582.934 1.22977 3.89025 0
M  V30 6227 H 581.609 2.30067 3.46471 0
M  V30 6228 H 580.186 0.484052 3.69745 0
M  V30 6229 N 582.371 -1.3172 0.865308 0
M  V30 6230 C 583.617 -1.97168 0.474633 0
M  V30 6231 C 583.95 -1.68263 -0.969604 0
M  V30 6232 O 583.225 -0.976588 -1.68205 0
M  V30 6233 C 583.508 -3.52689 0.726808 0
M  V30 6234 C 583.361 -3.91185 2.22024 0
M  V30 6235 C 584.68 -4.39689 0.190201 0
M  V30 6236 H 581.799 -0.716185 0.17392 0
M  V30 6237 H 584.441 -1.55925 1.08569 0
M  V30 6238 H 582.591 -3.8795 0.206705 0
M  V30 6239 H 584.263 -3.66049 2.80724 0
M  V30 6240 H 582.506 -3.3996 2.69462 0
M  V30 6241 H 583.177 -4.99604 2.34735 0
M  V30 6242 H 585.653 -4.11225 0.635103 0
M  V30 6243 H 584.529 -5.47469 0.396132 0
M  V30 6244 H 584.79 -4.32683 -0.907625 0
M  V30 6245 N 583.85 -0.624285 -1.44708 0
M  V30 6246 C 585.075 -0.131171 -2.06985 0
M  V30 6247 C 585.5 1.18234 -1.46295 0
M  V30 6248 O 584.858 1.72375 -0.561842 0
M  V30 6249 C 584.906 -0.0226724 -3.60593 0
M  V30 6250 O 584.01 1.02314 -3.99507 0
M  V30 6251 H 583.351 -0.0816556 -0.65896 0
M  V30 6252 H 585.88 -0.859027 -1.85693 0
M  V30 6253 H 585.891 0.170138 -4.07645 0
M  V30 6254 H 584.566 -0.981685 -4.04148 0
M  V30 6255 H 583.143 0.805452 -3.64097 0
M  V30 6256 N 585.328 1.53329 -0.364422 0
M  V30 6257 C 586.556 2.05657 0.226424 0
M  V30 6258 C 586.971 1.23801 1.42544 0
M  V30 6259 O 586.328 0.27839 1.80364 0
M  V30 6260 C 586.379 3.56125 0.621056 0
M  V30 6261 O 586.1 4.34879 -0.530304 0
M  V30 6262 C 587.601 4.24706 1.27041 0
M  V30 6263 H 584.821 0.669806 0.0400056 0
M  V30 6264 H 587.365 1.97714 -0.522456 0
M  V30 6265 H 585.52 3.64223 1.31985 0
M  V30 6266 H 585.934 5.24073 -0.211546 0
M  V30 6267 H 587.408 5.3131 1.49711 0
M  V30 6268 H 587.885 3.78354 2.23036 0
M  V30 6269 H 588.491 4.20858 0.613079 0
M  V30 6270 N 586.806 0.0935595 1.57322 0
M  V30 6271 C 588.054 -0.569383 1.93913 0
M  V30 6272 C 588.375 -1.68817 0.976009 0
M  V30 6273 O 587.645 -1.9588 0.0278099 0
M  V30 6274 H 586.225 -0.21332 0.715894 0
M  V30 6275 H 588.887 0.156531 1.9427 0
M  V30 6276 H 587.983 -0.980577 2.96296 0
M  V30 6277 N 588.284 -1.56567 -0.180126 0
M  V30 6278 C 589.231 -1.95725 -1.22313 0
M  V30 6279 C 590.201 -0.819911 -1.44453 0
M  V30 6280 O 591.386 -1.07931 -1.57339 0
M  V30 6281 C 588.526 -2.31484 -2.55947 0
M  V30 6282 C 587.639 -3.58354 -2.4126 0
M  V30 6283 C 586.774 -3.83366 -3.67701 0
M  V30 6284 C 585.813 -5.03612 -3.47909 0
M  V30 6285 N 584.95 -5.24802 -4.66398 0
M  V30 6286 H 589.79 -2.84642 -0.882198 0
M  V30 6287 H 587.327 -1.4085 -0.42422 0
M  V30 6288 H 589.285 -2.50237 -3.33822 0
M  V30 6289 H 587.915 -1.45689 -2.88053 0
M  V30 6290 H 586.967 -3.47565 -1.54606 0
M  V30 6291 H 588.279 -4.46386 -2.22577 0
M  V30 6292 H 587.433 -4.02439 -4.54013 0
M  V30 6293 H 586.172 -2.93692 -3.89353 0
M  V30 6294 H 585.177 -4.84447 -2.59983 0
M  V30 6295 H 586.402 -5.94809 -3.27688 0
M  V30 6296 H 584.348 -4.38079 -4.88286 0
M  V30 6297 H 584.265 -6.07041 -4.50596 0
M  V30 6298 H 585.533 -5.48346 -5.54019 0
M  V30 6299 N 589.762 0.448376 -1.51087 0
M  V30 6300 C 590.987 1.22605 -1.6728 0
M  V30 6301 C 591.412 1.84524 -0.365045 0
M  V30 6302 O 590.77 1.6832 0.673642 0
M  V30 6303 C 590.818 2.29393 -2.78229 0
M  V30 6304 O 589.922 3.34608 -2.41063 0
M  V30 6305 H 589.263 0.359705 -0.558129 0
M  V30 6306 H 591.793 0.530903 -1.97592 0
M  V30 6307 H 591.803 2.74352 -3.01986 0
M  V30 6308 H 590.478 1.83701 -3.73131 0
M  V30 6309 H 589.055 2.95202 -2.27838 0
M  V30 6310 N 591.24 1.41047 0.703093 0
M  V30 6311 C 592.15 1.44645 1.84703 0
M  V30 6312 C 593.166 0.337778 1.7069 0
M  V30 6313 O 594.342 0.584327 1.92737 0
M  V30 6314 C 591.407 1.31928 3.20618 0
M  V30 6315 C 590.468 2.53047 3.46794 0
M  V30 6316 C 589.701 2.40927 4.76224 0
M  V30 6317 O 589.924 1.42978 5.5219 0
M  V30 6318 O 588.858 3.30543 5.03016 0
M  V30 6319 H 592.684 2.41139 1.84624 0
M  V30 6320 H 590.269 1.22504 0.855167 0
M  V30 6321 H 592.151 1.27092 4.01778 0
M  V30 6322 H 590.826 0.385469 3.21397 0
M  V30 6323 H 589.733 2.6346 2.65593 0
M  V30 6324 H 591.066 3.45231 3.50822 0
M  V30 6325 N 592.718 -0.936591 1.26751 0
M  V30 6326 C 593.648 -2.05315 1.11212 0
M  V30 6327 C 594.629 -1.70092 0.0160262 0
M  V30 6328 O 595.814 -1.93279 0.188894 0
M  V30 6329 C 592.944 -3.39123 0.749171 0
M  V30 6330 C 591.898 -3.88425 1.79751 0
M  V30 6331 C 591.224 -5.18936 1.28876 0
M  V30 6332 C 592.524 -4.12798 3.19992 0
M  V30 6333 H 594.218 -2.18573 2.04613 0
M  V30 6334 H 591.764 -1.05027 0.985159 0
M  V30 6335 H 593.717 -4.16704 0.627323 0
M  V30 6336 H 592.441 -3.25855 -0.220543 0
M  V30 6337 H 591.1 -3.13028 1.90811 0
M  V30 6338 H 590.748 -5.02051 0.308757 0
M  V30 6339 H 590.448 -5.52892 1.98958 0
M  V30 6340 H 591.972 -5.99096 1.17967 0
M  V30 6341 H 593.386 -4.80977 3.11983 0
M  V30 6342 H 591.783 -4.58044 3.87705 0
M  V30 6343 H 592.853 -3.18412 3.65707 0
M  V30 6344 N 594.196 -1.08629 -1.14182 0
M  V30 6345 C 595.442 -0.828415 -1.85766 0
M  V30 6346 C 595.797 0.638947 -1.81481 0
M  V30 6347 O 595.09 1.46386 -1.23619 0
M  V30 6348 C 595.284 -1.28734 -3.3341 0
M  V30 6349 C 595.113 -2.79778 -3.52071 0
M  V30 6350 C 593.883 -3.47554 -3.66789 0
M  V30 6351 C 596.081 -3.77945 -3.48801 0
M  V30 6352 N 594.063 -4.87107 -3.73631 0
M  V30 6353 C 595.434 -5.03406 -3.61914 0
M  V30 6354 C 597.489 -3.70917 -3.32152 0
M  V30 6355 C 596.192 -6.22673 -3.60098 0
M  V30 6356 C 598.218 -4.89662 -3.31641 0
M  V30 6357 C 597.58 -6.13962 -3.45296 0
M  V30 6358 H 593.679 -0.355884 -0.696327 0
M  V30 6359 H 596.263 -1.38508 -1.36834 0
M  V30 6360 H 594.434 -0.75822 -3.80927 0
M  V30 6361 H 596.166 -0.975649 -3.92764 0
M  V30 6362 H 592.921 -2.97972 -3.68116 0
M  V30 6363 H 593.345 -5.59775 -3.80763 0
M  V30 6364 H 597.987 -2.75749 -3.20504 0
M  V30 6365 H 595.705 -7.1815 -3.70522 0
M  V30 6366 H 599.291 -4.85914 -3.19968 0
M  V30 6367 H 598.171 -7.04307 -3.44851 0
M  V30 6368 N 595.674 1.31259 -0.872281 0
M  V30 6369 C 596.637 2.26744 -0.334656 0
M  V30 6370 C 597.637 1.52307 0.515681 0
M  V30 6371 O 598.827 1.71148 0.324656 0
M  V30 6372 C 595.959 3.36841 0.524482 0
M  V30 6373 H 597.152 2.75812 -1.17762 0
M  V30 6374 H 594.705 1.42232 -0.648064 0
M  V30 6375 H 595.44 2.93069 1.38855 0
M  V30 6376 H 595.225 3.92009 -0.0844299 0
M  V30 6377 H 596.715 4.07944 0.892838 0
M  V30 6378 N 597.152 0.631951 1.44375 0
M  V30 6379 C 598.099 -0.0724807 2.30686 0
M  V30 6380 C 599.069 -0.835975 1.43529 0
M  V30 6381 O 600.254 -0.816849 1.7243 0
M  V30 6382 C 597.394 -1.04753 3.28817 0
M  V30 6383 C 596.507 -0.282367 4.31076 0
M  V30 6384 C 595.642 -1.2493 5.163 0
M  V30 6385 C 594.681 -0.473349 6.10267 0
M  V30 6386 N 593.818 -1.39079 6.88187 0
M  V30 6387 H 598.658 0.669477 2.90383 0
M  V30 6388 H 596.195 0.341927 1.43071 0
M  V30 6389 H 598.153 -1.62623 3.842 0
M  V30 6390 H 596.783 -1.75661 2.70819 0
M  V30 6391 H 595.835 0.412268 3.78159 0
M  V30 6392 H 597.147 0.321955 4.9776 0
M  V30 6393 H 596.301 -1.89931 5.76204 0
M  V30 6394 H 595.04 -1.88755 4.49692 0
M  V30 6395 H 594.045 0.190142 5.49471 0
M  V30 6396 H 595.27 0.16019 6.78911 0
M  V30 6397 H 593.216 -2.01623 6.24247 0
M  V30 6398 H 593.133 -0.840513 7.51313 0
M  V30 6399 H 594.401 -2.02961 7.52613 0
M  V30 6400 N 598.631 -1.53133 0.372548 0
M  V30 6401 C 599.877 -2.01654 -0.215277 0
M  V30 6402 C 600.21 -1.25914 -1.47849 0
M  V30 6403 O 599.485 -0.3548 -1.91237 0
M  V30 6404 C 599.768 -3.56609 -0.500187 0
M  V30 6405 C 599.621 -4.43036 0.777145 0
M  V30 6406 C 600.94 -4.20528 -1.29786 0
M  V30 6407 H 598.059 -0.732991 -0.0767686 0
M  V30 6408 H 600.701 -1.83335 0.498814 0
M  V30 6409 H 598.851 -3.7235 -1.10852 0
M  V30 6410 H 600.523 -4.39079 1.41447 0
M  V30 6411 H 598.766 -4.10723 1.39604 0
M  V30 6412 H 599.437 -5.49424 0.532662 0
M  V30 6413 H 601.913 -4.08663 -0.783198 0
M  V30 6414 H 600.789 -5.28962 -1.46596 0
M  V30 6415 H 601.05 -3.77051 -2.30836 0
M  V30 6416 N 600.109 -0.101901 -1.5727 0
M  V30 6417 C 601.386 0.602832 -1.86079 0
M  V30 6418 C 601.766 1.85912 -1 0
M  V30 6419 O 601.114 2.28379 -0.0742488 0
M  V30 6420 C 601.324 0.911694 -3.36881 0
M  V30 6421 C 602.672 1.2722 -4.05093 0
M  V30 6422 O 603.696 1.0025 -3.41802 0
M  V30 6423 O 602.555 1.7776 -5.16782 0
M  V30 6424 H 599.649 0.302366 -0.769743 0
M  V30 6425 H 602.195 -0.135113 -1.69161 0
M  V30 6426 H 600.967 0.0207256 -3.91295 0
M  V30 6427 H 600.59 1.70538 -3.59169 0
M  V30 6428 N 601.587 1.56661 0.17182 0
M  V30 6429 C 602.833 1.82235 0.889845 0
M  V30 6430 C 603.166 0.679673 1.81918 0
M  V30 6431 O 602.441 -0.318404 1.91876 0
M  V30 6432 C 602.724 3.18195 1.68595 0
M  V30 6433 C 602.577 4.42989 0.779773 0
M  V30 6434 C 603.896 3.5109 2.65375 0
M  V30 6435 H 601.015 0.66291 0.322056 0
M  V30 6436 H 603.657 1.89358 0.15608 0
M  V30 6437 H 601.807 3.12253 2.3115 0
M  V30 6438 H 603.479 4.60997 0.16714 0
M  V30 6439 H 601.722 4.33711 0.0877964 0
M  V30 6440 H 602.393 5.3467 1.3723 0
M  V30 6441 H 604.869 3.57482 2.12946 0
M  V30 6442 H 603.745 4.47298 3.18144 0
M  V30 6443 H 604.006 2.75768 3.45549 0
M  V30 6444 N 603.065 -0.440357 1.51323 0
M  V30 6445 C 604.476 -1.02032 1.56353 0
M  V30 6446 C 604.827 -1.92382 0.385197 0
M  V30 6447 O 603.952 -2.10583 -0.498373 0
M  V30 6448 C 604.547 -1.85723 2.83359 0
M  V30 6449 C 603.106 -2.38774 2.90971 0
M  V30 6450 C 602.253 -1.17908 2.50984 0
M  V30 6451 H 605.204 -0.221744 1.57143 0
M  V30 6452 H 605.225 -2.71141 2.66951 0
M  V30 6453 H 604.737 -1.19939 3.69102 0
M  V30 6454 H 602.838 -3.08021 2.09651 0
M  V30 6455 H 602.951 -2.71778 3.94555 0
M  V30 6456 H 601.315 -1.52347 2.04114 0
M  V30 6457 H 602.098 -0.537393 3.39068 0
M  V30 6458 N 604.543 -1.41418 -0.695603 0
M  V30 6459 C 605.476 -1.3768 -1.81988 0
M  V30 6460 C 606.454 -0.244061 -1.60758 0
M  V30 6461 O 607.638 -0.430965 -1.83507 0
M  V30 6462 C 604.765 -1.1476 -3.18666 0
M  V30 6463 C 603.811 -2.30752 -3.58686 0
M  V30 6464 S 604.644 -3.9323 -3.63498 0
M  V30 6465 C 605.8 -3.72613 -5.02902 0
M  V30 6466 H 606.033 -2.32822 -1.84882 0
M  V30 6467 H 603.566 -1.27942 -0.86431 0
M  V30 6468 H 605.524 -1.02223 -3.97569 0
M  V30 6469 H 604.185 -0.212385 -3.13381 0
M  V30 6470 H 603.378 -2.10409 -4.57978 0
M  V30 6471 H 602.98 -2.39696 -2.87092 0
M  V30 6472 H 605.272 -3.32317 -5.904 0
M  V30 6473 H 606.215 -4.71507 -5.28286 0
M  V30 6474 H 606.623 -3.0589 -4.74438 0
M  V30 6475 N 606.021 0.929856 -1.27246 0
M  V30 6476 C 606.969 2.05151 -1.09616 0
M  V30 6477 C 607.963 1.69388 -0.0198617 0
M  V30 6478 O 609.169 1.79124 -0.177417 0
M  V30 6479 H 605.544 0.671909 -0.337701 0
M  V30 6480 H 607.515 2.17168 -2.04648 0
M  V30 6481 C 606.264 3.3934 -0.757851 0
M  V30 6482 H 605.587 3.67343 -1.57795 0
M  V30 6483 H 607.027 4.18603 -0.674358 0
M  V30 6484 C 605.486 3.32582 0.537658 0
M  V30 6485 O 606.016 3.69633 1.57271 0
M  V30 6486 N 604.222 2.8568 0.532478 0
M  V30 6487 H 603.769 2.55725 -0.310233 0
M  V30 6488 H 603.727 2.81541 1.39936 0
M  V30 6489 N 607.499 1.09233 1.13605 0
M  V30 6490 C 608.91 0.846839 1.6639 0
M  V30 6491 C 609.261 -0.625031 1.85978 0
M  V30 6492 O 608.386 -1.48173 1.57714 0
M  V30 6493 C 608.981 1.5307 3.0225 0
M  V30 6494 C 607.54 1.33223 3.52035 0
M  V30 6495 C 606.687 1.58806 2.27323 0
M  V30 6496 H 609.638 1.25175 0.975541 0
M  V30 6497 H 609.659 0.96267 3.68121 0
M  V30 6498 H 609.171 2.60192 2.87961 0
M  V30 6499 H 607.272 0.282091 3.71531 0
M  V30 6500 H 607.385 2.0657 4.32279 0
M  V30 6501 H 605.749 1.01007 2.33815 0
M  V30 6502 H 606.532 2.67153 2.15602 0
M  V30 6503 N 608.977 -1.30795 0.87923 0
M  V30 6504 C 609.887 -2.32041 0.345565 0
M  V30 6505 C 610.903 -1.65103 -0.549265 0
M  V30 6506 O 612.079 -1.9645 -0.443763 0
M  V30 6507 C 609.144 -3.43944 -0.436245 0
M  V30 6508 C 608.205 -4.26521 0.48765 0
M  V30 6509 C 607.438 -5.33081 -0.256943 0
M  V30 6510 O 607.661 -5.50762 -1.48381 0
M  V30 6511 O 606.595 -6.00635 0.389985 0
M  V30 6512 H 610.421 -2.79627 1.18501 0
M  V30 6513 H 608.006 -1.3486 0.642885 0
M  V30 6514 H 609.888 -4.12128 -0.879119 0
M  V30 6515 H 608.563 -2.98504 -1.25208 0
M  V30 6516 H 607.47 -3.61057 0.979216 0
M  V30 6517 H 608.803 -4.75551 1.26933 0
M  V30 6518 N 610.455 -0.639598 -1.44038 0
M  V30 6519 C 611.387 0.0987684 -2.28987 0
M  V30 6520 C 612.4 0.80058 -1.41755 0
M  V30 6521 O 613.589 0.660611 -1.65826 0
M  V30 6522 C 610.689 1.16242 -3.18341 0
M  V30 6523 C 609.862 0.541447 -4.34036 0
M  V30 6524 C 608.921 1.50017 -5.04362 0
M  V30 6525 O 607.947 1.01403 -5.60095 0
M  V30 6526 N 609.149 2.83441 -5.06598 0
M  V30 6527 H 611.914 -0.630305 -2.92997 0
M  V30 6528 H 609.475 -0.481376 -1.54578 0
M  V30 6529 H 611.467 1.80429 -3.62253 0
M  V30 6530 H 610.037 1.79362 -2.56024 0
M  V30 6531 H 609.257 -0.27923 -3.9321 0
M  V30 6532 H 610.545 0.107379 -5.08687 0
M  V30 6533 H 609.943 3.2551 -4.62666 0
M  V30 6534 H 608.5 3.42966 -5.54272 0
M  V30 6535 N 611.933 1.52934 -0.380664 0
M  V30 6536 C 613.163 2.05587 0.204302 0
M  V30 6537 C 613.571 1.25288 1.41773 0
M  V30 6538 O 612.914 0.290394 1.8139 0
M  V30 6539 C 612.976 3.53624 0.647324 0
M  V30 6540 C 612.64 4.54765 -0.451465 0
M  V30 6541 C 613.637 5.03226 -1.30614 0
M  V30 6542 C 611.322 4.98508 -0.616025 0
M  V30 6543 C 613.316 5.94046 -2.31058 0
M  V30 6544 C 611.003 5.89131 -1.62381 0
M  V30 6545 C 612.001 6.36792 -2.46952 0
M  V30 6546 O 611.689 7.25626 -3.46009 0
M  V30 6547 H 611.421 0.675013 0.0365198 0
M  V30 6548 H 613.975 1.98125 -0.541827 0
M  V30 6549 H 612.205 3.58676 1.44529 0
M  V30 6550 H 613.894 3.89061 1.15698 0
M  V30 6551 H 614.66 4.70167 -1.19027 0
M  V30 6552 H 610.539 4.60989 0.0324987 0
M  V30 6553 H 614.083 6.3117 -2.97104 0
M  V30 6554 H 609.98 6.21603 -1.7401 0
M  V30 6555 H 610.748 7.43664 -3.41916 0
M  V30 6556 N 613.412 0.11024 1.57214 0
M  V30 6557 C 614.344 -0.873497 2.11902 0
M  V30 6558 C 615.357 -1.23588 1.05971 0
M  V30 6559 O 616.546 -1.18636 1.33371 0
M  V30 6560 C 613.646 -2.17805 2.59643 0
M  V30 6561 C 612.819 -1.98869 3.89576 0
M  V30 6562 C 611.878 -3.12974 4.23006 0
M  V30 6563 O 610.904 -2.86272 4.91973 0
M  V30 6564 N 612.106 -4.39167 3.79622 0
M  V30 6565 H 614.871 -0.406317 2.96933 0
M  V30 6566 H 612.432 -0.074437 1.61729 0
M  V30 6567 H 614.424 -2.93117 2.79042 0
M  V30 6568 H 612.994 -2.55899 1.7954 0
M  V30 6569 H 612.214 -1.078 3.79174 0
M  V30 6570 H 613.502 -1.83512 4.74553 0
M  V30 6571 H 612.9 -4.63739 3.2398 0
M  V30 6572 H 611.457 -5.11379 4.04147 0
M  V30 6573 N 614.89 -1.56749 -0.16351 0
M  V30 6574 C 616.136 -1.82704 -0.880168 0
M  V30 6575 C 616.469 -0.689311 -1.81555 0
M  V30 6576 O 615.744 0.308224 -1.92042 0
M  V30 6577 C 616.027 -3.19084 -1.66905 0
M  V30 6578 C 615.88 -4.43397 -0.756269 0
M  V30 6579 C 617.199 -3.52493 -2.63509 0
M  V30 6580 H 614.318 -0.664608 -0.318535 0
M  V30 6581 H 616.96 -1.89438 -0.146036 0
M  V30 6582 H 615.11 -3.13475 -2.2949 0
M  V30 6583 H 616.782 -4.61079 -0.14269 0
M  V30 6584 H 615.025 -4.33752 -0.0647944 0
M  V30 6585 H 615.696 -5.3539 -1.34393 0
M  V30 6586 H 618.172 -3.58606 -2.11047 0
M  V30 6587 H 617.048 -4.48979 -3.15767 0
M  V30 6588 H 617.309 -2.77597 -3.44082 0
M  V30 6589 N 616.368 0.432326 -1.51554 0
M  V30 6590 C 617.278 1.55023 -1.76082 0
M  V30 6591 C 618.294 1.61593 -0.645265 0
M  V30 6592 O 619.47 1.78742 -0.928086 0
M  V30 6593 C 616.535 2.90964 -1.88523 0
M  V30 6594 C 615.596 2.9447 -3.12388 0
M  V30 6595 C 614.829 4.23926 -3.24225 0
M  V30 6596 O 615.052 5.16576 -2.4188 0
M  V30 6597 O 613.986 4.33818 -4.17235 0
M  V30 6598 H 617.812 1.37238 -2.70923 0
M  V30 6599 H 615.397 0.615845 -1.36117 0
M  V30 6600 H 617.279 3.71633 -1.98662 0
M  V30 6601 H 615.954 3.08865 -0.9687 0
M  V30 6602 H 614.861 2.12737 -3.07723 0
M  V30 6603 H 616.194 2.81514 -4.03746 0
M  V30 6604 N 617.846 1.41785 0.688094 0
M  V30 6605 C 618.778 1.40159 1.81351 0
M  V30 6606 C 619.791 0.30262 1.59963 0
M  V30 6607 O 620.98 0.564841 1.69327 0
M  V30 6608 C 618.08 1.16517 3.1824 0
M  V30 6609 C 617.253 2.38597 3.66593 0
M  V30 6610 C 616.312 2.10699 4.82174 0
M  V30 6611 O 615.338 2.83798 4.93404 0
M  V30 6612 N 616.54 1.10187 5.69947 0
M  V30 6613 H 619.305 2.3716 1.83236 0
M  V30 6614 H 616.866 1.36494 0.870697 0
M  V30 6615 H 618.858 0.957941 3.93199 0
M  V30 6616 H 617.428 0.280873 3.11336 0
M  V30 6617 H 616.648 2.74974 2.82459 0
M  V30 6618 H 617.936 3.19919 3.95638 0
M  V30 6619 H 617.334 0.497016 5.63512 0
M  V30 6620 H 615.891 0.954518 6.44773 0
M  V30 6621 N 619.324 -0.923095 1.27737 0
M  V30 6622 C 620.57 -1.67375 1.14514 0
M  V30 6623 C 620.903 -1.91751 -0.307424 0
M  V30 6624 O 620.178 -1.51119 -1.22447 0
M  V30 6625 C 620.461 -3.03745 1.9342 0
M  V30 6626 C 620.314 -2.86581 3.46686 0
M  V30 6627 C 621.633 -4.04144 1.74228 0
M  V30 6628 H 618.752 -0.607427 0.417374 0
M  V30 6629 H 621.394 -1.07089 1.56946 0
M  V30 6630 H 619.544 -3.55204 1.5736 0
M  V30 6631 H 621.216 -2.42203 3.92601 0
M  V30 6632 H 619.459 -2.21829 3.72793 0
M  V30 6633 H 620.13 -3.83381 3.97143 0
M  V30 6634 H 622.606 -3.61712 2.05678 0
M  V30 6635 H 621.482 -4.97543 2.31824 0
M  V30 6636 H 621.743 -4.36661 0.691373 0
M  V30 6637 N 620.802 -1.09834 -1.13024 0
M  V30 6638 C 622.049 -0.83695 -1.84395 0
M  V30 6639 C 622.377 0.637463 -1.83757 0
M  V30 6640 O 621.632 1.48554 -1.27398 0
M  V30 6641 C 621.931 -1.32263 -3.32026 0
M  V30 6642 C 621.597 -2.80739 -3.52841 0
M  V30 6643 C 620.259 -3.21286 -3.5823 0
M  V30 6644 C 622.611 -3.76449 -3.60466 0
M  V30 6645 C 619.939 -4.56308 -3.68781 0
M  V30 6646 C 622.291 -5.11266 -3.72546 0
M  V30 6647 C 620.955 -5.51397 -3.76189 0
M  V30 6648 H 620.225 -0.306262 -0.674748 0
M  V30 6649 H 622.872 -1.37385 -1.33408 0
M  V30 6650 H 621.177 -0.705618 -3.85394 0
M  V30 6651 H 622.874 -1.09695 -3.85705 0
M  V30 6652 H 619.464 -2.48363 -3.49305 0
M  V30 6653 H 623.648 -3.46234 -3.55578 0
M  V30 6654 H 618.904 -4.86832 -3.69871 0
M  V30 6655 H 623.078 -5.85279 -3.77388 0
M  V30 6656 H 620.705 -6.56017 -3.84117 0
M  V30 6657 N 622.28 1.30327 -0.886154 0
M  V30 6658 C 623.51 1.99964 -0.519421 0
M  V30 6659 C 623.918 1.66593 0.89686 0
M  V30 6660 O 623.261 0.899886 1.60149 0
M  V30 6661 C 623.323 3.54187 -0.615795 0
M  V30 6662 C 622.987 4.11078 -1.9966 0
M  V30 6663 C 623.984 4.26985 -2.96614 0
M  V30 6664 C 621.669 4.46429 -2.30231 0
M  V30 6665 C 623.663 4.77456 -4.22273 0
M  V30 6666 C 621.35 4.966 -3.56135 0
M  V30 6667 C 622.348 5.12066 -4.5197 0
M  V30 6668 O 622.036 5.61154 -5.7564 0
M  V30 6669 H 621.768 0.645979 -0.199217 0
M  V30 6670 H 624.322 1.67154 -1.19368 0
M  V30 6671 H 622.552 3.86528 0.115448 0
M  V30 6672 H 624.241 4.05065 -0.26017 0
M  V30 6673 H 625.007 3.99975 -2.74308 0
M  V30 6674 H 620.886 4.33658 -1.56404 0
M  V30 6675 H 624.43 4.89444 -4.97082 0
M  V30 6676 H 620.327 5.23045 -3.78277 0
M  V30 6677 H 621.095 5.79494 -5.78039 0
M  V30 6678 N 623.758 0.647228 1.43697 0
M  V30 6679 C 624.721 -0.0385101 2.29168 0
M  V30 6680 C 625.721 -0.756487 1.41894 0
M  V30 6681 O 626.911 -0.598641 1.63591 0
M  V30 6682 C 624.043 -1.06524 3.23829 0
M  V30 6683 H 625.236 0.713445 2.9129 0
M  V30 6684 H 622.789 0.408153 1.50877 0
M  V30 6685 H 623.524 -1.84664 2.66589 0
M  V30 6686 H 623.309 -0.554147 3.88164 0
M  V30 6687 H 624.799 -1.54432 3.87996 0
M  V30 6688 N 625.236 -1.5273 0.388769 0
M  V30 6689 C 626.461 -2.0647 -0.19621 0
M  V30 6690 C 626.886 -1.25865 -1.39784 0
M  V30 6691 O 626.244 -0.283562 -1.79069 0
M  V30 6692 C 626.292 -3.56456 -0.5451 0
M  V30 6693 O 625.396 -3.78426 -1.63912 0
M  V30 6694 H 624.737 -0.663599 -0.023067 0
M  V30 6695 H 627.267 -1.96898 0.556084 0
M  V30 6696 H 627.277 -3.99888 -0.809557 0
M  V30 6697 H 625.952 -4.14561 0.333417 0
M  V30 6698 H 624.529 -3.46884 -1.36842 0
M  V30 6699 N 626.714 -0.118576 -1.57153 0
M  V30 6700 C 627.661 0.831789 -2.1529 0
M  V30 6701 C 628.631 1.26385 -1.07778 0
M  V30 6702 O 629.816 1.34144 -1.35684 0
M  V30 6703 C 626.956 2.07664 -2.75626 0
M  V30 6704 C 626.069 1.69298 -3.97444 0
M  V30 6705 C 625.204 2.88747 -4.45868 0
M  V30 6706 C 624.243 2.46619 -5.60219 0
M  V30 6707 N 623.38 3.5898 -6.03389 0
M  V30 6708 H 628.22 0.329183 -2.96176 0
M  V30 6709 H 625.757 0.150792 -1.46325 0
M  V30 6710 H 627.715 2.80601 -3.08738 0
M  V30 6711 H 626.345 2.55384 -1.97431 0
M  V30 6712 H 625.397 0.862374 -3.70496 0
M  V30 6713 H 626.709 1.34338 -4.80369 0
M  V30 6714 H 625.863 3.69909 -4.80887 0
M  V30 6715 H 624.602 3.26933 -3.61892 0
M  V30 6716 H 623.607 1.63889 -5.24805 0
M  V30 6717 H 624.832 2.0955 -6.45961 0
M  V30 6718 H 622.778 3.9684 -5.22354 0
M  V30 6719 H 622.695 3.27942 -6.81168 0
M  V30 6720 H 623.963 4.40583 -6.43045 0
M  V30 6721 N 628.193 1.56834 0.155195 0
M  V30 6722 C 629.47 1.73799 0.897395 0
M  V30 6723 C 629.85 0.684379 1.99698 0
M  V30 6724 O 629.198 -0.298111 2.26547 0
M  V30 6725 C 629.408 3.17572 1.44737 0
M  V30 6726 C 630.756 3.79014 1.91399 0
M  V30 6727 O 631.78 3.20951 1.54496 0
M  V30 6728 O 630.639 4.80998 2.59429 0
M  V30 6729 H 627.733 0.710329 0.423511 0
M  V30 6730 H 630.279 1.69107 0.141761 0
M  V30 6731 H 629.051 3.85749 0.656741 0
M  V30 6732 H 628.674 3.26657 2.26674 0
M  V30 6733 N 629.671 -0.424282 1.51781 0
M  V30 6734 C 630.919 -1.17028 1.64769 0
M  V30 6735 C 631.24 -1.91409 0.372523 0
M  V30 6736 O 630.51 -1.86091 -0.612108 0
M  V30 6737 H 629.09 -0.434992 0.607282 0
M  V30 6738 H 631.752 -0.485169 1.88765 0
M  V30 6739 H 630.848 -1.8927 2.4816 0
M  V30 6740 N 631.149 -1.42148 -0.680565 0
M  V30 6741 C 632.377 -1.45696 -1.46902 0
M  V30 6742 C 632.792 -0.0665858 -1.88683 0
M  V30 6743 O 632.149 0.917436 -1.57764 0
M  V30 6744 C 632.2 -2.37898 -2.72188 0
M  V30 6745 O 631.921 -3.71526 -2.32163 0
M  V30 6746 C 633.422 -2.50407 -3.65802 0
M  V30 6747 H 630.642 -0.495729 -0.45221 0
M  V30 6748 H 633.186 -1.866 -0.836709 0
M  V30 6749 H 631.341 -2.00263 -3.31622 0
M  V30 6750 H 631.755 -4.20849 -3.13027 0
M  V30 6751 H 633.229 -3.19056 -4.50452 0
M  V30 6752 H 633.706 -1.5401 -4.11312 0
M  V30 6753 H 634.312 -2.8874 -3.12265 0
M  V30 6754 N 632.627 0.916307 -1.28225 0
M  V30 6755 C 633.574 2.01841 -1.11932 0
M  V30 6756 C 634.544 1.66091 -0.0171604 0
M  V30 6757 O 635.729 1.89934 -0.181617 0
M  V30 6758 C 632.869 3.36065 -0.784504 0
M  V30 6759 C 631.982 3.847 -1.96544 0
M  V30 6760 C 631.117 5.07423 -1.57149 0
M  V30 6761 C 630.156 5.48384 -2.71922 0
M  V30 6762 N 629.293 6.62298 -2.33037 0
M  V30 6763 H 634.133 2.1511 -2.06232 0
M  V30 6764 H 631.67 1.05366 -1.02647 0
M  V30 6765 H 633.628 4.13272 -0.571148 0
M  V30 6766 H 632.258 3.22571 0.121565 0
M  V30 6767 H 631.31 3.03673 -2.291 0
M  V30 6768 H 632.622 4.1102 -2.82603 0
M  V30 6769 H 631.776 5.92165 -1.32004 0
M  V30 6770 H 630.515 4.82906 -0.682153 0
M  V30 6771 H 629.52 4.62184 -2.97768 0
M  V30 6772 H 630.745 5.7489 -3.61494 0
M  V30 6773 H 628.691 6.39416 -1.4657 0
M  V30 6774 H 628.608 6.8833 -3.12631 0
M  V30 6775 H 629.876 7.50352 -2.11169 0
M  V30 6776 N 634.105 1.10431 1.1244 0
M  V30 6777 C 635.351 0.847972 1.84221 0
M  V30 6778 C 635.684 -0.624903 1.83871 0
M  V30 6779 O 634.959 -1.46074 1.28423 0
M  V30 6780 C 635.242 1.39695 3.319 0
M  V30 6781 C 635.095 2.93668 3.40704 0
M  V30 6782 C 636.414 1.03924 4.27654 0
M  V30 6783 H 633.533 0.309502 0.668863 0
M  V30 6784 H 636.175 1.36745 1.31912 0
M  V30 6785 H 634.325 0.955095 3.76577 0
M  V30 6786 H 635.997 3.46379 3.04662 0
M  V30 6787 H 634.24 3.30272 2.81252 0
M  V30 6788 H 634.911 3.27162 4.446 0
M  V30 6789 H 637.387 1.42049 3.91102 0
M  V30 6790 H 636.263 1.45027 5.29394 0
M  V30 6791 H 636.524 -0.051336 4.4207 0
M  V30 6792 N 635.583 -1.29855 0.893053 0
M  V30 6793 C 636.994 -1.77946 0.564998 0
M  V30 6794 C 637.345 -1.73339 -0.919134 0
M  V30 6795 O 636.47 -1.3152 -1.71847 0
M  V30 6796 C 637.065 -3.23118 1.01883 0
M  V30 6797 C 635.624 -3.69013 0.742051 0
M  V30 6798 C 634.771 -2.50121 1.19727 0
M  V30 6799 H 637.722 -1.16611 1.07646 0
M  V30 6800 H 637.743 -3.78875 0.351249 0
M  V30 6801 H 637.255 -3.26439 2.09903 0
M  V30 6802 H 635.356 -3.71173 -0.325816 0
M  V30 6803 H 635.469 -4.60117 1.33527 0
M  V30 6804 H 633.833 -2.47128 0.616418 0
M  V30 6805 H 634.616 -2.56174 2.28538 0
M  V30 6806 N 637.061 -0.65484 -1.43351 0
M  V30 6807 C 637.994 0.0855537 -2.2804 0
M  V30 6808 C 638.972 0.828301 -1.39921 0
M  V30 6809 O 640.156 0.827539 -1.69364 0
M  V30 6810 C 637.283 1.12792 -3.19368 0
M  V30 6811 C 636.329 0.483037 -4.23756 0
M  V30 6812 S 637.162 -0.744605 -5.30298 0
M  V30 6813 C 638.318 0.297187 -6.25194 0
M  V30 6814 H 638.551 -0.632831 -2.90487 0
M  V30 6815 H 636.084 -0.44373 -1.47886 0
M  V30 6816 H 638.042 1.7243 -3.72529 0
M  V30 6817 H 636.703 1.81863 -2.56095 0
M  V30 6818 H 635.896 1.26888 -4.87766 0
M  V30 6819 H 635.498 -0.0392713 -3.73979 0
M  V30 6820 H 637.79 1.1629 -6.67445 0
M  V30 6821 H 638.733 -0.30793 -7.0743 0
M  V30 6822 H 639.141 0.633721 -5.60932 0
M  V30 6823 N 638.539 1.52521 -0.396863 0
M  V30 6824 C 639.786 2.01672 0.182898 0
M  V30 6825 C 640.114 1.28302 1.46181 0
M  V30 6826 O 639.369 0.374118 1.92091 0
M  V30 6827 C 639.668 3.5403 0.489677 0
M  V30 6828 C 639.334 4.45456 -0.698581 0
M  V30 6829 C 637.996 4.70166 -1.02454 0
M  V30 6830 C 640.348 4.99354 -1.49316 0
M  V30 6831 C 637.676 5.46024 -2.1465 0
M  V30 6832 C 640.028 5.76439 -2.60579 0
M  V30 6833 C 638.692 5.99426 -2.93675 0
M  V30 6834 H 637.962 0.737971 0.066927 0
M  V30 6835 H 640.609 1.83853 -0.535764 0
M  V30 6836 H 638.914 3.69963 1.28976 0
M  V30 6837 H 640.611 3.8956 0.951018 0
M  V30 6838 H 637.201 4.26392 -0.434525 0
M  V30 6839 H 641.385 4.80182 -1.25457 0
M  V30 6840 H 636.641 5.62046 -2.40654 0
M  V30 6841 H 640.815 6.17202 -3.22544 0
M  V30 6842 H 638.442 6.57988 -3.80731 0
M  V30 6843 N 640.017 0.126909 1.57088 0
M  V30 6844 C 641.263 -0.529952 1.95753 0
M  V30 6845 C 641.596 -1.65823 1.01077 0
M  V30 6846 O 640.871 -1.94437 0.0494162 0
M  V30 6847 C 641.154 -1.05517 3.44294 0
M  V30 6848 C 641.007 0.0702253 4.49745 0
M  V30 6849 C 642.326 -1.9435 3.94862 0
M  V30 6850 H 639.445 -0.191168 0.711775 0
M  V30 6851 H 642.087 0.204071 1.88901 0
M  V30 6852 H 640.237 -1.68069 3.50264 0
M  V30 6853 H 641.909 0.705834 4.55868 0
M  V30 6854 H 640.152 0.732259 4.27575 0
M  V30 6855 H 640.823 -0.338642 5.5096 0
M  V30 6856 H 643.299 -1.41658 3.91244 0
M  V30 6857 H 642.175 -2.28015 4.993 0
M  V30 6858 H 642.436 -2.87299 3.36024 0
M  V30 6859 N 641.495 -1.56914 -0.146875 0
M  V30 6860 C 642.741 -1.83628 -0.860741 0
M  V30 6861 C 643.074 -0.708528 -1.80813 0
M  V30 6862 O 642.349 0.287838 -1.92358 0
M  V30 6863 C 642.632 -3.20836 -1.63511 0
M  V30 6864 C 642.485 -4.44174 -0.709199 0
M  V30 6865 C 643.804 -3.55268 -2.59756 0
M  V30 6866 H 640.923 -0.667949 -0.311468 0
M  V30 6867 H 643.565 -1.89582 -0.125936 0
M  V30 6868 H 641.715 -3.15891 -2.26153 0
M  V30 6869 H 643.387 -4.61205 -0.0937781 0
M  V30 6870 H 641.63 -4.33796 -0.0187856 0
M  V30 6871 H 642.301 -5.36785 -1.28707 0
M  V30 6872 H 644.777 -3.60824 -2.07232 0
M  V30 6873 H 643.653 -4.52303 -3.10987 0
M  V30 6874 H 643.914 -2.81231 -3.41118 0
M  V30 6875 N 642.974 0.416227 -1.52004 0
M  V30 6876 C 643.924 1.50558 -1.7122 0
M  V30 6877 C 644.908 1.50613 -0.56609 0
M  V30 6878 O 646.1 1.56709 -0.822874 0
M  V30 6879 C 643.229 2.88556 -1.85984 0
M  V30 6880 C 642.315 2.93177 -3.06445 0
M  V30 6881 N 642.706 2.67505 -4.29272 0
M  V30 6882 C 641.004 3.24343 -3.06133 0
M  V30 6883 C 641.705 2.78511 -5.10692 0
M  V30 6884 N 640.681 3.11087 -4.45787 0
M  V30 6885 H 644.483 1.29494 -2.63834 0
M  V30 6886 H 641.997 0.62384 -1.4994 0
M  V30 6887 H 643.994 3.66954 -1.97865 0
M  V30 6888 H 642.654 3.10624 -0.945654 0
M  V30 6889 H 643.665 2.42033 -4.57865 0
M  V30 6890 H 640.342 3.52051 -2.24425 0
M  V30 6891 H 641.732 2.62438 -6.18527 0
M  V30 6892 N 644.452 1.42507 0.673017 0
M  V30 6893 C 645.868 1.25472 0.986355 0
M  V30 6894 C 646.068 0.160181 2.00862 0
M  V30 6895 O 645.124 -0.467993 2.48125 0
M  V30 6896 C 646.437 2.61219 1.48947 0
M  V30 6897 C 647.985 2.68589 1.60715 0
M  V30 6898 C 648.46 4.04707 2.14422 0
M  V30 6899 N 649.951 4.0667 2.21752 0
M  V30 6900 C 650.686 5.0881 2.64386 0
M  V30 6901 N 650.182 6.21332 3.0646 0
M  V30 6902 N 651.975 4.96166 2.64151 0
M  V30 6903 H 644.126 2.124 -0.00378532 0
M  V30 6904 H 646.389 0.946046 0.0608367 0
M  V30 6905 H 646.095 3.42179 0.812812 0
M  V30 6906 H 645.969 2.85261 2.46791 0
M  V30 6907 H 648.356 1.87974 2.27486 0
M  V30 6908 H 648.437 2.48333 0.613552 0
M  V30 6909 H 648.081 4.8578 1.48258 0
M  V30 6910 H 648.011 4.22315 3.14575 0
M  V30 6911 H 650.502 3.25438 1.92089 0
M  V30 6912 H 650.815 6.95118 3.37684 0
M  V30 6913 H 649.16 6.24835 3.04313 0
M  V30 6914 H 652.351 4.07334 2.30644 0
M  V30 6915 H 652.524 5.759 2.97057 0
M  V30 6916 N 645.93 -0.909495 1.28709 0
M  V30 6917 C 646.877 -2.01245 1.13 0
M  V30 6918 C 647.847 -1.6608 0.0259684 0
M  V30 6919 O 649.032 -1.89835 0.191687 0
M  V30 6920 C 646.172 -3.35644 0.802315 0
M  V30 6921 C 645.285 -3.83653 1.98582 0
M  V30 6922 C 644.42 -5.06582 1.59837 0
M  V30 6923 C 643.459 -5.46934 2.74827 0
M  V30 6924 N 642.596 -6.61053 2.36546 0
M  V30 6925 H 647.436 -2.14013 2.0737 0
M  V30 6926 H 644.973 -1.0482 1.03205 0
M  V30 6927 H 646.931 -4.12963 0.593057 0
M  V30 6928 H 645.561 -3.22631 -0.104457 0
M  V30 6929 H 644.613 -3.02454 2.30708 0
M  V30 6930 H 645.925 -4.09515 2.84779 0
M  V30 6931 H 645.079 -5.91457 1.35143 0
M  V30 6932 H 643.818 -4.82537 0.707753 0
M  V30 6933 H 642.823 -4.60599 3.00215 0
M  V30 6934 H 644.048 -5.72965 3.64538 0
M  V30 6935 H 641.994 -6.3863 1.49959 0
M  V30 6936 H 641.911 -6.86662 3.16277 0
M  V30 6937 H 643.179 -7.49221 2.15146 0
M  V30 6938 N 647.408 -1.11026 -1.11852 0
M  V30 6939 C 648.685 -0.768347 -1.79877 0
M  V30 6940 C 649.065 0.744261 -1.97545 0
M  V30 6941 O 648.413 1.67271 -1.55669 0
M  V30 6942 C 648.623 -1.52648 -3.13846 0
M  V30 6943 C 649.971 -1.70297 -3.88953 0
M  V30 6944 O 650.995 -1.49037 -3.23522 0
M  V30 6945 O 649.854 -2.05593 -5.06353 0
M  V30 6946 H 646.948 -0.277891 -0.778913 0
M  V30 6947 H 649.494 -1.21343 -1.18633 0
M  V30 6948 H 648.266 -2.55564 -2.96315 0
M  V30 6949 H 647.889 -1.07466 -3.82801 0
M  V30 6950 N 648.886 1.2938 -0.899927 0
M  V30 6951 C 649.816 2.30144 -0.39446 0
M  V30 6952 C 650.797 1.61611 0.530639 0
M  V30 6953 O 651.982 1.89119 0.441319 0
M  V30 6954 C 649.112 3.45229 0.37868 0
M  V30 6955 C 648.066 4.25564 -0.456012 0
M  V30 6956 C 647.392 5.32848 0.444637 0
M  V30 6957 C 648.692 4.93651 -1.70605 0
M  V30 6958 H 650.386 2.72673 -1.23653 0
M  V30 6959 H 647.932 1.31086 -0.596034 0
M  V30 6960 H 649.885 4.14797 0.743037 0
M  V30 6961 H 648.609 3.01545 1.25453 0
M  V30 6962 H 647.268 3.57704 -0.802704 0
M  V30 6963 H 646.916 4.85408 1.31863 0
M  V30 6964 H 646.616 5.87497 -0.110154 0
M  V30 6965 H 648.14 6.05268 0.805182 0
M  V30 6966 H 649.554 5.55655 -1.41141 0
M  V30 6967 H 647.951 5.58233 -2.20217 0
M  V30 6968 H 649.021 4.18926 -2.4419 0
M  V30 6969 N 650.364 0.662433 1.43002 0
M  V30 6970 C 651.311 -0.0235324 2.30788 0
M  V30 6971 C 652.281 -0.805342 1.4527 0
M  V30 6972 O 653.466 -0.78009 1.74124 0
M  V30 6973 C 650.606 -0.977545 3.30965 0
M  V30 6974 C 649.719 -0.190865 4.31578 0
M  V30 6975 C 648.854 -1.13951 5.18834 0
M  V30 6976 C 647.893 -0.343796 6.11134 0
M  V30 6977 N 647.03 -1.2445 6.90982 0
M  V30 6978 H 651.87 0.730921 2.88897 0
M  V30 6979 H 649.407 0.372197 1.42313 0
M  V30 6980 H 651.365 -1.54437 3.87563 0
M  V30 6981 H 649.995 -1.69877 2.74484 0
M  V30 6982 H 649.047 0.492388 3.772 0
M  V30 6983 H 650.359 0.427464 4.96965 0
M  V30 6984 H 649.513 -1.77666 5.80103 0
M  V30 6985 H 648.252 -1.79174 4.53595 0
M  V30 6986 H 647.257 0.30665 5.48944 0
M  V30 6987 H 648.482 0.304161 6.78419 0
M  V30 6988 H 646.428 -1.88336 6.28383 0
M  V30 6989 H 646.345 -0.680959 7.52927 0
M  V30 6990 H 647.613 -1.86952 7.56749 0
M  V30 6991 N 651.842 -1.52309 0.404946 0
M  V30 6992 C 653.258 -1.59503 0.0556255 0
M  V30 6993 C 653.458 -1.41805 -1.43156 0
M  V30 6994 O 652.514 -1.2429 -2.19792 0
M  V30 6995 C 653.827 -2.95687 0.546801 0
M  V30 6996 C 655.375 -3.08909 0.504413 0
M  V30 6997 C 655.85 -4.47566 0.97203 0
M  V30 6998 N 657.341 -4.53795 0.928679 0
M  V30 6999 C 658.076 -5.59346 1.26174 0
M  V30 7000 N 657.572 -6.72469 1.66604 0
M  V30 7001 N 659.365 -5.49532 1.18198 0
M  V30 7002 H 651.516 -1.6206 1.37296 0
M  V30 7003 H 653.779 -0.762161 0.563751 0
M  V30 7004 H 653.485 -3.13905 1.58609 0
M  V30 7005 H 653.359 -3.77172 -0.0457905 0
M  V30 7006 H 655.746 -2.90378 -0.525819 0
M  V30 7007 H 655.827 -2.2934 1.13301 0
M  V30 7008 H 655.471 -4.6684 2.00057 0
M  V30 7009 H 655.401 -5.25625 0.320292 0
M  V30 7010 H 657.892 -3.72588 0.631369 0
M  V30 7011 H 658.205 -7.48993 1.9034 0
M  V30 7012 H 656.55 -6.73761 1.70504 0
M  V30 7013 H 659.741 -4.60038 0.865011 0
M  V30 7014 H 659.914 -6.31687 1.44485 0
M  V30 7015 N 653.32 -0.135238 -1.57019 0
M  V30 7016 C 654.597 0.563227 -1.87316 0
M  V30 7017 C 654.977 1.83749 -1.03921 0
M  V30 7018 O 654.325 2.2817 -0.122675 0
M  V30 7019 C 654.535 0.840031 -3.3874 0
M  V30 7020 C 655.883 1.18598 -4.077 0
M  V30 7021 O 656.907 0.92977 -3.43851 0
M  V30 7022 O 655.766 1.66758 -5.20436 0
M  V30 7023 H 652.86 0.285971 -0.775983 0
M  V30 7024 H 655.406 -0.170965 -1.68837 0
M  V30 7025 H 654.178 -0.0622785 -3.9125 0
M  V30 7026 H 653.801 1.62882 -3.62706 0
M  V30 7027 N 654.798 1.5699 0.138552 0
M  V30 7028 C 656.046 1.83446 0.848053 0
M  V30 7029 C 656.367 0.71744 1.81322 0
M  V30 7030 O 655.637 -0.260228 1.94164 0
M  V30 7031 H 654.217 0.676792 0.316166 0
M  V30 7032 H 656.879 1.94462 0.130538 0
M  V30 7033 H 655.975 2.78677 1.40518 0
M  V30 7034 N 656.276 -0.40816 1.52223 0
M  V30 7035 C 657.224 -1.51788 1.76248 0
M  V30 7036 C 658.218 -1.57264 0.629638 0
M  V30 7037 O 659.424 -1.60659 0.811704 0
M  V30 7038 H 655.799 -0.504823 0.557367 0
M  V30 7039 H 657.77 -1.2871 2.69214 0
M  V30 7040 C 656.519 -2.89145 1.93107 0
M  V30 7041 H 655.842 -2.85674 2.79697 0
M  V30 7042 H 657.282 -3.66082 2.13916 0
M  V30 7043 C 655.741 -3.29581 0.698431 0
M  V30 7044 O 656.271 -4.01479 -0.133238 0
M  V30 7045 N 654.477 -2.85651 0.53405 0
M  V30 7046 H 654.024 -2.2731 1.21194 0
M  V30 7047 H 653.982 -3.13065 -0.289387 0
M  V30 7048 N 657.755 -1.42862 -0.66545 0
M  V30 7049 C 658.718 -1.46756 -1.76055 0
M  V30 7050 C 659.718 -0.353866 -1.56858 0
M  V30 7051 O 660.908 -0.615099 -1.62979 0
M  V30 7052 C 658.04 -1.30829 -3.14796 0
M  V30 7053 H 659.233 -2.44271 -1.73987 0
M  V30 7054 H 656.786 -1.29447 -0.875965 0
M  V30 7055 H 657.521 -0.342733 -3.22484 0
M  V30 7056 H 657.306 -2.11551 -3.30134 0
M  V30 7057 H 658.796 -1.36458 -3.94676 0
M  V30 7058 N 659.233 0.902656 -1.29189 0
M  V30 7059 C 660.644 1.46809 -1.15343 0
M  V30 7060 C 660.995 1.94568 0.252517 0
M  V30 7061 O 660.12 1.83454 1.14777 0
M  V30 7062 C 660.715 2.66829 -2.08776 0
M  V30 7063 C 659.274 3.19518 -1.98961 0
M  V30 7064 C 658.421 1.92212 -1.99874 0
M  V30 7065 H 661.372 0.714282 -1.41717 0
M  V30 7066 H 661.393 3.42465 -1.65826 0
M  V30 7067 H 660.905 2.32039 -3.11094 0
M  V30 7068 H 659.006 3.59008 -0.99721 0
M  V30 7069 H 659.119 3.84016 -2.86477 0
M  V30 7070 H 657.483 2.0979 -1.44431 0
M  V30 7071 H 658.266 1.59702 -3.03891 0
M  V30 7072 N 660.711 1.11618 1.11262 0
M  V30 7073 C 661.939 0.888739 1.8684 0
M  V30 7074 C 662.354 -0.561558 1.80255 0
M  V30 7075 O 661.711 -1.38782 1.18515 0
M  V30 7076 C 661.762 1.34422 3.35579 0
M  V30 7077 O 661.483 2.73766 3.42029 0
M  V30 7078 C 662.984 1.15246 4.28058 0
M  V30 7079 H 660.204 0.318152 0.590779 0
M  V30 7080 H 662.748 1.48398 1.40707 0
M  V30 7081 H 660.903 0.79239 3.7921 0
M  V30 7082 H 661.317 2.9355 4.34659 0
M  V30 7083 H 662.791 1.52015 5.30656 0
M  V30 7084 H 663.268 0.0922007 4.39103 0
M  V30 7085 H 663.874 1.69136 3.90222 0
M  V30 7086 N 662.189 -1.289 0.906776 0
M  V30 7087 C 663.119 -2.29932 0.406659 0
M  V30 7088 C 664.1 -1.6189 -0.522061 0
M  V30 7089 O 665.285 -1.8935 -0.431283 0
M  V30 7090 C 662.415 -3.45425 -0.360366 0
M  V30 7091 C 661.369 -4.25316 0.478574 0
M  V30 7092 C 660.695 -5.33076 -0.416373 0
M  V30 7093 C 661.995 -4.92739 1.7322 0
M  V30 7094 H 663.689 -2.72013 1.25097 0
M  V30 7095 H 661.235 -1.30768 0.602977 0
M  V30 7096 H 663.188 -4.15186 -0.721029 0
M  V30 7097 H 661.912 -3.02206 -1.23852 0
M  V30 7098 H 660.571 -3.57273 0.821662 0
M  V30 7099 H 660.219 -4.86101 -1.29287 0
M  V30 7100 H 659.919 -5.8743 0.141309 0
M  V30 7101 H 661.443 -6.05686 -0.773072 0
M  V30 7102 H 662.857 -5.54898 1.44086 0
M  V30 7103 H 661.254 -5.57057 2.23175 0
M  V30 7104 H 662.324 -4.17625 2.46408 0
M  V30 7105 N 663.667 -0.670007 -1.42649 0
M  V30 7106 C 664.597 -0.00258501 -2.335 0
M  V30 7107 C 665.578 0.794364 -1.50412 0
M  V30 7108 O 666.763 0.75248 -1.79029 0
M  V30 7109 C 663.893 0.952748 -3.33976 0
M  V30 7110 C 662.847 0.264733 -4.2718 0
M  V30 7111 C 662.173 1.33267 -5.17826 0
M  V30 7112 C 663.473 -0.853289 -5.15283 0
M  V30 7113 H 665.167 -0.761326 -2.89559 0
M  V30 7114 H 662.713 -0.367561 -1.3923 0
M  V30 7115 H 664.666 1.4287 -3.96442 0
M  V30 7116 H 663.39 1.74285 -2.7621 0
M  V30 7117 H 662.049 -0.190938 -3.66102 0
M  V30 7118 H 661.697 2.11464 -4.5639 0
M  V30 7119 H 661.397 0.877476 -5.81011 0
M  V30 7120 H 662.921 1.80965 -5.83167 0
M  V30 7121 H 664.335 -0.458763 -5.71462 0
M  V30 7122 H 662.732 -1.23398 -5.87276 0
M  V30 7123 H 663.802 -1.70412 -4.53969 0
M  V30 7124 N 665.145 1.52092 -0.413018 0
M  V30 7125 C 666.375 2.05974 0.160648 0
M  V30 7126 C 666.783 1.28267 1.39084 0
M  V30 7127 O 666.126 0.328805 1.80733 0
M  V30 7128 C 666.188 3.54918 0.572169 0
M  V30 7129 C 665.852 4.53705 -0.547826 0
M  V30 7130 C 666.849 5.00342 -1.41259 0
M  V30 7131 C 664.534 4.97089 -0.721627 0
M  V30 7132 C 666.528 5.89011 -2.43607 0
M  V30 7133 C 664.215 5.85554 -1.74841 0
M  V30 7134 C 665.213 6.3141 -2.60403 0
M  V30 7135 O 664.901 7.18123 -3.61323 0
M  V30 7136 H 664.633 0.675636 0.0221936 0
M  V30 7137 H 667.187 1.96931 -0.58373 0
M  V30 7138 H 665.417 3.61661 1.36889 0
M  V30 7139 H 667.106 3.91428 1.0742 0
M  V30 7140 H 667.872 4.67537 -1.28974 0
M  V30 7141 H 663.751 4.60954 -0.0652911 0
M  V30 7142 H 667.295 6.24725 -3.10425 0
M  V30 7143 H 663.192 6.17773 -1.87156 0
M  V30 7144 H 663.96 7.36244 -3.57613 0
M  V30 7145 N 666.623 0.143563 1.56945 0
M  V30 7146 C 667.871 -0.507402 1.95627 0
M  V30 7147 C 668.192 -1.65626 1.02922 0
M  V30 7148 O 667.462 -1.95693 0.0901136 0
M  V30 7149 H 666.042 -0.190436 0.722318 0
M  V30 7150 H 668.704 0.218257 1.93674 0
M  V30 7151 H 667.8 -0.885816 2.99265 0
M  V30 7152 N 668.101 -1.57061 -0.130224 0
M  V30 7153 C 669.331 -1.88159 -0.853217 0
M  V30 7154 C 669.739 -0.731675 -1.7448 0
M  V30 7155 O 669.082 0.307035 -1.81116 0
M  V30 7156 C 669.144 -3.1415 -1.74785 0
M  V30 7157 C 668.808 -4.45202 -1.03173 0
M  V30 7158 C 669.805 -5.18526 -0.377759 0
M  V30 7159 C 667.49 -4.91912 -1.01624 0
M  V30 7160 C 669.484 -6.36775 0.282123 0
M  V30 7161 C 667.171 -6.10082 -0.352555 0
M  V30 7162 C 668.169 -6.82361 0.295483 0
M  V30 7163 O 667.857 -7.98284 0.948606 0
M  V30 7164 H 667.589 -0.627596 -0.251197 0
M  V30 7165 H 670.143 -2.05034 -0.1226 0
M  V30 7166 H 668.373 -2.93328 -2.51983 0
M  V30 7167 H 670.062 -3.31359 -2.34427 0
M  V30 7168 H 670.828 -4.83498 -0.381417 0
M  V30 7169 H 666.707 -4.35566 -1.51007 0
M  V30 7170 H 670.251 -6.93129 0.788525 0
M  V30 7171 H 666.148 -6.44569 -0.346621 0
M  V30 7172 H 666.916 -8.14054 0.851954 0
M  V30 7173 N 669.579 0.400081 -1.52437 0
M  V30 7174 C 670.827 1.14392 -1.6661 0
M  V30 7175 C 671.148 1.90792 -0.402927 0
M  V30 7176 O 670.418 1.87042 0.582425 0
M  V30 7177 H 668.998 0.425275 -0.614125 0
M  V30 7178 H 671.66 0.455076 -1.89513 0
M  V30 7179 H 670.756 1.85298 -2.51139 0
M  V30 7180 N 671.057 1.43213 0.657864 0
M  V30 7181 C 672.305 1.44298 1.41501 0
M  V30 7182 C 672.626 0.0666478 1.94886 0
M  V30 7183 O 671.896 -0.897345 1.74139 0
M  V30 7184 H 670.476 0.531257 0.525143 0
M  V30 7185 H 673.138 1.78777 0.776195 0
M  V30 7186 H 672.234 2.1528 2.25966 0
M  V30 7187 N 672.536 -0.895792 1.29666 0
M  V30 7188 C 673.783 -1.64664 1.17864 0
M  V30 7189 C 674.111 -1.92631 -0.26902 0
M  V30 7190 O 673.366 -1.53787 -1.21029 0
M  V30 7191 C 673.665 -3.00075 1.94139 0
M  V30 7192 C 673.331 -2.91702 3.43833 0
M  V30 7193 C 671.993 -2.89126 3.84656 0
M  V30 7194 C 674.345 -2.80622 4.39205 0
M  V30 7195 C 671.673 -2.73293 5.1916 0
M  V30 7196 C 674.025 -2.66329 5.73805 0
M  V30 7197 C 672.689 -2.62121 6.1388 0
M  V30 7198 H 671.959 -0.602549 0.431295 0
M  V30 7199 H 674.606 -1.04234 1.60648 0
M  V30 7200 H 672.911 -3.64394 1.43958 0
M  V30 7201 H 674.608 -3.57111 1.82408 0
M  V30 7202 H 671.198 -2.94511 3.11386 0
M  V30 7203 H 675.382 -2.81686 4.08615 0
M  V30 7204 H 670.638 -2.68443 5.49316 0
M  V30 7205 H 674.812 -2.56727 6.47352 0
M  V30 7206 H 672.439 -2.49611 7.18052 0
M  V30 7207 N 674.014 -1.12206 -1.10668 0
M  V30 7208 C 674.962 -0.782918 -2.19028 0
M  V30 7209 C 675.956 0.229175 -1.67843 0
M  V30 7210 O 677.162 0.0876295 -1.79787 0
M  V30 7211 H 673.537 -0.235339 -0.714227 0
M  V30 7212 H 675.508 -1.70527 -2.44874 0
M  V30 7213 C 674.257 -0.25116 -3.46792 0
M  V30 7214 H 673.58 -1.02123 -3.86537 0
M  V30 7215 H 675.02 -0.0521409 -4.23968 0
M  V30 7216 C 673.479 1.02037 -3.21076 0
M  V30 7217 O 674.009 2.09862 -3.42522 0
M  V30 7218 N 672.215 0.946348 -2.74759 0
M  V30 7219 H 671.762 0.068777 -2.57508 0
M  V30 7220 H 671.72 1.79775 -2.57931 0
M  V30 7221 N 675.492 1.28418 -0.913599 0
M  V30 7222 C 676.738 1.9527 -0.547484 0
M  V30 7223 C 677.071 1.71745 0.906486 0
M  V30 7224 O 676.346 1.03834 1.64465 0
M  V30 7225 C 676.629 3.49748 -0.857205 0
M  V30 7226 C 676.482 3.82675 -2.3639 0
M  V30 7227 C 677.801 4.3868 -0.353258 0
M  V30 7228 H 674.92 0.709236 -0.200381 0
M  V30 7229 H 677.562 1.51789 -1.14281 0
M  V30 7230 H 675.712 3.86915 -0.350548 0
M  V30 7231 H 677.384 3.55378 -2.94116 0
M  V30 7232 H 675.627 3.29724 -2.81894 0
M  V30 7233 H 676.298 4.90547 -2.53115 0
M  V30 7234 H 678.774 4.08584 -0.787288 0
M  V30 7235 H 677.65 5.45621 -0.599049 0
M  V30 7236 H 677.911 4.35753 0.746413 0
M  V30 7237 N 676.97 0.677563 1.42291 0
M  V30 7238 C 677.918 -0.0106755 2.32598 0
M  V30 7239 C 678.912 -0.787643 1.49975 0
M  V30 7240 O 680.118 -0.695295 1.66029 0
M  V30 7241 H 676.493 -0.0222482 0.751671 0
M  V30 7242 H 678.464 0.768312 2.88339 0
M  V30 7243 C 677.213 -0.946142 3.3458 0
M  V30 7244 H 676.536 -0.357701 3.98197 0
M  V30 7245 H 677.976 -1.39634 4.00348 0
M  V30 7246 C 676.435 -2.05383 2.67057 0
M  V30 7247 O 676.965 -3.1406 2.50458 0
M  V30 7248 N 675.171 -1.82635 2.26038 0
M  V30 7249 H 674.718 -0.942534 2.39737 0
M  V30 7250 H 674.676 -2.56937 1.81192 0
M  V30 7251 N 678.448 -1.51871 0.421078 0
M  V30 7252 C 679.381 -2.23851 -0.443369 0
M  V30 7253 C 680.359 -1.25142 -1.03818 0
M  V30 7254 O 681.543 -1.5423 -1.08377 0
M  V30 7255 C 678.67 -2.97637 -1.61648 0
M  V30 7256 C 677.716 -4.10873 -1.14391 0
M  V30 7257 S 678.549 -5.35408 -0.0992403 0
M  V30 7258 C 679.705 -6.12726 -1.27739 0
M  V30 7259 H 679.938 -2.96826 0.167786 0
M  V30 7260 H 677.471 -1.53027 0.205461 0
M  V30 7261 H 679.429 -3.40751 -2.28909 0
M  V30 7262 H 678.09 -2.24282 -2.199 0
M  V30 7263 H 677.283 -4.61718 -2.02069 0
M  V30 7264 H 676.885 -3.69937 -0.549775 0
M  V30 7265 H 679.177 -6.40827 -2.19881 0
M  V30 7266 H 680.12 -7.03461 -0.809239 0
M  V30 7267 H 680.528 -5.43968 -1.5086 0
M  V30 7268 N 679.926 -0.151884 -1.56866 0
M  V30 7269 C 680.836 0.798876 -2.20579 0
M  V30 7270 C 681.852 1.268 -1.19154 0
M  V30 7271 O 683.028 1.32418 -1.51748 0
M  V30 7272 C 680.093 2.01861 -2.81874 0
M  V30 7273 C 679.154 1.59825 -3.9844 0
M  V30 7274 C 678.387 2.75984 -4.56802 0
M  V30 7275 O 678.61 3.92331 -4.14044 0
M  V30 7276 O 677.544 2.51175 -5.46987 0
M  V30 7277 H 681.37 0.2865 -3.02346 0
M  V30 7278 H 678.955 0.0753806 -1.4921 0
M  V30 7279 H 680.837 2.73235 -3.20813 0
M  V30 7280 H 679.512 2.52042 -2.03117 0
M  V30 7281 H 678.419 0.854601 -3.64208 0
M  V30 7282 H 679.752 1.14355 -4.78731 0
M  V30 7283 N 681.404 1.57128 0.121893 0
M  V30 7284 C 682.367 1.99197 1.13372 0
M  V30 7285 C 683.367 0.881728 1.3447 0
M  V30 7286 O 684.557 1.14783 1.31036 0
M  V30 7287 C 681.689 2.32963 2.4888 0
M  V30 7288 H 682.882 2.89788 0.772204 0
M  V30 7289 H 680.435 1.51952 0.366093 0
M  V30 7290 H 681.17 1.45243 2.89957 0
M  V30 7291 H 680.955 3.13934 2.34921 0
M  V30 7292 H 682.445 2.66261 3.21706 0
M  V30 7293 N 682.882 -0.391992 1.52647 0
M  V30 7294 C 683.83 -1.4991 1.77848 0
M  V30 7295 C 684.824 -1.56587 0.646282 0
M  V30 7296 O 686.03 -1.59789 0.828698 0
M  V30 7297 H 682.405 -0.498883 0.56269 0
M  V30 7298 H 684.376 -1.25847 2.70564 0
M  V30 7299 C 683.125 -2.87081 1.96163 0
M  V30 7300 H 682.448 -2.82692 2.82711 0
M  V30 7301 H 683.888 -3.63792 2.17787 0
M  V30 7302 C 682.347 -3.28822 0.733348 0
M  V30 7303 O 682.877 -4.01598 -0.0906481 0
M  V30 7304 N 681.083 -2.85068 0.564317 0
M  V30 7305 H 680.63 -2.26012 1.23598 0
M  V30 7306 H 680.588 -3.13355 -0.256166 0
M  V30 7307 N 684.36 -1.4356 -0.65026 0
M  V30 7308 C 685.607 -1.45333 -1.41012 0
M  V30 7309 C 685.935 -0.0787282 -1.94341 0
M  V30 7310 O 685.19 0.916715 -1.72901 0
M  V30 7311 C 685.489 -2.44528 -2.60654 0
M  V30 7312 C 685.155 -3.90331 -2.25727 0
M  V30 7313 C 683.817 -4.3004 -2.15914 0
M  V30 7314 C 686.169 -4.822 -1.97821 0
M  V30 7315 C 683.497 -5.59568 -1.76354 0
M  V30 7316 C 685.849 -6.12095 -1.59759 0
M  V30 7317 C 684.513 -6.50778 -1.48473 0
M  V30 7318 H 683.783 -0.531813 -0.516 0
M  V30 7319 H 686.43 -1.76657 -0.739219 0
M  V30 7320 H 684.735 -2.06619 -3.3289 0
M  V30 7321 H 686.432 -2.43155 -3.18868 0
M  V30 7322 H 683.022 -3.58905 -2.34276 0
M  V30 7323 H 687.206 -4.5229 -2.04322 0
M  V30 7324 H 682.462 -5.88376 -1.66205 0
M  V30 7325 H 686.636 -6.82751 -1.37198 0
M  V30 7326 H 684.263 -7.5105 -1.17591 0
M  V30 7327 N 685.838 0.888903 -1.30139 0
M  V30 7328 C 687.254 1.17153 -1.08385 0
M  V30 7329 C 687.454 2.0088 0.157925 0
M  V30 7330 O 686.51 2.37668 0.852652 0
M  V30 7331 C 687.823 1.882 -2.34523 0
M  V30 7332 C 689.371 2.00981 -2.39949 0
M  V30 7333 C 689.846 2.75441 -3.65918 0
M  V30 7334 N 691.337 2.82989 -3.66704 0
M  V30 7335 C 692.072 3.41167 -4.60861 0
M  V30 7336 N 691.568 4.00425 -5.6536 0
M  V30 7337 N 693.361 3.38944 -4.48412 0
M  V30 7338 H 685.512 0.33053 -2.09812 0
M  V30 7339 H 687.775 0.208964 -0.924683 0
M  V30 7340 H 687.481 1.34119 -3.25123 0
M  V30 7341 H 687.355 2.88609 -2.42868 0
M  V30 7342 H 689.742 2.54234 -1.4983 0
M  V30 7343 H 689.823 0.996725 -2.35582 0
M  V30 7344 H 689.467 2.22861 -4.56394 0
M  V30 7345 H 689.397 3.77118 -3.67546 0
M  V30 7346 H 691.888 2.40912 -2.91153 0
M  V30 7347 H 692.201 4.42871 -6.33313 0
M  V30 7348 H 690.546 3.98856 -5.69157 0
M  V30 7349 H 693.737 2.91875 -3.6596 0
M  V30 7350 H 693.91 3.83989 -5.21974 0
M  V30 7351 N 687.317 1.12792 1.10072 0
M  V30 7352 C 688.542 0.908838 1.86427 0
M  V30 7353 C 688.967 -0.536793 1.80278 0
M  V30 7354 O 688.325 -1.38033 1.17543 0
M  V30 7355 C 688.373 1.39295 3.3261 0
M  V30 7356 O 687.477 0.573846 4.08388 0
M  V30 7357 H 686.818 0.326234 0.578331 0
M  V30 7358 H 689.348 1.50094 1.39043 0
M  V30 7359 H 689.358 1.39366 3.83459 0
M  V30 7360 H 688.033 2.44555 3.36401 0
M  V30 7361 H 686.61 0.640438 3.67359 0
M  V30 7362 N 688.795 -1.27931 0.920396 0
M  V30 7363 C 690.02 -1.99343 0.572478 0
M  V30 7364 C 690.445 -1.68267 -0.840696 0
M  V30 7365 O 689.803 -0.918805 -1.56294 0
M  V30 7366 C 689.851 -3.51698 0.796284 0
M  V30 7367 O 688.955 -4.12157 -0.141602 0
M  V30 7368 H 688.296 -0.626065 0.221221 0
M  V30 7369 H 690.826 -1.62921 1.23765 0
M  V30 7370 H 690.836 -4.01793 0.708984 0
M  V30 7371 H 689.511 -3.73649 1.82644 0
M  V30 7372 H 688.088 -3.729 -0.005007 0
M  V30 7373 N 690.273 -0.685099 -1.4193 0
M  V30 7374 C 691.522 -0.208816 -2.00616 0
M  V30 7375 C 691.835 1.19506 -1.54847 0
M  V30 7376 O 693.041 1.76826 -2.06021 0
M  V30 7377 C 691.497 -0.322446 -3.58453 0
M  V30 7378 C 691.105 -1.73102 -4.13206 0
M  V30 7379 C 692.849 0.0945979 -4.24395 0
M  V30 7380 C 690.756 -1.79687 -5.63442 0
M  V30 7381 H 689.686 -0.0743092 -0.750329 0
M  V30 7382 H 692.337 -0.851778 -1.62533 0
M  V30 7383 H 690.719 0.388588 -3.94089 0
M  V30 7384 H 691.893 -2.46997 -3.8901 0
M  V30 7385 H 690.208 -2.09682 -3.59753 0
M  V30 7386 H 692.805 0.0656937 -5.3466 0
M  V30 7387 H 693.148 1.1316 -4.00625 0
M  V30 7388 H 693.681 -0.56579 -3.93756 0
M  V30 7389 H 690.42 -2.81404 -5.92024 0
M  V30 7390 H 689.94 -1.10162 -5.89597 0
M  V30 7391 H 691.619 -1.55498 -6.28036 0
M  V30 7392 N 691.751 1.51645 -0.429126 0
M  V30 7393 C 692.681 2.30434 0.377148 0
M  V30 7394 C 693.662 1.35493 1.02838 0
M  V30 7395 O 694.847 1.6441 1.03359 0
M  V30 7396 C 691.977 3.14038 1.48315 0
M  V30 7397 C 690.931 4.1719 0.955855 0
M  V30 7398 C 690.257 4.89263 2.15698 0
M  V30 7399 C 691.557 5.223 -0.00402136 0
M  V30 7400 H 693.251 2.98085 -0.280336 0
M  V30 7401 H 690.797 1.43354 -0.136265 0
M  V30 7402 H 692.75 3.67933 2.05435 0
M  V30 7403 H 691.474 2.44193 2.16881 0
M  V30 7404 H 690.133 3.64335 0.406929 0
M  V30 7405 H 689.781 4.15929 2.82864 0
M  V30 7406 H 689.481 5.59009 1.81059 0
M  V30 7407 H 691.005 5.45978 2.73387 0
M  V30 7408 H 692.419 5.71315 0.476607 0
M  V30 7409 H 690.816 5.99525 -0.26258 0
M  V30 7410 H 691.886 4.75638 -0.943236 0
M  V30 7411 N 693.229 0.160201 1.56784 0
M  V30 7412 C 694.64 -0.358417 1.83227 0
M  V30 7413 C 694.991 -1.63831 1.07952 0
M  V30 7414 O 694.116 -2.13885 0.328995 0
M  V30 7415 C 694.711 -0.657058 3.32368 0
M  V30 7416 C 693.27 -1.12015 3.59346 0
M  V30 7417 C 692.417 -0.15015 2.76893 0
M  V30 7418 H 695.368 0.384669 1.53967 0
M  V30 7419 H 695.389 -1.51033 3.49241 0
M  V30 7420 H 694.901 0.274647 3.87127 0
M  V30 7421 H 693.002 -2.06734 3.09987 0
M  V30 7422 H 693.115 -1.037 4.67743 0
M  V30 7423 H 691.479 -0.645361 2.46388 0
M  V30 7424 H 692.262 0.775379 3.34429 0
M  V30 7425 N 694.707 -1.5719 -0.113559 0
M  V30 7426 C 695.953 -1.86289 -0.816583 0
M  V30 7427 C 696.308 -0.748672 -1.77236 0
M  V30 7428 O 695.601 0.250889 -1.8995 0
M  V30 7429 C 695.795 -3.19593 -1.59984 0
M  V30 7430 C 695.624 -4.43876 -0.721414 0
M  V30 7431 C 694.394 -5.03913 -0.374172 0
M  V30 7432 C 696.592 -5.14287 -0.0366045 0
M  V30 7433 N 694.574 -6.11741 0.514352 0
M  V30 7434 C 695.945 -6.15913 0.710706 0
M  V30 7435 C 698 -4.97885 0.039247 0
M  V30 7436 C 696.703 -7.0291 1.52675 0
M  V30 7437 C 698.729 -5.85373 0.842135 0
M  V30 7438 C 698.091 -6.86506 1.57762 0
M  V30 7439 H 694.19 -0.731839 -0.275564 0
M  V30 7440 H 696.774 -1.94535 -0.080033 0
M  V30 7441 H 694.945 -3.12432 -2.30739 0
M  V30 7442 H 696.677 -3.3648 -2.24862 0
M  V30 7443 H 693.432 -4.68131 -0.717653 0
M  V30 7444 H 693.856 -6.70293 0.950623 0
M  V30 7445 H 698.498 -4.19651 -0.51503 0
M  V30 7446 H 696.216 -7.80547 2.09217 0
M  V30 7447 H 699.802 -5.74746 0.903256 0
M  V30 7448 H 698.682 -7.53032 2.1889 0
M  V30 7449 N 696.185 0.383891 -1.52853 0
M  V30 7450 C 697.115 1.47559 -1.80965 0
M  V30 7451 C 698.096 1.5669 -0.661986 0
M  V30 7452 O 699.281 1.71556 -0.910072 0
M  V30 7453 C 696.411 2.85114 -1.98312 0
M  V30 7454 C 695.365 2.9082 -3.14019 0
M  V30 7455 C 694.691 4.30873 -3.16627 0
M  V30 7456 C 695.991 2.60001 -4.52986 0
M  V30 7457 H 697.685 1.24283 -2.72386 0
M  V30 7458 H 695.231 0.596445 -1.31067 0
M  V30 7459 H 697.184 3.61496 -2.16561 0
M  V30 7460 H 695.908 3.09738 -1.03585 0
M  V30 7461 H 694.567 2.16886 -2.9556 0
M  V30 7462 H 694.215 4.52545 -2.19573 0
M  V30 7463 H 693.915 4.3561 -3.94357 0
M  V30 7464 H 695.439 5.09154 -3.37038 0
M  V30 7465 H 696.853 3.261 -4.71521 0
M  V30 7466 H 695.25 2.76081 -5.32822 0
M  V30 7467 H 696.32 1.5532 -4.59351 0
M  V30 7468 N 697.663 1.43903 0.642637 0
M  V30 7469 C 698.94 1.36556 1.40043 0
M  V30 7470 C 699.32 0.0185588 2.11092 0
M  V30 7471 O 698.668 -0.998438 2.05532 0
M  V30 7472 C 698.878 2.55596 2.37638 0
M  V30 7473 C 700.226 2.99153 3.01318 0
M  V30 7474 O 701.25 2.55719 2.47965 0
M  V30 7475 O 700.109 3.74427 3.98078 0
M  V30 7476 H 697.203 0.540189 0.626198 0
M  V30 7477 H 699.749 1.55971 0.668657 0
M  V30 7478 H 698.521 3.45256 1.84158 0
M  V30 7479 H 698.144 2.38334 3.18249 0
M  V30 7480 N 699.141 -0.881989 1.30609 0
M  V30 7481 C 700.104 -1.96957 1.1722 0
M  V30 7482 C 701.104 -1.60472 0.102598 0
M  V30 7483 O 702.294 -1.70628 0.350943 0
M  V30 7484 C 699.426 -3.31463 0.796572 0
M  V30 7485 H 700.619 -2.10262 2.13846 0
M  V30 7486 H 698.172 -1.06877 1.14048 0
M  V30 7487 H 698.907 -3.23859 -0.169053 0
M  V30 7488 H 698.692 -3.59314 1.56959 0
M  V30 7489 H 700.182 -4.11233 0.72645 0
M  V30 7490 N 700.619 -1.13374 -1.09472 0
M  V30 7491 C 701.867 -0.893422 -1.8128 0
M  V30 7492 C 702.188 0.582029 -1.86111 0
M  V30 7493 O 701.458 1.42305 -1.34633 0
M  V30 7494 H 700.038 -0.327543 -0.67136 0
M  V30 7495 H 702.7 -1.43018 -1.32408 0
M  V30 7496 H 701.796 -1.28374 -2.84476 0
M  V30 7497 N 702.098 1.27442 -0.927168 0
M  V30 7498 C 703.346 1.94007 -0.566203 0
M  V30 7499 C 703.667 1.7323 0.895345 0
M  V30 7500 O 702.937 1.07973 1.63459 0
M  V30 7501 H 701.517 0.717917 -0.206409 0
M  V30 7502 H 704.179 1.55161 -1.17945 0
M  V30 7503 H 703.275 3.02401 -0.772028 0
M  V30 7504 N 703.576 0.692616 1.41565 0
M  V30 7505 C 704.822 0.222664 2.01574 0
M  V30 7506 C 705.155 -1.1737 1.54719 0
M  V30 7507 O 704.43 -1.79161 0.757084 0
M  V30 7508 C 704.713 0.277064 3.59033 0
M  V30 7509 C 704.566 1.71016 4.16021 0
M  V30 7510 C 705.885 -0.36479 4.38586 0
M  V30 7511 H 703.004 0.0823839 0.732381 0
M  V30 7512 H 705.646 0.880778 1.68352 0
M  V30 7513 H 703.796 -0.283288 3.87466 0
M  V30 7514 H 705.468 2.32413 3.98475 0
M  V30 7515 H 703.711 2.24525 3.71175 0
M  V30 7516 H 704.382 1.69978 5.25178 0
M  V30 7517 H 706.858 0.112404 4.15948 0
M  V30 7518 H 705.734 -0.296169 5.481 0
M  V30 7519 H 705.995 -1.44506 4.17816 0
M  V30 7520 N 705.054 -1.51416 0.437162 0
M  V30 7521 C 706.284 -2.06204 -0.127859 0
M  V30 7522 C 706.692 -1.30463 -1.37026 0
M  V30 7523 O 706.035 -0.357516 -1.80187 0
M  V30 7524 C 706.097 -3.55783 -0.515632 0
M  V30 7525 C 705.761 -4.52776 0.619937 0
M  V30 7526 C 706.758 -4.98031 1.49201 0
M  V30 7527 C 704.443 -4.95878 0.800618 0
M  V30 7528 C 706.437 -5.85061 2.52947 0
M  V30 7529 C 704.124 -5.82699 1.84135 0
M  V30 7530 C 705.122 -6.27188 2.70416 0
M  V30 7531 O 704.81 -7.12284 3.72702 0
M  V30 7532 H 704.542 -0.675903 -0.011442 0
M  V30 7533 H 707.096 -1.95977 0.614986 0
M  V30 7534 H 705.326 -3.63793 -1.31118 0
M  V30 7535 H 707.015 -3.93087 -1.01179 0
M  V30 7536 H 707.781 -4.65426 1.36395 0
M  V30 7537 H 703.66 -4.60792 0.138617 0
M  V30 7538 H 707.204 -6.19708 3.20325 0
M  V30 7539 H 703.101 -6.14717 1.9696 0
M  V30 7540 H 703.869 -7.30462 3.69281 0
M  V30 7541 N 706.532 -0.168513 -1.56696 0
M  V30 7542 C 707.495 0.748928 -2.16619 0
M  V30 7543 C 708.495 1.16007 -1.11351 0
M  V30 7544 O 709.685 1.07748 -1.3688 0
M  V30 7545 C 706.817 2.01904 -2.74677 0
M  V30 7546 H 708.01 0.227317 -2.99037 0
M  V30 7547 H 705.563 0.0810372 -1.5609 0
M  V30 7548 H 706.298 2.58381 -1.95985 0
M  V30 7549 H 706.083 1.73323 -3.51712 0
M  V30 7550 H 707.573 2.67383 -3.20774 0
M  V30 7551 N 708.01 1.57248 0.105221 0
M  V30 7552 C 709.256 1.85845 0.811753 0
M  V30 7553 C 709.589 0.756219 1.78871 0
M  V30 7554 O 708.864 -0.236736 1.93054 0
M  V30 7555 C 709.147 3.25059 1.54947 0
M  V30 7556 C 709 4.45898 0.591185 0
M  V30 7557 C 710.319 3.6203 2.50245 0
M  V30 7558 H 707.438 0.675973 0.293649 0
M  V30 7559 H 710.08 1.89849 0.0756269 0
M  V30 7560 H 708.23 3.21776 2.17698 0
M  V30 7561 H 709.902 4.61291 -0.0285352 0
M  V30 7562 H 708.145 4.33693 -0.0962343 0
M  V30 7563 H 708.816 5.40009 1.1443 0
M  V30 7564 H 711.292 3.66192 1.97593 0
M  V30 7565 H 710.168 4.60389 2.98886 0
M  V30 7566 H 710.429 2.90176 3.33542 0
M  V30 7567 N 709.488 -0.375779 1.53054 0
M  V30 7568 C 710.451 -1.44254 1.7811 0
M  V30 7569 C 711.451 -1.47018 0.651328 0
M  V30 7570 O 712.641 -1.47957 0.919472 0
M  V30 7571 C 709.773 -2.8345 1.89391 0
M  V30 7572 H 710.966 -1.23316 2.73374 0
M  V30 7573 H 708.519 -0.608312 1.43977 0
M  V30 7574 H 709.254 -3.09716 0.961589 0
M  V30 7575 H 709.039 -2.82844 2.71555 0
M  V30 7576 H 710.529 -3.60722 2.10404 0
M  V30 7577 N 710.966 -1.44241 -0.634997 0
M  V30 7578 C 711.914 -1.51103 -1.76835 0
M  V30 7579 C 712.908 -0.383051 -1.65012 0
M  V30 7580 O 714.114 -0.557832 -1.71138 0
M  V30 7581 H 710.489 -0.474076 -0.583743 0
M  V30 7582 H 712.46 -2.46499 -1.68169 0
M  V30 7583 C 711.209 -1.4687 -3.15158 0
M  V30 7584 H 710.532 -2.32979 -3.24901 0
M  V30 7585 H 711.972 -1.55731 -3.94365 0
M  V30 7586 C 710.431 -0.188884 -3.3637 0
M  V30 7587 O 710.961 0.742487 -3.94778 0
M  V30 7588 N 709.167 -0.0932516 -2.9045 0
M  V30 7589 H 708.714 -0.852004 -2.43102 0
M  V30 7590 H 708.672 0.762308 -3.05018 0
M  V30 7591 N 712.444 0.87505 -1.31075 0
M  V30 7592 C 713.374 1.99775 -1.20881 0
M  V30 7593 C 714.355 1.69822 -0.0971612 0
M  V30 7594 O 715.54 1.92158 -0.280895 0
M  V30 7595 C 712.67 3.35163 -0.910118 0
M  V30 7596 C 711.624 3.79406 -1.98078 0
M  V30 7597 C 710.95 5.12197 -1.53488 0
M  V30 7598 C 712.25 3.97061 -3.39323 0
M  V30 7599 H 713.944 2.08562 -2.14808 0
M  V30 7600 H 711.49 1.00207 -1.03415 0
M  V30 7601 H 713.443 4.13237 -0.825423 0
M  V30 7602 H 712.167 3.26536 0.064822 0
M  V30 7603 H 710.826 3.03568 -2.05528 0
M  V30 7604 H 710.474 5.00007 -0.547941 0
M  V30 7605 H 710.174 5.4277 -2.2511 0
M  V30 7606 H 711.698 5.92785 -1.46417 0
M  V30 7607 H 713.112 4.65545 -3.34576 0
M  V30 7608 H 711.509 4.39025 -4.09118 0
M  V30 7609 H 712.579 3.00601 -3.80483 0
M  V30 7610 N 713.922 1.13953 1.08869 0
M  V30 7611 C 715.338 0.878924 1.33218 0
M  V30 7612 C 715.538 -0.482478 1.95638 0
M  V30 7613 O 714.594 -1.22778 2.2064 0
M  V30 7614 C 715.907 2.00798 2.23832 0
M  V30 7615 C 717.455 2.04073 2.37325 0
M  V30 7616 C 717.93 3.16258 3.31278 0
M  V30 7617 N 719.421 3.15805 3.38853 0
M  V30 7618 C 720.156 3.99249 4.11567 0
M  V30 7619 N 719.652 4.92721 4.87029 0
M  V30 7620 N 721.445 3.87327 4.0735 0
M  V30 7621 H 713.596 2.01645 0.66731 0
M  V30 7622 H 715.859 0.878395 0.356547 0
M  V30 7623 H 715.565 2.98986 1.85203 0
M  V30 7624 H 715.439 1.92704 3.24261 0
M  V30 7625 H 717.826 1.06495 2.75214 0
M  V30 7626 H 717.907 2.16239 1.36654 0
M  V30 7627 H 717.551 4.14079 2.9411 0
M  V30 7628 H 717.481 3.0133 4.31866 0
M  V30 7629 H 719.972 2.48102 2.8505 0
M  V30 7630 H 720.285 5.52867 5.39961 0
M  V30 7631 H 718.63 4.96723 4.86098 0
M  V30 7632 H 721.821 3.13627 3.475 0
M  V30 7633 H 721.994 4.52585 4.63757 0
M  V30 7634 N 715.4 -1.26948 0.933913 0
M  V30 7635 C 716.648 -1.93704 0.576484 0
M  V30 7636 C 716.969 -1.73702 -0.886145 0
M  V30 7637 O 716.239 -1.08838 -1.62884 0
M  V30 7638 H 714.819 -0.716812 0.210214 0
M  V30 7639 H 717.481 -1.54534 1.18766 0
M  V30 7640 H 716.577 -3.01987 0.788055 0
M  V30 7641 N 716.879 -0.700114 -1.41195 0
M  V30 7642 C 718.127 -0.232546 -2.00758 0
M  V30 7643 C 718.448 1.1734 -1.55745 0
M  V30 7644 O 717.718 1.79262 -0.790058 0
M  V30 7645 H 716.298 -0.0829845 -0.742376 0
M  V30 7646 H 718.96 -0.902289 -1.72756 0
M  V30 7647 H 718.056 -0.253521 -3.11069 0
M  V30 7648 N 718.357 1.51182 -0.445186 0
M  V30 7649 C 719.605 2.01753 0.11841 0
M  V30 7650 C 719.926 1.33087 1.42523 0
M  V30 7651 O 719.196 0.467891 1.9023 0
M  V30 7652 H 717.776 0.745536 0.0467492 0
M  V30 7653 H 720.438 1.85765 -0.589688 0
M  V30 7654 H 719.534 3.10762 0.288665 0
M  V30 7655 N 719.835 0.176821 1.56605 0
M  V30 7656 C 720.745 -0.763682 2.21822 0
M  V30 7657 C 721.761 -1.24889 1.21156 0
M  V30 7658 O 722.937 -1.29987 1.53836 0
M  V30 7659 C 720.002 -1.97352 2.8505 0
M  V30 7660 C 719.063 -1.53466 4.00932 0
M  V30 7661 C 718.296 -2.68682 4.61135 0
M  V30 7662 O 718.519 -3.85694 4.20234 0
M  V30 7663 O 717.453 -2.42442 5.50913 0
M  V30 7664 H 721.279 -0.238363 3.02763 0
M  V30 7665 H 718.864 -0.0516331 1.49311 0
M  V30 7666 H 720.746 -2.68096 3.25119 0
M  V30 7667 H 719.421 -2.48779 2.07101 0
M  V30 7668 H 718.328 -0.796551 3.65521 0
M  V30 7669 H 719.661 -1.06724 4.8049 0
M  V30 7670 N 721.313 -1.57302 -0.09688 0
M  V30 7671 C 722.543 -1.89926 -0.813114 0
M  V30 7672 C 722.951 -0.76852 -1.72888 0
M  V30 7673 O 722.294 0.268549 -1.81726 0
M  V30 7674 C 722.356 -3.17787 -1.68082 0
M  V30 7675 C 722.02 -4.4729 -0.937061 0
M  V30 7676 C 723.017 -5.1921 -0.267687 0
M  V30 7677 C 720.702 -4.93957 -0.911671 0
M  V30 7678 C 722.696 -6.36034 0.417129 0
M  V30 7679 C 720.383 -6.10693 -0.223068 0
M  V30 7680 C 721.381 -6.8158 0.440155 0
M  V30 7681 O 721.069 -7.96092 1.11772 0
M  V30 7682 H 720.801 -0.632783 -0.237828 0
M  V30 7683 H 723.355 -2.05248 -0.0790818 0
M  V30 7684 H 721.585 -2.98607 -2.45705 0
M  V30 7685 H 723.274 -3.36257 -2.27346 0
M  V30 7686 H 724.04 -4.84198 -0.278774 0
M  V30 7687 H 719.919 -4.38671 -1.41734 0
M  V30 7688 H 723.463 -6.91301 0.93537 0
M  V30 7689 H 719.36 -6.45159 -0.209821 0
M  V30 7690 H 720.128 -8.12064 1.02443 0
M  V30 7691 N 722.791 0.367657 -1.53252 0
M  V30 7692 C 724.039 1.10832 -1.68999 0
M  V30 7693 C 724.36 1.89894 -0.443306 0
M  V30 7694 O 723.63 1.88235 0.54262 0
M  V30 7695 H 722.21 0.412153 -0.623008 0
M  V30 7696 H 724.872 0.414775 -1.90435 0
M  V30 7697 H 723.968 1.7993 -2.55013 0
M  V30 7698 N 724.269 1.44576 0.627338 0
M  V30 7699 C 725.216 1.51734 1.73912 0
M  V30 7700 C 726.186 0.364745 1.62046 0
M  V30 7701 O 727.371 0.575503 1.81914 0
M  V30 7702 C 724.511 1.47116 3.12171 0
M  V30 7703 C 723.624 2.72778 3.34986 0
M  V30 7704 C 722.759 2.59968 4.63239 0
M  V30 7705 C 721.798 3.80776 4.79245 0
M  V30 7706 N 720.935 3.66618 5.98778 0
M  V30 7707 H 725.775 2.46722 1.6713 0
M  V30 7708 H 723.312 1.22444 0.815224 0
M  V30 7709 H 725.27 1.42429 3.92135 0
M  V30 7710 H 723.9 0.556928 3.17959 0
M  V30 7711 H 722.952 2.87637 2.48936 0
M  V30 7712 H 724.264 3.62441 3.42692 0
M  V30 7713 H 723.418 2.53135 5.51369 0
M  V30 7714 H 722.157 1.67872 4.57898 0
M  V30 7715 H 721.162 3.87989 3.89544 0
M  V30 7716 H 722.387 4.73913 4.86398 0
M  V30 7717 H 720.333 2.77277 5.9452 0
M  V30 7718 H 720.25 4.499 6.07557 0
M  V30 7719 H 721.518 3.63684 6.89459 0
M  V30 7720 N 725.747 -0.868086 1.31537 0
M  V30 7721 C 726.71 -1.95703 1.19302 0
M  V30 7722 C 727.71 -1.60355 0.119612 0
M  V30 7723 O 728.9 -1.70247 0.36902 0
M  V30 7724 C 726.032 -3.30599 0.831684 0
M  V30 7725 H 727.225 -2.07982 2.16064 0
M  V30 7726 H 724.778 -1.05661 1.15176 0
M  V30 7727 H 725.513 -3.2402 -0.134694 0
M  V30 7728 H 725.298 -3.57629 1.60761 0
M  V30 7729 H 726.788 -4.10439 0.770026 0
M  V30 7730 N 727.225 -1.14528 -1.08264 0
M  V30 7731 C 728.471 -0.925721 -1.81113 0
M  V30 7732 C 728.826 0.54185 -1.84612 0
M  V30 7733 O 728.119 1.39628 -1.31205 0
M  V30 7734 C 728.313 -1.46226 -3.26117 0
M  V30 7735 C 728.142 -2.98047 -3.36746 0
M  V30 7736 C 726.912 -3.66508 -3.4785 0
M  V30 7737 C 729.11 -3.95903 -3.28277 0
M  V30 7738 N 727.092 -5.06227 -3.47285 0
M  V30 7739 C 728.463 -5.21883 -3.34721 0
M  V30 7740 C 730.518 -3.88002 -3.12024 0
M  V30 7741 C 729.221 -6.40886 -3.26585 0
M  V30 7742 C 731.247 -5.06553 -3.05219 0
M  V30 7743 C 730.609 -6.31403 -3.12266 0
M  V30 7744 H 726.708 -0.392294 -0.676483 0
M  V30 7745 H 729.292 -1.45567 -1.293 0
M  V30 7746 H 727.463 -0.959076 -3.76373 0
M  V30 7747 H 729.195 -1.18247 -3.8704 0
M  V30 7748 H 725.95 -3.17067 -3.51804 0
M  V30 7749 H 726.374 -5.79172 -3.50555 0
M  V30 7750 H 731.016 -2.9235 -3.05436 0
M  V30 7751 H 728.734 -7.36781 -3.31934 0
M  V30 7752 H 732.32 -5.02191 -2.93761 0
M  V30 7753 H 731.2 -7.21596 -3.07032 0
M  V30 7754 N 728.703 1.26451 -0.940633 0
M  V30 7755 C 729.653 2.24086 -0.420669 0
M  V30 7756 C 730.637 1.53501 0.482301 0
M  V30 7757 O 731.829 1.74127 0.317636 0
M  V30 7758 C 728.958 3.41866 0.313452 0
M  V30 7759 C 728.044 4.19737 -0.606779 0
M  V30 7760 N 728.435 4.7521 -1.73232 0
M  V30 7761 C 726.733 4.44091 -0.41226 0
M  V30 7762 C 727.434 5.34052 -2.30572 0
M  V30 7763 N 726.41 5.1971 -1.59381 0
M  V30 7764 H 730.212 2.64569 -1.27986 0
M  V30 7765 H 727.726 1.4153 -0.796436 0
M  V30 7766 H 729.723 4.1093 0.702991 0
M  V30 7767 H 728.383 3.0291 1.16942 0
M  V30 7768 H 729.394 4.72769 -2.11447 0
M  V30 7769 H 726.071 4.1556 0.401984 0
M  V30 7770 H 727.461 5.87845 -3.25404 0
M  V30 7771 N 730.181 0.707592 1.40822 0
M  V30 7772 C 731.458 0.171172 1.9485 0
M  V30 7773 C 731.838 -1.32143 1.64625 0
M  V30 7774 O 731.186 -2.07372 0.959647 0
M  V30 7775 C 731.396 0.475334 3.45748 0
M  V30 7776 C 732.744 0.409625 4.22619 0
M  V30 7777 O 733.768 0.410934 3.53822 0
M  V30 7778 O 732.627 0.380185 5.45176 0
M  V30 7779 H 729.721 0.022015 0.826707 0
M  V30 7780 H 732.267 0.784577 1.50474 0
M  V30 7781 H 731.039 1.50801 3.61075 0
M  V30 7782 H 730.662 -0.168439 3.97243 0
M  V30 7783 N 731.66 -1.50943 0.453197 0
M  V30 7784 C 732.623 -2.26684 -0.338705 0
M  V30 7785 C 733.623 -1.30748 -0.936032 0
M  V30 7786 O 734.813 -1.54327 -0.808002 0
M  V30 7787 C 731.945 -3.07063 -1.48071 0
M  V30 7788 H 733.138 -2.98131 0.325289 0
M  V30 7789 H 730.691 -1.54926 0.206771 0
M  V30 7790 H 731.426 -2.4007 -2.18029 0
M  V30 7791 H 731.211 -3.77545 -1.0584 0
M  V30 7792 H 732.701 -3.64393 -2.0398 0
M  V30 7793 N 733.138 -0.185124 -1.56509 0
M  V30 7794 C 734.386 0.455357 -1.96903 0
M  V30 7795 C 734.707 1.62839 -1.07277 0
M  V30 7796 O 733.977 1.95385 -0.141966 0
M  V30 7797 H 732.557 0.171218 -0.727113 0
M  V30 7798 H 735.219 -0.26953 -1.93027 0
M  V30 7799 H 734.315 0.80616 -3.01509 0
M  V30 7800 N 734.616 1.57351 0.0885366 0
M  V30 7801 C 736.032 1.53331 0.442916 0
M  V30 7802 C 736.232 0.902831 1.80142 0
M  V30 7803 O 735.288 0.498147 2.47537 0
M  V30 7804 C 736.601 2.98036 0.399372 0
M  V30 7805 C 738.149 3.09286 0.480759 0
M  V30 7806 C 738.624 4.5561 0.467296 0
M  V30 7807 N 740.115 4.60182 0.52786 0
M  V30 7808 C 740.85 5.70857 0.539388 0
M  V30 7809 N 740.346 6.90944 0.506729 0
M  V30 7810 N 742.139 5.59051 0.584691 0
M  V30 7811 H 734.29 1.96709 -0.801215 0
M  V30 7812 H 736.553 0.899639 -0.298922 0
M  V30 7813 H 736.259 3.47656 -0.531806 0
M  V30 7814 H 736.133 3.57066 1.21589 0
M  V30 7815 H 738.52 2.5965 1.40236 0
M  V30 7816 H 738.601 2.53197 -0.364023 0
M  V30 7817 H 738.245 5.05899 -0.450384 0
M  V30 7818 H 738.175 5.09544 1.32938 0
M  V30 7819 H 740.666 3.73757 0.558028 0
M  V30 7820 H 740.979 7.71055 0.518989 0
M  V30 7821 H 739.324 6.93384 0.473675 0
M  V30 7822 H 742.515 4.64138 0.607781 0
M  V30 7823 H 742.688 6.45307 0.590206 0
M  V30 7824 N 736.094 -0.359525 1.53444 0
M  V30 7825 C 737.024 -1.44662 1.8329 0
M  V30 7826 C 738.005 -1.55617 0.68683 0
M  V30 7827 O 739.19 -1.70086 0.93725 0
M  V30 7828 C 736.32 -2.81923 2.02822 0
M  V30 7829 C 735.274 -2.85787 3.18606 0
M  V30 7830 C 734.6 -4.25781 3.23442 0
M  V30 7831 C 735.9 -2.52762 4.57065 0
M  V30 7832 H 737.594 -1.19934 2.74329 0
M  V30 7833 H 735.14 -0.575517 1.31999 0
M  V30 7834 H 737.093 -3.58005 2.22285 0
M  V30 7835 H 735.817 -3.08051 1.085 0
M  V30 7836 H 734.476 -2.12157 2.98973 0
M  V30 7837 H 734.124 -4.48994 2.26745 0
M  V30 7838 H 733.824 -4.29281 4.01238 0
M  V30 7839 H 735.348 -5.03727 3.45096 0
M  V30 7840 H 736.762 -3.18557 4.76649 0
M  V30 7841 H 735.159 -2.67569 5.37147 0
M  V30 7842 H 736.229 -1.47993 4.61764 0
M  V30 7843 N 737.572 -1.44907 -0.619662 0
M  V30 7844 C 738.849 -1.38766 -1.37852 0
M  V30 7845 C 739.229 -0.0521393 -2.11036 0
M  V30 7846 O 738.577 0.965613 -2.07095 0
M  V30 7847 C 738.787 -2.59344 -2.33541 0
M  V30 7848 C 740.135 -3.03909 -2.96521 0
M  V30 7849 O 741.159 -2.59631 -2.43865 0
M  V30 7850 O 740.018 -3.80713 -3.92071 0
M  V30 7851 H 737.112 -0.550083 -0.617525 0
M  V30 7852 H 739.658 -1.57015 -0.643759 0
M  V30 7853 H 738.43 -3.48142 -1.78642 0
M  V30 7854 H 738.053 -2.43367 -3.14417 0
M  V30 7855 N 739.05 0.861098 -1.31996 0
M  V30 7856 C 739.997 1.96912 -1.20392 0
M  V30 7857 C 740.967 1.65869 -0.0875899 0
M  V30 7858 O 742.152 1.88992 -0.262011 0
M  V30 7859 C 739.292 3.32435 -0.926335 0
M  V30 7860 C 738.405 3.76018 -2.12684 0
M  V30 7861 C 737.54 5.00301 -1.78529 0
M  V30 7862 C 736.579 5.36357 -2.94937 0
M  V30 7863 N 735.716 6.51818 -2.60917 0
M  V30 7864 H 740.556 2.06169 -2.1517 0
M  V30 7865 H 738.093 1.00917 -1.07024 0
M  V30 7866 H 740.051 4.10478 -0.745917 0
M  V30 7867 H 738.681 3.22796 -0.0153578 0
M  V30 7868 H 737.733 2.93683 -2.41774 0
M  V30 7869 H 739.045 3.98664 -2.99781 0
M  V30 7870 H 738.199 5.86034 -1.57001 0
M  V30 7871 H 736.938 4.79578 -0.886356 0
M  V30 7872 H 735.943 4.49139 -3.17103 0
M  V30 7873 H 737.168 5.59041 -3.85552 0
M  V30 7874 H 735.114 6.32624 -1.73558 0
M  V30 7875 H 735.031 6.7445 -3.41544 0
M  V30 7876 H 736.299 7.4072 -2.42804 0
M  V30 7877 N 740.528 1.15101 1.07655 0
M  V30 7878 C 741.475 0.844958 2.14777 0
M  V30 7879 C 742.445 -0.200798 1.64882 0
M  V30 7880 O 743.63 -0.0690278 1.90675 0
M  V30 7881 C 740.77 0.337018 3.4345 0
M  V30 7882 C 739.883 1.44398 4.07153 0
M  V30 7883 C 739.018 0.892487 5.23649 0
M  V30 7884 C 738.057 1.9766 5.79307 0
M  V30 7885 N 737.194 1.44171 6.87138 0
M  V30 7886 H 742.034 1.76242 2.40297 0
M  V30 7887 H 739.571 0.879435 1.17917 0
M  V30 7888 H 741.529 0.024256 4.17193 0
M  V30 7889 H 740.159 -0.543531 3.18191 0
M  V30 7890 H 739.211 1.87299 3.31094 0
M  V30 7891 H 740.523 2.26262 4.4453 0
M  V30 7892 H 739.677 0.532083 6.04362 0
M  V30 7893 H 738.416 0.0429854 4.87681 0
M  V30 7894 H 737.421 2.34586 4.97242 0
M  V30 7895 H 738.646 2.82982 6.17331 0
M  V30 7896 H 736.592 0.614518 6.53115 0
M  V30 7897 H 736.509 2.19665 7.23383 0
M  V30 7898 H 737.777 1.10945 7.71564 0
M  V30 7899 N 742.006 -1.2595 0.947325 0
M  V30 7900 C 742.938 -2.25336 0.41906 0
M  V30 7901 C 743.951 -1.56135 -0.461051 0
M  V30 7902 O 745.14 -1.76438 -0.270505 0
M  V30 7903 C 742.24 -3.36334 -0.416233 0
M  V30 7904 C 741.413 -4.35088 0.449162 0
M  V30 7905 C 740.472 -5.25185 -0.326716 0
M  V30 7906 O 739.498 -5.68548 0.272374 0
M  V30 7907 N 740.7 -5.57388 -1.6217 0
M  V30 7908 H 743.465 -2.71298 1.27348 0
M  V30 7909 H 741.026 -1.39781 0.81688 0
M  V30 7910 H 743.018 -3.93564 -0.942826 0
M  V30 7911 H 741.588 -2.89819 -1.17148 0
M  V30 7912 H 740.808 -3.76841 1.15692 0
M  V30 7913 H 742.096 -4.98056 1.04008 0
M  V30 7914 H 741.494 -5.2405 -2.13046 0
M  V30 7915 H 740.051 -6.17234 -2.0944 0
M  V30 7916 N 743.484 -0.715051 -1.40445 0
M  V30 7917 C 744.432 -0.0509974 -2.32544 0
M  V30 7918 C 745.426 0.747602 -1.52011 0
M  V30 7919 O 746.632 0.651031 -1.67814 0
M  V30 7920 H 743.007 0.00231113 -0.751996 0
M  V30 7921 H 744.978 -0.84449 -2.86201 0
M  V30 7922 C 743.727 0.857101 -3.3697 0
M  V30 7923 H 743.05 0.252 -3.99005 0
M  V30 7924 H 744.49 1.28971 -4.03909 0
M  V30 7925 C 742.949 1.98231 -2.72408 0
M  V30 7926 O 743.479 3.07309 -2.58697 0
M  V30 7927 N 741.685 1.76577 -2.308 0
M  V30 7928 H 741.232 0.878641 -2.42152 0
M  V30 7929 H 741.19 2.52043 -1.87941 0
M  V30 7930 N 744.962 1.50701 -0.461195 0
M  V30 7931 C 746.208 2.02566 0.0973411 0
M  V30 7932 C 746.541 1.3432 1.40257 0
M  V30 7933 O 745.816 0.465692 1.88843 0
M  V30 7934 C 746.099 3.58919 0.291423 0
M  V30 7935 C 745.952 4.37751 -1.03413 0
M  V30 7936 C 747.271 4.27379 1.05048 0
M  V30 7937 H 744.39 0.73622 0.0339026 0
M  V30 7938 H 747.032 1.80115 -0.604855 0
M  V30 7939 H 745.182 3.78179 0.889539 0
M  V30 7940 H 746.854 4.30085 -1.66806 0
M  V30 7941 H 745.097 4.01885 -1.63313 0
M  V30 7942 H 745.768 5.45384 -0.852085 0
M  V30 7943 H 748.244 4.12534 0.543603 0
M  V30 7944 H 747.12 5.36609 1.15506 0
M  V30 7945 H 747.381 3.89868 2.0846 0
M  V30 7946 N 746.441 0.193421 1.56409 0
M  V30 7947 C 747.688 -0.445789 1.97532 0
M  V30 7948 C 748.016 -1.61744 1.08024 0
M  V30 7949 O 747.271 -1.95338 0.118982 0
M  V30 7950 C 747.57 -0.949718 3.44551 0
M  V30 7951 C 747.236 0.108383 4.5077 0
M  V30 7952 C 745.898 0.399126 4.79542 0
M  V30 7953 C 748.25 0.825423 5.14622 0
M  V30 7954 C 745.578 1.41192 5.69457 0
M  V30 7955 C 747.93 1.82735 6.05632 0
M  V30 7956 C 746.594 2.12531 6.32761 0
M  V30 7957 H 745.864 -0.163126 0.722822 0
M  V30 7958 H 748.511 0.290035 1.89291 0
M  V30 7959 H 746.816 -1.76378 3.49854 0
M  V30 7960 H 748.513 -1.45367 3.73724 0
M  V30 7961 H 745.103 -0.128392 4.28408 0
M  V30 7962 H 749.287 0.61403 4.92487 0
M  V30 7963 H 744.543 1.6487 5.88751 0
M  V30 7964 H 748.717 2.3882 6.5417 0
M  V30 7965 H 746.344 2.91155 7.02234 0
M  V30 7966 N 747.919 -1.57396 -0.0801906 0
M  V30 7967 C 749.196 -1.77883 -0.813451 0
M  V30 7968 C 749.576 -0.778879 -1.96206 0
M  V30 7969 O 748.924 0.189683 -2.27711 0
M  V30 7970 C 749.134 -3.24116 -1.2942 0
M  V30 7971 C 750.482 -3.87714 -1.73098 0
M  V30 7972 O 751.506 -3.27956 -1.39007 0
M  V30 7973 O 750.365 -4.92828 -2.36184 0
M  V30 7974 H 747.459 -0.729727 -0.389138 0
M  V30 7975 H 750.005 -1.69591 -0.0609166 0
M  V30 7976 H 748.777 -3.88443 -0.471947 0
M  V30 7977 H 748.4 -3.371 -2.1083 0
M  V30 7978 N 749.397 0.351382 -1.53633 0
M  V30 7979 C 750.674 1.10903 -1.6112 0
M  V30 7980 C 751.054 2.06725 -0.427556 0
M  V30 7981 O 750.402 2.20992 0.580916 0
M  V30 7982 C 750.612 1.83561 -2.96827 0
M  V30 7983 C 751.96 2.37587 -3.51906 0
M  V30 7984 O 752.984 1.93669 -2.9895 0
M  V30 7985 O 751.843 3.17913 -4.44515 0
M  V30 7986 H 748.937 0.509558 -0.651368 0
M  V30 7987 H 751.483 0.353504 -1.65977 0
M  V30 7988 H 750.255 1.1371 -3.74414 0
M  V30 7989 H 749.878 2.6599 -2.95525 0
M  V30 7990 N 750.875 1.45233 0.611969 0
M  V30 7991 C 752.122 1.49021 1.37109 0
M  V30 7992 C 752.45 0.130227 1.94064 0
M  V30 7993 O 751.705 -0.870551 1.75271 0
M  V30 7994 C 752.004 2.51353 2.54079 0
M  V30 7995 C 751.67 3.96178 2.15299 0
M  V30 7996 C 750.332 4.35614 2.04436 0
M  V30 7997 C 752.684 4.87275 1.84966 0
M  V30 7998 C 750.012 5.64047 1.61456 0
M  V30 7999 C 752.364 6.16115 1.43474 0
M  V30 8000 C 751.028 6.54486 1.31167 0
M  V30 8001 H 750.298 0.545307 0.501719 0
M  V30 8002 H 752.945 1.78555 0.692122 0
M  V30 8003 H 751.25 2.15372 3.27295 0
M  V30 8004 H 752.947 2.51523 3.12309 0
M  V30 8005 H 749.537 3.6499 2.24678 0
M  V30 8006 H 753.721 4.57548 1.92258 0
M  V30 8007 H 748.977 5.92575 1.50547 0
M  V30 8008 H 753.151 6.86149 1.19048 0
M  V30 8009 H 750.778 7.53904 0.97637 0
M  V30 8010 N 752.353 -0.854086 1.3245 0
M  V30 8011 C 753.303 -1.9508 1.18016 0
M  V30 8012 C 754.287 -1.60665 0.0869417 0
M  V30 8013 O 755.479 -1.74201 0.313505 0
M  V30 8014 C 752.608 -3.3113 0.905961 0
M  V30 8015 C 751.694 -3.71763 2.04091 0
M  V30 8016 N 752.085 -3.84218 3.28953 0
M  V30 8017 C 750.383 -4.01393 1.94421 0
M  V30 8018 C 751.084 -4.192 4.03294 0
M  V30 8019 N 750.06 -4.30749 3.31596 0
M  V30 8020 H 753.862 -2.02843 2.12678 0
M  V30 8021 H 751.376 -1.04588 1.24238 0
M  V30 8022 H 753.373 -4.09471 0.783508 0
M  V30 8023 H 752.033 -3.24684 -0.0322715 0
M  V30 8024 H 753.044 -3.68524 3.63883 0
M  V30 8025 H 749.721 -4.03246 1.08162 0
M  V30 8026 H 751.111 -4.36301 5.1097 0
M  V30 8027 N 753.831 -1.1567 -1.07043 0
M  V30 8028 C 754.794 -0.858906 -2.12498 0
M  V30 8029 C 755.794 0.142735 -1.60165 0
M  V30 8030 O 756.984 -0.0872678 -1.73981 0
M  V30 8031 C 754.116 -0.283021 -3.39723 0
M  V30 8032 H 755.309 -1.79368 -2.40348 0
M  V30 8033 H 752.862 -0.964608 -1.22984 0
M  V30 8034 H 753.597 0.659796 -3.17517 0
M  V30 8035 H 753.382 -1.00467 -3.7901 0
M  V30 8036 H 754.872 -0.0923543 -4.17498 0
M  V30 8037 N 755.309 1.25446 -0.953992 0
M  V30 8038 C 756.272 2.24156 -0.478179 0
M  V30 8039 C 757.272 1.55278 0.417776 0
M  V30 8040 O 758.462 1.72866 0.215155 0
M  V30 8041 C 755.594 3.39495 0.309202 0
M  V30 8042 H 756.787 2.67764 -1.35064 0
M  V30 8043 H 754.34 1.37822 -0.737206 0
M  V30 8044 H 755.075 3.01307 1.19936 0
M  V30 8045 H 754.86 3.90679 -0.333562 0
M  V30 8046 H 756.35 4.12796 0.631594 0
M  V30 8047 N 756.787 0.722489 1.40064 0
M  V30 8048 C 757.75 0.0830209 2.2905 0
M  V30 8049 C 758.75 -0.680208 1.45705 0
M  V30 8050 O 759.94 -0.511084 1.66534 0
M  V30 8051 C 757.072 -0.892092 3.29021 0
M  V30 8052 H 758.265 0.866848 2.87099 0
M  V30 8053 H 755.818 0.487556 1.48501 0
M  V30 8054 H 756.553 -1.70273 2.76003 0
M  V30 8055 H 756.338 -0.34761 3.90556 0
M  V30 8056 H 757.828 -1.33648 3.95636 0
M  V30 8057 N 758.265 -1.50454 0.469181 0
M  V30 8058 C 759.175 -2.32248 -0.331349 0
M  V30 8059 C 760.191 -1.42548 -0.997807 0
M  V30 8060 O 761.367 -1.75602 -0.9862 0
M  V30 8061 C 758.432 -3.17171 -1.40012 0
M  V30 8062 C 757.493 -4.2269 -0.750463 0
M  V30 8063 C 756.726 -5.03554 -1.76831 0
M  V30 8064 O 756.949 -4.85469 -2.99459 0
M  V30 8065 O 755.883 -5.86767 -1.3412 0
M  V30 8066 H 759.709 -3.01821 0.337279 0
M  V30 8067 H 757.294 -1.47602 0.231066 0
M  V30 8068 H 759.176 -3.69871 -2.01924 0
M  V30 8069 H 757.851 -2.50328 -2.05226 0
M  V30 8070 H 756.758 -3.73986 -0.0924446 0
M  V30 8071 H 758.091 -4.91997 -0.14131 0
M  V30 8072 N 759.743 -0.201713 -1.56304 0
M  V30 8073 C 760.973 0.440084 -2.01858 0
M  V30 8074 C 761.381 1.55279 -1.08098 0
M  V30 8075 O 760.724 1.83529 -0.0792216 0
M  V30 8076 C 760.786 1.05091 -3.43797 0
M  V30 8077 C 760.45 0.0761208 -4.56937 0
M  V30 8078 C 761.447 -0.716951 -5.14933 0
M  V30 8079 C 759.132 -0.0368815 -5.02286 0
M  V30 8080 C 761.126 -1.60993 -6.16733 0
M  V30 8081 C 758.813 -0.933409 -6.03929 0
M  V30 8082 C 759.811 -1.71849 -6.61027 0
M  V30 8083 O 759.499 -2.59998 -7.60695 0
M  V30 8084 H 759.231 0.114139 -0.666294 0
M  V30 8085 H 761.785 -0.309672 -2.03052 0
M  V30 8086 H 760.015 1.84938 -3.3961 0
M  V30 8087 H 761.704 1.59804 -3.73118 0
M  V30 8088 H 762.47 -0.63999 -4.80759 0
M  V30 8089 H 758.349 0.564034 -4.57537 0
M  V30 8090 H 761.893 -2.22315 -6.61227 0
M  V30 8091 H 757.79 -1.01146 -6.37526 0
M  V30 8092 H 758.558 -2.53851 -7.7814 0
M  V30 8093 N 761.222 1.57436 0.0718424 0
M  V30 8094 C 762.152 2.06724 1.08571 0
M  V30 8095 C 763.133 0.960731 1.40371 0
M  V30 8096 O 764.318 1.23345 1.49999 0
M  V30 8097 C 761.448 2.51112 2.39916 0
M  V30 8098 C 760.402 3.65639 2.22469 0
M  V30 8099 C 759.728 3.96082 3.59198 0
M  V30 8100 C 761.028 4.95687 1.64596 0
M  V30 8101 H 762.722 2.91679 0.675569 0
M  V30 8102 H 760.268 1.40319 0.32352 0
M  V30 8103 H 762.221 2.84206 3.11135 0
M  V30 8104 H 760.945 1.63186 2.8291 0
M  V30 8105 H 759.604 3.32828 1.53691 0
M  V30 8106 H 759.252 3.05287 3.99761 0
M  V30 8107 H 758.952 4.73199 3.48362 0
M  V30 8108 H 760.476 4.31672 4.31847 0
M  V30 8109 H 761.89 5.27011 2.25681 0
M  V30 8110 H 760.287 5.77126 1.64457 0
M  V30 8111 H 761.357 4.8108 0.60744 0
M  V30 8112 N 762.7 -0.34323 1.53817 0
M  V30 8113 C 763.946 -1.08504 1.71332 0
M  V30 8114 C 764.279 -1.88294 0.475285 0
M  V30 8115 O 763.554 -1.87205 -0.527688 0
M  V30 8116 C 763.837 -2.02597 2.97702 0
M  V30 8117 C 763.69 -1.26268 4.31713 0
M  V30 8118 C 765.009 -3.0241 3.19744 0
M  V30 8119 H 762.128 -0.393072 0.623429 0
M  V30 8120 H 764.77 -0.363579 1.86489 0
M  V30 8121 H 762.92 -2.64118 2.8491 0
M  V30 8122 H 764.592 -0.673594 4.56356 0
M  V30 8123 H 762.835 -0.564696 4.30109 0
M  V30 8124 H 763.506 -1.95253 5.16314 0
M  V30 8125 H 765.982 -2.51004 3.31868 0
M  V30 8126 H 764.858 -3.65449 4.09558 0
M  V30 8127 H 765.119 -3.73806 2.36054 0
M  V30 8128 N 764.178 -1.45556 -0.604258 0
M  V30 8129 C 765.11 -1.50494 -1.72871 0
M  V30 8130 C 766.123 -0.395368 -1.57926 0
M  V30 8131 O 767.312 -0.662603 -1.65746 0
M  V30 8132 C 764.412 -1.34874 -3.10906 0
M  V30 8133 C 763.585 -2.59564 -3.52058 0
M  V30 8134 C 762.644 -2.38453 -4.6907 0
M  V30 8135 O 761.67 -3.12082 -4.76018 0
M  V30 8136 N 762.872 -1.43229 -5.62553 0
M  V30 8137 H 765.637 -2.4744 -1.69097 0
M  V30 8138 H 763.198 -1.41338 -0.789636 0
M  V30 8139 H 765.19 -1.18556 -3.86945 0
M  V30 8140 H 763.76 -0.461913 -3.09168 0
M  V30 8141 H 762.98 -2.90974 -2.65946 0
M  V30 8142 H 764.268 -3.42441 -3.76313 0
M  V30 8143 H 763.666 -0.824714 -5.59656 0
M  V30 8144 H 762.223 -1.32882 -6.38111 0
M  V30 8145 N 765.656 0.84705 -1.32902 0
M  V30 8146 C 766.588 1.96308 -1.18304 0
M  V30 8147 C 767.601 1.62386 -0.116082 0
M  V30 8148 O 768.79 1.74713 -0.365751 0
M  V30 8149 C 765.89 3.29556 -0.790305 0
M  V30 8150 C 765.063 3.91668 -1.94717 0
M  V30 8151 C 764.122 5.0326 -1.53674 0
M  V30 8152 O 763.148 5.22847 -2.24989 0
M  V30 8153 N 764.35 5.78852 -0.437075 0
M  V30 8154 H 767.115 2.09369 -2.14441 0
M  V30 8155 H 764.676 1.02233 -1.25539 0
M  V30 8156 H 766.668 4.01624 -0.49799 0
M  V30 8157 H 765.238 3.12497 0.0801286 0
M  V30 8158 H 764.458 3.12292 -2.40557 0
M  V30 8159 H 765.746 4.299 -2.72146 0
M  V30 8160 H 765.144 5.65484 0.156316 0
M  V30 8161 H 763.701 6.51479 -0.204399 0
M  V30 8162 N 767.134 1.16236 1.06428 0
M  V30 8163 C 768.081 0.86769 2.13869 0
M  V30 8164 C 769.051 -0.183298 1.65086 0
M  V30 8165 O 770.236 -0.0488002 1.90738 0
M  V30 8166 C 767.376 0.373427 3.43074 0
M  V30 8167 C 766.489 1.48708 4.05598 0
M  V30 8168 C 765.624 0.947977 5.22673 0
M  V30 8169 C 764.663 2.03793 5.77178 0
M  V30 8170 N 763.8 1.51451 6.85571 0
M  V30 8171 H 768.64 1.78781 2.38414 0
M  V30 8172 H 766.177 0.891892 1.16977 0
M  V30 8173 H 768.135 0.0685035 4.17144 0
M  V30 8174 H 766.765 -0.509752 3.1875 0
M  V30 8175 H 765.817 1.908 3.29089 0
M  V30 8176 H 767.129 2.30964 4.42105 0
M  V30 8177 H 766.283 0.596154 6.03764 0
M  V30 8178 H 765.022 0.0947081 4.87608 0
M  V30 8179 H 764.027 2.39847 4.94726 0
M  V30 8180 H 765.252 2.89514 6.14295 0
M  V30 8181 H 763.198 0.683755 6.52427 0
M  V30 8182 H 763.115 2.27325 7.21013 0
M  V30 8183 H 764.383 1.19123 7.70344 0
M  V30 8184 N 768.612 -1.24939 0.960631 0
M  V30 8185 C 769.842 -1.96595 0.635123 0
M  V30 8186 C 770.25 -1.71538 -0.798206 0
M  V30 8187 O 769.593 -0.991727 -1.5463 0
M  V30 8188 C 769.655 -3.49994 0.821248 0
M  V30 8189 C 769.319 -3.98738 2.23287 0
M  V30 8190 C 770.316 -4.08965 3.21004 0
M  V30 8191 C 768.001 -4.32247 2.55867 0
M  V30 8192 C 769.995 -4.52025 4.49391 0
M  V30 8193 C 767.682 -4.74991 3.84482 0
M  V30 8194 C 768.68 -4.84844 4.81056 0
M  V30 8195 O 768.368 -5.26638 6.07378 0
M  V30 8196 H 768.1 -0.633265 0.23654 0
M  V30 8197 H 770.654 -1.5991 1.28911 0
M  V30 8198 H 768.884 -3.86543 0.110105 0
M  V30 8199 H 770.573 -4.02859 0.495892 0
M  V30 8200 H 771.339 -3.83302 2.97161 0
M  V30 8201 H 767.218 -4.23801 1.81421 0
M  V30 8202 H 770.762 -4.5963 5.24773 0
M  V30 8203 H 766.659 -5.00101 4.08129 0
M  V30 8204 H 767.427 -5.44807 6.10842 0
M  V30 8205 N 770.09 -0.729906 -1.39679 0
M  V30 8206 C 771.318 -0.285709 -2.04918 0
M  V30 8207 C 771.733 1.07765 -1.55023 0
M  V30 8208 O 771.09 1.67999 -0.712923 0
M  V30 8209 C 771.141 -0.272793 -3.60469 0
M  V30 8210 O 770.862 -1.58233 -4.08527 0
M  V30 8211 C 772.363 0.188199 -4.429 0
M  V30 8212 H 769.583 -0.125758 -0.65911 0
M  V30 8213 H 772.127 -0.992129 -1.78821 0
M  V30 8214 H 770.282 0.384699 -3.85485 0
M  V30 8215 H 770.696 -1.49245 -5.02818 0
M  V30 8216 H 772.17 0.14608 -5.51807 0
M  V30 8217 H 772.647 1.2326 -4.21549 0
M  V30 8218 H 773.253 -0.439541 -4.23023 0
M  V30 8219 N 771.568 1.50203 -0.477153 0
M  V30 8220 C 772.5 2.26508 0.350239 0
M  V30 8221 C 773.513 1.32081 0.95176 0
M  V30 8222 O 774.702 1.57546 0.839139 0
M  V30 8223 C 771.802 3.0361 1.50579 0
M  V30 8224 C 770.975 4.25438 1.01595 0
M  V30 8225 C 770.034 4.84783 2.04626 0
M  V30 8226 O 769.06 5.45528 1.62442 0
M  V30 8227 N 770.262 4.72318 3.37485 0
M  V30 8228 H 773.027 2.98155 -0.30394 0
M  V30 8229 H 770.588 1.58938 -0.308289 0
M  V30 8230 H 772.58 3.4019 2.1921 0
M  V30 8231 H 771.15 2.34724 2.06455 0
M  V30 8232 H 770.37 3.93894 0.155316 0
M  V30 8233 H 771.658 5.04413 0.666694 0
M  V30 8234 H 771.056 4.24022 3.74462 0
M  V30 8235 H 769.613 5.13149 4.01897 0
M  V30 8236 N 773.046 0.209999 1.56195 0
M  V30 8237 C 774.457 -0.299943 1.84275 0
M  V30 8238 C 774.808 -1.60314 1.1311 0
M  V30 8239 O 773.933 -2.1273 0.396874 0
M  V30 8240 C 774.528 -0.550986 3.3429 0
M  V30 8241 C 773.087 -1.00526 3.62728 0
M  V30 8242 C 772.234 -0.0619828 2.77231 0
M  V30 8243 H 775.185 0.433458 1.52666 0
M  V30 8244 H 775.206 -1.39846 3.53869 0
M  V30 8245 H 774.718 0.397669 3.86057 0
M  V30 8246 H 772.819 -1.96768 3.16407 0
M  V30 8247 H 772.932 -0.887664 4.70805 0
M  V30 8248 H 771.296 -0.566648 2.48317 0
M  V30 8249 H 772.079 0.881383 3.31793 0
M  V30 8250 N 774.524 -1.57472 -0.0634922 0
M  V30 8251 C 775.471 -2.04258 -1.07457 0
M  V30 8252 C 776.441 -0.924804 -1.37973 0
M  V30 8253 O 777.626 -1.19305 -1.48899 0
M  V30 8254 C 774.766 -2.49832 -2.38071 0
M  V30 8255 C 773.879 -3.75263 -2.14014 0
M  V30 8256 C 773.014 -4.09585 -3.38251 0
M  V30 8257 C 772.053 -5.28032 -3.09594 0
M  V30 8258 N 771.19 -5.57953 -4.26185 0
M  V30 8259 H 776.03 -2.90402 -0.668626 0
M  V30 8260 H 773.567 -1.43609 -0.318572 0
M  V30 8261 H 775.525 -2.7431 -3.14341 0
M  V30 8262 H 774.155 -1.66654 -2.76453 0
M  V30 8263 H 773.207 -3.58075 -1.28399 0
M  V30 8264 H 774.519 -4.61667 -1.88852 0
M  V30 8265 H 773.673 -4.35008 -4.2291 0
M  V30 8266 H 772.412 -3.21765 -3.66495 0
M  V30 8267 H 771.417 -5.02397 -2.23332 0
M  V30 8268 H 772.642 -6.17477 -2.82663 0
M  V30 8269 H 770.588 -4.73092 -4.54445 0
M  V30 8270 H 770.505 -6.38793 -4.04326 0
M  V30 8271 H 771.773 -5.87931 -5.11817 0
M  V30 8272 N 776.003 0.335068 -1.53997 0
M  V30 8273 C 777.419 0.678704 -1.4445 0
M  V30 8274 C 777.619 1.92106 -0.608078 0
M  V30 8275 O 776.675 2.52292 -0.102373 0
M  V30 8276 C 777.988 0.863435 -2.88037 0
M  V30 8277 C 779.536 0.961513 -2.97866 0
M  V30 8278 C 780.011 1.1785 -4.42578 0
M  V30 8279 N 781.502 1.2455 -4.46141 0
M  V30 8280 C 782.237 1.43106 -5.55255 0
M  V30 8281 N 781.733 1.5878 -6.74359 0
M  V30 8282 N 783.526 1.45722 -5.42883 0
M  V30 8283 H 775.677 -0.481656 -2.06867 0
M  V30 8284 H 777.94 -0.153615 -0.935471 0
M  V30 8285 H 777.646 0.0219511 -3.51693 0
M  V30 8286 H 777.52 1.76268 -3.33481 0
M  V30 8287 H 779.907 1.79351 -2.34344 0
M  V30 8288 H 779.988 0.0389862 -2.5577 0
M  V30 8289 H 779.632 0.351397 -5.06683 0
M  V30 8290 H 779.562 2.11472 -4.82273 0
M  V30 8291 H 782.053 1.13928 -3.60318 0
M  V30 8292 H 782.366 1.72599 -7.53279 0
M  V30 8293 H 780.711 1.559 -6.77289 0
M  V30 8294 H 783.902 1.33065 -4.48789 0
M  V30 8295 H 784.075 1.59841 -6.27977 0
M  V30 8296 N 777.481 1.45874 0.596531 0
M  V30 8297 C 778.411 1.5824 1.71705 0
M  V30 8298 C 779.392 0.433366 1.64487 0
M  V30 8299 O 780.577 0.657895 1.82717 0
M  V30 8300 C 777.707 1.55927 3.10329 0
M  V30 8301 C 776.661 2.69659 3.32367 0
M  V30 8302 C 775.987 2.52403 4.71377 0
M  V30 8303 C 777.287 4.11591 3.21544 0
M  V30 8304 H 778.981 2.52035 1.61613 0
M  V30 8305 H 776.527 1.21297 0.776082 0
M  V30 8306 H 778.48 1.63173 3.88526 0
M  V30 8307 H 777.204 0.586674 3.21288 0
M  V30 8308 H 775.863 2.61859 2.56564 0
M  V30 8309 H 775.511 1.53258 4.79083 0
M  V30 8310 H 775.211 3.28679 4.87077 0
M  V30 8311 H 776.735 2.6152 5.5176 0
M  V30 8312 H 778.149 4.20576 3.89601 0
M  V30 8313 H 776.546 4.88344 3.4877 0
M  V30 8314 H 777.616 4.32719 2.1882 0
M  V30 8315 N 778.959 -0.83999 1.33349 0
M  V30 8316 C 779.922 -1.93128 1.23426 0
M  V30 8317 C 780.922 -1.60065 0.153599 0
M  V30 8318 O 782.112 -1.69425 0.405049 0
M  V30 8319 C 779.244 -3.28761 0.901622 0
M  V30 8320 H 780.437 -2.03352 2.20427 0
M  V30 8321 H 777.99 -1.03194 1.17391 0
M  V30 8322 H 778.725 -3.24233 -0.0659337 0
M  V30 8323 H 778.51 -3.54138 1.68311 0
M  V30 8324 H 780 -4.08714 0.856913 0
M  V30 8325 N 780.437 -1.16799 -1.0581 0
M  V30 8326 C 781.686 -0.94698 -1.78088 0
M  V30 8327 C 781.999 0.526016 -1.88394 0
M  V30 8328 O 783.205 0.865061 -2.5735 0
M  V30 8329 C 781.661 -1.64508 -3.20102 0
M  V30 8330 C 781.269 -3.15618 -3.17946 0
M  V30 8331 C 783.013 -1.50622 -3.96879 0
M  V30 8332 C 780.92 -3.78144 -4.5471 0
M  V30 8333 H 779.85 -0.35067 -0.667493 0
M  V30 8334 H 782.501 -1.39985 -1.18645 0
M  V30 8335 H 780.883 -1.11993 -3.79834 0
M  V30 8336 H 782.057 -3.75016 -2.67768 0
M  V30 8337 H 780.372 -3.29444 -2.54667 0
M  V30 8338 H 782.969 -1.94713 -4.97987 0
M  V30 8339 H 783.312 -0.455864 -4.13797 0
M  V30 8340 H 783.845 -2.00319 -3.43682 0
M  V30 8341 H 780.584 -4.83149 -4.42998 0
M  V30 8342 H 780.104 -3.23532 -5.05062 0
M  V30 8343 H 781.783 -3.79986 -5.2366 0
M  V30 8344 N 781.915 1.24427 -0.967243 0
M  V30 8345 C 783.145 1.96256 -0.64554 0
M  V30 8346 C 783.553 1.71959 0.789098 0
M  V30 8347 O 782.896 0.999913 1.54102 0
M  V30 8348 C 782.958 3.49553 -0.839798 0
M  V30 8349 C 782.622 3.97548 -2.25399 0
M  V30 8350 C 783.619 4.07257 -3.23168 0
M  V30 8351 C 781.304 4.30884 -2.58156 0
M  V30 8352 C 783.298 4.49635 -4.51782 0
M  V30 8353 C 780.985 4.72946 -3.86996 0
M  V30 8354 C 781.983 4.82286 -4.83621 0
M  V30 8355 O 781.671 5.23409 -6.10162 0
M  V30 8356 H 781.403 0.632002 -0.239895 0
M  V30 8357 H 783.957 1.59224 -1.29757 0
M  V30 8358 H 782.187 3.86479 -0.130603 0
M  V30 8359 H 783.876 4.02591 -0.517249 0
M  V30 8360 H 784.642 3.8172 -2.9919 0
M  V30 8361 H 780.521 4.22833 -1.83666 0
M  V30 8362 H 784.065 4.5684 -5.27203 0
M  V30 8363 H 779.962 4.9793 -4.10775 0
M  V30 8364 H 780.73 5.4156 -6.13722 0
M  V30 8365 N 783.393 0.737304 1.3929 0
M  V30 8366 C 784.641 0.285691 2.00071 0
M  V30 8367 C 784.962 -1.13169 1.58801 0
M  V30 8368 O 784.232 -1.77104 0.837308 0
M  V30 8369 H 782.812 0.102638 0.739915 0
M  V30 8370 H 785.474 0.947775 1.70303 0
M  V30 8371 H 784.57 0.335906 3.10287 0
M  V30 8372 N 784.871 -1.49948 0.485112 0
M  V30 8373 C 786.119 -2.01996 -0.0648775 0
M  V30 8374 C 786.44 -1.36819 -1.38945 0
M  V30 8375 O 785.71 -0.518163 -1.88923 0
M  V30 8376 H 784.29 -0.746513 -0.0269662 0
M  V30 8377 H 786.952 -1.84136 0.638733 0
M  V30 8378 H 786.048 -3.11418 -0.20617 0
M  V30 8379 N 786.349 -0.21828 -1.56081 0
M  V30 8380 C 787.574 0.422302 -2.03055 0
M  V30 8381 C 787.999 1.5279 -1.09713 0
M  V30 8382 O 787.357 1.81102 -0.0847187 0
M  V30 8383 C 787.405 0.934177 -3.48289 0
M  V30 8384 O 786.509 2.04574 -3.58083 0
M  V30 8385 H 785.85 0.0959764 -0.657027 0
M  V30 8386 H 788.38 -0.335958 -2.01823 0
M  V30 8387 H 788.39 1.24484 -3.88546 0
M  V30 8388 H 787.065 0.124963 -4.15712 0
M  V30 8389 H 785.642 1.74196 -3.29712 0
M  V30 8390 N 787.827 1.57504 0.0551401 0
M  V30 8391 C 788.775 2.05884 1.08233 0
M  V30 8392 C 789.769 0.967383 1.39061 0
M  V30 8393 O 790.975 1.15242 1.38273 0
M  V30 8394 H 787.35 0.656673 0.366449 0
M  V30 8395 H 789.321 2.91273 0.648269 0
M  V30 8396 C 788.07 2.53221 2.38273 0
M  V30 8397 H 787.393 3.36809 2.15406 0
M  V30 8398 H 788.833 2.9081 3.08554 0
M  V30 8399 C 787.292 1.42218 3.05411 0
M  V30 8400 O 787.822 0.773638 3.9418 0
M  V30 8401 N 786.028 1.16316 2.66306 0
M  V30 8402 H 785.575 1.69237 1.94207 0
M  V30 8403 H 785.533 0.422534 3.11548 0
M  V30 8404 N 789.305 -0.326896 1.54172 0
M  V30 8405 C 790.553 -1.06313 1.71878 0
M  V30 8406 C 790.874 -1.88652 0.493498 0
M  V30 8407 O 790.144 -1.89608 -0.492522 0
M  V30 8408 H 788.724 -0.39549 0.633716 0
M  V30 8409 H 791.386 -0.364139 1.91468 0
M  V30 8410 H 790.482 -1.73105 2.59694 0
M  V30 8411 N 790.784 -1.46188 -0.588786 0
M  V30 8412 C 792.032 -1.50885 -1.34455 0
M  V30 8413 C 792.353 -0.159555 -1.94346 0
M  V30 8414 O 791.623 0.813239 -1.78222 0
M  V30 8415 H 790.203 -0.555707 -0.499198 0
M  V30 8416 H 792.865 -1.82277 -0.690014 0
M  V30 8417 H 791.961 -2.25816 -2.15438 0
M  V30 8418 N 792.262 0.832906 -1.33792 0
M  V30 8419 C 793.192 1.95828 -1.27176 0
M  V30 8420 C 794.173 1.69427 -0.15114 0
M  V30 8421 O 795.358 1.91167 -0.341886 0
M  V30 8422 C 792.488 3.32098 -1.01629 0
M  V30 8423 C 791.442 3.72912 -2.10049 0
M  V30 8424 C 790.768 5.07054 -1.69706 0
M  V30 8425 C 792.068 3.86064 -3.51783 0
M  V30 8426 H 793.762 2.01622 -2.21334 0
M  V30 8427 H 791.308 0.96866 -1.0655 0
M  V30 8428 H 793.261 4.10402 -0.956474 0
M  V30 8429 H 791.985 3.26577 -0.0390956 0
M  V30 8430 H 790.644 2.96876 -2.15082 0
M  V30 8431 H 790.292 4.9801 -0.706737 0
M  V30 8432 H 789.992 5.35333 -2.42264 0
M  V30 8433 H 791.516 5.87827 -1.65202 0
M  V30 8434 H 792.93 4.54665 -3.49218 0
M  V30 8435 H 791.327 4.25787 -4.22878 0
M  V30 8436 H 792.397 2.88344 -3.89854 0
M  V30 8437 N 793.74 1.17359 1.05189 0
M  V30 8438 C 794.67 0.91365 2.14883 0
M  V30 8439 C 795.651 -0.144365 1.69486 0
M  V30 8440 O 796.836 0.00587861 1.94199 0
M  V30 8441 C 793.966 0.426196 3.44675 0
M  V30 8442 C 792.92 1.4234 4.03638 0
M  V30 8443 C 792.246 0.793902 5.28773 0
M  V30 8444 C 793.546 2.7966 4.41121 0
M  V30 8445 H 795.24 1.831 2.36885 0
M  V30 8446 H 792.786 0.881781 1.13845 0
M  V30 8447 H 794.739 0.231767 4.20762 0
M  V30 8448 H 793.463 -0.526693 3.22325 0
M  V30 8449 H 792.122 1.60457 3.2962 0
M  V30 8450 H 791.77 -0.165824 5.02727 0
M  V30 8451 H 791.47 1.45959 5.69183 0
M  V30 8452 H 792.994 0.609747 6.07548 0
M  V30 8453 H 794.408 2.6526 5.08242 0
M  V30 8454 H 792.805 3.42807 4.92548 0
M  V30 8455 H 793.875 3.34068 3.51464 0
M  V30 8456 N 795.218 -1.23913 0.973828 0
M  V30 8457 C 796.464 -1.92436 0.640026 0
M  V30 8458 C 796.797 -1.75875 -0.823512 0
M  V30 8459 O 796.072 -1.11563 -1.59323 0
M  V30 8460 C 796.355 -3.4526 1.0231 0
M  V30 8461 C 796.208 -3.70961 2.54378 0
M  V30 8462 C 797.527 -4.36495 0.562155 0
M  V30 8463 H 794.646 -0.698868 0.233992 0
M  V30 8464 H 797.288 -1.46163 1.21393 0
M  V30 8465 H 795.438 -3.84802 0.534751 0
M  V30 8466 H 797.11 -3.40941 3.10737 0
M  V30 8467 H 795.353 -3.15899 2.97305 0
M  V30 8468 H 796.024 -4.77912 2.76232 0
M  V30 8469 H 798.5 -4.04363 0.981333 0
M  V30 8470 H 797.376 -5.42142 0.858689 0
M  V30 8471 H 797.637 -4.38818 -0.537659 0
M  V30 8472 N 796.696 -0.74468 -1.38897 0
M  V30 8473 C 797.944 -0.296298 -1.99916 0
M  V30 8474 C 798.265 1.12325 -1.59399 0
M  V30 8475 O 797.535 1.76658 -0.846689 0
M  V30 8476 H 796.115 -0.106561 -0.73936 0
M  V30 8477 H 798.777 -0.956793 -1.69798 0
M  V30 8478 H 797.873 -0.352356 -3.10105 0
M  V30 8479 N 798.174 1.49689 -0.493057 0
M  V30 8480 C 799.137 2.27502 0.278485 0
M  V30 8481 C 800.137 1.33184 0.901037 0
M  V30 8482 O 801.327 1.56415 0.766801 0
M  V30 8483 C 798.459 3.10881 1.39878 0
M  V30 8484 H 799.652 2.97163 -0.404219 0
M  V30 8485 H 797.205 1.54324 -0.247774 0
M  V30 8486 H 797.94 2.45767 2.11587 0
M  V30 8487 H 797.725 3.80219 0.957924 0
M  V30 8488 H 799.215 3.69673 1.94247 0
M  V30 8489 N 799.652 0.226554 1.55963 0
M  V30 8490 C 800.615 -0.668015 2.19249 0
M  V30 8491 C 801.615 -1.11794 1.1558 0
M  V30 8492 O 802.805 -1.02593 1.40784 0
M  V30 8493 C 799.937 -1.91571 2.81981 0
M  V30 8494 H 801.13 -0.116175 2.99675 0
M  V30 8495 H 798.683 -0.0230497 1.56283 0
M  V30 8496 H 799.418 -2.50929 2.05439 0
M  V30 8497 H 799.203 -1.6015 3.57903 0
M  V30 8498 H 800.693 -2.55294 3.30477 0
M  V30 8499 N 801.13 -1.57531 -0.0467866 0
M  V30 8500 C 802.063 -2.00734 -1.08541 0
M  V30 8501 C 803.041 -0.888508 -1.36177 0
M  V30 8502 O 804.225 -1.1529 -1.49132 0
M  V30 8503 C 801.352 -2.36535 -2.42423 0
M  V30 8504 C 800.398 -3.58681 -2.3076 0
M  V30 8505 S 801.231 -5.08536 -1.67785 0
M  V30 8506 C 802.387 -5.47562 -3.03194 0
M  V30 8507 H 802.62 -2.88516 -0.717345 0
M  V30 8508 H 800.153 -1.5226 -0.256181 0
M  V30 8509 H 802.111 -2.57834 -3.19424 0
M  V30 8510 H 800.772 -1.49236 -2.76382 0
M  V30 8511 H 799.965 -3.81329 -3.29552 0
M  V30 8512 H 799.567 -3.37142 -1.61899 0
M  V30 8513 H 801.859 -5.47163 -3.99524 0
M  V30 8514 H 802.802 -6.48082 -2.85299 0
M  V30 8515 H 803.21 -4.75042 -3.04951 0
M  V30 8516 N 802.608 0.318715 -1.54344 0
M  V30 8517 C 803.836 1.0755 -1.7675 0
M  V30 8518 C 804.251 1.81543 -0.518422 0
M  V30 8519 O 803.608 1.75198 0.511078 0
M  V30 8520 C 803.659 2.06983 -2.96378 0
M  V30 8521 O 803.38 1.35995 -4.16458 0
M  V30 8522 C 804.881 2.94841 -3.31034 0
M  V30 8523 H 802.101 0.319711 -0.589937 0
M  V30 8524 H 804.645 0.363369 -2.01246 0
M  V30 8525 H 802.8 2.73724 -2.74142 0
M  V30 8526 H 803.214 2.02623 -4.83781 0
M  V30 8527 H 804.688 3.60496 -4.18027 0
M  V30 8528 H 805.165 3.62199 -2.48412 0
M  V30 8529 H 805.771 2.33656 -3.55366 0
M  V30 8530 N 804.086 1.46499 0.581025 0
M  V30 8531 C 805.018 1.53225 1.70455 0
M  V30 8532 C 806.031 0.420443 1.57277 0
M  V30 8533 O 807.22 0.688888 1.64671 0
M  V30 8534 C 804.32 1.39803 3.08721 0
M  V30 8535 C 803.493 2.65132 3.47884 0
M  V30 8536 C 802.552 2.45886 4.65217 0
M  V30 8537 O 801.578 3.19615 4.70993 0
M  V30 8538 N 802.78 1.5216 5.60203 0
M  V30 8539 H 805.545 2.50098 1.65139 0
M  V30 8540 H 803.106 1.42576 0.76705 0
M  V30 8541 H 805.098 1.24697 3.8501 0
M  V30 8542 H 803.668 0.51104 3.08394 0
M  V30 8543 H 802.888 2.95169 2.61284 0
M  V30 8544 H 804.176 3.48385 3.70817 0
M  V30 8545 H 803.574 0.913646 5.58273 0
M  V30 8546 H 802.131 1.43017 6.35916 0
M  V30 8547 N 805.565 -0.825799 1.34232 0
M  V30 8548 C 806.981 -1.11848 1.13851 0
M  V30 8549 C 807.181 -2.01405 -0.0619031 0
M  V30 8550 O 806.237 -2.41465 -0.738287 0
M  V30 8551 C 807.55 -1.76797 2.43235 0
M  V30 8552 C 809.098 -1.89304 2.49265 0
M  V30 8553 C 809.573 -2.57669 3.78643 0
M  V30 8554 N 811.064 -2.65171 3.79788 0
M  V30 8555 C 811.799 -3.1879 4.76614 0
M  V30 8556 N 811.295 -3.72995 5.83821 0
M  V30 8557 N 813.088 -3.17164 4.64073 0
M  V30 8558 H 805.239 -0.230049 2.11151 0
M  V30 8559 H 807.502 -0.164609 0.9336 0
M  V30 8560 H 807.208 -1.18455 3.31152 0
M  V30 8561 H 807.082 -2.76693 2.56361 0
M  V30 8562 H 809.469 -2.46796 1.6179 0
M  V30 8563 H 809.55 -0.883191 2.4007 0
M  V30 8564 H 809.194 -2.00833 4.66507 0
M  V30 8565 H 809.124 -3.59152 3.8512 0
M  V30 8566 H 811.615 -2.26746 3.02315 0
M  V30 8567 H 811.928 -4.12151 6.53721 0
M  V30 8568 H 810.273 -3.71246 5.87538 0
M  V30 8569 H 813.464 -2.74082 3.79469 0
M  V30 8570 H 813.637 -3.58647 5.397 0
M  V30 8571 N 807.043 -1.17915 -1.04565 0
M  V30 8572 C 808.454 -0.976383 -1.59134 0
M  V30 8573 C 808.805 0.475267 -1.90357 0
M  V30 8574 O 807.93 1.35172 -1.6899 0
M  V30 8575 C 808.525 -1.76604 -2.89131 0
M  V30 8576 C 807.084 -1.60777 -3.40335 0
M  V30 8577 C 806.231 -1.76369 -2.13985 0
M  V30 8578 H 809.182 -1.32532 -0.872985 0
M  V30 8579 H 809.203 -1.25215 -3.59307 0
M  V30 8580 H 808.715 -2.82252 -2.66375 0
M  V30 8581 H 806.816 -0.576436 -3.68114 0
M  V30 8582 H 806.929 -2.40268 -4.14497 0
M  V30 8583 H 805.293 -1.19268 -2.25049 0
M  V30 8584 H 806.076 -2.83441 -1.9369 0
M  V30 8585 N 808.521 1.23394 -0.980386 0
M  V30 8586 C 809.431 2.28561 -0.528864 0
M  V30 8587 C 810.447 1.68946 0.416329 0
M  V30 8588 O 811.623 1.99355 0.286251 0
M  V30 8589 C 808.688 3.46323 0.16155 0
M  V30 8590 C 807.749 4.21297 -0.825044 0
M  V30 8591 C 806.982 5.33437 -0.167483 0
M  V30 8592 O 807.205 5.60812 1.04146 0
M  V30 8593 O 806.139 5.95637 -0.866047 0
M  V30 8594 H 809.965 2.69326 -1.40346 0
M  V30 8595 H 807.55 1.29325 -0.748019 0
M  V30 8596 H 809.432 4.17811 0.548841 0
M  V30 8597 H 808.107 3.0751 1.01092 0
M  V30 8598 H 807.014 3.52134 -1.26303 0
M  V30 8599 H 808.347 4.6396 -1.64322 0
M  V30 8600 N 809.999 0.752036 1.385 0
M  V30 8601 C 810.929 0.138718 2.33088 0
M  V30 8602 C 811.91 -0.705318 1.54788 0
M  V30 8603 O 813.095 -0.646821 1.83112 0
M  V30 8604 C 810.225 -0.75641 3.38963 0
M  V30 8605 C 809.179 -0.0152239 4.27997 0
M  V30 8606 C 808.505 -1.0285 5.24715 0
M  V30 8607 C 809.805 1.15226 5.09431 0
M  V30 8608 H 811.499 0.928852 2.84627 0
M  V30 8609 H 809.045 0.448111 1.3685 0
M  V30 8610 H 810.998 -1.19513 4.04097 0
M  V30 8611 H 809.722 -1.57885 2.85902 0
M  V30 8612 H 808.381 0.404061 3.64366 0
M  V30 8613 H 808.029 -1.84496 4.67943 0
M  V30 8614 H 807.729 -0.537238 5.85139 0
M  V30 8615 H 809.253 -1.46657 5.92726 0
M  V30 8616 H 810.667 0.791161 5.67815 0
M  V30 8617 H 809.064 1.57428 5.79082 0
M  V30 8618 H 810.134 1.9659 4.43261 0
M  V30 8619 N 811.477 -1.49425 0.500989 0
M  V30 8620 C 812.707 -2.06561 -0.0402858 0
M  V30 8621 C 813.115 -1.36157 -1.31369 0
M  V30 8622 O 812.458 -0.433618 -1.78509 0
M  V30 8623 C 812.52 -3.5765 -0.364269 0
M  V30 8624 C 812.184 -4.49739 0.811417 0
M  V30 8625 C 813.181 -4.91255 1.7019 0
M  V30 8626 C 810.866 -4.92036 1.01022 0
M  V30 8627 C 812.86 -5.73806 2.77534 0
M  V30 8628 C 810.547 -5.74364 2.08683 0
M  V30 8629 C 811.545 -6.15154 2.96774 0
M  V30 8630 O 811.233 -6.95836 4.02577 0
M  V30 8631 H 810.965 -0.67578 0.0172357 0
M  V30 8632 H 813.519 -1.93193 0.697553 0
M  V30 8633 H 811.749 -3.69026 -1.1557 0
M  V30 8634 H 813.438 -3.97025 -0.844156 0
M  V30 8635 H 814.204 -4.59222 1.56013 0
M  V30 8636 H 810.083 -4.59789 0.333929 0
M  V30 8637 H 813.627 -6.05564 3.4632 0
M  V30 8638 H 809.524 -6.0581 2.22855 0
M  V30 8639 H 810.292 -7.14142 3.9993 0
M  V30 8640 N 812.955 -0.234822 -1.55841 0
M  V30 8641 C 814.203 0.392483 -1.98252 0
M  V30 8642 C 814.524 1.59344 -1.12404 0
M  V30 8643 O 813.794 1.94834 -0.204055 0
M  V30 8644 H 812.374 0.147999 -0.732192 0
M  V30 8645 H 815.036 -0.330804 -1.92072 0
M  V30 8646 H 814.132 0.709829 -3.03921 0
M  V30 8647 N 814.433 1.57553 0.0384317 0
M  V30 8648 C 815.396 2.04927 1.02653 0
M  V30 8649 C 816.396 0.951768 1.29607 0
M  V30 8650 O 817.586 1.21568 1.24768 0
M  V30 8651 C 814.718 2.45828 2.36181 0
M  V30 8652 H 815.911 2.93474 0.617508 0
M  V30 8653 H 813.464 1.53679 0.285031 0
M  V30 8654 H 814.199 1.60408 2.8185 0
M  V30 8655 H 813.984 3.25945 2.1795 0
M  V30 8656 H 815.474 2.82939 3.0714 0
M  V30 8657 N 815.911 -0.310526 1.54511 0
M  V30 8658 C 817.157 -1.04846 1.73595 0
M  V30 8659 C 817.49 -1.87244 0.515118 0
M  V30 8660 O 816.765 -1.88282 -0.48786 0
M  V30 8661 C 817.048 -1.96237 3.01932 0
M  V30 8662 C 816.901 -1.17082 4.34295 0
M  V30 8663 C 818.22 -2.9556 3.26086 0
M  V30 8664 H 815.339 -0.37976 0.631626 0
M  V30 8665 H 817.981 -0.32394 1.87218 0
M  V30 8666 H 816.131 -2.58015 2.90449 0
M  V30 8667 H 817.803 -0.576643 4.57682 0
M  V30 8668 H 816.046 -0.473336 4.3121 0
M  V30 8669 H 816.717 -1.84257 5.20339 0
M  V30 8670 H 819.193 -2.43908 3.37117 0
M  V30 8671 H 818.069 -3.5668 4.17218 0
M  V30 8672 H 818.33 -3.68715 2.4393 0
M  V30 8673 N 817.389 -1.46805 -0.573248 0
M  V30 8674 C 818.635 -1.5283 -1.33307 0
M  V30 8675 C 818.968 -0.183287 -1.93333 0
M  V30 8676 O 818.243 0.806354 -1.76998 0
M  V30 8677 C 818.526 -2.63414 -2.45531 0
M  V30 8678 C 818.379 -4.07478 -1.90478 0
M  V30 8679 C 819.698 -2.70014 -3.47535 0
M  V30 8680 H 816.817 -0.556371 -0.483343 0
M  V30 8681 H 819.459 -1.78787 -0.643066 0
M  V30 8682 H 817.609 -2.41412 -3.04389 0
M  V30 8683 H 819.281 -4.40795 -1.36004 0
M  V30 8684 H 817.524 -4.16511 -1.21248 0
M  V30 8685 H 818.195 -4.80598 -2.71531 0
M  V30 8686 H 820.671 -2.89817 -2.98572 0
M  V30 8687 H 819.547 -3.49192 -4.23504 0
M  V30 8688 H 819.808 -1.76436 -4.05367 0
M  V30 8689 N 818.867 0.818669 -1.34668 0
M  V30 8690 C 820.107 1.58862 -1.28617 0
M  V30 8691 C 820.471 1.91483 0.140845 0
M  V30 8692 O 821.672 2.66821 0.325583 0
M  V30 8693 C 819.943 2.85044 -2.15604 0
M  V30 8694 S 821.502 3.75553 -2.26948 0
M  V30 8695 H 818.32 0.544454 -0.457265 0
M  V30 8696 H 820.922 0.966679 -1.69928 0
M  V30 8697 H 819.626 2.59083 -3.18284 0
M  V30 8698 H 819.157 3.52231 -1.75205 0
M  V30 8699 H 821.172 4.74682 -1.44539 0
M  V30 8700 N 820.346 1.18468 1.03938 0
M  V30 8701 C 821.309 0.914944 2.10146 0
M  V30 8702 C 822.309 -0.10022 1.60487 0
M  V30 8703 O 823.499 0.133365 1.73689 0
M  V30 8704 C 820.631 0.372993 3.38853 0
M  V30 8705 H 821.824 1.85677 2.35508 0
M  V30 8706 H 819.377 0.996876 1.20383 0
M  V30 8707 H 820.112 -0.57538 3.19155 0
M  V30 8708 H 819.897 1.1048 3.76213 0
M  V30 8709 H 821.387 0.203014 4.17106 0
M  V30 8710 N 821.824 -1.22873 0.986916 0
M  V30 8711 C 823.07 -1.91746 0.660401 0
M  V30 8712 C 823.403 -1.76738 -0.804812 0
M  V30 8713 O 822.678 -1.13246 -1.58131 0
M  V30 8714 C 822.961 -3.44156 1.05966 0
M  V30 8715 C 822.814 -3.68242 2.58298 0
M  V30 8716 C 824.133 -4.35874 0.60842 0
M  V30 8717 H 821.252 -0.696347 0.241391 0
M  V30 8718 H 823.894 -1.44867 1.22937 0
M  V30 8719 H 822.044 -3.84213 0.575534 0
M  V30 8720 H 823.716 -3.37626 3.14335 0
M  V30 8721 H 821.959 -3.12728 3.00638 0
M  V30 8722 H 822.63 -4.74956 2.81285 0
M  V30 8723 H 825.106 -4.03299 1.02417 0
M  V30 8724 H 823.982 -5.41201 0.916142 0
M  V30 8725 H 824.243 -4.39364 -0.491086 0
M  V30 8726 N 823.302 -0.75937 -1.38099 0
M  V30 8727 C 824.713 -0.385078 -1.82686 0
M  V30 8728 C 825.064 1.0871 -1.6333 0
M  V30 8729 O 824.189 1.84084 -1.13762 0
M  V30 8730 C 824.784 -0.692161 -3.31654 0
M  V30 8731 C 823.343 -0.371077 -3.74566 0
M  V30 8732 C 822.49 -0.942375 -2.60796 0
M  V30 8733 H 825.441 -0.955048 -1.26746 0
M  V30 8734 H 825.462 0.0276001 -3.8049 0
M  V30 8735 H 824.974 -1.76369 -3.4571 0
M  V30 8736 H 823.075 0.693637 -3.66087 0
M  V30 8737 H 823.188 -0.870672 -4.71122 0
M  V30 8738 H 821.552 -0.367383 -2.52036 0
M  V30 8739 H 822.335 -2.01905 -2.77649 0
M  V30 8740 N 824.78 1.49157 -0.508906 0
M  V30 8741 C 825.71 2.32109 0.254469 0
M  V30 8742 C 826.691 1.40754 0.955111 0
M  V30 8743 O 827.876 1.69658 0.944983 0
M  V30 8744 C 825.006 3.21458 1.3146 0
M  V30 8745 C 823.96 4.2167 0.733368 0
M  V30 8746 C 823.286 5.00009 1.8946 0
M  V30 8747 C 824.586 5.21544 -0.280875 0
M  V30 8748 H 826.28 2.9618 -0.43795 0
M  V30 8749 H 823.826 1.4243 -0.212062 0
M  V30 8750 H 825.779 3.78305 1.85643 0
M  V30 8751 H 824.503 2.55346 2.03632 0
M  V30 8752 H 823.162 3.65979 0.213231 0
M  V30 8753 H 822.81 4.30338 2.60419 0
M  V30 8754 H 822.51 5.67821 1.51173 0
M  V30 8755 H 824.034 5.59702 2.44061 0
M  V30 8756 H 825.448 5.73039 0.173095 0
M  V30 8757 H 823.845 5.97291 -0.580006 0
M  V30 8758 H 824.915 4.69969 -1.19404 0
M  V30 8759 N 826.258 0.243083 1.55714 0
M  V30 8760 C 827.188 -0.652336 2.24203 0
M  V30 8761 C 828.169 -1.1843 1.221 0
M  V30 8762 O 829.354 -1.22435 1.50743 0
M  V30 8763 C 826.484 -1.85111 2.93856 0
M  V30 8764 C 825.438 -1.45208 4.02615 0
M  V30 8765 C 824.764 -2.73137 4.59674 0
M  V30 8766 C 826.064 -0.625988 5.18535 0
M  V30 8767 H 827.758 -0.0812504 2.9929 0
M  V30 8768 H 825.304 -0.0376388 1.43951 0
M  V30 8769 H 827.257 -2.48314 3.40468 0
M  V30 8770 H 825.981 -2.44751 2.16251 0
M  V30 8771 H 824.64 -0.843406 3.56766 0
M  V30 8772 H 824.288 -3.30967 3.78774 0
M  V30 8773 H 823.988 -2.47163 5.33089 0
M  V30 8774 H 825.512 -3.37245 5.09017 0
M  V30 8775 H 826.926 -1.16223 5.61396 0
M  V30 8776 H 825.323 -0.462465 5.98315 0
M  V30 8777 H 826.393 0.362652 4.83542 0
M  V30 8778 N 827.736 -1.57571 -0.0300757 0
M  V30 8779 C 829.013 -1.80381 -0.756447 0
M  V30 8780 C 829.393 -0.840906 -1.93628 0
M  V30 8781 O 828.741 0.117143 -2.282 0
M  V30 8782 C 828.951 -3.2807 -1.19043 0
M  V30 8783 C 830.299 -3.93025 -1.60676 0
M  V30 8784 O 831.323 -3.32213 -1.28503 0
M  V30 8785 O 830.182 -5.00092 -2.20386 0
M  V30 8786 H 827.276 -0.741737 -0.365725 0
M  V30 8787 H 829.822 -1.69699 -0.00693177 0
M  V30 8788 H 828.594 -3.89748 -0.348128 0
M  V30 8789 H 828.217 -3.43637 -1.99999 0
M  V30 8790 N 829.214 0.302327 -1.54673 0
M  V30 8791 C 830.147 1.39738 -1.80412 0
M  V30 8792 C 831.125 1.48813 -0.655241 0
M  V30 8793 O 832.309 1.65895 -0.89505 0
M  V30 8794 C 829.436 2.7766 -1.93966 0
M  V30 8795 C 828.482 2.86014 -3.16383 0
M  V30 8796 S 829.315 2.48246 -4.74483 0
M  V30 8797 C 830.471 3.88198 -4.90971 0
M  V30 8798 H 830.704 1.17696 -2.73011 0
M  V30 8799 H 828.237 0.500364 -1.46068 0
M  V30 8800 H 830.195 3.571 -2.0246 0
M  V30 8801 H 828.856 2.96971 -1.02307 0
M  V30 8802 H 828.049 3.87174 -3.22664 0
M  V30 8803 H 827.651 2.14568 -3.06328 0
M  V30 8804 H 829.943 4.83181 -4.74913 0
M  V30 8805 H 830.886 3.86887 -5.93063 0
M  V30 8806 H 831.294 3.78139 -4.19131 0
M  V30 8807 N 830.692 1.47107 0.565454 0
M  V30 8808 C 831.938 1.53535 1.32495 0
M  V30 8809 C 832.271 0.193537 1.93233 0
M  V30 8810 O 831.546 -0.796956 1.77423 0
M  V30 8811 C 831.829 2.64712 2.4413 0
M  V30 8812 C 831.682 4.08482 1.88314 0
M  V30 8813 C 833.001 2.71853 3.46098 0
M  V30 8814 H 830.12 0.558926 0.480386 0
M  V30 8815 H 832.762 1.79125 0.633575 0
M  V30 8816 H 830.912 2.43023 3.03104 0
M  V30 8817 H 832.584 4.4151 1.33665 0
M  V30 8818 H 830.827 4.17148 1.19037 0
M  V30 8819 H 831.498 4.82032 2.68978 0
M  V30 8820 H 833.974 2.91397 2.97031 0
M  V30 8821 H 832.85 3.51433 4.21646 0
M  V30 8822 H 833.111 1.78584 4.04426 0
M  V30 8823 N 832.17 -0.811516 1.35101 0
M  V30 8824 C 833.586 -1.10634 1.15031 0
M  V30 8825 C 833.786 -2.01459 -0.0405379 0
M  V30 8826 O 832.842 -2.42235 -0.712635 0
M  V30 8827 C 834.155 -1.74207 2.45097 0
M  V30 8828 C 835.703 -1.8665 2.51258 0
M  V30 8829 C 836.178 -2.53638 3.81355 0
M  V30 8830 N 837.669 -2.61128 3.82579 0
M  V30 8831 C 838.404 -3.13717 4.79968 0
M  V30 8832 N 837.9 -3.66782 5.87744 0
M  V30 8833 N 839.693 -3.12224 4.67411 0
M  V30 8834 H 831.844 -0.207641 2.11383 0
M  V30 8835 H 834.107 -0.154697 0.935293 0
M  V30 8836 H 833.813 -1.14936 3.32389 0
M  V30 8837 H 833.687 -2.73958 2.59281 0
M  V30 8838 H 836.074 -2.45066 1.64398 0
M  V30 8839 H 836.155 -0.857678 2.40993 0
M  V30 8840 H 835.799 -1.95873 4.68611 0
M  V30 8841 H 835.729 -3.55047 3.88907 0
M  V30 8842 H 838.22 -2.23527 3.04703 0
M  V30 8843 H 838.533 -4.05194 6.58056 0
M  V30 8844 H 836.878 -3.64994 5.91443 0
M  V30 8845 H 840.069 -2.70042 3.82354 0
M  V30 8846 H 840.242 -3.52903 5.43474 0
M  V30 8847 N 833.648 -1.19017 -1.03309 0
M  V30 8848 C 834.878 -1.01387 -1.80012 0
M  V30 8849 C 835.286 0.440655 -1.83997 0
M  V30 8850 O 834.629 1.31786 -1.27977 0
M  V30 8851 C 834.691 -1.50171 -3.26633 0
M  V30 8852 C 834.355 -2.98213 -3.46292 0
M  V30 8853 C 835.352 -3.96009 -3.36857 0
M  V30 8854 C 833.037 -3.36812 -3.72643 0
M  V30 8855 C 835.031 -5.30399 -3.5349 0
M  V30 8856 C 832.718 -4.71363 -3.88922 0
M  V30 8857 C 833.716 -5.67966 -3.79347 0
M  V30 8858 O 833.404 -7.00079 -3.95151 0
M  V30 8859 H 833.136 -0.357899 -0.573484 0
M  V30 8860 H 835.69 -1.58171 -1.31039 0
M  V30 8861 H 833.92 -0.877586 -3.7661 0
M  V30 8862 H 835.609 -1.28814 -3.84918 0
M  V30 8863 H 836.375 -3.67534 -3.16455 0
M  V30 8864 H 832.254 -2.62175 -3.7919 0
M  V30 8865 H 835.798 -6.05786 -3.45933 0
M  V30 8866 H 831.695 -4.99536 -4.0882 0
M  V30 8867 H 832.463 -7.07092 -4.12266 0
M  V30 8868 N 835.127 1.22348 -0.993418 0
M  V30 8869 C 836.077 2.221 -0.515333 0
M  V30 8870 C 837.061 1.55409 0.416762 0
M  V30 8871 O 838.253 1.75317 0.243497 0
M  V30 8872 C 835.382 3.42888 0.168173 0
M  V30 8873 C 834.468 4.16786 -0.784257 0
M  V30 8874 N 834.859 4.67435 -1.93231 0
M  V30 8875 C 833.157 4.41942 -0.600243 0
M  V30 8876 C 833.858 5.23792 -2.53016 0
M  V30 8877 N 832.834 5.12483 -1.8128 0
M  V30 8878 H 836.636 2.58902 -1.39093 0
M  V30 8879 H 834.15 1.38024 -0.855747 0
M  V30 8880 H 836.147 4.13542 0.528069 0
M  V30 8881 H 834.807 3.07598 1.03989 0
M  V30 8882 H 835.818 4.63375 -2.31309 0
M  V30 8883 H 832.495 4.16891 0.225369 0
M  V30 8884 H 833.885 5.73515 -3.50043 0
M  V30 8885 N 836.605 0.766683 1.37694 0
M  V30 8886 C 837.535 0.163432 2.32927 0
M  V30 8887 C 838.516 -0.688861 1.55527 0
M  V30 8888 O 839.701 -0.627363 1.83787 0
M  V30 8889 C 836.831 -0.720416 3.39746 0
M  V30 8890 C 835.785 0.0301718 4.27989 0
M  V30 8891 C 835.111 -0.972788 5.25776 0
M  V30 8892 C 836.411 1.20623 5.0818 0
M  V30 8893 H 838.105 0.958988 2.83626 0
M  V30 8894 H 835.651 0.462601 1.36367 0
M  V30 8895 H 837.604 -1.15221 4.05342 0
M  V30 8896 H 836.328 -1.54844 2.8756 0
M  V30 8897 H 834.987 0.442685 3.63917 0
M  V30 8898 H 834.635 -1.79522 4.69873 0
M  V30 8899 H 834.335 -0.475145 5.85676 0
M  V30 8900 H 835.859 -1.40362 5.94248 0
M  V30 8901 H 837.273 0.851341 5.66944 0
M  V30 8902 H 835.67 1.63561 5.7738 0
M  V30 8903 H 836.74 2.01281 4.41151 0
M  V30 8904 N 838.083 -1.48885 0.516809 0
M  V30 8905 C 839.33 -2.02488 -0.0220602 0
M  V30 8906 C 839.658 -1.39513 -1.35523 0
M  V30 8907 O 838.913 -0.52558 -1.8851 0
M  V30 8908 C 839.212 -3.56801 -0.206798 0
M  V30 8909 C 838.878 -4.38496 1.05035 0
M  V30 8910 C 837.54 -4.60538 1.39492 0
M  V30 8911 C 839.892 -4.85909 1.88525 0
M  V30 8912 C 837.22 -5.2724 2.57361 0
M  V30 8913 C 839.572 -5.53909 3.05561 0
M  V30 8914 C 838.236 -5.74193 3.4038 0
M  V30 8915 H 837.506 -0.740956 -0.00807238 0
M  V30 8916 H 840.153 -1.79014 0.680168 0
M  V30 8917 H 838.458 -3.79042 -0.991687 0
M  V30 8918 H 840.155 -3.95885 -0.638447 0
M  V30 8919 H 836.745 -4.2159 0.771984 0
M  V30 8920 H 840.929 -4.68694 1.63218 0
M  V30 8921 H 836.185 -5.41145 2.84556 0
M  V30 8922 H 840.359 -5.89619 3.7057 0
M  V30 8923 H 837.986 -6.25652 4.31814 0
M  V30 8924 N 839.561 -0.251338 -1.55583 0
M  V30 8925 C 840.809 0.371434 -1.98657 0
M  V30 8926 C 841.13 1.58143 -1.14087 0
M  V30 8927 O 840.4 1.94607 -0.224708 0
M  V30 8928 H 838.98 0.140225 -0.733721 0
M  V30 8929 H 841.642 -0.351157 -1.9171 0
M  V30 8930 H 840.738 0.677554 -3.04657 0
M  V30 8931 N 841.039 1.57585 0.0217189 0
M  V30 8932 C 842.264 1.94267 0.726309 0
M  V30 8933 C 842.689 0.851904 1.67703 0
M  V30 8934 O 842.047 -0.191792 1.80283 0
M  V30 8935 C 842.095 3.30023 1.45318 0
M  V30 8936 O 841.199 3.22791 2.5667 0
M  V30 8937 H 840.54 0.634777 0.194818 0
M  V30 8938 H 843.07 2.04585 -0.0249985 0
M  V30 8939 H 843.08 3.65084 1.82147 0
M  V30 8940 H 841.755 4.08972 0.755962 0
M  V30 8941 H 840.332 2.99373 2.2233 0
M  V30 8942 N 842.517 -0.29412 1.54831 0
M  V30 8943 C 843.765 -1.02643 1.74094 0
M  V30 8944 C 844.086 -1.87563 0.533402 0
M  V30 8945 O 843.356 -1.9061 -0.452192 0
M  V30 8946 H 841.936 -0.381959 0.641963 0
M  V30 8947 H 844.598 -0.323444 1.92197 0
M  V30 8948 H 843.694 -1.67558 2.63307 0
M  V30 8949 N 843.995 -1.47404 -0.557645 0
M  V30 8950 C 845.411 -1.32913 -0.88353 0
M  V30 8951 C 845.611 -0.31929 -1.98954 0
M  V30 8952 O 844.667 0.26934 -2.51059 0
M  V30 8953 C 845.98 -2.72229 -1.27718 0
M  V30 8954 C 847.528 -2.8051 -1.38863 0
M  V30 8955 C 848.003 -4.20466 -1.81583 0
M  V30 8956 N 849.494 -4.23005 -1.88735 0
M  V30 8957 C 850.229 -5.2821 -2.23118 0
M  V30 8958 N 849.725 -6.4372 -2.56117 0
M  V30 8959 N 851.518 -5.15588 -2.23888 0
M  V30 8960 H 843.669 -2.11698 0.172557 0
M  V30 8961 H 845.932 -0.947889 0.0145334 0
M  V30 8962 H 845.638 -3.47556 -0.538329 0
M  V30 8963 H 845.512 -3.03971 -2.23342 0
M  V30 8964 H 847.899 -2.05457 -2.11829 0
M  V30 8965 H 847.98 -2.52423 -0.414274 0
M  V30 8966 H 847.624 -4.96025 -1.09187 0
M  V30 8967 H 847.554 -4.45977 -2.80021 0
M  V30 8968 H 850.045 -3.39674 -1.65621 0
M  V30 8969 H 850.358 -7.19754 -2.81378 0
M  V30 8970 H 848.703 -6.47041 -2.53698 0
M  V30 8971 H 851.894 -4.24374 -1.97546 0
M  V30 8972 H 852.067 -5.97685 -2.50353 0
M  V30 8973 N 845.473 0.80434 -1.35529 0
M  V30 8974 C 846.701 1.59283 -1.32048 0
M  V30 8975 C 847.116 1.88527 0.101556 0
M  V30 8976 O 846.473 1.48975 1.05417 0
M  V30 8977 C 846.524 2.92276 -2.12737 0
M  V30 8978 O 846.245 2.64299 -3.49396 0
M  V30 8979 C 847.746 3.86631 -2.16867 0
M  V30 8980 H 844.966 0.494523 -0.453528 0
M  V30 8981 H 847.51 0.999415 -1.78415 0
M  V30 8982 H 845.665 3.48125 -1.69964 0
M  V30 8983 H 846.079 3.4923 -3.91329 0
M  V30 8984 H 847.553 4.77053 -2.77712 0
M  V30 8985 H 848.03 4.23384 -1.16803 0
M  V30 8986 H 848.636 3.36717 -2.59811 0
M  V30 8987 N 846.951 1.19563 1.02676 0
M  V30 8988 C 848.197 1.01108 1.7649 0
M  V30 8989 C 848.552 -0.453152 1.86987 0
M  V30 8990 O 847.845 -1.33209 1.37717 0
M  V30 8991 C 848.039 1.61619 3.18769 0
M  V30 8992 C 847.868 3.13774 3.22142 0
M  V30 8993 C 846.638 3.82687 3.29968 0
M  V30 8994 C 848.836 4.11114 3.09014 0
M  V30 8995 N 846.818 5.2222 3.22737 0
M  V30 8996 C 848.189 5.37259 3.0944 0
M  V30 8997 C 850.244 4.02447 2.93157 0
M  V30 8998 C 848.947 6.55738 2.95636 0
M  V30 8999 C 850.973 5.20538 2.80703 0
M  V30 9000 C 850.335 6.45582 2.81785 0
M  V30 9001 H 846.434 0.424123 0.656996 0
M  V30 9002 H 849.018 1.5157 1.22207 0
M  V30 9003 H 847.189 1.13756 3.71368 0
M  V30 9004 H 848.921 1.36579 3.80957 0
M  V30 9005 H 845.676 3.3349 3.36275 0
M  V30 9006 H 846.1 5.95238 3.22523 0
M  V30 9007 H 850.742 3.0659 2.9114 0
M  V30 9008 H 848.46 7.51778 2.96403 0
M  V30 9009 H 852.046 5.15635 2.69466 0
M  V30 9010 H 850.926 7.35423 2.72254 0
M  V30 9011 N 848.429 -1.21819 0.999893 0
M  V30 9012 C 849.678 -1.90066 0.675108 0
M  V30 9013 C 849.991 -1.78624 -0.79705 0
M  V30 9014 O 851.197 -2.41851 -1.23371 0
M  V30 9015 C 849.653 -3.40795 1.15702 0
M  V30 9016 C 849.261 -3.60859 2.6549 0
M  V30 9017 C 851.005 -4.147 0.906889 0
M  V30 9018 C 848.912 -5.05324 3.07248 0
M  V30 9019 H 847.842 -0.711763 0.248815 0
M  V30 9020 H 850.493 -1.3792 1.21038 0
M  V30 9021 H 848.875 -3.92164 0.549832 0
M  V30 9022 H 850.049 -3.19951 3.31614 0
M  V30 9023 H 848.364 -3.00298 2.88461 0
M  V30 9024 H 850.961 -5.21187 1.1945 0
M  V30 9025 H 851.304 -4.16004 -0.156923 0
M  V30 9026 H 851.837 -3.69379 1.47662 0
M  V30 9027 H 848.576 -5.09164 4.12834 0
M  V30 9028 H 848.096 -5.47108 2.45832 0
M  V30 9029 H 849.775 -5.73797 2.98941 0
M  V30 9030 N 849.908 -0.773975 -1.37286 0
M  V30 9031 C 851.319 -0.404433 -1.82267 0
M  V30 9032 C 851.67 1.06971 -1.64474 0
M  V30 9033 O 850.795 1.82867 -1.15708 0
M  V30 9034 C 851.39 -0.727298 -3.30902 0
M  V30 9035 C 849.949 -0.410784 -3.74152 0
M  V30 9036 C 849.096 -0.969983 -2.59782 0
M  V30 9037 H 852.047 -0.968437 -1.25726 0
M  V30 9038 H 852.068 -0.0127575 -3.80498 0
M  V30 9039 H 851.58 -1.80026 -3.4382 0
M  V30 9040 H 849.681 0.65477 -3.66802 0
M  V30 9041 H 849.794 -0.920592 -4.70172 0
M  V30 9042 H 848.158 -0.394094 -2.51633 0
M  V30 9043 H 848.941 -2.04839 -2.75492 0
M  V30 9044 N 851.386 1.48609 -0.524698 0
M  V30 9045 C 852.296 2.33318 0.244923 0
M  V30 9046 C 853.312 1.46153 0.944214 0
M  V30 9047 O 854.488 1.79141 0.920347 0
M  V30 9048 C 851.553 3.22149 1.28144 0
M  V30 9049 C 850.614 4.25184 0.593068 0
M  V30 9050 C 849.847 5.0977 1.5802 0
M  V30 9051 O 850.07 4.96249 2.81235 0
M  V30 9052 O 849.004 5.9134 1.1225 0
M  V30 9053 H 852.83 3.00362 -0.449066 0
M  V30 9054 H 850.415 1.46643 -0.285689 0
M  V30 9055 H 852.297 3.77111 1.88057 0
M  V30 9056 H 850.972 2.57772 1.95793 0
M  V30 9057 H 849.879 3.74071 -0.0464214 0
M  V30 9058 H 851.212 4.92183 -0.0413893 0
M  V30 9059 N 852.864 0.259585 1.55447 0
M  V30 9060 C 854.094 -0.364863 2.03353 0
M  V30 9061 C 854.502 -1.5116 1.13786 0
M  V30 9062 O 853.845 -1.83109 0.147283 0
M  V30 9063 C 853.907 -0.922587 3.4746 0
M  V30 9064 C 853.571 0.0935207 4.56904 0
M  V30 9065 C 854.568 0.907571 5.11917 0
M  V30 9066 C 852.253 0.223276 5.01804 0
M  V30 9067 C 854.247 1.83771 6.10333 0
M  V30 9068 C 851.934 1.15691 6.00049 0
M  V30 9069 C 852.932 1.96264 6.54194 0
M  V30 9070 O 852.62 2.88052 7.50521 0
M  V30 9071 H 852.352 -0.0893313 0.670072 0
M  V30 9072 H 854.906 0.384821 2.01763 0
M  V30 9073 H 853.136 -1.72206 3.4624 0
M  V30 9074 H 854.825 -1.45846 3.78792 0
M  V30 9075 H 855.591 0.817979 4.78052 0
M  V30 9076 H 851.47 -0.393834 4.59315 0
M  V30 9077 H 855.014 2.46703 6.52521 0
M  V30 9078 H 850.911 1.24738 6.33333 0
M  V30 9079 H 851.679 2.82557 7.68182 0
M  V30 9080 N 854.342 -1.57594 -0.0133615 0
M  V30 9081 C 855.59 -1.89605 -0.699596 0
M  V30 9082 C 855.911 -0.85926 -1.75048 0
M  V30 9083 O 855.181 0.105112 -1.95618 0
M  V30 9084 H 853.761 -0.699776 -0.261385 0
M  V30 9085 H 856.423 -1.94885 0.0244044 0
M  V30 9086 H 855.519 -2.88962 -1.17928 0
M  V30 9087 N 855.82 0.285905 -1.54985 0
M  V30 9088 C 857.048 1.03776 -1.78992 0
M  V30 9089 C 857.463 1.80402 -0.556814 0
M  V30 9090 O 856.82 1.76242 0.473801 0
M  V30 9091 C 856.871 2.0065 -3.00702 0
M  V30 9092 O 856.592 1.27131 -4.19249 0
M  V30 9093 C 858.093 2.87753 -3.37214 0
M  V30 9094 H 855.313 0.307126 -0.596586 0
M  V30 9095 H 857.857 0.3206 -2.01971 0
M  V30 9096 H 856.012 2.67847 -2.79887 0
M  V30 9097 H 856.426 1.92316 -4.8797 0
M  V30 9098 H 857.9 3.51548 -4.2558 0
M  V30 9099 H 858.377 3.56848 -2.56039 0
M  V30 9100 H 858.983 2.26065 -3.60242 0
M  V30 9101 N 857.298 1.47698 0.54982 0
M  V30 9102 C 858.261 1.60282 1.63837 0
M  V30 9103 C 859.261 0.477394 1.5355 0
M  V30 9104 O 860.451 0.742665 1.57576 0
M  V30 9105 C 857.583 1.55431 3.03404 0
M  V30 9106 H 858.776 2.57325 1.54026 0
M  V30 9107 H 856.329 1.35999 0.770329 0
M  V30 9108 H 857.064 0.597912 3.1874 0
M  V30 9109 H 856.849 2.37116 3.12279 0
M  V30 9110 H 858.339 1.6739 3.82584 0
M  V30 9111 N 858.776 -0.797141 1.35954 0
M  V30 9112 C 859.686 -1.94088 1.31784 0
M  V30 9113 C 860.702 -1.72588 0.221227 0
M  V30 9114 O 861.878 -1.96256 0.452255 0
M  V30 9115 C 858.943 -3.28828 1.09878 0
M  V30 9116 C 858.004 -3.63158 2.28942 0
M  V30 9117 C 857.237 -4.91469 2.08072 0
M  V30 9118 O 857.46 -5.60616 1.05196 0
M  V30 9119 O 856.394 -5.24277 2.95664 0
M  V30 9120 H 860.22 -2.00554 2.28061 0
M  V30 9121 H 857.805 -0.936288 1.16422 0
M  V30 9122 H 859.687 -4.09473 0.995485 0
M  V30 9123 H 858.362 -3.23271 0.16659 0
M  V30 9124 H 857.269 -2.82851 2.44839 0
M  V30 9125 H 858.602 -3.7343 3.20641 0
M  V30 9126 N 860.254 -1.20106 -1.0204 0
M  V30 9127 C 861.201 -0.946468 -2.10501 0
M  V30 9128 C 862.171 0.121902 -1.65652 0
M  V30 9129 O 863.356 -0.0220244 -1.90787 0
M  V30 9130 C 860.496 -0.500499 -3.41451 0
M  V30 9131 C 859.609 -1.63659 -3.998 0
M  V30 9132 C 858.744 -1.14131 -5.18794 0
M  V30 9133 C 857.783 -2.25074 -5.69217 0
M  V30 9134 N 856.92 -1.76791 -6.79477 0
M  V30 9135 H 861.76 -1.87506 -2.31615 0
M  V30 9136 H 859.297 -0.934693 -1.13587 0
M  V30 9137 H 861.255 -0.223276 -4.16602 0
M  V30 9138 H 859.885 0.391099 -3.20422 0
M  V30 9139 H 858.937 -2.02882 -3.21781 0
M  V30 9140 H 860.249 -2.47213 -4.33229 0
M  V30 9141 H 859.403 -0.819826 -6.01135 0
M  V30 9142 H 858.142 -0.275615 -4.86921 0
M  V30 9143 H 857.147 -2.58043 -4.85483 0
M  V30 9144 H 858.372 -3.12114 -6.03127 0
M  V30 9145 H 856.318 -0.925428 -6.4944 0
M  V30 9146 H 856.235 -2.53928 -7.12079 0
M  V30 9147 H 857.503 -1.47631 -7.65392 0
M  V30 9148 N 861.732 1.21287 -1.00634 0
M  V30 9149 C 863.143 1.72136 -0.722914 0
M  V30 9150 C 863.494 1.8091 0.759338 0
M  V30 9151 O 862.619 1.46458 1.59308 0
M  V30 9152 C 863.214 3.12633 -1.30561 0
M  V30 9153 C 861.773 3.60833 -1.07127 0
M  V30 9154 C 860.92 2.38326 -1.4176 0
M  V30 9155 H 863.871 1.06445 -1.17708 0
M  V30 9156 H 863.892 3.74174 -0.690937 0
M  V30 9157 H 863.404 3.06215 -2.38441 0
M  V30 9158 H 861.505 3.72599 -0.00968671 0
M  V30 9159 H 861.618 4.46226 -1.74411 0
M  V30 9160 H 859.982 2.40575 -0.836412 0
M  V30 9161 H 860.765 2.34558 -2.50674 0
M  V30 9162 N 863.21 0.781244 1.36873 0
M  V30 9163 C 864.12 0.174981 2.33947 0
M  V30 9164 C 865.136 -0.668512 1.60645 0
M  V30 9165 O 866.312 -0.586213 1.9268 0
M  V30 9166 C 863.377 -0.686557 3.39834 0
M  V30 9167 C 862.438 0.174489 4.28945 0
M  V30 9168 C 861.671 -0.646024 5.29776 0
M  V30 9169 O 861.894 -1.88254 5.38439 0
M  V30 9170 O 860.828 -0.0502214 6.01879 0
M  V30 9171 H 864.654 0.977382 2.87543 0
M  V30 9172 H 862.239 0.542559 1.392 0
M  V30 9173 H 864.121 -1.1781 4.04597 0
M  V30 9174 H 862.796 -1.46699 2.8855 0
M  V30 9175 H 861.703 0.712604 3.6725 0
M  V30 9176 H 863.036 0.918232 4.83559 0
M  V30 9177 N 864.689 -1.48329 0.532571 0
M  V30 9178 C 865.966 -1.95492 -0.0650985 0
M  V30 9179 C 866.346 -1.47485 -1.51034 0
M  V30 9180 O 865.694 -0.702516 -2.17433 0
M  V30 9181 C 865.904 -3.48957 0.0548341 0
M  V30 9182 C 867.252 -4.24475 -0.103115 0
M  V30 9183 O 868.276 -3.56195 -0.0188343 0
M  V30 9184 O 867.135 -5.45781 -0.280164 0
M  V30 9185 H 864.229 -0.823327 -0.0778603 0
M  V30 9186 H 866.775 -1.58839 0.597353 0
M  V30 9187 H 865.547 -3.76628 1.06148 0
M  V30 9188 H 865.17 -3.92311 -0.64635 0
M  V30 9189 N 866.167 -0.267825 -1.55308 0
M  V30 9190 C 867.414 0.351036 -1.99434 0
M  V30 9191 C 867.742 1.56406 -1.15618 0
M  V30 9192 O 866.997 1.94548 -0.212045 0
M  V30 9193 C 867.296 0.784247 -3.48689 0
M  V30 9194 C 866.962 -0.323328 -4.49739 0
M  V30 9195 C 865.624 -0.627467 -4.77091 0
M  V30 9196 C 867.976 -1.07002 -5.10098 0
M  V30 9197 C 865.304 -1.682 -5.62073 0
M  V30 9198 C 867.656 -2.11422 -5.96224 0
M  V30 9199 C 866.32 -2.42479 -6.21901 0
M  V30 9200 H 865.59 0.128453 -0.729781 0
M  V30 9201 H 868.237 -0.380018 -1.87692 0
M  V30 9202 H 866.542 1.59485 -3.57871 0
M  V30 9203 H 868.239 1.2737 -3.80234 0
M  V30 9204 H 864.829 -0.0761528 -4.28532 0
M  V30 9205 H 869.013 -0.848302 -4.88996 0
M  V30 9206 H 864.269 -1.92772 -5.80215 0
M  V30 9207 H 868.443 -2.69759 -6.4203 0
M  V30 9208 H 866.07 -3.24328 -6.87543 0
M  V30 9209 N 867.645 1.57599 0.00500368 0
M  V30 9210 C 868.592 2.08106 0.998025 0
M  V30 9211 C 869.562 0.975374 1.34446 0
M  V30 9212 O 870.747 1.24749 1.44369 0
M  V30 9213 C 867.887 2.58496 2.28635 0
M  V30 9214 C 867 3.82947 1.99939 0
M  V30 9215 C 866.135 4.21857 3.22816 0
M  V30 9216 C 865.174 5.39159 2.89783 0
M  V30 9217 N 864.311 5.73386 4.05183 0
M  V30 9218 H 869.151 2.92684 0.560385 0
M  V30 9219 H 866.688 1.44692 0.265053 0
M  V30 9220 H 868.646 2.85787 3.03943 0
M  V30 9221 H 867.276 1.768 2.70077 0
M  V30 9222 H 866.328 3.62594 1.1502 0
M  V30 9223 H 867.64 4.68358 1.71588 0
M  V30 9224 H 866.794 4.50404 4.06474 0
M  V30 9225 H 865.533 3.35145 3.54301 0
M  V30 9226 H 864.538 5.1034 2.04532 0
M  V30 9227 H 865.763 6.27543 2.59551 0
M  V30 9228 H 863.709 4.89632 4.36574 0
M  V30 9229 H 863.626 6.53359 3.80339 0
M  V30 9230 H 864.894 6.06522 4.89644 0
M  V30 9231 N 869.123 -0.277682 1.55134 0
M  V30 9232 C 870.351 -1.02826 1.7954 0
M  V30 9233 C 870.766 -1.80105 0.566373 0
M  V30 9234 O 870.123 -1.76491 -0.464448 0
M  V30 9235 C 870.174 -1.99053 3.01762 0
M  V30 9236 O 869.895 -1.24906 4.19917 0
M  V30 9237 C 871.396 -2.85961 3.38735 0
M  V30 9238 H 868.616 -0.303958 0.598206 0
M  V30 9239 H 871.16 -0.309884 2.02138 0
M  V30 9240 H 869.315 -2.66359 2.81303 0
M  V30 9241 H 869.729 -1.89725 4.88983 0
M  V30 9242 H 871.203 -3.49286 4.27438 0
M  V30 9243 H 871.68 -3.55486 2.57928 0
M  V30 9244 H 872.286 -2.24152 3.61436 0
M  V30 9245 N 870.601 -1.47988 -0.541979 0
M  V30 9246 C 871.531 -1.64503 -1.65713 0
M  V30 9247 C 872.512 -0.494116 -1.62765 0
M  V30 9248 O 873.697 -0.725256 -1.80149 0
M  V30 9249 C 870.827 -1.67337 -3.04328 0
M  V30 9250 C 869.781 -2.81809 -3.2213 0
M  V30 9251 C 869.107 -2.69724 -4.61685 0
M  V30 9252 C 870.407 -4.23241 -3.06046 0
M  V30 9253 H 872.101 -2.5786 -1.52147 0
M  V30 9254 H 869.647 -1.24094 -0.730529 0
M  V30 9255 H 871.6 -1.77481 -3.82202 0
M  V30 9256 H 870.324 -0.705514 -3.18889 0
M  V30 9257 H 868.983 -2.71201 -2.46669 0
M  V30 9258 H 868.631 -1.70934 -4.73065 0
M  V30 9259 H 868.331 -3.4653 -4.74543 0
M  V30 9260 H 869.855 -2.81818 -5.41674 0
M  V30 9261 H 871.269 -4.34746 -3.73723 0
M  V30 9262 H 869.666 -5.00952 -3.30405 0
M  V30 9263 H 870.736 -4.40543 -2.02609 0
M  V30 9264 N 872.079 0.78992 -1.36375 0
M  V30 9265 C 873.029 1.89227 -1.27189 0
M  V30 9266 C 874.013 1.60067 -0.163498 0
M  V30 9267 O 875.205 1.72507 -0.396262 0
M  V30 9268 C 872.334 3.26431 -1.06292 0
M  V30 9269 C 871.42 3.61602 -2.21596 0
M  V30 9270 N 871.811 3.68086 -3.4691 0
M  V30 9271 C 870.109 3.9166 -2.1335 0
M  V30 9272 C 870.81 3.99481 -4.22835 0
M  V30 9273 N 869.786 4.14438 -3.5177 0
M  V30 9274 H 873.588 1.92465 -2.22113 0
M  V30 9275 H 871.102 0.985414 -1.29087 0
M  V30 9276 H 873.099 4.05267 -0.97798 0
M  V30 9277 H 871.759 3.24468 -0.122676 0
M  V30 9278 H 872.77 3.50743 -3.81051 0
M  V30 9279 H 869.447 3.97626 -1.27279 0
M  V30 9280 H 870.837 4.11425 -5.31205 0
M  V30 9281 N 873.557 1.20646 1.01402 0
M  V30 9282 C 874.52 0.959314 2.08158 0
M  V30 9283 C 875.52 -0.0661558 1.60664 0
M  V30 9284 O 876.71 0.170177 1.73367 0
M  V30 9285 C 873.842 0.444785 3.37986 0
M  V30 9286 H 875.035 1.90631 2.31517 0
M  V30 9287 H 872.588 1.02219 1.18241 0
M  V30 9288 H 873.323 -0.507553 3.20304 0
M  V30 9289 H 873.108 1.18435 3.73785 0
M  V30 9290 H 874.598 0.291443 4.16582 0
M  V30 9291 N 875.035 -1.20752 1.01276 0
M  V30 9292 C 876.265 -1.93725 0.717934 0
M  V30 9293 C 876.673 -1.74769 -0.724732 0
M  V30 9294 O 876.016 -1.05642 -1.50285 0
M  V30 9295 C 876.078 -3.46196 0.968954 0
M  V30 9296 C 875.742 -3.88909 2.39998 0
M  V30 9297 C 876.739 -3.94982 3.38061 0
M  V30 9298 C 874.424 -4.21006 2.7397 0
M  V30 9299 C 876.418 -4.32558 4.68159 0
M  V30 9300 C 874.105 -4.58257 4.04282 0
M  V30 9301 C 875.103 -4.64004 5.01187 0
M  V30 9302 O 874.791 -5.00403 6.29168 0
M  V30 9303 H 874.523 -0.622663 0.263186 0
M  V30 9304 H 877.077 -1.54299 1.35577 0
M  V30 9305 H 875.307 -3.85728 0.273952 0
M  V30 9306 H 876.996 -4.00394 0.666312 0
M  V30 9307 H 877.762 -3.70353 3.13151 0
M  V30 9308 H 873.641 -4.15725 1.99233 0
M  V30 9309 H 877.185 -4.36959 5.43795 0
M  V30 9310 H 873.082 -4.82341 4.28973 0
M  V30 9311 H 873.85 -5.18409 6.33399 0
M  V30 9312 N 876.513 -0.788492 -1.36457 0
M  V30 9313 C 877.738 -0.371224 -2.04051 0
M  V30 9314 C 878.163 1.004 -1.59064 0
M  V30 9315 O 877.521 1.64663 -0.758679 0
M  V30 9316 C 877.569 -0.442275 -3.57877 0
M  V30 9317 O 876.673 0.55113 -4.08701 0
M  V30 9318 H 876.014 -0.157808 -0.644975 0
M  V30 9319 H 878.544 -1.06935 -1.74431 0
M  V30 9320 H 878.554 -0.305548 -4.06854 0
M  V30 9321 H 877.229 -1.44547 -3.89973 0
M  V30 9322 H 875.806 0.37614 -3.70998 0
M  V30 9323 N 877.991 1.48044 -0.54043 0
M  V30 9324 C 879.402 1.86418 -0.102662 0
M  V30 9325 C 879.753 1.4489 1.32293 0
M  V30 9326 O 878.878 0.844319 1.99249 0
M  V30 9327 C 879.473 3.38324 -0.179533 0
M  V30 9328 C 878.032 3.75852 0.203098 0
M  V30 9329 C 877.179 2.72097 -0.534637 0
M  V30 9330 H 880.13 1.398 -0.751103 0
M  V30 9331 H 880.151 3.75641 0.606147 0
M  V30 9332 H 879.663 3.68518 -1.21721 0
M  V30 9333 H 877.764 3.51272 1.24252 0
M  V30 9334 H 877.877 4.78884 -0.143784 0
M  V30 9335 H 876.241 2.54692 0.0203358 0
M  V30 9336 H 877.024 3.05135 -1.57314 0
M  V30 9337 N 879.47 0.276058 1.55163 0
M  V30 9338 C 880.7 -0.343274 2.03728 0
M  V30 9339 C 881.108 -1.49945 1.15383 0
M  V30 9340 O 880.451 -1.82942 0.166696 0
M  V30 9341 C 880.513 -0.885683 3.48419 0
M  V30 9342 C 880.177 0.141976 4.56779 0
M  V30 9343 C 881.174 0.961816 5.10926 0
M  V30 9344 C 878.859 0.276487 5.01538 0
M  V30 9345 C 880.853 1.90234 6.0835 0
M  V30 9346 C 878.54 1.22049 5.98788 0
M  V30 9347 C 879.538 2.03192 6.52075 0
M  V30 9348 O 879.226 2.95996 7.47423 0
M  V30 9349 H 878.958 -0.0822192 0.670981 0
M  V30 9350 H 881.512 0.406199 2.01343 0
M  V30 9351 H 879.742 -1.68524 3.48047 0
M  V30 9352 H 881.431 -1.4182 3.80318 0
M  V30 9353 H 882.197 0.868637 4.77158 0
M  V30 9354 H 878.076 -0.345095 4.59707 0
M  V30 9355 H 881.62 2.5361 6.49867 0
M  V30 9356 H 877.517 1.31448 6.31974 0
M  V30 9357 H 878.285 2.90688 7.65142 0
M  V30 9358 N 880.948 -1.576 0.00335426 0
M  V30 9359 C 881.898 -2.05116 -0.995562 0
M  V30 9360 C 882.882 -0.946535 -1.30113 0
M  V30 9361 O 884.074 -1.21028 -1.29156 0
M  V30 9362 C 881.203 -2.56077 -2.28648 0
M  V30 9363 C 880.289 -3.73422 -2.0104 0
M  V30 9364 N 880.68 -4.84986 -1.43603 0
M  V30 9365 C 878.978 -3.81416 -2.31166 0
M  V30 9366 C 879.679 -5.66399 -1.32542 0
M  V30 9367 N 878.655 -5.12505 -1.81218 0
M  V30 9368 H 882.457 -2.88783 -0.546025 0
M  V30 9369 H 879.971 -1.61135 -0.202265 0
M  V30 9370 H 881.968 -2.88395 -3.01055 0
M  V30 9371 H 880.628 -1.73829 -2.74251 0
M  V30 9372 H 881.639 -5.05768 -1.11439 0
M  V30 9373 H 878.316 -3.1003 -2.7962 0
M  V30 9374 H 879.706 -6.66066 -0.88348 0
M  V30 9375 N 882.426 0.269451 -1.5528 0
M  V30 9376 C 883.376 1.33553 -1.84791 0
M  V30 9377 C 884.36 1.44532 -0.707067 0
M  V30 9378 O 885.552 1.48153 -0.968493 0
M  V30 9379 C 882.681 2.69516 -2.12641 0
M  V30 9380 C 881.767 2.62633 -3.32993 0
M  V30 9381 N 882.158 2.25371 -4.52815 0
M  V30 9382 C 880.456 2.93688 -3.35654 0
M  V30 9383 C 881.157 2.28567 -5.34913 0
M  V30 9384 N 880.133 2.67181 -4.73408 0
M  V30 9385 H 883.935 1.03758 -2.74976 0
M  V30 9386 H 881.449 0.478087 -1.55203 0
M  V30 9387 H 883.446 3.46424 -2.3194 0
M  V30 9388 H 882.106 3.00197 -1.23742 0
M  V30 9389 H 883.117 1.9729 -4.7885 0
M  V30 9390 H 879.794 3.29057 -2.56958 0
M  V30 9391 H 881.184 2.02289 -6.40725 0
M  V30 9392 N 883.904 1.48273 0.534124 0
M  V30 9393 C 885.15 1.56311 1.29208 0
M  V30 9394 C 885.483 0.234481 1.92779 0
M  V30 9395 O 884.758 -0.759143 1.79073 0
M  V30 9396 C 885.041 2.69831 2.3846 0
M  V30 9397 C 884.894 4.12385 1.79608 0
M  V30 9398 C 886.213 2.79133 3.40254 0
M  V30 9399 H 883.332 0.56899 0.468422 0
M  V30 9400 H 885.974 1.80429 0.595438 0
M  V30 9401 H 884.124 2.49397 2.97881 0
M  V30 9402 H 885.796 4.44246 1.24269 0
M  V30 9403 H 884.039 4.19579 1.10162 0
M  V30 9404 H 884.71 4.87629 2.58693 0
M  V30 9405 H 887.186 2.97632 2.90783 0
M  V30 9406 H 886.062 3.60298 4.14097 0
M  V30 9407 H 886.323 1.87122 4.00547 0
M  V30 9408 N 885.382 -0.782676 1.36792 0
M  V30 9409 C 886.798 -1.08169 1.17352 0
M  V30 9410 C 886.998 -2.015 0.0022037 0
M  V30 9411 O 886.054 -2.43692 -0.661093 0
M  V30 9412 C 887.367 -1.68969 2.48737 0
M  V30 9413 C 888.915 -1.81278 2.55161 0
M  V30 9414 C 889.39 -2.45492 3.86649 0
M  V30 9415 N 890.881 -2.52954 3.88032 0
M  V30 9416 C 891.616 -3.03465 4.86515 0
M  V30 9417 N 891.112 -3.54232 5.95392 0
M  V30 9418 N 892.905 -3.02239 4.73928 0
M  V30 9419 H 885.056 -0.162757 2.11775 0
M  V30 9420 H 887.319 -0.134823 0.938364 0
M  V30 9421 H 887.025 -1.07859 3.34753 0
M  V30 9422 H 886.899 -2.68397 2.65034 0
M  V30 9423 H 889.286 -2.41524 1.69559 0
M  V30 9424 H 889.367 -0.806367 2.42758 0
M  V30 9425 H 889.011 -1.85889 4.7266 0
M  V30 9426 H 888.941 -3.46718 3.96351 0
M  V30 9427 H 891.432 -2.17014 3.09376 0
M  V30 9428 H 891.745 -3.91145 6.66503 0
M  V30 9429 H 890.09 -3.52366 5.99052 0
M  V30 9430 H 893.281 -2.61871 3.87996 0
M  V30 9431 H 893.454 -3.41295 5.50837 0
M  V30 9432 N 886.86 -1.21182 -1.00761 0
M  V30 9433 C 888.271 -1.02652 -1.55947 0
M  V30 9434 C 888.622 0.414466 -1.91772 0
M  V30 9435 O 887.747 1.29727 -1.73204 0
M  V30 9436 C 888.342 -1.85713 -2.83366 0
M  V30 9437 C 886.901 -1.71523 -3.35048 0
M  V30 9438 C 886.048 -1.83087 -2.08265 0
M  V30 9439 H 888.999 -1.35242 -0.830379 0
M  V30 9440 H 889.02 -1.36583 -3.55141 0
M  V30 9441 H 888.532 -2.90584 -2.5726 0
M  V30 9442 H 886.633 -0.693257 -3.66094 0
M  V30 9443 H 886.746 -2.53333 -4.06644 0
M  V30 9444 H 885.11 -1.26367 -2.21141 0
M  V30 9445 H 885.893 -2.8946 -1.84575 0
M  V30 9446 N 888.338 1.20213 -1.01915 0
M  V30 9447 C 889.615 1.85348 -0.62495 0
M  V30 9448 C 889.995 1.91101 0.896854 0
M  V30 9449 O 889.343 1.42075 1.78961 0
M  V30 9450 C 889.553 3.24849 -1.27571 0
M  V30 9451 C 890.901 4.01107 -1.39277 0
M  V30 9452 O 891.925 3.34211 -1.23212 0
M  V30 9453 O 890.784 5.20914 -1.6526 0
M  V30 9454 H 887.878 0.798303 -0.215965 0
M  V30 9455 H 890.424 1.27782 -1.11669 0
M  V30 9456 H 889.196 3.1544 -2.31545 0
M  V30 9457 H 888.819 3.90049 -0.77122 0
M  V30 9458 N 889.816 0.795718 1.36037 0
M  V30 9459 C 891.062 0.371574 1.99367 0
M  V30 9460 C 891.395 -1.0557 1.62999 0
M  V30 9461 O 890.67 -1.73051 0.887895 0
M  V30 9462 C 890.953 0.542622 3.55988 0
M  V30 9463 C 890.806 2.01404 4.0219 0
M  V30 9464 C 892.125 -0.0384527 4.40083 0
M  V30 9465 H 889.244 0.136483 0.724252 0
M  V30 9466 H 891.886 1.00323 1.61355 0
M  V30 9467 H 890.036 0.0049053 3.885 0
M  V30 9468 H 891.708 2.6133 3.80137 0
M  V30 9469 H 889.951 2.51439 3.53498 0
M  V30 9470 H 890.622 2.08466 5.11122 0
M  V30 9471 H 893.098 0.420634 4.13968 0
M  V30 9472 H 891.974 0.111214 5.48787 0
M  V30 9473 H 892.235 -1.13116 4.27384 0
M  V30 9474 N 891.294 -1.47756 0.548274 0
M  V30 9475 C 892.71 -1.58247 0.207401 0
M  V30 9476 C 892.91 -1.54804 -1.28988 0
M  V30 9477 O 891.966 -1.44673 -2.06944 0
M  V30 9478 C 893.279 -2.89129 0.826142 0
M  V30 9479 C 894.827 -3.02695 0.79655 0
M  V30 9480 C 895.302 -4.36264 1.3942 0
M  V30 9481 N 896.793 -4.42877 1.35698 0
M  V30 9482 C 897.528 -5.44773 1.78913 0
M  V30 9483 N 897.024 -6.53528 2.29942 0
M  V30 9484 N 898.817 -5.35765 1.70038 0
M  V30 9485 H 890.968 -1.48236 1.52117 0
M  V30 9486 H 893.231 -0.704957 0.633829 0
M  V30 9487 H 892.937 -2.97358 1.87806 0
M  V30 9488 H 892.811 -3.75891 0.313916 0
M  V30 9489 H 895.198 -2.94067 -0.246655 0
M  V30 9490 H 895.279 -2.17496 1.34644 0
M  V30 9491 H 894.923 -4.45646 2.43642 0
M  V30 9492 H 894.853 -5.20179 0.819827 0
M  V30 9493 H 897.344 -3.64874 0.983623 0
M  V30 9494 H 897.657 -7.27441 2.60863 0
M  V30 9495 H 896.002 -6.54442 2.33947 0
M  V30 9496 H 899.193 -4.49699 1.29955 0
M  V30 9497 H 899.366 -6.1504 2.04035 0
M  V30 9498 N 892.772 -0.284283 -1.55015 0
M  V30 9499 C 894.002 0.332465 -2.03907 0
M  V30 9500 C 894.41 1.49331 -1.16177 0
M  V30 9501 O 893.753 1.82851 -0.176395 0
M  V30 9502 C 893.815 0.867193 -3.48884 0
M  V30 9503 C 893.479 -0.166198 -4.56698 0
M  V30 9504 C 894.476 -0.988898 -5.10408 0
M  V30 9505 C 892.161 -0.303081 -5.01385 0
M  V30 9506 C 894.155 -1.93458 -6.07333 0
M  V30 9507 C 891.842 -1.25223 -5.98133 0
M  V30 9508 C 892.84 -2.06647 -6.50988 0
M  V30 9509 O 892.528 -2.99955 -7.45843 0
M  V30 9510 H 892.26 0.0786597 -0.671408 0
M  V30 9511 H 894.814 -0.416871 -2.01125 0
M  V30 9512 H 893.044 1.66676 -3.48935 0
M  V30 9513 H 894.733 1.39802 -3.81065 0
M  V30 9514 H 895.499 -0.89393 -4.76691 0
M  V30 9515 H 891.378 0.320711 -4.59883 0
M  V30 9516 H 894.922 -2.57053 -6.48513 0
M  V30 9517 H 890.819 -1.34798 -6.31268 0
M  V30 9518 H 891.587 -2.94742 -7.6359 0
M  V30 9519 N 894.251 1.57596 -0.0117121 0
M  V30 9520 C 895.662 1.79033 0.529521 0
M  V30 9521 C 896.013 0.920299 1.73277 0
M  V30 9522 O 895.138 0.125934 2.16033 0
M  V30 9523 C 895.733 3.24695 0.967405 0
M  V30 9524 C 894.292 3.47188 1.45387 0
M  V30 9525 C 893.439 2.74245 0.410466 0
M  V30 9526 H 896.39 1.56908 -0.237836 0
M  V30 9527 H 896.411 3.33451 1.83278 0
M  V30 9528 H 895.923 3.87992 0.0914605 0
M  V30 9529 H 894.024 2.89121 2.35032 0
M  V30 9530 H 894.137 4.55886 1.47325 0
M  V30 9531 H 892.501 2.39209 0.874721 0
M  V30 9532 H 893.284 3.40248 -0.456713 0
M  V30 9533 N 895.729 -0.261212 1.5542 0
M  V30 9534 C 896.692 -1.30645 1.8832 0
M  V30 9535 C 897.692 -1.41782 0.758588 0
M  V30 9536 O 898.882 -1.40729 1.02669 0
M  V30 9537 C 896.014 -2.6862 2.09895 0
M  V30 9538 H 897.207 -1.02698 2.81768 0
M  V30 9539 H 894.76 -0.499838 1.48092 0
M  V30 9540 H 895.495 -3.0173 1.18868 0
M  V30 9541 H 895.28 -2.61921 2.91787 0
M  V30 9542 H 896.77 -3.44121 2.36581 0
M  V30 9543 N 897.207 -1.48554 -0.526253 0
M  V30 9544 C 898.137 -1.66252 -1.63959 0
M  V30 9545 C 899.118 -0.511351 -1.62232 0
M  V30 9546 O 900.303 -0.744322 -1.7937 0
M  V30 9547 C 897.433 -1.70556 -3.02536 0
M  V30 9548 C 896.387 -2.8521 -3.19123 0
M  V30 9549 C 895.713 -2.74606 -4.58798 0
M  V30 9550 C 897.013 -4.26463 -3.0154 0
M  V30 9551 H 898.707 -2.59459 -1.49404 0
M  V30 9552 H 896.253 -1.24862 -0.717326 0
M  V30 9553 H 898.206 -1.81524 -3.80298 0
M  V30 9554 H 896.93 -0.739297 -3.18123 0
M  V30 9555 H 895.589 -2.73802 -2.43779 0
M  V30 9556 H 895.237 -1.75941 -4.71226 0
M  V30 9557 H 894.937 -3.51544 -4.70841 0
M  V30 9558 H 896.461 -2.87548 -5.38655 0
M  V30 9559 H 897.875 -4.38685 -3.69091 0
M  V30 9560 H 896.272 -5.04428 -3.25073 0
M  V30 9561 H 897.342 -4.42667 -1.97925 0
M  V30 9562 N 898.685 0.775411 -1.37205 0
M  V30 9563 C 899.615 1.90258 -1.35367 0
M  V30 9564 C 900.596 1.68634 -0.222864 0
M  V30 9565 O 901.781 1.89545 -0.422659 0
M  V30 9566 C 898.911 3.27488 -1.15623 0
M  V30 9567 C 897.865 3.63668 -2.25676 0
M  V30 9568 C 897.191 4.994 -1.91059 0
M  V30 9569 C 898.491 3.70797 -3.67841 0
M  V30 9570 H 900.185 1.92053 -2.29687 0
M  V30 9571 H 897.731 0.922597 -1.10563 0
M  V30 9572 H 899.684 4.05976 -1.12968 0
M  V30 9573 H 898.408 3.26117 -0.177573 0
M  V30 9574 H 897.067 2.87486 -2.2748 0
M  V30 9575 H 896.715 4.94565 -0.917324 0
M  V30 9576 H 896.415 5.24576 -2.64751 0
M  V30 9577 H 897.939 5.80291 -1.89985 0
M  V30 9578 H 899.353 4.39444 -3.68187 0
M  V30 9579 H 897.75 4.07468 -4.40556 0
M  V30 9580 H 898.82 2.71549 -4.01732 0
M  V30 9581 N 900.163 1.21714 1.00117 0
M  V30 9582 C 901.096 0.923113 2.08696 0
M  V30 9583 C 902.074 -0.130827 1.62073 0
M  V30 9584 O 903.258 -0.00103064 1.885 0
M  V30 9585 C 900.385 0.386807 3.36484 0
M  V30 9586 C 899.431 1.42414 4.0202 0
M  V30 9587 S 900.264 2.99466 4.43937 0
M  V30 9588 C 901.42 2.47452 5.74907 0
M  V30 9589 H 901.653 1.84258 2.33315 0
M  V30 9590 H 899.186 1.0473 1.1345 0
M  V30 9591 H 901.144 0.0839547 4.10414 0
M  V30 9592 H 899.805 -0.511413 3.09909 0
M  V30 9593 H 898.998 0.998593 4.94008 0
M  V30 9594 H 898.6 1.67527 3.34381 0
M  V30 9595 H 900.892 1.88177 6.50842 0
M  V30 9596 H 901.835 3.37898 6.22279 0
M  V30 9597 H 902.243 1.89027 5.31911 0
M  V30 9598 N 901.641 -1.19671 1.02551 0
M  V30 9599 C 902.574 -2.21522 0.547998 0
M  V30 9600 C 903.552 -1.57363 -0.409349 0
M  V30 9601 O 904.736 -1.85638 -0.327248 0
M  V30 9602 C 901.863 -3.38101 -0.201375 0
M  V30 9603 C 900.909 -4.20601 0.706886 0
M  V30 9604 S 901.742 -4.89066 2.18116 0
M  V30 9605 C 902.898 -6.09058 1.4422 0
M  V30 9606 H 903.131 -2.61684 1.41099 0
M  V30 9607 H 900.664 -1.29864 0.835153 0
M  V30 9608 H 902.622 -4.05674 -0.627607 0
M  V30 9609 H 901.283 -2.96381 -1.04005 0
M  V30 9610 H 900.476 -5.03836 0.128554 0
M  V30 9611 H 900.078 -3.58329 1.07129 0
M  V30 9612 H 902.37 -6.73588 0.726975 0
M  V30 9613 H 903.313 -6.71368 2.25102 0
M  V30 9614 H 903.721 -5.56599 0.941176 0
M  V30 9615 N 903.119 -0.802921 -1.35613 0
M  V30 9616 C 904.082 -0.216422 -2.28176 0
M  V30 9617 C 905.082 0.594101 -1.49422 0
M  V30 9618 O 906.272 0.41312 -1.6923 0
M  V30 9619 C 903.404 0.698746 -3.33662 0
M  V30 9620 H 904.597 -1.03276 -2.81557 0
M  V30 9621 H 902.15 -0.573307 -1.45406 0
M  V30 9622 H 902.885 1.53891 -2.85461 0
M  V30 9623 H 902.67 0.119314 -3.91918 0
M  V30 9624 H 904.16 1.10354 -4.02755 0
M  V30 9625 N 904.597 1.47463 -0.556102 0
M  V30 9626 C 905.56 2.28478 0.181743 0
M  V30 9627 C 906.56 1.36886 0.843738 0
M  V30 9628 O 907.75 1.59527 0.69977 0
M  V30 9629 C 904.882 3.16534 1.26566 0
M  V30 9630 H 906.075 2.95182 -0.529892 0
M  V30 9631 H 903.628 1.53134 -0.313005 0
M  V30 9632 H 904.363 2.5452 2.00973 0
M  V30 9633 H 904.148 3.83939 0.795798 0
M  V30 9634 H 905.638 3.77579 1.78393 0
M  V30 9635 N 906.075 0.2925 1.54862 0
M  V30 9636 C 907.352 -0.371946 1.92031 0
M  V30 9637 C 907.732 -1.72363 1.21878 0
M  V30 9638 O 907.08 -2.25779 0.351573 0
M  V30 9639 C 907.29 -0.495027 3.45471 0
M  V30 9640 C 908.638 -0.769855 4.17562 0
M  V30 9641 O 909.662 -0.579168 3.5146 0
M  V30 9642 O 908.521 -1.13561 5.34571 0
M  V30 9643 H 905.615 -0.206463 0.800813 0
M  V30 9644 H 908.161 0.339933 1.6626 0
M  V30 9645 H 906.933 0.455528 3.88639 0
M  V30 9646 H 906.556 -1.2557 3.7725 0
M  V30 9647 N 907.553 -1.57587 0.0200696 0
M  V30 9648 C 908.503 -2.0616 -0.973751 0
M  V30 9649 C 909.487 -0.960282 -1.29102 0
M  V30 9650 O 910.679 -1.22391 -1.27865 0
M  V30 9651 C 907.808 -2.58487 -2.25919 0
M  V30 9652 C 906.894 -3.75533 -1.97068 0
M  V30 9653 N 907.285 -4.86482 -1.38451 0
M  V30 9654 C 905.583 -3.83847 -2.27107 0
M  V30 9655 C 906.284 -5.67773 -1.26527 0
M  V30 9656 N 905.26 -5.14398 -1.75772 0
M  V30 9657 H 909.062 -2.89346 -0.515365 0
M  V30 9658 H 906.576 -1.61341 -0.185163 0
M  V30 9659 H 908.573 -2.91572 -2.97979 0
M  V30 9660 H 907.233 -1.76728 -2.72392 0
M  V30 9661 H 908.244 -5.06922 -1.06069 0
M  V30 9662 H 904.921 -3.12978 -2.76316 0
M  V30 9663 H 906.311 -6.66966 -0.812785 0
M  V30 9664 N 909.032 0.252966 -1.55557 0
M  V30 9665 C 910.309 1.00432 -1.67847 0
M  V30 9666 C 910.689 2.03587 -0.55816 0
M  V30 9667 O 910.037 2.24239 0.439197 0
M  V30 9668 C 910.247 1.64313 -3.079 0
M  V30 9669 C 911.595 2.14726 -3.66303 0
M  V30 9670 O 912.619 1.74264 -3.10661 0
M  V30 9671 O 911.478 2.89 -4.63833 0
M  V30 9672 H 908.572 0.467102 -0.682455 0
M  V30 9673 H 911.118 0.247233 -1.67889 0
M  V30 9674 H 909.89 0.896681 -3.80888 0
M  V30 9675 H 909.513 2.46657 -3.11843 0
M  V30 9676 N 910.51 1.48831 0.518367 0
M  V30 9677 C 911.787 1.47933 1.27966 0
M  V30 9678 C 912.167 0.197393 2.10175 0
M  V30 9679 O 911.515 -0.820656 2.13255 0
M  V30 9680 C 911.725 2.74816 2.15121 0
M  V30 9681 C 913.073 3.23613 2.74881 0
M  V30 9682 O 914.097 2.75814 2.254 0
M  V30 9683 O 912.956 4.06818 3.64913 0
M  V30 9684 H 910.05 0.591316 0.578164 0
M  V30 9685 H 912.596 1.61077 0.534065 0
M  V30 9686 H 911.368 3.59621 1.54234 0
M  V30 9687 H 910.991 2.64449 2.96905 0
M  V30 9688 N 911.988 -0.768124 1.37614 0
M  V30 9689 C 913.404 -1.06919 1.18493 0
M  V30 9690 C 913.604 -2.01486 0.0235753 0
M  V30 9691 O 912.66 -2.4438 -0.635209 0
M  V30 9692 C 913.973 -1.66321 2.50515 0
M  V30 9693 C 915.521 -1.78562 2.57069 0
M  V30 9694 C 915.996 -2.41377 3.89231 0
M  V30 9695 N 917.487 -2.48824 3.90693 0
M  V30 9696 C 918.222 -2.98288 4.89706 0
M  V30 9697 N 917.718 -3.47897 5.99115 0
M  V30 9698 N 919.511 -2.97196 4.77107 0
M  V30 9699 H 911.662 -0.140286 2.11936 0
M  V30 9700 H 913.925 -0.124863 0.939741 0
M  V30 9701 H 913.631 -1.04303 3.35878 0
M  V30 9702 H 913.505 -2.65571 2.67866 0
M  V30 9703 H 915.892 -2.39712 1.72111 0
M  V30 9704 H 915.973 -0.780574 2.43599 0
M  V30 9705 H 915.617 -1.80866 4.74605 0
M  V30 9706 H 915.547 -3.42495 4.00006 0
M  V30 9707 H 918.038 -2.1372 3.1166 0
M  V30 9708 H 918.351 -3.84053 6.70614 0
M  V30 9709 H 916.696 -3.45993 6.02755 0
M  V30 9710 H 919.887 -2.57741 3.90752 0
M  V30 9711 H 920.06 -3.35434 5.54426 0
M  V30 9712 N 913.466 -1.22244 -0.994698 0
M  V30 9713 C 914.712 -1.04746 -1.73655 0
M  V30 9714 C 915.045 0.41668 -1.89677 0
M  V30 9715 O 914.32 1.30897 -1.43862 0
M  V30 9716 C 914.603 -1.75716 -3.14318 0
M  V30 9717 C 914.456 -3.29714 -3.05955 0
M  V30 9718 C 915.775 -1.50809 -4.13455 0
M  V30 9719 H 912.894 -0.381921 -0.630322 0
M  V30 9720 H 915.536 -1.50559 -1.15897 0
M  V30 9721 H 913.686 -1.3677 -3.63629 0
M  V30 9722 H 915.358 -3.78093 -2.64279 0
M  V30 9723 H 913.601 -3.59484 -2.42804 0
M  V30 9724 H 914.272 -3.74547 -4.05485 0
M  V30 9725 H 916.748 -1.84636 -3.72892 0
M  V30 9726 H 915.624 -2.02964 -5.09997 0
M  V30 9727 H 915.885 -0.440292 -4.39902 0
M  V30 9728 N 914.944 1.19125 -1.03184 0
M  V30 9729 C 916.221 1.84674 -0.644574 0
M  V30 9730 C 916.601 1.92042 0.876534 0
M  V30 9731 O 915.949 1.43965 1.77444 0
M  V30 9732 C 916.159 3.23477 -1.3101 0
M  V30 9733 C 917.507 3.99608 -1.43524 0
M  V30 9734 O 918.531 3.32886 -1.2675 0
M  V30 9735 O 917.39 5.19132 -1.70776 0
M  V30 9736 H 914.484 0.795968 -0.22442 0
M  V30 9737 H 917.03 1.2659 -1.13018 0
M  V30 9738 H 915.802 3.12967 -2.34878 0
M  V30 9739 H 915.425 3.89209 -0.812547 0
M  V30 9740 N 916.422 0.810101 1.35185 0
M  V30 9741 C 917.833 0.452616 1.81131 0
M  V30 9742 C 918.184 -1.02573 1.67252 0
M  V30 9743 O 917.309 -1.79735 1.20516 0
M  V30 9744 C 917.904 0.814775 3.28857 0
M  V30 9745 C 916.463 0.509839 3.72931 0
M  V30 9746 C 915.61 1.03852 2.57119 0
M  V30 9747 H 918.561 1.00143 1.23114 0
M  V30 9748 H 918.582 0.113635 3.8033 0
M  V30 9749 H 918.094 1.89078 3.38926 0
M  V30 9750 H 916.195 -0.557289 3.68409 0
M  V30 9751 H 916.308 1.04493 4.67566 0
M  V30 9752 H 914.672 0.460671 2.50499 0
M  V30 9753 H 915.455 2.12071 2.69964 0
M  V30 9754 N 917.9 -1.47166 0.563914 0
M  V30 9755 C 918.833 -2.27058 -0.227989 0
M  V30 9756 C 919.811 -1.34468 -0.914179 0
M  V30 9757 O 920.995 -1.63857 -0.931829 0
M  V30 9758 C 918.122 -3.11689 -1.32543 0
M  V30 9759 C 917.168 -4.19906 -0.747084 0
M  V30 9760 S 918.001 -5.33916 0.41153 0
M  V30 9761 C 919.157 -6.22112 -0.687566 0
M  V30 9762 H 919.39 -2.93876 0.449939 0
M  V30 9763 H 916.923 -1.50372 0.350382 0
M  V30 9764 H 918.881 -3.61017 -1.95389 0
M  V30 9765 H 917.542 -2.44221 -1.97522 0
M  V30 9766 H 916.735 -4.78876 -1.57141 0
M  V30 9767 H 916.337 -3.73493 -0.194671 0
M  V30 9768 H 918.629 -6.58867 -1.578 0
M  V30 9769 H 919.572 -7.07971 -0.135058 0
M  V30 9770 H 919.98 -5.55871 -0.983255 0
M  V30 9771 N 919.378 -0.300708 -1.54705 0
M  V30 9772 C 920.328 0.590589 -2.20218 0
M  V30 9773 C 921.312 1.09913 -1.17507 0
M  V30 9774 O 922.504 1.03995 -1.43227 0
M  V30 9775 C 919.633 1.76214 -2.94625 0
M  V30 9776 C 918.719 1.26957 -4.04651 0
M  V30 9777 N 919.11 0.494982 -5.03372 0
M  V30 9778 C 917.408 1.55033 -4.18188 0
M  V30 9779 C 918.109 0.232724 -5.81234 0
M  V30 9780 N 917.085 0.812443 -5.37494 0
M  V30 9781 H 920.887 -0.00876354 -2.93899 0
M  V30 9782 H 918.401 -0.105456 -1.62057 0
M  V30 9783 H 920.398 2.41221 -3.40027 0
M  V30 9784 H 919.058 2.36519 -2.22461 0
M  V30 9785 H 920.069 0.13991 -5.17711 0
M  V30 9786 H 916.746 2.16089 -3.57228 0
M  V30 9787 H 918.136 -0.389362 -6.70771 0
M  V30 9788 N 920.856 1.57574 -0.0284266 0
M  V30 9789 C 921.819 2.09096 0.938691 0
M  V30 9790 C 922.819 1.00588 1.25454 0
M  V30 9791 O 924.009 1.2675 1.19499 0
M  V30 9792 C 921.141 2.55624 2.25542 0
M  V30 9793 H 922.334 2.95829 0.49248 0
M  V30 9794 H 919.887 1.5475 0.219594 0
M  V30 9795 H 920.622 1.72218 2.74793 0
M  V30 9796 H 920.407 3.34896 2.03929 0
M  V30 9797 H 921.897 2.95712 2.94863 0
M  V30 9798 N 922.334 -0.244713 1.55689 0
M  V30 9799 C 923.75 -0.593331 1.48161 0
M  V30 9800 C 923.95 -1.88234 0.719047 0
M  V30 9801 O 923.006 -2.51266 0.249292 0
M  V30 9802 C 924.319 -0.694032 2.92581 0
M  V30 9803 C 925.867 -0.786213 3.02965 0
M  V30 9804 C 926.342 -0.918457 4.48696 0
M  V30 9805 N 927.833 -0.983272 4.52643 0
M  V30 9806 C 928.568 -1.1049 5.62654 0
M  V30 9807 N 928.064 -1.19193 6.8247 0
M  V30 9808 N 929.857 -1.13823 5.50455 0
M  V30 9809 H 922.008 0.601446 2.03707 0
M  V30 9810 H 924.271 0.207894 0.924924 0
M  V30 9811 H 923.977 0.183133 3.51223 0
M  V30 9812 H 923.851 -1.56525 3.4319 0
M  V30 9813 H 926.238 -1.65383 2.44402 0
M  V30 9814 H 926.319 0.110202 2.55563 0
M  V30 9815 H 925.963 -0.0553881 5.0787 0
M  V30 9816 H 925.893 -1.82994 4.93782 0
M  V30 9817 H 928.384 -0.927269 3.66347 0
M  V30 9818 H 928.697 -1.28387 7.62061 0
M  V30 9819 H 927.042 -1.16147 6.85226 0
M  V30 9820 H 930.233 -1.06673 4.55783 0
M  V30 9821 H 930.406 -1.22957 6.36228 0
M  V30 9822 N 923.813 -1.49104 -0.510467 0
M  V30 9823 C 924.76 -1.65074 -1.61305 0
M  V30 9824 C 925.73 -0.492362 -1.58635 0
M  V30 9825 O 926.915 -0.718241 -1.76765 0
M  V30 9826 C 924.055 -1.71457 -2.99493 0
M  V30 9827 C 923.168 -2.98536 -3.12251 0
M  V30 9828 C 922.303 -2.95957 -4.41116 0
M  V30 9829 C 921.342 -4.17655 -4.47471 0
M  V30 9830 N 920.479 -4.13041 -5.67751 0
M  V30 9831 H 925.319 -2.59222 -1.46996 0
M  V30 9832 H 922.856 -1.28535 -0.715346 0
M  V30 9833 H 924.814 -1.7314 -3.79577 0
M  V30 9834 H 923.444 -0.807834 -3.12528 0
M  V30 9835 H 922.496 -3.06509 -2.25292 0
M  V30 9836 H 923.808 -3.88527 -3.12807 0
M  V30 9837 H 922.962 -2.96149 -5.2951 0
M  V30 9838 H 921.701 -2.03728 -4.4311 0
M  V30 9839 H 920.706 -4.17717 -3.57481 0
M  V30 9840 H 921.931 -5.11066 -4.472 0
M  V30 9841 H 919.877 -3.23643 -5.70606 0
M  V30 9842 H 919.794 -4.96757 -5.69884 0
M  V30 9843 H 921.062 -4.17322 -6.58379 0
M  V30 9844 N 925.291 0.760815 -1.38019 0
M  V30 9845 C 926.538 1.51973 -1.3383 0
M  V30 9846 C 926.866 1.9436 0.0738855 0
M  V30 9847 O 926.121 1.65181 1.04946 0
M  V30 9848 C 926.42 2.79024 -2.23339 0
M  V30 9849 C 926.086 2.55636 -3.71431 0
M  V30 9850 C 924.748 2.48966 -4.11788 0
M  V30 9851 C 927.1 2.35018 -4.65205 0
M  V30 9852 C 924.428 2.19684 -5.44018 0
M  V30 9853 C 926.78 2.07258 -5.97685 0
M  V30 9854 C 925.444 1.9904 -6.37134 0
M  V30 9855 H 924.714 0.556108 -0.489719 0
M  V30 9856 H 927.361 0.87545 -1.70318 0
M  V30 9857 H 925.666 3.48065 -1.79883 0
M  V30 9858 H 927.363 3.36951 -2.17405 0
M  V30 9859 H 923.953 2.61695 -3.39432 0
M  V30 9860 H 928.137 2.39154 -4.34878 0
M  V30 9861 H 923.393 2.11825 -5.73533 0
M  V30 9862 H 927.567 1.90307 -6.69893 0
M  V30 9863 H 925.194 1.76115 -7.39519 0
M  V30 9864 N 926.769 1.22769 0.988202 0
M  V30 9865 C 928.015 1.05665 1.73097 0
M  V30 9866 C 928.348 -0.406615 1.89895 0
M  V30 9867 O 927.623 -1.30132 1.44554 0
M  V30 9868 C 927.906 1.77381 3.13382 0
M  V30 9869 C 927.759 3.31332 3.04203 0
M  V30 9870 C 929.078 1.52999 4.12649 0
M  V30 9871 H 926.197 0.385258 0.628288 0
M  V30 9872 H 928.839 1.51171 1.15097 0
M  V30 9873 H 926.989 1.38696 3.62899 0
M  V30 9874 H 928.661 3.79489 2.6227 0
M  V30 9875 H 926.904 3.60767 2.40894 0
M  V30 9876 H 927.575 3.76692 4.03493 0
M  V30 9877 H 930.051 1.86611 3.71908 0
M  V30 9878 H 928.927 2.05666 5.08913 0
M  V30 9879 H 929.188 0.463615 4.39662 0
M  V30 9880 N 928.247 -1.18576 1.03814 0
M  V30 9881 C 929.21 -2.2033 0.63146 0
M  V30 9882 C 930.21 -1.57787 -0.309816 0
M  V30 9883 O 931.4 -1.73938 -0.0955598 0
M  V30 9884 C 928.532 -3.40818 -0.0745963 0
M  V30 9885 H 929.725 -2.57824 1.53189 0
M  V30 9886 H 927.278 -1.32416 0.830398 0
M  V30 9887 H 928.013 -3.08853 -0.988947 0
M  V30 9888 H 927.798 -3.87453 0.6019 0
M  V30 9889 H 929.288 -4.16166 -0.345727 0
M  V30 9890 N 929.725 -0.817259 -1.34754 0
M  V30 9891 C 930.688 -0.240611 -2.27934 0
M  V30 9892 C 931.688 0.578219 -1.50044 0
M  V30 9893 O 932.878 0.395148 -1.69659 0
M  V30 9894 C 930.01 0.663318 -3.34384 0
M  V30 9895 H 931.203 -1.06257 -2.80445 0
M  V30 9896 H 928.756 -0.588697 -1.4479 0
M  V30 9897 H 929.491 1.50855 -2.87077 0
M  V30 9898 H 929.276 0.0777388 -3.92023 0
M  V30 9899 H 930.766 1.06076 -4.03903 0
M  V30 9900 N 931.203 1.46865 -0.571711 0
M  V30 9901 C 932.449 2.0273 -0.0531858 0
M  V30 9902 C 932.782 1.44353 1.29907 0
M  V30 9903 O 932.057 0.604488 1.84868 0
M  V30 9904 C 932.34 3.60092 0.0243831 0
M  V30 9905 C 932.193 4.28874 -1.35599 0
M  V30 9906 C 933.512 4.33994 0.730563 0
M  V30 9907 H 930.631 0.736706 -0.0208018 0
M  V30 9908 H 933.273 1.75132 -0.736794 0
M  V30 9909 H 931.423 3.83736 0.606565 0
M  V30 9910 H 933.095 4.16527 -1.98249 0
M  V30 9911 H 931.338 3.88664 -1.92674 0
M  V30 9912 H 932.009 5.37561 -1.25429 0
M  V30 9913 H 934.485 4.1543 0.236098 0
M  V30 9914 H 933.361 5.43699 0.753836 0
M  V30 9915 H 933.622 4.04257 1.78967 0
M  V30 9916 N 932.681 0.308908 1.54543 0
M  V30 9917 C 933.613 -0.597453 2.21276 0
M  V30 9918 C 934.626 -1.09137 1.20801 0
M  V30 9919 O 935.815 -1.00747 1.47351 0
M  V30 9920 C 932.915 -1.83085 2.85189 0
M  V30 9921 C 932.088 -1.4781 4.11669 0
M  V30 9922 C 931.147 -2.56748 4.59311 0
M  V30 9923 O 930.173 -2.21507 5.24331 0
M  V30 9924 N 931.375 -3.87427 4.32297 0
M  V30 9925 H 934.14 -0.0261183 2.99689 0
M  V30 9926 H 931.701 0.131456 1.61365 0
M  V30 9927 H 933.693 -2.55326 3.13992 0
M  V30 9928 H 932.263 -2.31039 2.1057 0
M  V30 9929 H 931.483 -0.587974 3.8979 0
M  V30 9930 H 932.771 -1.2179 4.94009 0
M  V30 9931 H 932.169 -4.18863 3.80224 0
M  V30 9932 H 930.726 -4.55942 4.6579 0
M  V30 9933 N 934.159 -1.57557 0.0367827 0
M  V30 9934 C 935.107 -2.11844 -0.960454 0
M  V30 9935 C 936.101 -1.04681 -1.33185 0
M  V30 9936 O 937.307 -1.23108 -1.31318 0
M  V30 9937 H 933.682 -0.676921 -0.32754 0
M  V30 9938 H 935.653 -2.94557 -0.477346 0
M  V30 9939 C 934.402 -2.66683 -2.23105 0
M  V30 9940 H 933.725 -3.48795 -1.95403 0
M  V30 9941 H 935.165 -3.08305 -2.91074 0
M  V30 9942 C 933.624 -1.59782 -2.96599 0
M  V30 9943 O 934.154 -1.00214 -3.88999 0
M  V30 9944 N 932.36 -1.31644 -2.59072 0
M  V30 9945 H 931.907 -1.80272 -1.8401 0
M  V30 9946 H 931.865 -0.603457 -3.08554 0
M  V30 9947 N 935.637 0.236453 -1.55816 0
M  V30 9948 C 936.862 0.98449 -1.82545 0
M  V30 9949 C 937.287 1.77755 -0.615206 0
M  V30 9950 O 936.645 1.75982 0.435895 0
M  V30 9951 C 936.693 1.88973 -3.07118 0
M  V30 9952 O 935.797 2.98298 -2.84766 0
M  V30 9953 H 935.138 0.279577 -0.602273 0
M  V30 9954 H 937.668 0.254277 -2.03014 0
M  V30 9955 H 937.678 2.3024 -3.36829 0
M  V30 9956 H 936.353 1.30671 -3.94839 0
M  V30 9957 H 934.93 2.61085 -2.6625 0
M  V30 9958 N 937.115 1.49373 0.502552 0
M  V30 9959 C 938.526 1.52 1.0841 0
M  V30 9960 C 938.877 0.305317 1.9381 0
M  V30 9961 O 938.002 -0.585023 2.08342 0
M  V30 9962 C 938.597 2.75437 1.97281 0
M  V30 9963 C 937.156 2.80848 2.50602 0
M  V30 9964 C 936.303 2.45894 1.28186 0
M  V30 9965 H 939.254 1.56092 0.286533 0
M  V30 9966 H 939.275 2.55511 2.81947 0
M  V30 9967 H 938.787 3.63827 1.35098 0
M  V30 9968 H 936.888 1.96735 3.16427 0
M  V30 9969 H 937.001 3.82979 2.8786 0
M  V30 9970 H 935.365 1.97639 1.60657 0
M  V30 9971 H 936.148 3.36556 0.677139 0
M  V30 9972 N 938.594 -0.753485 1.38421 0
M  V30 9973 C 939.842 -1.50962 1.34368 0
M  V30 9974 C 940.163 -1.94889 -0.0656895 0
M  V30 9975 O 939.433 -1.67652 -1.01339 0
M  V30 9976 H 938.013 -0.559967 0.494415 0
M  V30 9977 H 940.675 -0.895665 1.73101 0
M  V30 9978 H 939.771 -2.40048 1.99458 0
M  V30 9979 N 940.072 -1.23292 -0.981677 0
M  V30 9980 C 941.02 -1.0104 -2.09508 0
M  V30 9981 C 942.014 0.0501977 -1.69326 0
M  V30 9982 O 943.22 -0.103197 -1.79704 0
M  V30 9983 H 939.595 -0.309629 -0.685298 0
M  V30 9984 H 941.566 -1.95493 -2.25444 0
M  V30 9985 C 940.315 -0.616885 -3.42184 0
M  V30 9986 H 939.638 -1.4247 -3.73554 0
M  V30 9987 H 941.078 -0.500688 -4.21033 0
M  V30 9988 C 939.537 0.674721 -3.30074 0
M  V30 9989 O 940.067 1.72421 -3.62814 0
M  V30 9990 N 938.273 0.650151 -2.83234 0
M  V30 9991 H 937.82 -0.204225 -2.56789 0
M  V30 9992 H 937.778 1.51458 -2.75514 0
M  V30 9993 N 941.55 1.18024 -1.04442 0
M  V30 9994 C 942.961 1.69749 -0.777312 0
M  V30 9995 C 943.312 1.83234 0.701399 0
M  V30 9996 O 942.437 1.51452 1.54568 0
M  V30 9997 C 943.032 3.08321 -1.40441 0
M  V30 9998 C 941.591 3.57243 -1.18553 0
M  V30 9999 C 940.738 2.33695 -1.49271 0
M  V30 10000 H 943.689 1.02647 -1.21035 0
M  V30 10001 H 943.71 3.71787 -0.809628 0
M  V30 10002 H 943.222 2.98474 -2.48062 0
M  V30 10003 H 941.323 3.72379 -0.128221 0
M  V30 10004 H 941.436 4.40451 -1.88519 0
M  V30 10005 H 939.8 2.37792 -0.912526 0
M  V30 10006 H 940.583 2.26464 -2.5801 0
M  V30 10007 N 943.028 0.824394 1.34319 0
M  V30 10008 C 943.991 0.252696 2.27803 0
M  V30 10009 C 944.991 -0.570254 1.50349 0
M  V30 10010 O 946.181 -0.386145 1.69866 0
M  V30 10011 C 943.313 -0.645575 3.34731 0
M  V30 10012 H 944.506 1.07742 2.79878 0
M  V30 10013 H 942.059 0.596367 1.44475 0
M  V30 10014 H 942.794 -1.4933 2.87873 0
M  V30 10015 H 942.579 -0.0569478 3.92059 0
M  V30 10016 H 944.069 -1.03933 4.0446 0
M  V30 10017 N 944.506 -1.46559 0.579492 0
M  V30 10018 C 945.734 -2.06784 0.0693648 0
M  V30 10019 C 946.149 -1.42875 -1.23419 0
M  V30 10020 O 945.506 -0.532919 -1.74546 0
M  V30 10021 C 945.557 -3.61343 -0.106511 0
M  V30 10022 O 945.278 -4.22861 1.14545 0
M  V30 10023 C 946.779 -4.38489 -0.651359 0
M  V30 10024 H 943.999 -0.66866 0.0559848 0
M  V30 10025 H 946.543 -1.88235 0.799245 0
M  V30 10026 H 944.698 -3.7933 -0.786601 0
M  V30 10027 H 945.112 -5.15691 0.95723 0
M  V30 10028 H 946.586 -5.47237 -0.723615 0
M  V30 10029 H 947.063 -4.06309 -1.66763 0
M  V30 10030 H 947.669 -4.253 -0.0062433 0
M  V30 10031 N 945.984 -0.3171 -1.54377 0
M  V30 10032 C 946.947 0.53905 -2.22771 0
M  V30 10033 C 947.947 1.04865 -1.21901 0
M  V30 10034 O 949.137 0.942108 -1.46526 0
M  V30 10035 C 946.269 1.74804 -2.92671 0
M  V30 10036 H 947.462 -0.0587417 -2.99842 0
M  V30 10037 H 945.015 -0.068107 -1.56152 0
M  V30 10038 H 945.75 2.38524 -2.1972 0
M  V30 10039 H 945.535 1.39011 -3.66631 0
M  V30 10040 H 947.025 2.35592 -3.44799 0
M  V30 10041 N 947.462 1.57535 -0.0451378 0
M  V30 10042 C 948.392 2.14208 0.929372 0
M  V30 10043 C 949.373 1.06221 1.32858 0
M  V30 10044 O 950.558 1.34132 1.40436 0
M  V30 10045 C 947.688 2.68217 2.20629 0
M  V30 10046 C 946.642 3.81134 1.94734 0
M  V30 10047 C 945.968 4.21636 3.28828 0
M  V30 10048 C 947.268 5.06531 1.27374 0
M  V30 10049 H 948.962 2.95886 0.457348 0
M  V30 10050 H 946.508 1.42332 0.218544 0
M  V30 10051 H 948.461 3.06502 2.89196 0
M  V30 10052 H 947.185 1.83722 2.70026 0
M  V30 10053 H 945.844 3.43312 1.28579 0
M  V30 10054 H 945.492 3.34099 3.76014 0
M  V30 10055 H 945.192 4.97736 3.12302 0
M  V30 10056 H 946.716 4.62516 3.98637 0
M  V30 10057 H 948.13 5.423 1.85967 0
M  V30 10058 H 946.527 5.87735 1.21194 0
M  V30 10059 H 947.597 4.84261 0.248913 0
M  V30 10060 N 948.94 -0.228186 1.55939 0
M  V30 10061 C 949.87 -1.28607 1.94891 0
M  V30 10062 C 950.851 -1.49236 0.816245 0
M  V30 10063 O 952.036 -1.61531 1.07803 0
M  V30 10064 C 949.166 -2.63719 2.25986 0
M  V30 10065 C 948.12 -2.57757 3.4168 0
M  V30 10066 C 947.446 -3.96837 3.58364 0
M  V30 10067 C 948.746 -2.13116 4.76843 0
M  V30 10068 H 950.44 -0.962531 2.83506 0
M  V30 10069 H 947.986 -0.461577 1.36402 0
M  V30 10070 H 949.939 -3.37878 2.51826 0
M  V30 10071 H 948.663 -2.97747 1.34217 0
M  V30 10072 H 947.322 -1.86055 3.15878 0
M  V30 10073 H 946.97 -4.28162 2.63982 0
M  V30 10074 H 946.67 -3.93731 4.36176 0
M  V30 10075 H 948.194 -4.72668 3.86545 0
M  V30 10076 H 949.608 -2.77015 5.01932 0
M  V30 10077 H 948.005 -2.21083 5.57891 0
M  V30 10078 H 949.075 -1.08326 4.72645 0
M  V30 10079 N 950.418 -1.49637 -0.494624 0
M  V30 10080 C 951.834 -1.36541 -0.826361 0
M  V30 10081 C 952.034 -0.403386 -1.97421 0
M  V30 10082 O 951.09 0.162614 -2.51976 0
M  V30 10083 C 952.403 -2.77401 -1.16057 0
M  V30 10084 C 953.951 -2.86148 -1.26841 0
M  V30 10085 C 954.426 -4.27789 -1.63587 0
M  V30 10086 N 955.917 -4.3063 -1.70624 0
M  V30 10087 C 956.652 -5.37198 -2.00514 0
M  V30 10088 N 956.148 -6.54004 -2.28584 0
M  V30 10089 N 957.941 -5.2462 -2.01818 0
M  V30 10090 H 950.092 -2.10776 0.26219 0
M  V30 10091 H 952.355 -0.946419 0.0547235 0
M  V30 10092 H 952.061 -3.49526 -0.390434 0
M  V30 10093 H 951.935 -3.1317 -2.10249 0
M  V30 10094 H 954.322 -2.14256 -2.02925 0
M  V30 10095 H 954.403 -2.53953 -0.30684 0
M  V30 10096 H 954.047 -5.00209 -0.880507 0
M  V30 10097 H 953.977 -4.57453 -2.60854 0
M  V30 10098 H 956.468 -3.46393 -1.51065 0
M  V30 10099 H 956.781 -7.31041 -2.50598 0
M  V30 10100 H 955.126 -6.57219 -2.26027 0
M  V30 10101 H 958.317 -4.32371 -1.79369 0
M  V30 10102 H 958.49 -6.07765 -2.24778 0
M  V30 10103 N 951.896 0.746133 -1.38819 0
M  V30 10104 C 953.145 1.50085 -1.34749 0
M  V30 10105 C 953.458 1.95516 0.0574786 0
M  V30 10106 O 954.664 2.70601 0.22073 0
M  V30 10107 C 953.12 2.71141 -2.36665 0
M  V30 10108 C 952.728 2.32706 -3.82821 0
M  V30 10109 C 954.472 3.49005 -2.41652 0
M  V30 10110 C 952.379 3.50418 -4.76405 0
M  V30 10111 H 951.309 0.563563 -0.500912 0
M  V30 10112 H 953.96 0.814951 -1.6441 0
M  V30 10113 H 952.342 3.4175 -2.00058 0
M  V30 10114 H 953.516 1.69715 -4.28408 0
M  V30 10115 H 951.831 1.67959 -3.81023 0
M  V30 10116 H 954.428 4.36541 -3.08766 0
M  V30 10117 H 954.771 3.90687 -1.43769 0
M  V30 10118 H 955.304 2.85416 -2.77097 0
M  V30 10119 H 952.043 3.13795 -5.75511 0
M  V30 10120 H 951.563 4.12426 -4.35505 0
M  V30 10121 H 953.242 4.16901 -4.94775 0
M  V30 10122 N 953.375 1.23811 0.975125 0
M  V30 10123 C 954.285 1.0408 2.10249 0
M  V30 10124 C 955.301 -0.0162404 1.73992 0
M  V30 10125 O 956.477 0.180346 2.00591 0
M  V30 10126 C 953.542 0.640013 3.40741 0
M  V30 10127 C 952.603 1.7727 3.90991 0
M  V30 10128 C 951.836 1.39094 5.15256 0
M  V30 10129 O 952.059 0.277483 5.69725 0
M  V30 10130 O 950.993 2.21392 5.59704 0
M  V30 10131 H 954.819 1.98575 2.29786 0
M  V30 10132 H 952.404 1.02563 1.08633 0
M  V30 10133 H 954.286 0.427684 4.19224 0
M  V30 10134 H 952.961 -0.27589 3.22522 0
M  V30 10135 H 951.868 2.03971 3.13602 0
M  V30 10136 H 953.201 2.66711 4.13674 0
M  V30 10137 N 954.853 -1.17469 1.05066 0
M  V30 10138 C 955.816 -2.19648 0.654793 0
M  V30 10139 C 956.816 -1.58107 -0.293063 0
M  V30 10140 O 958.006 -1.74029 -0.077106 0
M  V30 10141 C 955.138 -3.40878 -0.0384437 0
M  V30 10142 H 956.331 -2.56184 1.55915 0
M  V30 10143 H 953.884 -1.31528 0.844396 0
M  V30 10144 H 954.619 -3.09885 -0.956133 0
M  V30 10145 H 954.404 -3.86792 0.642961 0
M  V30 10146 H 955.894 -4.1651 -0.301568 0
M  V30 10147 N 956.331 -0.831506 -1.3388 0
M  V30 10148 C 957.279 -0.247896 -2.31275 0
M  V30 10149 C 958.273 0.616083 -1.578 0
M  V30 10150 O 959.479 0.506465 -1.72728 0
M  V30 10151 H 955.854 -0.0614293 -0.749487 0
M  V30 10152 H 957.825 -1.08401 -2.78014 0
M  V30 10153 C 956.574 0.568434 -3.43022 0
M  V30 10154 H 955.897 -0.0870654 -3.99705 0
M  V30 10155 H 957.337 0.942751 -4.13386 0
M  V30 10156 C 955.796 1.74431 -2.88228 0
M  V30 10157 O 956.326 2.84278 -2.83811 0
M  V30 10158 N 954.532 1.56382 -2.44935 0
M  V30 10159 H 954.079 0.670255 -2.48727 0
M  V30 10160 H 954.037 2.35208 -2.08625 0
M  V30 10161 N 957.809 1.4625 -0.587256 0
M  V30 10162 C 958.772 2.28812 0.133238 0
M  V30 10163 C 959.772 1.38645 0.814513 0
M  V30 10164 O 960.962 1.60975 0.665774 0
M  V30 10165 C 958.094 3.19147 1.19824 0
M  V30 10166 H 959.287 2.93991 -0.592386 0
M  V30 10167 H 956.84 1.52435 -0.345416 0
M  V30 10168 H 957.575 2.58725 1.95529 0
M  V30 10169 H 957.36 3.85541 0.71418 0
M  V30 10170 H 958.85 3.81278 1.70344 0
M  V30 10171 N 959.287 0.325282 1.54207 0
M  V30 10172 C 960.535 -0.276229 2.00203 0
M  V30 10173 C 960.856 -1.52519 1.21503 0
M  V30 10174 O 960.126 -1.93313 0.317302 0
M  V30 10175 H 958.706 -0.105059 0.739575 0
M  V30 10176 H 961.368 0.442225 1.89817 0
M  V30 10177 H 960.464 -0.531427 3.07542 0
M  V30 10178 N 960.765 -1.57509 0.0534917 0
M  V30 10179 C 961.715 -2.08179 -0.929802 0
M  V30 10180 C 962.699 -0.987451 -1.27036 0
M  V30 10181 O 963.891 -1.25076 -1.2524 0
M  V30 10182 C 961.02 -2.63221 -2.20385 0
M  V30 10183 C 960.106 -3.79629 -1.89058 0
M  V30 10184 N 960.497 -4.8931 -1.28101 0
M  V30 10185 C 958.795 -3.88578 -2.18914 0
M  V30 10186 C 959.496 -5.70329 -1.14455 0
M  V30 10187 N 958.472 -5.18011 -1.64821 0
M  V30 10188 H 962.274 -2.90374 -0.453874 0
M  V30 10189 H 959.788 -1.61697 -0.150899 0
M  V30 10190 H 961.785 -2.97827 -2.91727 0
M  V30 10191 H 960.445 -1.82466 -2.68582 0
M  V30 10192 H 961.456 -5.09058 -0.952924 0
M  V30 10193 H 958.133 -3.18769 -2.69616 0
M  V30 10194 H 959.523 -6.6854 -0.671129 0
M  V30 10195 N 962.243 0.219913 -1.56058 0
M  V30 10196 C 963.491 0.942199 -1.78793 0
M  V30 10197 C 963.812 1.84804 -0.622284 0
M  V30 10198 O 963.082 1.9255 0.360735 0
M  V30 10199 H 961.662 0.350895 -0.659455 0
M  V30 10200 H 964.324 0.231376 -1.93522 0
M  V30 10201 H 963.42 1.54804 -2.71002 0
M  V30 10202 N 963.721 1.49897 0.486681 0
M  V30 10203 C 964.969 1.59789 1.23742 0
M  V30 10204 C 965.29 0.293056 1.92785 0
M  V30 10205 O 964.56 -0.688534 1.83401 0
M  V30 10206 H 963.14 0.588775 0.459731 0
M  V30 10207 H 965.802 1.86597 0.562808 0
M  V30 10208 H 964.898 2.40121 1.9937 0
M  V30 10209 N 965.199 -0.738761 1.39212 0
M  V30 10210 C 966.162 -1.83441 1.37412 0
M  V30 10211 C 967.162 -1.58484 0.271908 0
M  V30 10212 O 968.352 -1.65954 0.529609 0
M  V30 10213 C 965.484 -3.21167 1.143 0
M  V30 10214 H 966.677 -1.86441 2.34904 0
M  V30 10215 H 964.23 -0.942023 1.24722 0
M  V30 10216 H 964.965 -3.23829 0.174756 0
M  V30 10217 H 964.75 -3.40678 1.94116 0
M  V30 10218 H 966.24 -4.01231 1.15773 0
M  V30 10219 N 966.677 -1.24326 -0.968545 0
M  V30 10220 C 967.954 -0.990459 -1.68669 0
M  V30 10221 C 968.334 0.487487 -2.05394 0
M  V30 10222 O 967.682 1.46158 -1.75642 0
M  V30 10223 C 967.892 -1.91251 -2.91931 0
M  V30 10224 C 969.24 -2.18291 -3.6419 0
M  V30 10225 O 970.264 -1.88897 -3.01987 0
M  V30 10226 O 969.123 -2.68204 -4.76161 0
M  V30 10227 H 966.217 -0.374515 -0.737338 0
M  V30 10228 H 968.763 -1.35421 -1.02271 0
M  V30 10229 H 967.535 -2.9111 -2.61478 0
M  V30 10230 H 967.158 -1.55188 -3.66064 0
M  V30 10231 N 968.156 1.1691 -1.05688 0
M  V30 10232 C 969.088 2.20648 -0.620237 0
M  V30 10233 C 970.101 1.59652 0.318604 0
M  V30 10234 O 971.29 1.78157 0.110553 0
M  V30 10235 C 968.39 3.38716 0.111729 0
M  V30 10236 C 967.563 4.29277 -0.839062 0
M  V30 10237 C 966.622 5.25993 -0.147453 0
M  V30 10238 O 965.648 5.63787 -0.783151 0
M  V30 10239 N 966.85 5.69725 1.11327 0
M  V30 10240 H 969.615 2.58731 -1.51256 0
M  V30 10241 H 967.176 1.31858 -0.939412 0
M  V30 10242 H 969.168 4.00455 0.584657 0
M  V30 10243 H 967.738 2.99189 0.905784 0
M  V30 10244 H 966.958 3.64894 -1.4915 0
M  V30 10245 H 968.246 4.86669 -1.48428 0
M  V30 10246 H 967.644 5.41103 1.64999 0
M  V30 10247 H 966.201 6.33584 1.53018 0
M  V30 10248 N 969.634 0.838594 1.33437 0
M  V30 10249 C 970.88 0.434813 1.98084 0
M  V30 10250 C 971.213 -1.00331 1.66275 0
M  V30 10251 O 970.488 -1.70139 0.942501 0
M  V30 10252 C 970.771 0.655602 3.54082 0
M  V30 10253 C 970.624 2.14097 3.95578 0
M  V30 10254 C 971.943 0.101576 4.39983 0
M  V30 10255 H 969.062 0.159456 0.719544 0
M  V30 10256 H 971.704 1.05406 1.58081 0
M  V30 10257 H 969.854 0.128501 3.88287 0
M  V30 10258 H 971.526 2.73292 3.71631 0
M  V30 10259 H 969.769 2.62558 3.4532 0
M  V30 10260 H 970.44 2.24621 5.04231 0
M  V30 10261 H 972.916 0.552122 4.12421 0
M  V30 10262 H 971.792 0.28575 5.48156 0
M  V30 10263 H 972.053 -0.994616 4.30767 0
M  V30 10264 N 971.112 -1.45937 0.595003 0
M  V30 10265 C 972.075 -2.2888 -0.121102 0
M  V30 10266 C 973.075 -1.39075 -0.807149 0
M  V30 10267 O 974.265 -1.61326 -0.657228 0
M  V30 10268 C 971.397 -3.19778 -1.1813 0
M  V30 10269 H 972.59 -2.93673 0.607968 0
M  V30 10270 H 970.143 -1.5225 0.353495 0
M  V30 10271 H 970.878 -2.59759 -1.94154 0
M  V30 10272 H 970.663 -3.85914 -0.693724 0
M  V30 10273 H 972.153 -3.82176 -1.68319 0
M  V30 10274 N 972.59 -0.333456 -1.54032 0
M  V30 10275 C 973.537 0.527981 -2.2468 0
M  V30 10276 C 974.507 1.10371 -1.24127 0
M  V30 10277 O 975.692 1.14221 -1.52834 0
M  V30 10278 C 972.832 1.67808 -3.01553 0
M  V30 10279 C 971.945 1.13064 -4.16942 0
M  V30 10280 C 971.08 2.24722 -4.81325 0
M  V30 10281 C 970.119 1.67277 -5.88799 0
M  V30 10282 N 969.256 2.72638 -6.47003 0
M  V30 10283 H 974.096 -0.0810308 -2.9789 0
M  V30 10284 H 971.633 -0.051761 -1.47009 0
M  V30 10285 H 973.591 2.35502 -3.44376 0
M  V30 10286 H 972.221 2.25823 -2.30659 0
M  V30 10287 H 971.273 0.344948 -3.78833 0
M  V30 10288 H 972.585 0.670373 -4.94275 0
M  V30 10289 H 971.739 3.00301 -5.27166 0
M  V30 10290 H 970.478 2.74089 -4.03394 0
M  V30 10291 H 969.483 0.902002 -5.4235 0
M  V30 10292 H 970.708 1.18775 -6.68632 0
M  V30 10293 H 968.654 3.21277 -5.71941 0
M  V30 10294 H 968.571 2.31204 -7.19778 0
M  V30 10295 H 969.839 3.48015 -6.97499 0
M  V30 10296 N 974.068 1.57479 -0.061844 0
M  V30 10297 C 975.031 2.1104 0.894127 0
M  V30 10298 C 976.031 1.03227 1.23292 0
M  V30 10299 O 977.221 1.29256 1.16784 0
M  V30 10300 C 974.353 2.6035 2.20069 0
M  V30 10301 H 975.546 2.96807 0.429619 0
M  V30 10302 H 973.099 1.55181 0.18672 0
M  V30 10303 H 973.834 1.78008 2.71079 0
M  V30 10304 H 973.619 3.39146 1.9678 0
M  V30 10305 H 975.109 3.019 2.88525 0
M  V30 10306 N 975.546 -0.211634 1.56173 0
M  V30 10307 C 976.795 -0.932647 1.78842 0
M  V30 10308 C 977.108 -1.85103 0.63217 0
M  V30 10309 O 978.314 -2.61143 0.742746 0
M  V30 10310 C 976.77 -1.70866 3.16753 0
M  V30 10311 C 976.378 -0.835934 4.40132 0
M  V30 10312 C 978.122 -2.4203 3.48743 0
M  V30 10313 C 976.029 -1.60987 5.69067 0
M  V30 10314 H 974.959 -0.351983 0.666801 0
M  V30 10315 H 977.61 -0.186284 1.82552 0
M  V30 10316 H 975.992 -2.4983 3.07247 0
M  V30 10317 H 977.166 -0.0861298 4.60719 0
M  V30 10318 H 975.481 -0.235941 4.15731 0
M  V30 10319 H 978.078 -3.00453 4.42303 0
M  V30 10320 H 978.421 -3.15406 2.71707 0
M  V30 10321 H 978.954 -1.70048 3.59623 0
M  V30 10322 H 975.693 -0.9192 6.49023 0
M  V30 10323 H 975.213 -2.33403 5.52524 0
M  V30 10324 H 976.892 -2.16798 6.09596 0
M  V30 10325 N 977.024 -1.50153 -0.478725 0
M  V30 10326 C 977.934 -1.71232 -1.60364 0
M  V30 10327 C 978.95 -0.595269 -1.63501 0
M  V30 10328 O 980.126 -0.872683 -1.81511 0
M  V30 10329 C 977.191 -1.79487 -2.96623 0
M  V30 10330 C 976.252 -3.03185 -3.03937 0
M  V30 10331 C 975.485 -3.11036 -4.33696 0
M  V30 10332 O 975.708 -2.2588 -5.23769 0
M  V30 10333 O 974.642 -4.03698 -4.46443 0
M  V30 10334 H 978.468 -2.66575 -1.45505 0
M  V30 10335 H 976.053 -1.34158 -0.65741 0
M  V30 10336 H 977.935 -1.8714 -3.77567 0
M  V30 10337 H 976.61 -0.873264 -3.11698 0
M  V30 10338 H 975.517 -3.01036 -2.22099 0
M  V30 10339 H 976.85 -3.94898 -2.93796 0
M  V30 10340 N 978.502 0.731368 -1.39602 0
M  V30 10341 C 979.727 1.52567 -1.40492 0
M  V30 10342 C 980.152 1.881 -0.00228828 0
M  V30 10343 O 979.51 1.52167 0.985643 0
M  V30 10344 C 979.558 2.78749 -2.2876 0
M  V30 10345 O 978.662 3.7482 -1.71999 0
M  V30 10346 H 978.003 0.460601 -0.478271 0
M  V30 10347 H 980.533 0.902042 -1.83642 0
M  V30 10348 H 980.543 3.27446 -2.43399 0
M  V30 10349 H 979.218 2.5222 -3.30693 0
M  V30 10350 H 977.795 3.33604 -1.66622 0
M  V30 10351 N 979.98 1.24838 0.961938 0
M  V30 10352 C 981.205 1.11967 1.7458 0
M  V30 10353 C 981.63 -0.323287 1.85301 0
M  V30 10354 O 980.988 -1.23412 1.32812 0
M  V30 10355 C 981.036 1.77066 3.14134 0
M  V30 10356 O 980.14 1.04534 3.98932 0
M  V30 10357 H 979.481 0.391338 0.536424 0
M  V30 10358 H 982.011 1.65259 1.20626 0
M  V30 10359 H 982.021 1.83056 3.64629 0
M  V30 10360 H 980.696 2.82052 3.05646 0
M  V30 10361 H 979.273 1.06372 3.57407 0
M  V30 10362 N 981.458 -1.16348 1.06306 0
M  V30 10363 C 982.704 -1.87158 0.781007 0
M  V30 10364 C 983.037 -1.81499 -0.690784 0
M  V30 10365 O 982.312 -1.23074 -1.50609 0
M  V30 10366 C 982.595 -3.3672 1.27639 0
M  V30 10367 C 982.448 -3.51069 2.81194 0
M  V30 10368 C 983.767 -4.31122 0.884388 0
M  V30 10369 H 980.886 -0.679586 0.285187 0
M  V30 10370 H 983.528 -1.36756 1.31901 0
M  V30 10371 H 981.678 -3.79775 0.818715 0
M  V30 10372 H 983.35 -3.16952 3.35171 0
M  V30 10373 H 981.593 -2.92976 3.19918 0
M  V30 10374 H 982.264 -4.56105 3.10921 0
M  V30 10375 H 984.74 -3.95969 1.27858 0
M  V30 10376 H 983.616 -5.34279 1.25847 0
M  V30 10377 H 983.877 -4.41598 -0.210673 0
M  V30 10378 N 982.937 -0.845659 -1.3299 0
M  V30 10379 C 984.214 -0.366306 -1.92139 0
M  V30 10380 C 984.594 1.14912 -1.77083 0
M  V30 10381 O 983.942 1.96667 -1.16338 0
M  V30 10382 C 984.152 -0.820716 -3.39213 0
M  V30 10383 C 985.5 -0.832667 -4.16355 0
M  V30 10384 O 986.524 -0.764764 -3.47893 0
M  V30 10385 O 985.383 -0.926658 -5.38586 0
M  V30 10386 H 982.477 -0.105063 -0.820299 0
M  V30 10387 H 985.023 -0.931962 -1.41819 0
M  V30 10388 H 983.795 -1.86357 -3.44074 0
M  V30 10389 H 983.418 -0.232009 -3.96923 0
M  V30 10390 N 984.415 1.45619 -0.602734 0
M  V30 10391 C 985.345 2.33258 0.106342 0
M  V30 10392 C 986.326 1.46543 0.863664 0
M  V30 10393 O 987.511 1.75324 0.835175 0
M  V30 10394 C 984.641 3.29168 1.10751 0
M  V30 10395 C 983.595 4.25481 0.463717 0
M  V30 10396 C 982.921 5.11046 1.57278 0
M  V30 10397 C 984.221 5.18702 -0.61199 0
M  V30 10398 H 985.915 2.92795 -0.625423 0
M  V30 10399 H 983.461 1.40793 -0.302213 0
M  V30 10400 H 985.414 3.89346 1.61208 0
M  V30 10401 H 984.138 2.6778 1.8698 0
M  V30 10402 H 982.797 3.66595 -0.0199496 0
M  V30 10403 H 982.445 4.46029 2.32524 0
M  V30 10404 H 982.145 5.76286 1.14755 0
M  V30 10405 H 983.669 5.74091 2.07972 0
M  V30 10406 H 985.083 5.72979 -0.191686 0
M  V30 10407 H 983.48 5.92393 -0.958686 0
M  V30 10408 H 984.55 4.61424 -1.4905 0
M  V30 10409 N 985.893 0.34162 1.53853 0
M  V30 10410 C 987.123 -0.256557 2.05001 0
M  V30 10411 C 987.531 -1.44916 1.21639 0
M  V30 10412 O 986.874 -1.8207 0.244138 0
M  V30 10413 C 986.936 -0.737109 3.51862 0
M  V30 10414 C 986.6 0.335584 4.55766 0
M  V30 10415 C 987.597 1.17765 5.06387 0
M  V30 10416 C 985.282 0.488958 4.99914 0
M  V30 10417 C 987.276 2.15865 5.99734 0
M  V30 10418 C 984.963 1.47336 5.93073 0
M  V30 10419 C 985.961 2.30666 6.4287 0
M  V30 10420 O 985.649 3.2743 7.34197 0
M  V30 10421 H 985.381 -0.0536867 0.673865 0
M  V30 10422 H 987.935 0.49123 1.99439 0
M  V30 10423 H 986.165 -1.53611 3.54881 0
M  V30 10424 H 987.854 -1.25562 3.85991 0
M  V30 10425 H 988.62 1.07023 4.73044 0
M  V30 10426 H 984.499 -0.149807 4.60757 0
M  V30 10427 H 988.043 2.80945 6.38526 0
M  V30 10428 H 983.94 1.58134 6.25831 0
M  V30 10429 H 984.708 3.22879 7.52125 0
M  V30 10430 N 987.371 -1.57444 0.0701946 0
M  V30 10431 C 988.596 -1.98171 -0.61181 0
M  V30 10432 C 989.021 -0.94823 -1.62451 0
M  V30 10433 O 988.379 0.0863553 -1.81094 0
M  V30 10434 C 988.427 -3.37934 -1.2583 0
M  V30 10435 O 987.531 -3.37207 -2.37414 0
M  V30 10436 H 986.872 -0.645056 -0.157477 0
M  V30 10437 H 989.402 -2.04091 0.144235 0
M  V30 10438 H 989.412 -3.75083 -1.60552 0
M  V30 10439 H 988.087 -4.12684 -0.516234 0
M  V30 10440 H 986.664 -3.11826 -2.04497 0
M  V30 10441 N 988.849 0.203349 -1.56283 0
M  V30 10442 C 990.096 0.92501 -1.80138 0
M  V30 10443 C 990.424 1.83598 -0.64204 0
M  V30 10444 O 989.679 1.92119 0.372658 0
M  V30 10445 C 989.978 1.78016 -3.09912 0
M  V30 10446 C 989.644 1.02088 -4.39191 0
M  V30 10447 C 988.306 0.811208 -4.74313 0
M  V30 10448 C 990.658 0.486037 -5.18929 0
M  V30 10449 C 987.986 0.0550856 -5.86674 0
M  V30 10450 C 990.338 -0.256833 -6.32078 0
M  V30 10451 C 989.002 -0.477594 -6.65789 0
M  V30 10452 H 988.272 0.338485 -0.659173 0
M  V30 10453 H 990.919 0.191923 -1.90536 0
M  V30 10454 H 989.224 2.58167 -2.94715 0
M  V30 10455 H 990.921 2.341 -3.25574 0
M  V30 10456 H 987.511 1.1943 -4.11624 0
M  V30 10457 H 991.695 0.635446 -4.92215 0
M  V30 10458 H 986.951 -0.126006 -6.1127 0
M  V30 10459 H 991.125 -0.678683 -6.93085 0
M  V30 10460 H 988.752 -1.0654 -7.52697 0
M  V30 10461 N 990.327 1.50405 0.470755 0
M  V30 10462 C 991.257 1.72222 1.57676 0
M  V30 10463 C 992.238 0.57121 1.60222 0
M  V30 10464 O 993.423 0.810381 1.76484 0
M  V30 10465 C 990.553 1.81666 2.95998 0
M  V30 10466 C 989.507 2.96857 3.08318 0
M  V30 10467 C 988.833 2.91445 4.4829 0
M  V30 10468 C 990.133 4.37361 2.85504 0
M  V30 10469 H 991.827 2.64825 1.39671 0
M  V30 10470 H 989.373 1.27438 0.67049 0
M  V30 10471 H 991.326 1.95514 3.73299 0
M  V30 10472 H 990.05 0.856856 3.1516 0
M  V30 10473 H 988.709 2.82661 2.33449 0
M  V30 10474 H 988.357 1.93309 4.64371 0
M  V30 10475 H 988.057 3.68776 4.57469 0
M  V30 10476 H 989.581 3.07341 5.27611 0
M  V30 10477 H 990.995 4.52081 3.52555 0
M  V30 10478 H 989.392 5.16145 3.06127 0
M  V30 10479 H 990.462 4.49708 1.81359 0
M  V30 10480 N 991.805 -0.723954 1.39988 0
M  V30 10481 C 993.052 -1.48371 1.37812 0
M  V30 10482 C 993.38 -1.94487 -0.0223285 0
M  V30 10483 O 992.635 -1.67906 -1.00529 0
M  V30 10484 C 992.934 -2.73004 2.30659 0
M  V30 10485 C 992.6 -2.45698 3.78078 0
M  V30 10486 C 991.262 -2.37961 4.18244 0
M  V30 10487 C 993.614 -2.22601 4.71273 0
M  V30 10488 C 990.942 -2.05183 5.49652 0
M  V30 10489 C 993.294 -1.91339 6.0297 0
M  V30 10490 C 991.958 -1.82078 6.42187 0
M  V30 10491 H 991.228 -0.542929 0.504291 0
M  V30 10492 H 993.875 -0.829986 1.72579 0
M  V30 10493 H 992.18 -3.43174 1.89048 0
M  V30 10494 H 993.877 -3.31068 2.26263 0
M  V30 10495 H 990.467 -2.52603 3.46251 0
M  V30 10496 H 994.651 -2.2754 4.41066 0
M  V30 10497 H 989.907 -1.96544 5.78948 0
M  V30 10498 H 994.081 -1.72479 6.74703 0
M  V30 10499 H 991.708 -1.56446 7.43928 0
M  V30 10500 N 993.283 -1.25346 -0.955304 0
M  V30 10501 C 994.215 -1.0146 -2.0552 0
M  V30 10502 C 995.228 0.0202256 -1.62787 0
M  V30 10503 O 996.417 -0.218251 -1.77161 0
M  V30 10504 C 993.517 -0.511727 -3.35014 0
M  V30 10505 C 992.69 -1.61256 -4.0659 0
M  V30 10506 C 991.749 -1.11017 -5.14356 0
M  V30 10507 O 990.775 -1.80443 -5.39842 0
M  V30 10508 N 991.977 0.0489001 -5.80479 0
M  V30 10509 H 994.742 -1.96166 -2.26581 0
M  V30 10510 H 992.303 -1.16543 -1.12381 0
M  V30 10511 H 994.295 -0.160123 -4.04383 0
M  V30 10512 H 992.865 0.341377 -3.1073 0
M  V30 10513 H 992.085 -2.13577 -3.31328 0
M  V30 10514 H 993.373 -2.35213 -4.51168 0
M  V30 10515 H 992.771 0.629021 -5.62192 0
M  V30 10516 H 991.328 0.341542 -6.50905 0
M  V30 10517 N 994.761 1.15782 -1.06922 0
M  V30 10518 C 996.007 1.86741 -0.790922 0
M  V30 10519 C 996.34 1.81863 0.681149 0
M  V30 10520 O 995.615 1.23871 1.49954 0
M  V30 10521 C 995.898 3.36038 -1.29422 0
M  V30 10522 C 995.751 3.49573 -2.83052 0
M  V30 10523 C 997.07 4.30647 -0.907239 0
M  V30 10524 H 994.189 0.678064 -0.288787 0
M  V30 10525 H 996.831 1.36054 -1.32624 0
M  V30 10526 H 994.981 3.79336 -0.838843 0
M  V30 10527 H 996.653 3.1517 -3.36847 0
M  V30 10528 H 994.896 2.91275 -3.21467 0
M  V30 10529 H 995.567 4.5445 -3.13335 0
M  V30 10530 H 998.043 3.95286 -1.29956 0
M  V30 10531 H 996.919 5.33604 -1.28679 0
M  V30 10532 H 997.18 4.41703 0.187251 0
M  V30 10533 N 996.239 0.8527 1.3254 0
M  V30 10534 C 997.169 0.311234 2.31416 0
M  V30 10535 C 998.15 -0.588557 1.59593 0
M  V30 10536 O 999.335 -0.509211 1.87405 0
M  V30 10537 C 996.465 -0.502892 3.4364 0
M  V30 10538 C 995.419 0.302296 4.26931 0
M  V30 10539 C 994.745 -0.636445 5.30899 0
M  V30 10540 C 996.045 1.52697 4.99481 0
M  V30 10541 H 997.739 1.13742 2.76953 0
M  V30 10542 H 995.285 0.548389 1.33149 0
M  V30 10543 H 997.238 -0.892092 4.11849 0
M  V30 10544 H 995.962 -1.36242 2.96826 0
M  V30 10545 H 994.621 0.673226 3.60365 0
M  V30 10546 H 994.269 -1.49277 4.80339 0
M  V30 10547 H 993.969 -0.101716 5.87512 0
M  V30 10548 H 995.493 -1.02286 6.01972 0
M  V30 10549 H 996.907 1.21017 5.60382 0
M  V30 10550 H 995.304 1.9995 5.65809 0
M  V30 10551 H 996.374 2.28929 4.27457 0
M  V30 10552 N 997.718 -1.45297 0.610449 0
M  V30 10553 C 998.995 -1.95562 0.0386189 0
M  V30 10554 C 999.375 -1.55284 -1.43004 0
M  V30 10555 O 998.723 -0.816785 -2.13403 0
M  V30 10556 C 998.933 -3.48176 0.239731 0
M  V30 10557 C 1000.28 -4.24425 0.122035 0
M  V30 10558 O 1001.3 -3.55794 0.170003 0
M  V30 10559 O 1000.16 -5.46499 0.00953695 0
M  V30 10560 H 997.258 -0.826296 -0.0341081 0
M  V30 10561 H 999.804 -1.55449 0.68071 0
M  V30 10562 H 998.576 -3.70471 1.25963 0
M  V30 10563 H 998.199 -3.95186 -0.437486 0
M  V30 10564 N 999.196 -0.349774 -1.5367 0
M  V30 10565 C 1000.44 0.245189 -2.01312 0
M  V30 10566 C 1000.77 1.49702 -1.23705 0
M  V30 10567 O 1000.05 1.91742 -0.326371 0
M  V30 10568 C 1000.33 0.553071 -3.55827 0
M  V30 10569 C 1000.19 -0.71129 -4.4414 0
M  V30 10570 C 1001.5 1.36015 -4.18555 0
M  V30 10571 H 998.624 0.0876415 -0.73177 0
M  V30 10572 H 1001.27 -0.471543 -1.84056 0
M  V30 10573 H 999.416 1.16367 -3.70663 0
M  V30 10574 H 1001.09 -1.34913 -4.41131 0
M  V30 10575 H 999.331 -1.33491 -4.1275 0
M  V30 10576 H 1000 -0.45104 -5.50154 0
M  V30 10577 H 1002.48 0.843778 -4.07455 0
M  V30 10578 H 1001.35 1.54432 -5.26728 0
M  V30 10579 H 1001.61 2.36408 -3.73582 0
M  V30 10580 N 1000.67 1.57404 -0.0785433 0
M  V30 10581 C 1001.61 2.101 0.916013 0
M  V30 10582 C 1002.62 1.03459 1.25698 0
M  V30 10583 O 1003.81 1.30954 1.21299 0
M  V30 10584 C 1000.91 2.55202 2.22992 0
M  V30 10585 C 1000.08 3.85491 2.06678 0
M  V30 10586 C 999.14 4.16614 3.21433 0
M  V30 10587 O 998.166 4.86105 2.96126 0
M  V30 10588 N 999.368 3.70697 4.46726 0
M  V30 10589 H 1002.13 2.96054 0.466059 0
M  V30 10590 H 999.694 1.61546 0.107006 0
M  V30 10591 H 1001.69 2.7308 2.9868 0
M  V30 10592 H 1000.26 1.74348 2.59464 0
M  V30 10593 H 999.476 3.76925 1.15417 0
M  V30 10594 H 1000.76 4.70759 1.93036 0
M  V30 10595 H 1000.16 3.14571 4.70172 0
M  V30 10596 H 998.719 3.93762 5.19418 0
M  V30 10597 N 1002.15 -0.195058 1.56388 0
M  V30 10598 C 1003.4 -0.913636 1.8027 0
M  V30 10599 C 1003.72 -1.83791 0.651606 0
M  V30 10600 O 1002.99 -1.931 -0.330057 0
M  V30 10601 H 1001.57 -0.34036 0.664954 0
M  V30 10602 H 1004.23 -0.200559 1.93865 0
M  V30 10603 H 1003.33 -1.50473 2.7343 0
M  V30 10604 N 1003.63 -1.50653 -0.462772 0
M  V30 10605 C 1004.59 -1.69561 -1.54213 0
M  V30 10606 C 1005.59 -0.566106 -1.50505 0
M  V30 10607 O 1006.78 -0.833273 -1.52978 0
M  V30 10608 C 1003.91 -1.72856 -2.93826 0
M  V30 10609 H 1005.11 -2.65867 -1.38761 0
M  V30 10610 H 1002.66 -1.40259 -0.689728 0
M  V30 10611 H 1003.4 -0.78273 -3.14712 0
M  V30 10612 H 1003.18 -2.54919 -2.97924 0
M  V30 10613 H 1004.67 -1.89411 -3.72174 0
M  V30 10614 N 1005.11 0.71652 -1.4037 0
M  V30 10615 C 1006.04 1.84138 -1.36477 0
M  V30 10616 C 1007.05 1.6054 -0.27033 0
M  V30 10617 O 1008.24 1.70431 -0.530612 0
M  V30 10618 C 1005.34 3.20523 -1.10082 0
M  V30 10619 C 1004.52 3.71326 -2.31162 0
M  V30 10620 C 1003.57 4.86322 -2.00942 0
M  V30 10621 O 1002.6 4.99022 -2.73799 0
M  V30 10622 N 1003.8 5.72051 -0.986812 0
M  V30 10623 H 1006.57 1.87977 -2.3342 0
M  V30 10624 H 1004.13 0.89802 -1.34712 0
M  V30 10625 H 1006.12 3.95049 -0.878526 0
M  V30 10626 H 1004.69 3.11838 -0.21809 0
M  V30 10627 H 1003.91 2.87941 -2.69227 0
M  V30 10628 H 1005.2 4.02003 -3.11883 0
M  V30 10629 H 1004.6 5.64399 -0.383381 0
M  V30 10630 H 1003.15 6.46565 -0.824419 0
M  V30 10631 N 1006.59 1.25851 0.948643 0
M  V30 10632 C 1007.83 1.10735 1.69062 0
M  V30 10633 C 1008.16 -0.351257 1.9181 0
M  V30 10634 O 1007.43 -1.24867 1.50947 0
M  V30 10635 H 1006.01 0.406796 0.626519 0
M  V30 10636 H 1008.67 1.58066 1.14022 0
M  V30 10637 H 1007.76 1.62033 2.66743 0
M  V30 10638 N 1008.06 -1.15214 1.07534 0
M  V30 10639 C 1009.31 -1.85676 0.79805 0
M  V30 10640 C 1009.63 -1.82837 -0.677919 0
M  V30 10641 O 1008.9 -1.27059 -1.49107 0
M  V30 10642 H 1007.48 -0.687468 0.292227 0
M  V30 10643 H 1010.15 -1.39658 1.35947 0
M  V30 10644 H 1009.24 -2.9076 1.13423 0
M  V30 10645 N 1009.54 -0.859717 -1.32086 0
M  V30 10646 C 1010.79 -0.466271 -1.97367 0
M  V30 10647 C 1011.12 0.976728 -1.6785 0
M  V30 10648 O 1010.4 1.68618 -0.969449 0
M  V30 10649 C 1010.68 -0.711851 -3.52994 0
M  V30 10650 C 1010.53 -2.20364 -3.92122 0
M  V30 10651 C 1011.85 -0.17156 -4.39765 0
M  V30 10652 H 1008.97 -0.170883 -0.716916 0
M  V30 10653 H 1011.61 -1.07907 -1.56384 0
M  V30 10654 H 1009.76 -0.190258 -3.88034 0
M  V30 10655 H 1011.43 -2.7917 -3.67236 0
M  V30 10656 H 1009.68 -2.68019 -3.41099 0
M  V30 10657 H 1010.35 -2.32615 -5.00594 0
M  V30 10658 H 1012.82 -0.617665 -4.1149 0
M  V30 10659 H 1011.7 -0.372921 -5.47632 0
M  V30 10660 H 1011.96 0.925959 -4.32294 0
M  V30 10661 N 1011.02 1.44971 -0.618145 0
M  V30 10662 C 1011.98 2.29044 0.0846739 0
M  V30 10663 C 1012.98 1.40341 0.784921 0
M  V30 10664 O 1014.17 1.62351 0.631479 0
M  V30 10665 C 1011.31 3.21617 1.13027 0
M  V30 10666 H 1012.5 2.92668 -0.654612 0
M  V30 10667 H 1010.05 1.51668 -0.377672 0
M  V30 10668 H 1010.79 2.62815 1.89997 0
M  V30 10669 H 1010.57 3.86969 0.63224 0
M  V30 10670 H 1012.06 3.84805 1.62218 0
M  V30 10671 N 1012.5 0.357919 1.53482 0
M  V30 10672 C 1013.46 -0.479797 2.24122 0
M  V30 10673 C 1014.46 -1.01596 1.24639 0
M  V30 10674 O 1015.65 -0.902928 1.48973 0
M  V30 10675 C 1012.78 -1.66983 2.97203 0
M  V30 10676 H 1013.98 0.138219 2.99581 0
M  V30 10677 H 1011.53 0.109484 1.55916 0
M  V30 10678 H 1012.26 -2.32615 2.25966 0
M  V30 10679 H 1012.05 -1.29242 3.70188 0
M  V30 10680 H 1013.54 -2.26367 3.50924 0
M  V30 10681 N 1013.98 -1.5736 0.0868897 0
M  V30 10682 C 1014.91 -2.10582 -0.904858 0
M  V30 10683 C 1015.92 -1.04124 -1.25148 0
M  V30 10684 O 1017.11 -1.31595 -1.20603 0
M  V30 10685 C 1014.21 -2.56381 -2.21635 0
M  V30 10686 C 1013.38 -3.86581 -2.04631 0
M  V30 10687 C 1012.44 -4.18313 -3.19219 0
M  V30 10688 O 1011.47 -4.87669 -2.93544 0
M  V30 10689 N 1012.67 -3.73061 -4.44754 0
M  V30 10690 H 1015.44 -2.96297 -0.450352 0
M  V30 10691 H 1013 -1.616 -0.0984376 0
M  V30 10692 H 1014.99 -2.7466 -2.97227 0
M  V30 10693 H 1013.56 -1.75721 -2.58536 0
M  V30 10694 H 1012.78 -3.77532 -1.13417 0
M  V30 10695 H 1014.07 -4.71777 -1.90537 0
M  V30 10696 H 1013.46 -3.1706 -4.68497 0
M  V30 10697 H 1012.02 -3.96511 -5.17322 0
M  V30 10698 N 1015.45 0.186762 -1.56489 0
M  V30 10699 C 1016.7 0.904063 -1.80752 0
M  V30 10700 C 1017.02 1.83443 -0.661343 0
M  V30 10701 O 1016.29 1.93272 0.319811 0
M  V30 10702 H 1014.87 0.336828 -0.66675 0
M  V30 10703 H 1017.54 0.190275 -1.93969 0
M  V30 10704 H 1016.63 1.49021 -2.74225 0
M  V30 10705 N 1016.93 1.50896 0.454776 0
M  V30 10706 C 1018.35 1.38684 0.78987 0
M  V30 10707 C 1018.55 0.455587 1.96282 0
M  V30 10708 O 1017.6 -0.0957503 2.52318 0
M  V30 10709 C 1018.92 2.80381 1.08661 0
M  V30 10710 C 1020.47 2.8941 1.19209 0
M  V30 10711 C 1020.94 4.31976 1.52187 0
M  V30 10712 N 1022.43 4.35002 1.59146 0
M  V30 10713 C 1023.17 5.42326 1.862 0
M  V30 10714 N 1022.66 6.59835 2.11164 0
M  V30 10715 N 1024.46 5.29786 1.87838 0
M  V30 10716 H 1016.61 2.10006 -0.317981 0
M  V30 10717 H 1018.87 0.944636 -0.0797969 0
M  V30 10718 H 1018.58 3.50438 0.297626 0
M  V30 10719 H 1018.45 3.18634 2.01872 0
M  V30 10720 H 1020.84 2.19561 1.97173 0
M  V30 10721 H 1020.92 2.54677 0.239401 0
M  V30 10722 H 1020.56 5.02368 0.747576 0
M  V30 10723 H 1020.49 4.64208 2.48633 0
M  V30 10724 H 1022.98 3.50276 1.41828 0
M  V30 10725 H 1023.3 7.37428 2.31128 0
M  V30 10726 H 1021.64 6.62981 2.08522 0
M  V30 10727 H 1024.83 4.36974 1.67843 0
M  V30 10728 H 1025 6.13511 2.08585 0
M  V30 10729 O 1018.45 -0.600431 1.49924 0
M  V30 10730 H 1019.14 -1.25514 1.47533 0
M  V30 END ATOM
M  V30 BEGIN BOND
M  V30 END BOND
M  V30 END CTAB
M  END
$$$$
