drugbank_target|Q6WRI0 Immunoglobulin superfamily member 10 (DB00114)
 OpenBabel12092120563D

  0  0  0     0  0            999 V3000
M  V30 BEGIN CTAB
M  V30 COUNTS 41024 41494 0 0 0
M  V30 BEGIN ATOM
M  V30 1 H -0.908 1.98254 -0.117106 0
M  V30 2 N 0 1.576 0 0
M  V30 3 C 0.933 2.03868 1.02534 0
M  V30 4 C 1.911 0.928543 1.3348 0
M  V30 5 O 3.095 1.19667 1.45644 0
M  V30 6 C 0.222 2.43627 2.35294 0
M  V30 7 C -0.732 3.65373 2.2001 0
M  V30 8 S 0.101 5.13292 1.52614 0
M  V30 9 C 1.257 5.56322 2.86805 0
M  V30 10 H 1.49 2.90518 0.631377 0
M  V30 11 H -0.977 1.52953 0.210867 0
M  V30 12 H 0.981 2.67203 3.11629 0
M  V30 13 H -0.358 1.57376 2.7183 0
M  V30 14 H -1.165 3.90944 3.18086 0
M  V30 15 H -1.563 3.418 1.51819 0
M  V30 16 H 0.729 5.58782 3.83104 0
M  V30 17 H 1.672 6.56266 2.65933 0
M  V30 18 H 2.08 4.83886 2.90714 0
M  V30 19 N 1.4781 -0.272755 1.55222 0
M  V30 20 C 2.4251 -1.33716 1.88119 0
M  V30 21 C 3.3951 -1.49066 0.73271 0
M  V30 22 O 4.5801 -1.63469 0.984002 0
M  V30 23 C 1.7201 -2.69238 2.15882 0
M  V30 24 C 0.8331 -2.62108 3.43399 0
M  V30 25 C -0.0319 -3.89811 3.60861 0
M  V30 26 C -0.9929 -3.77193 4.8207 0
M  V30 27 N -1.8559 -4.9673 4.96189 0
M  V30 28 H 2.9841 -1.04962 2.78903 0
M  V30 29 H 0.5211 -0.507088 1.38083 0
M  V30 30 H 2.4791 -3.48089 2.29978 0
M  V30 31 H 1.1091 -2.96194 1.28331 0
M  V30 32 H 0.1611 -1.74967 3.37773 0
M  V30 33 H 1.4731 -2.48685 4.32386 0
M  V30 34 H 0.6271 -4.77103 3.74777 0
M  V30 35 H -0.6339 -4.06102 2.7006 0
M  V30 36 H -1.6289 -2.88284 4.68159 0
M  V30 37 H -0.4039 -3.62421 5.74307 0
M  V30 38 H -2.4579 -5.13431 4.08319 0
M  V30 39 H -2.5409 -4.85839 5.79221 0
M  V30 40 H -1.2729 -5.85594 5.1449 0
M  V30 41 N 2.9562 -1.48159 -0.537278 0
M  V30 42 C 4.2022 -1.56035 -1.29541 0
M  V30 43 C 4.5352 -0.230377 -1.92829 0
M  V30 44 O 3.8102 0.762952 -1.78911 0
M  V30 45 C 4.0932 -2.69323 -2.39034 0
M  V30 46 C 3.9462 -4.12002 -1.80485 0
M  V30 47 C 5.2652 -2.78408 -3.40847 0
M  V30 48 H 2.3842 -0.567992 -0.469632 0
M  V30 49 H 5.0262 -1.80302 -0.599277 0
M  V30 50 H 3.1762 -2.48763 -2.98412 0
M  V30 51 H 4.8482 -4.43981 -1.25215 0
M  V30 52 H 3.0912 -4.19344 -1.11055 0
M  V30 53 H 3.7622 -4.87077 -2.59731 0
M  V30 54 H 6.2382 -2.97012 -2.91416 0
M  V30 55 H 5.1142 -3.59416 -4.14863 0
M  V30 56 H 5.3752 -1.86269 -4.00944 0
M  V30 57 N 4.4343 0.785586 -1.36625 0
M  V30 58 C 5.3813 1.89838 -1.31264 0
M  V30 59 C 6.3513 1.65115 -0.180633 0
M  V30 60 O 7.5363 1.87222 -0.36777 0
M  V30 61 C 4.6763 3.26706 -1.11163 0
M  V30 62 C 3.7893 3.63476 -2.33472 0
M  V30 63 C 2.9243 4.89481 -2.06353 0
M  V30 64 C 1.9633 5.18941 -3.24602 0
M  V30 65 N 1.1003 6.36131 -2.97123 0
M  V30 66 H 5.9403 1.93756 -2.26413 0
M  V30 67 H 3.4773 0.947454 -1.12524 0
M  V30 68 H 5.4353 4.05639 -0.975337 0
M  V30 69 H 4.0653 3.222 -0.196674 0
M  V30 70 H 3.1173 2.79636 -2.57891 0
M  V30 71 H 4.4293 3.81193 -3.21704 0
M  V30 72 H 3.5833 5.76288 -1.89675 0
M  V30 73 H 2.3223 4.73841 -1.15437 0
M  V30 74 H 1.3273 4.30615 -3.41834 0
M  V30 75 H 2.5523 5.36498 -4.16349 0
M  V30 76 H 0.4983 6.21875 -2.08823 0
M  V30 77 H 0.4153 6.54198 -3.78894 0
M  V30 78 H 1.6833 7.2591 -2.84033 0
M  V30 79 N 5.9124 1.20967 1.01018 0
M  V30 80 C 7.1604 1.02172 1.74371 0
M  V30 81 C 7.4814 -0.446414 1.89821 0
M  V30 82 O 6.7514 -1.32234 1.44537 0
M  V30 83 H 5.3314 0.375066 0.646014 0
M  V30 84 H 7.9934 1.52187 1.21758 0
M  V30 85 H 7.0894 1.48538 2.74487 0
M  V30 86 N 7.3905 -1.2043 1.01659 0
M  V30 87 C 8.8065 -1.41852 0.731442 0
M  V30 88 C 9.0065 -1.89358 -0.688898 0
M  V30 89 O 8.0625 -2.06247 -1.45666 0
M  V30 90 C 9.3755 -2.44019 1.75714 0
M  V30 91 C 10.9235 -2.57785 1.77527 0
M  V30 92 C 11.3985 -3.63194 2.79023 0
M  V30 93 N 12.8895 -3.70678 2.77763 0
M  V30 94 C 13.6245 -4.51897 3.52954 0
M  V30 95 N 13.1205 -5.36921 4.37821 0
M  V30 96 N 14.9135 -4.4643 3.41551 0
M  V30 97 H 7.0645 -0.879093 1.93354 0
M  V30 98 H 9.3275 -0.448425 0.835236 0
M  V30 99 H 9.0335 -2.1611 2.77469 0
M  V30 100 H 8.9075 -3.43007 1.56927 0
M  V30 101 H 11.2945 -2.85023 0.764569 0
M  V30 102 H 11.3755 -1.58992 2.00387 0
M  V30 103 H 11.0195 -3.36699 3.80258 0
M  V30 104 H 10.9495 -4.61609 2.53425 0
M  V30 105 H 13.4405 -3.09944 2.16201 0
M  V30 106 H 13.7535 -5.95981 4.91962 0
M  V30 107 H 12.0985 -5.36424 4.41899 0
M  V30 108 H 15.2895 -3.79042 2.74672 0
M  V30 109 H 15.4625 -5.09491 4.00404 0
M  V30 110 N 8.8686 -0.792821 -1.36206 0
M  V30 111 C 10.1166 -0.366062 -1.98757 0
M  V30 112 C 10.4376 1.0668 -1.63231 0
M  V30 113 O 9.7076 1.73587 -0.907978 0
M  V30 114 H 8.2876 -0.132364 -0.735179 0
M  V30 115 H 10.9496 -1.01562 -1.66347 0
M  V30 116 H 10.0456 -0.460638 -3.08682 0
M  V30 117 N 10.3467 1.47872 -0.545128 0
M  V30 118 C 11.5957 2.01695 -0.0145033 0
M  V30 119 C 11.9087 1.42609 1.33873 0
M  V30 120 O 13.1147 1.88021 1.95858 0
M  V30 121 C 11.5707 3.59892 0.0245068 0
M  V30 122 C 11.1787 4.27966 -1.32475 0
M  V30 123 C 12.9227 4.21507 0.50316 0
M  V30 124 C 10.8297 5.78136 -1.2455 0
M  V30 125 H 9.7597 0.753998 -0.00165172 0
M  V30 126 H 12.4107 1.69985 -0.691175 0
M  V30 127 H 10.7927 3.88509 0.766575 0
M  V30 128 H 11.9667 4.11003 -2.08357 0
M  V30 129 H 10.2817 3.78286 -1.74036 0
M  V30 130 H 12.8787 5.31538 0.580656 0
M  V30 131 H 13.2217 3.87855 1.51243 0
M  V30 132 H 13.7547 3.97376 -0.183681 0
M  V30 133 H 10.4937 6.16388 -2.23039 0
M  V30 134 H 10.0137 5.97469 -0.528282 0
M  V30 135 H 11.6927 6.40099 -0.942488 0
M  V30 136 N 11.8248 0.280983 1.55075 0
M  V30 137 C 13.0528 -0.337293 2.04132 0
M  V30 138 C 13.4678 -1.4903 1.15912 0
M  V30 139 O 12.8248 -1.81606 0.180459 0
M  V30 140 C 12.8758 -0.812706 3.52246 0
M  V30 141 O 12.5968 0.294387 4.3711 0
M  V30 142 C 14.0978 -1.4982 4.17216 0
M  V30 143 H 11.3178 -0.0761638 0.666663 0
M  V30 144 H 13.8618 0.414787 2.00249 0
M  V30 145 H 12.0168 -1.51486 3.56554 0
M  V30 146 H 12.4308 -0.0721325 5.2445 0
M  V30 147 H 13.9048 -1.7822 5.22438 0
M  V30 148 H 14.3818 -2.43168 3.65741 0
M  V30 149 H 14.9878 -0.839742 4.16927 0
M  V30 150 N 13.3029 -1.57598 0.00835791 0
M  V30 151 C 14.5429 -1.92788 -0.679136 0
M  V30 152 C 14.9069 -0.883378 -1.70471 0
M  V30 153 O 16.1079 -1.12079 -2.44319 0
M  V30 154 C 14.3789 -3.32994 -1.29807 0
M  V30 155 S 15.9379 -3.90082 -2.00952 0
M  V30 156 H 12.7559 -0.67475 -0.224127 0
M  V30 157 H 15.3579 -1.95385 0.0670497 0
M  V30 158 H 14.0619 -4.06846 -0.538922 0
M  V30 159 H 13.5929 -3.33791 -2.082 0
M  V30 160 H 15.6079 -3.71834 -3.28563 0
M  V30 161 N 14.781 0.264519 -1.55364 0
M  V30 162 C 15.711 1.33121 -1.91836 0
M  V30 163 C 16.692 1.51101 -0.781192 0
M  V30 164 O 17.877 1.64003 -1.04003 0
M  V30 165 C 15.007 2.68921 -2.19769 0
M  V30 166 C 13.961 2.65661 -3.35571 0
M  V30 167 C 13.287 4.05093 -3.49004 0
M  V30 168 C 14.587 2.24187 -4.71739 0
M  V30 169 H 16.281 1.02844 -2.81182 0
M  V30 170 H 13.827 0.493286 -1.35287 0
M  V30 171 H 15.78 3.43663 -2.43872 0
M  V30 172 H 14.504 3.00799 -1.27231 0
M  V30 173 H 13.163 1.93377 -3.1145 0
M  V30 174 H 12.811 4.34206 -2.53917 0
M  V30 175 H 12.511 4.03804 -4.26868 0
M  V30 176 H 14.035 4.81561 -3.75408 0
M  V30 177 H 15.449 2.88654 -4.9533 0
M  V30 178 H 13.846 2.34044 -5.52579 0
M  V30 179 H 14.916 1.19327 -4.69988 0
M  V30 180 N 16.2591 1.48442 0.529413 0
M  V30 181 C 17.1891 1.65902 1.64313 0
M  V30 182 C 18.1701 0.507897 1.6234 0
M  V30 183 O 19.3551 0.740503 1.79528 0
M  V30 184 C 16.4851 1.69911 3.02898 0
M  V30 185 C 15.4391 2.8453 3.19729 0
M  V30 186 C 14.7651 2.73629 4.59381 0
M  V30 187 C 16.0651 4.25821 3.02447 0
M  V30 188 H 17.7591 2.5914 1.49955 0
M  V30 189 H 15.3051 1.24709 0.719982 0
M  V30 190 H 17.2581 1.80715 3.80684 0
M  V30 191 H 15.9821 0.732524 3.18279 0
M  V30 192 H 14.6411 2.73283 2.44361 0
M  V30 193 H 14.2891 1.74938 4.71599 0
M  V30 194 H 13.9891 3.50541 4.71588 0
M  V30 195 H 15.5131 2.86401 5.39265 0
M  V30 196 H 16.9271 4.37898 3.70024 0
M  V30 197 H 15.3241 5.03735 3.26146 0
M  V30 198 H 16.3941 4.42244 1.98867 0
M  V30 199 N 17.7372 -0.778329 1.37039 0
M  V30 200 C 18.9832 -1.53892 1.32079 0
M  V30 201 C 19.3162 -1.9396 -0.0965386 0
M  V30 202 O 18.5912 -1.63568 -1.05242 0
M  V30 203 C 18.8742 -2.80847 2.25382 0
M  V30 204 C 18.7272 -2.47076 3.75864 0
M  V30 205 C 20.0462 -3.82741 2.1725 0
M  V30 206 H 17.1652 -0.558303 0.48111 0
M  V30 207 H 19.8072 -0.893397 1.67685 0
M  V30 208 H 17.9572 -3.35931 1.95148 0
M  V30 209 H 19.6292 -1.97957 4.16666 0
M  V30 210 H 17.8722 -1.79863 3.94755 0
M  V30 211 H 18.5432 -3.37798 4.36574 0
M  V30 212 H 21.0192 -3.37133 2.43887 0
M  V30 213 H 19.8952 -4.69303 2.84686 0
M  V30 214 H 20.1562 -4.2652 1.16331 0
M  V30 215 N 19.2153 -1.21501 -1.00376 0
M  V30 216 C 20.4403 -1.05977 -1.78279 0
M  V30 217 C 20.8653 0.385994 -1.84097 0
M  V30 218 O 20.2233 1.27849 -1.28547 0
M  V30 219 C 20.2713 -1.66302 -3.19963 0
M  V30 220 O 19.3753 -0.909333 -4.0225 0
M  V30 221 H 18.7163 -0.372906 -0.549397 0
M  V30 222 H 21.2463 -1.6107 -1.26165 0
M  V30 223 H 21.2563 -1.70574 -3.70632 0
M  V30 224 H 19.9313 -2.71515 -3.15043 0
M  V30 225 H 18.5083 -0.941795 -3.60811 0
M  V30 226 N 20.6934 1.19889 -1.02296 0
M  V30 227 C 21.9404 1.8942 -0.715972 0
M  V30 228 C 22.2684 1.79251 0.754944 0
M  V30 229 O 21.5234 1.17526 1.56481 0
M  V30 230 C 21.8224 3.39883 -1.10518 0
M  V30 231 C 21.4884 3.70254 -2.57337 0
M  V30 232 C 20.1504 3.78254 -2.97452 0
M  V30 233 C 22.5024 3.84052 -3.52354 0
M  V30 234 C 19.8304 3.97514 -4.31509 0
M  V30 235 C 22.1824 4.04824 -4.86108 0
M  V30 236 C 20.8464 4.11054 -5.25919 0
M  V30 237 H 20.1164 0.693138 -0.261993 0
M  V30 238 H 22.7634 1.42012 -1.28472 0
M  V30 239 H 21.0684 3.8915 -0.454953 0
M  V30 240 H 22.7654 3.9199 -0.845261 0
M  V30 241 H 19.3554 3.64632 -2.25258 0
M  V30 242 H 23.5394 3.77221 -3.22518 0
M  V30 243 H 18.7954 4.00574 -4.61898 0
M  V30 244 H 22.9694 4.14442 -5.59653 0
M  V30 245 H 20.5964 4.2573 -6.29808 0
M  V30 246 N 22.1715 0.800033 1.35784 0
M  V30 247 C 23.1345 0.211565 2.28221 0
M  V30 248 C 24.1345 -0.59728 1.49296 0
M  V30 249 O 25.3245 -0.416721 1.69142 0
M  V30 250 C 22.4565 -0.705846 3.33513 0
M  V30 251 H 23.6495 1.02677 2.81776 0
M  V30 252 H 21.2025 0.570211 1.45528 0
M  V30 253 H 21.9375 -1.54498 2.85133 0
M  V30 254 H 21.7225 -0.127655 3.91892 0
M  V30 255 H 23.2125 -1.11211 4.02519 0
M  V30 256 N 23.6496 -1.47581 0.552962 0
M  V30 257 C 24.8956 -2.02782 0.0273648 0
M  V30 258 C 25.2286 -1.42687 -1.31734 0
M  V30 259 O 24.5036 -0.580897 -1.85623 0
M  V30 260 C 24.7866 -3.60031 -0.0702371 0
M  V30 261 C 24.6396 -4.30566 1.30126 0
M  V30 262 C 25.9586 -4.33028 -0.785771 0
M  V30 263 H 23.0776 -0.736912 0.0114185 0
M  V30 264 H 25.7196 -1.76056 0.714432 0
M  V30 265 H 23.8696 -3.82932 -0.655382 0
M  V30 266 H 25.5416 -4.19018 1.92929 0
M  V30 267 H 23.7846 -3.91086 1.87709 0
M  V30 268 H 24.4556 -5.39114 1.18573 0
M  V30 269 H 26.9316 -4.15095 -0.288982 0
M  V30 270 H 25.8076 -5.42695 -0.823013 0
M  V30 271 H 26.0686 -4.01945 -1.841 0
M  V30 272 N 25.1277 -0.289203 -1.54924 0
M  V30 273 C 26.3767 0.324231 -1.99077 0
M  V30 274 C 26.6897 1.5591 -1.18117 0
M  V30 275 O 27.8957 2.24637 -1.52481 0
M  V30 276 C 26.3517 0.628209 -3.54375 0
M  V30 277 C 25.9597 -0.587647 -4.44129 0
M  V30 278 C 27.7037 1.20349 -4.07083 0
M  V30 279 C 25.6107 -0.257475 -5.90839 0
M  V30 280 H 24.5407 0.124924 -0.743579 0
M  V30 281 H 27.1917 -0.396063 -1.79175 0
M  V30 282 H 25.5737 1.40778 -3.70132 0
M  V30 283 H 26.7477 -1.36418 -4.40144 0
M  V30 284 H 25.0627 -1.08074 -4.0213 0
M  V30 285 H 27.6597 1.46456 -5.14252 0
M  V30 286 H 28.0027 2.14195 -3.56968 0
M  V30 287 H 28.5357 0.485889 -3.94821 0
M  V30 288 H 25.2747 -1.16419 -6.45079 0
M  V30 289 H 24.7947 0.482018 -5.9786 0
M  V30 290 H 26.4737 0.145238 -6.46837 0
M  V30 291 N 26.6058 1.57591 -0.0167156 0
M  V30 292 C 27.8458 1.93145 0.668902 0
M  V30 293 C 28.2098 0.892406 1.7 0
M  V30 294 O 29.4108 1.13373 2.43721 0
M  V30 295 C 27.6818 3.33678 1.28039 0
M  V30 296 S 29.2408 3.91142 1.9888 0
M  V30 297 H 26.0588 0.67593 0.220545 0
M  V30 298 H 28.6608 1.95347 -0.0774105 0
M  V30 299 H 27.3648 4.07126 0.517339 0
M  V30 300 H 26.8958 3.3489 2.06427 0
M  V30 301 H 28.9108 3.73571 3.26587 0
M  V30 302 N 28.0839 -0.256276 1.55502 0
M  V30 303 C 29.0139 -1.32102 1.92539 0
M  V30 304 C 29.9949 -1.50684 0.789194 0
M  V30 305 O 31.1799 -1.63449 1.04872 0
M  V30 306 C 28.3099 -2.67752 2.21192 0
M  V30 307 C 27.2639 -2.63878 3.36975 0
M  V30 308 C 26.5899 -4.03236 3.51147 0
M  V30 309 C 27.8899 -2.21682 4.72921 0
M  V30 310 H 29.5839 -1.01351 2.81724 0
M  V30 311 H 27.1299 -0.486105 1.35547 0
M  V30 312 H 29.0829 -3.42365 2.45691 0
M  V30 313 H 27.8069 -3.0012 1.28824 0
M  V30 314 H 26.4659 -1.91722 3.12471 0
M  V30 315 H 26.1139 -4.32854 2.56216 0
M  V30 316 H 25.8139 -4.01535 4.29003 0
M  V30 317 H 27.3379 -4.79563 3.77957 0
M  V30 318 H 28.7519 -2.86023 4.96854 0
M  V30 319 H 27.1489 -2.3111 5.53812 0
M  V30 320 H 28.2189 -1.16833 4.70615 0
M  V30 321 N 29.562 -1.4872 -0.521534 0
M  V30 322 C 30.808 -1.574 -1.27879 0
M  V30 323 C 31.141 -0.250817 -1.92573 0
M  V30 324 O 30.416 0.743934 -1.79711 0
M  V30 325 C 30.699 -2.71843 -2.36164 0
M  V30 326 C 30.552 -4.13893 -1.76105 0
M  V30 327 C 31.871 -2.82008 -3.37875 0
M  V30 328 H 28.99 -0.572941 -0.463581 0
M  V30 329 H 31.632 -1.80927 -0.580119 0
M  V30 330 H 29.782 -2.51914 -2.95756 0
M  V30 331 H 31.454 -4.45284 -1.20499 0
M  V30 332 H 29.697 -4.20498 -1.06601 0
M  V30 333 H 30.368 -4.89804 -2.5455 0
M  V30 334 H 32.844 -3.00086 -2.88249 0
M  V30 335 H 31.72 -3.63796 -4.11028 0
M  V30 336 H 31.981 -1.90511 -3.98946 0
M  V30 337 N 31.0401 0.771051 -1.3745 0
M  V30 338 C 32.0031 1.86598 -1.33093 0
M  V30 339 C 33.0031 1.59076 -0.234845 0
M  V30 340 O 34.1931 1.67145 -0.490732 0
M  V30 341 C 31.3251 3.23747 -1.06773 0
M  V30 342 H 32.5181 1.91873 -2.30488 0
M  V30 343 H 30.0711 0.970876 -1.2249 0
M  V30 344 H 30.8061 3.24148 -0.099129 0
M  V30 345 H 30.5911 3.45115 -1.86112 0
M  V30 346 H 32.0811 4.03824 -1.06377 0
M  V30 347 N 32.5182 1.22032 0.997298 0
M  V30 348 C 33.7462 1.06841 1.7718 0
M  V30 349 C 34.1612 -0.381325 1.84909 0
M  V30 350 O 33.5182 -1.26437 1.31605 0
M  V30 351 C 33.5692 1.66814 3.20711 0
M  V30 352 O 33.2902 3.06116 3.13408 0
M  V30 353 C 34.7912 1.56838 4.14628 0
M  V30 354 H 32.0112 0.374782 0.556578 0
M  V30 355 H 34.5552 1.61532 1.2541 0
M  V30 356 H 32.7102 1.16196 3.69564 0
M  V30 357 H 33.1242 3.34926 4.0364 0
M  V30 358 H 34.5982 2.03532 5.13107 0
M  V30 359 H 35.0752 0.524155 4.36061 0
M  V30 360 H 35.6812 2.06741 3.7167 0
M  V30 361 N 33.9963 -1.19345 1.0293 0
M  V30 362 C 35.4073 -1.70725 0.755633 0
M  V30 363 C 35.7583 -1.82326 -0.724676 0
M  V30 364 O 34.8833 -1.49471 -1.56484 0
M  V30 365 C 35.4783 -3.10084 1.36503 0
M  V30 366 C 34.0373 -3.58723 1.13994 0
M  V30 367 C 33.1843 -2.35577 1.46283 0
M  V30 368 H 36.1353 -1.0418 1.19718 0
M  V30 369 H 36.1563 -3.72787 0.762217 0
M  V30 370 H 35.6683 -3.01609 2.44241 0
M  V30 371 H 33.7693 -3.72512 0.0807901 0
M  V30 372 H 33.8823 -4.42816 1.82894 0
M  V30 373 H 32.2463 -2.38935 0.88217 0
M  V30 374 H 33.0293 -2.29731 2.55105 0
M  V30 375 N 35.4744 -0.807222 -1.35358 0
M  V30 376 C 36.7224 -0.387122 -1.98358 0
M  V30 377 C 37.0434 1.04942 -1.64354 0
M  V30 378 O 36.3134 1.72615 -0.926339 0
M  V30 379 H 34.8934 -0.140154 -0.733734 0
M  V30 380 H 37.5554 -1.0332 -1.6526 0
M  V30 381 H 36.6514 -0.493352 -3.08176 0
M  V30 382 N 36.9525 1.47285 -0.560781 0
M  V30 383 C 38.2005 2.02064 -0.0379868 0
M  V30 384 C 38.5215 1.43711 1.31803 0
M  V30 385 O 37.7915 0.61362 1.86042 0
M  V30 386 H 36.3715 0.746918 -0.0110531 0
M  V30 387 H 39.0335 1.80648 -0.731598 0
M  V30 388 H 38.1295 3.12064 0.0474463 0
M  V30 389 N 38.4306 0.297415 1.54768 0
M  V30 390 C 39.3776 -0.580276 2.23386 0
M  V30 391 C 40.3476 -1.13238 1.21517 0
M  V30 392 O 41.5326 -1.17757 1.50126 0
M  V30 393 C 38.6726 -1.74801 2.97555 0
M  V30 394 C 37.7856 -1.22764 4.1419 0
M  V30 395 C 36.9206 -2.35895 4.75949 0
M  V30 396 C 35.9596 -1.80974 5.84735 0
M  V30 397 N 35.0966 -2.87664 6.40464 0
M  V30 398 H 39.9366 0.0114833 2.97998 0
M  V30 399 H 37.4736 0.0174361 1.4709 0
M  V30 400 H 39.4316 -2.43475 3.38786 0
M  V30 401 H 38.0616 -2.31145 2.25326 0
M  V30 402 H 37.1136 -0.433271 3.77924 0
M  V30 403 H 38.4256 -0.785551 4.92575 0
M  V30 404 H 37.5796 -3.12523 5.20014 0
M  V30 405 H 36.3186 -2.83429 3.96887 0
M  V30 406 H 35.3236 -1.02834 5.40097 0
M  V30 407 H 36.5486 -1.34348 6.65678 0
M  V30 408 H 34.4946 -3.34538 5.64287 0
M  V30 409 H 34.4116 -2.4794 7.14186 0
M  V30 410 H 35.6796 -3.642 6.89187 0
M  V30 411 N 39.9087 -1.5758 0.0250728 0
M  V30 412 C 40.8717 -2.08896 -0.943139 0
M  V30 413 C 41.8717 -1.00321 -1.25668 0
M  V30 414 O 43.0617 -1.26495 -1.19769 0
M  V30 415 C 40.1937 -2.55143 -2.26086 0
M  V30 416 H 41.3867 -2.95723 -0.498775 0
M  V30 417 H 38.9397 -1.54703 -0.222888 0
M  V30 418 H 39.6747 -1.71633 -2.75159 0
M  V30 419 H 39.4597 -3.34461 -2.04641 0
M  V30 420 H 40.9497 -2.95083 -2.95492 0
M  V30 421 N 41.3868 0.248026 -1.55636 0
M  V30 422 C 42.6268 0.983592 -1.79178 0
M  V30 423 C 42.9908 1.82567 -0.594414 0
M  V30 424 O 44.1918 2.59292 -0.708583 0
M  V30 425 C 42.4628 1.82228 -3.07454 0
M  V30 426 S 44.0218 2.61709 -3.52213 0
M  V30 427 H 40.8398 0.330866 -0.629324 0
M  V30 428 H 43.4418 0.251562 -1.93875 0
M  V30 429 H 42.1458 1.19333 -3.92668 0
M  V30 430 H 41.6768 2.59708 -2.95492 0
M  V30 431 H 43.6918 3.84655 -3.13457 0
M  V30 432 N 42.8649 1.48995 0.513639 0
M  V30 433 C 44.2759 1.5119 1.09537 0
M  V30 434 C 44.6269 0.290906 1.94031 0
M  V30 435 O 43.7519 -0.60049 2.07902 0
M  V30 436 C 44.3469 2.73964 1.99322 0
M  V30 437 C 42.9059 2.78978 2.52682 0
M  V30 438 C 42.0529 2.44934 1.30009 0
M  V30 439 H 45.0039 1.55875 0.298125 0
M  V30 440 H 45.0249 2.53409 2.83838 0
M  V30 441 H 44.5369 3.62813 1.37799 0
M  V30 442 H 42.6379 1.94378 3.1788 0
M  V30 443 H 42.7509 3.8083 2.90698 0
M  V30 444 H 41.1149 1.9644 1.62122 0
M  V30 445 H 41.8979 3.36043 0.702131 0
M  V30 446 N 44.343 -0.763751 1.37857 0
M  V30 447 C 45.759 -1.06542 1.18832 0
M  V30 448 C 45.959 -2.01478 0.0299722 0
M  V30 449 O 45.015 -2.4458 -0.627447 0
M  V30 450 C 46.328 -1.65525 2.51042 0
M  V30 451 C 47.876 -1.77745 2.57635 0
M  V30 452 C 48.351 -2.4014 3.89996 0
M  V30 453 N 49.842 -2.47582 3.91481 0
M  V30 454 C 50.577 -2.96732 4.9065 0
M  V30 455 N 50.073 -3.45993 6.00217 0
M  V30 456 N 51.866 -2.95679 4.78048 0
M  V30 457 H 44.017 -0.133556 2.1198 0
M  V30 458 H 46.28 -0.121879 0.940133 0
M  V30 459 H 45.986 -1.03236 3.36207 0
M  V30 460 H 45.86 -2.64719 2.68707 0
M  V30 461 H 48.247 -2.39164 1.72872 0
M  V30 462 H 48.328 -0.772836 2.43846 0
M  V30 463 H 47.972 -1.79358 4.75177 0
M  V30 464 H 47.902 -3.41223 4.01092 0
M  V30 465 H 50.393 -2.1273 3.12337 0
M  V30 466 H 50.706 -3.81922 6.7183 0
M  V30 467 H 49.051 -3.44077 6.03851 0
M  V30 468 H 52.242 -2.56499 3.91568 0
M  V30 469 H 52.415 -3.33672 5.55488 0
M  V30 470 N 45.8211 -1.22559 -0.990812 0
M  V30 471 C 47.2371 -0.985996 -1.255 0
M  V30 472 C 47.4371 0.319173 -1.98956 0
M  V30 473 O 46.4931 1.04127 -2.3003 0
M  V30 474 C 47.8061 -2.18607 -2.06474 0
M  V30 475 C 49.3541 -2.22985 -2.19651 0
M  V30 476 C 49.8291 -3.4255 -3.04012 0
M  V30 477 N 51.3201 -3.42725 -3.11599 0
M  V30 478 C 52.0551 -4.31892 -3.7717 0
M  V30 479 N 51.5511 -5.31279 -4.44651 0
M  V30 480 N 53.3441 -4.19662 -3.73952 0
M  V30 481 H 45.4951 -2.06469 -0.49841 0
M  V30 482 H 47.7581 -0.904853 -0.282747 0
M  V30 483 H 47.4641 -3.13267 -1.59865 0
M  V30 484 H 47.3381 -2.18838 -3.07229 0
M  V30 485 H 49.7251 -1.28871 -2.65474 0
M  V30 486 H 49.8061 -2.26791 -1.18319 0
M  V30 487 H 49.4501 -4.36965 -2.58889 0
M  V30 488 H 49.3801 -3.35984 -4.0549 0
M  V30 489 H 51.8711 -2.70807 -2.63575 0
M  V30 490 H 52.1841 -5.95593 -4.92431 0
M  V30 491 H 50.5291 -5.3519 -4.43392 0
M  V30 492 H 53.7201 -3.41268 -3.20396 0
M  V30 493 H 53.8931 -4.89358 -4.24774 0
M  V30 494 N 47.2992 1.18797 -1.03562 0
M  V30 495 C 48.5392 1.90346 -0.744832 0
M  V30 496 C 48.9032 1.78231 0.713972 0
M  V30 497 O 50.1042 2.44441 1.11813 0
M  V30 498 C 48.3752 3.36942 -1.19184 0
M  V30 499 S 49.9342 4.26638 -1.02593 0
M  V30 500 H 46.7522 0.657343 -0.270963 0
M  V30 501 H 49.3542 1.43579 -1.32685 0
M  V30 502 H 48.0582 3.43287 -2.24905 0
M  V30 503 H 47.5892 3.88745 -0.603397 0
M  V30 504 H 49.6042 4.96164 0.0596033 0
M  V30 505 N 48.7773 0.814389 1.34928 0
M  V30 506 C 49.7403 0.235759 2.27984 0
M  V30 507 C 50.7403 -0.581412 1.49921 0
M  V30 508 O 51.9303 -0.398758 1.69575 0
M  V30 509 C 49.0623 -0.670433 3.34242 0
M  V30 510 H 50.2553 1.05659 2.80671 0
M  V30 511 H 47.8083 0.585614 1.44915 0
M  V30 512 H 48.5433 -1.51466 2.86755 0
M  V30 513 H 48.3283 -0.0860822 3.92005 0
M  V30 514 H 49.8183 -1.06935 4.03676 0
M  V30 515 N 50.2554 -1.46986 0.568584 0
M  V30 516 C 51.4954 -2.04336 0.0512999 0
M  V30 517 C 51.8594 -1.43214 -1.27881 0
M  V30 518 O 53.0604 -1.91679 -1.88448 0
M  V30 519 C 51.3314 -3.57389 -0.0282328 0
M  V30 520 S 52.8904 -4.36056 -0.489991 0
M  V30 521 H 49.7084 -0.71034 0.0306349 0
M  V30 522 H 52.3104 -1.80212 0.757891 0
M  V30 523 H 51.0144 -3.99395 0.944011 0
M  V30 524 H 50.5454 -3.86028 -0.75803 0
M  V30 525 H 52.5604 -4.6441 -1.74752 0
M  V30 526 N 51.7335 -0.305618 -1.54608 0
M  V30 527 C 52.9635 0.304333 -2.04346 0
M  V30 528 C 53.3715 1.47715 -1.18224 0
M  V30 529 O 52.7145 1.82591 -0.201577 0
M  V30 530 C 52.7765 0.819031 -3.50046 0
M  V30 531 C 52.4405 -0.22912 -4.56425 0
M  V30 532 C 53.4375 -1.05914 -5.08997 0
M  V30 533 C 51.1225 -0.372148 -5.0092 0
M  V30 534 C 53.1165 -2.01809 -6.04609 0
M  V30 535 C 50.8035 -1.33454 -5.9635 0
M  V30 536 C 51.8015 -2.15599 -6.48079 0
M  V30 537 O 51.4895 -3.10205 -7.41639 0
M  V30 538 H 51.2215 0.0693996 -0.672428 0
M  V30 539 H 53.7755 -0.444548 -2.00532 0
M  V30 540 H 52.0055 1.61852 -3.51199 0
M  V30 541 H 53.6945 1.34537 -3.82955 0
M  V30 542 H 54.4605 -0.959538 -4.75413 0
M  V30 543 H 50.3395 0.257304 -4.60281 0
M  V30 544 H 53.8835 -2.65966 -6.44909 0
M  V30 545 H 49.7805 -1.43485 -6.29351 0
M  V30 546 H 50.5485 -3.05237 -7.59455 0
M  V30 547 N 53.2116 1.57565 -0.0334293 0
M  V30 548 C 54.1446 2.05997 0.981866 0
M  V30 549 C 55.1226 0.956647 1.3148 0
M  V30 550 O 56.3066 1.22729 1.43073 0
M  V30 551 C 53.4336 2.48564 2.30074 0
M  V30 552 C 52.4796 3.69958 2.12211 0
M  V30 553 S 53.3126 5.16414 1.41692 0
M  V30 554 C 54.4686 5.6228 2.7494 0
M  V30 555 H 54.7016 2.91792 0.569612 0
M  V30 556 H 52.2346 1.53366 0.178376 0
M  V30 557 H 54.1926 2.73753 3.05892 0
M  V30 558 H 52.8536 1.63106 2.68431 0
M  V30 559 H 52.0466 3.97603 3.09722 0
M  V30 560 H 51.6486 3.44943 1.44535 0
M  V30 561 H 53.9406 5.66783 3.71165 0
M  V30 562 H 54.8836 6.61759 2.51953 0
M  V30 563 H 55.2916 4.89944 2.80384 0
M  V30 564 N 54.6897 -0.239769 1.55765 0
M  V30 565 C 56.1007 -0.808263 1.68297 0
M  V30 566 C 56.4517 -1.85736 0.632181 0
M  V30 567 O 55.5767 -2.15277 -0.220204 0
M  V30 568 C 56.1717 -1.47284 3.05111 0
M  V30 569 C 54.7307 -1.98895 3.19559 0
M  V30 570 C 53.8777 -0.842575 2.64189 0
M  V30 571 H 56.8287 -0.0154422 1.58692 0
M  V30 572 H 56.8497 -2.34111 2.99954 0
M  V30 573 H 56.3617 -0.709053 3.81568 0
M  V30 574 H 54.4627 -2.78132 2.47938 0
M  V30 575 H 54.5757 -2.18143 4.26556 0
M  V30 576 H 52.9397 -1.24501 2.22197 0
M  V30 577 H 53.7227 -0.0917552 3.43177 0
M  V30 578 N 56.1678 -1.49265 -0.50573 0
M  V30 579 C 57.3958 -1.62215 -1.28429 0
M  V30 580 C 57.8108 -0.291697 -1.86533 0
M  V30 581 O 57.1678 0.722233 -1.67601 0
M  V30 582 C 57.2188 -2.68735 -2.41793 0
M  V30 583 O 56.9398 -3.96619 -1.86078 0
M  V30 584 C 58.4408 -2.92346 -3.3324 0
M  V30 585 H 55.6608 -0.546239 -0.389697 0
M  V30 586 H 58.2048 -1.95265 -0.607609 0
M  V30 587 H 56.3598 -2.38476 -3.053 0
M  V30 588 H 56.7738 -4.55256 -2.60465 0
M  V30 589 H 58.2478 -3.70623 -4.09075 0
M  V30 590 H 58.7248 -2.02081 -3.89948 0
M  V30 591 H 59.3308 -3.24003 -2.75503 0
M  V30 592 N 57.6459 0.756429 -1.3826 0
M  V30 593 C 58.5559 1.9009 -1.37488 0
M  V30 594 C 59.5719 1.71855 -0.272366 0
M  V30 595 O 60.7479 1.94827 -0.510318 0
M  V30 596 C 57.8129 3.25421 -1.19592 0
M  V30 597 C 56.8739 3.56202 -2.39622 0
M  V30 598 C 56.1069 4.85075 -2.2257 0
M  V30 599 O 56.3299 5.57246 -1.21793 0
M  V30 600 O 55.2639 5.15269 -3.11098 0
M  V30 601 H 59.0899 1.93695 -2.33914 0
M  V30 602 H 56.6749 0.901313 -1.1915 0
M  V30 603 H 58.5569 4.06337 -1.11661 0
M  V30 604 H 57.2319 3.22634 -0.262486 0
M  V30 605 H 56.1389 2.75458 -2.53128 0
M  V30 606 H 57.4719 3.63747 -3.31586 0
M  V30 607 N 59.124 1.23083 0.984299 0
M  V30 608 C 60.37 1.06214 1.72761 0
M  V30 609 C 60.703 -0.400584 1.90024 0
M  V30 610 O 59.978 -1.29672 1.44967 0
M  V30 611 C 60.261 1.78375 3.12817 0
M  V30 612 C 60.114 3.32296 3.03149 0
M  V30 613 C 61.433 1.54309 4.12161 0
M  V30 614 H 58.552 0.387251 0.627061 0
M  V30 615 H 61.194 1.51536 1.14616 0
M  V30 616 H 59.344 1.39848 3.62457 0
M  V30 617 H 61.016 3.8032 2.61064 0
M  V30 618 H 59.259 3.6153 2.39747 0
M  V30 619 H 59.93 3.77972 4.02295 0
M  V30 620 H 62.406 1.87791 3.71314 0
M  V30 621 H 61.282 2.07281 5.08258 0
M  V30 622 H 61.543 0.477572 4.39513 0
M  V30 623 N 60.6021 -1.18246 1.0419 0
M  V30 624 C 61.5521 -2.19843 0.604392 0
M  V30 625 C 62.5361 -1.56962 -0.353814 0
M  V30 626 O 63.7281 -1.76156 -0.17267 0
M  V30 627 C 60.8571 -3.43287 -0.0298975 0
M  V30 628 C 59.9431 -4.13288 0.951531 0
M  V30 629 N 60.3341 -4.59271 2.11906 0
M  V30 630 C 58.6321 -4.39165 0.7778 0
M  V30 631 C 59.3331 -5.13173 2.73912 0
M  V30 632 N 58.3091 -5.04763 2.01779 0
M  V30 633 H 62.1111 -2.53089 1.4941 0
M  V30 634 H 59.6251 -1.34465 0.910658 0
M  V30 635 H 61.6221 -4.15334 -0.361037 0
M  V30 636 H 60.2821 -3.11537 -0.915127 0
M  V30 637 H 61.2931 -4.5368 2.49789 0
M  V30 638 H 57.9701 -4.17461 -0.0572331 0
M  V30 639 H 59.3601 -5.58947 3.72864 0
M  V30 640 N 62.0802 -0.821533 -1.34494 0
M  V30 641 C 63.3202 -0.414785 -2.00147 0
M  V30 642 C 63.6842 1.00299 -1.6372 0
M  V30 643 O 64.8852 1.51255 -2.22206 0
M  V30 644 C 63.1562 -0.609403 -3.52166 0
M  V30 645 S 64.7152 -0.295297 -4.37805 0
M  V30 646 H 61.5332 -0.15679 -0.693497 0
M  V30 647 H 64.1352 -1.06705 -1.63812 0
M  V30 648 H 62.8392 -1.64096 -3.76166 0
M  V30 649 H 62.3702 0.0576414 -3.93358 0
M  V30 650 H 64.3852 0.891531 -4.88125 0
M  V30 651 N 63.5583 1.46682 -0.576371 0
M  V30 652 C 64.7863 2.06798 -0.0649635 0
M  V30 653 C 65.2013 1.42612 1.23723 0
M  V30 654 O 64.5583 0.529203 1.74659 0
M  V30 655 C 64.6093 3.6132 0.114202 0
M  V30 656 O 64.3303 4.23104 -1.13644 0
M  V30 657 C 65.8313 4.38349 0.66069 0
M  V30 658 H 63.0513 0.668778 -0.0545616 0
M  V30 659 H 65.5953 1.88404 -0.795237 0
M  V30 660 H 63.7503 3.79162 0.794673 0
M  V30 661 H 64.1643 5.15894 -0.946253 0
M  V30 662 H 65.6383 5.47081 0.73526 0
M  V30 663 H 66.1153 4.05953 1.67627 0
M  V30 664 H 66.7213 4.25297 0.0152951 0
M  V30 665 N 65.0364 0.313813 1.54444 0
M  V30 666 C 66.2834 -0.291675 2.00388 0
M  V30 667 C 66.6114 -1.52904 1.2021 0
M  V30 668 O 65.8664 -1.93833 0.269707 0
M  V30 669 C 66.1654 -0.680386 3.50864 0
M  V30 670 C 65.8314 0.456699 4.48581 0
M  V30 671 C 64.4934 0.768824 4.75018 0
M  V30 672 C 66.8454 1.22098 5.06697 0
M  V30 673 C 64.1734 1.84812 5.56831 0
M  V30 674 C 66.5254 2.29029 5.89685 0
M  V30 675 C 65.1894 2.60834 6.14428 0
M  V30 676 H 64.4594 -0.106732 0.733273 0
M  V30 677 H 67.1064 0.43557 1.86481 0
M  V30 678 H 65.4114 -1.48791 3.62448 0
M  V30 679 H 67.1084 -1.16026 3.83847 0
M  V30 680 H 63.6984 0.203337 4.28117 0
M  V30 681 H 67.8824 0.993096 4.86263 0
M  V30 682 H 63.1384 2.09912 5.74236 0
M  V30 683 H 67.3124 2.887 6.33739 0
M  V30 684 H 64.9394 3.44596 6.77612 0
M  V30 685 N 66.5145 -1.57545 0.0417849 0
M  V30 686 C 67.9305 -1.56467 -0.314704 0
M  V30 687 C 68.1305 -1.04859 -1.72066 0
M  V30 688 O 67.1865 -0.700983 -2.42575 0
M  V30 689 C 68.4995 -3.00317 -0.15174 0
M  V30 690 C 70.0475 -3.12201 -0.223553 0
M  V30 691 C 70.5225 -4.57913 -0.0892295 0
M  V30 692 N 72.0135 -4.6297 -0.145808 0
M  V30 693 C 72.7485 -5.73362 -0.0658459 0
M  V30 694 N 72.2445 -6.92769 0.0659282 0
M  V30 695 N 74.0375 -5.6197 -0.12075 0
M  V30 696 H 66.1885 -1.89416 0.961014 0
M  V30 697 H 68.4515 -0.871862 0.372237 0
M  V30 698 H 68.1575 -3.42073 0.817254 0
M  V30 699 H 68.0315 -3.65892 -0.916692 0
M  V30 700 H 70.4185 -2.70349 -1.18301 0
M  V30 701 H 70.4995 -2.49323 0.571994 0
M  V30 702 H 70.1435 -5.00448 0.866867 0
M  V30 703 H 70.0735 -5.18786 -0.903802 0
M  V30 704 H 72.5645 -3.7709 -0.247286 0
M  V30 705 H 72.8775 -7.72707 0.119905 0
M  V30 706 H 71.2225 -6.94927 0.100885 0
M  V30 707 H 74.4135 -4.67572 -0.222187 0
M  V30 708 H 74.5865 -6.47977 -0.0549735 0
M  V30 709 N 67.9926 0.231505 -1.5589 0
M  V30 710 C 69.2226 0.973092 -1.82248 0
M  V30 711 C 69.6306 1.78845 -0.617328 0
M  V30 712 O 68.9736 1.78752 0.423499 0
M  V30 713 C 69.0356 1.94732 -3.02192 0
M  V30 714 C 68.6996 1.31743 -4.37599 0
M  V30 715 C 69.6966 0.712238 -5.14998 0
M  V30 716 C 67.3816 1.33218 -4.84312 0
M  V30 717 C 69.3756 0.130195 -6.37267 0
M  V30 718 C 67.0626 0.746286 -6.06526 0
M  V30 719 C 68.0606 0.146337 -6.82843 0
M  V30 720 O 67.7486 -0.430465 -8.02747 0
M  V30 721 H 67.4806 0.29125 -0.61004 0
M  V30 722 H 70.0346 0.254915 -2.03812 0
M  V30 723 H 68.2646 2.70422 -2.76422 0
M  V30 724 H 69.9536 2.55362 -3.15508 0
M  V30 725 H 70.7196 0.69324 -4.8002 0
M  V30 726 H 66.5986 1.78854 -4.24891 0
M  V30 727 H 70.1426 -0.33871 -6.96777 0
M  V30 728 H 66.0396 0.762663 -6.40979 0
M  V30 729 H 66.8076 -0.323818 -8.17859 0
M  V30 730 N 69.4707 1.49531 0.497807 0
M  V30 731 C 70.4007 1.6935 1.60757 0
M  V30 732 C 71.3817 0.542218 1.61227 0
M  V30 733 O 72.5667 0.778417 1.77917 0
M  V30 734 C 69.6967 1.76298 2.99226 0
M  V30 735 C 68.6507 2.91248 3.13622 0
M  V30 736 C 67.9767 2.83312 4.53474 0
M  V30 737 C 69.2767 4.3214 2.93346 0
M  V30 738 H 70.9707 2.62263 1.44425 0
M  V30 739 H 68.5167 1.26208 0.693367 0
M  V30 740 H 70.4697 1.88749 3.76765 0
M  V30 741 H 69.1937 0.799871 3.16654 0
M  V30 742 H 67.8527 2.78404 2.38509 0
M  V30 743 H 67.5007 1.84902 4.67782 0
M  V30 744 H 67.2007 3.60465 4.64046 0
M  V30 745 H 68.7247 2.97775 5.33069 0
M  V30 746 H 70.1387 4.45649 3.60652 0
M  V30 747 H 68.5357 5.1054 3.15387 0
M  V30 748 H 69.6057 4.46363 1.89441 0
M  V30 749 N 70.9488 -0.749086 1.3866 0
M  V30 750 C 72.1768 -1.53834 1.38358 0
M  V30 751 C 72.5918 -1.88783 -0.0255219 0
M  V30 752 O 71.9488 -1.53101 -0.993292 0
M  V30 753 C 71.9998 -2.83468 2.2434 0
M  V30 754 O 71.7208 -2.50008 3.5976 0
M  V30 755 C 73.2218 -3.7758 2.32267 0
M  V30 756 H 70.4418 -0.47585 0.473083 0
M  V30 757 H 72.9858 -0.926726 1.82297 0
M  V30 758 H 71.1408 -3.40995 1.83851 0
M  V30 759 H 71.5548 -3.33182 4.05081 0
M  V30 760 H 73.0288 -4.65478 2.96706 0
M  V30 761 H 73.5058 -4.18334 1.33765 0
M  V30 762 H 74.1118 -3.25976 2.73166 0
M  V30 763 N 72.4269 -1.23603 -0.977757 0
M  V30 764 C 73.6519 -1.09735 -1.75991 0
M  V30 765 C 74.0769 0.346858 -1.84874 0
M  V30 766 O 73.4349 1.25093 -1.3123 0
M  V30 767 C 73.4829 -1.73051 -3.16363 0
M  V30 768 O 72.5869 -0.994452 -4.0023 0
M  V30 769 H 71.9279 -0.384476 -0.541364 0
M  V30 770 H 74.4579 -1.6371 -1.2272 0
M  V30 771 H 74.4679 -1.78398 -3.66931 0
M  V30 772 H 73.1429 -2.78137 -3.09213 0
M  V30 773 H 71.7199 -1.01812 -3.58732 0
M  V30 774 N 73.905 1.17692 -1.04816 0
M  V30 775 C 75.154 1.87192 -0.751132 0
M  V30 776 C 75.467 1.8169 0.724441 0
M  V30 777 O 76.673 2.46625 1.13527 0
M  V30 778 C 75.129 3.35857 -1.29338 0
M  V30 779 C 74.737 3.4987 -2.79812 0
M  V30 780 C 76.481 4.10709 -1.07322 0
M  V30 781 C 74.388 4.92536 -3.27356 0
M  V30 782 H 73.318 0.701162 -0.277288 0
M  V30 783 H 75.969 1.32932 -1.26496 0
M  V30 784 H 74.351 3.89631 -0.707376 0
M  V30 785 H 75.525 3.06332 -3.44235 0
M  V30 786 H 73.84 2.88433 -3.00325 0
M  V30 787 H 76.437 5.15952 -1.4035 0
M  V30 788 H 76.78 4.16299 -0.0108001 0
M  V30 789 H 77.313 3.6313 -1.62423 0
M  V30 790 H 74.052 4.92119 -4.33012 0
M  V30 791 H 73.572 5.3676 -2.67673 0
M  V30 792 H 75.251 5.61288 -3.21815 0
M  V30 793 N 75.3831 0.828654 1.34056 0
M  V30 794 C 76.7941 0.477534 1.8049 0
M  V30 795 C 77.1451 -1.00258 1.6865 0
M  V30 796 O 76.2701 -1.78057 1.22982 0
M  V30 797 C 76.8651 0.860018 3.27703 0
M  V30 798 C 75.4241 0.561185 3.72193 0
M  V30 799 C 74.5711 1.07385 2.55663 0
M  V30 800 H 77.5221 1.0183 1.21722 0
M  V30 801 H 77.5431 0.166038 3.80138 0
M  V30 802 H 77.0551 1.93731 3.36288 0
M  V30 803 H 75.1561 -0.506465 3.69142 0
M  V30 804 H 75.2691 1.10926 4.66082 0
M  V30 805 H 73.6331 0.495149 2.49841 0
M  V30 806 H 74.4161 2.15771 2.67016 0
M  V30 807 N 76.8612 -1.46375 0.584142 0
M  V30 808 C 78.1382 -1.956 0.0033388 0
M  V30 809 C 78.5182 -1.52679 -1.45782 0
M  V30 810 O 77.8662 -0.77816 -2.14842 0
M  V30 811 C 78.0762 -3.48551 0.176891 0
M  V30 812 C 79.4242 -4.24576 0.0454609 0
M  V30 813 O 80.4482 -3.56043 0.105801 0
M  V30 814 O 79.3072 -5.46427 -0.0890376 0
M  V30 815 H 76.4012 -0.825547 -0.0490066 0
M  V30 816 H 78.9472 -1.56652 0.65256 0
M  V30 817 H 77.7192 -3.72683 1.1926 0
M  V30 818 H 77.3422 -3.94332 -0.508695 0
M  V30 819 N 78.3393 -0.321999 -1.54275 0
M  V30 820 C 79.5643 0.285791 -2.05422 0
M  V30 821 C 79.9893 1.45124 -1.19669 0
M  V30 822 O 79.3473 1.80132 -0.205441 0
M  V30 823 C 79.3953 0.69956 -3.53749 0
M  V30 824 O 78.4993 1.8021 -3.70942 0
M  V30 825 H 77.8403 0.0518962 -0.661969 0
M  V30 826 H 80.3703 -0.469954 -1.9913 0
M  V30 827 H 80.3803 0.982649 -3.9599 0
M  V30 828 H 79.0553 -0.152864 -4.15619 0
M  V30 829 H 77.6323 1.51794 -3.40607 0
M  V30 830 N 79.8174 1.5752 -0.0501392 0
M  V30 831 C 81.0664 1.91827 0.623328 0
M  V30 832 C 81.3794 0.930222 1.72065 0
M  V30 833 O 82.5854 1.1653 2.4522 0
M  V30 834 C 81.0414 3.40692 1.16003 0
M  V30 835 C 80.6494 4.479 0.0948811 0
M  V30 836 C 82.3934 3.84034 1.80881 0
M  V30 837 C 80.3004 5.87879 0.644411 0
M  V30 838 H 79.2304 0.715918 0.236596 0
M  V30 839 H 81.8814 1.83115 -0.118861 0
M  V30 840 H 80.2634 3.44405 1.9545 0
M  V30 841 H 81.4374 4.55775 -0.678675 0
M  V30 842 H 79.7524 4.13892 -0.45637 0
M  V30 843 H 82.3494 4.85984 2.22988 0
M  V30 844 H 82.6924 3.20225 2.6601 0
M  V30 845 H 83.2254 3.82833 1.0809 0
M  V30 846 H 79.9644 6.55282 -0.169229 0
M  V30 847 H 79.4844 5.83567 1.38598 0
M  V30 848 H 81.1634 6.37098 1.12763 0
M  V30 849 N 81.2955 -0.223234 1.56011 0
M  V30 850 C 82.7065 -0.790368 1.69145 0
M  V30 851 C 83.0575 -1.85055 0.651845 0
M  V30 852 O 82.1825 -2.15498 -0.197359 0
M  V30 853 C 82.7775 -1.4404 3.06656 0
M  V30 854 C 81.3365 -1.95494 3.2165 0
M  V30 855 C 80.4835 -0.814506 2.65068 0
M  V30 856 H 83.4345 0.00139011 1.587 0
M  V30 857 H 83.4555 -2.30916 3.0242 0
M  V30 858 H 82.9675 -0.668543 3.82298 0
M  V30 859 H 81.0685 -2.75487 2.50874 0
M  V30 860 H 81.1815 -2.13607 4.28846 0
M  V30 861 H 79.5455 -1.22137 2.23505 0
M  V30 862 H 80.3285 -0.0553515 3.43255 0
M  V30 863 N 82.7736 -1.49793 -0.48987 0
M  V30 864 C 84.1846 -1.52914 -1.07118 0
M  V30 865 C 84.5356 -0.321738 -1.93544 0
M  V30 866 O 83.6606 0.567338 -2.08831 0
M  V30 867 C 84.2556 -2.771 -1.94938 0
M  V30 868 C 82.8146 -2.82963 -2.48212 0
M  V30 869 C 81.9616 -2.46972 -1.26096 0
M  V30 870 H 84.9126 -1.56329 -0.273289 0
M  V30 871 H 84.9336 -2.57892 -2.79771 0
M  V30 872 H 84.4456 -3.64959 -1.32009 0
M  V30 873 H 82.5466 -1.99411 -3.14748 0
M  V30 874 H 82.6596 -3.85406 -2.84603 0
M  V30 875 H 81.0236 -1.98994 -1.58976 0
M  V30 876 H 81.8066 -3.37118 -0.648581 0
M  V30 877 N 84.2517 0.741722 -1.39055 0
M  V30 878 C 85.1997 1.87702 -1.3737 0
M  V30 879 C 86.1937 1.67427 -0.257812 0
M  V30 880 O 87.3997 1.7485 -0.427489 0
M  V30 881 H 83.7747 0.617757 -0.428812 0
M  V30 882 H 85.7457 1.86239 -2.33147 0
M  V30 883 C 84.4947 3.25315 -1.22741 0
M  V30 884 H 83.8177 3.41509 -2.07873 0
M  V30 885 H 85.2577 4.04964 -1.25618 0
M  V30 886 C 83.7167 3.36838 0.0647316 0
M  V30 887 O 84.2467 3.88073 1.03741 0
M  V30 888 N 82.4527 2.90329 0.125544 0
M  V30 889 H 81.9997 2.48823 -0.666682 0
M  V30 890 H 81.9577 2.98418 0.989639 0
M  V30 891 N 85.7298 1.2412 0.971189 0
M  V30 892 C 86.9758 1.08041 1.71625 0
M  V30 893 C 87.3088 -0.380407 1.90438 0
M  V30 894 O 86.5838 -1.28127 1.46334 0
M  V30 895 C 86.8668 1.81682 3.10908 0
M  V30 896 C 86.7198 3.35493 2.99608 0
M  V30 897 C 88.0388 1.58671 4.10501 0
M  V30 898 H 85.1578 0.39388 0.622919 0
M  V30 899 H 87.7998 1.52743 1.13003 0
M  V30 900 H 85.9498 1.43684 3.60953 0
M  V30 901 H 87.6218 3.83068 2.57015 0
M  V30 902 H 85.8648 3.64052 2.35899 0
M  V30 903 H 86.5358 3.82217 3.98264 0
M  V30 904 H 89.0118 1.91719 3.69301 0
M  V30 905 H 87.8878 2.1266 5.06031 0
M  V30 906 H 88.1488 0.524161 4.38982 0
M  V30 907 N 87.2079 -1.17134 1.05439 0
M  V30 908 C 88.1179 -2.24878 0.668365 0
M  V30 909 C 89.1339 -1.71186 -0.311687 0
M  V30 910 O 90.3099 -2.00738 -0.163161 0
M  V30 911 C 87.3749 -3.46662 0.051648 0
M  V30 912 C 86.4359 -4.15429 1.08246 0
M  V30 913 C 85.6689 -5.31399 0.495082 0
M  V30 914 O 85.8919 -5.66153 -0.694743 0
M  V30 915 O 84.8259 -5.89187 1.23056 0
M  V30 916 H 88.6519 -2.60189 1.56637 0
M  V30 917 H 86.2369 -1.24482 0.826104 0
M  V30 918 H 88.1189 -4.20394 -0.290966 0
M  V30 919 H 86.7939 -3.13142 -0.819971 0
M  V30 920 H 85.7009 -3.43704 1.47711 0
M  V30 921 H 87.0339 -4.52982 1.92532 0
M  V30 922 N 88.686 -0.835752 -1.33615 0
M  V30 923 C 90.102 -0.523139 -1.50783 0
M  V30 924 C 90.302 0.950171 -1.77691 0
M  V30 925 O 89.358 1.73411 -1.83534 0
M  V30 926 C 90.671 -1.39378 -2.66448 0
M  V30 927 C 92.219 -1.39223 -2.80332 0
M  V30 928 C 92.694 -2.24765 -3.99055 0
M  V30 929 N 94.185 -2.22458 -4.06284 0
M  V30 930 C 94.92 -2.85386 -4.97336 0
M  V30 931 N 94.416 -3.57354 -5.93523 0
M  V30 932 N 96.209 -2.74872 -4.90308 0
M  V30 933 H 88.36 -1.78952 -1.14411 0
M  V30 934 H 90.623 -0.763297 -0.562212 0
M  V30 935 H 90.329 -2.44061 -2.53234 0
M  V30 936 H 90.203 -1.0676 -3.61776 0
M  V30 937 H 92.59 -0.353136 -2.92979 0
M  V30 938 H 92.671 -1.75846 -1.85773 0
M  V30 939 H 92.315 -3.28732 -3.87167 0
M  V30 940 H 92.245 -1.85485 -4.92852 0
M  V30 941 H 94.736 -1.70119 -3.37443 0
M  V30 942 H 95.049 -4.02584 -6.59656 0
M  V30 943 H 93.394 -3.61461 -5.93608 0
M  V30 944 H 96.585 -2.18213 -4.14126 0
M  V30 945 H 96.758 -3.24199 -5.61069 0
M  V30 946 N 90.1641 1.46063 -0.591896 0
M  V30 947 C 91.4131 2.01547 -0.0786637 0
M  V30 948 C 91.7261 1.46796 1.29268 0
M  V30 949 O 92.9321 1.94157 1.89777 0
M  V30 950 C 91.3881 3.59787 -0.0900024 0
M  V30 951 C 90.9961 4.23534 -1.46023 0
M  V30 952 C 92.7401 4.22895 0.368806 0
M  V30 953 C 90.6471 5.73881 -1.4288 0
M  V30 954 H 89.5771 0.753564 -0.0256388 0
M  V30 955 H 92.2281 1.677 -0.744905 0
M  V30 956 H 90.6101 3.90752 0.642586 0
M  V30 957 H 91.7841 4.04167 -2.21328 0
M  V30 958 H 90.0991 3.72558 -1.85982 0
M  V30 959 H 92.6961 5.33116 0.411258 0
M  V30 960 H 93.0391 3.9247 1.38827 0
M  V30 961 H 93.5721 3.9659 -0.31001 0
M  V30 962 H 90.3111 6.0898 -2.42536 0
M  V30 963 H 89.8311 5.95486 -0.718095 0
M  V30 964 H 91.5101 6.36776 -1.14565 0
M  V30 965 N 91.6422 0.330177 1.54103 0
M  V30 966 C 92.5902 -0.548226 2.26047 0
M  V30 967 C 93.5842 -1.11309 1.27698 0
M  V30 968 O 94.7902 -1.06036 1.45452 0
M  V30 969 H 91.1652 -0.195456 0.726155 0
M  V30 970 H 93.1362 0.0807567 2.98291 0
M  V30 971 C 91.8852 -1.69415 3.03634 0
M  V30 972 H 91.2082 -1.26876 3.79134 0
M  V30 973 H 92.6482 -2.28423 3.5721 0
M  V30 974 C 91.1072 -2.61569 2.12328 0
M  V30 975 O 91.6372 -3.63462 1.7105 0
M  V30 976 N 89.8432 -2.29952 1.77681 0
M  V30 977 H 89.3902 -1.47134 2.11446 0
M  V30 978 H 89.3482 -2.91871 1.16869 0
M  V30 979 N 93.1203 -1.57491 0.0584922 0
M  V30 980 C 94.0503 -2.14988 -0.911178 0
M  V30 981 C 95.0313 -1.07343 -1.31952 0
M  V30 982 O 96.2163 -1.35318 -1.39294 0
M  V30 983 C 93.3463 -2.70078 -2.18347 0
M  V30 984 C 92.3003 -3.82771 -1.91495 0
M  V30 985 C 91.6263 -4.24408 -3.25241 0
M  V30 986 C 92.9263 -5.07592 -1.23075 0
M  V30 987 H 94.6203 -2.96263 -0.432246 0
M  V30 988 H 92.1663 -1.42512 -0.206469 0
M  V30 989 H 94.1193 -3.08943 -2.86587 0
M  V30 990 H 92.8433 -1.86005 -2.68458 0
M  V30 991 H 91.5023 -3.44389 -1.25664 0
M  V30 992 H 91.1503 -3.37275 -3.73168 0
M  V30 993 H 90.8503 -5.00366 -3.08071 0
M  V30 994 H 92.3743 -4.65879 -3.94701 0
M  V30 995 H 93.7883 -5.43857 -1.81362 0
M  V30 996 H 92.1853 -5.88741 -1.16207 0
M  V30 997 H 93.2553 -4.84454 -0.207847 0
M  V30 998 N 94.5984 0.214957 -1.56127 0
M  V30 999 C 95.8464 0.936518 -1.79091 0
M  V30 1000 C 96.1674 1.84606 -0.628148 0
M  V30 1001 O 95.4374 1.92664 0.35462 0
M  V30 1002 H 94.0174 0.3488 -0.660566 0
M  V30 1003 H 96.6794 0.22523 -1.93594 0
M  V30 1004 H 95.7754 1.53943 -2.71492 0
M  V30 1005 N 96.0765 1.50051 0.48192 0
M  V30 1006 C 97.3065 1.63999 1.2565 0
M  V30 1007 C 97.7145 0.318288 1.86504 0
M  V30 1008 O 97.0575 -0.708534 1.69486 0
M  V30 1009 C 97.1195 2.66504 2.4128 0
M  V30 1010 C 96.7835 4.10352 2.01148 0
M  V30 1011 C 97.7805 4.96562 1.54021 0
M  V30 1012 C 95.4655 4.56203 2.10199 0
M  V30 1013 C 97.4595 6.26668 1.16473 0
M  V30 1014 C 95.1465 5.86318 1.72264 0
M  V30 1015 C 96.1445 6.71375 1.25477 0
M  V30 1016 O 95.8325 7.99062 0.880626 0
M  V30 1017 H 95.5645 0.55456 0.386574 0
M  V30 1018 H 98.1185 1.96954 0.582944 0
M  V30 1019 H 96.3485 2.28769 3.11772 0
M  V30 1020 H 98.0375 2.69783 3.03268 0
M  V30 1021 H 98.8035 4.62358 1.46458 0
M  V30 1022 H 94.6825 3.90152 2.45566 0
M  V30 1023 H 98.2265 6.93011 0.798841 0
M  V30 1024 H 94.1235 6.20046 1.79482 0
M  V30 1025 H 94.8915 8.12239 1.01043 0
M  V30 1026 N 97.5546 -0.734337 1.39446 0
M  V30 1027 C 98.5026 -1.86971 1.38364 0
M  V30 1028 C 99.4966 -1.67288 0.266687 0
M  V30 1029 O 100.703 -1.74621 0.436755 0
M  V30 1030 H 97.0776 -0.615474 0.432082 0
M  V30 1031 H 99.0486 -1.85 2.34132 0
M  V30 1032 C 97.7976 -3.2466 1.24465 0
M  V30 1033 H 97.1206 -3.40402 2.09682 0
M  V30 1034 H 98.5606 -4.04292 1.27764 0
M  V30 1035 C 97.0196 -3.36867 -0.0468674 0
M  V30 1036 O 97.5496 -3.88618 -1.01681 0
M  V30 1037 N 95.7556 -2.90391 -0.110145 0
M  V30 1038 H 95.3026 -2.48466 0.679868 0
M  V30 1039 H 95.2606 -2.98939 -0.973799 0
M  V30 1040 N 99.0327 -1.24633 -0.964593 0
M  V30 1041 C 100.258 -1.11596 -1.74818 0
M  V30 1042 C 100.683 0.32723 -1.85232 0
M  V30 1043 O 100.041 1.23695 -1.32549 0
M  V30 1044 C 100.089 -1.76397 -3.1451 0
M  V30 1045 O 99.1927 -1.03685 -3.99153 0
M  V30 1046 H 98.5337 -0.390196 -0.537255 0
M  V30 1047 H 101.064 -1.65002 -1.20977 0
M  V30 1048 H 101.074 -1.8228 -3.65018 0
M  V30 1049 H 99.7487 -2.81401 -3.06246 0
M  V30 1050 H 98.3257 -1.05611 -3.57632 0
M  V30 1051 N 100.511 1.16574 -1.06058 0
M  V30 1052 C 101.441 2.23057 -0.690488 0
M  V30 1053 C 102.422 1.67141 0.315901 0
M  V30 1054 O 103.607 1.93253 0.191556 0
M  V30 1055 C 100.737 3.47222 -0.073625 0
M  V30 1056 C 99.6908 4.16016 -1.00573 0
M  V30 1057 C 99.0168 5.34104 -0.252289 0
M  V30 1058 C 100.317 4.67264 -2.33371 0
M  V30 1059 H 102.011 2.54271 -1.58072 0
M  V30 1060 H 99.5568 1.22218 -0.76149 0
M  V30 1061 H 101.51 4.20939 0.19714 0
M  V30 1062 H 100.234 3.15302 0.85161 0
M  V30 1063 H 98.8928 3.44223 -1.2612 0
M  V30 1064 H 98.5408 4.98437 0.675988 0
M  V30 1065 H 98.2408 5.81072 -0.873455 0
M  V30 1066 H 99.7648 6.10599 0.0109857 0
M  V30 1067 H 101.179 5.32573 -2.12223 0
M  V30 1068 H 99.5758 5.24843 -2.90963 0
M  V30 1069 H 100.646 3.83602 -2.96611 0
M  V30 1070 N 101.989 0.842826 1.3317 0
M  V30 1071 C 103.235 0.441099 1.97945 0
M  V30 1072 C 103.568 -0.998024 1.66593 0
M  V30 1073 O 102.843 -1.69839 0.947898 0
M  V30 1074 C 103.126 0.666841 3.53872 0
M  V30 1075 C 102.979 2.15352 3.94897 0
M  V30 1076 C 104.298 0.115544 4.39948 0
M  V30 1077 H 101.417 0.161739 0.719034 0
M  V30 1078 H 104.059 1.05907 1.57746 0
M  V30 1079 H 102.209 0.140828 3.88245 0
M  V30 1080 H 103.881 2.7447 3.70761 0
M  V30 1081 H 102.124 2.63653 3.44484 0
M  V30 1082 H 102.795 2.26221 5.03516 0
M  V30 1083 H 105.271 0.565213 4.12243 0
M  V30 1084 H 104.147 0.303152 5.48062 0
M  V30 1085 H 104.408 -0.980935 4.3108 0
M  V30 1086 N 103.467 -1.45747 0.599634 0
M  V30 1087 C 104.883 -1.57424 0.26264 0
M  V30 1088 C 105.083 -1.59222 -1.23493 0
M  V30 1089 O 104.139 -1.51825 -2.01756 0
M  V30 1090 C 105.452 -2.86061 0.926795 0
M  V30 1091 C 107 -2.99722 0.901967 0
M  V30 1092 C 107.475 -4.31119 1.54598 0
M  V30 1093 N 108.966 -4.37858 1.5111 0
M  V30 1094 C 109.701 -5.3818 1.97863 0
M  V30 1095 N 109.197 -6.45083 2.52666 0
M  V30 1096 N 110.99 -5.29487 1.88679 0
M  V30 1097 H 103.141 -1.42823 1.57211 0
M  V30 1098 H 105.404 -0.68235 0.658105 0
M  V30 1099 H 105.11 -2.90605 1.98095 0
M  V30 1100 H 104.984 -3.74563 0.445238 0
M  V30 1101 H 107.371 -2.9475 -0.143617 0
M  V30 1102 H 107.452 -2.12652 1.42171 0
M  V30 1103 H 107.096 -4.36849 2.59085 0
M  V30 1104 H 107.026 -5.16992 1.00132 0
M  V30 1105 H 109.517 -3.61209 1.11068 0
M  V30 1106 H 109.83 -7.17869 2.86155 0
M  V30 1107 H 108.175 -6.45856 2.56701 0
M  V30 1108 H 111.366 -4.44877 1.4561 0
M  V30 1109 H 111.539 -6.07524 2.25429 0
M  V30 1110 N 104.945 -0.338344 -1.53925 0
M  V30 1111 C 105.875 0.51328 -2.27789 0
M  V30 1112 C 106.856 1.107 -1.29149 0
M  V30 1113 O 108.041 1.12937 -1.57984 0
M  V30 1114 C 105.171 1.66697 -3.04679 0
M  V30 1115 C 104.125 1.20183 -4.1078 0
M  V30 1116 C 103.451 2.44363 -4.75595 0
M  V30 1117 C 104.751 0.30605 -5.21403 0
M  V30 1118 H 106.445 -0.102883 -2.99223 0
M  V30 1119 H 103.991 -0.0509219 -1.4391 0
M  V30 1120 H 105.944 2.26915 -3.55088 0
M  V30 1121 H 104.668 2.30995 -2.30887 0
M  V30 1122 H 103.327 0.622499 -3.61276 0
M  V30 1123 H 102.975 3.07057 -3.98403 0
M  V30 1124 H 102.675 2.13925 -5.47275 0
M  V30 1125 H 104.199 3.05317 -5.28786 0
M  V30 1126 H 105.613 0.814929 -5.67478 0
M  V30 1127 H 104.01 0.0937929 -6.00027 0
M  V30 1128 H 105.08 -0.65921 -4.80398 0
M  V30 1129 N 106.423 1.57458 -0.0668435 0
M  V30 1130 C 107.356 2.08033 0.93795 0
M  V30 1131 C 108.334 0.984321 1.29421 0
M  V30 1132 O 109.518 1.25736 1.40437 0
M  V30 1133 C 106.645 2.53388 2.24749 0
M  V30 1134 C 105.691 3.74376 2.04315 0
M  V30 1135 S 106.524 5.19303 1.30706 0
M  V30 1136 C 107.68 5.67986 2.62951 0
M  V30 1137 H 107.913 2.92935 0.50759 0
M  V30 1138 H 105.446 1.5371 0.145804 0
M  V30 1139 H 107.404 2.8018 3.00016 0
M  V30 1140 H 106.065 1.68763 2.64911 0
M  V30 1141 H 105.258 4.04083 3.01218 0
M  V30 1142 H 104.86 3.47931 1.37186 0
M  V30 1143 H 107.152 5.74528 3.5906 0
M  V30 1144 H 108.095 6.66955 2.3786 0
M  V30 1145 H 108.503 4.95781 2.69929 0
M  V30 1146 N 107.901 -0.206675 1.56239 0
M  V30 1147 C 108.811 -1.27686 1.96808 0
M  V30 1148 C 109.827 -1.50455 0.874035 0
M  V30 1149 O 111.003 -1.63295 1.17884 0
M  V30 1150 C 108.068 -2.60358 2.28942 0
M  V30 1151 C 107.129 -2.45762 3.51994 0
M  V30 1152 C 106.362 -3.72108 3.82585 0
M  V30 1153 O 106.585 -4.75776 3.14631 0
M  V30 1154 O 105.519 -3.6833 4.76043 0
M  V30 1155 H 109.345 -0.962593 2.88041 0
M  V30 1156 H 106.93 -0.410746 1.43643 0
M  V30 1157 H 108.812 -3.38687 2.50737 0
M  V30 1158 H 107.487 -2.91435 1.4088 0
M  V30 1159 H 106.394 -1.65584 3.35459 0
M  V30 1160 H 107.727 -2.19621 4.40486 0
M  V30 1161 N 109.379 -1.50304 -0.473955 0
M  V30 1162 C 110.607 -1.64902 -1.24959 0
M  V30 1163 C 111.022 -0.331198 -1.85872 0
M  V30 1164 O 110.379 0.68652 -1.69095 0
M  V30 1165 C 110.43 -2.73803 -2.36038 0
M  V30 1166 O 110.151 -4.00477 -1.77624 0
M  V30 1167 C 111.652 -2.99349 -3.26964 0
M  V30 1168 H 108.872 -0.554383 -0.378022 0
M  V30 1169 H 111.416 -1.9651 -0.566054 0
M  V30 1170 H 109.571 -2.44898 -3.00173 0
M  V30 1171 H 109.985 -4.60678 -2.5075 0
M  V30 1172 H 111.459 -3.79217 -4.01121 0
M  V30 1173 H 111.936 -2.10307 -3.85574 0
M  V30 1174 H 112.542 -3.29774 -2.68569 0
M  V30 1175 N 110.857 0.726932 -1.39834 0
M  V30 1176 C 112.134 1.47902 -1.28001 0
M  V30 1177 C 112.514 2.1083 0.106789 0
M  V30 1178 O 111.862 1.99242 1.11869 0
M  V30 1179 C 112.072 2.52392 -2.41038 0
M  V30 1180 C 113.42 3.18546 -2.80737 0
M  V30 1181 O 114.444 2.62708 -2.40547 0
M  V30 1182 O 113.303 4.19604 -3.50135 0
M  V30 1183 H 110.397 0.657163 -0.502062 0
M  V30 1184 H 112.943 0.760071 -1.51727 0
M  V30 1185 H 111.715 2.04329 -3.33715 0
M  V30 1186 H 111.338 3.31837 -2.19021 0
M  V30 1187 N 112.336 1.25143 0.95797 0
M  V30 1188 C 113.583 1.09692 1.70217 0
M  V30 1189 C 113.911 -0.362654 1.91089 0
M  V30 1190 O 113.166 -1.28386 1.47701 0
M  V30 1191 C 113.465 1.79272 3.09187 0
M  V30 1192 C 113.131 3.29196 3.08125 0
M  V30 1193 C 111.793 3.70096 3.07543 0
M  V30 1194 C 114.145 4.24995 3.0171 0
M  V30 1195 C 111.473 5.05213 2.9829 0
M  V30 1196 C 113.825 5.60132 2.93999 0
M  V30 1197 C 112.489 6.00365 2.9175 0
M  V30 1198 H 111.759 0.401393 0.622868 0
M  V30 1199 H 114.406 1.55372 1.11945 0
M  V30 1200 H 112.711 1.26014 3.70982 0
M  V30 1201 H 114.408 1.64773 3.65583 0
M  V30 1202 H 110.998 2.96651 3.09348 0
M  V30 1203 H 115.182 3.9439 3.01281 0
M  V30 1204 H 110.438 5.35569 2.94916 0
M  V30 1205 H 114.612 6.3406 2.87996 0
M  V30 1206 H 112.239 7.05023 2.84336 0
M  V30 1207 N 113.814 -1.1601 1.06675 0
M  V30 1208 C 115.039 -1.91068 0.806706 0
M  V30 1209 C 115.464 -1.77112 -0.633485 0
M  V30 1210 O 114.822 -1.09908 -1.44187 0
M  V30 1211 C 114.87 -3.39655 1.21106 0
M  V30 1212 O 113.974 -4.10893 0.352189 0
M  V30 1213 H 113.315 -0.595125 0.294486 0
M  V30 1214 H 115.845 -1.46955 1.42356 0
M  V30 1215 H 115.855 -3.90434 1.18428 0
M  V30 1216 H 114.53 -3.49132 2.26008 0
M  V30 1217 H 113.107 -3.70285 0.440868 0
M  V30 1218 N 115.292 -0.849877 -1.32721 0
M  V30 1219 C 116.54 -0.450032 -1.97026 0
M  V30 1220 C 116.861 0.996604 -1.67609 0
M  V30 1221 O 116.131 1.6958 -0.980786 0
M  V30 1222 H 114.711 -0.163426 -0.728904 0
M  V30 1223 H 117.373 -1.08526 -1.6189 0
M  V30 1224 H 116.469 -0.591146 -3.0645 0
M  V30 1225 N 116.77 1.45427 -0.607355 0
M  V30 1226 C 117.7 2.3329 0.0989352 0
M  V30 1227 C 118.681 1.46816 0.859007 0
M  V30 1228 O 119.866 1.75588 0.829604 0
M  V30 1229 C 116.996 3.29518 1.09705 0
M  V30 1230 C 115.95 4.25626 0.450206 0
M  V30 1231 C 115.276 5.11542 1.55655 0
M  V30 1232 C 116.576 5.18505 -0.628455 0
M  V30 1233 H 118.27 2.92595 -0.634716 0
M  V30 1234 H 115.816 1.40696 -0.306681 0
M  V30 1235 H 117.769 3.89855 1.59971 0
M  V30 1236 H 116.493 2.68372 1.86129 0
M  V30 1237 H 115.152 3.66586 -0.0315886 0
M  V30 1238 H 114.8 4.46765 2.31107 0
M  V30 1239 H 114.5 5.76647 1.12925 0
M  V30 1240 H 116.024 5.74748 2.06148 0
M  V30 1241 H 117.438 5.72916 -0.209877 0
M  V30 1242 H 115.835 5.92085 -0.977489 0
M  V30 1243 H 116.905 4.60948 -1.50514 0
M  V30 1244 N 118.248 0.346503 1.53744 0
M  V30 1245 C 119.476 -0.25041 2.05379 0
M  V30 1246 C 119.891 -1.43979 1.22129 0
M  V30 1247 O 119.248 -1.80677 0.257321 0
M  V30 1248 C 119.299 -0.662575 3.55376 0
M  V30 1249 O 119.02 0.479515 4.35468 0
M  V30 1250 C 120.521 -1.31989 4.23195 0
M  V30 1251 H 117.741 -0.0478198 0.669294 0
M  V30 1252 H 120.285 0.499346 1.9831 0
M  V30 1253 H 118.44 -1.36227 3.62658 0
M  V30 1254 H 118.854 0.15037 5.24284 0
M  V30 1255 H 120.328 -1.55902 5.29527 0
M  V30 1256 H 120.805 -2.27436 3.75725 0
M  V30 1257 H 121.411 -0.662154 4.20114 0
M  V30 1258 N 119.726 -1.57421 0.075193 0
M  V30 1259 C 120.673 -2.12915 -0.890843 0
M  V30 1260 C 121.643 -1.04252 -1.29309 0
M  V30 1261 O 122.828 -1.31933 -1.37834 0
M  V30 1262 C 119.968 -2.69795 -2.15186 0
M  V30 1263 C 119.081 -3.92624 -1.80194 0
M  V30 1264 C 118.216 -4.37736 -3.00933 0
M  V30 1265 C 117.255 -5.53205 -2.61974 0
M  V30 1266 N 116.392 -5.9326 -3.75483 0
M  V30 1267 H 121.232 -2.95156 -0.410735 0
M  V30 1268 H 118.769 -1.45854 -0.191086 0
M  V30 1269 H 120.727 -3.00883 -2.89008 0
M  V30 1270 H 119.357 -1.90313 -2.60731 0
M  V30 1271 H 118.409 -3.67977 -0.964218 0
M  V30 1272 H 119.721 -4.76482 -1.47534 0
M  V30 1273 H 118.875 -4.70503 -3.8303 0
M  V30 1274 H 117.614 -3.52739 -3.36789 0
M  V30 1275 H 116.619 -5.20086 -1.783 0
M  V30 1276 H 117.844 -6.39936 -2.27284 0
M  V30 1277 H 115.79 -5.11212 -4.11094 0
M  V30 1278 H 115.707 -6.71865 -3.46602 0
M  V30 1279 H 116.975 -6.30651 -4.58148 0
M  V30 1280 N 121.204 0.198386 -1.56346 0
M  V30 1281 C 122.134 1.24865 -1.9731 0
M  V30 1282 C 123.115 1.47651 -0.844576 0
M  V30 1283 O 124.3 1.59444 -1.10866 0
M  V30 1284 C 121.43 2.59358 -2.30977 0
M  V30 1285 C 120.384 2.5119 -3.46537 0
M  V30 1286 C 119.71 3.89926 -3.65871 0
M  V30 1287 C 121.01 2.03977 -4.80823 0
M  V30 1288 H 122.704 0.908252 -2.85291 0
M  V30 1289 H 120.25 0.435462 -1.37258 0
M  V30 1290 H 122.203 3.33011 -2.58228 0
M  V30 1291 H 120.927 2.95132 -1.39874 0
M  V30 1292 H 119.586 1.79993 -3.19371 0
M  V30 1293 H 119.234 4.23046 -2.72105 0
M  V30 1294 H 118.934 3.85336 -4.4361 0
M  V30 1295 H 120.458 4.65205 -3.95495 0
M  V30 1296 H 121.872 2.67386 -5.07127 0
M  V30 1297 H 120.269 2.10397 -5.62008 0
M  V30 1298 H 121.339 0.992861 -4.74626 0
M  V30 1299 N 122.682 1.50554 0.465978 0
M  V30 1300 C 123.592 1.72585 1.58907 0
M  V30 1301 C 124.608 0.60911 1.6299 0
M  V30 1302 O 125.784 0.88804 1.80765 0
M  V30 1303 C 122.849 1.81995 2.95091 0
M  V30 1304 C 121.91 3.05751 3.01355 0
M  V30 1305 C 121.143 3.14702 4.31043 0
M  V30 1306 O 121.366 2.30313 5.21835 0
M  V30 1307 O 120.3 4.07468 4.43005 0
M  V30 1308 H 124.126 2.67799 1.43239 0
M  V30 1309 H 121.711 1.34711 0.646013 0
M  V30 1310 H 123.593 1.90335 3.75966 0
M  V30 1311 H 122.268 0.899659 3.10947 0
M  V30 1312 H 121.175 3.02908 2.19539 0
M  V30 1313 H 122.508 3.97375 2.90437 0
M  V30 1314 N 124.16 -0.719506 1.40217 0
M  V30 1315 C 125.09 -1.8465 1.42922 0
M  V30 1316 C 126.071 -1.67599 0.29062 0
M  V30 1317 O 127.256 -1.87688 0.498677 0
M  V30 1318 C 124.386 -3.22565 1.28722 0
M  V30 1319 C 123.34 -3.54281 2.40144 0
M  V30 1320 C 122.666 -4.91298 2.11023 0
M  V30 1321 C 123.966 -3.55676 3.82481 0
M  V30 1322 H 125.66 -1.82644 2.37237 0
M  V30 1323 H 123.206 -0.877305 1.1419 0
M  V30 1324 H 125.159 -4.01095 1.29232 0
M  V30 1325 H 123.883 -3.25137 0.308811 0
M  V30 1326 H 122.542 -2.78088 2.38877 0
M  V30 1327 H 122.19 -4.90468 1.11582 0
M  V30 1328 H 121.89 -5.13485 2.8567 0
M  V30 1329 H 123.414 -5.72166 2.13209 0
M  V30 1330 H 124.828 -4.24254 3.85592 0
M  V30 1331 H 123.225 -3.89388 4.56614 0
M  V30 1332 H 124.295 -2.55144 4.12346 0
M  V30 1333 N 125.638 -1.25649 -0.95132 0
M  V30 1334 C 126.568 -1.08808 -2.06599 0
M  V30 1335 C 127.549 0.00382547 -1.701 0
M  V30 1336 O 128.734 -0.166325 -1.93486 0
M  V30 1337 C 125.864 -0.709542 -3.39975 0
M  V30 1338 C 124.818 -1.75206 -3.90496 0
M  V30 1339 C 124.144 -1.22811 -5.20405 0
M  V30 1340 C 125.444 -3.15153 -4.16504 0
M  V30 1341 H 127.138 -2.02048 -2.20946 0
M  V30 1342 H 124.684 -0.972835 -1.06169 0
M  V30 1343 H 126.637 -0.578649 -4.17408 0
M  V30 1344 H 125.361 0.258556 -3.25575 0
M  V30 1345 H 124.02 -1.87145 -3.15234 0
M  V30 1346 H 123.668 -0.250145 -5.02378 0
M  V30 1347 H 123.368 -1.92492 -5.55176 0
M  V30 1348 H 124.892 -1.10968 -6.00432 0
M  V30 1349 H 126.306 -3.06349 -4.84586 0
M  V30 1350 H 124.703 -3.82333 -4.62538 0
M  V30 1351 H 125.773 -3.61966 -3.22658 0
M  V30 1352 N 127.117 1.15442 -1.07289 0
M  V30 1353 C 128.05 2.19135 -0.636798 0
M  V30 1354 C 129.028 1.58884 0.34562 0
M  V30 1355 O 130.212 1.86805 0.252195 0
M  V30 1356 C 127.339 3.38638 0.0650014 0
M  V30 1357 C 126.385 4.17412 -0.87576 0
M  V30 1358 S 127.218 4.79882 -2.37642 0
M  V30 1359 C 128.374 6.02753 -1.6864 0
M  V30 1360 H 128.607 2.55787 -1.51526 0
M  V30 1361 H 126.14 1.26394 -0.886793 0
M  V30 1362 H 128.098 4.07873 0.463664 0
M  V30 1363 H 126.759 3.00331 0.919801 0
M  V30 1364 H 125.952 5.02909 -0.33143 0
M  V30 1365 H 125.554 3.53722 -1.21478 0
M  V30 1366 H 127.846 6.70113 -0.997753 0
M  V30 1367 H 128.789 6.61754 -2.51967 0
M  V30 1368 H 129.197 5.52355 -1.16465 0
M  V30 1369 N 128.595 0.856903 1.32268 0
M  V30 1370 C 129.525 0.31858 2.31316 0
M  V30 1371 C 130.506 -0.583487 1.59779 0
M  V30 1372 O 131.691 -0.503259 1.87566 0
M  V30 1373 C 128.821 -0.491979 3.43798 0
M  V30 1374 C 127.775 0.315849 4.26833 0
M  V30 1375 C 127.101 -0.619586 5.31098 0
M  V30 1376 C 128.401 1.54282 4.98993 0
M  V30 1377 H 130.095 1.14621 2.76591 0
M  V30 1378 H 127.641 0.552613 1.32974 0
M  V30 1379 H 129.594 -0.879012 4.1213 0
M  V30 1380 H 128.318 -1.35299 2.97257 0
M  V30 1381 H 126.977 0.684664 3.6015 0
M  V30 1382 H 126.625 -1.47751 4.8081 0
M  V30 1383 H 126.325 -0.0830621 5.87541 0
M  V30 1384 H 127.849 -1.00375 6.02293 0
M  V30 1385 H 129.263 1.22796 5.59995 0
M  V30 1386 H 127.66 2.01745 5.65172 0
M  V30 1387 H 128.73 2.30285 4.26728 0
M  V30 1388 N 130.073 -1.45103 0.615059 0
M  V30 1389 C 131.023 -2.27679 -0.120966 0
M  V30 1390 C 132.007 -1.3775 -0.831491 0
M  V30 1391 O 133.199 -1.61683 -0.720249 0
M  V30 1392 C 130.328 -3.24767 -1.1127 0
M  V30 1393 C 129.414 -4.22184 -0.402627 0
M  V30 1394 N 129.805 -5.02692 0.559884 0
M  V30 1395 C 128.103 -4.4125 -0.649202 0
M  V30 1396 C 128.804 -5.73421 0.977942 0
M  V30 1397 N 127.78 -5.42657 0.320104 0
M  V30 1398 H 131.582 -2.87325 0.618181 0
M  V30 1399 H 129.096 -1.56345 0.439304 0
M  V30 1400 H 131.093 -3.82666 -1.65446 0
M  V30 1401 H 129.753 -2.66682 -1.85232 0
M  V30 1402 H 130.764 -5.09354 0.936976 0
M  V30 1403 H 127.441 -3.9428 -1.37293 0
M  V30 1404 H 128.831 -6.48107 1.77222 0
M  V30 1405 N 131.551 -0.354651 -1.53558 0
M  V30 1406 C 132.776 0.242153 -2.05981 0
M  V30 1407 C 133.201 1.42553 -1.2272 0
M  V30 1408 O 132.559 1.79656 -0.243604 0
M  V30 1409 C 132.607 0.624367 -3.55154 0
M  V30 1410 O 131.711 1.72301 -3.74681 0
M  V30 1411 H 131.052 0.0378432 -0.662921 0
M  V30 1412 H 133.582 -0.512087 -1.98088 0
M  V30 1413 H 133.592 0.898433 -3.97985 0
M  V30 1414 H 132.267 -0.240989 -4.15201 0
M  V30 1415 H 130.844 1.44535 -3.4375 0
M  V30 1416 N 133.029 1.57378 -0.0835403 0
M  V30 1417 C 133.977 2.14602 0.89714 0
M  V30 1418 C 134.971 1.08589 1.30018 0
M  V30 1419 O 136.177 1.26952 1.27606 0
M  V30 1420 H 132.552 0.686346 0.3073 0
M  V30 1421 H 134.523 2.95845 0.38969 0
M  V30 1422 C 133.272 2.73188 2.15089 0
M  V30 1423 H 132.595 3.54442 1.84962 0
M  V30 1424 H 134.035 3.1681 2.81793 0
M  V30 1425 C 132.494 1.68517 2.91725 0
M  V30 1426 O 133.024 1.11718 3.85852 0
M  V30 1427 N 131.23 1.39277 2.55049 0
M  V30 1428 H 130.777 1.85655 1.78577 0
M  V30 1429 H 130.735 0.694791 3.06627 0
M  V30 1430 N 134.507 -0.190092 1.56449 0
M  V30 1431 C 135.755 -0.907908 1.80559 0
M  V30 1432 C 136.076 -1.83583 0.657438 0
M  V30 1433 O 135.346 -1.93203 -0.323924 0
M  V30 1434 H 133.926 -0.338247 0.666032 0
M  V30 1435 H 136.588 -0.194403 1.93928 0
M  V30 1436 H 135.684 -1.49604 2.73907 0
M  V30 1437 N 135.985 -1.50799 -0.457987 0
M  V30 1438 C 137.234 -1.6168 -1.20593 0
M  V30 1439 C 137.547 -0.32888 -1.92815 0
M  V30 1440 O 138.753 -0.316773 -2.69646 0
M  V30 1441 C 137.209 -2.8545 -2.19195 0
M  V30 1442 C 136.817 -4.21168 -1.52715 0
M  V30 1443 C 138.561 -3.05681 -2.94549 0
M  V30 1444 C 136.468 -5.3611 -2.4968 0
M  V30 1445 H 135.398 -0.602134 -0.453818 0
M  V30 1446 H 138.049 -1.77245 -0.475031 0
M  V30 1447 H 136.431 -2.63472 -2.95632 0
M  V30 1448 H 137.605 -4.53449 -0.819775 0
M  V30 1449 H 135.92 -4.06648 -0.895922 0
M  V30 1450 H 138.517 -3.88727 -3.67145 0
M  V30 1451 H 138.86 -2.17929 -3.54701 0
M  V30 1452 H 139.393 -3.27901 -2.25223 0
M  V30 1453 H 136.132 -6.26057 -1.94249 0
M  V30 1454 H 135.652 -5.0823 -3.18532 0
M  V30 1455 H 137.331 -5.6722 -3.11241 0
M  V30 1456 N 137.463 0.71206 -1.40597 0
M  V30 1457 C 138.413 1.81783 -1.37619 0
M  V30 1458 C 139.397 1.58896 -0.253162 0
M  V30 1459 O 140.589 1.70009 -0.492547 0
M  V30 1460 C 137.718 3.19944 -1.24462 0
M  V30 1461 C 136.804 3.48582 -2.4156 0
M  V30 1462 N 137.195 3.48016 -3.67041 0
M  V30 1463 C 135.493 3.79056 -2.35016 0
M  V30 1464 C 136.194 3.75096 -4.44609 0
M  V30 1465 N 135.17 3.94022 -3.74497 0
M  V30 1466 H 138.972 1.79683 -2.32575 0
M  V30 1467 H 136.486 0.91134 -1.34419 0
M  V30 1468 H 138.483 3.99133 -1.20411 0
M  V30 1469 H 137.143 3.23267 -0.304762 0
M  V30 1470 H 138.154 3.28782 -4.00153 0
M  V30 1471 H 134.831 3.89848 -1.49415 0
M  V30 1472 H 136.221 3.80934 -5.53479 0
M  V30 1473 N 138.941 1.26152 0.944643 0
M  V30 1474 C 140.169 1.14259 1.72489 0
M  V30 1475 C 140.584 -0.302555 1.8636 0
M  V30 1476 O 139.941 -1.20741 1.36849 0
M  V30 1477 C 139.992 1.80266 3.13347 0
M  V30 1478 O 139.713 3.19133 3.00143 0
M  V30 1479 C 141.214 1.74283 4.07603 0
M  V30 1480 H 138.434 0.398051 0.540181 0
M  V30 1481 H 140.978 1.66706 1.18446 0
M  V30 1482 H 139.133 1.31766 3.64303 0
M  V30 1483 H 139.547 3.51744 3.89071 0
M  V30 1484 H 141.021 2.25111 5.04013 0
M  V30 1485 H 141.498 0.708631 4.33446 0
M  V30 1486 H 142.104 2.22319 3.62567 0
M  V30 1487 N 140.419 -1.14872 1.07899 0
M  V30 1488 C 141.668 -1.85135 0.800499 0
M  V30 1489 C 141.981 -1.83547 -0.676014 0
M  V30 1490 O 143.187 -2.49548 -1.06948 0
M  V30 1491 C 141.643 -3.3231 1.38197 0
M  V30 1492 C 141.251 -3.42329 2.8899 0
M  V30 1493 C 142.995 -4.0772 1.18174 0
M  V30 1494 C 140.902 -4.83684 3.403 0
M  V30 1495 H 139.832 -0.693563 0.29578 0
M  V30 1496 H 142.483 -1.29532 1.29976 0
M  V30 1497 H 140.865 -3.87618 0.810431 0
M  V30 1498 H 142.039 -2.97097 3.52236 0
M  V30 1499 H 140.354 -2.80369 3.07867 0
M  V30 1500 H 142.951 -5.12049 1.5398 0
M  V30 1501 H 143.294 -4.16124 0.12117 0
M  V30 1502 H 143.827 -3.58696 1.71994 0
M  V30 1503 H 140.566 -4.80465 4.45907 0
M  V30 1504 H 140.086 -5.29474 2.81811 0
M  V30 1505 H 141.765 -5.52558 3.36584 0
M  V30 1506 N 141.898 -0.863906 -1.31812 0
M  V30 1507 C 143.309 -0.52522 -1.7916 0
M  V30 1508 C 143.66 0.957518 -1.71248 0
M  V30 1509 O 142.785 1.74734 -1.27659 0
M  V30 1510 C 143.38 -0.9466 -3.25307 0
M  V30 1511 C 141.939 -0.659668 -3.70574 0
M  V30 1512 C 141.086 -1.14126 -2.52726 0
M  V30 1513 H 144.037 -1.05022 -1.1898 0
M  V30 1514 H 144.058 -0.266766 -3.79564 0
M  V30 1515 H 143.57 -2.02579 -3.31034 0
M  V30 1516 H 141.671 0.408416 -3.70355 0
M  V30 1517 H 141.784 -1.23245 -4.62977 0
M  V30 1518 H 140.148 -0.561216 -2.4844 0
M  V30 1519 H 140.931 -2.22775 -2.61201 0
M  V30 1520 N 143.376 1.44774 -0.622745 0
M  V30 1521 C 144.653 1.95522 -0.0551974 0
M  V30 1522 C 145.033 1.5649 1.41683 0
M  V30 1523 O 144.381 0.834848 2.12703 0
M  V30 1524 C 144.591 3.4796 -0.269242 0
M  V30 1525 C 145.939 4.24306 -0.158014 0
M  V30 1526 O 146.963 3.55637 -0.200162 0
M  V30 1527 O 145.822 5.46471 -0.0558693 0
M  V30 1528 H 142.916 0.826556 0.0271015 0
M  V30 1529 H 145.462 1.54866 -0.693864 0
M  V30 1530 H 144.234 3.6939 -1.29099 0
M  V30 1531 H 143.857 3.95543 0.403966 0
M  V30 1532 N 144.854 0.36279 1.53368 0
M  V30 1533 C 145.801 -0.485008 2.25646 0
M  V30 1534 C 146.771 -1.07982 1.2621 0
M  V30 1535 O 147.956 -1.11284 1.54986 0
M  V30 1536 C 145.096 -1.62023 3.04701 0
M  V30 1537 C 144.209 -1.05086 4.19024 0
M  V30 1538 C 143.344 -2.15496 4.85525 0
M  V30 1539 C 142.383 -1.5601 5.91884 0
M  V30 1540 N 141.52 -2.60241 6.52088 0
M  V30 1541 H 146.36 0.137864 2.97681 0
M  V30 1542 H 143.897 0.0798061 1.46883 0
M  V30 1543 H 145.855 -2.28887 3.48807 0
M  V30 1544 H 144.485 -2.2138 2.34927 0
M  V30 1545 H 143.537 -0.27259 3.79422 0
M  V30 1546 H 144.849 -0.575926 4.95464 0
M  V30 1547 H 144.003 -2.90186 5.32801 0
M  V30 1548 H 142.742 -2.66341 4.08551 0
M  V30 1549 H 141.747 -0.798338 5.43973 0
M  V30 1550 H 142.972 -1.05994 6.70777 0
M  V30 1551 H 140.918 -3.10304 5.77968 0
M  V30 1552 H 140.835 -2.17426 7.24059 0
M  V30 1553 H 142.103 -3.34641 7.04014 0
M  V30 1554 N 146.332 -1.57332 0.0918853 0
M  V30 1555 C 147.56 -1.98574 -0.581048 0
M  V30 1556 C 147.975 -0.970903 -1.61923 0
M  V30 1557 O 147.332 0.0399054 -1.82456 0
M  V30 1558 C 147.383 -3.39872 -1.23164 0
M  V30 1559 O 147.104 -4.37469 -0.234989 0
M  V30 1560 C 148.605 -3.96099 -1.99049 0
M  V30 1561 H 145.825 -0.65261 -0.156018 0
M  V30 1562 H 148.369 -2.0379 0.170225 0
M  V30 1563 H 146.524 -3.35679 -1.93386 0
M  V30 1564 H 146.938 -5.19751 -0.70418 0
M  V30 1565 H 148.412 -4.97127 -2.39934 0
M  V30 1566 H 148.889 -3.3374 -2.85507 0
M  V30 1567 H 149.495 -4.03755 -1.3365 0
M  V30 1568 N 147.81 0.181792 -1.56548 0
M  V30 1569 C 149.057 0.900097 -1.81396 0
M  V30 1570 C 149.385 1.82695 -0.667281 0
M  V30 1571 O 148.64 1.92614 0.346146 0
M  V30 1572 C 148.939 1.73728 -3.12335 0
M  V30 1573 C 148.605 0.960255 -4.40556 0
M  V30 1574 C 147.267 0.745766 -4.75386 0
M  V30 1575 C 149.619 0.414477 -5.19549 0
M  V30 1576 C 146.947 -0.0257694 -5.86694 0
M  V30 1577 C 149.299 -0.343916 -6.31664 0
M  V30 1578 C 147.963 -0.569301 -6.65068 0
M  V30 1579 H 147.233 0.329369 -0.663775 0
M  V30 1580 H 149.88 0.165647 -1.90782 0
M  V30 1581 H 148.185 2.54081 -2.98245 0
M  V30 1582 H 149.882 2.29591 -3.28769 0
M  V30 1583 H 146.472 1.13746 -4.13231 0
M  V30 1584 H 150.656 0.567554 -4.93044 0
M  V30 1585 H 145.912 -0.210233 -6.11038 0
M  V30 1586 H 150.086 -0.774133 -6.92084 0
M  V30 1587 H 147.713 -1.16903 -7.51158 0
M  V30 1588 N 149.288 1.51039 0.449983 0
M  V30 1589 C 150.513 1.6715 1.22783 0
M  V30 1590 C 150.938 0.363081 1.84563 0
M  V30 1591 O 150.296 -0.675433 1.68249 0
M  V30 1592 C 150.344 2.77985 2.29689 0
M  V30 1593 O 149.448 2.40707 3.34864 0
M  V30 1594 H 148.789 0.557746 0.360299 0
M  V30 1595 H 151.319 1.97535 0.533005 0
M  V30 1596 H 151.329 3.01693 2.74673 0
M  V30 1597 H 150.004 3.72935 1.84098 0
M  V30 1598 H 148.581 2.27523 2.95445 0
M  V30 1599 N 150.766 -0.704594 1.40972 0
M  V30 1600 C 152.043 -1.45847 1.30338 0
M  V30 1601 C 152.423 -2.10973 -0.0732344 0
M  V30 1602 O 151.771 -2.00997 -1.08685 0
M  V30 1603 C 151.981 -2.48525 2.45023 0
M  V30 1604 C 153.329 -3.1404 2.8577 0
M  V30 1605 O 154.353 -2.58848 2.44696 0
M  V30 1606 O 153.212 -4.13981 3.56766 0
M  V30 1607 H 150.306 -0.649092 0.512454 0
M  V30 1608 H 152.852 -0.735836 1.52917 0
M  V30 1609 H 151.624 -1.98994 3.36923 0
M  V30 1610 H 151.247 -3.2831 2.24272 0
M  V30 1611 N 152.244 -1.26651 -0.937939 0
M  V30 1612 C 153.174 -1.10993 -2.05433 0
M  V30 1613 C 154.155 -0.0142161 -1.70094 0
M  V30 1614 O 155.34 -0.186837 -1.93299 0
M  V30 1615 C 152.47 -0.745561 -3.39203 0
M  V30 1616 C 151.424 -1.79337 -3.88616 0
M  V30 1617 C 150.75 -1.28324 -5.19073 0
M  V30 1618 C 152.05 -3.19553 -4.13138 0
M  V30 1619 H 153.744 -2.0438 -2.1879 0
M  V30 1620 H 151.29 -0.984041 -1.05131 0
M  V30 1621 H 153.243 -0.622888 -4.16771 0
M  V30 1622 H 151.967 0.22401 -3.25831 0
M  V30 1623 H 150.626 -1.90477 -3.13231 0
M  V30 1624 H 150.274 -0.303414 -5.02084 0
M  V30 1625 H 149.974 -1.98369 -5.53103 0
M  V30 1626 H 151.498 -1.1733 -5.99221 0
M  V30 1627 H 152.912 -3.11471 -4.81309 0
M  V30 1628 H 151.309 -3.87218 -4.58457 0
M  V30 1629 H 152.379 -3.65368 -3.18801 0
M  V30 1630 N 153.722 1.14298 -1.08507 0
M  V30 1631 C 154.654 2.1907 -0.673859 0
M  V30 1632 C 155.667 1.60381 0.279577 0
M  V30 1633 O 156.856 1.78374 0.0670754 0
M  V30 1634 C 153.956 3.38888 0.0290979 0
M  V30 1635 C 153.129 4.27103 -0.943494 0
M  V30 1636 C 152.188 5.25477 -0.275676 0
M  V30 1637 O 151.214 5.61709 -0.920401 0
M  V30 1638 N 152.416 5.7227 0.974013 0
M  V30 1639 H 155.181 2.54965 -1.57521 0
M  V30 1640 H 152.742 1.29528 -0.971287 0
M  V30 1641 H 154.734 4.01761 0.48683 0
M  V30 1642 H 153.304 3.01309 0.832555 0
M  V30 1643 H 152.524 3.61149 -1.58004 0
M  V30 1644 H 153.812 4.82905 -1.60251 0
M  V30 1645 H 153.21 5.44965 1.51755 0
M  V30 1646 H 151.767 6.37127 1.37522 0
M  V30 1647 N 155.201 0.870884 1.31352 0
M  V30 1648 C 156.164 0.332243 2.26779 0
M  V30 1649 C 157.164 -0.517302 1.52252 0
M  V30 1650 O 158.354 -0.326477 1.71113 0
M  V30 1651 C 155.486 -0.528066 3.36785 0
M  V30 1652 H 156.679 1.17469 2.75937 0
M  V30 1653 H 154.232 0.64655 1.423 0
M  V30 1654 H 154.967 -1.39167 2.92922 0
M  V30 1655 H 154.752 0.0802582 3.92018 0
M  V30 1656 H 156.242 -0.897179 4.07849 0
M  V30 1657 N 156.679 -1.44442 0.630414 0
M  V30 1658 C 157.609 -2.33418 -0.0618083 0
M  V30 1659 C 158.59 -1.48165 -0.835541 0
M  V30 1660 O 159.775 -1.76886 -0.801564 0
M  V30 1661 C 156.905 -3.31222 -1.04449 0
M  V30 1662 C 155.859 -4.26288 -0.382436 0
M  V30 1663 C 155.185 -5.13954 -1.47497 0
M  V30 1664 C 156.485 -5.1744 0.710865 0
M  V30 1665 H 158.179 -2.91548 0.681184 0
M  V30 1666 H 155.725 -1.40191 0.329026 0
M  V30 1667 H 157.678 -3.92351 -1.53748 0
M  V30 1668 H 156.402 -2.71299 -1.81836 0
M  V30 1669 H 155.061 -3.6649 0.0899054 0
M  V30 1670 H 154.709 -4.50385 -2.2397 0
M  V30 1671 H 154.409 -5.7837 -1.03737 0
M  V30 1672 H 155.933 -5.77955 -1.96979 0
M  V30 1673 H 157.347 -5.72509 0.300996 0
M  V30 1674 H 155.744 -5.90455 1.07156 0
M  V30 1675 H 156.814 -4.58496 1.57829 0
M  V30 1676 N 158.157 -0.370918 -1.53173 0
M  V30 1677 C 159.089 0.507823 -2.23503 0
M  V30 1678 C 160.102 1.04182 -1.251 0
M  V30 1679 O 161.291 0.947286 -1.5129 0
M  V30 1680 C 158.391 1.71447 -2.92334 0
M  V30 1681 C 157.564 1.31105 -4.17289 0
M  V30 1682 C 156.623 2.38035 -4.69282 0
M  V30 1683 O 155.649 2.00204 -5.32829 0
M  V30 1684 N 156.851 3.69697 -4.47554 0
M  V30 1685 H 159.616 -0.0946382 -2.99551 0
M  V30 1686 H 157.177 -0.196358 -1.60705 0
M  V30 1687 H 159.169 2.42469 -3.24023 0
M  V30 1688 H 157.739 2.22368 -2.19707 0
M  V30 1689 H 156.959 0.430462 -3.91843 0
M  V30 1690 H 158.247 1.0179 -4.98514 0
M  V30 1691 H 157.645 4.03205 -3.9679 0
M  V30 1692 H 156.202 4.36807 -4.8378 0
M  V30 1693 N 159.635 1.57281 -0.100228 0
M  V30 1694 C 160.881 1.94826 0.563101 0
M  V30 1695 C 161.214 0.982475 1.67514 0
M  V30 1696 O 160.489 0.0164069 1.94493 0
M  V30 1697 C 160.772 3.42453 1.11346 0
M  V30 1698 C 160.625 4.498 0.00612081 0
M  V30 1699 C 161.944 3.91506 2.01024 0
M  V30 1700 H 159.063 0.708428 0.203221 0
M  V30 1701 H 161.705 1.8922 -0.171979 0
M  V30 1702 H 159.855 3.47361 1.7399 0
M  V30 1703 H 161.527 4.57 -0.628357 0
M  V30 1704 H 159.77 4.28756 -0.659581 0
M  V30 1705 H 160.441 5.50306 0.432109 0
M  V30 1706 H 162.917 3.88784 1.48278 0
M  V30 1707 H 161.793 4.95358 2.36457 0
M  V30 1708 H 162.054 3.31099 2.92961 0
M  V30 1709 N 161.113 -0.173488 1.56642 0
M  V30 1710 C 162.043 -1.2171 1.99271 0
M  V30 1711 C 163.024 -1.46289 0.867959 0
M  V30 1712 O 164.209 -1.5766 1.13388 0
M  V30 1713 C 161.339 -2.55651 2.35074 0
M  V30 1714 C 160.293 -2.45645 3.50489 0
M  V30 1715 C 159.619 -3.84056 3.72028 0
M  V30 1716 C 160.919 -1.96302 4.84007 0
M  V30 1717 H 162.613 -0.86275 2.867 0
M  V30 1718 H 160.159 -0.413571 1.37933 0
M  V30 1719 H 162.112 -3.2886 2.63494 0
M  V30 1720 H 160.836 -2.92869 1.44552 0
M  V30 1721 H 159.495 -1.7489 3.22194 0
M  V30 1722 H 159.143 -4.18664 2.788 0
M  V30 1723 H 158.843 -3.7823 4.49684 0
M  V30 1724 H 160.367 -4.58854 4.02846 0
M  V30 1725 H 161.781 -2.59284 5.11317 0
M  V30 1726 H 160.178 -2.01429 5.65284 0
M  V30 1727 H 161.248 -0.917226 4.76146 0
M  V30 1728 N 162.591 -1.51276 -0.441967 0
M  V30 1729 C 163.538 -1.72256 -1.53612 0
M  V30 1730 C 164.508 -0.564164 -1.56225 0
M  V30 1731 O 165.693 -0.798074 -1.73307 0
M  V30 1732 C 162.833 -1.84932 -2.91366 0
M  V30 1733 C 161.946 -3.12459 -2.98317 0
M  V30 1734 C 161.081 -3.15758 -4.27166 0
M  V30 1735 C 160.12 -4.37619 -4.27967 0
M  V30 1736 N 159.257 -4.38493 -5.48333 0
M  V30 1737 H 164.097 -2.65654 -1.35026 0
M  V30 1738 H 161.634 -1.31662 -0.656009 0
M  V30 1739 H 163.592 -1.90263 -3.7129 0
M  V30 1740 H 162.222 -0.949461 -3.08521 0
M  V30 1741 H 161.274 -3.1646 -2.11086 0
M  V30 1742 H 162.586 -4.02382 -2.94771 0
M  V30 1743 H 161.74 -3.19979 -5.15459 0
M  V30 1744 H 160.479 -2.23715 -4.33362 0
M  V30 1745 H 159.484 -4.33579 -3.38067 0
M  V30 1746 H 160.709 -5.30921 -4.23438 0
M  V30 1747 H 158.655 -3.49318 -5.55259 0
M  V30 1748 H 158.572 -5.22219 -5.46647 0
M  V30 1749 H 159.84 -4.469 -6.38671 0
M  V30 1750 N 164.069 0.697108 -1.41344 0
M  V30 1751 C 165.002 1.82134 -1.37486 0
M  V30 1752 C 165.98 1.60784 -0.242351 0
M  V30 1753 O 167.164 1.83553 -0.429012 0
M  V30 1754 C 164.291 3.18788 -1.14421 0
M  V30 1755 C 163.337 3.58932 -2.3037 0
M  V30 1756 S 164.17 3.63916 -3.92843 0
M  V30 1757 C 165.326 5.03298 -3.72078 0
M  V30 1758 H 165.559 1.85129 -2.32625 0
M  V30 1759 H 163.092 0.865671 -1.2785 0
M  V30 1760 H 165.05 3.97677 -1.018 0
M  V30 1761 H 163.711 3.13404 -0.20905 0
M  V30 1762 H 162.904 4.58202 -2.09922 0
M  V30 1763 H 162.506 2.87347 -2.39391 0
M  V30 1764 H 164.798 5.90753 -3.31688 0
M  V30 1765 H 165.741 5.28788 -4.70945 0
M  V30 1766 H 166.149 4.74764 -3.05384 0
M  V30 1767 N 165.547 1.27147 0.931209 0
M  V30 1768 C 166.772 1.16191 1.71797 0
M  V30 1769 C 167.197 -0.278004 1.86034 0
M  V30 1770 O 166.555 -1.20137 1.35782 0
M  V30 1771 C 166.603 1.84673 3.09723 0
M  V30 1772 O 165.707 1.14231 3.96264 0
M  V30 1773 H 165.048 0.404303 0.526721 0
M  V30 1774 H 167.578 1.68152 1.1656 0
M  V30 1775 H 167.588 1.91893 3.60057 0
M  V30 1776 H 166.263 2.89421 2.98677 0
M  V30 1777 H 164.84 1.15056 3.54706 0
M  V30 1778 N 167.025 -1.13721 1.09112 0
M  V30 1779 C 168.255 -1.88499 0.845671 0
M  V30 1780 C 168.663 -1.79218 -0.606432 0
M  V30 1781 O 168.006 -1.1544 -1.42896 0
M  V30 1782 C 168.068 -3.38954 1.19793 0
M  V30 1783 C 167.732 -3.72018 2.65428 0
M  V30 1784 C 168.729 -3.7153 3.63677 0
M  V30 1785 C 166.414 -4.01775 3.01467 0
M  V30 1786 C 168.408 -4.00336 4.95994 0
M  V30 1787 C 166.095 -4.30243 4.33975 0
M  V30 1788 C 167.093 -4.29508 5.31048 0
M  V30 1789 O 166.781 -4.5728 6.61173 0
M  V30 1790 H 166.513 -0.603702 0.304171 0
M  V30 1791 H 169.067 -1.44903 1.45576 0
M  V30 1792 H 167.297 -3.83039 0.530871 0
M  V30 1793 H 168.986 -3.95052 0.932146 0
M  V30 1794 H 169.752 -3.4862 3.37179 0
M  V30 1795 H 165.631 -4.01496 2.26544 0
M  V30 1796 H 169.175 -3.99678 5.71755 0
M  V30 1797 H 165.072 -4.52625 4.60219 0
M  V30 1798 H 165.84 -4.74964 6.66597 0
M  V30 1799 N 168.503 -0.877838 -1.30888 0
M  V30 1800 C 169.451 -0.328662 -2.30266 0
M  V30 1801 C 170.445 0.560496 -1.59859 0
M  V30 1802 O 171.651 0.445722 -1.74394 0
M  V30 1803 H 168.026 -0.0876142 -0.746879 0
M  V30 1804 H 169.997 -1.18061 -2.74051 0
M  V30 1805 C 168.746 0.448071 -3.44801 0
M  V30 1806 H 168.069 -0.226859 -3.99156 0
M  V30 1807 H 169.509 0.797541 -4.16432 0
M  V30 1808 C 167.968 1.64239 -2.94155 0
M  V30 1809 O 168.498 2.74175 -2.93583 0
M  V30 1810 N 166.704 1.47716 -2.50256 0
M  V30 1811 H 166.251 0.582821 -2.5092 0
M  V30 1812 H 166.209 2.27765 -2.16727 0
M  V30 1813 N 169.982 1.44106 -0.638065 0
M  V30 1814 C 170.929 2.30715 0.062701 0
M  V30 1815 C 171.899 1.43882 0.829883 0
M  V30 1816 O 173.084 1.72775 0.809532 0
M  V30 1817 C 170.224 3.29258 1.03358 0
M  V30 1818 C 169.337 4.31192 0.26409 0
M  V30 1819 C 168.472 5.16825 1.22741 0
M  V30 1820 C 167.511 6.10462 0.447475 0
M  V30 1821 N 166.648 6.8877 1.36161 0
M  V30 1822 H 171.488 2.90096 -0.681781 0
M  V30 1823 H 169.025 1.42925 -0.347988 0
M  V30 1824 H 170.983 3.84886 1.60992 0
M  V30 1825 H 169.613 2.71562 1.74511 0
M  V30 1826 H 168.665 3.77981 -0.428295 0
M  V30 1827 H 169.977 4.97619 -0.343052 0
M  V30 1828 H 169.131 5.77004 1.87487 0
M  V30 1829 H 167.87 4.50488 1.86847 0
M  V30 1830 H 166.875 5.49386 -0.213433 0
M  V30 1831 H 168.1 6.78837 -0.188968 0
M  V30 1832 H 166.046 6.25096 1.98975 0
M  V30 1833 H 165.963 7.51663 0.808656 0
M  V30 1834 H 167.231 7.53467 1.99769 0
M  V30 1835 N 171.46 0.379036 1.52974 0
M  V30 1836 C 172.706 -0.206727 2.01744 0
M  V30 1837 C 173.039 -1.47314 1.26539 0
M  V30 1838 O 172.314 -1.91084 0.362903 0
M  V30 1839 C 172.597 -0.485066 3.56818 0
M  V30 1840 C 172.45 0.795919 4.42702 0
M  V30 1841 C 173.769 -1.28003 4.21074 0
M  V30 1842 H 170.888 -0.0736607 0.73331 0
M  V30 1843 H 173.53 0.506581 1.83122 0
M  V30 1844 H 171.68 -1.09272 3.72816 0
M  V30 1845 H 173.352 1.43307 4.38476 0
M  V30 1846 H 171.595 1.41344 4.10127 0
M  V30 1847 H 172.266 0.555947 5.49193 0
M  V30 1848 H 174.742 -0.765867 4.08991 0
M  V30 1849 H 173.618 -1.44352 5.29579 0
M  V30 1850 H 173.879 -2.29236 3.78026 0
M  V30 1851 N 172.938 -1.57226 0.108567 0
M  V30 1852 C 174.354 -1.5766 -0.248058 0
M  V30 1853 C 174.554 -1.12063 -1.67464 0
M  V30 1854 O 173.61 -0.803236 -2.39383 0
M  V30 1855 C 174.923 -3.0069 -0.0242287 0
M  V30 1856 C 176.471 -3.12868 -0.0909372 0
M  V30 1857 C 176.946 -4.57879 0.105067 0
M  V30 1858 N 178.437 -4.63172 0.0506846 0
M  V30 1859 C 179.172 -5.73126 0.177396 0
M  V30 1860 N 178.668 -6.91866 0.359696 0
M  V30 1861 N 180.461 -5.61977 0.117709 0
M  V30 1862 H 172.612 -1.85169 1.04049 0
M  V30 1863 H 174.875 -0.85529 0.40888 0
M  V30 1864 H 174.581 -3.38299 0.961604 0
M  V30 1865 H 174.455 -3.6945 -0.76068 0
M  V30 1866 H 176.842 -2.75124 -1.06729 0
M  V30 1867 H 176.923 -2.46672 0.677225 0
M  V30 1868 H 176.567 -4.96321 1.07834 0
M  V30 1869 H 176.497 -5.22153 -0.682954 0
M  V30 1870 H 178.988 -3.778 -0.0871266 0
M  V30 1871 H 179.301 -7.71503 0.447529 0
M  V30 1872 H 177.646 -6.93874 0.395536 0
M  V30 1873 H 180.837 -4.68094 -0.0236741 0
M  V30 1874 H 181.01 -6.47627 0.219905 0
M  V30 1875 N 174.416 0.165178 -1.56732 0
M  V30 1876 C 175.363 1.2044 -1.96883 0
M  V30 1877 C 176.333 1.43664 -0.833657 0
M  V30 1878 O 177.518 1.56302 -1.09427 0
M  V30 1879 C 174.658 2.53727 -2.33916 0
M  V30 1880 C 173.771 2.3783 -3.6064 0
M  V30 1881 C 172.906 3.64026 -3.86857 0
M  V30 1882 C 171.945 3.43088 -5.06909 0
M  V30 1883 N 171.082 4.61369 -5.29229 0
M  V30 1884 H 175.922 0.854996 -2.85471 0
M  V30 1885 H 173.459 0.41076 -1.41249 0
M  V30 1886 H 175.417 3.31419 -2.53411 0
M  V30 1887 H 174.047 2.8665 -1.48431 0
M  V30 1888 H 173.099 1.51282 -3.49024 0
M  V30 1889 H 174.411 2.18308 -4.4849 0
M  V30 1890 H 173.565 4.50152 -4.06753 0
M  V30 1891 H 172.304 3.86533 -2.97394 0
M  V30 1892 H 171.309 2.55349 -4.86906 0
M  V30 1893 H 172.534 3.21997 -5.97909 0
M  V30 1894 H 170.48 4.84084 -4.42718 0
M  V30 1895 H 170.397 4.44783 -6.11313 0
M  V30 1896 H 171.665 5.48761 -5.53608 0
M  V30 1897 N 175.894 1.51508 0.433938 0
M  V30 1898 C 176.824 1.76016 1.53429 0
M  V30 1899 C 177.805 0.610112 1.58782 0
M  V30 1900 O 178.99 0.853177 1.74455 0
M  V30 1901 C 176.12 1.88831 2.9148 0
M  V30 1902 C 175.074 3.04288 3.00987 0
M  V30 1903 C 174.4 3.0229 4.4105 0
M  V30 1904 C 175.7 4.44193 2.74754 0
M  V30 1905 H 177.394 2.68152 1.33171 0
M  V30 1906 H 174.94 1.29035 0.639214 0
M  V30 1907 H 176.893 2.04559 3.6842 0
M  V30 1908 H 175.617 0.933455 3.12976 0
M  V30 1909 H 174.276 2.8827 2.26486 0
M  V30 1910 H 173.924 2.04576 4.59519 0
M  V30 1911 H 173.624 3.79822 4.4834 0
M  V30 1912 H 175.148 3.20116 5.1996 0
M  V30 1913 H 176.562 4.60544 3.41426 0
M  V30 1914 H 174.959 5.23457 2.9345 0
M  V30 1915 H 176.029 4.53996 1.70339 0
M  V30 1916 N 177.372 -0.689602 1.41712 0
M  V30 1917 C 178.304 -1.815 1.39966 0
M  V30 1918 C 179.317 -1.59995 0.300917 0
M  V30 1919 O 180.506 -1.69387 0.563039 0
M  V30 1920 C 177.606 -3.18364 1.16179 0
M  V30 1921 C 176.779 -3.66847 2.38206 0
M  V30 1922 C 175.838 -4.82398 2.10186 0
M  V30 1923 O 174.864 -4.93706 2.83272 0
M  V30 1924 N 176.066 -5.70064 1.0958 0
M  V30 1925 H 178.831 -1.83488 2.36965 0
M  V30 1926 H 176.392 -0.872149 1.36401 0
M  V30 1927 H 178.384 -3.93301 0.953756 0
M  V30 1928 H 176.954 -3.11365 0.27756 0
M  V30 1929 H 176.174 -2.82751 2.74673 0
M  V30 1930 H 177.462 -3.95978 3.19498 0
M  V30 1931 H 176.86 -5.63565 0.491019 0
M  V30 1932 H 175.417 -6.44874 0.947656 0
M  V30 1933 N 178.85 -1.27639 -0.924453 0
M  V30 1934 C 179.797 -1.10644 -2.0255 0
M  V30 1935 C 180.767 -0.00658438 -1.66099 0
M  V30 1936 O 181.952 -0.16952 -1.90045 0
M  V30 1937 C 179.092 -0.76309 -3.36557 0
M  V30 1938 C 178.205 -1.94091 -3.85944 0
M  V30 1939 C 177.34 -1.53914 -5.08413 0
M  V30 1940 C 176.379 -2.68425 -5.50104 0
M  V30 1941 N 175.516 -2.28815 -6.63768 0
M  V30 1942 H 180.356 -2.04858 -2.16419 0
M  V30 1943 H 177.893 -1.01974 -1.06017 0
M  V30 1944 H 179.851 -0.544822 -4.13627 0
M  V30 1945 H 178.481 0.142102 -3.22487 0
M  V30 1946 H 177.533 -2.27162 -3.05125 0
M  V30 1947 H 178.845 -2.7998 -4.12811 0
M  V30 1948 H 177.999 -1.28231 -5.92994 0
M  V30 1949 H 176.738 -0.651391 -4.8333 0
M  V30 1950 H 175.743 -2.94819 -4.64071 0
M  V30 1951 H 176.968 -3.57826 -5.7718 0
M  V30 1952 H 174.914 -1.42495 -6.40337 0
M  V30 1953 H 174.831 -3.08242 -6.90306 0
M  V30 1954 H 176.099 -2.06387 -7.51681 0
M  V30 1955 N 180.328 1.1314 -1.09713 0
M  V30 1956 C 181.605 1.80762 -0.747302 0
M  V30 1957 C 181.985 1.96663 0.767265 0
M  V30 1958 O 181.333 1.53706 1.69076 0
M  V30 1959 C 181.543 3.15606 -1.48975 0
M  V30 1960 C 182.891 3.90914 -1.65746 0
M  V30 1961 O 183.915 3.25239 -1.45251 0
M  V30 1962 O 182.774 5.08718 -1.9967 0
M  V30 1963 H 179.868 0.782103 -0.268782 0
M  V30 1964 H 182.414 1.20041 -1.19951 0
M  V30 1965 H 181.186 2.99278 -2.52088 0
M  V30 1966 H 180.809 3.84029 -1.02991 0
M  V30 1967 N 181.806 0.884767 1.30421 0
M  V30 1968 C 183.034 0.518044 2.0031 0
M  V30 1969 C 183.449 -0.893408 1.66324 0
M  V30 1970 O 182.806 -1.5875 0.900262 0
M  V30 1971 C 182.857 0.682997 3.54989 0
M  V30 1972 O 182.578 2.03888 3.87764 0
M  V30 1973 C 184.079 0.31924 4.42149 0
M  V30 1974 H 181.299 0.200265 0.640418 0
M  V30 1975 H 183.843 1.19001 1.6631 0
M  V30 1976 H 181.998 0.0584052 3.87356 0
M  V30 1977 H 182.412 2.05735 4.82466 0
M  V30 1978 H 183.886 0.485555 5.4986 0
M  V30 1979 H 184.363 -0.742717 4.32875 0
M  V30 1980 H 184.969 0.920147 4.15227 0
M  V30 1981 N 183.284 -1.43765 0.645699 0
M  V30 1982 C 184.531 -2.01898 0.15604 0
M  V30 1983 C 184.859 -1.50887 -1.22733 0
M  V30 1984 O 184.114 -0.689271 -1.8316 0
M  V30 1985 C 184.413 -3.57238 0.107679 0
M  V30 1986 C 184.079 -4.27564 1.43178 0
M  V30 1987 C 182.741 -4.46492 1.7944 0
M  V30 1988 C 185.093 -4.67454 2.30513 0
M  V30 1989 C 182.421 -5.02573 3.02716 0
M  V30 1990 C 184.773 -5.24901 3.53074 0
M  V30 1991 C 183.437 -5.42046 3.89541 0
M  V30 1992 H 182.707 -0.738797 0.057099 0
M  V30 1993 H 185.354 -1.72341 0.834912 0
M  V30 1994 H 183.659 -3.86293 -0.654618 0
M  V30 1995 H 185.356 -3.99965 -0.287938 0
M  V30 1996 H 181.946 -4.13171 1.13963 0
M  V30 1997 H 186.13 -4.5253 2.0379 0
M  V30 1998 H 181.386 -5.14033 3.31028 0
M  V30 1999 H 185.56 -5.54758 4.20971 0
M  V30 2000 H 183.187 -5.85268 4.85145 0
M  V30 2001 N 184.763 -0.387143 -1.52771 0
M  V30 2002 C 185.993 0.195585 -2.05672 0
M  V30 2003 C 186.401 1.41241 -1.25887 0
M  V30 2004 O 185.744 1.81265 -0.298081 0
M  V30 2005 C 185.806 0.632327 -3.53895 0
M  V30 2006 C 185.47 -0.470739 -4.54569 0
M  V30 2007 C 186.467 -1.32746 -5.02667 0
M  V30 2008 C 184.152 -0.637151 -4.98243 0
M  V30 2009 C 186.146 -2.33574 -5.93061 0
M  V30 2010 C 183.833 -1.64877 -5.88438 0
M  V30 2011 C 184.831 -2.49649 -6.35739 0
M  V30 2012 O 184.519 -3.49082 -7.24153 0
M  V30 2013 H 184.251 0.033658 -0.675162 0
M  V30 2014 H 186.805 -0.550221 -1.97893 0
M  V30 2015 H 185.035 1.43008 -3.59285 0
M  V30 2016 H 186.724 1.14048 -3.89548 0
M  V30 2017 H 187.49 -1.21019 -4.69659 0
M  V30 2018 H 183.369 0.0129567 -4.60998 0
M  V30 2019 H 186.913 -2.99777 -6.29904 0
M  V30 2020 H 182.81 -1.76643 -6.2086 0
M  V30 2021 H 183.578 -3.45065 -7.42208 0
M  V30 2022 N 186.241 1.57166 -0.116904 0
M  V30 2023 C 187.489 1.94737 0.540533 0
M  V30 2024 C 187.81 1.00096 1.67349 0
M  V30 2025 O 187.08 0.0568854 1.95817 0
M  V30 2026 H 185.66 0.718981 0.202669 0
M  V30 2027 H 188.322 1.94017 -0.185353 0
M  V30 2028 H 187.418 2.97719 0.936483 0
M  V30 2029 N 187.719 -0.156864 1.56817 0
M  V30 2030 C 188.649 -1.19589 2.00551 0
M  V30 2031 C 189.63 -1.4536 0.883426 0
M  V30 2032 O 190.815 -1.56449 1.15054 0
M  V30 2033 C 187.945 -2.53143 2.37773 0
M  V30 2034 C 186.899 -2.41913 3.53075 0
M  V30 2035 C 186.225 -3.80088 3.76081 0
M  V30 2036 C 187.525 -1.91157 4.86062 0
M  V30 2037 H 189.219 -0.832293 2.87599 0
M  V30 2038 H 186.765 -0.398918 1.38364 0
M  V30 2039 H 188.718 -3.26047 2.66967 0
M  V30 2040 H 187.442 -2.91319 1.4765 0
M  V30 2041 H 186.101 -1.71462 3.24031 0
M  V30 2042 H 185.749 -4.15683 2.83225 0
M  V30 2043 H 185.449 -3.73439 4.53671 0
M  V30 2044 H 186.973 -4.54556 4.0769 0
M  V30 2045 H 188.387 -2.53846 5.14038 0
M  V30 2046 H 186.784 -1.95422 5.67389 0
M  V30 2047 H 187.854 -0.866673 4.77092 0
M  V30 2048 N 189.197 -1.51736 -0.425897 0
M  V30 2049 C 190.613 -1.40166 -0.76326 0
M  V30 2050 C 190.813 -0.492962 -1.95377 0
M  V30 2051 O 189.869 0.0475815 -2.52455 0
M  V30 2052 C 191.182 -2.82403 -1.03291 0
M  V30 2053 C 192.73 -2.91632 -1.13665 0
M  V30 2054 C 193.205 -4.34801 -1.43916 0
M  V30 2055 N 194.696 -4.3796 -1.50816 0
M  V30 2056 C 195.431 -5.4578 -1.75817 0
M  V30 2057 N 194.927 -6.63744 -1.98534 0
M  V30 2058 N 196.72 -5.33274 -1.77694 0
M  V30 2059 H 188.871 -2.09361 0.358 0
M  V30 2060 H 191.134 -0.942941 0.0978094 0
M  V30 2061 H 190.84 -3.50943 -0.230696 0
M  V30 2062 H 190.714 -3.22428 -1.95754 0
M  V30 2063 H 193.101 -2.23284 -1.92947 0
M  V30 2064 H 193.182 -2.55088 -0.190756 0
M  V30 2065 H 192.826 -5.03703 -0.65157 0
M  V30 2066 H 192.756 -4.68868 -2.39729 0
M  V30 2067 H 195.247 -3.52919 -1.35118 0
M  V30 2068 H 195.56 -7.41704 -2.17013 0
M  V30 2069 H 193.905 -6.66839 -1.95832 0
M  V30 2070 H 197.096 -4.40098 -1.59473 0
M  V30 2071 H 197.269 -6.1738 -1.9684 0
M  V30 2072 N 190.675 0.682077 -1.42076 0
M  V30 2073 C 191.9 1.47558 -1.45744 0
M  V30 2074 C 192.325 1.87977 -0.0680981 0
M  V30 2075 O 191.683 1.55522 0.9318 0
M  V30 2076 C 191.731 2.70575 -2.38373 0
M  V30 2077 O 190.835 3.68573 -1.85007 0
M  V30 2078 H 190.176 0.443585 -0.494093 0
M  V30 2079 H 192.706 0.837238 -1.86686 0
M  V30 2080 H 192.716 3.18729 -2.54707 0
M  V30 2081 H 191.391 2.40495 -3.39315 0
M  V30 2082 H 189.968 3.2757 -1.78192 0
M  V30 2083 N 192.153 1.28127 0.917671 0
M  V30 2084 C 193.083 1.14248 2.03641 0
M  V30 2085 C 194.064 0.0412748 1.7005 0
M  V30 2086 O 195.249 0.217566 1.92977 0
M  V30 2087 C 192.379 0.799431 3.37974 0
M  V30 2088 C 191.333 1.85497 3.85713 0
M  V30 2089 C 190.659 1.36565 5.16966 0
M  V30 2090 C 191.959 3.26085 4.08002 0
M  V30 2091 H 193.653 2.07835 2.15511 0
M  V30 2092 H 191.199 1.00064 1.03553 0
M  V30 2093 H 193.152 0.689114 4.15727 0
M  V30 2094 H 191.876 -0.172145 3.26146 0
M  V30 2095 H 190.535 1.95437 3.10161 0
M  V30 2096 H 190.183 0.383253 5.01538 0
M  V30 2097 H 189.883 2.07143 5.49878 0
M  V30 2098 H 191.407 1.26848 5.97279 0
M  V30 2099 H 192.821 3.19089 4.76293 0
M  V30 2100 H 191.218 3.94462 4.52238 0
M  V30 2101 H 192.288 3.70394 3.12948 0
M  V30 2102 N 193.631 -1.12557 1.10312 0
M  V30 2103 C 194.859 -1.87864 0.866873 0
M  V30 2104 C 195.274 -1.79588 -0.582557 0
M  V30 2105 O 194.631 -1.16887 -1.40156 0
M  V30 2106 C 194.682 -3.37125 1.30496 0
M  V30 2107 O 194.403 -3.45201 2.69755 0
M  V30 2108 C 195.904 -4.29373 1.10243 0
M  V30 2109 H 193.124 -0.594452 0.311236 0
M  V30 2110 H 195.668 -1.42429 1.46745 0
M  V30 2111 H 193.823 -3.80109 0.748081 0
M  V30 2112 H 194.237 -4.38056 2.88457 0
M  V30 2113 H 195.711 -5.32394 1.45811 0
M  V30 2114 H 196.188 -4.39181 0.0409492 0
M  V30 2115 H 196.794 -3.92169 1.64571 0
M  V30 2116 N 195.109 -0.891671 -1.2995 0
M  V30 2117 C 196.525 -0.58662 -1.48428 0
M  V30 2118 C 196.725 0.873951 -1.81561 0
M  V30 2119 O 195.781 1.65471 -1.90724 0
M  V30 2120 C 197.094 -1.50553 -2.60296 0
M  V30 2121 C 198.642 -1.50988 -2.74175 0
M  V30 2122 C 199.117 -2.41488 -3.89163 0
M  V30 2123 N 200.608 -2.39489 -3.96483 0
M  V30 2124 C 201.343 -3.06223 -4.84784 0
M  V30 2125 N 200.839 -3.82206 -5.77833 0
M  V30 2126 N 202.632 -2.95421 -4.78208 0
M  V30 2127 H 194.783 -1.83644 -1.06718 0
M  V30 2128 H 197.046 -0.786455 -0.529332 0
M  V30 2129 H 196.752 -2.54581 -2.42654 0
M  V30 2130 H 196.626 -1.22008 -3.56923 0
M  V30 2131 H 199.013 -0.47708 -2.91218 0
M  V30 2132 H 199.094 -1.83567 -1.78148 0
M  V30 2133 H 198.738 -3.44857 -3.72876 0
M  V30 2134 H 198.668 -2.06222 -4.84541 0
M  V30 2135 H 201.159 -1.84278 -3.29924 0
M  V30 2136 H 201.472 -4.302 -6.41988 0
M  V30 2137 H 199.817 -3.86313 -5.77743 0
M  V30 2138 H 203.008 -2.35581 -4.04499 0
M  V30 2139 H 203.181 -3.47704 -5.46814 0
M  V30 2140 N 196.587 1.43421 -0.653314 0
M  V30 2141 C 197.517 2.33487 0.0246656 0
M  V30 2142 C 198.498 1.49475 0.811863 0
M  V30 2143 O 199.683 1.78139 0.773322 0
M  V30 2144 C 196.813 3.32841 0.99166 0
M  V30 2145 C 195.767 4.26842 0.314568 0
M  V30 2146 C 195.093 5.16236 1.39302 0
M  V30 2147 C 196.393 5.16243 -0.793095 0
M  V30 2148 H 198.087 2.90427 -0.727481 0
M  V30 2149 H 195.633 1.39649 -0.351287 0
M  V30 2150 H 197.586 3.94747 1.47487 0
M  V30 2151 H 196.31 2.74158 1.77497 0
M  V30 2152 H 194.969 3.663 -0.148199 0
M  V30 2153 H 194.617 4.53891 2.16776 0
M  V30 2154 H 194.317 5.79948 0.945223 0
M  V30 2155 H 195.841 5.81015 1.87759 0
M  V30 2156 H 197.255 5.71958 -0.392039 0
M  V30 2157 H 195.652 5.88676 -1.16536 0
M  V30 2158 H 196.722 4.55927 -1.65103 0
M  V30 2159 N 198.065 0.39524 1.52563 0
M  V30 2160 C 199.015 -0.4541 2.23432 0
M  V30 2161 C 199.999 -1.02482 1.24042 0
M  V30 2162 O 201.191 -0.949938 1.49349 0
M  V30 2163 C 198.32 -1.57769 3.049 0
M  V30 2164 C 197.406 -1.01842 4.1169 0
M  V30 2165 N 197.797 -0.184613 5.05463 0
M  V30 2166 C 196.095 -1.29033 4.26927 0
M  V30 2167 C 196.796 0.125013 5.81566 0
M  V30 2168 N 195.772 -0.480498 5.41472 0
M  V30 2169 H 199.574 0.189413 2.93289 0
M  V30 2170 H 197.088 0.204877 1.61102 0
M  V30 2171 H 199.085 -2.19862 3.54212 0
M  V30 2172 H 197.745 -2.22397 2.36579 0
M  V30 2173 H 198.756 0.178602 5.17592 0
M  V30 2174 H 195.433 -1.93721 3.69836 0
M  V30 2175 H 196.823 0.800962 6.67109 0
M  V30 2176 N 199.544 -1.57102 0.125237 0
M  V30 2177 C 200.477 -2.11371 -0.860094 0
M  V30 2178 C 201.455 -1.03168 -1.25679 0
M  V30 2179 O 202.639 -1.30862 -1.35674 0
M  V30 2180 C 199.766 -2.61555 -2.1519 0
M  V30 2181 C 198.812 -3.81701 -1.9028 0
M  V30 2182 S 199.645 -5.23797 -1.11343 0
M  V30 2183 C 200.801 -5.77353 -2.41689 0
M  V30 2184 H 201.034 -2.94617 -0.39852 0
M  V30 2185 H 198.567 -1.54145 -0.0886555 0
M  V30 2186 H 200.525 -2.91122 -2.89411 0
M  V30 2187 H 199.186 -1.78479 -2.58465 0
M  V30 2188 H 198.379 -4.14985 -2.86014 0
M  V30 2189 H 197.981 -3.52783 -1.24178 0
M  V30 2190 H 200.273 -5.87458 -3.37489 0
M  V30 2191 H 201.216 -6.75323 -2.12942 0
M  V30 2192 H 201.624 -5.05457 -2.51342 0
M  V30 2193 N 201.022 0.148545 -1.56898 0
M  V30 2194 C 202.299 0.890019 -1.74178 0
M  V30 2195 C 202.679 1.99407 -0.692839 0
M  V30 2196 O 202.027 2.26671 0.288505 0
M  V30 2197 C 202.237 1.43389 -3.18183 0
M  V30 2198 C 203.585 1.89791 -3.79822 0
M  V30 2199 O 204.609 1.53134 -3.21603 0
M  V30 2200 O 203.468 2.57387 -4.82093 0
M  V30 2201 H 200.562 0.420496 -0.712118 0
M  V30 2202 H 203.108 0.134591 -1.69165 0
M  V30 2203 H 201.88 0.640383 -3.86024 0
M  V30 2204 H 201.503 2.25287 -3.27615 0
M  V30 2205 N 202.5 1.5196 0.417844 0
M  V30 2206 C 203.45 1.7106 1.5074 0
M  V30 2207 C 204.434 0.564487 1.50673 0
M  V30 2208 O 205.626 0.821206 1.56797 0
M  V30 2209 C 202.755 1.85677 2.88754 0
M  V30 2210 C 201.841 3.06133 2.93502 0
M  V30 2211 N 202.232 4.28987 2.67962 0
M  V30 2212 C 200.53 3.05787 3.24669 0
M  V30 2213 C 201.231 5.10395 2.79055 0
M  V30 2214 N 200.207 4.45455 3.11561 0
M  V30 2215 H 204.009 2.63696 1.29775 0
M  V30 2216 H 201.523 1.49873 0.625436 0
M  V30 2217 H 203.52 1.97475 3.67164 0
M  V30 2218 H 202.18 0.942348 3.10725 0
M  V30 2219 H 203.191 4.57607 2.4252 0
M  V30 2220 H 199.868 2.2405 3.52289 0
M  V30 2221 H 201.258 6.18247 2.63097 0
M  V30 2222 N 203.978 -0.674533 1.42435 0
M  V30 2223 C 204.926 -1.80934 1.46169 0
M  V30 2224 C 205.92 -1.66006 0.3374 0
M  V30 2225 O 207.126 -1.72611 0.510425 0
M  V30 2226 H 203.501 -0.596594 0.457798 0
M  V30 2227 H 205.472 -1.74903 2.41767 0
M  V30 2228 C 204.221 -3.19088 1.38123 0
M  V30 2229 H 203.544 -3.31203 2.23931 0
M  V30 2230 H 204.984 -3.9851 1.44797 0
M  V30 2231 C 203.443 -3.36763 0.0960517 0
M  V30 2232 O 203.973 -3.92581 -0.851073 0
M  V30 2233 N 202.179 -2.90597 0.0131186 0
M  V30 2234 H 201.726 -2.45359 0.784639 0
M  V30 2235 H 201.684 -3.028 -0.846133 0
M  V30 2236 N 205.456 -1.28612 -0.910864 0
M  V30 2237 C 206.404 -1.1265 -2.03501 0
M  V30 2238 C 207.398 -0.0450054 -1.6934 0
M  V30 2239 O 208.604 -0.203988 -1.7884 0
M  V30 2240 H 204.979 -0.347639 -0.666822 0
M  V30 2241 H 206.95 -2.07849 -2.14106 0
M  V30 2242 C 205.699 -0.808143 -3.38178 0
M  V30 2243 H 205.022 -1.63231 -3.6496 0
M  V30 2244 H 206.462 -0.736426 -4.17556 0
M  V30 2245 C 204.921 0.488226 -3.33344 0
M  V30 2246 O 205.451 1.51766 -3.71927 0
M  V30 2247 N 203.657 0.490009 -2.86439 0
M  V30 2248 H 203.204 -0.348161 -2.55236 0
M  V30 2249 H 203.162 1.35741 -2.83587 0
M  V30 2250 N 206.934 1.1197 -1.10907 0
M  V30 2251 C 208.183 1.82947 -0.849302 0
M  V30 2252 C 208.496 1.85275 0.627112 0
M  V30 2253 O 209.702 2.52296 1.00295 0
M  V30 2254 C 208.158 3.28529 -1.46959 0
M  V30 2255 C 207.766 3.34546 -2.97965 0
M  V30 2256 C 209.51 4.04443 -1.28942 0
M  V30 2257 C 207.417 4.74491 -3.53004 0
M  V30 2258 H 206.347 0.685477 -0.314065 0
M  V30 2259 H 208.998 1.2604 -1.33365 0
M  V30 2260 H 207.38 3.85333 -0.912917 0
M  V30 2261 H 208.554 2.87654 -3.59989 0
M  V30 2262 H 206.869 2.72108 -3.15192 0
M  V30 2263 H 209.466 5.07787 -1.67502 0
M  V30 2264 H 209.809 4.15656 -0.231456 0
M  V30 2265 H 210.342 3.5401 -1.81443 0
M  V30 2266 H 207.081 4.68474 -4.58489 0
M  V30 2267 H 206.601 5.21816 -2.9575 0
M  V30 2268 H 208.28 5.4344 -3.51115 0
M  V30 2269 N 208.412 0.89855 1.29475 0
M  V30 2270 C 209.322 0.379974 2.31502 0
M  V30 2271 C 210.338 -0.524695 1.659 0
M  V30 2272 O 211.514 -0.414551 1.97087 0
M  V30 2273 C 208.579 -0.385138 3.44554 0
M  V30 2274 C 207.64 0.550914 4.2575 0
M  V30 2275 C 206.873 -0.177778 5.33404 0
M  V30 2276 O 207.096 -1.40189 5.52904 0
M  V30 2277 O 206.03 0.479106 5.9999 0
M  V30 2278 H 209.856 1.22639 2.77837 0
M  V30 2279 H 207.441 0.662834 1.33891 0
M  V30 2280 H 209.323 -0.817841 4.13388 0
M  V30 2281 H 207.998 -1.20763 3.0033 0
M  V30 2282 H 206.905 1.03271 3.59564 0
M  V30 2283 H 208.238 1.33979 4.73614 0
M  V30 2284 N 209.89 -1.43072 0.660911 0
M  V30 2285 C 211.137 -2.01721 0.177445 0
M  V30 2286 C 211.465 -1.5218 -1.21126 0
M  V30 2287 O 210.72 -0.708659 -1.82419 0
M  V30 2288 C 211.019 -3.57103 0.145563 0
M  V30 2289 C 210.685 -4.26021 1.47705 0
M  V30 2290 C 209.347 -4.44563 1.84165 0
M  V30 2291 C 211.699 -4.64983 2.35458 0
M  V30 2292 C 209.027 -4.99334 3.0803 0
M  V30 2293 C 211.379 -5.21127 3.58622 0
M  V30 2294 C 210.043 -5.37884 3.95268 0
M  V30 2295 H 209.313 -0.73815 0.0649317 0
M  V30 2296 H 211.96 -1.71446 0.853144 0
M  V30 2297 H 210.265 -3.86965 -0.61361 0
M  V30 2298 H 211.962 -4.00248 -0.2455 0
M  V30 2299 H 208.552 -4.11939 1.18339 0
M  V30 2300 H 212.736 -4.50343 2.08579 0
M  V30 2301 H 207.992 -5.10493 3.36462 0
M  V30 2302 H 212.166 -5.50262 4.26831 0
M  V30 2303 H 209.793 -5.80089 4.91325 0
M  V30 2304 N 211.368 -0.403325 -1.52352 0
M  V30 2305 C 212.617 0.175668 -2.00934 0
M  V30 2306 C 212.93 1.46718 -1.29356 0
M  V30 2307 O 214.136 2.12708 -1.68724 0
M  V30 2308 C 212.592 0.363612 -3.58058 0
M  V30 2309 C 212.2 -0.915472 -4.38547 0
M  V30 2310 C 213.944 0.89821 -4.14888 0
M  V30 2311 C 211.851 -0.695035 -5.87302 0
M  V30 2312 H 210.781 0.0694234 -0.750797 0
M  V30 2313 H 213.432 -0.527879 -1.75743 0
M  V30 2314 H 211.814 1.12935 -3.79555 0
M  V30 2315 H 212.988 -1.68691 -4.28812 0
M  V30 2316 H 211.303 -1.37606 -3.93006 0
M  V30 2317 H 213.9 1.07907 -5.23699 0
M  V30 2318 H 214.243 1.87126 -3.71873 0
M  V30 2319 H 214.776 0.191681 -3.97338 0
M  V30 2320 H 211.515 -1.63948 -6.34666 0
M  V30 2321 H 211.035 0.0372116 -5.99788 0
M  V30 2322 H 212.714 -0.33497 -6.46132 0
M  V30 2323 N 212.846 1.57033 -0.133567 0
M  V30 2324 C 213.794 2.17348 0.828412 0
M  V30 2325 C 214.788 1.12671 1.26498 0
M  V30 2326 O 215.994 1.30947 1.23502 0
M  V30 2327 H 212.369 0.695775 0.285309 0
M  V30 2328 H 214.34 2.96935 0.295372 0
M  V30 2329 C 213.089 2.79893 2.06289 0
M  V30 2330 H 212.412 3.60147 1.73592 0
M  V30 2331 H 213.852 3.25615 2.71572 0
M  V30 2332 C 212.311 1.77713 2.86216 0
M  V30 2333 O 212.841 1.23937 3.82103 0
M  V30 2334 N 211.047 1.47321 2.50489 0
M  V30 2335 H 210.594 1.91243 1.7258 0
M  V30 2336 H 210.552 0.79199 3.04261 0
M  V30 2337 N 214.325 -0.140222 1.56975 0
M  V30 2338 C 215.736 -0.699596 1.73097 0
M  V30 2339 C 216.087 -1.8134 0.749022 0
M  V30 2340 O 215.212 -2.16241 -0.0828503 0
M  V30 2341 C 215.807 -1.27582 3.1386 0
M  V30 2342 C 214.366 -1.78169 3.31561 0
M  V30 2343 C 213.513 -0.672855 2.69013 0
M  V30 2344 H 216.464 0.0855115 1.58469 0
M  V30 2345 H 216.485 -2.14561 3.14235 0
M  V30 2346 H 215.997 -0.464955 3.85305 0
M  V30 2347 H 214.098 -2.61801 2.65124 0
M  V30 2348 H 214.211 -1.90574 4.39566 0
M  V30 2349 H 212.575 -1.10118 2.29665 0
M  V30 2350 H 213.358 0.126679 3.43066 0
M  V30 2351 N 215.803 -1.52179 -0.40978 0
M  V30 2352 C 216.713 -1.78364 -1.52392 0
M  V30 2353 C 217.729 -0.669183 -1.60617 0
M  V30 2354 O 218.905 -0.954518 -1.77344 0
M  V30 2355 C 215.97 -1.92822 -2.88133 0
M  V30 2356 C 215.031 -3.16725 -2.898 0
M  V30 2357 C 214.264 -3.30483 -4.19067 0
M  V30 2358 O 214.487 -2.49522 -5.12928 0
M  V30 2359 O 213.421 -4.2363 -4.27576 0
M  V30 2360 H 217.247 -2.72931 -1.33201 0
M  V30 2361 H 214.832 -1.37016 -0.59557 0
M  V30 2362 H 216.714 -2.04157 -3.68643 0
M  V30 2363 H 215.389 -1.01444 -3.07393 0
M  V30 2364 H 214.296 -3.10848 -2.08146 0
M  V30 2365 H 215.629 -4.07881 -2.75489 0
M  V30 2366 N 217.281 0.66697 -1.42791 0
M  V30 2367 C 218.527 1.4291 -1.43891 0
M  V30 2368 C 218.86 1.94114 -0.0578972 0
M  V30 2369 O 218.135 1.71414 0.91911 0
M  V30 2370 C 218.418 2.62049 -2.46987 0
M  V30 2371 C 218.271 2.16426 -3.94309 0
M  V30 2372 C 219.59 3.64266 -2.46978 0
M  V30 2373 H 216.709 0.518306 -0.523954 0
M  V30 2374 H 219.351 0.757321 -1.74255 0
M  V30 2375 H 217.501 3.19361 -2.21225 0
M  V30 2376 H 219.173 1.64221 -4.31079 0
M  V30 2377 H 217.416 1.47925 -4.078 0
M  V30 2378 H 218.087 3.02038 -4.62036 0
M  V30 2379 H 220.563 3.16686 -2.69906 0
M  V30 2380 H 219.439 4.45196 -3.21079 0
M  V30 2381 H 219.7 4.15927 -1.49857 0
M  V30 2382 N 218.759 1.29093 0.90403 0
M  V30 2383 C 220.006 1.16813 1.65411 0
M  V30 2384 C 220.334 -0.28128 1.92455 0
M  V30 2385 O 219.589 -1.22006 1.53013 0
M  V30 2386 C 219.888 1.92224 3.01305 0
M  V30 2387 C 219.554 3.41968 2.93885 0
M  V30 2388 C 218.216 3.82807 2.91569 0
M  V30 2389 C 220.568 4.37409 2.83413 0
M  V30 2390 C 217.896 5.1741 2.76594 0
M  V30 2391 C 220.248 5.72097 2.69977 0
M  V30 2392 C 218.912 6.12199 2.66024 0
M  V30 2393 H 218.182 0.42745 0.605283 0
M  V30 2394 H 220.829 1.59981 1.05254 0
M  V30 2395 H 219.134 1.41635 3.65304 0
M  V30 2396 H 220.831 1.80131 3.58265 0
M  V30 2397 H 217.421 3.09504 2.96488 0
M  V30 2398 H 221.605 4.06813 2.84283 0
M  V30 2399 H 216.861 5.47596 2.71935 0
M  V30 2400 H 221.035 6.45704 2.60844 0
M  V30 2401 H 218.662 7.16448 2.54178 0
M  V30 2402 N 220.237 -1.11381 1.11499 0
M  V30 2403 C 221.467 -1.86663 0.885464 0
M  V30 2404 C 221.875 -1.80464 -0.568281 0
M  V30 2405 O 221.218 -1.18445 -1.40415 0
M  V30 2406 C 221.28 -3.36337 1.26956 0
M  V30 2407 C 220.944 -3.66304 2.73259 0
M  V30 2408 C 221.941 -3.63733 3.71476 0
M  V30 2409 C 219.626 -3.9529 3.09921 0
M  V30 2410 C 221.62 -3.89725 5.04374 0
M  V30 2411 C 219.307 -4.20941 4.43004 0
M  V30 2412 C 220.305 -4.18147 5.40039 0
M  V30 2413 O 219.993 -4.43153 6.70724 0
M  V30 2414 H 219.725 -0.597114 0.316908 0
M  V30 2415 H 222.279 -1.41782 1.48617 0
M  V30 2416 H 220.509 -3.81826 0.611999 0
M  V30 2417 H 222.198 -3.92986 1.01573 0
M  V30 2418 H 222.964 -3.41389 3.44498 0
M  V30 2419 H 218.843 -3.966 2.35009 0
M  V30 2420 H 222.387 -3.8746 5.80104 0
M  V30 2421 H 218.284 -4.42761 4.69716 0
M  V30 2422 H 219.052 -4.60717 6.76522 0
M  V30 2423 N 221.715 -0.905404 -1.28997 0
M  V30 2424 C 222.963 -0.533192 -1.9494 0
M  V30 2425 C 223.284 0.924618 -1.71685 0
M  V30 2426 O 222.554 1.65268 -1.05183 0
M  V30 2427 H 221.134 -0.194194 -0.721317 0
M  V30 2428 H 223.796 -1.15294 -1.57141 0
M  V30 2429 H 222.892 -0.72059 -3.03667 0
M  V30 2430 N 223.193 1.4272 -0.668489 0
M  V30 2431 C 224.123 2.335 -0.000100175 0
M  V30 2432 C 225.104 1.50328 0.795964 0
M  V30 2433 O 226.289 1.78949 0.754385 0
M  V30 2434 C 223.419 3.33874 0.956302 0
M  V30 2435 C 222.373 4.27152 0.269278 0
M  V30 2436 C 221.699 5.17684 1.33818 0
M  V30 2437 C 222.999 5.15373 -0.847805 0
M  V30 2438 H 224.693 2.89639 -0.758244 0
M  V30 2439 H 222.239 1.39269 -0.366079 0
M  V30 2440 H 224.192 3.9629 1.43292 0
M  V30 2441 H 222.916 2.76025 1.74579 0
M  V30 2442 H 221.575 3.66123 -0.187042 0
M  V30 2443 H 221.223 4.56165 2.1195 0
M  V30 2444 H 220.923 5.80918 0.883659 0
M  V30 2445 H 222.447 5.82974 1.81586 0
M  V30 2446 H 223.861 5.7151 -0.452681 0
M  V30 2447 H 222.258 5.87407 -1.22773 0
M  V30 2448 H 223.328 4.5415 -1.69929 0
M  V30 2449 N 224.671 0.411399 1.52136 0
M  V30 2450 C 225.619 -0.427633 2.28635 0
M  V30 2451 C 226.613 -1.04383 1.33419 0
M  V30 2452 O 227.819 -0.981772 1.50868 0
M  V30 2453 H 224.194 -0.156689 0.735495 0
M  V30 2454 H 226.165 0.238761 2.97443 0
M  V30 2455 C 224.914 -1.53082 3.12188 0
M  V30 2456 H 224.237 -1.06601 3.85326 0
M  V30 2457 H 225.677 -2.09167 3.68816 0
M  V30 2458 C 224.136 -2.49946 2.25895 0
M  V30 2459 O 224.666 -3.53884 1.90076 0
M  V30 2460 N 222.872 -2.2021 1.8962 0
M  V30 2461 H 222.419 -1.35719 2.18948 0
M  V30 2462 H 222.377 -2.85266 1.32176 0
M  V30 2463 N 226.149 -1.5696 0.141893 0
M  V30 2464 C 227.396 -1.9596 -0.510492 0
M  V30 2465 C 227.724 -1.02648 -1.65208 0
M  V30 2466 O 226.979 -0.0546947 -1.95624 0
M  V30 2467 C 227.278 -3.41242 -1.06249 0
M  V30 2468 C 226.944 -4.50882 -0.0398791 0
M  V30 2469 C 225.606 -4.80595 0.241247 0
M  V30 2470 C 227.958 -5.17058 0.65578 0
M  V30 2471 C 225.286 -5.73792 1.22393 0
M  V30 2472 C 227.638 -6.11313 1.62724 0
M  V30 2473 C 226.302 -6.39407 1.91612 0
M  V30 2474 H 225.572 -0.717068 -0.186802 0
M  V30 2475 H 228.219 -1.90142 0.227643 0
M  V30 2476 H 226.524 -3.43866 -1.87785 0
M  V30 2477 H 228.221 -3.68742 -1.57576 0
M  V30 2478 H 224.811 -4.27754 -0.269174 0
M  V30 2479 H 228.995 -4.94239 0.451779 0
M  V30 2480 H 224.251 -5.93853 1.45424 0
M  V30 2481 H 228.425 -6.61668 2.17183 0
M  V30 2482 H 226.052 -7.11427 2.6791 0
M  V30 2483 N 227.627 0.131896 -1.57047 0
M  V30 2484 C 228.557 1.16384 -2.02428 0
M  V30 2485 C 229.538 1.43936 -0.90644 0
M  V30 2486 O 230.723 1.54599 -1.17528 0
M  V30 2487 C 227.853 2.49328 -2.4177 0
M  V30 2488 C 226.807 2.36266 -3.56879 0
M  V30 2489 C 226.133 3.74057 -3.8208 0
M  V30 2490 C 227.433 1.834 -4.89042 0
M  V30 2491 H 229.127 0.786433 -2.88887 0
M  V30 2492 H 226.673 0.376855 -1.38981 0
M  V30 2493 H 228.626 3.21759 -2.7212 0
M  V30 2494 H 227.35 2.88934 -1.52266 0
M  V30 2495 H 226.009 1.66286 -3.26718 0
M  V30 2496 H 225.657 4.11125 -2.89803 0
M  V30 2497 H 225.357 3.66174 -4.59554 0
M  V30 2498 H 226.881 4.48012 -4.1487 0
M  V30 2499 H 228.295 2.45636 -5.18011 0
M  V30 2500 H 226.692 1.8637 -5.70426 0
M  V30 2501 H 227.762 0.790662 -4.7841 0
M  V30 2502 N 229.106 1.52395 0.401703 0
M  V30 2503 C 230.522 1.41363 0.740864 0
M  V30 2504 C 230.722 0.523982 1.94568 0
M  V30 2505 O 229.778 -0.00741204 2.52499 0
M  V30 2506 C 231.091 2.84011 0.987847 0
M  V30 2507 C 232.639 2.93404 1.09011 0
M  V30 2508 C 233.114 4.37036 1.3698 0
M  V30 2509 N 234.605 4.40304 1.43829 0
M  V30 2510 C 235.34 5.48508 1.67112 0
M  V30 2511 N 234.836 6.66819 1.87949 0
M  V30 2512 N 236.629 5.36034 1.69187 0
M  V30 2513 H 228.78 2.08765 -0.391262 0
M  V30 2514 H 231.043 0.941265 -0.112798 0
M  V30 2515 H 230.749 3.51265 0.174835 0
M  V30 2516 H 230.623 3.25502 1.906 0
M  V30 2517 H 233.01 2.26325 1.8937 0
M  V30 2518 H 233.091 2.55359 0.15015 0
M  V30 2519 H 232.735 5.04676 0.571353 0
M  V30 2520 H 232.665 4.72623 2.3224 0
M  V30 2521 H 235.156 3.55024 1.29486 0
M  V30 2522 H 235.469 7.45063 2.05185 0
M  V30 2523 H 233.814 6.6987 1.85199 0
M  V30 2524 H 237.005 4.42579 1.52451 0
M  V30 2525 H 237.178 6.20434 1.86993 0
M  V30 2526 N 230.584 -0.659388 1.43143 0
M  V30 2527 C 231.514 -1.78422 1.50625 0
M  V30 2528 C 232.495 -1.66216 0.361443 0
M  V30 2529 O 233.68 -1.85404 0.577834 0
M  V30 2530 C 230.81 -3.16815 1.42287 0
M  V30 2531 C 229.764 -3.43777 2.54954 0
M  V30 2532 C 229.09 -4.81905 2.31671 0
M  V30 2533 C 230.39 -3.39134 3.97222 0
M  V30 2534 H 232.084 -1.72417 2.44771 0
M  V30 2535 H 229.63 -0.828084 1.17808 0
M  V30 2536 H 231.583 -3.95253 1.46127 0
M  V30 2537 H 230.307 -3.23534 0.446435 0
M  V30 2538 H 228.966 -2.67707 2.50457 0
M  V30 2539 H 228.614 -4.85294 1.32284 0
M  V30 2540 H 228.314 -5.00906 3.07192 0
M  V30 2541 H 229.838 -5.62609 2.37284 0
M  V30 2542 H 231.252 -4.07518 4.03239 0
M  V30 2543 H 229.649 -3.69671 4.72719 0
M  V30 2544 H 230.719 -2.37426 4.22797 0
M  V30 2545 N 232.062 -1.29571 -0.897171 0
M  V30 2546 C 233.308 -1.17863 -1.65034 0
M  V30 2547 C 233.641 0.268729 -1.92332 0
M  V30 2548 O 232.916 1.19378 -1.53555 0
M  V30 2549 C 233.199 -1.995 -2.99786 0
M  V30 2550 C 233.052 -3.5239 -2.79538 0
M  V30 2551 C 234.371 -1.82335 -4.00552 0
M  V30 2552 H 231.49 -0.429528 -0.598895 0
M  V30 2553 H 234.132 -1.59072 -1.03905 0
M  V30 2554 H 232.282 -1.64485 -3.51962 0
M  V30 2555 H 233.954 -3.97401 -2.34244 0
M  V30 2556 H 232.197 -3.77187 -2.14273 0
M  V30 2557 H 232.868 -4.04787 -3.75302 0
M  V30 2558 H 235.344 -2.12924 -3.57495 0
M  V30 2559 H 234.22 -2.41801 -4.92771 0
M  V30 2560 H 234.481 -0.779209 -4.35179 0
M  V30 2561 N 233.54 1.10788 -1.12088 0
M  V30 2562 C 234.49 2.15158 -0.754401 0
M  V30 2563 C 235.474 1.59026 0.244846 0
M  V30 2564 O 236.666 1.76927 0.0509097 0
M  V30 2565 C 233.795 3.42677 -0.206657 0
M  V30 2566 C 232.881 4.05751 -1.23398 0
M  V30 2567 N 233.272 4.43582 -2.43041 0
M  V30 2568 C 231.57 4.32764 -1.07848 0
M  V30 2569 C 232.271 4.93085 -3.08613 0
M  V30 2570 N 231.247 4.89664 -2.36072 0
M  V30 2571 H 235.049 2.42195 -1.6649 0
M  V30 2572 H 232.563 1.27872 -1.00112 0
M  V30 2573 H 234.56 4.16834 0.0740646 0
M  V30 2574 H 233.22 3.17101 0.698342 0
M  V30 2575 H 234.231 4.35395 -2.80449 0
M  V30 2576 H 230.908 4.16863 -0.230483 0
M  V30 2577 H 232.298 5.31933 -4.10483 0
M  V30 2578 N 235.018 0.912232 1.28515 0
M  V30 2579 C 235.948 0.416403 2.29757 0
M  V30 2580 C 236.929 -0.515194 1.6211 0
M  V30 2581 O 238.114 -0.423253 1.89532 0
M  V30 2582 C 235.244 -0.34572 3.45575 0
M  V30 2583 C 234.198 0.496599 4.25109 0
M  V30 2584 C 233.524 -0.393771 5.33248 0
M  V30 2585 C 234.824 1.75307 4.92001 0
M  V30 2586 H 236.518 1.26249 2.7148 0
M  V30 2587 H 234.064 0.608515 1.30511 0
M  V30 2588 H 236.017 -0.703422 4.15488 0
M  V30 2589 H 234.741 -1.2257 3.02728 0
M  V30 2590 H 233.4 0.8368 3.56922 0
M  V30 2591 H 233.048 -1.27225 4.86644 0
M  V30 2592 H 232.748 0.166209 5.87365 0
M  V30 2593 H 234.272 -0.747389 6.06009 0
M  V30 2594 H 235.686 1.46437 5.54283 0
M  V30 2595 H 234.083 2.25534 5.56106 0
M  V30 2596 H 235.153 2.48176 4.16577 0
M  V30 2597 N 236.496 -1.42363 0.676048 0
M  V30 2598 C 237.406 -2.346 -0.00153389 0
M  V30 2599 C 238.422 -1.5516 -0.787485 0
M  V30 2600 O 239.598 -1.87723 -0.729521 0
M  V30 2601 C 236.663 -3.33705 -0.940298 0
M  V30 2602 C 235.724 -4.29042 -0.148739 0
M  V30 2603 C 234.957 -5.23413 -1.04279 0
M  V30 2604 O 235.18 -5.22749 -2.28232 0
M  V30 2605 O 234.114 -5.99795 -0.502925 0
M  V30 2606 H 237.94 -2.94082 0.758268 0
M  V30 2607 H 235.525 -1.42888 0.436289 0
M  V30 2608 H 237.407 -3.94586 -1.47917 0
M  V30 2609 H 236.082 -2.76695 -1.67993 0
M  V30 2610 H 234.989 -3.71571 0.43427 0
M  V30 2611 H 236.322 -4.89097 0.551805 0
M  V30 2612 N 237.974 -0.419461 -1.51915 0
M  V30 2613 C 239.222 0.152637 -2.01523 0
M  V30 2614 C 239.543 1.44762 -1.30649 0
M  V30 2615 O 238.813 1.90997 -0.435535 0
M  V30 2616 H 237.393 0.0593966 -0.744635 0
M  V30 2617 H 240.055 -0.558073 -1.86739 0
M  V30 2618 H 239.151 0.341369 -3.10227 0
M  V30 2619 N 239.452 1.56882 -0.150215 0
M  V30 2620 C 240.4 2.18214 0.805313 0
M  V30 2621 C 241.394 1.14006 1.25296 0
M  V30 2622 O 242.6 1.3225 1.22107 0
M  V30 2623 H 238.975 0.698762 0.277913 0
M  V30 2624 H 240.946 2.97231 0.263862 0
M  V30 2625 C 239.695 2.82065 2.03309 0
M  V30 2626 H 239.018 3.61968 1.69763 0
M  V30 2627 H 240.458 3.28477 2.68103 0
M  V30 2628 C 238.917 1.80739 2.84315 0
M  V30 2629 O 239.447 1.27983 3.80767 0
M  V30 2630 N 237.653 1.4997 2.48913 0
M  V30 2631 H 237.2 1.93062 1.70542 0
M  V30 2632 H 237.158 0.824217 3.03404 0
M  V30 2633 N 240.93 -0.123565 1.57115 0
M  V30 2634 C 241.862 -1.17739 1.96648 0
M  V30 2635 C 242.875 -1.37906 0.865201 0
M  V30 2636 O 244.064 -1.37062 1.14351 0
M  V30 2637 C 241.164 -2.53821 2.24562 0
M  V30 2638 C 240.337 -2.54317 3.55867 0
M  V30 2639 C 239.396 -3.72112 3.72047 0
M  V30 2640 O 238.422 -3.55907 4.44206 0
M  V30 2641 N 239.624 -4.90498 3.10471 0
M  V30 2642 H 242.389 -0.841147 2.87654 0
M  V30 2643 H 239.95 -0.31289 1.58848 0
M  V30 2644 H 241.942 -3.31175 2.32606 0
M  V30 2645 H 240.512 -2.79645 1.39705 0
M  V30 2646 H 239.732 -1.62711 3.59053 0
M  V30 2647 H 241.02 -2.51701 4.42181 0
M  V30 2648 H 240.418 -5.06567 2.51806 0
M  V30 2649 H 238.975 -5.65544 3.24043 0
M  V30 2650 N 242.408 -1.52605 -0.393616 0
M  V30 2651 C 243.338 -1.80022 -1.48709 0
M  V30 2652 C 244.319 -0.651995 -1.57108 0
M  V30 2653 O 245.504 -0.89913 -1.72132 0
M  V30 2654 C 242.634 -1.96492 -2.86371 0
M  V30 2655 C 241.588 -3.12161 -2.92813 0
M  V30 2656 C 240.914 -3.13877 -4.3288 0
M  V30 2657 C 242.214 -4.51322 -2.6288 0
M  V30 2658 H 243.908 -2.71589 -1.26015 0
M  V30 2659 H 241.454 -1.30684 -0.604778 0
M  V30 2660 H 243.407 -2.14255 -3.62867 0
M  V30 2661 H 242.131 -1.01611 -3.10391 0
M  V30 2662 H 240.79 -2.94173 -2.18764 0
M  V30 2663 H 240.438 -2.16687 -4.53933 0
M  V30 2664 H 240.138 -3.91576 -4.38112 0
M  V30 2665 H 241.662 -3.33789 -5.1129 0
M  V30 2666 H 243.076 -4.69435 -3.29096 0
M  V30 2667 H 241.473 -5.31053 -2.79468 0
M  V30 2668 H 242.543 -4.58353 -1.58242 0
M  V30 2669 N 243.887 0.651787 -1.4349 0
M  V30 2670 C 245.115 1.43937 -1.48626 0
M  V30 2671 C 245.53 1.8851 -0.104587 0
M  V30 2672 O 244.887 1.5958 0.885464 0
M  V30 2673 C 244.938 2.6734 -2.43334 0
M  V30 2674 O 244.659 2.24631 -3.76128 0
M  V30 2675 C 246.16 3.60683 -2.57726 0
M  V30 2676 H 243.38 0.44213 -0.504739 0
M  V30 2677 H 245.924 0.798944 -1.88248 0
M  V30 2678 H 244.079 3.2752 -2.06904 0
M  V30 2679 H 244.493 3.04485 -4.2707 0
M  V30 2680 H 245.967 4.43933 -3.28067 0
M  V30 2681 H 246.444 4.08126 -1.62265 0
M  V30 2682 H 247.05 3.06384 -2.94973 0
M  V30 2683 N 245.365 1.30045 0.890287 0
M  V30 2684 C 246.312 1.15976 1.99545 0
M  V30 2685 C 247.282 0.0506202 1.66023 0
M  V30 2686 O 248.467 0.219847 1.89529 0
M  V30 2687 C 245.607 0.852054 3.34416 0
M  V30 2688 C 244.72 2.04255 3.80662 0
M  V30 2689 C 243.855 1.6734 5.04154 0
M  V30 2690 C 242.894 2.82916 5.42794 0
M  V30 2691 N 242.031 2.46333 6.57468 0
M  V30 2692 H 246.871 2.10524 2.10911 0
M  V30 2693 H 244.408 1.04749 1.03276 0
M  V30 2694 H 246.366 0.654296 4.12037 0
M  V30 2695 H 244.996 -0.0565502 3.2275 0
M  V30 2696 H 244.048 2.35172 2.98995 0
M  V30 2697 H 245.36 2.90826 4.05242 0
M  V30 2698 H 244.514 1.43908 5.89386 0
M  V30 2699 H 243.253 0.779308 4.81433 0
M  V30 2700 H 242.258 3.0702 4.56091 0
M  V30 2701 H 243.483 3.73004 5.6749 0
M  V30 2702 H 241.429 1.59423 6.36334 0
M  V30 2703 H 241.346 3.26436 6.81891 0
M  V30 2704 H 242.614 2.26244 7.45945 0
M  V30 2705 N 246.843 -1.10192 1.12674 0
M  V30 2706 C 247.773 -2.18652 0.819362 0
M  V30 2707 C 248.754 -1.68698 -0.217915 0
M  V30 2708 O 249.939 -1.94041 -0.0785581 0
M  V30 2709 C 247.069 -3.46202 0.27594 0
M  V30 2710 C 246.023 -4.09444 1.24656 0
M  V30 2711 C 245.349 -5.31725 0.563258 0
M  V30 2712 C 246.649 -4.52863 2.60217 0
M  V30 2713 H 248.343 -2.44622 1.72628 0
M  V30 2714 H 245.889 -1.17571 0.831451 0
M  V30 2715 H 247.842 -4.21372 0.0486149 0
M  V30 2716 H 246.566 -3.1973 -0.666331 0
M  V30 2717 H 245.225 -3.36284 1.45974 0
M  V30 2718 H 244.873 -5.0153 -0.384235 0
M  V30 2719 H 244.573 -5.74991 1.21075 0
M  V30 2720 H 246.097 -6.09624 0.34503 0
M  V30 2721 H 247.511 -5.19294 2.42913 0
M  V30 2722 H 245.908 -5.06986 3.21068 0
M  V30 2723 H 246.978 -3.65656 3.18471 0
M  V30 2724 N 248.321 -0.919034 -1.28029 0
M  V30 2725 C 249.271 -0.382574 -2.24767 0
M  V30 2726 C 250.255 0.508286 -1.52661 0
M  V30 2727 O 251.447 0.347145 -1.73562 0
M  V30 2728 C 248.576 0.371432 -3.41285 0
M  V30 2729 C 247.662 -0.535449 -4.20706 0
M  V30 2730 N 248.053 -1.65141 -4.78082 0
M  V30 2731 C 246.351 -0.336824 -4.44726 0
M  V30 2732 C 247.052 -2.21475 -5.37888 0
M  V30 2733 N 246.028 -1.50537 -5.22341 0
M  V30 2734 H 249.83 -1.23477 -2.66703 0
M  V30 2735 H 247.344 -0.772299 -1.42861 0
M  V30 2736 H 249.341 0.772638 -4.09678 0
M  V30 2737 H 248.001 1.22066 -3.00882 0
M  V30 2738 H 249.012 -2.03392 -4.7629 0
M  V30 2739 H 245.689 0.47246 -4.14818 0
M  V30 2740 H 247.079 -3.15379 -5.93284 0
M  V30 2741 N 249.799 1.42003 -0.683588 0
M  V30 2742 C 251.21 1.84501 -0.285736 0
M  V30 2743 C 251.561 1.57213 1.17382 0
M  V30 2744 O 250.686 1.03642 1.89966 0
M  V30 2745 C 251.281 3.34912 -0.511821 0
M  V30 2746 C 249.84 3.76025 -0.168005 0
M  V30 2747 C 248.987 2.6551 -0.799983 0
M  V30 2748 H 251.938 1.31724 -0.885119 0
M  V30 2749 H 251.959 3.79784 0.233292 0
M  V30 2750 H 251.471 3.54741 -1.57418 0
M  V30 2751 H 249.572 3.61801 0.890567 0
M  V30 2752 H 249.685 4.75141 -0.614661 0
M  V30 2753 H 248.049 2.53654 -0.230568 0
M  V30 2754 H 248.832 2.8816 -1.86597 0
M  V30 2755 N 251.277 0.427512 1.51691 0
M  V30 2756 C 252.554 -0.201684 1.94557 0
M  V30 2757 C 252.934 -1.60981 1.36559 0
M  V30 2758 O 252.282 -2.21814 0.548702 0
M  V30 2759 C 252.492 -0.189394 3.48486 0
M  V30 2760 C 253.84 -0.39978 4.22714 0
M  V30 2761 O 254.864 -0.267945 3.55191 0
M  V30 2762 O 253.723 -0.661249 5.42485 0
M  V30 2763 H 250.817 -0.135261 0.815864 0
M  V30 2764 H 253.363 0.484782 1.62628 0
M  V30 2765 H 252.135 0.795431 3.8313 0
M  V30 2766 H 251.758 -0.919187 3.86829 0
M  V30 2767 N 252.755 -1.56801 0.158532 0
M  V30 2768 C 253.983 -2.00859 -0.496303 0
M  V30 2769 C 254.398 -1.03871 -1.57659 0
M  V30 2770 O 253.755 -0.0375165 -1.82461 0
M  V30 2771 C 253.806 -3.4479 -1.08638 0
M  V30 2772 O 253.527 -4.38072 -0.0492322 0
M  V30 2773 C 255.028 -4.04185 -1.8207 0
M  V30 2774 H 252.248 -0.65864 -0.128199 0
M  V30 2775 H 254.792 -2.02885 0.256506 0
M  V30 2776 H 252.947 -3.43579 -1.78975 0
M  V30 2777 H 253.361 -5.2227 -0.483102 0
M  V30 2778 H 254.835 -5.06857 -2.18633 0
M  V30 2779 H 255.312 -3.45549 -2.71095 0
M  V30 2780 H 255.918 -4.0906 -1.16405 0
M  V30 2781 N 254.233 0.115231 -1.57178 0
M  V30 2782 C 255.48 0.822351 -1.8505 0
M  V30 2783 C 255.808 1.79701 -0.744168 0
M  V30 2784 O 255.063 1.93909 0.26414 0
M  V30 2785 C 255.362 1.60324 -3.19423 0
M  V30 2786 C 255.028 0.772536 -4.44233 0
M  V30 2787 C 253.69 0.543468 -4.78121 0
M  V30 2788 C 256.042 0.193746 -5.2084 0
M  V30 2789 C 253.37 -0.274583 -5.86057 0
M  V30 2790 C 255.722 -0.611517 -6.29637 0
M  V30 2791 C 254.386 -0.850867 -6.62055 0
M  V30 2792 H 253.656 0.30092 -0.677147 0
M  V30 2793 H 256.303 0.0845802 -1.91313 0
M  V30 2794 H 254.608 2.41203 -3.08753 0
M  V30 2795 H 256.305 2.1544 -3.38211 0
M  V30 2796 H 252.895 0.96117 -4.17683 0
M  V30 2797 H 257.079 0.357926 -4.95008 0
M  V30 2798 H 252.335 -0.469206 -6.09597 0
M  V30 2799 H 256.509 -1.06697 -6.88178 0
M  V30 2800 H 254.136 -1.48657 -7.45523 0
M  V30 2801 N 255.711 1.52812 0.385517 0
M  V30 2802 C 256.957 1.68275 1.13188 0
M  V30 2803 C 257.29 0.423179 1.89533 0
M  V30 2804 O 256.565 -0.579113 1.85679 0
M  V30 2805 C 256.848 2.92001 2.1073 0
M  V30 2806 C 256.701 4.28067 1.38125 0
M  V30 2807 C 258.02 3.11283 3.11113 0
M  V30 2808 H 255.139 0.612352 0.410115 0
M  V30 2809 H 257.781 1.85415 0.414869 0
M  V30 2810 H 255.931 2.77519 2.71874 0
M  V30 2811 H 257.603 4.54324 0.799187 0
M  V30 2812 H 255.846 4.28388 0.683092 0
M  V30 2813 H 256.517 5.10733 2.09417 0
M  V30 2814 H 258.993 3.2482 2.6006 0
M  V30 2815 H 257.869 3.99325 3.76605 0
M  V30 2816 H 258.13 2.25656 3.80173 0
M  V30 2817 N 257.189 -0.644168 1.43834 0
M  V30 2818 C 258.414 -1.43642 1.49605 0
M  V30 2819 C 258.839 -1.8773 0.117913 0
M  V30 2820 O 258.197 -1.57938 -0.890239 0
M  V30 2821 C 258.245 -2.6416 2.45463 0
M  V30 2822 O 257.349 -3.63538 1.94714 0
M  V30 2823 H 256.69 -0.430329 0.50568 0
M  V30 2824 H 259.22 -0.787448 1.8884 0
M  V30 2825 H 259.23 -3.11864 2.63068 0
M  V30 2826 H 257.905 -2.31414 3.45572 0
M  V30 2827 H 256.482 -3.2273 1.86814 0
M  V30 2828 N 258.668 -1.30515 -0.883378 0
M  V30 2829 C 259.598 -1.19607 -2.00541 0
M  V30 2830 C 260.579 -0.086346 -1.69881 0
M  V30 2831 O 261.764 -0.268654 -1.92333 0
M  V30 2832 C 258.894 -0.888758 -3.35736 0
M  V30 2833 C 257.848 -1.95659 -3.8066 0
M  V30 2834 C 257.174 -1.50224 -5.13164 0
M  V30 2835 C 258.474 -3.36788 -3.99213 0
M  V30 2836 H 260.168 -2.13476 -2.09925 0
M  V30 2837 H 257.714 -1.02775 -1.00863 0
M  V30 2838 H 259.667 -0.799094 -4.13754 0
M  V30 2839 H 258.391 0.0856125 -3.26488 0
M  V30 2840 H 257.05 -2.03591 -3.04871 0
M  V30 2841 H 256.698 -0.516092 -5.00345 0
M  V30 2842 H 256.398 -2.2165 -5.44192 0
M  V30 2843 H 257.922 -1.42639 -5.93706 0
M  V30 2844 H 259.336 -3.31605 -4.67665 0
M  V30 2845 H 257.733 -4.06314 -4.41621 0
M  V30 2846 H 258.803 -3.78561 -3.03017 0
M  V30 2847 N 260.146 1.09593 -1.13257 0
M  V30 2848 C 261.371 1.8604 -0.916732 0
M  V30 2849 C 261.796 1.80504 0.529146 0
M  V30 2850 O 261.154 1.18127 1.37534 0
M  V30 2851 C 261.202 3.32017 -1.40703 0
M  V30 2852 O 260.306 4.08141 -0.591153 0
M  V30 2853 H 259.647 0.576943 -0.328683 0
M  V30 2854 H 262.177 1.38405 -1.50682 0
M  V30 2855 H 262.187 3.82865 -1.4099 0
M  V30 2856 H 260.862 3.35361 -2.45979 0
M  V30 2857 H 259.439 3.67084 -0.656005 0
M  V30 2858 N 261.624 0.925811 1.2754 0
M  V30 2859 C 262.854 0.580666 1.98272 0
M  V30 2860 C 263.262 -0.845207 1.69272 0
M  V30 2861 O 262.605 -1.57306 0.948707 0
M  V30 2862 C 262.667 0.724418 3.52126 0
M  V30 2863 C 262.331 2.12206 4.04744 0
M  V30 2864 C 263.328 3.09604 4.17662 0
M  V30 2865 C 261.013 2.4385 4.39138 0
M  V30 2866 C 263.007 4.36755 4.64246 0
M  V30 2867 C 260.694 3.71237 4.85414 0
M  V30 2868 C 261.692 4.67503 4.97926 0
M  V30 2869 O 261.38 5.92624 5.43187 0
M  V30 2870 H 261.112 0.218987 0.639547 0
M  V30 2871 H 263.666 1.24452 1.63404 0
M  V30 2872 H 261.896 0.0034663 3.867 0
M  V30 2873 H 263.585 0.384607 4.04074 0
M  V30 2874 H 264.351 2.86478 3.91351 0
M  V30 2875 H 260.23 1.69665 4.28643 0
M  V30 2876 H 263.774 5.11898 4.73927 0
M  V30 2877 H 259.671 3.94182 5.11166 0
M  V30 2878 H 260.439 5.95585 5.61445 0
M  V30 2879 N 263.102 -1.41638 0.69111 0
M  V30 2880 C 264.032 -2.3347 0.037248 0
M  V30 2881 C 265.013 -1.51575 -0.771947 0
M  V30 2882 O 266.198 -1.80126 -0.72582 0
M  V30 2883 C 263.328 -3.35354 -0.903064 0
M  V30 2884 C 262.282 -4.27526 -0.201288 0
M  V30 2885 C 261.608 -5.19747 -1.25565 0
M  V30 2886 C 262.908 -5.13959 0.929689 0
M  V30 2887 H 264.602 -2.88397 0.804227 0
M  V30 2888 H 262.148 -1.38669 0.388189 0
M  V30 2889 H 264.101 -3.98519 -1.36969 0
M  V30 2890 H 262.825 -2.78767 -1.70166 0
M  V30 2891 H 261.484 -3.65779 0.245265 0
M  V30 2892 H 261.132 -4.59479 -2.04666 0
M  V30 2893 H 260.832 -5.8225 -0.791128 0
M  V30 2894 H 262.356 -5.85789 -1.72288 0
M  V30 2895 H 263.77 -5.70718 0.543546 0
M  V30 2896 H 262.167 -5.85379 1.32103 0
M  V30 2897 H 263.237 -4.51389 1.77133 0
M  V30 2898 N 264.58 -0.43555 -1.51462 0
M  V30 2899 C 265.512 0.41257 -2.25456 0
M  V30 2900 C 266.525 0.987822 -1.29406 0
M  V30 2901 O 267.714 0.882266 -1.55172 0
M  V30 2902 C 264.814 1.58894 -2.99342 0
M  V30 2903 C 263.987 1.13288 -4.22474 0
M  V30 2904 C 263.046 2.17917 -4.78956 0
M  V30 2905 O 262.072 1.77425 -5.40841 0
M  V30 2906 N 263.274 3.50382 -4.62832 0
M  V30 2907 H 266.039 -0.221603 -2.9888 0
M  V30 2908 H 263.6 -0.264342 -1.59727 0
M  V30 2909 H 265.592 2.28508 -3.34015 0
M  V30 2910 H 264.162 2.12849 -2.28941 0
M  V30 2911 H 263.382 0.263881 -3.93316 0
M  V30 2912 H 264.67 0.805542 -5.02383 0
M  V30 2913 H 264.068 3.86013 -4.13534 0
M  V30 2914 H 262.625 4.15895 -5.01871 0
M  V30 2915 N 266.058 1.56714 -0.166846 0
M  V30 2916 C 267.307 1.95922 0.479318 0
M  V30 2917 C 267.62 1.05529 1.6469 0
M  V30 2918 O 268.826 1.34399 2.35901 0
M  V30 2919 C 267.282 3.48359 0.90412 0
M  V30 2920 C 266.89 4.47369 -0.237621 0
M  V30 2921 C 268.634 3.96394 1.51896 0
M  V30 2922 C 266.541 5.91039 0.206561 0
M  V30 2923 H 265.471 0.731495 0.18284 0
M  V30 2924 H 268.122 1.81728 -0.254363 0
M  V30 2925 H 266.504 3.57955 1.69365 0
M  V30 2926 H 267.678 4.49485 -1.01489 0
M  V30 2927 H 265.993 4.09366 -0.762128 0
M  V30 2928 H 268.59 5.01186 1.86325 0
M  V30 2929 H 268.933 3.39075 2.41524 0
M  V30 2930 H 269.466 3.89796 0.79395 0
M  V30 2931 H 266.205 6.52221 -0.654834 0
M  V30 2932 H 265.725 5.9224 0.949282 0
M  V30 2933 H 267.404 6.43707 0.651939 0
M  V30 2934 N 267.536 -0.106894 1.57237 0
M  V30 2935 C 268.783 -0.812526 1.85484 0
M  V30 2936 C 269.111 -1.79304 0.753687 0
M  V30 2937 O 268.366 -1.94047 -0.253853 0
M  V30 2938 C 268.665 -1.58628 3.20268 0
M  V30 2939 C 268.331 -0.748967 4.44636 0
M  V30 2940 C 266.993 -0.518104 4.78403 0
M  V30 2941 C 269.345 -0.166122 5.20935 0
M  V30 2942 C 266.673 0.305659 5.85903 0
M  V30 2943 C 269.025 0.644899 6.29304 0
M  V30 2944 C 267.689 0.885965 6.61594 0
M  V30 2945 H 266.959 -0.297324 0.678734 0
M  V30 2946 H 269.606 -0.0744332 1.91355 0
M  V30 2947 H 267.911 -2.39562 3.10028 0
M  V30 2948 H 269.608 -2.13643 3.39349 0
M  V30 2949 H 266.198 -0.939006 4.18187 0
M  V30 2950 H 270.382 -0.33167 4.95191 0
M  V30 2951 H 265.638 0.501528 6.0934 0
M  V30 2952 H 269.812 1.10345 6.87602 0
M  V30 2953 H 267.439 1.52609 7.44725 0
M  V30 2954 N 269.014 -1.53014 -0.377408 0
M  V30 2955 C 269.961 -1.78616 -1.46168 0
M  V30 2956 C 270.931 -0.629917 -1.53692 0
M  V30 2957 O 272.116 -0.870861 -1.69766 0
M  V30 2958 C 269.256 -1.97123 -2.8326 0
M  V30 2959 C 268.369 -3.24831 -2.84796 0
M  V30 2960 C 267.504 -3.33591 -4.13389 0
M  V30 2961 C 266.543 -4.55377 -4.09021 0
M  V30 2962 N 265.68 -4.61355 -5.29241 0
M  V30 2963 H 270.52 -2.71142 -1.23637 0
M  V30 2964 H 268.057 -1.34326 -0.599577 0
M  V30 2965 H 270.015 -2.05839 -3.62886 0
M  V30 2966 H 268.645 -1.07946 -3.04216 0
M  V30 2967 H 267.697 -3.25128 -1.97474 0
M  V30 2968 H 269.009 -4.14523 -2.77439 0
M  V30 2969 H 268.163 -3.41554 -5.01424 0
M  V30 2970 H 266.902 -2.41894 -4.23484 0
M  V30 2971 H 265.907 -4.47527 -3.19373 0
M  V30 2972 H 267.132 -5.48402 -4.00539 0
M  V30 2973 H 265.078 -3.72554 -5.39944 0
M  V30 2974 H 264.995 -5.44935 -5.24006 0
M  V30 2975 H 266.263 -4.73586 -6.19141 0
M  V30 2976 N 270.492 0.636531 -1.44174 0
M  V30 2977 C 271.741 1.39213 -1.45954 0
M  V30 2978 C 272.054 1.95374 -0.0939119 0
M  V30 2979 O 273.26 2.71498 0.0107767 0
M  V30 2980 C 271.716 2.52025 -2.56927 0
M  V30 2981 C 271.324 2.024 -3.99673 0
M  V30 2982 C 273.068 3.29269 -2.67922 0
M  V30 2983 C 270.975 3.12521 -5.0208 0
M  V30 2984 H 269.905 0.523132 -0.542999 0
M  V30 2985 H 272.556 0.685349 -1.70221 0
M  V30 2986 H 270.938 3.25253 -2.25891 0
M  V30 2987 H 272.112 1.36073 -4.40251 0
M  V30 2988 H 270.427 1.37987 -3.92872 0
M  V30 2989 H 273.024 4.11352 -3.41605 0
M  V30 2990 H 273.367 3.78397 -1.73555 0
M  V30 2991 H 273.9 2.63129 -2.98342 0
M  V30 2992 H 270.639 2.68343 -5.98057 0
M  V30 2993 H 270.159 3.77507 -4.66099 0
M  V30 2994 H 271.838 3.77385 -5.25538 0
M  V30 2995 N 271.97 1.30982 0.876444 0
M  V30 2996 C 273.195 1.23373 1.66715 0
M  V30 2997 C 273.62 -0.19885 1.87046 0
M  V30 2998 O 272.978 -1.1427 1.40756 0
M  V30 2999 C 273.026 1.97644 3.01611 0
M  V30 3000 O 272.13 1.30935 3.91062 0
M  V30 3001 H 271.471 0.426279 0.509099 0
M  V30 3002 H 274.001 1.72944 1.09323 0
M  V30 3003 H 274.011 2.06992 3.51594 0
M  V30 3004 H 272.686 3.01829 2.86133 0
M  V30 3005 H 271.263 1.29996 3.49507 0
M  V30 3006 N 273.449 -1.08991 1.13837 0
M  V30 3007 C 274.696 -1.81258 0.902882 0
M  V30 3008 C 275.024 -1.85936 -0.570803 0
M  V30 3009 O 274.279 -1.3267 -1.43865 0
M  V30 3010 C 274.578 -3.27042 1.44147 0
M  V30 3011 C 274.244 -3.4249 2.93276 0
M  V30 3012 C 272.906 -3.46414 3.33992 0
M  V30 3013 C 275.258 -3.4666 3.892 0
M  V30 3014 C 272.586 -3.52091 4.69307 0
M  V30 3015 C 274.938 -3.53872 5.24364 0
M  V30 3016 C 273.602 -3.56066 5.646 0
M  V30 3017 H 272.872 -0.663268 0.330388 0
M  V30 3018 H 275.519 -1.28368 1.42105 0
M  V30 3019 H 273.824 -3.82599 0.844097 0
M  V30 3020 H 275.521 -3.81499 1.23528 0
M  V30 3021 H 272.111 -3.40124 2.60794 0
M  V30 3022 H 276.295 -3.42865 3.58828 0
M  V30 3023 H 271.551 -3.52079 4.9985 0
M  V30 3024 H 275.725 -3.56043 5.98503 0
M  V30 3025 H 273.352 -3.60218 6.69438 0
M  V30 3026 N 274.927 -0.932562 -1.27047 0
M  V30 3027 C 276.176 -0.571351 -1.93439 0
M  V30 3028 C 276.489 0.892467 -1.74053 0
M  V30 3029 O 277.695 1.36267 -2.34826 0
M  V30 3030 C 276.151 -0.97106 -3.46552 0
M  V30 3031 C 275.759 -2.4559 -3.74686 0
M  V30 3032 C 277.503 -0.681333 -4.18997 0
M  V30 3033 C 275.41 -2.79475 -5.21198 0
M  V30 3034 H 274.34 -0.209966 -0.724176 0
M  V30 3035 H 276.991 -1.13403 -1.44263 0
M  V30 3036 H 275.373 -0.336983 -3.94564 0
M  V30 3037 H 276.547 -3.13829 -3.37414 0
M  V30 3038 H 274.862 -2.71802 -3.15456 0
M  V30 3039 H 277.459 -0.910939 -5.26883 0
M  V30 3040 H 277.802 0.381628 -4.14547 0
M  V30 3041 H 278.335 -1.27473 -3.76823 0
M  V30 3042 H 275.074 -3.847 -5.30741 0
M  V30 3043 H 274.594 -2.1589 -5.596 0
M  V30 3044 H 276.273 -2.67478 -5.89122 0
M  V30 3045 N 276.405 1.4127 -0.698611 0
M  V30 3046 C 277.352 2.30773 -0.0352094 0
M  V30 3047 C 278.322 1.47273 0.768111 0
M  V30 3048 O 279.507 1.76053 0.735524 0
M  V30 3049 C 276.647 3.33346 0.893 0
M  V30 3050 C 275.76 4.31924 0.0809695 0
M  V30 3051 C 274.895 5.21566 1.0071 0
M  V30 3052 C 273.934 6.11811 0.188155 0
M  V30 3053 N 273.071 6.93926 1.06825 0
M  V30 3054 H 277.911 2.86943 -0.804207 0
M  V30 3055 H 275.448 1.4132 -0.408294 0
M  V30 3056 H 277.406 3.91368 1.44523 0
M  V30 3057 H 276.036 2.78719 1.62836 0
M  V30 3058 H 275.088 3.75825 -0.588224 0
M  V30 3059 H 276.4 4.95716 -0.553801 0
M  V30 3060 H 275.554 5.84437 1.62845 0
M  V30 3061 H 274.293 4.58008 1.67572 0
M  V30 3062 H 273.298 5.47986 -0.446254 0
M  V30 3063 H 274.523 6.77425 -0.476716 0
M  V30 3064 H 272.469 6.32973 1.72283 0
M  V30 3065 H 272.386 7.54416 0.489123 0
M  V30 3066 H 273.654 7.61262 1.67632 0
M  V30 3067 N 277.883 0.443576 1.51229 0
M  V30 3068 C 279.13 -0.120796 2.02139 0
M  V30 3069 C 279.458 -1.42166 1.32736 0
M  V30 3070 O 278.713 -1.90849 0.43301 0
M  V30 3071 C 279.012 -0.380579 3.55368 0
M  V30 3072 C 278.678 0.83523 4.43097 0
M  V30 3073 C 277.34 1.16864 4.66794 0
M  V30 3074 C 279.692 1.64601 4.94526 0
M  V30 3075 C 277.02 2.31339 5.39165 0
M  V30 3076 C 279.372 2.78181 5.68153 0
M  V30 3077 C 278.036 3.11969 5.90112 0
M  V30 3078 H 277.306 -0.0442023 0.73968 0
M  V30 3079 H 279.953 0.592046 1.82118 0
M  V30 3080 H 278.258 -1.17538 3.73754 0
M  V30 3081 H 279.955 -0.830777 3.923 0
M  V30 3082 H 276.545 0.565437 4.24854 0
M  V30 3083 H 280.729 1.40163 4.76097 0
M  V30 3084 H 275.985 2.57823 5.5438 0
M  V30 3085 H 280.159 3.41371 6.06992 0
M  V30 3086 H 277.786 4.00784 6.45969 0
M  V30 3087 N 279.361 -1.56624 0.175154 0
M  V30 3088 C 280.291 -2.21155 -0.749195 0
M  V30 3089 C 281.272 -1.16836 -1.23626 0
M  V30 3090 O 282.457 -1.45277 -1.28873 0
M  V30 3091 C 279.587 -2.8553 -1.97711 0
M  V30 3092 C 278.541 -3.95921 -1.62575 0
M  V30 3093 C 277.867 -4.47365 -2.92864 0
M  V30 3094 C 279.167 -5.15323 -0.850838 0
M  V30 3095 H 280.861 -2.98653 -0.211295 0
M  V30 3096 H 278.407 -1.43651 -0.100188 0
M  V30 3097 H 280.36 -3.2935 -2.62881 0
M  V30 3098 H 279.084 -2.05406 -2.53921 0
M  V30 3099 H 277.743 -3.52762 -0.997719 0
M  V30 3100 H 277.391 -3.64027 -3.47122 0
M  V30 3101 H 277.091 -5.21839 -2.70106 0
M  V30 3102 H 278.615 -4.93873 -3.59056 0
M  V30 3103 H 280.029 -5.55812 -1.40521 0
M  V30 3104 H 278.426 -5.95739 -0.722154 0
M  V30 3105 H 279.496 -4.84661 0.152082 0
M  V30 3106 N 280.839 0.0985539 -1.57292 0
M  V30 3107 C 282.069 0.815135 -1.8984 0
M  V30 3108 C 282.477 1.7297 -0.766679 0
M  V30 3109 O 281.82 1.81698 0.270483 0
M  V30 3110 C 281.882 1.6842 -3.17608 0
M  V30 3111 C 281.546 0.94182 -4.4719 0
M  V30 3112 C 282.543 0.273212 -5.19182 0
M  V30 3113 C 280.228 0.916927 -4.9386 0
M  V30 3114 C 282.222 -0.410361 -6.36078 0
M  V30 3115 C 279.909 0.229567 -6.10669 0
M  V30 3116 C 280.907 -0.432902 -6.81627 0
M  V30 3117 O 280.595 -1.10925 -7.9621 0
M  V30 3118 H 280.327 0.238501 -0.632529 0
M  V30 3119 H 282.881 0.0812659 -2.05239 0
M  V30 3120 H 281.111 2.46022 -2.98345 0
M  V30 3121 H 282.8 2.27704 -3.36015 0
M  V30 3122 H 283.566 0.283927 -4.84168 0
M  V30 3123 H 279.445 1.42201 -4.3852 0
M  V30 3124 H 282.989 -0.928013 -6.914 0
M  V30 3125 H 278.886 0.216686 -6.45136 0
M  V30 3126 H 279.654 -1.01579 -8.12172 0
M  V30 3127 N 282.317 1.53212 0.369288 0
M  V30 3128 C 283.247 1.82365 1.45826 0
M  V30 3129 C 284.228 0.676907 1.56051 0
M  V30 3130 O 285.413 0.926401 1.70679 0
M  V30 3131 C 282.543 2.01023 2.83208 0
M  V30 3132 C 281.497 3.1678 2.8781 0
M  V30 3133 C 280.823 3.20724 4.27832 0
M  V30 3134 C 282.123 4.55447 2.55667 0
M  V30 3135 H 283.817 2.73559 1.21678 0
M  V30 3136 H 281.363 1.3163 0.583911 0
M  V30 3137 H 283.316 2.20001 3.59413 0
M  V30 3138 H 282.04 1.06536 3.08736 0
M  V30 3139 H 280.699 2.97616 2.14056 0
M  V30 3140 H 280.347 2.23882 4.50429 0
M  V30 3141 H 280.047 3.98496 4.31827 0
M  V30 3142 H 281.571 3.41881 5.05915 0
M  V30 3143 H 282.985 4.74611 3.21586 0
M  V30 3144 H 281.382 5.35432 2.70984 0
M  V30 3145 H 282.452 4.60812 1.5093 0
M  V30 3146 N 283.795 -0.628877 1.44509 0
M  V30 3147 C 285.02 -1.42048 1.5112 0
M  V30 3148 C 285.445 -1.87594 0.137818 0
M  V30 3149 O 284.803 -1.58873 -0.873437 0
M  V30 3150 C 284.851 -2.61541 2.48251 0
M  V30 3151 O 283.955 -3.61453 1.98559 0
M  V30 3152 H 283.296 -0.424942 0.510216 0
M  V30 3153 H 285.826 -0.767374 1.89664 0
M  V30 3154 H 285.836 -3.09057 2.66361 0
M  V30 3155 H 284.511 -2.27736 3.48007 0
M  V30 3156 H 283.088 -3.20731 1.90227 0
M  V30 3157 N 285.273 -1.31445 -0.869486 0
M  V30 3158 C 286.55 -1.11795 -1.60503 0
M  V30 3159 C 286.93 0.327168 -2.08549 0
M  V30 3160 O 286.278 1.32135 -1.8642 0
M  V30 3161 C 286.488 -2.13258 -2.76265 0
M  V30 3162 C 287.836 -2.45805 -3.46215 0
M  V30 3163 O 288.86 -2.11688 -2.86473 0
M  V30 3164 O 287.719 -3.04228 -4.5399 0
M  V30 3165 H 284.813 -0.430421 -0.706163 0
M  V30 3166 H 287.359 -1.42925 -0.914907 0
M  V30 3167 H 286.131 -3.10461 -2.3818 0
M  V30 3168 H 285.754 -1.83035 -3.52964 0
M  V30 3169 N 286.751 1.08385 -1.14413 0
M  V30 3170 C 287.699 2.17406 -0.826888 0
M  V30 3171 C 288.693 1.6827 0.195312 0
M  V30 3172 O 289.899 1.79927 0.0513892 0
M  V30 3173 H 286.274 0.70934 -0.249681 0
M  V30 3174 H 288.245 2.41388 -1.75426 0
M  V30 3175 C 286.994 3.46215 -0.320979 0
M  V30 3176 H 286.317 3.84401 -1.0989 0
M  V30 3177 H 287.757 4.23777 -0.137549 0
M  V30 3178 C 286.216 3.23067 0.955472 0
M  V30 3179 O 286.746 3.4668 2.02918 0
M  V30 3180 N 284.952 2.7661 0.890798 0
M  V30 3181 H 284.499 2.57594 0.0168815 0
M  V30 3182 H 284.457 2.61501 1.74542 0
M  V30 3183 N 288.23 0.939286 1.26551 0
M  V30 3184 C 289.477 0.585847 1.9384 0
M  V30 3185 C 289.805 -0.874784 1.73718 0
M  V30 3186 O 289.06 -1.64092 1.06642 0
M  V30 3187 C 289.359 0.872106 3.46596 0
M  V30 3188 C 289.025 2.31632 3.86856 0
M  V30 3189 C 287.687 2.71111 3.97558 0
M  V30 3190 C 290.039 3.25494 4.07066 0
M  V30 3191 C 287.367 4.03553 4.25866 0
M  V30 3192 C 289.719 4.57531 4.36862 0
M  V30 3193 C 288.383 4.96828 4.45778 0
M  V30 3194 H 287.653 0.214377 0.709312 0
M  V30 3195 H 290.3 1.18544 1.50398 0
M  V30 3196 H 288.605 0.18996 3.91339 0
M  V30 3197 H 290.302 0.577442 3.96821 0
M  V30 3198 H 286.892 2.00008 3.79071 0
M  V30 3199 H 291.076 2.9619 3.98227 0
M  V30 3200 H 286.332 4.33665 4.30981 0
M  V30 3201 H 290.506 5.30254 4.51446 0
M  V30 3202 H 288.133 5.99482 4.67468 0
M  V30 3203 N 289.708 -1.40897 0.706093 0
M  V30 3204 C 290.638 -2.33418 0.0620085 0
M  V30 3205 C 291.619 -1.52385 -0.755827 0
M  V30 3206 O 292.804 -1.80886 -0.706674 0
M  V30 3207 C 289.934 -3.36293 -0.867445 0
M  V30 3208 C 288.888 -4.27716 -0.155932 0
M  V30 3209 C 288.214 -5.2105 -1.20046 0
M  V30 3210 C 289.514 -5.12944 0.984149 0
M  V30 3211 H 291.208 -2.87527 0.83477 0
M  V30 3212 H 288.754 -1.38249 0.402875 0
M  V30 3213 H 290.707 -3.99949 -1.32735 0
M  V30 3214 H 289.431 -2.80556 -1.67199 0
M  V30 3215 H 288.09 -3.65498 0.284047 0
M  V30 3216 H 287.738 -4.61624 -1.99781 0
M  V30 3217 H 287.438 -5.83056 -0.729328 0
M  V30 3218 H 288.962 -5.87584 -1.66066 0
M  V30 3219 H 290.376 -5.70109 0.604048 0
M  V30 3220 H 288.773 -5.83945 1.38304 0
M  V30 3221 H 289.843 -4.49485 1.81911 0
M  V30 3222 N 291.186 -0.45159 -1.50991 0
M  V30 3223 C 292.414 0.108334 -2.06616 0
M  V30 3224 C 292.829 1.35224 -1.31757 0
M  V30 3225 O 292.186 1.78475 -0.381174 0
M  V30 3226 C 292.237 0.41619 -3.59096 0
M  V30 3227 O 291.958 -0.778361 -4.3113 0
M  V30 3228 C 293.459 1.02523 -4.31282 0
M  V30 3229 H 290.679 0.00159995 -0.670998 0
M  V30 3230 H 293.223 -0.634771 -1.94399 0
M  V30 3231 H 291.378 1.10921 -3.71181 0
M  V30 3232 H 291.792 -0.511181 -5.22003 0
M  V30 3233 H 293.266 1.19053 -5.39009 0
M  V30 3234 H 293.743 2.01013 -3.905 0
M  V30 3235 H 294.349 0.371173 -4.23677 0
M  V30 3236 N 292.664 1.56529 -0.183458 0
M  V30 3237 C 293.889 2.02064 0.467428 0
M  V30 3238 C 294.314 1.06282 1.55196 0
M  V30 3239 O 293.672 0.0443565 1.81246 0
M  V30 3240 C 293.72 3.46122 1.01153 0
M  V30 3241 O 292.824 3.53437 2.12499 0
M  V30 3242 H 292.165 0.654726 0.110588 0
M  V30 3243 H 294.695 2.02521 -0.290917 0
M  V30 3244 H 294.705 3.85676 1.33108 0
M  V30 3245 H 293.38 4.15331 0.217533 0
M  V30 3246 H 291.957 3.2575 1.81497 0
M  V30 3247 N 294.142 -0.090211 1.57342 0
M  V30 3248 C 295.072 -1.10976 2.05443 0
M  V30 3249 C 296.053 -1.41482 0.944284 0
M  V30 3250 O 297.238 -1.51428 1.21586 0
M  V30 3251 C 294.368 -2.42831 2.48295 0
M  V30 3252 C 293.322 -2.26721 3.63018 0
M  V30 3253 C 292.648 -3.63796 3.91863 0
M  V30 3254 C 293.948 -1.7037 4.93732 0
M  V30 3255 H 295.642 -0.709564 2.9087 0
M  V30 3256 H 293.188 -0.339874 1.39932 0
M  V30 3257 H 295.141 -3.14431 2.80555 0
M  V30 3258 H 293.865 -2.84795 1.59873 0
M  V30 3259 H 292.524 -1.57565 3.31012 0
M  V30 3260 H 292.172 -4.03297 3.00601 0
M  V30 3261 H 291.872 -3.53861 4.69101 0
M  V30 3262 H 293.396 -4.36855 4.26603 0
M  V30 3263 H 294.81 -2.31816 5.24342 0
M  V30 3264 H 293.207 -1.71181 5.75167 0
M  V30 3265 H 294.277 -0.663542 4.80339 0
M  V30 3266 N 295.62 -1.53406 -0.361157 0
M  V30 3267 C 297.031 -1.61442 -0.937728 0
M  V30 3268 C 297.382 -0.48461 -1.90121 0
M  V30 3269 O 296.507 0.388312 -2.12888 0
M  V30 3270 C 297.102 -2.92624 -1.70753 0
M  V30 3271 C 295.661 -3.02981 -2.23337 0
M  V30 3272 C 294.808 -2.5677 -1.04712 0
M  V30 3273 H 297.759 -1.58083 -0.139816 0
M  V30 3274 H 297.78 -2.80675 -2.56908 0
M  V30 3275 H 297.292 -3.74834 -1.00604 0
M  V30 3276 H 295.393 -2.25368 -2.96715 0
M  V30 3277 H 295.506 -4.0814 -2.50916 0
M  V30 3278 H 293.87 -2.11752 -1.41539 0
M  V30 3279 H 294.653 -3.41402 -0.360539 0
M  V30 3280 N 297.098 0.621204 -1.44841 0
M  V30 3281 C 298.03 1.74615 -1.48466 0
M  V30 3282 C 299.043 1.58377 -0.37691 0
M  V30 3283 O 300.232 1.66508 -0.643215 0
M  V30 3284 C 297.332 3.12459 -1.31236 0
M  V30 3285 C 296.505 3.55064 -2.55438 0
M  V30 3286 C 295.564 4.71821 -2.32963 0
M  V30 3287 O 294.59 4.79628 -3.06505 0
M  V30 3288 N 295.792 5.64186 -1.36654 0
M  V30 3289 H 298.557 1.71973 -2.45449 0
M  V30 3290 H 296.118 0.806077 -1.40407 0
M  V30 3291 H 298.11 3.88302 -1.14032 0
M  V30 3292 H 296.68 3.09686 -0.4258 0
M  V30 3293 H 295.9 2.69324 -2.87851 0
M  V30 3294 H 297.188 3.80284 -3.38026 0
M  V30 3295 H 296.586 5.6058 -0.759344 0
M  V30 3296 H 295.143 6.39618 -1.25425 0
M  V30 3297 N 298.576 1.31904 0.862503 0
M  V30 3298 C 299.486 1.22161 2.00285 0
M  V30 3299 C 300.502 0.136785 1.73462 0
M  V30 3300 O 301.678 0.355994 1.98229 0
M  V30 3301 C 298.743 0.937093 3.33796 0
M  V30 3302 C 297.804 2.10957 3.73893 0
M  V30 3303 C 297.037 1.83853 5.01033 0
M  V30 3304 O 297.26 0.777274 5.65079 0
M  V30 3305 O 296.194 2.69741 5.38074 0
M  V30 3306 H 300.02 2.18008 2.11439 0
M  V30 3307 H 297.605 1.11716 0.991957 0
M  V30 3308 H 299.487 0.794583 4.13841 0
M  V30 3309 H 298.162 0.00871894 3.23699 0
M  V30 3310 H 297.069 2.30752 2.94456 0
M  V30 3311 H 298.402 3.02046 3.88625 0
M  V30 3312 N 300.054 -1.07777 1.14986 0
M  V30 3313 C 300.987 -2.14228 0.786243 0
M  V30 3314 C 301.965 -1.60888 -0.235347 0
M  V30 3315 O 303.149 -1.88099 -0.122909 0
M  V30 3316 C 300.276 -3.38281 0.168433 0
M  V30 3317 C 299.322 -4.10387 1.16123 0
M  V30 3318 S 300.155 -4.62371 2.70135 0
M  V30 3319 C 301.311 -5.89704 2.09762 0
M  V30 3320 H 301.544 -2.44741 1.68787 0
M  V30 3321 H 299.077 -1.19984 0.971756 0
M  V30 3322 H 301.035 -4.10098 -0.181588 0
M  V30 3323 H 299.696 -3.05953 -0.710725 0
M  V30 3324 H 298.889 -4.99431 0.677086 0
M  V30 3325 H 298.491 -3.44513 1.45556 0
M  V30 3326 H 300.783 -6.61648 1.45701 0
M  V30 3327 H 301.726 -6.42824 2.96955 0
M  V30 3328 H 302.134 -5.4302 1.54239 0
M  V30 3329 N 301.532 -0.945985 -1.26051 0
M  V30 3330 C 302.778 -0.597002 -1.93814 0
M  V30 3331 C 303.111 0.862484 -1.73997 0
M  V30 3332 O 302.386 1.61769 -1.07986 0
M  V30 3333 C 302.669 -0.945937 -3.47454 0
M  V30 3334 C 302.522 -2.46052 -3.76535 0
M  V30 3335 C 303.841 -0.464785 -4.37639 0
M  V30 3336 H 300.96 -0.218366 -0.703907 0
M  V30 3337 H 303.602 -1.18107 -1.48831 0
M  V30 3338 H 301.752 -0.448902 -3.85898 0
M  V30 3339 H 303.424 -3.03065 -3.47778 0
M  V30 3340 H 301.667 -2.90194 -3.22444 0
M  V30 3341 H 302.338 -2.65517 -4.83947 0
M  V30 3342 H 304.814 -0.891016 -4.06448 0
M  V30 3343 H 303.69 -0.737712 -5.4392 0
M  V30 3344 H 303.951 0.635274 -4.37512 0
M  V30 3345 N 303.011 1.40521 -0.713556 0
M  V30 3346 C 304.236 2.05759 -0.26035 0
M  V30 3347 C 304.661 1.53403 1.08854 0
M  V30 3348 O 304.019 0.668535 1.68524 0
M  V30 3349 C 304.067 3.59745 -0.248122 0
M  V30 3350 O 303.171 4.05123 0.77131 0
M  V30 3351 H 302.512 0.652564 -0.122703 0
M  V30 3352 H 305.042 1.79958 -0.973467 0
M  V30 3353 H 305.052 4.07911 -0.0851129 0
M  V30 3354 H 303.727 3.97218 -1.2325 0
M  V30 3355 H 302.304 3.68422 0.57619 0
M  V30 3356 N 304.489 0.459591 1.5075 0
M  V30 3357 C 305.719 -0.0972338 2.06371 0
M  V30 3358 C 306.127 -1.35074 1.32483 0
M  V30 3359 O 305.47 -1.79637 0.384226 0
M  V30 3360 C 305.532 -0.462759 3.56509 0
M  V30 3361 C 305.196 0.687084 4.51805 0
M  V30 3362 C 306.193 1.56578 4.95761 0
M  V30 3363 C 303.878 0.874144 4.94635 0
M  V30 3364 C 305.872 2.61604 5.81242 0
M  V30 3365 C 303.559 1.92765 5.79901 0
M  V30 3366 C 304.557 2.79697 6.23104 0
M  V30 3367 O 304.245 3.83235 7.06673 0
M  V30 3368 H 303.977 -0.00140687 0.675999 0
M  V30 3369 H 306.531 0.644011 1.95043 0
M  V30 3370 H 304.761 -1.25703 3.65699 0
M  V30 3371 H 306.45 -0.953323 3.94546 0
M  V30 3372 H 307.216 1.4329 4.6335 0
M  V30 3373 H 303.095 0.207006 4.60535 0
M  V30 3374 H 306.639 3.29489 6.14884 0
M  V30 3375 H 302.536 2.06064 6.11725 0
M  V30 3376 H 303.304 3.80084 7.24899 0
M  V30 3377 N 305.967 -1.56429 0.191757 0
M  V30 3378 C 306.9 -2.14829 -0.76967 0
M  V30 3379 C 307.878 -1.08405 -1.2119 0
M  V30 3380 O 309.062 -1.36498 -1.30002 0
M  V30 3381 C 306.189 -2.70446 -2.03903 0
M  V30 3382 C 305.235 -3.89428 -1.7392 0
M  V30 3383 S 306.068 -5.28048 -0.890265 0
M  V30 3384 C 307.224 -5.87085 -2.16984 0
M  V30 3385 H 307.457 -2.96042 -0.273204 0
M  V30 3386 H 304.99 -1.54383 -0.0231975 0
M  V30 3387 H 306.948 -3.03134 -2.76803 0
M  V30 3388 H 305.609 -1.89281 -2.50662 0
M  V30 3389 H 304.802 -4.26742 -2.68155 0
M  V30 3390 H 304.404 -3.57732 -1.09103 0
M  V30 3391 H 306.696 -6.01244 -3.12269 0
M  V30 3392 H 307.639 -6.83747 -1.84108 0
M  V30 3393 H 308.047 -5.15663 -2.29678 0
M  V30 3394 N 307.445 0.0818655 -1.57387 0
M  V30 3395 C 308.856 0.634871 -1.75574 0
M  V30 3396 C 309.207 1.78435 -0.815809 0
M  V30 3397 O 308.332 2.164 0.0025366 0
M  V30 3398 C 308.927 1.15845 -3.18379 0
M  V30 3399 C 307.486 1.65741 -3.37945 0
M  V30 3400 C 306.633 0.572549 -2.71325 0
M  V30 3401 H 309.584 -0.144268 -1.58043 0
M  V30 3402 H 309.605 2.02751 -3.21982 0
M  V30 3403 H 309.117 0.321631 -3.86765 0
M  V30 3404 H 307.218 2.51781 -2.74658 0
M  V30 3405 H 307.331 1.74129 -4.46336 0
M  V30 3406 H 305.695 1.01518 -2.33594 0
M  V30 3407 H 306.478 -0.253918 -3.4236 0
M  V30 3408 N 308.923 1.53595 0.353017 0
M  V30 3409 C 310.2 1.61002 1.11075 0
M  V30 3410 C 310.58 0.425356 2.0677 0
M  V30 3411 O 309.928 -0.583267 2.2093 0
M  V30 3412 C 310.138 2.96631 1.83877 0
M  V30 3413 C 311.486 3.51653 2.37961 0
M  V30 3414 O 312.51 2.98743 1.93987 0
M  V30 3415 O 311.369 4.44177 3.18386 0
M  V30 3416 H 308.463 0.650825 0.510251 0
M  V30 3417 H 311.009 1.6594 0.35527 0
M  V30 3418 H 309.781 3.74293 1.14108 0
M  V30 3419 H 309.404 2.95242 2.66304 0
M  V30 3420 N 310.401 -0.613514 1.45168 0
M  V30 3421 C 311.331 -1.7354 1.56225 0
M  V30 3422 C 312.312 -1.64981 0.41414 0
M  V30 3423 O 313.497 -1.83472 0.636526 0
M  V30 3424 C 310.627 -3.12128 1.52295 0
M  V30 3425 C 309.581 -3.35491 2.65762 0
M  V30 3426 C 308.907 -4.74291 2.46885 0
M  V30 3427 C 310.207 -3.26325 4.0781 0
M  V30 3428 H 311.901 -1.64543 2.50132 0
M  V30 3429 H 309.447 -0.790185 1.20383 0
M  V30 3430 H 311.4 -3.90404 1.58628 0
M  V30 3431 H 310.124 -3.2195 0.549139 0
M  V30 3432 H 308.783 -2.59603 2.58847 0
M  V30 3433 H 308.431 -4.80839 1.47657 0
M  V30 3434 H 308.131 -4.9088 3.22972 0
M  V30 3435 H 309.655 -5.54775 2.55063 0
M  V30 3436 H 311.069 -3.94483 4.16 0
M  V30 3437 H 309.466 -3.54445 4.8424 0
M  V30 3438 H 310.536 -2.23855 4.30136 0
M  V30 3439 N 311.879 -1.3236 -0.855495 0
M  V30 3440 C 313.156 -1.13491 -1.59309 0
M  V30 3441 C 313.536 0.30503 -2.08885 0
M  V30 3442 O 312.884 1.30151 -1.87811 0
M  V30 3443 C 313.094 -2.16176 -2.73987 0
M  V30 3444 C 314.442 -2.49463 -3.43589 0
M  V30 3445 O 315.466 -2.14715 -2.84211 0
M  V30 3446 O 314.325 -3.09027 -4.50738 0
M  V30 3447 H 311.419 -0.437887 -0.701559 0
M  V30 3448 H 313.965 -1.43887 -0.899696 0
M  V30 3449 H 312.737 -3.1297 -2.34873 0
M  V30 3450 H 312.36 -1.86769 -3.51003 0
M  V30 3451 N 313.357 1.07166 -1.15556 0
M  V30 3452 C 314.582 1.84053 -0.955988 0
M  V30 3453 C 315.007 1.81586 0.490739 0
M  V30 3454 O 314.365 1.21018 1.34997 0
M  V30 3455 C 314.413 3.28957 -1.47714 0
M  V30 3456 O 313.517 4.06795 -0.677593 0
M  V30 3457 H 312.858 0.569842 -0.340847 0
M  V30 3458 H 315.388 1.35178 -1.53584 0
M  V30 3459 H 315.398 3.79788 -1.4908 0
M  V30 3460 H 314.073 3.30068 -2.53037 0
M  V30 3461 H 312.65 3.6561 -0.733721 0
M  V30 3462 N 314.835 0.952656 1.25548 0
M  V30 3463 C 315.765 0.489287 2.28316 0
M  V30 3464 C 316.746 -0.463359 1.63667 0
M  V30 3465 O 317.931 -0.36274 1.90782 0
M  V30 3466 C 315.061 -0.235603 3.465 0
M  V30 3467 C 314.015 0.631593 4.23314 0
M  V30 3468 C 313.341 -0.223923 5.34231 0
M  V30 3469 C 314.641 1.90871 4.86174 0
M  V30 3470 H 316.335 1.34822 2.67326 0
M  V30 3471 H 313.881 0.649728 1.28509 0
M  V30 3472 H 315.834 -0.570882 4.17515 0
M  V30 3473 H 314.558 -1.12877 3.06474 0
M  V30 3474 H 313.217 0.949929 3.54079 0
M  V30 3475 H 312.865 -1.11678 4.90446 0
M  V30 3476 H 312.565 0.35299 5.86539 0
M  V30 3477 H 314.089 -0.554214 6.0808 0
M  V30 3478 H 315.503 1.63997 5.49343 0
M  V30 3479 H 313.9 2.43112 5.4865 0
M  V30 3480 H 314.97 2.61304 4.08471 0
M  V30 3481 N 316.313 -1.40141 0.720998 0
M  V30 3482 C 317.543 -2.04798 0.27226 0
M  V30 3483 C 317.951 -1.54442 -1.09289 0
M  V30 3484 O 317.294 -0.698342 -1.69908 0
M  V30 3485 C 317.356 -3.59048 0.18027 0
M  V30 3486 C 317.02 -4.32317 1.48159 0
M  V30 3487 C 318.017 -4.59902 2.42458 0
M  V30 3488 C 315.702 -4.71125 1.74202 0
M  V30 3489 C 317.696 -5.25288 3.61042 0
M  V30 3490 C 315.383 -5.36242 2.93066 0
M  V30 3491 C 316.381 -5.63254 3.86308 0
M  V30 3492 O 316.069 -6.27024 5.03086 0
M  V30 3493 H 315.801 -0.665419 0.119139 0
M  V30 3494 H 318.355 -1.80436 0.981432 0
M  V30 3495 H 316.585 -3.82251 -0.58489 0
M  V30 3496 H 318.274 -4.05221 -0.234618 0
M  V30 3497 H 319.04 -4.30379 2.23604 0
M  V30 3498 H 314.919 -4.49466 1.02477 0
M  V30 3499 H 318.463 -5.46289 4.33837 0
M  V30 3500 H 314.36 -5.65185 3.11826 0
M  V30 3501 H 315.128 -6.4552 5.03235 0
M  V30 3502 N 317.792 -0.46758 -1.50504 0
M  V30 3503 C 318.722 0.318381 -2.31319 0
M  V30 3504 C 319.703 0.993564 -1.38066 0
M  V30 3505 O 320.888 0.991411 -1.66987 0
M  V30 3506 C 318.018 1.40275 -3.17711 0
M  V30 3507 C 316.972 0.849373 -4.19487 0
M  V30 3508 C 316.298 2.03177 -4.94594 0
M  V30 3509 C 317.598 -0.136942 -5.2212 0
M  V30 3510 H 319.292 -0.356106 -2.97275 0
M  V30 3511 H 316.838 -0.172703 -1.42961 0
M  V30 3512 H 318.791 1.96004 -3.73042 0
M  V30 3513 H 317.515 2.10596 -2.49634 0
M  V30 3514 H 316.174 0.314076 -3.65252 0
M  V30 3515 H 315.822 2.72187 -4.22993 0
M  V30 3516 H 315.522 1.66774 -5.63436 0
M  V30 3517 H 317.046 2.59403 -5.52759 0
M  V30 3518 H 318.46 0.331056 -5.72343 0
M  V30 3519 H 316.857 -0.41507 -5.98663 0
M  V30 3520 H 317.927 -1.06398 -4.73083 0
M  V30 3521 N 319.27 1.56325 -0.20005 0
M  V30 3522 C 320.22 2.15939 0.731743 0
M  V30 3523 C 321.204 1.10154 1.17281 0
M  V30 3524 O 322.396 1.36203 1.13038 0
M  V30 3525 C 319.525 2.82614 1.94895 0
M  V30 3526 C 318.611 3.95596 1.52855 0
M  V30 3527 N 319.002 4.99118 0.819418 0
M  V30 3528 C 317.3 4.07288 1.81748 0
M  V30 3529 C 318.001 5.78513 0.608053 0
M  V30 3530 N 316.977 5.31117 1.15828 0
M  V30 3531 H 320.779 2.9334 0.181285 0
M  V30 3532 H 318.293 1.624 -0.000452172 0
M  V30 3533 H 320.29 3.23718 2.62702 0
M  V30 3534 H 318.95 2.06702 2.50408 0
M  V30 3535 H 319.961 5.15723 0.47436 0
M  V30 3536 H 316.638 3.42509 2.38734 0
M  V30 3537 H 318.028 6.71885 0.0451619 0
M  V30 3538 N 320.748 -0.0735177 1.57428 0
M  V30 3539 C 321.996 -0.771472 1.86796 0
M  V30 3540 C 322.317 -1.78201 0.791804 0
M  V30 3541 O 321.587 -1.95074 -0.179718 0
M  V30 3542 H 320.167 -0.28791 0.689287 0
M  V30 3543 H 322.829 -0.0500161 1.94836 0
M  V30 3544 H 321.925 -1.28874 2.8425 0
M  V30 3545 N 322.226 -1.5378 -0.344866 0
M  V30 3546 C 323.174 -1.82373 -1.4437 0
M  V30 3547 C 324.168 -0.694128 -1.54526 0
M  V30 3548 O 325.374 -0.877442 -1.57165 0
M  V30 3549 H 321.749 -0.577765 -0.481344 0
M  V30 3550 H 323.72 -2.74306 -1.17468 0
M  V30 3551 C 322.469 -2.04898 -2.80913 0
M  V30 3552 H 321.792 -2.9127 -2.73865 0
M  V30 3553 H 323.232 -2.28871 -3.56923 0
M  V30 3554 C 321.691 -0.834116 -3.26411 0
M  V30 3555 O 322.221 -0.0328885 -4.01687 0
M  V30 3556 N 320.427 -0.65171 -2.83198 0
M  V30 3557 H 319.974 -1.30489 -2.22104 0
M  V30 3558 H 319.932 0.159686 -3.13994 0
M  V30 3559 N 323.704 0.605807 -1.45491 0
M  V30 3560 C 325.115 1.18777 -1.44045 0
M  V30 3561 C 325.466 1.95471 -0.169001 0
M  V30 3562 O 324.591 2.0374 0.729324 0
M  V30 3563 C 325.186 2.16064 -2.60963 0
M  V30 3564 C 323.745 2.69633 -2.62631 0
M  V30 3565 C 322.892 1.45072 -2.36325 0
M  V30 3566 H 325.843 0.395017 -1.53705 0
M  V30 3567 H 325.864 2.9913 -2.35163 0
M  V30 3568 H 325.376 1.60217 -3.53486 0
M  V30 3569 H 323.477 3.29414 -1.74119 0
M  V30 3570 H 323.59 3.13944 -3.61906 0
M  V30 3571 H 321.954 1.74089 -1.85917 0
M  V30 3572 H 322.737 0.910899 -3.30995 0
M  V30 3573 N 325.182 1.32811 0.848464 0
M  V30 3574 C 326.428 1.24917 1.60522 0
M  V30 3575 C 326.783 -0.185761 1.91501 0
M  V30 3576 O 326.076 -1.12524 1.55077 0
M  V30 3577 C 326.27 2.04831 2.92881 0
M  V30 3578 C 326.099 3.55949 2.74828 0
M  V30 3579 C 324.869 4.25277 2.72887 0
M  V30 3580 C 327.067 4.50476 2.48145 0
M  V30 3581 N 325.049 5.62408 2.46111 0
M  V30 3582 C 326.42 5.75427 2.30832 0
M  V30 3583 C 328.475 4.39665 2.33664 0
M  V30 3584 C 327.178 6.90789 2.00508 0
M  V30 3585 C 329.204 5.54833 2.04731 0
M  V30 3586 C 328.566 6.78787 1.88223 0
M  V30 3587 H 324.665 0.512279 0.590842 0
M  V30 3588 H 327.249 1.67246 0.996839 0
M  V30 3589 H 325.42 1.64837 3.51686 0
M  V30 3590 H 327.152 1.88782 3.57971 0
M  V30 3591 H 323.907 3.77456 2.86049 0
M  V30 3592 H 324.331 6.3467 2.35634 0
M  V30 3593 H 328.973 3.44477 2.45144 0
M  V30 3594 H 326.691 7.85984 1.87765 0
M  V30 3595 H 330.277 5.48398 1.94295 0
M  V30 3596 H 329.157 7.66396 1.66155 0
M  V30 3597 N 326.66 -1.06551 1.16123 0
M  V30 3598 C 327.888 -1.83005 0.965237 0
M  V30 3599 C 328.303 -1.82423 -0.486542 0
M  V30 3600 O 327.66 -1.24152 -1.33763 0
M  V30 3601 C 327.711 -3.29733 1.48183 0
M  V30 3602 O 327.432 -3.30416 2.87674 0
M  V30 3603 C 328.933 -4.22926 1.32848 0
M  V30 3604 H 326.153 -0.577118 0.342309 0
M  V30 3605 H 328.697 -1.3445 1.54089 0
M  V30 3606 H 326.852 -3.75609 0.948517 0
M  V30 3607 H 327.266 -4.22149 3.11272 0
M  V30 3608 H 328.74 -5.23916 1.73827 0
M  V30 3609 H 329.217 -4.38346 0.273692 0
M  V30 3610 H 329.823 -3.82894 1.85127 0
M  V30 3611 N 328.138 -0.959301 -1.25041 0
M  V30 3612 C 329.378 -0.624343 -1.94631 0
M  V30 3613 C 329.742 0.82403 -1.73418 0
M  V30 3614 O 330.943 1.26881 -2.3697 0
M  V30 3615 C 329.214 -0.978805 -3.43736 0
M  V30 3616 S 330.773 -0.757127 -4.32219 0
M  V30 3617 H 327.591 -0.229327 -0.673001 0
M  V30 3618 H 330.193 -1.23447 -1.51595 0
M  V30 3619 H 328.897 -2.02997 -3.56679 0
M  V30 3620 H 328.428 -0.359117 -3.91757 0
M  V30 3621 H 330.443 0.369759 -4.9482 0
M  V30 3622 N 329.616 1.39756 -0.72842 0
M  V30 3623 C 330.893 1.94574 -0.200079 0
M  V30 3624 C 331.273 1.66569 1.29684 0
M  V30 3625 O 330.621 0.990326 2.05924 0
M  V30 3626 C 330.831 3.45004 -0.526608 0
M  V30 3627 C 332.179 4.21965 -0.472318 0
M  V30 3628 O 333.203 3.53173 -0.463413 0
M  V30 3629 O 332.062 5.44552 -0.461075 0
M  V30 3630 H 329.156 0.826289 -0.0342851 0
M  V30 3631 H 331.702 1.49293 -0.806829 0
M  V30 3632 H 330.474 3.58796 -1.56144 0
M  V30 3633 H 330.097 3.97449 0.109449 0
M  V30 3634 N 331.094 0.475555 1.50254 0
M  V30 3635 C 332.334 -0.0765802 2.04256 0
M  V30 3636 C 332.698 -1.36587 1.34937 0
M  V30 3637 O 333.899 -2.00066 1.79519 0
M  V30 3638 C 332.17 -0.251668 3.56513 0
M  V30 3639 S 333.729 -0.761716 4.32138 0
M  V30 3640 H 330.547 -0.0138456 0.710865 0
M  V30 3641 H 333.149 0.643714 1.84598 0
M  V30 3642 H 331.853 0.692404 4.04517 0
M  V30 3643 H 331.384 -0.997946 3.80532 0
M  V30 3644 H 333.399 -2.03451 4.52573 0
M  V30 3645 N 332.573 -1.56217 0.208337 0
M  V30 3646 C 333.523 -2.16324 -0.720281 0
M  V30 3647 C 334.507 -1.10775 -1.16695 0
M  V30 3648 O 335.699 -1.36801 -1.12314 0
M  V30 3649 C 332.828 -2.83644 -1.93393 0
M  V30 3650 C 331.914 -3.96401 -1.50755 0
M  V30 3651 N 332.305 -4.99546 -0.792937 0
M  V30 3652 C 330.603 -4.08246 -1.79585 0
M  V30 3653 C 331.304 -5.78828 -0.577364 0
M  V30 3654 N 330.28 -5.31723 -1.1301 0
M  V30 3655 H 334.082 -2.93432 -0.165725 0
M  V30 3656 H 331.596 -1.62397 0.00906463 0
M  V30 3657 H 333.593 -3.25107 -2.60981 0
M  V30 3658 H 332.253 -2.08027 -2.49308 0
M  V30 3659 H 333.264 -5.15967 -0.447004 0
M  V30 3660 H 329.941 -3.4377 -2.36915 0
M  V30 3661 H 331.331 -6.71899 -0.00952956 0
M  V30 3662 N 334.051 0.0651679 -1.57465 0
M  V30 3663 C 334.981 1.07693 -2.07182 0
M  V30 3664 C 335.962 1.39962 -0.966673 0
M  V30 3665 O 337.147 1.49475 -1.2398 0
M  V30 3666 C 334.277 2.3885 -2.52127 0
M  V30 3667 C 333.231 2.20917 -3.66579 0
M  V30 3668 C 332.557 3.57515 -3.97601 0
M  V30 3669 C 333.857 1.62493 -4.9638 0
M  V30 3670 H 335.551 0.663199 -2.91962 0
M  V30 3671 H 333.097 0.317569 -1.40455 0
M  V30 3672 H 335.05 3.09928 -2.85522 0
M  V30 3673 H 333.774 2.82215 -1.64384 0
M  V30 3674 H 332.433 1.52279 -3.33477 0
M  V30 3675 H 332.081 3.98463 -3.06979 0
M  V30 3676 H 331.781 3.46353 -4.74672 0
M  V30 3677 H 333.305 4.30013 -4.33499 0
M  V30 3678 H 334.719 2.23445 -5.27963 0
M  V30 3679 H 333.116 1.62009 -5.77818 0
M  V30 3680 H 334.186 0.587041 -4.81333 0
M  V30 3681 N 335.529 1.53961 0.336706 0
M  V30 3682 C 336.476 1.82428 1.41381 0
M  V30 3683 C 337.446 0.670444 1.51968 0
M  V30 3684 O 338.631 0.915565 1.67398 0
M  V30 3685 C 335.771 2.04564 2.77934 0
M  V30 3686 C 334.884 3.32267 2.76084 0
M  V30 3687 C 334.019 3.44434 4.04399 0
M  V30 3688 C 333.058 4.66061 3.96804 0
M  V30 3689 N 332.195 4.75224 5.16823 0
M  V30 3690 H 337.035 2.74324 1.16405 0
M  V30 3691 H 334.572 1.35869 0.563752 0
M  V30 3692 H 336.53 2.15388 3.57301 0
M  V30 3693 H 335.16 1.15974 3.01247 0
M  V30 3694 H 334.212 3.3025 1.88784 0
M  V30 3695 H 335.524 4.21733 2.66351 0
M  V30 3696 H 334.678 3.54728 4.92192 0
M  V30 3697 H 333.417 2.53037 4.16921 0
M  V30 3698 H 332.422 4.55838 3.07396 0
M  V30 3699 H 333.647 5.58829 3.85858 0
M  V30 3700 H 331.593 3.86739 5.29876 0
M  V30 3701 H 331.51 5.58636 5.09374 0
M  V30 3702 H 332.778 4.89835 6.06367 0
M  V30 3703 N 337.007 -0.598083 1.45811 0
M  V30 3704 C 338.253 -1.35679 1.51535 0
M  V30 3705 C 338.608 -1.91745 0.15864 0
M  V30 3706 O 337.901 -1.72654 -0.830724 0
M  V30 3707 C 338.095 -2.51669 2.53766 0
M  V30 3708 C 337.924 -2.06963 3.99245 0
M  V30 3709 C 336.694 -1.92693 4.67116 0
M  V30 3710 C 338.892 -1.63855 4.875 0
M  V30 3711 N 336.874 -1.41897 5.97276 0
M  V30 3712 C 338.245 -1.24541 6.07363 0
M  V30 3713 C 340.3 -1.51533 4.74281 0
M  V30 3714 C 339.003 -0.741354 7.15469 0
M  V30 3715 C 341.029 -1.0253 5.82444 0
M  V30 3716 C 340.391 -0.641869 7.01469 0
M  V30 3717 H 336.49 -0.490042 0.609412 0
M  V30 3718 H 339.074 -0.682687 1.82339 0
M  V30 3719 H 337.245 -3.16663 2.24898 0
M  V30 3720 H 338.977 -3.18578 2.4958 0
M  V30 3721 H 335.732 -2.1417 4.22408 0
M  V30 3722 H 336.156 -1.18704 6.66512 0
M  V30 3723 H 340.798 -1.798 3.82664 0
M  V30 3724 H 338.516 -0.446243 8.06867 0
M  V30 3725 H 342.102 -0.934088 5.74253 0
M  V30 3726 H 340.982 -0.268531 7.8374 0
M  V30 3727 N 338.485 -1.33259 -0.841409 0
M  V30 3728 C 339.415 -1.25926 -1.96634 0
M  V30 3729 C 340.396 -0.140349 -1.6952 0
M  V30 3730 O 341.581 -0.329707 -1.91381 0
M  V30 3731 C 338.711 -0.99512 -3.32738 0
M  V30 3732 C 337.665 -2.0767 -3.74242 0
M  V30 3733 C 336.991 -1.66474 -5.08125 0
M  V30 3734 C 338.291 -3.49318 -3.88297 0
M  V30 3735 H 339.985 -2.20046 -2.03027 0
M  V30 3736 H 337.531 -1.05931 -0.975425 0
M  V30 3737 H 339.484 -0.930323 -4.11002 0
M  V30 3738 H 338.208 -0.0183004 -3.26595 0
M  V30 3739 H 336.867 -2.13187 -2.98239 0
M  V30 3740 H 336.515 -0.675012 -4.9845 0
M  V30 3741 H 336.215 -2.3885 -5.36865 0
M  V30 3742 H 337.739 -1.61455 -5.88867 0
M  V30 3743 H 339.153 -3.46316 -4.56879 0
M  V30 3744 H 337.55 -4.20158 -4.28471 0
M  V30 3745 H 338.62 -3.8801 -2.9082 0
M  V30 3746 N 339.963 1.05934 -1.16686 0
M  V30 3747 C 341.188 1.83029 -0.975455 0
M  V30 3748 C 341.613 1.82096 0.471452 0
M  V30 3749 O 340.971 1.22443 1.33706 0
M  V30 3750 C 341.019 3.27372 -1.51195 0
M  V30 3751 O 340.123 4.06054 -0.720701 0
M  V30 3752 H 339.464 0.566194 -0.346872 0
M  V30 3753 H 341.994 1.33541 -1.55009 0
M  V30 3754 H 342.004 3.78186 -1.53099 0
M  V30 3755 H 340.679 3.27366 -2.56523 0
M  V30 3756 H 339.256 3.64812 -0.772458 0
M  V30 3757 N 341.441 0.965919 1.2453 0
M  V30 3758 C 342.718 0.543777 1.87889 0
M  V30 3759 C 343.098 -0.97909 1.87021 0
M  V30 3760 O 342.446 -1.84969 1.3416 0
M  V30 3761 C 342.656 1.13327 3.30088 0
M  V30 3762 C 344.004 1.21707 4.06783 0
M  V30 3763 O 345.028 1.08566 3.39252 0
M  V30 3764 O 343.887 1.42456 5.27606 0
M  V30 3765 H 340.981 0.181054 0.806938 0
M  V30 3766 H 343.527 1.06007 1.32516 0
M  V30 3767 H 342.299 2.17612 3.25209 0
M  V30 3768 H 341.922 0.600911 3.93033 0
M  V30 3769 N 342.919 -1.39368 0.735821 0
M  V30 3770 C 344.165 -2.01272 0.293439 0
M  V30 3771 C 344.52 -1.57344 -1.10728 0
M  V30 3772 O 343.813 -0.792744 -1.74431 0
M  V30 3773 C 344.007 -3.5583 0.334651 0
M  V30 3774 C 343.836 -4.14764 1.73784 0
M  V30 3775 C 342.606 -4.47315 2.35026 0
M  V30 3776 C 344.804 -4.38246 2.69157 0
M  V30 3777 N 342.786 -4.91756 3.6749 0
M  V30 3778 C 344.157 -4.849 3.86357 0
M  V30 3779 C 346.212 -4.20315 2.66908 0
M  V30 3780 C 344.915 -5.15505 5.01645 0
M  V30 3781 C 346.941 -4.52033 3.8134 0
M  V30 3782 C 346.303 -4.98895 4.97276 0
M  V30 3783 H 342.402 -0.766756 0.153652 0
M  V30 3784 H 344.986 -1.69276 0.961967 0
M  V30 3785 H 343.157 -3.87212 -0.303527 0
M  V30 3786 H 344.889 -4.04503 -0.126358 0
M  V30 3787 H 341.644 -4.35143 1.86943 0
M  V30 3788 H 342.068 -5.18333 4.35499 0
M  V30 3789 H 346.71 -3.83287 1.78468 0
M  V30 3790 H 344.428 -5.51437 5.90713 0
M  V30 3791 H 348.014 -4.39781 3.80899 0
M  V30 3792 H 346.894 -5.22973 5.84353 0
M  V30 3793 N 344.397 -0.483516 -1.5 0
M  V30 3794 C 345.646 0.0689102 -2.01582 0
M  V30 3795 C 345.959 1.39655 -1.36952 0
M  V30 3796 O 347.165 2.03465 -1.79762 0
M  V30 3797 C 345.621 0.173302 -3.59483 0
M  V30 3798 C 345.229 -1.14665 -4.33077 0
M  V30 3799 C 346.973 0.677024 -4.19066 0
M  V30 3800 C 344.88 -1.00537 -5.82792 0
M  V30 3801 H 343.81 0.0295277 -0.753422 0
M  V30 3802 H 346.461 -0.620295 -1.72698 0
M  V30 3803 H 344.843 0.926569 -3.85007 0
M  V30 3804 H 346.017 -1.91184 -4.19268 0
M  V30 3805 H 344.332 -1.58244 -3.85159 0
M  V30 3806 H 346.929 0.799952 -5.28682 0
M  V30 3807 H 347.272 1.67151 -3.81269 0
M  V30 3808 H 347.805 -0.0192083 -3.97795 0
M  V30 3809 H 344.544 -1.9736 -6.25083 0
M  V30 3810 H 344.064 -0.280776 -5.99142 0
M  V30 3811 H 345.743 -0.677 -6.43448 0
M  V30 3812 N 345.875 1.56104 -0.216619 0
M  V30 3813 C 346.807 2.17339 0.72776 0
M  V30 3814 C 347.82 1.14109 1.16116 0
M  V30 3815 O 349.009 1.4111 1.09317 0
M  V30 3816 C 346.109 2.73818 1.99693 0
M  V30 3817 C 345.282 4.02168 1.71988 0
M  V30 3818 C 344.341 4.43259 2.83562 0
M  V30 3819 O 343.367 5.10257 2.52244 0
M  V30 3820 N 344.569 4.08535 4.12407 0
M  V30 3821 H 347.334 2.99005 0.203983 0
M  V30 3822 H 344.895 1.61861 -0.0354289 0
M  V30 3823 H 346.887 2.9828 2.73516 0
M  V30 3824 H 345.457 1.96483 2.43132 0
M  V30 3825 H 344.677 3.85612 0.818337 0
M  V30 3826 H 345.965 4.85907 1.50903 0
M  V30 3827 H 345.363 3.54687 4.40696 0
M  V30 3828 H 343.92 4.37901 4.8279 0
M  V30 3829 N 347.353 -0.0568162 1.57498 0
M  V30 3830 C 348.263 -1.08346 2.08083 0
M  V30 3831 C 349.279 -1.41439 1.01346 0
M  V30 3832 O 350.455 -1.51316 1.32912 0
M  V30 3833 C 347.52 -2.37352 2.52715 0
M  V30 3834 C 346.581 -2.11093 3.73816 0
M  V30 3835 C 345.814 -3.33949 4.1631 0
M  V30 3836 O 346.037 -4.43622 3.58547 0
M  V30 3837 O 344.971 -3.21279 5.08983 0
M  V30 3838 H 348.797 -0.683667 2.95905 0
M  V30 3839 H 346.382 -0.271965 1.46904 0
M  V30 3840 H 348.264 -3.13246 2.81877 0
M  V30 3841 H 346.939 -2.76681 1.68016 0
M  V30 3842 H 345.846 -1.32856 3.49714 0
M  V30 3843 H 347.179 -1.76637 4.59413 0
M  V30 3844 N 348.832 -1.54138 -0.328536 0
M  V30 3845 C 349.779 -1.83176 -1.40411 0
M  V30 3846 C 350.749 -0.678494 -1.5161 0
M  V30 3847 O 351.934 -0.92443 -1.6691 0
M  V30 3848 C 349.074 -2.06035 -2.76846 0
M  V30 3849 C 348.187 -3.33727 -2.74318 0
M  V30 3850 C 347.322 -3.46574 -4.02567 0
M  V30 3851 C 346.361 -4.68159 -3.94327 0
M  V30 3852 N 345.498 -4.77959 -5.14296 0
M  V30 3853 H 350.338 -2.74938 -1.14948 0
M  V30 3854 H 347.875 -1.36166 -0.556538 0
M  V30 3855 H 349.833 -2.1728 -3.56153 0
M  V30 3856 H 348.463 -1.1757 -3.00628 0
M  V30 3857 H 347.515 -3.31246 -1.8703 0
M  V30 3858 H 348.827 -4.23139 -2.64111 0
M  V30 3859 H 347.981 -3.57333 -4.90304 0
M  V30 3860 H 346.72 -2.55245 -4.15574 0
M  V30 3861 H 345.725 -4.57461 -3.04974 0
M  V30 3862 H 346.95 -5.60868 -3.82889 0
M  V30 3863 H 344.896 -3.89544 -5.27818 0
M  V30 3864 H 344.813 -5.6133 -5.06404 0
M  V30 3865 H 346.081 -4.93044 -6.03761 0
M  V30 3866 N 350.31 0.590341 -1.46126 0
M  V30 3867 C 351.721 1.17243 -1.45296 0
M  V30 3868 C 352.072 1.95281 -0.189723 0
M  V30 3869 O 351.197 2.04502 0.707674 0
M  V30 3870 C 351.792 2.13284 -2.6324 0
M  V30 3871 C 350.351 2.66832 -2.65476 0
M  V30 3872 C 349.498 1.42557 -2.3785 0
M  V30 3873 H 352.449 0.378692 -1.54116 0
M  V30 3874 H 352.47 2.96619 -2.38323 0
M  V30 3875 H 351.982 1.56459 -3.55165 0
M  V30 3876 H 350.083 3.27548 -1.77603 0
M  V30 3877 H 350.196 3.10088 -3.65215 0
M  V30 3878 H 348.56 1.72107 -1.87753 0
M  V30 3879 H 349.343 0.875741 -3.31942 0
M  V30 3880 N 351.788 1.33704 0.83433 0
M  V30 3881 C 353.065 1.16011 1.57483 0
M  V30 3882 C 353.445 -0.27176 2.09343 0
M  V30 3883 O 352.793 -1.27146 1.89858 0
M  V30 3884 C 353.003 2.20507 2.70514 0
M  V30 3885 C 354.351 2.54898 3.39577 0
M  V30 3886 O 355.375 2.19209 2.80759 0
M  V30 3887 O 354.234 3.16158 4.45765 0
M  V30 3888 H 351.328 0.448992 0.694503 0
M  V30 3889 H 353.874 1.453 0.876691 0
M  V30 3890 H 352.646 3.16667 2.29865 0
M  V30 3891 H 352.269 1.92329 3.47987 0
M  V30 3892 N 353.266 -1.05314 1.17247 0
M  V30 3893 C 354.512 -1.78557 0.961513 0
M  V30 3894 C 354.845 -1.87419 -0.508697 0
M  V30 3895 O 354.12 -1.37307 -1.37757 0
M  V30 3896 C 354.403 -3.22514 1.60176 0
M  V30 3897 C 354.256 -3.21673 3.14399 0
M  V30 3898 C 355.575 -4.20318 1.30463 0
M  V30 3899 H 352.694 -0.6482 0.350723 0
M  V30 3900 H 355.336 -1.23102 1.44727 0
M  V30 3901 H 353.486 -3.69867 1.18871 0
M  V30 3902 H 355.158 -2.82405 3.64753 0
M  V30 3903 H 353.401 -2.60048 3.47214 0
M  V30 3904 H 354.072 -4.23271 3.54324 0
M  V30 3905 H 356.548 -3.81454 1.66229 0
M  V30 3906 H 355.424 -5.19289 1.77848 0
M  V30 3907 H 355.685 -4.41526 0.22521 0
M  V30 3908 N 354.744 -0.972509 -1.24016 0
M  V30 3909 C 355.993 -0.632603 -1.91523 0
M  V30 3910 C 356.306 0.836641 -1.76804 0
M  V30 3911 O 357.512 1.28728 -2.39043 0
M  V30 3912 C 355.968 -1.08082 -3.43287 0
M  V30 3913 C 355.576 -2.57386 -3.66683 0
M  V30 3914 C 357.32 -0.814288 -4.16617 0
M  V30 3915 C 355.227 -2.95915 -5.12043 0
M  V30 3916 H 354.157 -0.232898 -0.717129 0
M  V30 3917 H 356.808 -1.17936 -1.40582 0
M  V30 3918 H 355.19 -0.462339 -3.93292 0
M  V30 3919 H 356.364 -3.24405 -3.27258 0
M  V30 3920 H 354.679 -2.81701 -3.06649 0
M  V30 3921 H 357.276 -1.0781 -5.23718 0
M  V30 3922 H 357.619 0.24955 -4.15551 0
M  V30 3923 H 358.152 -1.39397 -3.72577 0
M  V30 3924 H 354.891 -4.0139 -5.18234 0
M  V30 3925 H 354.411 -2.33584 -5.52448 0
M  V30 3926 H 356.09 -2.86086 -5.80314 0
M  V30 3927 N 356.222 1.38976 -0.743202 0
M  V30 3928 C 357.169 2.30544 -0.10861 0
M  V30 3929 C 358.139 1.49642 0.720869 0
M  V30 3930 O 359.324 1.78304 0.679142 0
M  V30 3931 C 356.464 3.36018 0.786496 0
M  V30 3932 C 355.577 4.31963 -0.0564849 0
M  V30 3933 C 354.712 5.24506 0.840657 0
M  V30 3934 C 353.751 6.121 -0.00658363 0
M  V30 3935 N 352.888 6.96973 0.846943 0
M  V30 3936 H 357.728 2.8424 -0.895088 0
M  V30 3937 H 355.265 1.3995 -0.453048 0
M  V30 3938 H 357.223 3.95768 1.31999 0
M  V30 3939 H 355.853 2.83758 1.53887 0
M  V30 3940 H 354.905 3.73763 -0.707492 0
M  V30 3941 H 356.217 4.93703 -0.711229 0
M  V30 3942 H 355.371 5.89322 1.4417 0
M  V30 3943 H 354.11 4.63107 1.52916 0
M  V30 3944 H 353.115 5.46289 -0.620366 0
M  V30 3945 H 354.34 6.75565 -0.691992 0
M  V30 3946 H 352.286 6.38133 1.52059 0
M  V30 3947 H 352.203 7.5559 0.248864 0
M  V30 3948 H 353.471 7.6621 1.43328 0
M  V30 3949 N 357.7 0.491464 1.49741 0
M  V30 3950 C 358.94 -0.0549118 2.04326 0
M  V30 3951 C 359.304 -1.35148 1.36378 0
M  V30 3952 O 360.505 -1.9815 1.81631 0
M  V30 3953 C 358.776 -0.213841 3.5676 0
M  V30 3954 S 360.335 -0.715839 4.32922 0
M  V30 3955 H 357.153 -0.00630513 0.710972 0
M  V30 3956 H 359.755 0.663257 1.83905 0
M  V30 3957 H 358.459 0.73527 4.0376 0
M  V30 3958 H 357.99 -0.957529 3.81569 0
M  V30 3959 H 360.005 -1.9864 4.54705 0
M  V30 3960 N 359.178 -1.55987 0.224894 0
M  V30 3961 C 360.125 -2.20436 -0.68385 0
M  V30 3962 C 361.095 -1.16102 -1.18783 0
M  V30 3963 O 362.28 -1.4447 -1.24632 0
M  V30 3964 C 359.42 -2.89076 -1.88491 0
M  V30 3965 C 358.533 -4.08012 -1.41951 0
M  V30 3966 C 357.668 -4.64426 -2.5784 0
M  V30 3967 C 356.707 -5.75656 -2.08053 0
M  V30 3968 N 355.844 -6.26347 -3.17227 0
M  V30 3969 H 360.684 -2.97727 -0.12754 0
M  V30 3970 H 358.221 -1.47011 -0.0511978 0
M  V30 3971 H 360.179 -3.27059 -2.59014 0
M  V30 3972 H 358.809 -2.14298 -2.41405 0
M  V30 3973 H 357.861 -3.75492 -0.609095 0
M  V30 3974 H 359.173 -4.88375 -1.01447 0
M  V30 3975 H 358.327 -5.04869 -3.3644 0
M  V30 3976 H 357.066 -3.83233 -3.01635 0
M  V30 3977 H 356.071 -5.34712 -1.27916 0
M  V30 3978 H 357.296 -6.58686 -1.65255 0
M  V30 3979 H 355.242 -5.48067 -3.60497 0
M  V30 3980 H 355.159 -7.01843 -2.80986 0
M  V30 3981 H 356.427 -6.71447 -3.95953 0
M  V30 3982 N 360.656 0.0484629 -1.57525 0
M  V30 3983 C 361.603 1.05504 -2.05275 0
M  V30 3984 C 362.573 1.37084 -0.937927 0
M  V30 3985 O 363.758 1.47754 -1.2072 0
M  V30 3986 C 360.898 2.35676 -2.52093 0
M  V30 3987 C 360.011 2.10423 -3.77288 0
M  V30 3988 C 359.146 3.34327 -4.12794 0
M  V30 3989 C 358.185 3.04542 -5.30962 0
M  V30 3990 N 357.322 4.20841 -5.61994 0
M  V30 3991 H 362.162 0.640885 -2.91027 0
M  V30 3992 H 359.699 0.304854 -1.43906 0
M  V30 3993 H 361.657 3.11709 -2.77297 0
M  V30 3994 H 360.287 2.7485 -1.69285 0
M  V30 3995 H 359.339 1.24976 -3.59284 0
M  V30 3996 H 360.651 1.84438 -4.63448 0
M  V30 3997 H 359.805 4.1874 -4.39024 0
M  V30 3998 H 358.544 3.63408 -3.25247 0
M  V30 3999 H 357.549 2.18528 -5.04505 0
M  V30 4000 H 358.774 2.76758 -6.20146 0
M  V30 4001 H 356.72 4.4991 -4.77406 0
M  V30 4002 H 356.637 3.98212 -6.42622 0
M  V30 4003 H 357.905 5.06184 -5.92789 0
M  V30 4004 N 362.134 1.5431 0.320358 0
M  V30 4005 C 363.411 1.63322 1.07635 0
M  V30 4006 C 363.791 0.46912 2.05821 0
M  V30 4007 O 363.139 -0.536274 2.22118 0
M  V30 4008 C 363.349 3.00465 1.77544 0
M  V30 4009 C 364.697 3.56621 2.30449 0
M  V30 4010 O 365.721 3.02791 1.87606 0
M  V30 4011 O 364.58 4.5083 3.08892 0
M  V30 4012 H 361.674 0.661502 0.496331 0
M  V30 4013 H 364.22 1.66656 0.319992 0
M  V30 4014 H 362.992 3.76629 1.06143 0
M  V30 4015 H 362.615 3.00824 2.59982 0
M  V30 4016 N 363.613 -0.582584 1.46437 0
M  V30 4017 C 365.029 -0.905962 1.31394 0
M  V30 4018 C 365.229 -1.99468 0.285476 0
M  V30 4019 O 364.285 -2.50566 -0.311914 0
M  V30 4020 C 365.598 -1.3232 2.70022 0
M  V30 4021 C 367.146 -1.43604 2.78113 0
M  V30 4022 C 367.621 -1.88694 4.17323 0
M  V30 4023 N 369.112 -1.95887 4.19741 0
M  V30 4024 C 369.847 -2.32051 5.24347 0
M  V30 4025 N 369.343 -2.67006 6.39281 0
M  V30 4026 N 371.136 -2.32606 5.11713 0
M  V30 4027 H 363.287 0.1366 2.1196 0
M  V30 4028 H 365.55 -0.00155736 0.947999 0
M  V30 4029 H 365.256 -0.597242 3.46592 0
M  V30 4030 H 365.13 -2.28469 3.00136 0
M  V30 4031 H 367.517 -2.15286 2.01832 0
M  V30 4032 H 367.598 -0.457059 2.51684 0
M  V30 4033 H 367.242 -1.1759 4.941 0
M  V30 4034 H 367.172 -2.8755 4.4116 0
M  V30 4035 H 369.663 -1.71362 3.36814 0
M  V30 4036 H 369.976 -2.93554 7.14875 0
M  V30 4037 H 368.321 -2.64644 6.42642 0
M  V30 4038 H 371.512 -2.04721 4.2096 0
M  V30 4039 H 371.685 -2.60462 5.93349 0
M  V30 4040 N 365.091 -1.34144 -0.827227 0
M  V30 4041 C 366.316 -1.29476 -1.62021 0
M  V30 4042 C 366.741 0.129292 -1.87655 0
M  V30 4043 O 366.099 1.08967 -1.449 0
M  V30 4044 C 366.147 -2.08702 -2.94068 0
M  V30 4045 O 365.251 -1.45359 -3.85933 0
M  V30 4046 H 364.592 -0.444881 -0.492927 0
M  V30 4047 H 367.122 -1.76882 -1.02829 0
M  V30 4048 H 367.132 -2.19898 -3.43669 0
M  V30 4049 H 365.807 -3.12241 -2.74734 0
M  V30 4050 H 364.384 -1.42879 -3.44442 0
M  V30 4051 N 366.569 1.04691 -1.17803 0
M  V30 4052 C 367.98 1.59238 -0.974689 0
M  V30 4053 C 368.331 1.90306 0.477292 0
M  V30 4054 O 367.456 1.68846 1.35352 0
M  V30 4055 C 368.051 2.89318 -1.76296 0
M  V30 4056 C 366.61 3.40506 -1.60414 0
M  V30 4057 C 365.757 2.14172 -1.76141 0
M  V30 4058 H 368.708 0.874395 -1.32439 0
M  V30 4059 H 368.729 3.5944 -1.24833 0
M  V30 4060 H 368.241 2.66675 -2.81968 0
M  V30 4061 H 366.342 3.68175 -0.572519 0
M  V30 4062 H 366.455 4.14753 -2.39827 0
M  V30 4063 H 364.819 2.25176 -1.19028 0
M  V30 4064 H 365.602 1.93992 -2.83235 0
M  V30 4065 N 368.047 0.979072 1.23499 0
M  V30 4066 C 369.272 0.664845 1.96455 0
M  V30 4067 C 369.697 -0.761287 1.72006 0
M  V30 4068 O 369.055 -1.51837 0.990713 0
M  V30 4069 C 369.103 0.959479 3.47601 0
M  V30 4070 O 368.207 0.0508168 4.12369 0
M  V30 4071 H 367.548 0.250185 0.615064 0
M  V30 4072 H 370.078 1.31231 1.5697 0
M  V30 4073 H 370.088 0.895642 3.98048 0
M  V30 4074 H 368.763 1.99876 3.64723 0
M  V30 4075 H 367.34 0.16895 3.72517 0
M  V30 4076 N 369.525 -1.3858 0.750561 0
M  V30 4077 C 370.75 -2.04997 0.314812 0
M  V30 4078 C 371.175 -1.56235 -1.04749 0
M  V30 4079 O 370.533 -0.712981 -1.66692 0
M  V30 4080 C 370.581 -3.58961 0.343415 0
M  V30 4081 O 369.685 -4.07025 -0.663628 0
M  V30 4082 H 369.026 -0.649081 0.139962 0
M  V30 4083 H 371.556 -1.77313 1.02084 0
M  V30 4084 H 371.566 -4.07542 0.193233 0
M  V30 4085 H 370.241 -3.93811 1.33738 0
M  V30 4086 H 368.818 -3.6982 -0.478307 0
M  V30 4087 N 371.003 -0.499398 -1.49478 0
M  V30 4088 C 371.966 0.268838 -2.27618 0
M  V30 4089 C 372.966 0.895383 -1.33565 0
M  V30 4090 O 374.156 0.760164 -1.56739 0
M  V30 4091 C 371.288 1.38559 -3.11471 0
M  V30 4092 H 372.481 -0.416812 -2.96989 0
M  V30 4093 H 370.034 -0.254313 -1.54217 0
M  V30 4094 H 370.769 2.10544 -2.46661 0
M  V30 4095 H 370.554 0.941797 -3.80621 0
M  V30 4096 H 372.044 1.92678 -3.70493 0
M  V30 4097 N 372.481 1.55866 -0.233164 0
M  V30 4098 C 373.413 2.18099 0.704668 0
M  V30 4099 C 374.426 1.15334 1.14899 0
M  V30 4100 O 375.615 1.42262 1.07814 0
M  V30 4101 C 372.715 2.7592 1.96777 0
M  V30 4102 C 371.888 4.03969 1.67713 0
M  V30 4103 C 370.947 4.46242 2.78845 0
M  V30 4104 O 369.973 5.12903 2.46818 0
M  V30 4105 N 371.175 4.12886 4.08051 0
M  V30 4106 H 373.94 2.99205 0.172258 0
M  V30 4107 H 371.501 1.61815 -0.0525945 0
M  V30 4108 H 373.493 3.01165 2.70337 0
M  V30 4109 H 372.063 1.99051 2.41034 0
M  V30 4110 H 371.283 3.86459 0.777391 0
M  V30 4111 H 372.571 4.8748 1.4574 0
M  V30 4112 H 371.969 3.59342 4.3691 0
M  V30 4113 H 370.526 4.42997 4.78118 0
M  V30 4114 N 373.959 -0.0401083 1.57549 0
M  V30 4115 C 374.891 -1.07149 2.02612 0
M  V30 4116 C 375.904 -1.33126 0.937085 0
M  V30 4117 O 377.093 -1.30808 1.21456 0
M  V30 4118 C 374.193 -2.41561 2.37701 0
M  V30 4119 C 373.366 -2.35096 3.68848 0
M  V30 4120 C 372.425 -3.51867 3.91249 0
M  V30 4121 O 371.451 -3.3186 4.62447 0
M  V30 4122 N 372.653 -4.73351 3.36035 0
M  V30 4123 H 375.418 -0.687485 2.91708 0
M  V30 4124 H 372.979 -0.228248 1.60283 0
M  V30 4125 H 374.971 -3.18379 2.49833 0
M  V30 4126 H 373.541 -2.71846 1.54332 0
M  V30 4127 H 372.761 -1.4345 3.67173 0
M  V30 4128 H 374.049 -2.27908 4.54901 0
M  V30 4129 H 373.447 -4.92507 2.78304 0
M  V30 4130 H 372.004 -5.47572 3.53565 0
M  V30 4131 N 375.437 -1.54477 -0.31217 0
M  V30 4132 C 376.677 -1.74958 -1.05684 0
M  V30 4133 C 377.041 -0.518414 -1.84869 0
M  V30 4134 O 378.242 -0.600759 -2.62001 0
M  V30 4135 C 376.513 -2.99656 -1.94785 0
M  V30 4136 S 378.072 -3.4109 -2.76049 0
M  V30 4137 H 374.89 -0.615104 -0.356606 0
M  V30 4138 H 377.492 -1.92669 -0.331514 0
M  V30 4139 H 376.196 -3.87397 -1.35468 0
M  V30 4140 H 375.727 -2.845 -2.71704 0
M  V30 4141 H 377.742 -2.97283 -3.97287 0
M  V30 4142 N 376.915 0.57481 -1.46744 0
M  V30 4143 C 378.326 1.15695 -1.46532 0
M  V30 4144 C 378.677 1.95068 -0.210425 0
M  V30 4145 O 377.802 2.05241 0.685944 0
M  V30 4146 C 378.397 2.1048 -2.65487 0
M  V30 4147 C 376.956 2.64002 -2.68291 0
M  V30 4148 C 376.103 1.40026 -2.39349 0
M  V30 4149 H 379.054 0.362325 -1.54509 0
M  V30 4150 H 379.075 2.94074 -2.41455 0
M  V30 4151 H 378.587 1.52683 -3.56805 0
M  V30 4152 H 376.688 3.25646 -1.81067 0
M  V30 4153 H 376.801 3.06197 -3.68483 0
M  V30 4154 H 375.165 1.70106 -1.89568 0
M  V30 4155 H 375.948 0.840485 -3.32852 0
M  V30 4156 N 378.394 1.34581 0.820102 0
M  V30 4157 C 379.324 1.29038 1.94606 0
M  V30 4158 C 380.305 0.1673 1.69275 0
M  V30 4159 O 381.49 0.360112 1.90832 0
M  V30 4160 C 378.62 1.04793 3.31113 0
M  V30 4161 C 377.574 2.13597 3.70891 0
M  V30 4162 C 376.9 1.74537 5.05412 0
M  V30 4163 C 378.2 3.55451 3.8269 0
M  V30 4164 H 379.894 2.23248 1.99501 0
M  V30 4165 H 377.44 1.0747 0.958449 0
M  V30 4166 H 379.393 0.995592 4.0947 0
M  V30 4167 H 378.117 0.0702565 3.26524 0
M  V30 4168 H 376.776 2.17905 2.9481 0
M  V30 4169 H 376.424 0.754226 4.97313 0
M  V30 4170 H 376.124 2.47361 5.32997 0
M  V30 4171 H 377.648 1.70803 5.86224 0
M  V30 4172 H 379.062 3.5354 4.51312 0
M  V30 4173 H 377.459 4.26922 4.21732 0
M  V30 4174 H 378.529 3.92587 2.84611 0
M  V30 4175 N 379.872 -1.04064 1.18357 0
M  V30 4176 C 381.112 -1.78829 0.989921 0
M  V30 4177 C 381.476 -1.86106 -0.472095 0
M  V30 4178 O 382.677 -2.57076 -0.785187 0
M  V30 4179 C 380.948 -3.1823 1.6268 0
M  V30 4180 S 382.507 -4.09332 1.58091 0
M  V30 4181 H 379.325 -0.615754 0.355482 0
M  V30 4182 H 381.927 -1.24778 1.50501 0
M  V30 4183 H 380.631 -3.10543 2.68311 0
M  V30 4184 H 380.162 -3.77357 1.112 0
M  V30 4185 H 382.177 -4.92598 0.596817 0
M  V30 4186 N 381.35 -0.985608 -1.22978 0
M  V30 4187 C 382.283 -0.47487 -2.23204 0
M  V30 4188 C 383.261 0.460865 -1.55932 0
M  V30 4189 O 384.445 0.388105 -1.84461 0
M  V30 4190 C 381.572 0.312427 -3.37256 0
M  V30 4191 C 380.618 -0.568219 -4.22698 0
M  V30 4192 S 381.451 -2.01919 -4.95973 0
M  V30 4193 C 382.607 -1.24118 -6.1347 0
M  V30 4194 H 382.84 -1.32419 -2.66181 0
M  V30 4195 H 380.373 -0.792005 -1.32539 0
M  V30 4196 H 382.331 0.760645 -4.03391 0
M  V30 4197 H 380.992 1.13693 -2.92801 0
M  V30 4198 H 380.185 0.0371657 -5.03986 0
M  V30 4199 H 379.787 -0.952897 -3.61657 0
M  V30 4200 H 382.079 -0.505121 -6.75614 0
M  V30 4201 H 383.022 -2.02907 -6.78406 0
M  V30 4202 H 383.43 -0.757669 -5.59392 0
M  V30 4203 N 382.828 1.3818 -0.7579 0
M  V30 4204 C 383.776 2.32277 -0.122482 0
M  V30 4205 C 384.77 1.54238 0.700505 0
M  V30 4206 O 385.976 1.69737 0.599119 0
M  V30 4207 H 382.351 0.751712 -0.0208143 0
M  V30 4208 H 384.322 2.83469 -0.932099 0
M  V30 4209 C 383.071 3.39447 0.753076 0
M  V30 4210 H 382.394 3.99591 0.129184 0
M  V30 4211 H 383.834 4.07684 1.16489 0
M  V30 4212 C 382.293 2.78375 1.8976 0
M  V30 4213 O 382.823 2.68025 2.99208 0
M  V30 4214 N 381.029 2.36121 1.69397 0
M  V30 4215 H 380.576 2.4474 0.803762 0
M  V30 4216 H 380.534 1.95602 2.46145 0
M  V30 4217 N 384.306 0.507319 1.49211 0
M  V30 4218 C 385.717 0.0611118 1.866 0
M  V30 4219 C 386.068 -1.35488 1.41907 0
M  V30 4220 O 385.193 -2.0108 0.799726 0
M  V30 4221 C 385.788 0.104125 3.3864 0
M  V30 4222 C 384.347 -0.28677 3.75306 0
M  V30 4223 C 383.494 0.473893 2.73221 0
M  V30 4224 H 386.445 0.719775 1.41439 0
M  V30 4225 H 386.466 -0.689672 3.74198 0
M  V30 4226 H 385.978 1.13482 3.71138 0
M  V30 4227 H 384.079 -1.32046 3.48417 0
M  V30 4228 H 384.192 0.0370745 4.79086 0
M  V30 4229 H 382.556 -0.0770644 2.54583 0
M  V30 4230 H 383.339 1.50478 3.08563 0
M  V30 4231 N 385.784 -1.5574 0.241426 0
M  V30 4232 C 387.2 -1.59196 -0.113548 0
M  V30 4233 C 387.4 -1.25852 -1.57364 0
M  V30 4234 O 386.456 -1.00322 -2.31715 0
M  V30 4235 C 387.769 -2.99814 0.230695 0
M  V30 4236 C 389.317 -3.12513 0.174547 0
M  V30 4237 C 389.792 -4.55342 0.492744 0
M  V30 4238 N 391.283 -4.61076 0.443043 0
M  V30 4239 C 392.018 -5.6956 0.662484 0
M  V30 4240 N 391.514 -6.86328 0.944761 0
M  V30 4241 N 393.307 -5.58957 0.593564 0
M  V30 4242 H 385.458 -1.75685 1.19368 0
M  V30 4243 H 387.721 -0.81756 0.479896 0
M  V30 4244 H 387.427 -3.28932 1.24485 0
M  V30 4245 H 387.301 -3.74568 -0.444833 0
M  V30 4246 H 389.688 -2.83179 -0.830277 0
M  V30 4247 H 389.769 -2.40045 0.883845 0
M  V30 4248 H 389.413 -4.85396 1.4951 0
M  V30 4249 H 389.343 -5.26062 -0.23797 0
M  V30 4250 H 391.834 -3.77179 0.233374 0
M  V30 4251 H 392.147 -7.64935 1.09977 0
M  V30 4252 H 390.492 -6.88025 0.982175 0
M  V30 4253 H 393.683 -4.66611 0.373123 0
M  V30 4254 H 393.856 -6.43433 0.767981 0
M  V30 4255 N 387.262 0.0317525 -1.57568 0
M  V30 4256 C 388.49 0.734949 -1.93407 0
M  V30 4257 C 388.905 1.69036 -0.84096 0
M  V30 4258 O 388.262 1.81582 0.182836 0
M  V30 4259 C 388.313 1.49432 -3.29169 0
M  V30 4260 O 388.034 0.577261 -4.3428 0
M  V30 4261 C 389.535 2.29492 -3.79273 0
M  V30 4262 H 386.755 0.206706 -0.638368 0
M  V30 4263 H 389.299 -0.00992046 -2.04498 0
M  V30 4264 H 387.454 2.1911 -3.19483 0
M  V30 4265 H 387.868 1.10952 -5.1263 0
M  V30 4266 H 389.342 2.78172 -4.76785 0
M  V30 4267 H 389.819 3.10794 -3.10328 0
M  V30 4268 H 390.425 1.64894 -3.92033 0
M  V30 4269 N 388.74 1.54641 0.303973 0
M  V30 4270 C 389.965 1.78092 1.06292 0
M  V30 4271 C 390.39 0.537342 1.80262 0
M  V30 4272 O 389.748 -0.511993 1.7392 0
M  V30 4273 C 389.796 2.98612 2.02147 0
M  V30 4274 O 388.9 2.71528 3.10397 0
M  V30 4275 H 388.241 0.589548 0.305497 0
M  V30 4276 H 390.771 2.01716 0.3423 0
M  V30 4277 H 390.781 3.265 2.44667 0
M  V30 4278 H 389.456 3.88785 1.47714 0
M  V30 4279 H 388.033 2.54648 2.72413 0
M  V30 4280 N 390.218 -0.567019 1.47046 0
M  V30 4281 C 391.165 -1.67489 1.58796 0
M  V30 4282 C 392.135 -1.60399 0.43144 0
M  V30 4283 O 393.32 -1.79378 0.650233 0
M  V30 4284 C 390.46 -3.05821 1.59899 0
M  V30 4285 C 389.573 -3.2342 2.86397 0
M  V30 4286 C 388.708 -4.52093 2.789 0
M  V30 4287 C 387.747 -4.6309 4.00267 0
M  V30 4288 N 386.884 -5.83106 3.91064 0
M  V30 4289 H 391.724 -1.56785 2.53422 0
M  V30 4290 H 389.261 -0.763896 1.2571 0
M  V30 4291 H 391.219 -3.8591 1.58522 0
M  V30 4292 H 389.849 -3.15384 0.687929 0
M  V30 4293 H 388.901 -2.3683 2.97684 0
M  V30 4294 H 390.213 -3.27412 3.76301 0
M  V30 4295 H 389.367 -5.4043 2.75718 0
M  V30 4296 H 388.106 -4.50565 1.86662 0
M  V30 4297 H 387.111 -3.73168 4.03765 0
M  V30 4298 H 388.336 -4.66386 4.93621 0
M  V30 4299 H 386.282 -5.82546 3.01623 0
M  V30 4300 H 386.199 -5.88434 4.74638 0
M  V30 4301 H 387.467 -6.73831 3.91882 0
M  V30 4302 N 391.696 -1.35014 -0.812953 0
M  V30 4303 C 392.944 -1.27678 -1.56661 0
M  V30 4304 C 393.265 0.150359 -1.94419 0
M  V30 4305 O 392.535 1.08532 -1.63088 0
M  V30 4306 H 391.115 -0.469602 -0.580933 0
M  V30 4307 H 393.777 -1.69043 -0.970076 0
M  V30 4308 H 392.873 -1.88833 -2.48492 0
M  V30 4309 N 393.175 1.03435 -1.18907 0
M  V30 4310 C 394.122 2.11591 -0.921837 0
M  V30 4311 C 395.092 1.65499 0.141226 0
M  V30 4312 O 396.277 1.908 0.000242829 0
M  V30 4313 C 393.417 3.42012 -0.460616 0
M  V30 4314 C 392.53 4.01682 -1.58982 0
M  V30 4315 C 391.665 5.20091 -1.08069 0
M  V30 4316 C 390.704 5.71805 -2.18416 0
M  V30 4317 N 389.841 6.81494 -1.68849 0
M  V30 4318 H 394.681 2.33787 -1.8479 0
M  V30 4319 H 392.218 1.1467 -0.921373 0
M  V30 4320 H 394.176 4.16834 -0.174642 0
M  V30 4321 H 392.806 3.19944 0.428467 0
M  V30 4322 H 391.858 3.24127 -1.99113 0
M  V30 4323 H 393.17 4.36084 -2.4214 0
M  V30 4324 H 392.324 6.02051 -0.749615 0
M  V30 4325 H 391.063 4.87209 -0.218771 0
M  V30 4326 H 390.068 4.88461 -2.5236 0
M  V30 4327 H 391.293 6.06728 -3.05054 0
M  V30 4328 H 389.239 6.50475 -0.849572 0
M  V30 4329 H 389.156 7.14994 -2.45601 0
M  V30 4330 H 390.424 7.67063 -1.38689 0
M  V30 4331 N 394.653 0.992116 1.22453 0
M  V30 4332 C 396.064 0.702776 1.72968 0
M  V30 4333 C 396.415 -0.780399 1.80012 0
M  V30 4334 O 395.54 -1.61007 1.44589 0
M  V30 4335 C 396.135 1.26903 3.14135 0
M  V30 4336 C 394.694 1.02909 3.62059 0
M  V30 4337 C 393.841 1.38969 2.39964 0
M  V30 4338 H 396.792 1.16457 1.07812 0
M  V30 4339 H 396.813 0.647223 3.74955 0
M  V30 4340 H 396.325 2.34851 3.08977 0
M  V30 4341 H 394.426 -0.0337979 3.72585 0
M  V30 4342 H 394.539 1.69191 4.48231 0
M  V30 4343 H 392.903 0.808279 2.41535 0
M  V30 4344 H 393.686 2.4792 2.37467 0
M  V30 4345 N 396.131 -1.37776 0.765217 0
M  V30 4346 C 397.061 -2.32945 0.160953 0
M  V30 4347 C 398.042 -1.55454 -0.690516 0
M  V30 4348 O 399.227 -1.83721 -0.629318 0
M  V30 4349 C 396.357 -3.39669 -0.724031 0
M  V30 4350 C 395.311 -4.27992 0.0256173 0
M  V30 4351 C 394.637 -5.25673 -0.978383 0
M  V30 4352 C 395.937 -5.08309 1.20082 0
M  V30 4353 H 397.631 -2.83728 0.955969 0
M  V30 4354 H 395.177 -1.36416 0.461149 0
M  V30 4355 H 397.13 -4.05219 -1.15652 0
M  V30 4356 H 395.854 -2.87396 -1.5515 0
M  V30 4357 H 394.513 -3.63964 0.438812 0
M  V30 4358 H 394.161 -4.69682 -1.80022 0
M  V30 4359 H 393.861 -5.85625 -0.481378 0
M  V30 4360 H 395.385 -5.94098 -1.40995 0
M  V30 4361 H 396.799 -5.67034 0.845307 0
M  V30 4362 H 395.196 -5.77554 1.62947 0
M  V30 4363 H 396.266 -4.41365 2.00811 0
M  V30 4364 N 397.609 -0.515225 -1.4894 0
M  V30 4365 C 398.572 0.244681 -2.2789 0
M  V30 4366 C 399.572 0.881166 -1.34507 0
M  V30 4367 O 400.762 0.743497 -1.57537 0
M  V30 4368 C 397.894 1.35247 -3.12923 0
M  V30 4369 H 399.087 -0.448289 -2.96531 0
M  V30 4370 H 396.64 -0.270656 -1.53939 0
M  V30 4371 H 397.375 2.07916 -2.48881 0
M  V30 4372 H 397.16 0.901374 -3.81599 0
M  V30 4373 H 398.65 1.88737 -3.72516 0
M  V30 4374 N 399.087 1.5561 -0.249682 0
M  V30 4375 C 400.02 2.17537 0.689408 0
M  V30 4376 C 400.998 1.12829 1.17083 0
M  V30 4377 O 402.182 1.41229 1.24846 0
M  V30 4378 C 399.309 2.77828 1.93725 0
M  V30 4379 C 398.355 3.95615 1.59346 0
M  V30 4380 S 399.188 5.30988 0.69367 0
M  V30 4381 C 400.344 5.94734 1.95046 0
M  V30 4382 H 400.577 2.96852 0.163142 0
M  V30 4383 H 398.11 1.54362 -0.0341166 0
M  V30 4384 H 400.068 3.13199 2.65361 0
M  V30 4385 H 398.729 1.98454 2.43465 0
M  V30 4386 H 397.922 4.364 2.52132 0
M  V30 4387 H 397.524 3.61535 0.957512 0
M  V30 4388 H 399.816 6.12419 2.89739 0
M  V30 4389 H 400.759 6.90109 1.58604 0
M  V30 4390 H 401.167 5.23832 2.10381 0
M  V30 4391 N 400.565 -0.0233959 1.57583 0
M  V30 4392 C 401.811 -0.714119 1.89811 0
M  V30 4393 C 402.144 -1.74702 0.848113 0
M  V30 4394 O 401.419 -1.94023 -0.136135 0
M  V30 4395 C 401.702 -1.37853 3.32669 0
M  V30 4396 C 401.555 -0.358764 4.48367 0
M  V30 4397 C 402.874 -2.31101 3.7454 0
M  V30 4398 H 399.993 -0.25814 0.690314 0
M  V30 4399 H 402.635 0.0230927 1.89986 0
M  V30 4400 H 400.785 -2.00689 3.3265 0
M  V30 4401 H 402.457 0.268115 4.6052 0
M  V30 4402 H 400.7 0.321387 4.32608 0
M  V30 4403 H 401.371 -0.862242 5.45224 0
M  V30 4404 H 403.847 -1.78304 3.75961 0
M  V30 4405 H 402.723 -2.74567 4.75294 0
M  V30 4406 H 402.984 -3.18018 3.0711 0
M  V30 4407 N 402.043 -1.548 -0.295768 0
M  V30 4408 C 403.268 -1.78653 -1.05346 0
M  V30 4409 C 403.693 -0.546894 -1.79974 0
M  V30 4410 O 403.051 0.502763 -1.7419 0
M  V30 4411 C 403.099 -2.99679 -2.00561 0
M  V30 4412 O 402.203 -2.7317 -3.08953 0
M  V30 4413 H 401.544 -0.59116 -0.302367 0
M  V30 4414 H 404.074 -2.01895 -0.331598 0
M  V30 4415 H 404.084 -3.27793 -2.42932 0
M  V30 4416 H 402.759 -3.89562 -1.4565 0
M  V30 4417 H 401.336 -2.56089 -2.71059 0
M  V30 4418 N 403.521 0.559213 -1.47345 0
M  V30 4419 C 404.484 1.64854 -1.59235 0
M  V30 4420 C 405.484 1.53851 -0.467607 0
M  V30 4421 O 406.674 1.58045 -0.732617 0
M  V30 4422 C 403.806 3.04388 -1.53496 0
M  V30 4423 H 404.999 1.55662 -2.56339 0
M  V30 4424 H 402.552 0.778973 -1.35505 0
M  V30 4425 H 403.287 3.19115 -0.577604 0
M  V30 4426 H 403.072 3.13783 -2.35123 0
M  V30 4427 H 404.562 3.83642 -1.6495 0
M  V30 4428 N 404.999 1.35443 0.805782 0
M  V30 4429 C 405.962 1.28301 1.89925 0
M  V30 4430 C 406.962 0.194285 1.59622 0
M  V30 4431 O 408.152 0.448036 1.6834 0
M  V30 4432 C 405.284 0.984997 3.2636 0
M  V30 4433 H 406.477 2.2553 1.97677 0
M  V30 4434 H 404.03 1.19979 1.00173 0
M  V30 4435 H 404.765 0.016603 3.24296 0
M  V30 4436 H 404.55 1.77269 3.4974 0
M  V30 4437 H 406.04 0.960651 4.064 0
M  V30 4438 N 406.477 -1.02803 1.19454 0
M  V30 4439 C 407.44 -2.09264 0.934955 0
M  V30 4440 C 408.44 -1.60576 -0.0849015 0
M  V30 4441 O 409.63 -1.73554 0.149933 0
M  V30 4442 C 406.762 -3.38482 0.40531 0
M  V30 4443 H 407.955 -2.33726 1.87916 0
M  V30 4444 H 405.508 -1.19426 1.00832 0
M  V30 4445 H 406.243 -3.19689 -0.544899 0
M  V30 4446 H 406.028 -3.75142 1.14065 0
M  V30 4447 H 407.518 -4.16894 0.242806 0
M  V30 4448 N 407.956 -0.998596 -1.21925 0
M  V30 4449 C 409.203 -0.677663 -1.90824 0
M  V30 4450 C 409.531 0.790905 -1.77693 0
M  V30 4451 O 408.786 1.58817 -1.14349 0
M  V30 4452 C 409.085 -1.03648 -3.42041 0
M  V30 4453 C 408.751 -2.49825 -3.75364 0
M  V30 4454 C 407.413 -2.8977 -3.8417 0
M  V30 4455 C 409.765 -3.44545 -3.91073 0
M  V30 4456 C 407.093 -4.23412 -4.06127 0
M  V30 4457 C 409.445 -4.77853 -4.14535 0
M  V30 4458 C 408.109 -5.17531 -4.21566 0
M  V30 4459 H 407.379 -0.247975 -0.698276 0
M  V30 4460 H 410.026 -1.25584 -1.44571 0
M  V30 4461 H 408.331 -0.376457 -3.89987 0
M  V30 4462 H 410.028 -0.766113 -3.93614 0
M  V30 4463 H 406.618 -2.17866 -3.69097 0
M  V30 4464 H 410.802 -3.14853 -3.83642 0
M  V30 4465 H 406.058 -4.53734 -4.09799 0
M  V30 4466 H 410.232 -5.51189 -4.25633 0
M  V30 4467 H 407.859 -6.21102 -4.38333 0
M  V30 4468 N 409.434 1.37368 -0.772513 0
M  V30 4469 C 410.366 2.28899 -0.117502 0
M  V30 4470 C 411.379 1.4867 0.663405 0
M  V30 4471 O 412.568 1.71314 0.501372 0
M  V30 4472 C 409.668 3.2788 0.857192 0
M  V30 4473 C 408.841 4.37207 0.129938 0
M  V30 4474 C 407.9 5.16257 1.01811 0
M  V30 4475 O 406.926 5.67159 0.481601 0
M  V30 4476 N 408.128 5.31058 2.3443 0
M  V30 4477 H 410.893 2.85752 -0.903662 0
M  V30 4478 H 408.454 1.49353 -0.62493 0
M  V30 4479 H 410.446 3.77647 1.45482 0
M  V30 4480 H 409.016 2.7179 1.54432 0
M  V30 4481 H 408.236 3.88827 -0.648605 0
M  V30 4482 H 409.524 5.07434 -0.372559 0
M  V30 4483 H 408.922 4.91287 2.80452 0
M  V30 4484 H 407.479 5.84131 2.89197 0
M  V30 4485 N 410.912 0.523116 1.48665 0
M  V30 4486 C 412.152 -0.0115588 2.04397 0
M  V30 4487 C 412.516 -1.32225 1.39214 0
M  V30 4488 O 413.717 -1.94253 1.85793 0
M  V30 4489 C 411.988 -0.138119 3.57133 0
M  V30 4490 S 413.547 -0.623849 4.34343 0
M  V30 4491 H 410.365 0.00877706 0.710946 0
M  V30 4492 H 412.967 0.702116 1.82457 0
M  V30 4493 H 411.671 0.820748 4.02109 0
M  V30 4494 H 411.202 -0.876377 3.83514 0
M  V30 4495 H 413.217 -1.8895 4.58816 0
M  V30 4496 N 412.39 -1.55475 0.257931 0
M  V30 4497 C 413.353 -2.20551 -0.623706 0
M  V30 4498 C 414.353 -1.17809 -1.09443 0
M  V30 4499 O 415.543 -1.42823 -0.997362 0
M  V30 4500 C 412.675 -2.85784 -1.8585 0
M  V30 4501 H 413.868 -2.99848 -0.0557743 0
M  V30 4502 H 411.421 -1.56298 0.0084422 0
M  V30 4503 H 412.156 -2.10453 -2.46739 0
M  V30 4504 H 411.941 -3.61057 -1.52907 0
M  V30 4505 H 413.431 -3.35553 -2.48584 0
M  V30 4506 N 413.868 0.0150385 -1.57593 0
M  V30 4507 C 414.815 1.01126 -2.07466 0
M  V30 4508 C 415.785 1.35064 -0.966794 0
M  V30 4509 O 416.97 1.4516 -1.23827 0
M  V30 4510 C 414.11 2.30276 -2.57035 0
M  V30 4511 C 413.223 2.02373 -3.81666 0
M  V30 4512 C 412.358 3.25496 -4.19793 0
M  V30 4513 C 411.397 2.93211 -5.37303 0
M  V30 4514 N 410.534 4.08826 -5.70794 0
M  V30 4515 H 415.374 0.57901 -2.92321 0
M  V30 4516 H 412.911 0.27426 -1.44521 0
M  V30 4517 H 414.869 3.05757 -2.83846 0
M  V30 4518 H 413.499 2.71197 -1.75077 0
M  V30 4519 H 412.551 1.17327 -3.61854 0
M  V30 4520 H 413.863 1.74567 -4.67256 0
M  V30 4521 H 413.017 4.09333 -4.47807 0
M  V30 4522 H 411.756 3.56428 -3.32882 0
M  V30 4523 H 410.761 2.07777 -5.09027 0
M  V30 4524 H 411.986 2.63542 -6.25877 0
M  V30 4525 H 409.932 4.39682 -4.86842 0
M  V30 4526 H 409.849 3.84491 -6.50924 0
M  V30 4527 H 411.117 4.93496 -6.03392 0
M  V30 4528 N 415.346 1.54954 0.287554 0
M  V30 4529 C 416.757 1.65732 0.859634 0
M  V30 4530 C 417.108 0.574767 1.87592 0
M  V30 4531 O 416.233 -0.286299 2.14498 0
M  V30 4532 C 416.828 3.00438 1.56597 0
M  V30 4533 C 415.387 3.13292 2.08627 0
M  V30 4534 C 414.534 2.61473 0.923416 0
M  V30 4535 H 417.485 1.5857 0.0642338 0
M  V30 4536 H 417.506 2.92613 2.43224 0
M  V30 4537 H 417.018 3.79207 0.826053 0
M  V30 4538 H 415.119 2.39268 2.85625 0
M  V30 4539 H 415.232 4.19647 2.31157 0
M  V30 4540 H 413.596 2.18264 1.31275 0
M  V30 4541 H 414.379 3.42733 0.197241 0
M  V30 4542 N 416.824 -0.551391 1.4764 0
M  V30 4543 C 418.052 -1.33357 1.58189 0
M  V30 4544 C 418.467 -1.87342 0.234199 0
M  V30 4545 O 417.824 -1.65301 -0.77343 0
M  V30 4546 C 417.875 -2.49942 2.61173 0
M  V30 4547 O 417.596 -1.98187 3.90709 0
M  V30 4548 C 419.097 -3.42072 2.8196 0
M  V30 4549 H 416.317 -0.40631 0.533998 0
M  V30 4550 H 418.861 -0.667367 1.93304 0
M  V30 4551 H 417.016 -3.12489 2.28975 0
M  V30 4552 H 417.43 -2.74342 4.47031 0
M  V30 4553 H 418.904 -4.20278 3.57869 0
M  V30 4554 H 419.381 -3.95978 1.89995 0
M  V30 4555 H 419.987 -2.85336 3.15378 0
M  V30 4556 N 418.302 -1.35869 -0.798587 0
M  V30 4557 C 419.551 -1.28921 -1.5512 0
M  V30 4558 C 419.864 0.13208 -1.95154 0
M  V30 4559 O 421.07 0.323879 -2.69561 0
M  V30 4560 C 419.526 -2.26141 -2.79979 0
M  V30 4561 C 419.134 -3.73658 -2.47151 0
M  V30 4562 C 420.878 -2.28152 -3.57976 0
M  V30 4563 C 418.785 -4.62679 -3.6835 0
M  V30 4564 H 417.715 -0.479031 -0.582276 0
M  V30 4565 H 420.366 -1.61179 -0.877125 0
M  V30 4566 H 418.748 -1.86865 -3.49138 0
M  V30 4567 H 419.922 -4.21616 -1.85947 0
M  V30 4568 H 418.237 -3.74333 -1.82383 0
M  V30 4569 H 420.834 -2.91875 -4.4801 0
M  V30 4570 H 421.177 -1.28748 -3.95891 0
M  V30 4571 H 421.71 -2.65998 -2.95787 0
M  V30 4572 H 418.449 -5.63111 -3.35538 0
M  V30 4573 H 417.969 -4.19442 -4.28752 0
M  V30 4574 H 419.648 -4.78498 -4.35487 0
M  V30 4575 N 419.78 1.02168 -1.19998 0
M  V30 4576 C 421.057 1.72816 -0.916191 0
M  V30 4577 C 421.437 2.03081 0.576325 0
M  V30 4578 O 420.785 1.69122 1.53656 0
M  V30 4579 C 420.995 2.9997 -1.78378 0
M  V30 4580 C 422.343 3.73336 -2.02251 0
M  V30 4581 O 423.367 3.09914 -1.75589 0
M  V30 4582 O 422.226 4.87371 -2.47249 0
M  V30 4583 H 419.32 0.752924 -0.342103 0
M  V30 4584 H 421.866 1.08062 -1.30846 0
M  V30 4585 H 420.638 2.73888 -2.79466 0
M  V30 4586 H 420.261 3.72464 -1.39126 0
M  V30 4587 N 421.258 1.00505 1.21394 0
M  V30 4588 C 422.483 0.706367 1.95001 0
M  V30 4589 C 422.908 -0.72463 1.73582 0
M  V30 4590 O 422.266 -1.49702 1.0227 0
M  V30 4591 C 422.314 1.03299 3.45487 0
M  V30 4592 O 421.418 0.138275 4.12168 0
M  V30 4593 H 420.759 0.263175 0.609619 0
M  V30 4594 H 423.289 1.34531 1.54151 0
M  V30 4595 H 423.299 0.979872 3.96059 0
M  V30 4596 H 421.974 2.07567 3.60401 0
M  V30 4597 H 420.551 0.247928 3.72075 0
M  V30 4598 N 422.737 -1.36956 0.779787 0
M  V30 4599 C 423.962 -2.04283 0.358224 0
M  V30 4600 C 424.387 -1.58422 -1.01411 0
M  V30 4601 O 423.745 -0.748179 -1.65142 0
M  V30 4602 C 423.793 -3.58152 0.419479 0
M  V30 4603 O 422.897 -4.08342 -0.577142 0
M  V30 4604 H 422.238 -0.645967 0.153698 0
M  V30 4605 H 424.768 -1.75108 1.05822 0
M  V30 4606 H 424.778 -4.07041 0.279636 0
M  V30 4607 H 423.453 -3.90886 1.42061 0
M  V30 4608 H 422.03 -3.70751 -0.399755 0
M  V30 4609 N 424.215 -0.530993 -1.48385 0
M  V30 4610 C 425.145 0.219985 -2.32461 0
M  V30 4611 C 426.126 0.934111 -1.42156 0
M  V30 4612 O 427.311 0.919694 -1.71042 0
M  V30 4613 C 424.441 1.26674 -3.23375 0
M  V30 4614 C 423.395 0.67069 -4.22712 0
M  V30 4615 C 422.721 1.82017 -5.02766 0
M  V30 4616 C 424.021 -0.358268 -5.2107 0
M  V30 4617 H 425.715 -0.48187 -2.95497 0
M  V30 4618 H 423.261 -0.233182 -1.42099 0
M  V30 4619 H 425.214 1.80006 -3.81019 0
M  V30 4620 H 423.938 1.99818 -2.58341 0
M  V30 4621 H 422.597 0.158878 -3.66256 0
M  V30 4622 H 422.245 2.54002 -4.34157 0
M  V30 4623 H 421.945 1.42727 -5.70003 0
M  V30 4624 H 423.469 2.35725 -5.63264 0
M  V30 4625 H 424.883 0.0880081 -5.73232 0
M  V30 4626 H 423.28 -0.66861 -5.96364 0
M  V30 4627 H 424.35 -1.26367 -4.68145 0
M  V30 4628 N 425.693 1.55336 -0.266172 0
M  V30 4629 C 426.64 2.22172 0.625165 0
M  V30 4630 C 427.61 1.19211 1.15663 0
M  V30 4631 O 428.795 1.47723 1.20758 0
M  V30 4632 C 425.935 2.93972 1.8076 0
M  V30 4633 C 425.048 4.11632 1.31084 0
M  V30 4634 C 424.183 4.71099 2.45436 0
M  V30 4635 C 423.222 5.8097 1.92718 0
M  V30 4636 N 422.359 6.34538 3.00509 0
M  V30 4637 H 427.199 2.9796 0.0485582 0
M  V30 4638 H 424.736 1.47095 0.0122024 0
M  V30 4639 H 426.694 3.33811 2.50251 0
M  V30 4640 H 425.324 2.20623 2.35638 0
M  V30 4641 H 424.376 3.76975 0.509326 0
M  V30 4642 H 425.688 4.90893 0.884633 0
M  V30 4643 H 424.842 5.13612 3.22936 0
M  V30 4644 H 423.581 3.91096 2.91368 0
M  V30 4645 H 422.586 5.37916 1.13695 0
M  V30 4646 H 423.811 6.62836 1.47733 0
M  V30 4647 H 421.757 5.57433 3.45839 0
M  V30 4648 H 421.674 7.09046 2.62279 0
M  V30 4649 H 422.942 6.81709 3.78011 0
M  V30 4650 N 427.171 -0.0066808 1.57599 0
M  V30 4651 C 428.396 -0.707738 1.94951 0
M  V30 4652 C 428.821 -1.66882 0.867868 0
M  V30 4653 O 428.179 -1.80457 -0.17458 0
M  V30 4654 C 428.227 -1.42162 3.31394 0
M  V30 4655 O 427.331 -2.53578 3.25226 0
M  V30 4656 H 426.672 -0.188752 0.636607 0
M  V30 4657 H 429.202 0.0445193 2.04552 0
M  V30 4658 H 429.212 -1.78655 3.66806 0
M  V30 4659 H 427.887 -0.716903 4.09675 0
M  V30 4660 H 426.464 -2.19463 3.01481 0
M  V30 4661 N 428.649 -1.55105 -0.279332 0
M  V30 4662 C 429.596 -1.8755 -1.34513 0
M  V30 4663 C 430.566 -0.726384 -1.49375 0
M  V30 4664 O 431.751 -0.977063 -1.63884 0
M  V30 4665 C 428.891 -2.14738 -2.70151 0
M  V30 4666 C 428.004 -3.42285 -2.63562 0
M  V30 4667 C 427.139 -3.59206 -3.91337 0
M  V30 4668 C 426.178 -4.80467 -3.79233 0
M  V30 4669 N 425.315 -4.94079 -4.98829 0
M  V30 4670 H 430.155 -2.78456 -1.06143 0
M  V30 4671 H 427.692 -1.37867 -0.512936 0
M  V30 4672 H 429.65 -2.28501 -3.49061 0
M  V30 4673 H 428.28 -1.27075 -2.96735 0
M  V30 4674 H 427.332 -3.37029 -1.76397 0
M  V30 4675 H 428.644 -4.31328 -2.50515 0
M  V30 4676 H 427.798 -3.72751 -4.78687 0
M  V30 4677 H 426.537 -2.68337 -4.07243 0
M  V30 4678 H 425.542 -4.66932 -2.90266 0
M  V30 4679 H 426.767 -5.72765 -3.64852 0
M  V30 4680 H 424.713 -4.06139 -5.15158 0
M  V30 4681 H 424.63 -5.77156 -4.8829 0
M  V30 4682 H 425.898 -5.12003 -5.8777 0
M  V30 4683 N 430.127 0.543554 -1.4793 0
M  V30 4684 C 431.352 1.32995 -1.59145 0
M  V30 4685 C 431.777 1.86472 -0.246956 0
M  V30 4686 O 431.135 1.63696 0.779324 0
M  V30 4687 C 431.183 2.46623 -2.63077 0
M  V30 4688 O 430.287 3.49261 -2.19295 0
M  V30 4689 H 429.628 0.394472 -0.534124 0
M  V30 4690 H 432.158 0.655489 -1.93816 0
M  V30 4691 H 432.168 2.93001 -2.83926 0
M  V30 4692 H 430.843 2.07059 -3.60693 0
M  V30 4693 H 429.42 3.09094 -2.08603 0
M  V30 4694 N 431.605 1.3629 0.791371 0
M  V30 4695 C 432.535 1.33137 1.91825 0
M  V30 4696 C 433.516 0.203168 1.68882 0
M  V30 4697 O 434.701 0.400509 1.90025 0
M  V30 4698 C 431.831 1.11793 3.28816 0
M  V30 4699 C 430.785 2.21417 3.66277 0
M  V30 4700 C 430.111 1.85218 5.01596 0
M  V30 4701 C 431.411 3.63489 3.75064 0
M  V30 4702 H 433.105 2.2743 1.9472 0
M  V30 4703 H 430.651 1.09479 0.935437 0
M  V30 4704 H 432.604 1.08222 4.07266 0
M  V30 4705 H 431.328 0.139501 3.26302 0
M  V30 4706 H 429.987 2.2411 2.90121 0
M  V30 4707 H 429.635 0.859544 4.95602 0
M  V30 4708 H 429.335 2.58611 5.27631 0
M  V30 4709 H 430.859 1.832 5.82469 0
M  V30 4710 H 432.273 3.63034 4.43711 0
M  V30 4711 H 430.67 4.35771 4.12582 0
M  V30 4712 H 431.74 3.98536 2.76219 0
M  V30 4713 N 433.083 -1.0153 1.20538 0
M  V30 4714 C 434.311 -1.78746 1.04199 0
M  V30 4715 C 434.726 -1.84323 -0.408733 0
M  V30 4716 O 434.083 -1.29714 -1.28377 0
M  V30 4717 C 434.134 -3.23152 1.62035 0
M  V30 4718 O 433.855 -3.17918 3.0143 0
M  V30 4719 C 435.356 -4.16911 1.50666 0
M  V30 4720 H 432.576 -0.56208 0.366479 0
M  V30 4721 H 435.12 -1.27794 1.59653 0
M  V30 4722 H 433.275 -3.71248 1.10697 0
M  V30 4723 H 433.689 -4.08567 3.28897 0
M  V30 4724 H 435.163 -5.16072 1.95892 0
M  V30 4725 H 435.64 -4.36791 0.459363 0
M  V30 4726 H 436.246 -3.74698 2.01201 0
M  V30 4727 N 434.561 -1.01147 -1.20859 0
M  V30 4728 C 435.81 -0.693214 -1.89413 0
M  V30 4729 C 436.123 0.779969 -1.79376 0
M  V30 4730 O 437.329 1.21057 -2.43017 0
M  V30 4731 C 435.785 -1.18949 -3.39675 0
M  V30 4732 C 435.393 -2.68921 -3.58309 0
M  V30 4733 C 437.137 -0.94642 -4.13815 0
M  V30 4734 C 435.044 -3.12056 -5.0237 0
M  V30 4735 H 433.974 -0.255595 -0.709357 0
M  V30 4736 H 436.625 -1.22349 -1.36759 0
M  V30 4737 H 435.007 -0.587228 -3.91622 0
M  V30 4738 H 436.181 -3.34652 -3.16772 0
M  V30 4739 H 434.496 -2.91314 -2.97532 0
M  V30 4740 H 437.093 -1.24417 -5.20023 0
M  V30 4741 H 437.436 0.117219 -4.16135 0
M  V30 4742 H 437.969 -1.5118 -3.67953 0
M  V30 4743 H 434.708 -4.17674 -5.05202 0
M  V30 4744 H 434.228 -2.51041 -5.44737 0
M  V30 4745 H 435.907 -3.04403 -5.70918 0
M  V30 4746 N 436.039 1.36541 -0.78704 0
M  V30 4747 C 436.969 2.32659 -0.197992 0
M  V30 4748 C 437.95 1.56533 0.665697 0
M  V30 4749 O 439.135 1.84698 0.60001 0
M  V30 4750 C 436.265 3.40778 0.669901 0
M  V30 4751 C 435.219 4.27897 -0.0937039 0
M  V30 4752 C 434.545 5.27163 0.894629 0
M  V30 4753 C 435.845 5.06334 -1.28154 0
M  V30 4754 H 437.539 2.82171 -1.00099 0
M  V30 4755 H 435.085 1.35665 -0.482793 0
M  V30 4756 H 437.038 4.07008 1.09191 0
M  V30 4757 H 435.762 2.89827 1.50558 0
M  V30 4758 H 434.421 3.6322 -0.49666 0
M  V30 4759 H 434.069 4.72486 1.72527 0
M  V30 4760 H 433.769 5.86317 0.388149 0
M  V30 4761 H 435.293 5.96266 1.31525 0
M  V30 4762 H 436.707 5.65617 -0.93541 0
M  V30 4763 H 435.104 5.74888 -1.72115 0
M  V30 4764 H 436.174 4.38114 -2.07807 0
M  V30 4765 N 437.518 0.538854 1.48102 0
M  V30 4766 C 438.428 -0.222648 2.33541 0
M  V30 4767 C 439.444 -0.930225 1.47047 0
M  V30 4768 O 440.62 -0.903211 1.80011 0
M  V30 4769 C 437.685 -1.25064 3.23357 0
M  V30 4770 C 436.746 -0.552469 4.2573 0
M  V30 4771 C 435.979 -1.53149 5.11254 0
M  V30 4772 O 436.202 -2.76487 4.9891 0
M  V30 4773 O 435.136 -1.06602 5.92385 0
M  V30 4774 H 438.962 0.477707 2.99919 0
M  V30 4775 H 436.547 0.299669 1.46364 0
M  V30 4776 H 438.429 -1.8445 3.78888 0
M  V30 4777 H 437.104 -1.93325 2.59629 0
M  V30 4778 H 436.011 0.082114 3.7401 0
M  V30 4779 H 437.344 0.0883526 4.92121 0
M  V30 4780 N 438.996 -1.55193 0.274407 0
M  V30 4781 C 440.273 -1.91584 -0.394331 0
M  V30 4782 C 440.653 -1.19858 -1.73774 0
M  V30 4783 O 440.001 -0.3252 -2.26174 0
M  V30 4784 C 440.211 -3.4487 -0.535311 0
M  V30 4785 C 441.559 -4.16636 -0.818534 0
M  V30 4786 O 442.583 -3.5076 -0.620146 0
M  V30 4787 O 441.442 -5.33209 -1.19792 0
M  V30 4788 H 438.536 -0.798349 -0.215794 0
M  V30 4789 H 441.082 -1.66646 0.320507 0
M  V30 4790 H 439.854 -3.89145 0.410141 0
M  V30 4791 H 439.477 -3.75759 -1.29964 0
M  V30 4792 N 440.474 -0.00167713 -1.576 0
M  V30 4793 C 441.699 0.69739 -1.95323 0
M  V30 4794 C 442.124 1.6642 -0.876706 0
M  V30 4795 O 441.482 1.80548 0.165007 0
M  V30 4796 C 441.53 1.40403 -3.32144 0
M  V30 4797 O 440.634 2.5185 -3.26566 0
M  V30 4798 H 439.975 0.185373 -0.637599 0
M  V30 4799 H 442.505 -0.0553665 -2.04525 0
M  V30 4800 H 442.515 1.76707 -3.67748 0
M  V30 4801 H 441.19 0.695167 -4.10049 0
M  V30 4802 H 439.767 2.17861 -3.0264 0
M  V30 4803 N 441.952 1.55251 0.271103 0
M  V30 4804 C 443.177 1.80306 1.02491 0
M  V30 4805 C 443.602 0.575457 1.79081 0
M  V30 4806 O 442.96 -0.474987 1.74967 0
M  V30 4807 C 443.008 3.02832 1.95768 0
M  V30 4808 O 442.112 2.78051 3.04568 0
M  V30 4809 H 441.453 0.595896 0.292923 0
M  V30 4810 H 443.983 2.02397 0.299436 0
M  V30 4811 H 443.993 3.31616 2.37686 0
M  V30 4812 H 442.668 3.9183 1.39434 0
M  V30 4813 H 441.245 2.60369 2.66951 0
M  V30 4814 N 443.43 -0.535701 1.48216 0
M  V30 4815 C 444.655 -1.32149 1.59848 0
M  V30 4816 C 445.08 -1.86338 0.256842 0
M  V30 4817 O 444.438 -1.64107 -0.770632 0
M  V30 4818 C 444.486 -2.45224 2.64381 0
M  V30 4819 O 443.59 -3.48093 2.21144 0
M  V30 4820 H 442.931 -0.391634 0.536208 0
M  V30 4821 H 445.461 -0.645202 1.94161 0
M  V30 4822 H 445.471 -2.91491 2.85476 0
M  V30 4823 H 444.146 -2.05143 3.61786 0
M  V30 4824 H 442.723 -3.07984 2.10239 0
M  V30 4825 N 444.908 -1.36708 -0.784132 0
M  V30 4826 C 445.871 -1.31307 -1.87859 0
M  V30 4827 C 446.871 -0.219654 -1.59293 0
M  V30 4828 O 448.061 -0.47476 -1.67606 0
M  V30 4829 C 445.193 -1.03679 -3.24751 0
M  V30 4830 H 446.386 -2.28647 -1.94064 0
M  V30 4831 H 443.939 -1.21558 -0.98252 0
M  V30 4832 H 444.674 -0.0681936 -3.24228 0
M  V30 4833 H 444.459 -1.82811 -3.46876 0
M  V30 4834 H 445.949 -1.02518 -4.04821 0
M  V30 4835 N 446.386 1.0089 -1.21074 0
M  V30 4836 C 447.633 1.74607 -1.0256 0
M  V30 4837 C 447.961 1.89426 0.44136 0
M  V30 4838 O 447.216 1.42266 1.34384 0
M  V30 4839 C 447.515 3.16335 -1.66334 0
M  V30 4840 C 447.181 3.21474 -3.16173 0
M  V30 4841 C 445.843 3.22583 -3.57062 0
M  V30 4842 C 448.195 3.19025 -4.12156 0
M  V30 4843 C 445.523 3.18925 -4.92446 0
M  V30 4844 C 447.875 3.16909 -5.47496 0
M  V30 4845 C 446.539 3.16326 -5.87787 0
M  V30 4846 H 445.809 0.638933 -0.375294 0
M  V30 4847 H 448.456 1.18274 -1.50611 0
M  V30 4848 H 446.761 3.75876 -1.10566 0
M  V30 4849 H 448.458 3.72083 -1.49516 0
M  V30 4850 H 445.048 3.2135 -2.83605 0
M  V30 4851 H 449.232 3.17332 -3.81595 0
M  V30 4852 H 444.488 3.16809 -5.22917 0
M  V30 4853 H 448.662 3.13968 -6.21609 0
M  V30 4854 H 446.289 3.13246 -6.92662 0
M  V30 4855 N 447.864 1.01787 1.20321 0
M  V30 4856 C 449.113 0.703249 1.89043 0
M  V30 4857 C 449.426 -0.770445 1.79787 0
M  V30 4858 O 450.632 -1.19767 2.43656 0
M  V30 4859 C 449.088 1.20749 3.3904 0
M  V30 4860 C 448.696 2.70817 3.56878 0
M  V30 4861 C 450.44 0.968352 4.13308 0
M  V30 4862 C 448.347 3.14716 5.00708 0
M  V30 4863 H 447.277 0.259354 0.707991 0
M  V30 4864 H 449.928 1.23072 1.36108 0
M  V30 4865 H 448.31 0.607989 3.91305 0
M  V30 4866 H 449.484 3.36327 3.14993 0
M  V30 4867 H 447.799 2.92888 2.95983 0
M  V30 4868 H 450.396 1.27173 5.19356 0
M  V30 4869 H 450.739 -0.095149 4.16191 0
M  V30 4870 H 451.272 1.53129 3.67146 0
M  V30 4871 H 448.011 4.20347 5.02979 0
M  V30 4872 H 447.531 2.53927 5.43398 0
M  V30 4873 H 449.21 3.07426 5.69296 0
M  V30 4874 N 449.342 -1.36122 0.79427 0
M  V30 4875 C 450.567 -2.03891 0.379871 0
M  V30 4876 C 450.992 -1.59488 -0.997251 0
M  V30 4877 O 450.35 -0.765652 -1.64339 0
M  V30 4878 C 450.398 -3.57687 0.457442 0
M  V30 4879 O 449.502 -4.08931 -0.5338 0
M  V30 4880 H 448.843 -0.6443 0.160541 0
M  V30 4881 H 451.373 -1.73976 1.07673 0
M  V30 4882 H 451.383 -4.06721 0.322792 0
M  V30 4883 H 450.058 -3.89357 1.46199 0
M  V30 4884 H 448.635 -3.71154 -0.360409 0
M  V30 4885 N 450.82 -0.546701 -1.47814 0
M  V30 4886 C 452.231 -0.110564 -1.86372 0
M  V30 4887 C 452.582 1.31678 -1.45449 0
M  V30 4888 O 451.707 1.98889 -0.852758 0
M  V30 4889 C 452.302 -0.193873 -3.38245 0
M  V30 4890 C 450.861 0.187164 -3.75934 0
M  V30 4891 C 450.008 -0.546166 -2.71868 0
M  V30 4892 H 452.959 -0.757022 -1.39481 0
M  V30 4893 H 452.98 0.590218 -3.75895 0
M  V30 4894 H 452.492 -1.23282 -3.67999 0
M  V30 4895 H 450.593 1.22762 -3.51796 0
M  V30 4896 H 450.706 -0.164083 -4.78819 0
M  V30 4897 H 449.07 0.00953904 -2.54698 0
M  V30 4898 H 449.853 -1.58606 -3.04465 0
M  V30 4899 N 452.299 1.55045 -0.282633 0
M  V30 4900 C 453.231 2.2023 0.634924 0
M  V30 4901 C 454.244 1.18931 1.11172 0
M  V30 4902 O 455.433 1.4562 1.03233 0
M  V30 4903 C 452.533 2.82041 1.87899 0
M  V30 4904 C 451.706 4.091 1.54776 0
M  V30 4905 C 450.765 4.54887 2.64507 0
M  V30 4906 O 449.791 5.20496 2.30375 0
M  V30 4907 N 450.993 4.25659 3.94709 0
M  V30 4908 H 453.758 2.99601 0.0769811 0
M  V30 4909 H 451.319 1.61565 -0.104048 0
M  V30 4910 H 453.311 3.09613 2.60619 0
M  V30 4911 H 451.881 2.06618 2.3458 0
M  V30 4912 H 451.101 3.88736 0.654049 0
M  V30 4913 H 452.389 4.9187 1.30158 0
M  V30 4914 H 451.787 3.7306 4.25256 0
M  V30 4915 H 450.344 4.57984 4.63782 0
M  V30 4916 N 453.777 0.010035 1.57597 0
M  V30 4917 C 455.025 -0.671371 1.90623 0
M  V30 4918 C 455.346 -1.73753 0.885151 0
M  V30 4919 O 454.616 -1.95752 -0.0760611 0
M  V30 4920 H 453.196 -0.250968 0.703579 0
M  V30 4921 H 455.858 0.0533325 1.94827 0
M  V30 4922 H 454.954 -1.13626 2.90681 0
M  V30 4923 N 455.255 -1.55392 -0.262866 0
M  V30 4924 C 456.502 -1.76476 -0.993109 0
M  V30 4925 C 456.83 -0.571479 -1.85915 0
M  V30 4926 O 456.085 0.445733 -1.90556 0
M  V30 4927 C 456.384 -3.02889 -1.89718 0
M  V30 4928 C 456.05 -4.34974 -1.18781 0
M  V30 4929 C 454.712 -4.7087 -0.991699 0
M  V30 4930 C 457.064 -5.16695 -0.683798 0
M  V30 4931 C 454.392 -5.86036 -0.279024 0
M  V30 4932 C 456.744 -6.32598 0.0153327 0
M  V30 4933 C 455.408 -6.67127 0.223062 0
M  V30 4934 H 454.678 -0.64577 -0.363404 0
M  V30 4935 H 457.325 -1.89664 -0.264525 0
M  V30 4936 H 455.63 -2.84644 -2.6923 0
M  V30 4937 H 457.327 -3.16399 -2.46359 0
M  V30 4938 H 453.917 -4.06765 -1.35058 0
M  V30 4939 H 458.101 -4.8943 -0.8229 0
M  V30 4940 H 453.357 -6.11306 -0.107456 0
M  V30 4941 H 457.531 -6.95171 0.413584 0
M  V30 4942 H 455.158 -7.56216 0.777265 0
M  V30 4943 N 456.733 0.527833 -1.48498 0
M  V30 4944 C 457.666 1.64892 -1.57753 0
M  V30 4945 C 458.644 1.5687 -0.427867 0
M  V30 4946 O 459.828 1.77311 -0.639764 0
M  V30 4947 C 456.955 3.03301 -1.50752 0
M  V30 4948 C 456.001 3.29675 -2.70586 0
M  V30 4949 S 456.834 3.15712 -4.32535 0
M  V30 4950 C 457.99 4.56564 -4.28136 0
M  V30 4951 H 458.223 1.56792 -2.52594 0
M  V30 4952 H 455.756 0.710959 -1.37057 0
M  V30 4953 H 457.714 3.83123 -1.474 0
M  V30 4954 H 456.375 3.08839 -0.572454 0
M  V30 4955 H 455.568 4.3065 -2.61833 0
M  V30 4956 H 455.17 2.57526 -2.71212 0
M  V30 4957 H 457.462 5.48126 -3.98201 0
M  V30 4958 H 458.405 4.70371 -5.29298 0
M  V30 4959 H 458.813 4.35987 -3.58574 0
M  V30 4960 N 458.211 1.37122 0.776871 0
M  V30 4961 C 459.174 1.32301 1.8716 0
M  V30 4962 C 460.174 0.228099 1.59174 0
M  V30 4963 O 461.364 0.483642 1.67352 0
M  V30 4964 C 458.496 1.054 3.24197 0
M  V30 4965 H 459.689 2.29673 1.92848 0
M  V30 4966 H 457.242 1.22077 0.97606 0
M  V30 4967 H 457.977 0.0853872 3.24188 0
M  V30 4968 H 457.762 1.84648 3.45901 0
M  V30 4969 H 459.252 1.04664 4.04271 0
M  V30 4970 N 459.689 -1.00246 1.21608 0
M  V30 4971 C 461.1 -1.55511 1.03312 0
M  V30 4972 C 461.451 -1.91946 -0.406332 0
M  V30 4973 O 460.576 -1.73753 -1.28992 0
M  V30 4974 C 461.171 -2.82576 1.86913 0
M  V30 4975 C 459.73 -3.34318 1.72941 0
M  V30 4976 C 458.877 -2.07487 1.83968 0
M  V30 4977 H 461.828 -0.824638 1.35593 0
M  V30 4978 H 461.849 -3.54559 1.38087 0
M  V30 4979 H 461.361 -2.56026 2.91672 0
M  V30 4980 H 459.462 -3.65797 0.70877 0
M  V30 4981 H 459.575 -4.05566 2.55055 0
M  V30 4982 H 457.939 -2.20603 1.27304 0
M  V30 4983 H 458.722 -1.83346 2.9024 0
M  V30 4984 N 461.167 -1.02423 -1.1978 0
M  V30 4985 C 462.414 -0.717988 -1.89344 0
M  V30 4986 C 462.742 0.753036 -1.79331 0
M  V30 4987 O 461.997 1.56355 -1.17692 0
M  V30 4988 C 462.296 -1.1088 -3.39765 0
M  V30 4989 C 461.962 -2.57731 -3.6998 0
M  V30 4990 C 460.624 -2.97854 -3.77937 0
M  V30 4991 C 462.976 -3.52763 -3.83677 0
M  V30 4992 C 460.304 -4.31931 -3.97054 0
M  V30 4993 C 462.656 -4.86538 -4.04306 0
M  V30 4994 C 461.32 -5.26356 -4.10494 0
M  V30 4995 H 460.59 -0.26273 -0.692859 0
M  V30 4996 H 463.237 -1.28623 -1.41875 0
M  V30 4997 H 461.542 -0.459094 -3.89101 0
M  V30 4998 H 463.239 -0.849432 -3.919 0
M  V30 4999 H 459.829 -2.25646 -3.64393 0
M  V30 5000 H 464.013 -3.2292 -3.76877 0
M  V30 5001 H 459.269 -4.62324 -4.00083 0
M  V30 5002 H 463.443 -5.60093 -4.13846 0
M  V30 5003 H 461.07 -6.3026 -4.2506 0
M  V30 5004 N 462.645 1.35699 -0.801477 0
M  V30 5005 C 463.893 1.9852 -0.37871 0
M  V30 5006 C 464.214 1.63907 1.05638 0
M  V30 5007 O 463.484 0.919013 1.73006 0
M  V30 5008 H 462.064 0.734322 -0.137042 0
M  V30 5009 H 464.726 1.65697 -1.02619 0
M  V30 5010 H 463.822 3.08382 -0.480284 0
M  V30 5011 N 464.123 0.554532 1.47522 0
M  V30 5012 C 465.348 0.0322661 2.07375 0
M  V30 5013 C 465.773 -1.25079 1.40488 0
M  V30 5014 O 465.131 -1.74859 0.47896 0
M  V30 5015 C 465.179 -0.149397 3.6029 0
M  V30 5016 O 464.283 -1.21259 3.9417 0
M  V30 5017 H 463.624 0.0501228 0.662106 0
M  V30 5018 H 466.154 0.769452 1.8958 0
M  V30 5019 H 466.164 -0.364437 4.06369 0
M  V30 5020 H 464.839 0.787743 4.08372 0
M  V30 5021 H 463.416 -0.97825 3.5984 0
M  V30 5022 N 465.601 -1.54893 0.290851 0
M  V30 5023 C 466.531 -2.26103 -0.583084 0
M  V30 5024 C 467.512 -1.25684 -1.14619 0
M  V30 5025 O 468.697 -1.54436 -1.17741 0
M  V30 5026 C 465.827 -2.99409 -1.75987 0
M  V30 5027 C 464.781 -4.0689 -1.32758 0
M  V30 5028 C 464.107 -4.67856 -2.58872 0
M  V30 5029 C 465.407 -5.20215 -0.46624 0
M  V30 5030 H 467.101 -2.99398 0.0108214 0
M  V30 5031 H 464.647 -1.43998 0.00664468 0
M  V30 5032 H 466.6 -3.47943 -2.37727 0
M  V30 5033 H 465.324 -2.23675 -2.37985 0
M  V30 5034 H 463.983 -3.59191 -0.733299 0
M  V30 5035 H 463.631 -3.88772 -3.19163 0
M  V30 5036 H 463.331 -5.40438 -2.30653 0
M  V30 5037 H 464.855 -5.19147 -3.21433 0
M  V30 5038 H 466.269 -5.64704 -0.989047 0
M  V30 5039 H 464.666 -5.99455 -0.27826 0
M  V30 5040 H 465.736 -4.82198 0.511173 0
M  V30 5041 N 467.08 -0.0183926 -1.57589 0
M  V30 5042 C 468.308 0.673046 -1.95647 0
M  V30 5043 C 468.723 1.66275 -0.894312 0
M  V30 5044 O 468.08 1.82072 0.124975 0
M  V30 5045 C 468.131 1.38884 -3.33756 0
M  V30 5046 O 467.852 0.438806 -4.35897 0
M  V30 5047 C 469.353 2.1731 -3.86383 0
M  V30 5048 H 466.573 0.186292 -0.644621 0
M  V30 5049 H 469.117 -0.0749748 -2.04363 0
M  V30 5050 H 467.272 2.08835 -3.26293 0
M  V30 5051 H 467.686 0.945869 -5.15901 0
M  V30 5052 H 469.16 2.62863 -4.85394 0
M  V30 5053 H 469.637 3.00764 -3.20059 0
M  V30 5054 H 470.243 1.52339 -3.97081 0
M  V30 5055 N 468.558 1.5553 0.254621 0
M  V30 5056 C 469.488 1.9268 1.31897 0
M  V30 5057 C 470.469 0.790797 1.506 0
M  V30 5058 O 471.654 1.05045 1.63337 0
M  V30 5059 C 468.784 2.21477 2.67517 0
M  V30 5060 C 467.738 3.37256 2.63519 0
M  V30 5061 C 467.064 3.51576 4.02862 0
M  V30 5062 C 468.364 4.73157 2.21179 0
M  V30 5063 H 470.058 2.81832 1.01051 0
M  V30 5064 H 467.604 1.35599 0.484662 0
M  V30 5065 H 469.557 2.46055 3.42104 0
M  V30 5066 H 468.281 1.29144 2.99982 0
M  V30 5067 H 466.94 3.12675 1.9139 0
M  V30 5068 H 466.588 2.56676 4.32581 0
M  V30 5069 H 466.288 4.2943 4.01078 0
M  V30 5070 H 467.812 3.78467 4.79161 0
M  V30 5071 H 469.226 4.97158 2.85494 0
M  V30 5072 H 467.623 5.54058 2.30521 0
M  V30 5073 H 468.693 4.70739 1.16332 0
M  V30 5074 N 470.036 -0.519951 1.48776 0
M  V30 5075 C 470.984 -1.64443 1.64503 0
M  V30 5076 C 471.978 -1.61501 0.511248 0
M  V30 5077 O 473.184 -1.66238 0.690294 0
M  V30 5078 H 469.559 -0.544776 0.518385 0
M  V30 5079 H 471.53 -1.48325 2.58925 0
M  V30 5080 C 470.279 -3.02673 1.71127 0
M  V30 5081 H 469.602 -3.05635 2.57735 0
M  V30 5082 H 471.042 -3.80941 1.86172 0
M  V30 5083 C 469.501 -3.33854 0.452032 0
M  V30 5084 O 470.031 -3.99385 -0.430678 0
M  V30 5085 N 468.237 -2.88825 0.32069 0
M  V30 5086 H 467.784 -2.35674 1.03998 0
M  V30 5087 H 467.742 -3.10056 -0.520814 0
M  V30 5088 N 471.514 -1.37532 -0.769588 0
M  V30 5089 C 472.447 -1.27839 -1.8903 0
M  V30 5090 C 473.425 -0.158504 -1.61826 0
M  V30 5091 O 474.609 -0.333086 -1.85534 0
M  V30 5092 C 471.736 -0.977072 -3.24301 0
M  V30 5093 C 470.782 -2.11414 -3.70414 0
M  V30 5094 S 471.615 -3.73409 -3.83831 0
M  V30 5095 C 472.771 -3.45432 -5.21946 0
M  V30 5096 H 473.004 -2.22694 -1.96963 0
M  V30 5097 H 470.537 -1.2318 -0.930914 0
M  V30 5098 H 472.495 -0.810049 -4.02428 0
M  V30 5099 H 471.156 -0.0459701 -3.14066 0
M  V30 5100 H 470.349 -1.85837 -4.68488 0
M  V30 5101 H 469.951 -2.24141 -2.99394 0
M  V30 5102 H 472.243 -3.00554 -6.07185 0
M  V30 5103 H 473.186 -4.42841 -5.52537 0
M  V30 5104 H 473.594 -2.80311 -4.89986 0
M  V30 5105 N 472.992 0.995999 -1.22138 0
M  V30 5106 C 474.22 1.77066 -1.07029 0
M  V30 5107 C 474.635 1.8495 0.379357 0
M  V30 5108 O 473.992 1.3174 1.26297 0
M  V30 5109 C 474.043 3.20533 -1.67155 0
M  V30 5110 O 473.764 3.13082 -3.06449 0
M  V30 5111 C 475.265 4.14461 -1.5728 0
M  V30 5112 H 472.485 0.556179 -0.375374 0
M  V30 5113 H 475.029 1.25238 -1.61666 0
M  V30 5114 H 473.184 3.6944 -1.16589 0
M  V30 5115 H 473.598 4.03283 -3.35355 0
M  V30 5116 H 475.072 5.1289 -2.04078 0
M  V30 5117 H 475.549 4.36005 -0.528795 0
M  V30 5118 H 476.155 3.71449 -2.07136 0
M  V30 5119 N 474.47 1.03057 1.19235 0
M  V30 5120 C 475.747 0.642608 1.84743 0
M  V30 5121 C 476.127 -0.878577 1.91948 0
M  V30 5122 O 475.475 -1.77597 1.43776 0
M  V30 5123 C 475.685 1.30665 3.23616 0
M  V30 5124 C 477.033 1.43098 3.9976 0
M  V30 5125 O 478.057 1.26396 3.3302 0
M  V30 5126 O 476.916 1.70223 5.19313 0
M  V30 5127 H 474.01 0.223573 0.796206 0
M  V30 5128 H 476.556 1.12883 1.26711 0
M  V30 5129 H 475.328 2.34544 3.13217 0
M  V30 5130 H 474.951 0.808405 3.89295 0
M  V30 5131 N 475.948 -1.35272 0.808662 0
M  V30 5132 C 476.88 -2.28507 0.178149 0
M  V30 5133 C 477.893 -1.50377 -0.623754 0
M  V30 5134 O 479.082 -1.72583 -0.455774 0
M  V30 5135 C 476.182 -3.30038 -0.769959 0
M  V30 5136 C 475.355 -4.37398 -0.0139749 0
M  V30 5137 C 474.414 -5.18775 -0.880875 0
M  V30 5138 O 473.44 -5.68236 -0.331059 0
M  V30 5139 N 474.642 -5.37087 -2.20267 0
M  V30 5140 H 477.407 -2.83255 0.979106 0
M  V30 5141 H 474.968 -1.47643 0.664308 0
M  V30 5142 H 476.96 -3.81371 -1.35418 0
M  V30 5143 H 475.53 -2.75789 -1.47171 0
M  V30 5144 H 474.75 -3.86971 0.751468 0
M  V30 5145 H 476.038 -5.06268 0.506965 0
M  V30 5146 H 475.436 -4.9855 -2.67328 0
M  V30 5147 H 473.993 -5.91593 -2.73608 0
M  V30 5148 N 477.426 -0.562348 -1.47226 0
M  V30 5149 C 478.651 -0.0432632 -2.07355 0
M  V30 5150 C 479.076 1.24332 -1.41149 0
M  V30 5151 O 478.434 1.74603 -0.488226 0
M  V30 5152 C 478.482 0.130288 -3.60365 0
M  V30 5153 O 477.586 1.19166 -3.94808 0
M  V30 5154 H 476.927 -0.0536334 -0.66183 0
M  V30 5155 H 479.457 -0.779495 -1.89169 0
M  V30 5156 H 479.467 0.342881 -4.06557 0
M  V30 5157 H 478.142 -0.809389 -4.07948 0
M  V30 5158 H 476.719 0.959153 -3.60354 0
M  V30 5159 N 478.904 1.54736 -0.299062 0
M  V30 5160 C 480.152 1.99706 0.31017 0
M  V30 5161 C 480.473 1.18896 1.54559 0
M  V30 5162 O 479.743 0.284445 1.93824 0
M  V30 5163 H 478.323 0.737686 0.117596 0
M  V30 5164 H 480.985 1.9054 -0.409943 0
M  V30 5165 H 480.081 3.06596 0.58355 0
M  V30 5166 N 480.382 0.0267497 1.57577 0
M  V30 5167 C 481.33 -0.973923 2.11229 0
M  V30 5168 C 482.324 -1.33849 1.03831 0
M  V30 5169 O 483.53 -1.321 1.22269 0
M  V30 5170 H 479.905 -0.331844 0.674821 0
M  V30 5171 H 481.876 -0.496092 2.94247 0
M  V30 5172 C 480.625 -2.24798 2.65257 0
M  V30 5173 H 479.948 -1.9762 3.47543 0
M  V30 5174 H 481.388 -2.93031 3.06445 0
M  V30 5175 C 479.847 -2.97611 1.57891 0
M  V30 5176 O 480.377 -3.89629 0.97735 0
M  V30 5177 N 478.583 -2.59905 1.29992 0
M  V30 5178 H 478.13 -1.85154 1.79097 0
M  V30 5179 H 478.088 -3.08932 0.583798 0
M  V30 5180 N 481.861 -1.55662 -0.24637 0
M  V30 5181 C 482.771 -1.93495 -1.32653 0
M  V30 5182 C 483.787 -0.835462 -1.5263 0
M  V30 5183 O 484.963 -1.1369 -1.66242 0
M  V30 5184 C 482.028 -2.22242 -2.66101 0
M  V30 5185 C 481.089 -3.45625 -2.54641 0
M  V30 5186 C 480.322 -3.72991 -3.81724 0
M  V30 5187 O 480.545 -3.02421 -4.8363 0
M  V30 5188 O 479.479 -4.66515 -3.80325 0
M  V30 5189 H 483.305 -2.85498 -1.03559 0
M  V30 5190 H 480.89 -1.42551 -0.44717 0
M  V30 5191 H 482.772 -2.42037 -3.44958 0
M  V30 5192 H 481.447 -1.33417 -2.94926 0
M  V30 5193 H 480.354 -3.31136 -1.74067 0
M  V30 5194 H 481.687 -4.34754 -2.3076 0
M  V30 5195 N 483.339 0.512053 -1.4905 0
M  V30 5196 C 484.302 1.59704 -1.64399 0
M  V30 5197 C 485.302 1.52285 -0.516317 0
M  V30 5198 O 486.492 1.55635 -0.782527 0
M  V30 5199 C 483.624 2.9935 -1.63102 0
M  V30 5200 H 484.817 1.47428 -2.61161 0
M  V30 5201 H 482.37 0.735469 -1.37915 0
M  V30 5202 H 483.105 3.17116 -0.678836 0
M  V30 5203 H 482.89 3.06144 -2.44986 0
M  V30 5204 H 484.38 3.782 -1.77072 0
M  V30 5205 N 484.817 1.37938 0.762283 0
M  V30 5206 C 485.765 1.34569 1.89721 0
M  V30 5207 C 486.759 0.232929 1.67791 0
M  V30 5208 O 487.965 0.401485 1.75465 0
M  V30 5209 H 484.34 0.419594 0.624055 0
M  V30 5210 H 486.311 2.30357 1.8968 0
M  V30 5211 C 485.06 1.17898 3.27101 0
M  V30 5212 H 484.383 2.02781 3.44558 0
M  V30 5213 H 485.823 1.19593 4.06784 0
M  V30 5214 C 484.282 -0.114728 3.36705 0
M  V30 5215 O 484.812 -1.0949 3.8649 0
M  V30 5216 N 483.018 -0.16863 2.9011 0
M  V30 5217 H 482.565 0.62967 2.49786 0
M  V30 5218 H 482.523 -1.03383 2.96916 0
M  V30 5219 N 486.295 -0.989507 1.22664 0
M  V30 5220 C 487.228 -2.07805 0.942985 0
M  V30 5221 C 488.206 -1.6219 -0.115356 0
M  V30 5222 O 489.39 -1.88492 0.0169565 0
M  V30 5223 C 486.517 -3.361 0.418898 0
M  V30 5224 C 485.563 -4.00643 1.46244 0
M  V30 5225 S 486.396 -4.41059 3.03689 0
M  V30 5226 C 487.552 -5.7252 2.52927 0
M  V30 5227 H 487.785 -2.31547 1.86476 0
M  V30 5228 H 485.318 -1.12446 1.05808 0
M  V30 5229 H 487.276 -4.10315 0.123114 0
M  V30 5230 H 485.937 -3.10383 -0.481818 0
M  V30 5231 H 485.13 -4.93033 1.04569 0
M  V30 5232 H 484.732 -3.32767 1.7071 0
M  V30 5233 H 487.024 -6.49017 1.94379 0
M  V30 5234 H 487.967 -6.19026 3.4382 0
M  V30 5235 H 488.375 -5.30083 1.94094 0
M  V30 5236 N 487.773 -1.03688 -1.18687 0
M  V30 5237 C 489.019 -0.739123 -1.88851 0
M  V30 5238 C 489.352 0.731042 -1.79915 0
M  V30 5239 O 488.627 1.53313 -1.19688 0
M  V30 5240 C 488.91 -1.20106 -3.3948 0
M  V30 5241 C 488.763 -2.73304 -3.57246 0
M  V30 5242 C 490.082 -0.788134 -4.32986 0
M  V30 5243 H 487.201 -0.269978 -0.68577 0
M  V30 5244 H 489.843 -1.28822 -1.3966 0
M  V30 5245 H 487.993 -0.733915 -3.81505 0
M  V30 5246 H 489.665 -3.28027 -3.24339 0
M  V30 5247 H 487.908 -3.13313 -3.00029 0
M  V30 5248 H 488.579 -3.00684 -4.62918 0
M  V30 5249 H 491.055 -1.19005 -3.98719 0
M  V30 5250 H 489.931 -1.13915 -5.36949 0
M  V30 5251 H 490.192 0.308988 -4.41019 0
M  V30 5252 N 489.251 1.34841 -0.815825 0
M  V30 5253 C 490.491 2.00321 -0.406297 0
M  V30 5254 C 490.855 1.63293 1.00992 0
M  V30 5255 O 492.056 2.21563 1.52195 0
M  V30 5256 C 490.327 3.52421 -0.594469 0
M  V30 5257 S 491.886 4.37926 -0.276735 0
M  V30 5258 H 488.704 0.694155 -0.153848 0
M  V30 5259 H 491.306 1.64263 -1.06009 0
M  V30 5260 H 490.01 3.76858 -1.625 0
M  V30 5261 H 489.541 3.9333 0.0743157 0
M  V30 5262 H 491.556 4.87743 0.912215 0
M  V30 5263 N 490.729 0.570148 1.46925 0
M  V30 5264 C 491.954 0.0542592 2.07329 0
M  V30 5265 C 492.379 -1.23582 1.41806 0
M  V30 5266 O 491.737 -1.74341 0.497479 0
M  V30 5267 C 491.785 -0.111175 3.60429 0
M  V30 5268 O 490.889 -1.17071 3.95434 0
M  V30 5269 H 490.23 0.0571425 0.661537 0
M  V30 5270 H 492.76 0.789516 1.88753 0
M  V30 5271 H 492.77 -0.321315 4.06733 0
M  V30 5272 H 491.445 0.831012 4.07513 0
M  V30 5273 H 490.022 -0.940029 3.60857 0
M  V30 5274 N 492.207 -1.54576 0.307264 0
M  V30 5275 C 493.456 -1.99442 -0.300976 0
M  V30 5276 C 493.769 -1.19928 -1.5452 0
M  V30 5277 O 494.975 -1.55092 -2.22842 0
M  V30 5278 C 493.431 -3.55084 -0.586809 0
M  V30 5279 C 493.039 -4.43413 0.639438 0
M  V30 5280 C 494.783 -4.0846 -1.1559 0
M  V30 5281 C 492.69 -5.90499 0.326411 0
M  V30 5282 H 491.62 -0.744986 -0.116238 0
M  V30 5283 H 494.271 -1.787 0.416947 0
M  V30 5284 H 492.653 -3.71749 -1.36449 0
M  V30 5285 H 493.827 -4.38522 1.41545 0
M  V30 5286 H 492.142 -4.00842 1.1276 0
M  V30 5287 H 494.739 -5.15926 -1.40445 0
M  V30 5288 H 495.082 -3.59443 -2.10015 0
M  V30 5289 H 495.615 -3.95362 -0.439778 0
M  V30 5290 H 492.354 -6.43676 1.23939 0
M  V30 5291 H 491.874 -5.98382 -0.412212 0
M  V30 5292 H 493.553 -6.46962 -0.0697393 0
M  V30 5293 N 493.685 -0.035106 -1.57561 0
M  V30 5294 C 494.617 0.973604 -2.07494 0
M  V30 5295 C 495.63 1.28504 -0.999534 0
M  V30 5296 O 496.819 1.24864 -1.27559 0
M  V30 5297 C 493.919 2.29945 -2.48955 0
M  V30 5298 C 493.092 2.1723 -3.79644 0
M  V30 5299 C 492.151 3.328 -4.07592 0
M  V30 5300 O 491.177 3.09418 -4.77754 0
M  V30 5301 N 492.379 4.56779 -3.58236 0
M  V30 5302 H 495.144 0.547525 -2.94656 0
M  V30 5303 H 492.705 0.151515 -1.61189 0
M  V30 5304 H 494.697 3.06097 -2.64739 0
M  V30 5305 H 493.267 2.64173 -1.67126 0
M  V30 5306 H 492.487 1.25768 -3.73599 0
M  V30 5307 H 493.775 2.05945 -4.65257 0
M  V30 5308 H 493.173 4.78668 -3.01485 0
M  V30 5309 H 491.73 5.30079 -3.79288 0
M  V30 5310 N 495.163 1.55791 0.238111 0
M  V30 5311 C 496.11 1.9105 1.29493 0
M  V30 5312 C 497.08 0.765733 1.47397 0
M  V30 5313 O 498.265 1.02017 1.61236 0
M  V30 5314 C 495.405 2.21826 2.64362 0
M  V30 5315 C 494.518 3.49153 2.54394 0
M  V30 5316 C 493.653 3.69455 3.81676 0
M  V30 5317 C 492.692 4.90353 3.66361 0
M  V30 5318 N 491.829 5.07131 4.85554 0
M  V30 5319 H 496.669 2.81172 0.987233 0
M  V30 5320 H 494.206 1.39179 0.476203 0
M  V30 5321 H 496.164 2.37675 3.4288 0
M  V30 5322 H 494.794 1.34897 2.93262 0
M  V30 5323 H 493.846 3.41587 1.67399 0
M  V30 5324 H 495.158 4.37818 2.38991 0
M  V30 5325 H 494.312 3.85311 4.68636 0
M  V30 5326 H 493.051 2.7904 3.99985 0
M  V30 5327 H 492.056 4.74464 2.77784 0
M  V30 5328 H 493.281 5.82237 3.49538 0
M  V30 5329 H 491.227 4.19654 5.04209 0
M  V30 5330 H 491.144 5.89899 4.72816 0
M  V30 5331 H 492.412 5.27407 5.73988 0
M  V30 5332 N 496.642 -0.504142 1.49319 0
M  V30 5333 C 498.053 -1.08572 1.51885 0
M  V30 5334 C 498.404 -1.93842 0.303255 0
M  V30 5335 O 497.529 -2.0828 -0.58724 0
M  V30 5336 C 498.124 -1.97574 2.75227 0
M  V30 5337 C 496.683 -2.509 2.80581 0
M  V30 5338 C 495.83 -1.28447 2.45757 0
M  V30 5339 H 498.781 -0.288194 1.56061 0
M  V30 5340 H 498.802 -2.82219 2.55211 0
M  V30 5341 H 498.314 -1.35486 3.63683 0
M  V30 5342 H 496.415 -3.16636 1.96398 0
M  V30 5343 H 496.528 -2.88268 3.82673 0
M  V30 5344 H 494.892 -1.60868 1.97468 0
M  V30 5345 H 495.675 -0.68072 3.36483 0
M  V30 5346 N 498.12 -1.38341 -0.754957 0
M  V30 5347 C 499.345 -1.37882 -1.5493 0
M  V30 5348 C 499.77 0.0296385 -1.88077 0
M  V30 5349 O 499.128 1.01133 -1.50472 0
M  V30 5350 C 499.176 -2.23996 -2.82592 0
M  V30 5351 O 498.28 -1.65612 -3.77686 0
M  V30 5352 H 497.621 -0.470384 -0.468652 0
M  V30 5353 H 500.151 -1.82084 -0.933082 0
M  V30 5354 H 500.161 -2.37806 -3.3153 0
M  V30 5355 H 498.836 -3.26365 -2.57796 0
M  V30 5356 H 497.413 -1.60936 -3.36384 0
M  V30 5357 N 499.598 0.982988 -1.23187 0
M  V30 5358 C 501.014 1.2487 -0.993967 0
M  V30 5359 C 501.214 1.99155 0.306498 0
M  V30 5360 O 500.27 2.30688 1.0266 0
M  V30 5361 C 501.583 2.05078 -2.19917 0
M  V30 5362 C 503.131 2.18227 -2.2438 0
M  V30 5363 C 503.606 3.01825 -3.44479 0
M  V30 5364 N 505.097 3.09411 -3.44702 0
M  V30 5365 C 505.832 3.74412 -4.34285 0
M  V30 5366 N 505.328 4.41259 -5.341 0
M  V30 5367 N 507.121 3.71273 -4.22035 0
M  V30 5368 H 499.272 0.485253 -2.06783 0
M  V30 5369 H 501.535 0.276979 -0.906635 0
M  V30 5370 H 501.241 1.57867 -3.14279 0
M  V30 5371 H 501.115 3.05829 -2.2079 0
M  V30 5372 H 503.502 2.64648 -1.30559 0
M  V30 5373 H 503.583 1.16873 -2.2754 0
M  V30 5374 H 503.227 2.56102 -4.38605 0
M  V30 5375 H 503.157 4.03342 -3.38559 0
M  V30 5376 H 505.648 2.61845 -2.7248 0
M  V30 5377 H 505.961 4.88629 -5.98717 0
M  V30 5378 H 504.306 4.39975 -5.38002 0
M  V30 5379 H 507.497 3.18217 -3.43301 0
M  V30 5380 H 507.67 4.21649 -4.92053 0
M  V30 5381 N 501.076 1.04316 1.18135 0
M  V30 5382 C 502.304 0.768117 1.92113 0
M  V30 5383 C 502.719 -0.675057 1.76319 0
M  V30 5384 O 502.076 -1.46038 1.09449 0
M  V30 5385 C 502.127 1.12808 3.43448 0
M  V30 5386 O 501.848 2.5146 3.58747 0
M  V30 5387 C 503.349 0.8779 4.3452 0
M  V30 5388 H 500.569 0.279937 0.609817 0
M  V30 5389 H 503.113 1.39149 1.49859 0
M  V30 5390 H 501.268 0.549623 3.83481 0
M  V30 5391 H 501.682 2.65313 4.52448 0
M  V30 5392 H 503.156 1.17959 5.39249 0
M  V30 5393 H 503.633 -0.187239 4.38801 0
M  V30 5394 H 504.239 1.43977 4.00188 0
M  V30 5395 N 502.554 -1.34406 0.822964 0
M  V30 5396 C 503.779 -2.0304 0.423034 0
M  V30 5397 C 504.204 -1.61568 -0.963196 0
M  V30 5398 O 503.562 -0.800339 -1.62678 0
M  V30 5399 C 503.61 -3.56636 0.53321 0
M  V30 5400 O 502.714 -4.09971 -0.446939 0
M  V30 5401 H 502.055 -0.64075 0.174171 0
M  V30 5402 H 504.585 -1.71653 1.11339 0
M  V30 5403 H 504.595 -4.05945 0.408991 0
M  V30 5404 H 503.27 -3.86168 1.54425 0
M  V30 5405 H 501.847 -3.71835 -0.281601 0
M  V30 5406 N 504.032 -0.577932 -1.46621 0
M  V30 5407 C 505.443 -0.150071 -1.86096 0
M  V30 5408 C 505.794 1.28563 -1.48209 0
M  V30 5409 O 504.919 1.97036 -0.894754 0
M  V30 5410 C 505.514 -0.265576 -3.37758 0
M  V30 5411 C 504.073 0.10738 -3.76247 0
M  V30 5412 C 503.22 -0.603711 -2.70649 0
M  V30 5413 H 506.171 -0.786438 -1.37844 0
M  V30 5414 H 506.192 0.510352 -3.77062 0
M  V30 5415 H 505.704 -1.3106 -3.65301 0
M  V30 5416 H 503.805 1.15272 -3.54321 0
M  V30 5417 H 503.918 -0.26561 -4.78363 0
M  V30 5418 H 502.282 -0.0444884 -2.54661 0
M  V30 5419 H 503.065 -1.65029 -3.01032 0
M  V30 5420 N 505.51 1.54411 -0.315457 0
M  V30 5421 C 506.759 1.99599 0.290395 0
M  V30 5422 C 507.072 1.20746 1.53882 0
M  V30 5423 O 508.278 1.56272 2.22017 0
M  V30 5424 C 506.734 3.5539 0.56797 0
M  V30 5425 C 506.342 4.43068 -0.662945 0
M  V30 5426 C 508.086 4.09067 1.13422 0
M  V30 5427 C 505.993 5.90317 -0.357722 0
M  V30 5428 H 504.923 0.745592 0.112286 0
M  V30 5429 H 507.574 1.78477 -0.426418 0
M  V30 5430 H 505.956 3.72468 1.34476 0
M  V30 5431 H 507.13 4.37765 -1.43869 0
M  V30 5432 H 505.445 4.00238 -1.14884 0
M  V30 5433 H 508.042 5.16663 1.37707 0
M  V30 5434 H 508.385 3.60552 2.08106 0
M  V30 5435 H 508.918 3.95589 0.418805 0
M  V30 5436 H 505.657 6.4301 -1.27351 0
M  V30 5437 H 505.177 5.98592 0.380472 0
M  V30 5438 H 506.856 6.4699 0.0354284 0
M  V30 5439 N 506.988 0.0434614 1.5754 0
M  V30 5440 C 507.951 -0.918696 2.09982 0
M  V30 5441 C 508.951 -1.24488 1.01781 0
M  V30 5442 O 510.141 -1.18284 1.27885 0
M  V30 5443 C 507.273 -2.23093 2.57764 0
M  V30 5444 H 508.466 -0.464229 2.96285 0
M  V30 5445 H 506.019 -0.204818 1.54952 0
M  V30 5446 H 506.754 -2.73137 1.74832 0
M  V30 5447 H 506.539 -2.00724 3.36827 0
M  V30 5448 H 508.029 -2.92028 2.98512 0
M  V30 5449 N 508.466 -1.55915 -0.229846 0
M  V30 5450 C 509.713 -1.78542 -0.955452 0
M  V30 5451 C 510.041 -0.610785 -1.84661 0
M  V30 5452 O 509.296 0.405213 -1.91459 0
M  V30 5453 C 509.595 -3.06845 -1.8325 0
M  V30 5454 C 509.261 -4.37395 -1.09528 0
M  V30 5455 C 507.923 -4.72868 -0.891598 0
M  V30 5456 C 510.275 -5.18029 -0.574046 0
M  V30 5457 C 507.603 -5.86496 -0.154655 0
M  V30 5458 C 509.955 -6.32423 0.149513 0
M  V30 5459 C 508.619 -6.66504 0.364519 0
M  V30 5460 H 507.889 -0.653333 -0.349625 0
M  V30 5461 H 510.536 -1.90183 -0.224235 0
M  V30 5462 H 508.841 -2.90291 -2.63132 0
M  V30 5463 H 510.538 -3.21553 -2.39592 0
M  V30 5464 H 507.128 -4.09538 -1.26399 0
M  V30 5465 H 511.312 -4.91066 -0.718899 0
M  V30 5466 H 506.568 -6.11396 0.0222356 0
M  V30 5467 H 510.742 -6.94137 0.560947 0
M  V30 5468 H 508.369 -7.54397 0.937495 0
M  V30 5469 N 509.944 0.496216 -1.49584 0
M  V30 5470 C 511.172 1.27394 -1.63029 0
M  V30 5471 C 511.587 1.86344 -0.303569 0
M  V30 5472 O 510.944 1.68057 0.711547 0
M  V30 5473 C 510.995 2.40077 -2.70269 0
M  V30 5474 O 510.716 1.83549 -3.97796 0
M  V30 5475 C 512.217 3.31372 -2.94462 0
M  V30 5476 H 509.437 0.386211 -0.54871 0
M  V30 5477 H 511.981 0.595163 -1.95648 0
M  V30 5478 H 510.136 3.03775 -2.40415 0
M  V30 5479 H 510.55 2.57561 -4.56905 0
M  V30 5480 H 512.024 4.06707 -3.73221 0
M  V30 5481 H 512.501 3.88654 -2.0456 0
M  V30 5482 H 513.107 2.73435 -3.25751 0
M  V30 5483 N 511.423 1.38739 0.74761 0
M  V30 5484 C 512.333 1.38696 1.89211 0
M  V30 5485 C 513.349 0.283303 1.71678 0
M  V30 5486 O 514.525 0.522713 1.94498 0
M  V30 5487 C 511.59 1.21662 3.24653 0
M  V30 5488 C 510.651 2.41886 3.54669 0
M  V30 5489 C 509.884 2.25655 4.83648 0
M  V30 5490 O 510.107 1.25339 5.56459 0
M  V30 5491 O 509.041 3.14372 5.13277 0
M  V30 5492 H 512.867 2.35143 1.92202 0
M  V30 5493 H 510.452 1.19721 0.893708 0
M  V30 5494 H 512.334 1.14246 4.05618 0
M  V30 5495 H 511.009 0.283024 3.2246 0
M  V30 5496 H 509.916 2.54877 2.73841 0
M  V30 5497 H 511.249 3.33895 3.61628 0
M  V30 5498 N 512.901 -0.976442 1.23707 0
M  V30 5499 C 513.811 -2.10359 1.03856 0
M  V30 5500 C 514.827 -1.73991 -0.0180919 0
M  V30 5501 O 516.003 -2.0061 0.178211 0
M  V30 5502 C 513.068 -3.40809 0.636387 0
M  V30 5503 C 512.129 -3.91179 1.76854 0
M  V30 5504 C 511.362 -5.15404 1.38546 0
M  V30 5505 O 511.585 -5.69754 0.27142 0
M  V30 5506 O 510.519 -5.5994 2.20797 0
M  V30 5507 H 514.345 -2.29997 1.98331 0
M  V30 5508 H 511.93 -1.08742 1.02448 0
M  V30 5509 H 513.812 -4.19269 0.423223 0
M  V30 5510 H 512.487 -3.22493 -0.279322 0
M  V30 5511 H 511.394 -3.13819 2.03638 0
M  V30 5512 H 512.727 -4.13958 2.6627 0
M  V30 5513 N 514.379 -1.04941 -1.1758 0
M  V30 5514 C 515.327 -0.64204 -2.23563 0
M  V30 5515 C 516.321 0.335453 -1.66045 0
M  V30 5516 O 517.527 0.20179 -1.78865 0
M  V30 5517 H 513.902 -0.18944 -0.727748 0
M  V30 5518 H 515.873 -1.54609 -2.55223 0
M  V30 5519 C 514.622 -0.0301051 -3.47687 0
M  V30 5520 H 513.945 -0.773339 -3.92249 0
M  V30 5521 H 515.385 0.217592 -4.23441 0
M  V30 5522 C 513.844 1.2225 -3.13937 0
M  V30 5523 O 514.374 2.3122 -3.28482 0
M  V30 5524 N 512.58 1.11917 -2.68185 0
M  V30 5525 H 512.127 0.232403 -2.5655 0
M  V30 5526 H 512.085 1.95814 -2.45976 0
M  V30 5527 N 515.857 1.33968 -0.830081 0
M  V30 5528 C 517.134 1.92554 -0.343858 0
M  V30 5529 C 517.514 1.7573 1.16971 0
M  V30 5530 O 516.862 1.14035 1.98011 0
M  V30 5531 C 517.072 3.40147 -0.781073 0
M  V30 5532 C 518.42 4.17299 -0.78402 0
M  V30 5533 O 519.444 3.48762 -0.724112 0
M  V30 5534 O 518.303 5.39631 -0.863739 0
M  V30 5535 H 515.397 0.821469 -0.0954827 0
M  V30 5536 H 517.943 1.42897 -0.915348 0
M  V30 5537 H 516.715 3.46225 -1.82329 0
M  V30 5538 H 516.338 3.97166 -0.18567 0
M  V30 5539 N 517.335 0.585699 1.46312 0
M  V30 5540 C 518.565 0.0780166 2.06453 0
M  V30 5541 C 518.973 -1.2336 1.43454 0
M  V30 5542 O 518.316 -1.75734 0.535086 0
M  V30 5543 C 518.378 -0.158951 3.59148 0
M  V30 5544 C 518.042 1.06752 4.44357 0
M  V30 5545 C 519.039 1.98031 4.80708 0
M  V30 5546 C 516.724 1.2902 4.85447 0
M  V30 5547 C 518.718 3.09924 5.5698 0
M  V30 5548 C 516.405 2.41218 5.61478 0
M  V30 5549 C 517.403 3.31499 5.97158 0
M  V30 5550 O 517.091 4.41747 6.71651 0
M  V30 5551 H 516.823 0.0558894 0.673686 0
M  V30 5552 H 519.377 0.806994 1.88883 0
M  V30 5553 H 517.607 -0.942575 3.75037 0
M  V30 5554 H 519.296 -0.615513 4.01206 0
M  V30 5555 H 520.062 1.82043 4.49539 0
M  V30 5556 H 515.941 0.596567 4.57124 0
M  V30 5557 H 519.485 3.80415 5.84748 0
M  V30 5558 H 515.382 2.57167 5.9206 0
M  V30 5559 H 516.15 4.40152 6.90079 0
M  V30 5560 N 518.813 -1.54241 0.323641 0
M  V30 5561 C 520.062 -1.9975 -0.279806 0
M  V30 5562 C 520.375 -1.2156 -1.5324 0
M  V30 5563 O 521.581 -1.57447 -2.21185 0
M  V30 5564 C 520.037 -3.55686 -0.549115 0
M  V30 5565 C 519.645 -4.4271 0.686432 0
M  V30 5566 C 521.389 -4.09663 -1.11251 0
M  V30 5567 C 519.296 -5.90119 0.389022 0
M  V30 5568 H 518.226 -0.746177 -0.10833 0
M  V30 5569 H 520.877 -1.78248 0.435877 0
M  V30 5570 H 519.259 -3.73176 -1.32499 0
M  V30 5571 H 520.433 -4.36996 1.46188 0
M  V30 5572 H 518.748 -3.99623 1.17005 0
M  V30 5573 H 521.345 -5.17386 -1.34965 0
M  V30 5574 H 521.688 -3.61651 -2.06191 0
M  V30 5575 H 522.221 -3.95806 -0.39782 0
M  V30 5576 H 518.96 -6.42326 1.30759 0
M  V30 5577 H 518.48 -5.98785 -0.348722 0
M  V30 5578 H 520.159 -6.47 -0.0011164 0
M  V30 5579 N 520.291 -0.0518155 -1.57515 0
M  V30 5580 C 521.537 0.622745 -1.93002 0
M  V30 5581 C 521.87 1.70456 -0.930499 0
M  V30 5582 O 521.145 1.94452 0.0434086 0
M  V30 5583 C 521.428 1.21824 -3.38867 0
M  V30 5584 C 521.281 0.144434 -4.49568 0
M  V30 5585 C 522.6 2.12968 -3.8514 0
M  V30 5586 H 519.719 0.22491 -0.701844 0
M  V30 5587 H 522.361 -0.113711 -1.89659 0
M  V30 5588 H 520.511 1.8459 -3.41846 0
M  V30 5589 H 522.183 -0.48753 -4.58717 0
M  V30 5590 H 520.426 -0.527424 -4.30582 0
M  V30 5591 H 521.097 0.601127 -5.48717 0
M  V30 5592 H 523.573 1.60163 -3.8404 0
M  V30 5593 H 522.449 2.51578 -4.87852 0
M  V30 5594 H 522.71 3.03004 -3.21934 0
M  V30 5595 N 521.769 1.56035 0.221574 0
M  V30 5596 C 522.699 1.95434 1.2778 0
M  V30 5597 C 523.68 0.822564 1.48889 0
M  V30 5598 O 524.865 1.08486 1.61072 0
M  V30 5599 C 521.995 2.27102 2.62759 0
M  V30 5600 C 520.949 3.4277 2.56306 0
M  V30 5601 C 520.275 3.60043 3.95314 0
M  V30 5602 C 521.575 4.77742 2.11093 0
M  V30 5603 H 523.269 2.83912 0.950504 0
M  V30 5604 H 520.815 1.36596 0.455791 0
M  V30 5605 H 522.768 2.53256 3.36807 0
M  V30 5606 H 521.492 1.35478 2.97176 0
M  V30 5607 H 520.151 3.16664 1.84715 0
M  V30 5608 H 519.799 2.65794 4.27039 0
M  V30 5609 H 519.499 4.37841 3.91879 0
M  V30 5610 H 521.023 3.88545 4.71025 0
M  V30 5611 H 522.437 5.03102 2.74885 0
M  V30 5612 H 520.834 5.58823 2.18716 0
M  V30 5613 H 521.904 4.731 1.06321 0
M  V30 5614 N 523.247 -0.488276 1.49845 0
M  V30 5615 C 524.195 -1.60917 1.67954 0
M  V30 5616 C 525.189 -1.6038 0.54539 0
M  V30 5617 O 526.395 -1.64736 0.7254 0
M  V30 5618 H 522.77 -0.533658 0.529824 0
M  V30 5619 H 524.741 -1.428 2.62013 0
M  V30 5620 C 523.49 -2.98975 1.77509 0
M  V30 5621 H 522.813 -3.00099 2.6416 0
M  V30 5622 H 524.253 -3.76906 1.9421 0
M  V30 5623 C 522.712 -3.3282 0.522745 0
M  V30 5624 O 523.242 -4.00208 -0.345866 0
M  V30 5625 N 521.448 -2.8808 0.381882 0
M  V30 5626 H 520.995 -2.33415 1.08974 0
M  V30 5627 H 520.953 -3.11091 -0.454929 0
M  V30 5628 N 524.725 -1.39134 -0.740242 0
M  V30 5629 C 525.953 -1.39334 -1.5295 0
M  V30 5630 C 526.368 0.0135008 -1.88795 0
M  V30 5631 O 525.725 0.983524 -1.5373 0
M  V30 5632 C 525.776 -2.2614 -2.82034 0
M  V30 5633 O 525.497 -3.61345 -2.47712 0
M  V30 5634 C 526.998 -2.34666 -3.76094 0
M  V30 5635 H 524.218 -0.476103 -0.472828 0
M  V30 5636 H 526.762 -1.82883 -0.9151 0
M  V30 5637 H 524.917 -1.86018 -3.39818 0
M  V30 5638 H 525.331 -4.07194 -3.30595 0
M  V30 5639 H 526.805 -2.99663 -4.63579 0
M  V30 5640 H 527.282 -1.36426 -4.17474 0
M  V30 5641 H 527.888 -2.75236 -3.2423 0
M  V30 5642 N 526.204 0.969867 -1.24223 0
M  V30 5643 C 527.429 1.75289 -1.10853 0
M  V30 5644 C 527.854 1.85091 0.335079 0
M  V30 5645 O 527.212 1.32024 1.24255 0
M  V30 5646 C 527.26 3.15255 -1.75062 0
M  V30 5647 O 526.364 3.99589 -1.01992 0
M  V30 5648 H 525.705 0.538904 -0.387915 0
M  V30 5649 H 528.235 1.21675 -1.64488 0
M  V30 5650 H 528.245 3.65787 -1.80731 0
M  V30 5651 H 526.92 3.07436 -2.801 0
M  V30 5652 H 525.497 3.58077 -1.04094 0
M  V30 5653 N 527.682 1.05563 1.17022 0
M  V30 5654 C 528.929 0.767937 1.87374 0
M  V30 5655 C 529.257 -0.705224 1.81265 0
M  V30 5656 O 528.512 -1.5318 1.21796 0
M  V30 5657 C 528.811 1.19849 3.36706 0
M  V30 5658 C 528.477 2.6745 3.63017 0
M  V30 5659 C 527.139 3.0777 3.69907 0
M  V30 5660 C 529.491 3.62811 3.74189 0
M  V30 5661 C 526.819 4.42307 3.85463 0
M  V30 5662 C 529.171 4.97087 3.91264 0
M  V30 5663 C 527.835 5.37055 3.96394 0
M  V30 5664 H 527.105 0.281008 0.68565 0
M  V30 5665 H 529.752 1.32339 1.38415 0
M  V30 5666 H 528.057 0.562096 3.87747 0
M  V30 5667 H 529.754 0.953038 3.8951 0
M  V30 5668 H 526.344 2.35228 3.58282 0
M  V30 5669 H 530.528 3.32798 3.68183 0
M  V30 5670 H 525.784 4.72769 3.87684 0
M  V30 5671 H 529.958 5.70869 3.9885 0
M  V30 5672 H 527.585 6.41308 4.082 0
M  V30 5673 N 529.16 -1.33526 0.837174 0
M  V30 5674 C 530.385 -2.0258 0.444545 0
M  V30 5675 C 530.81 -1.6258 -0.946006 0
M  V30 5676 O 530.168 -0.817548 -1.6182 0
M  V30 5677 C 530.216 -3.5605 0.571006 0
M  V30 5678 O 529.32 -4.10422 -0.403431 0
M  V30 5679 H 528.661 -0.638866 0.180958 0
M  V30 5680 H 531.191 -1.70462 1.13154 0
M  V30 5681 H 531.201 -4.05488 0.452024 0
M  V30 5682 H 529.876 -3.84509 1.58512 0
M  V30 5683 H 528.453 -3.72113 -0.242147 0
M  V30 5684 N 530.638 -0.59345 -1.46 0
M  V30 5685 C 531.866 -0.0890934 -2.06708 0
M  V30 5686 C 532.281 1.2205 -1.44046 0
M  V30 5687 O 531.638 1.74029 -0.549551 0
M  V30 5688 C 531.689 0.0720263 -3.61428 0
M  V30 5689 O 531.41 -1.18574 -4.21748 0
M  V30 5690 C 532.911 0.609487 -4.3909 0
M  V30 5691 H 530.131 -0.0623628 -0.668096 0
M  V30 5692 H 532.675 -0.817171 -1.87464 0
M  V30 5693 H 530.83 0.750369 -3.80063 0
M  V30 5694 H 531.244 -1.0064 -5.14754 0
M  V30 5695 H 532.718 0.671363 -5.47902 0
M  V30 5696 H 533.195 1.62878 -4.07882 0
M  V30 5697 H 533.801 -0.03434 -4.25286 0
M  V30 5698 N 532.116 1.54067 -0.331816 0
M  V30 5699 C 533.363 2.00715 0.268269 0
M  V30 5700 C 533.691 1.21986 1.51491 0
M  V30 5701 O 532.946 0.292309 1.93505 0
M  V30 5702 C 533.245 3.51634 0.639392 0
M  V30 5703 C 532.911 4.48018 -0.509019 0
M  V30 5704 C 531.573 4.74089 -0.824209 0
M  V30 5705 C 533.925 5.05237 -1.28003 0
M  V30 5706 C 531.253 5.54637 -1.91298 0
M  V30 5707 C 533.605 5.86972 -2.35895 0
M  V30 5708 C 532.269 6.11342 -2.67987 0
M  V30 5709 H 531.539 0.734469 0.0981667 0
M  V30 5710 H 534.186 1.8596 -0.457304 0
M  V30 5711 H 532.491 3.6416 1.44551 0
M  V30 5712 H 534.188 3.85175 1.11539 0
M  V30 5713 H 530.778 4.27851 -0.253287 0
M  V30 5714 H 534.962 4.8507 -1.04978 0
M  V30 5715 H 530.218 5.71747 -2.16599 0
M  V30 5716 H 534.392 6.30327 -2.96076 0
M  V30 5717 H 532.019 6.73544 -3.5248 0
M  V30 5718 N 533.594 0.0601682 1.57485 0
M  V30 5719 C 534.524 -0.90889 2.15085 0
M  V30 5720 C 535.505 -1.31838 1.07484 0
M  V30 5721 O 536.69 -1.3915 1.35466 0
M  V30 5722 C 533.82 -2.18059 2.7031 0
M  V30 5723 C 532.774 -1.91088 3.82974 0
M  V30 5724 C 532.1 -3.24789 4.24754 0
M  V30 5725 C 533.4 -1.22535 5.07723 0
M  V30 5726 H 535.094 -0.429093 2.96309 0
M  V30 5727 H 532.64 -0.204952 1.42534 0
M  V30 5728 H 534.593 -2.86258 3.09248 0
M  V30 5729 H 533.317 -2.6826 1.8629 0
M  V30 5730 H 531.976 -1.25297 3.44523 0
M  V30 5731 H 531.624 -3.72809 3.37672 0
M  V30 5732 H 531.324 -3.07538 5.00694 0
M  V30 5733 H 532.848 -3.94205 4.66299 0
M  V30 5734 H 534.262 -1.80783 5.4405 0
M  V30 5735 H 532.659 -1.1558 5.88864 0
M  V30 5736 H 533.729 -0.202692 4.84476 0
M  V30 5737 N 535.072 -1.5615 -0.213296 0
M  V30 5738 C 536.318 -1.79812 -0.937849 0
M  V30 5739 C 536.651 -0.631201 -1.83656 0
M  V30 5740 O 535.926 0.369165 -1.90964 0
M  V30 5741 C 536.209 -3.13613 -1.76972 0
M  V30 5742 C 536.062 -4.40766 -0.89695 0
M  V30 5743 C 537.381 -3.43931 -2.7459 0
M  V30 5744 H 534.5 -0.654138 -0.339518 0
M  V30 5745 H 537.142 -1.88877 -0.20623 0
M  V30 5746 H 535.292 -3.06015 -2.39347 0
M  V30 5747 H 536.964 -4.60392 -0.289306 0
M  V30 5748 H 535.207 -4.33326 -0.202756 0
M  V30 5749 H 535.878 -5.30843 -1.51358 0
M  V30 5750 H 538.354 -3.5171 -2.22349 0
M  V30 5751 H 537.23 -4.38706 -3.29891 0
M  V30 5752 H 537.491 -2.6651 -3.52739 0
M  V30 5753 N 536.55 0.480323 -1.50102 0
M  V30 5754 C 537.79 1.24301 -1.62261 0
M  V30 5755 C 538.154 1.89452 -0.311758 0
M  V30 5756 O 539.355 2.67022 -0.308696 0
M  V30 5757 C 537.626 2.26588 -2.76392 0
M  V30 5758 S 539.185 3.11919 -3.08629 0
M  V30 5759 H 536.003 0.42215 -0.57211 0
M  V30 5760 H 538.605 0.541591 -1.87848 0
M  V30 5761 H 537.309 1.7729 -3.70131 0
M  V30 5762 H 536.84 3.01371 -2.52862 0
M  V30 5763 H 538.855 4.27598 -2.51742 0
M  V30 5764 N 538.028 1.39524 0.732853 0
M  V30 5765 C 538.976 1.38563 1.86824 0
M  V30 5766 C 539.97 0.268467 1.67259 0
M  V30 5767 O 541.176 0.438613 1.74574 0
M  V30 5768 H 537.551 0.432737 0.615014 0
M  V30 5769 H 539.522 2.34328 1.84751 0
M  V30 5770 C 538.271 1.2481 3.24527 0
M  V30 5771 H 537.594 2.10044 3.40179 0
M  V30 5772 H 539.034 1.28194 4.04156 0
M  V30 5773 C 537.493 -0.0432825 3.36872 0
M  V30 5774 O 538.023 -1.01268 3.88726 0
M  V30 5775 N 536.229 -0.107055 2.90403 0
M  V30 5776 H 535.776 0.682512 2.48394 0
M  V30 5777 H 535.734 -0.970618 2.99042 0
M  V30 5778 N 539.506 -0.963266 1.24736 0
M  V30 5779 C 540.755 -1.70115 1.08369 0
M  V30 5780 C 541.068 -1.91939 -0.376688 0
M  V30 5781 O 542.274 -2.6334 -0.660624 0
M  V30 5782 C 540.73 -3.06218 1.89099 0
M  V30 5783 C 540.338 -2.92221 3.39574 0
M  V30 5784 C 542.082 -3.83848 1.81275 0
M  V30 5785 C 539.989 -4.23662 4.12631 0
M  V30 5786 H 538.919 -0.637944 0.401924 0
M  V30 5787 H 541.57 -1.07304 1.48856 0
M  V30 5788 H 539.952 -3.69884 1.41429 0
M  V30 5789 H 541.126 -2.37541 3.94856 0
M  V30 5790 H 539.441 -2.28054 3.48397 0
M  V30 5791 H 542.038 -4.81188 2.33158 0
M  V30 5792 H 542.381 -4.08949 0.778895 0
M  V30 5793 H 542.914 -3.26918 2.26649 0
M  V30 5794 H 539.653 -4.03753 5.16395 0
M  V30 5795 H 539.173 -4.78141 3.62135 0
M  V30 5796 H 540.852 -4.92256 4.19873 0
M  V30 5797 N 540.985 -1.06182 -1.16461 0
M  V30 5798 C 542.262 -0.691364 -1.82974 0
M  V30 5799 C 542.642 0.827377 -1.9421 0
M  V30 5800 O 541.99 1.73723 -1.48434 0
M  V30 5801 C 542.2 -1.39199 -3.20038 0
M  V30 5802 C 543.548 -1.53647 -3.95825 0
M  V30 5803 O 544.572 -1.35181 -3.29552 0
M  V30 5804 O 543.431 -1.83932 -5.14618 0
M  V30 5805 H 540.525 -0.244605 -0.789998 0
M  V30 5806 H 543.071 -1.16203 -1.23673 0
M  V30 5807 H 541.843 -2.42766 -3.06888 0
M  V30 5808 H 541.466 -0.911335 -3.87015 0
M  V30 5809 N 542.463 1.3308 -0.844243 0
M  V30 5810 C 543.693 2.01515 -0.455541 0
M  V30 5811 C 544.101 1.63655 0.949406 0
M  V30 5812 O 543.444 0.84848 1.62931 0
M  V30 5813 C 543.506 3.55967 -0.502801 0
M  V30 5814 C 543.17 4.17222 -1.86481 0
M  V30 5815 C 544.167 4.36205 -2.8288 0
M  V30 5816 C 541.852 4.53528 -2.15911 0
M  V30 5817 C 543.846 4.90649 -4.06869 0
M  V30 5818 C 541.533 5.07679 -3.40155 0
M  V30 5819 C 542.531 5.26186 -4.35451 0
M  V30 5820 O 542.219 5.79183 -5.57496 0
M  V30 5821 H 541.951 0.65199 -0.178565 0
M  V30 5822 H 544.505 1.70867 -1.1399 0
M  V30 5823 H 542.735 3.85965 0.23836 0
M  V30 5824 H 544.424 4.05688 -0.131169 0
M  V30 5825 H 545.19 4.085 -2.61444 0
M  V30 5826 H 541.069 4.38414 -1.42528 0
M  V30 5827 H 544.613 5.0501 -4.81259 0
M  V30 5828 H 540.51 5.34815 -3.61446 0
M  V30 5829 H 541.278 5.97591 -5.5931 0
M  V30 5830 N 543.941 0.601185 1.45683 0
M  V30 5831 C 545.189 0.0936957 2.01883 0
M  V30 5832 C 545.51 -1.2779 1.47291 0
M  V30 5833 O 544.78 -1.84279 0.664691 0
M  V30 5834 H 543.36 0.0316466 0.746329 0
M  V30 5835 H 546.022 0.781137 1.78562 0
M  V30 5836 H 545.118 0.0386297 3.12076 0
M  V30 5837 N 545.419 -1.53889 0.339982 0
M  V30 5838 C 546.369 -2.2165 -0.534354 0
M  V30 5839 C 547.353 -1.20266 -1.06887 0
M  V30 5840 O 548.545 -1.45827 -1.00316 0
M  V30 5841 C 545.674 -2.99014 -1.68659 0
M  V30 5842 C 544.76 -4.07751 -1.16618 0
M  V30 5843 N 545.151 -5.04469 -0.366717 0
M  V30 5844 C 543.449 -4.21998 -1.4434 0
M  V30 5845 C 544.15 -5.81638 -0.0847275 0
M  V30 5846 N 543.126 -5.39388 -0.675391 0
M  V30 5847 H 546.928 -2.93781 0.0835562 0
M  V30 5848 H 544.442 -1.61736 0.146665 0
M  V30 5849 H 546.439 -3.46056 -2.32489 0
M  V30 5850 H 545.099 -2.28408 -2.30781 0
M  V30 5851 H 546.11 -5.17899 -0.00811038 0
M  V30 5852 H 542.787 -3.62612 -2.06928 0
M  V30 5853 H 544.177 -6.69563 0.559943 0
M  V30 5854 N 546.897 -0.0685191 -1.57451 0
M  V30 5855 C 548.146 0.600898 -1.92541 0
M  V30 5856 C 548.459 1.70967 -0.950239 0
M  V30 5857 O 549.665 2.43844 -1.19384 0
M  V30 5858 C 548.121 1.12019 -3.42023 0
M  V30 5859 C 547.729 0.0426028 -4.4798 0
M  V30 5860 C 549.473 1.76386 -3.86119 0
M  V30 5861 C 547.38 0.575759 -5.88591 0
M  V30 5862 H 546.31 0.228225 -0.71863 0
M  V30 5863 H 548.961 -0.140223 -1.82963 0
M  V30 5864 H 547.343 1.91418 -3.46663 0
M  V30 5865 H 548.517 -0.73182 -4.54952 0
M  V30 5866 H 546.832 -0.504642 -4.13331 0
M  V30 5867 H 549.429 2.17302 -4.88553 0
M  V30 5868 H 549.772 2.62255 -3.23308 0
M  V30 5869 H 550.305 1.03615 -3.84069 0
M  V30 5870 H 547.044 -0.245691 -6.55039 0
M  V30 5871 H 546.564 1.31778 -5.85145 0
M  V30 5872 H 548.243 1.0532 -6.3837 0
M  V30 5873 N 548.375 1.56261 0.205012 0
M  V30 5874 C 549.307 1.90266 1.27795 0
M  V30 5875 C 550.32 0.792397 1.42214 0
M  V30 5876 O 551.509 1.07077 1.42817 0
M  V30 5877 C 548.609 2.11074 2.65143 0
M  V30 5878 C 547.782 3.42176 2.7246 0
M  V30 5879 C 546.841 3.52216 3.90936 0
M  V30 5880 O 545.867 4.25119 3.78501 0
M  V30 5881 N 547.069 2.84573 5.05963 0
M  V30 5882 H 549.834 2.82896 0.989434 0
M  V30 5883 H 547.395 1.57008 0.394981 0
M  V30 5884 H 549.387 2.15089 3.4281 0
M  V30 5885 H 547.957 1.2499 2.86524 0
M  V30 5886 H 547.177 3.50116 1.81142 0
M  V30 5887 H 548.465 4.28509 2.74331 0
M  V30 5888 H 547.863 2.25152 5.18963 0
M  V30 5889 H 546.42 2.94228 5.81613 0
M  V30 5890 N 549.853 -0.472356 1.50355 0
M  V30 5891 C 551.264 -1.05326 1.54154 0
M  V30 5892 C 551.615 -1.93155 0.344303 0
M  V30 5893 O 550.74 -2.09479 -0.542928 0
M  V30 5894 C 551.335 -1.91691 2.79356 0
M  V30 5895 C 549.894 -2.44892 2.8584 0
M  V30 5896 C 549.041 -1.23205 2.48426 0
M  V30 5897 H 551.992 -0.255027 1.56637 0
M  V30 5898 H 552.013 -2.76742 2.6114 0
M  V30 5899 H 551.525 -1.27741 3.66475 0
M  V30 5900 H 549.626 -3.12399 2.0307 0
M  V30 5901 H 549.739 -2.80086 3.88701 0
M  V30 5902 H 548.103 -1.56643 2.00836 0
M  V30 5903 H 548.886 -0.609194 3.37852 0
M  V30 5904 N 551.331 -1.39911 -0.725443 0
M  V30 5905 C 552.577 -1.37858 -1.48738 0
M  V30 5906 C 552.91 0.0224187 -1.94187 0
M  V30 5907 O 552.185 0.989204 -1.67466 0
M  V30 5908 C 552.468 -2.3594 -2.72038 0
M  V30 5909 C 552.321 -3.85023 -2.32546 0
M  V30 5910 C 553.64 -2.31704 -3.74167 0
M  V30 5911 H 550.759 -0.502074 -0.539528 0
M  V30 5912 H 553.401 -1.70974 -0.828728 0
M  V30 5913 H 551.551 -2.0783 -3.28236 0
M  V30 5914 H 553.223 -4.2392 -1.81905 0
M  V30 5915 H 551.466 -4.01334 -1.64661 0
M  V30 5916 H 552.137 -4.49152 -3.20884 0
M  V30 5917 H 554.613 -2.5658 -3.27576 0
M  V30 5918 H 553.489 -3.02395 -4.58092 0
M  V30 5919 H 553.75 -1.3253 -4.21768 0
M  V30 5920 N 552.809 0.956637 -1.25245 0
M  V30 5921 C 554.055 1.70413 -1.11044 0
M  V30 5922 C 554.41 1.89275 0.345377 0
M  V30 5923 O 553.703 1.45116 1.25107 0
M  V30 5924 C 553.897 3.08996 -1.79601 0
M  V30 5925 C 553.726 3.03654 -3.317 0
M  V30 5926 C 552.496 3.07521 -4.00947 0
M  V30 5927 C 554.694 2.84975 -4.28128 0
M  V30 5928 N 552.676 2.92316 -5.39838 0
M  V30 5929 C 554.047 2.7818 -5.5409 0
M  V30 5930 C 556.102 2.6964 -4.18568 0
M  V30 5931 C 554.805 2.57616 -6.71585 0
M  V30 5932 C 556.831 2.50447 -5.35752 0
M  V30 5933 C 556.193 2.4437 -6.60653 0
M  V30 5934 H 552.292 0.631642 -0.461035 0
M  V30 5935 H 554.876 1.13331 -1.58317 0
M  V30 5936 H 553.047 3.64248 -1.34826 0
M  V30 5937 H 554.779 3.72515 -1.58161 0
M  V30 5938 H 551.534 3.16635 -3.52192 0
M  V30 5939 H 551.958 2.87923 -6.12723 0
M  V30 5940 H 556.6 2.73113 -3.22752 0
M  V30 5941 H 554.318 2.52885 -7.67512 0
M  V30 5942 H 557.904 2.39509 -5.30214 0
M  V30 5943 H 556.784 2.29712 -7.49801 0
M  V30 5944 N 554.287 1.06798 1.15896 0
M  V30 5945 C 555.219 0.641263 2.20046 0
M  V30 5946 C 556.232 -0.303355 1.59949 0
M  V30 5947 O 557.421 -0.0935478 1.78255 0
M  V30 5948 C 554.521 -0.0794029 3.38807 0
M  V30 5949 C 553.694 0.879986 4.28457 0
M  V30 5950 C 552.753 0.197638 5.25829 0
M  V30 5951 O 551.779 0.836913 5.63014 0
M  V30 5952 N 552.981 -1.05886 5.70761 0
M  V30 5953 H 555.746 1.53718 2.57276 0
M  V30 5954 H 553.307 0.951951 1.30956 0
M  V30 5955 H 555.299 -0.546418 4.00994 0
M  V30 5956 H 553.869 -0.877193 3.0004 0
M  V30 5957 H 553.089 1.52625 3.63454 0
M  V30 5958 H 554.377 1.53065 4.8523 0
M  V30 5959 H 553.775 -1.59828 5.42652 0
M  V30 5960 H 552.332 -1.46965 6.35015 0
M  V30 5961 N 555.766 -1.3263 0.851289 0
M  V30 5962 C 557.015 -1.96633 0.449267 0
M  V30 5963 C 557.328 -1.68131 -0.999562 0
M  V30 5964 O 558.534 -2.25845 -1.50685 0
M  V30 5965 C 556.99 -3.51946 0.752446 0
M  V30 5966 C 556.598 -3.89311 2.21678 0
M  V30 5967 C 558.342 -4.22437 0.417983 0
M  V30 5968 C 556.249 -5.37655 2.46336 0
M  V30 5969 H 555.179 -0.735888 0.164269 0
M  V30 5970 H 557.83 -1.51073 1.0416 0
M  V30 5971 H 556.212 -3.95899 0.0895858 0
M  V30 5972 H 557.386 -3.56378 2.92115 0
M  V30 5973 H 555.701 -3.31836 2.51543 0
M  V30 5974 H 558.298 -5.31549 0.579674 0
M  V30 5975 H 558.641 -4.11349 -0.640115 0
M  V30 5976 H 559.174 -3.84057 1.03659 0
M  V30 5977 H 555.913 -5.5376 3.50757 0
M  V30 5978 H 555.433 -5.72005 1.80473 0
M  V30 5979 H 557.112 -6.04695 2.30115 0
M  V30 5980 N 557.244 -0.608902 -1.45362 0
M  V30 5981 C 558.174 0.0964526 -2.33301 0
M  V30 5982 C 559.155 0.857444 -1.46908 0
M  V30 5983 O 560.34 0.827735 -1.75676 0
M  V30 5984 C 557.47 1.09354 -3.29635 0
M  V30 5985 C 556.424 0.445676 -4.25673 0
M  V30 5986 C 555.75 1.5511 -5.11708 0
M  V30 5987 C 557.05 -0.633972 -5.18438 0
M  V30 5988 H 558.744 -0.637829 -2.92527 0
M  V30 5989 H 556.29 -0.308178 -1.40664 0
M  V30 5990 H 558.243 1.59556 -3.90025 0
M  V30 5991 H 556.967 1.85843 -2.6857 0
M  V30 5992 H 555.626 -0.0354897 -3.66583 0
M  V30 5993 H 555.274 2.30631 -4.4701 0
M  V30 5994 H 554.974 1.12311 -5.76767 0
M  V30 5995 H 556.498 2.05537 -5.74967 0
M  V30 5996 H 557.912 -0.215974 -5.72893 0
M  V30 5997 H 556.309 -0.983789 -5.91981 0
M  V30 5998 H 557.379 -1.51005 -4.60788 0
M  V30 5999 N 558.722 1.53707 -0.348139 0
M  V30 6000 C 559.685 2.23812 0.494058 0
M  V30 6001 C 560.685 1.23989 1.02388 0
M  V30 6002 O 561.875 1.48395 0.912396 0
M  V30 6003 C 559.007 2.96133 1.68872 0
M  V30 6004 H 560.2 2.99663 -0.119141 0
M  V30 6005 H 557.753 1.55983 -0.0995539 0
M  V30 6006 H 558.488 2.24481 2.34049 0
M  V30 6007 H 558.273 3.69357 1.31596 0
M  V30 6008 H 559.763 3.49475 2.28597 0
M  V30 6009 N 560.2 0.0768682 1.57412 0
M  V30 6010 C 561.13 -0.886026 2.16037 0
M  V30 6011 C 562.111 -1.30691 1.08876 0
M  V30 6012 O 563.296 -1.37705 1.36934 0
M  V30 6013 C 560.426 -2.1518 2.72608 0
M  V30 6014 C 559.38 -1.87015 3.8498 0
M  V30 6015 C 558.706 -3.20266 4.28175 0
M  V30 6016 C 560.006 -1.17143 5.08994 0
M  V30 6017 H 561.7 -0.397642 2.96748 0
M  V30 6018 H 559.246 -0.189823 1.42743 0
M  V30 6019 H 561.199 -2.82962 3.12266 0
M  V30 6020 H 559.923 -2.66269 1.89125 0
M  V30 6021 H 558.582 -1.21636 3.45833 0
M  V30 6022 H 558.23 -3.69207 3.41607 0
M  V30 6023 H 557.93 -3.0221 5.03927 0
M  V30 6024 H 559.454 -3.89237 4.70454 0
M  V30 6025 H 560.868 -1.75003 5.45937 0
M  V30 6026 H 559.265 -1.09328 5.90057 0
M  V30 6027 H 560.335 -0.151295 4.84664 0
M  V30 6028 N 561.678 -1.56367 -0.196722 0
M  V30 6029 C 562.908 -1.84371 -0.932254 0
M  V30 6030 C 563.316 -0.657013 -1.77426 0
M  V30 6031 O 562.659 0.383576 -1.79651 0
M  V30 6032 C 562.721 -3.06454 -1.87952 0
M  V30 6033 C 562.385 -4.40425 -1.21962 0
M  V30 6034 C 563.382 -5.16457 -0.597343 0
M  V30 6035 C 561.067 -4.8716 -1.22396 0
M  V30 6036 C 563.061 -6.37399 0.0117913 0
M  V30 6037 C 560.748 -6.08038 -0.610995 0
M  V30 6038 C 561.746 -6.83 0.00580487 0
M  V30 6039 O 561.434 -8.01589 0.609173 0
M  V30 6040 H 561.166 -0.616377 -0.277589 0
M  V30 6041 H 563.72 -2.04329 -0.209452 0
M  V30 6042 H 561.95 -2.82377 -2.64197 0
M  V30 6043 H 563.639 -3.21118 -2.48271 0
M  V30 6044 H 564.405 -4.81445 -0.586142 0
M  V30 6045 H 560.284 -4.2877 -1.69345 0
M  V30 6046 H 563.828 -6.9585 0.493836 0
M  V30 6047 H 559.725 -6.42519 -0.619693 0
M  V30 6048 H 560.493 -8.16935 0.505919 0
M  V30 6049 N 563.156 0.464375 -1.50603 0
M  V30 6050 C 564.381 1.24372 -1.65971 0
M  V30 6051 C 564.806 1.84901 -0.345453 0
M  V30 6052 O 564.164 1.67596 0.691457 0
M  V30 6053 C 564.212 2.32331 -2.7578 0
M  V30 6054 O 563.316 3.37146 -2.375 0
M  V30 6055 H 562.657 0.365604 -0.554283 0
M  V30 6056 H 565.187 0.55183 -1.97018 0
M  V30 6057 H 565.197 2.77539 -2.99059 0
M  V30 6058 H 563.872 1.87648 -3.71162 0
M  V30 6059 H 562.449 2.97602 -2.24694 0
M  V30 6060 N 564.634 1.40294 0.718013 0
M  V30 6061 C 565.911 1.2894 1.47084 0
M  V30 6062 C 566.291 -0.0933625 2.10893 0
M  V30 6063 O 565.639 -1.10598 1.99951 0
M  V30 6064 C 565.849 2.4264 2.50852 0
M  V30 6065 C 567.197 2.8276 3.16752 0
M  V30 6066 O 568.221 2.42215 2.61171 0
M  V30 6067 O 567.08 3.528 4.17366 0
M  V30 6068 H 564.174 0.506236 0.653952 0
M  V30 6069 H 566.72 1.52208 0.750394 0
M  V30 6070 H 565.492 3.35009 2.022 0
M  V30 6071 H 565.115 2.21129 3.30435 0
M  V30 6072 N 566.112 -0.949982 1.2575 0
M  V30 6073 C 567.337 -1.73503 1.13628 0
M  V30 6074 C 567.762 -1.85601 -0.30559 0
M  V30 6075 O 567.12 -1.33984 -1.22139 0
M  V30 6076 C 567.168 -3.1243 1.80055 0
M  V30 6077 O 566.272 -3.97916 1.08336 0
M  V30 6078 H 565.613 -0.532665 0.396439 0
M  V30 6079 H 568.143 -1.19043 1.66403 0
M  V30 6080 H 568.153 -3.62866 1.86527 0
M  V30 6081 H 566.828 -3.02941 2.84956 0
M  V30 6082 H 565.405 -3.56375 1.09777 0
M  V30 6083 N 567.59 -1.07411 -1.15328 0
M  V30 6084 C 569.001 -0.820261 -1.67716 0
M  V30 6085 C 569.352 0.654539 -1.8496 0
M  V30 6086 O 568.477 1.50664 -1.55337 0
M  V30 6087 C 569.072 -1.48242 -3.04647 0
M  V30 6088 C 567.631 -1.27606 -3.5411 0
M  V30 6089 C 566.778 -1.5517 -2.29821 0
M  V30 6090 H 569.729 -1.23608 -0.995332 0
M  V30 6091 H 569.75 -0.903984 -3.69606 0
M  V30 6092 H 569.262 -2.55578 -2.92064 0
M  V30 6093 H 567.363 -0.222948 -3.71932 0
M  V30 6094 H 567.476 -1.99667 -4.35511 0
M  V30 6095 H 565.84 -0.972747 -2.35393 0
M  V30 6096 H 566.623 -2.63689 -2.19824 0
M  V30 6097 N 569.068 1.32177 -0.85831 0
M  V30 6098 C 569.998 2.31282 -0.321041 0
M  V30 6099 C 570.979 1.59841 0.581786 0
M  V30 6100 O 572.164 1.87619 0.501262 0
M  V30 6101 C 569.294 3.4385 0.48832 0
M  V30 6102 C 568.248 4.26799 -0.320391 0
M  V30 6103 C 567.574 5.31164 0.613934 0
M  V30 6104 C 568.874 4.98829 -1.54813 0
M  V30 6105 H 570.568 2.76469 -1.14915 0
M  V30 6106 H 568.114 1.32916 -0.554028 0
M  V30 6107 H 570.067 4.12224 0.874626 0
M  V30 6108 H 568.791 2.97401 1.34983 0
M  V30 6109 H 567.45 3.60077 -0.688497 0
M  V30 6110 H 567.098 4.80967 1.47239 0
M  V30 6111 H 566.798 5.8755 0.0768097 0
M  V30 6112 H 568.322 6.024 0.997336 0
M  V30 6113 H 569.736 5.59864 -1.23392 0
M  V30 6114 H 568.133 5.64957 -2.02346 0
M  V30 6115 H 569.203 4.26483 -2.30739 0
M  V30 6116 N 570.547 0.616602 1.45037 0
M  V30 6117 C 571.796 0.112861 2.01384 0
M  V30 6118 C 572.109 -1.26758 1.48969 0
M  V30 6119 O 573.315 -1.86454 1.9735 0
M  V30 6120 C 571.771 0.151057 3.59583 0
M  V30 6121 C 571.379 1.53191 4.20995 0
M  V30 6122 C 573.123 -0.296974 4.2346 0
M  V30 6123 C 571.03 1.526 5.71373 0
M  V30 6124 H 569.96 0.0384254 0.75302 0
M  V30 6125 H 572.611 0.773262 1.66412 0
M  V30 6126 H 570.993 -0.57617 3.91786 0
M  V30 6127 H 572.167 2.28156 4.00352 0
M  V30 6128 H 570.482 1.92279 3.69348 0
M  V30 6129 H 573.079 -0.320712 5.33737 0
M  V30 6130 H 573.422 -1.32145 3.9477 0
M  V30 6131 H 573.955 0.377279 3.96007 0
M  V30 6132 H 570.694 2.52837 6.04776 0
M  V30 6133 H 570.214 0.819064 5.94181 0
M  V30 6134 H 571.893 1.25357 6.3474 0
M  V30 6135 N 572.025 -1.5352 0.356285 0
M  V30 6136 C 572.955 -2.28372 -0.486661 0
M  V30 6137 C 573.936 -1.30432 -1.09185 0
M  V30 6138 O 575.121 -1.59291 -1.11085 0
M  V30 6139 C 572.251 -3.06604 -1.63129 0
M  V30 6140 C 571.205 -4.12154 -1.15381 0
M  V30 6141 C 570.531 -4.78415 -2.38796 0
M  V30 6142 C 571.831 -5.21724 -0.245179 0
M  V30 6143 H 573.525 -2.99083 0.137797 0
M  V30 6144 H 571.071 -1.43841 0.0677134 0
M  V30 6145 H 573.024 -3.57712 -2.22755 0
M  V30 6146 H 571.748 -2.33568 -2.28284 0
M  V30 6147 H 570.407 -3.61978 -0.580294 0
M  V30 6148 H 570.055 -4.01959 -3.02387 0
M  V30 6149 H 569.755 -5.49734 -2.07524 0
M  V30 6150 H 571.279 -5.32313 -2.99125 0
M  V30 6151 H 572.693 -5.68391 -0.748646 0
M  V30 6152 H 571.09 -6.00095 -0.0237608 0
M  V30 6153 H 572.16 -4.79596 0.715229 0
M  V30 6154 N 573.503 -0.0852151 -1.57369 0
M  V30 6155 C 574.413 0.891712 -2.16992 0
M  V30 6156 C 575.429 1.3174 -1.13669 0
M  V30 6157 O 576.605 1.38735 -1.45995 0
M  V30 6158 C 573.67 2.13635 -2.73059 0
M  V30 6159 C 572.731 1.7658 -3.91303 0
M  V30 6160 C 571.964 2.95111 -4.44686 0
M  V30 6161 O 572.187 4.09539 -3.97032 0
M  V30 6162 O 571.121 2.74149 -5.35841 0
M  V30 6163 H 574.947 0.414477 -3.00858 0
M  V30 6164 H 572.532 0.138598 -1.48756 0
M  V30 6165 H 574.414 2.86595 -3.08935 0
M  V30 6166 H 573.089 2.6043 -1.92244 0
M  V30 6167 H 571.996 1.00831 -3.60255 0
M  V30 6168 H 573.329 1.34557 -4.7345 0
M  V30 6169 N 574.981 1.5647 0.188427 0
M  V30 6170 C 576.397 1.50204 0.539532 0
M  V30 6171 C 576.597 0.78644 1.85519 0
M  V30 6172 O 575.653 0.339714 2.50204 0
M  V30 6173 C 576.966 2.94893 0.588103 0
M  V30 6174 C 578.514 3.05602 0.67648 0
M  V30 6175 C 578.989 4.51716 0.756101 0
M  V30 6176 N 580.48 4.55894 0.819451 0
M  V30 6177 C 581.215 5.66272 0.90134 0
M  V30 6178 N 580.711 6.86323 0.945118 0
M  V30 6179 N 582.504 5.54201 0.939043 0
M  V30 6180 H 574.655 2.01406 -0.674493 0
M  V30 6181 H 576.918 0.916828 -0.241103 0
M  V30 6182 H 576.624 3.50334 -0.309633 0
M  V30 6183 H 576.498 3.4861 1.44051 0
M  V30 6184 H 578.885 2.50206 1.56465 0
M  V30 6185 H 578.966 2.54999 -0.202262 0
M  V30 6186 H 578.61 5.07739 -0.12774 0
M  V30 6187 H 578.54 5.00058 1.65074 0
M  V30 6188 H 581.031 3.69452 0.794594 0
M  V30 6189 H 581.344 7.66194 1.0083 0
M  V30 6190 H 579.689 6.88968 0.913683 0
M  V30 6191 H 582.88 4.59333 0.901725 0
M  V30 6192 H 583.053 6.40247 0.999402 0
M  V30 6193 N 576.459 -0.456382 1.50847 0
M  V30 6194 C 577.684 -1.2349 1.66628 0
M  V30 6195 C 578.109 -1.84715 0.355254 0
M  V30 6196 O 577.467 -1.67961 -0.682559 0
M  V30 6197 C 577.515 -2.30865 2.77009 0
M  V30 6198 O 576.619 -3.35882 2.39285 0
M  V30 6199 H 575.96 -0.36266 0.556214 0
M  V30 6200 H 578.49 -0.541374 1.97308 0
M  V30 6201 H 578.5 -2.75949 3.00526 0
M  V30 6202 H 577.175 -1.85677 3.72152 0
M  V30 6203 H 575.752 -2.96406 2.26269 0
M  V30 6204 N 577.937 -1.40673 -0.710563 0
M  V30 6205 C 578.887 -1.37812 -1.81636 0
M  V30 6206 C 579.871 -0.254853 -1.58869 0
M  V30 6207 O 581.063 -0.494356 -1.69956 0
M  V30 6208 C 578.192 -1.24802 -3.19811 0
M  V30 6209 C 577.278 -2.41931 -3.48325 0
M  V30 6210 N 577.669 -3.67411 -3.47625 0
M  V30 6211 C 575.967 -2.35419 -3.78806 0
M  V30 6212 C 576.668 -4.45008 -3.74623 0
M  V30 6213 N 575.644 -3.74916 -3.93623 0
M  V30 6214 H 579.446 -2.32766 -1.79436 0
M  V30 6215 H 576.96 -1.34516 -0.909909 0
M  V30 6216 H 578.957 -1.20835 -3.99004 0
M  V30 6217 H 577.617 -0.308202 -3.23234 0
M  V30 6218 H 578.628 -4.00503 -3.28356 0
M  V30 6219 H 575.305 -1.4983 -3.89689 0
M  V30 6220 H 576.695 -5.53884 -3.80344 0
M  V30 6221 N 579.415 0.9433 -1.26252 0
M  V30 6222 C 580.345 2.05902 -1.10122 0
M  V30 6223 C 581.326 1.70099 -0.00700552 0
M  V30 6224 O 582.511 1.93377 -0.178641 0
M  V30 6225 C 579.641 3.39516 -0.731175 0
M  V30 6226 C 578.595 3.89372 -1.77688 0
M  V30 6227 C 577.921 5.19613 -1.26122 0
M  V30 6228 C 579.221 4.14489 -3.17799 0
M  V30 6229 H 580.915 2.19655 -2.03451 0
M  V30 6230 H 578.461 1.05548 -0.979576 0
M  V30 6231 H 580.414 4.17031 -0.605215 0
M  V30 6232 H 579.138 3.25733 0.23782 0
M  V30 6233 H 577.797 3.14036 -1.89148 0
M  V30 6234 H 577.445 5.02208 -0.282128 0
M  V30 6235 H 577.145 5.53939 -1.96023 0
M  V30 6236 H 578.669 5.99713 -1.14789 0
M  V30 6237 H 580.083 4.82625 -3.09428 0
M  V30 6238 H 578.48 4.60094 -3.85271 0
M  V30 6239 H 579.55 3.20347 -3.64014 0
M  V30 6240 N 580.893 1.08022 1.14757 0
M  V30 6241 C 581.823 0.728248 2.21853 0
M  V30 6242 C 582.804 -0.287486 1.67653 0
M  V30 6243 O 583.989 -0.158727 1.9355 0
M  V30 6244 C 581.119 0.132549 3.47047 0
M  V30 6245 C 580.073 1.07619 4.14249 0
M  V30 6246 C 579.399 0.342907 5.33599 0
M  V30 6247 C 580.699 2.41268 4.63235 0
M  V30 6248 H 582.393 1.62365 2.51551 0
M  V30 6249 H 579.939 0.782125 1.20908 0
M  V30 6250 H 581.892 -0.125665 4.21213 0
M  V30 6251 H 580.616 -0.797971 3.16702 0
M  V30 6252 H 579.275 1.31944 3.42033 0
M  V30 6253 H 578.923 -0.59129 4.99513 0
M  V30 6254 H 578.623 0.971955 5.79506 0
M  V30 6255 H 580.147 0.0926538 6.1053 0
M  V30 6256 H 581.561 2.21232 5.28894 0
M  V30 6257 H 579.958 2.9983 5.19829 0
M  V30 6258 H 581.028 3.03079 3.78512 0
M  V30 6259 N 582.371 -1.3172 0.865308 0
M  V30 6260 C 583.596 -2.01591 0.487415 0
M  V30 6261 C 584.021 -1.6455 -0.911307 0
M  V30 6262 O 583.379 -0.851689 -1.6005 0
M  V30 6263 C 583.427 -3.54759 0.646401 0
M  V30 6264 O 582.531 -4.11185 -0.316284 0
M  V30 6265 H 581.872 -0.634884 0.194468 0
M  V30 6266 H 584.402 -1.68024 1.16744 0
M  V30 6267 H 584.412 -4.04438 0.537932 0
M  V30 6268 H 583.087 -3.8106 1.66632 0
M  V30 6269 H 581.664 -3.72543 -0.163162 0
M  V30 6270 N 583.85 -0.624285 -1.44708 0
M  V30 6271 C 584.76 0.0861083 -2.34442 0
M  V30 6272 C 585.776 0.84291 -1.5222 0
M  V30 6273 O 586.952 0.796723 -1.84971 0
M  V30 6274 C 584.017 1.05999 -3.30099 0
M  V30 6275 C 583.077 0.303316 -4.28227 0
M  V30 6276 C 582.311 1.23081 -5.19314 0
M  V30 6277 O 582.534 2.46929 -5.14181 0
M  V30 6278 O 581.468 0.71883 -5.97592 0
M  V30 6279 H 585.293 -0.651756 -2.96624 0
M  V30 6280 H 582.879 -0.384493 -1.44368 0
M  V30 6281 H 584.76 1.62046 -3.88997 0
M  V30 6282 H 583.436 1.77859 -2.70459 0
M  V30 6283 H 582.343 -0.300033 -3.72895 0
M  V30 6284 H 583.676 -0.375123 -4.90768 0
M  V30 6285 N 585.328 1.53329 -0.364422 0
M  V30 6286 C 586.556 2.05657 0.226424 0
M  V30 6287 C 586.971 1.23801 1.42544 0
M  V30 6288 O 586.328 0.27839 1.80364 0
M  V30 6289 C 586.379 3.56125 0.621056 0
M  V30 6290 O 586.1 4.34879 -0.530304 0
M  V30 6291 C 587.601 4.24706 1.27041 0
M  V30 6292 H 584.821 0.669806 0.0400056 0
M  V30 6293 H 587.365 1.97714 -0.522456 0
M  V30 6294 H 585.52 3.64223 1.31985 0
M  V30 6295 H 585.934 5.24073 -0.211546 0
M  V30 6296 H 587.408 5.3131 1.49711 0
M  V30 6297 H 587.885 3.78354 2.23036 0
M  V30 6298 H 588.491 4.20858 0.613079 0
M  V30 6299 N 586.806 0.0935595 1.57322 0
M  V30 6300 C 588.217 -0.435807 1.81542 0
M  V30 6301 C 588.568 -1.68263 1.00907 0
M  V30 6302 O 587.693 -2.15087 0.237983 0
M  V30 6303 C 588.288 -0.797436 3.29282 0
M  V30 6304 C 586.847 -1.27155 3.54272 0
M  V30 6305 C 585.994 -0.267455 2.76007 0
M  V30 6306 H 588.945 0.31902 1.5546 0
M  V30 6307 H 588.966 -1.6571 3.42521 0
M  V30 6308 H 588.478 0.110206 3.87943 0
M  V30 6309 H 586.579 -2.19696 3.00939 0
M  V30 6310 H 586.692 -1.23445 4.62923 0
M  V30 6311 H 585.056 -0.749282 2.43429 0
M  V30 6312 H 585.839 0.632839 3.37417 0
M  V30 6313 N 588.284 -1.56567 -0.180126 0
M  V30 6314 C 589.216 -1.92275 -1.24751 0
M  V30 6315 C 590.229 -0.814922 -1.40936 0
M  V30 6316 O 591.418 -1.09336 -1.41095 0
M  V30 6317 C 588.518 -2.15265 -2.61752 0
M  V30 6318 C 587.691 -3.46467 -2.66981 0
M  V30 6319 C 586.75 -3.58391 -3.85283 0
M  V30 6320 O 585.776 -4.31086 -3.7169 0
M  V30 6321 N 586.978 -2.92587 -5.01371 0
M  V30 6322 H 589.743 -2.84435 -0.944302 0
M  V30 6323 H 587.304 -1.57617 -0.369952 0
M  V30 6324 H 589.296 -2.20515 -3.39345 0
M  V30 6325 H 587.866 -1.29533 -2.845 0
M  V30 6326 H 587.086 -3.52953 -1.75549 0
M  V30 6327 H 588.374 -4.32819 -2.67479 0
M  V30 6328 H 587.772 -2.3338 -5.15316 0
M  V30 6329 H 586.329 -3.03444 -5.76858 0
M  V30 6330 N 589.762 0.448376 -1.51087 0
M  V30 6331 C 590.692 1.55102 -1.74544 0
M  V30 6332 C 591.673 1.59357 -0.594932 0
M  V30 6333 O 592.858 1.75261 -0.836491 0
M  V30 6334 C 589.988 2.93268 -1.86041 0
M  V30 6335 C 588.942 3.03877 -3.01402 0
M  V30 6336 C 588.268 4.43914 -2.98068 0
M  V30 6337 C 589.568 2.7898 -4.41551 0
M  V30 6338 H 591.262 1.35724 -2.66869 0
M  V30 6339 H 588.808 0.651498 -1.28419 0
M  V30 6340 H 590.761 3.70356 -2.01034 0
M  V30 6341 H 589.485 3.13853 -0.903548 0
M  V30 6342 H 588.144 2.29227 -2.86096 0
M  V30 6343 H 587.792 4.6145 -2.00182 0
M  V30 6344 H 587.492 4.51944 -3.75527 0
M  V30 6345 H 589.016 5.22991 -3.1514 0
M  V30 6346 H 590.43 3.45805 -4.57265 0
M  V30 6347 H 588.827 2.98431 -5.20633 0
M  V30 6348 H 589.897 1.74663 -4.5235 0
M  V30 6349 N 591.24 1.41047 0.703093 0
M  V30 6350 C 592.47 1.43133 1.48985 0
M  V30 6351 C 592.878 0.0328537 1.89171 0
M  V30 6352 O 592.221 -0.956469 1.56835 0
M  V30 6353 C 592.283 2.26991 2.78775 0
M  V30 6354 C 591.947 3.7525 2.60837 0
M  V30 6355 C 592.944 4.67591 2.27276 0
M  V30 6356 C 590.629 4.19208 2.76712 0
M  V30 6357 C 592.623 6.01877 2.09817 0
M  V30 6358 C 590.31 5.53561 2.5887 0
M  V30 6359 C 591.308 6.4471 2.25472 0
M  V30 6360 O 590.996 7.76584 2.07778 0
M  V30 6361 H 590.728 0.489788 0.465922 0
M  V30 6362 H 593.282 1.85886 0.873822 0
M  V30 6363 H 591.512 1.79038 3.42757 0
M  V30 6364 H 593.201 2.20867 3.40547 0
M  V30 6365 H 593.967 4.34923 2.14633 0
M  V30 6366 H 589.846 3.48572 3.01693 0
M  V30 6367 H 593.39 6.72986 1.83671 0
M  V30 6368 H 589.287 5.85811 2.71102 0
M  V30 6369 H 590.055 7.87649 2.22601 0
M  V30 6370 N 592.718 -0.936591 1.26751 0
M  V30 6371 C 593.948 -1.71509 1.15188 0
M  V30 6372 C 594.356 -1.86885 -0.295037 0
M  V30 6373 O 593.699 -1.37915 -1.21347 0
M  V30 6374 C 593.761 -3.13853 1.75318 0
M  V30 6375 C 593.425 -3.21845 3.24445 0
M  V30 6376 C 594.422 -3.04771 4.21201 0
M  V30 6377 C 592.107 -3.45088 3.64992 0
M  V30 6378 C 594.101 -3.10816 5.56482 0
M  V30 6379 C 591.788 -3.50767 5.00405 0
M  V30 6380 C 592.786 -3.33648 5.9596 0
M  V30 6381 O 592.474 -3.39045 7.28906 0
M  V30 6382 H 592.206 -0.543658 0.401761 0
M  V30 6383 H 594.76 -1.18234 1.67958 0
M  V30 6384 H 592.99 -3.6857 1.17016 0
M  V30 6385 H 594.679 -3.73634 1.58596 0
M  V30 6386 H 595.445 -2.86665 3.91214 0
M  V30 6387 H 591.324 -3.57467 2.91098 0
M  V30 6388 H 594.868 -2.97372 6.31043 0
M  V30 6389 H 590.765 -3.68396 5.30052 0
M  V30 6390 H 591.533 -3.55558 7.37238 0
M  V30 6391 N 594.196 -1.08629 -1.14182 0
M  V30 6392 C 595.143 -0.718299 -2.19338 0
M  V30 6393 C 596.113 0.296587 -1.63431 0
M  V30 6394 O 597.298 0.180079 -1.89948 0
M  V30 6395 C 594.438 -0.136203 -3.44831 0
M  V30 6396 C 593.551 -1.20414 -4.14879 0
M  V30 6397 C 592.686 -0.585666 -5.27962 0
M  V30 6398 C 591.725 -1.63548 -5.89846 0
M  V30 6399 N 590.862 -1.03864 -6.94375 0
M  V30 6400 H 595.702 -1.61932 -2.50164 0
M  V30 6401 H 593.239 -0.80919 -1.22844 0
M  V30 6402 H 595.197 0.219021 -4.16625 0
M  V30 6403 H 593.827 0.728121 -3.14481 0
M  V30 6404 H 592.879 -1.67676 -3.41451 0
M  V30 6405 H 594.191 -1.99959 -4.56966 0
M  V30 6406 H 593.345 -0.178818 -6.06436 0
M  V30 6407 H 592.084 0.24142 -4.87102 0
M  V30 6408 H 591.089 -2.05197 -5.10073 0
M  V30 6409 H 592.314 -2.46509 -6.3278 0
M  V30 6410 H 590.26 -0.232687 -6.55587 0
M  V30 6411 H 590.177 -1.77116 -7.3496 0
M  V30 6412 H 591.445 -0.657724 -7.7672 0
M  V30 6413 N 595.674 1.31259 -0.872281 0
M  V30 6414 C 596.904 2.00504 -0.498183 0
M  V30 6415 C 597.312 1.65632 0.914479 0
M  V30 6416 O 596.655 0.882849 1.61095 0
M  V30 6417 C 596.717 3.5482 -0.578194 0
M  V30 6418 C 596.381 4.13172 -1.95289 0
M  V30 6419 C 597.378 4.30107 -2.92069 0
M  V30 6420 C 595.063 4.48846 -2.25483 0
M  V30 6421 C 597.057 4.81908 -4.17185 0
M  V30 6422 C 594.744 5.00349 -3.50847 0
M  V30 6423 C 595.742 5.16831 -4.46514 0
M  V30 6424 O 595.43 5.67228 -5.69656 0
M  V30 6425 H 595.162 0.648055 -0.192354 0
M  V30 6426 H 597.716 1.6841 -1.17589 0
M  V30 6427 H 595.946 3.86383 0.156438 0
M  V30 6428 H 597.635 4.05318 -0.217192 0
M  V30 6429 H 598.401 4.02862 -2.7005 0
M  V30 6430 H 594.28 4.35292 -1.51795 0
M  V30 6431 H 597.824 4.94688 -4.91863 0
M  V30 6432 H 593.721 5.27028 -3.72708 0
M  V30 6433 H 594.489 5.85592 -5.7186 0
M  V30 6434 N 597.152 0.631951 1.44375 0
M  V30 6435 C 598.099 -0.0724807 2.30686 0
M  V30 6436 C 599.069 -0.835975 1.43529 0
M  V30 6437 O 600.254 -0.816849 1.7243 0
M  V30 6438 C 597.394 -1.04753 3.28817 0
M  V30 6439 C 596.507 -0.282367 4.31076 0
M  V30 6440 C 595.642 -1.2493 5.163 0
M  V30 6441 C 594.681 -0.473349 6.10267 0
M  V30 6442 N 593.818 -1.39079 6.88187 0
M  V30 6443 H 598.658 0.669477 2.90383 0
M  V30 6444 H 596.195 0.341927 1.43071 0
M  V30 6445 H 598.153 -1.62623 3.842 0
M  V30 6446 H 596.783 -1.75661 2.70819 0
M  V30 6447 H 595.835 0.412268 3.78159 0
M  V30 6448 H 597.147 0.321955 4.9776 0
M  V30 6449 H 596.301 -1.89931 5.76204 0
M  V30 6450 H 595.04 -1.88755 4.49692 0
M  V30 6451 H 594.045 0.190142 5.49471 0
M  V30 6452 H 595.27 0.16019 6.78911 0
M  V30 6453 H 593.216 -2.01623 6.24247 0
M  V30 6454 H 593.133 -0.840513 7.51313 0
M  V30 6455 H 594.401 -2.02961 7.52613 0
M  V30 6456 N 598.631 -1.53133 0.372548 0
M  V30 6457 C 599.563 -2.23557 -0.505444 0
M  V30 6458 C 600.576 -1.25211 -1.04049 0
M  V30 6459 O 601.765 -1.51391 -0.945675 0
M  V30 6460 C 598.865 -2.92516 -1.71136 0
M  V30 6461 C 598.038 -4.17428 -1.30661 0
M  V30 6462 C 597.097 -4.69535 -2.37536 0
M  V30 6463 O 596.123 -5.33042 -1.99637 0
M  V30 6464 N 597.325 -4.47947 -3.6922 0
M  V30 6465 H 600.09 -2.9954 0.0978259 0
M  V30 6466 H 597.651 -1.60684 0.198068 0
M  V30 6467 H 599.643 -3.24281 -2.42124 0
M  V30 6468 H 598.213 -2.19944 -2.22134 0
M  V30 6469 H 597.433 -3.91888 -0.426292 0
M  V30 6470 H 598.721 -4.98622 -1.01259 0
M  V30 6471 H 598.119 -3.97219 -4.02783 0
M  V30 6472 H 596.676 -4.84245 -4.36292 0
M  V30 6473 N 600.109 -0.101901 -1.5727 0
M  V30 6474 C 601.355 0.561027 -1.94885 0
M  V30 6475 C 601.688 1.6741 -0.984258 0
M  V30 6476 O 600.963 1.94491 -0.0184767 0
M  V30 6477 C 601.246 1.10982 -3.42571 0
M  V30 6478 C 601.099 0.00133418 -4.498 0
M  V30 6479 C 602.418 2.00608 -3.9172 0
M  V30 6480 H 599.537 0.202467 -0.708644 0
M  V30 6481 H 602.179 -0.173992 -1.89202 0
M  V30 6482 H 600.329 1.73621 -3.47546 0
M  V30 6483 H 602.001 -0.63322 -4.56933 0
M  V30 6484 H 600.244 -0.664143 -4.28686 0
M  V30 6485 H 600.915 0.426253 -5.50352 0
M  V30 6486 H 603.391 1.47864 -3.88941 0
M  V30 6487 H 602.267 2.3593 -4.95609 0
M  V30 6488 H 602.528 2.92608 -3.3141 0
M  V30 6489 N 601.587 1.56661 0.17182 0
M  V30 6490 C 602.55 1.9549 1.19651 0
M  V30 6491 C 603.55 0.838501 1.37207 0
M  V30 6492 O 604.74 1.10556 1.34622 0
M  V30 6493 C 601.872 2.24927 2.56166 0
M  V30 6494 H 603.065 2.87184 0.864007 0
M  V30 6495 H 600.618 1.50711 0.41425 0
M  V30 6496 H 601.353 1.35944 2.94431 0
M  V30 6497 H 601.138 3.06301 2.4479 0
M  V30 6498 H 602.628 2.55891 3.30014 0
M  V30 6499 N 603.065 -0.440357 1.51323 0
M  V30 6500 C 604.476 -1.02032 1.56353 0
M  V30 6501 C 604.827 -1.92382 0.385197 0
M  V30 6502 O 603.952 -2.10583 -0.498373 0
M  V30 6503 C 604.547 -1.85723 2.83359 0
M  V30 6504 C 603.106 -2.38774 2.90971 0
M  V30 6505 C 602.253 -1.17908 2.50984 0
M  V30 6506 H 605.204 -0.221744 1.57143 0
M  V30 6507 H 605.225 -2.71141 2.66951 0
M  V30 6508 H 604.737 -1.19939 3.69102 0
M  V30 6509 H 602.838 -3.08021 2.09651 0
M  V30 6510 H 602.951 -2.71778 3.94555 0
M  V30 6511 H 601.315 -1.52347 2.04114 0
M  V30 6512 H 602.098 -0.537393 3.39068 0
M  V30 6513 N 604.543 -1.41418 -0.695603 0
M  V30 6514 C 605.49 -1.43264 -1.80954 0
M  V30 6515 C 606.46 -0.287016 -1.63601 0
M  V30 6516 O 607.645 -0.488054 -1.84452 0
M  V30 6517 C 604.785 -1.32054 -3.18835 0
M  V30 6518 C 603.898 -2.56485 -3.4762 0
M  V30 6519 C 603.033 -2.3757 -4.75115 0
M  V30 6520 C 602.072 -3.57477 -4.96867 0
M  V30 6521 N 601.209 -3.37632 -6.15588 0
M  V30 6522 H 606.049 -2.38467 -1.78711 0
M  V30 6523 H 603.586 -1.18415 -0.872715 0
M  V30 6524 H 605.544 -1.23558 -3.98484 0
M  V30 6525 H 604.174 -0.404592 -3.20254 0
M  V30 6526 H 603.226 -2.75432 -2.62376 0
M  V30 6527 H 604.538 -3.45678 -3.59594 0
M  V30 6528 H 603.692 -2.2654 -5.62818 0
M  V30 6529 H 602.431 -1.45834 -4.65386 0
M  V30 6530 H 601.436 -3.68961 -4.07612 0
M  V30 6531 H 602.661 -4.50167 -5.08455 0
M  V30 6532 H 600.607 -2.48596 -6.07072 0
M  V30 6533 H 600.524 -4.20401 -6.2833 0
M  V30 6534 H 601.792 -3.30375 -7.06026 0
M  V30 6535 N 606.021 0.929856 -1.27246 0
M  V30 6536 C 607.432 1.49223 -1.12203 0
M  V30 6537 C 607.783 1.93989 0.293731 0
M  V30 6538 O 606.908 1.80978 1.18642 0
M  V30 6539 C 607.503 2.71198 -2.0307 0
M  V30 6540 C 606.062 3.23666 -1.92139 0
M  V30 6541 C 605.209 1.96409 -1.95752 0
M  V30 6542 H 608.16 0.744181 -1.4017 0
M  V30 6543 H 608.181 3.45905 -1.58524 0
M  V30 6544 H 607.693 2.38585 -3.06102 0
M  V30 6545 H 605.794 3.61042 -0.920834 0
M  V30 6546 H 605.907 3.90006 -2.78267 0
M  V30 6547 H 604.271 2.12806 -1.39949 0
M  V30 6548 H 605.054 1.66113 -3.00436 0
M  V30 6549 N 607.499 1.09233 1.13605 0
M  V30 6550 C 608.409 0.741939 2.22559 0
M  V30 6551 C 609.425 -0.255236 1.72118 0
M  V30 6552 O 610.601 -0.0970747 2.01166 0
M  V30 6553 C 607.666 0.165595 3.46304 0
M  V30 6554 C 606.727 1.21846 4.11645 0
M  V30 6555 C 605.96 0.669526 5.29484 0
M  V30 6556 O 606.183 -0.508228 5.68131 0
M  V30 6557 O 605.117 1.42361 5.84822 0
M  V30 6558 H 608.943 1.65107 2.54899 0
M  V30 6559 H 606.528 0.866584 1.21699 0
M  V30 6560 H 608.41 -0.152592 4.21124 0
M  V30 6561 H 607.085 -0.716573 3.15669 0
M  V30 6562 H 605.992 1.58931 3.38662 0
M  V30 6563 H 607.325 2.07321 4.46407 0
M  V30 6564 N 608.977 -1.30795 0.87923 0
M  V30 6565 C 610.254 -1.91145 0.415086 0
M  V30 6566 C 610.634 -1.7995 -1.10368 0
M  V30 6567 O 609.982 -1.21305 -1.93642 0
M  V30 6568 C 610.192 -3.37014 0.906778 0
M  V30 6569 C 611.54 -4.14101 0.938358 0
M  V30 6570 O 612.564 -3.45834 0.853053 0
M  V30 6571 O 611.423 -5.36054 1.06342 0
M  V30 6572 H 608.517 -0.81736 0.125905 0
M  V30 6573 H 611.063 -1.39401 0.967753 0
M  V30 6574 H 609.835 -3.3922 1.95053 0
M  V30 6575 H 609.458 -3.96204 0.332948 0
M  V30 6576 N 610.455 -0.639598 -1.44038 0
M  V30 6577 C 611.704 -0.144885 -2.01179 0
M  V30 6578 C 612.017 1.24372 -1.50967 0
M  V30 6579 O 613.223 1.83291 -2.00292 0
M  V30 6580 C 611.679 -0.208244 -3.59297 0
M  V30 6581 C 611.287 -1.59869 -4.18504 0
M  V30 6582 C 613.031 0.229568 -4.23879 0
M  V30 6583 C 610.938 -1.61671 -5.68873 0
M  V30 6584 H 609.868 -0.0504005 -0.752314 0
M  V30 6585 H 612.519 -0.799639 -1.65161 0
M  V30 6586 H 610.901 0.513767 -3.92653 0
M  V30 6587 H 612.075 -2.34496 -3.96671 0
M  V30 6588 H 610.39 -1.98131 -3.66242 0
M  V30 6589 H 612.987 0.235758 -5.3418 0
M  V30 6590 H 613.33 1.25848 -3.96822 0
M  V30 6591 H 613.863 -0.440233 -3.95357 0
M  V30 6592 H 610.602 -2.62427 -6.00677 0
M  V30 6593 H 610.122 -0.913489 -5.92803 0
M  V30 6594 H 611.801 -1.35439 -6.32665 0
M  V30 6595 N 611.933 1.52934 -0.380664 0
M  V30 6596 C 613.18 2.01467 0.204278 0
M  V30 6597 C 613.508 1.26744 1.47533 0
M  V30 6598 O 612.763 0.353723 1.92477 0
M  V30 6599 C 613.062 3.5349 0.527199 0
M  V30 6600 C 612.728 4.46171 -0.651295 0
M  V30 6601 C 611.39 4.71227 -0.974619 0
M  V30 6602 C 613.742 5.00909 -1.44012 0
M  V30 6603 C 611.07 5.4827 -2.08847 0
M  V30 6604 C 613.422 5.7917 -2.5445 0
M  V30 6605 C 612.086 6.02507 -2.87301 0
M  V30 6606 H 611.356 0.73722 0.0747504 0
M  V30 6607 H 614.003 1.84411 -0.516234 0
M  V30 6608 H 612.308 3.68574 1.32892 0
M  V30 6609 H 614.005 3.88529 0.992283 0
M  V30 6610 H 610.595 4.26829 -0.389276 0
M  V30 6611 H 614.779 4.81485 -1.20357 0
M  V30 6612 H 610.035 5.64567 -2.34679 0
M  V30 6613 H 614.209 6.20588 -3.1598 0
M  V30 6614 H 611.836 6.61989 -3.7373 0
M  V30 6615 N 613.412 0.11024 1.57214 0
M  V30 6616 C 614.64 -0.557834 1.99238 0
M  V30 6617 C 615.055 -1.60778 0.989734 0
M  V30 6618 O 614.412 -1.82491 -0.0186092 0
M  V30 6619 C 614.463 -1.19189 3.41286 0
M  V30 6620 O 614.184 -0.183919 4.37714 0
M  V30 6621 C 615.685 -1.94413 3.98395 0
M  V30 6622 H 612.905 -0.148392 0.654386 0
M  V30 6623 H 615.449 0.193996 2.03578 0
M  V30 6624 H 613.604 -1.89456 3.37913 0
M  V30 6625 H 614.018 -0.643475 5.20538 0
M  V30 6626 H 615.492 -2.34116 4.99894 0
M  V30 6627 H 615.969 -2.81592 3.3705 0
M  V30 6628 H 616.575 -1.28928 4.05287 0
M  V30 6629 N 614.89 -1.56749 -0.16351 0
M  V30 6630 C 615.838 -1.97939 -1.22159 0
M  V30 6631 C 616.832 -0.869288 -1.45395 0
M  V30 6632 O 618.038 -1.05443 -1.45883 0
M  V30 6633 H 614.413 -0.629869 -0.410815 0
M  V30 6634 H 616.384 -2.86115 -0.847381 0
M  V30 6635 C 615.133 -2.36206 -2.55151 0
M  V30 6636 H 614.456 -3.2117 -2.38097 0
M  V30 6637 H 615.896 -2.68863 -3.27854 0
M  V30 6638 C 614.355 -1.20841 -3.14482 0
M  V30 6639 O 614.885 -0.500258 -3.98573 0
M  V30 6640 N 613.091 -0.976943 -2.73686 0
M  V30 6641 H 612.638 -1.55457 -2.05404 0
M  V30 6642 H 612.596 -0.206912 -3.13718 0
M  V30 6643 N 616.368 0.432326 -1.51554 0
M  V30 6644 C 617.617 1.17831 -1.63703 0
M  V30 6645 C 617.93 1.92229 -0.36156 0
M  V30 6646 O 619.136 2.69069 -0.362495 0
M  V30 6647 C 617.592 2.14318 -2.89129 0
M  V30 6648 C 617.2 1.45544 -4.23699 0
M  V30 6649 C 618.944 2.89319 -3.10636 0
M  V30 6650 C 616.851 2.40545 -5.4027 0
M  V30 6651 H 615.781 0.443533 -0.60975 0
M  V30 6652 H 618.432 0.444878 -1.78026 0
M  V30 6653 H 616.814 2.91117 -2.68452 0
M  V30 6654 H 617.988 0.742693 -4.54775 0
M  V30 6655 H 616.303 0.826772 -4.0811 0
M  V30 6656 H 618.9 3.60495 -3.94902 0
M  V30 6657 H 619.243 3.50951 -2.23918 0
M  V30 6658 H 619.776 2.19625 -3.31677 0
M  V30 6659 H 616.515 1.83594 -6.29264 0
M  V30 6660 H 616.035 3.09859 -5.13563 0
M  V30 6661 H 617.714 3.01569 -5.72421 0
M  V30 6662 N 617.846 1.41785 0.688094 0
M  V30 6663 C 618.756 1.46596 1.83158 0
M  V30 6664 C 619.772 0.355862 1.70322 0
M  V30 6665 O 620.948 0.604737 1.92106 0
M  V30 6666 C 618.013 1.35322 3.192 0
M  V30 6667 C 617.074 2.56711 3.4409 0
M  V30 6668 C 616.307 2.45965 4.73642 0
M  V30 6669 O 616.53 1.48827 5.50642 0
M  V30 6670 O 615.464 3.35859 4.99482 0
M  V30 6671 H 619.29 2.43083 1.82056 0
M  V30 6672 H 616.875 1.23404 0.842126 0
M  V30 6673 H 618.757 1.31347 4.00407 0
M  V30 6674 H 617.432 0.419536 3.2097 0
M  V30 6675 H 616.339 2.66262 2.62784 0
M  V30 6676 H 617.672 3.48933 3.47141 0
M  V30 6677 N 619.324 -0.923095 1.27737 0
M  V30 6678 C 620.287 -2.00587 1.10894 0
M  V30 6679 C 621.287 -1.60718 0.0514927 0
M  V30 6680 O 622.477 -1.71658 0.296481 0
M  V30 6681 C 619.609 -3.33829 0.690717 0
M  V30 6682 H 620.802 -2.16959 2.07048 0
M  V30 6683 H 618.355 -1.10451 1.1059 0
M  V30 6684 H 619.09 -3.23157 -0.272 0
M  V30 6685 H 618.875 -3.64125 1.45448 0
M  V30 6686 H 620.365 -4.13336 0.595252 0
M  V30 6687 N 620.802 -1.09834 -1.13024 0
M  V30 6688 C 622.079 -0.749225 -1.80682 0
M  V30 6689 C 622.459 0.765171 -1.96744 0
M  V30 6690 O 621.807 1.68912 -1.53886 0
M  V30 6691 C 622.017 -1.49311 -3.15448 0
M  V30 6692 C 623.365 -1.66162 -3.90737 0
M  V30 6693 O 624.389 -1.45597 -3.25085 0
M  V30 6694 O 623.248 -2.00211 -5.08505 0
M  V30 6695 H 620.342 -0.269614 -0.781817 0
M  V30 6696 H 622.888 -1.20078 -1.19914 0
M  V30 6697 H 621.66 -2.52407 -2.99009 0
M  V30 6698 H 621.283 -1.034 -3.8392 0
M  V30 6699 N 622.28 1.30327 -0.886154 0
M  V30 6700 C 623.21 2.30549 -0.370028 0
M  V30 6701 C 624.191 1.61039 0.547751 0
M  V30 6702 O 625.376 1.8864 0.461353 0
M  V30 6703 C 622.506 3.44808 0.415275 0
M  V30 6704 C 621.46 4.26024 -0.41085 0
M  V30 6705 C 620.786 5.32347 0.501128 0
M  V30 6706 C 622.086 4.95433 -1.65359 0
M  V30 6707 H 623.78 2.73969 -1.20754 0
M  V30 6708 H 621.326 1.3171 -0.582097 0
M  V30 6709 H 623.279 4.13986 0.78699 0
M  V30 6710 H 622.003 3.00197 1.28644 0
M  V30 6711 H 620.662 3.58535 -0.764719 0
M  V30 6712 H 620.31 4.83982 1.37004 0
M  V30 6713 H 620.01 5.87581 -0.0478356 0
M  V30 6714 H 621.534 6.0438 0.869333 0
M  V30 6715 H 622.948 5.5712 -1.35239 0
M  V30 6716 H 621.345 5.60537 -2.14284 0
M  V30 6717 H 622.415 4.21493 -2.39733 0
M  V30 6718 N 623.758 0.647228 1.43697 0
M  V30 6719 C 625.174 0.314256 1.56476 0
M  V30 6720 C 625.374 -1.18191 1.63196 0
M  V30 6721 O 624.43 -1.96655 1.58376 0
M  V30 6722 C 625.743 1.02034 2.82859 0
M  V30 6723 C 627.291 1.00002 2.96595 0
M  V30 6724 C 627.766 1.68689 4.25803 0
M  V30 6725 N 629.257 1.65424 4.32654 0
M  V30 6726 C 629.992 2.1545 5.31384 0
M  V30 6727 N 629.488 2.73738 6.36427 0
M  V30 6728 N 631.281 2.05985 5.22998 0
M  V30 6729 H 623.432 1.61821 1.37578 0
M  V30 6730 H 625.695 0.680184 0.660344 0
M  V30 6731 H 625.401 2.07542 2.83935 0
M  V30 6732 H 625.275 0.568146 3.72897 0
M  V30 6733 H 627.662 -0.0466319 2.95063 0
M  V30 6734 H 627.743 1.49086 2.07863 0
M  V30 6735 H 627.387 2.73308 4.28095 0
M  V30 6736 H 627.317 1.17076 5.13421 0
M  V30 6737 H 629.808 1.22884 3.57363 0
M  V30 6738 H 630.121 3.09602 7.08072 0
M  V30 6739 H 628.466 2.77796 6.37067 0
M  V30 6740 H 631.657 1.60157 4.39849 0
M  V30 6741 H 631.83 2.45281 5.99784 0
M  V30 6742 N 625.236 -1.5273 0.388769 0
M  V30 6743 C 626.199 -2.25043 -0.434544 0
M  V30 6744 C 627.199 -1.26661 -0.990644 0
M  V30 6745 O 628.389 -1.50762 -0.872731 0
M  V30 6746 C 625.521 -3.00507 -1.60961 0
M  V30 6747 H 626.714 -2.99242 0.198549 0
M  V30 6748 H 624.267 -1.55664 0.140875 0
M  V30 6749 H 625.002 -2.30607 -2.28015 0
M  V30 6750 H 624.787 -3.72716 -1.21757 0
M  V30 6751 H 626.277 -3.55413 -2.19251 0
M  V30 6752 N 626.714 -0.118576 -1.57153 0
M  V30 6753 C 627.991 0.583062 -1.86708 0
M  V30 6754 C 628.371 1.84841 -1.01967 0
M  V30 6755 O 627.719 2.28288 -0.0984673 0
M  V30 6756 C 627.929 0.875912 -3.3783 0
M  V30 6757 C 629.277 1.22916 -4.0642 0
M  V30 6758 O 630.301 0.966188 -3.42846 0
M  V30 6759 O 629.16 1.72269 -5.18638 0
M  V30 6760 H 626.254 0.294185 -0.772906 0
M  V30 6761 H 628.8 -0.153048 -1.69008 0
M  V30 6762 H 627.572 -0.0207776 -3.91294 0
M  V30 6763 H 627.195 1.66719 -3.60958 0
M  V30 6764 N 628.193 1.56834 0.155195 0
M  V30 6765 C 629.604 1.72421 0.716082 0
M  V30 6766 C 629.955 0.731685 1.82046 0
M  V30 6767 O 629.08 -0.103481 2.16152 0
M  V30 6768 C 629.675 3.12629 1.30571 0
M  V30 6769 C 628.234 3.29846 1.81325 0
M  V30 6770 C 627.381 2.68359 0.698494 0
M  V30 6771 H 630.332 1.58544 -0.0703861 0
M  V30 6772 H 630.353 3.12174 2.1755 0
M  V30 6773 H 629.865 3.84844 0.501701 0
M  V30 6774 H 627.966 2.62614 2.64319 0
M  V30 6775 H 628.079 4.37727 1.9476 0
M  V30 6776 H 626.443 2.28604 1.12305 0
M  V30 6777 H 627.226 3.43171 -0.0939366 0
M  V30 6778 N 629.671 -0.424282 1.51781 0
M  V30 6779 C 630.896 -1.19928 1.6921 0
M  V30 6780 C 631.321 -1.8392 0.394355 0
M  V30 6781 O 630.679 -1.69371 -0.646778 0
M  V30 6782 C 630.727 -2.24937 2.81843 0
M  V30 6783 O 629.831 -3.3073 2.46356 0
M  V30 6784 H 629.172 -0.35078 0.563781 0
M  V30 6785 H 631.702 -0.499401 1.98412 0
M  V30 6786 H 631.712 -2.69512 3.06312 0
M  V30 6787 H 630.387 -1.77742 3.76006 0
M  V30 6788 H 628.964 -2.9154 2.32505 0
M  V30 6789 N 631.149 -1.42148 -0.680565 0
M  V30 6790 C 632.395 -1.4352 -1.44131 0
M  V30 6791 C 632.75 -0.0486244 -1.92339 0
M  V30 6792 O 632.043 0.92819 -1.67616 0
M  V30 6793 C 632.237 -2.38945 -2.65782 0
M  V30 6794 C 632.066 -3.86743 -2.29477 0
M  V30 6795 C 630.836 -4.5532 -2.19115 0
M  V30 6796 C 633.034 -4.77321 -1.91491 0
M  V30 6797 N 631.016 -5.88174 -1.75853 0
M  V30 6798 C 632.387 -5.99238 -1.59103 0
M  V30 6799 C 634.442 -4.64829 -1.78432 0
M  V30 6800 C 633.145 -7.10053 -1.14968 0
M  V30 6801 C 635.171 -5.75621 -1.35702 0
M  V30 6802 C 634.533 -6.96645 -1.04234 0
M  V30 6803 H 630.632 -0.580363 -0.524121 0
M  V30 6804 H 633.216 -1.78132 -0.785939 0
M  V30 6805 H 631.387 -2.06403 -3.29017 0
M  V30 6806 H 633.119 -2.30935 -3.32342 0
M  V30 6807 H 629.874 -4.09456 -2.37998 0
M  V30 6808 H 630.298 -6.58625 -1.56661 0
M  V30 6809 H 634.94 -3.71745 -2.01409 0
M  V30 6810 H 632.658 -8.0299 -0.907365 0
M  V30 6811 H 636.244 -5.67964 -1.26126 0
M  V30 6812 H 635.124 -7.80918 -0.716707 0
M  V30 6813 N 632.627 0.916307 -1.28225 0
M  V30 6814 C 633.557 2.0352 -1.14464 0
M  V30 6815 C 634.538 1.70045 -0.0430844 0
M  V30 6816 O 635.723 1.92954 -0.219619 0
M  V30 6817 C 632.853 3.37889 -0.803027 0
M  V30 6818 C 631.807 3.85516 -1.85908 0
M  V30 6819 C 631.133 5.1682 -1.37116 0
M  V30 6820 C 632.433 4.07655 -3.26519 0
M  V30 6821 H 634.127 2.1529 -2.08064 0
M  V30 6822 H 631.673 1.03446 -1.00174 0
M  V30 6823 H 633.626 4.15654 -0.693537 0
M  V30 6824 H 632.35 3.26164 0.168674 0
M  V30 6825 H 631.009 3.09953 -1.95767 0
M  V30 6826 H 630.657 5.01497 -0.38859 0
M  V30 6827 H 630.357 5.49657 -2.07728 0
M  V30 6828 H 631.881 5.97143 -1.27484 0
M  V30 6829 H 633.295 4.75953 -3.19596 0
M  V30 6830 H 631.692 4.51818 -3.94943 0
M  V30 6831 H 632.762 3.12553 -3.70727 0
M  V30 6832 N 634.105 1.10431 1.1244 0
M  V30 6833 C 635.038 0.696987 2.17296 0
M  V30 6834 C 636.016 -0.301673 1.59777 0
M  V30 6835 O 637.2 -0.200583 1.8743 0
M  V30 6836 C 634.327 0.0284094 3.38688 0
M  V30 6837 C 633.373 0.990536 4.14838 0
M  V30 6838 S 634.206 2.50785 4.73146 0
M  V30 6839 C 635.362 1.85198 5.97873 0
M  V30 6840 H 635.595 1.58523 2.51511 0
M  V30 6841 H 633.128 0.921312 1.239 0
M  V30 6842 H 635.086 -0.351009 4.08997 0
M  V30 6843 H 633.747 -0.836629 3.02753 0
M  V30 6844 H 632.94 0.469991 5.01804 0
M  V30 6845 H 632.542 1.31186 3.50237 0
M  V30 6846 H 634.834 1.18217 6.67106 0
M  V30 6847 H 635.777 2.7012 6.54554 0
M  V30 6848 H 636.185 1.31653 5.48933 0
M  V30 6849 N 635.583 -1.29855 0.893053 0
M  V30 6850 C 636.515 -2.26911 0.32311 0
M  V30 6851 C 637.528 -1.54039 -0.526858 0
M  V30 6852 O 638.717 -1.75132 -0.345095 0
M  V30 6853 C 635.817 -3.34266 -0.558509 0
M  V30 6854 C 634.99 -4.36601 0.264222 0
M  V30 6855 C 634.049 -5.23326 -0.549171 0
M  V30 6856 O 633.075 -5.69192 0.0309883 0
M  V30 6857 N 634.277 -5.50008 -1.85664 0
M  V30 6858 H 637.042 -2.76455 1.15726 0
M  V30 6859 H 634.603 -1.4312 0.756859 0
M  V30 6860 H 636.595 -3.89211 -1.1089 0
M  V30 6861 H 635.165 -2.8459 -1.29334 0
M  V30 6862 H 634.385 -3.81409 0.996046 0
M  V30 6863 H 635.673 -5.02019 0.827906 0
M  V30 6864 H 635.071 -5.14542 -2.35081 0
M  V30 6865 H 633.628 -6.07796 -2.35431 0
M  V30 6866 N 637.061 -0.65484 -1.43351 0
M  V30 6867 C 638.338 -0.0987371 -1.95351 0
M  V30 6868 C 638.718 1.38161 -1.59608 0
M  V30 6869 O 638.066 2.10791 -0.882021 0
M  V30 6870 C 638.276 -0.346684 -3.47274 0
M  V30 6871 C 639.624 -0.25249 -4.23849 0
M  V30 6872 O 640.648 -0.279332 -3.55103 0
M  V30 6873 O 639.507 -0.177584 -5.46211 0
M  V30 6874 H 636.601 0.0086829 -0.826954 0
M  V30 6875 H 639.147 -0.728189 -1.53282 0
M  V30 6876 H 637.919 -1.37296 -3.66423 0
M  V30 6877 H 637.542 0.315757 -3.96344 0
M  V30 6878 N 638.539 1.52521 -0.396863 0
M  V30 6879 C 639.471 2.24333 0.469814 0
M  V30 6880 C 640.484 1.2685 1.02043 0
M  V30 6881 O 641.673 1.52876 0.92147 0
M  V30 6882 C 638.773 2.95202 1.66461 0
M  V30 6883 C 637.946 4.19454 1.24003 0
M  V30 6884 C 637.005 4.73255 2.30036 0
M  V30 6885 O 636.031 5.36151 1.91131 0
M  V30 6886 N 637.233 4.53765 3.62047 0
M  V30 6887 H 639.998 2.99347 -0.145468 0
M  V30 6888 H 637.559 1.60348 -0.223606 0
M  V30 6889 H 639.551 3.28092 2.36934 0
M  V30 6890 H 638.121 2.2345 2.18607 0
M  V30 6891 H 637.341 3.92517 0.363892 0
M  V30 6892 H 638.629 5.0017 0.933135 0
M  V30 6893 H 638.027 4.03576 3.96412 0
M  V30 6894 H 636.584 4.91124 4.28533 0
M  V30 6895 N 640.017 0.126909 1.57088 0
M  V30 6896 C 641.266 -0.529024 1.94639 0
M  V30 6897 C 641.579 -1.67323 1.01304 0
M  V30 6898 O 642.785 -2.39245 1.28352 0
M  V30 6899 C 641.241 -0.992483 3.45945 0
M  V30 6900 C 640.849 0.123691 4.47829 0
M  V30 6901 C 642.593 -1.61934 3.924 0
M  V30 6902 C 640.5 -0.356911 5.90322 0
M  V30 6903 H 639.43 -0.201397 0.726605 0
M  V30 6904 H 642.081 0.208032 1.82317 0
M  V30 6905 H 640.463 -1.7842 3.53528 0
M  V30 6906 H 641.637 0.900168 4.51922 0
M  V30 6907 H 639.952 0.657699 4.11173 0
M  V30 6908 H 642.549 -1.9902 4.96281 0
M  V30 6909 H 642.892 -2.50075 3.32819 0
M  V30 6910 H 643.425 -0.892894 3.8765 0
M  V30 6911 H 640.164 0.488636 6.53676 0
M  V30 6912 H 639.684 -1.0997 5.89633 0
M  V30 6913 H 641.363 -0.815547 6.41839 0
M  V30 6914 N 641.495 -1.56914 -0.146875 0
M  V30 6915 C 642.72 -1.87881 -0.878386 0
M  V30 6916 C 643.145 -0.715945 -1.73942 0
M  V30 6917 O 642.503 0.334447 -1.78189 0
M  V30 6918 C 642.551 -3.17431 -1.71084 0
M  V30 6919 O 641.655 -3.01374 -2.81509 0
M  V30 6920 H 640.996 -0.617289 -0.244644 0
M  V30 6921 H 643.526 -2.04136 -0.137654 0
M  V30 6922 H 643.536 -3.49455 -2.10582 0
M  V30 6923 H 642.211 -4.01671 -1.07856 0
M  V30 6924 H 640.788 -2.80758 -2.45416 0
M  V30 6925 N 642.974 0.416227 -1.52004 0
M  V30 6926 C 643.904 1.51365 -1.77795 0
M  V30 6927 C 644.885 1.58059 -0.628601 0
M  V30 6928 O 646.07 1.73447 -0.873478 0
M  V30 6929 C 643.2 2.89256 -1.92219 0
M  V30 6930 C 642.154 2.97415 -3.0778 0
M  V30 6931 C 641.48 4.37492 -3.07417 0
M  V30 6932 C 642.78 2.69551 -4.47369 0
M  V30 6933 H 644.474 1.30033 -2.69688 0
M  V30 6934 H 642.02 0.624112 -1.29772 0
M  V30 6935 H 643.973 3.66008 -2.08845 0
M  V30 6936 H 642.697 3.11866 -0.969917 0
M  V30 6937 H 641.356 2.23107 -2.90893 0
M  V30 6938 H 641.004 4.571 -2.09925 0
M  V30 6939 H 640.704 4.43877 -3.85029 0
M  V30 6940 H 642.228 5.16188 -3.26162 0
M  V30 6941 H 643.642 3.36028 -4.64497 0
M  V30 6942 H 642.039 2.87321 -5.26846 0
M  V30 6943 H 643.109 1.65029 -4.55953 0
M  V30 6944 N 644.452 1.42507 0.673017 0
M  V30 6945 C 645.384 1.42074 1.79854 0
M  V30 6946 C 646.397 0.319569 1.59633 0
M  V30 6947 O 647.586 0.582769 1.68719 0
M  V30 6948 C 644.686 1.19886 3.16987 0
M  V30 6949 C 643.859 2.42471 3.64042 0
M  V30 6950 C 642.918 2.15802 4.79913 0
M  V30 6951 O 641.944 2.89015 4.90366 0
M  V30 6952 N 643.146 1.16225 5.68746 0
M  V30 6953 H 645.911 2.3909 1.8071 0
M  V30 6954 H 643.472 1.37409 0.856171 0
M  V30 6955 H 645.464 0.999591 3.92161 0
M  V30 6956 H 644.034 0.313879 3.1102 0
M  V30 6957 H 643.254 2.77954 2.79526 0
M  V30 6958 H 644.542 3.24097 3.92223 0
M  V30 6959 H 643.94 0.556756 5.62954 0
M  V30 6960 H 642.497 1.02285 6.43724 0
M  V30 6961 N 645.93 -0.909495 1.28709 0
M  V30 6962 C 646.86 -2.0291 1.15542 0
M  V30 6963 C 647.841 -1.7002 0.0521017 0
M  V30 6964 O 649.026 -1.92835 0.229849 0
M  V30 6965 C 646.156 -3.37458 0.820935 0
M  V30 6966 C 645.11 -3.84524 1.87949 0
M  V30 6967 C 644.436 -5.16086 1.39854 0
M  V30 6968 C 645.736 -4.05918 3.28676 0
M  V30 6969 H 647.43 -2.14183 2.09203 0
M  V30 6970 H 644.976 -1.02913 1.00722 0
M  V30 6971 H 646.929 -4.1528 0.715571 0
M  V30 6972 H 645.653 -3.26249 -0.151374 0
M  V30 6973 H 644.312 -3.08911 1.97408 0
M  V30 6974 H 643.96 -5.01284 0.41518 0
M  V30 6975 H 643.66 -5.48547 2.1064 0
M  V30 6976 H 645.184 -5.96459 1.30649 0
M  V30 6977 H 646.598 -4.74252 3.22115 0
M  V30 6978 H 644.995 -4.49717 3.97334 0
M  V30 6979 H 646.065 -3.10583 3.72379 0
M  V30 6980 N 647.408 -1.11026 -1.11852 0
M  V30 6981 C 648.356 -0.759643 -2.19846 0
M  V30 6982 C 649.35 0.246964 -1.6759 0
M  V30 6983 O 650.556 0.106693 -1.79684 0
M  V30 6984 H 646.931 -0.22775 -0.716683 0
M  V30 6985 H 648.902 -1.6792 -2.46669 0
M  V30 6986 C 647.651 -0.214364 -3.47039 0
M  V30 6987 H 646.974 -0.980175 -3.87599 0
M  V30 6988 H 648.414 -0.00717047 -4.23999 0
M  V30 6989 C 646.873 1.05436 -3.19976 0
M  V30 6990 O 647.403 2.13483 -3.40276 0
M  V30 6991 N 645.609 0.975436 -2.7374 0
M  V30 6992 H 645.156 0.0960853 -2.57421 0
M  V30 6993 H 645.114 1.82501 -2.5601 0
M  V30 6994 N 648.886 1.2938 -0.899927 0
M  V30 6995 C 650.302 1.48052 -0.596059 0
M  V30 6996 C 650.502 1.82114 0.862372 0
M  V30 6997 O 649.558 1.91774 1.64253 0
M  V30 6998 C 650.871 2.59332 -1.52208 0
M  V30 6999 C 652.419 2.73208 -1.5273 0
M  V30 7000 C 652.894 3.87617 -2.43961 0
M  V30 7001 N 654.385 3.9495 -2.42009 0
M  V30 7002 C 655.12 4.82824 -3.09303 0
M  V30 7003 N 654.616 5.75387 -3.85877 0
M  V30 7004 N 656.409 4.76317 -2.98459 0
M  V30 7005 H 648.56 1.05546 -1.8432 0
M  V30 7006 H 650.823 0.524314 -0.78981 0
M  V30 7007 H 650.529 2.41029 -2.56121 0
M  V30 7008 H 650.403 3.56139 -1.24278 0
M  V30 7009 H 652.79 2.90908 -0.495614 0
M  V30 7010 H 652.871 1.76975 -1.84698 0
M  V30 7011 H 652.515 3.70672 -3.47224 0
M  V30 7012 H 652.445 4.83218 -2.09303 0
M  V30 7013 H 654.936 3.28744 -1.86375 0
M  V30 7014 H 655.249 6.39235 -4.34279 0
M  V30 7015 H 653.594 5.75272 -3.89984 0
M  V30 7016 H 656.785 4.0299 -2.38152 0
M  V30 7017 H 656.958 5.44589 -3.51179 0
M  V30 7018 N 650.364 0.662433 1.43002 0
M  V30 7019 C 651.592 0.187615 2.06048 0
M  V30 7020 C 652.007 -1.15039 1.49705 0
M  V30 7021 O 651.364 -1.71209 0.631956 0
M  V30 7022 C 651.415 0.100498 3.6136 0
M  V30 7023 O 651.136 1.38562 4.15611 0
M  V30 7024 C 652.637 -0.399298 4.41498 0
M  V30 7025 H 649.857 0.0941675 0.664359 0
M  V30 7026 H 652.401 0.905681 1.83351 0
M  V30 7027 H 650.556 -0.568181 3.83211 0
M  V30 7028 H 650.97 1.25084 5.09366 0
M  V30 7029 H 652.444 -0.409187 5.50481 0
M  V30 7030 H 652.921 -1.43232 4.15188 0
M  V30 7031 H 653.527 0.23721 4.24638 0
M  V30 7032 N 651.842 -1.52309 0.404946 0
M  V30 7033 C 652.805 -2.25491 -0.410651 0
M  V30 7034 C 653.805 -1.27704 -0.977154 0
M  V30 7035 O 654.995 -1.51679 -0.856691 0
M  V30 7036 C 652.127 -3.02197 -1.57765 0
M  V30 7037 H 653.32 -2.99015 0.230277 0
M  V30 7038 H 650.873 -1.55506 0.157377 0
M  V30 7039 H 651.608 -2.33013 -2.25556 0
M  V30 7040 H 651.393 -3.73987 -1.17797 0
M  V30 7041 H 652.883 -3.57719 -2.15469 0
M  V30 7042 N 653.32 -0.135238 -1.57019 0
M  V30 7043 C 654.548 0.526066 -2.001 0
M  V30 7044 C 654.963 1.59184 -1.01519 0
M  V30 7045 O 654.32 1.82497 -0.0104258 0
M  V30 7046 C 654.371 1.13744 -3.43139 0
M  V30 7047 O 654.092 0.114259 -4.37951 0
M  V30 7048 C 655.593 1.8805 -4.01438 0
M  V30 7049 H 652.813 0.137962 -0.656664 0
M  V30 7050 H 655.357 -0.226359 -2.03243 0
M  V30 7051 H 653.512 1.84056 -3.40885 0
M  V30 7052 H 653.926 0.56058 -5.21496 0
M  V30 7053 H 655.4 2.26133 -5.03555 0
M  V30 7054 H 655.877 2.76194 -3.41487 0
M  V30 7055 H 656.483 1.22464 -4.07287 0
M  V30 7056 N 654.798 1.5699 0.138552 0
M  V30 7057 C 656.026 1.87976 0.864437 0
M  V30 7058 C 656.441 0.724372 1.74351 0
M  V30 7059 O 655.798 -0.305575 1.79924 0
M  V30 7060 C 655.849 3.18276 1.71414 0
M  V30 7061 O 655.57 4.29365 0.870487 0
M  V30 7062 C 657.071 3.62834 2.54688 0
M  V30 7063 H 654.291 0.622878 0.249528 0
M  V30 7064 H 656.835 2.04094 0.128805 0
M  V30 7065 H 654.99 3.03886 2.40274 0
M  V30 7066 H 655.404 5.03924 1.45466 0
M  V30 7067 H 656.878 4.5682 3.0987 0
M  V30 7068 H 657.355 2.88533 3.31127 0
M  V30 7069 H 657.961 3.79946 1.91105 0
M  V30 7070 N 656.276 -0.40816 1.52223 0
M  V30 7071 C 657.523 -1.15502 1.66329 0
M  V30 7072 C 657.851 -1.90474 0.393701 0
M  V30 7073 O 657.106 -1.85507 -0.623356 0
M  V30 7074 C 657.405 -2.17422 2.83659 0
M  V30 7075 C 657.071 -1.5925 4.21841 0
M  V30 7076 C 655.733 -1.4311 4.59427 0
M  V30 7077 C 658.085 -1.16776 5.0795 0
M  V30 7078 C 655.413 -0.830148 5.80797 0
M  V30 7079 C 657.765 -0.580988 6.29926 0
M  V30 7080 C 656.429 -0.406729 6.6626 0
M  V30 7081 H 655.699 -0.422653 0.608642 0
M  V30 7082 H 658.346 -0.442114 1.86327 0
M  V30 7083 H 656.651 -2.94861 2.58001 0
M  V30 7084 H 658.348 -2.75084 2.9177 0
M  V30 7085 H 654.938 -1.72796 3.92224 0
M  V30 7086 H 659.122 -1.28055 4.79495 0
M  V30 7087 H 654.378 -0.68316 6.07571 0
M  V30 7088 H 658.552 -0.243488 6.95974 0
M  V30 7089 H 656.179 0.0610366 7.60175 0
M  V30 7090 N 657.755 -1.42862 -0.66545 0
M  V30 7091 C 658.98 -1.47456 -1.45848 0
M  V30 7092 C 659.405 -0.0900312 -1.87884 0
M  V30 7093 O 658.763 0.913587 -1.56599 0
M  V30 7094 C 658.811 -2.41514 -2.67774 0
M  V30 7095 O 657.915 -1.89296 -3.66389 0
M  V30 7096 H 657.256 -0.499236 -0.437789 0
M  V30 7097 H 659.786 -1.8765 -0.815394 0
M  V30 7098 H 659.796 -2.58409 -3.15735 0
M  V30 7099 H 658.471 -3.42099 -2.36519 0
M  V30 7100 H 657.048 -1.82003 -3.25468 0
M  V30 7101 N 659.233 0.902656 -1.29189 0
M  V30 7102 C 660.461 1.68639 -1.19869 0
M  V30 7103 C 660.876 1.87254 0.241121 0
M  V30 7104 O 660.233 1.40745 1.16177 0
M  V30 7105 C 660.284 3.07251 -1.90471 0
M  V30 7106 O 660.005 2.89488 -3.28829 0
M  V30 7107 C 661.506 4.01653 -1.8759 0
M  V30 7108 H 658.726 0.526802 -0.415596 0
M  V30 7109 H 661.27 1.12901 -1.7051 0
M  V30 7110 H 659.425 3.59774 -1.43672 0
M  V30 7111 H 659.839 3.77296 -3.64346 0
M  V30 7112 H 661.313 4.96339 -2.4156 0
M  V30 7113 H 661.79 4.30881 -0.850756 0
M  V30 7114 H 662.396 3.55061 -2.34119 0
M  V30 7115 N 660.711 1.11618 1.11262 0
M  V30 7116 C 661.641 0.79846 2.19424 0
M  V30 7117 C 662.622 -0.234003 1.68483 0
M  V30 7118 O 663.807 -0.0970704 1.93957 0
M  V30 7119 C 660.937 0.242892 3.4645 0
M  V30 7120 C 659.891 1.20744 4.10615 0
M  V30 7121 C 659.217 0.512494 5.32238 0
M  V30 7122 C 660.517 2.55884 4.55325 0
M  V30 7123 H 662.211 1.70286 2.46258 0
M  V30 7124 H 659.757 0.820195 1.18359 0
M  V30 7125 H 661.71 0.00840447 4.21399 0
M  V30 7126 H 660.434 -0.696811 3.1908 0
M  V30 7127 H 659.093 1.42759 3.37662 0
M  V30 7128 H 658.741 -0.432075 5.01141 0
M  V30 7129 H 658.441 1.15583 5.7612 0
M  V30 7130 H 659.965 0.286842 6.09926 0
M  V30 7131 H 661.379 2.37946 5.21588 0
M  V30 7132 H 659.776 3.16216 5.10027 0
M  V30 7133 H 660.846 3.14968 3.68678 0
M  V30 7134 N 662.189 -1.289 0.906776 0
M  V30 7135 C 663.121 -2.26556 0.347159 0
M  V30 7136 C 664.134 -1.54589 -0.51049 0
M  V30 7137 O 665.323 -1.75489 -0.326501 0
M  V30 7138 C 662.423 -3.3484 -0.523024 0
M  V30 7139 C 661.596 -4.36296 0.310515 0
M  V30 7140 C 660.655 -5.23879 -0.493634 0
M  V30 7141 O 659.681 -5.69127 0.0913569 0
M  V30 7142 N 660.883 -5.51946 -1.7982 0
M  V30 7143 H 663.648 -2.75212 1.18652 0
M  V30 7144 H 661.209 -1.42309 0.771996 0
M  V30 7145 H 663.201 -3.90366 -1.06756 0
M  V30 7146 H 661.771 -2.85946 -1.26309 0
M  V30 7147 H 660.991 -3.80331 1.03644 0
M  V30 7148 H 662.279 -5.01113 0.881106 0
M  V30 7149 H 661.677 -5.17006 -2.2961 0
M  V30 7150 H 660.234 -6.10258 -2.28971 0
M  V30 7151 N 663.667 -0.670007 -1.42649 0
M  V30 7152 C 664.916 -0.187526 -2.00826 0
M  V30 7153 C 665.229 1.21142 -1.53571 0
M  V30 7154 O 666.435 1.79001 -2.04134 0
M  V30 7155 C 664.891 -0.284409 -3.58774 0
M  V30 7156 C 664.499 -1.6871 -4.15019 0
M  V30 7157 C 666.243 0.139605 -4.2427 0
M  V30 7158 C 664.15 -1.73701 -5.65316 0
M  V30 7159 H 663.08 -0.0663468 -0.751075 0
M  V30 7160 H 665.731 -0.834492 -1.63427 0
M  V30 7161 H 664.113 0.430364 -3.93655 0
M  V30 7162 H 665.287 -2.42857 -3.91608 0
M  V30 7163 H 663.602 -2.05855 -3.61957 0
M  V30 7164 H 666.199 0.122398 -5.3456 0
M  V30 7165 H 666.542 1.17403 -3.99402 0
M  V30 7166 H 667.075 -0.523995 -3.94334 0
M  V30 7167 H 663.814 -2.75109 -5.94975 0
M  V30 7168 H 663.334 -1.03903 -5.90732 0
M  V30 7169 H 665.013 -1.48829 -6.2965 0
M  V30 7170 N 665.145 1.52092 -0.413018 0
M  V30 7171 C 666.077 2.24819 0.445994 0
M  V30 7172 C 667.09 1.27925 1.00692 0
M  V30 7173 O 668.279 1.53845 0.905204 0
M  V30 7174 C 665.379 2.96951 1.6332 0
M  V30 7175 C 664.552 4.20746 1.19548 0
M  V30 7176 C 663.611 4.75668 2.25003 0
M  V30 7177 O 662.637 5.38148 1.85434 0
M  V30 7178 N 663.839 4.57579 3.57214 0
M  V30 7179 H 666.604 2.99176 -0.177209 0
M  V30 7180 H 664.165 1.60102 -0.240601 0
M  V30 7181 H 666.157 3.30586 2.33441 0
M  V30 7182 H 664.727 2.25756 2.16225 0
M  V30 7183 H 663.947 3.92881 0.32224 0
M  V30 7184 H 665.235 5.01132 0.880033 0
M  V30 7185 H 664.633 4.07758 3.92109 0
M  V30 7186 H 663.19 4.95642 4.23299 0
M  V30 7187 N 666.623 0.143563 1.56945 0
M  V30 7188 C 667.853 -0.514699 2.00086 0
M  V30 7189 C 668.261 -1.59184 1.0226 0
M  V30 7190 O 667.604 -1.83697 0.0110514 0
M  V30 7191 C 667.666 -1.17778 3.39659 0
M  V30 7192 C 667.33 -0.245657 4.56339 0
M  V30 7193 C 668.327 0.525343 5.17239 0
M  V30 7194 C 666.012 -0.149564 5.02077 0
M  V30 7195 C 668.006 1.37992 6.22284 0
M  V30 7196 C 665.693 0.708621 6.06978 0
M  V30 7197 C 666.691 1.47197 6.6695 0
M  V30 7198 O 666.379 2.31586 7.6982 0
M  V30 7199 H 666.111 -0.138789 0.661599 0
M  V30 7200 H 668.665 0.234098 2.04062 0
M  V30 7201 H 666.895 -1.97415 3.32512 0
M  V30 7202 H 668.584 -1.73542 3.6693 0
M  V30 7203 H 669.35 0.461118 4.82803 0
M  V30 7204 H 665.229 -0.733457 4.55128 0
M  V30 7205 H 668.773 1.97621 6.69023 0
M  V30 7206 H 664.67 0.77415 6.40841 0
M  V30 7207 H 665.438 2.24796 7.87025 0
M  V30 7208 N 668.101 -1.57061 -0.130224 0
M  V30 7209 C 669.326 -1.88802 -0.858409 0
M  V30 7210 C 669.751 -0.734353 -1.73173 0
M  V30 7211 O 669.109 0.315529 -1.78533 0
M  V30 7212 C 669.157 -3.19228 -1.67708 0
M  V30 7213 O 668.261 -3.04343 -2.78297 0
M  V30 7214 H 667.602 -0.619849 -0.238083 0
M  V30 7215 H 670.132 -2.04271 -0.115995 0
M  V30 7216 H 670.142 -3.51669 -2.06864 0
M  V30 7217 H 668.817 -4.02793 -1.0359 0
M  V30 7218 H 667.394 -2.83346 -2.42425 0
M  V30 7219 N 669.579 0.400081 -1.52437 0
M  V30 7220 C 670.804 1.17221 -1.71096 0
M  V30 7221 C 671.229 1.83269 -0.423565 0
M  V30 7222 O 670.587 1.70378 0.619751 0
M  V30 7223 C 670.635 2.20425 -2.85386 0
M  V30 7224 O 669.739 3.26769 -2.51586 0
M  V30 7225 H 669.08 0.341766 -0.569291 0
M  V30 7226 H 671.61 0.467772 -1.99181 0
M  V30 7227 H 671.62 2.64605 -3.10561 0
M  V30 7228 H 670.295 1.71737 -3.78786 0
M  V30 7229 H 668.872 2.87804 -2.37114 0
M  V30 7230 N 671.057 1.43213 0.657864 0
M  V30 7231 C 672.334 1.35063 1.41483 0
M  V30 7232 C 672.714 -0.0038314 2.111 0
M  V30 7233 O 672.062 -1.02018 2.04462 0
M  V30 7234 C 672.272 2.53061 2.40335 0
M  V30 7235 C 673.62 2.9594 3.04474 0
M  V30 7236 O 674.644 2.53074 2.50663 0
M  V30 7237 O 673.503 3.70184 4.02027 0
M  V30 7238 H 670.597 0.533517 0.631893 0
M  V30 7239 H 673.143 1.55253 0.685162 0
M  V30 7240 H 671.915 3.43283 1.87809 0
M  V30 7241 H 671.538 2.34945 3.20759 0
M  V30 7242 N 672.536 -0.895792 1.29666 0
M  V30 7243 C 673.499 -1.98189 1.15124 0
M  V30 7244 C 674.499 -1.60572 0.0855717 0
M  V30 7245 O 675.689 -1.70991 0.332826 0
M  V30 7246 C 672.821 -3.32289 0.761372 0
M  V30 7247 H 674.014 -2.12518 2.11603 0
M  V30 7248 H 671.567 -1.0808 1.12908 0
M  V30 7249 H 672.302 -3.23662 -0.203393 0
M  V30 7250 H 672.087 -3.60958 1.53139 0
M  V30 7251 H 673.577 -4.1198 0.682792 0
M  V30 7252 N 674.014 -1.12206 -1.10668 0
M  V30 7253 C 674.946 -0.74552 -2.16736 0
M  V30 7254 C 675.959 0.226696 -1.61214 0
M  V30 7255 O 677.148 0.0083936 -1.78498 0
M  V30 7256 C 674.248 -0.0823368 -3.388 0
M  V30 7257 C 673.421 -1.08341 -4.2377 0
M  V30 7258 C 672.48 -0.448292 -5.24287 0
M  V30 7259 O 671.506 -1.10458 -5.58379 0
M  V30 7260 N 672.708 0.785336 -5.75163 0
M  V30 7261 H 675.473 -1.65818 -2.49649 0
M  V30 7262 H 673.034 -1.01335 -1.26265 0
M  V30 7263 H 675.026 0.354476 -4.03145 0
M  V30 7264 H 673.596 0.733041 -3.03884 0
M  V30 7265 H 672.816 -1.69792 -3.55759 0
M  V30 7266 H 674.104 -1.76042 -4.77375 0
M  V30 7267 H 673.502 1.33755 -5.4966 0
M  V30 7268 H 672.059 1.16501 -6.41304 0
M  V30 7269 N 675.492 1.28418 -0.913599 0
M  V30 7270 C 676.741 1.94265 -0.542572 0
M  V30 7271 C 677.054 1.72709 0.918207 0
M  V30 7272 O 678.26 2.32778 1.39738 0
M  V30 7273 C 676.716 3.47956 -0.919507 0
M  V30 7274 C 676.324 3.78291 -2.4 0
M  V30 7275 C 678.068 4.19962 -0.619057 0
M  V30 7276 C 675.975 5.2529 -2.71707 0
M  V30 7277 H 674.905 0.727213 -0.199192 0
M  V30 7278 H 677.556 1.45931 -1.11249 0
M  V30 7279 H 675.938 3.9502 -0.278372 0
M  V30 7280 H 677.112 3.42035 -3.08786 0
M  V30 7281 H 675.427 3.19456 -2.67089 0
M  V30 7282 H 678.024 5.28178 -0.832623 0
M  V30 7283 H 678.367 4.13935 0.443126 0
M  V30 7284 H 678.9 3.78674 -1.21865 0
M  V30 7285 H 675.639 5.36394 -3.76778 0
M  V30 7286 H 675.159 5.62743 -2.07559 0
M  V30 7287 H 676.838 5.93027 -2.58703 0
M  V30 7288 N 676.97 0.677563 1.42291 0
M  V30 7289 C 678.198 0.209459 2.05837 0
M  V30 7290 C 678.613 -1.13444 1.50917 0
M  V30 7291 O 677.97 -1.70529 0.65008 0
M  V30 7292 C 678.021 0.138819 3.61233 0
M  V30 7293 O 677.742 1.42962 4.14118 0
M  V30 7294 C 679.243 -0.352449 4.41897 0
M  V30 7295 H 676.463 0.101209 0.663323 0
M  V30 7296 H 679.007 0.925077 1.8238 0
M  V30 7297 H 677.162 -0.527505 3.83792 0
M  V30 7298 H 677.576 1.3048 5.08011 0
M  V30 7299 H 679.05 -0.350778 5.50884 0
M  V30 7300 H 679.527 -1.3882 4.16684 0
M  V30 7301 H 680.133 0.282236 4.24362 0
M  V30 7302 N 678.448 -1.51871 0.421078 0
M  V30 7303 C 679.378 -2.30231 -0.389363 0
M  V30 7304 C 680.359 -1.34946 -1.03555 0
M  V30 7305 O 681.544 -1.63859 -1.04229 0
M  V30 7306 C 678.674 -3.13247 -1.49979 0
M  V30 7307 C 677.628 -4.16677 -0.977966 0
M  V30 7308 C 676.954 -4.88112 -2.1829 0
M  V30 7309 C 678.254 -5.22295 -0.0236775 0
M  V30 7310 H 679.948 -2.98229 0.264524 0
M  V30 7311 H 677.494 -1.43424 0.12866 0
M  V30 7312 H 679.447 -3.66838 -2.07383 0
M  V30 7313 H 678.171 -2.4304 -2.18173 0
M  V30 7314 H 676.83 -3.64114 -0.426245 0
M  V30 7315 H 676.478 -4.14423 -2.85066 0
M  V30 7316 H 676.178 -5.58041 -1.84021 0
M  V30 7317 H 677.702 -5.44521 -2.76278 0
M  V30 7318 H 679.116 -5.71055 -0.506899 0
M  V30 7319 H 677.513 -5.99656 0.230782 0
M  V30 7320 H 678.583 -4.76131 0.917999 0
M  V30 7321 N 679.926 -0.151884 -1.56866 0
M  V30 7322 C 681.337 0.368128 -1.83035 0
M  V30 7323 C 681.688 1.64402 -1.07082 0
M  V30 7324 O 680.813 2.14056 -0.317647 0
M  V30 7325 C 681.408 0.674676 -3.32014 0
M  V30 7326 C 679.967 1.13919 -3.58747 0
M  V30 7327 C 679.114 0.164833 -2.7681 0
M  V30 7328 H 682.065 -0.376499 -1.54169 0
M  V30 7329 H 682.086 1.52883 -3.48435 0
M  V30 7330 H 681.598 -0.254113 -3.87267 0
M  V30 7331 H 679.699 2.08375 -3.08886 0
M  V30 7332 H 679.812 1.06179 -4.67186 0
M  V30 7333 H 678.176 0.658419 -2.46043 0
M  V30 7334 H 678.959 -0.757633 -3.34836 0
M  V30 7335 N 681.404 1.57128 0.121893 0
M  V30 7336 C 682.82 1.52357 0.47534 0
M  V30 7337 C 683.02 0.864417 1.82017 0
M  V30 7338 O 682.076 0.445529 2.48538 0
M  V30 7339 C 683.389 2.97122 0.4625 0
M  V30 7340 C 684.937 3.08196 0.546255 0
M  V30 7341 C 685.412 4.54516 0.563833 0
M  V30 7342 N 686.903 4.58959 0.625353 0
M  V30 7343 C 687.638 5.69585 0.660354 0
M  V30 7344 N 687.134 6.89714 0.653175 0
M  V30 7345 N 688.927 5.57685 0.703143 0
M  V30 7346 H 681.078 1.98364 -0.75931 0
M  V30 7347 H 683.341 0.905777 -0.279772 0
M  V30 7348 H 683.047 3.48706 -0.457943 0
M  V30 7349 H 682.921 3.54406 1.29136 0
M  V30 7350 H 685.308 2.56617 1.45712 0
M  V30 7351 H 685.389 2.53912 -0.310234 0
M  V30 7352 H 685.033 5.06741 -0.342974 0
M  V30 7353 H 684.963 5.06609 1.43716 0
M  V30 7354 H 687.454 3.72489 0.637182 0
M  V30 7355 H 687.767 7.69781 0.682425 0
M  V30 7356 H 686.112 6.92223 0.620646 0
M  V30 7357 H 689.303 4.62744 0.706095 0
M  V30 7358 H 689.476 6.43909 0.726952 0
M  V30 7359 N 682.882 -0.391992 1.52647 0
M  V30 7360 C 683.845 -1.46135 1.7657 0
M  V30 7361 C 684.845 -1.47701 0.635698 0
M  V30 7362 O 686.035 -1.48924 0.903728 0
M  V30 7363 C 683.167 -2.85443 1.86374 0
M  V30 7364 H 684.36 -1.26208 2.72051 0
M  V30 7365 H 681.913 -0.623549 1.43323 0
M  V30 7366 H 682.648 -3.10718 0.928685 0
M  V30 7367 H 682.433 -2.85708 2.68539 0
M  V30 7368 H 683.923 -3.62933 2.06566 0
M  V30 7369 N 684.36 -1.4356 -0.65026 0
M  V30 7370 C 685.27 -1.514 -1.79207 0
M  V30 7371 C 686.286 -0.400895 -1.69319 0
M  V30 7372 O 687.462 -0.655458 -1.90436 0
M  V30 7373 C 684.527 -1.43737 -3.155 0
M  V30 7374 C 683.588 -2.65743 -3.37163 0
M  V30 7375 C 682.821 -2.58436 -4.66954 0
M  V30 7376 O 683.044 -1.63374 -5.46503 0
M  V30 7377 O 681.978 -3.48984 -4.90402 0
M  V30 7378 H 685.804 -2.47825 -1.75547 0
M  V30 7379 H 683.389 -1.25594 -0.809111 0
M  V30 7380 H 685.271 -1.41916 -3.96784 0
M  V30 7381 H 683.946 -0.504488 -3.19745 0
M  V30 7382 H 682.853 -2.73136 -2.55632 0
M  V30 7383 H 684.186 -3.58014 -3.37768 0
M  V30 7384 N 685.838 0.888903 -1.30139 0
M  V30 7385 C 686.771 1.99655 -1.10514 0
M  V30 7386 C 687.749 1.62594 -0.0138934 0
M  V30 7387 O 688.933 1.87762 -0.166689 0
M  V30 7388 C 686.06 3.31708 -0.684655 0
M  V30 7389 C 685.106 3.87755 -1.77619 0
M  V30 7390 S 685.939 4.15532 -3.37777 0
M  V30 7391 C 687.095 5.5061 -2.97622 0
M  V30 7392 H 687.328 2.15996 -2.04287 0
M  V30 7393 H 684.861 1.03682 -1.14409 0
M  V30 7394 H 686.819 4.08039 -0.448782 0
M  V30 7395 H 685.48 3.1323 0.233648 0
M  V30 7396 H 684.673 4.83164 -1.43417 0
M  V30 7397 H 684.275 3.18149 -1.96614 0
M  V30 7398 H 686.567 6.31518 -2.45338 0
M  V30 7399 H 687.51 5.89747 -3.91924 0
M  V30 7400 H 687.918 5.12983 -2.35603 0
M  V30 7401 N 687.317 1.12792 1.10072 0
M  V30 7402 C 688.733 0.864745 1.34143 0
M  V30 7403 C 688.933 -0.503201 1.95116 0
M  V30 7404 O 687.989 -1.25111 2.19325 0
M  V30 7405 C 689.302 1.98413 2.25949 0
M  V30 7406 C 690.85 2.01545 2.39476 0
M  V30 7407 C 691.325 3.12727 3.34613 0
M  V30 7408 N 692.816 3.12194 3.42183 0
M  V30 7409 C 693.551 3.94862 4.15779 0
M  V30 7410 N 693.047 4.87528 4.92228 0
M  V30 7411 N 694.84 3.82985 4.11435 0
M  V30 7412 H 686.991 2.00926 0.68866 0
M  V30 7413 H 689.254 0.874564 0.365844 0
M  V30 7414 H 688.96 2.97005 1.88364 0
M  V30 7415 H 688.834 1.89254 3.26287 0
M  V30 7416 H 691.221 1.0357 2.76328 0
M  V30 7417 H 691.302 2.14777 1.3894 0
M  V30 7418 H 690.946 4.10936 2.98486 0
M  V30 7419 H 690.876 2.96732 4.35037 0
M  V30 7420 H 693.367 2.45065 2.87666 0
M  V30 7421 H 693.68 5.47109 5.45794 0
M  V30 7422 H 692.025 4.91539 4.9134 0
M  V30 7423 H 695.216 3.09923 3.50807 0
M  V30 7424 H 695.389 4.47641 4.68531 0
M  V30 7425 N 688.795 -1.27931 0.920396 0
M  V30 7426 C 690.206 -1.76707 0.602616 0
M  V30 7427 C 690.557 -1.75249 -0.882159 0
M  V30 7428 O 689.682 -1.35135 -1.69019 0
M  V30 7429 C 690.277 -3.20884 1.08714 0
M  V30 7430 C 688.836 -3.67356 0.820157 0
M  V30 7431 C 687.983 -2.47525 1.25006 0
M  V30 7432 H 690.934 -1.14301 1.10095 0
M  V30 7433 H 690.955 -3.78045 0.431535 0
M  V30 7434 H 690.467 -3.21913 2.1678 0
M  V30 7435 H 688.568 -3.7178 -0.247012 0
M  V30 7436 H 688.681 -4.57181 1.43257 0
M  V30 7437 H 687.045 -2.45765 0.668698 0
M  V30 7438 H 687.828 -2.51269 2.3392 0
M  V30 7439 N 690.273 -0.685099 -1.4193 0
M  V30 7440 C 691.519 -0.211971 -2.01689 0
M  V30 7441 C 691.852 1.18189 -1.54094 0
M  V30 7442 O 691.127 1.79559 -0.747572 0
M  V30 7443 C 691.41 -0.258019 -3.59174 0
M  V30 7444 C 691.263 -1.68807 -4.16922 0
M  V30 7445 C 692.582 0.388044 -4.38386 0
M  V30 7446 H 689.701 -0.0784987 -0.732808 0
M  V30 7447 H 692.343 -0.871837 -1.68816 0
M  V30 7448 H 690.493 0.303832 -3.8731 0
M  V30 7449 H 692.165 -2.30296 -3.99702 0
M  V30 7450 H 690.408 -2.22553 -3.72361 0
M  V30 7451 H 691.079 -1.6719 -5.26072 0
M  V30 7452 H 693.555 -0.0903432 -4.16002 0
M  V30 7453 H 692.431 0.325232 -5.47936 0
M  V30 7454 H 692.692 1.4672 -4.17044 0
M  V30 7455 N 691.751 1.51645 -0.429126 0
M  V30 7456 C 692.698 2.27542 0.386446 0
M  V30 7457 C 693.668 1.30786 1.02393 0
M  V30 7458 O 694.853 1.59678 1.0444 0
M  V30 7459 C 691.993 3.11457 1.48623 0
M  V30 7460 C 691.106 4.23196 0.867691 0
M  V30 7461 C 690.241 4.94435 1.94183 0
M  V30 7462 C 689.28 5.98108 1.30129 0
M  V30 7463 N 688.417 6.62786 2.31644 0
M  V30 7464 H 693.257 2.968 -0.267155 0
M  V30 7465 H 690.794 1.46397 -0.143591 0
M  V30 7466 H 692.752 3.58429 2.13506 0
M  V30 7467 H 691.382 2.44329 2.10957 0
M  V30 7468 H 690.434 3.80248 0.107373 0
M  V30 7469 H 691.746 4.97499 0.35997 0
M  V30 7470 H 690.9 5.44914 2.66747 0
M  V30 7471 H 689.639 4.19744 2.48326 0
M  V30 7472 H 688.644 5.4693 0.561082 0
M  V30 7473 H 689.869 6.74751 0.767303 0
M  V30 7474 H 687.815 5.90913 2.84883 0
M  V30 7475 H 687.732 7.32828 1.85741 0
M  V30 7476 H 689 7.17897 3.03717 0
M  V30 7477 N 693.229 0.160201 1.56784 0
M  V30 7478 C 694.179 -0.786461 2.14007 0
M  V30 7479 C 695.163 -1.20046 1.07134 0
M  V30 7480 O 696.355 -1.16468 1.33283 0
M  V30 7481 C 693.484 -2.02024 2.77563 0
M  V30 7482 C 692.57 -1.62874 3.91578 0
M  V30 7483 N 692.961 -0.946176 4.96871 0
M  V30 7484 C 691.259 -1.92054 4.02531 0
M  V30 7485 C 691.96 -0.755084 5.76778 0
M  V30 7486 N 690.936 -1.29307 5.27997 0
M  V30 7487 H 694.738 -0.255879 2.92784 0
M  V30 7488 H 692.252 -0.0408778 1.62349 0
M  V30 7489 H 694.249 -2.70855 3.16928 0
M  V30 7490 H 692.909 -2.55587 2.00263 0
M  V30 7491 H 693.92 -0.605455 5.14349 0
M  V30 7492 H 690.597 -2.47374 3.36322 0
M  V30 7493 H 691.987 -0.216138 6.71552 0
M  V30 7494 N 694.707 -1.5719 -0.113559 0
M  V30 7495 C 695.654 -2.00736 -1.13901 0
M  V30 7496 C 696.624 -0.88044 -1.40846 0
M  V30 7497 O 697.809 -1.14507 -1.5262 0
M  V30 7498 C 694.949 -2.42132 -2.45899 0
M  V30 7499 C 694.062 -3.68264 -2.25844 0
M  V30 7500 C 693.197 -3.98617 -3.5111 0
M  V30 7501 C 692.236 -5.17915 -3.26236 0
M  V30 7502 N 691.373 -5.44111 -4.4372 0
M  V30 7503 H 696.213 -2.88128 -0.760677 0
M  V30 7504 H 693.75 -1.42523 -0.364099 0
M  V30 7505 H 695.708 -2.6417 -3.22908 0
M  V30 7506 H 694.338 -1.57775 -2.81615 0
M  V30 7507 H 693.39 -3.53809 -1.39726 0
M  V30 7508 H 694.702 -4.55425 -2.03444 0
M  V30 7509 H 693.856 -4.21333 -4.36536 0
M  V30 7510 H 692.595 -3.09942 -3.76546 0
M  V30 7511 H 691.6 -4.95038 -2.39202 0
M  V30 7512 H 692.825 -6.08172 -3.02165 0
M  V30 7513 H 690.771 -4.58394 -4.69266 0
M  V30 7514 H 690.688 -6.25606 -4.24444 0
M  V30 7515 H 691.956 -5.71351 -5.30263 0
M  V30 7516 N 696.185 0.383891 -1.52853 0
M  V30 7517 C 697.431 1.12667 -1.69345 0
M  V30 7518 C 697.786 1.87519 -0.430635 0
M  V30 7519 O 697.079 1.82742 0.575846 0
M  V30 7520 C 697.273 2.12881 -2.87082 0
M  V30 7521 C 697.102 1.47873 -4.24692 0
M  V30 7522 C 695.872 1.24064 -4.89833 0
M  V30 7523 C 698.07 0.926118 -5.05893 0
M  V30 7524 N 696.052 0.552138 -6.11412 0
M  V30 7525 C 697.423 0.365966 -6.18919 0
M  V30 7526 C 699.478 0.823023 -4.91051 0
M  V30 7527 C 698.181 -0.287204 -7.18726 0
M  V30 7528 C 700.207 0.183666 -5.91115 0
M  V30 7529 C 699.569 -0.365693 -7.0345 0
M  V30 7530 H 695.668 0.398064 -0.673104 0
M  V30 7531 H 698.252 0.415504 -1.90215 0
M  V30 7532 H 696.423 2.81329 -2.67784 0
M  V30 7533 H 698.155 2.79703 -2.92486 0
M  V30 7534 H 694.91 1.51701 -4.48647 0
M  V30 7535 H 695.334 0.223783 -6.7663 0
M  V30 7536 H 699.976 1.23354 -4.04405 0
M  V30 7537 H 697.694 -0.709719 -8.04977 0
M  V30 7538 H 701.28 0.105074 -5.81705 0
M  V30 7539 H 700.16 -0.85261 -7.79551 0
M  V30 7540 N 697.663 1.43903 0.642637 0
M  V30 7541 C 698.891 1.4954 1.42988 0
M  V30 7542 C 699.306 0.116588 1.8844 0
M  V30 7543 O 698.663 -0.875285 1.60141 0
M  V30 7544 C 698.714 2.45031 2.65785 0
M  V30 7545 O 698.435 3.77551 2.22232 0
M  V30 7546 C 699.936 2.60017 3.59035 0
M  V30 7547 H 697.156 0.507544 0.438907 0
M  V30 7548 H 699.7 1.88752 0.786942 0
M  V30 7549 H 697.855 2.08985 3.26196 0
M  V30 7550 H 698.269 4.29001 3.01759 0
M  V30 7551 H 699.743 3.30887 4.41835 0
M  V30 7552 H 700.22 1.64861 4.07084 0
M  V30 7553 H 700.826 2.96918 3.045 0
M  V30 7554 N 699.141 -0.881989 1.30609 0
M  V30 7555 C 700.074 -1.99066 1.11571 0
M  V30 7556 C 701.052 -1.62584 0.022516 0
M  V30 7557 O 702.236 -1.87671 0.176644 0
M  V30 7558 C 699.363 -3.3134 0.702237 0
M  V30 7559 C 698.409 -3.86807 1.79673 0
M  V30 7560 S 699.242 -4.13735 3.39976 0
M  V30 7561 C 700.398 -5.49024 3.00538 0
M  V30 7562 H 700.631 -2.1491 2.05429 0
M  V30 7563 H 698.164 -1.03074 1.14957 0
M  V30 7564 H 700.122 -4.07796 0.470415 0
M  V30 7565 H 698.783 -3.13349 -0.217034 0
M  V30 7566 H 697.976 -4.82397 1.45977 0
M  V30 7567 H 697.578 -3.17102 1.98298 0
M  V30 7568 H 699.87 -6.30208 2.48684 0
M  V30 7569 H 700.813 -5.8766 3.95046 0
M  V30 7570 H 701.221 -5.11726 2.3832 0
M  V30 7571 N 700.619 -1.13374 -1.09472 0
M  V30 7572 C 701.868 -0.889844 -1.8101 0
M  V30 7573 C 702.181 0.585686 -1.86625 0
M  V30 7574 O 703.387 0.946497 -2.54467 0
M  V30 7575 C 701.843 -1.54241 -3.25174 0
M  V30 7576 C 701.451 -3.05343 -3.27826 0
M  V30 7577 C 703.195 -1.37919 -4.0147 0
M  V30 7578 C 701.102 -3.63486 -4.6651 0
M  V30 7579 H 700.032 -0.329256 -0.678311 0
M  V30 7580 H 702.683 -1.36139 -1.23038 0
M  V30 7581 H 701.065 -0.998525 -3.83204 0
M  V30 7582 H 702.239 -3.66307 -2.79563 0
M  V30 7583 H 700.554 -3.21175 -2.65019 0
M  V30 7584 H 703.151 -1.78771 -5.03929 0
M  V30 7585 H 703.494 -0.323987 -4.15037 0
M  V30 7586 H 704.027 -1.89284 -3.49881 0
M  V30 7587 H 700.766 -4.68811 -4.58145 0
M  V30 7588 H 700.286 -3.073 -5.15099 0
M  V30 7589 H 701.965 -3.63134 -5.35484 0
M  V30 7590 N 702.098 1.27442 -0.927168 0
M  V30 7591 C 703.323 1.99036 -0.583042 0
M  V30 7592 C 703.748 1.68711 0.83176 0
M  V30 7593 O 703.106 0.927081 1.55804 0
M  V30 7594 C 703.154 3.51271 -0.814925 0
M  V30 7595 O 702.258 4.12226 0.119742 0
M  V30 7596 H 701.599 0.624883 -0.224538 0
M  V30 7597 H 704.129 1.62263 -1.24628 0
M  V30 7598 H 704.139 4.01411 -0.730282 0
M  V30 7599 H 702.814 3.72676 -1.84623 0
M  V30 7600 H 701.391 3.72897 -0.0147688 0
M  V30 7601 N 703.576 0.692616 1.41565 0
M  V30 7602 C 704.992 0.363878 1.55397 0
M  V30 7603 C 705.192 -1.1294 1.66874 0
M  V30 7604 O 704.248 -1.91517 1.64552 0
M  V30 7605 C 705.561 1.10982 2.7947 0
M  V30 7606 C 707.109 1.09387 2.93263 0
M  V30 7607 C 707.584 1.8215 4.20221 0
M  V30 7608 N 709.075 1.79105 4.27172 0
M  V30 7609 C 709.81 2.32247 5.2426 0
M  V30 7610 N 709.306 2.93847 6.27396 0
M  V30 7611 N 711.099 2.22519 5.1618 0
M  V30 7612 H 703.25 1.66116 1.3236 0
M  V30 7613 H 705.513 0.700848 0.63837 0
M  V30 7614 H 705.219 2.1647 2.77188 0
M  V30 7615 H 705.093 0.686492 3.709 0
M  V30 7616 H 707.48 0.0472638 2.95062 0
M  V30 7617 H 707.561 1.55623 2.03015 0
M  V30 7618 H 707.205 2.86789 4.19183 0
M  V30 7619 H 707.135 1.33351 5.09436 0
M  V30 7620 H 709.626 1.34191 3.53272 0
M  V30 7621 H 709.939 3.31972 6.97864 0
M  V30 7622 H 708.284 2.97924 6.27906 0
M  V30 7623 H 711.475 1.7407 4.34531 0
M  V30 7624 H 711.648 2.64239 5.91677 0
M  V30 7625 N 705.054 -1.51416 0.437162 0
M  V30 7626 C 706.331 -1.94682 -0.189292 0
M  V30 7627 C 706.711 -1.37581 -1.60108 0
M  V30 7628 O 706.059 -0.562815 -2.2146 0
M  V30 7629 C 706.269 -3.48599 -0.167201 0
M  V30 7630 C 707.617 -4.2296 -0.372856 0
M  V30 7631 O 708.641 -3.55354 -0.245323 0
M  V30 7632 O 707.5 -5.42895 -0.626693 0
M  V30 7633 H 704.594 -0.816708 -0.130063 0
M  V30 7634 H 707.14 -1.62316 0.495128 0
M  V30 7635 H 705.912 -3.82616 0.81981 0
M  V30 7636 H 705.535 -3.87406 -0.894537 0
M  V30 7637 N 706.532 -0.168513 -1.56696 0
M  V30 7638 C 707.48 0.779791 -2.19139 0
M  V30 7639 C 708.474 1.23957 -1.1546 0
M  V30 7640 O 709.68 1.20555 -1.33666 0
M  V30 7641 H 706.055 0.269739 -0.701958 0
M  V30 7642 H 708.026 0.229156 -2.97519 0
M  V30 7643 C 706.775 2.00003 -2.84419 0
M  V30 7644 H 706.098 1.65527 -3.63924 0
M  V30 7645 H 707.538 2.64251 -3.31583 0
M  V30 7646 C 705.997 2.82187 -1.84044 0
M  V30 7647 O 706.527 3.79247 -1.32418 0
M  V30 7648 N 704.733 2.47145 -1.52864 0
M  V30 7649 H 704.28 1.68277 -1.9504 0
M  V30 7650 H 704.238 3.02422 -0.859569 0
M  V30 7651 N 708.01 1.57248 0.105221 0
M  V30 7652 C 708.958 2.02337 1.14728 0
M  V30 7653 C 709.952 0.922652 1.42069 0
M  V30 7654 O 711.158 1.10785 1.41869 0
M  V30 7655 H 707.533 0.644682 0.387155 0
M  V30 7656 H 709.504 2.89063 0.740607 0
M  V30 7657 C 708.253 2.45513 2.46209 0
M  V30 7658 H 707.576 3.29785 2.26013 0
M  V30 7659 H 709.016 2.80846 3.1765 0
M  V30 7660 C 707.475 1.3243 3.09781 0
M  V30 7661 O 708.005 0.647841 3.96442 0
M  V30 7662 N 706.211 1.07785 2.69872 0
M  V30 7663 H 705.758 1.62973 1.99493 0
M  V30 7664 H 705.716 0.323204 3.12734 0
M  V30 7665 N 709.488 -0.375779 1.53054 0
M  V30 7666 C 710.716 -1.14036 1.72637 0
M  V30 7667 C 711.131 -1.83342 0.450687 0
M  V30 7668 O 710.488 -1.7318 -0.575749 0
M  V30 7669 C 710.539 -2.17841 2.88492 0
M  V30 7670 O 710.26 -1.51358 4.11123 0
M  V30 7671 C 711.761 -3.06924 3.19863 0
M  V30 7672 H 708.981 -0.341386 0.577665 0
M  V30 7673 H 711.525 -0.437809 1.99759 0
M  V30 7674 H 709.68 -2.8371 2.63794 0
M  V30 7675 H 710.094 -2.20439 4.75928 0
M  V30 7676 H 711.568 -3.75763 4.04359 0
M  V30 7677 H 712.045 -3.71169 2.34798 0
M  V30 7678 H 712.651 -2.46684 3.46449 0
M  V30 7679 N 710.966 -1.44241 -0.634997 0
M  V30 7680 C 711.913 -1.5081 -1.74714 0
M  V30 7681 C 712.883 -0.356147 -1.62237 0
M  V30 7682 O 714.068 -0.565848 -1.82216 0
M  V30 7683 C 711.208 -1.45458 -3.12947 0
M  V30 7684 C 710.321 -2.70998 -3.36428 0
M  V30 7685 C 709.456 -2.57507 -4.64611 0
M  V30 7686 C 708.495 -3.78229 -4.81258 0
M  V30 7687 N 707.632 -3.63438 -6.00714 0
M  V30 7688 H 712.472 -2.45832 -1.68436 0
M  V30 7689 H 710.009 -1.2201 -0.821706 0
M  V30 7690 H 711.967 -1.40347 -3.92885 0
M  V30 7691 H 710.597 -0.540058 -3.1825 0
M  V30 7692 H 709.649 -2.86312 -2.50458 0
M  V30 7693 H 710.961 -3.60619 -3.44609 0
M  V30 7694 H 710.115 -2.50207 -5.52703 0
M  V30 7695 H 708.854 -1.65441 -4.58782 0
M  V30 7696 H 707.859 -3.85918 -3.91596 0
M  V30 7697 H 709.084 -4.71327 -4.88904 0
M  V30 7698 H 707.03 -2.7412 -5.95982 0
M  V30 7699 H 706.947 -4.46672 -6.09934 0
M  V30 7700 H 708.215 -3.60022 -6.91378 0
M  V30 7701 N 712.444 0.87505 -1.31075 0
M  V30 7702 C 713.374 1.99775 -1.20881 0
M  V30 7703 C 714.355 1.69822 -0.0971612 0
M  V30 7704 O 715.54 1.92158 -0.280895 0
M  V30 7705 C 712.67 3.35163 -0.910118 0
M  V30 7706 C 711.624 3.79406 -1.98078 0
M  V30 7707 C 710.95 5.12197 -1.53488 0
M  V30 7708 C 712.25 3.97061 -3.39323 0
M  V30 7709 H 713.944 2.08562 -2.14808 0
M  V30 7710 H 711.49 1.00207 -1.03415 0
M  V30 7711 H 713.443 4.13237 -0.825423 0
M  V30 7712 H 712.167 3.26536 0.064822 0
M  V30 7713 H 710.826 3.03568 -2.05528 0
M  V30 7714 H 710.474 5.00007 -0.547941 0
M  V30 7715 H 710.174 5.4277 -2.2511 0
M  V30 7716 H 711.698 5.92785 -1.46417 0
M  V30 7717 H 713.112 4.65545 -3.34576 0
M  V30 7718 H 711.509 4.39025 -4.09118 0
M  V30 7719 H 712.579 3.00601 -3.80483 0
M  V30 7720 N 713.922 1.13953 1.08869 0
M  V30 7721 C 714.832 0.835666 2.19212 0
M  V30 7722 C 715.848 -0.182005 1.73045 0
M  V30 7723 O 717.024 -0.0116661 2.01397 0
M  V30 7724 C 714.089 0.312325 3.4529 0
M  V30 7725 C 713.15 1.39196 4.06107 0
M  V30 7726 C 712.383 0.893496 5.26168 0
M  V30 7727 O 712.606 -0.266807 5.69776 0
M  V30 7728 O 711.54 1.67037 5.78258 0
M  V30 7729 H 715.366 1.75769 2.47667 0
M  V30 7730 H 712.951 0.917421 1.17914 0
M  V30 7731 H 714.833 0.0261582 4.21392 0
M  V30 7732 H 713.508 -0.582042 3.18424 0
M  V30 7733 H 712.415 1.73152 3.31616 0
M  V30 7734 H 713.748 2.26068 4.37212 0
M  V30 7735 N 715.4 -1.26948 0.933913 0
M  V30 7736 C 716.35 -2.24306 0.408779 0
M  V30 7737 C 717.334 -1.53243 -0.490435 0
M  V30 7738 O 718.526 -1.73956 -0.326866 0
M  V30 7739 C 715.655 -3.41695 -0.331578 0
M  V30 7740 C 714.741 -4.20053 0.58451 0
M  V30 7741 N 715.132 -4.76122 1.70709 0
M  V30 7742 C 713.43 -4.44303 0.388703 0
M  V30 7743 C 714.131 -5.35267 2.27737 0
M  V30 7744 N 713.107 -5.20548 1.56622 0
M  V30 7745 H 716.909 -2.65244 1.26582 0
M  V30 7746 H 714.423 -1.4195 0.788919 0
M  V30 7747 H 716.42 -4.10552 -0.724774 0
M  V30 7748 H 715.08 -3.02286 -1.18547 0
M  V30 7749 H 716.091 -4.73884 2.08937 0
M  V30 7750 H 712.768 -4.15341 -0.424016 0
M  V30 7751 H 714.158 -5.89563 3.22282 0
M  V30 7752 N 716.879 -0.700114 -1.41195 0
M  V30 7753 C 718.107 -0.242179 -2.05478 0
M  V30 7754 C 718.522 1.11029 -1.52702 0
M  V30 7755 O 717.879 1.69473 -0.677127 0
M  V30 7756 C 717.93 -0.196271 -3.60967 0
M  V30 7757 O 717.651 -1.49532 -4.11791 0
M  V30 7758 C 719.152 0.282102 -4.42401 0
M  V30 7759 H 716.372 -0.111749 -0.661629 0
M  V30 7760 H 718.916 -0.953975 -1.80885 0
M  V30 7761 H 717.071 0.46638 -3.84582 0
M  V30 7762 H 717.485 -1.38545 -5.05871 0
M  V30 7763 H 718.959 0.263093 -5.51373 0
M  V30 7764 H 719.436 1.32174 -4.1884 0
M  V30 7765 H 720.042 -0.349712 -4.2386 0
M  V30 7766 N 718.357 1.51182 -0.445186 0
M  V30 7767 C 719.603 2.02452 0.11882 0
M  V30 7768 C 719.936 1.32824 1.41673 0
M  V30 7769 O 719.211 0.445637 1.89326 0
M  V30 7770 C 719.494 3.5859 0.329475 0
M  V30 7771 C 719.347 4.38823 -0.987638 0
M  V30 7772 C 720.666 4.26241 1.09575 0
M  V30 7773 H 717.785 0.735819 0.0417092 0
M  V30 7774 H 720.427 1.80747 -0.585718 0
M  V30 7775 H 718.577 3.77214 0.9296 0
M  V30 7776 H 720.249 4.3183 -1.62235 0
M  V30 7777 H 718.492 4.03594 -1.59041 0
M  V30 7778 H 719.163 5.46257 -0.794192 0
M  V30 7779 H 721.639 4.11934 0.587328 0
M  V30 7780 H 720.515 5.35354 1.21191 0
M  V30 7781 H 720.776 3.87635 2.12584 0
M  V30 7782 N 719.835 0.176821 1.56605 0
M  V30 7783 C 720.765 -0.746841 2.21234 0
M  V30 7784 C 721.746 -1.23502 1.16967 0
M  V30 7785 O 722.931 -1.28718 1.45414 0
M  V30 7786 C 720.061 -1.97407 2.8574 0
M  V30 7787 C 719.015 -1.62153 3.96094 0
M  V30 7788 C 718.341 -2.92387 4.47676 0
M  V30 7789 C 719.641 -0.845353 5.15413 0
M  V30 7790 H 721.335 -0.208116 2.98676 0
M  V30 7791 H 718.881 -0.0986594 1.43662 0
M  V30 7792 H 720.834 -2.62531 3.2963 0
M  V30 7793 H 719.558 -2.53703 2.05676 0
M  V30 7794 H 718.217 -0.993964 3.52868 0
M  V30 7795 H 717.865 -3.46734 3.64396 0
M  V30 7796 H 717.565 -2.69551 5.22127 0
M  V30 7797 H 719.089 -3.5853 4.94255 0
M  V30 7798 H 720.503 -1.39929 5.55961 0
M  V30 7799 H 718.9 -0.715814 5.95815 0
M  V30 7800 H 719.97 0.157239 4.84645 0
M  V30 7801 N 721.313 -1.57302 -0.09688 0
M  V30 7802 C 722.559 -1.86273 -0.801885 0
M  V30 7803 C 722.892 -0.765694 -1.78468 0
M  V30 7804 O 722.167 0.226495 -1.93177 0
M  V30 7805 C 722.45 -3.25876 -1.53221 0
M  V30 7806 C 722.303 -4.46205 -0.567529 0
M  V30 7807 C 723.622 -3.63352 -2.48321 0
M  V30 7808 H 720.741 -0.67752 -0.29006 0
M  V30 7809 H 723.383 -1.89887 -0.0655577 0
M  V30 7810 H 721.533 -3.22926 -2.15988 0
M  V30 7811 H 723.205 -4.6127 0.0529982 0
M  V30 7812 H 721.448 -4.33636 0.119233 0
M  V30 7813 H 722.119 -5.40608 -1.11564 0
M  V30 7814 H 724.595 -3.67234 -1.95648 0
M  V30 7815 H 723.471 -4.61968 -2.9644 0
M  V30 7816 H 723.732 -2.91941 -3.31998 0
M  V30 7817 N 722.791 0.367657 -1.53252 0
M  V30 7818 C 724.039 1.10832 -1.68999 0
M  V30 7819 C 724.36 1.89894 -0.443306 0
M  V30 7820 O 723.63 1.88235 0.54262 0
M  V30 7821 H 722.21 0.412153 -0.623008 0
M  V30 7822 H 724.872 0.414775 -1.90435 0
M  V30 7823 H 723.968 1.7993 -2.55013 0
M  V30 7824 N 724.269 1.44576 0.627338 0
M  V30 7825 C 725.517 1.47267 1.38408 0
M  V30 7826 C 725.838 0.107971 1.94701 0
M  V30 7827 O 725.108 -0.860206 1.76004 0
M  V30 7828 H 723.688 0.542276 0.513756 0
M  V30 7829 H 726.35 1.80383 0.738099 0
M  V30 7830 H 725.446 2.20025 2.21349 0
M  V30 7831 N 725.747 -0.868086 1.31537 0
M  V30 7832 C 726.975 -1.65402 1.24298 0
M  V30 7833 C 727.39 -1.87827 -0.191389 0
M  V30 7834 O 726.747 -1.43776 -1.12404 0
M  V30 7835 C 726.798 -3.02093 1.9855 0
M  V30 7836 O 726.519 -2.80668 3.36388 0
M  V30 7837 C 728.02 -3.96538 1.98173 0
M  V30 7838 H 725.24 -0.515598 0.429417 0
M  V30 7839 H 727.784 -1.0834 1.73444 0
M  V30 7840 H 725.939 -3.55838 1.53161 0
M  V30 7841 H 726.353 -3.67504 3.74221 0
M  V30 7842 H 727.827 -4.8976 2.54635 0
M  V30 7843 H 728.304 -4.28474 0.964697 0
M  V30 7844 H 728.91 -3.48729 2.4345 0
M  V30 7845 N 727.225 -1.14528 -1.08264 0
M  V30 7846 C 728.471 -0.91576 -1.80947 0
M  V30 7847 C 728.804 0.55623 -1.86064 0
M  V30 7848 O 728.079 1.41207 -1.33756 0
M  V30 7849 C 728.362 -1.51917 -3.26486 0
M  V30 7850 C 728.215 -3.06111 -3.2957 0
M  V30 7851 C 729.534 -1.19724 -4.23502 0
M  V30 7852 H 726.653 -0.334113 -0.656915 0
M  V30 7853 H 729.295 -1.41547 -1.26746 0
M  V30 7854 H 727.445 -1.0942 -3.72773 0
M  V30 7855 H 729.117 -3.57448 -2.91597 0
M  V30 7856 H 727.36 -3.40483 -2.688 0
M  V30 7857 H 728.031 -3.43438 -4.32151 0
M  V30 7858 H 730.507 -1.56467 -3.85561 0
M  V30 7859 H 729.383 -1.64575 -5.23647 0
M  V30 7860 H 729.644 -0.112771 -4.41956 0
M  V30 7861 N 728.703 1.26451 -0.940633 0
M  V30 7862 C 729.951 1.93395 -0.586748 0
M  V30 7863 C 730.272 1.7417 0.876921 0
M  V30 7864 O 729.542 1.097 1.62304 0
M  V30 7865 H 728.122 0.715687 -0.214012 0
M  V30 7866 H 730.784 1.53902 -1.19584 0
M  V30 7867 H 729.88 3.01565 -0.804059 0
M  V30 7868 N 730.181 0.707592 1.40822 0
M  V30 7869 C 731.111 0.0644925 2.33411 0
M  V30 7870 C 732.092 -0.754205 1.52466 0
M  V30 7871 O 733.277 -0.704749 1.80961 0
M  V30 7872 C 730.407 -0.863865 3.36385 0
M  V30 7873 C 729.361 -0.15138 4.27732 0
M  V30 7874 C 728.687 -1.19491 5.21177 0
M  V30 7875 C 729.987 0.989607 5.12839 0
M  V30 7876 H 731.681 0.837829 2.87438 0
M  V30 7877 H 729.227 0.404346 1.38207 0
M  V30 7878 H 731.18 -1.32309 4.0009 0
M  V30 7879 H 729.904 -1.66901 2.80734 0
M  V30 7880 H 728.563 0.287937 3.65467 0
M  V30 7881 H 728.211 -1.9929 4.61836 0
M  V30 7882 H 727.911 -0.723123 5.83134 0
M  V30 7883 H 729.435 -1.6544 5.8776 0
M  V30 7884 H 730.849 0.610114 5.70044 0
M  V30 7885 H 729.246 1.38926 5.83798 0
M  V30 7886 H 730.316 1.82389 4.49291 0
M  V30 7887 N 731.66 -1.50943 0.453197 0
M  V30 7888 C 732.608 -2.29728 -0.364419 0
M  V30 7889 C 733.602 -1.36246 -1.00664 0
M  V30 7890 O 734.808 -1.53518 -0.939794 0
M  V30 7891 H 731.183 -0.739536 -0.136347 0
M  V30 7892 H 733.154 -2.96672 0.320696 0
M  V30 7893 C 731.903 -3.1629 -1.44415 0
M  V30 7894 H 731.226 -3.88119 -0.959343 0
M  V30 7895 H 732.666 -3.74444 -1.98917 0
M  V30 7896 C 731.125 -2.32702 -2.43622 0
M  V30 7897 O 731.655 -1.99763 -3.48508 0
M  V30 7898 N 729.861 -1.95621 -2.14897 0
M  V30 7899 H 729.408 -2.22607 -1.29629 0
M  V30 7900 H 729.366 -1.39993 -2.81513 0
M  V30 7901 N 733.138 -0.185124 -1.56509 0
M  V30 7902 C 734.378 0.458547 -1.9919 0
M  V30 7903 C 734.742 1.59484 -1.06906 0
M  V30 7904 O 735.943 2.30201 -1.38783 0
M  V30 7905 C 734.214 0.916263 -3.45455 0
M  V30 7906 S 735.773 1.55918 -4.10165 0
M  V30 7907 H 732.591 0.147008 -0.695636 0
M  V30 7908 H 735.193 -0.285841 -1.93399 0
M  V30 7909 H 733.897 0.0790543 -4.10324 0
M  V30 7910 H 733.428 1.69436 -3.55042 0
M  V30 7911 H 735.443 2.84771 -4.0635 0
M  V30 7912 N 734.616 1.57351 0.0885366 0
M  V30 7913 C 736.027 1.75303 0.642308 0
M  V30 7914 C 736.378 0.808238 1.78779 0
M  V30 7915 O 735.503 -0.01171 2.16397 0
M  V30 7916 C 736.098 3.17885 1.17194 0
M  V30 7917 C 734.657 3.37239 1.67172 0
M  V30 7918 C 733.804 2.7108 0.584045 0
M  V30 7919 H 736.755 1.58103 -0.137567 0
M  V30 7920 H 736.776 3.2112 2.04114 0
M  V30 7921 H 736.288 3.86625 0.338024 0
M  V30 7922 H 734.389 2.73588 2.52943 0
M  V30 7923 H 734.502 4.45594 1.76019 0
M  V30 7924 H 732.866 2.33161 1.02508 0
M  V30 7925 H 733.649 3.42464 -0.239403 0
M  V30 7926 N 736.094 -0.359525 1.53444 0
M  V30 7927 C 737.342 -1.09935 1.69584 0
M  V30 7928 C 737.663 -1.89656 0.453371 0
M  V30 7929 O 736.933 -1.8852 -0.53263 0
M  V30 7930 H 735.513 -0.408843 0.625185 0
M  V30 7931 H 738.175 -0.40467 1.90653 0
M  V30 7932 H 737.271 -1.78575 2.55964 0
M  V30 7933 N 737.572 -1.44907 -0.619662 0
M  V30 7934 C 738.504 -1.48652 -1.74457 0
M  V30 7935 C 739.517 -0.378596 -1.58337 0
M  V30 7936 O 740.706 -0.644987 -1.6644 0
M  V30 7937 C 737.806 -1.31568 -3.12319 0
M  V30 7938 C 736.979 -2.55816 -3.54792 0
M  V30 7939 C 736.038 -2.33465 -4.71573 0
M  V30 7940 O 735.064 -3.07015 -4.79302 0
M  V30 7941 N 736.266 -1.37254 -5.6404 0
M  V30 7942 H 739.031 -2.45632 -1.71712 0
M  V30 7943 H 736.592 -1.40492 -0.804582 0
M  V30 7944 H 738.584 -1.14445 -3.88181 0
M  V30 7945 H 737.154 -0.429095 -3.09641 0
M  V30 7946 H 736.374 -2.88137 -2.69018 0
M  V30 7947 H 737.662 -3.38431 -3.79924 0
M  V30 7948 H 737.06 -0.765309 -5.60499 0
M  V30 7949 H 735.617 -1.26106 -6.39485 0
M  V30 7950 N 739.05 0.861098 -1.31996 0
M  V30 7951 C 740.298 1.61162 -1.21947 0
M  V30 7952 C 740.619 1.93751 0.220351 0
M  V30 7953 O 739.889 1.59069 1.14341 0
M  V30 7954 H 738.469 0.597485 -0.448353 0
M  V30 7955 H 741.131 1.03039 -1.65436 0
M  V30 7956 H 740.227 2.55138 -1.79752 0
M  V30 7957 N 740.528 1.15101 1.07655 0
M  V30 7958 C 741.805 0.834578 1.76902 0
M  V30 7959 C 742.185 -0.670431 2.00171 0
M  V30 7960 O 741.533 -1.61378 1.6177 0
M  V30 7961 C 741.743 1.64191 3.07965 0
M  V30 7962 C 743.091 1.84615 3.82364 0
M  V30 7963 O 744.115 1.60941 3.17768 0
M  V30 7964 O 742.974 2.24244 4.98374 0
M  V30 7965 H 740.068 0.306608 0.768063 0
M  V30 7966 H 742.614 1.25663 1.14048 0
M  V30 7967 H 741.386 2.66386 2.86626 0
M  V30 7968 H 741.009 1.216 3.78549 0
M  V30 7969 N 742.006 -1.2595 0.947325 0
M  V30 7970 C 743.417 -1.75389 0.639963 0
M  V30 7971 C 743.768 -1.77081 -0.844788 0
M  V30 7972 O 742.893 -1.3869 -1.66114 0
M  V30 7973 C 743.488 -3.18506 1.15496 0
M  V30 7974 C 742.047 -3.65534 0.897894 0
M  V30 7975 C 741.194 -2.44818 1.30228 0
M  V30 7976 H 744.145 -1.1194 1.12495 0
M  V30 7977 H 744.166 -3.77045 0.511627 0
M  V30 7978 H 743.678 -3.17243 2.23559 0
M  V30 7979 H 741.779 -3.72221 -0.168096 0
M  V30 7980 H 741.892 -4.54039 1.52922 0
M  V30 7981 H 740.256 -2.44291 0.720678 0
M  V30 7982 H 741.039 -2.46251 2.39198 0
M  V30 7983 N 743.484 -0.715051 -1.40445 0
M  V30 7984 C 744.712 -0.263959 -2.05209 0
M  V30 7985 C 745.127 1.09403 -1.53871 0
M  V30 7986 O 744.484 1.68746 -0.695064 0
M  V30 7987 C 744.535 -0.234545 -3.60738 0
M  V30 7988 O 744.256 -1.53891 -4.10182 0
M  V30 7989 C 745.757 0.235164 -4.42676 0
M  V30 7990 H 742.977 -0.11876 -0.660407 0
M  V30 7991 H 745.521 -0.973107 -1.79864 0
M  V30 7992 H 743.676 0.425563 -3.85055 0
M  V30 7993 H 744.09 -1.43903 -5.04373 0
M  V30 7994 H 745.564 0.204598 -5.51621 0
M  V30 7995 H 746.041 1.27724 -4.20218 0
M  V30 7996 H 746.647 -0.394649 -4.23465 0
M  V30 7997 N 744.962 1.50701 -0.461195 0
M  V30 7998 C 746.373 1.867 -0.00370227 0
M  V30 7999 C 746.724 1.37673 1.39787 0
M  V30 8000 O 745.849 0.737515 2.03445 0
M  V30 8001 C 746.444 3.388 5.75786e-05 0
M  V30 8002 C 745.003 3.74247 0.402044 0
M  V30 8003 C 744.15 2.74549 -0.389652 0
M  V30 8004 H 747.101 1.43585 -0.675942 0
M  V30 8005 H 747.122 3.719 0.804414 0
M  V30 8006 H 746.634 3.74452 -1.02015 0
M  V30 8007 H 744.735 3.44192 1.42697 0
M  V30 8008 H 744.848 4.78973 0.110265 0
M  V30 8009 H 743.212 2.54226 0.155314 0
M  V30 8010 H 743.995 3.13044 -1.40919 0
M  V30 8011 N 746.441 0.193421 1.56409 0
M  V30 8012 C 747.391 -0.74089 2.15627 0
M  V30 8013 C 748.375 -1.17747 1.09656 0
M  V30 8014 O 749.567 -1.13615 1.35723 0
M  V30 8015 C 746.696 -1.96091 2.81786 0
M  V30 8016 C 745.782 -1.54531 3.94944 0
M  V30 8017 N 746.173 -0.840569 4.98767 0
M  V30 8018 C 744.471 -1.83473 4.06514 0
M  V30 8019 C 745.172 -0.632571 5.7825 0
M  V30 8020 N 744.148 -1.18078 5.30621 0
M  V30 8021 H 747.95 -0.193718 2.93261 0
M  V30 8022 H 745.464 -0.00643211 1.62399 0
M  V30 8023 H 747.461 -2.64071 3.22602 0
M  V30 8024 H 746.121 -2.51282 2.05639 0
M  V30 8025 H 747.132 -0.496218 5.15517 0
M  V30 8026 H 743.809 -2.40184 3.41493 0
M  V30 8027 H 745.199 -0.0736433 6.7186 0
M  V30 8028 N 747.919 -1.57396 -0.0801906 0
M  V30 8029 C 749.165 -1.87113 -0.782083 0
M  V30 8030 C 749.498 -0.78458 -1.77646 0
M  V30 8031 O 748.773 0.205993 -1.93406 0
M  V30 8032 C 749.056 -3.27483 -1.49756 0
M  V30 8033 C 748.909 -4.46782 -0.520171 0
M  V30 8034 C 750.228 -3.65965 -2.44454 0
M  V30 8035 H 747.347 -0.680559 -0.282858 0
M  V30 8036 H 749.989 -1.89946 -0.0454139 0
M  V30 8037 H 748.139 -3.25199 -2.12551 0
M  V30 8038 H 749.811 -4.61187 0.101919 0
M  V30 8039 H 748.054 -4.33485 0.165219 0
M  V30 8040 H 748.725 -5.41761 -1.05824 0
M  V30 8041 H 751.201 -3.69289 -1.91742 0
M  V30 8042 H 750.077 -4.65086 -2.91524 0
M  V30 8043 H 750.338 -2.95446 -3.28883 0
M  V30 8044 N 749.397 0.351382 -1.53633 0
M  V30 8045 C 750.674 1.10903 -1.6112 0
M  V30 8046 C 751.054 2.06725 -0.427556 0
M  V30 8047 O 750.402 2.20992 0.580916 0
M  V30 8048 C 750.612 1.83561 -2.96827 0
M  V30 8049 C 751.96 2.37587 -3.51906 0
M  V30 8050 O 752.984 1.93669 -2.9895 0
M  V30 8051 O 751.843 3.17913 -4.44515 0
M  V30 8052 H 748.937 0.509558 -0.651368 0
M  V30 8053 H 751.483 0.353504 -1.65977 0
M  V30 8054 H 750.255 1.1371 -3.74414 0
M  V30 8055 H 749.878 2.6599 -2.95525 0
M  V30 8056 N 750.875 1.45233 0.611969 0
M  V30 8057 C 752.121 1.50233 1.37119 0
M  V30 8058 C 752.476 0.140336 1.91888 0
M  V30 8059 O 751.769 -0.847161 1.71854 0
M  V30 8060 C 751.963 2.51353 2.54079 0
M  V30 8061 C 751.792 3.97251 2.10764 0
M  V30 8062 C 750.562 4.65256 1.97141 0
M  V30 8063 C 752.76 4.85914 1.68499 0
M  V30 8064 N 750.742 5.95895 1.4759 0
M  V30 8065 C 752.113 6.06147 1.30331 0
M  V30 8066 C 754.168 4.72813 1.56051 0
M  V30 8067 C 752.871 7.14729 0.809591 0
M  V30 8068 C 754.897 5.8144 1.08083 0
M  V30 8069 C 754.259 7.00825 0.708775 0
M  V30 8070 H 750.358 0.604708 0.495835 0
M  V30 8071 H 752.942 1.81679 0.700055 0
M  V30 8072 H 751.113 2.21866 3.18795 0
M  V30 8073 H 752.845 2.46528 3.20945 0
M  V30 8074 H 749.6 4.20345 2.18191 0
M  V30 8075 H 750.024 6.65349 1.25059 0
M  V30 8076 H 754.666 3.80931 1.83443 0
M  V30 8077 H 752.384 8.06404 0.523215 0
M  V30 8078 H 755.97 5.73335 0.988842 0
M  V30 8079 H 754.85 7.83448 0.343305 0
M  V30 8080 N 752.353 -0.854086 1.3245 0
M  V30 8081 C 753.283 -1.97827 1.24044 0
M  V30 8082 C 754.264 -1.69646 0.124166 0
M  V30 8083 O 755.449 -1.91687 0.31143 0
M  V30 8084 C 752.579 -3.33673 0.963324 0
M  V30 8085 C 751.533 -3.76207 2.04089 0
M  V30 8086 C 750.859 -5.0969 1.61618 0
M  V30 8087 C 752.159 -3.91612 3.45597 0
M  V30 8088 H 753.853 -2.05118 2.18099 0
M  V30 8089 H 751.399 -0.985489 1.04996 0
M  V30 8090 H 753.352 -4.11871 0.891061 0
M  V30 8091 H 752.076 -3.26597 -0.0128649 0
M  V30 8092 H 750.735 -3.0026 2.10332 0
M  V30 8093 H 750.383 -4.99072 0.627418 0
M  V30 8094 H 750.083 -5.3912 2.33717 0
M  V30 8095 H 751.607 -5.90381 1.55829 0
M  V30 8096 H 753.021 -4.60163 3.4194 0
M  V30 8097 H 751.418 -4.3246 4.16051 0
M  V30 8098 H 752.488 -2.9451 3.85217 0
M  V30 8099 N 753.831 -1.1567 -1.07043 0
M  V30 8100 C 754.761 -0.879348 -2.16309 0
M  V30 8101 C 755.742 0.171311 -1.69235 0
M  V30 8102 O 756.927 0.0250175 -1.94184 0
M  V30 8103 C 754.057 -0.371307 -3.45309 0
M  V30 8104 C 753.011 -1.359 -4.05851 0
M  V30 8105 C 752.337 -0.709678 -5.29969 0
M  V30 8106 C 753.637 -2.72606 -4.45514 0
M  V30 8107 H 755.331 -1.79308 -2.39768 0
M  V30 8108 H 752.877 -0.863558 -1.15233 0
M  V30 8109 H 754.83 -0.164798 -4.21078 0
M  V30 8110 H 753.554 0.577906 -3.21446 0
M  V30 8111 H 752.213 -1.55193 -3.32131 0
M  V30 8112 H 751.861 0.245782 -5.02399 0
M  V30 8113 H 751.561 -1.36886 -5.71433 0
M  V30 8114 H 753.085 -0.513015 -6.08441 0
M  V30 8115 H 754.499 -2.57141 -5.12398 0
M  V30 8116 H 752.896 -3.34927 -4.97939 0
M  V30 8117 H 753.966 -3.28434 -3.56734 0
M  V30 8118 N 755.309 1.25446 -0.953992 0
M  V30 8119 C 756.272 2.24156 -0.478179 0
M  V30 8120 C 757.272 1.55278 0.417776 0
M  V30 8121 O 758.462 1.72866 0.215155 0
M  V30 8122 C 755.594 3.39495 0.309202 0
M  V30 8123 H 756.787 2.67764 -1.35064 0
M  V30 8124 H 754.34 1.37822 -0.737206 0
M  V30 8125 H 755.075 3.01307 1.19936 0
M  V30 8126 H 754.86 3.90679 -0.333562 0
M  V30 8127 H 756.35 4.12796 0.631594 0
M  V30 8128 N 756.787 0.722489 1.40064 0
M  V30 8129 C 758.064 0.191829 1.94657 0
M  V30 8130 C 758.444 -1.30389 1.66018 0
M  V30 8131 O 757.792 -2.06342 0.981588 0
M  V30 8132 C 758.002 0.511978 3.45224 0
M  V30 8133 C 759.35 0.454426 4.22161 0
M  V30 8134 O 760.374 0.448438 3.53366 0
M  V30 8135 O 759.233 0.437986 5.44742 0
M  V30 8136 H 756.327 0.0307821 0.826427 0
M  V30 8137 H 758.873 0.800493 1.49634 0
M  V30 8138 H 757.645 1.54622 3.59455 0
M  V30 8139 H 757.268 -0.126296 3.97399 0
M  V30 8140 N 758.265 -1.50454 0.469181 0
M  V30 8141 C 759.513 -2.01916 -0.0862982 0
M  V30 8142 C 759.834 -1.35337 -1.40388 0
M  V30 8143 O 759.104 -0.498096 -1.89462 0
M  V30 8144 H 757.684 -0.746185 -0.0348825 0
M  V30 8145 H 760.346 -1.84804 0.619167 0
M  V30 8146 H 759.442 -3.11182 -0.239189 0
M  V30 8147 N 759.743 -0.201713 -1.56304 0
M  V30 8148 C 760.968 0.443815 -2.02596 0
M  V30 8149 C 761.393 1.53945 -1.08086 0
M  V30 8150 O 760.751 1.81182 -0.0655056 0
M  V30 8151 C 760.799 0.971066 -3.47279 0
M  V30 8152 O 759.903 2.0836 -3.55893 0
M  V30 8153 H 759.244 0.10294 -0.655972 0
M  V30 8154 H 761.774 -0.314533 -2.02168 0
M  V30 8155 H 761.784 1.28598 -3.87204 0
M  V30 8156 H 760.459 0.169048 -4.15556 0
M  V30 8157 H 759.036 1.77683 -3.27846 0
M  V30 8158 N 761.222 1.57436 0.0718424 0
M  V30 8159 C 762.169 2.03686 1.08539 0
M  V30 8160 C 763.139 0.917474 1.38462 0
M  V30 8161 O 764.324 1.18513 1.4953 0
M  V30 8162 C 761.464 2.48566 2.39393 0
M  V30 8163 C 760.577 3.74122 2.16001 0
M  V30 8164 C 759.712 4.07786 3.40418 0
M  V30 8165 C 758.751 5.26383 3.1239 0
M  V30 8166 N 757.888 5.55685 4.29138 0
M  V30 8167 H 762.728 2.90043 0.684018 0
M  V30 8168 H 760.265 1.43438 0.326183 0
M  V30 8169 H 762.223 2.72639 3.15791 0
M  V30 8170 H 760.853 1.65186 2.77333 0
M  V30 8171 H 759.905 3.57389 1.30296 0
M  V30 8172 H 761.217 4.60659 1.91298 0
M  V30 8173 H 760.371 4.32759 4.25211 0
M  V30 8174 H 759.11 3.19817 3.68197 0
M  V30 8175 H 758.115 5.01206 2.25993 0
M  V30 8176 H 759.34 6.1597 2.85934 0
M  V30 8177 H 757.286 4.70675 4.56948 0
M  V30 8178 H 757.203 6.3664 4.07708 0
M  V30 8179 H 758.471 5.85209 5.14928 0
M  V30 8180 N 762.7 -0.34323 1.53817 0
M  V30 8181 C 763.946 -1.08504 1.71332 0
M  V30 8182 C 764.279 -1.88294 0.475285 0
M  V30 8183 O 763.554 -1.87205 -0.527688 0
M  V30 8184 C 763.837 -2.02597 2.97702 0
M  V30 8185 C 763.69 -1.26268 4.31713 0
M  V30 8186 C 765.009 -3.0241 3.19744 0
M  V30 8187 H 762.128 -0.393072 0.623429 0
M  V30 8188 H 764.77 -0.363579 1.86489 0
M  V30 8189 H 762.92 -2.64118 2.8491 0
M  V30 8190 H 764.592 -0.673594 4.56356 0
M  V30 8191 H 762.835 -0.564696 4.30109 0
M  V30 8192 H 763.506 -1.95253 5.16314 0
M  V30 8193 H 765.982 -2.51004 3.31868 0
M  V30 8194 H 764.858 -3.65449 4.09558 0
M  V30 8195 H 765.119 -3.73806 2.36054 0
M  V30 8196 N 764.178 -1.45556 -0.604258 0
M  V30 8197 C 765.594 -1.30035 -0.925368 0
M  V30 8198 C 765.794 -0.255833 -1.99869 0
M  V30 8199 O 764.85 0.349076 -2.50075 0
M  V30 8200 C 766.163 -2.68028 -1.36314 0
M  V30 8201 C 767.711 -2.75951 -1.47717 0
M  V30 8202 C 768.186 -4.14476 -1.94868 0
M  V30 8203 N 769.677 -4.16787 -2.02097 0
M  V30 8204 C 770.412 -5.20845 -2.39809 0
M  V30 8205 N 769.908 -6.35246 -2.76467 0
M  V30 8206 N 771.701 -5.08204 -2.40177 0
M  V30 8207 H 763.852 -2.1214 0.10512 0
M  V30 8208 H 766.115 -0.947871 -0.0156303 0
M  V30 8209 H 765.821 -3.45667 -0.648628 0
M  V30 8210 H 765.695 -2.96711 -2.329 0
M  V30 8211 H 768.082 -1.98613 -2.18258 0
M  V30 8212 H 768.163 -2.50977 -0.494371 0
M  V30 8213 H 767.807 -4.923 -1.24912 0
M  V30 8214 H 767.737 -4.36843 -2.94068 0
M  V30 8215 H 770.228 -3.34233 -1.76343 0
M  V30 8216 H 770.541 -7.10438 -3.04134 0
M  V30 8217 H 768.886 -6.38642 -2.74155 0
M  V30 8218 H 772.077 -4.17874 -2.10947 0
M  V30 8219 H 772.25 -5.89417 -2.69242 0
M  V30 8220 N 765.656 0.84705 -1.32902 0
M  V30 8221 C 766.619 1.9378 -1.224 0
M  V30 8222 C 767.619 1.60144 -0.145108 0
M  V30 8223 O 768.809 1.69638 -0.396058 0
M  V30 8224 C 765.941 3.29234 -0.884174 0
M  V30 8225 H 767.134 2.04518 -2.19345 0
M  V30 8226 H 764.687 1.03816 -1.16842 0
M  V30 8227 H 765.422 3.24193 0.0831277 0
M  V30 8228 H 765.207 3.55026 -1.6643 0
M  V30 8229 H 766.697 4.09162 -0.835226 0
M  V30 8230 N 767.134 1.16236 1.06428 0
M  V30 8231 C 768.545 0.950942 1.60667 0
M  V30 8232 C 768.896 -0.505491 1.89576 0
M  V30 8233 O 768.021 -1.37843 1.66818 0
M  V30 8234 C 768.616 1.71982 2.91904 0
M  V30 8235 C 767.175 1.55342 3.4285 0
M  V30 8236 C 766.322 1.72942 2.16763 0
M  V30 8237 H 769.273 1.31126 0.893959 0
M  V30 8238 H 769.294 1.19483 3.61253 0
M  V30 8239 H 768.806 2.77978 2.70831 0
M  V30 8240 H 766.907 0.5178 3.68985 0
M  V30 8241 H 767.02 2.33643 4.18267 0
M  V30 8242 H 765.384 1.15673 2.26918 0
M  V30 8243 H 766.167 2.80324 1.98175 0
M  V30 8244 N 768.612 -1.24939 0.960631 0
M  V30 8245 C 769.842 -1.96595 0.635123 0
M  V30 8246 C 770.25 -1.71538 -0.798206 0
M  V30 8247 O 769.593 -0.991727 -1.5463 0
M  V30 8248 C 769.655 -3.49994 0.821248 0
M  V30 8249 C 769.319 -3.98738 2.23287 0
M  V30 8250 C 770.316 -4.08965 3.21004 0
M  V30 8251 C 768.001 -4.32247 2.55867 0
M  V30 8252 C 769.995 -4.52025 4.49391 0
M  V30 8253 C 767.682 -4.74991 3.84482 0
M  V30 8254 C 768.68 -4.84844 4.81056 0
M  V30 8255 O 768.368 -5.26638 6.07378 0
M  V30 8256 H 768.1 -0.633265 0.23654 0
M  V30 8257 H 770.654 -1.5991 1.28911 0
M  V30 8258 H 768.884 -3.86543 0.110105 0
M  V30 8259 H 770.573 -4.02859 0.495892 0
M  V30 8260 H 771.339 -3.83302 2.97161 0
M  V30 8261 H 767.218 -4.23801 1.81421 0
M  V30 8262 H 770.762 -4.5963 5.24773 0
M  V30 8263 H 766.659 -5.00101 4.08129 0
M  V30 8264 H 767.427 -5.44807 6.10842 0
M  V30 8265 N 770.09 -0.729906 -1.39679 0
M  V30 8266 C 771.336 -0.27603 -2.00913 0
M  V30 8267 C 771.669 1.13227 -1.57776 0
M  V30 8268 O 770.944 1.7709 -0.804319 0
M  V30 8269 C 771.227 -0.372157 -3.58172 0
M  V30 8270 C 771.08 -1.81986 -4.11341 0
M  V30 8271 C 772.399 0.248378 -4.39399 0
M  V30 8272 H 769.518 -0.101773 -0.729939 0
M  V30 8273 H 772.16 -0.925104 -1.65957 0
M  V30 8274 H 770.31 0.180459 -3.88081 0
M  V30 8275 H 771.982 -2.42896 -3.92172 0
M  V30 8276 H 770.225 -2.34287 -3.65092 0
M  V30 8277 H 770.896 -1.83842 -5.20486 0
M  V30 8278 H 773.372 -0.222645 -4.15504 0
M  V30 8279 H 772.248 0.150746 -5.48693 0
M  V30 8280 H 772.509 1.33378 -4.21501 0
M  V30 8281 N 771.568 1.50203 -0.477153 0
M  V30 8282 C 772.793 2.07263 0.0754986 0
M  V30 8283 C 773.218 1.33801 1.32208 0
M  V30 8284 O 772.576 0.387482 1.77111 0
M  V30 8285 C 772.624 3.59028 0.336348 0
M  V30 8286 O 771.728 3.87339 1.4157 0
M  V30 8287 H 771.069 0.663815 -0.015662 0
M  V30 8288 H 773.599 1.93321 -0.669936 0
M  V30 8289 H 773.609 4.03927 0.575034 0
M  V30 8290 H 772.284 4.11912 -0.574551 0
M  V30 8291 H 770.861 3.54272 1.16385 0
M  V30 8292 N 773.046 0.209999 1.56195 0
M  V30 8293 C 773.956 -0.716459 2.23392 0
M  V30 8294 C 774.972 -1.22291 1.23778 0
M  V30 8295 O 776.148 -1.26694 1.56558 0
M  V30 8296 C 773.213 -1.91261 2.89172 0
M  V30 8297 C 772.274 -1.44927 4.04097 0
M  V30 8298 C 771.507 -2.5884 4.66731 0
M  V30 8299 O 771.73 -3.76693 4.2832 0
M  V30 8300 O 770.664 -2.30701 5.55932 0
M  V30 8301 H 774.49 -0.174089 3.03201 0
M  V30 8302 H 772.075 -0.0199505 1.49387 0
M  V30 8303 H 773.957 -2.6114 3.30733 0
M  V30 8304 H 772.632 -2.4433 2.12331 0
M  V30 8305 H 771.539 -0.718839 3.67129 0
M  V30 8306 H 772.872 -0.965084 4.82646 0
M  V30 8307 N 774.524 -1.57472 -0.0634922 0
M  V30 8308 C 775.801 -1.78736 -0.794538 0
M  V30 8309 C 776.181 -0.799645 -1.95369 0
M  V30 8310 O 775.529 0.165521 -2.279 0
M  V30 8311 C 775.739 -3.25471 -1.25975 0
M  V30 8312 C 777.087 -3.89528 -1.68976 0
M  V30 8313 O 778.111 -3.29412 -1.35521 0
M  V30 8314 O 776.97 -4.95305 -2.30944 0
M  V30 8315 H 774.064 -0.733813 -0.381376 0
M  V30 8316 H 776.61 -1.69646 -0.0429258 0
M  V30 8317 H 775.382 -3.88922 -0.430721 0
M  V30 8318 H 775.005 -3.39317 -2.07243 0
M  V30 8319 N 776.003 0.335068 -1.53997 0
M  V30 8320 C 777.251 1.07223 -1.71312 0
M  V30 8321 C 777.572 1.88911 -0.483486 0
M  V30 8322 O 776.842 1.89344 0.50257 0
M  V30 8323 H 775.422 0.398846 -0.63161 0
M  V30 8324 H 778.084 0.374288 -1.91272 0
M  V30 8325 H 777.18 1.7448 -2.58772 0
M  V30 8326 N 777.481 1.45874 0.596531 0
M  V30 8327 C 778.897 1.30524 0.918459 0
M  V30 8328 C 779.097 0.266429 1.99731 0
M  V30 8329 O 778.153 -0.335809 2.50257 0
M  V30 8330 C 779.466 2.68747 1.3489 0
M  V30 8331 C 781.014 2.7673 1.46251 0
M  V30 8332 C 781.489 4.15504 1.92667 0
M  V30 8333 N 782.98 4.17853 1.99883 0
M  V30 8334 C 783.715 5.22109 2.37044 0
M  V30 8335 N 783.211 6.36704 2.73094 0
M  V30 8336 N 785.004 5.09471 2.37479 0
M  V30 8337 H 777.155 2.12081 -0.116368 0
M  V30 8338 H 779.418 0.947941 0.0106033 0
M  V30 8339 H 779.124 3.46006 0.630288 0
M  V30 8340 H 778.998 2.97942 2.31323 0
M  V30 8341 H 781.385 1.99768 2.17202 0
M  V30 8342 H 781.466 2.51236 0.481054 0
M  V30 8343 H 781.11 4.92956 1.223 0
M  V30 8344 H 781.04 4.38396 2.91747 0
M  V30 8345 H 783.531 3.35163 1.74568 0
M  V30 8346 H 783.844 7.12041 3.00362 0
M  V30 8347 H 782.189 6.40087 2.70764 0
M  V30 8348 H 785.38 4.18987 2.08728 0
M  V30 8349 H 785.553 5.90837 2.66112 0
M  V30 8350 N 778.959 -0.83999 1.33349 0
M  V30 8351 C 780.208 -1.59011 1.2409 0
M  V30 8352 C 780.521 -1.94655 -0.192029 0
M  V30 8353 O 781.727 -2.68438 -0.406617 0
M  V30 8354 C 780.183 -2.86801 2.17425 0
M  V30 8355 C 779.791 -2.58525 3.65881 0
M  V30 8356 C 781.535 -3.64823 2.17036 0
M  V30 8357 C 779.442 -3.82404 4.51133 0
M  V30 8358 H 778.372 -0.596731 0.460899 0
M  V30 8359 H 781.023 -0.926274 1.58406 0
M  V30 8360 H 779.405 -3.54719 1.7604 0
M  V30 8361 H 780.579 -1.98824 4.15699 0
M  V30 8362 H 778.894 -1.93808 3.68548 0
M  V30 8363 H 781.491 -4.56774 2.7796 0
M  V30 8364 H 781.834 -3.99663 1.16513 0
M  V30 8365 H 782.367 -3.03826 2.56777 0
M  V30 8366 H 779.106 -3.52696 5.52527 0
M  V30 8367 H 778.626 -4.41447 4.0606 0
M  V30 8368 H 780.305 -4.49995 4.6488 0
M  V30 8369 N 780.437 -1.16799 -1.0581 0
M  V30 8370 C 781.367 -0.902241 -2.15364 0
M  V30 8371 C 782.348 0.153351 -1.69407 0
M  V30 8372 O 783.533 0.00442032 -1.94199 0
M  V30 8373 C 780.663 -0.407911 -3.44896 0
M  V30 8374 C 779.617 -1.40197 -4.04387 0
M  V30 8375 C 778.943 -0.765848 -5.29187 0
M  V30 8376 C 780.243 -2.77316 -4.42598 0
M  V30 8377 H 781.937 -1.81841 -2.37853 0
M  V30 8378 H 779.483 -0.875731 -1.14311 0
M  V30 8379 H 781.436 -0.20945 -4.20879 0
M  V30 8380 H 780.16 0.54378 -3.22041 0
M  V30 8381 H 778.819 -1.58707 -3.30466 0
M  V30 8382 H 778.467 0.192482 -5.02632 0
M  V30 8383 H 778.167 -1.42939 -5.69949 0
M  V30 8384 H 779.691 -0.577519 -6.07863 0
M  V30 8385 H 781.105 -2.62561 -5.09642 0
M  V30 8386 H 779.502 -3.4019 -4.94359 0
M  V30 8387 H 780.572 -3.32199 -3.53231 0
M  V30 8388 N 781.915 1.24427 -0.967243 0
M  V30 8389 C 783.164 1.91789 -0.624478 0
M  V30 8390 C 783.477 1.76448 0.844129 0
M  V30 8391 O 784.683 2.38495 1.2974 0
M  V30 8392 C 783.139 3.43743 -1.06626 0
M  V30 8393 C 782.747 3.67771 -2.55829 0
M  V30 8394 C 784.491 4.16958 -0.79662 0
M  V30 8395 C 782.398 5.13293 -2.93742 0
M  V30 8396 H 781.328 0.71811 -0.229856 0
M  V30 8397 H 783.979 1.41081 -1.17339 0
M  V30 8398 H 782.361 3.93484 -0.445663 0
M  V30 8399 H 783.535 3.28631 -3.23015 0
M  V30 8400 H 781.85 3.07841 -2.80398 0
M  V30 8401 H 784.447 5.24171 -1.05589 0
M  V30 8402 H 784.79 4.15442 0.267163 0
M  V30 8403 H 785.323 3.73164 -1.37816 0
M  V30 8404 H 782.062 5.19931 -3.9919 0
M  V30 8405 H 781.582 5.53433 -2.3124 0
M  V30 8406 H 783.261 5.81521 -2.83623 0
M  V30 8407 N 783.393 0.737304 1.3929 0
M  V30 8408 C 784.67 0.212464 1.94443 0
M  V30 8409 C 785.05 -1.28621 1.67391 0
M  V30 8410 O 784.398 -2.0529 1.00342 0
M  V30 8411 C 784.608 0.548565 3.44662 0
M  V30 8412 C 785.956 0.499177 4.21656 0
M  V30 8413 O 786.98 0.485892 3.5287 0
M  V30 8414 O 785.839 0.495739 5.44247 0
M  V30 8415 H 782.933 0.0395457 0.826054 0
M  V30 8416 H 785.479 0.816319 1.48776 0
M  V30 8417 H 784.251 1.58426 3.57795 0
M  V30 8418 H 783.874 -0.0841399 3.97511 0
M  V30 8419 N 784.871 -1.49948 0.485112 0
M  V30 8420 C 785.818 -2.28819 -0.301729 0
M  V30 8421 C 786.788 -1.34496 -0.974683 0
M  V30 8422 O 787.973 -1.63444 -0.984418 0
M  V30 8423 C 785.113 -3.16758 -1.36961 0
M  V30 8424 C 784.226 -4.26125 -0.710027 0
M  V30 8425 C 783.361 -5.01302 -1.75699 0
M  V30 8426 C 782.4 -6.02525 -1.07841 0
M  V30 8427 N 781.537 -6.70927 -2.06886 0
M  V30 8428 H 786.377 -2.95604 0.377127 0
M  V30 8429 H 783.914 -1.45764 0.197826 0
M  V30 8430 H 785.872 -3.66106 -2.00056 0
M  V30 8431 H 784.502 -2.51991 -2.01744 0
M  V30 8432 H 783.554 -3.80385 0.0338278 0
M  V30 8433 H 784.866 -4.98493 -0.175079 0
M  V30 8434 H 784.02 -5.54438 -2.46339 0
M  V30 8435 H 782.759 -4.28672 -2.32577 0
M  V30 8436 H 781.764 -5.48635 -0.357706 0
M  V30 8437 H 782.989 -6.77134 -0.516345 0
M  V30 8438 H 780.935 -6.01079 -2.62755 0
M  V30 8439 H 780.852 -7.39216 -1.58414 0
M  V30 8440 H 782.12 -7.28675 -2.76863 0
M  V30 8441 N 786.349 -0.21828 -1.56081 0
M  V30 8442 C 787.574 0.422302 -2.03055 0
M  V30 8443 C 787.999 1.5279 -1.09713 0
M  V30 8444 O 787.357 1.81102 -0.0847187 0
M  V30 8445 C 787.405 0.934177 -3.48289 0
M  V30 8446 O 786.509 2.04574 -3.58083 0
M  V30 8447 H 785.85 0.0959764 -0.657027 0
M  V30 8448 H 788.38 -0.335958 -2.01823 0
M  V30 8449 H 788.39 1.24484 -3.88546 0
M  V30 8450 H 787.065 0.124963 -4.15712 0
M  V30 8451 H 785.642 1.74196 -3.29712 0
M  V30 8452 N 787.827 1.57504 0.0551401 0
M  V30 8453 C 789.075 1.87684 0.74962 0
M  V30 8454 C 789.396 0.812547 1.77264 0
M  V30 8455 O 788.666 -0.15694 1.9527 0
M  V30 8456 H 787.246 0.6926 0.279846 0
M  V30 8457 H 789.908 1.94881 0.0272745 0
M  V30 8458 H 789.004 2.85734 1.25548 0
M  V30 8459 N 789.305 -0.326896 1.54172 0
M  V30 8460 C 790.252 -1.40216 1.83325 0
M  V30 8461 C 791.222 -1.51538 0.680107 0
M  V30 8462 O 792.407 -1.66811 0.926206 0
M  V30 8463 C 789.547 -2.76626 2.0633 0
M  V30 8464 C 788.66 -2.73963 3.34019 0
M  V30 8465 C 787.795 -4.02198 3.47002 0
M  V30 8466 C 786.834 -3.93828 4.68578 0
M  V30 8467 N 785.971 -5.13787 4.78506 0
M  V30 8468 H 790.811 -1.14656 2.7506 0
M  V30 8469 H 788.348 -0.555089 1.36225 0
M  V30 8470 H 790.306 -3.55922 2.17659 0
M  V30 8471 H 788.936 -3.00503 1.1789 0
M  V30 8472 H 787.988 -1.86677 3.31445 0
M  V30 8473 H 789.3 -2.6366 4.2342 0
M  V30 8474 H 788.454 -4.89923 3.57855 0
M  V30 8475 H 787.193 -4.15302 2.55687 0
M  V30 8476 H 786.198 -3.04487 4.57786 0
M  V30 8477 H 787.423 -3.82292 5.61275 0
M  V30 8478 H 785.369 -5.27403 3.90105 0
M  V30 8479 H 785.286 -5.05807 5.61868 0
M  V30 8480 H 786.554 -6.03236 4.93686 0
M  V30 8481 N 790.784 -1.46188 -0.588786 0
M  V30 8482 C 791.714 -1.59148 -1.70863 0
M  V30 8483 C 792.695 -0.442083 -1.64255 0
M  V30 8484 O 793.88 -0.667575 -1.82365 0
M  V30 8485 C 791.01 -1.5757 -3.09498 0
M  V30 8486 C 789.964 -2.71418 -3.30932 0
M  V30 8487 C 789.29 -2.549 -4.70032 0
M  V30 8488 C 790.59 -4.1329 -3.19356 0
M  V30 8489 H 792.284 -2.52889 -1.60274 0
M  V30 8490 H 789.83 -1.21707 -0.769638 0
M  V30 8491 H 791.783 -1.65231 -3.87655 0
M  V30 8492 H 790.507 -0.603705 -3.20972 0
M  V30 8493 H 789.166 -2.63216 -2.55172 0
M  V30 8494 H 788.814 -1.55797 -4.78264 0
M  V30 8495 H 788.514 -3.31257 -4.85327 0
M  V30 8496 H 790.038 -2.64443 -5.50366 0
M  V30 8497 H 791.452 -4.22636 -3.87365 0
M  V30 8498 H 789.849 -4.90187 -3.46175 0
M  V30 8499 H 790.919 -4.33874 -2.16522 0
M  V30 8500 N 792.262 0.832906 -1.33792 0
M  V30 8501 C 793.172 1.97514 -1.26592 0
M  V30 8502 C 794.188 1.73114 -0.175391 0
M  V30 8503 O 795.364 1.97387 -0.400062 0
M  V30 8504 C 792.429 3.31625 -1.01121 0
M  V30 8505 C 791.49 3.69101 -2.19233 0
M  V30 8506 C 790.723 4.96813 -1.94968 0
M  V30 8507 O 790.946 5.63208 -0.902955 0
M  V30 8508 O 789.88 5.31932 -2.8166 0
M  V30 8509 H 793.706 2.0653 -2.22664 0
M  V30 8510 H 791.291 0.966826 -1.13898 0
M  V30 8511 H 793.173 4.11968 -0.886571 0
M  V30 8512 H 791.848 3.23599 -0.080822 0
M  V30 8513 H 790.755 2.89243 -2.37253 0
M  V30 8514 H 792.088 3.818 -3.10628 0
M  V30 8515 N 793.74 1.17359 1.05189 0
M  V30 8516 C 794.67 0.91365 2.14883 0
M  V30 8517 C 795.651 -0.144365 1.69486 0
M  V30 8518 O 796.836 0.00587861 1.94199 0
M  V30 8519 C 793.966 0.426196 3.44675 0
M  V30 8520 C 792.92 1.4234 4.03638 0
M  V30 8521 C 792.246 0.793902 5.28773 0
M  V30 8522 C 793.546 2.7966 4.41121 0
M  V30 8523 H 795.24 1.831 2.36885 0
M  V30 8524 H 792.786 0.881781 1.13845 0
M  V30 8525 H 794.739 0.231767 4.20762 0
M  V30 8526 H 793.463 -0.526693 3.22325 0
M  V30 8527 H 792.122 1.60457 3.2962 0
M  V30 8528 H 791.77 -0.165824 5.02727 0
M  V30 8529 H 791.47 1.45959 5.69183 0
M  V30 8530 H 792.994 0.609747 6.07548 0
M  V30 8531 H 794.408 2.6526 5.08242 0
M  V30 8532 H 792.805 3.42807 4.92548 0
M  V30 8533 H 793.875 3.34068 3.51464 0
M  V30 8534 N 795.218 -1.23913 0.973828 0
M  V30 8535 C 796.15 -2.24397 0.466763 0
M  V30 8536 C 797.163 -1.57078 -0.427828 0
M  V30 8537 O 798.352 -1.76973 -0.233019 0
M  V30 8538 C 795.452 -3.37141 -0.344798 0
M  V30 8539 C 794.625 -4.34037 0.541349 0
M  V30 8540 C 793.684 -5.2576 -0.215243 0
M  V30 8541 O 792.71 -5.67842 0.39291 0
M  V30 8542 N 793.912 -5.60702 -1.5031 0
M  V30 8543 H 796.677 -2.68536 1.33074 0
M  V30 8544 H 794.238 -1.38017 0.846346 0
M  V30 8545 H 796.23 -3.95476 -0.859133 0
M  V30 8546 H 794.8 -2.92239 -1.10974 0
M  V30 8547 H 794.02 -3.74302 1.23659 0
M  V30 8548 H 795.308 -4.95738 1.1455 0
M  V30 8549 H 794.706 -5.28451 -2.01882 0
M  V30 8550 H 793.263 -6.21538 -1.96301 0
M  V30 8551 N 796.696 -0.74468 -1.38897 0
M  V30 8552 C 797.629 -0.0596441 -2.28122 0
M  V30 8553 C 798.607 0.73764 -1.44906 0
M  V30 8554 O 799.791 0.718155 -1.74284 0
M  V30 8555 C 796.918 0.922533 -3.25894 0
M  V30 8556 C 795.964 0.212566 -4.2597 0
M  V30 8557 S 796.797 -1.08035 -5.24489 0
M  V30 8558 C 797.953 -0.101014 -6.25818 0
M  V30 8559 H 798.186 -0.816289 -2.85874 0
M  V30 8560 H 795.719 -0.536882 -1.44765 0
M  V30 8561 H 797.677 1.4839 -3.82741 0
M  V30 8562 H 796.338 1.65209 -2.67142 0
M  V30 8563 H 795.531 0.956106 -4.94848 0
M  V30 8564 H 795.133 -0.277029 -3.72973 0
M  V30 8565 H 797.425 0.736072 -6.7349 0
M  V30 8566 H 798.368 -0.757206 -7.0404 0
M  V30 8567 H 798.776 0.275706 -5.63826 0
M  V30 8568 N 798.174 1.49689 -0.493057 0
M  V30 8569 C 799.137 2.27502 0.278485 0
M  V30 8570 C 800.137 1.33184 0.901037 0
M  V30 8571 O 801.327 1.56415 0.766801 0
M  V30 8572 C 798.459 3.10881 1.39878 0
M  V30 8573 H 799.652 2.97163 -0.404219 0
M  V30 8574 H 797.205 1.54324 -0.247774 0
M  V30 8575 H 797.94 2.45767 2.11587 0
M  V30 8576 H 797.725 3.80219 0.957924 0
M  V30 8577 H 799.215 3.69673 1.94247 0
M  V30 8578 N 799.652 0.226554 1.55963 0
M  V30 8579 C 800.929 -0.453058 1.90281 0
M  V30 8580 C 801.309 -1.77377 1.14458 0
M  V30 8581 O 800.657 -2.27067 0.255496 0
M  V30 8582 C 800.867 -0.641108 3.43061 0
M  V30 8583 C 802.215 -0.946265 4.13921 0
M  V30 8584 O 803.239 -0.727713 3.48687 0
M  V30 8585 O 802.098 -1.36131 5.29274 0
M  V30 8586 H 799.192 -0.240242 0.791336 0
M  V30 8587 H 801.738 0.26911 1.67553 0
M  V30 8588 H 800.51 0.290283 3.90222 0
M  V30 8589 H 800.133 -1.41458 3.71585 0
M  V30 8590 N 801.13 -1.57531 -0.0467866 0
M  V30 8591 C 802.355 -1.93087 -0.757123 0
M  V30 8592 C 802.78 -0.825116 -1.69037 0
M  V30 8593 O 802.138 0.220449 -1.79955 0
M  V30 8594 C 802.186 -3.27669 -1.5055 0
M  V30 8595 O 801.29 -3.18667 -2.61773 0
M  V30 8596 H 800.631 -0.631597 -0.204892 0
M  V30 8597 H 803.161 -2.04599 -0.00755232 0
M  V30 8598 H 803.171 -3.6214 -1.87932 0
M  V30 8599 H 801.846 -4.07717 -0.820931 0
M  V30 8600 H 800.423 -2.95798 -2.27064 0
M  V30 8601 N 802.608 0.318715 -1.54344 0
M  V30 8602 C 803.855 1.05608 -1.72781 0
M  V30 8603 C 804.183 1.87854 -0.504083 0
M  V30 8604 O 803.438 1.88826 0.51414 0
M  V30 8605 C 803.737 2.00514 -2.95853 0
M  V30 8606 C 803.403 1.34385 -4.30409 0
M  V30 8607 C 802.065 1.16081 -4.66989 0
M  V30 8608 C 804.417 0.869627 -5.13894 0
M  V30 8609 C 801.745 0.490114 -5.84649 0
M  V30 8610 C 804.097 0.212735 -6.32242 0
M  V30 8611 C 802.761 0.0175882 -6.67498 0
M  V30 8612 H 802.031 0.386449 -0.632249 0
M  V30 8613 H 804.678 0.332729 -1.88587 0
M  V30 8614 H 802.983 2.79317 -2.74753 0
M  V30 8615 H 804.68 2.57605 -3.07312 0
M  V30 8616 H 801.27 1.49634 -4.01631 0
M  V30 8617 H 805.454 0.998809 -4.86146 0
M  V30 8618 H 800.71 0.327767 -6.10521 0
M  V30 8619 H 804.884 -0.162699 -6.9621 0
M  V30 8620 H 802.511 -0.504137 -7.58527 0
M  V30 8621 N 804.086 1.46499 0.581025 0
M  V30 8622 C 805.363 1.42372 1.34125 0
M  V30 8623 C 805.743 0.108073 2.10823 0
M  V30 8624 O 805.091 -0.910366 2.09582 0
M  V30 8625 C 805.301 2.65445 2.26583 0
M  V30 8626 C 806.649 3.11664 2.88359 0
M  V30 8627 O 807.673 2.66006 2.36896 0
M  V30 8628 O 806.532 3.90974 3.81839 0
M  V30 8629 H 803.626 0.566262 0.602724 0
M  V30 8630 H 806.172 1.58667 0.601903 0
M  V30 8631 H 804.944 3.52756 1.69348 0
M  V30 8632 H 804.567 2.51618 3.07854 0
M  V30 8633 N 805.565 -0.825799 1.34232 0
M  V30 8634 C 806.793 -1.61363 1.29497 0
M  V30 8635 C 807.208 -1.88341 -0.131536 0
M  V30 8636 O 806.565 -1.47279 -1.07773 0
M  V30 8637 C 806.616 -2.95623 2.08061 0
M  V30 8638 O 806.337 -2.69824 3.45147 0
M  V30 8639 C 807.838 -3.90032 2.10688 0
M  V30 8640 H 805.058 -0.501676 0.445603 0
M  V30 8641 H 807.602 -1.02767 1.76803 0
M  V30 8642 H 805.757 -3.50785 1.64404 0
M  V30 8643 H 806.171 -3.55412 3.85723 0
M  V30 8644 H 807.645 -4.81411 2.70087 0
M  V30 8645 H 808.122 -4.25188 1.10052 0
M  V30 8646 H 808.728 -3.40807 2.54422 0
M  V30 8647 N 807.043 -1.17915 -1.04565 0
M  V30 8648 C 808.291 -0.969505 -1.77327 0
M  V30 8649 C 808.612 0.502569 -1.88412 0
M  V30 8650 O 807.882 1.36467 -1.40547 0
M  V30 8651 H 806.462 -0.355723 -0.656864 0
M  V30 8652 H 809.124 -1.48506 -1.26223 0
M  V30 8653 H 808.22 -1.40324 -2.78775 0
M  V30 8654 N 808.521 1.23394 -0.980386 0
M  V30 8655 C 809.767 1.92094 -0.650223 0
M  V30 8656 C 810.1 1.76309 0.814173 0
M  V30 8657 O 809.375 1.12406 1.5873 0
M  V30 8658 C 809.658 3.44713 -1.04139 0
M  V30 8659 C 809.511 3.69606 -2.56342 0
M  V30 8660 C 810.83 4.36191 -0.585296 0
M  V30 8661 H 807.949 0.697618 -0.237695 0
M  V30 8662 H 810.591 1.45517 -1.22167 0
M  V30 8663 H 808.741 3.84513 -0.55515 0
M  V30 8664 H 810.413 3.39288 -3.1254 0
M  V30 8665 H 808.656 3.14318 -2.98976 0
M  V30 8666 H 809.327 4.76441 -2.78762 0
M  V30 8667 H 811.803 4.03836 -1.00276 0
M  V30 8668 H 810.679 5.41679 -0.887428 0
M  V30 8669 H 810.94 4.39097 0.51438 0
M  V30 8670 N 809.999 0.752036 1.385 0
M  V30 8671 C 811.229 0.317812 2.04141 0
M  V30 8672 C 811.637 -1.05822 1.56839 0
M  V30 8673 O 810.98 -1.68311 0.736016 0
M  V30 8674 C 811.042 0.260205 3.58557 0
M  V30 8675 C 810.706 1.57753 4.28909 0
M  V30 8676 C 811.703 2.52642 4.54387 0
M  V30 8677 C 809.388 1.84653 4.67128 0
M  V30 8678 C 811.382 3.72653 5.17116 0
M  V30 8679 C 809.069 3.04938 5.29581 0
M  V30 8680 C 810.067 3.98759 5.54509 0
M  V30 8681 O 809.755 5.16929 6.15662 0
M  V30 8682 H 809.487 0.133931 0.6626 0
M  V30 8683 H 812.041 1.02138 1.78205 0
M  V30 8684 H 810.271 -0.499596 3.83459 0
M  V30 8685 H 811.96 -0.144295 4.05643 0
M  V30 8686 H 812.726 2.33135 4.25292 0
M  V30 8687 H 808.605 1.12464 4.47071 0
M  V30 8688 H 812.149 4.45898 5.36489 0
M  V30 8689 H 808.046 3.24339 5.58099 0
M  V30 8690 H 808.814 5.1749 6.3415 0
M  V30 8691 N 811.477 -1.49425 0.500989 0
M  V30 8692 C 812.427 -2.26061 -0.296698 0
M  V30 8693 C 813.411 -1.30906 -0.935541 0
M  V30 8694 O 814.603 -1.55628 -0.843142 0
M  V30 8695 C 811.732 -3.15189 -1.36055 0
M  V30 8696 C 810.818 -4.17806 -0.727952 0
M  V30 8697 N 811.209 -5.05516 0.169408 0
M  V30 8698 C 809.507 -4.34907 -0.988535 0
M  V30 8699 C 810.208 -5.79267 0.531509 0
M  V30 8700 N 809.184 -5.43507 -0.100564 0
M  V30 8701 H 812.986 -2.91246 0.394103 0
M  V30 8702 H 810.5 -1.59275 0.317065 0
M  V30 8703 H 812.497 -3.68724 -1.94547 0
M  V30 8704 H 811.157 -2.51556 -2.05303 0
M  V30 8705 H 812.168 -5.15075 0.540218 0
M  V30 8706 H 808.845 -3.82481 -1.67376 0
M  V30 8707 H 810.235 -6.59872 1.26564 0
M  V30 8708 N 812.955 -0.234822 -1.55841 0
M  V30 8709 C 814.195 0.394944 -2.00548 0
M  V30 8710 C 814.559 1.56002 -1.11926 0
M  V30 8711 O 815.76 2.2567 -1.46037 0
M  V30 8712 C 814.031 0.805896 -3.48195 0
M  V30 8713 S 815.59 1.4279 -4.14918 0
M  V30 8714 H 812.408 0.124802 -0.699961 0
M  V30 8715 H 815.01 -0.347224 -1.92392 0
M  V30 8716 H 813.714 -0.0515271 -4.10368 0
M  V30 8717 H 813.245 1.58055 -3.60253 0
M  V30 8718 H 815.26 2.71699 -4.15204 0
M  V30 8719 N 814.433 1.57553 0.0384317 0
M  V30 8720 C 815.682 1.88022 0.730108 0
M  V30 8721 C 815.995 0.83209 1.77019 0
M  V30 8722 O 817.201 1.0257 2.51379 0
M  V30 8723 C 815.657 3.33637 1.3496 0
M  V30 8724 C 815.265 4.46659 0.346352 0
M  V30 8725 C 817.009 3.73266 2.02169 0
M  V30 8726 C 814.916 5.8333 0.973652 0
M  V30 8727 H 813.846 0.701496 0.276442 0
M  V30 8728 H 816.497 1.83493 -0.0158028 0
M  V30 8729 H 814.879 3.32882 2.1449 0
M  V30 8730 H 816.053 4.58868 -0.421558 0
M  V30 8731 H 814.368 4.15802 -0.223133 0
M  V30 8732 H 816.965 4.72689 2.49938 0
M  V30 8733 H 817.308 3.04776 2.8358 0
M  V30 8734 H 817.841 3.76156 1.29427 0
M  V30 8735 H 814.58 6.55197 0.199163 0
M  V30 8736 H 814.1 5.7486 1.71162 0
M  V30 8737 H 815.779 6.29757 1.48376 0
M  V30 8738 N 815.911 -0.310526 1.54511 0
M  V30 8739 C 817.136 -1.07046 1.7764 0
M  V30 8740 C 817.561 -1.80488 0.529696 0
M  V30 8741 O 816.919 -1.73702 -0.519361 0
M  V30 8742 C 816.967 -2.03411 2.97752 0
M  V30 8743 O 816.071 -3.11545 2.7021 0
M  V30 8744 H 815.412 -0.307994 0.588248 0
M  V30 8745 H 817.942 -0.350848 2.01569 0
M  V30 8746 H 817.952 -2.46048 3.2546 0
M  V30 8747 H 816.627 -1.49361 3.88155 0
M  V30 8748 H 815.204 -2.7349 2.53491 0
M  V30 8749 N 817.389 -1.46805 -0.573248 0
M  V30 8750 C 818.614 -1.56433 -1.36175 0
M  V30 8751 C 819.039 -0.209336 -1.86932 0
M  V30 8752 O 818.397 0.812146 -1.62092 0
M  V30 8753 C 818.445 -2.58055 -2.51873 0
M  V30 8754 O 817.549 -2.12214 -3.53609 0
M  V30 8755 H 816.89 -0.526068 -0.405153 0
M  V30 8756 H 819.42 -1.92456 -0.694405 0
M  V30 8757 H 819.43 -2.77966 -2.98662 0
M  V30 8758 H 818.105 -3.56448 -2.14284 0
M  V30 8759 H 816.682 -2.02333 -3.13234 0
M  V30 8760 N 818.867 0.818669 -1.34668 0
M  V30 8761 C 819.815 1.95123 -1.26609 0
M  V30 8762 C 820.809 1.68611 -0.163348 0
M  V30 8763 O 822.015 1.76975 -0.328586 0
M  V30 8764 H 818.39 0.640871 -0.393431 0
M  V30 8765 H 820.361 1.99043 -2.22316 0
M  V30 8766 C 819.11 3.31697 -1.04272 0
M  V30 8767 H 818.433 3.52648 -1.8836 0
M  V30 8768 H 819.873 4.11382 -1.0267 0
M  V30 8769 C 818.332 3.35942 0.253858 0
M  V30 8770 O 818.862 3.81632 1.25378 0
M  V30 8771 N 817.068 2.89165 0.288447 0
M  V30 8772 H 816.615 2.52176 -0.525845 0
M  V30 8773 H 816.573 2.92387 1.15572 0
M  V30 8774 N 820.346 1.18468 1.03938 0
M  V30 8775 C 821.576 1.0043 1.80547 0
M  V30 8776 C 821.984 -0.450407 1.83761 0
M  V30 8777 O 821.327 -1.32463 1.27276 0
M  V30 8778 C 821.389 1.48437 3.27424 0
M  V30 8779 C 821.053 2.96372 3.47869 0
M  V30 8780 C 822.05 3.94217 3.38953 0
M  V30 8781 C 819.735 3.34831 3.74424 0
M  V30 8782 C 821.729 5.28517 3.56298 0
M  V30 8783 C 819.416 4.69294 3.91416 0
M  V30 8784 C 820.414 5.65946 3.82354 0
M  V30 8785 O 820.102 6.97974 3.98858 0
M  V30 8786 H 819.834 0.354853 0.575374 0
M  V30 8787 H 822.388 1.57473 1.31876 0
M  V30 8788 H 820.618 0.857601 3.7707 0
M  V30 8789 H 822.307 1.2677 3.85596 0
M  V30 8790 H 823.073 3.6585 3.184 0
M  V30 8791 H 818.952 2.60161 3.80575 0
M  V30 8792 H 822.496 6.03943 3.49141 0
M  V30 8793 H 818.393 4.97361 4.11463 0
M  V30 8794 H 819.161 7.04895 4.1601 0
M  V30 8795 N 821.824 -1.22873 0.986916 0
M  V30 8796 C 823.101 -1.86939 0.575589 0
M  V30 8797 C 823.481 -1.88656 -0.947205 0
M  V30 8798 O 822.829 -1.3728 -1.82665 0
M  V30 8799 C 823.039 -3.28117 1.18914 0
M  V30 8800 C 824.387 -4.04659 1.28593 0
M  V30 8801 O 825.411 -3.3736 1.14308 0
M  V30 8802 O 824.27 -5.25112 1.51391 0
M  V30 8803 H 821.364 -0.803748 0.194724 0
M  V30 8804 H 823.91 -1.30698 1.08241 0
M  V30 8805 H 822.682 -3.21468 2.231 0
M  V30 8806 H 822.305 -3.91956 0.667535 0
M  V30 8807 N 823.302 -0.75937 -1.38099 0
M  V30 8808 C 824.579 -0.243371 -1.9408 0
M  V30 8809 C 824.959 1.25942 -1.69416 0
M  V30 8810 O 824.307 2.03667 -1.03595 0
M  V30 8811 C 824.517 -0.603328 -3.43745 0
M  V30 8812 C 825.865 -0.566195 -4.20808 0
M  V30 8813 O 826.889 -0.541969 -3.52053 0
M  V30 8814 O 825.748 -0.582261 -5.43389 0
M  V30 8815 H 822.842 -0.0526825 -0.82532 0
M  V30 8816 H 825.388 -0.839884 -1.47459 0
M  V30 8817 H 824.16 -1.64098 -3.55229 0
M  V30 8818 H 823.783 0.0208887 -3.97595 0
M  V30 8819 N 824.78 1.49157 -0.508906 0
M  V30 8820 C 825.743 2.27784 0.25434 0
M  V30 8821 C 826.743 1.34132 0.88686 0
M  V30 8822 O 827.933 1.5722 0.750168 0
M  V30 8823 C 825.065 3.12347 1.36573 0
M  V30 8824 H 826.258 2.96718 -0.435714 0
M  V30 8825 H 823.811 1.54052 -0.264128 0
M  V30 8826 H 824.546 2.47997 2.08969 0
M  V30 8827 H 824.331 3.81213 0.917543 0
M  V30 8828 H 825.821 3.71712 1.90315 0
M  V30 8829 N 826.258 0.243083 1.55714 0
M  V30 8830 C 827.535 -0.432851 1.90751 0
M  V30 8831 C 827.915 -1.76153 1.16333 0
M  V30 8832 O 827.263 -2.26783 0.279565 0
M  V30 8833 C 827.473 -0.604685 3.43722 0
M  V30 8834 C 828.821 -0.90231 4.14902 0
M  V30 8835 O 829.845 -0.690689 3.49439 0
M  V30 8836 O 828.704 -1.3051 5.30688 0
M  V30 8837 H 825.798 -0.231835 0.79384 0
M  V30 8838 H 828.344 0.286867 1.67258 0
M  V30 8839 H 827.116 0.331655 3.89892 0
M  V30 8840 H 826.739 -1.37509 3.73065 0
M  V30 8841 N 827.736 -1.57571 -0.0300757 0
M  V30 8842 C 828.985 -1.88407 -0.720126 0
M  V30 8843 C 829.298 -0.841466 -1.76575 0
M  V30 8844 O 830.504 -1.03902 -2.50832 0
M  V30 8845 C 828.96 -3.34348 -1.33188 0
M  V30 8846 C 828.568 -4.46837 -0.32266 0
M  V30 8847 C 830.312 -3.74333 -2.00187 0
M  V30 8848 C 828.219 -5.83838 -0.942703 0
M  V30 8849 H 827.149 -0.702952 -0.272718 0
M  V30 8850 H 829.8 -1.83482 0.0255337 0
M  V30 8851 H 828.182 -3.34014 -2.12721 0
M  V30 8852 H 829.356 -4.58638 0.445887 0
M  V30 8853 H 827.671 -4.15678 0.245181 0
M  V30 8854 H 830.268 -4.74008 -2.47428 0
M  V30 8855 H 830.611 -3.06275 -2.81959 0
M  V30 8856 H 831.144 -3.76837 -1.2743 0
M  V30 8857 H 827.883 -6.55294 -0.164413 0
M  V30 8858 H 827.403 -5.75759 -1.68111 0
M  V30 8859 H 829.082 -6.30535 -1.45034 0
M  V30 8860 N 829.214 0.302327 -1.54673 0
M  V30 8861 C 830.144 1.37759 -1.88533 0
M  V30 8862 C 831.125 1.52961 -0.744113 0
M  V30 8863 O 832.31 1.6649 -0.999731 0
M  V30 8864 C 829.44 2.74201 -2.13146 0
M  V30 8865 C 828.394 2.73765 -3.28993 0
M  V30 8866 C 827.72 4.13483 -3.39022 0
M  V30 8867 C 829.02 2.35624 -4.66132 0
M  V30 8868 H 830.714 1.0967 -2.78591 0
M  V30 8869 H 828.26 0.52613 -1.34044 0
M  V30 8870 H 830.213 3.49508 -2.35419 0
M  V30 8871 H 828.937 3.03812 -1.19858 0
M  V30 8872 H 827.596 2.00914 -3.06642 0
M  V30 8873 H 827.244 4.40269 -2.43253 0
M  V30 8874 H 826.944 4.14093 -4.16894 0
M  V30 8875 H 828.468 4.90572 -3.63553 0
M  V30 8876 H 829.882 3.00647 -4.88143 0
M  V30 8877 H 828.279 2.47449 -5.46707 0
M  V30 8878 H 829.349 1.30753 -4.66939 0
M  V30 8879 N 830.692 1.47107 0.565454 0
M  V30 8880 C 831.92 1.56909 1.3486 0
M  V30 8881 C 832.335 0.216312 1.87557 0
M  V30 8882 O 831.692 -0.789168 1.64555 0
M  V30 8883 C 831.743 2.58776 2.52423 0
M  V30 8884 O 831.464 3.888 2.01906 0
M  V30 8885 C 832.965 2.78683 3.44747 0
M  V30 8886 H 830.185 0.530096 0.411387 0
M  V30 8887 H 832.729 1.92658 0.685782 0
M  V30 8888 H 830.884 2.25983 3.1466 0
M  V30 8889 H 831.298 4.44393 2.78595 0
M  V30 8890 H 832.772 3.53842 4.23674 0
M  V30 8891 H 833.249 1.86208 3.97773 0
M  V30 8892 H 833.855 3.12641 2.88333 0
M  V30 8893 N 832.17 -0.811516 1.35101 0
M  V30 8894 C 833.4 -1.59749 1.31011 0
M  V30 8895 C 833.808 -1.88847 -0.115566 0
M  V30 8896 O 833.151 -1.48854 -1.07649 0
M  V30 8897 C 833.213 -2.95714 2.04435 0
M  V30 8898 C 832.877 -2.89456 3.53645 0
M  V30 8899 C 833.874 -2.63237 4.48333 0
M  V30 8900 C 831.559 -3.08728 3.96222 0
M  V30 8901 C 833.553 -2.56361 5.83573 0
M  V30 8902 C 831.24 -3.01475 5.3156 0
M  V30 8903 C 832.238 -2.75326 6.25048 0
M  V30 8904 O 831.926 -2.68026 7.57903 0
M  V30 8905 H 831.658 -0.502889 0.45175 0
M  V30 8906 H 834.212 -1.01687 1.78462 0
M  V30 8907 H 832.442 -3.55739 1.51613 0
M  V30 8908 H 834.131 -3.56816 1.93487 0
M  V30 8909 H 834.897 -2.48072 4.16756 0
M  V30 8910 H 830.776 -3.28094 3.23845 0
M  V30 8911 H 834.32 -2.35871 6.56514 0
M  V30 8912 H 830.217 -3.16197 5.62752 0
M  V30 8913 H 830.985 -2.8367 7.67772 0
M  V30 8914 N 833.648 -1.19017 -1.03309 0
M  V30 8915 C 835.064 -0.941483 -1.28873 0
M  V30 8916 C 835.264 0.388587 -1.97718 0
M  V30 8917 O 834.32 1.12111 -2.26246 0
M  V30 8918 C 835.633 -2.11249 -2.13996 0
M  V30 8919 C 837.181 -2.15164 -2.27318 0
M  V30 8920 C 837.656 -3.31704 -3.15811 0
M  V30 8921 N 839.147 -3.31613 -3.23399 0
M  V30 8922 C 839.882 -4.18431 -3.9205 0
M  V30 8923 N 839.378 -5.15397 -4.62966 0
M  V30 8924 N 841.171 -4.06321 -3.88406 0
M  V30 8925 H 833.322 -2.04599 -0.570343 0
M  V30 8926 H 835.585 -0.894406 -0.314232 0
M  V30 8927 H 835.291 -3.07482 -1.70727 0
M  V30 8928 H 835.165 -2.07955 -3.14697 0
M  V30 8929 H 837.552 -1.19504 -2.6982 0
M  V30 8930 H 837.633 -2.22513 -1.26182 0
M  V30 8931 H 837.277 -4.2764 -2.74019 0
M  V30 8932 H 837.207 -3.21592 -4.16997 0
M  V30 8933 H 839.698 -2.6142 -2.72888 0
M  V30 8934 H 840.011 -5.78 -5.12968 0
M  V30 8935 H 838.356 -5.19349 -4.61846 0
M  V30 8936 H 841.547 -3.29849 -3.3214 0
M  V30 8937 H 841.72 -4.74196 -4.41635 0
M  V30 8938 N 835.127 1.22348 -0.993418 0
M  V30 8939 C 836.376 1.90422 -0.665019 0
M  V30 8940 C 836.689 1.78199 0.806512 0
M  V30 8941 O 837.895 2.41193 1.24652 0
M  V30 8942 C 836.351 3.41403 -1.13893 0
M  V30 8943 C 835.959 3.62262 -2.63572 0
M  V30 8944 C 837.703 4.15175 -0.884884 0
M  V30 8945 C 835.61 5.06947 -3.04564 0
M  V30 8946 H 834.54 0.713073 -0.245037 0
M  V30 8947 H 837.191 1.3856 -1.20305 0
M  V30 8948 H 835.573 3.9245 -0.529027 0
M  V30 8949 H 836.747 3.21705 -3.29913 0
M  V30 8950 H 835.062 3.01824 -2.86865 0
M  V30 8951 H 837.659 5.21813 -1.16684 0
M  V30 8952 H 838.002 4.15915 0.178982 0
M  V30 8953 H 838.535 3.70157 -1.45701 0
M  V30 8954 H 835.274 5.11346 -4.10128 0
M  V30 8955 H 834.794 5.48404 -2.42927 0
M  V30 8956 H 836.473 5.75374 -2.95894 0
M  V30 8957 N 836.605 0.766683 1.37694 0
M  V30 8958 C 837.833 0.339939 2.04088 0
M  V30 8959 C 838.248 -1.03617 1.57826 0
M  V30 8960 O 837.605 -1.6605 0.757214 0
M  V30 8961 C 837.656 0.368269 3.59619 0
M  V30 8962 O 837.377 1.69009 4.04188 0
M  V30 8963 C 838.878 -0.0707053 4.43244 0
M  V30 8964 H 836.098 0.143189 0.655544 0
M  V30 8965 H 838.642 1.03919 1.76128 0
M  V30 8966 H 836.797 -0.282359 3.8637 0
M  V30 8967 H 837.211 1.62523 4.98685 0
M  V30 8968 H 838.685 0.000273538 5.52 0
M  V30 8969 H 839.162 -1.1204 4.24669 0
M  V30 8970 H 839.768 0.551543 4.21709 0
M  V30 8971 N 838.083 -1.48885 0.516809 0
M  V30 8972 C 839.329 -2.02788 -0.0220928 0
M  V30 8973 C 839.662 -1.39433 -1.35175 0
M  V30 8974 O 838.937 -0.535459 -1.86984 0
M  V30 8975 C 839.22 -3.59753 -0.158012 0
M  V30 8976 C 839.073 -4.33611 1.19588 0
M  V30 8977 C 840.392 -4.30984 -0.891133 0
M  V30 8978 H 837.511 -0.736971 -0.00655488 0
M  V30 8979 H 840.153 -1.77746 0.671287 0
M  V30 8980 H 838.303 -3.8122 -0.748568 0
M  V30 8981 H 839.975 -4.23598 1.82653 0
M  V30 8982 H 838.218 -3.95547 1.78116 0
M  V30 8983 H 838.889 -5.41846 1.05391 0
M  V30 8984 H 841.365 -4.14267 -0.39012 0
M  V30 8985 H 840.241 -5.40527 -0.955107 0
M  V30 8986 H 840.502 -3.97336 -1.93847 0
M  V30 8987 N 839.561 -0.251338 -1.55583 0
M  V30 8988 C 840.807 0.37272 -1.99346 0
M  V30 8989 C 841.14 1.57266 -1.13934 0
M  V30 8990 O 840.415 1.9343 -0.20377 0
M  V30 8991 C 840.698 0.778245 -3.5159 0
M  V30 8992 C 840.551 -0.427394 -4.47765 0
M  V30 8993 C 841.87 1.62358 -4.09057 0
M  V30 8994 H 838.989 0.134002 -0.724715 0
M  V30 8995 H 841.631 -0.353536 -1.86682 0
M  V30 8996 H 839.781 1.39704 -3.62512 0
M  V30 8997 H 841.453 -1.06586 -4.48818 0
M  V30 8998 H 839.696 -1.06972 -4.20404 0
M  V30 8999 H 840.367 -0.10025 -5.51909 0
M  V30 9000 H 842.843 1.1012 -4.01264 0
M  V30 9001 H 841.719 1.87617 -5.1584 0
M  V30 9002 H 841.98 2.59688 -3.57791 0
M  V30 9003 N 841.039 1.57585 0.0217189 0
M  V30 9004 C 841.949 2.10444 1.03684 0
M  V30 9005 C 842.965 1.04472 1.39146 0
M  V30 9006 O 844.141 1.36249 1.48317 0
M  V30 9007 C 841.206 2.5794 2.31664 0
M  V30 9008 C 840.267 3.78425 2.02714 0
M  V30 9009 C 839.5 4.23646 3.24592 0
M  V30 9010 O 839.723 3.6834 4.35525 0
M  V30 9011 O 838.657 5.16013 3.09862 0
M  V30 9012 H 842.483 2.97354 0.617584 0
M  V30 9013 H 840.068 1.47473 0.239174 0
M  V30 9014 H 841.95 2.88785 3.06889 0
M  V30 9015 H 840.625 1.74138 2.7287 0
M  V30 9016 H 839.532 3.52587 1.25033 0
M  V30 9017 H 840.865 4.63234 1.66359 0
M  V30 9018 N 842.517 -0.29412 1.54831 0
M  V30 9019 C 843.928 -0.866651 1.65366 0
M  V30 9020 C 844.279 -1.87834 0.56681 0
M  V30 9021 O 843.404 -2.14374 -0.295389 0
M  V30 9022 C 843.999 -1.57869 2.99771 0
M  V30 9023 C 842.558 -2.09954 3.12404 0
M  V30 9024 C 841.705 -0.934492 2.6108 0
M  V30 9025 H 844.656 -0.0709551 1.58541 0
M  V30 9026 H 844.677 -2.44462 2.91579 0
M  V30 9027 H 844.189 -0.84212 3.78853 0
M  V30 9028 H 842.29 -2.86637 2.38055 0
M  V30 9029 H 842.403 -2.32934 4.18663 0
M  V30 9030 H 840.767 -1.32199 2.17705 0
M  V30 9031 H 841.55 -0.211768 3.42646 0
M  V30 9032 N 843.995 -1.47404 -0.557645 0
M  V30 9033 C 844.925 -1.62736 -1.67449 0
M  V30 9034 C 845.906 -0.476824 -1.6328 0
M  V30 9035 O 847.091 -0.706108 -1.80908 0
M  V30 9036 C 844.221 -1.641 -3.06086 0
M  V30 9037 C 843.175 -2.78377 -3.25101 0
M  V30 9038 C 842.501 -2.64812 -4.6452 0
M  V30 9039 C 843.801 -4.19971 -3.10518 0
M  V30 9040 H 845.495 -2.56232 -1.54873 0
M  V30 9041 H 843.041 -1.23312 -0.743649 0
M  V30 9042 H 844.994 -1.73417 -3.84063 0
M  V30 9043 H 843.718 -0.671652 -3.19619 0
M  V30 9044 H 842.377 -2.6857 -2.49531 0
M  V30 9045 H 842.025 -1.65906 -4.74852 0
M  V30 9046 H 841.725 -3.41477 -4.78191 0
M  V30 9047 H 843.249 -2.76057 -5.44633 0
M  V30 9048 H 844.663 -4.30757 -3.78313 0
M  V30 9049 H 843.06 -4.97419 -3.35699 0
M  V30 9050 H 844.13 -4.38369 -2.0727 0
M  V30 9051 N 845.473 0.80434 -1.35529 0
M  V30 9052 C 846.719 1.56385 -1.29118 0
M  V30 9053 C 847.052 1.9374 0.133536 0
M  V30 9054 O 846.327 1.6153 1.08344 0
M  V30 9055 C 846.61 2.85097 -2.19981 0
M  V30 9056 C 846.463 2.54204 -3.7108 0
M  V30 9057 C 847.782 3.86817 -2.09907 0
M  V30 9058 H 844.901 0.567382 -0.470368 0
M  V30 9059 H 847.543 0.925235 -1.6595 0
M  V30 9060 H 845.693 3.39594 -1.88701 0
M  V30 9061 H 847.365 2.05872 -4.12813 0
M  V30 9062 H 845.608 1.87364 -3.91251 0
M  V30 9063 H 846.279 3.46068 -4.30048 0
M  V30 9064 H 848.755 3.41725 -2.37409 0
M  V30 9065 H 847.631 4.7465 -2.75678 0
M  V30 9066 H 847.892 4.28663 -1.08171 0
M  V30 9067 N 846.951 1.19563 1.02676 0
M  V30 9068 C 847.861 0.950691 2.14474 0
M  V30 9069 C 848.877 -0.0900219 1.73767 0
M  V30 9070 O 850.053 0.0951063 2.01175 0
M  V30 9071 C 847.118 0.494917 3.43149 0
M  V30 9072 C 846.179 1.60527 3.98158 0
M  V30 9073 C 845.412 1.17115 5.20692 0
M  V30 9074 O 845.635 0.0355937 5.70389 0
M  V30 9075 O 844.569 1.97454 5.68591 0
M  V30 9076 H 848.395 1.88651 2.38001 0
M  V30 9077 H 845.98 0.978635 1.12885 0
M  V30 9078 H 847.862 0.249492 4.20661 0
M  V30 9079 H 846.537 -0.412434 3.21062 0
M  V30 9080 H 845.444 1.90487 3.21971 0
M  V30 9081 H 846.777 2.48925 4.24614 0
M  V30 9082 N 848.429 -1.21819 0.999893 0
M  V30 9083 C 849.392 -2.22227 0.561044 0
M  V30 9084 C 850.392 -1.56722 -0.359858 0
M  V30 9085 O 851.582 -1.73546 -0.150848 0
M  V30 9086 C 848.714 -3.40409 -0.182987 0
M  V30 9087 H 849.907 -2.62567 1.44909 0
M  V30 9088 H 847.46 -1.34991 0.78785 0
M  V30 9089 H 848.195 -3.05551 -1.08671 0
M  V30 9090 H 847.98 -3.89171 0.47833 0
M  V30 9091 H 849.47 -4.14856 -0.477952 0
M  V30 9092 N 849.908 -0.773975 -1.37286 0
M  V30 9093 C 851.138 -0.350249 -2.03609 0
M  V30 9094 C 851.546 1.03313 -1.58502 0
M  V30 9095 O 850.889 1.67118 -0.7627 0
M  V30 9096 C 850.951 -0.317215 -3.58098 0
M  V30 9097 C 850.615 -1.64556 -4.26345 0
M  V30 9098 C 851.612 -2.59839 -4.50311 0
M  V30 9099 C 849.297 -1.92061 -4.64131 0
M  V30 9100 C 851.291 -3.80833 -5.11122 0
M  V30 9101 C 848.978 -3.13325 -5.24663 0
M  V30 9102 C 849.976 -4.0753 -5.48095 0
M  V30 9103 O 849.664 -5.26658 -6.0736 0
M  V30 9104 H 849.396 -0.144456 -0.660385 0
M  V30 9105 H 851.95 -1.0496 -1.76557 0
M  V30 9106 H 850.18 0.438528 -3.84205 0
M  V30 9107 H 851.869 0.0797428 -4.05822 0
M  V30 9108 H 852.635 -2.39872 -4.21529 0
M  V30 9109 H 848.514 -1.19562 -4.45226 0
M  V30 9110 H 852.058 -4.54377 -5.29327 0
M  V30 9111 H 847.955 -3.33177 -5.52869 0
M  V30 9112 H 848.723 -5.27513 -6.25837 0
M  V30 9113 N 851.386 1.48609 -0.524698 0
M  V30 9114 C 852.318 2.27508 0.278 0
M  V30 9115 C 853.331 1.35042 0.909258 0
M  V30 9116 O 854.52 1.60136 0.788592 0
M  V30 9117 C 851.62 3.08247 1.40843 0
M  V30 9118 C 850.793 4.28455 0.880083 0
M  V30 9119 C 849.852 4.91048 1.891 0
M  V30 9120 O 848.878 5.5042 1.45005 0
M  V30 9121 N 850.08 4.82816 3.22288 0
M  V30 9122 H 852.845 2.97037 -0.398642 0
M  V30 9123 H 850.406 1.57876 -0.358698 0
M  V30 9124 H 852.398 3.46992 2.08276 0
M  V30 9125 H 850.968 2.41173 1.98883 0
M  V30 9126 H 850.188 3.94189 0.0299228 0
M  V30 9127 H 851.476 5.06279 0.505881 0
M  V30 9128 H 850.874 4.3572 3.60783 0
M  V30 9129 H 849.431 5.25676 3.85368 0
M  V30 9130 N 852.864 0.259585 1.55447 0
M  V30 9131 C 853.774 -0.645026 2.25558 0
M  V30 9132 C 854.79 -1.18291 1.27606 0
M  V30 9133 O 855.966 -1.21649 1.6051 0
M  V30 9134 C 853.031 -1.81964 2.9511 0
M  V30 9135 C 852.092 -1.31997 4.08504 0
M  V30 9136 C 851.325 -2.43861 4.74729 0
M  V30 9137 O 851.548 -3.62876 4.40088 0
M  V30 9138 O 850.482 -2.12898 5.6299 0
M  V30 9139 H 854.308 -0.0775399 3.03601 0
M  V30 9140 H 851.893 0.0275859 1.49375 0
M  V30 9141 H 853.775 -2.50485 3.38873 0
M  V30 9142 H 852.45 -2.37451 2.19997 0
M  V30 9143 H 851.357 -0.601676 3.6923 0
M  V30 9144 H 852.69 -0.811045 4.85472 0
M  V30 9145 N 854.342 -1.57594 -0.0133615 0
M  V30 9146 C 855.29 -2.08682 -1.02736 0
M  V30 9147 C 856.284 -1.00391 -1.36448 0
M  V30 9148 O 857.49 -1.18868 -1.35168 0
M  V30 9149 H 853.865 -0.666158 -0.34891 0
M  V30 9150 H 855.836 -2.9289 -0.570815 0
M  V30 9151 C 854.585 -2.5945 -2.31476 0
M  V30 9152 H 853.908 -3.42401 -2.06401 0
M  V30 9153 H 855.348 -2.98888 -3.00735 0
M  V30 9154 C 853.807 -1.50266 -3.01533 0
M  V30 9155 O 854.337 -0.877875 -3.9199 0
M  V30 9156 N 852.543 -1.23336 -2.63129 0
M  V30 9157 H 852.09 -1.74327 -1.89652 0
M  V30 9158 H 852.048 -0.504987 -3.10318 0
M  V30 9159 N 855.82 0.285905 -1.54985 0
M  V30 9160 C 857.068 1.01718 -1.74636 0
M  V30 9161 C 857.389 1.87277 -0.543342 0
M  V30 9162 O 856.659 1.90847 0.442078 0
M  V30 9163 H 855.239 0.378549 -0.643979 0
M  V30 9164 H 857.901 0.313247 -1.92366 0
M  V30 9165 H 856.997 1.66159 -2.64192 0
M  V30 9166 N 857.298 1.47698 0.54982 0
M  V30 9167 C 858.547 1.53961 1.30303 0
M  V30 9168 C 858.86 0.209731 1.94472 0
M  V30 9169 O 860.066 0.150418 2.71083 0
M  V30 9170 C 858.522 2.71436 2.36328 0
M  V30 9171 C 858.13 4.10983 1.78316 0
M  V30 9172 C 859.874 2.86996 3.12783 0
M  V30 9173 C 857.781 5.19747 2.82164 0
M  V30 9174 H 856.711 0.573098 0.489975 0
M  V30 9175 H 859.362 1.73989 0.583089 0
M  V30 9176 H 857.744 2.44801 3.11269 0
M  V30 9177 H 858.918 4.47552 1.09697 0
M  V30 9178 H 857.233 4.00371 1.1442 0
M  V30 9179 H 859.83 3.65422 3.90347 0
M  V30 9180 H 860.173 1.95712 3.67427 0
M  V30 9181 H 860.706 3.13436 2.44954 0
M  V30 9182 H 857.445 6.12932 2.32366 0
M  V30 9183 H 856.965 4.87688 3.49171 0
M  V30 9184 H 858.644 5.47014 3.4552 0
M  V30 9185 N 858.776 -0.797141 1.35954 0
M  V30 9186 C 859.726 -1.89899 1.26184 0
M  V30 9187 C 860.71 -1.60152 0.155007 0
M  V30 9188 O 861.902 -1.72715 0.387108 0
M  V30 9189 C 859.031 -3.2699 1.04559 0
M  V30 9190 C 858.117 -3.62772 2.19675 0
M  V30 9191 N 858.508 -3.6992 3.44953 0
M  V30 9192 C 856.806 -3.92786 2.1127 0
M  V30 9193 C 857.507 -4.01718 4.20711 0
M  V30 9194 N 856.483 -4.16298 3.49567 0
M  V30 9195 H 860.285 -1.9364 2.2109 0
M  V30 9196 H 857.799 -0.992246 1.28562 0
M  V30 9197 H 859.796 -4.0578 0.956474 0
M  V30 9198 H 858.456 -3.24529 0.105467 0
M  V30 9199 H 859.467 -3.52759 3.79185 0
M  V30 9200 H 856.144 -3.98295 1.25168 0
M  V30 9201 H 857.534 -4.14237 5.29016 0
M  V30 9202 N 860.254 -1.20106 -1.0204 0
M  V30 9203 C 861.204 -0.914145 -2.08872 0
M  V30 9204 C 862.188 0.124503 -1.60418 0
M  V30 9205 O 863.38 -0.0823521 -1.76808 0
M  V30 9206 C 860.509 -0.463897 -3.40151 0
M  V30 9207 C 859.595 -1.53576 -3.95317 0
M  V30 9208 N 859.986 -2.75726 -4.24038 0
M  V30 9209 C 858.284 -1.40103 -4.23423 0
M  V30 9210 C 858.985 -3.44838 -4.68468 0
M  V30 9211 N 857.961 -2.72245 -4.70514 0
M  V30 9212 H 861.763 -1.8424 -2.28982 0
M  V30 9213 H 859.277 -1.0945 -1.19977 0
M  V30 9214 H 861.274 -0.239766 -4.1621 0
M  V30 9215 H 859.934 0.457779 -3.21457 0
M  V30 9216 H 860.945 -3.12412 -4.13061 0
M  V30 9217 H 857.622 -0.543472 -4.13948 0
M  V30 9218 H 859.012 -4.49342 -4.99541 0
M  V30 9219 N 861.732 1.21287 -1.00634 0
M  V30 9220 C 862.96 1.94385 -0.708678 0
M  V30 9221 C 863.375 1.7416 0.728957 0
M  V30 9222 O 862.732 1.04906 1.49335 0
M  V30 9223 C 862.783 3.46755 -1.02193 0
M  V30 9224 O 862.504 3.6631 -2.40309 0
M  V30 9225 C 864.005 4.37014 -0.743867 0
M  V30 9226 H 861.225 0.618136 -0.261052 0
M  V30 9227 H 863.769 1.54067 -1.34475 0
M  V30 9228 H 861.924 3.8499 -0.431441 0
M  V30 9229 H 862.338 4.60393 -2.51274 0
M  V30 9230 H 863.812 5.42621 -1.01321 0
M  V30 9231 H 864.289 4.38017 0.322084 0
M  V30 9232 H 864.895 4.04426 -1.31603 0
M  V30 9233 N 863.21 0.781244 1.36873 0
M  V30 9234 C 864.456 0.350407 1.9975 0
M  V30 9235 C 864.789 -1.07293 1.6187 0
M  V30 9236 O 864.064 -1.73983 0.869491 0
M  V30 9237 C 864.347 0.504834 3.56544 0
M  V30 9238 C 864.2 1.97127 4.04303 0
M  V30 9239 C 865.519 -0.0851272 4.40018 0
M  V30 9240 H 862.638 0.128794 0.725659 0
M  V30 9241 H 865.28 0.98606 1.6241 0
M  V30 9242 H 863.43 -0.0363006 3.88483 0
M  V30 9243 H 865.102 2.57284 3.82887 0
M  V30 9244 H 863.345 2.47676 3.56145 0
M  V30 9245 H 864.016 2.03033 5.13305 0
M  V30 9246 H 866.492 0.376704 4.14391 0
M  V30 9247 H 865.368 0.0530015 5.48874 0
M  V30 9248 H 865.629 -1.17642 4.2616 0
M  V30 9249 N 864.689 -1.48329 0.532571 0
M  V30 9250 C 865.936 -2.025 -0.000582356 0
M  V30 9251 C 866.264 -1.40942 -1.34036 0
M  V30 9252 O 865.519 -0.545545 -1.87942 0
M  V30 9253 C 865.818 -3.57 -0.168943 0
M  V30 9254 C 865.484 -4.37357 1.0968 0
M  V30 9255 C 864.146 -4.59033 1.44369 0
M  V30 9256 C 866.498 -4.83882 1.93669 0
M  V30 9257 C 863.826 -5.24481 2.62939 0
M  V30 9258 C 866.178 -5.50637 3.11419 0
M  V30 9259 C 864.842 -5.70551 3.46451 0
M  V30 9260 H 864.112 -0.741 -0.000213099 0
M  V30 9261 H 866.759 -1.78282 0.699117 0
M  V30 9262 H 865.064 -3.80072 -0.951429 0
M  V30 9263 H 866.761 -3.9654 -0.596422 0
M  V30 9264 H 863.351 -4.20748 0.816655 0
M  V30 9265 H 867.535 -4.66936 1.6818 0
M  V30 9266 H 862.791 -5.38096 2.9028 0
M  V30 9267 H 866.965 -5.85655 3.76803 0
M  V30 9268 H 864.592 -6.21037 4.38425 0
M  V30 9269 N 866.167 -0.267825 -1.55308 0
M  V30 9270 C 867.416 0.351635 -1.98611 0
M  V30 9271 C 867.729 1.57522 -1.15957 0
M  V30 9272 O 868.935 2.26717 -1.49371 0
M  V30 9273 C 867.391 0.676986 -3.53475 0
M  V30 9274 C 866.999 -0.526385 -4.44897 0
M  V30 9275 C 868.743 1.25948 -4.05386 0
M  V30 9276 C 866.65 -0.176026 -5.91138 0
M  V30 9277 H 865.58 0.13516 -0.741787 0
M  V30 9278 H 868.231 -0.371333 -1.79704 0
M  V30 9279 H 866.613 1.45866 -3.68156 0
M  V30 9280 H 867.787 -1.30339 -4.41982 0
M  V30 9281 H 866.102 -1.02522 -4.03582 0
M  V30 9282 H 868.699 1.53529 -5.12184 0
M  V30 9283 H 869.042 2.19094 -3.53982 0
M  V30 9284 H 869.575 0.540253 -3.94114 0
M  V30 9285 H 866.314 -1.07518 -6.46622 0
M  V30 9286 H 865.834 0.564363 -5.97139 0
M  V30 9287 H 867.513 0.234365 -6.46575 0
M  V30 9288 N 867.645 1.57599 0.00500368 0
M  V30 9289 C 868.893 1.89973 0.68953 0
M  V30 9290 C 869.214 0.868531 1.7459 0
M  V30 9291 O 868.484 -0.0947367 1.95671 0
M  V30 9292 H 867.064 0.701153 0.25767 0
M  V30 9293 H 869.726 1.94869 -0.0347392 0
M  V30 9294 H 868.822 2.89584 1.16394 0
M  V30 9295 N 869.123 -0.277682 1.55134 0
M  V30 9296 C 870.033 -1.36524 1.90783 0
M  V30 9297 C 871.049 -1.54283 0.804542 0
M  V30 9298 O 872.225 -1.68499 1.10318 0
M  V30 9299 C 869.29 -2.70524 2.16835 0
M  V30 9300 C 868.351 -2.61552 3.40424 0
M  V30 9301 C 867.584 -3.89162 3.65224 0
M  V30 9302 O 867.807 -4.89624 2.92616 0
M  V30 9303 O 866.741 -3.89647 4.58758 0
M  V30 9304 H 870.567 -1.0929 2.83354 0
M  V30 9305 H 868.152 -0.475799 1.41621 0
M  V30 9306 H 870.034 -3.49765 2.35038 0
M  V30 9307 H 868.709 -2.97555 1.27448 0
M  V30 9308 H 867.616 -1.80704 3.27562 0
M  V30 9309 H 868.949 -2.39472 4.30016 0
M  V30 9310 N 870.601 -1.47988 -0.541979 0
M  V30 9311 C 871.829 -1.59034 -1.32347 0
M  V30 9312 C 872.244 -0.246123 -1.87189 0
M  V30 9313 O 871.601 0.762889 -1.6579 0
M  V30 9314 C 871.652 -2.62759 -2.48274 0
M  V30 9315 O 871.373 -3.91963 -1.95695 0
M  V30 9316 C 872.874 -2.84133 -3.4027 0
M  V30 9317 H 870.094 -0.536574 -0.402901 0
M  V30 9318 H 872.638 -1.93725 -0.655045 0
M  V30 9319 H 870.793 -2.3096 -3.11025 0
M  V30 9320 H 871.207 -4.48769 -2.7149 0
M  V30 9321 H 872.681 -3.60538 -4.17991 0
M  V30 9322 H 873.158 -1.92512 -3.9476 0
M  V30 9323 H 873.764 -3.17188 -2.83322 0
M  V30 9324 N 872.079 0.78992 -1.36375 0
M  V30 9325 C 873.009 1.91683 -1.33341 0
M  V30 9326 C 873.99 1.68861 -0.204965 0
M  V30 9327 O 875.175 1.89982 -0.402531 0
M  V30 9328 C 872.305 3.28696 -1.12143 0
M  V30 9329 C 871.259 3.66041 -2.21806 0
M  V30 9330 C 870.585 5.01399 -1.85751 0
M  V30 9331 C 871.885 3.74677 -3.63888 0
M  V30 9332 H 873.579 1.94478 -2.27637 0
M  V30 9333 H 871.125 0.934271 -1.09578 0
M  V30 9334 H 873.078 4.07151 -1.08656 0
M  V30 9335 H 871.802 3.26287 -0.142974 0
M  V30 9336 H 870.461 2.89883 -2.24418 0
M  V30 9337 H 870.109 4.9551 -0.864817 0
M  V30 9338 H 869.809 5.27355 -2.59173 0
M  V30 9339 H 871.333 5.82274 -1.83819 0
M  V30 9340 H 872.747 4.43324 -3.63506 0
M  V30 9341 H 871.144 4.12118 -4.3621 0
M  V30 9342 H 872.214 2.75795 -3.9883 0
M  V30 9343 N 873.557 1.20646 1.01402 0
M  V30 9344 C 874.834 0.927176 1.72229 0
M  V30 9345 C 875.214 -0.563382 2.03443 0
M  V30 9346 O 874.562 -1.52576 1.70096 0
M  V30 9347 C 874.772 1.80285 2.98828 0
M  V30 9348 C 876.12 2.04624 3.72041 0
M  V30 9349 O 877.144 1.77559 3.0879 0
M  V30 9350 O 876.003 2.50347 4.85787 0
M  V30 9351 H 873.097 0.346891 0.75073 0
M  V30 9352 H 875.643 1.31532 1.07227 0
M  V30 9353 H 874.415 2.81204 2.72102 0
M  V30 9354 H 874.038 1.41495 3.71571 0
M  V30 9355 N 875.035 -1.20752 1.01276 0
M  V30 9356 C 875.965 -2.25658 0.600064 0
M  V30 9357 C 876.946 -1.65733 -0.38298 0
M  V30 9358 O 878.131 -1.92324 -0.269256 0
M  V30 9359 C 875.261 -3.47237 -0.0663197 0
M  V30 9360 C 874.215 -4.1973 0.83731 0
M  V30 9361 C 873.541 -5.34687 0.0369102 0
M  V30 9362 C 874.841 -4.76286 2.14357 0
M  V30 9363 H 876.535 -2.60432 1.477 0
M  V30 9364 H 874.081 -1.25187 0.711634 0
M  V30 9365 H 876.034 -4.19803 -0.366563 0
M  V30 9366 H 874.758 -3.11615 -0.977944 0
M  V30 9367 H 873.417 -3.49024 1.1215 0
M  V30 9368 H 873.065 -4.95309 -0.876244 0
M  V30 9369 H 872.765 -5.84119 0.63865 0
M  V30 9370 H 874.289 -6.10059 -0.256968 0
M  V30 9371 H 875.703 -5.40691 1.90595 0
M  V30 9372 H 874.1 -5.36139 2.69583 0
M  V30 9373 H 875.17 -3.9524 2.80916 0
M  V30 9374 N 876.513 -0.788492 -1.36457 0
M  V30 9375 C 877.924 -0.423742 -1.81828 0
M  V30 9376 C 878.275 1.05221 -1.65599 0
M  V30 9377 O 877.4 1.8163 -1.17641 0
M  V30 9378 C 877.995 -0.762354 -3.30112 0
M  V30 9379 C 876.554 -0.450445 -3.73695 0
M  V30 9380 C 875.701 -0.997482 -2.58738 0
M  V30 9381 H 878.652 -0.981718 -1.24692 0
M  V30 9382 H 878.673 -0.0531136 -3.80463 0
M  V30 9383 H 878.185 -1.83662 -3.41891 0
M  V30 9384 H 876.286 0.615829 -3.67476 0
M  V30 9385 H 876.399 -0.970408 -4.69169 0
M  V30 9386 H 874.763 -0.420761 -2.51201 0
M  V30 9387 H 875.546 -2.07749 -2.73304 0
M  V30 9388 N 877.991 1.48044 -0.54043 0
M  V30 9389 C 879.231 2.04396 -0.012296 0
M  V30 9390 C 879.595 1.40748 1.30591 0
M  V30 9391 O 880.796 1.88048 1.92072 0
M  V30 9392 C 879.067 3.5727 0.0964302 0
M  V30 9393 S 880.626 4.35041 0.573117 0
M  V30 9394 H 877.444 0.710795 -0.0170735 0
M  V30 9395 H 880.046 1.81625 -0.723362 0
M  V30 9396 H 878.75 4.01124 -0.86762 0
M  V30 9397 H 878.281 3.84511 0.83156 0
M  V30 9398 H 880.296 4.6099 1.83583 0
M  V30 9399 N 879.47 0.276058 1.55163 0
M  V30 9400 C 880.42 -0.625549 2.19251 0
M  V30 9401 C 881.404 -1.11769 1.15744 0
M  V30 9402 O 882.596 -1.0626 1.41555 0
M  V30 9403 C 879.725 -1.80879 2.91784 0
M  V30 9404 C 878.811 -1.33379 4.0258 0
M  V30 9405 N 879.202 -0.575002 5.02521 0
M  V30 9406 C 877.5 -1.61666 4.15668 0
M  V30 9407 C 878.201 -0.325164 5.8079 0
M  V30 9408 N 877.177 -0.897851 5.36134 0
M  V30 9409 H 880.979 -0.0379943 2.93875 0
M  V30 9410 H 878.493 0.079661 1.62205 0
M  V30 9411 H 880.49 -2.466 3.36146 0
M  V30 9412 H 879.15 -2.40028 2.1867 0
M  V30 9413 H 880.161 -0.222256 5.17423 0
M  V30 9414 H 876.838 -2.21745 3.53745 0
M  V30 9415 H 878.228 0.282598 6.71305 0
M  V30 9416 N 880.948 -1.576 0.00335426 0
M  V30 9417 C 882.173 -1.95398 -0.695311 0
M  V30 9418 C 882.598 -0.878476 -1.66326 0
M  V30 9419 O 881.956 0.163086 -1.80565 0
M  V30 9420 C 882.004 -3.32293 -1.40049 0
M  V30 9421 O 881.108 -3.26834 -2.51502 0
M  V30 9422 H 880.449 -0.637796 -0.184694 0
M  V30 9423 H 882.979 -2.04519 0.057543 0
M  V30 9424 H 882.989 -3.67936 -1.76316 0
M  V30 9425 H 881.664 -4.10123 -0.690803 0
M  V30 9426 H 880.241 -3.02872 -2.17539 0
M  V30 9427 N 882.426 0.269451 -1.5528 0
M  V30 9428 C 883.654 1.01872 -1.80082 0
M  V30 9429 C 884.069 1.79802 -0.575917 0
M  V30 9430 O 883.426 1.76735 0.455081 0
M  V30 9431 C 883.477 1.9745 -3.02813 0
M  V30 9432 O 883.198 1.22677 -4.20573 0
M  V30 9433 C 884.699 2.8416 -3.40247 0
M  V30 9434 H 881.919 0.300781 -0.59981 0
M  V30 9435 H 884.463 0.29916 -2.023 0
M  V30 9436 H 882.618 2.64864 -2.82712 0
M  V30 9437 H 883.032 1.87129 -4.89982 0
M  V30 9438 H 884.506 3.47014 -4.29284 0
M  V30 9439 H 884.983 3.54113 -2.59809 0
M  V30 9440 H 885.589 2.22232 -3.6262 0
M  V30 9441 N 883.904 1.48273 0.534124 0
M  V30 9442 C 885.152 1.55771 1.28762 0
M  V30 9443 C 885.473 0.231575 1.9362 0
M  V30 9444 O 884.743 -0.746533 1.81118 0
M  V30 9445 H 883.323 0.573851 0.47823 0
M  V30 9446 H 885.985 1.84712 0.621888 0
M  V30 9447 H 885.081 2.33657 2.06908 0
M  V30 9448 N 885.382 -0.782676 1.36792 0
M  V30 9449 C 886.631 -1.53605 1.30723 0
M  V30 9450 C 886.944 -1.95294 -0.109296 0
M  V30 9451 O 888.15 -2.69921 -0.292398 0
M  V30 9452 C 886.606 -2.77321 2.29393 0
M  V30 9453 C 886.214 -2.42774 3.76517 0
M  V30 9454 C 887.958 -3.55289 2.32314 0
M  V30 9455 C 885.865 -3.62926 4.66947 0
M  V30 9456 H 884.795 -0.576646 0.485794 0
M  V30 9457 H 887.446 -0.858255 1.62192 0
M  V30 9458 H 885.828 -3.46934 1.90927 0
M  V30 9459 H 887.002 -1.81014 4.23758 0
M  V30 9460 H 885.317 -1.78002 3.76436 0
M  V30 9461 H 887.914 -4.44573 2.97083 0
M  V30 9462 H 888.257 -3.94361 1.3336 0
M  V30 9463 H 888.79 -2.92662 2.69432 0
M  V30 9464 H 885.529 -3.28944 5.66989 0
M  V30 9465 H 885.049 -4.23828 4.24418 0
M  V30 9466 H 886.728 -4.29873 4.83548 0
M  V30 9467 N 886.86 -1.21182 -1.00761 0
M  V30 9468 C 888.271 -1.02652 -1.55947 0
M  V30 9469 C 888.622 0.414466 -1.91772 0
M  V30 9470 O 887.747 1.29727 -1.73204 0
M  V30 9471 C 888.342 -1.85713 -2.83366 0
M  V30 9472 C 886.901 -1.71523 -3.35048 0
M  V30 9473 C 886.048 -1.83087 -2.08265 0
M  V30 9474 H 888.999 -1.35242 -0.830379 0
M  V30 9475 H 889.02 -1.36583 -3.55141 0
M  V30 9476 H 888.532 -2.90584 -2.5726 0
M  V30 9477 H 886.633 -0.693257 -3.66094 0
M  V30 9478 H 886.746 -2.53333 -4.06644 0
M  V30 9479 H 885.11 -1.26367 -2.21141 0
M  V30 9480 H 885.893 -2.8946 -1.84575 0
M  V30 9481 N 888.338 1.20213 -1.01915 0
M  V30 9482 C 889.615 1.85348 -0.62495 0
M  V30 9483 C 889.995 1.91101 0.896854 0
M  V30 9484 O 889.343 1.42075 1.78961 0
M  V30 9485 C 889.553 3.24849 -1.27571 0
M  V30 9486 C 890.901 4.01107 -1.39277 0
M  V30 9487 O 891.925 3.34211 -1.23212 0
M  V30 9488 O 890.784 5.20914 -1.6526 0
M  V30 9489 H 887.878 0.798303 -0.215965 0
M  V30 9490 H 890.424 1.27782 -1.11669 0
M  V30 9491 H 889.196 3.1544 -2.31545 0
M  V30 9492 H 888.819 3.90049 -0.77122 0
M  V30 9493 N 889.816 0.795718 1.36037 0
M  V30 9494 C 890.779 0.204318 2.28287 0
M  V30 9495 C 891.779 -0.602017 1.49105 0
M  V30 9496 O 892.969 -0.422089 1.69009 0
M  V30 9497 C 890.101 -0.716431 3.33287 0
M  V30 9498 H 891.294 1.01781 2.821 0
M  V30 9499 H 888.847 0.565588 1.45708 0
M  V30 9500 H 889.582 -1.55403 2.84641 0
M  V30 9501 H 889.367 -0.140096 3.9185 0
M  V30 9502 H 890.857 -1.12488 4.02164 0
M  V30 9503 N 891.294 -1.47756 0.548274 0
M  V30 9504 C 892.519 -2.07387 0.023475 0
M  V30 9505 C 892.944 -1.39956 -1.25674 0
M  V30 9506 O 892.302 -0.471543 -1.7506 0
M  V30 9507 C 892.35 -3.60224 -0.164669 0
M  V30 9508 O 891.454 -3.93653 -1.22928 0
M  V30 9509 H 890.795 -0.662312 0.0473156 0
M  V30 9510 H 893.325 -1.89905 0.761409 0
M  V30 9511 H 893.335 -4.06211 -0.38166 0
M  V30 9512 H 892.01 -4.08702 0.770425 0
M  V30 9513 H 890.587 -3.59422 -0.993495 0
M  V30 9514 N 892.772 -0.284283 -1.55015 0
M  V30 9515 C 894.021 0.33055 -1.98973 0
M  V30 9516 C 894.334 1.56284 -1.17621 0
M  V30 9517 O 895.54 2.2512 -1.51767 0
M  V30 9518 C 893.996 0.639457 -3.54174 0
M  V30 9519 C 893.604 -0.573543 -4.44313 0
M  V30 9520 C 895.348 1.21641 -4.06699 0
M  V30 9521 C 893.255 -0.238715 -5.90918 0
M  V30 9522 H 892.185 0.127285 -0.743179 0
M  V30 9523 H 894.836 -0.390372 -1.793 0
M  V30 9524 H 893.218 1.41953 -3.69683 0
M  V30 9525 H 894.392 -1.3502 -4.40575 0
M  V30 9526 H 892.707 -1.06797 -4.02472 0
M  V30 9527 H 895.304 1.48088 -5.13784 0
M  V30 9528 H 895.647 2.15328 -3.56286 0
M  V30 9529 H 896.18 0.498422 -3.94665 0
M  V30 9530 H 892.919 -1.1437 -6.45445 0
M  V30 9531 H 892.439 0.500997 -5.97704 0
M  V30 9532 H 894.118 0.165774 -6.46788 0
M  V30 9533 N 894.251 1.57596 -0.0117121 0
M  V30 9534 C 895.476 1.95764 0.684938 0
M  V30 9535 C 895.901 0.887285 1.65858 0
M  V30 9536 O 895.259 -0.153508 1.80649 0
M  V30 9537 C 895.307 3.33031 1.38285 0
M  V30 9538 O 894.411 3.28163 2.49765 0
M  V30 9539 H 893.752 0.638767 0.181309 0
M  V30 9540 H 896.282 2.04486 -0.0683883 0
M  V30 9541 H 896.292 3.68866 1.74362 0
M  V30 9542 H 894.967 4.10483 0.669043 0
M  V30 9543 H 893.544 3.04021 2.15929 0
M  V30 9544 N 895.729 -0.261212 1.5542 0
M  V30 9545 C 896.975 -0.988533 1.77763 0
M  V30 9546 C 897.33 -1.83504 0.578286 0
M  V30 9547 O 896.623 -1.8674 -0.428808 0
M  V30 9548 C 896.817 -1.89395 3.03091 0
M  V30 9549 C 896.646 -1.13658 4.351 0
M  V30 9550 C 895.416 -0.847467 4.98143 0
M  V30 9551 C 897.614 -0.52118 5.11652 0
M  V30 9552 N 895.596 -0.0645324 6.13866 0
M  V30 9553 C 896.967 0.127016 6.1987 0
M  V30 9554 C 899.022 -0.430206 4.96038 0
M  V30 9555 C 897.725 0.857433 7.14171 0
M  V30 9556 C 899.751 0.286645 5.90705 0
M  V30 9557 C 899.113 0.923534 6.9832 0
M  V30 9558 H 895.212 -0.343317 0.702608 0
M  V30 9559 H 897.796 -0.263035 1.92915 0
M  V30 9560 H 895.967 -2.5916 2.89293 0
M  V30 9561 H 897.699 -2.55576 3.13788 0
M  V30 9562 H 894.454 -1.15569 4.59283 0
M  V30 9563 H 894.878 0.31461 6.76269 0
M  V30 9564 H 899.52 -0.908278 4.12929 0
M  V30 9565 H 897.238 1.34715 7.96792 0
M  V30 9566 H 900.824 0.357511 5.80701 0
M  V30 9567 H 899.704 1.46939 7.70311 0
M  V30 9568 N 897.207 -1.48554 -0.526253 0
M  V30 9569 C 898.453 -1.56994 -1.28378 0
M  V30 9570 C 898.786 -0.244701 -1.92652 0
M  V30 9571 O 898.061 0.749636 -1.79473 0
M  V30 9572 C 898.344 -2.71092 -2.37026 0
M  V30 9573 C 898.197 -4.13331 -1.77418 0
M  V30 9574 C 899.516 -2.80934 -3.38769 0
M  V30 9575 H 896.635 -0.571466 -0.465398 0
M  V30 9576 H 899.277 -1.80742 -0.585861 0
M  V30 9577 H 897.427 -2.50973 -2.96555 0
M  V30 9578 H 899.099 -4.44899 -1.21912 0
M  V30 9579 H 897.342 -4.20158 -1.07936 0
M  V30 9580 H 898.013 -4.88994 -2.56104 0
M  V30 9581 H 900.489 -2.9917 -2.892 0
M  V30 9582 H 899.365 -3.62489 -4.12181 0
M  V30 9583 H 899.626 -1.89244 -3.99549 0
M  V30 9584 N 898.685 0.775411 -1.37205 0
M  V30 9585 C 899.934 1.52909 -1.31536 0
M  V30 9586 C 900.247 1.9535 0.0989374 0
M  V30 9587 O 901.453 2.70072 0.278079 0
M  V30 9588 C 899.909 2.761 -2.30861 0
M  V30 9589 C 899.517 2.40773 -3.77799 0
M  V30 9590 C 901.261 3.54052 -2.34195 0
M  V30 9591 C 899.168 3.60444 -4.68865 0
M  V30 9592 H 898.098 0.574061 -0.488845 0
M  V30 9593 H 900.749 0.849642 -1.62645 0
M  V30 9594 H 899.131 3.45916 -1.92764 0
M  V30 9595 H 900.305 1.78764 -4.24712 0
M  V30 9596 H 898.62 1.76004 -3.77375 0
M  V30 9597 H 901.217 4.42992 -2.99437 0
M  V30 9598 H 901.56 3.93649 -1.35449 0
M  V30 9599 H 902.093 2.91229 -2.7098 0
M  V30 9600 H 898.832 3.25932 -5.68725 0
M  V30 9601 H 898.352 4.21571 -4.26659 0
M  V30 9602 H 900.031 4.27302 -4.85821 0
M  V30 9603 N 900.163 1.21714 1.00117 0
M  V30 9604 C 901.574 1.03477 1.55401 0
M  V30 9605 C 901.925 -0.40429 1.91989 0
M  V30 9606 O 901.05 -1.28807 1.7389 0
M  V30 9607 C 901.645 1.87213 2.82377 0
M  V30 9608 C 900.204 1.73297 3.34133 0
M  V30 9609 C 899.351 1.84189 2.07291 0
M  V30 9610 H 902.302 1.3568 0.823195 0
M  V30 9611 H 902.323 1.38465 3.54412 0
M  V30 9612 H 901.835 2.91944 2.55715 0
M  V30 9613 H 899.936 0.712662 3.65721 0
M  V30 9614 H 900.049 2.55486 4.05294 0
M  V30 9615 H 898.413 1.27538 2.20468 0
M  V30 9616 H 899.196 2.90435 1.83037 0
M  V30 9617 N 901.641 -1.19671 1.02551 0
M  V30 9618 C 902.889 -1.88894 0.71858 0
M  V30 9619 C 903.21 -1.79797 -0.754856 0
M  V30 9620 O 902.48 -1.20621 -1.54362 0
M  V30 9621 H 901.06 -0.699244 0.262806 0
M  V30 9622 H 903.722 -1.45298 1.29902 0
M  V30 9623 H 902.818 -2.95309 1.00989 0
M  V30 9624 N 903.119 -0.802921 -1.35613 0
M  V30 9625 C 904.067 -0.198783 -2.31749 0
M  V30 9626 C 905.061 0.649416 -1.56458 0
M  V30 9627 O 906.267 0.542989 -1.71615 0
M  V30 9628 H 902.642 -0.0455177 -0.750621 0
M  V30 9629 H 904.613 -1.02479 -2.80251 0
M  V30 9630 C 903.362 0.641066 -3.41739 0
M  V30 9631 H 902.685 -0.00226244 -3.998 0
M  V30 9632 H 904.125 1.03022 -4.11294 0
M  V30 9633 C 902.584 1.80505 -2.84464 0
M  V30 9634 O 903.114 2.90235 -2.77717 0
M  V30 9635 N 901.32 1.61542 -2.41563 0
M  V30 9636 H 900.867 0.722863 -2.4725 0
M  V30 9637 H 900.825 2.39581 -2.03589 0
M  V30 9638 N 904.597 1.47463 -0.556102 0
M  V30 9639 C 905.545 2.31692 0.205299 0
M  V30 9640 C 906.539 1.42857 0.910394 0
M  V30 9641 O 907.745 1.59628 0.831806 0
M  V30 9642 H 904.12 0.747172 0.0850775 0
M  V30 9643 H 906.091 2.93758 -0.524305 0
M  V30 9644 C 904.84 3.25487 1.22283 0
M  V30 9645 H 904.163 3.93806 0.689697 0
M  V30 9646 H 905.603 3.87257 1.7265 0
M  V30 9647 C 904.062 2.48931 2.27013 0
M  V30 9648 O 904.592 2.23296 3.33919 0
M  V30 9649 N 902.798 2.0996 2.00911 0
M  V30 9650 H 902.345 2.31008 1.13986 0
M  V30 9651 H 902.303 1.59053 2.712 0
M  V30 9652 N 906.075 0.2925 1.54862 0
M  V30 9653 C 907.321 -0.319736 2.00264 0
M  V30 9654 C 907.654 -1.5419 1.18064 0
M  V30 9655 O 906.929 -1.92821 0.254983 0
M  V30 9656 C 907.212 -0.684753 3.5353 0
M  V30 9657 C 907.065 0.545961 4.46474 0
M  V30 9658 C 908.384 -1.51456 4.13218 0
M  V30 9659 H 905.503 -0.11474 0.728014 0
M  V30 9660 H 908.145 0.402907 1.85679 0
M  V30 9661 H 906.295 -1.30044 3.66089 0
M  V30 9662 H 907.967 1.18448 4.45834 0
M  V30 9663 H 906.21 1.1808 4.1742 0
M  V30 9664 H 906.881 0.246544 5.51449 0
M  V30 9665 H 909.357 -0.994421 4.04043 0
M  V30 9666 H 908.233 -1.73875 5.20633 0
M  V30 9667 H 908.494 -2.5011 3.64551 0
M  V30 9668 N 907.553 -1.57587 0.0200696 0
M  V30 9669 C 908.483 -2.12702 -0.963333 0
M  V30 9670 C 909.464 -1.04094 -1.34531 0
M  V30 9671 O 910.649 -1.31881 -1.42552 0
M  V30 9672 C 907.779 -2.64673 -2.24868 0
M  V30 9673 C 906.733 -3.77987 -2.00772 0
M  V30 9674 C 906.059 -4.16351 -3.35494 0
M  V30 9675 C 907.359 -5.0444 -1.35416 0
M  V30 9676 H 909.053 -2.95121 -0.504363 0
M  V30 9677 H 906.599 -1.41966 -0.24116 0
M  V30 9678 H 908.552 -3.01862 -2.94036 0
M  V30 9679 H 907.276 -1.79403 -2.72914 0
M  V30 9680 H 905.935 -3.41223 -1.34025 0
M  V30 9681 H 905.583 -3.28075 -3.81282 0
M  V30 9682 H 905.283 -4.92705 -3.20181 0
M  V30 9683 H 906.807 -4.56115 -4.05945 0
M  V30 9684 H 908.221 -5.39273 -1.94571 0
M  V30 9685 H 906.618 -5.85732 -1.30529 0
M  V30 9686 H 907.688 -4.83803 -0.325923 0
M  V30 9687 N 909.032 0.252966 -1.55557 0
M  V30 9688 C 910.262 0.998115 -1.8089 0
M  V30 9689 C 910.67 1.79679 -0.592623 0
M  V30 9690 O 910.013 1.78151 0.448093 0
M  V30 9691 C 910.075 1.98878 -2.99479 0
M  V30 9692 C 909.739 1.37761 -4.35742 0
M  V30 9693 C 910.736 0.783142 -5.13968 0
M  V30 9694 C 908.421 1.39879 -4.8243 0
M  V30 9695 C 910.415 0.218004 -6.37027 0
M  V30 9696 C 908.102 0.829801 -6.0544 0
M  V30 9697 C 909.1 0.240426 -6.82577 0
M  V30 9698 O 908.788 -0.319797 -8.03264 0
M  V30 9699 H 908.52 0.29963 -0.605969 0
M  V30 9700 H 911.074 0.282978 -2.03441 0
M  V30 9701 H 909.304 2.74206 -2.72669 0
M  V30 9702 H 910.993 2.59686 -3.11959 0
M  V30 9703 H 911.759 0.759326 -4.79019 0
M  V30 9704 H 907.638 1.84692 -4.22386 0
M  V30 9705 H 911.182 -0.242654 -6.97178 0
M  V30 9706 H 907.079 0.850924 -6.39867 0
M  V30 9707 H 907.847 -0.211078 -8.18228 0
M  V30 9708 N 910.51 1.48831 0.518367 0
M  V30 9709 C 911.442 1.60317 1.63802 0
M  V30 9710 C 912.455 0.486771 1.55352 0
M  V30 9711 O 913.644 0.758111 1.61601 0
M  V30 9712 C 910.744 1.52771 3.02513 0
M  V30 9713 C 909.917 2.79649 3.36326 0
M  V30 9714 C 908.976 2.65396 4.54369 0
M  V30 9715 O 908.002 3.39304 4.57013 0
M  V30 9716 N 909.204 1.75784 5.53245 0
M  V30 9717 H 911.969 2.56878 1.54383 0
M  V30 9718 H 909.53 1.45701 0.705889 0
M  V30 9719 H 911.522 1.40914 3.79375 0
M  V30 9720 H 910.092 0.641381 3.05949 0
M  V30 9721 H 909.312 3.05985 2.48529 0
M  V30 9722 H 910.6 3.63799 3.55707 0
M  V30 9723 H 909.998 1.14961 5.53896 0
M  V30 9724 H 908.555 1.69859 6.29278 0
M  V30 9725 N 911.988 -0.768124 1.37614 0
M  V30 9726 C 913.213 -1.56239 1.36397 0
M  V30 9727 C 913.638 -1.8804 -0.0475839 0
M  V30 9728 O 912.996 -1.495 -1.02564 0
M  V30 9729 C 913.044 -2.84716 2.21289 0
M  V30 9730 O 912.148 -3.79249 1.62001 0
M  V30 9731 H 911.489 -0.473119 0.465891 0
M  V30 9732 H 914.019 -0.950415 1.81186 0
M  V30 9733 H 914.029 -3.33784 2.34632 0
M  V30 9734 H 912.704 -2.60899 3.2389 0
M  V30 9735 H 911.281 -3.37904 1.57719 0
M  V30 9736 N 913.466 -1.22244 -0.994698 0
M  V30 9737 C 914.691 -1.07299 -1.77487 0
M  V30 9738 C 915.116 0.372302 -1.84379 0
M  V30 9739 O 914.474 1.2689 -1.29494 0
M  V30 9740 C 914.522 -1.68675 -3.18718 0
M  V30 9741 O 913.626 -0.939202 -4.01563 0
M  V30 9742 H 912.967 -0.376979 -0.546611 0
M  V30 9743 H 915.497 -1.62003 -1.24965 0
M  V30 9744 H 915.507 -1.73324 -3.69354 0
M  V30 9745 H 914.182 -2.73849 -3.13017 0
M  V30 9746 H 912.759 -0.968583 -3.60101 0
M  V30 9747 N 914.944 1.19125 -1.03184 0
M  V30 9748 C 916.36 1.40909 -0.749447 0
M  V30 9749 C 916.56 1.9022 0.664729 0
M  V30 9750 O 915.616 2.08085 1.43028 0
M  V30 9751 C 916.929 2.41761 -1.78807 0
M  V30 9752 C 918.477 2.55503 -1.80796 0
M  V30 9753 C 918.952 3.59612 -2.83626 0
M  V30 9754 N 920.443 3.6711 -2.82461 0
M  V30 9755 C 921.178 4.47366 -3.5868 0
M  V30 9756 N 920.674 5.31302 -4.44623 0
M  V30 9757 N 922.467 4.42044 -3.47208 0
M  V30 9758 H 914.618 0.854399 -1.94458 0
M  V30 9759 H 916.881 0.437753 -0.840878 0
M  V30 9760 H 916.587 2.12559 -2.80199 0
M  V30 9761 H 916.461 3.40981 -1.61283 0
M  V30 9762 H 918.848 2.84027 -0.800803 0
M  V30 9763 H 918.929 1.56427 -2.02396 0
M  V30 9764 H 918.573 3.3183 -3.84515 0
M  V30 9765 H 918.503 4.58345 -2.59283 0
M  V30 9766 H 920.994 3.07166 -2.2013 0
M  V30 9767 H 921.307 5.89667 -4.99512 0
M  V30 9768 H 919.652 5.30753 -4.48694 0
M  V30 9769 H 922.843 3.75513 -2.79477 0
M  V30 9770 H 923.016 5.0435 -4.06859 0
M  V30 9771 N 916.422 0.810101 1.35185 0
M  V30 9772 C 917.699 0.315235 1.93043 0
M  V30 9773 C 918.079 -1.19567 1.73974 0
M  V30 9774 O 917.427 -1.99682 1.11083 0
M  V30 9775 C 917.637 0.730492 3.41269 0
M  V30 9776 C 918.985 0.721985 4.18417 0
M  V30 9777 O 920.009 0.672258 3.49799 0
M  V30 9778 O 918.868 0.783535 5.40854 0
M  V30 9779 H 915.962 0.0832774 0.822796 0
M  V30 9780 H 918.508 0.894034 1.4424 0
M  V30 9781 H 917.28 1.77169 3.48894 0
M  V30 9782 H 916.903 0.12669 3.97398 0
M  V30 9783 N 917.9 -1.47166 0.563914 0
M  V30 9784 C 918.847 -2.30097 -0.180013 0
M  V30 9785 C 919.817 -1.39473 -0.902019 0
M  V30 9786 O 921.002 -1.68432 -0.896396 0
M  V30 9787 C 918.142 -3.23573 -1.19978 0
M  V30 9788 C 917.255 -4.2929 -0.483149 0
M  V30 9789 C 916.39 -5.0991 -1.48879 0
M  V30 9790 C 915.429 -6.07395 -0.757513 0
M  V30 9791 N 914.566 -6.8095 -1.71031 0
M  V30 9792 H 919.406 -2.93189 0.53329 0
M  V30 9793 H 916.943 -1.4451 0.274814 0
M  V30 9794 H 918.901 -3.76196 -1.80368 0
M  V30 9795 H 917.531 -2.6233 -1.88103 0
M  V30 9796 H 916.583 -3.79671 0.235414 0
M  V30 9797 H 917.895 -4.9872 0.0894075 0
M  V30 9798 H 917.049 -5.66717 -2.16603 0
M  V30 9799 H 915.788 -4.40397 -2.09527 0
M  V30 9800 H 914.793 -5.4976 -0.0663841 0
M  V30 9801 H 916.018 -6.78919 -0.156685 0
M  V30 9802 H 913.964 -6.14162 -2.30524 0
M  V30 9803 H 913.881 -7.46574 -1.19007 0
M  V30 9804 H 915.149 -7.42326 -2.37849 0
M  V30 9805 N 919.378 -0.300708 -1.54705 0
M  V30 9806 C 920.325 0.57552 -2.23509 0
M  V30 9807 C 921.295 1.12979 -1.21758 0
M  V30 9808 O 922.48 1.17437 -1.50377 0
M  V30 9809 C 919.62 1.74167 -2.97926 0
M  V30 9810 C 918.733 1.21882 -4.1445 0
M  V30 9811 C 917.868 2.34881 -4.7645 0
M  V30 9812 C 916.907 1.79729 -5.85119 0
M  V30 9813 N 916.044 2.863 -6.41075 0
M  V30 9814 H 920.884 -0.0178257 -2.97995 0
M  V30 9815 H 918.421 -0.0205666 -1.47086 0
M  V30 9816 H 920.379 2.42753 -3.39303 0
M  V30 9817 H 919.009 2.30665 -2.25817 0
M  V30 9818 H 918.061 0.425227 -3.78016 0
M  V30 9819 H 919.373 0.775065 -4.92741 0
M  V30 9820 H 918.527 3.11415 -5.20678 0
M  V30 9821 H 917.266 2.82584 -3.97489 0
M  V30 9822 H 916.271 1.01684 -5.40315 0
M  V30 9823 H 917.496 1.32931 -6.65963 0
M  V30 9824 H 915.442 3.33337 -5.64998 0
M  V30 9825 H 915.359 2.46419 -7.14712 0
M  V30 9826 H 916.627 3.62732 -6.89961 0
M  V30 9827 N 920.856 1.57574 -0.0284266 0
M  V30 9828 C 922.102 1.92056 0.651327 0
M  V30 9829 C 922.435 0.905092 1.71819 0
M  V30 9830 O 921.71 -0.0722703 1.94366 0
M  V30 9831 C 921.993 3.37021 1.26841 0
M  V30 9832 C 921.846 4.49304 0.211157 0
M  V30 9833 C 923.165 3.81936 2.18662 0
M  V30 9834 H 920.284 0.698428 0.235304 0
M  V30 9835 H 922.926 1.89807 -0.0855435 0
M  V30 9836 H 921.076 3.39068 1.89644 0
M  V30 9837 H 922.748 4.5939 -0.419379 0
M  V30 9838 H 920.991 4.31317 -0.463445 0
M  V30 9839 H 921.662 5.47764 0.682518 0
M  V30 9840 H 924.138 3.8162 1.65847 0
M  V30 9841 H 923.014 4.84064 2.58792 0
M  V30 9842 H 923.275 3.174 3.07749 0
M  V30 9843 N 922.334 -0.244713 1.55689 0
M  V30 9844 C 923.264 -1.30667 1.93516 0
M  V30 9845 C 924.245 -1.50094 0.800371 0
M  V30 9846 O 925.43 -1.62665 1.06083 0
M  V30 9847 C 922.56 -2.66101 2.23176 0
M  V30 9848 C 921.514 -2.61366 3.38927 0
M  V30 9849 C 920.84 -4.00616 3.54134 0
M  V30 9850 C 922.14 -2.18161 4.74555 0
M  V30 9851 H 923.834 -0.992546 2.82469 0
M  V30 9852 H 921.38 -0.476018 1.35905 0
M  V30 9853 H 923.333 -3.4053 2.48228 0
M  V30 9854 H 922.057 -2.99154 1.31051 0
M  V30 9855 H 920.716 -1.89395 3.13887 0
M  V30 9856 H 920.364 -4.30938 2.59426 0
M  V30 9857 H 920.064 -3.98335 4.31975 0
M  V30 9858 H 921.588 -4.76741 3.8151 0
M  V30 9859 H 923.002 -2.82323 4.98965 0
M  V30 9860 H 921.399 -2.26988 5.55515 0
M  V30 9861 H 922.469 -1.13333 4.7147 0
M  V30 9862 N 923.813 -1.49104 -0.510467 0
M  V30 9863 C 924.761 -1.65547 -1.63392 0
M  V30 9864 C 925.755 -0.521522 -1.61172 0
M  V30 9865 O 926.961 -0.700865 -1.65795 0
M  V30 9866 H 923.336 -0.521843 -0.541464 0
M  V30 9867 H 925.307 -2.59864 -1.46673 0
M  V30 9868 C 924.056 -1.73051 -3.01577 0
M  V30 9869 H 923.379 -2.59676 -3.03987 0
M  V30 9870 H 924.819 -1.88594 -3.79748 0
M  V30 9871 C 923.278 -0.47328 -3.33559 0
M  V30 9872 O 923.808 0.405239 -3.99651 0
M  V30 9873 N 922.014 -0.339074 -2.88615 0
M  V30 9874 H 921.561 -1.05497 -2.35007 0
M  V30 9875 H 921.519 0.501061 -3.10382 0
M  V30 9876 N 925.291 0.760815 -1.38019 0
M  V30 9877 C 926.239 1.89578 -1.34771 0
M  V30 9878 C 927.233 1.67766 -0.234714 0
M  V30 9879 O 928.439 1.75423 -0.403352 0
M  V30 9880 H 924.814 0.623608 -0.420258 0
M  V30 9881 H 926.785 1.89434 -2.30558 0
M  V30 9882 C 925.534 3.26976 -1.18246 0
M  V30 9883 H 924.857 3.44342 -2.03147 0
M  V30 9884 H 926.297 4.06657 -1.20026 0
M  V30 9885 C 924.756 3.36717 0.111145 0
M  V30 9886 O 925.286 3.86607 1.09079 0
M  V30 9887 N 923.492 2.90128 0.165542 0
M  V30 9888 H 923.039 2.49719 -0.632328 0
M  V30 9889 H 922.997 2.97026 1.03067 0
M  V30 9890 N 926.769 1.22769 0.988202 0
M  V30 9891 C 928.017 1.05301 1.725 0
M  V30 9892 C 928.338 -0.412103 1.90596 0
M  V30 9893 O 927.608 -1.29606 1.46898 0
M  V30 9894 H 926.188 0.386658 0.639144 0
M  V30 9895 H 928.85 1.54359 1.18993 0
M  V30 9896 H 927.946 1.53465 2.71763 0
M  V30 9897 N 928.247 -1.18576 1.03814 0
M  V30 9898 C 929.475 -1.92437 0.759966 0
M  V30 9899 C 929.89 -1.76031 -0.682526 0
M  V30 9900 O 929.247 -1.08829 -1.46501 0
M  V30 9901 C 929.298 -3.43923 1.11351 0
M  V30 9902 O 929.019 -3.5981 2.49937 0
M  V30 9903 C 930.52 -4.34888 0.859472 0
M  V30 9904 H 927.74 -0.610998 0.277349 0
M  V30 9905 H 930.284 -1.50448 1.38512 0
M  V30 9906 H 928.439 -3.83711 0.533362 0
M  V30 9907 H 928.853 -4.53569 2.63393 0
M  V30 9908 H 930.327 -5.39744 1.15672 0
M  V30 9909 H 930.804 -4.38717 -0.205839 0
M  V30 9910 H 931.41 -4.00795 1.42279 0
M  V30 9911 N 929.725 -0.817259 -1.34754 0
M  V30 9912 C 930.655 -0.249769 -2.3216 0
M  V30 9913 C 931.636 0.630663 -1.57977 0
M  V30 9914 O 932.821 0.558719 -1.85989 0
M  V30 9915 C 929.951 0.593825 -3.42186 0
M  V30 9916 C 928.905 -0.188997 -4.27583 0
M  V30 9917 C 928.231 0.776979 -5.29025 0
M  V30 9918 C 929.531 -1.39401 -5.03354 0
M  V30 9919 H 931.225 -1.06359 -2.79872 0
M  V30 9920 H 928.771 -0.512894 -1.34556 0
M  V30 9921 H 930.724 1.00097 -4.09339 0
M  V30 9922 H 929.448 1.44064 -2.93109 0
M  V30 9923 H 928.107 -0.577445 -3.62024 0
M  V30 9924 H 927.755 1.61959 -4.76212 0
M  V30 9925 H 927.455 0.257448 -5.87036 0
M  V30 9926 H 928.979 1.18211 -5.99048 0
M  V30 9927 H 930.393 -1.06117 -5.63393 0
M  V30 9928 H 928.79 -1.84878 -5.70912 0
M  V30 9929 H 929.86 -2.17515 -4.33377 0
M  V30 9930 N 931.203 1.46865 -0.571711 0
M  V30 9931 C 932.619 1.57897 -0.23255 0
M  V30 9932 C 932.819 1.56836 1.26509 0
M  V30 9933 O 931.875 1.47947 2.04617 0
M  V30 9934 C 933.188 2.87778 -0.872036 0
M  V30 9935 C 934.736 3.01389 -0.844605 0
M  V30 9936 C 935.211 4.33991 -1.46343 0
M  V30 9937 N 936.702 4.40662 -1.42727 0
M  V30 9938 C 937.437 5.41858 -1.87557 0
M  V30 9939 N 936.933 6.49787 -2.4031 0
M  V30 9940 N 938.726 5.32992 -1.7854 0
M  V30 9941 H 930.877 1.45798 -1.54457 0
M  V30 9942 H 933.14 0.694785 -0.644964 0
M  V30 9943 H 932.846 2.94332 -1.92513 0
M  V30 9944 H 932.72 3.75345 -0.373677 0
M  V30 9945 H 935.107 2.94423 0.19984 0
M  V30 9946 H 935.188 2.15327 -1.38087 0
M  V30 9947 H 934.832 4.41714 -2.50701 0
M  V30 9948 H 934.762 5.18809 -0.902479 0
M  V30 9949 H 937.253 3.63263 -1.04155 0
M  V30 9950 H 937.566 7.23199 -2.72403 0
M  V30 9951 H 935.911 6.50637 -2.44329 0
M  V30 9952 H 939.102 4.47575 -1.37093 0
M  V30 9953 H 939.275 6.11716 -2.13794 0
M  V30 9954 N 932.681 0.308908 1.54543 0
M  V30 9955 C 933.93 -0.298854 1.99474 0
M  V30 9956 C 934.243 -1.54393 1.20093 0
M  V30 9957 O 935.449 -2.22677 1.55329 0
M  V30 9958 C 933.905 -0.58303 3.55146 0
M  V30 9959 C 933.513 0.644157 4.43345 0
M  V30 9960 C 935.257 -1.15155 4.08582 0
M  V30 9961 C 933.164 0.332694 5.90463 0
M  V30 9962 H 932.094 -0.115445 0.74511 0
M  V30 9963 H 934.745 0.418848 1.78656 0
M  V30 9964 H 933.127 -1.36053 3.71894 0
M  V30 9965 H 934.301 1.42012 4.38371 0
M  V30 9966 H 932.616 1.13186 4.00722 0
M  V30 9967 H 935.213 -1.39896 5.16075 0
M  V30 9968 H 935.556 -2.09632 3.59667 0
M  V30 9969 H 936.089 -0.435571 3.95408 0
M  V30 9970 H 932.828 1.24624 6.43544 0
M  V30 9971 H 932.348 -0.405844 5.98425 0
M  V30 9972 H 934.027 -0.0628545 6.46969 0
M  V30 9973 N 934.159 -1.57557 0.0367827 0
M  V30 9974 C 935.089 -2.13712 -0.940719 0
M  V30 9975 C 936.07 -1.05515 -1.33419 0
M  V30 9976 O 937.255 -1.33385 -1.41146 0
M  V30 9977 C 934.385 -2.67043 -2.22048 0
M  V30 9978 C 933.339 -3.80096 -1.96752 0
M  V30 9979 C 932.665 -4.19886 -3.31059 0
M  V30 9980 C 933.965 -5.05848 -1.30058 0
M  V30 9981 H 935.659 -2.9564 -0.473033 0
M  V30 9982 H 933.205 -1.42214 -0.226089 0
M  V30 9983 H 935.158 -3.04964 -2.90818 0
M  V30 9984 H 933.882 -1.82287 -2.70996 0
M  V30 9985 H 932.541 -3.42625 -1.30398 0
M  V30 9986 H 932.189 -3.32101 -3.77781 0
M  V30 9987 H 931.889 -4.96073 -3.14937 0
M  V30 9988 H 933.413 -4.60395 -4.01084 0
M  V30 9989 H 934.827 -5.41306 -1.8884 0
M  V30 9990 H 933.224 -5.87084 -1.24309 0
M  V30 9991 H 934.294 -4.84122 -0.274591 0
M  V30 9992 N 935.637 0.236453 -1.55816 0
M  V30 9993 C 936.569 1.31602 -1.87653 0
M  V30 9994 C 937.582 1.43782 -0.763584 0
M  V30 9995 O 938.771 1.44945 -1.04178 0
M  V30 9996 C 935.871 2.69342 -2.05689 0
M  V30 9997 C 935.044 2.79298 -3.36617 0
M  V30 9998 C 934.103 3.97952 -3.44268 0
M  V30 9999 O 933.129 3.86989 -4.17406 0
M  V30 10000 N 934.331 5.11594 -2.74321 0
M  V30 10001 H 937.096 1.04623 -2.80845 0
M  V30 10002 H 934.657 0.426534 -1.5618 0
M  V30 10003 H 936.649 3.47074 -2.08138 0
M  V30 10004 H 935.219 2.88984 -1.19192 0
M  V30 10005 H 934.439 1.8816 -3.46395 0
M  V30 10006 H 935.727 2.82908 -4.22895 0
M  V30 10007 H 935.125 5.23394 -2.14651 0
M  V30 10008 H 933.682 5.87422 -2.8245 0
M  V30 10009 N 937.115 1.49373 0.502552 0
M  V30 10010 C 938.361 1.59016 1.25864 0
M  V30 10011 C 938.694 0.27532 1.92238 0
M  V30 10012 O 937.969 -0.720988 1.80643 0
M  V30 10013 C 938.252 2.74828 2.32683 0
M  V30 10014 C 938.105 4.16102 1.7082 0
M  V30 10015 C 939.424 2.86288 3.34256 0
M  V30 10016 H 936.543 0.578798 0.456248 0
M  V30 10017 H 939.185 1.81651 0.557032 0
M  V30 10018 H 937.335 2.5566 2.92524 0
M  V30 10019 H 939.007 4.46782 1.14818 0
M  V30 10020 H 937.25 4.21822 1.01238 0
M  V30 10021 H 937.921 4.93006 2.48292 0
M  V30 10022 H 940.397 3.03733 2.84404 0
M  V30 10023 H 939.273 3.69001 4.06362 0
M  V30 10024 H 939.534 1.95576 3.96488 0
M  V30 10025 N 938.594 -0.753485 1.38421 0
M  V30 10026 C 939.822 -1.54272 1.37868 0
M  V30 10027 C 940.237 -1.88774 -0.0315155 0
M  V30 10028 O 939.594 -1.52785 -0.998148 0
M  V30 10029 C 939.645 -2.84179 2.23438 0
M  V30 10030 O 939.366 -2.51149 3.58965 0
M  V30 10031 C 940.867 -3.78316 2.31067 0
M  V30 10032 H 938.087 -0.47735 0.47157 0
M  V30 10033 H 940.631 -0.932509 1.82001 0
M  V30 10034 H 938.786 -3.41577 1.82767 0
M  V30 10035 H 939.2 -3.34466 4.04021 0
M  V30 10036 H 940.674 -4.66418 2.95226 0
M  V30 10037 H 941.151 -4.18757 1.32436 0
M  V30 10038 H 941.757 -3.26842 2.72129 0
M  V30 10039 N 940.072 -1.23292 -0.981677 0
M  V30 10040 C 941.483 -1.05936 -1.53735 0
M  V30 10041 C 941.834 0.373695 -1.92608 0
M  V30 10042 O 940.959 1.26024 -1.75917 0
M  V30 10043 C 941.554 -1.91682 -2.79363 0
M  V30 10044 C 940.113 -1.78591 -3.31334 0
M  V30 10045 C 939.26 -1.87463 -2.04335 0
M  V30 10046 H 942.211 -1.36973 -0.801505 0
M  V30 10047 H 942.232 -1.44085 -3.52164 0
M  V30 10048 H 941.744 -2.95975 -2.51039 0
M  V30 10049 H 939.845 -0.770755 -3.64541 0
M  V30 10050 H 939.958 -2.61902 -4.01179 0
M  V30 10051 H 938.322 -1.3103 -2.18411 0
M  V30 10052 H 939.105 -2.9331 -1.78394 0
M  V30 10053 N 941.55 1.18024 -1.04442 0
M  V30 10054 C 942.497 2.21785 -0.638759 0
M  V30 10055 C 943.467 1.62255 0.355312 0
M  V30 10056 O 944.652 1.89176 0.24844 0
M  V30 10057 C 941.792 3.45098 -0.0118002 0
M  V30 10058 C 940.905 4.1895 -1.05379 0
M  V30 10059 C 940.04 5.2973 -0.394951 0
M  V30 10060 C 939.079 5.95359 -1.42178 0
M  V30 10061 N 938.216 6.97668 -0.787635 0
M  V30 10062 H 943.056 2.55839 -1.52808 0
M  V30 10063 H 940.593 1.25681 -0.764378 0
M  V30 10064 H 942.551 4.15564 0.369075 0
M  V30 10065 H 941.181 3.11652 0.84102 0
M  V30 10066 H 940.233 3.47274 -1.55258 0
M  V30 10067 H 941.545 4.63877 -1.83355 0
M  V30 10068 H 940.699 6.06687 0.0399244 0
M  V30 10069 H 939.438 4.85915 0.416867 0
M  V30 10070 H 938.443 5.17139 -1.86675 0
M  V30 10071 H 939.668 6.41255 -2.23536 0
M  V30 10072 H 937.614 6.56 0.00380893 0
M  V30 10073 H 937.531 7.40867 -1.50505 0
M  V30 10074 H 938.799 7.78586 -0.377282 0
M  V30 10075 N 943.028 0.824394 1.34319 0
M  V30 10076 C 944.305 0.335692 1.92698 0
M  V30 10077 C 944.685 -1.17715 1.75232 0
M  V30 10078 O 944.033 -1.98493 1.13194 0
M  V30 10079 C 944.243 0.766647 3.40475 0
M  V30 10080 C 945.591 0.766323 4.17627 0
M  V30 10081 O 946.615 0.709321 3.49066 0
M  V30 10082 O 945.474 0.840856 5.39992 0
M  V30 10083 H 942.568 0.0919996 0.821867 0
M  V30 10084 H 945.114 0.909282 1.43283 0
M  V30 10085 H 943.886 1.80859 3.46995 0
M  V30 10086 H 943.509 0.168833 3.97241 0
M  V30 10087 N 944.506 -1.46559 0.579492 0
M  V30 10088 C 945.438 -2.28383 -0.19337 0
M  V30 10089 C 946.451 -1.38324 -0.858511 0
M  V30 10090 O 947.64 -1.62952 -0.728615 0
M  V30 10091 C 944.74 -3.13262 -1.29306 0
M  V30 10092 C 943.913 -4.31426 -0.720459 0
M  V30 10093 C 942.972 -4.97728 -1.70744 0
M  V30 10094 O 941.998 -5.55423 -1.24476 0
M  V30 10095 N 943.2 -4.94445 -3.04146 0
M  V30 10096 H 945.965 -2.95353 0.508611 0
M  V30 10097 H 943.526 -1.56436 0.417046 0
M  V30 10098 H 945.518 -3.54483 -1.95254 0
M  V30 10099 H 944.088 -2.48388 -1.89795 0
M  V30 10100 H 943.308 -3.94028 0.116398 0
M  V30 10101 H 944.596 -5.07808 -0.31763 0
M  V30 10102 H 943.994 -4.4881 -3.44363 0
M  V30 10103 H 942.551 -5.39616 -3.65592 0
M  V30 10104 N 945.984 -0.3171 -1.54377 0
M  V30 10105 C 947.232 0.286842 -2.00054 0
M  V30 10106 C 947.553 1.53161 -1.20692 0
M  V30 10107 O 946.823 1.93479 -0.307045 0
M  V30 10108 H 945.403 0.108979 -0.739008 0
M  V30 10109 H 948.065 -0.432152 -1.90049 0
M  V30 10110 H 947.161 0.547729 -3.07256 0
M  V30 10111 N 947.462 1.57535 -0.0451378 0
M  V30 10112 C 948.692 1.96476 0.638814 0
M  V30 10113 C 949.1 0.921056 1.65267 0
M  V30 10114 O 948.443 -0.103843 1.83406 0
M  V30 10115 C 948.505 3.31629 1.38788 0
M  V30 10116 C 948.169 4.5391 0.530545 0
M  V30 10117 C 949.166 5.19512 -0.200864 0
M  V30 10118 C 946.851 5.00159 0.463242 0
M  V30 10119 C 948.845 6.29695 -0.988078 0
M  V30 10120 C 946.532 6.10221 -0.327665 0
M  V30 10121 C 947.53 6.74849 -1.05202 0
M  V30 10122 O 947.218 7.82795 -1.82993 0
M  V30 10123 H 946.95 0.651625 0.17989 0
M  V30 10124 H 949.504 2.05126 -0.106031 0
M  V30 10125 H 947.734 3.19516 2.17822 0
M  V30 10126 H 949.423 3.5536 1.96148 0
M  V30 10127 H 950.189 4.84742 -0.158299 0
M  V30 10128 H 946.068 4.49651 1.01663 0
M  V30 10129 H 949.612 6.80072 -1.55397 0
M  V30 10130 H 945.509 6.44428 -0.37189 0
M  V30 10131 H 946.277 7.99542 -1.7514 0
M  V30 10132 N 948.94 -0.228186 1.55939 0
M  V30 10133 C 950.17 -0.969211 1.82455 0
M  V30 10134 C 950.578 -1.78714 0.621133 0
M  V30 10135 O 949.921 -1.78841 -0.419694 0
M  V30 10136 C 949.983 -1.94088 3.02605 0
M  V30 10137 C 949.647 -1.30811 4.37878 0
M  V30 10138 C 950.644 -0.701275 5.15149 0
M  V30 10139 C 948.329 -1.32187 4.84595 0
M  V30 10140 C 950.323 -0.116631 6.37293 0
M  V30 10141 C 948.01 -0.733375 6.06683 0
M  V30 10142 C 949.008 -0.131804 6.82873 0
M  V30 10143 O 948.696 0.447549 8.02653 0
M  V30 10144 H 948.428 -0.289951 0.610659 0
M  V30 10145 H 950.982 -0.250576 2.03866 0
M  V30 10146 H 949.212 -2.69833 2.76996 0
M  V30 10147 H 950.901 -2.5469 3.1605 0
M  V30 10148 H 951.667 -0.683022 4.80166 0
M  V30 10149 H 947.546 -1.77949 4.25271 0
M  V30 10150 H 951.09 0.353539 6.96704 0
M  V30 10151 H 946.987 -0.749019 6.4114 0
M  V30 10152 H 947.755 0.341224 8.17788 0
M  V30 10153 N 950.418 -1.49637 -0.494624 0
M  V30 10154 C 951.834 -1.36541 -0.826361 0
M  V30 10155 C 952.034 -0.403386 -1.97421 0
M  V30 10156 O 951.09 0.162614 -2.51976 0
M  V30 10157 C 952.403 -2.77401 -1.16057 0
M  V30 10158 C 953.951 -2.86148 -1.26841 0
M  V30 10159 C 954.426 -4.27789 -1.63587 0
M  V30 10160 N 955.917 -4.3063 -1.70624 0
M  V30 10161 C 956.652 -5.37198 -2.00514 0
M  V30 10162 N 956.148 -6.54004 -2.28584 0
M  V30 10163 N 957.941 -5.2462 -2.01818 0
M  V30 10164 H 950.092 -2.10776 0.26219 0
M  V30 10165 H 952.355 -0.946419 0.0547235 0
M  V30 10166 H 952.061 -3.49526 -0.390434 0
M  V30 10167 H 951.935 -3.1317 -2.10249 0
M  V30 10168 H 954.322 -2.14256 -2.02925 0
M  V30 10169 H 954.403 -2.53953 -0.30684 0
M  V30 10170 H 954.047 -5.00209 -0.880507 0
M  V30 10171 H 953.977 -4.57453 -2.60854 0
M  V30 10172 H 956.468 -3.46393 -1.51065 0
M  V30 10173 H 956.781 -7.31041 -2.50598 0
M  V30 10174 H 955.126 -6.57219 -2.26027 0
M  V30 10175 H 958.317 -4.32371 -1.79369 0
M  V30 10176 H 958.49 -6.07765 -2.24778 0
M  V30 10177 N 951.896 0.746133 -1.38819 0
M  V30 10178 C 953.136 1.51821 -1.36857 0
M  V30 10179 C 953.5 1.9196 0.0391461 0
M  V30 10180 O 954.701 2.68172 0.183689 0
M  V30 10181 C 952.972 2.73214 -2.3041 0
M  V30 10182 S 954.531 3.62995 -2.46536 0
M  V30 10183 H 951.349 0.51945 -0.485482 0
M  V30 10184 H 953.951 0.875244 -1.74813 0
M  V30 10185 H 952.655 2.41847 -3.31569 0
M  V30 10186 H 952.186 3.42449 -1.9363 0
M  V30 10187 H 954.201 4.66353 -1.69498 0
M  V30 10188 N 953.375 1.23811 0.975125 0
M  V30 10189 C 954.621 1.07495 1.71967 0
M  V30 10190 C 954.954 -0.386451 1.90316 0
M  V30 10191 O 954.229 -1.28591 1.45927 0
M  V30 10192 C 954.512 1.80694 3.11483 0
M  V30 10193 C 954.365 3.3454 3.00671 0
M  V30 10194 C 955.684 1.57367 4.11003 0
M  V30 10195 H 952.803 0.3919 0.624166 0
M  V30 10196 H 955.445 1.52383 1.13487 0
M  V30 10197 H 953.595 1.42538 3.61407 0
M  V30 10198 H 955.267 3.8225 2.5823 0
M  V30 10199 H 953.51 3.63301 2.37054 0
M  V30 10200 H 954.181 3.80951 3.99475 0
M  V30 10201 H 956.657 1.90545 3.69908 0
M  V30 10202 H 955.533 2.11052 5.06703 0
M  V30 10203 H 955.794 0.510221 4.39146 0
M  V30 10204 N 954.853 -1.17469 1.05066 0
M  V30 10205 C 955.816 -2.19648 0.654793 0
M  V30 10206 C 956.816 -1.58107 -0.293063 0
M  V30 10207 O 958.006 -1.74029 -0.077106 0
M  V30 10208 C 955.138 -3.40878 -0.0384437 0
M  V30 10209 H 956.331 -2.56184 1.55915 0
M  V30 10210 H 953.884 -1.31528 0.844396 0
M  V30 10211 H 954.619 -3.09885 -0.956133 0
M  V30 10212 H 954.404 -3.86792 0.642961 0
M  V30 10213 H 955.894 -4.1651 -0.301568 0
M  V30 10214 N 956.331 -0.831506 -1.3388 0
M  V30 10215 C 957.294 -0.264773 -2.27666 0
M  V30 10216 C 958.294 0.562273 -1.50649 0
M  V30 10217 O 959.484 0.377131 -1.70069 0
M  V30 10218 C 956.616 0.627814 -3.35069 0
M  V30 10219 H 957.809 -1.09225 -2.79303 0
M  V30 10220 H 955.362 -0.604021 -1.44157 0
M  V30 10221 H 956.097 1.47802 -2.88661 0
M  V30 10222 H 955.882 0.0361552 -3.92083 0
M  V30 10223 H 957.372 1.01786 -4.05005 0
M  V30 10224 N 957.809 1.4625 -0.587256 0
M  V30 10225 C 958.757 2.32076 0.156108 0
M  V30 10226 C 959.751 1.44756 0.879887 0
M  V30 10227 O 960.957 1.61356 0.797759 0
M  V30 10228 H 957.332 0.748808 0.0692098 0
M  V30 10229 H 959.303 2.9258 -0.586497 0
M  V30 10230 C 958.052 3.28008 1.15352 0
M  V30 10231 H 957.375 3.9518 0.60601 0
M  V30 10232 H 958.815 3.90832 1.64396 0
M  V30 10233 C 957.274 2.53691 2.21681 0
M  V30 10234 O 957.804 2.30329 3.29107 0
M  V30 10235 N 956.01 2.14174 1.96412 0
M  V30 10236 H 955.557 2.33374 1.09061 0
M  V30 10237 H 955.515 1.6477 2.67765 0
M  V30 10238 N 959.287 0.325282 1.54207 0
M  V30 10239 C 960.698 -0.162426 1.85992 0
M  V30 10240 C 961.049 -1.51482 1.2469 0
M  V30 10241 O 960.174 -2.092 0.553578 0
M  V30 10242 C 960.769 -0.3015 3.37456 0
M  V30 10243 C 959.328 -0.73343 3.69185 0
M  V30 10244 C 958.475 0.143831 2.76927 0
M  V30 10245 H 961.426 0.545508 1.4903 0
M  V30 10246 H 961.447 -1.13212 3.63268 0
M  V30 10247 H 960.959 0.682942 3.82044 0
M  V30 10248 H 959.06 -1.72755 3.30131 0
M  V30 10249 H 959.173 -0.535987 4.76092 0
M  V30 10250 H 957.537 -0.380892 2.51836 0
M  V30 10251 H 958.32 1.12507 3.24341 0
M  V30 10252 N 960.765 -1.57509 0.0534917 0
M  V30 10253 C 961.99 -1.97511 -0.632794 0
M  V30 10254 C 962.415 -0.930947 -1.63447 0
M  V30 10255 O 961.773 0.105558 -1.80992 0
M  V30 10256 C 961.821 -3.3658 -1.29407 0
M  V30 10257 O 960.925 -3.3467 -2.40977 0
M  V30 10258 H 960.266 -0.643349 -0.16431 0
M  V30 10259 H 962.796 -2.04232 0.12258 0
M  V30 10260 H 962.806 -3.73359 -1.64521 0
M  V30 10261 H 961.481 -4.12113 -0.559976 0
M  V30 10262 H 960.058 -3.09639 -2.07793 0
M  V30 10263 N 962.243 0.219913 -1.56058 0
M  V30 10264 C 963.491 0.942199 -1.78793 0
M  V30 10265 C 963.812 1.84804 -0.622284 0
M  V30 10266 O 963.082 1.9255 0.360735 0
M  V30 10267 H 961.662 0.350895 -0.659455 0
M  V30 10268 H 964.324 0.231376 -1.93522 0
M  V30 10269 H 963.42 1.54804 -2.71002 0
M  V30 10270 N 963.721 1.49897 0.486681 0
M  V30 10271 C 964.967 1.60342 1.2417 0
M  V30 10272 C 965.3 0.295694 1.91936 0
M  V30 10273 O 964.575 -0.701788 1.81398 0
M  V30 10274 C 964.858 2.77281 2.29755 0
M  V30 10275 C 964.711 4.1789 1.66397 0
M  V30 10276 C 966.03 2.89817 3.31201 0
M  V30 10277 H 963.149 0.583605 0.450083 0
M  V30 10278 H 965.791 1.82232 0.537734 0
M  V30 10279 H 963.941 2.58748 2.89796 0
M  V30 10280 H 965.613 4.47975 1.10073 0
M  V30 10281 H 963.856 4.22872 0.967579 0
M  V30 10282 H 964.527 4.95612 2.43049 0
M  V30 10283 H 967.003 3.06732 2.81167 0
M  V30 10284 H 965.879 3.7329 4.02425 0
M  V30 10285 H 966.14 1.9977 3.94391 0
M  V30 10286 N 965.199 -0.738761 1.39212 0
M  V30 10287 C 966.476 -1.48982 1.26742 0
M  V30 10288 C 966.856 -2.10732 -0.12466 0
M  V30 10289 O 966.204 -1.98287 -1.13554 0
M  V30 10290 C 966.414 -2.54427 2.38889 0
M  V30 10291 C 967.762 -3.20915 2.78027 0
M  V30 10292 O 968.786 -2.64738 2.38311 0
M  V30 10293 O 967.645 -4.22558 3.46565 0
M  V30 10294 H 964.739 -0.661395 0.496473 0
M  V30 10295 H 967.285 -0.772907 1.51077 0
M  V30 10296 H 966.057 -2.07151 3.3197 0
M  V30 10297 H 965.68 -3.33682 2.162 0
M  V30 10298 N 966.677 -1.24326 -0.968545 0
M  V30 10299 C 967.924 -1.08245 -1.71141 0
M  V30 10300 C 968.252 0.378842 -1.90775 0
M  V30 10301 O 967.507 1.29634 -1.46607 0
M  V30 10302 C 967.806 -1.76644 -3.10695 0
M  V30 10303 C 967.472 -3.26572 -3.10905 0
M  V30 10304 C 966.134 -3.67475 -3.10669 0
M  V30 10305 C 968.486 -4.22422 -3.05302 0
M  V30 10306 C 965.814 -5.02666 -3.02562 0
M  V30 10307 C 968.166 -5.57619 -2.98737 0
M  V30 10308 C 966.83 -5.9787 -2.9683 0
M  V30 10309 H 966.1 -0.396098 -0.626249 0
M  V30 10310 H 968.747 -1.54418 -1.13258 0
M  V30 10311 H 967.052 -1.22864 -3.72037 0
M  V30 10312 H 968.749 -1.61668 -3.66967 0
M  V30 10313 H 965.339 -2.94017 -3.11852 0
M  V30 10314 H 969.523 -3.91821 -3.04614 0
M  V30 10315 H 964.779 -5.3305 -2.99446 0
M  V30 10316 H 968.953 -6.31595 -2.93361 0
M  V30 10317 H 966.58 -7.02587 -2.90303 0
M  V30 10318 N 968.156 1.1691 -1.05688 0
M  V30 10319 C 969.086 2.23275 -0.683402 0
M  V30 10320 C 970.067 1.6704 0.321206 0
M  V30 10321 O 971.252 1.93191 0.197691 0
M  V30 10322 C 968.382 3.47244 -0.0626006 0
M  V30 10323 C 967.336 4.16333 -0.992513 0
M  V30 10324 C 966.662 5.34182 -0.23533 0
M  V30 10325 C 967.962 4.68002 -2.31886 0
M  V30 10326 H 969.656 2.54771 -1.57264 0
M  V30 10327 H 967.202 1.2246 -0.757606 0
M  V30 10328 H 969.155 4.20874 0.210503 0
M  V30 10329 H 967.879 3.1503 0.861616 0
M  V30 10330 H 966.538 3.44622 -1.25026 0
M  V30 10331 H 966.186 4.9822 0.69181 0
M  V30 10332 H 965.886 5.81346 -0.855002 0
M  V30 10333 H 967.41 6.10592 0.0303717 0
M  V30 10334 H 968.824 5.33244 -2.10531 0
M  V30 10335 H 967.221 5.25764 -2.89296 0
M  V30 10336 H 968.291 3.84541 -2.95391 0
M  V30 10337 N 969.634 0.838594 1.33437 0
M  V30 10338 C 970.883 0.430484 1.97053 0
M  V30 10339 C 971.196 -1.01556 1.6717 0
M  V30 10340 O 972.402 -1.52834 2.24397 0
M  V30 10341 C 970.858 0.718828 3.52648 0
M  V30 10342 C 970.466 2.17953 3.91408 0
M  V30 10343 C 972.21 0.377654 4.22817 0
M  V30 10344 C 970.117 2.41194 5.39981 0
M  V30 10345 H 969.047 0.157239 0.737422 0
M  V30 10346 H 971.698 1.02714 1.5206 0
M  V30 10347 H 970.08 0.0518042 3.95966 0
M  V30 10348 H 971.254 2.88701 3.59149 0
M  V30 10349 H 969.569 2.48366 3.34221 0
M  V30 10350 H 972.166 0.528926 5.32077 0
M  V30 10351 H 972.509 -0.679338 4.1072 0
M  V30 10352 H 973.042 0.999899 3.85028 0
M  V30 10353 H 969.781 3.45457 5.57081 0
M  V30 10354 H 969.301 1.75007 5.73701 0
M  V30 10355 H 970.98 2.24334 6.06863 0
M  V30 10356 N 971.112 -1.45937 0.595003 0
M  V30 10357 C 972.359 -2.0232 0.0853053 0
M  V30 10358 C 972.687 -1.465 -1.27937 0
M  V30 10359 O 971.942 -0.624767 -1.85459 0
M  V30 10360 C 972.241 -3.57396 -0.0173747 0
M  V30 10361 C 971.907 -4.32311 1.28131 0
M  V30 10362 C 970.569 -4.52496 1.63708 0
M  V30 10363 C 972.921 -4.75233 2.14017 0
M  V30 10364 C 970.249 -5.12857 2.84947 0
M  V30 10365 C 972.601 -5.36933 3.34493 0
M  V30 10366 C 971.265 -5.55343 3.70338 0
M  V30 10367 H 970.535 -0.740342 0.0312154 0
M  V30 10368 H 973.182 -1.75157 0.774103 0
M  V30 10369 H 971.487 -3.83766 -0.789371 0
M  V30 10370 H 973.184 -3.98713 -0.427699 0
M  V30 10371 H 969.774 -4.16905 0.994374 0
M  V30 10372 H 973.958 -4.59383 1.87833 0
M  V30 10373 H 969.214 -5.253 3.12841 0
M  V30 10374 H 973.388 -5.69147 4.01304 0
M  V30 10375 H 971.015 -6.01883 4.64371 0
M  V30 10376 N 972.59 -0.333456 -1.54032 0
M  V30 10377 C 973.522 0.562174 -2.22199 0
M  V30 10378 C 974.535 1.07202 -1.22522 0
M  V30 10379 O 975.724 0.983897 -1.48935 0
M  V30 10380 C 972.824 1.78525 -2.88066 0
M  V30 10381 C 971.997 1.41242 -4.13968 0
M  V30 10382 C 971.056 2.49408 -4.63338 0
M  V30 10383 O 970.082 2.13138 -5.27789 0
M  V30 10384 N 971.284 3.805 -4.38406 0
M  V30 10385 H 974.049 -0.0215629 -2.99692 0
M  V30 10386 H 971.61 -0.157111 -1.61136 0
M  V30 10387 H 973.602 2.50298 -3.18014 0
M  V30 10388 H 972.172 2.2766 -2.14219 0
M  V30 10389 H 971.392 0.525887 -3.90676 0
M  V30 10390 H 972.68 1.13916 -4.95884 0
M  V30 10391 H 972.078 4.12761 -3.86839 0
M  V30 10392 H 970.635 4.48474 -4.72984 0
M  V30 10393 N 974.068 1.57479 -0.061844 0
M  V30 10394 C 975.314 1.93395 0.610443 0
M  V30 10395 C 975.647 0.941334 1.6986 0
M  V30 10396 O 974.922 -0.0310262 1.94475 0
M  V30 10397 C 975.205 3.39636 1.19664 0
M  V30 10398 C 975.058 4.49651 0.115805 0
M  V30 10399 C 976.377 3.86488 2.10512 0
M  V30 10400 H 973.496 0.703262 0.220436 0
M  V30 10401 H 976.138 1.89583 -0.125785 0
M  V30 10402 H 974.288 3.43015 1.82409 0
M  V30 10403 H 975.96 4.58397 -0.516728 0
M  V30 10404 H 974.203 4.30237 -0.55483 0
M  V30 10405 H 974.874 5.49089 0.566176 0
M  V30 10406 H 977.35 3.85052 1.57715 0
M  V30 10407 H 976.226 4.89444 2.48466 0
M  V30 10408 H 976.487 3.23856 3.00948 0
M  V30 10409 N 975.546 -0.211634 1.56173 0
M  V30 10410 C 976.771 -0.955324 1.84088 0
M  V30 10411 C 977.196 -1.76754 0.643407 0
M  V30 10412 O 976.554 -1.76653 -0.407842 0
M  V30 10413 C 976.602 -1.84063 3.10085 0
M  V30 10414 O 975.706 -2.9373 2.89476 0
M  V30 10415 H 975.047 -0.26996 0.606645 0
M  V30 10416 H 977.577 -0.221947 2.03393 0
M  V30 10417 H 977.587 -2.24852 3.40449 0
M  V30 10418 H 976.262 -1.24373 3.96868 0
M  V30 10419 H 974.839 -2.56816 2.7037 0
M  V30 10420 N 977.024 -1.50153 -0.478725 0
M  V30 10421 C 978.27 -1.60998 -1.23318 0
M  V30 10422 C 978.603 -0.305868 -1.91776 0
M  V30 10423 O 977.878 0.692158 -1.81767 0
M  V30 10424 C 978.161 -2.78495 -2.28282 0
M  V30 10425 C 978.014 -4.18767 -1.64178 0
M  V30 10426 C 979.333 -2.91569 -3.2966 0
M  V30 10427 H 976.452 -0.585983 -0.446982 0
M  V30 10428 H 979.094 -1.82514 -0.528063 0
M  V30 10429 H 977.244 -2.60281 -2.8842 0
M  V30 10430 H 978.916 -4.48552 -1.07696 0
M  V30 10431 H 977.159 -4.23379 -0.94514 0
M  V30 10432 H 977.83 -4.96894 -2.40417 0
M  V30 10433 H 980.306 -3.08219 -2.79536 0
M  V30 10434 H 979.182 -3.75419 -4.0044 0
M  V30 10435 H 979.443 -2.01859 -3.93326 0
M  V30 10436 N 978.502 0.731368 -1.39602 0
M  V30 10437 C 979.449 1.84541 -1.38612 0
M  V30 10438 C 980.419 1.64279 -0.245287 0
M  V30 10439 O 981.604 1.85635 -0.440954 0
M  V30 10440 C 978.744 3.22092 -1.23897 0
M  V30 10441 C 977.857 3.54034 -2.47555 0
M  V30 10442 C 976.992 4.81007 -2.25402 0
M  V30 10443 C 976.031 5.05804 -3.44716 0
M  V30 10444 N 975.168 6.23981 -3.21857 0
M  V30 10445 H 980.008 1.84722 -2.33841 0
M  V30 10446 H 977.545 0.902569 -1.16156 0
M  V30 10447 H 979.503 4.01499 -1.13376 0
M  V30 10448 H 978.133 3.2118 -0.322958 0
M  V30 10449 H 977.185 2.69301 -2.68665 0
M  V30 10450 H 978.497 3.68275 -3.36415 0
M  V30 10451 H 977.651 5.68401 -2.12143 0
M  V30 10452 H 976.39 4.68946 -1.33943 0
M  V30 10453 H 975.395 4.1687 -3.58468 0
M  V30 10454 H 976.62 5.19747 -4.37081 0
M  V30 10455 H 974.566 6.13202 -2.33065 0
M  V30 10456 H 974.483 6.38826 -4.04274 0
M  V30 10457 H 975.751 7.14205 -3.123 0
M  V30 10458 N 979.98 1.24838 0.961938 0
M  V30 10459 C 980.913 0.989041 2.05653 0
M  V30 10460 C 981.891 -0.079199 1.62407 0
M  V30 10461 O 983.075 0.0589397 1.88408 0
M  V30 10462 C 980.202 0.493661 3.35083 0
M  V30 10463 C 979.248 1.55132 3.97286 0
M  V30 10464 S 980.081 3.13438 4.34185 0
M  V30 10465 C 981.237 2.65617 5.66744 0
M  V30 10466 H 981.47 1.91588 2.27335 0
M  V30 10467 H 979.003 1.08287 1.10061 0
M  V30 10468 H 980.961 0.214482 4.09939 0
M  V30 10469 H 979.622 -0.412559 3.11379 0
M  V30 10470 H 978.815 1.15525 4.90581 0
M  V30 10471 H 978.417 1.78081 3.28882 0
M  V30 10472 H 980.709 2.08788 6.44526 0
M  V30 10473 H 981.652 3.57524 6.11214 0
M  V30 10474 H 982.06 2.05853 5.25628 0
M  V30 10475 N 981.458 -1.16348 1.06306 0
M  V30 10476 C 982.405 -2.20741 0.673962 0
M  V30 10477 C 983.375 -1.628 -0.329454 0
M  V30 10478 O 984.56 -1.89547 -0.218313 0
M  V30 10479 C 981.7 -3.45036 0.0667008 0
M  V30 10480 C 980.813 -4.17221 1.12031 0
M  V30 10481 C 979.948 -5.29034 0.479176 0
M  V30 10482 C 978.987 -5.93021 1.51631 0
M  V30 10483 N 978.124 -6.96327 0.898528 0
M  V30 10484 H 982.964 -2.53376 1.56859 0
M  V30 10485 H 980.501 -1.24449 0.784276 0
M  V30 10486 H 982.459 -4.16099 -0.302916 0
M  V30 10487 H 981.089 -3.1295 -0.791333 0
M  V30 10488 H 980.141 -3.4476 1.60763 0
M  V30 10489 H 981.453 -4.60902 1.90712 0
M  V30 10490 H 980.607 -6.06674 0.0565993 0
M  V30 10491 H 979.346 -4.86517 -0.33951 0
M  V30 10492 H 978.351 -5.14104 1.94878 0
M  V30 10493 H 979.576 -6.37618 2.3371 0
M  V30 10494 H 977.522 -6.55923 0.100555 0
M  V30 10495 H 977.439 -7.38379 1.62272 0
M  V30 10496 H 978.707 -7.77888 0.5011 0
M  V30 10497 N 982.937 -0.845659 -1.3299 0
M  V30 10498 C 984.185 -0.443774 -1.97168 0
M  V30 10499 C 984.506 1.00192 -1.67292 0
M  V30 10500 O 983.776 1.69891 -0.975397 0
M  V30 10501 H 982.356 -0.161111 -0.729419 0
M  V30 10502 H 985.018 -1.08011 -1.62233 0
M  V30 10503 H 984.114 -0.581414 -3.06637 0
M  V30 10504 N 984.415 1.45619 -0.602734 0
M  V30 10505 C 985.347 2.28662 0.157012 0
M  V30 10506 C 986.36 1.39672 0.836396 0
M  V30 10507 O 987.549 1.64091 0.702599 0
M  V30 10508 C 984.649 3.1528 1.24306 0
M  V30 10509 C 983.822 4.32517 0.651731 0
M  V30 10510 C 982.881 5.00381 1.62804 0
M  V30 10511 O 981.907 5.57333 1.15624 0
M  V30 10512 N 983.109 4.99221 2.96241 0
M  V30 10513 H 985.874 2.94506 -0.555535 0
M  V30 10514 H 983.435 1.55753 -0.441881 0
M  V30 10515 H 985.427 3.57544 1.8959 0
M  V30 10516 H 983.997 2.51376 1.85819 0
M  V30 10517 H 983.217 3.93793 -0.17907 0
M  V30 10518 H 984.505 5.08249 0.236802 0
M  V30 10519 H 983.903 4.54232 3.37179 0
M  V30 10520 H 982.46 5.45364 3.56961 0
M  V30 10521 N 985.893 0.34162 1.53853 0
M  V30 10522 C 987.309 -0.0103769 1.59597 0
M  V30 10523 C 987.509 -1.48897 1.35764 0
M  V30 10524 O 986.565 -2.24743 1.15095 0
M  V30 10525 C 987.878 0.424067 2.97695 0
M  V30 10526 C 989.426 0.376247 3.1073 0
M  V30 10527 C 989.901 0.786129 4.51203 0
M  V30 10528 N 991.392 0.74024 4.57247 0
M  V30 10529 C 992.127 1.02937 5.64085 0
M  V30 10530 N 991.623 1.38655 6.78783 0
M  V30 10531 N 993.416 0.953734 5.5395 0
M  V30 10532 H 985.567 1.30477 1.67599 0
M  V30 10533 H 987.83 0.531753 0.78482 0
M  V30 10534 H 987.536 1.45493 3.20195 0
M  V30 10535 H 987.41 -0.201713 3.7666 0
M  V30 10536 H 989.797 -0.645441 2.87955 0
M  V30 10537 H 989.878 1.0372 2.33828 0
M  V30 10538 H 989.522 1.80582 4.74713 0
M  V30 10539 H 989.452 0.102671 5.265 0
M  V30 10540 H 991.943 0.476763 3.7488 0
M  V30 10541 H 992.256 1.59206 7.56223 0
M  V30 10542 H 990.601 1.42498 6.80235 0
M  V30 10543 H 993.792 0.674044 4.63222 0
M  V30 10544 H 993.965 1.18241 6.37121 0
M  V30 10545 N 987.371 -1.57444 0.0701946 0
M  V30 10546 C 988.782 -1.80875 -0.462709 0
M  V30 10547 C 989.133 -0.983975 -1.69742 0
M  V30 10548 O 988.258 -0.206027 -2.15417 0
M  V30 10549 C 988.853 -3.28062 -0.84623 0
M  V30 10550 C 987.412 -3.52345 -1.32401 0
M  V30 10551 C 986.559 -2.7558 -0.308399 0
M  V30 10552 H 989.51 -1.55917 0.295907 0
M  V30 10553 H 989.531 -3.40023 -1.70776 0
M  V30 10554 H 989.043 -3.88064 0.0526033 0
M  V30 10555 H 987.144 -2.97645 -2.24139 0
M  V30 10556 H 987.257 -4.6104 -1.30304 0
M  V30 10557 H 985.621 -2.4229 -0.785337 0
M  V30 10558 H 986.404 -3.38319 0.582679 0
M  V30 10559 N 988.849 0.203349 -1.56283 0
M  V30 10560 C 989.779 1.2549 -1.96912 0
M  V30 10561 C 990.76 1.47919 -0.839884 0
M  V30 10562 O 991.945 1.59795 -1.10359 0
M  V30 10563 C 989.075 2.6009 -2.30153 0
M  V30 10564 C 988.029 2.52289 -3.45738 0
M  V30 10565 C 987.355 3.91086 -3.64632 0
M  V30 10566 C 988.655 2.05503 -4.80173 0
M  V30 10567 H 990.349 0.917306 -2.85002 0
M  V30 10568 H 987.895 0.439818 -1.37119 0
M  V30 10569 H 989.848 3.33829 -2.5717 0
M  V30 10570 H 988.572 2.95574 -1.38937 0
M  V30 10571 H 987.231 1.81006 -3.18798 0
M  V30 10572 H 986.879 4.23908 -2.7076 0
M  V30 10573 H 986.579 3.86742 -4.42385 0
M  V30 10574 H 988.103 4.66459 -3.94016 0
M  V30 10575 H 989.517 2.68995 -5.06275 0
M  V30 10576 H 987.914 2.1218 -5.61337 0
M  V30 10577 H 988.984 1.00793 -4.74309 0
M  V30 10578 N 990.327 1.50405 0.470755 0
M  V30 10579 C 991.237 1.7208 1.59454 0
M  V30 10580 C 992.253 0.603932 1.63183 0
M  V30 10581 O 993.429 0.882296 1.81046 0
M  V30 10582 C 990.494 1.81057 2.95667 0
M  V30 10583 C 989.555 3.04792 3.02324 0
M  V30 10584 C 988.788 3.13332 4.3204 0
M  V30 10585 O 989.011 2.28655 5.22564 0
M  V30 10586 O 987.945 4.0606 4.44296 0
M  V30 10587 H 991.771 2.67343 1.44089 0
M  V30 10588 H 989.356 1.34505 0.650286 0
M  V30 10589 H 991.238 1.8914 3.76569 0
M  V30 10590 H 989.913 0.889782 3.11231 0
M  V30 10591 H 988.82 3.0221 2.205 0
M  V30 10592 H 990.153 3.96451 2.91698 0
M  V30 10593 N 991.805 -0.723954 1.39988 0
M  V30 10594 C 992.755 -1.82943 1.36073 0
M  V30 10595 C 993.739 -1.59105 0.239682 0
M  V30 10596 O 994.931 -1.7042 0.478116 0
M  V30 10597 C 992.06 -3.20988 1.21745 0
M  V30 10598 C 991.146 -3.50618 2.38596 0
M  V30 10599 N 991.537 -3.51115 3.64077 0
M  V30 10600 C 989.835 -3.81035 2.31794 0
M  V30 10601 C 990.536 -3.78852 4.41413 0
M  V30 10602 N 989.512 -3.97182 3.71143 0
M  V30 10603 H 993.314 -1.81649 2.31043 0
M  V30 10604 H 990.828 -0.922703 1.33641 0
M  V30 10605 H 992.825 -4.00139 1.17022 0
M  V30 10606 H 991.485 -3.23513 0.277344 0
M  V30 10607 H 992.496 -3.32163 3.97351 0
M  V30 10608 H 989.173 -3.911 1.46105 0
M  V30 10609 H 990.563 -3.85612 5.5023 0
M  V30 10610 N 993.283 -1.25346 -0.955304 0
M  V30 10611 C 994.56 -1.00829 -1.67609 0
M  V30 10612 C 994.94 0.465675 -2.059 0
M  V30 10613 O 994.288 1.44287 -1.77182 0
M  V30 10614 C 994.498 -1.94337 -2.89886 0
M  V30 10615 C 995.846 -2.22142 -3.61854 0
M  V30 10616 O 996.87 -1.9209 -2.99967 0
M  V30 10617 O 995.729 -2.73239 -4.73289 0
M  V30 10618 H 992.823 -0.382314 -0.733325 0
M  V30 10619 H 995.369 -1.36498 -1.00829 0
M  V30 10620 H 994.141 -2.93867 -2.58376 0
M  V30 10621 H 993.764 -1.59062 -3.64397 0
M  V30 10622 N 994.761 1.15782 -1.06922 0
M  V30 10623 C 996.009 1.86097 -0.788192 0
M  V30 10624 C 996.33 1.82475 0.687606 0
M  V30 10625 O 995.6 1.26266 1.49778 0
M  V30 10626 H 994.18 0.689008 -0.288577 0
M  V30 10627 H 996.842 1.40377 -1.35205 0
M  V30 10628 H 995.938 2.91358 -1.1188 0
M  V30 10629 N 996.239 0.8527 1.3254 0
M  V30 10630 C 997.149 0.298744 2.3269 0
M  V30 10631 C 998.165 -0.582418 1.63963 0
M  V30 10632 O 999.341 -0.483253 1.95516 0
M  V30 10633 C 996.406 -0.505453 3.42996 0
M  V30 10634 C 995.467 0.401618 4.27417 0
M  V30 10635 C 994.7 -0.364294 5.32455 0
M  V30 10636 O 994.923 -1.59448 5.47661 0
M  V30 10637 O 993.857 0.268892 6.01299 0
M  V30 10638 H 997.683 1.12843 2.81958 0
M  V30 10639 H 995.268 0.615584 1.36128 0
M  V30 10640 H 997.15 -0.961974 4.10273 0
M  V30 10641 H 995.825 -1.31197 2.95921 0
M  V30 10642 H 994.732 0.906274 3.62957 0
M  V30 10643 H 996.065 1.17327 4.78012 0
M  V30 10644 N 997.718 -1.45297 0.610449 0
M  V30 10645 C 998.946 -2.0659 0.113211 0
M  V30 10646 C 999.361 -1.4546 -1.20361 0
M  V30 10647 O 998.718 -0.569823 -1.73376 0
M  V30 10648 C 998.769 -3.61488 -0.0298411 0
M  V30 10649 O 998.49 -4.20336 1.23488 0
M  V30 10650 C 999.991 -4.39772 -0.558202 0
M  V30 10651 H 997.211 -0.667322 0.0701555 0
M  V30 10652 H 999.755 -1.86497 0.838993 0
M  V30 10653 H 997.91 -3.80913 -0.705963 0
M  V30 10654 H 998.324 -5.13545 1.0664 0
M  V30 10655 H 999.798 -5.48648 -0.607375 0
M  V30 10656 H 1000.27 -4.09755 -1.58107 0
M  V30 10657 H 1000.88 -4.25217 0.0839704 0
M  V30 10658 N 999.196 -0.349774 -1.5367 0
M  V30 10659 C 1000.11 0.512421 -2.28935 0
M  V30 10660 C 1001.12 1.1065 -1.34286 0
M  V30 10661 O 1002.3 1.12084 -1.67329 0
M  V30 10662 C 999.363 1.64449 -3.05217 0
M  V30 10663 C 998.424 1.07956 -4.15505 0
M  V30 10664 C 997.657 2.15768 -4.88139 0
M  V30 10665 O 997.88 3.366 -4.60496 0
M  V30 10666 O 996.814 1.79712 -5.74445 0
M  V30 10667 H 1000.64 -0.0996001 -3.03537 0
M  V30 10668 H 998.225 -0.114629 -1.4896 0
M  V30 10669 H 1000.11 2.30302 -3.52901 0
M  V30 10670 H 998.782 2.24221 -2.33467 0
M  V30 10671 H 997.689 0.385381 -3.7211 0
M  V30 10672 H 999.022 0.526621 -4.89375 0
M  V30 10673 N 1000.67 1.57404 -0.0785433 0
M  V30 10674 C 1001.92 1.93361 0.58786 0
M  V30 10675 C 1002.24 0.959856 1.6974 0
M  V30 10676 O 1001.51 0.0091173 1.95898 0
M  V30 10677 H 1000.09 0.713825 0.220141 0
M  V30 10678 H 1002.75 1.94411 -0.137986 0
M  V30 10679 H 1001.85 2.95346 1.00881 0
M  V30 10680 N 1002.15 -0.195058 1.56388 0
M  V30 10681 C 1003.38 -0.935745 1.85091 0
M  V30 10682 C 1003.8 -1.76061 0.662118 0
M  V30 10683 O 1003.16 -1.77076 -0.389083 0
M  V30 10684 C 1003.21 -1.80764 3.1202 0
M  V30 10685 O 1002.31 -2.90643 2.92575 0
M  V30 10686 H 1001.65 -0.26351 0.609474 0
M  V30 10687 H 1004.18 -0.200362 2.03617 0
M  V30 10688 H 1004.19 -2.21229 3.42815 0
M  V30 10689 H 1002.87 -1.20157 3.98165 0
M  V30 10690 H 1001.44 -2.53934 2.73079 0
M  V30 10691 N 1003.63 -1.50653 -0.462772 0
M  V30 10692 C 1004.88 -1.61737 -1.21184 0
M  V30 10693 C 1005.2 -0.32369 -1.92295 0
M  V30 10694 O 1004.47 0.659269 -1.84473 0
M  V30 10695 H 1003.05 -0.596015 -0.450306 0
M  V30 10696 H 1005.71 -1.87469 -0.533051 0
M  V30 10697 H 1004.81 -2.43262 -1.95525 0
M  V30 10698 N 1005.11 0.71652 -1.4037 0
M  V30 10699 C 1006.04 1.84345 -1.43315 0
M  V30 10700 C 1007.02 1.67537 -0.294186 0
M  V30 10701 O 1008.2 1.87582 -0.502671 0
M  V30 10702 C 1005.33 3.2229 -1.29408 0
M  V30 10703 C 1004.29 3.53769 -2.40897 0
M  V30 10704 C 1003.61 4.90847 -2.12068 0
M  V30 10705 C 1004.91 3.54862 -3.83237 0
M  V30 10706 H 1006.61 1.82138 -2.37626 0
M  V30 10707 H 1004.15 0.874873 -1.14376 0
M  V30 10708 H 1006.11 4.00819 -1.30085 0
M  V30 10709 H 1004.83 3.2507 -0.31573 0
M  V30 10710 H 1003.49 2.77579 -2.39469 0
M  V30 10711 H 1003.14 4.90229 -1.12626 0
M  V30 10712 H 1002.84 5.12875 -2.86762 0
M  V30 10713 H 1004.36 5.71711 -2.14426 0
M  V30 10714 H 1005.78 4.23432 -3.86494 0
M  V30 10715 H 1004.17 3.88416 -4.57442 0
M  V30 10716 H 1005.24 2.54266 -4.12888 0
M  V30 10717 N 1006.59 1.25851 0.948643 0
M  V30 10718 C 1007.86 1.01717 1.67072 0
M  V30 10719 C 1008.24 -0.454749 2.06144 0
M  V30 10720 O 1007.59 -1.43345 1.77945 0
M  V30 10721 C 1007.8 1.95872 2.88852 0
M  V30 10722 C 1009.15 2.24057 3.60671 0
M  V30 10723 O 1010.17 1.93678 2.98944 0
M  V30 10724 O 1009.03 2.75745 4.71833 0
M  V30 10725 H 1006.13 0.386198 0.731287 0
M  V30 10726 H 1008.67 1.37031 1.00104 0
M  V30 10727 H 1007.44 2.95233 2.56814 0
M  V30 10728 H 1007.07 1.60992 3.63548 0
M  V30 10729 N 1008.06 -1.15214 1.07534 0
M  V30 10730 C 1008.97 -2.23636 0.708818 0
M  V30 10731 C 1009.99 -1.7172 -0.280759 0
M  V30 10732 O 1011.17 -2.01 -0.126927 0
M  V30 10733 C 1008.23 -3.46512 0.114167 0
M  V30 10734 C 1007.29 -4.13409 1.15722 0
M  V30 10735 C 1006.53 -5.30419 0.59085 0
M  V30 10736 O 1006.75 -5.67314 -0.592512 0
M  V30 10737 O 1005.68 -5.86871 1.33663 0
M  V30 10738 H 1009.51 -2.57322 1.61305 0
M  V30 10739 H 1007.09 -1.22972 0.848422 0
M  V30 10740 H 1008.98 -4.20851 -0.215091 0
M  V30 10741 H 1007.65 -3.1457 -0.763356 0
M  V30 10742 H 1006.56 -3.40984 1.53886 0
M  V30 10743 H 1007.89 -4.49435 2.00671 0
M  V30 10744 N 1009.54 -0.859717 -1.32086 0
M  V30 10745 C 1010.77 -0.478865 -2.01796 0
M  V30 10746 C 1011.19 0.918274 -1.64163 0
M  V30 10747 O 1010.55 1.60409 -0.844896 0
M  V30 10748 C 1010.6 -0.631356 -3.5503 0
M  V30 10749 O 1009.7 0.333712 -4.11048 0
M  V30 10750 H 1009.04 -0.191775 -0.635703 0
M  V30 10751 H 1011.57 -1.16031 -1.68517 0
M  V30 10752 H 1011.58 -0.520783 -4.04663 0
M  V30 10753 H 1010.26 -1.65015 -3.81763 0
M  V30 10754 H 1008.84 0.178953 -3.7247 0
M  V30 10755 N 1011.02 1.44971 -0.618145 0
M  V30 10756 C 1011.97 2.32354 0.106846 0
M  V30 10757 C 1012.96 1.4659 0.848984 0
M  V30 10758 O 1014.17 1.63012 0.763354 0
M  V30 10759 H 1010.54 0.750108 0.0533109 0
M  V30 10760 H 1012.51 2.9127 -0.648426 0
M  V30 10761 C 1011.26 3.30381 1.08368 0
M  V30 10762 H 1010.59 3.96377 0.52205 0
M  V30 10763 H 1012.03 3.94231 1.56069 0
M  V30 10764 C 1010.49 2.58336 2.1625 0
M  V30 10765 O 1011.02 2.37258 3.24148 0
M  V30 10766 N 1009.22 2.18292 1.91825 0
M  V30 10767 H 1008.77 2.35635 1.04086 0
M  V30 10768 H 1008.73 1.70413 2.6421 0
M  V30 10769 N 1012.5 0.357919 1.53482 0
M  V30 10770 C 1013.91 -0.122938 1.86295 0
M  V30 10771 C 1014.26 -1.48803 1.27875 0
M  V30 10772 O 1013.39 -2.07978 0.597828 0
M  V30 10773 C 1013.98 -0.229853 3.38019 0
M  V30 10774 C 1012.54 -0.654955 3.70658 0
M  V30 10775 C 1011.69 0.202539 2.76559 0
M  V30 10776 H 1014.64 0.576997 1.47839 0
M  V30 10777 H 1014.66 -1.05481 3.65587 0
M  V30 10778 H 1014.17 0.763825 3.80509 0
M  V30 10779 H 1012.27 -1.65714 3.33721 0
M  V30 10780 H 1012.38 -0.43488 4.77122 0
M  V30 10781 H 1010.75 -0.327388 2.52587 0
M  V30 10782 H 1011.53 1.19361 3.21882 0
M  V30 10783 N 1013.98 -1.5736 0.0868897 0
M  V30 10784 C 1015.23 -1.93229 -0.578387 0
M  V30 10785 C 1015.54 -0.970127 -1.69847 0
M  V30 10786 O 1016.74 -1.22222 -2.42434 0
M  V30 10787 C 1015.2 -3.43307 -1.0802 0
M  V30 10788 C 1014.81 -4.47999 0.00968135 0
M  V30 10789 C 1016.55 -3.88151 -1.71868 0
M  V30 10790 C 1014.46 -5.89223 -0.507029 0
M  V30 10791 H 1013.39 -0.721245 -0.219823 0
M  V30 10792 H 1016.04 -1.82787 0.161566 0
M  V30 10793 H 1014.42 -3.48873 -1.87359 0
M  V30 10794 H 1015.6 -4.54067 0.784865 0
M  V30 10795 H 1013.91 -4.12714 0.552845 0
M  V30 10796 H 1016.51 -4.91056 -2.11585 0
M  V30 10797 H 1016.85 -3.26347 -2.58464 0
M  V30 10798 H 1017.38 -3.85252 -0.991259 0
M  V30 10799 H 1014.12 -6.54708 0.322121 0
M  V30 10800 H 1013.64 -5.86643 -1.2494 0
M  V30 10801 H 1015.32 -6.39556 -0.978628 0
M  V30 10802 N 1015.45 0.186762 -1.56489 0
M  V30 10803 C 1016.42 1.21511 -1.94339 0
M  V30 10804 C 1017.42 1.38001 -0.82537 0
M  V30 10805 O 1018.61 1.3567 -1.09266 0
M  V30 10806 C 1015.74 2.583 -2.22472 0
M  V30 10807 H 1016.93 0.891371 -2.86347 0
M  V30 10808 H 1014.49 0.428612 -1.50308 0
M  V30 10809 H 1015.22 2.95715 -1.33129 0
M  V30 10810 H 1015.01 2.47701 -3.03951 0
M  V30 10811 H 1016.5 3.32441 -2.5273 0
M  V30 10812 N 1016.93 1.50896 0.454776 0
M  V30 10813 C 1017.88 1.67333 1.54867 0
M  V30 10814 C 1018.87 0.527576 1.52005 0
M  V30 10815 O 1020.06 0.782726 1.58753 0
M  V30 10816 C 1017.19 1.7858 2.93196 0
M  V30 10817 C 1016.27 2.98884 3.0088 0
M  V30 10818 N 1016.66 4.22326 2.78343 0
M  V30 10819 C 1014.96 2.97779 3.32029 0
M  V30 10820 C 1015.66 5.03439 2.91418 0
M  V30 10821 N 1014.64 4.37725 3.22332 0
M  V30 10822 H 1018.44 2.60453 1.36167 0
M  V30 10823 H 1015.96 1.48304 0.661797 0
M  V30 10824 H 1017.95 1.88463 3.7187 0
M  V30 10825 H 1016.61 0.866296 3.1293 0
M  V30 10826 H 1017.62 4.51557 2.53607 0
M  V30 10827 H 1014.3 2.15393 3.57648 0
M  V30 10828 H 1015.69 6.11648 2.78095 0
M  V30 10829 N 1018.41 -0.709066 1.40748 0
M  V30 10830 C 1019.34 -1.83583 1.4429 0
M  V30 10831 C 1020.32 -1.67378 0.303067 0
M  V30 10832 O 1021.51 -1.87312 0.512612 0
M  V30 10833 C 1018.64 -3.21599 1.31116 0
M  V30 10834 C 1017.59 -3.52486 2.4277 0
M  V30 10835 C 1016.92 -4.89716 2.14668 0
M  V30 10836 C 1018.22 -3.52824 3.85113 0
M  V30 10837 H 1019.91 -1.80876 2.38588 0
M  V30 10838 H 1017.46 -0.868795 1.14839 0
M  V30 10839 H 1019.41 -4.00123 1.32209 0
M  V30 10840 H 1018.13 -3.24898 0.332965 0
M  V30 10841 H 1016.79 -2.76305 2.40937 0
M  V30 10842 H 1016.44 -4.89625 1.15224 0
M  V30 10843 H 1016.14 -5.11347 2.89478 0
M  V30 10844 H 1017.66 -5.70566 2.17455 0
M  V30 10845 H 1019.08 -4.21377 3.88734 0
M  V30 10846 H 1017.48 -3.85984 4.59496 0
M  V30 10847 H 1018.55 -2.52073 4.14231 0
M  V30 10848 N 1019.89 -1.26353 -0.941956 0
M  V30 10849 C 1020.84 -1.07842 -2.04056 0
M  V30 10850 C 1021.81 0.0163064 -1.66092 0
M  V30 10851 O 1022.99 -0.143313 -1.90261 0
M  V30 10852 C 1020.13 -0.716636 -3.37577 0
M  V30 10853 C 1019.24 -1.88754 -3.88582 0
M  V30 10854 C 1018.38 -1.46893 -5.10486 0
M  V30 10855 C 1017.42 -2.60819 -5.53751 0
M  V30 10856 N 1016.56 -2.19646 -6.66858 0
M  V30 10857 H 1021.4 -2.01856 -2.19221 0
M  V30 10858 H 1018.93 -1.00504 -1.07412 0
M  V30 10859 H 1020.89 -0.487768 -4.14339 0
M  V30 10860 H 1019.52 0.18653 -3.22261 0
M  V30 10861 H 1018.57 -2.22936 -3.08227 0
M  V30 10862 H 1019.88 -2.74264 -4.1663 0
M  V30 10863 H 1019.04 -1.20047 -5.94705 0
M  V30 10864 H 1017.78 -0.584721 -4.84182 0
M  V30 10865 H 1016.78 -2.88396 -4.6809 0
M  V30 10866 H 1018.01 -3.49838 -5.82057 0
M  V30 10867 H 1015.95 -1.33657 -6.4224 0
M  V30 10868 H 1015.87 -2.987 -6.94489 0
M  V30 10869 H 1017.14 -1.96009 -7.54454 0
M  V30 10870 N 1021.37 1.14642 -1.08144 0
M  V30 10871 C 1022.28 2.23257 -0.720668 0
M  V30 10872 C 1023.29 1.71866 0.271648 0
M  V30 10873 O 1024.47 2.01064 0.116266 0
M  V30 10874 C 1021.53 3.46447 -0.132542 0
M  V30 10875 C 1020.6 4.12789 -1.17913 0
M  V30 10876 C 1019.83 5.30099 -0.618971 0
M  V30 10877 O 1020.05 5.6762 0.562418 0
M  V30 10878 O 1018.99 5.86154 -1.36774 0
M  V30 10879 H 1022.81 2.56463 -1.62667 0
M  V30 10880 H 1020.4 1.22521 -0.854932 0
M  V30 10881 H 1022.28 4.20959 0.19277 0
M  V30 10882 H 1020.95 3.14971 0.746662 0
M  V30 10883 H 1019.86 3.40163 -1.55693 0
M  V30 10884 H 1021.19 4.48365 -2.03051 0
M  V30 10885 N 1022.85 0.866709 1.31628 0
M  V30 10886 C 1024.26 0.529032 1.79048 0
M  V30 10887 C 1024.61 -0.953871 1.71452 0
M  V30 10888 O 1023.73 -1.74462 1.28031 0
M  V30 10889 C 1024.33 0.953522 3.25105 0
M  V30 10890 C 1022.89 0.667554 3.70433 0
M  V30 10891 C 1022.03 1.14664 2.52483 0
M  V30 10892 H 1024.98 1.05275 1.18756 0
M  V30 10893 H 1025.01 0.274844 3.79506 0
M  V30 10894 H 1024.52 2.03283 3.30602 0
M  V30 10895 H 1022.62 -0.400532 3.70441 0
M  V30 10896 H 1022.73 1.2423 4.62714 0
M  V30 10897 H 1021.1 0.566502 2.4832 0
M  V30 10898 H 1021.88 2.2333 2.60727 0
M  V30 10899 N 1024.32 -1.44642 0.625825 0
M  V30 10900 C 1025.73 -1.85502 0.211175 0
M  V30 10901 C 1026.09 -1.52356 -1.2362 0
M  V30 10902 O 1025.21 -0.959051 -1.93988 0
M  V30 10903 C 1025.81 -3.36702 0.37648 0
M  V30 10904 C 1024.36 -3.76396 0.0163795 0
M  V30 10905 C 1023.51 -2.68517 0.692368 0
M  V30 10906 H 1026.46 -1.35183 0.831333 0
M  V30 10907 H 1026.48 -3.78536 -0.386106 0
M  V30 10908 H 1026 -3.60795 1.42999 0
M  V30 10909 H 1024.1 -3.57919 -1.0356 0
M  V30 10910 H 1024.21 -4.77231 0.422742 0
M  V30 10911 H 1022.57 -2.54377 0.128191 0
M  V30 10912 H 1023.36 -2.95444 1.74837 0
M  V30 10913 N 1025.8 -0.366053 -1.5329 0
M  V30 10914 C 1027.05 0.223051 -2.00865 0
M  V30 10915 C 1027.37 1.49244 -1.25504 0
M  V30 10916 O 1026.64 1.92404 -0.368444 0
M  V30 10917 H 1025.22 0.085413 -0.742101 0
M  V30 10918 H 1027.88 -0.492396 -1.88578 0
M  V30 10919 H 1026.98 0.449701 -3.08843 0
M  V30 10920 N 1027.28 1.57312 -0.0952337 0
M  V30 10921 C 1028.24 2.12889 0.849161 0
M  V30 10922 C 1029.24 1.05819 1.21075 0
M  V30 10923 O 1030.43 1.31704 1.14016 0
M  V30 10924 C 1027.56 2.6496 2.14498 0
M  V30 10925 H 1028.76 2.97651 0.366566 0
M  V30 10926 H 1026.31 1.55542 0.153762 0
M  V30 10927 H 1027.05 1.83718 2.67242 0
M  V30 10928 H 1026.83 3.43244 1.89542 0
M  V30 10929 H 1028.32 3.07952 2.82056 0
M  V30 10930 N 1028.76 -0.17846 1.56586 0
M  V30 10931 C 1029.69 -1.24547 1.92408 0
M  V30 10932 C 1030.7 -1.40849 0.816421 0
M  V30 10933 O 1031.89 -1.40979 1.09486 0
M  V30 10934 C 1028.99 -2.61523 2.15544 0
M  V30 10935 C 1028.16 -2.66613 3.46751 0
M  V30 10936 C 1027.22 -3.84901 3.588 0
M  V30 10937 O 1026.25 -3.71231 4.31482 0
M  V30 10938 N 1027.45 -5.0106 2.9312 0
M  V30 10939 H 1030.22 -0.941275 2.84535 0
M  V30 10940 H 1027.78 -0.368275 1.57656 0
M  V30 10941 H 1029.77 -3.3911 2.20876 0
M  V30 10942 H 1028.34 -2.84362 1.29835 0
M  V30 10943 H 1027.56 -1.75174 3.5314 0
M  V30 10944 H 1028.85 -2.67018 4.33104 0
M  V30 10945 H 1028.25 -5.15067 2.33928 0
M  V30 10946 H 1026.8 -5.76535 3.04057 0
M  V30 10947 N 1030.24 -1.51135 -0.446768 0
M  V30 10948 C 1031.17 -1.74709 -1.54916 0
M  V30 10949 C 1032.15 -0.596628 -1.59293 0
M  V30 10950 O 1033.33 -0.838356 -1.75172 0
M  V30 10951 C 1030.46 -1.86353 -2.9307 0
M  V30 10952 C 1029.42 -3.01725 -3.03556 0
M  V30 10953 C 1028.74 -2.9854 -4.43597 0
M  V30 10954 C 1030.04 -4.41848 -2.7851 0
M  V30 10955 H 1031.74 -2.67014 -1.3544 0
M  V30 10956 H 1029.28 -1.28489 -0.650131 0
M  V30 10957 H 1031.23 -2.01428 -3.70141 0
M  V30 10958 H 1029.96 -0.906887 -3.13756 0
M  V30 10959 H 1028.62 -2.86339 -2.28922 0
M  V30 10960 H 1028.27 -2.00673 -4.61237 0
M  V30 10961 H 1027.97 -3.76008 -4.51544 0
M  V30 10962 H 1029.49 -3.15696 -5.22655 0
M  V30 10963 H 1030.9 -4.57633 -3.45319 0
M  V30 10964 H 1029.3 -5.2095 -2.97877 0
M  V30 10965 H 1030.37 -4.52536 -1.74182 0
M  V30 10966 N 1031.71 0.701592 -1.41122 0
M  V30 10967 C 1033.13 1.01143 -1.23459 0
M  V30 10968 C 1033.33 2.01144 -0.11968 0
M  V30 10969 O 1032.39 2.47132 0.517889 0
M  V30 10970 C 1033.7 1.54179 -2.58165 0
M  V30 10971 C 1035.25 1.66093 -2.65296 0
M  V30 10972 C 1035.72 2.22532 -4.00304 0
M  V30 10973 N 1037.21 2.299 -4.0212 0
M  V30 10974 C 1037.95 2.74584 -5.0338 0
M  V30 10975 N 1037.44 3.18917 -6.15032 0
M  V30 10976 N 1039.24 2.74094 -4.90743 0
M  V30 10977 H 1031.39 0.0390087 -2.12364 0
M  V30 10978 H 1033.65 0.0798848 -0.944628 0
M  V30 10979 H 1033.36 0.881587 -3.40472 0
M  V30 10980 H 1033.23 2.52488 -2.80231 0
M  V30 10981 H 1035.62 2.31227 -1.83352 0
M  V30 10982 H 1035.7 0.663461 -2.47046 0
M  V30 10983 H 1035.34 1.58016 -4.82694 0
M  V30 10984 H 1035.27 3.2302 -4.15891 0
M  V30 10985 H 1037.76 1.98607 -3.21502 0
M  V30 10986 H 1038.08 3.5162 -6.88174 0
M  V30 10987 H 1036.42 3.1684 -6.18577 0
M  V30 10988 H 1039.61 2.38804 -4.02604 0
M  V30 10989 H 1039.79 3.086 -5.69798 0
M  V30 10990 N 1033.19 1.2685 0.935242 0
M  V30 10991 C 1034.42 1.15538 1.71635 0
M  V30 10992 C 1034.83 -0.288698 1.8658 0
M  V30 10993 O 1034.19 -1.19721 1.37743 0
M  V30 10994 C 1034.24 1.8259 3.11999 0
M  V30 10995 O 1033.96 3.21355 2.97763 0
M  V30 10996 C 1035.46 1.77307 4.06297 0
M  V30 10997 H 1032.68 0.402055 0.537208 0
M  V30 10998 H 1035.23 1.67582 1.17203 0
M  V30 10999 H 1033.38 1.3447 3.63313 0
M  V30 11000 H 1033.8 3.54626 3.86446 0
M  V30 11001 H 1035.27 2.28851 5.02326 0
M  V30 11002 H 1035.75 0.740823 4.32907 0
M  V30 11003 H 1036.35 2.25007 3.60904 0
M  V30 11004 N 1034.67 -1.14067 1.0875 0
M  V30 11005 C 1035.9 -1.89582 0.841038 0
M  V30 11006 C 1036.32 -1.78226 -0.601436 0
M  V30 11007 O 1035.68 -1.12491 -1.42181 0
M  V30 11008 C 1035.73 -3.37415 1.27213 0
M  V30 11009 O 1034.83 -4.10191 0.426246 0
M  V30 11010 H 1034.17 -0.589716 0.305173 0
M  V30 11011 H 1036.7 -1.44364 1.44984 0
M  V30 11012 H 1036.71 -3.88234 1.25451 0
M  V30 11013 H 1035.39 -3.44999 2.32268 0
M  V30 11014 H 1033.96 -3.69429 0.507585 0
M  V30 11015 N 1036.15 -0.873678 -1.31166 0
M  V30 11016 C 1037.11 -0.337069 -2.26708 0
M  V30 11017 C 1038.11 0.51406 -1.52362 0
M  V30 11018 O 1039.3 0.322834 -1.71182 0
M  V30 11019 C 1036.43 0.520897 -3.36897 0
M  V30 11020 H 1037.63 -1.18056 -2.75686 0
M  V30 11021 H 1035.18 -0.649577 -1.42163 0
M  V30 11022 H 1035.91 1.38543 -2.93217 0
M  V30 11023 H 1035.7 -0.0886015 -3.92 0
M  V30 11024 H 1037.19 0.888497 -4.08039 0
M  V30 11025 N 1037.63 1.44308 -0.633487 0
M  V30 11026 C 1038.56 2.33431 0.0568402 0
M  V30 11027 C 1039.54 1.48342 0.832386 0
M  V30 11028 O 1040.72 1.77056 0.797798 0
M  V30 11029 C 1037.85 3.31443 1.03743 0
M  V30 11030 C 1036.81 4.26368 0.373362 0
M  V30 11031 C 1036.13 5.14267 1.46403 0
M  V30 11032 C 1037.43 5.17287 -0.721876 0
M  V30 11033 H 1039.13 2.91402 -0.687388 0
M  V30 11034 H 1036.67 1.4012 -0.332009 0
M  V30 11035 H 1038.63 3.92677 1.52913 0
M  V30 11036 H 1037.35 2.71686 1.81258 0
M  V30 11037 H 1036.01 3.6647 -0.0977053 0
M  V30 11038 H 1035.66 4.50861 2.23011 0
M  V30 11039 H 1035.36 5.7859 1.02506 0
M  V30 11040 H 1036.88 5.78373 1.95748 0
M  V30 11041 H 1038.29 5.72444 -0.313181 0
M  V30 11042 H 1036.69 5.90226 -1.08413 0
M  V30 11043 H 1037.76 4.58159 -1.58804 0
M  V30 11044 N 1039.1 0.374177 1.53094 0
M  V30 11045 C 1040.04 -0.511995 2.22382 0
M  V30 11046 C 1041.02 -1.07617 1.2189 0
M  V30 11047 O 1042.2 -1.13068 1.50824 0
M  V30 11048 C 1039.33 -1.70724 2.92525 0
M  V30 11049 C 1038.37 -1.26972 4.07161 0
M  V30 11050 S 1039.21 -0.263835 5.3485 0
M  V30 11051 C 1040.36 -1.46521 6.08508 0
M  V30 11052 H 1040.59 0.0764311 2.97202 0
M  V30 11053 H 1038.13 0.158307 1.53586 0
M  V30 11054 H 1040.09 -2.39279 3.3355 0
M  V30 11055 H 1038.75 -2.26693 2.17414 0
M  V30 11056 H 1037.94 -2.16172 4.55286 0
M  V30 11057 H 1037.54 -0.663273 3.68072 0
M  V30 11058 H 1039.83 -2.39483 6.33762 0
M  V30 11059 H 1040.78 -1.02517 7.0064 0
M  V30 11060 H 1041.18 -1.67516 5.39072 0
M  V30 11061 N 1040.58 -1.57259 0.103575 0
M  V30 11062 C 1041.49 -2.18018 -0.866327 0
M  V30 11063 C 1042.51 -1.15198 -1.30404 0
M  V30 11064 O 1043.68 -1.47605 -1.37021 0
M  V30 11065 C 1040.75 -2.75533 -2.10434 0
M  V30 11066 C 1039.81 -3.93337 -1.72002 0
M  V30 11067 C 1039.04 -4.481 -2.89901 0
M  V30 11068 O 1039.27 -4.01784 -4.04877 0
M  V30 11069 O 1038.2 -5.39004 -2.67877 0
M  V30 11070 H 1042.03 -3.01322 -0.379338 0
M  V30 11071 H 1039.61 -1.48907 -0.121228 0
M  V30 11072 H 1041.49 -3.12259 -2.8297 0
M  V30 11073 H 1040.17 -1.9527 -2.58169 0
M  V30 11074 H 1039.08 -3.61408 -0.966193 0
M  V30 11075 H 1040.41 -4.74989 -1.29022 0
M  V30 11076 N 1042.06 0.170153 -1.56679 0
M  V30 11077 C 1043.02 1.19443 -1.95617 0
M  V30 11078 C 1044.02 1.37118 -0.83996 0
M  V30 11079 O 1045.21 1.34504 -1.10699 0
M  V30 11080 C 1042.35 2.55926 -2.25199 0
M  V30 11081 H 1043.54 0.86095 -2.87276 0
M  V30 11082 H 1041.09 0.412646 -1.50755 0
M  V30 11083 H 1041.83 2.94286 -1.36257 0
M  V30 11084 H 1041.61 2.44464 -3.06562 0
M  V30 11085 H 1043.1 3.29742 -2.56242 0
M  V30 11086 N 1043.54 1.5137 0.438746 0
M  V30 11087 C 1044.45 1.75424 1.55768 0
M  V30 11088 C 1045.46 0.638409 1.61865 0
M  V30 11089 O 1046.64 0.9205 1.79133 0
M  V30 11090 C 1043.71 1.87288 2.9176 0
M  V30 11091 C 1042.77 3.11137 2.95791 0
M  V30 11092 C 1042 3.22425 4.25297 0
M  V30 11093 O 1042.22 2.39688 5.17596 0
M  V30 11094 O 1041.16 4.15393 4.35583 0
M  V30 11095 H 1044.98 2.70339 1.38386 0
M  V30 11096 H 1042.57 1.35854 0.621609 0
M  V30 11097 H 1044.45 1.97085 3.72472 0
M  V30 11098 H 1043.12 0.955599 3.09273 0
M  V30 11099 H 1042.03 3.06819 2.1404 0
M  V30 11100 H 1043.36 4.02549 2.83223 0
M  V30 11101 N 1045.02 -0.694098 1.41492 0
M  V30 11102 C 1046.26 -1.4563 1.41137 0
M  V30 11103 C 1046.6 -1.94189 0.0208428 0
M  V30 11104 O 1045.87 -1.69628 -0.951655 0
M  V30 11105 C 1046.15 -2.66714 2.41941 0
M  V30 11106 C 1046.01 -2.23912 3.90107 0
M  V30 11107 C 1047.33 -3.68913 2.39981 0
M  V30 11108 H 1044.44 -0.52821 0.513968 0
M  V30 11109 H 1047.09 -0.790437 1.72778 0
M  V30 11110 H 1045.24 -3.23525 2.1509 0
M  V30 11111 H 1046.91 -1.72417 4.27867 0
M  V30 11112 H 1045.15 -1.5568 4.04903 0
M  V30 11113 H 1045.82 -3.108 4.56188 0
M  V30 11114 H 1048.3 -3.21779 2.63813 0
M  V30 11115 H 1047.17 -4.51242 3.12524 0
M  V30 11116 H 1047.44 -4.18711 1.41892 0
M  V30 11117 N 1046.49 -1.27344 -0.928501 0
M  V30 11118 C 1047.74 -1.13411 -1.67279 0
M  V30 11119 C 1048.06 0.320698 -1.92345 0
M  V30 11120 O 1047.33 1.2245 -1.52915 0
M  V30 11121 H 1045.91 -0.416712 -0.619968 0
M  V30 11122 H 1048.58 -1.5986 -1.11493 0
M  V30 11123 H 1047.67 -1.66256 -2.64131 0
M  V30 11124 N 1047.97 1.13488 -1.09353 0
M  V30 11125 C 1048.92 2.18876 -0.732251 0
M  V30 11126 C 1049.89 1.63616 0.286175 0
M  V30 11127 O 1051.07 1.90059 0.167981 0
M  V30 11128 C 1048.21 3.44737 -0.158157 0
M  V30 11129 C 1047.33 4.14104 -1.23053 0
M  V30 11130 C 1046.46 5.27578 -0.619272 0
M  V30 11131 C 1045.5 5.88793 -1.67301 0
M  V30 11132 N 1044.64 6.937 -1.08283 0
M  V30 11133 H 1049.48 2.49128 -1.63522 0
M  V30 11134 H 1047.02 1.22326 -0.816995 0
M  V30 11135 H 1048.97 4.16756 0.192488 0
M  V30 11136 H 1047.6 3.14938 0.708082 0
M  V30 11137 H 1046.66 3.40376 -1.69847 0
M  V30 11138 H 1047.97 4.55683 -2.02865 0
M  V30 11139 H 1047.12 6.0631 -0.217428 0
M  V30 11140 H 1045.86 4.87246 0.210399 0
M  V30 11141 H 1044.87 5.08756 -2.0844 0
M  V30 11142 H 1046.09 6.31197 -2.50533 0
M  V30 11143 H 1044.04 6.55426 -0.274426 0
M  V30 11144 H 1043.95 7.33817 -1.81792 0
M  V30 11145 H 1045.22 7.76286 -0.707167 0
M  V30 11146 N 1049.45 0.880621 1.30701 0
M  V30 11147 C 1050.4 0.315679 2.25804 0
M  V30 11148 C 1051.39 -0.553382 1.51084 0
M  V30 11149 O 1052.58 -0.398518 1.72455 0
M  V30 11150 C 1049.71 -0.472586 3.40032 0
M  V30 11151 C 1048.79 0.410318 4.2211 0
M  V30 11152 N 1049.18 1.50876 4.82773 0
M  V30 11153 C 1047.48 0.20465 4.4553 0
M  V30 11154 C 1048.18 2.05409 5.44226 0
M  V30 11155 N 1047.16 1.34964 5.26579 0
M  V30 11156 H 1050.96 1.15505 2.70251 0
M  V30 11157 H 1048.47 0.729547 1.45091 0
M  V30 11158 H 1050.47 -0.893918 4.07204 0
M  V30 11159 H 1049.13 -1.30945 2.97125 0
M  V30 11160 H 1050.14 1.89163 4.82118 0
M  V30 11161 H 1046.82 -0.595398 4.13233 0
M  V30 11162 H 1048.21 2.97627 6.02385 0
M  V30 11163 N 1050.93 -1.4397 0.641131 0
M  V30 11164 C 1052.16 -2.06303 0.157006 0
M  V30 11165 C 1052.57 -1.47981 -1.17248 0
M  V30 11166 O 1051.93 -0.606471 -1.72128 0
M  V30 11167 C 1051.98 -3.6147 0.0468425 0
M  V30 11168 O 1051.7 -4.17622 1.32376 0
M  V30 11169 C 1053.2 -4.40857 -0.464795 0
M  V30 11170 H 1050.42 -0.665684 0.0842946 0
M  V30 11171 H 1052.97 -1.84675 0.878363 0
M  V30 11172 H 1051.12 -3.82325 -0.625006 0
M  V30 11173 H 1051.54 -5.11167 1.17509 0
M  V30 11174 H 1053.01 -5.49813 -0.490862 0
M  V30 11175 H 1053.49 -4.13016 -1.4938 0
M  V30 11176 H 1054.09 -4.24943 0.174146 0
M  V30 11177 N 1052.41 -0.382291 -1.52893 0
M  V30 11178 C 1053.63 0.204961 -2.06385 0
M  V30 11179 C 1054.06 1.40316 -1.25271 0
M  V30 11180 O 1053.42 1.79187 -0.275969 0
M  V30 11181 C 1053.46 0.560205 -3.56222 0
M  V30 11182 O 1052.57 1.65515 -3.77728 0
M  V30 11183 H 1051.91 0.0258798 -0.663495 0
M  V30 11184 H 1054.44 -0.547733 -1.97132 0
M  V30 11185 H 1054.45 0.826501 -3.99541 0
M  V30 11186 H 1053.12 -0.31584 -4.14699 0
M  V30 11187 H 1051.7 1.38311 -3.46301 0
M  V30 11188 N 1053.89 1.57202 -0.111913 0
M  V30 11189 C 1055.11 1.99723 0.559054 0
M  V30 11190 C 1055.54 0.990968 1.59879 0
M  V30 11191 O 1054.89 -0.038311 1.8126 0
M  V30 11192 C 1054.94 3.41151 1.16826 0
M  V30 11193 O 1054.05 3.43383 2.2839 0
M  V30 11194 H 1053.39 0.649004 0.140319 0
M  V30 11195 H 1055.92 2.03637 -0.198295 0
M  V30 11196 H 1055.93 3.79208 1.50551 0
M  V30 11197 H 1054.6 4.13907 0.406637 0
M  V30 11198 H 1053.18 3.17138 1.96158 0
M  V30 11199 N 1055.36 -0.161842 1.56767 0
M  V30 11200 C 1056.59 -0.892247 1.86672 0
M  V30 11201 C 1057.01 -1.75407 0.69841 0
M  V30 11202 O 1056.36 -1.7945 -0.332251 0
M  V30 11203 C 1056.41 -1.7612 3.15696 0
M  V30 11204 O 1056.14 -0.934131 4.28025 0
M  V30 11205 C 1057.64 -2.60046 3.59014 0
M  V30 11206 H 1054.86 -0.258747 0.619105 0
M  V30 11207 H 1057.4 -0.159089 2.0388 0
M  V30 11208 H 1055.56 -2.44759 3.00286 0
M  V30 11209 H 1055.97 -1.52931 5.01709 0
M  V30 11210 H 1057.44 -3.16618 4.5217 0
M  V30 11211 H 1057.92 -3.35374 2.83586 0
M  V30 11212 H 1058.53 -1.96724 3.77067 0
M  V30 11213 N 1056.84 -1.516 -0.430713 0
M  V30 11214 C 1058.07 -1.687 -1.20644 0
M  V30 11215 C 1058.49 -0.386555 -1.84085 0
M  V30 11216 O 1057.85 0.653952 -1.69095 0
M  V30 11217 C 1057.9 -2.80887 -2.2613 0
M  V30 11218 O 1057 -2.44952 -3.31772 0
M  V30 11219 H 1056.34 -0.562289 -0.353167 0
M  V30 11220 H 1058.87 -1.98198 -0.507807 0
M  V30 11221 H 1058.88 -3.05167 -2.70809 0
M  V30 11222 H 1057.56 -3.75249 -1.79334 0
M  V30 11223 H 1056.13 -2.31267 -2.92523 0
M  V30 11224 N 1058.32 0.686584 -1.41858 0
M  V30 11225 C 1059.27 1.80038 -1.44413 0
M  V30 11226 C 1060.24 1.63415 -0.297427 0
M  V30 11227 O 1061.42 1.84138 -0.499789 0
M  V30 11228 C 1058.56 3.17988 -1.34082 0
M  V30 11229 C 1057.67 3.45979 -2.58693 0
M  V30 11230 C 1056.81 4.73592 -2.4059 0
M  V30 11231 C 1055.85 4.94581 -3.60633 0
M  V30 11232 N 1054.99 6.13426 -3.41545 0
M  V30 11233 H 1059.83 1.77189 -2.396 0
M  V30 11234 H 1057.36 0.865158 -1.18968 0
M  V30 11235 H 1059.32 3.97689 -1.26092 0
M  V30 11236 H 1057.95 3.1999 -0.424975 0
M  V30 11237 H 1057 2.60617 -2.77097 0
M  V30 11238 H 1058.31 3.57386 -3.47961 0
M  V30 11239 H 1057.47 5.61364 -2.30119 0
M  V30 11240 H 1056.21 4.64448 -1.48794 0
M  V30 11241 H 1055.21 4.05254 -3.71549 0
M  V30 11242 H 1056.44 5.05578 -4.53395 0
M  V30 11243 H 1054.38 6.05477 -2.52456 0
M  V30 11244 H 1054.3 6.25641 -4.24393 0
M  V30 11245 H 1055.57 7.03908 -3.34864 0
M  V30 11246 N 1059.8 1.27835 0.921735 0
M  V30 11247 C 1061.21 1.05369 1.19873 0
M  V30 11248 C 1061.41 -0.208997 2.00413 0
M  V30 11249 O 1060.47 -0.912861 2.35421 0
M  V30 11250 C 1061.78 2.29658 1.94108 0
M  V30 11251 C 1063.33 2.34756 2.07023 0
M  V30 11252 C 1063.81 3.5879 2.84664 0
M  V30 11253 N 1065.3 3.59383 2.9223 0
M  V30 11254 C 1066.03 4.52029 3.52785 0
M  V30 11255 N 1065.53 5.54986 4.14683 0
M  V30 11256 N 1067.32 4.39641 3.50246 0
M  V30 11257 H 1059.47 2.08903 0.383819 0
M  V30 11258 H 1061.73 0.919065 0.232429 0
M  V30 11259 H 1061.44 3.21604 1.4235 0
M  V30 11260 H 1061.31 2.35444 2.94696 0
M  V30 11261 H 1063.7 1.43312 2.57965 0
M  V30 11262 H 1063.78 2.32969 1.05636 0
M  V30 11263 H 1063.43 4.50574 2.34404 0
M  V30 11264 H 1063.36 3.57829 3.86349 0
M  V30 11265 H 1065.85 2.84927 2.48244 0
M  V30 11266 H 1066.16 6.21837 4.58845 0
M  V30 11267 H 1064.51 5.58822 4.13211 0
M  V30 11268 H 1067.7 3.58413 3.01094 0
M  V30 11269 H 1067.87 5.12033 3.97148 0
M  V30 11270 N 1061.28 -1.12907 1.09954 0
M  V30 11271 C 1062.23 -2.16558 0.713204 0
M  V30 11272 C 1063.21 -1.5853 -0.27515 0
M  V30 11273 O 1064.4 -1.76797 -0.0846643 0
M  V30 11274 C 1061.53 -3.43009 0.141224 0
M  V30 11275 C 1060.62 -4.08032 1.15632 0
M  V30 11276 N 1061.01 -4.48139 2.34531 0
M  V30 11277 C 1059.31 -4.34743 0.995701 0
M  V30 11278 C 1060.01 -4.98885 2.99147 0
M  V30 11279 N 1058.98 -4.9408 2.26684 0
M  V30 11280 H 1062.78 -2.45328 1.61838 0
M  V30 11281 H 1060.3 -1.29759 0.976539 0
M  V30 11282 H 1062.3 -4.16617 -0.153598 0
M  V30 11283 H 1060.96 -3.15711 -0.758729 0
M  V30 11284 H 1061.97 -4.40668 2.72089 0
M  V30 11285 H 1058.64 -4.17227 0.150888 0
M  V30 11286 H 1060.03 -5.3967 4.00257 0
M  V30 11287 N 1062.75 -0.88754 -1.30232 0
M  V30 11288 C 1063.7 -0.345765 -2.30016 0
M  V30 11289 C 1064.7 0.5486 -1.60271 0
M  V30 11290 O 1065.9 0.43275 -1.74721 0
M  V30 11291 H 1062.28 -0.0931623 -0.746207 0
M  V30 11292 H 1064.25 -1.20095 -2.73166 0
M  V30 11293 C 1063 0.422435 -3.45124 0
M  V30 11294 H 1062.32 -0.256516 -3.98976 0
M  V30 11295 H 1063.76 0.766572 -4.17013 0
M  V30 11296 C 1062.22 1.62049 -2.95367 0
M  V30 11297 O 1062.75 2.71985 -2.95613 0
M  V30 11298 N 1060.95 1.45852 -2.51347 0
M  V30 11299 H 1060.5 0.564158 -2.51346 0
M  V30 11300 H 1060.46 2.26148 -2.18413 0
M  V30 11301 N 1064.23 1.43628 -0.648757 0
M  V30 11302 C 1065.46 2.05918 -0.167701 0
M  V30 11303 C 1065.87 1.48681 1.17006 0
M  V30 11304 O 1065.21 0.610984 1.73242 0
M  V30 11305 C 1065.28 3.595 0.00265514 0
M  V30 11306 C 1064.94 4.39295 -1.2597 0
M  V30 11307 C 1065.94 4.71643 -2.18743 0
M  V30 11308 C 1063.62 4.79379 -1.50004 0
M  V30 11309 C 1065.62 5.42978 -3.33846 0
M  V30 11310 C 1063.3 5.50459 -2.65401 0
M  V30 11311 C 1064.3 5.82181 -3.57148 0
M  V30 11312 O 1063.99 6.5181 -4.7053 0
M  V30 11313 H 1063.72 0.670619 -0.0851261 0
M  V30 11314 H 1066.27 1.85196 -0.888351 0
M  V30 11315 H 1064.5 3.7878 0.77863 0
M  V30 11316 H 1066.19 4.03503 0.440501 0
M  V30 11317 H 1066.96 4.41199 -2.01416 0
M  V30 11318 H 1062.84 4.54098 -0.794745 0
M  V30 11319 H 1066.38 5.67656 -4.05479 0
M  V30 11320 H 1062.28 5.8032 -2.82664 0
M  V30 11321 H 1063.05 6.7029 -4.69738 0
M  V30 11322 N 1065.71 0.390394 1.52688 0
M  V30 11323 C 1067.13 0.0404028 1.59549 0
M  V30 11324 C 1067.33 -1.44503 1.40432 0
M  V30 11325 O 1066.38 -2.20968 1.22187 0
M  V30 11326 C 1067.7 0.518561 2.96195 0
M  V30 11327 C 1069.24 0.474913 3.09376 0
M  V30 11328 C 1069.72 0.929278 4.48473 0
M  V30 11329 N 1071.21 0.885335 4.5466 0
M  V30 11330 C 1071.94 1.2083 5.60524 0
M  V30 11331 N 1071.44 1.6018 6.74028 0
M  V30 11332 N 1073.23 1.12949 5.50635 0
M  V30 11333 H 1065.38 1.35743 1.63363 0
M  V30 11334 H 1067.65 0.556453 0.767505 0
M  V30 11335 H 1067.35 1.55606 3.15404 0
M  V30 11336 H 1067.23 -0.081779 3.77111 0
M  V30 11337 H 1069.61 -0.553503 2.89863 0
M  V30 11338 H 1069.7 1.11107 2.3041 0
M  V30 11339 H 1069.34 1.95593 4.68728 0
M  V30 11340 H 1069.27 0.270121 5.25907 0
M  V30 11341 H 1071.76 0.595787 3.73174 0
M  V30 11342 H 1072.07 1.83184 7.50775 0
M  V30 11343 H 1070.42 1.64067 6.75357 0
M  V30 11344 H 1073.61 0.821074 4.60843 0
M  V30 11345 H 1073.78 1.3845 6.33037 0
M  V30 11346 N 1067.19 -1.57141 0.120249 0
M  V30 11347 C 1068.1 -2.18925 -0.843155 0
M  V30 11348 C 1069.11 -1.16575 -1.29175 0
M  V30 11349 O 1070.29 -1.4905 -1.35448 0
M  V30 11350 C 1067.36 -2.7775 -2.075 0
M  V30 11351 C 1066.42 -3.95139 -1.6782 0
M  V30 11352 C 1065.65 -4.51149 -2.85132 0
M  V30 11353 O 1065.87 -4.06056 -4.00593 0
M  V30 11354 O 1064.81 -5.41815 -2.62145 0
M  V30 11355 H 1068.63 -3.01707 -0.347357 0
M  V30 11356 H 1066.22 -1.49028 -0.105427 0
M  V30 11357 H 1068.1 -3.15243 -2.79643 0
M  V30 11358 H 1066.77 -1.97998 -2.56083 0
M  V30 11359 H 1065.68 -3.62412 -0.927807 0
M  V30 11360 H 1067.01 -4.7633 -1.23977 0
M  V30 11361 N 1068.67 0.153526 -1.5685 0
M  V30 11362 C 1069.6 1.19162 -2.00805 0
M  V30 11363 C 1070.58 1.45172 -0.886518 0
M  V30 11364 O 1071.76 1.56203 -1.15387 0
M  V30 11365 C 1068.89 2.52637 -2.38311 0
M  V30 11366 C 1067.85 2.41161 -3.53589 0
M  V30 11367 C 1067.17 3.79287 -3.76889 0
M  V30 11368 C 1068.47 1.90122 -4.86468 0
M  V30 11369 H 1070.17 0.82617 -2.87776 0
M  V30 11370 H 1067.71 0.395972 -1.38449 0
M  V30 11371 H 1069.67 3.25478 -2.6766 0
M  V30 11372 H 1068.39 2.91005 -1.4827 0
M  V30 11373 H 1067.05 1.70772 -3.24395 0
M  V30 11374 H 1066.7 4.15079 -2.84109 0
M  V30 11375 H 1066.4 3.72472 -4.54465 0
M  V30 11376 H 1067.92 4.53687 -4.08657 0
M  V30 11377 H 1069.33 2.52752 -5.14577 0
M  V30 11378 H 1067.73 1.94214 -5.67804 0
M  V30 11379 H 1068.8 0.856517 -4.77275 0
M  V30 11380 N 1070.14 1.51827 0.422667 0
M  V30 11381 C 1071.37 1.69049 1.1929 0
M  V30 11382 C 1071.79 0.394095 1.84641 0
M  V30 11383 O 1071.14 -0.628731 1.71328 0
M  V30 11384 C 1071.2 2.81657 2.26609 0
M  V30 11385 O 1070.92 4.06275 1.63929 0
M  V30 11386 C 1072.42 3.10274 3.16615 0
M  V30 11387 H 1069.64 0.566894 0.358988 0
M  V30 11388 H 1072.18 1.98318 0.499029 0
M  V30 11389 H 1070.34 2.54945 2.91688 0
M  V30 11390 H 1070.75 4.68924 2.3497 0
M  V30 11391 H 1072.22 3.92613 3.88019 0
M  V30 11392 H 1072.7 2.23273 3.78214 0
M  V30 11393 H 1073.31 3.387 2.57221 0
M  V30 11394 N 1071.62 -0.679052 1.4222 0
M  V30 11395 C 1072.55 -1.80481 1.48152 0
M  V30 11396 C 1073.53 -1.66698 0.338502 0
M  V30 11397 O 1074.72 -1.86183 0.552228 0
M  V30 11398 C 1071.85 -3.18746 1.37908 0
M  V30 11399 C 1070.8 -3.47258 2.50192 0
M  V30 11400 C 1070.13 -4.85052 2.25008 0
M  V30 11401 C 1071.43 -3.44576 3.92511 0
M  V30 11402 H 1073.12 -1.75774 2.42371 0
M  V30 11403 H 1070.67 -0.844241 1.16656 0
M  V30 11404 H 1072.62 -3.97229 1.40666 0
M  V30 11405 H 1071.35 -3.24119 0.401806 0
M  V30 11406 H 1070 -2.71133 2.46744 0
M  V30 11407 H 1069.65 -4.8707 1.25584 0
M  V30 11408 H 1069.35 -5.05092 3.00259 0
M  V30 11409 H 1070.88 -5.65825 2.29508 0
M  V30 11410 H 1072.29 -4.13036 3.97585 0
M  V30 11411 H 1070.69 -3.76151 4.67579 0
M  V30 11412 H 1071.76 -2.4323 4.19484 0
M  V30 11413 N 1073.1 -1.28322 -0.914942 0
M  V30 11414 C 1074.03 -1.07947 -2.02188 0
M  V30 11415 C 1075.05 -0.0315743 -1.62769 0
M  V30 11416 O 1076.23 -0.274503 -1.76377 0
M  V30 11417 C 1073.33 -0.61805 -3.33217 0
M  V30 11418 C 1072.51 -1.74109 -4.01254 0
M  V30 11419 C 1071.57 -1.27325 -5.10563 0
M  V30 11420 O 1070.59 -1.97526 -5.33828 0
M  V30 11421 N 1071.79 -0.1358 -5.80341 0
M  V30 11422 H 1074.56 -2.03275 -2.20225 0
M  V30 11423 H 1072.12 -1.20059 -1.08616 0
M  V30 11424 H 1074.11 -0.288693 -4.03669 0
M  V30 11425 H 1072.68 0.242348 -3.11659 0
M  V30 11426 H 1071.9 -2.2401 -3.24366 0
M  V30 11427 H 1073.19 -2.49448 -4.43456 0
M  V30 11428 H 1072.59 0.449846 -5.63909 0
M  V30 11429 H 1071.15 0.134289 -6.51662 0
M  V30 11430 N 1074.58 1.12322 -1.10551 0
M  V30 11431 C 1075.99 1.35858 -0.837543 0
M  V30 11432 C 1076.19 1.94062 0.54241 0
M  V30 11433 O 1075.25 2.1676 1.29505 0
M  V30 11434 C 1076.56 2.299 -1.9382 0
M  V30 11435 C 1078.11 2.43488 -1.96679 0
M  V30 11436 C 1078.59 3.40846 -3.05922 0
M  V30 11437 N 1080.08 3.48404 -3.05236 0
M  V30 11438 C 1080.81 4.2365 -3.86405 0
M  V30 11439 N 1080.31 5.01951 -4.77512 0
M  V30 11440 N 1082.1 4.19068 -3.74618 0
M  V30 11441 H 1074.25 0.729002 -1.99498 0
M  V30 11442 H 1076.52 0.38339 -0.867016 0
M  V30 11443 H 1076.22 1.94309 -2.9315 0
M  V30 11444 H 1076.1 3.30033 -1.82641 0
M  V30 11445 H 1078.48 2.78359 -0.979813 0
M  V30 11446 H 1078.56 1.43239 -2.11934 0
M  V30 11447 H 1078.21 3.06704 -4.04839 0
M  V30 11448 H 1078.14 4.40927 -2.87907 0
M  V30 11449 H 1080.63 2.92545 -2.39219 0
M  V30 11450 H 1080.94 5.56707 -5.36002 0
M  V30 11451 H 1079.29 5.01143 -4.8154 0
M  V30 11452 H 1082.48 3.5698 -3.02792 0
M  V30 11453 H 1082.65 4.77455 -4.38111 0
M  V30 11454 N 1076.06 0.894434 1.2976 0
M  V30 11455 C 1077.47 0.589778 1.48303 0
M  V30 11456 C 1077.67 -0.870085 1.81746 0
M  V30 11457 O 1076.73 -1.65065 1.91076 0
M  V30 11458 C 1078.04 1.51107 2.59975 0
M  V30 11459 C 1079.59 1.51571 2.73853 0
M  V30 11460 C 1080.06 2.42316 3.88648 0
M  V30 11461 N 1081.56 2.40333 3.95973 0
M  V30 11462 C 1082.29 3.07254 4.84131 0
M  V30 11463 N 1081.79 3.83435 5.77018 0
M  V30 11464 N 1083.58 2.96438 4.77578 0
M  V30 11465 H 1075.73 1.83871 1.06327 0
M  V30 11466 H 1077.99 0.78758 0.527657 0
M  V30 11467 H 1077.7 2.55097 2.42112 0
M  V30 11468 H 1077.57 1.22767 3.56662 0
M  V30 11469 H 1079.96 0.483277 2.91116 0
M  V30 11470 H 1080.04 1.83946 1.77757 0
M  V30 11471 H 1079.69 3.4565 3.72141 0
M  V30 11472 H 1079.62 2.07252 4.84101 0
M  V30 11473 H 1082.11 1.84979 3.29532 0
M  V30 11474 H 1082.42 4.31565 6.4107 0
M  V30 11475 H 1080.76 3.87542 5.7692 0
M  V30 11476 H 1083.96 2.36442 4.03996 0
M  V30 11477 H 1084.13 3.48867 5.46073 0
M  V30 11478 N 1077.53 -1.43282 0.656365 0
M  V30 11479 C 1078.78 -2.01378 0.170702 0
M  V30 11480 C 1079.1 -1.52063 -1.22073 0
M  V30 11481 O 1078.37 -0.73456 -1.81607 0
M  V30 11482 H 1076.95 -0.744577 0.0601168 0
M  V30 11483 H 1079.62 -1.75449 0.848739 0
M  V30 11484 H 1078.71 -3.11701 0.157745 0
M  V30 11485 N 1079.01 -0.398486 -1.52479 0
M  V30 11486 C 1080.29 0.238776 -1.94137 0
M  V30 11487 C 1080.67 1.63558 -1.33462 0
M  V30 11488 O 1080.02 2.22821 -0.506272 0
M  V30 11489 C 1080.23 0.255863 -3.48061 0
M  V30 11490 C 1081.58 0.480376 -4.21874 0
M  V30 11491 O 1082.6 0.335679 -3.54615 0
M  V30 11492 O 1081.46 0.764654 -5.41124 0
M  V30 11493 H 1078.55 0.150806 -0.813134 0
M  V30 11494 H 1081.1 -0.453659 -1.63524 0
M  V30 11495 H 1079.87 -0.722171 -3.84578 0
M  V30 11496 H 1079.49 0.99284 -3.85004 0
M  V30 11497 N 1080.49 1.57075 -0.12858 0
M  V30 11498 C 1081.72 2.00305 0.537839 0
M  V30 11499 C 1082.14 1.00787 1.58819 0
M  V30 11500 O 1081.5 -0.0190839 1.8129 0
M  V30 11501 C 1081.55 3.42371 1.13201 0
M  V30 11502 O 1080.65 3.45786 2.24735 0
M  V30 11503 H 1079.99 0.650456 0.133428 0
M  V30 11504 H 1082.52 2.03415 -0.219882 0
M  V30 11505 H 1082.53 3.80783 1.4652 0
M  V30 11506 H 1081.21 4.14315 0.362713 0
M  V30 11507 H 1079.78 3.19201 1.92783 0
M  V30 11508 N 1081.97 -0.145205 1.5693 0
M  V30 11509 C 1083.2 -0.872398 1.87608 0
M  V30 11510 C 1083.61 -1.74657 0.716975 0
M  V30 11511 O 1082.97 -1.79792 -0.3132 0
M  V30 11512 C 1083.02 -1.72762 3.17546 0
M  V30 11513 O 1082.74 -0.888681 4.28992 0
M  V30 11514 C 1084.24 -2.56224 3.61751 0
M  V30 11515 H 1081.46 -0.252166 0.621815 0
M  V30 11516 H 1084.01 -0.137456 2.04038 0
M  V30 11517 H 1082.16 -2.41561 3.02865 0
M  V30 11518 H 1082.58 -1.47601 5.03303 0
M  V30 11519 H 1084.05 -3.11804 4.55502 0
M  V30 11520 H 1084.53 -3.32347 2.87127 0
M  V30 11521 H 1085.13 -1.92714 3.79133 0
M  V30 11522 N 1083.45 -1.52049 -0.414609 0
M  V30 11523 C 1084.4 -1.7138 -1.50376 0
M  V30 11524 C 1085.38 -0.567692 -1.50553 0
M  V30 11525 O 1086.57 -0.824541 -1.56622 0
M  V30 11526 C 1083.7 -1.86291 -2.88358 0
M  V30 11527 C 1082.79 -3.06757 -2.9285 0
M  V30 11528 N 1083.18 -4.29557 -2.67048 0
M  V30 11529 C 1081.48 -3.06478 -3.24018 0
M  V30 11530 C 1082.18 -5.10988 -2.77968 0
M  V30 11531 N 1081.15 -4.46117 -3.10613 0
M  V30 11532 H 1084.96 -2.63972 -1.29213 0
M  V30 11533 H 1082.47 -1.50006 -0.622244 0
M  V30 11534 H 1084.47 -1.98256 -3.66743 0
M  V30 11535 H 1083.13 -0.948959 -3.10524 0
M  V30 11536 H 1084.14 -4.58122 -2.41546 0
M  V30 11537 H 1080.82 -2.24799 -3.51812 0
M  V30 11538 H 1082.21 -6.18806 -2.6178 0
M  V30 11539 N 1084.93 0.6715 -1.42579 0
M  V30 11540 C 1086.34 0.985019 -1.25577 0
M  V30 11541 C 1086.54 2.00845 -0.162319 0
M  V30 11542 O 1085.6 2.48175 0.465352 0
M  V30 11543 C 1086.91 1.48668 -2.61377 0
M  V30 11544 C 1088.46 1.60429 -2.68759 0
M  V30 11545 C 1088.93 2.13991 -4.04935 0
M  V30 11546 N 1090.42 2.21319 -4.06906 0
M  V30 11547 C 1091.16 2.63845 -5.09091 0
M  V30 11548 N 1090.66 3.05799 -6.21658 0
M  V30 11549 N 1092.45 2.63623 -4.96447 0
M  V30 11550 H 1084.6 -0.00604561 -2.12399 0
M  V30 11551 H 1086.86 0.0598299 -0.94611 0
M  V30 11552 H 1086.57 0.80917 -3.42265 0
M  V30 11553 H 1086.44 2.46487 -2.85524 0
M  V30 11554 H 1088.83 2.27286 -1.88216 0
M  V30 11555 H 1088.91 0.610909 -2.48398 0
M  V30 11556 H 1088.55 1.47741 -4.85937 0
M  V30 11557 H 1088.48 3.14126 -4.2265 0
M  V30 11558 H 1090.98 1.91743 -3.25643 0
M  V30 11559 H 1091.29 3.36944 -6.95477 0
M  V30 11560 H 1089.63 3.03648 -6.25158 0
M  V30 11561 H 1092.82 2.30211 -4.07579 0
M  V30 11562 H 1093 2.96444 -5.76216 0
M  V30 11563 N 1086.4 1.28806 0.908124 0
M  V30 11564 C 1087.82 1.06634 1.18749 0
M  V30 11565 C 1088.02 -0.187729 2.00624 0
M  V30 11566 O 1087.08 -0.88784 2.36376 0
M  V30 11567 C 1088.39 2.31703 1.91661 0
M  V30 11568 C 1089.94 2.36939 2.04521 0
M  V30 11569 C 1090.41 3.61789 2.80843 0
M  V30 11570 N 1091.9 3.62462 2.88402 0
M  V30 11571 C 1092.64 4.55746 3.47971 0
M  V30 11572 N 1092.13 5.59353 4.08774 0
M  V30 11573 N 1093.93 4.43331 3.45564 0
M  V30 11574 H 1086.08 2.09299 0.36164 0
M  V30 11575 H 1088.34 0.921479 0.222668 0
M  V30 11576 H 1088.05 3.23096 1.38931 0
M  V30 11577 H 1087.92 2.38556 2.92183 0
M  V30 11578 H 1090.31 1.4604 2.5643 0
M  V30 11579 H 1090.39 2.34077 1.03159 0
M  V30 11580 H 1090.03 4.53035 2.29612 0
M  V30 11581 H 1089.96 3.61907 3.82532 0
M  V30 11582 H 1092.45 2.87544 2.45208 0
M  V30 11583 H 1092.77 6.26668 4.52224 0
M  V30 11584 H 1091.11 5.63173 4.07261 0
M  V30 11585 H 1094.3 3.61587 2.97276 0
M  V30 11586 H 1094.48 5.16216 3.91695 0
M  V30 11587 N 1087.88 -1.11734 1.11145 0
M  V30 11588 C 1089.13 -1.83405 0.858413 0
M  V30 11589 C 1089.46 -1.84488 -0.615975 0
M  V30 11590 O 1088.71 -1.29123 -1.47057 0
M  V30 11591 C 1089.01 -3.3046 1.36129 0
M  V30 11592 C 1088.68 -3.4954 2.84837 0
M  V30 11593 C 1087.34 -3.54456 3.25445 0
M  V30 11594 C 1089.69 -3.56048 3.8063 0
M  V30 11595 C 1087.02 -3.63431 4.60581 0
M  V30 11596 C 1089.37 -3.66554 5.15579 0
M  V30 11597 C 1088.03 -3.69728 5.55749 0
M  V30 11598 H 1087.3 -0.671128 0.314115 0
M  V30 11599 H 1089.95 -1.31795 1.38933 0
M  V30 11600 H 1088.26 -3.84544 0.750547 0
M  V30 11601 H 1089.95 -3.84398 1.14188 0
M  V30 11602 H 1086.54 -3.46382 2.52423 0
M  V30 11603 H 1090.73 -3.51513 3.5036 0
M  V30 11604 H 1085.98 -3.64164 4.91116 0
M  V30 11605 H 1090.16 -3.70532 5.89643 0
M  V30 11606 H 1087.78 -3.76435 6.60455 0
M  V30 11607 N 1089.36 -0.901303 -1.29284 0
M  V30 11608 C 1090.78 -0.597634 -1.47988 0
M  V30 11609 C 1090.98 0.860434 -1.82205 0
M  V30 11610 O 1090.03 1.64049 -1.91948 0
M  V30 11611 C 1091.34 -1.52484 -2.5917 0
M  V30 11612 C 1092.89 -1.53021 -2.73045 0
M  V30 11613 C 1093.37 -2.44373 -3.87357 0
M  V30 11614 N 1094.86 -2.42429 -3.94693 0
M  V30 11615 C 1095.59 -3.09817 -4.82495 0
M  V30 11616 N 1095.09 -3.86489 -5.74976 0
M  V30 11617 N 1096.88 -2.98966 -4.76 0
M  V30 11618 H 1089.03 -1.84432 -1.0535 0
M  V30 11619 H 1091.3 -0.790367 -0.523473 0
M  V30 11620 H 1091 -2.56378 -2.40756 0
M  V30 11621 H 1090.88 -1.24657 -3.56006 0
M  V30 11622 H 1093.26 -0.498709 -2.90855 0
M  V30 11623 H 1093.34 -1.84886 -1.76779 0
M  V30 11624 H 1092.99 -3.47618 -3.70302 0
M  V30 11625 H 1092.92 -2.09817 -4.82995 0
M  V30 11626 H 1095.41 -1.86724 -3.28546 0
M  V30 11627 H 1095.72 -4.34959 -6.38773 0
M  V30 11628 H 1094.07 -3.90596 -5.74857 0
M  V30 11629 H 1097.26 -2.38581 -4.02737 0
M  V30 11630 H 1097.43 -3.51758 -5.44215 0
M  V30 11631 N 1090.84 1.42931 -0.663954 0
M  V30 11632 C 1091.75 2.3459 0.0214234 0
M  V30 11633 C 1092.76 1.54487 0.800611 0
M  V30 11634 O 1093.94 1.87098 0.74541 0
M  V30 11635 C 1091 3.32896 0.968556 0
M  V30 11636 C 1090.07 4.28901 0.185108 0
M  V30 11637 C 1089.3 5.2251 1.08713 0
M  V30 11638 O 1089.52 5.20795 2.32655 0
M  V30 11639 O 1088.46 5.99347 0.553758 0
M  V30 11640 H 1092.28 2.94714 -0.733308 0
M  V30 11641 H 1089.87 1.43252 -0.424159 0
M  V30 11642 H 1091.75 3.93318 1.51257 0
M  V30 11643 H 1090.42 2.75261 1.70333 0
M  V30 11644 H 1089.33 3.71926 -0.402752 0
M  V30 11645 H 1090.66 4.89547 -0.510319 0
M  V30 11646 N 1092.32 0.406567 1.52266 0
M  V30 11647 C 1093.26 -0.43489 2.28498 0
M  V30 11648 C 1094.26 -1.04806 1.33086 0
M  V30 11649 O 1095.46 -0.986557 1.50556 0
M  V30 11650 H 1091.84 -0.159023 0.734994 0
M  V30 11651 H 1093.81 0.229316 2.97518 0
M  V30 11652 C 1092.56 -1.54073 3.117 0
M  V30 11653 H 1091.88 -1.07824 3.84986 0
M  V30 11654 H 1093.32 -2.10337 3.6815 0
M  V30 11655 C 1091.78 -2.50662 2.251 0
M  V30 11656 O 1092.31 -3.54486 1.88951 0
M  V30 11657 N 1090.52 -2.20811 1.8892 0
M  V30 11658 H 1090.06 -1.36413 2.18516 0
M  V30 11659 H 1090.02 -2.85684 1.3127 0
M  V30 11660 N 1093.79 -1.57004 0.136909 0
M  V30 11661 C 1095.21 -1.58082 -0.21958 0
M  V30 11662 C 1095.41 -1.15065 -1.65415 0
M  V30 11663 O 1094.47 -0.846284 -2.37896 0
M  V30 11664 C 1095.78 -3.00685 0.0300112 0
M  V30 11665 C 1097.33 -3.12981 -0.0344899 0
M  V30 11666 C 1097.8 -4.57615 0.187639 0
M  V30 11667 N 1099.29 -4.63005 0.134219 0
M  V30 11668 C 1100.03 -5.72712 0.280743 0
M  V30 11669 N 1099.52 -6.91104 0.48443 0
M  V30 11670 N 1101.32 -5.61673 0.219055 0
M  V30 11671 H 1093.47 -1.83262 1.07372 0
M  V30 11672 H 1095.73 -0.847776 0.424241 0
M  V30 11673 H 1095.44 -3.36509 1.02247 0
M  V30 11674 H 1095.31 -3.70762 -0.693918 0
M  V30 11675 H 1097.7 -2.77004 -1.01749 0
M  V30 11676 H 1097.78 -2.45411 0.721608 0
M  V30 11677 H 1097.42 -4.94295 1.16769 0
M  V30 11678 H 1097.35 -5.23299 -0.588661 0
M  V30 11679 H 1099.84 -3.77895 -0.0189681 0
M  V30 11680 H 1100.16 -7.7057 0.586613 0
M  V30 11681 H 1098.5 -6.93047 0.520627 0
M  V30 11682 H 1101.69 -4.68061 0.0607606 0
M  V30 11683 H 1101.87 -6.47125 0.336683 0
M  V30 11684 N 1095.27 0.136881 -1.57004 0
M  V30 11685 C 1096.69 0.489856 -1.51897 0
M  V30 11686 C 1096.89 1.82833 -0.847009 0
M  V30 11687 O 1095.94 2.48952 -0.421792 0
M  V30 11688 C 1097.26 0.490831 -2.96667 0
M  V30 11689 C 1098.81 0.575639 -3.07661 0
M  V30 11690 C 1099.28 0.607178 -4.53957 0
M  V30 11691 N 1100.77 0.66912 -4.58342 0
M  V30 11692 C 1101.51 0.714675 -5.68929 0
M  V30 11693 N 1101 0.718959 -6.89059 0
M  V30 11694 N 1102.8 0.756326 -5.56988 0
M  V30 11695 H 1094.95 -0.740347 -1.99079 0
M  V30 11696 H 1097.21 -0.271116 -0.908405 0
M  V30 11697 H 1096.92 -0.424648 -3.49127 0
M  V30 11698 H 1096.79 1.32512 -3.53158 0
M  V30 11699 H 1099.18 1.48154 -2.55215 0
M  V30 11700 H 1099.26 -0.285991 -2.54196 0
M  V30 11701 H 1098.9 -0.294604 -5.07045 0
M  V30 11702 H 1098.83 1.48544 -5.05215 0
M  V30 11703 H 1101.32 0.672697 -3.71864 0
M  V30 11704 H 1101.64 0.755848 -7.69095 0
M  V30 11705 H 1099.98 0.686671 -6.91599 0
M  V30 11706 H 1103.17 0.750219 -4.62049 0
M  V30 11707 H 1103.34 0.788363 -6.43186 0
M  V30 11708 N 1096.75 1.52266 0.40654 0
M  V30 11709 C 1097.7 1.72175 1.49465 0
M  V30 11710 C 1098.68 0.575668 1.50249 0
M  V30 11711 O 1099.88 0.832835 1.56182 0
M  V30 11712 C 1097.01 1.87818 2.87366 0
M  V30 11713 C 1096.09 3.08305 2.91219 0
M  V30 11714 N 1096.48 4.30967 2.64766 0
M  V30 11715 C 1094.78 3.08192 3.22388 0
M  V30 11716 C 1095.48 5.12455 2.75254 0
M  V30 11717 N 1094.46 4.47758 3.08242 0
M  V30 11718 H 1098.26 2.64653 1.27812 0
M  V30 11719 H 1095.77 1.50334 0.61428 0
M  V30 11720 H 1097.77 2.00198 3.65686 0
M  V30 11721 H 1096.43 0.965414 3.10016 0
M  V30 11722 H 1097.44 4.59397 2.39113 0
M  V30 11723 H 1094.12 2.26662 3.50615 0
M  V30 11724 H 1095.51 6.20186 2.58495 0
M  V30 11725 N 1098.23 -0.663929 1.42933 0
M  V30 11726 C 1099.48 -1.42393 1.43981 0
M  V30 11727 C 1099.8 -1.94407 0.0601802 0
M  V30 11728 O 1099.06 -1.72019 -0.933172 0
M  V30 11729 C 1099.36 -2.62976 2.4203 0
M  V30 11730 C 1099.02 -2.29441 3.88159 0
M  V30 11731 C 1097.69 -2.20007 4.27961 0
M  V30 11732 C 1100.04 -2.02413 4.8029 0
M  V30 11733 C 1097.37 -1.81686 5.57859 0
M  V30 11734 C 1099.72 -1.65592 6.10542 0
M  V30 11735 C 1098.38 -1.54676 6.49332 0
M  V30 11736 H 1097.65 -0.521051 0.526865 0
M  V30 11737 H 1100.3 -0.756042 1.75944 0
M  V30 11738 H 1098.6 -3.34847 2.03433 0
M  V30 11739 H 1100.3 -3.21174 2.40101 0
M  V30 11740 H 1096.89 -2.3769 3.56653 0
M  V30 11741 H 1101.07 -2.08628 4.5032 0
M  V30 11742 H 1096.33 -1.71812 5.86763 0
M  V30 11743 H 1100.5 -1.43707 6.81411 0
M  V30 11744 H 1098.13 -1.24752 7.49894 0
M  V30 11745 N 1099.71 -1.29285 -0.901281 0
M  V30 11746 C 1101.12 -1.15499 -1.46686 0
M  V30 11747 C 1101.47 0.250446 -1.94595 0
M  V30 11748 O 1100.59 1.14581 -1.83576 0
M  V30 11749 C 1101.19 -2.0906 -2.66607 0
M  V30 11750 C 1099.75 -1.99301 -3.19306 0
M  V30 11751 C 1098.89 -2.00079 -1.91999 0
M  V30 11752 H 1101.85 -1.41793 -0.712773 0
M  V30 11753 H 1101.87 -1.6619 -3.42288 0
M  V30 11754 H 1101.38 -3.11341 -2.31707 0
M  V30 11755 H 1099.48 -1.00103 -3.58901 0
M  V30 11756 H 1099.59 -2.86885 -3.8371 0
M  V30 11757 H 1097.96 -1.44655 -2.09636 0
M  V30 11758 H 1098.74 -3.04061 -1.59379 0
M  V30 11759 N 1101.18 1.11143 -1.11736 0
M  V30 11760 C 1102.6 1.64462 -0.883693 0
M  V30 11761 C 1102.95 1.87324 0.583448 0
M  V30 11762 O 1102.07 1.60975 1.44623 0
M  V30 11763 C 1102.67 2.98765 -1.59764 0
M  V30 11764 C 1101.23 3.4898 -1.41032 0
M  V30 11765 C 1100.37 2.23729 -1.63831 0
M  V30 11766 H 1103.32 0.947415 -1.27317 0
M  V30 11767 H 1103.34 3.65885 -1.04443 0
M  V30 11768 H 1102.86 2.82094 -2.66542 0
M  V30 11769 H 1100.96 3.7081 -0.364781 0
M  V30 11770 H 1101.07 4.27571 -2.16148 0
M  V30 11771 H 1099.43 2.31507 -1.06191 0
M  V30 11772 H 1100.22 2.09597 -2.7189 0
M  V30 11773 N 1102.66 0.908147 1.28804 0
M  V30 11774 C 1103.89 0.553431 1.9988 0
M  V30 11775 C 1104.31 -0.856714 1.67458 0
M  V30 11776 O 1103.67 -1.57163 0.903849 0
M  V30 11777 C 1103.72 0.762688 3.52442 0
M  V30 11778 O 1102.82 -0.180924 4.12003 0
M  V30 11779 H 1102.16 0.215237 0.628147 0
M  V30 11780 H 1104.69 1.22205 1.64095 0
M  V30 11781 H 1104.7 0.670612 4.02451 0
M  V30 11782 H 1103.38 1.79071 3.75375 0
M  V30 11783 H 1101.96 -0.0405897 3.72878 0
M  V30 11784 N 1104.14 -1.42577 0.671525 0
M  V30 11785 C 1105.1 -2.292 0.000392482 0
M  V30 11786 C 1106.1 -1.43158 -0.732294 0
M  V30 11787 O 1107.29 -1.64583 -0.570789 0
M  V30 11788 C 1104.43 -3.25591 -1.01013 0
M  V30 11789 H 1105.62 -2.90037 0.762783 0
M  V30 11790 H 1103.17 -1.50162 0.433703 0
M  V30 11791 H 1103.91 -2.69685 -1.80112 0
M  V30 11792 H 1103.69 -3.89049 -0.488183 0
M  V30 11793 H 1105.18 -3.90561 -1.47824 0
M  V30 11794 N 1105.62 -0.414636 -1.52048 0
M  V30 11795 C 1107.03 -0.0657806 -1.59464 0
M  V30 11796 C 1107.23 1.4225 -1.42713 0
M  V30 11797 O 1106.29 2.18996 -1.25687 0
M  V30 11798 C 1107.6 -0.565618 -2.95332 0
M  V30 11799 C 1109.15 -0.524072 -3.08581 0
M  V30 11800 C 1109.63 -1.00051 -4.46938 0
M  V30 11801 N 1111.12 -0.957555 -4.53194 0
M  V30 11802 C 1111.85 -1.29733 -5.58531 0
M  V30 11803 N 1111.35 -1.70883 -6.71395 0
M  V30 11804 N 1113.14 -1.21694 -5.48769 0
M  V30 11805 H 1105.29 -1.38325 -1.61183 0
M  V30 11806 H 1107.56 -0.568593 -0.758556 0
M  V30 11807 H 1107.26 -1.60604 -3.12888 0
M  V30 11808 H 1107.14 0.0217735 -3.77194 0
M  V30 11809 H 1109.52 0.507319 -2.90707 0
M  V30 11810 H 1109.6 -1.14759 -2.28613 0
M  V30 11811 H 1109.25 -2.03025 -4.65557 0
M  V30 11812 H 1109.18 -0.353754 -5.2541 0
M  V30 11813 H 1111.67 -0.65508 -3.72179 0
M  V30 11814 H 1111.98 -1.95105 -7.47766 0
M  V30 11815 H 1110.33 -1.74791 -6.72661 0
M  V30 11816 H 1113.52 -0.894286 -4.59478 0
M  V30 11817 H 1113.69 -1.48504 -6.30754 0
M  V30 11818 N 1107.1 1.56929 -0.145233 0
M  V30 11819 C 1108.51 1.58196 0.211194 0
M  V30 11820 C 1108.71 1.15941 1.64803 0
M  V30 11821 O 1107.77 0.858888 2.37443 0
M  V30 11822 C 1109.08 3.00665 -0.0459569 0
M  V30 11823 C 1110.63 3.12995 0.0178913 0
M  V30 11824 C 1111.1 4.5751 -0.211905 0
M  V30 11825 N 1112.6 4.62928 -0.158772 0
M  V30 11826 C 1113.33 5.72555 -0.311111 0
M  V30 11827 N 1112.83 6.90838 -0.521074 0
M  V30 11828 N 1114.62 5.61549 -0.248838 0
M  V30 11829 H 1106.77 1.8269 -1.08342 0
M  V30 11830 H 1109.03 0.845514 -0.428731 0
M  V30 11831 H 1108.74 3.35962 -1.0403 0
M  V30 11832 H 1108.61 3.71125 0.674246 0
M  V30 11833 H 1111 2.7754 1.00278 0
M  V30 11834 H 1111.08 2.45025 -0.734612 0
M  V30 11835 H 1110.73 4.93669 -1.19389 0
M  V30 11836 H 1110.66 5.23604 0.560901 0
M  V30 11837 H 1113.15 3.779 -0.00107283 0
M  V30 11838 H 1113.46 7.70248 -0.62747 0
M  V30 11839 H 1111.8 6.92761 -0.557374 0
M  V30 11840 H 1115 4.68022 -0.0855821 0
M  V30 11841 H 1115.17 6.46937 -0.370997 0
M  V30 11842 N 1108.58 -0.128553 1.57075 0
M  V30 11843 C 1109.82 -0.836536 1.83535 0
M  V30 11844 C 1110.14 -1.81491 0.7294 0
M  V30 11845 O 1111.34 -2.56838 0.880128 0
M  V30 11846 C 1109.8 -1.53836 3.25365 0
M  V30 11847 C 1109.41 -0.601454 4.43944 0
M  V30 11848 C 1111.15 -2.23204 3.61082 0
M  V30 11849 C 1109.06 -1.30596 5.768 0
M  V30 11850 H 1107.99 -0.316142 0.684522 0
M  V30 11851 H 1110.64 -0.0892555 1.83283 0
M  V30 11852 H 1109.02 -2.33192 3.20058 0
M  V30 11853 H 1110.2 0.158209 4.60528 0
M  V30 11854 H 1108.51 -0.0152393 4.16397 0
M  V30 11855 H 1111.11 -2.76585 4.57608 0
M  V30 11856 H 1111.45 -3.0056 2.88044 0
M  V30 11857 H 1111.98 -1.50746 3.68131 0
M  V30 11858 H 1108.72 -0.573874 6.52983 0
M  V30 11859 H 1108.24 -2.03787 5.6412 0
M  V30 11860 H 1109.92 -1.8418 6.20231 0
M  V30 11861 N 1110.05 -1.5248 -0.398459 0
M  V30 11862 C 1111.33 -1.57634 -1.15805 0
M  V30 11863 C 1111.71 -0.363785 -2.07942 0
M  V30 11864 O 1111.06 0.648598 -2.19101 0
M  V30 11865 C 1111.27 -2.91042 -1.92602 0
M  V30 11866 C 1112.62 -3.44433 -2.48296 0
M  V30 11867 O 1113.64 -2.92853 -2.0277 0
M  V30 11868 O 1112.5 -4.34529 -3.31432 0
M  V30 11869 H 1109.59 -0.63539 -0.529347 0
M  V30 11870 H 1112.14 -1.64812 -0.404376 0
M  V30 11871 H 1110.91 -3.7074 -1.25169 0
M  V30 11872 H 1110.53 -2.87206 -2.74952 0
M  V30 11873 N 1111.53 0.65634 -1.43283 0
M  V30 11874 C 1112.94 1.23744 -1.39801 0
M  V30 11875 C 1113.29 1.95942 -0.100507 0
M  V30 11876 O 1112.42 2.01063 0.800161 0
M  V30 11877 C 1113.01 2.25062 -2.53244 0
M  V30 11878 C 1111.57 2.78657 -2.53036 0
M  V30 11879 C 1110.72 1.53251 -2.31105 0
M  V30 11880 H 1113.67 0.448553 -1.52229 0
M  V30 11881 H 1113.69 3.07174 -2.24553 0
M  V30 11882 H 1113.2 1.72487 -3.47664 0
M  V30 11883 H 1111.3 3.35304 -1.62487 0
M  V30 11884 H 1111.42 3.26414 -3.507 0
M  V30 11885 H 1109.78 1.80487 -1.79713 0
M  V30 11886 H 1110.56 1.02615 -3.27605 0
M  V30 11887 N 1113.01 1.29761 0.894412 0
M  V30 11888 C 1113.94 1.1115 2.00445 0
M  V30 11889 C 1114.95 0.0574655 1.62699 0
M  V30 11890 O 1116.14 0.302528 1.75918 0
M  V30 11891 C 1113.24 0.670984 3.32191 0
M  V30 11892 C 1112.42 1.80471 3.98433 0
M  V30 11893 C 1111.48 1.35431 5.08473 0
M  V30 11894 O 1110.5 2.05994 5.30618 0
M  V30 11895 N 1111.7 0.22811 5.80052 0
M  V30 11896 H 1114.47 2.06753 2.16964 0
M  V30 11897 H 1112.03 1.21772 1.06692 0
M  V30 11898 H 1114.02 0.352877 4.03159 0
M  V30 11899 H 1112.59 -0.192735 3.12005 0
M  V30 11900 H 1111.81 2.29142 3.20761 0
M  V30 11901 H 1113.1 2.56471 4.39431 0
M  V30 11902 H 1112.5 -0.360076 5.64553 0
M  V30 11903 H 1111.05 -0.0305985 6.51793 0
M  V30 11904 N 1114.49 -1.10549 1.12324 0
M  V30 11905 C 1115.44 -2.14997 0.758979 0
M  V30 11906 C 1116.42 -1.59078 -0.241461 0
M  V30 11907 O 1117.61 -1.76937 -0.0471439 0
M  V30 11908 C 1114.74 -3.42633 0.21395 0
M  V30 11909 C 1113.83 -4.05487 1.24261 0
M  V30 11910 N 1114.22 -4.43064 2.43984 0
M  V30 11911 C 1112.52 -4.32534 1.08769 0
M  V30 11912 C 1113.22 -4.92427 3.09662 0
M  V30 11913 N 1112.19 -4.89161 2.37114 0
M  V30 11914 H 1116 -2.4184 1.67005 0
M  V30 11915 H 1113.51 -1.27659 1.00384 0
M  V30 11916 H 1115.51 -4.16849 -0.0651928 0
M  V30 11917 H 1114.17 -3.17249 -0.691591 0
M  V30 11918 H 1115.18 -4.34797 2.81375 0
M  V30 11919 H 1111.86 -4.16813 0.239354 0
M  V30 11920 H 1113.25 -5.31059 4.11614 0
M  V30 11921 N 1115.97 -0.914965 -1.28321 0
M  V30 11922 C 1117.21 -0.559015 -1.95567 0
M  V30 11923 C 1117.57 0.887749 -1.70695 0
M  V30 11924 O 1116.86 1.62312 -1.0181 0
M  V30 11925 C 1117.05 -0.805805 -3.48198 0
M  V30 11926 C 1116.88 -2.27501 -3.87909 0
M  V30 11927 C 1115.65 -2.92534 -4.12009 0
M  V30 11928 C 1117.85 -3.25152 -3.98473 0
M  V30 11929 N 1115.83 -4.29739 -4.38403 0
M  V30 11930 C 1117.2 -4.47524 -4.29095 0
M  V30 11931 C 1119.26 -3.20534 -3.81001 0
M  V30 11932 C 1117.96 -5.65861 -4.44065 0
M  V30 11933 C 1119.99 -4.38172 -3.97189 0
M  V30 11934 C 1119.35 -5.59318 -4.28185 0
M  V30 11935 H 1115.45 -0.254451 -0.739445 0
M  V30 11936 H 1118.03 -1.17895 -1.54948 0
M  V30 11937 H 1116.2 -0.215134 -3.87804 0
M  V30 11938 H 1117.94 -0.413762 -4.02579 0
M  V30 11939 H 1114.69 -2.43258 -4.06352 0
M  V30 11940 H 1115.11 -5.00683 -4.55681 0
M  V30 11941 H 1119.76 -2.27949 -3.56088 0
M  V30 11942 H 1117.47 -6.58924 -4.67809 0
M  V30 11943 H 1121.06 -4.36102 -3.85105 0
M  V30 11944 H 1119.94 -6.48828 -4.40446 0
M  V30 11945 N 1117.44 1.42219 -0.679077 0
M  V30 11946 C 1118.41 2.29197 -0.0125475 0
M  V30 11947 C 1119.41 1.43544 0.724691 0
M  V30 11948 O 1120.6 1.64884 0.562052 0
M  V30 11949 C 1117.73 3.26122 0.992846 0
M  V30 11950 H 1118.92 2.89629 -0.778154 0
M  V30 11951 H 1116.47 1.4993 -0.44166 0
M  V30 11952 H 1117.21 2.70637 1.78679 0
M  V30 11953 H 1116.99 3.89302 0.467544 0
M  V30 11954 H 1118.48 3.91339 1.45751 0
M  V30 11955 N 1118.92 0.422693 1.51826 0
M  V30 11956 C 1119.88 -0.384307 2.25955 0
M  V30 11957 C 1120.88 -0.962184 1.28836 0
M  V30 11958 O 1122.07 -0.838931 1.52668 0
M  V30 11959 C 1119.21 -1.54228 3.04018 0
M  V30 11960 H 1120.4 0.265157 2.98726 0
M  V30 11961 H 1117.95 0.175515 1.55311 0
M  V30 11962 H 1118.69 -2.22822 2.35629 0
M  V30 11963 H 1118.47 -1.13425 3.75336 0
M  V30 11964 H 1119.96 -2.1128 3.60209 0
M  V30 11965 N 1120.4 -1.5685 0.153553 0
M  V30 11966 C 1121.33 -2.20101 -0.779601 0
M  V30 11967 C 1122.31 -1.15121 -1.25225 0
M  V30 11968 O 1123.5 -1.43487 -1.30862 0
M  V30 11969 C 1120.63 -2.82778 -2.01628 0
M  V30 11970 C 1119.58 -3.93643 -1.68015 0
M  V30 11971 C 1118.91 -4.43286 -2.99001 0
M  V30 11972 C 1120.21 -5.14102 -0.921774 0
M  V30 11973 H 1121.9 -2.98334 -0.252432 0
M  V30 11974 H 1119.45 -1.43499 -0.119975 0
M  V30 11975 H 1121.4 -3.25696 -2.67395 0
M  V30 11976 H 1120.12 -2.01887 -2.56728 0
M  V30 11977 H 1118.78 -3.51354 -1.04624 0
M  V30 11978 H 1118.43 -3.59208 -3.52106 0
M  V30 11979 H 1118.13 -5.18068 -2.77272 0
M  V30 11980 H 1119.65 -4.88878 -3.65828 0
M  V30 11981 H 1121.07 -5.53823 -1.48167 0
M  V30 11982 H 1119.46 -5.94687 -0.804185 0
M  V30 11983 H 1120.53 -4.84825 0.0852757 0
M  V30 11984 N 1121.88 0.120221 -1.57141 0
M  V30 11985 C 1122.81 1.14876 -2.03287 0
M  V30 11986 C 1123.79 1.43259 -0.917112 0
M  V30 11987 O 1124.97 1.53721 -1.18674 0
M  V30 11988 C 1122.1 2.47525 -2.43616 0
M  V30 11989 C 1121.06 2.33607 -3.58625 0
M  V30 11990 C 1120.38 3.71207 -3.84849 0
M  V30 11991 C 1121.68 1.79761 -4.90391 0
M  V30 11992 H 1123.38 0.764943 -2.89463 0
M  V30 11993 H 1120.92 0.366516 -1.39258 0
M  V30 11994 H 1122.88 3.19728 -2.74504 0
M  V30 11995 H 1121.6 2.87794 -1.54409 0
M  V30 11996 H 1120.26 1.63853 -3.27945 0
M  V30 11997 H 1119.91 4.0896 -2.9285 0
M  V30 11998 H 1119.61 3.62749 -4.62263 0
M  V30 11999 H 1121.13 4.44917 -4.18188 0
M  V30 12000 H 1122.55 2.4178 -5.19822 0
M  V30 12001 H 1120.94 1.82126 -5.71795 0
M  V30 12002 H 1122.01 0.755087 -4.78985 0
M  V30 12003 N 1123.36 1.52689 0.390367 0
M  V30 12004 C 1124.27 1.8029 1.50108 0
M  V30 12005 C 1125.28 0.689582 1.59752 0
M  V30 12006 O 1126.46 0.977024 1.76114 0
M  V30 12007 C 1123.52 1.96475 2.85654 0
M  V30 12008 C 1122.58 3.2039 2.85743 0
M  V30 12009 C 1121.82 3.35793 4.14824 0
M  V30 12010 O 1122.04 2.56033 5.09709 0
M  V30 12011 O 1120.97 4.2904 4.22147 0
M  V30 12012 H 1124.8 2.74605 1.29715 0
M  V30 12013 H 1122.39 1.37763 0.578074 0
M  V30 12014 H 1124.27 2.08835 3.66013 0
M  V30 12015 H 1122.94 1.05351 3.06077 0
M  V30 12016 H 1121.85 3.13473 2.0417 0
M  V30 12017 H 1123.18 4.11356 2.70272 0
M  V30 12018 N 1124.83 -0.648732 1.43629 0
M  V30 12019 C 1125.78 -1.76145 1.49136 0
M  V30 12020 C 1126.75 -1.62569 0.340649 0
M  V30 12021 O 1127.94 -1.82748 0.548435 0
M  V30 12022 C 1125.08 -3.14321 1.42466 0
M  V30 12023 C 1124.19 -3.38999 2.67776 0
M  V30 12024 C 1123.32 -4.67047 2.53062 0
M  V30 12025 C 1122.36 -4.84845 3.7362 0
M  V30 12026 N 1121.5 -6.04155 3.57689 0
M  V30 12027 H 1126.34 -1.70774 2.44213 0
M  V30 12028 H 1123.88 -0.833311 1.2122 0
M  V30 12029 H 1125.84 -3.94206 1.36592 0
M  V30 12030 H 1124.47 -3.18751 0.509666 0
M  V30 12031 H 1123.52 -2.53179 2.83909 0
M  V30 12032 H 1124.83 -3.48035 3.57314 0
M  V30 12033 H 1123.98 -5.55066 2.44922 0
M  V30 12034 H 1122.72 -4.60339 1.61056 0
M  V30 12035 H 1121.73 -3.95261 3.82163 0
M  V30 12036 H 1122.95 -4.9338 4.6664 0
M  V30 12037 H 1120.9 -5.9857 2.6842 0
M  V30 12038 H 1120.82 -6.14169 4.40832 0
M  V30 12039 H 1122.08 -6.94782 3.53409 0
M  V30 12040 N 1126.31 -1.30234 -0.887518 0
M  V30 12041 C 1127.28 -1.16384 -1.97452 0
M  V30 12042 C 1128.28 -0.0957942 -1.60514 0
M  V30 12043 O 1129.47 -0.343706 -1.70776 0
M  V30 12044 C 1126.6 -0.782514 -3.31797 0
M  V30 12045 H 1127.79 -2.12952 -2.11167 0
M  V30 12046 H 1125.34 -1.13594 -1.07359 0
M  V30 12047 H 1126.08 0.18278 -3.23785 0
M  V30 12048 H 1125.86 -1.55434 -3.59976 0
M  V30 12049 H 1127.35 -0.709011 -4.11537 0
M  V30 12050 N 1127.79 1.09952 -1.12909 0
M  V30 12051 C 1128.74 2.16436 -0.801514 0
M  V30 12052 C 1129.71 1.64444 0.233976 0
M  V30 12053 O 1130.89 1.90497 0.10743 0
M  V30 12054 C 1128.03 3.4406 -0.267753 0
M  V30 12055 C 1127.15 4.09979 -1.36165 0
M  V30 12056 C 1126.28 5.25341 -0.786803 0
M  V30 12057 C 1125.32 5.83172 -1.85948 0
M  V30 12058 N 1124.46 6.89904 -1.30298 0
M  V30 12059 H 1129.3 2.43799 -1.71365 0
M  V30 12060 H 1126.83 1.19665 -0.855499 0
M  V30 12061 H 1128.79 4.17157 0.0598031 0
M  V30 12062 H 1127.42 3.17031 0.607528 0
M  V30 12063 H 1126.47 3.34801 -1.8059 0
M  V30 12064 H 1127.79 4.48999 -2.17259 0
M  V30 12065 H 1126.94 6.05312 -0.410211 0
M  V30 12066 H 1125.68 4.87669 0.055279 0
M  V30 12067 H 1124.68 5.01867 -2.24521 0
M  V30 12068 H 1125.91 6.22907 -2.70487 0
M  V30 12069 H 1123.85 6.54221 -0.482806 0
M  V30 12070 H 1123.77 7.27662 -2.05046 0
M  V30 12071 H 1125.04 7.73643 -0.953779 0
M  V30 12072 N 1129.27 0.921757 1.27833 0
M  V30 12073 C 1130.22 0.414838 2.27041 0
M  V30 12074 C 1131.19 -0.515045 1.57913 0
M  V30 12075 O 1132.37 -0.435499 1.85763 0
M  V30 12076 C 1129.51 -0.331744 3.43502 0
M  V30 12077 C 1128.62 0.631565 4.27358 0
M  V30 12078 C 1127.76 -0.134265 5.3103 0
M  V30 12079 C 1126.8 0.822138 6.06554 0
M  V30 12080 N 1125.93 0.0893149 7.02043 0
M  V30 12081 H 1130.77 1.26585 2.69778 0
M  V30 12082 H 1128.31 0.635488 1.32665 0
M  V30 12083 H 1130.27 -0.780866 4.09827 0
M  V30 12084 H 1128.9 -1.14704 3.01733 0
M  V30 12085 H 1127.95 1.19922 3.61003 0
M  V30 12086 H 1129.26 1.36274 4.79824 0
M  V30 12087 H 1128.42 -0.643579 6.03277 0
M  V30 12088 H 1127.16 -0.898443 4.79353 0
M  V30 12089 H 1126.16 1.34275 5.33151 0
M  V30 12090 H 1127.39 1.586 6.6032 0
M  V30 12091 H 1125.33 -0.656725 6.52704 0
M  V30 12092 H 1125.25 0.760167 7.52169 0
M  V30 12093 H 1126.52 -0.399541 7.78475 0
M  V30 12094 N 1130.75 -1.41857 0.686609 0
M  V30 12095 C 1131.69 -2.326 0.0041351 0
M  V30 12096 C 1132.69 -1.50474 -0.778077 0
M  V30 12097 O 1133.89 -1.66468 -0.684709 0
M  V30 12098 H 1130.27 -0.751797 -0.0174615 0
M  V30 12099 H 1132.24 -2.87844 0.786656 0
M  V30 12100 C 1130.99 -3.35175 -0.924819 0
M  V30 12101 H 1130.31 -3.98416 -0.332339 0
M  V30 12102 H 1131.75 -4.01229 -1.37082 0
M  V30 12103 C 1130.21 -2.68359 -2.03679 0
M  V30 12104 O 1130.74 -2.52453 -3.12459 0
M  V30 12105 N 1128.95 -2.27196 -1.81192 0
M  V30 12106 H 1128.49 -2.40333 -0.92725 0
M  V30 12107 H 1128.45 -1.82824 -2.55778 0
M  V30 12108 N 1132.22 -0.430739 -1.51599 0
M  V30 12109 C 1133.19 0.372319 -2.26156 0
M  V30 12110 C 1134.19 0.955338 -1.29344 0
M  V30 12111 O 1135.38 0.830823 -1.53111 0
M  V30 12112 C 1132.51 1.52613 -3.04831 0
M  V30 12113 H 1133.7 -0.280996 -2.98581 0
M  V30 12114 H 1131.26 -0.183749 -1.55216 0
M  V30 12115 H 1131.99 2.21569 -2.36807 0
M  V30 12116 H 1131.78 1.11433 -3.75932 0
M  V30 12117 H 1133.27 2.09366 -3.61325 0
M  V30 12118 N 1133.7 1.56767 -0.161869 0
M  V30 12119 C 1134.64 2.13321 0.810527 0
M  V30 12120 C 1135.61 1.06073 1.23237 0
M  V30 12121 O 1136.8 1.33993 1.32583 0
M  V30 12122 C 1133.92 2.66506 2.09027 0
M  V30 12123 C 1132.97 3.86038 1.8132 0
M  V30 12124 S 1133.8 5.26253 0.990873 0
M  V30 12125 C 1134.96 5.82837 2.28149 0
M  V30 12126 H 1135.19 2.95467 0.32965 0
M  V30 12127 H 1132.73 1.5431 0.052655 0
M  V30 12128 H 1134.68 2.97797 2.82537 0
M  V30 12129 H 1133.34 1.84463 2.54229 0
M  V30 12130 H 1132.54 4.21547 2.7625 0
M  V30 12131 H 1132.14 3.55585 1.1591 0
M  V30 12132 H 1134.43 5.95175 3.23686 0
M  V30 12133 H 1135.37 6.80109 1.97123 0
M  V30 12134 H 1135.78 5.11186 2.39477 0
M  V30 12135 N 1135.18 -0.111886 1.57202 0
M  V30 12136 C 1136.59 -0.668261 1.74331 0
M  V30 12137 C 1136.94 -1.79959 0.781609 0
M  V30 12138 O 1136.07 -2.16356 -0.043833 0
M  V30 12139 C 1136.66 -1.219 3.1611 0
M  V30 12140 C 1135.22 -1.7216 3.34721 0
M  V30 12141 C 1134.37 -0.624223 2.70183 0
M  V30 12142 H 1137.32 0.114081 1.58289 0
M  V30 12143 H 1137.34 -2.08858 3.18054 0
M  V30 12144 H 1136.85 -0.395381 3.86081 0
M  V30 12145 H 1134.95 -2.56976 2.69803 0
M  V30 12146 H 1135.07 -1.82615 4.42932 0
M  V30 12147 H 1133.43 -1.05958 2.31614 0
M  V30 12148 H 1134.21 0.188537 3.42782 0
M  V30 12149 N 1136.66 -1.52894 -0.382264 0
M  V30 12150 C 1137.94 -1.58853 -1.14127 0
M  V30 12151 C 1138.32 -0.38582 -2.07544 0
M  V30 12152 O 1137.66 0.625323 -2.19777 0
M  V30 12153 C 1137.87 -2.93068 -1.89504 0
M  V30 12154 C 1139.22 -3.47048 -2.44629 0
M  V30 12155 O 1140.25 -2.94987 -1.99652 0
M  V30 12156 O 1139.1 -4.3802 -3.26804 0
M  V30 12157 H 1136.2 -0.640969 -0.522578 0
M  V30 12158 H 1138.74 -1.65231 -0.386873 0
M  V30 12159 H 1137.52 -3.72047 -1.2123 0
M  V30 12160 H 1137.14 -2.90106 -2.7189 0
M  V30 12161 N 1138.14 0.641106 -1.43971 0
M  V30 12162 C 1139.08 1.75352 -1.50068 0
M  V30 12163 C 1140.05 1.62386 -0.349266 0
M  V30 12164 O 1141.24 1.82455 -0.558118 0
M  V30 12165 C 1138.38 3.13561 -1.4413 0
M  V30 12166 C 1137.49 3.37574 -2.6957 0
M  V30 12167 C 1136.63 4.65698 -2.55535 0
M  V30 12168 C 1135.67 4.82857 -3.76186 0
M  V30 12169 N 1134.8 6.02249 -3.60888 0
M  V30 12170 H 1139.64 1.69477 -2.45116 0
M  V30 12171 H 1137.18 0.826871 -1.2166 0
M  V30 12172 H 1139.14 3.93476 -1.38681 0
M  V30 12173 H 1137.77 3.18476 -0.526563 0
M  V30 12174 H 1136.82 2.5167 -2.85248 0
M  V30 12175 H 1138.13 3.46135 -3.59154 0
M  V30 12176 H 1137.29 5.53759 -2.47862 0
M  V30 12177 H 1136.03 4.59479 -1.63495 0
M  V30 12178 H 1135.03 3.93229 -3.84254 0
M  V30 12179 H 1136.26 4.90898 -4.6925 0
M  V30 12180 H 1134.2 5.97138 -2.71591 0
M  V30 12181 H 1134.12 6.11822 -4.44083 0
M  V30 12182 H 1135.39 6.92898 -3.57088 0
M  V30 12183 N 1139.62 1.30703 0.880598 0
M  V30 12184 C 1141.03 1.09129 1.1646 0
M  V30 12185 C 1141.23 -0.145131 2.00977 0
M  V30 12186 O 1140.29 -0.837502 2.38206 0
M  V30 12187 C 1141.6 2.35717 1.86703 0
M  V30 12188 C 1143.15 2.41224 1.9945 0
M  V30 12189 C 1143.62 3.67665 2.73105 0
M  V30 12190 N 1145.11 3.68498 2.80648 0
M  V30 12191 C 1145.85 4.63024 3.38225 0
M  V30 12192 N 1145.35 5.67898 3.96817 0
M  V30 12193 N 1147.14 4.50561 3.36082 0
M  V30 12194 H 1139.29 2.10019 0.317164 0
M  V30 12195 H 1141.55 0.925994 0.203072 0
M  V30 12196 H 1141.26 3.2597 1.32046 0
M  V30 12197 H 1141.13 2.447 2.87057 0
M  V30 12198 H 1143.52 1.51446 2.53275 0
M  V30 12199 H 1143.6 2.36212 0.981704 0
M  V30 12200 H 1143.24 4.57803 2.19951 0
M  V30 12201 H 1143.17 3.69939 3.7477 0
M  V30 12202 H 1145.67 2.92681 2.39053 0
M  V30 12203 H 1145.98 6.3612 4.3883 0
M  V30 12204 H 1144.32 5.71685 3.95223 0
M  V30 12205 H 1147.51 3.67811 2.89539 0
M  V30 12206 H 1147.69 5.24408 3.80657 0
M  V30 12207 N 1141.09 -1.09351 1.1349 0
M  V30 12208 C 1142 -2.19564 0.826366 0
M  V30 12209 C 1143.02 -1.72967 -0.189339 0
M  V30 12210 O 1144.2 -2.0139 -0.0202033 0
M  V30 12211 C 1141.26 -3.4542 0.297685 0
M  V30 12212 C 1140.32 -4.06694 1.37473 0
M  V30 12213 C 1139.55 -5.26542 0.871183 0
M  V30 12214 O 1139.78 -5.69657 -0.290958 0
M  V30 12215 O 1138.71 -5.78961 1.64584 0
M  V30 12216 H 1142.54 -2.4841 1.74718 0
M  V30 12217 H 1140.12 -1.18302 0.912414 0
M  V30 12218 H 1142 -4.21399 0.00829479 0
M  V30 12219 H 1140.68 -3.18175 -0.595536 0
M  V30 12220 H 1139.59 -3.32347 1.71745 0
M  V30 12221 H 1140.92 -4.38166 2.24212 0
M  V30 12222 N 1142.57 -0.928524 -1.27343 0
M  V30 12223 C 1143.52 -0.418768 -2.28799 0
M  V30 12224 C 1144.51 0.497334 -1.61935 0
M  V30 12225 O 1145.72 0.376945 -1.76009 0
M  V30 12226 H 1142.09 -0.116855 -0.742865 0
M  V30 12227 H 1144.07 -1.28725 -2.69207 0
M  V30 12228 C 1142.81 0.312422 -3.46294 0
M  V30 12229 H 1142.14 -0.383317 -3.97958 0
M  V30 12230 H 1143.58 0.633514 -4.19241 0
M  V30 12231 C 1142.04 1.5257 -3.00373 0
M  V30 12232 O 1142.57 2.62443 -3.04116 0
M  V30 12233 N 1140.77 1.37782 -2.5586 0
M  V30 12234 H 1140.32 0.483908 -2.53014 0
M  V30 12235 H 1140.28 2.19085 -2.25498 0
M  V30 12236 N 1144.05 1.41491 -0.694123 0
M  V30 12237 C 1145.28 2.05579 -0.233466 0
M  V30 12238 C 1145.69 1.5223 1.11675 0
M  V30 12239 O 1145.05 0.669937 1.69759 0
M  V30 12240 C 1145.1 3.61047 -0.180967 0
M  V30 12241 O 1144.82 4.12421 -1.47785 0
M  V30 12242 C 1146.32 4.42278 0.300853 0
M  V30 12243 H 1143.54 0.662097 -0.108943 0
M  V30 12244 H 1146.09 1.81288 -0.946299 0
M  V30 12245 H 1144.24 3.84381 0.482678 0
M  V30 12246 H 1144.66 5.06454 -1.364 0
M  V30 12247 H 1146.13 5.51256 0.286464 0
M  V30 12248 H 1146.61 4.18276 1.33948 0
M  V30 12249 H 1147.21 4.24004 -0.331741 0
M  V30 12250 N 1145.53 0.438773 1.51369 0
M  V30 12251 C 1146.76 -0.125847 2.06517 0
M  V30 12252 C 1147.17 -1.36336 1.30606 0
M  V30 12253 O 1146.53 -1.78792 0.36603 0
M  V30 12254 C 1146.58 -0.446619 3.5873 0
M  V30 12255 O 1146.3 0.741781 4.31775 0
M  V30 12256 C 1147.8 -1.06175 4.30397 0
M  V30 12257 H 1145.02 -0.00728868 0.67096 0
M  V30 12258 H 1147.56 0.618267 1.9493 0
M  V30 12259 H 1145.72 -1.14064 3.70227 0
M  V30 12260 H 1146.13 0.466907 5.22418 0
M  V30 12261 H 1147.61 -1.23619 5.3798 0
M  V30 12262 H 1148.08 -2.04317 3.88782 0
M  V30 12263 H 1148.69 -0.40708 4.23347 0
M  V30 12264 N 1147.01 -1.56678 0.170181 0
M  V30 12265 C 1148.25 -1.9714 -0.475767 0
M  V30 12266 C 1148.58 -1.05611 -1.62972 0
M  V30 12267 O 1147.86 -0.103017 -1.94227 0
M  V30 12268 C 1148.14 -3.47072 -0.959828 0
M  V30 12269 C 1148 -4.4938 0.194225 0
M  V30 12270 C 1149.31 -4.00071 -1.83387 0
M  V30 12271 H 1146.43 -0.716776 -0.171466 0
M  V30 12272 H 1149.08 -1.88266 0.256086 0
M  V30 12273 H 1147.23 -3.54766 -1.58346 0
M  V30 12274 H 1148.9 -4.53748 0.83128 0
M  V30 12275 H 1147.14 -4.25393 0.849893 0
M  V30 12276 H 1147.81 -5.51685 -0.186575 0
M  V30 12277 H 1150.29 -3.95002 -1.30815 0
M  V30 12278 H 1149.16 -5.05398 -2.14159 0
M  V30 12279 H 1149.42 -3.43819 -2.77923 0
M  V30 12280 N 1148.48 0.103547 -1.57259 0
M  V30 12281 C 1149.71 0.82624 -1.90232 0
M  V30 12282 C 1150.13 1.71902 -0.763641 0
M  V30 12283 O 1149.49 1.79043 0.285181 0
M  V30 12284 C 1149.54 1.62265 -3.22029 0
M  V30 12285 O 1148.64 2.73091 -3.09023 0
M  V30 12286 H 1147.98 0.227528 -0.6238 0
M  V30 12287 H 1150.51 0.081307 -2.04438 0
M  V30 12288 H 1150.52 2.00865 -3.5513 0
M  V30 12289 H 1149.2 0.967383 -4.04493 0
M  V30 12290 H 1147.78 2.3758 -2.8742 0
M  V30 12291 N 1149.96 1.53094 0.37415 0
M  V30 12292 C 1151.37 1.60641 0.951381 0
M  V30 12293 C 1151.72 0.468474 1.90525 0
M  V30 12294 O 1150.85 -0.406347 2.12551 0
M  V30 12295 C 1151.44 2.91166 1.73228 0
M  V30 12296 C 1150 3.01077 2.25898 0
M  V30 12297 C 1149.15 2.55873 1.06885 0
M  V30 12298 H 1152.1 1.57959 0.153214 0
M  V30 12299 H 1152.12 2.78487 2.59278 0
M  V30 12300 H 1151.63 3.73968 1.03778 0
M  V30 12301 H 1149.73 2.22844 2.98615 0
M  V30 12302 H 1149.85 4.05998 2.54367 0
M  V30 12303 H 1148.21 2.10544 1.43329 0
M  V30 12304 H 1148.99 3.41084 0.38947 0
M  V30 12305 N 1151.44 -0.633461 1.44309 0
M  V30 12306 C 1152.85 -1.21504 1.41752 0
M  V30 12307 C 1153.2 -1.95758 0.131667 0
M  V30 12308 O 1152.33 -2.02311 -0.768072 0
M  V30 12309 C 1152.92 -2.21005 2.56792 0
M  V30 12310 C 1151.48 -2.74596 2.57438 0
M  V30 12311 C 1150.63 -1.49555 2.33513 0
M  V30 12312 H 1153.58 -0.424277 1.52923 0
M  V30 12313 H 1153.6 -3.03563 2.29412 0
M  V30 12314 H 1153.11 -1.66934 3.50364 0
M  V30 12315 H 1151.21 -3.32676 1.67801 0
M  V30 12316 H 1151.33 -3.20794 3.55849 0
M  V30 12317 H 1149.69 -1.77605 1.82561 0
M  V30 12318 H 1150.47 -0.973899 3.29196 0
M  V30 12319 N 1152.92 -1.31168 -0.873655 0
M  V30 12320 C 1154.33 -1.18584 -1.44203 0
M  V30 12321 C 1154.68 0.209114 -1.95082 0
M  V30 12322 O 1153.81 1.10662 -1.85965 0
M  V30 12323 C 1154.4 -2.14668 -2.62112 0
M  V30 12324 C 1152.96 -2.06029 -3.15006 0
M  V30 12325 C 1152.11 -2.04106 -1.87712 0
M  V30 12326 H 1155.06 -1.43273 -0.682536 0
M  V30 12327 H 1155.08 -1.73413 -3.38686 0
M  V30 12328 H 1154.59 -3.16186 -2.25051 0
M  V30 12329 H 1152.69 -1.07693 -3.56697 0
M  V30 12330 H 1152.8 -2.9496 -3.77539 0
M  V30 12331 H 1151.17 -1.49069 -2.0652 0
M  V30 12332 H 1151.95 -3.07373 -1.52894 0
M  V30 12333 N 1154.4 1.08748 -1.14068 0
M  V30 12334 C 1155.64 1.81333 -0.908081 0
M  V30 12335 C 1155.98 1.85826 0.564112 0
M  V30 12336 O 1155.25 1.33157 1.41773 0
M  V30 12337 C 1155.53 3.27127 -1.50531 0
M  V30 12338 C 1155.39 3.30865 -3.04711 0
M  V30 12339 C 1156.71 4.24006 -1.17928 0
M  V30 12340 H 1153.82 0.658326 -0.331325 0
M  V30 12341 H 1156.47 1.27345 -1.41008 0
M  V30 12342 H 1154.62 3.73233 -1.07839 0
M  V30 12343 H 1156.29 2.93109 -3.56209 0
M  V30 12344 H 1154.53 2.70241 -3.39341 0
M  V30 12345 H 1155.2 4.33603 -3.41603 0
M  V30 12346 H 1157.68 3.86221 -1.54831 0
M  V30 12347 H 1156.55 5.2434 -1.62353 0
M  V30 12348 H 1156.82 4.42 -0.0940349 0
M  V30 12349 N 1155.87 0.935264 1.26849 0
M  V30 12350 C 1157.12 0.580548 1.94313 0
M  V30 12351 C 1157.45 -0.877205 1.73259 0
M  V30 12352 O 1156.73 -1.62679 1.06611 0
M  V30 12353 C 1157.01 0.916445 3.48243 0
M  V30 12354 C 1156.86 2.42851 3.78607 0
M  V30 12355 C 1158.18 0.427665 4.38017 0
M  V30 12356 H 1155.3 0.21239 0.705733 0
M  V30 12357 H 1157.94 1.16841 1.49827 0
M  V30 12358 H 1156.09 0.416169 3.86265 0
M  V30 12359 H 1157.77 3.00106 3.50335 0
M  V30 12360 H 1156.01 2.8745 3.24892 0
M  V30 12361 H 1156.68 2.61405 4.8618 0
M  V30 12362 H 1159.16 0.856525 4.07189 0
M  V30 12363 H 1158.03 0.691571 5.44526 0
M  V30 12364 H 1158.29 -0.672344 4.36958 0
M  V30 12365 N 1157.35 -1.41121 0.701616 0
M  V30 12366 C 1158.58 -2.05452 0.244365 0
M  V30 12367 C 1159 -1.5282 -1.10866 0
M  V30 12368 O 1158.35 -0.67893 -1.69401 0
M  V30 12369 C 1158.4 -3.60946 0.200112 0
M  V30 12370 O 1158.12 -4.11632 1.4997 0
M  V30 12371 C 1159.63 -4.42431 -0.277394 0
M  V30 12372 H 1156.85 -0.66151 0.112453 0
M  V30 12373 H 1159.39 -1.80784 0.9559 0
M  V30 12374 H 1157.54 -3.84632 -0.462287 0
M  V30 12375 H 1157.96 -5.05723 1.39084 0
M  V30 12376 H 1159.43 -5.514 -0.257225 0
M  V30 12377 H 1159.91 -4.1898 -1.31728 0
M  V30 12378 H 1160.52 -4.23822 0.354223 0
M  V30 12379 N 1158.83 -0.446794 -1.51134 0
M  V30 12380 C 1159.76 0.395804 -2.25757 0
M  V30 12381 C 1160.78 0.978178 -1.30137 0
M  V30 12382 O 1161.96 0.87071 -1.55823 0
M  V30 12383 C 1159.06 1.56665 -3.00515 0
M  V30 12384 C 1158.24 1.10146 -4.23305 0
M  V30 12385 C 1157.3 2.14352 -4.80562 0
M  V30 12386 O 1156.32 1.73401 -5.42145 0
M  V30 12387 N 1157.52 3.46932 -4.65423 0
M  V30 12388 H 1160.29 -0.243808 -2.98707 0
M  V30 12389 H 1157.85 -0.276205 -1.59527 0
M  V30 12390 H 1159.84 2.26019 -3.35704 0
M  V30 12391 H 1158.41 2.11142 -2.30516 0
M  V30 12392 H 1157.63 0.234644 -3.93501 0
M  V30 12393 H 1158.92 0.768185 -5.02968 0
M  V30 12394 H 1158.32 3.82929 -4.16391 0
M  V30 12395 H 1156.88 4.12154 -5.04948 0
M  V30 12396 N 1160.31 1.56586 -0.178487 0
M  V30 12397 C 1161.24 2.21313 0.744486 0
M  V30 12398 C 1162.22 1.17098 1.23377 0
M  V30 12399 O 1163.4 1.45551 1.28563 0
M  V30 12400 C 1160.53 2.8595 1.97103 0
M  V30 12401 C 1159.49 3.96266 1.61732 0
M  V30 12402 C 1158.81 4.47987 2.91911 0
M  V30 12403 C 1160.11 5.15503 0.839868 0
M  V30 12404 H 1161.81 2.98698 0.204938 0
M  V30 12405 H 1159.35 1.43672 0.0971306 0
M  V30 12406 H 1161.31 3.29909 2.6218 0
M  V30 12407 H 1160.03 2.05946 2.53484 0
M  V30 12408 H 1158.69 3.52974 0.990208 0
M  V30 12409 H 1158.34 3.64765 3.46346 0
M  V30 12410 H 1158.04 5.22413 2.68995 0
M  V30 12411 H 1159.56 4.94637 3.58004 0
M  V30 12412 H 1160.98 5.5611 1.39337 0
M  V30 12413 H 1159.37 5.95891 0.709473 0
M  V30 12414 H 1160.44 4.84628 -0.162396 0
M  V30 12415 N 1161.79 -0.095206 1.57312 0
M  V30 12416 C 1163.2 -0.649733 1.7503 0
M  V30 12417 C 1163.55 -1.7912 0.800652 0
M  V30 12418 O 1162.67 -2.1639 -0.0208831 0
M  V30 12419 C 1163.27 -1.18541 3.17386 0
M  V30 12420 C 1161.83 -1.686 3.36528 0
M  V30 12421 C 1160.97 -0.595531 2.7083 0
M  V30 12422 H 1163.93 0.130863 1.5816 0
M  V30 12423 H 1163.95 -2.05473 3.20252 0
M  V30 12424 H 1163.46 -0.35441 3.86478 0
M  V30 12425 H 1161.56 -2.541 2.72514 0
M  V30 12426 H 1161.67 -1.77907 4.44844 0
M  V30 12427 H 1160.04 -1.03495 2.32725 0
M  V30 12428 H 1160.82 0.224883 3.42563 0
M  V30 12429 N 1163.26 -1.53291 -0.366026 0
M  V30 12430 C 1164.21 -1.80367 -1.4687 0
M  V30 12431 C 1165.21 -0.672767 -1.55468 0
M  V30 12432 O 1166.41 -0.8557 -1.5836 0
M  V30 12433 H 1162.79 -0.571076 -0.48926 0
M  V30 12434 H 1164.76 -2.72661 -1.21237 0
M  V30 12435 C 1163.51 -2.01008 -2.8371 0
M  V30 12436 H 1162.83 -2.87468 -2.77853 0
M  V30 12437 H 1164.27 -2.2393 -3.60043 0
M  V30 12438 C 1162.73 -0.789054 -3.27529 0
M  V30 12439 O 1163.26 0.0224712 -4.01694 0
M  V30 12440 N 1161.47 -0.612621 -2.84069 0
M  V30 12441 H 1161.01 -1.27416 -2.23881 0
M  V30 12442 H 1160.97 0.202943 -3.13744 0
M  V30 12443 N 1164.74 0.6258 -1.44643 0
M  V30 12444 C 1165.99 1.38125 -1.46984 0
M  V30 12445 C 1166.3 1.95299 -0.108429 0
M  V30 12446 O 1167.51 2.71498 -0.00940005 0
M  V30 12447 C 1165.97 2.50108 -2.58793 0
M  V30 12448 C 1165.57 1.99424 -4.01166 0
M  V30 12449 C 1167.32 3.27269 -2.70361 0
M  V30 12450 C 1165.23 3.08781 -5.04389 0
M  V30 12451 H 1164.16 0.519083 -0.546872 0
M  V30 12452 H 1166.81 0.67268 -1.70726 0
M  V30 12453 H 1165.19 3.23565 -2.28302 0
M  V30 12454 H 1166.36 1.32797 -4.4125 0
M  V30 12455 H 1164.68 1.35063 -3.93887 0
M  V30 12456 H 1167.27 4.08802 -3.44652 0
M  V30 12457 H 1167.62 3.77097 -1.76362 0
M  V30 12458 H 1168.15 2.60905 -3.00289 0
M  V30 12459 H 1164.89 2.63891 -6.00035 0
M  V30 12460 H 1164.41 3.74033 -4.68892 0
M  V30 12461 H 1166.09 3.73469 -5.28328 0
M  V30 12462 N 1166.22 1.31629 0.866686 0
M  V30 12463 C 1167.63 1.19347 1.43573 0
M  V30 12464 C 1167.98 -0.198765 1.95191 0
M  V30 12465 O 1167.11 -1.09674 1.86549 0
M  V30 12466 C 1167.7 2.16055 2.6097 0
M  V30 12467 C 1166.26 2.07697 3.13909 0
M  V30 12468 C 1165.41 2.05099 1.86627 0
M  V30 12469 H 1168.36 1.43633 0.674929 0
M  V30 12470 H 1168.38 1.75207 3.37761 0
M  V30 12471 H 1167.89 3.17375 2.23371 0
M  V30 12472 H 1165.99 1.09583 3.56121 0
M  V30 12473 H 1166.11 2.96958 3.75969 0
M  V30 12474 H 1164.47 1.50162 2.05727 0
M  V30 12475 H 1165.25 3.0818 1.51261 0
M  V30 12476 N 1167.7 -1.08142 1.14644 0
M  V30 12477 C 1168.95 -1.80225 0.914517 0
M  V30 12478 C 1169.27 -1.86778 -0.560269 0
M  V30 12479 O 1168.54 -1.36284 -1.40724 0
M  V30 12480 H 1167.12 -0.667492 0.335356 0
M  V30 12481 H 1169.78 -1.30729 1.44554 0
M  V30 12482 H 1168.88 -2.82958 1.31685 0
M  V30 12483 N 1169.18 -0.941978 -1.26351 0
M  V30 12484 C 1170.09 -0.45833 -2.30079 0
M  V30 12485 C 1171.1 0.468084 -1.67586 0
M  V30 12486 O 1172.28 0.347418 -1.98381 0
M  V30 12487 C 1169.34 0.26797 -3.45663 0
M  V30 12488 C 1168.41 -0.695102 -4.23635 0
M  V30 12489 C 1167.64 -0.003369 -5.337 0
M  V30 12490 O 1167.86 1.21342 -5.57344 0
M  V30 12491 O 1166.8 -0.682476 -5.98018 0
M  V30 12492 H 1170.62 -1.31998 -2.73514 0
M  V30 12493 H 1168.21 -0.707897 -1.31564 0
M  V30 12494 H 1170.09 0.677061 -4.15925 0
M  V30 12495 H 1168.76 1.105 -3.04256 0
M  V30 12496 H 1167.67 -1.15415 -3.55851 0
M  V30 12497 H 1169 -1.49977 -4.68794 0
M  V30 12498 N 1170.66 1.40747 -0.709091 0
M  V30 12499 C 1171.57 2.3454 -0.0532205 0
M  V30 12500 C 1172.58 1.56956 0.751057 0
M  V30 12501 O 1173.76 1.89375 0.685509 0
M  V30 12502 C 1170.82 3.35809 0.862157 0
M  V30 12503 C 1169.88 4.29273 0.0485632 0
M  V30 12504 C 1169.12 5.25705 0.920345 0
M  V30 12505 O 1169.34 5.27933 2.15969 0
M  V30 12506 O 1168.27 6.00806 0.3628 0
M  V30 12507 H 1172.1 2.92232 -0.826698 0
M  V30 12508 H 1169.68 1.4183 -0.469519 0
M  V30 12509 H 1171.57 3.97931 1.38668 0
M  V30 12510 H 1170.24 2.8054 1.61489 0
M  V30 12511 H 1169.15 3.70456 -0.520873 0
M  V30 12512 H 1170.48 4.87676 -0.665807 0
M  V30 12513 N 1172.13 0.454803 1.50895 0
M  V30 12514 C 1173.41 -0.166559 1.9489 0
M  V30 12515 C 1173.79 -1.58492 1.3944 0
M  V30 12516 O 1173.14 -2.20788 0.588622 0
M  V30 12517 C 1173.35 -0.126506 3.48771 0
M  V30 12518 C 1174.7 -0.32347 4.23366 0
M  V30 12519 O 1175.72 -0.203835 3.55616 0
M  V30 12520 O 1174.58 -0.563292 5.43589 0
M  V30 12521 H 1171.67 -0.120523 0.818171 0
M  V30 12522 H 1174.22 0.514037 1.61727 0
M  V30 12523 H 1172.99 0.864407 3.81633 0
M  V30 12524 H 1172.61 -0.849264 3.88424 0
M  V30 12525 N 1173.61 -1.56489 0.186789 0
M  V30 12526 C 1174.89 -1.89066 -0.501337 0
M  V30 12527 C 1175.27 -1.09906 -1.80233 0
M  V30 12528 O 1174.62 -0.197626 -2.27644 0
M  V30 12529 C 1174.83 -3.41318 -0.728207 0
M  V30 12530 C 1176.17 -4.11379 -1.0513 0
M  V30 12531 O 1177.2 -3.46722 -0.816216 0
M  V30 12532 O 1176.06 -5.25638 -1.49557 0
M  V30 12533 H 1173.15 -0.784966 -0.260303 0
M  V30 12534 H 1175.7 -1.68183 0.226382 0
M  V30 12535 H 1174.47 -3.90834 0.19088 0
M  V30 12536 H 1174.09 -3.67865 -1.50869 0
M  V30 12537 N 1175.09 0.086862 -1.5736 0
M  V30 12538 C 1176.31 0.806017 -1.91097 0
M  V30 12539 C 1176.74 1.71082 -0.78183 0
M  V30 12540 O 1176.1 1.79335 0.266175 0
M  V30 12541 C 1176.15 1.5884 -3.23732 0
M  V30 12542 O 1175.25 2.69798 -3.11902 0
M  V30 12543 H 1174.59 0.220899 -0.626179 0
M  V30 12544 H 1177.12 0.059619 -2.04513 0
M  V30 12545 H 1177.13 1.97088 -3.5724 0
M  V30 12546 H 1175.81 0.924426 -4.05496 0
M  V30 12547 H 1174.38 2.34519 -2.89923 0
M  V30 12548 N 1176.57 1.53483 0.357892 0
M  V30 12549 C 1177.79 1.74264 1.12458 0
M  V30 12550 C 1178.22 0.473944 1.82031 0
M  V30 12551 O 1177.58 -0.57253 1.72023 0
M  V30 12552 C 1177.62 2.91356 2.12471 0
M  V30 12553 O 1176.73 2.60502 3.19707 0
M  V30 12554 H 1176.07 0.578499 0.325937 0
M  V30 12555 H 1178.6 2.00395 0.412666 0
M  V30 12556 H 1178.61 3.1774 2.5594 0
M  V30 12557 H 1177.28 3.83378 1.61226 0
M  V30 12558 H 1175.86 2.44961 2.81156 0
M  V30 12559 N 1178.05 -0.61812 1.44973 0
M  V30 12560 C 1179.29 -1.37468 1.48145 0
M  V30 12561 C 1179.61 -1.94628 0.120366 0
M  V30 12562 O 1178.88 -1.76548 -0.848982 0
M  V30 12563 H 1177.46 -0.510293 0.545536 0
M  V30 12564 H 1180.13 -0.726598 1.8085 0
M  V30 12565 H 1179.22 -2.19944 2.2143 0
M  V30 12566 N 1179.52 -1.32087 -0.859693 0
M  V30 12567 C 1180.46 -1.14934 -1.97143 0
M  V30 12568 C 1181.43 -0.0501084 -1.62523 0
M  V30 12569 O 1182.62 -0.208472 -1.87344 0
M  V30 12570 C 1179.75 -0.758374 -3.30101 0
M  V30 12571 C 1178.79 -1.86212 -3.83702 0
M  V30 12572 S 1179.62 -3.46949 -4.07905 0
M  V30 12573 C 1180.78 -3.09813 -5.43844 0
M  V30 12574 H 1181.01 -2.09047 -2.11392 0
M  V30 12575 H 1178.55 -1.1669 -1.01108 0
M  V30 12576 H 1180.5 -0.539563 -4.06939 0
M  V30 12577 H 1179.17 0.163817 -3.13673 0
M  V30 12578 H 1178.36 -1.54144 -4.7985 0
M  V30 12579 H 1177.96 -2.03652 -3.13691 0
M  V30 12580 H 1180.25 -2.59345 -6.25897 0
M  V30 12581 H 1181.2 -4.04963 -5.8087 0
M  V30 12582 H 1181.6 -2.46971 -5.07607 0
M  V30 12583 N 1181 1.07532 -1.15215 0
M  V30 12584 C 1181.93 2.1668 -0.870171 0
M  V30 12585 C 1182.91 1.69161 0.178483 0
M  V30 12586 O 1184.1 1.94172 0.0332489 0
M  V30 12587 C 1181.23 3.45464 -0.356666 0
M  V30 12588 C 1180.18 4.06424 -1.34179 0
M  V30 12589 C 1179.51 5.30266 -0.687206 0
M  V30 12590 C 1180.81 4.46666 -2.70715 0
M  V30 12591 H 1182.5 2.40526 -1.7829 0
M  V30 12592 H 1180.05 1.15598 -0.858665 0
M  V30 12593 H 1182 4.21144 -0.146947 0
M  V30 12594 H 1180.72 3.21199 0.591527 0
M  V30 12595 H 1179.38 3.32786 -1.53783 0
M  V30 12596 H 1179.03 5.0229 0.267077 0
M  V30 12597 H 1178.73 5.72009 -1.34462 0
M  V30 12598 H 1180.26 6.08653 -0.487218 0
M  V30 12599 H 1181.67 5.13483 -2.54966 0
M  V30 12600 H 1180.07 4.99355 -3.32813 0
M  V30 12601 H 1181.14 3.58123 -3.26919 0
M  V30 12602 N 1182.48 0.948665 1.2585 0
M  V30 12603 C 1183.44 0.468673 2.24357 0
M  V30 12604 C 1184.44 -0.424355 1.551 0
M  V30 12605 O 1185.63 -0.222481 1.72773 0
M  V30 12606 C 1182.77 -0.32359 3.39361 0
M  V30 12607 H 1183.96 1.33928 2.68334 0
M  V30 12608 H 1181.51 0.731357 1.38133 0
M  V30 12609 H 1182.25 -1.21212 3.00796 0
M  V30 12610 H 1182.03 0.316998 3.90816 0
M  V30 12611 H 1183.52 -0.649087 4.12525 0
M  V30 12612 N 1183.96 -1.40369 0.716545 0
M  V30 12613 C 1184.89 -2.33365 0.0793533 0
M  V30 12614 C 1185.87 -1.52943 -0.744482 0
M  V30 12615 O 1187.05 -1.81406 -0.693212 0
M  V30 12616 C 1184.18 -3.36928 -0.842429 0
M  V30 12617 C 1183.14 -4.2782 -0.124142 0
M  V30 12618 C 1182.46 -5.21928 -1.1617 0
M  V30 12619 C 1183.76 -5.12199 1.02224 0
M  V30 12620 H 1185.46 -2.86899 0.856115 0
M  V30 12621 H 1183 -1.37946 0.413138 0
M  V30 12622 H 1184.96 -4.00925 -1.29759 0
M  V30 12623 H 1183.68 -2.81791 -1.6511 0
M  V30 12624 H 1182.34 -3.65277 0.311201 0
M  V30 12625 H 1181.99 -4.63096 -1.96345 0
M  V30 12626 H 1181.69 -5.83582 -0.685978 0
M  V30 12627 H 1183.21 -5.88802 -1.61694 0
M  V30 12628 H 1184.63 -5.69644 0.646399 0
M  V30 12629 H 1183.02 -5.82901 1.4264 0
M  V30 12630 H 1184.09 -4.4812 1.85246 0
M  V30 12631 N 1185.44 -0.462799 -1.50652 0
M  V30 12632 C 1186.39 0.354133 -2.25233 0
M  V30 12633 C 1187.37 0.968553 -1.28483 0
M  V30 12634 O 1188.56 0.882476 -1.53432 0
M  V30 12635 C 1185.69 1.44033 -3.11624 0
M  V30 12636 C 1184.78 0.834046 -4.15818 0
M  V30 12637 N 1185.17 -0.0407022 -5.05784 0
M  V30 12638 C 1183.47 1.0989 -4.3225 0
M  V30 12639 C 1184.17 -0.383917 -5.80432 0
M  V30 12640 N 1183.14 0.238851 -5.43075 0
M  V30 12641 H 1186.95 -0.319855 -2.92154 0
M  V30 12642 H 1184.46 -0.276428 -1.6003 0
M  V30 12643 H 1186.46 2.03868 -3.63653 0
M  V30 12644 H 1185.12 2.11639 -2.4625 0
M  V30 12645 H 1186.13 -0.408959 -5.16283 0
M  V30 12646 H 1182.8 1.77056 -3.78097 0
M  V30 12647 H 1184.19 -1.0973 -6.62879 0
M  V30 12648 N 1186.91 1.56388 -0.195085 0
M  V30 12649 C 1187.82 2.22698 0.737743 0
M  V30 12650 C 1188.84 1.22605 1.23466 0
M  V30 12651 O 1190.02 1.55342 1.28183 0
M  V30 12652 C 1187.08 2.87333 1.94011 0
M  V30 12653 C 1186.14 4.02696 1.48776 0
M  V30 12654 C 1185.38 4.64239 2.63282 0
M  V30 12655 O 1185.6 4.24706 3.80763 0
M  V30 12656 O 1184.53 5.53705 2.35996 0
M  V30 12657 H 1188.36 3.03021 0.203013 0
M  V30 12658 H 1185.94 1.49361 0.0342044 0
M  V30 12659 H 1187.83 3.28226 2.64284 0
M  V30 12660 H 1186.5 2.0999 2.46345 0
M  V30 12661 H 1185.41 3.66426 0.753839 0
M  V30 12662 H 1186.74 4.81703 1.01109 0
M  V30 12663 N 1188.39 -0.0785156 1.57404 0
M  V30 12664 C 1189.3 -1.11203 2.0657 0
M  V30 12665 C 1190.32 -1.42822 0.993872 0
M  V30 12666 O 1191.49 -1.53133 1.30814 0
M  V30 12667 C 1188.56 -2.40812 2.4942 0
M  V30 12668 C 1187.62 -2.16225 3.70871 0
M  V30 12669 C 1186.85 -3.39654 4.11668 0
M  V30 12670 O 1187.08 -4.48521 3.524 0
M  V30 12671 O 1186.01 -3.28263 5.04507 0
M  V30 12672 H 1189.84 -0.724381 2.94935 0
M  V30 12673 H 1187.42 -0.292184 1.46515 0
M  V30 12674 H 1189.3 -3.17101 2.77534 0
M  V30 12675 H 1187.98 -2.7897 1.64187 0
M  V30 12676 H 1186.89 -1.37663 3.4785 0
M  V30 12677 H 1188.22 -1.82951 4.56935 0
M  V30 12678 N 1189.87 -1.5367 -0.349747 0
M  V30 12679 C 1191.12 -1.70618 -1.09068 0
M  V30 12680 C 1191.45 -0.466133 -1.88832 0
M  V30 12681 O 1190.7 0.552079 -1.87751 0
M  V30 12682 C 1191 -2.91753 -2.06434 0
M  V30 12683 C 1190.67 -4.27614 -1.43029 0
M  V30 12684 C 1189.33 -4.64555 -1.25466 0
M  V30 12685 C 1191.68 -5.12037 -0.972987 0
M  V30 12686 C 1189.01 -5.83543 -0.607807 0
M  V30 12687 C 1191.36 -6.31685 -0.340073 0
M  V30 12688 C 1190.02 -6.67327 -0.152069 0
M  V30 12689 H 1189.29 -0.624334 -0.399108 0
M  V30 12690 H 1191.94 -1.87879 -0.370657 0
M  V30 12691 H 1190.25 -2.6907 -2.84796 0
M  V30 12692 H 1191.94 -3.02059 -2.63744 0
M  V30 12693 H 1188.53 -3.98535 -1.57696 0
M  V30 12694 H 1192.72 -4.84035 -1.09655 0
M  V30 12695 H 1187.97 -6.09737 -0.450705 0
M  V30 12696 H 1192.15 -6.96396 0.0223973 0
M  V30 12697 H 1189.77 -7.59388 0.35121 0
M  V30 12698 N 1191.35 0.610423 -1.45298 0
M  V30 12699 C 1192.28 1.73493 -1.48241 0
M  V30 12700 C 1193.26 1.59025 -0.339065 0
M  V30 12701 O 1194.44 1.80625 -0.539144 0
M  V30 12702 C 1191.57 3.11291 -1.33476 0
M  V30 12703 C 1190.62 3.44355 -2.51638 0
M  V30 12704 S 1191.45 3.39512 -4.14116 0
M  V30 12705 C 1192.61 4.79895 -4.01811 0
M  V30 12706 H 1192.84 1.70734 -2.43387 0
M  V30 12707 H 1190.37 0.786833 -1.32847 0
M  V30 12708 H 1192.33 3.90799 -1.25644 0
M  V30 12709 H 1190.99 3.11568 -0.39805 0
M  V30 12710 H 1190.18 4.44679 -2.37226 0
M  V30 12711 H 1189.79 2.72356 -2.56317 0
M  V30 12712 H 1192.08 5.6963 -3.6678 0
M  V30 12713 H 1193.02 4.99363 -5.02038 0
M  V30 12714 H 1193.43 4.55443 -3.33515 0
M  V30 12715 N 1192.83 1.32541 0.852676 0
M  V30 12716 C 1194.07 1.23397 1.60938 0
M  V30 12717 C 1194.41 -0.203294 1.93133 0
M  V30 12718 O 1193.68 -1.14097 1.57519 0
M  V30 12719 C 1193.96 2.0956 2.92842 0
M  V30 12720 C 1193.82 3.61675 2.67416 0
M  V30 12721 C 1195.14 1.95825 3.94133 0
M  V30 12722 H 1192.25 0.449608 0.583971 0
M  V30 12723 H 1194.9 1.62507 0.98446 0
M  V30 12724 H 1193.05 1.76336 3.46176 0
M  V30 12725 H 1194.72 4.05122 2.20621 0
M  V30 12726 H 1192.96 3.84242 2.01347 0
M  V30 12727 H 1193.63 4.17292 3.61347 0
M  V30 12728 H 1196.11 2.24935 3.50062 0
M  V30 12729 H 1194.98 2.58387 4.8428 0
M  V30 12730 H 1195.25 0.926466 4.32284 0
M  V30 12731 N 1194.3 -1.0692 1.15784 0
M  V30 12732 C 1195.72 -1.61069 0.944123 0
M  V30 12733 C 1196.07 -1.8936 -0.513522 0
M  V30 12734 O 1195.19 -1.66232 -1.38549 0
M  V30 12735 C 1195.79 -2.9263 1.70743 0
M  V30 12736 C 1194.35 -3.43505 1.53887 0
M  V30 12737 C 1193.49 -2.17495 1.72021 0
M  V30 12738 H 1196.44 -0.89951 1.30746 0
M  V30 12739 H 1196.46 -3.61757 1.17951 0
M  V30 12740 H 1195.98 -2.72007 2.76828 0
M  V30 12741 H 1194.08 -3.69201 0.502153 0
M  V30 12742 H 1194.19 -4.19254 2.31868 0
M  V30 12743 H 1192.55 -2.27407 1.1471 0
M  V30 12744 H 1193.34 -1.99362 2.79481 0
M  V30 12745 N 1195.78 -0.955326 -1.25345 0
M  V30 12746 C 1196.75 -0.480564 -2.24105 0
M  V30 12747 C 1197.75 0.416123 -1.55322 0
M  V30 12748 O 1198.94 0.213315 -1.72889 0
M  V30 12749 C 1196.07 0.305589 -3.39528 0
M  V30 12750 H 1197.26 -1.35349 -2.6762 0
M  V30 12751 H 1194.81 -0.738673 -1.37744 0
M  V30 12752 H 1195.55 1.19615 -3.01434 0
M  V30 12753 H 1195.33 -0.337719 -3.90643 0
M  V30 12754 H 1196.82 0.627201 -4.12863 0
M  V30 12755 N 1197.26 1.39987 -0.723979 0
M  V30 12756 C 1198.49 2.05037 -0.27702 0
M  V30 12757 C 1198.9 1.54565 1.08421 0
M  V30 12758 O 1198.26 0.705795 1.683 0
M  V30 12759 C 1198.31 3.60582 -0.25751 0
M  V30 12760 O 1198.03 4.09194 -1.565 0
M  V30 12761 C 1199.53 4.42817 0.206972 0
M  V30 12762 H 1196.75 0.659637 -0.122963 0
M  V30 12763 H 1199.3 1.7924 -0.98454 0
M  V30 12764 H 1197.45 3.85319 0.401037 0
M  V30 12765 H 1197.87 5.03447 -1.47112 0
M  V30 12766 H 1199.34 5.5174 0.16947 0
M  V30 12767 H 1199.82 4.21023 1.25045 0
M  V30 12768 H 1200.42 4.23205 -0.421604 0
M  V30 12769 N 1198.74 0.470782 1.50404 0
M  V30 12770 C 1199.69 -0.32355 2.28521 0
M  V30 12771 C 1200.66 -0.987472 1.3356 0
M  V30 12772 O 1201.84 -0.999969 1.62497 0
M  V30 12773 C 1198.98 -1.39977 3.15437 0
M  V30 12774 C 1198.09 -0.750656 4.25428 0
M  V30 12775 C 1197.23 -1.80474 4.99602 0
M  V30 12776 C 1196.27 -1.13586 6.01469 0
M  V30 12777 N 1195.41 -2.13279 6.68922 0
M  V30 12778 H 1200.25 0.348902 2.9595 0
M  V30 12779 H 1197.78 0.183908 1.45946 0
M  V30 12780 H 1199.74 -2.0354 3.6418 0
M  V30 12781 H 1198.37 -2.04139 2.50054 0
M  V30 12782 H 1197.42 -0.00247092 3.804 0
M  V30 12783 H 1198.73 -0.222638 4.98303 0
M  V30 12784 H 1197.89 -2.51619 5.52062 0
M  V30 12785 H 1196.63 -2.36657 4.26433 0
M  V30 12786 H 1195.63 -0.410042 5.48269 0
M  V30 12787 H 1196.86 -0.580935 6.76611 0
M  V30 12788 H 1194.8 -2.68479 5.98544 0
M  V30 12789 H 1194.72 -1.65461 7.37671 0
M  V30 12790 H 1195.99 -2.83804 7.26 0
M  V30 12791 N 1200.22 -1.56282 0.203376 0
M  V30 12792 C 1201.18 -2.18233 -0.700489 0
M  V30 12793 C 1202.18 -1.13908 -1.13497 0
M  V30 12794 O 1203.37 -1.39246 -1.04672 0
M  V30 12795 C 1200.5 -2.79107 -1.95735 0
M  V30 12796 H 1201.7 -2.99469 -0.160649 0
M  V30 12797 H 1199.25 -1.56232 -0.0462475 0
M  V30 12798 H 1199.98 -2.01691 -2.53951 0
M  V30 12799 H 1199.77 -3.55486 -1.65446 0
M  V30 12800 H 1201.26 -3.2665 -2.60172 0
M  V30 12801 N 1201.7 0.070167 -1.57444 0
M  V30 12802 C 1202.63 1.08351 -2.06839 0
M  V30 12803 C 1203.61 1.40269 -0.962224 0
M  V30 12804 O 1204.79 1.49867 -1.23505 0
M  V30 12805 C 1201.92 2.39649 -2.51368 0
M  V30 12806 C 1200.88 2.22079 -3.65875 0
M  V30 12807 C 1200.2 3.58776 -3.96464 0
M  V30 12808 C 1201.5 1.64069 -4.95862 0
M  V30 12809 H 1203.2 0.672465 -2.9175 0
M  V30 12810 H 1200.74 0.322027 -1.40353 0
M  V30 12811 H 1202.69 3.10833 -2.84537 0
M  V30 12812 H 1201.42 2.82736 -1.63487 0
M  V30 12813 H 1200.08 1.53337 -3.32992 0
M  V30 12814 H 1199.73 3.99436 -3.05712 0
M  V30 12815 H 1199.43 3.47859 -4.7357 0
M  V30 12816 H 1200.95 4.31387 -4.32131 0
M  V30 12817 H 1202.36 2.2512 -5.27251 0
M  V30 12818 H 1200.76 1.63843 -5.773 0
M  V30 12819 H 1201.83 0.60232 -4.81145 0
M  V30 12820 N 1203.17 1.53854 0.341593 0
M  V30 12821 C 1204.12 1.8268 1.43982 0
M  V30 12822 C 1205.12 0.697415 1.54378 0
M  V30 12823 O 1206.32 0.880785 1.56978 0
M  V30 12824 H 1202.7 0.578788 0.480113 0
M  V30 12825 H 1204.67 2.74556 1.16884 0
M  V30 12826 C 1203.42 2.05496 2.80476 0
M  V30 12827 H 1202.74 2.91852 2.73244 0
M  V30 12828 H 1204.18 2.2963 3.56435 0
M  V30 12829 C 1202.64 0.841061 3.26233 0
M  V30 12830 O 1203.17 0.0414376 4.01679 0
M  V30 12831 N 1201.37 0.657736 2.83059 0
M  V30 12832 H 1200.92 1.30962 2.21826 0
M  V30 12833 H 1200.88 -0.153003 3.14027 0
M  V30 12834 N 1204.65 -0.602709 1.4562 0
M  V30 12835 C 1205.58 -1.72374 1.5751 0
M  V30 12836 C 1206.56 -1.64669 0.426389 0
M  V30 12837 O 1207.75 -1.82994 0.650143 0
M  V30 12838 C 1204.88 -3.10987 1.5461 0
M  V30 12839 C 1203.83 -3.33507 2.68248 0
M  V30 12840 C 1203.16 -4.72443 2.50403 0
M  V30 12841 C 1204.46 -3.23285 4.10224 0
M  V30 12842 H 1206.15 -1.62679 2.51348 0
M  V30 12843 H 1203.7 -0.781217 1.20967 0
M  V30 12844 H 1205.65 -3.89214 1.61525 0
M  V30 12845 H 1204.37 -3.21533 0.573049 0
M  V30 12846 H 1203.03 -2.57672 2.60769 0
M  V30 12847 H 1202.68 -4.79729 1.51226 0
M  V30 12848 H 1202.38 -4.88466 3.26611 0
M  V30 12849 H 1203.91 -5.52864 2.59179 0
M  V30 12850 H 1205.32 -3.91381 4.1892 0
M  V30 12851 H 1203.72 -3.50837 4.86861 0
M  V30 12852 H 1204.79 -2.20652 4.31788 0
M  V30 12853 N 1206.13 -1.32992 -0.845635 0
M  V30 12854 C 1207.54 -1.21616 -1.41656 0
M  V30 12855 C 1207.89 0.167687 -1.95482 0
M  V30 12856 O 1207.02 1.06692 -1.8827 0
M  V30 12857 C 1207.61 -2.2018 -2.575 0
M  V30 12858 C 1206.17 -2.12664 -3.10565 0
M  V30 12859 C 1205.32 -2.08042 -1.83341 0
M  V30 12860 H 1208.27 -1.44688 -0.651993 0
M  V30 12861 H 1208.29 -1.80558 -3.34931 0
M  V30 12862 H 1207.8 -3.20888 -2.18294 0
M  V30 12863 H 1205.9 -1.15235 -3.54333 0
M  V30 12864 H 1206.02 -3.02902 -3.71197 0
M  V30 12865 H 1204.38 -1.53416 -2.03312 0
M  V30 12866 H 1205.16 -3.10547 -1.46339 0
M  V30 12867 N 1207.61 1.06304 -1.1635 0
M  V30 12868 C 1208.57 2.11947 -0.872419 0
M  V30 12869 C 1209.57 1.60253 0.132534 0
M  V30 12870 O 1210.76 1.73922 -0.0983441 0
M  V30 12871 C 1207.89 3.39536 -0.304646 0
M  V30 12872 H 1209.09 2.39201 -1.80894 0
M  V30 12873 H 1206.64 1.22367 -0.972419 0
M  V30 12874 H 1207.37 3.17931 0.639565 0
M  V30 12875 H 1207.16 3.78363 -1.02878 0
M  V30 12876 H 1208.65 4.17431 -0.118936 0
M  V30 12877 N 1209.09 0.96196 1.24836 0
M  V30 12878 C 1210.5 0.667561 1.44968 0
M  V30 12879 C 1210.7 -0.772521 1.86103 0
M  V30 12880 O 1209.76 -1.54704 1.99557 0
M  V30 12881 C 1211.07 1.64675 2.516 0
M  V30 12882 C 1212.62 1.65874 2.65433 0
M  V30 12883 C 1213.09 2.62576 3.75257 0
M  V30 12884 N 1214.58 2.60984 3.82677 0
M  V30 12885 C 1215.32 3.32484 4.67163 0
M  V30 12886 N 1214.82 4.13482 5.55882 0
M  V30 12887 N 1216.61 3.21336 4.61193 0
M  V30 12888 H 1208.76 1.89248 0.964307 0
M  V30 12889 H 1211.02 0.814443 0.485167 0
M  V30 12890 H 1210.73 2.67572 2.2825 0
M  V30 12891 H 1210.6 1.415 3.49653 0
M  V30 12892 H 1212.99 0.636912 2.88145 0
M  V30 12893 H 1213.07 1.9311 1.67756 0
M  V30 12894 H 1212.71 3.6489 3.53295 0
M  V30 12895 H 1212.64 2.32622 4.72435 0
M  V30 12896 H 1215.14 2.02187 3.19263 0
M  V30 12897 H 1215.45 4.6494 6.17293 0
M  V30 12898 H 1213.79 4.17578 5.55566 0
M  V30 12899 H 1216.98 2.57524 3.90895 0
M  V30 12900 H 1217.16 3.77323 5.26812 0
M  V30 12901 N 1210.56 -1.39601 0.731392 0
M  V30 12902 C 1211.79 -2.04887 0.28789 0
M  V30 12903 C 1212.21 -1.55138 -1.076 0
M  V30 12904 O 1211.56 -0.71471 -1.67923 0
M  V30 12905 C 1211.61 -3.6044 0.276629 0
M  V30 12906 O 1211.34 -4.08358 1.58668 0
M  V30 12907 C 1212.84 -4.4292 -0.183485 0
M  V30 12908 H 1210.06 -0.658976 0.126459 0
M  V30 12909 H 1212.6 -1.78716 0.994031 0
M  V30 12910 H 1210.76 -3.85526 -0.380597 0
M  V30 12911 H 1211.17 -5.02659 1.4978 0
M  V30 12912 H 1212.64 -5.51822 -0.140207 0
M  V30 12913 H 1213.12 -4.2168 -1.22811 0
M  V30 12914 H 1213.73 -4.22976 0.444042 0
M  V30 12915 N 1212.04 -0.478751 -1.50152 0
M  V30 12916 C 1213.29 0.073694 -2.02666 0
M  V30 12917 C 1213.62 1.38679 -1.35947 0
M  V30 12918 O 1212.9 1.88286 -0.4877 0
M  V30 12919 C 1213.18 0.249516 -3.59235 0
M  V30 12920 C 1213.03 -1.08514 -4.36514 0
M  V30 12921 C 1214.35 1.00053 -4.28576 0
M  V30 12922 H 1211.47 0.0253082 -0.736565 0
M  V30 12923 H 1214.11 -0.625834 -1.79397 0
M  V30 12924 H 1212.26 0.845343 -3.79192 0
M  V30 12925 H 1213.93 -1.71814 -4.28109 0
M  V30 12926 H 1212.18 -1.67992 -3.99952 0
M  V30 12927 H 1212.85 -0.915676 -5.44352 0
M  V30 12928 H 1215.32 0.495422 -4.1314 0
M  V30 12929 H 1214.2 1.09236 -5.37921 0
M  V30 12930 H 1214.46 2.03896 -3.92274 0
M  V30 12931 N 1213.52 1.56172 -0.211661 0
M  V30 12932 C 1214.75 2.02428 0.427843 0
M  V30 12933 C 1215.16 1.09162 1.54043 0
M  V30 12934 O 1214.52 0.0994249 1.82229 0
M  V30 12935 C 1214.57 3.48279 0.968728 0
M  V30 12936 O 1214.29 4.37987 -0.0994841 0
M  V30 12937 C 1215.79 4.10132 1.68246 0
M  V30 12938 H 1213.01 0.662611 0.10577 0
M  V30 12939 H 1215.56 2.01897 -0.32522 0
M  V30 12940 H 1213.71 3.49456 1.6721 0
M  V30 12941 H 1214.13 5.23609 0.305558 0
M  V30 12942 H 1215.6 5.13985 2.01304 0
M  V30 12943 H 1216.08 3.54552 2.5921 0
M  V30 12944 H 1216.68 4.12775 1.02453 0
M  V30 12945 N 1215 -0.0618163 1.57479 0
M  V30 12946 C 1215.96 -1.05684 2.0338 0
M  V30 12947 C 1216.96 -1.31006 0.932423 0
M  V30 12948 O 1218.15 -1.26559 1.19702 0
M  V30 12949 C 1215.28 -2.39805 2.42294 0
M  V30 12950 H 1216.48 -0.661006 2.92525 0
M  V30 12951 H 1214.03 -0.307814 1.53239 0
M  V30 12952 H 1214.76 -2.84201 1.56207 0
M  V30 12953 H 1214.55 -2.22764 3.22674 0
M  V30 12954 H 1216.04 -3.11307 2.78349 0
M  V30 12955 N 1216.48 -1.54033 -0.333429 0
M  V30 12956 C 1217.75 -1.62404 -1.09015 0
M  V30 12957 C 1218.13 -0.451653 -2.06212 0
M  V30 12958 O 1217.48 0.555086 -2.21655 0
M  V30 12959 C 1217.69 -2.98949 -1.80085 0
M  V30 12960 C 1219.04 -3.54655 -2.33464 0
M  V30 12961 O 1220.06 -3.0119 -1.90166 0
M  V30 12962 O 1218.92 -4.48195 -3.12703 0
M  V30 12963 H 1216.02 -0.65727 -0.501921 0
M  V30 12964 H 1218.56 -1.66378 -0.33411 0
M  V30 12965 H 1217.33 -3.75716 -1.09332 0
M  V30 12966 H 1216.96 -2.98609 -2.62523 0
M  V30 12967 N 1217.95 0.594978 -1.45938 0
M  V30 12968 C 1219.18 1.38482 -1.54394 0
M  V30 12969 C 1219.6 1.87222 -0.181563 0
M  V30 12970 O 1218.96 1.60869 0.836119 0
M  V30 12971 C 1219.01 2.55676 -2.54287 0
M  V30 12972 O 1218.11 3.5672 -2.06941 0
M  V30 12973 H 1217.46 0.412918 -0.519995 0
M  V30 12974 H 1219.99 0.722899 -1.91404 0
M  V30 12975 H 1220 3.02756 -2.73501 0
M  V30 12976 H 1218.67 2.19552 -3.53228 0
M  V30 12977 H 1217.25 3.16204 -1.97661 0
M  V30 12978 N 1219.43 1.33438 0.838571 0
M  V30 12979 C 1220.85 1.12779 1.12929 0
M  V30 12980 C 1221.05 -0.0811188 2.01337 0
M  V30 12981 O 1220.1 -0.761294 2.4075 0
M  V30 12982 C 1221.42 2.41537 1.7911 0
M  V30 12983 C 1222.97 2.47447 1.91674 0
M  V30 12984 C 1223.44 3.76167 2.6127 0
M  V30 12985 N 1224.93 3.7724 2.68783 0
M  V30 12986 C 1225.67 4.7355 3.23323 0
M  V30 12987 N 1225.16 5.80235 3.78549 0
M  V30 12988 N 1226.96 4.61025 3.21578 0
M  V30 12989 H 1219.11 2.10921 0.250187 0
M  V30 12990 H 1221.37 0.931986 0.17351 0
M  V30 12991 H 1221.08 3.30006 1.21609 0
M  V30 12992 H 1220.95 2.53709 2.79127 0
M  V30 12993 H 1223.34 1.59427 2.48328 0
M  V30 12994 H 1223.42 2.39216 0.906058 0
M  V30 12995 H 1223.06 4.64569 2.05275 0
M  V30 12996 H 1222.99 3.81675 3.62811 0
M  V30 12997 H 1225.48 3.00138 2.29621 0
M  V30 12998 H 1225.8 6.49759 4.1837 0
M  V30 12999 H 1224.14 5.83969 3.76836 0
M  V30 13000 H 1227.33 3.76836 2.77691 0
M  V30 13001 H 1227.5 5.36253 3.63781 0
M  V30 13002 N 1220.91 -1.05686 1.16912 0
M  V30 13003 C 1222.14 -1.82282 0.978811 0
M  V30 13004 C 1222.55 -1.8278 -0.472972 0
M  V30 13005 O 1221.91 -1.25143 -1.32836 0
M  V30 13006 C 1221.96 -3.28623 1.50629 0
M  V30 13007 O 1221.68 -3.28269 2.90122 0
M  V30 13008 C 1223.18 -4.21927 1.35987 0
M  V30 13009 H 1220.4 -0.574558 0.346588 0
M  V30 13010 H 1222.95 -1.33301 1.55084 0
M  V30 13011 H 1221.1 -3.74893 0.976404 0
M  V30 13012 H 1221.52 -4.19824 3.14401 0
M  V30 13013 H 1222.99 -5.2261 1.77716 0
M  V30 13014 H 1223.47 -4.38131 0.30626 0
M  V30 13015 H 1224.07 -3.81508 1.87968 0
M  V30 13016 N 1222.39 -0.968567 -1.24324 0
M  V30 13017 C 1223.64 -0.626519 -1.91723 0
M  V30 13018 C 1223.95 0.84225 -1.76538 0
M  V30 13019 O 1225.16 1.29486 -2.38633 0
M  V30 13020 C 1223.61 -1.06992 -3.43629 0
M  V30 13021 C 1223.22 -2.5622 -3.67499 0
M  V30 13022 C 1224.96 -0.801057 -4.16873 0
M  V30 13023 C 1222.87 -2.94288 -5.1298 0
M  V30 13024 H 1221.8 -0.23062 -0.717865 0
M  V30 13025 H 1224.45 -1.17489 -1.40956 0
M  V30 13026 H 1222.83 -0.44985 -3.93437 0
M  V30 13027 H 1224.01 -3.23364 -3.28287 0
M  V30 13028 H 1222.32 -2.80726 -3.07542 0
M  V30 13029 H 1224.92 -1.06147 -5.24058 0
M  V30 13030 H 1225.26 0.262742 -4.1547 0
M  V30 13031 H 1225.8 -1.38213 -3.73017 0
M  V30 13032 H 1222.54 -3.99743 -5.19506 0
M  V30 13033 H 1222.06 -2.31829 -5.53187 0
M  V30 13034 H 1223.73 -2.84242 -5.81219 0
M  V30 13035 N 1223.87 1.39211 -0.738786 0
M  V30 13036 C 1225.09 2.05256 -0.297421 0
M  V30 13037 C 1225.52 1.55341 1.06069 0
M  V30 13038 O 1224.87 0.698823 1.67291 0
M  V30 13039 C 1224.92 3.59239 -0.312969 0
M  V30 13040 O 1224.03 4.06448 0.698112 0
M  V30 13041 H 1223.37 0.650245 -0.134454 0
M  V30 13042 H 1225.9 1.78173 -1.00577 0
M  V30 13043 H 1225.91 4.07691 -0.158675 0
M  V30 13044 H 1224.58 3.94931 -1.30394 0
M  V30 13045 H 1223.16 3.69401 0.509643 0
M  V30 13046 N 1225.34 0.486708 1.49896 0
M  V30 13047 C 1226.62 -0.125183 1.95199 0
M  V30 13048 C 1227 -1.55498 1.42771 0
M  V30 13049 O 1226.35 -2.1949 0.635322 0
M  V30 13050 C 1226.56 -0.0524982 3.48961 0
M  V30 13051 C 1227.91 -0.233595 4.23957 0
M  V30 13052 O 1228.93 -0.128357 3.55969 0
M  V30 13053 O 1227.79 -0.447862 5.44662 0
M  V30 13054 H 1224.88 -0.103141 0.820543 0
M  V30 13055 H 1227.43 0.548226 1.60601 0
M  V30 13056 H 1226.2 0.945163 3.79714 0
M  V30 13057 H 1225.83 -0.766683 3.90138 0
M  V30 13058 N 1226.82 -1.56058 0.219941 0
M  V30 13059 C 1228.05 -2.031 -0.42014 0
M  V30 13060 C 1228.47 -1.09875 -1.52673 0
M  V30 13061 O 1227.83 -0.0866458 -1.81093 0
M  V30 13062 C 1227.88 -3.48389 -0.93047 0
M  V30 13063 O 1226.98 -3.583 -2.04192 0
M  V30 13064 H 1226.32 -0.657129 -0.0952772 0
M  V30 13065 H 1228.85 -2.01787 0.338105 0
M  V30 13066 H 1228.86 -3.88678 -1.2407 0
M  V30 13067 H 1227.54 -4.15725 -0.120539 0
M  V30 13068 H 1226.12 -3.29898 -1.73845 0
M  V30 13069 N 1228.3 0.053464 -1.57509 0
M  V30 13070 C 1229.71 0.603099 -1.76691 0
M  V30 13071 C 1230.06 1.76934 -0.847861 0
M  V30 13072 O 1229.19 2.16369 -0.0364962 0
M  V30 13073 C 1229.78 1.10084 -3.20417 0
M  V30 13074 C 1228.34 1.59618 -3.4088 0
M  V30 13075 C 1227.49 0.523516 -2.72313 0
M  V30 13076 H 1230.44 -0.172751 -1.57757 0
M  V30 13077 H 1230.46 1.9691 -3.25587 0
M  V30 13078 H 1229.97 0.251818 -3.87282 0
M  V30 13079 H 1228.07 2.46786 -2.79155 0
M  V30 13080 H 1228.19 1.6605 -4.49404 0
M  V30 13081 H 1226.55 0.972886 -2.35387 0
M  V30 13082 H 1227.33 -0.315629 -3.41846 0
M  V30 13083 N 1229.78 1.54207 0.325255 0
M  V30 13084 C 1230.71 1.78318 1.42401 0
M  V30 13085 C 1231.69 0.633078 1.49769 0
M  V30 13086 O 1232.87 0.870324 1.67205 0
M  V30 13087 C 1230 1.89823 2.80509 0
M  V30 13088 C 1229.05 3.12102 2.9068 0
M  V30 13089 S 1229.88 4.70746 2.55262 0
M  V30 13090 C 1231.04 4.85154 3.95444 0
M  V30 13091 H 1231.27 2.71234 1.21736 0
M  V30 13092 H 1228.8 1.45309 0.521993 0
M  V30 13093 H 1230.76 1.97136 3.60066 0
M  V30 13094 H 1229.42 0.978873 2.98458 0
M  V30 13095 H 1228.61 3.16881 3.91921 0
M  V30 13096 H 1228.22 3.03109 2.19091 0
M  V30 13097 H 1230.51 4.67687 4.90178 0
M  V30 13098 H 1231.45 5.87254 3.95649 0
M  V30 13099 H 1231.86 4.13471 3.8432 0
M  V30 13100 N 1231.26 -0.58723 1.46251 0
M  V30 13101 C 1232.49 -1.37174 1.5489 0
M  V30 13102 C 1232.9 -1.87857 0.188445 0
M  V30 13103 O 1232.26 -1.63365 -0.813509 0
M  V30 13104 C 1232.31 -2.56237 2.55 0
M  V30 13105 O 1232.03 -2.07655 3.8576 0
M  V30 13106 C 1233.53 -3.48846 2.73535 0
M  V30 13107 H 1230.75 -0.419211 0.523931 0
M  V30 13108 H 1233.29 -0.714307 1.91619 0
M  V30 13109 H 1231.45 -3.1798 2.21287 0
M  V30 13110 H 1231.86 -2.85161 4.40208 0
M  V30 13111 H 1233.34 -4.2888 3.47514 0
M  V30 13112 H 1233.81 -4.00493 1.80282 0
M  V30 13113 H 1234.42 -2.92942 3.08326 0
M  V30 13114 N 1232.74 -1.33881 -0.831482 0
M  V30 13115 C 1233.68 -1.24741 -1.96322 0
M  V30 13116 C 1234.68 -0.147251 -1.68759 0
M  V30 13117 O 1235.88 -0.311684 -1.77281 0
M  V30 13118 H 1232.26 -0.387298 -0.644596 0
M  V30 13119 H 1234.23 -2.20407 -2.01155 0
M  V30 13120 C 1232.98 -1.01102 -3.32677 0
M  V30 13121 H 1232.3 -1.84986 -3.54429 0
M  V30 13122 H 1233.74 -0.987398 -4.12343 0
M  V30 13123 C 1232.2 0.285903 -3.35685 0
M  V30 13124 O 1232.73 1.29014 -3.80419 0
M  V30 13125 N 1230.94 0.316026 -2.88877 0
M  V30 13126 H 1230.48 -0.501758 -2.52666 0
M  V30 13127 H 1230.44 1.18357 -2.91271 0
M  V30 13128 N 1234.21 1.05064 -1.1747 0
M  V30 13129 C 1235.46 1.77481 -0.958301 0
M  V30 13130 C 1235.78 1.88725 0.51401 0
M  V30 13131 O 1236.98 2.57895 0.848657 0
M  V30 13132 C 1235.44 3.19048 -1.66543 0
M  V30 13133 C 1235.05 3.1593 -3.17636 0
M  V30 13134 C 1236.79 3.95912 -1.53146 0
M  V30 13135 C 1234.7 4.52293 -3.81032 0
M  V30 13136 H 1233.63 0.665247 -0.354913 0
M  V30 13137 H 1236.28 1.17751 -1.40737 0
M  V30 13138 H 1234.66 3.79113 -1.1441 0
M  V30 13139 H 1235.83 2.65375 -3.76713 0
M  V30 13140 H 1234.15 2.52564 -3.31059 0
M  V30 13141 H 1236.75 4.96737 -1.9788 0
M  V30 13142 H 1237.09 4.13498 -0.482203 0
M  V30 13143 H 1237.62 3.42399 -2.02504 0
M  V30 13144 H 1234.36 4.39913 -4.8596 0
M  V30 13145 H 1233.88 5.02991 -3.26741 0
M  V30 13146 H 1235.56 5.2123 -3.83312 0
M  V30 13147 N 1235.69 0.975146 1.23809 0
M  V30 13148 C 1236.64 0.503396 2.27087 0
M  V30 13149 C 1237.63 -0.43689 1.63669 0
M  V30 13150 O 1238.84 -0.31136 1.77287 0
M  V30 13151 H 1235.21 0.144346 0.738017 0
M  V30 13152 H 1237.19 1.38627 2.64244 0
M  V30 13153 C 1235.93 -0.183682 3.47214 0
M  V30 13154 H 1235.26 0.530753 3.96261 0
M  V30 13155 H 1236.7 -0.477479 4.21303 0
M  V30 13156 C 1235.16 -1.41317 3.05829 0
M  V30 13157 O 1235.69 -2.50975 3.13647 0
M  V30 13158 N 1233.89 -1.28191 2.60798 0
M  V30 13159 H 1233.44 -0.38967 2.54636 0
M  V30 13160 H 1233.4 -2.10565 2.33473 0
M  V30 13161 N 1237.17 -1.38817 0.746158 0
M  V30 13162 C 1238.4 -2.04274 0.309156 0
M  V30 13163 C 1238.81 -1.56389 -1.06486 0
M  V30 13164 O 1238.15 -0.728875 -1.68621 0
M  V30 13165 C 1238.21 -3.58664 0.245003 0
M  V30 13166 C 1237.88 -4.29574 1.55933 0
M  V30 13167 C 1238.87 -4.55454 2.50714 0
M  V30 13168 C 1236.56 -4.67907 1.82671 0
M  V30 13169 C 1238.55 -5.18691 3.70458 0
M  V30 13170 C 1236.24 -5.30869 3.0269 0
M  V30 13171 C 1237.24 -5.56195 3.96404 0
M  V30 13172 O 1236.93 -6.17848 5.14314 0
M  V30 13173 H 1236.66 -0.663162 0.131121 0
M  V30 13174 H 1239.21 -1.78636 1.01382 0
M  V30 13175 H 1237.44 -3.83244 -0.515847 0
M  V30 13176 H 1239.13 -4.05579 -0.16149 0
M  V30 13177 H 1239.9 -4.26276 2.3133 0
M  V30 13178 H 1235.78 -4.47544 1.10568 0
M  V30 13179 H 1239.32 -5.38375 4.4362 0
M  V30 13180 H 1235.22 -5.59469 3.2197 0
M  V30 13181 H 1235.98 -6.36338 5.14797 0
M  V30 13182 N 1238.65 -0.49465 -1.49636 0
M  V30 13183 C 1239.9 0.0520143 -2.02033 0
M  V30 13184 C 1240.22 1.38071 -1.37701 0
M  V30 13185 O 1239.49 1.88589 -0.530181 0
M  V30 13186 H 1238.07 0.0222123 -0.74667 0
M  V30 13187 H 1240.73 -0.650445 -1.83726 0
M  V30 13188 H 1239.82 0.186337 -3.11543 0
M  V30 13189 N 1240.13 1.55939 -0.228214 0
M  V30 13190 C 1241.35 2.0287 0.406348 0
M  V30 13191 C 1241.77 1.1079 1.52876 0
M  V30 13192 O 1241.13 0.118747 1.82113 0
M  V30 13193 C 1241.18 3.49286 0.931734 0
M  V30 13194 O 1240.9 4.37857 -0.145933 0
M  V30 13195 C 1242.4 4.11893 1.63887 0
M  V30 13196 H 1239.62 0.663696 0.0987358 0
M  V30 13197 H 1242.16 2.01541 -0.346616 0
M  V30 13198 H 1240.32 3.5121 1.63494 0
M  V30 13199 H 1240.73 5.23904 0.250005 0
M  V30 13200 H 1242.21 5.16091 1.95841 0
M  V30 13201 H 1242.68 3.57281 2.55435 0
M  V30 13202 H 1243.29 4.13839 0.980697 0
M  V30 13203 N 1241.6 -0.0451101 1.57535 0
M  V30 13204 C 1242.51 -1.06796 2.08882 0
M  V30 13205 C 1243.53 -1.40682 1.02394 0
M  V30 13206 O 1244.71 -1.50324 1.34033 0
M  V30 13207 C 1241.77 -2.35467 2.54472 0
M  V30 13208 C 1240.83 -2.0831 3.75374 0
M  V30 13209 C 1240.07 -3.30846 4.1878 0
M  V30 13210 O 1240.29 -4.40945 3.61834 0
M  V30 13211 O 1239.22 -3.17488 5.11356 0
M  V30 13212 H 1243.05 -0.661658 2.96405 0
M  V30 13213 H 1240.63 -0.26104 1.47102 0
M  V30 13214 H 1242.52 -3.11143 2.84198 0
M  V30 13215 H 1241.19 -2.75425 1.70068 0
M  V30 13216 H 1240.1 -1.30254 3.50692 0
M  V30 13217 H 1241.43 -1.73218 4.60713 0
M  V30 13218 N 1243.08 -1.54377 -0.317073 0
M  V30 13219 C 1244.33 -1.72893 -1.05424 0
M  V30 13220 C 1244.66 -0.506082 -1.87801 0
M  V30 13221 O 1243.91 0.51213 -1.8888 0
M  V30 13222 C 1244.21 -2.96066 -2.00199 0
M  V30 13223 C 1243.88 -4.30551 -1.33927 0
M  V30 13224 C 1242.54 -4.67112 -1.15584 0
M  V30 13225 C 1244.89 -5.13986 -0.864158 0
M  V30 13226 C 1242.22 -5.84701 -0.483892 0
M  V30 13227 C 1244.57 -6.32264 -0.206006 0
M  V30 13228 C 1243.24 -6.67499 -0.0104849 0
M  V30 13229 H 1242.51 -0.63266 -0.385776 0
M  V30 13230 H 1245.15 -1.88623 -0.330722 0
M  V30 13231 H 1243.46 -2.7505 -2.79024 0
M  V30 13232 H 1245.15 -3.07586 -2.57278 0
M  V30 13233 H 1241.74 -4.0179 -1.49207 0
M  V30 13234 H 1245.93 -4.86252 -0.993635 0
M  V30 13235 H 1241.18 -6.10555 -0.32127 0
M  V30 13236 H 1245.36 -6.96192 0.170108 0
M  V30 13237 H 1242.99 -7.58472 0.512209 0
M  V30 13238 N 1244.56 0.579466 -1.4656 0
M  V30 13239 C 1245.79 1.36837 -1.55854 0
M  V30 13240 C 1246.21 1.87019 -0.20141 0
M  V30 13241 O 1245.57 1.61746 0.81901 0
M  V30 13242 C 1245.62 2.52965 -2.56985 0
M  V30 13243 O 1244.72 3.54505 -2.10713 0
M  V30 13244 H 1244.06 0.407379 -0.524345 0
M  V30 13245 H 1246.59 0.702558 -1.9216 0
M  V30 13246 H 1246.6 2.99838 -2.76697 0
M  V30 13247 H 1245.28 2.15793 -3.55536 0
M  V30 13248 H 1243.85 3.14089 -2.01003 0
M  V30 13249 N 1246.04 1.3432 0.824371 0
M  V30 13250 C 1247.45 1.23855 1.39703 0
M  V30 13251 C 1247.8 -0.136566 1.95724 0
M  V30 13252 O 1246.93 -1.03683 1.89944 0
M  V30 13253 C 1247.52 2.24249 2.53965 0
M  V30 13254 C 1246.08 2.17578 3.07143 0
M  V30 13255 C 1245.23 2.10933 1.80008 0
M  V30 13256 H 1248.18 1.45707 0.628891 0
M  V30 13257 H 1248.2 1.85864 3.32016 0
M  V30 13258 H 1247.71 3.24321 2.13161 0
M  V30 13259 H 1245.81 1.20858 3.52455 0
M  V30 13260 H 1245.92 3.08769 3.66331 0
M  V30 13261 H 1244.29 1.56631 2.00845 0
M  V30 13262 H 1245.07 3.12836 1.4138 0
M  V30 13263 N 1247.52 -1.0444 1.18026 0
M  V30 13264 C 1248.76 -1.77838 0.974756 0
M  V30 13265 C 1249.1 -1.87792 -0.494755 0
M  V30 13266 O 1248.37 -1.38327 -1.36733 0
M  V30 13267 C 1248.65 -3.21315 1.62569 0
M  V30 13268 C 1248.51 -3.19327 3.16781 0
M  V30 13269 C 1249.83 -4.19337 1.33583 0
M  V30 13270 H 1246.94 -0.645575 0.35553 0
M  V30 13271 H 1249.59 -1.22023 1.45638 0
M  V30 13272 H 1247.74 -3.68974 1.21617 0
M  V30 13273 H 1249.41 -2.79687 3.66842 0
M  V30 13274 H 1247.65 -2.57461 3.49137 0
M  V30 13275 H 1248.32 -4.20626 3.5746 0
M  V30 13276 H 1250.8 -3.80208 1.69059 0
M  V30 13277 H 1249.67 -5.17953 1.81702 0
M  V30 13278 H 1249.94 -4.41346 0.258016 0
M  V30 13279 N 1248.99 -0.981699 -1.2329 0
M  V30 13280 C 1250.24 -0.652266 -1.92024 0
M  V30 13281 C 1250.57 0.812297 -1.76396 0
M  V30 13282 O 1249.85 1.5861 -1.12575 0
M  V30 13283 C 1250.13 -1.04506 -3.44602 0
M  V30 13284 C 1249.98 -2.56735 -3.69333 0
M  V30 13285 C 1251.3 -0.589937 -4.36128 0
M  V30 13286 H 1248.42 -0.238437 -0.697364 0
M  V30 13287 H 1251.06 -1.22322 -1.45387 0
M  V30 13288 H 1249.21 -0.559242 -3.84454 0
M  V30 13289 H 1250.89 -3.12901 -3.38955 0
M  V30 13290 H 1249.13 -2.9931 -3.14 0
M  V30 13291 H 1249.8 -2.79269 -4.76144 0
M  V30 13292 H 1252.28 -1.00706 -4.0373 0
M  V30 13293 H 1251.15 -0.893192 -5.41584 0
M  V30 13294 H 1251.41 0.509707 -4.39152 0
M  V30 13295 N 1250.47 1.3842 -0.753509 0
M  V30 13296 C 1251.42 2.32315 -0.115107 0
M  V30 13297 C 1252.41 1.54015 0.705398 0
M  V30 13298 O 1253.62 1.69546 0.604505 0
M  V30 13299 H 1250 0.751774 -0.0184276 0
M  V30 13300 H 1251.97 2.83763 -0.923094 0
M  V30 13301 C 1250.72 3.39206 0.763849 0
M  V30 13302 H 1250.04 3.99548 0.14187 0
M  V30 13303 H 1251.48 4.07312 1.17783 0
M  V30 13304 C 1249.94 2.77771 1.90643 0
M  V30 13305 O 1250.47 2.67073 3.00058 0
M  V30 13306 N 1248.67 2.35582 1.70145 0
M  V30 13307 H 1248.22 2.44483 0.811528 0
M  V30 13308 H 1248.18 1.9482 2.46764 0
M  V30 13309 N 1251.95 0.502579 1.49372 0
M  V30 13310 C 1253.18 -0.0403087 2.07361 0
M  V30 13311 C 1253.6 -1.29918 1.36026 0
M  V30 13312 O 1252.96 -1.76428 0.417488 0
M  V30 13313 C 1253.01 -0.275362 3.59547 0
M  V30 13314 O 1252.11 -1.34975 3.89686 0
M  V30 13315 H 1251.45 0.0269268 0.663454 0
M  V30 13316 H 1253.98 0.702652 1.92156 0
M  V30 13317 H 1253.99 -0.506392 4.04845 0
M  V30 13318 H 1252.67 0.644382 4.10878 0
M  V30 13319 H 1251.24 -1.10355 3.56197 0
M  V30 13320 N 1253.43 -1.55816 0.23648 0
M  V30 13321 C 1254.36 -2.18248 -0.700024 0
M  V30 13322 C 1255.37 -1.15579 -1.14654 0
M  V30 13323 O 1256.56 -1.42491 -1.07511 0
M  V30 13324 C 1253.66 -2.76338 -1.9619 0
M  V30 13325 C 1252.84 -4.04325 -1.66853 0
M  V30 13326 C 1251.89 -4.46834 -2.77895 0
M  V30 13327 O 1250.92 -5.13427 -2.45725 0
M  V30 13328 N 1252.12 -4.13753 -4.07171 0
M  V30 13329 H 1254.89 -2.99241 -0.16589 0
M  V30 13330 H 1252.45 -1.61803 0.0560383 0
M  V30 13331 H 1254.44 -3.01739 -2.69695 0
M  V30 13332 H 1253.01 -1.99563 -2.4061 0
M  V30 13333 H 1252.23 -3.86623 -0.769164 0
M  V30 13334 H 1253.52 -4.8779 -1.44703 0
M  V30 13335 H 1252.92 -3.60271 -4.36144 0
M  V30 13336 H 1251.47 -4.44014 -4.77174 0
M  V30 13337 N 1254.91 0.036755 -1.57557 0
M  V30 13338 C 1256.16 0.728107 -1.881 0
M  V30 13339 C 1256.47 1.7693 -0.833974 0
M  V30 13340 O 1257.67 2.5127 -1.02837 0
M  V30 13341 C 1256.13 1.34604 -3.33781 0
M  V30 13342 C 1255.74 0.341599 -4.46696 0
M  V30 13343 C 1257.48 2.01772 -3.73481 0
M  V30 13344 C 1255.39 0.967444 -5.83433 0
M  V30 13345 H 1254.32 0.275695 -0.701789 0
M  V30 13346 H 1256.97 -0.0177555 -1.83491 0
M  V30 13347 H 1255.35 2.14135 -3.3311 0
M  V30 13348 H 1256.53 -0.426441 -4.58823 0
M  V30 13349 H 1254.84 -0.227558 -4.15778 0
M  V30 13350 H 1257.44 2.49435 -4.72955 0
M  V30 13351 H 1257.78 2.83255 -3.05077 0
M  V30 13352 H 1258.31 1.29026 -3.76294 0
M  V30 13353 H 1255.05 0.19219 -6.55218 0
M  V30 13354 H 1254.57 1.70551 -5.75041 0
M  V30 13355 H 1256.25 1.47705 -6.29914 0
M  V30 13356 N 1256.39 1.54543 0.308881 0
M  V30 13357 C 1257.32 1.87947 1.38557 0
M  V30 13358 C 1258.3 0.737622 1.53275 0
M  V30 13359 O 1259.48 0.992664 1.66913 0
M  V30 13360 C 1256.61 2.11982 2.75102 0
M  V30 13361 C 1255.57 3.2783 2.75158 0
M  V30 13362 C 1254.89 3.37266 4.14917 0
M  V30 13363 C 1256.19 4.65129 2.37598 0
M  V30 13364 H 1257.89 2.78123 1.1085 0
M  V30 13365 H 1255.43 1.3382 0.531808 0
M  V30 13366 H 1257.38 2.33935 3.50503 0
M  V30 13367 H 1256.11 1.18569 3.04317 0
M  V30 13368 H 1254.77 3.05787 2.02212 0
M  V30 13369 H 1254.42 2.41384 4.41296 0
M  V30 13370 H 1254.12 4.15135 4.15857 0
M  V30 13371 H 1255.64 3.61471 4.92109 0
M  V30 13372 H 1257.05 4.86865 3.02714 0
M  V30 13373 H 1255.45 5.45653 2.49765 0
M  V30 13374 H 1256.52 4.6638 1.32731 0
M  V30 13375 N 1257.86 -0.571685 1.46866 0
M  V30 13376 C 1259.27 -1.15383 1.46778 0
M  V30 13377 C 1259.63 -1.95023 0.214576 0
M  V30 13378 O 1258.75 -2.05386 -0.681574 0
M  V30 13379 C 1259.35 -2.09915 2.65935 0
M  V30 13380 C 1257.9 -2.6343 2.68852 0
M  V30 13381 C 1257.05 -1.39517 2.39646 0
M  V30 13382 H 1260 -0.359036 1.54585 0
M  V30 13383 H 1260.02 -2.9356 2.42081 0
M  V30 13384 H 1259.54 -1.51923 3.57129 0
M  V30 13385 H 1257.64 -3.2526 1.8176 0
M  V30 13386 H 1257.75 -3.05412 3.69134 0
M  V30 13387 H 1256.11 -1.69702 1.8993 0
M  V30 13388 H 1256.9 -0.833399 3.33031 0
M  V30 13389 N 1259.34 -1.34755 -0.817236 0
M  V30 13390 C 1260.75 -1.24594 -1.39044 0
M  V30 13391 C 1261.1 0.126184 -1.95794 0
M  V30 13392 O 1260.23 1.02675 -1.90491 0
M  V30 13393 C 1260.82 -2.25592 -2.52772 0
M  V30 13394 C 1259.38 -2.19204 -3.05984 0
M  V30 13395 C 1258.53 -2.11884 -1.78886 0
M  V30 13396 H 1261.48 -1.46039 -0.621155 0
M  V30 13397 H 1261.5 -1.87622 -3.31026 0
M  V30 13398 H 1261.01 -3.25447 -2.11438 0
M  V30 13399 H 1259.11 -1.22725 -3.51809 0
M  V30 13400 H 1259.23 -3.10707 -3.64689 0
M  V30 13401 H 1257.59 -1.57694 -2.00012 0
M  V30 13402 H 1258.37 -3.13582 -1.39719 0
M  V30 13403 N 1260.82 1.03812 -1.18578 0
M  V30 13404 C 1261.73 2.15371 -0.930182 0
M  V30 13405 C 1262.75 1.73673 0.106599 0
M  V30 13406 O 1263.92 2.01257 -0.0759054 0
M  V30 13407 C 1260.99 3.43606 -0.462151 0
M  V30 13408 C 1260.05 3.99671 -1.5672 0
M  V30 13409 C 1259.28 5.21785 -1.12141 0
M  V30 13410 O 1259.5 5.70397 0.0188357 0
M  V30 13411 O 1258.44 5.70449 -1.9202 0
M  V30 13412 H 1262.26 2.39791 -1.86371 0
M  V30 13413 H 1259.85 1.13814 -0.967819 0
M  V30 13414 H 1261.73 4.2088 -0.20934 0
M  V30 13415 H 1260.41 3.20654 0.443052 0
M  V30 13416 H 1259.31 3.23774 -1.87406 0
M  V30 13417 H 1260.65 4.2697 -2.44862 0
M  V30 13418 N 1262.3 0.988223 1.22768 0
M  V30 13419 C 1263.21 0.543407 2.2822 0
M  V30 13420 C 1264.22 -0.405563 1.69208 0
M  V30 13421 O 1265.4 -0.273551 1.99534 0
M  V30 13422 C 1262.46 -0.139495 3.46419 0
M  V30 13423 C 1261.53 0.851853 4.20764 0
M  V30 13424 C 1260.76 0.201446 5.3332 0
M  V30 13425 O 1260.98 -1.00573 5.61464 0
M  V30 13426 O 1259.92 0.903956 5.95073 0
M  V30 13427 H 1263.74 1.42059 2.68427 0
M  V30 13428 H 1261.33 0.756239 1.28846 0
M  V30 13429 H 1263.21 -0.522226 4.18152 0
M  V30 13430 H 1261.88 -0.991315 3.08147 0
M  V30 13431 H 1260.79 1.28543 3.51322 0
M  V30 13432 H 1262.12 1.67273 4.62905 0
M  V30 13433 N 1263.78 -1.38018 0.760839 0
M  V30 13434 C 1265.19 -1.82645 0.387022 0
M  V30 13435 C 1265.54 -1.63445 -1.08536 0
M  V30 13436 O 1264.66 -1.13958 -1.83963 0
M  V30 13437 C 1265.26 -3.3158 0.69569 0
M  V30 13438 C 1263.82 -3.74527 0.375063 0
M  V30 13439 C 1262.96 -2.60696 0.94515 0
M  V30 13440 H 1265.91 -1.26644 0.956396 0
M  V30 13441 H 1265.94 -3.80493 -0.0235511 0
M  V30 13442 H 1265.45 -3.45522 1.76737 0
M  V30 13443 H 1263.55 -3.6616 -0.689741 0
M  V30 13444 H 1263.66 -4.71029 0.875685 0
M  V30 13445 H 1262.03 -2.51997 0.370065 0
M  V30 13446 H 1262.81 -2.77434 2.02201 0
M  V30 13447 N 1265.25 -0.510493 -1.49103 0
M  V30 13448 C 1266.48 0.0271718 -2.06882 0
M  V30 13449 C 1266.9 1.2995 -1.36962 0
M  V30 13450 O 1266.25 1.76842 -0.450916 0
M  V30 13451 C 1266.3 0.274956 -3.60453 0
M  V30 13452 O 1266.03 -0.946941 -4.27744 0
M  V30 13453 C 1267.53 0.855197 -4.34973 0
M  V30 13454 H 1264.75 -0.024732 -0.670544 0
M  V30 13455 H 1267.29 -0.710567 -1.91758 0
M  V30 13456 H 1265.45 0.962696 -3.75248 0
M  V30 13457 H 1265.86 -0.715627 -5.19595 0
M  V30 13458 H 1267.33 0.978103 -5.43265 0
M  V30 13459 H 1267.81 1.85535 -3.98087 0
M  V30 13460 H 1268.42 0.204632 -4.24807 0
M  V30 13461 N 1266.73 1.55688 -0.24474 0
M  V30 13462 C 1268.01 1.90796 0.430821 0
M  V30 13463 C 1268.39 1.1652 1.76029 0
M  V30 13464 O 1267.74 0.281978 2.26753 0
M  V30 13465 C 1267.95 3.43786 0.601027 0
M  V30 13466 C 1269.29 4.14998 0.897894 0
M  V30 13467 O 1270.32 3.49513 0.68697 0
M  V30 13468 O 1269.18 5.30826 1.29945 0
M  V30 13469 H 1266.27 0.794086 0.230991 0
M  V30 13470 H 1268.82 1.67227 -0.288646 0
M  V30 13471 H 1267.59 3.89856 -0.335804 0
M  V30 13472 H 1267.21 3.73211 1.37112 0
M  V30 13473 N 1268.21 -0.0283989 1.57574 0
M  V30 13474 C 1269.46 -0.719077 1.89303 0
M  V30 13475 C 1269.78 -1.75325 0.84211 0
M  V30 13476 O 1269.04 -1.95071 -0.15683 0
M  V30 13477 C 1269.34 -1.4247 3.27776 0
M  V30 13478 C 1269 -0.526442 4.47816 0
M  V30 13479 C 1267.67 -0.279038 4.8039 0
M  V30 13480 C 1270.02 0.0937038 5.21116 0
M  V30 13481 C 1267.35 0.597277 5.83652 0
M  V30 13482 C 1269.7 0.957725 6.25308 0
M  V30 13483 C 1268.36 1.21458 6.56357 0
M  V30 13484 H 1267.63 -0.263129 0.692708 0
M  V30 13485 H 1270.28 0.0210252 1.91488 0
M  V30 13486 H 1268.58 -2.23813 3.21582 0
M  V30 13487 H 1270.28 -1.96466 3.49574 0
M  V30 13488 H 1266.87 -0.729426 4.22347 0
M  V30 13489 H 1271.06 -0.084469 4.96228 0
M  V30 13490 H 1266.31 0.804582 6.06083 0
M  V30 13491 H 1270.49 1.44476 6.81249 0
M  V30 13492 H 1268.11 1.89534 7.36193 0
M  V30 13493 N 1269.69 -1.54705 -0.300681 0
M  V30 13494 C 1270.63 -1.85678 -1.37084 0
M  V30 13495 C 1271.6 -0.70573 -1.50362 0
M  V30 13496 O 1272.79 -0.954385 -1.65215 0
M  V30 13497 C 1269.93 -2.10995 -2.73084 0
M  V30 13498 C 1269.04 -3.38621 -2.68254 0
M  V30 13499 C 1268.18 -3.53779 -3.9625 0
M  V30 13500 C 1267.22 -4.75195 -3.85818 0
M  V30 13501 N 1266.35 -4.87157 -5.05591 0
M  V30 13502 H 1271.19 -2.76967 -1.09971 0
M  V30 13503 H 1268.73 -1.37147 -0.531887 0
M  V30 13504 H 1270.69 -2.23669 -3.52176 0
M  V30 13505 H 1269.32 -1.22973 -2.98458 0
M  V30 13506 H 1268.37 -3.34566 -1.81025 0
M  V30 13507 H 1269.68 -4.27834 -2.56436 0
M  V30 13508 H 1268.84 -3.66119 -4.83779 0
M  V30 13509 H 1267.58 -2.62699 -4.10902 0
M  V30 13510 H 1266.58 -4.62888 -2.96673 0
M  V30 13511 H 1267.81 -5.67683 -3.72711 0
M  V30 13512 H 1265.75 -3.99001 -5.20706 0
M  V30 13513 H 1265.67 -5.70372 -4.96197 0
M  V30 13514 H 1266.94 -5.03854 -5.9477 0
M  V30 13515 N 1271.17 0.563888 -1.47167 0
M  V30 13516 C 1272.1 1.68137 -1.62025 0
M  V30 13517 C 1273.08 1.63481 -0.469899 0
M  V30 13518 O 1274.26 1.81206 -0.698432 0
M  V30 13519 C 1271.39 3.06779 -1.62801 0
M  V30 13520 C 1270.35 3.26278 -2.76996 0
M  V30 13521 C 1269.67 4.65638 -2.62841 0
M  V30 13522 C 1270.97 3.12295 -4.18651 0
M  V30 13523 H 1272.67 1.55958 -2.55573 0
M  V30 13524 H 1270.21 0.74887 -1.22996 0
M  V30 13525 H 1272.17 3.84795 -1.71787 0
M  V30 13526 H 1270.89 3.19901 -0.658097 0
M  V30 13527 H 1269.55 2.50668 -2.67509 0
M  V30 13528 H 1269.2 4.75551 -1.63892 0
M  V30 13529 H 1268.9 4.79635 -3.39447 0
M  V30 13530 H 1270.42 5.45798 -2.73746 0
M  V30 13531 H 1271.83 3.80136 -4.2915 0
M  V30 13532 H 1270.23 3.37805 -4.95992 0
M  V30 13533 H 1271.3 2.09126 -4.37486 0
M  V30 13534 N 1272.64 1.35187 0.810078 0
M  V30 13535 C 1273.87 1.31528 1.60359 0
M  V30 13536 C 1274.29 -0.105385 1.87805 0
M  V30 13537 O 1273.65 -1.07113 1.46276 0
M  V30 13538 C 1273.7 2.12429 2.91386 0
M  V30 13539 O 1272.8 1.50262 3.84051 0
M  V30 13540 H 1272.15 0.451122 0.487222 0
M  V30 13541 H 1274.68 1.78178 1.00568 0
M  V30 13542 H 1274.69 2.24257 3.40841 0
M  V30 13543 H 1273.36 3.15714 2.70735 0
M  V30 13544 H 1271.94 1.47253 3.42594 0
M  V30 13545 N 1274.12 -1.03182 1.19127 0
M  V30 13546 C 1275.35 -1.80165 1.01726 0
M  V30 13547 C 1275.77 -1.83742 -0.434095 0
M  V30 13548 O 1275.12 -1.27932 -1.30152 0
M  V30 13549 C 1275.17 -3.25354 1.57566 0
M  V30 13550 O 1274.89 -3.22042 2.9702 0
M  V30 13551 C 1276.4 -4.18948 1.44906 0
M  V30 13552 H 1273.62 -0.567078 0.358698 0
M  V30 13553 H 1276.16 -1.29982 1.57877 0
M  V30 13554 H 1274.31 -3.72738 1.0557 0
M  V30 13555 H 1274.73 -4.13061 3.23235 0
M  V30 13556 H 1276.2 -5.18723 1.88762 0
M  V30 13557 H 1276.68 -4.37383 0.399125 0
M  V30 13558 H 1277.29 -3.77435 1.96018 0
M  V30 13559 N 1275.6 -0.99472 -1.22242 0
M  V30 13560 C 1276.56 -0.551619 -2.22463 0
M  V30 13561 C 1277.56 0.366498 -1.56568 0
M  V30 13562 O 1278.75 0.158204 -1.7348 0
M  V30 13563 C 1275.89 0.197416 -3.40328 0
M  V30 13564 H 1277.08 -1.43795 -2.63179 0
M  V30 13565 H 1274.63 -0.782121 -1.35324 0
M  V30 13566 H 1275.37 1.09965 -3.05087 0
M  V30 13567 H 1275.15 -0.461829 -3.89371 0
M  V30 13568 H 1276.64 0.495534 -4.1465 0
M  V30 13569 N 1277.08 1.37613 -0.768148 0
M  V30 13570 C 1278.33 1.99023 -0.327543 0
M  V30 13571 C 1278.64 1.61669 1.10103 0
M  V30 13572 O 1279.85 2.16155 1.64284 0
M  V30 13573 C 1278.3 3.55906 -0.534674 0
M  V30 13574 C 1277.91 4.02201 -1.97327 0
M  V30 13575 C 1279.65 4.24208 -0.157512 0
M  V30 13576 C 1277.56 5.51781 -2.12819 0
M  V30 13577 H 1276.49 0.744595 -0.118722 0
M  V30 13578 H 1279.14 1.5719 -0.946764 0
M  V30 13579 H 1277.52 3.95701 0.153951 0
M  V30 13580 H 1278.7 3.73661 -2.69655 0
M  V30 13581 H 1277.01 3.46671 -2.30669 0
M  V30 13582 H 1279.61 5.34107 -0.251824 0
M  V30 13583 H 1279.95 4.06636 0.89177 0
M  V30 13584 H 1280.49 3.89703 -0.798546 0
M  V30 13585 H 1277.23 5.74274 -3.16053 0
M  V30 13586 H 1276.75 5.82017 -1.4497 0
M  V30 13587 H 1278.42 6.17697 -1.92508 0
M  V30 13588 N 1278.56 0.518393 1.4883 0
M  V30 13589 C 1279.5 -0.250684 2.29435 0
M  V30 13590 C 1280.47 -0.944481 1.36634 0
M  V30 13591 O 1281.66 -0.947766 1.65596 0
M  V30 13592 C 1278.8 -1.29871 3.1973 0
M  V30 13593 C 1277.91 -0.61493 4.27601 0
M  V30 13594 C 1277.05 -1.64489 5.05091 0
M  V30 13595 C 1276.09 -0.943932 6.04778 0
M  V30 13596 N 1275.22 -1.91889 6.75369 0
M  V30 13597 H 1280.06 0.44288 2.94691 0
M  V30 13598 H 1277.6 0.230246 1.45287 0
M  V30 13599 H 1279.56 -1.91851 3.70471 0
M  V30 13600 H 1278.19 -1.96081 2.56422 0
M  V30 13601 H 1277.24 0.118552 3.80215 0
M  V30 13602 H 1278.55 -0.063994 4.98759 0
M  V30 13603 H 1277.71 -2.33928 5.59788 0
M  V30 13604 H 1276.44 -2.2297 4.33746 0
M  V30 13605 H 1275.45 -0.235407 5.49296 0
M  V30 13606 H 1276.67 -0.365383 6.78116 0
M  V30 13607 H 1274.62 -2.493 6.06783 0
M  V30 13608 H 1274.54 -1.41909 7.42562 0
M  V30 13609 H 1275.81 -2.60563 7.34661 0
M  V30 13610 N 1280.03 -1.55556 0.252993 0
M  V30 13611 C 1281.26 -2.03491 -0.374022 0
M  V30 13612 C 1281.68 -1.13208 -1.51094 0
M  V30 13613 O 1281.03 -0.147705 -1.81901 0
M  V30 13614 C 1281.09 -3.50724 -0.876047 0
M  V30 13615 O 1280.81 -4.37569 0.215574 0
M  V30 13616 C 1282.31 -4.14448 -1.57313 0
M  V30 13617 H 1279.53 -0.665183 -0.0881644 0
M  V30 13618 H 1282.07 -2.00964 0.378636 0
M  V30 13619 H 1280.23 -3.53766 -1.57886 0
M  V30 13620 H 1280.64 -5.24235 -0.166625 0
M  V30 13621 H 1282.11 -5.19142 -1.87606 0
M  V30 13622 H 1282.59 -3.61299 -2.49719 0
M  V30 13623 H 1283.2 -4.15346 -0.914735 0
M  V30 13624 N 1281.51 0.0200419 -1.57587 0
M  V30 13625 C 1282.74 0.720556 -1.93947 0
M  V30 13626 C 1283.16 1.68407 -0.853499 0
M  V30 13627 O 1282.51 1.81713 0.169337 0
M  V30 13628 C 1282.56 1.46982 -3.3027 0
M  V30 13629 O 1282.28 0.544971 -4.34697 0
M  V30 13630 C 1283.79 2.26667 -3.80968 0
M  V30 13631 H 1281.01 0.201956 -0.639887 0
M  V30 13632 H 1283.55 -0.0251175 -2.04485 0
M  V30 13633 H 1281.7 2.16729 -3.21103 0
M  V30 13634 H 1282.12 1.07139 -5.13441 0
M  V30 13635 H 1283.59 2.74621 -4.78839 0
M  V30 13636 H 1284.07 3.0848 -3.12629 0
M  V30 13637 H 1284.68 1.61976 -3.93248 0
M  V30 13638 N 1282.99 1.54862 0.292472 0
M  V30 13639 C 1283.95 1.8565 1.34413 0
M  V30 13640 C 1284.95 0.729868 1.43281 0
M  V30 13641 O 1286.14 0.998128 1.42769 0
M  V30 13642 C 1283.28 2.0444 2.72795 0
M  V30 13643 H 1284.47 2.79642 1.08354 0
M  V30 13644 H 1282.02 1.47055 0.529574 0
M  V30 13645 H 1282.76 1.12765 3.04063 0
M  V30 13646 H 1282.54 2.86451 2.67747 0
M  V30 13647 H 1284.03 2.296 3.48817 0
M  V30 13648 N 1284.47 -0.556076 1.47464 0
M  V30 13649 C 1285.4 -1.67872 1.54578 0
M  V30 13650 C 1286.38 -1.57658 0.397853 0
M  V30 13651 O 1287.56 -1.785 0.605811 0
M  V30 13652 C 1284.69 -3.06122 1.44937 0
M  V30 13653 C 1283.74 -3.34778 2.64246 0
M  V30 13654 S 1284.57 -3.23909 4.26431 0
M  V30 13655 C 1285.73 -4.64651 4.19345 0
M  V30 13656 H 1285.96 -1.61583 2.49556 0
M  V30 13657 H 1283.49 -0.736985 1.35676 0
M  V30 13658 H 1285.45 -3.85866 1.40062 0
M  V30 13659 H 1284.11 -3.09876 0.513412 0
M  V30 13660 H 1283.3 -4.35569 2.53567 0
M  V30 13661 H 1282.91 -2.62655 2.66248 0
M  V30 13662 H 1285.2 -5.55625 3.87669 0
M  V30 13663 H 1286.14 -4.80386 5.20225 0
M  V30 13664 H 1286.55 -4.42751 3.50189 0
M  V30 13665 N 1285.95 -1.35615 -0.802897 0
M  V30 13666 C 1287.17 -1.32377 -1.59659 0
M  V30 13667 C 1287.6 0.0954235 -1.87858 0
M  V30 13668 O 1286.96 1.06336 -1.46842 0
M  V30 13669 C 1287 -2.13972 -2.90256 0
M  V30 13670 O 1286.11 -1.52296 -3.83249 0
M  V30 13671 H 1285.45 -0.453699 -0.484823 0
M  V30 13672 H 1287.98 -1.78708 -0.996217 0
M  V30 13673 H 1287.99 -2.26061 -3.39647 0
M  V30 13674 H 1286.66 -3.17145 -2.69057 0
M  V30 13675 H 1285.24 -1.49068 -3.41809 0
M  V30 13676 N 1287.43 1.02549 -1.19673 0
M  V30 13677 C 1288.37 2.109 -0.937536 0
M  V30 13678 C 1289.34 1.65599 0.128923 0
M  V30 13679 O 1290.53 1.90795 -0.0139366 0
M  V30 13680 C 1287.67 3.4166 -0.48602 0
M  V30 13681 C 1286.78 4.0049 -1.61963 0
M  V30 13682 C 1285.92 5.19273 -1.11931 0
M  V30 13683 C 1284.95 5.70166 -2.22659 0
M  V30 13684 N 1284.09 6.80221 -1.73909 0
M  V30 13685 H 1288.93 2.32408 -1.86523 0
M  V30 13686 H 1286.47 1.13982 -0.929869 0
M  V30 13687 H 1288.43 4.16693 -0.205614 0
M  V30 13688 H 1287.06 3.20253 0.404678 0
M  V30 13689 H 1286.11 3.22638 -2.01516 0
M  V30 13690 H 1287.42 4.34273 -2.45374 0
M  V30 13691 H 1286.57 6.01478 -0.794336 0
M  V30 13692 H 1285.31 4.87033 -0.254972 0
M  V30 13693 H 1284.32 4.86572 -2.55983 0
M  V30 13694 H 1285.54 6.04444 -3.09554 0
M  V30 13695 H 1283.49 6.49826 -0.897889 0
M  V30 13696 H 1283.41 7.13149 -2.50907 0
M  V30 13697 H 1284.67 7.66011 -1.44386 0
M  V30 13698 N 1288.9 1.00119 1.21713 0
M  V30 13699 C 1289.85 0.551452 2.25969 0
M  V30 13700 C 1290.85 -0.402075 1.64559 0
M  V30 13701 O 1292.05 -0.273685 1.77907 0
M  V30 13702 H 1288.43 0.159968 0.734789 0
M  V30 13703 H 1290.4 1.44201 2.61244 0
M  V30 13704 C 1289.15 -0.109992 3.47526 0
M  V30 13705 H 1288.47 0.614686 3.95046 0
M  V30 13706 H 1289.91 -0.388007 4.22221 0
M  V30 13707 C 1288.37 -1.34798 3.08757 0
M  V30 13708 O 1288.9 -2.44266 3.189 0
M  V30 13709 N 1287.1 -1.2263 2.63458 0
M  V30 13710 H 1286.65 -0.335571 2.55405 0
M  V30 13711 H 1286.61 -2.05565 2.37887 0
M  V30 13712 N 1290.38 -1.37203 0.775435 0
M  V30 13713 C 1291.63 -1.98846 0.338093 0
M  V30 13714 C 1291.94 -1.6225 -1.09244 0
M  V30 13715 O 1293.15 -2.17024 -1.63135 0
M  V30 13716 C 1291.61 -3.55618 0.553541 0
M  V30 13717 C 1291.21 -4.01149 1.99457 0
M  V30 13718 C 1292.96 -4.24118 0.180006 0
M  V30 13719 C 1290.86 -5.50644 2.15742 0
M  V30 13720 H 1289.79 -0.743955 0.122669 0
M  V30 13721 H 1292.45 -1.56685 0.955087 0
M  V30 13722 H 1290.83 -3.95777 -0.132964 0
M  V30 13723 H 1292 -3.72226 2.71633 0
M  V30 13724 H 1290.32 -3.45443 2.32504 0
M  V30 13725 H 1292.91 -5.33966 0.280145 0
M  V30 13726 H 1293.26 -4.07104 -0.870192 0
M  V30 13727 H 1293.79 -3.89274 0.819201 0
M  V30 13728 H 1290.53 -5.7259 3.19094 0
M  V30 13729 H 1290.05 -5.8124 1.48054 0
M  V30 13730 H 1291.73 -6.16668 1.95781 0
M  V30 13731 N 1291.86 -0.526279 -1.48553 0
M  V30 13732 C 1292.81 0.251938 -2.31232 0
M  V30 13733 C 1293.8 0.938991 -1.40994 0
M  V30 13734 O 1295.01 0.863798 -1.57919 0
M  V30 13735 H 1291.38 0.100114 -0.745306 0
M  V30 13736 H 1293.35 -0.465013 -2.94754 0
M  V30 13737 C 1292.1 1.28816 -3.22958 0
M  V30 13738 H 1291.43 0.768899 -3.92337 0
M  V30 13739 H 1292.87 1.80417 -3.837 0
M  V30 13740 C 1291.32 2.31982 -2.44307 0
M  V30 13741 O 1291.85 3.3835 -2.16523 0
M  V30 13742 N 1290.06 2.051 -2.05869 0
M  V30 13743 H 1289.61 1.18618 -2.28665 0
M  V30 13744 H 1289.57 2.74349 -1.53557 0
M  V30 13745 N 1293.34 1.5542 -0.261239 0
M  V30 13746 C 1294.75 1.85161 0.239195 0
M  V30 13747 C 1295.1 1.18319 1.56509 0
M  V30 13748 O 1294.22 0.4666 2.1131 0
M  V30 13749 C 1294.82 3.3592 0.440781 0
M  V30 13750 C 1293.38 3.65837 0.885461 0
M  V30 13751 C 1292.53 2.77285 -0.0291982 0
M  V30 13752 H 1295.48 1.51158 -0.483417 0
M  V30 13753 H 1295.5 3.58276 1.28136 0
M  V30 13754 H 1295.01 3.84541 -0.524382 0
M  V30 13755 H 1293.11 3.22705 1.86259 0
M  V30 13756 H 1293.22 4.73469 0.732394 0
M  V30 13757 H 1291.59 2.50045 0.484701 0
M  V30 13758 H 1292.37 3.28716 -0.989992 0
M  V30 13759 N 1294.82 -0.0116844 1.57596 0
M  V30 13760 C 1296.04 -0.71026 1.94327 0
M  V30 13761 C 1296.46 -1.67952 0.862418 0
M  V30 13762 O 1295.82 -1.818 -0.159698 0
M  V30 13763 C 1295.87 -1.45228 3.31045 0
M  V30 13764 O 1295.59 -0.52191 4.3498 0
M  V30 13765 C 1297.09 -2.24644 3.82165 0
M  V30 13766 H 1294.31 -0.198559 0.640949 0
M  V30 13767 H 1296.85 0.0359615 2.04468 0
M  V30 13768 H 1295.01 -2.15023 3.22248 0
M  V30 13769 H 1295.42 -1.04415 5.14002 0
M  V30 13770 H 1296.9 -2.72078 4.80289 0
M  V30 13771 H 1297.37 -3.06817 3.14261 0
M  V30 13772 H 1297.98 -1.59888 3.94101 0
M  V30 13773 N 1296.29 -1.55015 -0.284256 0
M  V30 13774 C 1297.23 -1.82031 -1.37623 0
M  V30 13775 C 1298.2 -0.672564 -1.48038 0
M  V30 13776 O 1299.39 -0.914349 -1.64839 0
M  V30 13777 C 1296.52 -1.97193 -2.75377 0
M  V30 13778 C 1295.56 -3.19699 -2.82303 0
M  V30 13779 S 1296.39 -4.77348 -2.42691 0
M  V30 13780 C 1297.55 -4.95468 -3.82442 0
M  V30 13781 H 1297.78 -2.74366 -1.14502 0
M  V30 13782 H 1295.32 -1.46642 -0.483283 0
M  V30 13783 H 1297.27 -2.06614 -3.54713 0
M  V30 13784 H 1295.94 -1.05766 -2.95757 0
M  V30 13785 H 1295.13 -3.27161 -3.83382 0
M  V30 13786 H 1294.73 -3.08811 -2.10978 0
M  V30 13787 H 1297.02 -4.80519 -4.77606 0
M  V30 13788 H 1297.97 -5.97538 -3.7994 0
M  V30 13789 H 1298.37 -4.23516 -3.73222 0
M  V30 13790 N 1297.77 0.548248 -1.47757 0
M  V30 13791 C 1299 1.335 -1.58722 0
M  V30 13792 C 1299.42 1.86549 -0.241034 0
M  V30 13793 O 1298.78 1.63447 0.784517 0
M  V30 13794 C 1298.83 2.47457 -2.62293 0
M  V30 13795 O 1297.93 3.49956 -2.18185 0
M  V30 13796 H 1297.27 0.396166 -0.532868 0
M  V30 13797 H 1299.8 0.66164 -1.93607 0
M  V30 13798 H 1299.81 2.93901 -2.82995 0
M  V30 13799 H 1298.49 2.08203 -3.60034 0
M  V30 13800 H 1297.06 3.09755 -2.0762 0
M  V30 13801 N 1299.25 1.36039 0.795694 0
M  V30 13802 C 1300.47 1.33222 1.58955 0
M  V30 13803 C 1300.9 -0.0854596 1.87906 0
M  V30 13804 O 1300.26 -1.05555 1.47403 0
M  V30 13805 C 1300.31 2.15508 2.89117 0
M  V30 13806 O 1299.41 1.54327 3.82436 0
M  V30 13807 H 1298.75 0.456264 0.48241 0
M  V30 13808 H 1301.28 1.79234 0.986726 0
M  V30 13809 H 1301.29 2.2786 3.38444 0
M  V30 13810 H 1299.97 3.18568 2.67371 0
M  V30 13811 H 1298.54 1.50879 3.41013 0
M  V30 13812 N 1300.73 -1.01913 1.20215 0
M  V30 13813 C 1301.66 -2.10513 0.906476 0
M  V30 13814 C 1302.67 -1.62463 -0.104758 0
M  V30 13815 O 1303.86 -1.78055 0.12593 0
M  V30 13816 C 1300.96 -3.3722 0.337012 0
M  V30 13817 C 1300.14 -4.14417 1.39917 0
M  V30 13818 C 1299.19 -5.19428 0.841489 0
M  V30 13819 O 1298.22 -5.48486 1.52157 0
M  V30 13820 N 1299.42 -5.79442 -0.350365 0
M  V30 13821 H 1302.19 -2.36465 1.84132 0
M  V30 13822 H 1299.75 -1.18283 1.10548 0
M  V30 13823 H 1301.74 -4.04669 -0.0501507 0
M  V30 13824 H 1300.31 -3.08538 -0.502325 0
M  V30 13825 H 1299.53 -3.41975 1.96078 0
M  V30 13826 H 1300.82 -4.62777 2.1146 0
M  V30 13827 H 1300.22 -5.58166 -0.920204 0
M  V30 13828 H 1298.77 -6.48252 -0.679194 0
M  V30 13829 N 1302.21 -1.00763 -1.2118 0
M  V30 13830 C 1303.46 -0.687197 -1.89633 0
M  V30 13831 C 1303.77 0.78566 -1.79128 0
M  V30 13832 O 1304.97 1.21828 -2.42632 0
M  V30 13833 C 1303.43 -1.1787 -3.40051 0
M  V30 13834 C 1303.04 -2.67782 -3.59161 0
M  V30 13835 C 1304.78 -0.933277 -4.14114 0
M  V30 13836 C 1302.69 -3.10459 -5.03358 0
M  V30 13837 H 1301.62 -0.253342 -0.710165 0
M  V30 13838 H 1304.27 -1.21914 -1.37147 0
M  V30 13839 H 1302.65 -0.574791 -3.91806 0
M  V30 13840 H 1303.83 -3.33645 -3.17833 0
M  V30 13841 H 1302.14 -2.90368 -2.98455 0
M  V30 13842 H 1304.74 -1.22766 -5.20416 0
M  V30 13843 H 1305.08 0.130431 -4.16096 0
M  V30 13844 H 1305.61 -1.50011 -3.68431 0
M  V30 13845 H 1302.35 -4.16068 -5.06525 0
M  V30 13846 H 1301.87 -2.4931 -5.45531 0
M  V30 13847 H 1303.55 -3.02589 -5.71882 0
M  V30 13848 N 1303.68 1.3679 -0.7827 0
M  V30 13849 C 1304.62 2.28805 -0.13451 0
M  V30 13850 C 1305.63 1.49159 0.652338 0
M  V30 13851 O 1306.82 1.71682 0.488626 0
M  V30 13852 C 1303.92 3.28508 0.832802 0
M  V30 13853 C 1303.09 4.37291 0.0974435 0
M  V30 13854 C 1302.15 5.16999 0.979715 0
M  V30 13855 O 1301.18 5.67501 0.439439 0
M  V30 13856 N 1302.38 5.32786 2.30477 0
M  V30 13857 H 1305.14 2.85072 -0.924873 0
M  V30 13858 H 1302.7 1.48884 -0.636012 0
M  V30 13859 H 1304.7 3.78718 1.42671 0
M  V30 13860 H 1303.27 2.7293 1.52408 0
M  V30 13861 H 1302.49 3.88335 -0.677483 0
M  V30 13862 H 1303.77 5.07143 -0.410259 0
M  V30 13863 H 1303.17 4.93358 2.76793 0
M  V30 13864 H 1301.73 5.86264 2.84848 0
M  V30 13865 N 1305.16 0.53415 1.48272 0
M  V30 13866 C 1306.41 0.00156948 2.021 0
M  V30 13867 C 1306.73 -1.34371 1.41313 0
M  V30 13868 O 1306 -1.87117 0.579996 0
M  V30 13869 H 1304.58 -0.00240789 0.746996 0
M  V30 13870 H 1307.24 0.698928 1.81937 0
M  V30 13871 H 1306.34 -0.103671 3.11928 0
M  V30 13872 N 1306.64 -1.55279 0.269478 0
M  V30 13873 C 1307.87 -2.03876 -0.352418 0
M  V30 13874 C 1308.28 -1.14804 -1.49885 0
M  V30 13875 O 1307.64 -0.166989 -1.81734 0
M  V30 13876 C 1307.69 -3.51634 -0.838799 0
M  V30 13877 O 1307.41 -4.37316 0.261972 0
M  V30 13878 C 1308.91 -4.16094 -1.52909 0
M  V30 13879 H 1306.13 -0.66608 -0.0811043 0
M  V30 13880 H 1308.68 -2.00551 0.399929 0
M  V30 13881 H 1306.83 -3.55421 -1.54125 0
M  V30 13882 H 1307.25 -5.24383 -0.111013 0
M  V30 13883 H 1308.72 -5.21102 -1.82089 0
M  V30 13884 H 1309.2 -3.63928 -2.45872 0
M  V30 13885 H 1309.8 -4.16293 -0.87063 0
M  V30 13886 N 1308.12 0.00332656 -1.576 0
M  V30 13887 C 1309.35 0.699945 -1.94701 0
M  V30 13888 C 1309.76 1.67492 -0.871312 0
M  V30 13889 O 1309.12 1.81882 0.150054 0
M  V30 13890 C 1309.17 1.43471 -3.31811 0
M  V30 13891 O 1308.89 0.498835 -4.35251 0
M  V30 13892 C 1310.39 2.22614 -3.83351 0
M  V30 13893 H 1307.61 0.195158 -0.641993 0
M  V30 13894 H 1310.16 -0.0468044 -2.04446 0
M  V30 13895 H 1308.31 2.13311 -3.23384 0
M  V30 13896 H 1308.72 1.01688 -5.14548 0
M  V30 13897 H 1310.2 2.69527 -4.81725 0
M  V30 13898 H 1310.68 3.05146 -3.15883 0
M  V30 13899 H 1311.28 1.57796 -3.94944 0
M  V30 13900 N 1309.6 1.55164 0.276031 0
M  V30 13901 C 1310.54 1.88623 1.36104 0
M  V30 13902 C 1311.54 0.762265 1.51281 0
M  V30 13903 O 1312.74 0.946573 1.53101 0
M  V30 13904 H 1309.12 0.59863 0.455133 0
M  V30 13905 H 1311.09 2.79266 1.05134 0
M  V30 13906 C 1309.84 2.17207 2.71508 0
M  V30 13907 H 1309.16 3.03179 2.6062 0
M  V30 13908 H 1310.6 2.44541 3.46375 0
M  V30 13909 C 1309.06 0.978671 3.22372 0
M  V30 13910 O 1309.59 0.211766 4.01141 0
M  V30 13911 N 1307.8 0.777199 2.80014 0
M  V30 13912 H 1307.34 1.40252 2.16072 0
M  V30 13913 H 1307.3 -0.0196754 3.14394 0
M  V30 13914 N 1311.07 -0.540404 1.48045 0
M  V30 13915 C 1312.01 -1.66164 1.57867 0
M  V30 13916 C 1313.02 -1.56058 0.463655 0
M  V30 13917 O 1314.21 -1.62709 0.734038 0
M  V30 13918 C 1311.31 -3.04748 1.48263 0
M  V30 13919 C 1310.48 -3.40441 2.74625 0
M  V30 13920 C 1309.54 -4.58259 2.58621 0
M  V30 13921 O 1308.57 -4.62 3.32482 0
M  V30 13922 N 1309.77 -5.55794 1.67551 0
M  V30 13923 H 1312.53 -1.58179 2.54557 0
M  V30 13924 H 1310.09 -0.727441 1.44637 0
M  V30 13925 H 1312.09 -3.81425 1.35267 0
M  V30 13926 H 1310.66 -3.06868 0.595892 0
M  V30 13927 H 1309.88 -2.53044 3.02262 0
M  V30 13928 H 1311.16 -3.61069 3.58478 0
M  V30 13929 H 1310.56 -5.55541 1.06725 0
M  V30 13930 H 1309.12 -6.3173 1.60499 0
M  V30 13931 N 1312.55 -1.36459 -0.788468 0
M  V30 13932 C 1313.5 -1.27391 -1.89092 0
M  V30 13933 C 1314.49 -0.165201 -1.6005 0
M  V30 13934 O 1315.68 -0.398097 -1.72465 0
M  V30 13935 C 1312.81 -1.06639 -3.26317 0
M  V30 13936 C 1311.89 -2.21981 -3.61366 0
M  V30 13937 N 1312.28 -3.47302 -3.67716 0
M  V30 13938 C 1310.58 -2.13767 -3.91433 0
M  V30 13939 C 1311.28 -4.2326 -3.99031 0
M  V30 13940 N 1310.26 -3.52211 -4.14063 0
M  V30 13941 H 1314.06 -2.22318 -1.92229 0
M  V30 13942 H 1311.58 -1.29191 -0.98404 0
M  V30 13943 H 1313.57 -0.982292 -4.05162 0
M  V30 13944 H 1312.23 -0.126129 -3.24455 0
M  V30 13945 H 1313.24 -3.81424 -3.50337 0
M  V30 13946 H 1309.92 -1.27702 -3.9749 0
M  V30 13947 H 1311.31 -5.31643 -4.1086 0
M  V30 13948 N 1314.03 1.01274 -1.20754 0
M  V30 13949 C 1315.26 1.7906 -1.04653 0
M  V30 13950 C 1315.68 1.83806 0.399632 0
M  V30 13951 O 1315.04 1.27596 1.28798 0
M  V30 13952 C 1315.09 3.21187 -1.63925 0
M  V30 13953 O 1314.19 4.02913 -0.879486 0
M  V30 13954 H 1313.53 0.552147 -0.368823 0
M  V30 13955 H 1316.06 1.27356 -1.6013 0
M  V30 13956 H 1316.07 3.71887 -1.67822 0
M  V30 13957 H 1314.75 3.17048 -2.69172 0
M  V30 13958 H 1313.32 3.61499 -0.915019 0
M  V30 13959 N 1315.51 1.01404 1.20644 0
M  V30 13960 C 1316.73 0.720839 1.9447 0
M  V30 13961 C 1317.16 -0.711711 1.74116 0
M  V30 13962 O 1316.52 -1.48938 1.03379 0
M  V30 13963 C 1316.57 1.05864 3.4471 0
M  V30 13964 O 1315.67 0.168901 4.12054 0
M  V30 13965 H 1315.01 0.267698 0.607646 0
M  V30 13966 H 1317.54 1.35672 1.53147 0
M  V30 13967 H 1317.55 1.00928 3.9532 0
M  V30 13968 H 1316.23 2.1024 3.58848 0
M  V30 13969 H 1314.8 0.275572 3.7188 0
M  V30 13970 N 1316.99 -1.36373 0.789944 0
M  V30 13971 C 1318.22 -2.03482 0.37453 0
M  V30 13972 C 1318.63 -1.59562 -1.00923 0
M  V30 13973 O 1317.99 -0.785289 -1.64741 0
M  V30 13974 C 1318.04 -3.58942 0.429255 0
M  V30 13975 O 1317.76 -4.01261 1.75845 0
M  V30 13976 C 1319.26 -4.433 0.00453729 0
M  V30 13977 H 1316.48 -0.653019 0.154295 0
M  V30 13978 H 1319.02 -1.74339 1.06894 0
M  V30 13979 H 1317.18 -3.86793 -0.21674 0
M  V30 13980 H 1317.59 -4.95854 1.70964 0
M  V30 13981 H 1319.07 -5.5192 0.0939653 0
M  V30 13982 H 1319.54 -4.26509 -1.04816 0
M  V30 13983 H 1320.15 -4.20712 0.623041 0
M  V30 13984 N 1318.47 -0.542005 -1.47987 0
M  V30 13985 C 1319.71 -0.0123299 -2.02796 0
M  V30 13986 C 1320.04 1.32789 -1.41707 0
M  V30 13987 O 1319.32 1.86048 -0.567119 0
M  V30 13988 C 1319.6 0.0969277 -3.5997 0
M  V30 13989 C 1319.46 -1.26931 -4.31519 0
M  V30 13990 C 1320.77 0.817854 -4.32434 0
M  V30 13991 H 1317.89 -0.00595479 -0.736976 0
M  V30 13992 H 1320.54 -0.70136 -1.76581 0
M  V30 13993 H 1318.69 0.683755 -3.82436 0
M  V30 13994 H 1320.36 -1.89817 -4.20437 0
M  V30 13995 H 1318.6 -1.84804 -3.92467 0
M  V30 13996 H 1319.27 -1.14573 -5.39979 0
M  V30 13997 H 1321.75 0.319749 -4.1487 0
M  V30 13998 H 1320.62 0.863225 -5.4207 0
M  V30 13999 H 1320.88 1.87075 -4.00569 0
M  V30 14000 N 1319.94 1.55134 -0.277709 0
M  V30 14001 C 1321.19 1.99654 0.33833 0
M  V30 14002 C 1321.52 1.16612 1.55666 0
M  V30 14003 O 1320.77 0.224428 1.94409 0
M  V30 14004 C 1321.07 3.49182 0.762028 0
M  V30 14005 C 1320.74 4.49524 -0.351958 0
M  V30 14006 C 1319.4 4.76682 -0.657833 0
M  V30 14007 C 1321.75 5.09406 -1.10247 0
M  V30 14008 C 1319.08 5.6099 -1.71776 0
M  V30 14009 C 1321.43 5.94866 -2.15214 0
M  V30 14010 C 1320.1 6.20344 -2.46434 0
M  V30 14011 H 1319.37 0.730584 0.123804 0
M  V30 14012 H 1322.01 1.87446 -0.391961 0
M  V30 14013 H 1320.32 3.58879 1.57204 0
M  V30 14014 H 1322.02 3.81037 1.24947 0
M  V30 14015 H 1318.61 4.28475 -0.103438 0
M  V30 14016 H 1322.79 4.88446 -0.879422 0
M  V30 14017 H 1318.05 5.78975 -1.96463 0
M  V30 14018 H 1322.22 6.403 -2.73842 0
M  V30 14019 H 1319.85 6.85464 -3.28699 0
M  V30 14020 N 1321.42 0.00503138 1.57599 0
M  V30 14021 C 1322.83 -0.537106 1.78807 0
M  V30 14022 C 1323.18 -1.73666 0.912945 0
M  V30 14023 O 1322.31 -2.16085 0.116775 0
M  V30 14024 C 1322.9 -0.98116 3.24282 0
M  V30 14025 C 1321.46 -1.46857 3.46569 0
M  V30 14026 C 1320.61 -0.422088 2.74069 0
M  V30 14027 H 1323.56 0.231182 1.57007 0
M  V30 14028 H 1323.58 -1.8469 3.32671 0
M  V30 14029 H 1323.09 -0.107907 3.8795 0
M  V30 14030 H 1321.19 -2.36255 2.88122 0
M  V30 14031 H 1321.31 -1.49256 4.55258 0
M  V30 14032 H 1319.67 -0.884853 2.38836 0
M  V30 14033 H 1320.45 0.442285 3.40439 0
M  V30 14034 N 1322.9 -1.55308 -0.267798 0
M  V30 14035 C 1323.83 -1.91555 -1.33525 0
M  V30 14036 C 1324.81 -0.778001 -1.51265 0
M  V30 14037 O 1326 -1.03657 -1.64222 0
M  V30 14038 C 1323.13 -2.19201 -2.69385 0
M  V30 14039 C 1322.08 -3.3501 -2.66369 0
M  V30 14040 C 1321.41 -3.48148 -4.05829 0
M  V30 14041 C 1322.71 -4.71265 -2.25182 0
M  V30 14042 H 1324.4 -2.80965 -1.03437 0
M  V30 14043 H 1321.95 -1.35183 -0.496141 0
M  V30 14044 H 1323.9 -2.43146 -3.44177 0
M  V30 14045 H 1322.62 -1.26596 -3.01067 0
M  V30 14046 H 1321.28 -3.11041 -1.94034 0
M  V30 14047 H 1320.93 -2.53 -4.34741 0
M  V30 14048 H 1320.63 -4.26014 -4.04704 0
M  V30 14049 H 1322.15 -3.74391 -4.82352 0
M  V30 14050 H 1323.57 -4.94719 -2.89699 0
M  V30 14051 H 1321.96 -5.52084 -2.3521 0
M  V30 14052 H 1323.03 -4.69735 -1.20319 0
M  V30 14053 N 1324.38 0.532545 -1.4833 0
M  V30 14054 C 1325.31 1.64662 -1.65555 0
M  V30 14055 C 1326.29 1.62447 -0.50447 0
M  V30 14056 O 1327.47 1.79684 -0.736712 0
M  V30 14057 C 1324.6 3.03256 -1.69272 0
M  V30 14058 C 1323.56 3.20329 -2.83854 0
M  V30 14059 C 1322.88 4.59958 -2.72659 0
M  V30 14060 C 1324.18 3.03345 -4.25181 0
M  V30 14061 H 1325.88 1.50502 -2.58823 0
M  V30 14062 H 1323.42 0.722612 -1.24556 0
M  V30 14063 H 1325.38 3.81064 -1.79911 0
M  V30 14064 H 1324.1 3.18433 -0.725805 0
M  V30 14065 H 1322.76 2.44937 -2.72766 0
M  V30 14066 H 1322.41 4.71967 -1.73942 0
M  V30 14067 H 1322.11 4.72327 -3.49544 0
M  V30 14068 H 1323.63 5.39869 -2.85262 0
M  V30 14069 H 1325.05 3.70948 -4.37116 0
M  V30 14070 H 1323.44 3.27208 -5.03045 0
M  V30 14071 H 1324.51 1.998 -4.41824 0
M  V30 14072 N 1325.86 1.36875 0.78122 0
M  V30 14073 C 1326.79 1.34559 1.9083 0
M  V30 14074 C 1327.77 0.215713 1.68727 0
M  V30 14075 O 1328.95 0.41462 1.89722 0
M  V30 14076 C 1326.08 1.14233 3.27976 0
M  V30 14077 C 1325.04 2.24132 3.64621 0
M  V30 14078 C 1324.36 1.8894 5.00206 0
M  V30 14079 C 1325.66 3.66266 3.72353 0
M  V30 14080 H 1327.36 2.28871 1.93025 0
M  V30 14081 H 1324.9 1.10171 0.927275 0
M  V30 14082 H 1326.85 1.11246 4.06451 0
M  V30 14083 H 1325.58 0.163747 3.26189 0
M  V30 14084 H 1324.24 2.26259 2.88448 0
M  V30 14085 H 1323.89 0.896351 4.94949 0
M  V30 14086 H 1323.59 2.62525 5.25694 0
M  V30 14087 H 1325.11 1.87523 5.81092 0
M  V30 14088 H 1326.52 3.66321 4.41001 0
M  V30 14089 H 1324.92 4.38825 4.09332 0
M  V30 14090 H 1325.99 4.00578 2.7325 0
M  V30 14091 N 1327.33 -1.00632 1.21289 0
M  V30 14092 C 1328.58 -1.74044 1.02728 0
M  V30 14093 C 1328.9 -1.89963 -0.440351 0
M  V30 14094 O 1328.17 -1.44958 -1.31772 0
M  V30 14095 H 1326.75 -0.644813 0.377127 0
M  V30 14096 H 1329.41 -1.21272 1.52575 0
M  V30 14097 H 1328.51 -2.74011 1.49413 0
M  V30 14098 N 1328.81 -1.02043 -1.20104 0
M  V30 14099 C 1329.77 -0.598682 -2.21243 0
M  V30 14100 C 1330.77 0.333205 -1.5731 0
M  V30 14101 O 1331.96 0.12137 -1.73777 0
M  V30 14102 C 1329.1 0.125183 -3.4067 0
M  V30 14103 H 1330.29 -1.49345 -2.60069 0
M  V30 14104 H 1327.84 -0.810649 -1.33634 0
M  V30 14105 H 1328.58 1.03469 -3.07351 0
M  V30 14106 H 1328.36 -0.544316 -3.88304 0
M  V30 14107 H 1329.85 0.407469 -4.15607 0
M  V30 14108 N 1330.29 1.35952 -0.797165 0
M  V30 14109 C 1331.52 2.0328 -0.385316 0
M  V30 14110 C 1331.93 1.60095 1.00076 0
M  V30 14111 O 1331.29 0.794014 1.64322 0
M  V30 14112 C 1331.34 3.5871 -0.448284 0
M  V30 14113 O 1331.06 4.00323 -1.7797 0
M  V30 14114 C 1332.56 4.43291 -0.0280465 0
M  V30 14115 H 1329.78 0.652192 -0.157756 0
M  V30 14116 H 1332.33 1.73769 -1.07817 0
M  V30 14117 H 1330.48 3.86903 0.196224 0
M  V30 14118 H 1330.9 4.94941 -1.73592 0
M  V30 14119 H 1332.37 5.51862 -0.123234 0
M  V30 14120 H 1332.85 4.27059 1.02552 0
M  V30 14121 H 1333.45 4.20375 -0.645343 0
M  V30 14122 N 1331.77 0.549846 1.47697 0
M  V30 14123 C 1332.68 -0.205286 2.337 0
M  V30 14124 C 1333.69 -0.919271 1.47734 0
M  V30 14125 O 1334.87 -0.889808 1.80678 0
M  V30 14126 C 1331.94 -1.22658 3.24278 0
M  V30 14127 C 1331 -0.520815 4.26129 0
M  V30 14128 C 1330.23 -1.49345 5.12378 0
M  V30 14129 O 1330.45 -2.72772 5.00951 0
M  V30 14130 O 1329.39 -1.02197 5.93161 0
M  V30 14131 H 1333.21 0.499982 2.99556 0
M  V30 14132 H 1330.8 0.310538 1.46137 0
M  V30 14133 H 1332.68 -1.8163 3.80248 0
M  V30 14134 H 1331.35 -1.9139 2.61059 0
M  V30 14135 H 1330.26 0.109906 3.73939 0
M  V30 14136 H 1331.59 0.124922 4.92041 0
M  V30 14137 N 1333.25 -1.54984 0.285932 0
M  V30 14138 C 1334.49 -1.9983 -0.327737 0
M  V30 14139 C 1334.82 -1.17435 -1.55046 0
M  V30 14140 O 1334.08 -0.234735 -1.94287 0
M  V30 14141 C 1334.38 -3.49581 -0.7435 0
M  V30 14142 C 1334.04 -4.49331 0.375792 0
M  V30 14143 C 1332.7 -4.76327 0.683103 0
M  V30 14144 C 1335.06 -5.08815 1.12947 0
M  V30 14145 C 1332.38 -5.60071 1.74748 0
M  V30 14146 C 1334.74 -5.93716 2.18366 0
M  V30 14147 C 1333.4 -6.19028 2.4972 0
M  V30 14148 H 1332.67 -0.731231 -0.119928 0
M  V30 14149 H 1335.32 -1.87235 0.401896 0
M  V30 14150 H 1333.62 -3.59708 -1.55298 0
M  V30 14151 H 1335.32 -3.81694 -1.22924 0
M  V30 14152 H 1331.91 -4.28414 0.126159 0
M  V30 14153 H 1336.09 -4.87973 0.905313 0
M  V30 14154 H 1331.35 -5.77925 1.9953 0
M  V30 14155 H 1335.52 -6.38838 2.77233 0
M  V30 14156 H 1333.15 -6.83711 3.3233 0
M  V30 14157 N 1334.72 -0.0133892 -1.57594 0
M  V30 14158 C 1335.66 1.00211 -2.06132 0
M  V30 14159 C 1336.67 1.29869 -0.98173 0
M  V30 14160 O 1337.86 1.2661 -1.25826 0
M  V30 14161 C 1334.96 2.33354 -2.45763 0
M  V30 14162 C 1334.13 2.22441 -3.76615 0
M  V30 14163 C 1333.19 3.38385 -4.02967 0
M  V30 14164 O 1332.22 3.15973 -4.73445 0
M  V30 14165 N 1333.42 4.61672 -3.51908 0
M  V30 14166 H 1336.18 0.588079 -2.93874 0
M  V30 14167 H 1333.74 0.173714 -1.60965 0
M  V30 14168 H 1335.74 3.09716 -2.60496 0
M  V30 14169 H 1334.31 2.66451 -1.6347 0
M  V30 14170 H 1333.53 1.30905 -3.7183 0
M  V30 14171 H 1334.81 2.12337 -4.62375 0
M  V30 14172 H 1334.21 4.82777 -2.9486 0
M  V30 14173 H 1332.77 5.35256 -3.71947 0
M  V30 14174 N 1336.2 1.55448 0.259558 0
M  V30 14175 C 1337.48 1.6742 1.01143 0
M  V30 14176 C 1337.86 0.549525 2.03822 0
M  V30 14177 O 1337.21 -0.448699 2.24051 0
M  V30 14178 C 1337.42 3.07201 1.65616 0
M  V30 14179 C 1338.77 3.6539 2.16277 0
M  V30 14180 O 1339.79 3.0992 1.7558 0
M  V30 14181 O 1338.65 4.62604 2.90963 0
M  V30 14182 H 1335.74 0.680469 0.469991 0
M  V30 14183 H 1338.29 1.67783 0.254348 0
M  V30 14184 H 1337.06 3.80504 0.912819 0
M  V30 14185 H 1336.68 3.10794 2.47977 0
M  V30 14186 N 1337.68 -0.524672 1.4861 0
M  V30 14187 C 1338.91 -1.30958 1.60825 0
M  V30 14188 C 1339.33 -1.86142 0.270682 0
M  V30 14189 O 1338.69 -1.64675 -0.758415 0
M  V30 14190 C 1338.74 -2.43252 2.66197 0
M  V30 14191 O 1337.84 -3.4644 2.23725 0
M  V30 14192 H 1337.18 -0.387638 0.539104 0
M  V30 14193 H 1339.71 -0.630755 1.94635 0
M  V30 14194 H 1339.72 -2.89362 2.87635 0
M  V30 14195 H 1338.4 -2.02449 3.63301 0
M  V30 14196 H 1336.97 -3.06413 2.12522 0
M  V30 14197 N 1339.16 -1.37287 -0.77395 0
M  V30 14198 C 1340.44 -1.2291 -1.52159 0
M  V30 14199 C 1340.82 0.178249 -2.10346 0
M  V30 14200 O 1340.16 1.18564 -1.95333 0
M  V30 14201 C 1340.37 -2.32337 -2.60424 0
M  V30 14202 C 1341.72 -2.69769 -3.27887 0
M  V30 14203 O 1342.75 -2.31497 -2.70717 0
M  V30 14204 O 1341.6 -3.35699 -4.31241 0
M  V30 14205 H 1338.7 -0.47948 -0.673816 0
M  V30 14206 H 1341.24 -1.49061 -0.811105 0
M  V30 14207 H 1340.02 -3.26591 -2.15532 0
M  V30 14208 H 1339.64 -2.07638 -3.39076 0
M  V30 14209 N 1340.64 0.999871 -1.21821 0
M  V30 14210 C 1341.57 2.09044 -0.939852 0
M  V30 14211 C 1342.58 1.62609 0.0788987 0
M  V30 14212 O 1343.77 1.77832 -0.154241 0
M  V30 14213 C 1340.87 3.36641 -0.390618 0
M  V30 14214 C 1340.04 4.12139 -1.46493 0
M  V30 14215 C 1339.1 5.18023 -0.924019 0
M  V30 14216 O 1338.13 5.45996 -1.60864 0
M  V30 14217 N 1339.33 5.79926 0.258136 0
M  V30 14218 H 1342.1 2.33506 -1.8787 0
M  V30 14219 H 1339.66 1.16509 -1.12415 0
M  V30 14220 H 1341.65 4.04697 -0.0142349 0
M  V30 14221 H 1340.22 3.09298 0.453176 0
M  V30 14222 H 1339.44 3.38813 -2.01494 0
M  V30 14223 H 1340.73 4.59354 -2.18795 0
M  V30 14224 H 1340.12 5.59559 0.831288 0
M  V30 14225 H 1338.68 6.4925 0.575977 0
M  V30 14226 N 1342.11 1.02678 1.19562 0
M  V30 14227 C 1343.05 0.550355 2.21464 0
M  V30 14228 C 1344.03 -0.407674 1.57406 0
M  V30 14229 O 1345.21 -0.325272 1.85672 0
M  V30 14230 C 1342.34 -0.197777 3.38122 0
M  V30 14231 C 1341.38 0.711362 4.20526 0
M  V30 14232 S 1342.22 2.18636 4.88834 0
M  V30 14233 C 1343.37 1.44868 6.08904 0
M  V30 14234 H 1343.6 1.41377 2.61534 0
M  V30 14235 H 1341.14 0.836535 1.29775 0
M  V30 14236 H 1343.1 -0.62329 4.0574 0
M  V30 14237 H 1341.76 -1.03689 2.96492 0
M  V30 14238 H 1340.95 0.133916 5.03822 0
M  V30 14239 H 1340.55 1.0751 3.58214 0
M  V30 14240 H 1342.84 0.734143 6.73511 0
M  V30 14241 H 1343.79 2.25816 6.71128 0
M  V30 14242 H 1344.19 0.947098 5.56498 0
M  V30 14243 N 1343.59 -1.35528 0.804364 0
M  V30 14244 C 1344.84 -1.98439 0.382934 0
M  V30 14245 C 1345.16 -1.64132 -1.05289 0
M  V30 14246 O 1344.43 -0.922693 -1.7281 0
M  V30 14247 H 1343.01 -0.734028 0.138605 0
M  V30 14248 H 1345.67 -1.65478 1.02971 0
M  V30 14249 H 1344.77 -3.08279 0.486846 0
M  V30 14250 N 1345.07 -0.557671 -1.47404 0
M  V30 14251 C 1346.49 -0.217473 -1.58111 0
M  V30 14252 C 1346.69 1.28 -1.55622 0
M  V30 14253 O 1345.74 2.06019 -1.45988 0
M  V30 14254 C 1347.06 -0.844535 -2.88597 0
M  V30 14255 C 1348.6 -0.815807 -3.02181 0
M  V30 14256 C 1349.08 -1.42195 -4.35367 0
M  V30 14257 N 1350.57 -1.38515 -4.42004 0
M  V30 14258 C 1351.31 -1.82378 -5.43623 0
M  V30 14259 N 1350.8 -2.34098 -6.52051 0
M  V30 14260 N 1352.59 -1.73446 -5.34671 0
M  V30 14261 H 1344.75 -1.53058 -1.47265 0
M  V30 14262 H 1347.01 -0.638305 -0.700907 0
M  V30 14263 H 1346.71 -1.89696 -2.96156 0
M  V30 14264 H 1346.59 -0.337844 -3.75684 0
M  V30 14265 H 1348.98 0.227925 -2.94218 0
M  V30 14266 H 1349.06 -1.36026 -2.16635 0
M  V30 14267 H 1348.7 -2.46475 -4.44086 0
M  V30 14268 H 1348.63 -0.852932 -5.19647 0
M  V30 14269 H 1351.12 -1.00684 -3.64241 0
M  V30 14270 H 1351.43 -2.6549 -7.25765 0
M  V30 14271 H 1349.78 -2.38109 -6.52939 0
M  V30 14272 H 1352.97 -1.32816 -4.48862 0
M  V30 14273 H 1353.14 -2.07947 -6.13728 0
M  V30 14274 N 1346.55 1.54831 -0.294147 0
M  V30 14275 C 1347.8 1.99606 0.316509 0
M  V30 14276 C 1348.12 1.18405 1.54936 0
M  V30 14277 O 1347.39 0.278289 1.93913 0
M  V30 14278 H 1345.97 0.737309 0.119938 0
M  V30 14279 H 1348.63 1.90669 -0.403891 0
M  V30 14280 H 1347.73 3.06409 0.593282 0
M  V30 14281 N 1348.03 0.0217466 1.57585 0
M  V30 14282 C 1349.44 -0.334576 1.56054 0
M  V30 14283 C 1349.64 -1.73386 1.02663 0
M  V30 14284 O 1348.7 -2.43447 0.670078 0
M  V30 14285 C 1350.01 -0.189919 3.001 0
M  V30 14286 C 1351.56 -0.263238 3.11891 0
M  V30 14287 C 1352.04 -0.147455 4.57763 0
M  V30 14288 N 1353.53 -0.204672 4.62748 0
M  V30 14289 C 1354.26 -0.138755 5.73232 0
M  V30 14290 N 1353.76 -0.0221762 6.92796 0
M  V30 14291 N 1355.55 -0.192206 5.61771 0
M  V30 14292 H 1347.7 0.936849 1.90622 0
M  V30 14293 H 1349.96 0.361119 0.876526 0
M  V30 14294 H 1349.67 0.773687 3.43084 0
M  V30 14295 H 1349.54 -0.963148 3.64696 0
M  V30 14296 H 1351.93 -1.2173 2.68823 0
M  V30 14297 H 1352.01 0.540241 2.5003 0
M  V30 14298 H 1351.66 0.803155 5.0151 0
M  V30 14299 H 1351.59 -0.969703 5.17595 0
M  V30 14300 H 1354.08 -0.29522 3.76745 0
M  V30 14301 H 1354.39 0.021631 7.72797 0
M  V30 14302 H 1352.74 0.0125033 6.94999 0
M  V30 14303 H 1355.93 -0.28163 4.67252 0
M  V30 14304 H 1356.1 -0.137372 6.47854 0
M  V30 14305 N 1349.51 -1.55583 -0.251311 0
M  V30 14306 C 1350.42 -1.93073 -1.33266 0
M  V30 14307 C 1351.43 -0.830612 -1.52895 0
M  V30 14308 O 1352.61 -1.13162 -1.66602 0
M  V30 14309 C 1349.67 -2.21396 -2.66805 0
M  V30 14310 C 1348.73 -3.44815 -2.55737 0
M  V30 14311 C 1347.97 -3.71777 -3.82907 0
M  V30 14312 O 1348.19 -3.00884 -4.84587 0
M  V30 14313 O 1347.12 -4.65305 -3.81805 0
M  V30 14314 H 1350.95 -2.85168 -1.04465 0
M  V30 14315 H 1348.53 -1.42408 -0.451693 0
M  V30 14316 H 1350.42 -2.4094 -3.45725 0
M  V30 14317 H 1349.09 -1.3248 -2.95348 0
M  V30 14318 H 1348 -3.30582 -1.75118 0
M  V30 14319 H 1349.33 -4.34019 -2.32139 0
M  V30 14320 N 1350.98 0.516783 -1.48886 0
M  V30 14321 C 1351.93 1.61653 -1.60786 0
M  V30 14322 C 1352.92 1.54056 -0.464271 0
M  V30 14323 O 1354.11 1.61853 -0.716412 0
M  V30 14324 C 1351.24 3.0033 -1.66304 0
M  V30 14325 C 1350.32 3.12982 -2.86187 0
M  V30 14326 N 1350.72 2.95568 -4.10455 0
M  V30 14327 C 1349.01 3.44059 -2.83795 0
M  V30 14328 C 1349.71 3.11986 -4.90958 0
M  V30 14329 N 1348.69 3.40156 -4.24022 0
M  V30 14330 H 1352.49 1.4682 -2.546 0
M  V30 14331 H 1350.01 0.722555 -1.4544 0
M  V30 14332 H 1352 3.79345 -1.72924 0
M  V30 14333 H 1350.66 3.16245 -0.736158 0
M  V30 14334 H 1351.67 2.72062 -4.40684 0
M  V30 14335 H 1348.35 3.66249 -2.0042 0
M  V30 14336 H 1349.74 3.03149 -5.99625 0
M  V30 14337 N 1352.46 1.37696 0.766659 0
M  V30 14338 C 1353.71 1.33185 1.52539 0
M  V30 14339 C 1354.04 -0.0821239 1.94327 0
M  V30 14340 O 1353.29 -1.05645 1.64735 0
M  V30 14341 C 1353.59 2.22154 2.79968 0
M  V30 14342 C 1353.26 3.70344 2.57208 0
M  V30 14343 C 1351.92 4.10729 2.50709 0
M  V30 14344 C 1354.27 4.64205 2.36988 0
M  V30 14345 C 1351.6 5.43082 2.21988 0
M  V30 14346 C 1353.95 5.96801 2.0979 0
M  V30 14347 C 1352.61 6.36284 2.01739 0
M  V30 14348 H 1351.88 0.487357 0.558179 0
M  V30 14349 H 1354.53 1.69945 0.882662 0
M  V30 14350 H 1352.84 1.78406 3.48825 0
M  V30 14351 H 1354.53 2.15975 3.37869 0
M  V30 14352 H 1351.12 3.38319 2.63131 0
M  V30 14353 H 1355.31 4.3386 2.40996 0
M  V30 14354 H 1350.56 5.7263 2.14254 0
M  V30 14355 H 1354.74 6.6908 1.93145 0
M  V30 14356 H 1352.36 7.38765 1.79248 0
M  V30 14357 N 1353.94 -0.993397 1.22349 0
M  V30 14358 C 1354.87 -2.08543 0.950925 0
M  V30 14359 C 1355.88 -1.62648 -0.0702741 0
M  V30 14360 O 1357.07 -1.77748 0.16367 0
M  V30 14361 C 1354.17 -3.36429 0.408466 0
M  V30 14362 C 1353.35 -4.11356 1.48676 0
M  V30 14363 C 1352.41 -5.17526 0.951478 0
M  V30 14364 O 1351.43 -5.45135 1.63757 0
M  V30 14365 N 1352.63 -5.80055 -0.227378 0
M  V30 14366 H 1355.4 -2.32506 1.89106 0
M  V30 14367 H 1352.96 -1.15911 1.13032 0
M  V30 14368 H 1354.95 -4.04684 0.0356968 0
M  V30 14369 H 1353.52 -3.09534 -0.436767 0
M  V30 14370 H 1352.74 -3.37739 2.03288 0
M  V30 14371 H 1354.03 -4.58187 2.21228 0
M  V30 14372 H 1353.43 -5.59992 -0.801601 0
M  V30 14373 H 1351.98 -6.49546 -0.541538 0
M  V30 14374 N 1355.42 -1.03311 -1.19015 0
M  V30 14375 C 1356.64 -0.751686 -1.93299 0
M  V30 14376 C 1357.07 0.68392 -1.75226 0
M  V30 14377 O 1356.43 1.47274 -1.05736 0
M  V30 14378 C 1356.47 -1.11335 -3.42982 0
M  V30 14379 O 1355.58 -0.234434 -4.11733 0
M  V30 14380 H 1354.92 -0.277331 -0.60331 0
M  V30 14381 H 1357.45 -1.38092 -1.5097 0
M  V30 14382 H 1357.46 -1.07204 -3.93664 0
M  V30 14383 H 1356.13 -2.15922 -3.55458 0
M  V30 14384 H 1354.71 -0.3347 -3.71395 0
M  V30 14385 N 1356.9 1.35099 -0.81154 0
M  V30 14386 C 1358.31 1.51701 -0.495883 0
M  V30 14387 C 1358.51 1.7595 0.982035 0
M  V30 14388 O 1357.57 1.8038 1.7669 0
M  V30 14389 C 1358.88 2.68916 -1.34554 0
M  V30 14390 C 1360.43 2.82795 -1.34149 0
M  V30 14391 C 1360.9 4.0304 -2.17538 0
M  V30 14392 N 1362.39 4.10227 -2.151 0
M  V30 14393 C 1363.13 5.02397 -2.76377 0
M  V30 14394 N 1362.63 5.99866 -3.46601 0
M  V30 14395 N 1364.42 4.95181 -2.65992 0
M  V30 14396 H 1356.57 1.17617 -1.76862 0
M  V30 14397 H 1358.83 0.575875 -0.753042 0
M  V30 14398 H 1358.54 2.57591 -2.39458 0
M  V30 14399 H 1358.41 3.63641 -1.00223 0
M  V30 14400 H 1360.8 2.93568 -0.300285 0
M  V30 14401 H 1360.88 1.88912 -1.7247 0
M  V30 14402 H 1360.52 3.93027 -3.21702 0
M  V30 14403 H 1360.45 4.96114 -1.76574 0
M  V30 14404 H 1362.95 3.40454 -1.6401 0
M  V30 14405 H 1363.26 6.66803 -3.90632 0
M  V30 14406 H 1361.6 6.00025 -3.50706 0
M  V30 14407 H 1364.79 4.17991 -2.10715 0
M  V30 14408 H 1364.97 5.6682 -3.14036 0
M  V30 14409 N 1358.37 0.56548 1.47106 0
M  V30 14410 C 1359.78 0.134289 1.86216 0
M  V30 14411 C 1360.14 -1.29815 1.47114 0
M  V30 14412 O 1359.26 -1.97787 0.878017 0
M  V30 14413 C 1359.86 0.236931 3.37971 0
M  V30 14414 C 1358.41 -0.139275 3.76142 0
M  V30 14415 C 1357.56 0.580743 2.71151 0
M  V30 14416 H 1360.51 0.774723 1.38505 0
M  V30 14417 H 1360.53 -0.542301 3.76616 0
M  V30 14418 H 1360.05 1.27958 3.66399 0
M  V30 14419 H 1358.15 -1.18272 3.53331 0
M  V30 14420 H 1358.26 0.225045 4.78571 0
M  V30 14421 H 1356.62 0.0228963 2.5469 0
M  V30 14422 H 1357.41 1.62471 3.0242 0
M  V30 14423 N 1359.85 -1.54672 0.302354 0
M  V30 14424 C 1361.26 -1.85731 -0.190019 0
M  V30 14425 C 1361.61 -1.22427 -1.53317 0
M  V30 14426 O 1360.74 -0.522461 -2.09998 0
M  V30 14427 C 1361.33 -3.36971 -0.351562 0
M  V30 14428 C 1359.89 -3.68056 -0.788155 0
M  V30 14429 C 1359.04 -2.7711 0.102705 0
M  V30 14430 H 1361.99 -1.49823 0.523324 0
M  V30 14431 H 1362.01 -3.61547 -1.18592 0
M  V30 14432 H 1361.52 -3.83016 0.626152 0
M  V30 14433 H 1359.63 -3.2753 -1.77637 0
M  V30 14434 H 1359.74 -4.75244 -0.606604 0
M  V30 14435 H 1358.1 -2.51243 -0.418235 0
M  V30 14436 H 1358.89 -3.25975 1.0768 0
M  V30 14437 N 1361.33 -0.0301034 -1.57571 0
M  V30 14438 C 1362.58 0.647672 -1.91019 0
M  V30 14439 C 1362.89 1.73234 -0.908265 0
M  V30 14440 O 1364.1 2.46682 -1.13402 0
M  V30 14441 C 1362.55 1.20327 -3.3919 0
M  V30 14442 C 1362.16 0.151833 -4.47743 0
M  V30 14443 C 1363.91 1.8575 -3.81703 0
M  V30 14444 C 1361.81 0.719119 -5.87012 0
M  V30 14445 H 1360.74 0.245682 -0.712851 0
M  V30 14446 H 1363.39 -0.0955645 -1.83251 0
M  V30 14447 H 1361.78 1.99814 -3.41892 0
M  V30 14448 H 1362.95 -0.620659 -4.56601 0
M  V30 14449 H 1361.27 -0.403699 -4.14438 0
M  V30 14450 H 1363.86 2.29151 -4.83109 0
M  V30 14451 H 1364.21 2.70061 -3.16817 0
M  V30 14452 H 1364.74 1.1295 -3.81428 0
M  V30 14453 H 1361.48 -0.0858832 -6.55444 0
M  V30 14454 H 1361 1.46008 -5.81758 0
M  V30 14455 H 1362.68 1.20856 -6.35612 0
M  V30 14456 N 1362.81 1.55714 0.243056 0
M  V30 14457 C 1364.04 1.81786 0.98801 0
M  V30 14458 C 1364.45 0.606352 1.78798 0
M  V30 14459 O 1363.81 -0.425018 1.77482 0
M  V30 14460 C 1363.86 3.06121 1.92281 0
M  V30 14461 O 1363.58 4.22595 1.15521 0
M  V30 14462 C 1365.08 3.45021 2.78344 0
M  V30 14463 H 1362.3 0.604829 0.290557 0
M  V30 14464 H 1364.85 2.02779 0.26478 0
M  V30 14465 H 1363 2.87167 2.60027 0
M  V30 14466 H 1363.41 4.93088 1.78786 0
M  V30 14467 H 1364.89 4.35112 3.39678 0
M  V30 14468 H 1365.37 2.65782 3.49652 0
M  V30 14469 H 1365.97 3.66339 2.16045 0
M  V30 14470 N 1364.29 -0.50888 1.49158 0
M  V30 14471 C 1365.53 -1.26537 1.58481 0
M  V30 14472 C 1365.87 -1.92353 0.267168 0
M  V30 14473 O 1365.14 -1.80336 -0.728639 0
M  V30 14474 C 1365.42 -2.33846 2.73839 0
M  V30 14475 C 1365.28 -1.72582 4.15374 0
M  V30 14476 C 1366.6 -3.35467 2.84868 0
M  V30 14477 H 1363.71 -0.458697 0.576859 0
M  V30 14478 H 1366.36 -0.564728 1.81413 0
M  V30 14479 H 1364.51 -2.93605 2.54417 0
M  V30 14480 H 1366.18 -1.16711 4.46292 0
M  V30 14481 H 1364.42 -1.03025 4.21389 0
M  V30 14482 H 1365.09 -2.5038 4.91949 0
M  V30 14483 H 1367.57 -2.85689 3.02524 0
M  V30 14484 H 1366.44 -4.07922 3.67275 0
M  V30 14485 H 1366.71 -3.97313 1.93894 0
M  V30 14486 N 1365.76 -1.381 -0.759346 0
M  V30 14487 C 1367.18 -1.19171 -1.06162 0
M  V30 14488 C 1367.38 -0.0364043 -2.01467 0
M  V30 14489 O 1366.44 0.619635 -2.44779 0
M  V30 14490 C 1367.75 -2.51569 -1.64723 0
M  V30 14491 C 1369.3 -2.58201 -1.76921 0
M  V30 14492 C 1369.77 -3.9076 -2.38894 0
M  V30 14493 N 1371.26 -3.92269 -2.46331 0
M  V30 14494 C 1372 -4.91595 -2.95164 0
M  V30 14495 N 1371.49 -6.01318 -3.44075 0
M  V30 14496 N 1373.29 -4.7899 -2.94152 0
M  V30 14497 H 1365.44 -2.12021 -0.126788 0
M  V30 14498 H 1367.7 -0.940517 -0.118877 0
M  V30 14499 H 1367.41 -3.36535 -1.02162 0
M  V30 14500 H 1367.28 -2.69551 -2.6386 0
M  V30 14501 H 1369.67 -1.73634 -2.38611 0
M  V30 14502 H 1369.75 -2.44092 -0.765047 0
M  V30 14503 H 1369.39 -4.75747 -1.7784 0
M  V30 14504 H 1369.32 -4.02179 -3.39941 0
M  V30 14505 H 1371.81 -3.13015 -2.11731 0
M  V30 14506 H 1372.13 -6.73046 -3.79776 0
M  V30 14507 H 1370.47 -6.04946 -3.42148 0
M  V30 14508 H 1373.66 -3.92385 -2.55248 0
M  V30 14509 H 1373.84 -5.5655 -3.31897 0
M  V30 14510 N 1367.24 0.986894 -1.22875 0
M  V30 14511 C 1368.47 1.76266 -1.08342 0
M  V30 14512 C 1368.89 1.85226 0.365602 0
M  V30 14513 O 1368.24 1.32675 1.25314 0
M  V30 14514 C 1368.29 3.19282 -1.69533 0
M  V30 14515 O 1368.01 3.10796 -3.08768 0
M  V30 14516 C 1369.52 4.13281 -1.60355 0
M  V30 14517 H 1366.74 0.553374 -0.379497 0
M  V30 14518 H 1369.28 1.24033 -1.62592 0
M  V30 14519 H 1367.43 3.68563 -1.19332 0
M  V30 14520 H 1367.85 4.0078 -3.38343 0
M  V30 14521 H 1369.32 5.11359 -2.07884 0
M  V30 14522 H 1369.8 4.356 -0.561182 0
M  V30 14523 H 1370.41 3.699 -2.09891 0
M  V30 14524 N 1368.72 1.0394 1.18466 0
M  V30 14525 C 1369.65 0.573814 2.20868 0
M  V30 14526 C 1370.63 -0.390956 1.5783 0
M  V30 14527 O 1371.82 -0.305561 1.86007 0
M  V30 14528 C 1368.94 -0.161904 3.38313 0
M  V30 14529 C 1367.99 0.755924 4.19748 0
M  V30 14530 S 1368.82 2.23809 4.86487 0
M  V30 14531 C 1369.98 1.51318 6.07333 0
M  V30 14532 H 1370.21 1.44143 2.60019 0
M  V30 14533 H 1367.74 0.850252 1.2888 0
M  V30 14534 H 1369.7 -0.58022 4.06379 0
M  V30 14535 H 1368.36 -1.00539 2.97575 0
M  V30 14536 H 1367.56 0.187345 5.03652 0
M  V30 14537 H 1367.16 1.11303 3.57054 0
M  V30 14538 H 1369.45 0.805536 6.72694 0
M  V30 14539 H 1370.39 2.32922 6.68695 0
M  V30 14540 H 1370.8 1.00607 5.55462 0
M  V30 14541 N 1370.2 -1.34667 0.818693 0
M  V30 14542 C 1371.45 -1.9767 0.401184 0
M  V30 14543 C 1371.76 -1.65644 -1.04027 0
M  V30 14544 O 1372.97 -2.22104 -1.56148 0
M  V30 14545 C 1371.42 -3.53677 0.666398 0
M  V30 14546 C 1371.03 -3.94601 2.12119 0
M  V30 14547 C 1372.77 -4.23331 0.314845 0
M  V30 14548 C 1370.68 -5.43502 2.33151 0
M  V30 14549 H 1369.61 -0.739675 0.146275 0
M  V30 14550 H 1372.26 -1.53568 1.00445 0
M  V30 14551 H 1370.64 -3.95999 -0.00698307 0
M  V30 14552 H 1371.82 -3.63396 2.83338 0
M  V30 14553 H 1370.13 -3.37871 2.43377 0
M  V30 14554 H 1372.73 -5.32804 0.449881 0
M  V30 14555 H 1373.07 -4.09666 -0.740235 0
M  V30 14556 H 1373.61 -3.8647 0.942631 0
M  V30 14557 H 1370.35 -5.62148 3.37149 0
M  V30 14558 H 1369.87 -5.76236 1.66471 0
M  V30 14559 H 1371.54 -6.10127 2.153 0
M  V30 14560 N 1371.68 -0.573274 -1.46804 0
M  V30 14561 C 1372.62 0.165358 -2.30207 0
M  V30 14562 C 1373.59 0.89312 -1.40045 0
M  V30 14563 O 1374.78 0.885653 -1.68999 0
M  V30 14564 C 1371.92 1.17915 -3.2433 0
M  V30 14565 C 1371.03 0.455805 -4.29589 0
M  V30 14566 C 1370.17 1.45629 -5.10848 0
M  V30 14567 C 1369.21 0.718822 -6.07865 0
M  V30 14568 N 1368.34 1.66691 -6.82025 0
M  V30 14569 H 1373.18 -0.551947 -2.92844 0
M  V30 14570 H 1370.72 -0.28401 -1.44332 0
M  V30 14571 H 1372.68 1.77969 -3.77337 0
M  V30 14572 H 1371.31 1.86429 -2.63523 0
M  V30 14573 H 1370.36 -0.259584 -3.79513 0
M  V30 14574 H 1371.67 -0.121161 -4.98653 0
M  V30 14575 H 1370.83 2.1299 -5.68084 0
M  V30 14576 H 1369.56 2.06718 -4.41723 0
M  V30 14577 H 1368.57 0.0313773 -5.49791 0
M  V30 14578 H 1369.79 0.113452 -6.79005 0
M  V30 14579 H 1367.74 2.26608 -6.15617 0
M  V30 14580 H 1367.66 1.14251 -7.47317 0
M  V30 14581 H 1368.93 2.33117 -7.43826 0
M  V30 14582 N 1373.15 1.5451 -0.310553 0
M  V30 14583 C 1374.43 1.92452 0.34951 0
M  V30 14584 C 1374.81 1.23881 1.70929 0
M  V30 14585 O 1374.16 0.377898 2.25353 0
M  V30 14586 C 1374.37 3.46026 0.454675 0
M  V30 14587 C 1375.72 4.18432 0.721071 0
M  V30 14588 O 1376.74 3.52112 0.538112 0
M  V30 14589 O 1375.6 5.3586 1.07314 0
M  V30 14590 H 1372.69 0.803168 0.197103 0
M  V30 14591 H 1375.24 1.65852 -0.359313 0
M  V30 14592 H 1374.01 3.88081 -0.500853 0
M  V30 14593 H 1373.64 3.7869 1.21159 0
M  V30 14594 N 1374.63 0.0384594 1.57553 0
M  V30 14595 C 1375.88 -0.639085 1.92467 0
M  V30 14596 C 1376.21 -1.71239 0.916014 0
M  V30 14597 O 1375.49 -1.94408 -0.0598928 0
M  V30 14598 C 1375.77 -1.24693 3.37822 0
M  V30 14599 C 1375.62 -0.182544 4.49429 0
M  V30 14600 C 1376.94 -2.16226 3.8332 0
M  V30 14601 H 1374.06 -0.230852 0.699912 0
M  V30 14602 H 1376.7 0.0976276 1.89749 0
M  V30 14603 H 1374.85 -1.87481 3.40269 0
M  V30 14604 H 1376.53 0.448622 4.59113 0
M  V30 14605 H 1374.77 0.4909 4.31013 0
M  V30 14606 H 1375.44 -0.647626 5.48188 0
M  V30 14607 H 1377.92 -1.63413 3.82669 0
M  V30 14608 H 1376.79 -2.55705 4.85702 0
M  V30 14609 H 1377.05 -3.05722 3.19353 0
M  V30 14610 N 1376.11 -1.55841 -0.234795 0
M  V30 14611 C 1377.06 -1.92165 -1.31055 0
M  V30 14612 C 1378.05 -0.802106 -1.49207 0
M  V30 14613 O 1379.26 -0.986832 -1.50538 0
M  V30 14614 H 1375.63 -0.610487 -0.439101 0
M  V30 14615 H 1377.61 -2.81955 -0.976926 0
M  V30 14616 C 1376.35 -2.24329 -2.65654 0
M  V30 14617 H 1375.68 -3.09982 -2.5249 0
M  V30 14618 H 1377.12 -2.53639 -3.3977 0
M  V30 14619 C 1375.58 -1.0638 -3.19664 0
M  V30 14620 O 1376.11 -0.318047 -4.00439 0
M  V30 14621 N 1374.31 -0.851167 -2.77855 0
M  V30 14622 H 1373.86 -1.45932 -2.12277 0
M  V30 14623 H 1373.82 -0.0636875 -3.14335 0
M  V30 14624 N 1377.59 0.500963 -1.49426 0
M  V30 14625 C 1378.84 1.25694 -1.5915 0
M  V30 14626 C 1379.17 1.92209 -0.277365 0
M  V30 14627 O 1378.44 1.8072 0.719065 0
M  V30 14628 C 1378.73 2.32391 -2.75076 0
M  V30 14629 C 1378.58 1.70377 -4.16283 0
M  V30 14630 C 1379.9 3.33952 -2.86643 0
M  V30 14631 H 1377.02 0.455631 -0.579283 0
M  V30 14632 H 1379.66 0.555099 -1.8171 0
M  V30 14633 H 1377.81 2.92252 -2.55971 0
M  V30 14634 H 1379.48 1.14343 -4.46904 0
M  V30 14635 H 1377.72 1.00789 -4.21929 0
M  V30 14636 H 1378.4 2.47767 -4.9327 0
M  V30 14637 H 1380.87 2.84081 -3.04035 0
M  V30 14638 H 1379.75 4.05969 -3.69433 0
M  V30 14639 H 1380.01 3.96279 -1.95998 0
M  V30 14640 N 1379.07 1.38501 0.752011 0
M  V30 14641 C 1380.01 1.35857 1.86578 0
M  V30 14642 C 1380.98 0.220873 1.64625 0
M  V30 14643 O 1382.17 0.413348 1.86269 0
M  V30 14644 C 1379.31 1.19102 3.23896 0
M  V30 14645 C 1378.42 2.42272 3.5767 0
M  V30 14646 C 1377.56 2.18236 4.843 0
M  V30 14647 C 1376.6 3.37169 5.10865 0
M  V30 14648 N 1375.73 3.12558 6.28691 0
M  V30 14649 H 1380.57 2.31073 1.88173 0
M  V30 14650 H 1378.11 1.14803 0.919712 0
M  V30 14651 H 1380.07 1.07404 4.03138 0
M  V30 14652 H 1378.7 0.275243 3.21624 0
M  V30 14653 H 1377.75 2.64638 2.7326 0
M  V30 14654 H 1379.06 3.3091 3.73229 0
M  V30 14655 H 1378.22 2.03682 5.71488 0
M  V30 14656 H 1376.96 1.26966 4.70883 0
M  V30 14657 H 1375.96 3.52241 4.22145 0
M  V30 14658 H 1377.19 4.29317 5.26178 0
M  V30 14659 H 1375.13 2.23937 6.16594 0
M  V30 14660 H 1375.05 3.94746 6.44757 0
M  V30 14661 H 1376.32 3.01663 7.18763 0
M  V30 14662 N 1380.55 -0.980364 1.23396 0
M  V30 14663 C 1381.48 -2.07099 0.958403 0
M  V30 14664 C 1382.46 -1.62272 -0.1033 0
M  V30 14665 O 1383.64 -1.88475 0.0309639 0
M  V30 14666 C 1380.77 -3.35779 0.443864 0
M  V30 14667 C 1379.81 -3.99545 1.49218 0
M  V30 14668 S 1380.65 -4.3879 3.06958 0
M  V30 14669 C 1381.8 -5.70624 2.57174 0
M  V30 14670 H 1382.04 -2.30154 1.88192 0
M  V30 14671 H 1379.57 -1.11656 1.06641 0
M  V30 14672 H 1381.53 -4.10213 0.153603 0
M  V30 14673 H 1380.19 -3.10732 -0.458738 0
M  V30 14674 H 1379.38 -4.92242 1.0823 0
M  V30 14675 H 1378.98 -3.31489 1.73179 0
M  V30 14676 H 1381.27 -6.47555 1.99197 0
M  V30 14677 H 1382.22 -6.16454 3.48411 0
M  V30 14678 H 1382.63 -5.28626 1.98028 0
M  V30 14679 N 1382.02 -1.04567 -1.17913 0
M  V30 14680 C 1382.95 -0.662066 -2.23917 0
M  V30 14681 C 1383.93 0.33713 -1.66726 0
M  V30 14682 O 1385.12 0.216116 -1.92994 0
M  V30 14683 C 1382.25 -0.029463 -3.47288 0
M  V30 14684 C 1381.2 -0.95274 -4.17261 0
M  V30 14685 C 1380.53 -0.184347 -5.34382 0
M  V30 14686 C 1381.83 -2.2741 -4.70194 0
M  V30 14687 H 1383.52 -1.54826 -2.5626 0
M  V30 14688 H 1381.07 -0.745886 -1.23177 0
M  V30 14689 H 1383.02 0.250654 -4.20654 0
M  V30 14690 H 1381.75 0.891638 -3.14193 0
M  V30 14691 H 1380.41 -1.21732 -3.45799 0
M  V30 14692 H 1380.05 0.73932 -4.97537 0
M  V30 14693 H 1379.75 -0.79949 -5.82136 0
M  V30 14694 H 1381.28 0.0886344 -6.10536 0
M  V30 14695 H 1382.69 -2.05433 -5.35229 0
M  V30 14696 H 1381.09 -2.84265 -5.28501 0
M  V30 14697 H 1382.16 -2.91708 -3.87342 0
M  V30 14698 N 1383.5 1.34231 -0.825823 0
M  V30 14699 C 1384.73 2.02949 -0.427354 0
M  V30 14700 C 1385.15 1.61772 0.959755 0
M  V30 14701 O 1384.51 0.803799 1.62508 0
M  V30 14702 C 1384.56 3.56522 -0.540799 0
M  V30 14703 O 1383.66 4.10065 0.438213 0
M  V30 14704 H 1383 0.640378 -0.175535 0
M  V30 14705 H 1385.53 1.71416 -1.11704 0
M  V30 14706 H 1385.54 4.05857 -0.41763 0
M  V30 14707 H 1384.22 3.85839 -1.55246 0
M  V30 14708 H 1382.79 3.71894 0.273687 0
M  V30 14709 N 1384.98 0.581051 1.46498 0
M  V30 14710 C 1386.2 0.0696654 2.07283 0
M  V30 14711 C 1386.63 -1.22525 1.42721 0
M  V30 14712 O 1385.99 -1.73967 0.510421 0
M  V30 14713 C 1386.04 -0.0843864 3.60501 0
M  V30 14714 O 1385.14 -1.14129 3.96293 0
M  V30 14715 H 1384.48 0.0620572 0.661094 0
M  V30 14716 H 1387.01 0.803522 1.88161 0
M  V30 14717 H 1387.02 -0.29108 4.0696 0
M  V30 14718 H 1385.7 0.861274 4.06884 0
M  V30 14719 H 1384.27 -0.913186 3.61546 0
M  V30 14720 N 1386.46 -1.54343 0.318742 0
M  V30 14721 C 1387.69 -2.04894 -0.287378 0
M  V30 14722 C 1388.1 -1.19514 -1.46157 0
M  V30 14723 O 1387.46 -0.224722 -1.81111 0
M  V30 14724 C 1387.51 -3.54124 -0.726505 0
M  V30 14725 O 1387.23 -4.36261 0.400968 0
M  V30 14726 C 1388.73 -4.20748 -1.39594 0
M  V30 14727 H 1385.95 -0.668323 -0.0598724 0
M  V30 14728 H 1388.49 -1.99177 0.463531 0
M  V30 14729 H 1386.65 -3.60145 -1.4274 0
M  V30 14730 H 1387.06 -5.2447 0.0558714 0
M  V30 14731 H 1388.54 -5.26632 -1.65418 0
M  V30 14732 H 1389.01 -3.71566 -2.3417 0
M  V30 14733 H 1389.62 -4.18852 -0.737749 0
M  V30 14734 N 1387.94 -0.0468143 -1.5753 0
M  V30 14735 C 1389.16 0.637648 -1.96829 0
M  V30 14736 C 1389.58 1.64635 -0.924158 0
M  V30 14737 O 1388.94 1.82267 0.0921139 0
M  V30 14738 C 1388.99 1.32842 -3.36207 0
M  V30 14739 O 1388.71 0.360111 -4.36617 0
M  V30 14740 C 1390.21 2.10305 -3.90239 0
M  V30 14741 H 1387.43 0.174634 -0.647876 0
M  V30 14742 H 1389.97 -0.111824 -2.04194 0
M  V30 14743 H 1388.13 2.02915 -3.30006 0
M  V30 14744 H 1388.54 0.852661 -5.17523 0
M  V30 14745 H 1390.02 2.54065 -4.90056 0
M  V30 14746 H 1390.49 2.94942 -3.25432 0
M  V30 14747 H 1391.1 1.45152 -3.99764 0
M  V30 14748 N 1389.41 1.55964 0.226527 0
M  V30 14749 C 1390.36 1.92857 1.30034 0
M  V30 14750 C 1391.36 0.810008 1.48779 0
M  V30 14751 O 1392.56 0.994801 1.50012 0
M  V30 14752 H 1388.94 0.612807 0.435857 0
M  V30 14753 H 1390.91 2.82469 0.96196 0
M  V30 14754 C 1389.66 2.25735 2.6446 0
M  V30 14755 H 1388.98 3.11317 2.50842 0
M  V30 14756 H 1390.42 2.55437 3.3842 0
M  V30 14757 C 1388.88 1.08074 3.19095 0
M  V30 14758 O 1389.41 0.339279 4.00265 0
M  V30 14759 N 1387.62 0.86589 2.774 0
M  V30 14760 H 1387.16 1.47055 2.11501 0
M  V30 14761 H 1387.12 0.0803566 3.14297 0
M  V30 14762 N 1390.89 -0.493031 1.4969 0
M  V30 14763 C 1391.84 -1.59367 1.66945 0
M  V30 14764 C 1392.81 -1.58049 0.510842 0
M  V30 14765 O 1393.99 -1.75915 0.738822 0
M  V30 14766 C 1391.13 -2.97472 1.74941 0
M  V30 14767 C 1390.25 -3.08745 3.02159 0
M  V30 14768 C 1389.38 -4.37632 3.01085 0
M  V30 14769 C 1388.42 -4.42567 4.22849 0
M  V30 14770 N 1387.56 -5.62892 4.19639 0
M  V30 14771 H 1392.4 -1.4396 2.6092 0
M  V30 14772 H 1389.94 -0.700297 1.29361 0
M  V30 14773 H 1391.89 -3.7753 1.77558 0
M  V30 14774 H 1390.52 -3.11564 0.844252 0
M  V30 14775 H 1389.58 -2.217 3.09117 0
M  V30 14776 H 1390.89 -3.08251 3.92151 0
M  V30 14777 H 1390.04 -5.26018 3.02309 0
M  V30 14778 H 1388.78 -4.40702 2.08885 0
M  V30 14779 H 1387.79 -3.52581 4.21861 0
M  V30 14780 H 1389.01 -4.41205 5.1625 0
M  V30 14781 H 1386.96 -5.6679 3.30281 0
M  V30 14782 H 1386.87 -5.64048 5.03374 0
M  V30 14783 H 1388.14 -6.53464 4.24977 0
M  V30 14784 N 1392.37 -1.38898 -0.744656 0
M  V30 14785 C 1393.3 -1.39571 -1.87195 0
M  V30 14786 C 1394.28 -0.260372 -1.68095 0
M  V30 14787 O 1395.47 -0.464776 -1.88556 0
M  V30 14788 C 1392.6 -1.22889 -3.24832 0
M  V30 14789 C 1391.55 -2.33721 -3.58551 0
M  V30 14790 C 1390.88 -2.02136 -4.9502 0
M  V30 14791 C 1392.18 -3.7601 -3.62511 0
M  V30 14792 H 1393.87 -2.33908 -1.86889 0
M  V30 14793 H 1391.42 -1.12591 -0.897739 0
M  V30 14794 H 1393.37 -1.21983 -4.03359 0
M  V30 14795 H 1392.09 -0.250172 -3.2564 0
M  V30 14796 H 1390.75 -2.33828 -2.82348 0
M  V30 14797 H 1390.4 -1.02726 -4.92399 0
M  V30 14798 H 1390.1 -2.76371 -5.18549 0
M  V30 14799 H 1391.62 -2.02864 -5.75915 0
M  V30 14800 H 1393.04 -3.77885 -4.31133 0
M  V30 14801 H 1391.44 -4.49524 -3.97553 0
M  V30 14802 H 1392.51 -4.07682 -2.62533 0
M  V30 14803 N 1393.85 0.973806 -1.23914 0
M  V30 14804 C 1394.78 2.08526 -1.05068 0
M  V30 14805 C 1395.76 1.70065 0.0344761 0
M  V30 14806 O 1396.94 1.93755 -0.131432 0
M  V30 14807 C 1394.07 3.41198 -0.648165 0
M  V30 14808 C 1393.03 3.9359 -1.6814 0
M  V30 14809 C 1392.35 5.22534 -1.13414 0
M  V30 14810 C 1393.65 4.22116 -3.07597 0
M  V30 14811 H 1395.35 2.24551 -1.98034 0
M  V30 14812 H 1392.89 1.07905 -0.953546 0
M  V30 14813 H 1394.85 4.18383 -0.50334 0
M  V30 14814 H 1393.57 3.25056 0.317182 0
M  V30 14815 H 1392.23 3.18555 -1.81434 0
M  V30 14816 H 1391.88 5.02747 -0.159578 0
M  V30 14817 H 1391.58 5.58555 -1.82456 0
M  V30 14818 H 1393.1 6.02334 -1.0013 0
M  V30 14819 H 1394.52 4.90027 -2.97567 0
M  V30 14820 H 1392.91 4.69352 -3.73937 0
M  V30 14821 H 1393.98 3.29128 -3.56094 0
M  V30 14822 N 1395.33 1.05191 1.17357 0
M  V30 14823 C 1396.26 0.673931 2.23563 0
M  V30 14824 C 1397.24 -0.328284 1.66902 0
M  V30 14825 O 1398.42 -0.205878 1.93106 0
M  V30 14826 C 1395.55 0.0478801 3.47267 0
M  V30 14827 C 1394.51 0.974855 4.1675 0
M  V30 14828 C 1393.83 0.212684 5.34277 0
M  V30 14829 C 1395.13 2.299 4.68981 0
M  V30 14830 H 1396.83 1.56183 2.55436 0
M  V30 14831 H 1394.37 0.752408 1.2278 0
M  V30 14832 H 1396.33 -0.228343 4.20781 0
M  V30 14833 H 1395.05 -0.874963 3.14662 0
M  V30 14834 H 1393.71 1.23564 3.45148 0
M  V30 14835 H 1393.36 -0.712924 4.97922 0
M  V30 14836 H 1393.06 0.830351 5.81703 0
M  V30 14837 H 1394.58 -0.056255 6.10574 0
M  V30 14838 H 1395.99 2.08269 5.34132 0
M  V30 14839 H 1394.39 2.87064 5.26986 0
M  V30 14840 H 1395.46 2.93759 3.8579 0
M  V30 14841 N 1396.8 -1.33791 0.83293 0
M  V30 14842 C 1397.71 -2.33108 0.264169 0
M  V30 14843 C 1398.73 -1.6308 -0.606694 0
M  V30 14844 O 1399.91 -1.94777 -0.512225 0
M  V30 14845 C 1396.97 -3.42208 -0.556315 0
M  V30 14846 C 1396.03 -4.27966 0.338123 0
M  V30 14847 C 1395.27 -5.31856 -0.443297 0
M  V30 14848 O 1395.49 -5.45234 -1.6756 0
M  V30 14849 O 1394.42 -6.01632 0.179599 0
M  V30 14850 H 1398.25 -2.83602 1.08645 0
M  V30 14851 H 1395.83 -1.37027 0.595307 0
M  V30 14852 H 1397.72 -4.088 -1.02277 0
M  V30 14853 H 1396.39 -2.9394 -1.35575 0
M  V30 14854 H 1395.3 -3.64262 0.852293 0
M  V30 14855 H 1396.63 -4.79701 1.10217 0
M  V30 14856 N 1398.28 -0.588812 -1.46187 0
M  V30 14857 C 1399.51 -0.0806571 -2.07243 0
M  V30 14858 C 1399.93 1.21766 -1.43369 0
M  V30 14859 O 1399.29 1.73694 -0.51964 0
M  V30 14860 C 1399.34 0.065267 -3.60541 0
M  V30 14861 O 1398.44 1.12026 -3.96893 0
M  V30 14862 H 1397.78 -0.0655622 -0.660755 0
M  V30 14863 H 1400.31 -0.813489 -1.87733 0
M  V30 14864 H 1400.32 0.269494 -4.07109 0
M  V30 14865 H 1399 -0.88284 -4.06422 0
M  V30 14866 H 1397.58 0.894 -3.62025 0
M  V30 14867 N 1399.76 1.54172 -0.326923 0
M  V30 14868 C 1401.01 2.00926 0.275047 0
M  V30 14869 C 1401.34 1.21469 1.51522 0
M  V30 14870 O 1400.61 0.297871 1.92206 0
M  V30 14871 C 1400.9 3.54967 0.605833 0
M  V30 14872 C 1400.75 4.45147 -0.645279 0
M  V30 14873 C 1402.07 4.16489 1.42213 0
M  V30 14874 H 1399.19 0.730389 0.098495 0
M  V30 14875 H 1401.83 1.84735 -0.444168 0
M  V30 14876 H 1399.98 3.68895 1.21857 0
M  V30 14877 H 1401.65 4.43085 -1.2835 0
M  V30 14878 H 1399.9 4.14686 -1.27349 0
M  V30 14879 H 1400.57 5.50763 -0.36932 0
M  V30 14880 H 1403.04 4.06158 0.904172 0
M  V30 14881 H 1401.92 5.24377 1.62234 0
M  V30 14882 H 1402.18 3.70032 2.41928 0
M  V30 14883 N 1401.24 0.0551678 1.57503 0
M  V30 14884 C 1402.19 -0.935665 2.12951 0
M  V30 14885 C 1403.18 -1.31954 1.06229 0
M  V30 14886 O 1404.39 -1.29873 1.24632 0
M  V30 14887 H 1400.76 -0.319618 0.680697 0
M  V30 14888 H 1402.73 -0.442937 2.95094 0
M  V30 14889 C 1401.48 -2.19977 2.69268 0
M  V30 14890 H 1400.8 -1.91319 3.51051 0
M  V30 14891 H 1402.24 -2.87456 3.11681 0
M  V30 14892 C 1400.7 -2.94714 1.63233 0
M  V30 14893 O 1401.23 -3.87803 1.04747 0
M  V30 14894 N 1399.44 -2.57518 1.34659 0
M  V30 14895 H 1398.99 -1.81894 1.82407 0
M  V30 14896 H 1398.94 -3.07829 0.639425 0
M  V30 14897 N 1402.72 -1.56081 -0.218252 0
M  V30 14898 C 1403.94 -1.83334 -0.958964 0
M  V30 14899 C 1404.36 -0.63472 -1.77811 0
M  V30 14900 O 1403.72 0.396729 -1.78136 0
M  V30 14901 C 1403.77 -3.09141 -1.87387 0
M  V30 14902 O 1403.49 -4.24379 -1.08783 0
M  V30 14903 C 1404.99 -3.49405 -2.7282 0
M  V30 14904 H 1402.21 -0.609375 -0.280898 0
M  V30 14905 H 1404.75 -2.03174 -0.232486 0
M  V30 14906 H 1402.91 -2.91267 -2.55426 0
M  V30 14907 H 1403.32 -4.9587 -1.70919 0
M  V30 14908 H 1404.8 -4.40461 -3.32713 0
M  V30 14909 H 1405.27 -2.71311 -3.45379 0
M  V30 14910 H 1405.88 -3.6973 -2.1019 0
M  V30 14911 N 1404.2 0.485086 -1.49949 0
M  V30 14912 C 1405.42 1.26179 -1.63971 0
M  V30 14913 C 1405.84 1.86113 -0.317408 0
M  V30 14914 O 1405.2 1.68581 0.699038 0
M  V30 14915 C 1405.25 2.38062 -2.72046 0
M  V30 14916 O 1404.97 1.80588 -3.99149 0
M  V30 14917 C 1406.47 3.29174 -2.96916 0
M  V30 14918 H 1403.69 0.382122 -0.551565 0
M  V30 14919 H 1406.23 0.580607 -1.96085 0
M  V30 14920 H 1404.39 3.0198 -2.42666 0
M  V30 14921 H 1404.8 2.54159 -4.58807 0
M  V30 14922 H 1406.28 4.03922 -3.76233 0
M  V30 14923 H 1406.75 3.87123 -2.07443 0
M  V30 14924 H 1407.36 2.71006 -3.27774 0
M  V30 14925 N 1405.67 1.39291 0.737279 0
M  V30 14926 C 1406.62 1.37969 1.87263 0
M  V30 14927 C 1407.62 0.263156 1.67344 0
M  V30 14928 O 1408.82 0.433069 1.74713 0
M  V30 14929 H 1405.2 0.430782 0.616385 0
M  V30 14930 H 1407.17 2.33741 1.85494 0
M  V30 14931 C 1405.92 1.23779 3.24922 0
M  V30 14932 H 1405.24 2.08963 3.40844 0
M  V30 14933 H 1406.68 1.26911 4.04561 0
M  V30 14934 C 1405.14 -0.0539778 3.36857 0
M  V30 14935 O 1405.67 -1.02501 3.88402 0
M  V30 14936 N 1403.87 -0.116275 2.90367 0
M  V30 14937 H 1403.42 0.674622 2.48609 0
M  V30 14938 H 1403.38 -0.980107 2.98733 0
M  V30 14939 N 1407.15 -0.967221 1.24429 0
M  V30 14940 C 1408.38 -1.75053 1.11226 0
M  V30 14941 C 1408.8 -1.85162 -0.331139 0
M  V30 14942 O 1408.16 -1.32288 -1.23974 0
M  V30 14943 C 1408.21 -3.14882 1.75733 0
M  V30 14944 O 1407.31 -3.99371 1.02842 0
M  V30 14945 H 1406.65 -0.538078 0.389061 0
M  V30 14946 H 1409.18 -1.21325 1.64746 0
M  V30 14947 H 1409.19 -3.65402 1.81509 0
M  V30 14948 H 1407.87 -3.06839 2.80754 0
M  V30 14949 H 1406.44 -3.57854 1.04856 0
M  V30 14950 N 1408.63 -1.05812 -1.16797 0
M  V30 14951 C 1409.58 -0.634669 -2.18988 0
M  V30 14952 C 1410.56 0.332122 -1.57435 0
M  V30 14953 O 1411.76 0.148346 -1.76377 0
M  V30 14954 C 1408.88 -0.0174742 -3.43296 0
M  V30 14955 C 1407.97 -1.00847 -4.11935 0
M  V30 14956 N 1408.36 -2.18223 -4.56303 0
M  V30 14957 C 1406.66 -0.838325 -4.3805 0
M  V30 14958 C 1407.36 -2.80967 -5.09345 0
M  V30 14959 N 1406.34 -2.08725 -5.01931 0
M  V30 14960 H 1410.14 -1.52888 -2.51003 0
M  V30 14961 H 1407.65 -0.929125 -1.33195 0
M  V30 14962 H 1409.65 0.303692 -4.15792 0
M  V30 14963 H 1408.31 0.872052 -3.1277 0
M  V30 14964 H 1409.32 -2.56025 -4.5019 0
M  V30 14965 H 1406 -0.000376066 -4.175 0
M  V30 14966 H 1407.39 -3.80541 -5.53749 0
M  V30 14967 N 1410.11 1.33347 -0.840014 0
M  V30 14968 C 1411.04 2.28029 -0.231432 0
M  V30 14969 C 1412.05 1.51792 0.588488 0
M  V30 14970 O 1413.24 1.736 0.415371 0
M  V30 14971 C 1410.34 3.31745 0.692721 0
M  V30 14972 C 1409.51 4.37311 -0.0881144 0
M  V30 14973 C 1408.57 5.20689 0.759557 0
M  V30 14974 O 1407.6 5.68854 0.198347 0
M  V30 14975 N 1408.8 5.42082 2.07672 0
M  V30 14976 H 1411.57 2.80893 -1.04495 0
M  V30 14977 H 1409.13 1.46053 -0.698586 0
M  V30 14978 H 1411.12 3.84428 1.2648 0
M  V30 14979 H 1409.69 2.79148 1.40695 0
M  V30 14980 H 1408.91 3.85112 -0.841579 0
M  V30 14981 H 1410.2 5.04947 -0.624986 0
M  V30 14982 H 1409.6 5.04654 2.55619 0
M  V30 14983 H 1408.15 5.97817 2.59726 0
M  V30 14984 N 1411.59 0.596556 1.45873 0
M  V30 14985 C 1412.81 0.0934926 2.06689 0
M  V30 14986 C 1413.23 -1.21743 1.44305 0
M  V30 14987 O 1412.59 -1.73912 0.553253 0
M  V30 14988 C 1412.64 -0.0643337 3.61443 0
M  V30 14989 O 1412.36 1.19472 4.21495 0
M  V30 14990 C 1413.86 -0.600141 4.39219 0
M  V30 14991 H 1411.08 0.0637846 0.667961 0
M  V30 14992 H 1413.62 0.821159 1.87289 0
M  V30 14993 H 1411.78 -0.742278 3.80222 0
M  V30 14994 H 1412.19 1.01735 5.14539 0
M  V30 14995 H 1413.67 -0.6597 5.48044 0
M  V30 14996 H 1414.14 -1.62009 4.08227 0
M  V30 14997 H 1414.75 0.0433915 4.25278 0
M  V30 14998 N 1413.06 -1.53996 0.335095 0
M  V30 14999 C 1414.29 -2.05657 -0.268328 0
M  V30 15000 C 1414.71 -1.20897 -1.44102 0
M  V30 15001 O 1414.07 -0.220737 -1.79951 0
M  V30 15002 C 1414.12 -3.54331 -0.669481 0
M  V30 15003 O 1413.22 -3.7246 -1.77052 0
M  V30 15004 H 1412.56 -0.662386 -0.0462705 0
M  V30 15005 H 1415.09 -1.98723 0.486854 0
M  V30 15006 H 1415.1 -3.9681 -0.948971 0
M  V30 15007 H 1413.78 -4.15474 0.188168 0
M  V30 15008 H 1412.36 -3.41884 -1.48895 0
M  V30 15009 N 1414.54 -0.0635198 -1.57472 0
M  V30 15010 C 1415.79 0.608384 -1.93459 0
M  V30 15011 C 1416.12 1.6976 -0.943141 0
M  V30 15012 O 1415.4 1.94478 0.0289567 0
M  V30 15013 C 1415.68 1.19302 -3.39763 0
M  V30 15014 C 1415.53 0.11102 -4.49663 0
M  V30 15015 C 1416.85 2.101 -3.86712 0
M  V30 15016 H 1413.97 0.219688 -0.703496 0
M  V30 15017 H 1416.61 -0.127803 -1.8957 0
M  V30 15018 H 1414.76 1.82044 -3.43209 0
M  V30 15019 H 1416.43 -0.521606 -4.58342 0
M  V30 15020 H 1414.68 -0.559408 -4.30178 0
M  V30 15021 H 1415.35 0.560332 -5.49149 0
M  V30 15022 H 1417.82 1.57305 -3.8522 0
M  V30 15023 H 1416.7 2.47945 -4.89708 0
M  V30 15024 H 1416.96 3.00603 -3.24177 0
M  V30 15025 N 1416.02 1.56195 0.209972 0
M  V30 15026 C 1417.44 1.49446 0.56018 0
M  V30 15027 C 1417.64 0.760799 1.86585 0
M  V30 15028 O 1416.69 0.305201 2.50649 0
M  V30 15029 C 1418 2.94054 0.628687 0
M  V30 15030 C 1419.55 3.04641 0.718531 0
M  V30 15031 C 1420.03 4.50631 0.81828 0
M  V30 15032 N 1421.52 4.54721 0.8822 0
M  V30 15033 C 1422.25 5.64976 0.979292 0
M  V30 15034 N 1421.75 6.84955 1.03961 0
M  V30 15035 N 1423.54 5.52854 1.01533 0
M  V30 15036 H 1415.69 2.02316 -0.646674 0
M  V30 15037 H 1417.96 0.920063 -0.228446 0
M  V30 15038 H 1417.66 3.50728 -0.261324 0
M  V30 15039 H 1417.54 3.46592 1.48842 0
M  V30 15040 H 1419.92 2.48026 1.59898 0
M  V30 15041 H 1420 2.55254 -0.167102 0
M  V30 15042 H 1419.65 5.07867 -0.0577557 0
M  V30 15043 H 1419.58 4.97736 1.7195 0
M  V30 15044 H 1422.07 3.68322 0.845433 0
M  V30 15045 H 1422.38 7.64732 1.11379 0
M  V30 15046 H 1420.73 6.87643 1.00854 0
M  V30 15047 H 1423.92 4.58046 0.96494 0
M  V30 15048 H 1424.09 6.38809 1.08754 0
M  V30 15049 N 1417.5 -0.477127 1.50204 0
M  V30 15050 C 1418.41 -1.60182 1.71403 0
M  V30 15051 C 1419.42 -1.63437 0.597009 0
M  V30 15052 O 1420.6 -1.81418 0.874614 0
M  V30 15053 C 1417.66 -2.96432 1.79802 0
M  V30 15054 C 1416.73 -3.03614 3.03508 0
M  V30 15055 C 1415.96 -4.33365 3.11497 0
M  V30 15056 O 1416.18 -5.23529 2.26438 0
M  V30 15057 O 1415.12 -4.46013 4.04173 0
M  V30 15058 H 1418.94 -1.45221 2.66729 0
M  V30 15059 H 1416.53 -0.655982 1.34228 0
M  V30 15060 H 1418.41 -3.77367 1.87542 0
M  V30 15061 H 1417.08 -3.11605 0.876581 0
M  V30 15062 H 1415.99 -2.21779 3.01272 0
M  V30 15063 H 1417.32 -2.93376 3.95211 0
M  V30 15064 N 1418.98 -1.3968 -0.729882 0
M  V30 15065 C 1420.22 -1.37385 -1.49175 0
M  V30 15066 C 1420.56 0.0285839 -1.94179 0
M  V30 15067 O 1419.83 0.994516 -1.67152 0
M  V30 15068 C 1420.11 -2.35075 -2.72785 0
M  V30 15069 C 1419.97 -3.84282 -2.33767 0
M  V30 15070 C 1421.29 -2.30515 -3.74901 0
M  V30 15071 H 1418.4 -0.500359 -0.541119 0
M  V30 15072 H 1421.05 -1.7071 -0.834152 0
M  V30 15073 H 1419.2 -2.06787 -3.28894 0
M  V30 15074 H 1420.87 -4.2334 -1.8325 0
M  V30 15075 H 1419.11 -4.00809 -1.65935 0
M  V30 15076 H 1419.78 -4.48131 -3.22309 0
M  V30 15077 H 1422.26 -2.55539 -3.28389 0
M  V30 15078 H 1421.13 -3.00939 -4.5905 0
M  V30 15079 H 1421.4 -1.3119 -4.22187 0
M  V30 15080 N 1420.45 0.960609 -1.2494 0
M  V30 15081 C 1421.68 1.7446 -1.12153 0
M  V30 15082 C 1422.1 1.85335 0.321315 0
M  V30 15083 O 1421.46 1.32944 1.23271 0
M  V30 15084 C 1421.51 3.13945 -1.774 0
M  V30 15085 O 1420.61 3.9882 -1.04958 0
M  V30 15086 H 1419.96 0.536007 -0.391909 0
M  V30 15087 H 1422.49 1.2045 -1.65388 0
M  V30 15088 H 1422.5 3.64434 -1.83444 0
M  V30 15089 H 1421.17 3.05346 -2.82377 0
M  V30 15090 H 1419.75 3.57293 -1.06752 0
M  V30 15091 N 1421.93 1.0643 1.16234 0
M  V30 15092 C 1422.84 0.687446 2.24302 0
M  V30 15093 C 1423.86 -0.297132 1.71444 0
M  V30 15094 O 1425.03 -0.146101 2.00869 0
M  V30 15095 C 1422.1 0.0810973 3.46605 0
M  V30 15096 C 1421.16 1.11772 4.14494 0
M  V30 15097 C 1420.39 0.54021 5.30959 0
M  V30 15098 O 1420.62 -0.646619 5.66723 0
M  V30 15099 O 1419.55 1.28057 5.8812 0
M  V30 15100 H 1423.38 1.58842 2.58849 0
M  V30 15101 H 1420.96 0.836649 1.23776 0
M  V30 15102 H 1422.84 -0.25524 4.20626 0
M  V30 15103 H 1421.52 -0.793338 3.13828 0
M  V30 15104 H 1420.43 1.50626 3.42436 0
M  V30 15105 H 1421.76 1.96373 4.5133 0
M  V30 15106 N 1423.41 -1.329 0.847073 0
M  V30 15107 C 1424.82 -1.79813 0.502394 0
M  V30 15108 C 1425.17 -1.70017 -0.979218 0
M  V30 15109 O 1424.3 -1.25427 -1.76344 0
M  V30 15110 C 1424.89 -3.26485 0.905154 0
M  V30 15111 C 1423.45 -3.71383 0.612489 0
M  V30 15112 C 1422.6 -2.54157 1.10903 0
M  V30 15113 H 1425.55 -1.20306 1.035 0
M  V30 15114 H 1425.57 -3.79872 0.218476 0
M  V30 15115 H 1425.08 -3.33583 1.98353 0
M  V30 15116 H 1423.18 -3.69806 -0.45548 0
M  V30 15117 H 1423.3 -4.64507 1.17347 0
M  V30 15118 H 1421.66 -2.49134 0.529576 0
M  V30 15119 H 1422.44 -2.64013 2.19435 0
M  V30 15120 N 1424.89 -0.604284 -1.45555 0
M  V30 15121 C 1426.3 -0.267665 -1.57339 0
M  V30 15122 C 1426.5 1.22984 -1.59616 0
M  V30 15123 O 1425.56 2.0127 -1.52468 0
M  V30 15124 C 1426.87 -0.935923 -2.85764 0
M  V30 15125 C 1428.42 -0.911531 -2.99433 0
M  V30 15126 C 1428.9 -1.55974 -4.30623 0
M  V30 15127 N 1430.39 -1.52507 -4.37374 0
M  V30 15128 C 1431.12 -1.9958 -5.37546 0
M  V30 15129 N 1430.62 -2.54724 -6.44273 0
M  V30 15130 N 1432.41 -1.90368 -5.28882 0
M  V30 15131 H 1424.56 -1.57666 -1.42321 0
M  V30 15132 H 1426.83 -0.66028 -0.680245 0
M  V30 15133 H 1426.53 -1.99022 -2.89971 0
M  V30 15134 H 1426.41 -0.457194 -3.74419 0
M  V30 15135 H 1428.79 0.134206 -2.94795 0
M  V30 15136 H 1428.87 -1.42849 -2.12197 0
M  V30 15137 H 1428.52 -2.60479 -4.3602 0
M  V30 15138 H 1428.45 -1.01782 -5.1667 0
M  V30 15139 H 1430.94 -1.12221 -3.60853 0
M  V30 15140 H 1431.25 -2.88445 -7.16951 0
M  V30 15141 H 1429.6 -2.58761 -6.45033 0
M  V30 15142 H 1432.79 -1.47029 -4.4441 0
M  V30 15143 H 1432.96 -2.27367 -6.06802 0
M  V30 15144 N 1426.37 1.53816 -0.343257 0
M  V30 15145 C 1427.32 2.21763 0.529635 0
M  V30 15146 C 1428.3 1.20494 1.06631 0
M  V30 15147 O 1429.49 1.46041 1.00006 0
M  V30 15148 C 1426.62 2.99372 1.68022 0
M  V30 15149 C 1425.71 4.07999 1.1575 0
M  V30 15150 N 1426.1 5.04546 0.355979 0
M  V30 15151 C 1424.4 4.22304 1.43442 0
M  V30 15152 C 1425.1 5.81655 0.0723481 0
M  V30 15153 N 1424.07 5.39531 0.66391 0
M  V30 15154 H 1427.88 2.93763 -0.0898087 0
M  V30 15155 H 1425.39 1.61705 -0.150107 0
M  V30 15156 H 1427.39 3.4655 2.31752 0
M  V30 15157 H 1426.05 2.28899 2.30294 0
M  V30 15158 H 1427.06 5.179 -0.00291228 0
M  V30 15159 H 1423.73 3.63051 2.06155 0
M  V30 15160 H 1425.12 6.69442 -0.574192 0
M  V30 15161 N 1427.84 0.0718701 1.57436 0
M  V30 15162 C 1428.79 -0.913026 2.13931 0
M  V30 15163 C 1429.79 -1.3082 1.07622 0
M  V30 15164 O 1430.99 -1.28544 1.26002 0
M  V30 15165 H 1427.37 -0.31238 0.684049 0
M  V30 15166 H 1429.34 -0.411613 2.95547 0
M  V30 15167 C 1428.09 -2.17109 2.71586 0
M  V30 15168 H 1427.41 -1.87585 3.53061 0
M  V30 15169 H 1428.85 -2.84134 3.14712 0
M  V30 15170 C 1427.31 -2.92967 1.6635 0
M  V30 15171 O 1427.84 -3.8667 1.08854 0
M  V30 15172 N 1426.05 -2.56075 1.37383 0
M  V30 15173 H 1425.59 -1.79949 1.84326 0
M  V30 15174 H 1425.55 -3.07134 0.672039 0
M  V30 15175 N 1429.32 -1.56304 -0.201686 0
M  V30 15176 C 1430.27 -1.90422 -1.25393 0
M  V30 15177 C 1431.26 -0.769236 -1.41321 0
M  V30 15178 O 1432.45 -1.03199 -1.43802 0
M  V30 15179 C 1429.58 -2.24157 -2.60016 0
M  V30 15180 C 1428.66 -3.44097 -2.47908 0
M  V30 15181 N 1429.05 -4.62185 -2.05471 0
M  V30 15182 C 1427.35 -3.48105 -2.78817 0
M  V30 15183 C 1428.05 -5.44345 -2.05095 0
M  V30 15184 N 1427.03 -4.84576 -2.46346 0
M  V30 15185 H 1430.83 -2.79227 -0.917045 0
M  V30 15186 H 1428.35 -1.57135 -0.410157 0
M  V30 15187 H 1430.34 -2.46782 -3.36012 0
M  V30 15188 H 1429 -1.36676 -2.94533 0
M  V30 15189 H 1430.01 -4.86974 -1.76285 0
M  V30 15190 H 1426.69 -2.71022 -3.17574 0
M  V30 15191 H 1428.08 -6.48914 -1.74242 0
M  V30 15192 N 1430.8 0.469154 -1.50455 0
M  V30 15193 C 1432.05 1.22109 -1.61541 0
M  V30 15194 C 1432.38 1.91905 -0.316646 0
M  V30 15195 O 1431.63 1.82845 0.697585 0
M  V30 15196 C 1431.93 2.28673 -2.7467 0
M  V30 15197 C 1431.6 1.76115 -4.15083 0
M  V30 15198 C 1430.26 1.61503 -4.53288 0
M  V30 15199 C 1432.61 1.37145 -5.02833 0
M  V30 15200 C 1429.94 1.06346 -5.76981 0
M  V30 15201 C 1432.29 0.834294 -6.27074 0
M  V30 15202 C 1430.95 0.674814 -6.6408 0
M  V30 15203 H 1430.22 0.44683 -0.591121 0
M  V30 15204 H 1432.87 0.516821 -1.84394 0
M  V30 15205 H 1431.18 3.05015 -2.45912 0
M  V30 15206 H 1432.87 2.86615 -2.80451 0
M  V30 15207 H 1429.46 1.88457 -3.84944 0
M  V30 15208 H 1433.65 1.47268 -4.73947 0
M  V30 15209 H 1428.9 0.927377 -6.04326 0
M  V30 15210 H 1433.08 0.523676 -6.94428 0
M  V30 15211 H 1430.7 0.245264 -7.59804 0
M  V30 15212 N 1432.28 1.40065 0.722464 0
M  V30 15213 C 1433.51 1.41066 1.50944 0
M  V30 15214 C 1433.92 0.00678083 1.89199 0
M  V30 15215 O 1433.26 -0.977992 1.55502 0
M  V30 15216 C 1433.32 2.23127 2.81877 0
M  V30 15217 C 1432.99 3.7162 2.65984 0
M  V30 15218 C 1433.98 4.64415 2.33698 0
M  V30 15219 C 1431.67 4.15355 2.82463 0
M  V30 15220 C 1433.66 5.98928 2.18091 0
M  V30 15221 C 1431.35 5.49941 2.66474 0
M  V30 15222 C 1432.35 6.41542 2.34335 0
M  V30 15223 O 1432.03 7.73647 2.18461 0
M  V30 15224 H 1431.77 0.483321 0.472628 0
M  V30 15225 H 1434.32 1.84664 0.899356 0
M  V30 15226 H 1432.55 1.74298 3.45192 0
M  V30 15227 H 1434.24 2.16153 3.43559 0
M  V30 15228 H 1435.01 4.31924 2.20606 0
M  V30 15229 H 1430.88 3.44381 3.06468 0
M  V30 15230 H 1434.43 6.70391 1.92928 0
M  V30 15231 H 1430.33 5.82019 2.79149 0
M  V30 15232 H 1431.09 7.84507 2.33434 0
M  V30 15233 N 1433.76 -0.95397 1.25448 0
M  V30 15234 C 1434.98 -1.73863 1.13077 0
M  V30 15235 C 1435.41 -1.85503 -0.311481 0
M  V30 15236 O 1434.77 -1.33596 -1.22564 0
M  V30 15237 C 1434.81 -3.13 1.79062 0
M  V30 15238 O 1433.92 -3.98258 1.07072 0
M  V30 15239 H 1433.26 -0.533921 0.394746 0
M  V30 15240 H 1435.79 -1.19571 1.66024 0
M  V30 15241 H 1435.8 -3.63456 1.85374 0
M  V30 15242 H 1434.47 -3.03844 2.83992 0
M  V30 15243 H 1433.05 -3.56722 1.08645 0
M  V30 15244 N 1435.24 -1.07045 -1.15668 0
M  V30 15245 C 1436.19 -0.65786 -2.18303 0
M  V30 15246 C 1437.17 0.315405 -1.57778 0
M  V30 15247 O 1438.36 0.129631 -1.76525 0
M  V30 15248 C 1435.49 -0.0538843 -3.43258 0
M  V30 15249 C 1434.58 -1.0521 -4.10843 0
M  V30 15250 N 1434.97 -2.23051 -4.53963 0
M  V30 15251 C 1433.27 -0.884739 -4.37137 0
M  V30 15252 C 1433.97 -2.86354 -5.06336 0
M  V30 15253 N 1432.94 -2.14037 -4.99689 0
M  V30 15254 H 1436.74 -1.55542 -2.49367 0
M  V30 15255 H 1434.26 -0.9432 -1.32202 0
M  V30 15256 H 1436.26 0.259575 -4.16091 0
M  V30 15257 H 1434.92 0.83883 -3.13678 0
M  V30 15258 H 1435.93 -2.60786 -4.4745 0
M  V30 15259 H 1432.6 -0.0446575 -4.17476 0
M  V30 15260 H 1433.99 -3.86393 -5.49682 0
M  V30 15261 N 1436.71 1.32449 -0.85411 0
M  V30 15262 C 1437.94 2.01463 -0.471188 0
M  V30 15263 C 1438.36 1.64195 0.931954 0
M  V30 15264 O 1437.71 0.862994 1.60806 0
M  V30 15265 C 1437.76 3.56486 -0.600022 0
M  V30 15266 O 1437.49 3.92414 -1.94789 0
M  V30 15267 C 1438.99 4.42773 -0.216036 0
M  V30 15268 H 1436.21 0.644914 -0.185275 0
M  V30 15269 H 1438.75 1.6904 -1.1509 0
M  V30 15270 H 1436.91 3.87387 0.0319488 0
M  V30 15271 H 1437.32 4.87133 -1.94427 0
M  V30 15272 H 1438.79 5.50843 -0.357186 0
M  V30 15273 H 1439.27 4.31025 0.843468 0
M  V30 15274 H 1439.88 4.1726 -0.823058 0
M  V30 15275 N 1438.19 0.611994 1.45232 0
M  V30 15276 C 1439.42 0.115409 2.06578 0
M  V30 15277 C 1439.83 -1.20206 1.45588 0
M  V30 15278 O 1439.19 -1.73315 0.571668 0
M  V30 15279 C 1439.24 -0.0259943 3.61491 0
M  V30 15280 O 1438.96 1.23936 4.20204 0
M  V30 15281 C 1440.46 -0.553522 4.39831 0
M  V30 15282 H 1437.68 0.0708656 0.667247 0
M  V30 15283 H 1440.23 0.840977 1.86408 0
M  V30 15284 H 1438.38 -0.701909 3.80988 0
M  V30 15285 H 1438.8 1.07187 5.13431 0
M  V30 15286 H 1440.27 -0.601536 5.48713 0
M  V30 15287 H 1440.75 -1.57671 4.09923 0
M  V30 15288 H 1441.35 0.0884954 4.25208 0
M  V30 15289 N 1439.67 -1.53632 0.351409 0
M  V30 15290 C 1440.6 -2.2284 -0.536204 0
M  V30 15291 C 1441.61 -1.23765 -1.05764 0
M  V30 15292 O 1442.8 -1.50073 -0.966449 0
M  V30 15293 C 1439.9 -2.9013 -1.75151 0
M  V30 15294 C 1439.08 -4.15588 -1.36401 0
M  V30 15295 C 1438.14 -4.66217 -2.43984 0
M  V30 15296 O 1437.16 -5.3024 -2.06964 0
M  V30 15297 N 1438.36 -4.42817 -3.75358 0
M  V30 15298 H 1441.13 -2.99647 0.0565368 0
M  V30 15299 H 1438.69 -1.60942 0.175905 0
M  V30 15300 H 1440.68 -3.20913 -2.4657 0
M  V30 15301 H 1439.25 -2.16862 -2.25144 0
M  V30 15302 H 1438.47 -3.91264 -0.480258 0
M  V30 15303 H 1439.76 -4.97179 -1.08121 0
M  V30 15304 H 1439.16 -3.9163 -4.08218 0
M  V30 15305 H 1437.71 -4.78186 -4.42924 0
M  V30 15306 N 1441.15 -0.0802183 -1.57396 0
M  V30 15307 C 1442.4 0.586573 -1.92982 0
M  V30 15308 C 1442.71 1.70256 -0.962918 0
M  V30 15309 O 1443.92 2.4295 -1.21193 0
M  V30 15310 C 1442.37 1.09475 -3.42846 0
M  V30 15311 C 1441.98 0.0093098 -4.47999 0
M  V30 15312 C 1443.72 1.73512 -3.87419 0
M  V30 15313 C 1441.63 0.532002 -5.89002 0
M  V30 15314 H 1440.56 0.222878 -0.720306 0
M  V30 15315 H 1443.21 -0.153816 -1.82854 0
M  V30 15316 H 1441.59 1.88836 -3.48076 0
M  V30 15317 H 1442.77 -0.765609 -4.54395 0
M  V30 15318 H 1441.08 -0.535345 -4.12944 0
M  V30 15319 H 1443.68 2.13665 -4.90154 0
M  V30 15320 H 1444.02 2.59845 -3.25248 0
M  V30 15321 H 1444.56 1.00758 -3.84828 0
M  V30 15322 H 1441.29 -0.294364 -6.54839 0
M  V30 15323 H 1440.81 1.27425 -5.86108 0
M  V30 15324 H 1442.49 1.00573 -6.39135 0
M  V30 15325 N 1442.63 1.56409 0.193394 0
M  V30 15326 C 1443.56 1.97707 1.24234 0
M  V30 15327 C 1444.54 0.849286 1.47381 0
M  V30 15328 O 1445.72 1.11374 1.59089 0
M  V30 15329 C 1442.85 2.31804 2.5862 0
M  V30 15330 C 1441.81 3.47337 2.50082 0
M  V30 15331 C 1441.13 3.67114 3.88756 0
M  V30 15332 C 1442.43 4.81472 2.02441 0
M  V30 15333 H 1444.13 2.8558 0.89914 0
M  V30 15334 H 1441.67 1.37396 0.431078 0
M  V30 15335 H 1443.62 2.5929 3.32185 0
M  V30 15336 H 1442.35 1.40816 2.94684 0
M  V30 15337 H 1441.01 3.19944 1.78973 0
M  V30 15338 H 1440.66 2.73454 4.22175 0
M  V30 15339 H 1440.36 4.44838 3.83918 0
M  V30 15340 H 1441.88 3.96978 4.6394 0
M  V30 15341 H 1443.29 5.07978 2.65766 0
M  V30 15342 H 1441.69 5.62677 2.08601 0
M  V30 15343 H 1442.76 4.74941 0.977704 0
M  V30 15344 N 1444.1 -0.461169 1.50702 0
M  V30 15345 C 1445.33 -1.24019 1.66235 0
M  V30 15346 C 1445.75 -1.84827 0.349388 0
M  V30 15347 O 1445.11 -1.67743 -0.687888 0
M  V30 15348 C 1445.16 -2.31743 2.76274 0
M  V30 15349 O 1444.26 -3.3664 2.38217 0
M  V30 15350 H 1443.6 -0.364424 0.55506 0
M  V30 15351 H 1446.13 -0.547636 1.97135 0
M  V30 15352 H 1446.14 -2.76902 2.99649 0
M  V30 15353 H 1444.82 -1.86858 3.7156 0
M  V30 15354 H 1443.4 -2.97123 2.25327 0
M  V30 15355 N 1445.58 -1.40446 -0.715026 0
M  V30 15356 C 1446.81 -1.4207 -1.50412 0
M  V30 15357 C 1447.22 -0.0205547 -1.88789 0
M  V30 15358 O 1446.58 0.955635 -1.55479 0
M  V30 15359 C 1446.63 -2.3119 -2.77909 0
M  V30 15360 O 1446.35 -3.65754 -2.41154 0
M  V30 15361 C 1447.85 -2.41412 -3.718 0
M  V30 15362 H 1445.07 -0.484554 -0.464164 0
M  V30 15363 H 1447.62 -1.84504 -0.881964 0
M  V30 15364 H 1445.77 -1.92117 -3.36407 0
M  V30 15365 H 1446.19 -4.13091 -3.23197 0
M  V30 15366 H 1447.66 -3.07976 -4.58099 0
M  V30 15367 H 1448.14 -1.43934 -4.14945 0
M  V30 15368 H 1448.74 -2.81039 -3.19213 0
M  V30 15369 N 1447.06 0.947303 -1.25952 0
M  V30 15370 C 1448.28 1.73261 -1.13997 0
M  V30 15371 C 1448.71 1.85666 0.301639 0
M  V30 15372 O 1448.07 1.34244 1.21854 0
M  V30 15373 C 1448.12 3.12046 -1.8072 0
M  V30 15374 O 1447.22 3.97684 -1.09182 0
M  V30 15375 H 1446.56 0.53182 -0.397572 0
M  V30 15376 H 1449.09 1.18689 -1.66656 0
M  V30 15377 H 1449.1 3.62468 -1.87299 0
M  V30 15378 H 1447.78 3.02334 -2.856 0
M  V30 15379 H 1446.35 3.56141 -1.10536 0
M  V30 15380 N 1448.54 1.07657 1.15099 0
M  V30 15381 C 1449.77 0.822825 1.89835 0
M  V30 15382 C 1450.18 -0.624281 1.7818 0
M  V30 15383 O 1449.54 -1.42844 1.13587 0
M  V30 15384 C 1449.59 1.22598 3.40076 0
M  V30 15385 O 1449.31 2.61631 3.51398 0
M  V30 15386 C 1450.81 1.00199 4.31828 0
M  V30 15387 H 1448.03 0.297288 0.601549 0
M  V30 15388 H 1450.58 1.43384 1.45813 0
M  V30 15389 H 1448.73 0.65923 3.8175 0
M  V30 15390 H 1449.14 2.78163 4.44664 0
M  V30 15391 H 1450.62 1.33355 5.35649 0
M  V30 15392 H 1451.1 -0.0614865 4.39157 0
M  V30 15393 H 1451.7 1.5538 3.959 0
M  V30 15394 N 1450.02 -1.31994 0.861122 0
M  V30 15395 C 1451.26 -1.97025 0.467678 0
M  V30 15396 C 1451.59 -1.68116 -0.978129 0
M  V30 15397 O 1450.85 -0.965342 -1.70234 0
M  V30 15398 C 1451.15 -3.51232 0.661135 0
M  V30 15399 C 1450.81 -4.00142 2.07839 0
M  V30 15400 C 1449.47 -4.1321 2.466 0
M  V30 15401 C 1451.83 -4.25986 3.00309 0
M  V30 15402 C 1449.15 -4.49467 3.7709 0
M  V30 15403 C 1451.51 -4.63704 4.30304 0
M  V30 15404 C 1450.17 -4.74978 4.68991 0
M  V30 15405 H 1449.44 -0.720967 0.171136 0
M  V30 15406 H 1452.09 -1.57285 1.09242 0
M  V30 15407 H 1450.39 -3.91772 -0.0467947 0
M  V30 15408 H 1452.09 -3.99584 0.336669 0
M  V30 15409 H 1448.68 -3.90461 1.76743 0
M  V30 15410 H 1452.86 -4.15393 2.71592 0
M  V30 15411 H 1448.12 -4.56391 4.06838 0
M  V30 15412 H 1452.29 -4.82654 5.02014 0
M  V30 15413 H 1449.92 -5.02828 5.70147 0
M  V30 15414 N 1451.49 -0.619688 -1.44906 0
M  V30 15415 C 1452.91 -0.203309 -1.8559 0
M  V30 15416 C 1453.26 1.24265 -1.51831 0
M  V30 15417 O 1452.38 1.94392 -0.950819 0
M  V30 15418 C 1452.98 -0.362204 -3.36858 0
M  V30 15419 C 1451.54 -0.000423575 -3.764 0
M  V30 15420 C 1450.68 -0.680979 -2.68808 0
M  V30 15421 H 1453.63 -0.825595 -1.35535 0
M  V30 15422 H 1453.65 0.402149 -3.78369 0
M  V30 15423 H 1453.17 -1.41468 -3.61398 0
M  V30 15424 H 1451.27 1.05077 -3.57477 0
M  V30 15425 H 1451.38 -0.402508 -4.77406 0
M  V30 15426 H 1449.74 -0.117407 -2.54429 0
M  V30 15427 H 1450.53 -1.73583 -2.96182 0
M  V30 15428 N 1452.97 1.53444 -0.359552 0
M  V30 15429 C 1454.2 2.06058 0.235576 0
M  V30 15430 C 1454.62 1.23175 1.42161 0
M  V30 15431 O 1453.98 0.249338 1.79577 0
M  V30 15432 C 1454.03 3.55351 0.613025 0
M  V30 15433 O 1453.13 3.75229 1.71104 0
M  V30 15434 H 1452.47 0.663038 0.0357266 0
M  V30 15435 H 1455 1.97923 -0.518408 0
M  V30 15436 H 1455.01 3.9827 0.885722 0
M  V30 15437 H 1453.69 4.15122 -0.254243 0
M  V30 15438 H 1452.27 3.4421 1.43437 0
M  V30 15439 N 1454.45 0.0885642 1.57351 0
M  V30 15440 C 1455.73 -0.618587 1.85561 0
M  V30 15441 C 1456.11 -1.86753 0.984206 0
M  V30 15442 O 1455.46 -2.28434 0.0548839 0
M  V30 15443 C 1455.67 -0.940222 3.36096 0
M  V30 15444 C 1457.01 -1.30649 4.04 0
M  V30 15445 O 1458.04 -1.03144 3.4094 0
M  V30 15446 O 1456.9 -1.82135 5.15256 0
M  V30 15447 H 1453.99 -0.308881 0.767152 0
M  V30 15448 H 1456.54 0.120767 1.6927 0
M  V30 15449 H 1455.31 -0.0538991 3.91263 0
M  V30 15450 H 1454.93 -1.73577 3.5771 0
M  V30 15451 N 1455.93 -1.56509 -0.185096 0
M  V30 15452 C 1457.34 -1.71024 -0.748856 0
M  V30 15453 C 1457.69 -0.69681 -1.83409 0
M  V30 15454 O 1456.82 0.144711 -2.15916 0
M  V30 15455 C 1457.41 -3.1008 -1.36513 0
M  V30 15456 C 1455.97 -3.26325 -1.87587 0
M  V30 15457 C 1455.12 -2.66977 -0.749579 0
M  V30 15458 H 1458.07 -1.58649 0.0401175 0
M  V30 15459 H 1458.09 -3.07965 -2.23468 0
M  V30 15460 H 1457.6 -3.83816 -0.575051 0
M  V30 15461 H 1455.7 -2.57522 -2.69283 0
M  V30 15462 H 1455.81 -4.33931 -2.03078 0
M  V30 15463 H 1454.18 -2.26419 -1.16647 0
M  V30 15464 H 1454.96 -3.43288 0.0284301 0
M  V30 15465 N 1457.41 0.45317 -1.50944 0
M  V30 15466 C 1458.36 1.54689 -1.67498 0
M  V30 15467 C 1459.34 1.51949 -0.529193 0
M  V30 15468 O 1460.53 1.58669 -0.784415 0
M  V30 15469 C 1457.66 2.93006 -1.78892 0
M  V30 15470 C 1456.75 3.00562 -2.99204 0
M  V30 15471 N 1457.14 2.77893 -4.22621 0
M  V30 15472 C 1455.44 3.31712 -2.98132 0
M  V30 15473 C 1456.14 2.90882 -5.03749 0
M  V30 15474 N 1455.11 3.21866 -4.38068 0
M  V30 15475 H 1458.92 1.35889 -2.60598 0
M  V30 15476 H 1456.43 0.660219 -1.48374 0
M  V30 15477 H 1458.43 3.71669 -1.88858 0
M  V30 15478 H 1457.09 3.12838 -0.869626 0
M  V30 15479 H 1458.1 2.53126 -4.51827 0
M  V30 15480 H 1454.77 3.57419 -2.15773 0
M  V30 15481 H 1456.16 2.77444 -6.11943 0
M  V30 15482 N 1458.88 1.40823 0.707568 0
M  V30 15483 C 1460.11 1.42866 1.49656 0
M  V30 15484 C 1460.53 0.0305663 1.88775 0
M  V30 15485 O 1459.88 -0.947376 1.55984 0
M  V30 15486 C 1459.94 2.32661 2.76679 0
M  V30 15487 O 1459.66 3.67028 2.39211 0
M  V30 15488 C 1461.16 2.4338 3.70514 0
M  V30 15489 H 1458.38 0.487009 0.461588 0
M  V30 15490 H 1460.92 1.84969 0.872167 0
M  V30 15491 H 1459.08 1.93898 3.35384 0
M  V30 15492 H 1459.49 4.14799 3.21002 0
M  V30 15493 H 1460.96 3.10401 4.56459 0
M  V30 15494 H 1461.44 1.46132 4.14176 0
M  V30 15495 H 1462.05 2.82728 3.17718 0
M  V30 15496 N 1460.36 -0.94061 1.26453 0
M  V30 15497 C 1461.33 -2.02096 1.0812 0
M  V30 15498 C 1462.33 -1.60773 0.0293393 0
M  V30 15499 O 1463.52 -1.72051 0.272796 0
M  V30 15500 C 1460.65 -3.34749 0.644646 0
M  V30 15501 H 1461.84 -2.19792 2.04038 0
M  V30 15502 H 1459.39 -1.11965 1.09058 0
M  V30 15503 H 1460.13 -3.22752 -0.316509 0
M  V30 15504 H 1459.91 -3.66095 1.40416 0
M  V30 15505 H 1461.4 -4.14117 0.538233 0
M  V30 15506 N 1461.84 -1.08266 -1.14527 0
M  V30 15507 C 1462.8 -0.715117 -2.17758 0
M  V30 15508 C 1463.8 0.24935 -1.58855 0
M  V30 15509 O 1464.99 0.0290846 -1.74176 0
M  V30 15510 C 1462.13 -0.055575 -3.40855 0
M  V30 15511 H 1463.32 -1.62921 -2.51787 0
M  V30 15512 H 1460.87 -0.880346 -1.2915 0
M  V30 15513 H 1461.61 0.870312 -3.12404 0
M  V30 15514 H 1461.39 -0.749382 -3.84872 0
M  V30 15515 H 1462.88 0.186592 -4.17183 0
M  V30 15516 N 1463.32 1.31536 -0.86811 0
M  V30 15517 C 1464.27 2.26095 -0.294118 0
M  V30 15518 C 1465.25 1.50549 0.567774 0
M  V30 15519 O 1466.45 1.72067 0.414955 0
M  V30 15520 C 1463.57 3.39565 0.505011 0
M  V30 15521 C 1462.66 4.22483 -0.37002 0
M  V30 15522 N 1463.05 4.84191 -1.46262 0
M  V30 15523 C 1461.35 4.45705 -0.162128 0
M  V30 15524 C 1462.05 5.46161 -2.00206 0
M  V30 15525 N 1461.03 5.27843 -1.29933 0
M  V30 15526 H 1464.83 2.71341 -1.12921 0
M  V30 15527 H 1462.34 1.4578 -0.715669 0
M  V30 15528 H 1464.34 4.06332 0.932733 0
M  V30 15529 H 1463 2.95862 1.33774 0
M  V30 15530 H 1464.01 4.83901 -1.84554 0
M  V30 15531 H 1460.69 4.12646 0.634802 0
M  V30 15532 H 1462.08 6.05197 -2.91866 0
M  V30 15533 N 1464.8 0.627364 1.44575 0
M  V30 15534 C 1466.02 0.135576 2.06956 0
M  V30 15535 C 1466.45 -1.17922 1.46547 0
M  V30 15536 O 1465.81 -1.72255 0.565509 0
M  V30 15537 C 1465.85 0.030347 3.60587 0
M  V30 15538 O 1464.96 -1.01464 3.99724 0
M  V30 15539 H 1464.3 0.083058 0.658785 0
M  V30 15540 H 1466.83 0.862977 1.8551 0
M  V30 15541 H 1466.84 -0.161461 4.0768 0
M  V30 15542 H 1465.51 0.990285 4.03938 0
M  V30 15543 H 1464.09 -0.797701 3.64268 0
M  V30 15544 N 1466.28 -1.53251 0.367684 0
M  V30 15545 C 1467.21 -2.23396 -0.512539 0
M  V30 15546 C 1468.22 -1.2488 -1.04446 0
M  V30 15547 O 1469.41 -1.5109 -0.950477 0
M  V30 15548 C 1466.51 -2.91971 -1.72064 0
M  V30 15549 C 1465.68 -4.17011 -1.31986 0
M  V30 15550 C 1464.74 -4.68779 -2.39025 0
M  V30 15551 O 1463.77 -5.32405 -2.01328 0
M  V30 15552 N 1464.97 -4.46773 -3.7064 0
M  V30 15553 H 1467.73 -2.9957 0.0883152 0
M  V30 15554 H 1465.3 -1.60746 0.192966 0
M  V30 15555 H 1467.29 -3.23511 -2.43152 0
M  V30 15556 H 1465.86 -2.19237 -2.22831 0
M  V30 15557 H 1465.08 -3.91751 -0.438732 0
M  V30 15558 H 1466.37 -4.98298 -1.02842 0
M  V30 15559 H 1465.76 -3.95938 -4.04042 0
M  V30 15560 H 1464.32 -4.82857 -4.37827 0
M  V30 15561 N 1467.75 -0.0969077 -1.57302 0
M  V30 15562 C 1469 0.566373 -1.94418 0
M  V30 15563 C 1469.33 1.68078 -0.978769 0
M  V30 15564 O 1468.58 1.957 0.0013214 0
M  V30 15565 C 1468.88 1.15972 -3.38061 0
M  V30 15566 C 1468.55 0.16892 -4.50583 0
M  V30 15567 C 1467.21 -0.103587 -4.81088 0
M  V30 15568 C 1469.56 -0.507513 -5.18723 0
M  V30 15569 C 1466.89 -1.05919 -5.7706 0
M  V30 15570 C 1469.24 -1.4516 -6.1572 0
M  V30 15571 C 1467.91 -1.73232 -6.44629 0
M  V30 15572 H 1467.18 0.207251 -0.711427 0
M  V30 15573 H 1469.82 -0.173125 -1.90716 0
M  V30 15574 H 1468.13 1.97551 -3.3835 0
M  V30 15575 H 1469.83 1.68066 -3.64081 0
M  V30 15576 H 1466.42 0.391501 -4.26808 0
M  V30 15577 H 1470.6 -0.310127 -4.9533 0
M  V30 15578 H 1465.86 -1.28366 -5.97773 0
M  V30 15579 H 1470.03 -1.98155 -6.67613 0
M  V30 15580 H 1467.66 -2.47436 -7.18804 0
M  V30 15581 N 1469.23 1.56605 0.176793 0
M  V30 15582 C 1470.64 1.71418 0.739775 0
M  V30 15583 C 1470.99 0.706527 1.83037 0
M  V30 15584 O 1470.12 -0.133259 2.15989 0
M  V30 15585 C 1470.71 3.10799 1.34867 0
M  V30 15586 C 1469.27 3.27315 1.85854 0
M  V30 15587 C 1468.42 2.67371 0.73541 0
M  V30 15588 H 1471.37 1.58626 -0.0485305 0
M  V30 15589 H 1471.39 3.09146 2.21831 0
M  V30 15590 H 1470.9 3.84116 0.554688 0
M  V30 15591 H 1469 2.58947 2.67913 0
M  V30 15592 H 1469.12 4.35002 2.00774 0
M  V30 15593 H 1467.48 2.27035 1.15444 0
M  V30 15594 H 1468.26 3.43268 -0.0466351 0
M  V30 15595 N 1470.71 -0.445159 1.51182 0
M  V30 15596 C 1471.96 -1.19215 1.62698 0
M  V30 15597 C 1472.27 -1.92529 0.345249 0
M  V30 15598 O 1473.48 -2.69367 0.33967 0
M  V30 15599 C 1471.93 -2.16762 2.87302 0
M  V30 15600 C 1471.54 -1.49131 4.2245 0
M  V30 15601 C 1473.29 -2.91942 3.08172 0
M  V30 15602 C 1471.19 -2.45117 5.38212 0
M  V30 15603 H 1470.12 -0.448687 0.605967 0
M  V30 15604 H 1472.77 -0.459956 1.77642 0
M  V30 15605 H 1471.16 -2.93383 2.65975 0
M  V30 15606 H 1472.33 -0.781222 4.54129 0
M  V30 15607 H 1470.64 -0.861342 4.07394 0
M  V30 15608 H 1473.24 -3.6383 3.91832 0
M  V30 15609 H 1473.58 -3.52837 2.20934 0
M  V30 15610 H 1474.12 -2.22429 3.29803 0
M  V30 15611 H 1470.86 -1.88923 6.27685 0
M  V30 15612 H 1470.38 -3.14202 5.10918 0
M  V30 15613 H 1472.06 -3.06411 5.69843 0
M  V30 15614 N 1472.19 -1.41197 -0.700089 0
M  V30 15615 C 1473.6 -1.3593 -1.27985 0
M  V30 15616 C 1473.95 -0.0402059 -1.96159 0
M  V30 15617 O 1473.07 0.861611 -1.98508 0
M  V30 15618 C 1473.67 -2.46203 -2.32743 0
M  V30 15619 C 1472.23 -2.44348 -2.86306 0
M  V30 15620 C 1471.38 -2.26283 -1.60285 0
M  V30 15621 H 1474.33 -1.50778 -0.495152 0
M  V30 15622 H 1474.35 -2.15001 -3.13934 0
M  V30 15623 H 1473.86 -3.42195 -1.83096 0
M  V30 15624 H 1471.96 -1.521 -3.40142 0
M  V30 15625 H 1472.07 -3.40497 -3.37044 0
M  V30 15626 H 1470.44 -1.74078 -1.85928 0
M  V30 15627 H 1471.22 -3.24295 -1.1264 0
M  V30 15628 N 1473.67 0.933891 -1.2695 0
M  V30 15629 C 1475.08 1.20873 -1.0422 0
M  V30 15630 C 1475.28 2.00205 0.228112 0
M  V30 15631 O 1474.34 2.34539 0.935284 0
M  V30 15632 C 1475.65 1.9629 -2.27795 0
M  V30 15633 C 1477.2 2.09254 -2.3277 0
M  V30 15634 C 1477.67 2.88075 -3.56057 0
M  V30 15635 N 1479.16 2.95646 -3.56578 0
M  V30 15636 C 1479.9 3.57082 -4.48642 0
M  V30 15637 N 1479.4 4.1996 -5.51004 0
M  V30 15638 N 1481.19 3.54425 -4.36279 0
M  V30 15639 H 1473.34 0.403735 -2.08528 0
M  V30 15640 H 1475.6 0.241189 -0.916805 0
M  V30 15641 H 1475.31 1.45412 -3.20231 0
M  V30 15642 H 1475.18 2.9693 -2.32621 0
M  V30 15643 H 1477.57 2.5932 -1.40844 0
M  V30 15644 H 1477.65 1.07854 -2.31951 0
M  V30 15645 H 1477.29 2.38693 -4.48317 0
M  V30 15646 H 1477.22 3.89746 -3.54126 0
M  V30 15647 H 1479.72 2.50951 -2.82545 0
M  V30 15648 H 1480.03 4.64758 -6.1743 0
M  V30 15649 H 1478.37 4.18525 -5.54853 0
M  V30 15650 H 1481.56 3.045 -3.55524 0
M  V30 15651 H 1481.74 4.02016 -5.0822 0
M  V30 15652 N 1475.14 1.08871 1.13951 0
M  V30 15653 C 1476.09 0.71755 2.21255 0
M  V30 15654 C 1477.09 -0.278901 1.67088 0
M  V30 15655 O 1478.29 -0.140964 1.79447 0
M  V30 15656 H 1474.67 0.214032 0.720898 0
M  V30 15657 H 1476.64 1.63182 2.49828 0
M  V30 15658 C 1475.39 0.148098 3.47384 0
M  V30 15659 H 1474.71 0.906028 3.89398 0
M  V30 15660 H 1476.15 -0.0737451 4.23936 0
M  V30 15661 C 1474.61 -1.11524 3.17906 0
M  V30 15662 O 1475.14 -2.19937 3.3614 0
M  V30 15663 N 1473.34 -1.0275 2.71829 0
M  V30 15664 H 1472.89 -0.145193 2.5719 0
M  V30 15665 H 1472.85 -1.87353 2.5248 0
M  V30 15666 N 1476.62 -1.31073 0.875073 0
M  V30 15667 C 1477.85 -2.01223 0.502383 0
M  V30 15668 C 1478.27 -1.65223 -0.899053 0
M  V30 15669 O 1477.63 -0.863559 -1.59412 0
M  V30 15670 C 1477.68 -3.54269 0.672747 0
M  V30 15671 O 1476.78 -4.11409 -0.285718 0
M  V30 15672 H 1476.12 -0.633422 0.199181 0
M  V30 15673 H 1478.65 -1.67152 1.17989 0
M  V30 15674 H 1478.66 -4.04027 0.567973 0
M  V30 15675 H 1477.34 -3.79811 1.69459 0
M  V30 15676 H 1475.91 -3.72654 -0.135472 0
M  V30 15677 N 1478.1 -0.635022 -1.4424 0
M  V30 15678 C 1479.33 -0.14826 -2.06368 0
M  V30 15679 C 1479.74 1.17875 -1.47482 0
M  V30 15680 O 1479.1 1.72384 -0.599168 0
M  V30 15681 C 1479.15 -0.031519 -3.61486 0
M  V30 15682 O 1478.87 -1.30605 -4.18179 0
M  V30 15683 C 1480.37 0.483479 -4.40656 0
M  V30 15684 H 1477.59 -0.081472 -0.666036 0
M  V30 15685 H 1480.14 -0.870526 -1.85046 0
M  V30 15686 H 1478.29 0.641208 -3.82057 0
M  V30 15687 H 1478.71 -1.15341 -5.11661 0
M  V30 15688 H 1480.18 0.514164 -5.496 0
M  V30 15689 H 1480.66 1.51129 -4.12379 0
M  V30 15690 H 1481.26 -0.156131 -4.25013 0
M  V30 15691 N 1479.58 1.53054 -0.375806 0
M  V30 15692 C 1480.82 2.017 0.210985 0
M  V30 15693 C 1481.16 1.26228 1.47581 0
M  V30 15694 O 1480.43 0.358869 1.91161 0
M  V30 15695 C 1480.72 3.56715 0.492596 0
M  V30 15696 C 1480.57 4.42869 -0.786573 0
M  V30 15697 C 1481.89 4.20803 1.28891 0
M  V30 15698 H 1479.01 0.733153 0.0752084 0
M  V30 15699 H 1481.65 1.83229 -0.502715 0
M  V30 15700 H 1479.8 3.72585 1.10059 0
M  V30 15701 H 1481.47 4.38777 -1.42381 0
M  V30 15702 H 1479.71 4.10425 -1.40478 0
M  V30 15703 H 1480.38 5.49309 -0.544354 0
M  V30 15704 H 1482.86 4.08828 0.774498 0
M  V30 15705 H 1481.74 5.29273 1.45469 0
M  V30 15706 H 1482 3.77541 2.30033 0
M  V30 15707 N 1481.06 0.105248 1.57248 0
M  V30 15708 C 1482 -0.867443 2.1582 0
M  V30 15709 C 1483 -1.28508 1.10373 0
M  V30 15710 O 1484.2 -1.25842 1.287 0
M  V30 15711 H 1480.58 -0.2978 0.690521 0
M  V30 15712 H 1482.55 -0.348831 2.96354 0
M  V30 15713 C 1481.3 -2.11299 2.7613 0
M  V30 15714 H 1480.62 -1.80054 3.5696 0
M  V30 15715 H 1482.06 -2.77395 3.20668 0
M  V30 15716 C 1480.52 -2.89372 1.72527 0
M  V30 15717 O 1481.05 -3.84274 1.17032 0
M  V30 15718 N 1479.26 -2.53103 1.42784 0
M  V30 15719 H 1478.8 -1.75998 1.88102 0
M  V30 15720 H 1478.76 -3.05639 0.737035 0
M  V30 15721 N 1482.53 -1.56697 -0.168486 0
M  V30 15722 C 1483.78 -1.81346 -0.882973 0
M  V30 15723 C 1484.1 -0.682975 -1.83289 0
M  V30 15724 O 1485.3 -0.814479 -2.58995 0
M  V30 15725 C 1483.76 -3.21345 -1.62066 0
M  V30 15726 C 1483.37 -4.4227 -0.714241 0
M  V30 15727 C 1485.11 -3.55285 -2.32321 0
M  V30 15728 C 1483.02 -5.7329 -1.45233 0
M  V30 15729 H 1481.95 -0.676254 -0.333461 0
M  V30 15730 H 1484.6 -1.82996 -0.135871 0
M  V30 15731 H 1482.98 -3.1402 -2.41262 0
M  V30 15732 H 1484.15 -4.60782 0.0409556 0
M  V30 15733 H 1482.47 -4.16224 -0.121205 0
M  V30 15734 H 1485.07 -4.50421 -2.88141 0
M  V30 15735 H 1485.41 -2.80301 -3.07793 0
M  V30 15736 H 1485.94 -3.64176 -1.60066 0
M  V30 15737 H 1482.68 -6.51311 -0.739869 0
M  V30 15738 H 1482.2 -5.58751 -2.18077 0
M  V30 15739 H 1483.88 -6.15343 -1.99905 0
M  V30 15740 N 1484.01 0.437135 -1.51416 0
M  V30 15741 C 1485.42 1.01699 -1.5657 0
M  V30 15742 C 1485.77 1.92299 -0.389291 0
M  V30 15743 O 1484.9 2.10689 0.49389 0
M  V30 15744 C 1485.49 1.85119 -2.83754 0
M  V30 15745 C 1484.05 2.38154 -2.91478 0
M  V30 15746 C 1483.2 1.17374 -2.51234 0
M  V30 15747 H 1486.15 0.218399 -1.5719 0
M  V30 15748 H 1486.17 2.70572 -2.67528 0
M  V30 15749 H 1485.68 1.19153 -3.69357 0
M  V30 15750 H 1483.79 3.07575 -2.10306 0
M  V30 15751 H 1483.9 2.70937 -3.95133 0
M  V30 15752 H 1482.26 1.51913 -2.04437 0
M  V30 15753 H 1483.05 0.530176 -3.39181 0
M  V30 15754 N 1485.49 1.41566 0.692592 0
M  V30 15755 C 1486.42 1.46423 1.81886 0
M  V30 15756 C 1487.4 0.32258 1.67013 0
M  V30 15757 O 1488.59 0.534437 1.86701 0
M  V30 15758 C 1485.72 1.3486 3.20047 0
M  V30 15759 C 1484.67 2.46867 3.49629 0
M  V30 15760 C 1484 2.20369 4.87177 0
M  V30 15761 C 1485.3 3.89205 3.48306 0
M  V30 15762 H 1486.99 2.40683 1.78079 0
M  V30 15763 H 1484.54 1.15845 0.855334 0
M  V30 15764 H 1486.49 1.36869 3.98553 0
M  V30 15765 H 1485.21 0.370859 3.24488 0
M  V30 15766 H 1483.87 2.44146 2.73475 0
M  V30 15767 H 1483.52 1.20931 4.88247 0
M  V30 15768 H 1483.22 2.95426 5.07934 0
M  V30 15769 H 1484.74 2.24099 5.6799 0
M  V30 15770 H 1486.16 3.93626 4.16811 0
M  V30 15771 H 1484.56 4.63969 3.80595 0
M  V30 15772 H 1485.63 4.17144 2.47222 0
M  V30 15773 N 1486.97 -0.927146 1.27443 0
M  V30 15774 C 1488.22 -1.67489 1.13814 0
M  V30 15775 C 1488.54 -1.91917 -0.315914 0
M  V30 15776 O 1487.8 -1.5079 -1.24743 0
M  V30 15777 C 1488.1 -3.0472 1.86764 0
M  V30 15778 C 1487.76 -3 3.36617 0
M  V30 15779 C 1486.43 -2.9842 3.77491 0
M  V30 15780 C 1488.78 -2.91249 4.32231 0
M  V30 15781 C 1486.11 -2.85872 5.12342 0
M  V30 15782 C 1488.46 -2.80242 5.67139 0
M  V30 15783 C 1487.12 -2.77013 6.07306 0
M  V30 15784 H 1486.39 -0.612887 0.416474 0
M  V30 15785 H 1489.04 -1.0812 1.58058 0
M  V30 15786 H 1487.34 -3.67797 1.35029 0
M  V30 15787 H 1489.04 -3.61453 1.73646 0
M  V30 15788 H 1485.63 -3.02017 3.04111 0
M  V30 15789 H 1489.81 -2.91567 4.01625 0
M  V30 15790 H 1485.07 -2.81758 5.42607 0
M  V30 15791 H 1489.24 -2.72437 6.40899 0
M  V30 15792 H 1486.87 -2.67047 7.11751 0
M  V30 15793 N 1488.45 -1.09474 -1.13372 0
M  V30 15794 C 1489.86 -0.824541 -1.36651 0
M  V30 15795 C 1490.06 0.560903 -1.93536 0
M  V30 15796 O 1489.12 1.31567 -2.15514 0
M  V30 15797 C 1490.43 -1.91618 -2.31739 0
M  V30 15798 C 1491.98 -1.94346 -2.45354 0
M  V30 15799 C 1492.45 -3.02655 -3.4375 0
M  V30 15800 N 1493.95 -3.01898 -3.513 0
M  V30 15801 C 1494.68 -3.82344 -4.27318 0
M  V30 15802 N 1494.18 -4.727 -5.06484 0
M  V30 15803 N 1495.97 -3.70602 -4.22623 0
M  V30 15804 H 1488.12 -1.98793 -0.748005 0
M  V30 15805 H 1490.38 -0.863318 -0.391646 0
M  V30 15806 H 1490.09 -2.91282 -1.97098 0
M  V30 15807 H 1489.96 -1.79484 -3.31761 0
M  V30 15808 H 1492.35 -0.953206 -2.79281 0
M  V30 15809 H 1492.43 -2.10558 -1.45255 0
M  V30 15810 H 1492.08 -4.01894 -3.10553 0
M  V30 15811 H 1492.01 -2.83687 -4.43655 0
M  V30 15812 H 1494.5 -2.36417 -2.94814 0
M  V30 15813 H 1494.81 -5.30665 -5.61796 0
M  V30 15814 H 1493.15 -4.76736 -5.05715 0
M  V30 15815 H 1496.35 -2.99372 -3.59853 0
M  V30 15816 H 1496.52 -4.33535 -4.81614 0
M  V30 15817 N 1489.92 1.30607 -0.882012 0
M  V30 15818 C 1491.34 1.48859 -0.575599 0
M  V30 15819 C 1491.54 1.80908 0.887388 0
M  V30 15820 O 1490.6 1.89492 1.6688 0
M  V30 15821 C 1491.91 2.61405 -1.48619 0
M  V30 15822 C 1493.46 2.75286 -1.48951 0
M  V30 15823 C 1493.93 3.90942 -2.38596 0
M  V30 15824 N 1495.42 3.98248 -2.36543 0
M  V30 15825 C 1496.16 4.87041 -3.0262 0
M  V30 15826 N 1495.65 5.80651 -3.77911 0
M  V30 15827 N 1497.45 4.80385 -2.91867 0
M  V30 15828 H 1489.6 1.08076 -1.82848 0
M  V30 15829 H 1491.86 0.535148 -0.782509 0
M  V30 15830 H 1491.57 2.44535 -2.52775 0
M  V30 15831 H 1491.44 3.57818 -1.19358 0
M  V30 15832 H 1493.83 2.91564 -0.455477 0
M  V30 15833 H 1493.91 1.79504 -1.82242 0
M  V30 15834 H 1493.55 3.75422 -3.42083 0
M  V30 15835 H 1493.48 4.86057 -2.02623 0
M  V30 15836 H 1495.97 3.31282 -1.81827 0
M  V30 15837 H 1496.29 6.45159 -4.25428 0
M  V30 15838 H 1494.63 5.80592 -3.82019 0
M  V30 15839 H 1497.82 4.06234 -2.32576 0
M  V30 15840 H 1498 5.49377 -3.43641 0
M  V30 15841 N 1491.4 0.642663 1.43901 0
M  V30 15842 C 1492.65 0.151778 2.0193 0
M  V30 15843 C 1492.98 -1.23052 1.50627 0
M  V30 15844 O 1492.23 -1.83305 0.685404 0
M  V30 15845 C 1492.53 0.100139 3.5726 0
M  V30 15846 C 1492.2 1.42276 4.27865 0
M  V30 15847 C 1490.86 1.78497 4.46869 0
M  V30 15848 C 1493.21 2.29526 4.67939 0
M  V30 15849 C 1490.54 3.01655 5.03211 0
M  V30 15850 C 1492.89 3.51966 5.25645 0
M  V30 15851 C 1491.56 3.88396 5.42867 0
M  V30 15852 H 1490.83 0.0555394 0.738916 0
M  V30 15853 H 1493.47 0.831273 1.72517 0
M  V30 15854 H 1491.78 -0.66277 3.86154 0
M  V30 15855 H 1493.47 -0.29638 3.99903 0
M  V30 15856 H 1490.06 1.13091 4.13411 0
M  V30 15857 H 1494.25 2.02835 4.52959 0
M  V30 15858 H 1489.5 3.29943 5.14731 0
M  V30 15859 H 1493.68 4.19799 5.55645 0
M  V30 15860 H 1491.31 4.83909 5.8629 0
M  V30 15861 N 1492.88 -1.52852 0.383918 0
M  V30 15862 C 1494.13 -2.01112 -0.199594 0
M  V30 15863 C 1494.45 -1.27237 -1.47769 0
M  V30 15864 O 1493.72 -0.390873 -1.91961 0
M  V30 15865 H 1492.3 -0.743047 -0.0767466 0
M  V30 15866 H 1494.96 -1.8799 0.51437 0
M  V30 15867 H 1494.06 -3.09347 -0.413627 0
M  V30 15868 N 1494.36 -0.113586 -1.5719 0
M  V30 15869 C 1495.78 0.243023 -1.57739 0
M  V30 15870 C 1495.98 1.67105 -1.12597 0
M  V30 15871 O 1495.03 2.39126 -0.810874 0
M  V30 15872 C 1496.34 0.014629 -3.00696 0
M  V30 15873 C 1497.89 0.0809485 -3.12895 0
M  V30 15874 C 1498.37 -0.119685 -4.57844 0
M  V30 15875 N 1499.86 -0.0654711 -4.63154 0
M  V30 15876 C 1500.59 -0.195692 -5.73066 0
M  V30 15877 N 1500.09 -0.381782 -6.91747 0
M  V30 15878 N 1501.88 -0.13565 -5.61936 0
M  V30 15879 H 1494.03 -1.04639 -1.84836 0
M  V30 15880 H 1496.3 -0.411609 -0.85398 0
M  V30 15881 H 1496 -0.972399 -3.3799 0
M  V30 15882 H 1495.88 0.748882 -3.69691 0
M  V30 15883 H 1498.26 1.0585 -2.75463 0
M  V30 15884 H 1498.34 -0.685097 -2.46455 0
M  V30 15885 H 1497.99 -1.09418 -4.95974 0
M  V30 15886 H 1497.92 0.666281 -5.22368 0
M  V30 15887 H 1500.41 0.0750649 -3.77825 0
M  V30 15888 H 1500.72 -0.472157 -7.71356 0
M  V30 15889 H 1499.07 -0.417686 -6.93744 0
M  V30 15890 H 1502.26 0.0087301 -4.68099 0
M  V30 15891 H 1502.43 -0.240579 -6.47553 0
M  V30 15892 N 1495.84 1.56784 0.160173 0
M  V30 15893 C 1496.77 1.93848 1.22293 0
M  V30 15894 C 1497.78 0.832803 1.39886 0
M  V30 15895 O 1498.97 1.11124 1.39692 0
M  V30 15896 C 1496.07 2.18581 2.58989 0
M  V30 15897 C 1495.24 3.49839 2.62548 0
M  V30 15898 C 1494.3 3.63268 3.80687 0
M  V30 15899 O 1493.33 4.35785 3.6617 0
M  V30 15900 N 1494.53 2.98948 4.97605 0
M  V30 15901 H 1497.3 2.85614 0.908004 0
M  V30 15902 H 1494.86 1.58075 0.349851 0
M  V30 15903 H 1496.85 2.24819 3.36509 0
M  V30 15904 H 1495.42 1.33145 2.82827 0
M  V30 15905 H 1494.64 3.5516 1.7104 0
M  V30 15906 H 1495.93 4.3619 2.61945 0
M  V30 15907 H 1495.33 2.39924 5.12302 0
M  V30 15908 H 1493.88 3.10765 5.72947 0
M  V30 15909 N 1497.32 -0.429099 1.51646 0
M  V30 15910 C 1498.73 -0.766217 1.40005 0
M  V30 15911 C 1498.93 -1.95481 0.488837 0
M  V30 15912 O 1497.99 -2.52445 -0.0529101 0
M  V30 15913 C 1499.3 -1.03886 2.82185 0
M  V30 15914 C 1500.85 -1.1428 2.91392 0
M  V30 15915 C 1501.32 -1.44833 4.34497 0
M  V30 15916 N 1502.81 -1.5174 4.37641 0
M  V30 15917 C 1503.55 -1.76968 5.45408 0
M  V30 15918 N 1503.05 -1.99934 6.63324 0
M  V30 15919 N 1504.84 -1.78819 5.32898 0
M  V30 15920 H 1496.99 0.35358 2.09436 0
M  V30 15921 H 1499.25 0.0958189 0.943145 0
M  V30 15922 H 1498.96 -0.238103 3.50893 0
M  V30 15923 H 1498.83 -1.96434 3.22015 0
M  V30 15924 H 1501.22 -1.93418 2.22876 0
M  V30 15925 H 1501.3 -0.19614 2.55047 0
M  V30 15926 H 1500.94 -0.662201 5.03565 0
M  V30 15927 H 1500.87 -2.40718 4.68361 0
M  V30 15928 H 1503.37 -1.35862 3.52633 0
M  V30 15929 H 1503.68 -2.18578 7.41245 0
M  V30 15930 H 1502.02 -1.97239 6.66425 0
M  V30 15931 H 1505.21 -1.60402 4.3976 0
M  V30 15932 H 1505.39 -1.98142 6.16963 0
M  V30 15933 N 1498.79 -1.41931 -0.685074 0
M  V30 15934 C 1499.74 -1.44604 -1.79884 0
M  V30 15935 C 1500.71 -0.299166 -1.63384 0
M  V30 15936 O 1501.9 -0.501749 -1.84085 0
M  V30 15937 C 1499.04 -1.3442 -3.17845 0
M  V30 15938 C 1498.15 -2.59061 -3.45704 0
M  V30 15939 C 1497.28 -2.41094 -4.73336 0
M  V30 15940 C 1496.32 -3.61159 -4.94197 0
M  V30 15941 N 1495.46 -3.42198 -6.13062 0
M  V30 15942 H 1500.3 -2.39788 -1.76934 0
M  V30 15943 H 1497.84 -1.1906 -0.863891 0
M  V30 15944 H 1499.79 -1.26515 -3.97555 0
M  V30 15945 H 1498.42 -0.42838 -3.19945 0
M  V30 15946 H 1497.48 -2.77374 -2.60322 0
M  V30 15947 H 1498.79 -3.48341 -3.57016 0
M  V30 15948 H 1497.94 -2.30717 -5.61119 0
M  V30 15949 H 1496.68 -1.49288 -4.64289 0
M  V30 15950 H 1495.69 -3.7198 -4.04859 0
M  V30 15951 H 1496.91 -4.53933 -5.05096 0
M  V30 15952 H 1494.86 -2.531 -6.05208 0
M  V30 15953 H 1494.77 -4.25059 -6.25189 0
M  V30 15954 H 1496.04 -3.35612 -7.03551 0
M  V30 15955 N 1500.27 0.920374 -1.27933 0
M  V30 15956 C 1501.52 1.66338 -1.14081 0
M  V30 15957 C 1501.83 1.93107 0.311324 0
M  V30 15958 O 1503.04 2.65431 0.570862 0
M  V30 15959 C 1501.5 2.99624 -1.99383 0
M  V30 15960 C 1501.1 2.80527 -3.49297 0
M  V30 15961 C 1502.85 3.77474 -1.94199 0
M  V30 15962 C 1500.75 4.09413 -4.26773 0
M  V30 15963 H 1499.68 0.623935 -0.423346 0
M  V30 15964 H 1502.34 1.0219 -1.52412 0
M  V30 15965 H 1500.72 3.6487 -1.53902 0
M  V30 15966 H 1501.89 2.24002 -4.02691 0
M  V30 15967 H 1500.21 2.16097 -3.55937 0
M  V30 15968 H 1502.8 4.72997 -2.49356 0
M  V30 15969 H 1503.15 4.06069 -0.917249 0
M  V30 15970 H 1503.68 3.19036 -2.37614 0
M  V30 15971 H 1500.42 3.85994 -5.29801 0
M  V30 15972 H 1499.94 4.65574 -3.78155 0
M  V30 15973 H 1501.62 4.77721 -4.36339 0
M  V30 15974 N 1501.75 1.10074 1.1279 0
M  V30 15975 C 1503 0.839212 1.83852 0
M  V30 15976 C 1503.32 -0.637023 1.84301 0
M  V30 15977 O 1502.59 -1.46239 1.30349 0
M  V30 15978 H 1501.17 0.307468 0.680788 0
M  V30 15979 H 1503.83 1.39025 1.36595 0
M  V30 15980 H 1502.93 1.19872 2.88162 0
M  V30 15981 N 1503.23 -1.30138 0.888926 0
M  V30 15982 C 1504.48 -1.95602 0.508359 0
M  V30 15983 C 1504.8 -1.70495 -0.946377 0
M  V30 15984 O 1504.07 -1.03073 -1.66592 0
M  V30 15985 H 1502.65 -0.723728 0.185006 0
M  V30 15986 H 1505.31 -1.58594 1.13286 0
M  V30 15987 H 1504.4 -3.04559 0.681915 0
M  V30 15988 N 1504.71 -0.650285 -1.43559 0
M  V30 15989 C 1506.12 -0.317586 -1.56408 0
M  V30 15990 C 1506.32 1.17844 -1.63447 0
M  V30 15991 O 1505.38 1.96318 -1.58794 0
M  V30 15992 C 1506.69 -1.02636 -2.82642 0
M  V30 15993 C 1508.24 -1.00633 -2.96381 0
M  V30 15994 C 1508.71 -1.69595 -4.25443 0
M  V30 15995 N 1510.2 -1.66345 -4.323 0
M  V30 15996 C 1510.94 -2.16581 -5.30924 0
M  V30 15997 N 1510.44 -2.75092 -6.35843 0
M  V30 15998 N 1512.23 -2.07098 -5.22558 0
M  V30 15999 H 1504.38 -1.62114 -1.37233 0
M  V30 16000 H 1506.64 -0.681588 -0.658895 0
M  V30 16001 H 1506.35 -2.08146 -2.83493 0
M  V30 16002 H 1506.22 -0.576081 -3.72775 0
M  V30 16003 H 1508.61 0.0403519 -2.95072 0
M  V30 16004 H 1508.69 -1.49528 -2.07545 0
M  V30 16005 H 1508.33 -2.74218 -4.27512 0
M  V30 16006 H 1508.26 -1.18168 -5.1317 0
M  V30 16007 H 1510.76 -1.23644 -3.571 0
M  V30 16008 H 1511.07 -3.11108 -7.07412 0
M  V30 16009 H 1509.41 -2.79152 -6.36474 0
M  V30 16010 H 1512.6 -1.61093 -4.39507 0
M  V30 16011 H 1512.78 -2.46557 -5.99261 0
M  V30 16012 N 1506.18 1.52647 -0.392018 0
M  V30 16013 C 1507.43 2.01215 0.188926 0
M  V30 16014 C 1507.75 1.28019 1.47092 0
M  V30 16015 O 1507.02 0.401048 1.91751 0
M  V30 16016 H 1505.6 0.743444 0.0728049 0
M  V30 16017 H 1508.26 1.87715 -0.524332 0
M  V30 16018 H 1507.36 3.09562 0.397216 0
M  V30 16019 N 1507.66 0.121921 1.57128 0
M  V30 16020 C 1509.08 -0.234655 1.57866 0
M  V30 16021 C 1509.28 -1.66506 1.13482 0
M  V30 16022 O 1508.33 -2.38692 0.823544 0
M  V30 16023 C 1509.65 0.00131784 3.007 0
M  V30 16024 C 1511.2 -0.0643537 3.12934 0
M  V30 16025 C 1511.67 0.143964 4.57774 0
M  V30 16026 N 1513.16 0.0900323 4.63112 0
M  V30 16027 C 1513.9 0.22608 5.72954 0
M  V30 16028 N 1513.39 0.418461 6.91535 0
M  V30 16029 N 1515.19 0.165449 5.61856 0
M  V30 16030 H 1507.34 1.05618 1.84279 0
M  V30 16031 H 1509.6 0.416132 0.851785 0
M  V30 16032 H 1509.31 0.99031 3.3747 0
M  V30 16033 H 1509.18 -0.729266 3.70083 0
M  V30 16034 H 1511.57 -1.04387 2.7602 0
M  V30 16035 H 1511.65 0.698157 2.46088 0
M  V30 16036 H 1511.29 1.12047 4.95387 0
M  V30 16037 H 1511.22 -0.638569 5.22714 0
M  V30 16038 H 1513.71 -0.0550269 3.7786 0
M  V30 16039 H 1514.03 0.513057 7.71095 0
M  V30 16040 H 1512.37 0.454471 6.93512 0
M  V30 16041 H 1515.56 0.0160945 4.68097 0
M  V30 16042 H 1515.73 0.274917 6.47417 0
M  V30 16043 N 1509.14 -1.56867 -0.151857 0
M  V30 16044 C 1510.39 -1.82273 -0.863689 0
M  V30 16045 C 1510.7 -0.702377 -1.82554 0
M  V30 16046 O 1511.91 -0.841903 -2.58117 0
M  V30 16047 C 1510.36 -3.23046 -1.58649 0
M  V30 16048 C 1509.97 -4.43003 -0.667292 0
M  V30 16049 C 1511.72 -3.57729 -2.28539 0
M  V30 16050 C 1509.62 -5.74798 -1.39144 0
M  V30 16051 H 1508.55 -0.679753 -0.326269 0
M  V30 16052 H 1511.2 -1.8313 -0.116454 0
M  V30 16053 H 1509.59 -3.16561 -2.37918 0
M  V30 16054 H 1510.76 -4.60712 0.0898254 0
M  V30 16055 H 1509.08 -4.16329 -0.0770521 0
M  V30 16056 H 1511.67 -4.53451 -2.83348 0
M  V30 16057 H 1512.02 -2.8355 -3.04803 0
M  V30 16058 H 1512.55 -3.65853 -1.56194 0
M  V30 16059 H 1509.29 -6.52059 -0.670747 0
M  V30 16060 H 1508.81 -5.61032 -2.12139 0
M  V30 16061 H 1510.49 -6.17429 -1.93367 0
M  V30 16062 N 1510.62 0.421051 -1.51871 0
M  V30 16063 C 1511.87 1.16611 -1.64574 0
M  V30 16064 C 1512.18 1.91955 -0.375835 0
M  V30 16065 O 1513.39 2.68792 -0.382481 0
M  V30 16066 C 1511.84 2.12164 -2.90714 0
M  V30 16067 C 1511.45 1.42392 -4.24769 0
M  V30 16068 C 1513.19 2.87002 -3.12778 0
M  V30 16069 C 1511.1 2.36523 -5.42043 0
M  V30 16070 H 1510.03 0.438989 -0.613029 0
M  V30 16071 H 1512.68 0.431636 -1.78351 0
M  V30 16072 H 1511.06 2.89114 -2.70608 0
M  V30 16073 H 1512.24 0.708875 -4.55315 0
M  V30 16074 H 1510.55 0.796421 -4.08713 0
M  V30 16075 H 1513.15 3.5755 -3.9757 0
M  V30 16076 H 1513.49 3.49277 -2.2652 0
M  V30 16077 H 1514.03 2.17154 -3.333 0
M  V30 16078 H 1510.77 1.78913 -6.30611 0
M  V30 16079 H 1510.29 3.06034 -5.15852 0
M  V30 16080 H 1511.96 2.97306 -5.74646 0
M  V30 16081 N 1512.1 1.42293 0.677538 0
M  V30 16082 C 1513.32 1.46214 1.47092 0
M  V30 16083 C 1513.75 0.0740989 1.87954 0
M  V30 16084 O 1513.1 -0.926831 1.55819 0
M  V30 16085 C 1513.15 2.39236 2.69812 0
M  V30 16086 O 1512.26 1.86183 3.6798 0
M  V30 16087 H 1511.6 0.495507 0.442006 0
M  V30 16088 H 1514.13 1.86952 0.831274 0
M  V30 16089 H 1514.14 2.55723 3.17915 0
M  V30 16090 H 1512.81 3.40081 2.39411 0
M  V30 16091 H 1511.39 1.79237 3.26999 0
M  V30 16092 N 1513.57 -0.913576 1.28419 0
M  V30 16093 C 1514.99 -1.47782 1.14094 0
M  V30 16094 C 1515.34 -1.94347 -0.269004 0
M  V30 16095 O 1514.46 -1.82474 -1.16328 0
M  V30 16096 C 1515.06 -2.6859 2.06507 0
M  V30 16097 C 1513.62 -3.21193 1.96245 0
M  V30 16098 C 1512.76 -1.939 1.98238 0
M  V30 16099 H 1515.71 -0.726271 1.41106 0
M  V30 16100 H 1515.73 -3.43858 1.62916 0
M  V30 16101 H 1515.25 -2.34668 3.09116 0
M  V30 16102 H 1513.35 -3.5984 0.966737 0
M  V30 16103 H 1513.46 -3.8643 2.83211 0
M  V30 16104 H 1511.82 -2.11006 1.42648 0
M  V30 16105 H 1512.61 -1.62273 3.02527 0
M  V30 16106 N 1515.05 -1.1067 -1.12204 0
M  V30 16107 C 1516.28 -0.871601 -1.87314 0
M  V30 16108 C 1516.69 0.581644 -1.80038 0
M  V30 16109 O 1516.03 1.4129 -1.17401 0
M  V30 16110 C 1516.1 -1.24458 -3.37269 0
M  V30 16111 C 1515.76 -2.70536 -3.6832 0
M  V30 16112 C 1516.76 -3.68769 -3.66477 0
M  V30 16113 C 1514.44 -3.06982 -3.97577 0
M  V30 16114 C 1516.44 -5.01471 -3.93454 0
M  V30 16115 C 1514.12 -4.39871 -4.24213 0
M  V30 16116 C 1515.12 -5.36924 -4.22139 0
M  V30 16117 O 1514.81 -6.6742 -4.48113 0
M  V30 16118 H 1514.54 -0.312472 -0.599447 0
M  V30 16119 H 1517.09 -1.47562 -1.4288 0
M  V30 16120 H 1515.32 -0.583674 -3.8227 0
M  V30 16121 H 1517.01 -0.986569 -3.93728 0
M  V30 16122 H 1517.78 -3.41957 -3.43934 0
M  V30 16123 H 1513.66 -2.32062 -3.98332 0
M  V30 16124 H 1517.2 -5.77215 -3.9175 0
M  V30 16125 H 1513.1 -4.6642 -4.46231 0
M  V30 16126 H 1513.87 -6.73088 -4.6572 0
M  V30 16127 N 1516.53 1.29665 -0.895815 0
M  V30 16128 C 1517.95 1.4824 -0.591355 0
M  V30 16129 C 1518.15 1.81839 0.86815 0
M  V30 16130 O 1517.2 1.91251 1.64861 0
M  V30 16131 C 1518.52 2.59814 -1.51384 0
M  V30 16132 C 1520.06 2.73691 -1.51862 0
M  V30 16133 C 1520.54 3.8839 -2.42729 0
M  V30 16134 N 1522.03 3.95717 -2.40754 0
M  V30 16135 C 1522.76 4.83804 -3.07769 0
M  V30 16136 N 1522.26 5.7661 -3.84048 0
M  V30 16137 N 1524.05 4.77263 -2.96946 0
M  V30 16138 H 1516.2 1.06131 -1.83984 0
M  V30 16139 H 1518.47 0.526819 -0.788141 0
M  V30 16140 H 1518.17 2.4184 -2.55355 0
M  V30 16141 H 1518.05 3.56532 -1.23147 0
M  V30 16142 H 1520.43 2.91064 -0.486375 0
M  V30 16143 H 1520.52 1.77561 -1.84135 0
M  V30 16144 H 1520.16 3.71773 -3.46045 0
M  V30 16145 H 1520.09 4.8388 -2.07767 0
M  V30 16146 H 1522.58 3.29334 -1.8533 0
M  V30 16147 H 1522.89 6.40611 -4.32247 0
M  V30 16148 H 1521.24 5.76507 -3.88155 0
M  V30 16149 H 1524.43 4.03744 -2.36871 0
M  V30 16150 H 1524.6 5.45701 -3.49448 0
M  V30 16151 N 1518.01 0.657889 1.43212 0
M  V30 16152 C 1519.24 0.181072 2.06106 0
M  V30 16153 C 1519.65 -1.15513 1.49339 0
M  V30 16154 O 1519.01 -1.71409 0.626517 0
M  V30 16155 C 1519.06 0.0890244 3.6139 0
M  V30 16156 O 1518.78 1.37241 4.16049 0
M  V30 16157 C 1520.28 -0.413313 4.41369 0
M  V30 16158 H 1517.5 0.0920577 0.664655 0
M  V30 16159 H 1520.05 0.899855 1.83638 0
M  V30 16160 H 1518.2 -0.580345 3.83028 0
M  V30 16161 H 1518.61 1.23467 5.09761 0
M  V30 16162 H 1520.09 -0.426663 5.50349 0
M  V30 16163 H 1520.57 -1.44549 4.14731 0
M  V30 16164 H 1521.17 0.223727 4.24711 0
M  V30 16165 N 1519.49 -1.52437 0.400108 0
M  V30 16166 C 1520.9 -1.86563 -0.0715162 0
M  V30 16167 C 1521.25 -1.3193 -1.4522 0
M  V30 16168 O 1520.37 -0.654955 -2.06251 0
M  V30 16169 C 1520.97 -3.38525 -0.13655 0
M  V30 16170 C 1519.53 -3.72323 -0.55249 0
M  V30 16171 C 1518.67 -2.75896 0.278729 0
M  V30 16172 H 1521.63 -1.46192 0.617547 0
M  V30 16173 H 1521.65 -3.68357 -0.953588 0
M  V30 16174 H 1521.16 -3.78258 0.868468 0
M  V30 16175 H 1519.26 -3.38164 -1.56448 0
M  V30 16176 H 1519.37 -4.7814 -0.303139 0
M  V30 16177 H 1517.74 -2.53394 -0.257608 0
M  V30 16178 H 1518.52 -3.18467 1.28193 0
M  V30 16179 N 1520.96 -0.130252 -1.57061 0
M  V30 16180 C 1522.21 0.525784 -1.95866 0
M  V30 16181 C 1522.54 1.65607 -1.01429 0
M  V30 16182 O 1521.82 1.94426 -0.0535544 0
M  V30 16183 C 1522.1 1.04784 -3.44517 0
M  V30 16184 C 1521.95 -0.0797972 -4.49729 0
M  V30 16185 C 1523.27 1.9351 -3.95275 0
M  V30 16186 H 1520.39 0.189652 -0.71218 0
M  V30 16187 H 1523.03 -0.208091 -1.88857 0
M  V30 16188 H 1521.18 1.67324 -3.50621 0
M  V30 16189 H 1522.86 -0.715535 -4.55717 0
M  V30 16190 H 1521.1 -0.741358 -4.27418 0
M  V30 16191 H 1521.77 0.326915 -5.51031 0
M  V30 16192 H 1524.25 1.40825 -3.91545 0
M  V30 16193 H 1523.12 2.26952 -4.99784 0
M  V30 16194 H 1523.38 2.86583 -3.36634 0
M  V30 16195 N 1522.44 1.56945 0.143535 0
M  V30 16196 C 1523.37 2.0156 1.17881 0
M  V30 16197 C 1524.35 0.895744 1.44604 0
M  V30 16198 O 1525.54 1.16379 1.55466 0
M  V30 16199 C 1522.67 2.39915 2.51114 0
M  V30 16200 C 1521.62 3.55117 2.38905 0
M  V30 16201 C 1520.95 3.79296 3.7688 0
M  V30 16202 C 1522.25 4.87668 1.87021 0
M  V30 16203 H 1523.94 2.88296 0.80783 0
M  V30 16204 H 1521.49 1.38698 0.387149 0
M  V30 16205 H 1523.44 2.69727 3.23767 0
M  V30 16206 H 1522.17 1.5012 2.90055 0
M  V30 16207 H 1520.83 3.25476 1.68703 0
M  V30 16208 H 1520.47 2.86747 4.13262 0
M  V30 16209 H 1520.17 4.56827 3.69571 0
M  V30 16210 H 1521.7 4.11537 4.51076 0
M  V30 16211 H 1523.11 5.16176 2.4947 0
M  V30 16212 H 1521.51 5.69029 1.90594 0
M  V30 16213 H 1522.58 4.77811 0.82611 0
M  V30 16214 N 1523.92 -0.412991 1.52093 0
M  V30 16215 C 1525.34 -0.751324 1.40809 0
M  V30 16216 C 1525.54 -1.94951 0.509543 0
M  V30 16217 O 1524.59 -2.52486 -0.026132 0
M  V30 16218 C 1525.91 -1.00888 2.8327 0
M  V30 16219 C 1527.45 -1.11183 2.92587 0
M  V30 16220 C 1527.93 -1.40217 4.36008 0
M  V30 16221 N 1529.42 -1.4709 4.39225 0
M  V30 16222 C 1530.16 -1.71174 5.47254 0
M  V30 16223 N 1529.65 -1.92887 6.65407 0
M  V30 16224 N 1531.44 -1.73157 5.34765 0
M  V30 16225 H 1523.6 0.375774 2.0905 0
M  V30 16226 H 1525.86 0.105817 0.942076 0
M  V30 16227 H 1525.56 -0.200872 3.51126 0
M  V30 16228 H 1525.44 -1.93008 3.2408 0
M  V30 16229 H 1527.83 -1.91043 2.24915 0
M  V30 16230 H 1527.91 -0.169078 2.55241 0
M  V30 16231 H 1527.55 -0.608754 5.04239 0
M  V30 16232 H 1527.48 -2.35737 4.70888 0
M  V30 16233 H 1529.97 -1.32114 3.54054 0
M  V30 16234 H 1530.28 -2.10704 7.43521 0
M  V30 16235 H 1528.63 -1.9016 6.68479 0
M  V30 16236 H 1531.82 -1.55728 4.41437 0
M  V30 16237 H 1531.99 -1.91587 6.1903 0
M  V30 16238 N 1525.4 -1.4265 -0.669982 0
M  V30 16239 C 1526.82 -1.25682 -0.983682 0
M  V30 16240 C 1527.02 -0.164456 -2.00828 0
M  V30 16241 O 1526.07 0.462711 -2.48224 0
M  V30 16242 C 1527.38 -2.61536 -1.4839 0
M  V30 16243 C 1528.93 -2.6893 -1.60143 0
M  V30 16244 C 1529.41 -4.05162 -2.1356 0
M  V30 16245 N 1530.9 -4.07141 -2.20886 0
M  V30 16246 C 1531.63 -5.09371 -2.63303 0
M  V30 16247 N 1531.13 -6.21983 -3.05137 0
M  V30 16248 N 1532.92 -4.96727 -2.63094 0
M  V30 16249 H 1525.07 -2.12398 0.0083059 0
M  V30 16250 H 1527.34 -0.946173 -0.058823 0
M  V30 16251 H 1527.04 -3.42351 -0.805527 0
M  V30 16252 H 1526.92 -2.85786 -2.46183 0
M  V30 16253 H 1529.3 -1.88457 -2.27085 0
M  V30 16254 H 1529.38 -2.48463 -0.608266 0
M  V30 16255 H 1529.03 -4.86094 -1.47224 0
M  V30 16256 H 1528.96 -4.22984 -3.13676 0
M  V30 16257 H 1531.45 -3.25846 -1.91396 0
M  V30 16258 H 1531.76 -6.95835 -3.36204 0
M  V30 16259 H 1530.11 -6.25481 -3.02983 0
M  V30 16260 H 1533.3 -4.07824 -2.29777 0
M  V30 16261 H 1533.47 -5.76531 -2.95831 0
M  V30 16262 N 1526.88 0.906753 -1.28902 0
M  V30 16263 C 1527.83 1.99676 -1.10061 0
M  V30 16264 C 1528.81 1.60885 -0.0221442 0
M  V30 16265 O 1530 1.75323 -0.24307 0
M  V30 16266 C 1527.13 3.34511 -0.771823 0
M  V30 16267 C 1526.22 3.79683 -1.88948 0
M  V30 16268 N 1526.61 3.97159 -3.13207 0
M  V30 16269 C 1524.91 4.089 -1.78092 0
M  V30 16270 C 1525.61 4.35108 -3.86078 0
M  V30 16271 N 1524.58 4.43759 -3.13973 0
M  V30 16272 H 1528.39 2.11247 -2.04333 0
M  V30 16273 H 1525.9 1.09508 -1.19924 0
M  V30 16274 H 1527.9 4.12295 -0.617909 0
M  V30 16275 H 1526.56 3.2429 0.16305 0
M  V30 16276 H 1527.57 3.82884 -3.4874 0
M  V30 16277 H 1524.25 4.07276 -0.918291 0
M  V30 16278 H 1525.64 4.56533 -4.92978 0
M  V30 16279 N 1528.36 1.11264 1.11616 0
M  V30 16280 C 1529.77 0.846176 1.35322 0
M  V30 16281 C 1529.97 -0.530043 1.94404 0
M  V30 16282 O 1529.03 -1.28122 2.1758 0
M  V30 16283 C 1530.34 1.9528 2.28662 0
M  V30 16284 C 1531.89 1.98225 2.42231 0
M  V30 16285 C 1532.36 3.08086 3.38891 0
M  V30 16286 N 1533.85 3.07448 3.46453 0
M  V30 16287 C 1534.59 3.89094 4.21181 0
M  V30 16288 N 1534.09 4.80698 4.989 0
M  V30 16289 N 1535.88 3.77279 4.16674 0
M  V30 16290 H 1528.03 1.99958 0.716284 0
M  V30 16291 H 1530.29 0.869439 0.377862 0
M  V30 16292 H 1530 2.94381 1.92439 0
M  V30 16293 H 1529.87 1.84739 3.28864 0
M  V30 16294 H 1532.26 0.997517 2.77729 0
M  V30 16295 H 1532.34 2.12842 1.41887 0
M  V30 16296 H 1531.98 4.06784 3.0412 0
M  V30 16297 H 1531.91 2.90709 4.39085 0
M  V30 16298 H 1534.41 2.41077 2.91016 0
M  V30 16299 H 1534.72 5.39535 5.53282 0
M  V30 16300 H 1533.06 4.84721 4.98067 0
M  V30 16301 H 1536.25 3.05059 3.55044 0
M  V30 16302 H 1536.43 4.41142 4.74655 0
M  V30 16303 N 1529.83 -1.29188 0.902679 0
M  V30 16304 C 1531.06 -1.99286 0.544844 0
M  V30 16305 C 1531.47 -1.67721 -0.875572 0
M  V30 16306 O 1530.81 -0.920207 -1.5899 0
M  V30 16307 C 1530.88 -3.53374 0.660849 0
M  V30 16308 C 1530.54 -4.08502 2.04878 0
M  V30 16309 C 1531.54 -4.23173 3.02028 0
M  V30 16310 C 1529.22 -4.43461 2.35897 0
M  V30 16311 C 1531.22 -4.7204 4.28318 0
M  V30 16312 C 1528.9 -4.92024 3.6243 0
M  V30 16313 C 1529.9 -5.06269 4.58455 0
M  V30 16314 O 1529.59 -5.53778 5.8274 0
M  V30 16315 H 1529.32 -0.64339 0.207427 0
M  V30 16316 H 1531.88 -1.6562 1.21487 0
M  V30 16317 H 1530.11 -3.86643 -0.066216 0
M  V30 16318 H 1531.79 -4.04701 0.311732 0
M  V30 16319 H 1532.56 -3.96449 2.79379 0
M  V30 16320 H 1528.44 -4.31631 1.61913 0
M  V30 16321 H 1531.98 -4.83074 5.03275 0
M  V30 16322 H 1527.88 -5.18186 3.84907 0
M  V30 16323 H 1528.65 -5.72086 5.85372 0
M  V30 16324 N 1531.31 -0.665475 -1.42861 0
M  V30 16325 C 1532.54 -0.190399 -2.06524 0
M  V30 16326 C 1532.96 1.13995 -1.49622 0
M  V30 16327 O 1532.32 1.70695 -0.610981 0
M  V30 16328 C 1532.37 -0.12594 -3.6038 0
M  V30 16329 O 1531.47 0.908299 -4.02273 0
M  V30 16330 H 1530.81 -0.100495 -0.656351 0
M  V30 16331 H 1533.34 -0.911858 -1.83156 0
M  V30 16332 H 1533.35 0.0533153 -4.07965 0
M  V30 16333 H 1532.03 -1.09703 -4.01171 0
M  V30 16334 H 1530.6 0.700841 -3.66255 0
M  V30 16335 N 1532.79 1.52222 -0.408187 0
M  V30 16336 C 1534.04 2.00989 0.169252 0
M  V30 16337 C 1534.35 1.29824 1.46305 0
M  V30 16338 O 1535.56 1.69402 2.12168 0
M  V30 16339 C 1534.01 3.58173 0.352179 0
M  V30 16340 C 1533.62 4.38252 -0.929468 0
M  V30 16341 C 1535.37 4.15173 0.88496 0
M  V30 16342 C 1533.27 5.87077 -0.713781 0
M  V30 16343 H 1532.2 0.751015 0.0670261 0
M  V30 16344 H 1534.85 1.75574 -0.533487 0
M  V30 16345 H 1533.24 3.79913 1.11723 0
M  V30 16346 H 1534.41 4.28272 -1.70059 0
M  V30 16347 H 1532.72 3.92565 -1.38859 0
M  V30 16348 H 1535.32 5.2404 1.06235 0
M  V30 16349 H 1535.66 3.72468 1.85938 0
M  V30 16350 H 1536.2 3.97397 0.178995 0
M  V30 16351 H 1532.94 6.3414 -1.65974 0
M  V30 16352 H 1532.46 5.99797 0.0180631 0
M  V30 16353 H 1534.14 6.46022 -0.355596 0
M  V30 16354 N 1534.27 0.138579 1.5699 0
M  V30 16355 C 1535.51 -0.514627 1.95852 0
M  V30 16356 C 1535.84 -1.65424 1.02299 0
M  V30 16357 O 1535.1 -1.95635 0.0505654 0
M  V30 16358 C 1535.4 -1.06969 3.41017 0
M  V30 16359 C 1535.06 -0.049396 4.50873 0
M  V30 16360 C 1533.72 0.231103 4.80645 0
M  V30 16361 C 1536.08 0.644865 5.17195 0
M  V30 16362 C 1533.4 1.21181 5.74049 0
M  V30 16363 C 1535.76 1.61434 6.11655 0
M  V30 16364 C 1534.42 1.90262 6.3981 0
M  V30 16365 H 1533.69 -0.188315 0.716672 0
M  V30 16366 H 1536.34 0.223629 1.9019 0
M  V30 16367 H 1534.64 -1.88511 3.43469 0
M  V30 16368 H 1536.34 -1.58354 3.68409 0
M  V30 16369 H 1532.93 -0.278202 4.27696 0
M  V30 16370 H 1537.11 0.441346 4.94334 0
M  V30 16371 H 1532.37 1.4417 5.94159 0
M  V30 16372 H 1536.54 2.15786 6.62125 0
M  V30 16373 H 1534.17 2.66407 7.11991 0
M  V30 16374 N 1535.75 -1.57019 -0.13521 0
M  V30 16375 C 1537.16 -1.51949 -0.48824 0
M  V30 16376 C 1537.36 -0.848955 -1.82743 0
M  V30 16377 O 1536.42 -0.424441 -2.48907 0
M  V30 16378 C 1537.73 -2.96719 -0.487673 0
M  V30 16379 C 1539.28 -3.07722 -0.572365 0
M  V30 16380 C 1539.75 -4.54022 -0.602347 0
M  V30 16381 N 1541.24 -4.58413 -0.664242 0
M  V30 16382 C 1541.98 -5.69005 -0.70862 0
M  V30 16383 N 1541.48 -6.89135 -0.711626 0
M  V30 16384 N 1543.27 -5.57069 -0.750399 0
M  V30 16385 H 1535.42 -1.99001 0.742465 0
M  V30 16386 H 1537.68 -0.908116 0.272083 0
M  V30 16387 H 1537.39 -3.49082 0.428363 0
M  V30 16388 H 1537.26 -3.53299 -1.32136 0
M  V30 16389 H 1539.65 -2.55372 -1.47882 0
M  V30 16390 H 1539.73 -2.54166 0.288696 0
M  V30 16391 H 1539.37 -5.07013 0.3 0
M  V30 16392 H 1539.3 -5.05373 -1.48006 0
M  V30 16393 H 1541.8 -3.71936 -0.668739 0
M  V30 16394 H 1542.11 -7.69175 -0.747663 0
M  V30 16395 H 1540.45 -6.91672 -0.679311 0
M  V30 16396 H 1543.64 -4.62129 -0.745301 0
M  V30 16397 H 1543.82 -6.4327 -0.781518 0
M  V30 16398 N 1537.22 0.404919 -1.52309 0
M  V30 16399 C 1538.45 1.17764 -1.70723 0
M  V30 16400 C 1538.87 1.83403 -0.417744 0
M  V30 16401 O 1538.23 1.70181 0.625157 0
M  V30 16402 C 1538.28 2.2133 -2.84685 0
M  V30 16403 O 1537.38 3.27566 -2.50548 0
M  V30 16404 H 1536.73 0.343572 -0.568203 0
M  V30 16405 H 1539.26 0.474093 -1.99031 0
M  V30 16406 H 1539.27 2.6559 -3.09719 0
M  V30 16407 H 1537.94 1.72939 -3.78239 0
M  V30 16408 H 1536.52 2.88556 -2.36199 0
M  V30 16409 N 1538.7 1.43003 0.662408 0
M  V30 16410 C 1539.93 1.47555 1.45035 0
M  V30 16411 C 1540.35 0.0906083 1.88582 0
M  V30 16412 O 1539.7 -0.897271 1.58919 0
M  V30 16413 C 1539.75 2.41345 2.69137 0
M  V30 16414 O 1539.47 3.74453 2.27413 0
M  V30 16415 C 1540.98 2.55045 3.62584 0
M  V30 16416 H 1538.2 0.501448 0.44586 0
M  V30 16417 H 1540.74 1.8765 0.812879 0
M  V30 16418 H 1538.89 2.0447 3.29045 0
M  V30 16419 H 1539.31 4.24801 3.07643 0
M  V30 16420 H 1540.78 3.24766 4.46353 0
M  V30 16421 H 1541.26 1.59235 4.09318 0
M  V30 16422 H 1541.87 2.92693 3.08563 0
M  V30 16423 N 1540.18 -0.899904 1.29381 0
M  V30 16424 C 1541.41 -1.68383 1.20227 0
M  V30 16425 C 1541.82 -1.87305 -0.237135 0
M  V30 16426 O 1541.18 -1.40992 -1.15877 0
M  V30 16427 C 1541.23 -3.06845 1.91124 0
M  V30 16428 O 1540.95 -2.88787 3.29444 0
M  V30 16429 C 1542.45 -4.01253 1.88444 0
M  V30 16430 H 1539.67 -0.525917 0.416717 0
M  V30 16431 H 1542.22 -1.12537 1.7075 0
M  V30 16432 H 1540.37 -3.59467 1.44438 0
M  V30 16433 H 1540.79 -3.7652 3.65148 0
M  V30 16434 H 1542.26 -4.95824 2.42616 0
M  V30 16435 H 1542.74 -4.30699 0.859925 0
M  V30 16436 H 1543.34 -3.54562 2.34874 0
M  V30 16437 N 1541.66 -1.11854 -1.11024 0
M  V30 16438 C 1543.07 -0.853341 -1.34871 0
M  V30 16439 C 1543.27 0.519725 -1.94682 0
M  V30 16440 O 1542.33 1.26966 -2.18256 0
M  V30 16441 C 1543.64 -1.9649 -2.27623 0
M  V30 16442 C 1545.19 -1.99507 -2.41176 0
M  V30 16443 C 1545.67 -3.09879 -3.37253 0
M  V30 16444 N 1547.16 -3.09281 -3.44818 0
M  V30 16445 C 1547.89 -3.91322 -4.19111 0
M  V30 16446 N 1547.39 -4.83337 -4.96344 0
M  V30 16447 N 1549.18 -3.79483 -4.14667 0
M  V30 16448 H 1541.33 -2.00335 -0.70567 0
M  V30 16449 H 1543.6 -0.871431 -0.373245 0
M  V30 16450 H 1543.3 -2.95397 -1.90875 0
M  V30 16451 H 1543.18 -1.86481 -3.27879 0
M  V30 16452 H 1545.56 -1.01223 -2.77196 0
M  V30 16453 H 1545.64 -2.13592 -1.40756 0
M  V30 16454 H 1545.29 -4.08391 -3.01959 0
M  V30 16455 H 1545.22 -2.93033 -4.37537 0
M  V30 16456 H 1547.71 -2.42617 -2.89733 0
M  V30 16457 H 1548.02 -5.42462 -5.50413 0
M  V30 16458 H 1546.37 -4.87356 -4.95489 0
M  V30 16459 H 1549.56 -3.06938 -3.53421 0
M  V30 16460 H 1549.73 -4.43653 -4.72309 0
M  V30 16461 N 1543.14 1.28707 -0.909517 0
M  V30 16462 C 1544.38 1.94768 -0.539413 0
M  V30 16463 C 1544.71 1.7198 0.919133 0
M  V30 16464 O 1543.98 1.0571 1.64931 0
M  V30 16465 H 1542.56 0.720693 -0.196496 0
M  V30 16466 H 1545.22 1.56772 -1.15795 0
M  V30 16467 H 1544.31 3.03436 -0.730281 0
M  V30 16468 N 1544.61 0.673042 1.42506 0
M  V30 16469 C 1545.84 0.201349 2.0642 0
M  V30 16470 C 1546.26 -1.132 1.50224 0
M  V30 16471 O 1545.62 -1.70368 0.620024 0
M  V30 16472 C 1545.67 0.14505 3.60308 0
M  V30 16473 O 1544.77 -0.886953 4.02749 0
M  V30 16474 H 1544.12 0.103975 0.655809 0
M  V30 16475 H 1546.65 0.921559 1.8267 0
M  V30 16476 H 1546.66 -0.0316792 4.07988 0
M  V30 16477 H 1545.33 1.11829 4.00583 0
M  V30 16478 H 1543.91 -0.681408 3.66621 0
M  V30 16479 N 1546.09 -1.52004 0.416254 0
M  V30 16480 C 1547.32 -2.0679 -0.158937 0
M  V30 16481 C 1547.74 -1.28366 -1.37491 0
M  V30 16482 O 1547.1 -0.315815 -1.78528 0
M  V30 16483 C 1547.15 -3.57381 -0.480717 0
M  V30 16484 O 1546.25 -3.81321 -1.5706 0
M  V30 16485 H 1545.59 -0.663907 -0.0110938 0
M  V30 16486 H 1548.12 -1.95863 0.591509 0
M  V30 16487 H 1548.13 -4.01283 -0.737297 0
M  V30 16488 H 1546.81 -4.13893 0.408137 0
M  V30 16489 H 1545.39 -3.49296 -1.30563 0
M  V30 16490 N 1547.57 -0.146903 -1.56914 0
M  V30 16491 C 1548.48 0.805875 -2.20324 0
M  V30 16492 C 1549.5 1.27178 -1.18751 0
M  V30 16493 O 1550.67 1.32899 -1.51327 0
M  V30 16494 C 1547.74 2.02755 -2.81232 0
M  V30 16495 C 1546.8 1.61089 -3.97931 0
M  V30 16496 C 1546.03 2.77433 -4.55924 0
M  V30 16497 O 1546.25 3.93643 -4.12797 0
M  V30 16498 O 1545.19 2.52911 -5.46187 0
M  V30 16499 H 1549.01 0.296098 -3.02253 0
M  V30 16500 H 1546.6 0.0801175 -1.49185 0
M  V30 16501 H 1548.48 2.74252 -3.19944 0
M  V30 16502 H 1547.16 2.52686 -2.02316 0
M  V30 16503 H 1546.06 0.86616 -3.63935 0
M  V30 16504 H 1547.4 1.15874 -4.78366 0
M  V30 16505 N 1549.05 1.57088 0.126881 0
M  V30 16506 C 1550 1.99764 1.15599 0
M  V30 16507 C 1550.97 0.868468 1.41587 0
M  V30 16508 O 1552.15 1.13209 1.53585 0
M  V30 16509 C 1549.29 2.40038 2.47943 0
M  V30 16510 C 1548.4 3.66336 2.28958 0
M  V30 16511 C 1547.54 3.95626 3.54477 0
M  V30 16512 C 1546.58 5.15131 3.30616 0
M  V30 16513 N 1545.71 5.4033 4.48317 0
M  V30 16514 H 1550.55 2.87473 0.785078 0
M  V30 16515 H 1548.09 1.42209 0.376169 0
M  V30 16516 H 1550.05 2.61423 3.25136 0
M  V30 16517 H 1548.68 1.55382 2.82942 0
M  V30 16518 H 1547.73 3.52612 1.4272 0
M  V30 16519 H 1549.04 4.53684 2.07298 0
M  V30 16520 H 1548.2 4.17617 4.40092 0
M  V30 16521 H 1546.94 3.06738 3.79161 0
M  V30 16522 H 1545.94 4.92992 2.43391 0
M  V30 16523 H 1547.17 6.05588 3.0731 0
M  V30 16524 H 1545.11 4.54399 4.73136 0
M  V30 16525 H 1545.03 6.21985 4.29733 0
M  V30 16526 H 1546.3 5.66835 5.35088 0
M  V30 16527 N 1550.53 -0.396836 1.52522 0
M  V30 16528 C 1551.75 -1.16857 1.71345 0
M  V30 16529 C 1552.18 -1.83178 0.427465 0
M  V30 16530 O 1551.53 -1.7051 -0.616123 0
M  V30 16531 C 1551.58 -2.19817 2.85855 0
M  V30 16532 O 1550.69 -3.26233 2.52281 0
M  V30 16533 H 1550.03 -0.340554 0.570017 0
M  V30 16534 H 1552.56 -0.463532 1.9928 0
M  V30 16535 H 1552.57 -2.63944 3.11123 0
M  V30 16536 H 1551.24 -1.70931 3.79151 0
M  V30 16537 H 1549.82 -2.87299 2.37726 0
M  V30 16538 N 1552.01 -1.43353 -0.654814 0
M  V30 16539 C 1553.23 -1.48322 -1.4425 0
M  V30 16540 C 1553.65 -0.100608 -1.88532 0
M  V30 16541 O 1553.01 0.888831 -1.59393 0
M  V30 16542 C 1553.06 -2.42769 -2.67853 0
M  V30 16543 O 1552.78 -3.75653 -2.25424 0
M  V30 16544 C 1554.28 -2.56964 -3.61226 0
M  V30 16545 H 1551.5 -0.503805 -0.443195 0
M  V30 16546 H 1554.04 -1.88078 -0.802916 0
M  V30 16547 H 1552.2 -2.06212 -3.27956 0
M  V30 16548 H 1552.61 -4.26427 -3.05386 0
M  V30 16549 H 1554.09 -3.27129 -4.44624 0
M  V30 16550 H 1554.56 -1.61404 -4.08467 0
M  V30 16551 H 1555.17 -2.94325 -3.07006 0
M  V30 16552 N 1553.48 0.89303 -1.29857 0
M  V30 16553 C 1554.71 1.67744 -1.21119 0
M  V30 16554 C 1555.13 1.87428 0.227198 0
M  V30 16555 O 1554.48 1.41605 1.15128 0
M  V30 16556 C 1554.53 3.05827 -1.92749 0
M  V30 16557 O 1554.26 2.87036 -3.30971 0
M  V30 16558 C 1555.76 4.00248 -1.9057 0
M  V30 16559 H 1552.98 0.523699 -0.4195 0
M  V30 16560 H 1555.52 1.1163 -1.71344 0
M  V30 16561 H 1553.68 3.58696 -1.46342 0
M  V30 16562 H 1554.09 3.74578 -3.6714 0
M  V30 16563 H 1555.56 4.9453 -2.45242 0
M  V30 16564 H 1556.04 4.30237 -0.882753 0
M  V30 16565 H 1556.65 3.53312 -2.36751 0
M  V30 16566 N 1554.96 1.12442 1.10429 0
M  V30 16567 C 1555.92 0.795443 2.14954 0
M  V30 16568 C 1556.92 -0.19022 1.59671 0
M  V30 16569 O 1558.11 0.0355797 1.74164 0
M  V30 16570 C 1555.25 0.182043 3.40414 0
M  V30 16571 H 1556.44 1.72153 2.45567 0
M  V30 16572 H 1553.99 0.927672 1.25793 0
M  V30 16573 H 1554.73 -0.753766 3.15419 0
M  V30 16574 H 1554.51 0.891708 3.81826 0
M  V30 16575 H 1556 -0.0316286 4.17588 0
M  V30 16576 N 1556.44 -1.28223 0.91633 0
M  V30 16577 C 1557.69 -1.94865 0.550823 0
M  V30 16578 C 1558.01 -1.72113 -0.905945 0
M  V30 16579 O 1557.27 -1.03668 -1.65987 0
M  V30 16580 C 1557.57 -3.48112 0.809509 0
M  V30 16581 C 1557.23 -3.90967 2.24623 0
M  V30 16582 C 1555.9 -4.02379 2.63903 0
M  V30 16583 C 1558.25 -4.12865 3.18106 0
M  V30 16584 C 1555.58 -4.33069 3.95814 0
M  V30 16585 C 1557.93 -4.45036 4.49584 0
M  V30 16586 C 1556.59 -4.54659 4.88714 0
M  V30 16587 H 1555.86 -0.71306 0.20156 0
M  V30 16588 H 1558.51 -1.5251 1.15814 0
M  V30 16589 H 1556.81 -3.91618 0.119411 0
M  V30 16590 H 1558.51 -3.97797 0.505843 0
M  V30 16591 H 1555.1 -3.82614 1.93144 0
M  V30 16592 H 1559.29 -4.035 2.88966 0
M  V30 16593 H 1554.54 -4.38725 4.25829 0
M  V30 16594 H 1558.72 -4.60928 5.22033 0
M  V30 16595 H 1556.34 -4.78194 5.90961 0
M  V30 16596 N 1557.92 -0.68059 -1.42147 0
M  V30 16597 C 1559.14 -0.212293 -2.06311 0
M  V30 16598 C 1559.57 1.12402 -1.50822 0
M  V30 16599 O 1558.93 1.70037 -0.629051 0
M  V30 16600 C 1558.97 -0.164156 -3.60226 0
M  V30 16601 O 1558.08 0.865582 -4.03214 0
M  V30 16602 H 1557.42 -0.107451 -0.655248 0
M  V30 16603 H 1559.95 -0.931233 -1.82179 0
M  V30 16604 H 1559.96 0.0100422 -4.07999 0
M  V30 16605 H 1558.63 -1.13952 -3.99985 0
M  V30 16606 H 1557.21 0.661955 -3.66978 0
M  V30 16607 N 1559.4 1.51781 -0.424309 0
M  V30 16608 C 1560.36 2.25996 0.381903 0
M  V30 16609 C 1561.36 1.28938 0.960813 0
M  V30 16610 O 1562.55 1.52757 0.837306 0
M  V30 16611 C 1559.68 3.04181 1.53904 0
M  V30 16612 H 1560.87 2.98697 -0.268336 0
M  V30 16613 H 1558.43 1.55293 -0.177167 0
M  V30 16614 H 1559.16 2.35866 2.22571 0
M  V30 16615 H 1558.95 3.75457 1.13025 0
M  V30 16616 H 1560.44 3.60434 2.10896 0
M  V30 16617 N 1560.87 0.155222 1.56834 0
M  V30 16618 C 1562.1 -0.500542 2.00754 0
M  V30 16619 C 1562.52 -1.57878 1.03538 0
M  V30 16620 O 1561.87 -1.82469 0.0336651 0
M  V30 16621 C 1561.92 -1.09366 3.4456 0
M  V30 16622 O 1561.65 -0.0584788 4.38061 0
M  V30 16623 C 1563.15 -1.82923 4.038 0
M  V30 16624 H 1560.37 -0.129589 0.658368 0
M  V30 16625 H 1562.91 0.252223 2.02939 0
M  V30 16626 H 1561.07 -1.797 3.43201 0
M  V30 16627 H 1561.48 -0.494125 5.22167 0
M  V30 16628 H 1562.95 -2.19703 5.06394 0
M  V30 16629 H 1563.43 -2.71823 3.44976 0
M  V30 16630 H 1564.04 -1.17268 4.08813 0
M  V30 16631 N 1562.35 -1.57153 -0.118549 0
M  V30 16632 C 1563.6 -1.8515 -0.82748 0
M  V30 16633 C 1563.93 -0.741026 -1.79506 0
M  V30 16634 O 1563.21 0.253095 -1.92846 0
M  V30 16635 C 1563.49 -3.23734 -1.57698 0
M  V30 16636 C 1563.34 -4.45381 -0.628967 0
M  V30 16637 C 1564.66 -3.59895 -2.53305 0
M  V30 16638 H 1561.78 -0.673459 -0.29937 0
M  V30 16639 H 1564.42 -1.89778 -0.0917198 0
M  V30 16640 H 1562.57 -3.19919 -2.20418 0
M  V30 16641 H 1564.24 -4.61299 -0.0105746 0
M  V30 16642 H 1562.49 -4.33759 0.059462 0
M  V30 16643 H 1563.16 -5.3902 -1.19004 0
M  V30 16644 H 1565.63 -3.64503 -2.0069 0
M  V30 16645 H 1564.51 -4.57839 -3.02778 0
M  V30 16646 H 1564.77 -2.87338 -3.3599 0
M  V30 16647 N 1563.83 0.388742 -1.5273 0
M  V30 16648 C 1564.76 1.48133 -1.80496 0
M  V30 16649 C 1565.74 1.56899 -0.657008 0
M  V30 16650 O 1566.93 1.71844 -0.904621 0
M  V30 16651 C 1564.06 2.85742 -1.97405 0
M  V30 16652 C 1563.01 2.91815 -3.13094 0
M  V30 16653 C 1562.34 4.31876 -3.15258 0
M  V30 16654 C 1563.64 2.61438 -4.52159 0
M  V30 16655 H 1565.33 1.25147 -2.7199 0
M  V30 16656 H 1562.88 0.600603 -1.30877 0
M  V30 16657 H 1564.83 3.62182 -2.15412 0
M  V30 16658 H 1563.55 3.10065 -1.02601 0
M  V30 16659 H 1562.21 2.17824 -2.9487 0
M  V30 16660 H 1561.86 4.53239 -2.18135 0
M  V30 16661 H 1561.56 4.3686 -3.92972 0
M  V30 16662 H 1563.08 5.10221 -3.3542 0
M  V30 16663 H 1564.5 3.27596 -4.70483 0
M  V30 16664 H 1562.89 2.77771 -5.31943 0
M  V30 16665 H 1563.96 1.56778 -4.58856 0
M  V30 16666 N 1565.31 1.43698 0.647203 0
M  V30 16667 C 1566.26 1.49599 1.78109 0
M  V30 16668 C 1567.25 0.369047 1.65331 0
M  V30 16669 O 1568.46 0.543303 1.71605 0
M  V30 16670 H 1564.83 0.46911 0.587741 0
M  V30 16671 H 1566.8 2.45064 1.70253 0
M  V30 16672 C 1565.55 1.44192 3.16392 0
M  V30 16673 H 1564.87 2.30216 3.26865 0
M  V30 16674 H 1566.31 1.52382 3.95671 0
M  V30 16675 C 1564.77 0.16036 3.36518 0
M  V30 16676 O 1565.3 -0.77593 3.94135 0
M  V30 16677 N 1563.51 0.0686236 2.90519 0
M  V30 16678 H 1563.06 0.831363 2.43816 0
M  V30 16679 H 1563.01 -0.78814 3.04361 0
M  V30 16680 N 1566.79 -0.886131 1.30328 0
M  V30 16681 C 1568.03 -1.64026 1.19261 0
M  V30 16682 C 1568.37 -1.92553 -0.252379 0
M  V30 16683 O 1567.64 -1.54564 -1.18069 0
M  V30 16684 C 1567.92 -2.9808 2.0204 0
M  V30 16685 C 1567.78 -2.76534 3.54752 0
M  V30 16686 C 1569.1 -3.98989 1.85731 0
M  V30 16687 H 1566.21 -0.595224 0.4346 0
M  V30 16688 H 1568.86 -1.0255 1.59949 0
M  V30 16689 H 1567.01 -3.50552 1.67469 0
M  V30 16690 H 1568.68 -2.3086 3.99376 0
M  V30 16691 H 1566.92 -2.1106 3.78993 0
M  V30 16692 H 1567.59 -3.71849 4.07961 0
M  V30 16693 H 1570.07 -3.55673 2.15953 0
M  V30 16694 H 1568.94 -4.90699 2.45979 0
M  V30 16695 H 1569.21 -4.34501 0.816152 0
M  V30 16696 N 1568.26 -1.13026 -1.09832 0
M  V30 16697 C 1569.49 -0.91246 -1.85693 0
M  V30 16698 C 1569.91 0.538558 -1.80956 0
M  V30 16699 O 1569.26 1.37262 -1.20273 0
M  V30 16700 C 1569.32 -1.38684 -3.3384 0
M  V30 16701 O 1569.04 -2.78099 -3.38515 0
M  V30 16702 C 1570.54 -1.20688 -4.26555 0
M  V30 16703 H 1567.76 -0.32565 -0.58668 0
M  V30 16704 H 1570.3 -1.50177 -1.38806 0
M  V30 16705 H 1568.46 -0.840617 -3.7817 0
M  V30 16706 H 1568.87 -2.99061 -4.30886 0
M  V30 16707 H 1570.34 -1.5876 -5.28677 0
M  V30 16708 H 1570.82 -0.148111 -4.3895 0
M  V30 16709 H 1571.43 -1.74092 -3.88036 0
M  V30 16710 N 1569.74 1.27735 -0.923117 0
M  V30 16711 C 1570.98 1.96339 -0.568378 0
M  V30 16712 C 1571.35 1.70988 0.87333 0
M  V30 16713 O 1572.55 2.33241 1.33611 0
M  V30 16714 C 1570.82 3.46396 -0.880016 0
M  V30 16715 S 1572.38 4.34209 -0.633102 0
M  V30 16716 H 1569.2 0.679289 -0.209969 0
M  V30 16717 H 1571.8 1.55066 -1.19057 0
M  V30 16718 H 1570.5 3.62344 -1.92705 0
M  V30 16719 H 1570.03 3.92625 -0.246836 0
M  V30 16720 H 1572.05 4.93559 0.511241 0
M  V30 16721 N 1571.22 0.688118 1.41784 0
M  V30 16722 C 1572.15 0.0323199 2.33478 0
M  V30 16723 C 1573.13 -0.775145 1.51412 0
M  V30 16724 O 1574.32 -0.72962 1.79973 0
M  V30 16725 C 1571.45 -0.910141 3.35162 0
M  V30 16726 C 1570.4 -0.210312 4.27483 0
M  V30 16727 C 1569.73 -1.26662 5.19481 0
M  V30 16728 C 1571.03 0.918839 5.14154 0
M  V30 16729 H 1572.72 0.798138 2.88566 0
M  V30 16730 H 1570.27 0.385262 1.38751 0
M  V30 16731 H 1572.22 -1.3781 3.98229 0
M  V30 16732 H 1570.94 -1.70754 2.78408 0
M  V30 16733 H 1569.6 0.237544 3.6583 0
M  V30 16734 H 1569.25 -2.05635 4.59046 0
M  V30 16735 H 1568.95 -0.803416 5.82082 0
M  V30 16736 H 1570.47 -1.73524 5.85424 0
M  V30 16737 H 1571.89 0.531499 5.70831 0
M  V30 16738 H 1570.29 1.30867 5.85657 0
M  V30 16739 H 1571.36 1.7618 4.51762 0
M  V30 16740 N 1572.7 -1.51554 0.432352 0
M  V30 16741 C 1573.92 -2.06947 -0.136995 0
M  V30 16742 C 1574.35 -1.29817 -1.36122 0
M  V30 16743 O 1573.71 -0.334733 -1.78183 0
M  V30 16744 C 1573.75 -3.57871 -0.442785 0
M  V30 16745 O 1572.86 -3.82966 -1.53007 0
M  V30 16746 H 1572.2 -0.663988 -0.00405152 0
M  V30 16747 H 1574.73 -1.95225 0.612249 0
M  V30 16748 H 1574.74 -4.02042 -0.694694 0
M  V30 16749 H 1573.41 -4.13436 0.452013 0
M  V30 16750 H 1571.99 -3.50661 -1.26851 0
M  V30 16751 N 1574.18 -0.163538 -1.56749 0
M  V30 16752 C 1575.42 0.485954 -1.98539 0
M  V30 16753 C 1575.78 1.60942 -1.04698 0
M  V30 16754 O 1576.98 2.32092 -1.35598 0
M  V30 16755 C 1575.25 0.963784 -3.4416 0
M  V30 16756 S 1576.81 1.61555 -4.07977 0
M  V30 16757 H 1573.63 0.15658 -0.693544 0
M  V30 16758 H 1576.23 -0.259161 -1.93775 0
M  V30 16759 H 1574.94 0.135594 -4.10176 0
M  V30 16760 H 1574.47 1.74313 -3.52674 0
M  V30 16761 H 1576.48 2.90344 -4.02387 0
M  V30 16762 N 1575.65 1.57214 0.110213 0
M  V30 16763 C 1576.58 2.04015 1.13579 0
M  V30 16764 C 1577.57 0.926215 1.42672 0
M  V30 16765 O 1578.75 1.19651 1.52962 0
M  V30 16766 C 1575.88 2.45187 2.45969 0
M  V30 16767 C 1574.83 3.60105 2.31319 0
M  V30 16768 C 1574.16 3.87205 3.68749 0
M  V30 16769 C 1575.46 4.91526 1.76635 0
M  V30 16770 H 1577.15 2.89944 0.746496 0
M  V30 16771 H 1574.7 1.39488 0.357642 0
M  V30 16772 H 1576.65 2.76534 3.17973 0
M  V30 16773 H 1575.38 1.56238 2.86805 0
M  V30 16774 H 1574.04 3.28981 1.61762 0
M  V30 16775 H 1573.68 2.95448 4.07087 0
M  V30 16776 H 1573.38 4.64563 3.59798 0
M  V30 16777 H 1574.91 4.21013 4.42245 0
M  V30 16778 H 1576.32 5.21351 2.38465 0
M  V30 16779 H 1574.72 5.72944 1.78482 0
M  V30 16780 H 1575.79 4.79456 0.724573 0
M  V30 16781 N 1577.13 -0.380637 1.52934 0
M  V30 16782 C 1578.54 -0.958182 1.60237 0
M  V30 16783 C 1578.89 -1.90722 0.460393 0
M  V30 16784 O 1578.02 -2.12376 -0.415354 0
M  V30 16785 C 1578.61 -1.7446 2.90429 0
M  V30 16786 C 1577.17 -2.27172 3.00116 0
M  V30 16787 C 1576.32 -1.07969 2.55417 0
M  V30 16788 H 1579.27 -0.159908 1.57892 0
M  V30 16789 H 1579.29 -2.60456 2.77385 0
M  V30 16790 H 1578.8 -1.05362 3.73524 0
M  V30 16791 H 1576.91 -2.99557 2.21577 0
M  V30 16792 H 1577.02 -2.56086 4.04916 0
M  V30 16793 H 1575.38 -1.4422 2.09935 0
M  V30 16794 H 1576.17 -0.403925 3.40915 0
M  V30 16795 N 1578.61 -1.44039 -0.639573 0
M  V30 16796 C 1580.03 -1.2774 -0.956802 0
M  V30 16797 C 1580.23 -0.207018 -2.00434 0
M  V30 16798 O 1579.28 0.409954 -2.4915 0
M  V30 16799 C 1580.6 -2.64624 -1.42809 0
M  V30 16800 C 1582.14 -2.72266 -1.54402 0
M  V30 16801 C 1582.62 -4.09601 -2.04918 0
M  V30 16802 N 1584.11 -4.11735 -2.122 0
M  V30 16803 C 1584.84 -5.14842 -2.52439 0
M  V30 16804 N 1584.34 -6.28316 -2.91875 0
M  V30 16805 N 1586.13 -5.02196 -2.52499 0
M  V30 16806 H 1578.28 -2.12333 0.0533569 0
M  V30 16807 H 1580.55 -0.947208 -0.0387401 0
M  V30 16808 H 1580.25 -3.43983 -0.732728 0
M  V30 16809 H 1580.13 -2.90944 -2.40066 0
M  V30 16810 H 1582.51 -1.93232 -2.23037 0
M  V30 16811 H 1582.6 -2.49697 -0.555426 0
M  V30 16812 H 1582.24 -4.89108 -1.3688 0
M  V30 16813 H 1582.17 -4.29542 -3.04633 0
M  V30 16814 H 1584.66 -3.29833 -1.84441 0
M  V30 16815 H 1584.97 -7.0281 -3.21368 0
M  V30 16816 H 1583.32 -6.31767 -2.89647 0
M  V30 16817 H 1586.51 -4.12606 -2.21075 0
M  V30 16818 H 1586.68 -5.82677 -2.83535 0
M  V30 16819 N 1580.09 0.879207 -1.30796 0
M  V30 16820 C 1581 2.01822 -1.19604 0
M  V30 16821 C 1582.01 1.73621 -0.114715 0
M  V30 16822 O 1583.19 1.98665 -0.330757 0
M  V30 16823 C 1580.26 3.3496 -0.894569 0
M  V30 16824 C 1579.32 3.76545 -2.06185 0
M  V30 16825 C 1578.55 5.0333 -1.77467 0
M  V30 16826 O 1578.77 5.66022 -0.70535 0
M  V30 16827 O 1577.71 5.41461 -2.62876 0
M  V30 16828 H 1581.53 2.14194 -2.15301 0
M  V30 16829 H 1579.12 1.00608 -1.10446 0
M  V30 16830 H 1581 4.14818 -0.741891 0
M  V30 16831 H 1579.67 3.23684 0.0324464 0
M  V30 16832 H 1578.58 2.97367 -2.26988 0
M  V30 16833 H 1579.91 3.92434 -2.97079 0
M  V30 16834 N 1581.57 1.13606 1.09231 0
M  V30 16835 C 1582.98 0.87469 1.33497 0
M  V30 16836 C 1583.18 -0.488687 1.95484 0
M  V30 16837 O 1582.24 -1.23478 2.20249 0
M  V30 16838 C 1583.55 2.00086 2.24468 0
M  V30 16839 C 1585.1 2.03319 2.37972 0
M  V30 16840 C 1585.58 3.15205 3.3228 0
M  V30 16841 N 1587.07 3.14728 3.39854 0
M  V30 16842 C 1587.8 3.97941 4.12833 0
M  V30 16843 N 1587.3 4.91172 4.88591 0
M  V30 16844 N 1589.09 3.86032 4.08578 0
M  V30 16845 H 1581.24 2.01432 0.673709 0
M  V30 16846 H 1583.5 0.877259 0.359334 0
M  V30 16847 H 1583.21 2.98397 1.86151 0
M  V30 16848 H 1583.08 1.91673 3.24871 0
M  V30 16849 H 1585.47 1.0562 2.75551 0
M  V30 16850 H 1585.55 2.15804 1.3734 0
M  V30 16851 H 1585.2 4.13143 2.95423 0
M  V30 16852 H 1585.13 2.99957 4.3282 0
M  V30 16853 H 1587.62 2.47196 2.85837 0
M  V30 16854 H 1587.93 5.5115 5.41714 0
M  V30 16855 H 1586.28 4.95177 4.87673 0
M  V30 16856 H 1589.47 3.12522 3.48494 0
M  V30 16857 H 1589.64 4.51111 4.65191 0
M  V30 16858 N 1583.05 -1.27244 0.929878 0
M  V30 16859 C 1583.98 -2.29161 0.448066 0
M  V30 16860 C 1584.96 -1.62806 -0.492776 0
M  V30 16861 O 1586.14 -1.90098 -0.39706 0
M  V30 16862 C 1583.27 -3.46019 -0.298002 0
M  V30 16863 C 1582.23 -4.24384 0.555211 0
M  V30 16864 C 1581.55 -5.33741 -0.320153 0
M  V30 16865 C 1582.85 -4.89535 1.8208 0
M  V30 16866 H 1584.55 -2.69712 1.29983 0
M  V30 16867 H 1582.09 -1.29659 0.626466 0
M  V30 16868 H 1584.04 -4.16419 -0.646024 0
M  V30 16869 H 1582.77 -3.0439 -1.18381 0
M  V30 16870 H 1581.43 -3.55733 0.885971 0
M  V30 16871 H 1581.08 -4.88354 -1.20498 0
M  V30 16872 H 1580.78 -5.8708 0.247241 0
M  V30 16873 H 1582.3 -6.06982 -0.663697 0
M  V30 16874 H 1583.71 -5.52209 1.54071 0
M  V30 16875 H 1582.11 -5.52941 2.33186 0
M  V30 16876 H 1583.18 -4.13113 2.53901 0
M  V30 16877 N 1584.52 -0.695628 -1.41417 0
M  V30 16878 C 1585.75 -0.235654 -2.05554 0
M  V30 16879 C 1586.17 1.11513 -1.52349 0
M  V30 16880 O 1585.52 1.69688 -0.671743 0
M  V30 16881 C 1585.57 -0.184809 -3.61027 0
M  V30 16882 O 1585.3 -1.48224 -4.12264 0
M  V30 16883 C 1586.8 0.296147 -4.4231 0
M  V30 16884 H 1584.02 -0.109648 -0.661981 0
M  V30 16885 H 1586.56 -0.948227 -1.81187 0
M  V30 16886 H 1584.72 0.478588 -3.84432 0
M  V30 16887 H 1585.13 -1.36939 -5.06308 0
M  V30 16888 H 1586.6 0.280597 -5.51286 0
M  V30 16889 H 1587.08 1.33503 -4.18418 0
M  V30 16890 H 1587.69 -0.336253 -4.23969 0
M  V30 16891 N 1586 1.51322 -0.440383 0
M  V30 16892 C 1587.23 2.0653 0.123649 0
M  V30 16893 C 1587.64 1.30751 1.36197 0
M  V30 16894 O 1587 0.367932 1.78753 0
M  V30 16895 C 1587.05 3.58778 0.442802 0
M  V30 16896 O 1586.77 4.31695 -0.746375 0
M  V30 16897 C 1588.27 4.3051 1.05717 0
M  V30 16898 H 1585.49 0.670968 0.00657466 0
M  V30 16899 H 1588.04 1.94864 -0.620341 0
M  V30 16900 H 1586.19 3.70349 1.13669 0
M  V30 16901 H 1586.61 5.22368 -0.472466 0
M  V30 16902 H 1588.08 5.38111 1.23046 0
M  V30 16903 H 1588.56 3.88999 2.03903 0
M  V30 16904 H 1589.16 4.2339 0.402574 0
M  V30 16905 N 1587.48 0.171848 1.5666 0
M  V30 16906 C 1588.44 -0.744316 2.16778 0
M  V30 16907 C 1589.44 -1.15769 1.11598 0
M  V30 16908 O 1590.63 -1.07456 1.37109 0
M  V30 16909 C 1587.76 -2.01319 2.75106 0
M  V30 16910 H 1588.96 -0.220952 2.99085 0
M  V30 16911 H 1586.51 -0.0777149 1.56107 0
M  V30 16912 H 1587.25 -2.57963 1.96534 0
M  V30 16913 H 1587.03 -1.72575 3.5208 0
M  V30 16914 H 1588.52 -2.667 3.21342 0
M  V30 16915 N 1588.96 -1.5727 -0.101874 0
M  V30 16916 C 1590.19 -1.89943 -0.820329 0
M  V30 16917 C 1590.6 -0.764867 -1.72613 0
M  V30 16918 O 1589.96 0.263499 -1.80588 0
M  V30 16919 C 1590.01 -3.2219 -1.63939 0
M  V30 16920 O 1589.73 -4.31279 -0.770039 0
M  V30 16921 C 1591.23 -3.6868 -2.46151 0
M  V30 16922 H 1588.45 -0.628532 -0.234922 0
M  V30 16923 H 1590.99 -2.04339 -0.0811362 0
M  V30 16924 H 1589.15 -3.09411 -2.33117 0
M  V30 16925 H 1589.56 -5.07182 -1.33665 0
M  V30 16926 H 1591.04 -4.63928 -2.99124 0
M  V30 16927 H 1591.51 -2.96183 -3.24303 0
M  V30 16928 H 1592.12 -3.84303 -1.82185 0
M  V30 16929 N 1590.44 0.372521 -1.53134 0
M  V30 16930 C 1591.4 1.43875 -1.78417 0
M  V30 16931 C 1592.4 1.46879 -0.654455 0
M  V30 16932 O 1593.59 1.47761 -0.922619 0
M  V30 16933 C 1590.72 2.83046 -1.89994 0
M  V30 16934 H 1591.91 1.22733 -2.73636 0
M  V30 16935 H 1589.47 0.605247 -1.44106 0
M  V30 16936 H 1590.2 3.09511 -0.968179 0
M  V30 16937 H 1589.99 2.82265 -2.72156 0
M  V30 16938 H 1591.48 3.60273 -2.11171 0
M  V30 16939 N 1591.91 1.44376 0.631925 0
M  V30 16940 C 1592.88 1.50825 1.72582 0
M  V30 16941 C 1593.88 0.390379 1.55989 0
M  V30 16942 O 1595.07 0.65297 1.61499 0
M  V30 16943 C 1592.2 1.38141 3.11657 0
M  V30 16944 H 1593.39 2.48265 1.68239 0
M  V30 16945 H 1590.94 1.31456 0.845514 0
M  V30 16946 H 1591.68 0.417905 3.21596 0
M  V30 16947 H 1591.46 2.19198 3.25107 0
M  V30 16948 H 1592.95 1.45633 3.91383 0
M  V30 16949 N 1593.39 -0.872258 1.31261 0
M  V30 16950 C 1594.32 -1.99517 1.21306 0
M  V30 16951 C 1595.3 -1.69801 0.100775 0
M  V30 16952 O 1596.49 -1.92098 0.284984 0
M  V30 16953 C 1593.62 -3.34968 0.917249 0
M  V30 16954 C 1592.57 -3.78984 1.98885 0
M  V30 16955 C 1591.9 -5.11869 1.54578 0
M  V30 16956 C 1593.2 -3.96338 3.40167 0
M  V30 16957 H 1594.89 -2.08104 2.15251 0
M  V30 16958 H 1592.44 -0.999865 1.03628 0
M  V30 16959 H 1594.39 -4.1306 0.834217 0
M  V30 16960 H 1593.11 -3.26549 -0.0578721 0
M  V30 16961 H 1591.77 -3.0313 2.06174 0
M  V30 16962 H 1591.42 -4.99889 0.558581 0
M  V30 16963 H 1591.12 -5.4229 2.26265 0
M  V30 16964 H 1592.65 -5.92472 1.47678 0
M  V30 16965 H 1594.06 -4.64831 3.35566 0
M  V30 16966 H 1592.46 -4.38153 4.10051 0
M  V30 16967 H 1593.53 -2.9979 3.81122 0
M  V30 16968 N 1594.87 -1.14184 -1.08627 0
M  V30 16969 C 1596.09 -0.932504 -1.85254 0
M  V30 16970 C 1596.52 0.513792 -1.80947 0
M  V30 16971 O 1595.88 1.36525 -1.19292 0
M  V30 16972 C 1595.93 -1.43519 -3.30809 0
M  V30 16973 O 1595.03 -0.625806 -4.07624 0
M  V30 16974 H 1594.37 -0.333573 -0.57413 0
M  V30 16975 H 1596.9 -1.51853 -1.3712 0
M  V30 16976 H 1596.91 -1.44238 -3.81654 0
M  V30 16977 H 1595.59 -2.48819 -3.3326 0
M  V30 16978 H 1594.16 -0.687168 -3.66514 0
M  V30 16979 N 1596.35 1.26749 -0.936613 0
M  V30 16980 C 1597.6 1.93964 -0.581754 0
M  V30 16981 C 1597.92 1.73532 0.878449 0
M  V30 16982 O 1597.18 1.06295 1.64316 0
M  V30 16983 C 1597.48 3.4678 -0.864789 0
M  V30 16984 C 1597.14 3.87344 -2.30815 0
M  V30 16985 C 1595.81 3.98129 -2.70271 0
M  V30 16986 C 1598.16 4.07752 -3.24634 0
M  V30 16987 C 1595.49 4.26717 -4.02653 0
M  V30 16988 C 1597.84 4.37827 -4.56607 0
M  V30 16989 C 1596.5 4.46826 -4.95886 0
M  V30 16990 H 1595.77 0.709763 -0.212879 0
M  V30 16991 H 1598.42 1.50648 -1.18226 0
M  V30 16992 H 1596.72 3.91378 -0.181699 0
M  V30 16993 H 1598.42 3.96942 -0.569065 0
M  V30 16994 H 1595.01 3.79492 -1.99207 0
M  V30 16995 H 1599.19 3.98852 -2.95349 0
M  V30 16996 H 1594.45 4.31895 -4.32755 0
M  V30 16997 H 1598.62 4.52565 -5.293 0
M  V30 16998 H 1596.25 4.68732 -5.98494 0
M  V30 16999 N 1597.83 0.703118 1.41046 0
M  V30 17000 C 1599.24 0.311167 1.84089 0
M  V30 17001 C 1599.59 -1.15202 1.58818 0
M  V30 17002 O 1598.71 -1.88518 1.06254 0
M  V30 17003 C 1599.31 0.557986 3.34174 0
M  V30 17004 C 1597.87 0.219875 3.75757 0
M  V30 17005 C 1597.01 0.836543 2.64381 0
M  V30 17006 H 1599.97 0.903211 1.30491 0
M  V30 17007 H 1599.99 -0.180865 3.8007 0
M  V30 17008 H 1599.5 1.62298 3.52535 0
M  V30 17009 H 1597.6 -0.840559 3.62995 0
M  V30 17010 H 1597.71 0.680165 4.74247 0
M  V30 17011 H 1596.08 0.265547 2.53312 0
M  V30 17012 H 1596.86 1.90556 2.85558 0
M  V30 17013 N 1599.3 -1.51086 0.448402 0
M  V30 17014 C 1600.53 -2.07081 -0.115038 0
M  V30 17015 C 1600.95 -1.31253 -1.34737 0
M  V30 17016 O 1600.31 -0.353613 -1.77818 0
M  V30 17017 C 1600.36 -3.58321 -0.404803 0
M  V30 17018 O 1599.46 -3.84567 -1.48936 0
M  V30 17019 H 1598.81 -0.663993 0.00299118 0
M  V30 17020 H 1601.34 -1.94564 0.632921 0
M  V30 17021 H 1601.35 -4.02756 -0.652013 0
M  V30 17022 H 1600.02 -4.12934 0.495838 0
M  V30 17023 H 1598.6 -3.51987 -1.23124 0
M  V30 17024 N 1600.78 -0.180154 -1.56567 0
M  V30 17025 C 1601.75 0.732809 -2.17169 0
M  V30 17026 C 1602.75 1.15176 -1.1221 0
M  V30 17027 O 1603.94 1.06728 -1.37677 0
M  V30 17028 C 1601.07 1.99857 -2.7617 0
M  V30 17029 H 1602.26 0.205088 -2.99198 0
M  V30 17030 H 1599.81 0.0694351 -1.56146 0
M  V30 17031 H 1600.55 2.56917 -1.97899 0
M  V30 17032 H 1600.33 1.70705 -3.5299 0
M  V30 17033 H 1601.82 2.64992 -3.22752 0
M  V30 17034 N 1602.26 1.57322 0.0935319 0
M  V30 17035 C 1603.22 2.0121 1.0976 0
M  V30 17036 C 1604.22 0.905839 1.32858 0
M  V30 17037 O 1605.41 1.17128 1.28945 0
M  V30 17038 C 1602.55 2.37414 2.44638 0
M  V30 17039 H 1603.74 2.91134 0.719809 0
M  V30 17040 H 1601.29 1.52588 0.338625 0
M  V30 17041 H 1602.03 1.50449 2.8729 0
M  V30 17042 H 1601.81 3.1812 2.2922 0
M  V30 17043 H 1603.3 2.7202 3.16851 0
M  V30 17044 N 1603.74 -0.364395 1.53329 0
M  V30 17045 C 1605.15 -0.941133 1.61244 0
M  V30 17046 C 1605.5 -1.90223 0.480596 0
M  V30 17047 O 1604.63 -2.12805 -0.392805 0
M  V30 17048 C 1605.22 -1.7137 2.92263 0
M  V30 17049 C 1603.78 -2.23976 3.02509 0
M  V30 17050 C 1602.93 -1.05253 2.56548 0
M  V30 17051 H 1605.88 -0.143153 1.58053 0
M  V30 17052 H 1605.9 -2.575 2.80132 0
M  V30 17053 H 1605.41 -1.01395 3.74621 0
M  V30 17054 H 1603.51 -2.9719 2.24741 0
M  V30 17055 H 1603.62 -2.51777 4.07609 0
M  V30 17056 H 1601.99 -1.41986 2.11452 0
M  V30 17057 H 1602.77 -0.367744 3.41325 0
M  V30 17058 N 1605.22 -1.44709 -0.62426 0
M  V30 17059 C 1606.47 -1.47131 -1.37968 0
M  V30 17060 C 1606.78 -0.110507 -1.95288 0
M  V30 17061 O 1607.98 -0.0122892 -2.71497 0
M  V30 17062 C 1606.44 -2.59059 -2.49833 0
M  V30 17063 C 1606.05 -4.01378 -1.98997 0
M  V30 17064 C 1607.79 -2.70709 -3.26981 0
M  V30 17065 C 1605.7 -5.04717 -3.08244 0
M  V30 17066 H 1604.63 -0.547424 -0.5185 0
M  V30 17067 H 1607.28 -1.70797 -0.670863 0
M  V30 17068 H 1605.66 -2.28646 -3.23322 0
M  V30 17069 H 1606.84 -4.41391 -1.32327 0
M  V30 17070 H 1605.15 -3.9403 -1.34644 0
M  V30 17071 H 1607.75 -3.45087 -4.08435 0
M  V30 17072 H 1608.09 -1.76763 -3.76909 0
M  V30 17073 H 1608.62 -3.00566 -2.60585 0
M  V30 17074 H 1605.36 -6.00315 -2.63253 0
M  V30 17075 H 1604.88 -4.6929 -3.73534 0
M  V30 17076 H 1606.56 -5.28725 -3.72906 0
M  V30 17077 N 1606.69 0.865285 -1.31722 0
M  V30 17078 C 1607.92 1.65137 -1.24649 0
M  V30 17079 C 1608.34 1.87868 0.187391 0
M  V30 17080 O 1607.69 1.44015 1.12098 0
M  V30 17081 C 1607.75 3.0167 -1.99193 0
M  V30 17082 O 1607.47 2.79951 -3.36985 0
M  V30 17083 C 1608.97 3.96115 -1.99017 0
M  V30 17084 H 1606.19 0.514683 -0.430514 0
M  V30 17085 H 1608.73 1.07971 -1.73674 0
M  V30 17086 H 1606.89 3.55511 -1.53918 0
M  V30 17087 H 1607.3 3.66706 -3.75002 0
M  V30 17088 H 1608.77 4.89217 -2.55677 0
M  V30 17089 H 1609.25 4.28268 -0.973815 0
M  V30 17090 H 1609.86 3.4821 -2.44192 0
M  V30 17091 N 1608.17 1.14759 1.0802 0
M  V30 17092 C 1609.42 0.918248 1.80484 0
M  V30 17093 C 1609.75 -0.554986 1.86414 0
M  V30 17094 O 1609 -1.42732 1.33888 0
M  V30 17095 C 1609.3 1.4692 3.25805 0
M  V30 17096 C 1608.97 2.96176 3.39987 0
M  V30 17097 C 1607.63 3.36923 3.43564 0
M  V30 17098 C 1609.98 3.92131 3.43341 0
M  V30 17099 C 1607.31 4.72281 3.48092 0
M  V30 17100 C 1609.66 5.27351 3.49404 0
M  V30 17101 C 1608.33 5.67605 3.51256 0
M  V30 17102 H 1607.6 0.336011 0.660437 0
M  V30 17103 H 1610.24 1.43191 1.27156 0
M  V30 17104 H 1608.55 0.876571 3.81868 0
M  V30 17105 H 1610.24 1.26765 3.80436 0
M  V30 17106 H 1606.83 2.63675 3.37896 0
M  V30 17107 H 1611.02 3.61728 3.39804 0
M  V30 17108 H 1606.27 5.02823 3.4782 0
M  V30 17109 H 1610.45 6.01507 3.50946 0
M  V30 17110 H 1608.08 6.72474 3.54517 0
M  V30 17111 N 1609.65 -1.26251 0.943322 0
M  V30 17112 C 1611.06 -1.75591 0.634391 0
M  V30 17113 C 1611.41 -1.76812 -0.850406 0
M  V30 17114 O 1610.54 -1.38162 -1.66554 0
M  V30 17115 C 1611.13 -3.18871 1.14484 0
M  V30 17116 C 1609.69 -3.65817 0.886285 0
M  V30 17117 C 1608.84 -2.4523 1.2945 0
M  V30 17118 H 1611.79 -1.12297 1.12139 0
M  V30 17119 H 1611.81 -3.77205 0.499654 0
M  V30 17120 H 1611.32 -3.17951 2.22551 0
M  V30 17121 H 1609.42 -3.72165 -0.179913 0
M  V30 17122 H 1609.54 -4.54523 1.5148 0
M  V30 17123 H 1607.9 -2.44519 0.712919 0
M  V30 17124 H 1608.68 -2.47009 2.38415 0
M  V30 17125 N 1611.13 -0.710588 -1.40671 0
M  V30 17126 C 1612.08 -0.0548139 -2.30735 0
M  V30 17127 C 1613.05 0.755572 -1.4792 0
M  V30 17128 O 1614.23 0.720541 -1.76672 0
M  V30 17129 C 1611.37 0.864648 -3.34093 0
M  V30 17130 C 1610.48 0.0442717 -4.31977 0
M  V30 17131 C 1609.62 0.962752 -5.22403 0
M  V30 17132 C 1608.66 0.13617 -6.11949 0
M  V30 17133 N 1607.8 1.00926 -6.94808 0
M  V30 17134 H 1612.64 -0.828555 -2.8625 0
M  V30 17135 H 1610.17 -0.420286 -1.40968 0
M  V30 17136 H 1612.13 1.41193 -3.92582 0
M  V30 17137 H 1610.76 1.60462 -2.80092 0
M  V30 17138 H 1609.81 -0.620132 -3.75311 0
M  V30 17139 H 1611.12 -0.595895 -4.95228 0
M  V30 17140 H 1610.28 1.57874 -5.85799 0
M  V30 17141 H 1609.02 1.63675 -4.59415 0
M  V30 17142 H 1608.02 -0.492793 -5.47587 0
M  V30 17143 H 1609.25 -0.534251 -6.76995 0
M  V30 17144 H 1607.19 1.669 -6.34413 0
M  V30 17145 H 1607.11 0.425013 -7.54804 0
M  V30 17146 H 1608.38 1.61159 -7.62659 0
M  V30 17147 N 1612.61 1.50847 -0.456408 0
M  V30 17148 C 1613.57 2.26755 0.33388 0
M  V30 17149 C 1614.57 1.30947 0.933247 0
M  V30 17150 O 1615.76 1.54499 0.804716 0
M  V30 17151 C 1612.89 3.07378 1.47417 0
M  V30 17152 H 1614.09 2.98061 -0.331634 0
M  V30 17153 H 1611.64 1.54882 -0.210067 0
M  V30 17154 H 1612.37 2.40534 2.17518 0
M  V30 17155 H 1612.16 3.7777 1.05036 0
M  V30 17156 H 1613.65 3.64826 2.03204 0
M  V30 17157 N 1614.09 0.188454 1.56469 0
M  V30 17158 C 1615.36 -0.499324 1.89119 0
M  V30 17159 C 1615.74 -1.80116 1.10098 0
M  V30 17160 O 1615.09 -2.27623 0.200048 0
M  V30 17161 C 1615.3 -0.724574 3.41396 0
M  V30 17162 C 1616.65 -1.04692 4.11491 0
M  V30 17163 O 1617.67 -0.812526 3.46809 0
M  V30 17164 O 1616.53 -1.48998 5.25797 0
M  V30 17165 H 1613.63 -0.259468 0.785242 0
M  V30 17166 H 1616.17 0.228172 1.68159 0
M  V30 17167 H 1614.94 0.195039 3.90814 0
M  V30 17168 H 1614.57 -1.50477 3.68025 0
M  V30 17169 N 1615.56 -1.5737 -0.0851874 0
M  V30 17170 C 1616.81 -1.85772 -0.785604 0
M  V30 17171 C 1617.13 -0.779172 -1.79411 0
M  V30 17172 O 1618.33 -0.950621 -2.54314 0
M  V30 17173 C 1616.79 -3.29484 -1.44805 0
M  V30 17174 C 1616.4 -4.45434 -0.478799 0
M  V30 17175 C 1618.14 -3.671 -2.13161 0
M  V30 17176 C 1616.05 -5.80183 -1.1464 0
M  V30 17177 H 1614.98 -0.69298 -0.297145 0
M  V30 17178 H 1617.63 -1.83459 -0.0386776 0
M  V30 17179 H 1616.01 -3.26367 -2.24278 0
M  V30 17180 H 1617.18 -4.59917 0.285148 0
M  V30 17181 H 1615.5 -4.16281 0.0995964 0
M  V30 17182 H 1618.1 -4.65061 -2.6386 0
M  V30 17183 H 1618.44 -2.96223 -2.92503 0
M  V30 17184 H 1618.97 -3.72148 -1.40536 0
M  V30 17185 H 1615.71 -6.54317 -0.393583 0
M  V30 17186 H 1615.23 -5.69525 -1.88153 0
M  V30 17187 H 1616.91 -6.25074 -1.67006 0
M  V30 17188 N 1617.04 0.356258 -1.53521 0
M  V30 17189 C 1618 1.41975 -1.79933 0
M  V30 17190 C 1619 1.46177 -0.669997 0
M  V30 17191 O 1620.19 1.46774 -0.938239 0
M  V30 17192 C 1617.33 2.81015 -1.92985 0
M  V30 17193 H 1618.52 1.19824 -2.74922 0
M  V30 17194 H 1616.07 0.589928 -1.4474 0
M  V30 17195 H 1616.81 3.08466 -1.00095 0
M  V30 17196 H 1616.59 2.79363 -2.75135 0
M  V30 17197 H 1618.08 3.58013 -2.1498 0
M  V30 17198 N 1618.52 1.45038 0.616577 0
M  V30 17199 C 1619.94 1.29246 0.936359 0
M  V30 17200 C 1620.14 0.238879 2.00079 0
M  V30 17201 O 1619.19 -0.370265 2.4977 0
M  V30 17202 C 1620.5 2.66863 1.38581 0
M  V30 17203 C 1622.05 2.74688 1.50051 0
M  V30 17204 C 1622.53 4.12809 1.98375 0
M  V30 17205 N 1624.02 4.15058 2.05623 0
M  V30 17206 C 1624.75 5.18793 2.44216 0
M  V30 17207 N 1624.25 6.3288 2.81843 0
M  V30 17208 N 1626.04 5.06149 2.44477 0
M  V30 17209 H 1618.19 2.12221 -0.0871304 0
M  V30 17210 H 1620.46 0.947705 0.0236659 0
M  V30 17211 H 1620.16 3.45105 0.677911 0
M  V30 17212 H 1620.04 2.94726 2.35407 0
M  V30 17213 H 1622.42 1.96756 2.19934 0
M  V30 17214 H 1622.5 2.50549 0.515631 0
M  V30 17215 H 1622.15 4.91223 1.29082 0
M  V30 17216 H 1622.08 4.34334 2.97761 0
M  V30 17217 H 1624.57 3.32726 1.79171 0
M  V30 17218 H 1624.88 7.07834 3.10147 0
M  V30 17219 H 1623.23 6.36295 2.7956 0
M  V30 17220 H 1626.42 4.16071 2.14482 0
M  V30 17221 H 1626.59 5.87114 2.74229 0
M  V30 17222 N 1620 -0.858287 1.32179 0
M  V30 17223 C 1621.24 -1.6146 1.22713 0
M  V30 17224 C 1621.58 -1.93045 -0.211479 0
M  V30 17225 O 1620.85 -1.57034 -1.14764 0
M  V30 17226 C 1621.13 -2.93728 2.08317 0
M  V30 17227 C 1620.99 -2.68947 3.60538 0
M  V30 17228 C 1622.31 -3.94959 1.94153 0
M  V30 17229 H 1619.43 -0.585872 0.447128 0
M  V30 17230 H 1622.07 -0.99134 1.62088 0
M  V30 17231 H 1620.22 -3.4692 1.74867 0
M  V30 17232 H 1621.89 -2.22336 4.04183 0
M  V30 17233 H 1620.13 -2.02974 3.83385 0
M  V30 17234 H 1620.8 -3.63112 4.15756 0
M  V30 17235 H 1623.28 -3.51013 2.23449 0
M  V30 17236 H 1622.16 -4.85371 2.56332 0
M  V30 17237 H 1622.42 -4.32672 0.908132 0
M  V30 17238 N 1621.48 -1.1533 -1.07409 0
M  V30 17239 C 1622.89 -0.937287 -1.61468 0
M  V30 17240 C 1623.24 0.521545 -1.89141 0
M  V30 17241 O 1622.36 1.39253 -1.65643 0
M  V30 17242 C 1622.96 -1.69501 -2.93351 0
M  V30 17243 C 1621.52 -1.52429 -3.44154 0
M  V30 17244 C 1620.66 -1.71098 -2.18222 0
M  V30 17245 H 1623.61 -1.30364 -0.905044 0
M  V30 17246 H 1623.64 -1.16416 -3.62253 0
M  V30 17247 H 1623.15 -2.75672 -2.73178 0
M  V30 17248 H 1621.25 -0.486498 -3.6941 0
M  V30 17249 H 1621.36 -2.30089 -4.20233 0
M  V30 17250 H 1619.73 -1.13745 -2.27891 0
M  V30 17251 H 1620.51 -2.78634 -2.00545 0
M  V30 17252 N 1622.95 1.25748 -0.950004 0
M  V30 17253 C 1624.18 1.97952 -0.618848 0
M  V30 17254 C 1624.6 1.70184 0.801194 0
M  V30 17255 O 1623.96 0.955032 1.54107 0
M  V30 17256 C 1624.01 3.49744 -0.878151 0
M  V30 17257 O 1623.11 4.12375 0.0453685 0
M  V30 17258 H 1622.45 0.620731 -0.235773 0
M  V30 17259 H 1624.98 1.59988 -1.27534 0
M  V30 17260 H 1624.99 4.00029 -0.802567 0
M  V30 17261 H 1623.67 3.69285 -1.91315 0
M  V30 17262 H 1622.25 3.7281 -0.0820265 0
M  V30 17263 N 1624.43 0.718038 1.40292 0
M  V30 17264 C 1625.34 0.0681535 2.34501 0
M  V30 17265 C 1626.36 -0.741048 1.57431 0
M  V30 17266 O 1627.53 -0.673437 1.89807 0
M  V30 17267 C 1624.6 -0.840758 3.36351 0
M  V30 17268 C 1623.66 -0.0212287 4.29295 0
M  V30 17269 C 1622.89 -0.886852 5.2628 0
M  V30 17270 O 1623.12 -2.12603 5.29298 0
M  V30 17271 O 1622.05 -0.324537 6.01024 0
M  V30 17272 H 1625.88 0.845288 2.91699 0
M  V30 17273 H 1623.46 0.478541 1.41529 0
M  V30 17274 H 1625.34 -1.36131 3.98806 0
M  V30 17275 H 1624.02 -1.597 2.81563 0
M  V30 17276 H 1622.92 0.544451 3.70117 0
M  V30 17277 H 1624.26 0.696846 4.87242 0
M  V30 17278 N 1625.91 -1.50602 0.464402 0
M  V30 17279 C 1626.82 -2.32142 -0.338721 0
M  V30 17280 C 1627.84 -1.4223 -1.00233 0
M  V30 17281 O 1629.01 -1.75288 -0.99177 0
M  V30 17282 C 1626.08 -3.16725 -1.41019 0
M  V30 17283 C 1625.14 -4.22449 -0.76388 0
M  V30 17284 C 1624.37 -5.0299 -1.78429 0
M  V30 17285 O 1624.59 -4.84516 -3.00999 0
M  V30 17286 O 1623.53 -5.86338 -1.35982 0
M  V30 17287 H 1627.35 -3.01927 0.327695 0
M  V30 17288 H 1624.94 -1.47675 0.226379 0
M  V30 17289 H 1626.82 -3.69228 -2.03097 0
M  V30 17290 H 1625.5 -2.49675 -2.06019 0
M  V30 17291 H 1624.4 -3.73955 -0.104318 0
M  V30 17292 H 1625.74 -4.9195 -0.156929 0
M  V30 17293 N 1627.39 -0.19675 -1.56367 0
M  V30 17294 C 1628.61 0.450245 -2.02454 0
M  V30 17295 C 1629.04 1.54287 -1.07597 0
M  V30 17296 O 1628.4 1.81202 -0.0597529 0
M  V30 17297 C 1628.44 0.982087 -3.46969 0
M  V30 17298 O 1627.55 2.09489 -3.5523 0
M  V30 17299 H 1626.89 0.105022 -0.655642 0
M  V30 17300 H 1629.42 -0.308112 -2.02267 0
M  V30 17301 H 1629.43 1.29826 -3.86793 0
M  V30 17302 H 1628.1 0.18224 -4.15501 0
M  V30 17303 H 1626.68 1.78723 -3.27281 0
M  V30 17304 N 1628.87 1.57413 0.0768405 0
M  V30 17305 C 1630.09 1.91224 0.790007 0
M  V30 17306 C 1630.51 0.792232 1.71374 0
M  V30 17307 O 1629.87 -0.234736 1.80984 0
M  V30 17308 C 1629.92 3.24757 1.58793 0
M  V30 17309 O 1629.64 4.3245 0.701329 0
M  V30 17310 C 1631.14 3.72549 2.40254 0
M  V30 17311 H 1628.36 0.63219 0.224893 0
M  V30 17312 H 1630.9 2.04442 0.0486173 0
M  V30 17313 H 1629.06 3.13081 2.28165 0
M  V30 17314 H 1629.47 5.09245 1.2558 0
M  V30 17315 H 1630.95 4.68628 2.91705 0
M  V30 17316 H 1631.42 3.01305 3.1955 0
M  V30 17317 H 1632.03 3.87153 1.76048 0
M  V30 17318 N 1630.34 -0.348112 1.53707 0
M  V30 17319 C 1631.57 -1.10903 1.74666 0
M  V30 17320 C 1631.99 -1.82499 0.483683 0
M  V30 17321 O 1631.34 -1.74191 -0.544419 0
M  V30 17322 C 1631.4 -2.12602 2.92374 0
M  V30 17323 O 1631.12 -1.43918 4.13787 0
M  V30 17324 C 1632.62 -3.01105 3.25347 0
M  V30 17325 H 1629.84 -0.330911 0.583728 0
M  V30 17326 H 1632.38 -0.401707 2.00516 0
M  V30 17327 H 1630.54 -2.78906 2.68869 0
M  V30 17328 H 1630.95 -2.11818 4.79826 0
M  V30 17329 H 1632.42 -3.68408 4.11071 0
M  V30 17330 H 1632.9 -3.66874 2.41455 0
M  V30 17331 H 1633.51 -2.40395 3.50842 0
M  V30 17332 N 1631.82 -1.45363 -0.608876 0
M  V30 17333 C 1632.75 -1.56778 -1.7304 0
M  V30 17334 C 1633.73 -0.419405 -1.64848 0
M  V30 17335 O 1634.92 -0.64238 -1.83268 0
M  V30 17336 C 1632.05 -1.5329 -3.1164 0
M  V30 17337 C 1631 -2.66832 -3.34641 0
M  V30 17338 C 1630.33 -2.48398 -4.735 0
M  V30 17339 C 1631.63 -4.0885 -3.25021 0
M  V30 17340 H 1633.32 -2.50656 -1.63743 0
M  V30 17341 H 1630.87 -1.20635 -0.786338 0
M  V30 17342 H 1632.82 -1.59873 -3.89895 0
M  V30 17343 H 1631.55 -0.559414 -3.21773 0
M  V30 17344 H 1630.2 -2.59675 -2.58775 0
M  V30 17345 H 1629.85 -1.49191 -4.80366 0
M  V30 17346 H 1629.55 -3.24537 -4.89846 0
M  V30 17347 H 1631.08 -2.56833 -5.53958 0
M  V30 17348 H 1632.49 -4.17257 -3.93153 0
M  V30 17349 H 1630.89 -4.85369 -3.52897 0
M  V30 17350 H 1631.96 -4.30849 -2.2248 0
M  V30 17351 N 1633.3 0.851265 -1.32632 0
M  V30 17352 C 1634.55 1.60807 -1.23568 0
M  V30 17353 C 1634.88 1.93155 0.201238 0
M  V30 17354 O 1634.15 1.5764 1.13929 0
M  V30 17355 C 1634.44 2.92619 -2.09872 0
M  V30 17356 C 1634.29 2.67031 -3.61959 0
M  V30 17357 C 1635.61 3.93924 -1.96244 0
M  V30 17358 H 1632.73 0.583492 -0.450229 0
M  V30 17359 H 1635.37 0.98273 -1.62611 0
M  V30 17360 H 1633.52 3.45988 -1.76704 0
M  V30 17361 H 1635.19 2.2019 -4.05357 0
M  V30 17362 H 1633.44 2.00938 -3.84456 0
M  V30 17363 H 1634.11 3.60902 -4.17676 0
M  V30 17364 H 1636.58 3.49823 -2.25307 0
M  V30 17365 H 1635.46 4.84005 -2.58902 0
M  V30 17366 H 1635.72 4.32185 -0.931065 0
M  V30 17367 N 1634.78 1.15898 1.06796 0
M  V30 17368 C 1635.71 0.818654 2.14081 0
M  V30 17369 C 1636.72 -0.171847 1.6189 0
M  V30 17370 O 1637.91 0.052196 1.78424 0
M  V30 17371 C 1635.01 0.197283 3.38325 0
M  V30 17372 C 1634.19 1.22662 4.19849 0
M  V30 17373 C 1633.24 0.625985 5.22463 0
M  V30 17374 O 1632.27 1.29347 5.54309 0
M  V30 17375 N 1633.47 -0.589665 5.77497 0
M  V30 17376 H 1636.24 1.74196 2.43877 0
M  V30 17377 H 1633.8 1.05562 1.22753 0
M  V30 17378 H 1635.79 -0.217439 4.04115 0
M  V30 17379 H 1634.36 -0.629476 3.06197 0
M  V30 17380 H 1633.58 1.8177 3.49791 0
M  V30 17381 H 1634.87 1.92143 4.71125 0
M  V30 17382 H 1634.27 -1.15022 5.53883 0
M  V30 17383 H 1632.82 -0.946667 6.44889 0
M  V30 17384 N 1636.26 -1.25243 0.956659 0
M  V30 17385 C 1637.2 -2.2781 0.46963 0
M  V30 17386 C 1638.2 -1.63003 -0.461138 0
M  V30 17387 O 1639.4 -1.76805 -0.337644 0
M  V30 17388 H 1635.78 -0.740078 0.133374 0
M  V30 17389 H 1637.75 -2.66273 1.34689 0
M  V30 17390 C 1636.5 -3.46904 -0.235206 0
M  V30 17391 H 1635.82 -3.97006 0.471869 0
M  V30 17392 H 1637.26 -4.20548 -0.539969 0
M  V30 17393 C 1635.72 -3.03697 -1.45841 0
M  V30 17394 O 1636.25 -3.09887 -2.55603 0
M  V30 17395 N 1634.46 -2.58866 -1.32049 0
M  V30 17396 H 1634 -2.54029 -0.427428 0
M  V30 17397 H 1633.96 -2.30322 -2.14008 0
M  V30 17398 N 1637.73 -0.725468 -1.3991 0
M  V30 17399 C 1639.15 -0.340415 -1.8357 0
M  V30 17400 C 1639.5 1.1266 -1.6063 0
M  V30 17401 O 1638.62 1.86804 -1.0924 0
M  V30 17402 C 1639.22 -0.611079 -3.33244 0
M  V30 17403 C 1637.78 -0.279627 -3.7536 0
M  V30 17404 C 1636.92 -0.878498 -2.63017 0
M  V30 17405 H 1639.87 -0.923856 -1.29037 0
M  V30 17406 H 1639.89 0.120377 -3.8031 0
M  V30 17407 H 1639.41 -1.67886 -3.49908 0
M  V30 17408 H 1637.51 0.782703 -3.64286 0
M  V30 17409 H 1637.62 -0.755528 -4.73105 0
M  V30 17410 H 1635.98 -0.305813 -2.52857 0
M  V30 17411 H 1636.77 -1.95075 -2.8249 0
M  V30 17412 N 1639.21 1.50354 -0.472382 0
M  V30 17413 C 1640.14 2.3142 0.310995 0
M  V30 17414 C 1641.12 1.38383 0.989151 0
M  V30 17415 O 1642.31 1.67303 0.986074 0
M  V30 17416 C 1639.44 3.18157 1.3926 0
M  V30 17417 C 1638.39 4.19756 0.835977 0
M  V30 17418 C 1637.72 4.9524 2.01597 0
M  V30 17419 C 1639.02 5.22074 -0.15361 0
M  V30 17420 H 1640.71 2.97159 -0.365595 0
M  V30 17421 H 1638.26 1.42905 -0.177266 0
M  V30 17422 H 1640.21 3.73666 1.94813 0
M  V30 17423 H 1638.94 2.50305 2.09798 0
M  V30 17424 H 1637.59 3.65351 0.302414 0
M  V30 17425 H 1637.24 4.2386 2.70836 0
M  V30 17426 H 1636.94 5.63966 1.64974 0
M  V30 17427 H 1638.47 5.53584 2.57637 0
M  V30 17428 H 1639.88 5.72446 0.312783 0
M  V30 17429 H 1638.28 5.98527 -0.43418 0
M  V30 17430 H 1639.35 4.72741 -1.07908 0
M  V30 17431 N 1640.69 0.205039 1.56261 0
M  V30 17432 C 1641.62 -0.706815 2.22545 0
M  V30 17433 C 1642.6 -1.21372 1.19176 0
M  V30 17434 O 1643.79 -1.26074 1.47712 0
M  V30 17435 C 1640.92 -1.92221 2.89255 0
M  V30 17436 C 1639.87 -1.54982 3.98954 0
M  V30 17437 C 1639.2 -2.84265 4.52877 0
M  V30 17438 C 1640.5 -0.75225 5.16854 0
M  V30 17439 H 1642.19 -0.15421 2.99003 0
M  V30 17440 H 1639.74 -0.0727309 1.43816 0
M  V30 17441 H 1641.69 -2.56542 3.34311 0
M  V30 17442 H 1640.41 -2.49952 2.10218 0
M  V30 17443 H 1639.07 -0.930155 3.54604 0
M  V30 17444 H 1638.72 -3.40105 3.70591 0
M  V30 17445 H 1638.42 -2.60089 5.26904 0
M  V30 17446 H 1639.95 -3.49557 5.00642 0
M  V30 17447 H 1641.36 -1.29878 5.58395 0
M  V30 17448 H 1639.76 -0.60823 5.9701 0
M  V30 17449 H 1640.83 0.24463 4.84283 0
M  V30 17450 N 1642.17 -1.57451 -0.0684915 0
M  V30 17451 C 1643.1 -2.06954 -1.0813 0
M  V30 17452 C 1644.08 -0.963716 -1.40166 0
M  V30 17453 O 1645.27 -1.23664 -1.49736 0
M  V30 17454 C 1642.4 -2.51622 -2.39381 0
M  V30 17455 C 1641.35 -3.66111 -2.2169 0
M  V30 17456 C 1640.68 -3.96846 -3.58354 0
M  V30 17457 C 1641.98 -4.96036 -1.63541 0
M  V30 17458 H 1643.67 -2.91822 -0.66936 0
M  V30 17459 H 1641.22 -1.40387 -0.320533 0
M  V30 17460 H 1643.17 -2.84867 -3.1053 0
M  V30 17461 H 1641.89 -1.63788 -2.82562 0
M  V30 17462 H 1640.55 -3.33155 -1.52982 0
M  V30 17463 H 1640.2 -3.06137 -3.9911 0
M  V30 17464 H 1639.9 -4.73939 -3.47354 0
M  V30 17465 H 1641.42 -4.3259 -4.30927 0
M  V30 17466 H 1642.84 -5.27491 -2.24559 0
M  V30 17467 H 1641.23 -5.77474 -1.63228 0
M  V30 17468 H 1642.3 -4.81208 -0.597199 0
M  V30 17469 N 1643.65 0.339955 -1.5389 0
M  V30 17470 C 1644.58 1.42316 -1.85117 0
M  V30 17471 C 1645.56 1.5473 -0.706591 0
M  V30 17472 O 1646.74 1.68879 -0.958834 0
M  V30 17473 C 1643.87 2.79317 -2.06396 0
M  V30 17474 C 1642.83 2.81707 -3.22219 0
M  V30 17475 C 1642.15 4.21627 -3.28838 0
M  V30 17476 C 1643.45 2.46921 -4.60247 0
M  V30 17477 H 1645.15 1.16431 -2.75834 0
M  V30 17478 H 1642.69 0.558661 -1.32721 0
M  V30 17479 H 1644.65 3.55145 -2.26826 0
M  V30 17480 H 1643.37 3.06644 -1.12414 0
M  V30 17481 H 1642.03 2.08332 -3.01651 0
M  V30 17482 H 1641.68 4.4607 -2.32444 0
M  V30 17483 H 1641.38 4.24137 -4.06672 0
M  V30 17484 H 1642.9 4.99292 -3.51482 0
M  V30 17485 H 1644.32 3.12462 -4.80667 0
M  V30 17486 H 1642.71 2.60707 -5.40511 0
M  V30 17487 H 1643.78 1.421 -4.63611 0
M  V30 17488 N 1645.13 1.45684 0.601159 0
M  V30 17489 C 1646.04 1.57396 1.73965 0
M  V30 17490 C 1647.05 0.458133 1.6786 0
M  V30 17491 O 1648.23 0.719717 1.88101 0
M  V30 17492 C 1645.29 1.54363 3.1044 0
M  V30 17493 C 1644.35 2.77034 3.27949 0
M  V30 17494 C 1643.59 2.74136 4.57914 0
M  V30 17495 O 1643.81 1.81829 5.40643 0
M  V30 17496 O 1642.74 3.65428 4.78274 0
M  V30 17497 H 1646.57 2.5364 1.67034 0
M  V30 17498 H 1644.15 1.28267 0.766017 0
M  V30 17499 H 1646.04 1.55302 3.91739 0
M  V30 17500 H 1644.71 0.612723 3.17848 0
M  V30 17501 H 1643.62 2.81655 2.46214 0
M  V30 17502 H 1644.95 3.69272 3.25422 0
M  V30 17503 N 1646.6 -0.84422 1.33082 0
M  V30 17504 C 1647.55 -1.97504 1.22862 0
M  V30 17505 C 1648.55 -1.68892 0.131141 0
M  V30 17506 O 1649.75 -1.7757 0.294753 0
M  V30 17507 H 1646.13 -0.648263 0.381129 0
M  V30 17508 H 1648.1 -2.03249 2.18478 0
M  V30 17509 C 1646.85 -3.33626 0.979228 0
M  V30 17510 H 1646.17 -3.56178 1.81596 0
M  V30 17511 H 1647.61 -4.13266 0.948007 0
M  V30 17512 C 1646.07 -3.35397 -0.317922 0
M  V30 17513 O 1646.6 -3.7917 -1.32638 0
M  V30 17514 N 1644.8 -2.88562 -0.343577 0
M  V30 17515 H 1644.35 -2.53133 0.477625 0
M  V30 17516 H 1644.31 -2.90129 -1.21131 0
M  V30 17517 N 1648.08 -1.16463 -1.0618 0
M  V30 17518 C 1649.03 -0.87224 -2.13683 0
M  V30 17519 C 1650 0.179784 -1.65124 0
M  V30 17520 O 1651.18 0.0447406 -1.90748 0
M  V30 17521 C 1648.32 -0.380728 -3.42993 0
M  V30 17522 C 1647.44 -1.49571 -4.05281 0
M  V30 17523 C 1646.57 -0.959099 -5.2247 0
M  V30 17524 C 1645.61 -2.05021 -5.76743 0
M  V30 17525 N 1644.75 -1.5291 -6.85247 0
M  V30 17526 H 1649.59 -1.79288 -2.38033 0
M  V30 17527 H 1647.12 -0.894379 -1.16787 0
M  V30 17528 H 1649.08 -0.0773816 -4.17128 0
M  V30 17529 H 1647.71 0.502966 -3.18857 0
M  V30 17530 H 1646.76 -1.915 -3.28682 0
M  V30 17531 H 1648.08 -2.31904 -4.41613 0
M  V30 17532 H 1647.23 -0.609003 -6.03636 0
M  V30 17533 H 1645.97 -0.105086 -4.87587 0
M  V30 17534 H 1644.97 -2.40899 -4.94214 0
M  V30 17535 H 1646.2 -2.90821 -6.13678 0
M  V30 17536 H 1644.15 -0.697639 -6.5228 0
M  V30 17537 H 1644.06 -2.28859 -7.20527 0
M  V30 17538 H 1645.33 -1.20762 -7.70089 0
M  V30 17539 N 1649.56 1.24734 -0.963288 0
M  V30 17540 C 1650.97 1.7456 -0.662246 0
M  V30 17541 C 1651.32 1.78143 0.822169 0
M  V30 17542 O 1650.45 1.40794 1.64335 0
M  V30 17543 C 1651.04 3.1701 -1.19542 0
M  V30 17544 C 1649.6 3.64361 -0.944371 0
M  V30 17545 C 1648.75 2.4314 -1.33335 0
M  V30 17546 H 1651.7 1.10498 -1.13911 0
M  V30 17547 H 1651.72 3.76362 -0.559601 0
M  V30 17548 H 1651.23 3.1437 -2.27581 0
M  V30 17549 H 1649.33 3.72405 0.120682 0
M  V30 17550 H 1649.45 4.52055 -1.58692 0
M  V30 17551 H 1647.81 2.43354 -0.751729 0
M  V30 17552 H 1648.59 2.43185 -2.42314 0
M  V30 17553 N 1651.04 0.732878 1.39523 0
M  V30 17554 C 1652.26 0.288717 2.05381 0
M  V30 17555 C 1652.69 -1.06727 1.5489 0
M  V30 17556 O 1652.05 -1.67585 0.691726 0
M  V30 17557 C 1652.09 0.297738 3.59369 0
M  V30 17558 O 1651.2 -0.715335 4.06149 0
M  V30 17559 H 1650.54 0.131696 0.650809 0
M  V30 17560 H 1653.07 0.998206 1.78597 0
M  V30 17561 H 1653.08 0.141391 4.07755 0
M  V30 17562 H 1651.75 1.28719 3.9548 0
M  V30 17563 H 1650.33 -0.525298 3.69182 0
M  V30 17564 N 1652.52 -1.50101 0.480349 0
M  V30 17565 C 1653.76 -2.02674 -0.0715373 0
M  V30 17566 C 1654.09 -1.36095 -1.38535 0
M  V30 17567 O 1653.37 -0.489703 -1.88234 0
M  V30 17568 C 1653.65 -3.59261 -0.245693 0
M  V30 17569 C 1653.51 -4.36399 1.08979 0
M  V30 17570 C 1654.82 -4.28682 -0.995966 0
M  V30 17571 H 1651.94 -0.736592 -0.0245244 0
M  V30 17572 H 1654.59 -1.7933 0.627743 0
M  V30 17573 H 1652.74 -3.79281 -0.841308 0
M  V30 17574 H 1654.41 -4.27926 1.72269 0
M  V30 17575 H 1652.65 -3.99773 1.68417 0
M  V30 17576 H 1653.32 -5.44254 0.921468 0
M  V30 17577 H 1655.8 -4.13193 -0.491025 0
M  V30 17578 H 1654.67 -5.38037 -1.08663 0
M  V30 17579 H 1654.93 -3.92491 -2.03479 0
M  V30 17580 N 1653.99 -0.213323 -1.5615 0
M  V30 17581 C 1654.9 0.711703 -2.23544 0
M  V30 17582 C 1655.92 1.22027 -1.24038 0
M  V30 17583 O 1657.1 1.26361 -1.56828 0
M  V30 17584 C 1654.16 1.90645 -2.89578 0
M  V30 17585 C 1653.22 1.44066 -4.04405 0
M  V30 17586 C 1652.45 2.57846 -4.6728 0
M  V30 17587 O 1652.68 3.75781 -4.29121 0
M  V30 17588 O 1651.61 2.29518 -5.56422 0
M  V30 17589 H 1655.44 0.167635 -3.03237 0
M  V30 17590 H 1653.02 0.016771 -1.49391 0
M  V30 17591 H 1654.9 2.60435 -3.31288 0
M  V30 17592 H 1653.58 2.43877 -2.12851 0
M  V30 17593 H 1652.49 0.711024 -3.67281 0
M  V30 17594 H 1653.82 0.954809 -4.8285 0
M  V30 17595 N 1655.47 1.57485 0.0601405 0
M  V30 17596 C 1656.42 2.04487 1.07023 0
M  V30 17597 C 1657.39 0.927738 1.37776 0
M  V30 17598 O 1658.57 1.19621 1.48645 0
M  V30 17599 C 1655.71 2.50338 2.37539 0
M  V30 17600 C 1654.83 3.75717 2.13215 0
M  V30 17601 C 1653.96 4.10304 3.37378 0
M  V30 17602 C 1653 5.2869 3.0847 0
M  V30 17603 N 1652.14 5.58858 4.24996 0
M  V30 17604 H 1656.98 2.90544 0.662444 0
M  V30 17605 H 1654.52 1.43676 0.315515 0
M  V30 17606 H 1656.47 2.74978 3.13756 0
M  V30 17607 H 1655.1 1.67242 2.76098 0
M  V30 17608 H 1654.16 3.58348 1.27636 0
M  V30 17609 H 1655.47 4.62068 1.87869 0
M  V30 17610 H 1654.62 4.35907 4.21983 0
M  V30 17611 H 1653.36 3.22544 3.6581 0
M  V30 17612 H 1652.37 5.02871 2.22262 0
M  V30 17613 H 1653.59 6.18077 2.81349 0
M  V30 17614 H 1651.54 4.74058 4.53437 0
M  V30 17615 H 1651.45 6.39652 4.02965 0
M  V30 17616 H 1652.72 5.89019 5.10565 0
M  V30 17617 N 1656.95 -0.331789 1.54068 0
M  V30 17618 C 1658.18 -1.09044 1.75832 0
M  V30 17619 C 1658.59 -1.81976 0.503012 0
M  V30 17620 O 1657.95 -1.74758 -0.525913 0
M  V30 17621 C 1658 -2.09489 2.94613 0
M  V30 17622 O 1657.72 -1.39521 4.1529 0
M  V30 17623 C 1659.22 -2.97637 3.28522 0
M  V30 17624 H 1656.44 -0.324701 0.587205 0
M  V30 17625 H 1658.99 -0.380417 2.00931 0
M  V30 17626 H 1657.14 -2.76038 2.71812 0
M  V30 17627 H 1657.56 -2.06717 4.82046 0
M  V30 17628 H 1659.03 -3.64027 4.14956 0
M  V30 17629 H 1659.51 -3.64292 2.45332 0
M  V30 17630 H 1660.11 -2.3666 3.53372 0
M  V30 17631 N 1658.43 -1.46001 -0.593424 0
M  V30 17632 C 1659.66 -1.54307 -1.3783 0
M  V30 17633 C 1660.07 -0.18048 -1.87935 0
M  V30 17634 O 1659.43 0.820427 -1.63019 0
M  V30 17635 C 1659.48 -2.53911 -2.57316 0
M  V30 17636 O 1659.2 -3.84876 -2.09289 0
M  V30 17637 C 1660.7 -2.72054 -3.50002 0
M  V30 17638 H 1657.92 -0.522149 -0.421428 0
M  V30 17639 H 1660.47 -1.91315 -0.722423 0
M  V30 17640 H 1658.62 -2.19937 -3.18915 0
M  V30 17641 H 1659.03 -4.38996 -2.87025 0
M  V30 17642 H 1660.51 -3.45692 -4.3035 0
M  V30 17643 H 1660.99 -1.78583 -4.01254 0
M  V30 17644 H 1661.59 -3.07082 -2.94246 0
M  V30 17645 N 1659.91 0.83715 -1.33527 0
M  V30 17646 C 1661.32 1.40878 -1.22516 0
M  V30 17647 C 1661.67 1.95585 0.155236 0
M  V30 17648 O 1660.79 1.88946 1.05491 0
M  V30 17649 C 1661.39 2.56093 -2.21815 0
M  V30 17650 C 1659.95 3.09205 -2.14638 0
M  V30 17651 C 1659.09 1.82012 -2.09205 0
M  V30 17652 H 1662.05 0.642766 -1.45101 0
M  V30 17653 H 1662.07 3.33775 -1.82687 0
M  V30 17654 H 1661.58 2.16246 -3.22272 0
M  V30 17655 H 1659.68 3.53592 -1.17489 0
M  V30 17656 H 1659.79 3.69261 -3.05259 0
M  V30 17657 H 1658.16 2.02331 -1.54707 0
M  V30 17658 H 1658.94 1.44359 -3.11473 0
M  V30 17659 N 1661.38 1.17024 1.05561 0
M  V30 17660 C 1662.61 0.98075 1.82178 0
M  V30 17661 C 1663.03 -0.471027 1.8283 0
M  V30 17662 O 1662.38 -1.32703 1.25284 0
M  V30 17663 C 1662.44 1.50979 3.28463 0
M  V30 17664 O 1662.16 2.90471 3.27961 0
M  V30 17665 C 1663.66 1.36436 4.21782 0
M  V30 17666 H 1660.88 0.3472 0.574189 0
M  V30 17667 H 1663.42 1.55226 1.33136 0
M  V30 17668 H 1661.58 0.980393 3.74789 0
M  V30 17669 H 1661.99 3.14847 4.19489 0
M  V30 17670 H 1663.46 1.78272 5.2242 0
M  V30 17671 H 1663.94 0.310922 4.38098 0
M  V30 17672 H 1664.55 1.88374 3.81308 0
M  V30 17673 N 1662.86 -1.24221 0.969889 0
M  V30 17674 C 1664.11 -1.91656 0.628559 0
M  V30 17675 C 1664.42 -1.76627 -0.840371 0
M  V30 17676 O 1665.63 -2.38771 -1.29232 0
M  V30 17677 C 1664.09 -3.43515 1.07357 0
M  V30 17678 C 1663.69 -3.67226 2.56611 0
M  V30 17679 C 1665.44 -4.16788 0.805493 0
M  V30 17680 C 1663.35 -5.12667 2.94834 0
M  V30 17681 H 1662.28 -0.717619 0.231384 0
M  V30 17682 H 1664.93 -1.40831 1.17639 0
M  V30 17683 H 1663.31 -3.93388 0.454037 0
M  V30 17684 H 1664.48 -3.27942 3.23713 0
M  V30 17685 H 1662.8 -3.07243 2.81053 0
M  V30 17686 H 1665.39 -5.23945 1.06705 0
M  V30 17687 H 1665.74 -4.15498 -0.258321 0
M  V30 17688 H 1666.27 -3.7287 1.3861 0
M  V30 17689 H 1663.01 -5.1908 4.00295 0
M  V30 17690 H 1662.53 -5.5294 2.32417 0
M  V30 17691 H 1664.21 -5.80916 2.8486 0
M  V30 17692 N 1664.34 -0.740267 -1.39132 0
M  V30 17693 C 1665.29 -0.103744 -2.30567 0
M  V30 17694 C 1666.26 0.724026 -1.49489 0
M  V30 17695 O 1667.44 0.682904 -1.7816 0
M  V30 17696 C 1664.58 0.793587 -3.35851 0
M  V30 17697 C 1663.7 -0.0473671 -4.31974 0
M  V30 17698 C 1662.83 0.851726 -5.24327 0
M  V30 17699 C 1661.87 0.00633633 -6.121 0
M  V30 17700 N 1661.01 0.861652 -6.96793 0
M  V30 17701 H 1665.85 -0.889087 -2.84428 0
M  V30 17702 H 1663.38 -0.450093 -1.40045 0
M  V30 17703 H 1665.34 1.32834 -3.95488 0
M  V30 17704 H 1663.97 1.54485 -2.83433 0
M  V30 17705 H 1663.02 -0.699601 -3.73911 0
M  V30 17706 H 1664.34 -0.700806 -4.93852 0
M  V30 17707 H 1663.49 1.45413 -5.89016 0
M  V30 17708 H 1662.23 1.53893 -4.62783 0
M  V30 17709 H 1661.23 -0.608833 -5.46419 0
M  V30 17710 H 1662.46 -0.677731 -6.7571 0
M  V30 17711 H 1660.4 1.53405 -6.37811 0
M  V30 17712 H 1660.32 0.264812 -7.55536 0
M  V30 17713 H 1661.59 1.44945 -7.65905 0
M  V30 17714 N 1665.82 1.49844 -0.488302 0
M  V30 17715 C 1667.05 2.06519 0.0577968 0
M  V30 17716 C 1667.46 1.35039 1.32519 0
M  V30 17717 O 1666.8 0.418468 1.7887 0
M  V30 17718 C 1666.86 3.57328 0.394577 0
M  V30 17719 C 1666.53 4.50411 -0.773259 0
M  V30 17720 C 1667.52 4.9268 -1.66019 0
M  V30 17721 C 1665.21 4.92875 -0.968465 0
M  V30 17722 C 1667.2 5.76139 -2.72659 0
M  V30 17723 C 1664.89 5.76113 -2.03806 0
M  V30 17724 C 1665.89 6.17648 -2.91548 0
M  V30 17725 O 1665.57 6.99224 -3.96663 0
M  V30 17726 H 1665.31 0.675902 -0.0115057 0
M  V30 17727 H 1667.86 1.93777 -0.681149 0
M  V30 17728 H 1666.09 3.68033 1.18695 0
M  V30 17729 H 1667.78 3.96295 0.877786 0
M  V30 17730 H 1668.55 4.60528 -1.52114 0
M  V30 17731 H 1664.42 4.60056 -0.294936 0
M  V30 17732 H 1667.97 6.08478 -3.41174 0
M  V30 17733 H 1663.87 6.07678 -2.17711 0
M  V30 17734 H 1664.63 7.17507 -3.93861 0
M  V30 17735 N 1667.3 0.221601 1.56034 0
M  V30 17736 C 1668.54 -0.410087 1.98304 0
M  V30 17737 C 1668.87 -1.59769 1.10924 0
M  V30 17738 O 1668.13 -1.95092 0.154196 0
M  V30 17739 C 1668.43 -0.887416 3.46208 0
M  V30 17740 C 1668.09 0.189671 4.50501 0
M  V30 17741 C 1666.75 0.485557 4.78744 0
M  V30 17742 C 1669.11 0.918112 5.1305 0
M  V30 17743 C 1666.43 1.5144 5.66818 0
M  V30 17744 C 1668.79 1.93629 6.02238 0
M  V30 17745 C 1667.45 2.23909 6.28825 0
M  V30 17746 H 1666.72 -0.150061 0.725646 0
M  V30 17747 H 1669.37 0.32413 1.88737 0
M  V30 17748 H 1667.67 -1.70039 3.52979 0
M  V30 17749 H 1669.37 -1.38602 3.76285 0
M  V30 17750 H 1665.96 -0.0510987 4.2857 0
M  V30 17751 H 1670.14 0.702761 4.91299 0
M  V30 17752 H 1665.4 1.75462 5.85682 0
M  V30 17753 H 1669.57 2.5058 6.49756 0
M  V30 17754 H 1667.2 3.03774 6.96868 0
M  V30 17755 N 1668.77 -1.57515 -0.0517878 0
M  V30 17756 C 1670.19 -1.54323 -0.407009 0
M  V30 17757 C 1670.39 -0.944629 -1.77986 0
M  V30 17758 O 1669.45 -0.555785 -2.46307 0
M  V30 17759 C 1670.76 -2.98887 -0.329703 0
M  V30 17760 C 1672.31 -3.10324 -0.408443 0
M  V30 17761 C 1672.78 -4.56576 -0.360833 0
M  V30 17762 N 1674.27 -4.61289 -0.420313 0
M  V30 17763 C 1675.01 -5.71961 -0.406007 0
M  V30 17764 N 1674.5 -6.91939 -0.34533 0
M  V30 17765 N 1676.3 -5.60263 -0.454054 0
M  V30 17766 H 1668.45 -1.94785 0.846907 0
M  V30 17767 H 1670.71 -0.892417 0.319838 0
M  V30 17768 H 1670.42 -3.4632 0.612802 0
M  V30 17769 H 1670.29 -3.59806 -1.13222 0
M  V30 17770 H 1672.68 -2.62852 -1.34138 0
M  V30 17771 H 1672.76 -2.52278 0.423018 0
M  V30 17772 H 1672.4 -5.0471 0.568335 0
M  V30 17773 H 1672.33 -5.12508 -1.2101 0
M  V30 17774 H 1674.82 -3.74958 -0.470644 0
M  V30 17775 H 1675.14 -7.72057 -0.338889 0
M  V30 17776 H 1673.48 -6.94301 -0.311715 0
M  V30 17777 H 1676.67 -4.6543 -0.499289 0
M  V30 17778 H 1676.85 -6.46508 -0.439435 0
M  V30 17779 N 1670.25 0.323614 -1.54242 0
M  V30 17780 C 1671.48 1.0811 -1.76408 0
M  V30 17781 C 1671.9 1.81707 -0.512656 0
M  V30 17782 O 1671.25 1.75035 0.516638 0
M  V30 17783 C 1671.3 2.07923 -2.9572 0
M  V30 17784 O 1671.03 1.37317 -4.16024 0
M  V30 17785 C 1672.53 2.95891 -3.30096 0
M  V30 17786 H 1669.75 0.321583 -0.588919 0
M  V30 17787 H 1672.29 0.369756 -2.01129 0
M  V30 17788 H 1670.45 2.74593 -2.73272 0
M  V30 17789 H 1670.86 2.04158 -4.83135 0
M  V30 17790 H 1672.33 3.61822 -4.1688 0
M  V30 17791 H 1672.81 3.62986 -2.47261 0
M  V30 17792 H 1673.42 2.34783 -3.54622 0
M  V30 17793 N 1671.73 1.46313 0.585673 0
M  V30 17794 C 1672.64 1.59232 1.72286 0
M  V30 17795 C 1673.66 0.475912 1.67365 0
M  V30 17796 O 1674.83 0.739627 1.87327 0
M  V30 17797 C 1671.9 1.57647 3.08785 0
M  V30 17798 C 1670.96 2.80497 3.24992 0
M  V30 17799 C 1670.19 2.78978 4.5498 0
M  V30 17800 O 1670.42 1.87553 5.38684 0
M  V30 17801 O 1669.35 3.7048 4.74371 0
M  V30 17802 H 1673.18 2.55398 1.64334 0
M  V30 17803 H 1670.76 1.29073 0.752369 0
M  V30 17804 H 1672.64 1.59448 3.90069 0
M  V30 17805 H 1671.32 0.6464 3.1718 0
M  V30 17806 H 1670.22 2.8425 2.43213 0
M  V30 17807 H 1671.56 3.72703 3.21487 0
M  V30 17808 N 1673.21 -0.830057 1.33969 0
M  V30 17809 C 1674.46 -1.58084 1.25269 0
M  V30 17810 C 1674.77 -1.94792 -0.177557 0
M  V30 17811 O 1675.98 -2.68733 -0.386657 0
M  V30 17812 C 1674.43 -2.85177 2.1955 0
M  V30 17813 C 1674.04 -2.55798 3.67792 0
M  V30 17814 C 1675.79 -3.632 2.19741 0
M  V30 17815 C 1673.69 -3.79041 4.53963 0
M  V30 17816 H 1672.62 -0.593289 0.465321 0
M  V30 17817 H 1675.27 -0.914476 1.5909 0
M  V30 17818 H 1673.66 -3.53401 1.78672 0
M  V30 17819 H 1674.83 -1.9573 4.17165 0
M  V30 17820 H 1673.14 -1.91064 3.69978 0
M  V30 17821 H 1675.74 -4.54695 2.81347 0
M  V30 17822 H 1676.08 -3.98786 1.1948 0
M  V30 17823 H 1676.62 -3.0191 2.59028 0
M  V30 17824 H 1673.36 -3.4858 5.55133 0
M  V30 17825 H 1672.88 -4.38417 4.09329 0
M  V30 17826 H 1674.56 -4.46527 4.68212 0
M  V30 17827 N 1674.69 -1.17582 -1.04939 0
M  V30 17828 C 1675.91 -0.99097 -1.82194 0
M  V30 17829 C 1676.34 0.455965 -1.8249 0
M  V30 17830 O 1675.7 1.32661 -1.23575 0
M  V30 17831 C 1675.74 -1.53971 -3.26076 0
M  V30 17832 O 1674.85 -0.755172 -4.05427 0
M  V30 17833 H 1674.19 -0.351669 -0.563227 0
M  V30 17834 H 1676.72 -1.56138 -1.3222 0
M  V30 17835 H 1676.73 -1.56307 -3.76872 0
M  V30 17836 H 1675.4 -2.59295 -3.25175 0
M  V30 17837 H 1673.98 -0.803423 -3.64142 0
M  V30 17838 N 1676.17 1.23705 -0.976463 0
M  V30 17839 C 1677.1 2.24297 -0.471538 0
M  V30 17840 C 1678.11 1.57169 0.424484 0
M  V30 17841 O 1679.3 1.77022 0.229252 0
M  V30 17842 C 1676.4 3.37214 0.337621 0
M  V30 17843 C 1675.57 4.33921 -0.550586 0
M  V30 17844 C 1674.63 5.25804 0.204053 0
M  V30 17845 O 1673.66 5.67757 -0.404995 0
M  V30 17846 N 1674.86 5.61021 1.49116 0
M  V30 17847 H 1677.62 2.68252 -1.33645 0
M  V30 17848 H 1675.19 1.37836 -0.849281 0
M  V30 17849 H 1677.18 3.95658 0.850714 0
M  V30 17850 H 1675.75 2.92474 1.10351 0
M  V30 17851 H 1674.97 3.74038 -1.24455 0
M  V30 17852 H 1676.26 4.95493 -1.15604 0
M  V30 17853 H 1675.65 5.28879 2.00757 0
M  V30 17854 H 1674.21 6.21954 1.94978 0
M  V30 17855 N 1677.64 0.747635 1.38738 0
M  V30 17856 C 1678.89 0.301593 2.00545 0
M  V30 17857 C 1679.22 -1.11208 1.59205 0
M  V30 17858 O 1678.5 -1.76052 0.826806 0
M  V30 17859 C 1678.78 0.417739 3.57669 0
M  V30 17860 C 1678.63 1.87209 4.0899 0
M  V30 17861 C 1679.95 -0.192403 4.39679 0
M  V30 17862 H 1677.07 0.11106 0.728584 0
M  V30 17863 H 1679.71 0.946162 1.64766 0
M  V30 17864 H 1677.86 -0.131024 3.88279 0
M  V30 17865 H 1679.54 2.4787 3.89048 0
M  V30 17866 H 1677.78 2.38917 3.62079 0
M  V30 17867 H 1678.45 1.90455 5.18103 0
M  V30 17868 H 1680.93 0.27554 4.15187 0
M  V30 17869 H 1679.8 -0.0808605 5.4884 0
M  V30 17870 H 1680.06 -1.28 4.23165 0
M  V30 17871 N 1679.12 -1.49583 0.496242 0
M  V30 17872 C 1680.35 -2.06847 -0.0469118 0
M  V30 17873 C 1680.76 -1.35715 -1.31251 0
M  V30 17874 O 1680.12 -0.434021 -1.77264 0
M  V30 17875 C 1680.17 -3.60174 -0.309338 0
M  V30 17876 O 1679.89 -4.28628 0.906082 0
M  V30 17877 C 1681.39 -4.34137 -0.896664 0
M  V30 17878 H 1678.61 -0.67075 0.0183324 0
M  V30 17879 H 1681.16 -1.92427 0.692237 0
M  V30 17880 H 1679.31 -3.74312 -0.998459 0
M  V30 17881 H 1679.73 -5.20254 0.666014 0
M  V30 17882 H 1681.2 -5.42307 -1.0299 0
M  V30 17883 H 1681.68 -3.96299 -1.89325 0
M  V30 17884 H 1682.28 -4.24593 -0.245158 0
M  V30 17885 N 1680.6 -0.229873 -1.55915 0
M  V30 17886 C 1682.01 0.276452 -1.84642 0
M  V30 17887 C 1682.36 1.58861 -1.15142 0
M  V30 17888 O 1681.49 2.12207 -0.423932 0
M  V30 17889 C 1682.08 0.508371 -3.34964 0
M  V30 17890 C 1680.64 0.958989 -3.63979 0
M  V30 17891 C 1679.79 0.0266738 -2.77287 0
M  V30 17892 H 1682.74 -0.452864 -1.52101 0
M  V30 17893 H 1682.76 1.35328 -3.55621 0
M  V30 17894 H 1682.27 -0.4468 -3.8552 0
M  V30 17895 H 1680.37 1.92722 -3.18887 0
M  V30 17896 H 1680.49 0.827637 -4.71897 0
M  V30 17897 H 1678.85 0.53498 -2.49018 0
M  V30 17898 H 1679.63 -0.923563 -3.30644 0
M  V30 17899 N 1682.08 1.5754 0.0434337 0
M  V30 17900 C 1683.31 1.92856 0.749268 0
M  V30 17901 C 1683.72 0.828405 1.69655 0
M  V30 17902 O 1683.08 -0.196294 1.81441 0
M  V30 17903 C 1683.13 3.28052 1.51869 0
M  V30 17904 O 1682.85 4.3384 0.609442 0
M  V30 17905 C 1684.35 3.77562 2.32298 0
M  V30 17906 H 1681.57 0.636818 0.211433 0
M  V30 17907 H 1684.11 2.04499 0.00524119 0
M  V30 17908 H 1682.27 3.1785 2.21472 0
M  V30 17909 H 1682.68 5.11794 1.1475 0
M  V30 17910 H 1684.16 4.7471 2.817 0
M  V30 17911 H 1684.63 3.08015 3.13087 0
M  V30 17912 H 1685.24 3.908 1.67796 0
M  V30 17913 N 1683.56 -0.31543 1.54411 0
M  V30 17914 C 1684.8 -1.05033 1.72663 0
M  V30 17915 C 1685.12 -1.8828 0.507504 0
M  V30 17916 O 1684.39 -1.89968 -0.478418 0
M  V30 17917 H 1682.97 -0.39077 0.636638 0
M  V30 17918 H 1685.64 -0.3499 1.91733 0
M  V30 17919 H 1684.73 -1.71171 2.60973 0
M  V30 17920 N 1685.03 -1.46622 -0.577906 0
M  V30 17921 C 1686 -1.57126 -1.66865 0
M  V30 17922 C 1687 -0.448004 -1.54433 0
M  V30 17923 O 1688.19 -0.712459 -1.58964 0
M  V30 17924 C 1685.32 -1.49612 -3.06315 0
M  V30 17925 H 1686.51 -2.54338 -1.58909 0
M  V30 17926 H 1684.07 -1.34504 -0.796142 0
M  V30 17927 H 1684.8 -0.536976 -3.19823 0
M  V30 17928 H 1684.59 -2.31113 -3.16748 0
M  V30 17929 H 1686.08 -1.60058 -3.85709 0
M  V30 17930 N 1686.51 0.822941 -1.34408 0
M  V30 17931 C 1687.76 1.58149 -1.26951 0
M  V30 17932 C 1688.09 1.93538 0.160222 0
M  V30 17933 O 1687.37 1.60021 1.1056 0
M  V30 17934 C 1687.65 2.88101 -2.16032 0
M  V30 17935 C 1687.5 2.59293 -3.67542 0
M  V30 17936 C 1688.82 3.89673 -2.04556 0
M  V30 17937 H 1685.94 0.573811 -0.462504 0
M  V30 17938 H 1688.58 0.948017 -1.64659 0
M  V30 17939 H 1686.73 3.42162 -1.84003 0
M  V30 17940 H 1688.4 2.11542 -4.09936 0
M  V30 17941 H 1686.65 1.92738 -3.88632 0
M  V30 17942 H 1687.32 3.51962 -4.25238 0
M  V30 17943 H 1689.79 3.44965 -2.32677 0
M  V30 17944 H 1688.67 4.78404 -2.69111 0
M  V30 17945 H 1688.93 4.30113 -1.02253 0
M  V30 17946 N 1687.99 1.18137 1.04314 0
M  V30 17947 C 1688.92 0.849531 2.11798 0
M  V30 17948 C 1689.9 -0.187452 1.61516 0
M  V30 17949 O 1691.09 -0.0669812 1.88381 0
M  V30 17950 C 1688.21 0.268844 3.37631 0
M  V30 17951 C 1687.26 1.28262 4.06757 0
M  V30 17952 S 1688.09 2.83751 4.54143 0
M  V30 17953 C 1689.25 2.27186 5.83213 0
M  V30 17954 H 1689.48 1.75983 2.39619 0
M  V30 17955 H 1687.01 1.00697 1.17045 0
M  V30 17956 H 1688.97 -0.0596899 4.10457 0
M  V30 17957 H 1687.63 -0.619529 3.0793 0
M  V30 17958 H 1686.83 0.825141 4.972 0
M  V30 17959 H 1686.43 1.55726 3.40038 0
M  V30 17960 H 1688.72 1.6529 6.57028 0
M  V30 17961 H 1689.66 3.15919 6.3372 0
M  V30 17962 H 1690.07 1.70301 5.38199 0
M  V30 17963 N 1689.47 -1.23186 0.98301 0
M  V30 17964 C 1690.7 -1.95702 0.671453 0
M  V30 17965 C 1691.11 -1.72737 -0.76206 0
M  V30 17966 O 1690.47 -1.02037 -1.5131 0
M  V30 17967 C 1690.52 -3.48642 0.955573 0
M  V30 17968 O 1690.24 -3.70829 2.33275 0
M  V30 17969 C 1691.74 -4.38354 0.660333 0
M  V30 17970 H 1688.96 -0.623006 0.249209 0
M  V30 17971 H 1691.51 -1.56606 1.3151 0
M  V30 17972 H 1689.66 -3.85743 0.357892 0
M  V30 17973 H 1690.07 -4.65104 2.42443 0
M  V30 17974 H 1691.55 -5.44456 0.909477 0
M  V30 17975 H 1692.03 -4.37323 -0.405615 0
M  V30 17976 H 1692.63 -4.06864 1.23861 0
M  V30 17977 N 1690.95 -0.754982 -1.38339 0
M  V30 17978 C 1692.18 -0.322156 -2.04073 0
M  V30 17979 C 1692.58 1.05488 -1.57063 0
M  V30 17980 O 1691.93 1.68154 -0.739597 0
M  V30 17981 C 1691.99 -0.267836 -3.58501 0
M  V30 17982 C 1691.65 -1.58665 -4.28572 0
M  V30 17983 C 1692.65 -2.53609 -4.53849 0
M  V30 17984 C 1690.34 -1.85647 -4.66734 0
M  V30 17985 C 1692.33 -3.73753 -5.16321 0
M  V30 17986 C 1690.02 -3.06065 -5.28931 0
M  V30 17987 C 1691.01 -3.99938 -5.53659 0
M  V30 17988 O 1690.7 -5.18238 -6.14561 0
M  V30 17989 H 1690.43 -0.135341 -0.662313 0
M  V30 17990 H 1692.99 -1.02517 -1.77987 0
M  V30 17991 H 1691.22 0.491434 -3.83565 0
M  V30 17992 H 1692.91 0.135662 -4.05673 0
M  V30 17993 H 1693.67 -2.3404 -4.24794 0
M  V30 17994 H 1689.55 -1.13415 -4.46831 0
M  V30 17995 H 1693.1 -4.47039 -5.35539 0
M  V30 17996 H 1688.99 -3.25526 -5.57408 0
M  V30 17997 H 1689.76 -5.18838 -6.33047 0
M  V30 17998 N 1692.42 1.49318 -0.504168 0
M  V30 17999 C 1693.39 2.27703 0.26157 0
M  V30 18000 C 1694.39 1.3385 0.891114 0
M  V30 18001 O 1695.58 1.56981 0.755156 0
M  V30 18002 C 1692.71 3.11912 1.37564 0
M  V30 18003 H 1693.9 2.96855 -0.426292 0
M  V30 18004 H 1691.46 1.54135 -0.259236 0
M  V30 18005 H 1692.19 2.47332 2.09755 0
M  V30 18006 H 1691.98 3.8092 0.929641 0
M  V30 18007 H 1693.47 3.71106 1.91494 0
M  V30 18008 N 1693.9 0.238138 1.5579 0
M  V30 18009 C 1695.31 -0.266656 1.84786 0
M  V30 18010 C 1695.66 -1.58248 1.15983 0
M  V30 18011 O 1694.79 -2.11979 0.43518 0
M  V30 18012 C 1695.38 -0.4906 3.35229 0
M  V30 18013 C 1693.94 -0.939672 3.64482 0
M  V30 18014 C 1693.09 -0.0119682 2.77297 0
M  V30 18015 H 1696.04 0.460924 1.51859 0
M  V30 18016 H 1696.06 -1.3344 3.56334 0
M  V30 18017 H 1695.57 0.467239 3.85277 0
M  V30 18018 H 1693.68 -1.91029 3.19904 0
M  V30 18019 H 1693.79 -0.8026 4.72329 0
M  V30 18020 H 1692.15 -0.521767 2.49298 0
M  V30 18021 H 1692.94 0.941085 3.30149 0
M  V30 18022 N 1695.38 -1.57561 -0.0350783 0
M  V30 18023 C 1696.61 -1.93251 -0.73903 0
M  V30 18024 C 1697.02 -0.83739 -1.69214 0
M  V30 18025 O 1696.38 0.186669 -1.81543 0
M  V30 18026 C 1696.43 -3.28853 -1.50127 0
M  V30 18027 O 1696.15 -4.34157 -0.586426 0
M  V30 18028 C 1697.65 -3.78788 -2.30292 0
M  V30 18029 H 1694.87 -0.63793 -0.208053 0
M  V30 18030 H 1697.42 -2.04499 0.00560398 0
M  V30 18031 H 1695.57 -3.1902 -2.19784 0
M  V30 18032 H 1695.99 -5.12395 -1.12034 0
M  V30 18033 H 1697.46 -4.76197 -2.79178 0
M  V30 18034 H 1697.94 -3.09671 -3.11449 0
M  V30 18035 H 1698.54 -3.91684 -1.65721 0
M  V30 18036 N 1696.86 0.307236 -1.54576 0
M  V30 18037 C 1698.08 1.06668 -1.77867 0
M  V30 18038 C 1698.51 1.80375 -0.533536 0
M  V30 18039 O 1697.87 1.73812 0.515663 0
M  V30 18040 C 1697.91 2.02777 -2.98184 0
M  V30 18041 O 1697.02 3.10969 -2.70872 0
M  V30 18042 H 1696.36 0.306741 -0.588902 0
M  V30 18043 H 1698.89 0.346557 -2.01644 0
M  V30 18044 H 1698.9 2.45355 -3.25983 0
M  V30 18045 H 1697.57 1.48534 -3.88472 0
M  V30 18046 H 1696.15 2.7295 -2.54072 0
M  V30 18047 N 1698.34 1.46926 0.570122 0
M  V30 18048 C 1699.59 1.52151 1.32413 0
M  V30 18049 C 1699.9 0.18291 1.94743 0
M  V30 18050 O 1701.1 0.113045 2.71265 0
M  V30 18051 C 1699.56 2.68153 2.40046 0
M  V30 18052 C 1699.17 4.08487 1.83963 0
M  V30 18053 C 1700.91 2.82659 3.16709 0
M  V30 18054 C 1698.82 5.1581 2.893 0
M  V30 18055 H 1697.75 0.566291 0.497826 0
M  V30 18056 H 1700.4 1.73169 0.607011 0
M  V30 18057 H 1698.78 2.40488 3.14613 0
M  V30 18058 H 1699.96 4.45998 1.15854 0
M  V30 18059 H 1698.27 3.98756 1.19927 0
M  V30 18060 H 1700.87 3.60008 3.95346 0
M  V30 18061 H 1701.21 1.9063 3.70089 0
M  V30 18062 H 1701.74 3.10031 2.4925 0
M  V30 18063 H 1698.48 6.09672 2.40791 0
M  V30 18064 H 1698 4.8283 3.55859 0
M  V30 18065 H 1699.68 5.42201 3.53026 0
M  V30 18066 N 1699.82 -0.815801 1.34842 0
M  V30 18067 C 1701.23 -1.38911 1.24742 0
M  V30 18068 C 1701.58 -1.95807 -0.124101 0
M  V30 18069 O 1700.7 -1.906 -1.02472 0
M  V30 18070 C 1701.3 -2.52532 2.25861 0
M  V30 18071 C 1699.86 -3.05751 2.1953 0
M  V30 18072 C 1699 -1.78661 2.12075 0
M  V30 18073 H 1701.95 -0.619601 1.46105 0
M  V30 18074 H 1701.98 -3.30826 1.87974 0
M  V30 18075 H 1701.49 -2.11092 3.25671 0
M  V30 18076 H 1699.59 -3.51678 1.23099 0
M  V30 18077 H 1699.7 -3.64358 3.11095 0
M  V30 18078 H 1698.07 -1.99844 1.57907 0
M  V30 18079 H 1698.85 -1.39385 3.1373 0
M  V30 18080 N 1701.29 -1.18689 -1.03686 0
M  V30 18081 C 1702.23 -0.860751 -2.11344 0
M  V30 18082 C 1703.2 0.178884 -1.61613 0
M  V30 18083 O 1704.39 0.05699 -1.88414 0
M  V30 18084 C 1701.52 -0.286745 -3.37484 0
M  V30 18085 C 1700.56 -1.30417 -4.06071 0
M  V30 18086 S 1701.39 -2.86155 -4.52632 0
M  V30 18087 C 1702.55 -2.30276 -5.82 0
M  V30 18088 H 1702.78 -1.77251 -2.38683 0
M  V30 18089 H 1700.32 -1.01316 -1.16509 0
M  V30 18090 H 1702.27 0.0379216 -4.10482 0
M  V30 18091 H 1700.94 0.60319 -3.08254 0
M  V30 18092 H 1700.13 -0.851497 -4.96755 0
M  V30 18093 H 1699.73 -1.57527 -3.39207 0
M  V30 18094 H 1702.02 -1.68773 -6.56142 0
M  V30 18095 H 1702.97 -3.19275 -6.32036 0
M  V30 18096 H 1703.37 -1.73153 -5.37288 0
M  V30 18097 N 1702.77 1.22662 -0.989529 0
M  V30 18098 C 1703.68 2.28162 -0.545835 0
M  V30 18099 C 1704.7 1.69251 0.403762 0
M  V30 18100 O 1705.87 1.99563 0.271428 0
M  V30 18101 C 1702.94 3.46434 0.135808 0
M  V30 18102 C 1702 4.20673 -0.85633 0
M  V30 18103 C 1701.23 5.33298 -0.207121 0
M  V30 18104 O 1701.46 5.6157 0.99975 0
M  V30 18105 O 1700.39 5.94977 -0.910288 0
M  V30 18106 H 1704.22 2.68276 -1.42344 0
M  V30 18107 H 1701.8 1.28766 -0.757609 0
M  V30 18108 H 1703.68 4.18207 0.517776 0
M  V30 18109 H 1702.36 3.08252 0.988035 0
M  V30 18110 H 1701.26 3.51186 -1.28917 0
M  V30 18111 H 1702.6 4.62726 -1.67765 0
M  V30 18112 N 1704.25 0.762308 1.37937 0
M  V30 18113 C 1705.2 0.140412 2.30372 0
M  V30 18114 C 1706.17 -0.700152 1.50622 0
M  V30 18115 O 1707.35 -0.654474 1.79224 0
M  V30 18116 C 1704.49 -0.740056 3.37071 0
M  V30 18117 C 1703.6 0.116084 4.31844 0
M  V30 18118 C 1702.74 -0.768203 5.25616 0
M  V30 18119 C 1701.78 0.0910442 6.12032 0
M  V30 18120 N 1700.92 -0.75069 6.98075 0
M  V30 18121 H 1705.76 0.934224 2.82977 0
M  V30 18122 H 1703.29 0.472316 1.39311 0
M  V30 18123 H 1705.25 -1.26525 3.97551 0
M  V30 18124 H 1703.88 -1.49956 2.85855 0
M  V30 18125 H 1702.93 0.758999 3.72751 0
M  V30 18126 H 1704.24 0.779285 4.92675 0
M  V30 18127 H 1703.4 -1.36024 5.91255 0
M  V30 18128 H 1702.14 -1.46511 4.65173 0
M  V30 18129 H 1701.14 0.695687 5.45381 0
M  V30 18130 H 1702.37 0.785145 6.74546 0
M  V30 18131 H 1700.31 -1.43239 6.40171 0
M  V30 18132 H 1700.23 -0.144579 7.55862 0
M  V30 18133 H 1701.5 -1.32742 7.68114 0
M  V30 18134 N 1705.73 -1.49049 0.51208 0
M  V30 18135 C 1706.96 -2.06885 -0.0249703 0
M  V30 18136 C 1707.37 -1.371 -1.29804 0
M  V30 18137 O 1706.73 -0.452798 -1.76794 0
M  V30 18138 C 1706.78 -3.60482 -0.27112 0
M  V30 18139 O 1706.5 -4.27643 0.951493 0
M  V30 18140 C 1708 -4.35063 -0.850568 0
M  V30 18141 H 1705.22 -0.670517 0.0254456 0
M  V30 18142 H 1707.76 -1.91682 0.712607 0
M  V30 18143 H 1705.92 -3.7535 -0.958702 0
M  V30 18144 H 1706.33 -5.19519 0.721156 0
M  V30 18145 H 1707.81 -5.43369 -0.972322 0
M  V30 18146 H 1708.28 -3.98285 -1.85111 0
M  V30 18147 H 1708.89 -4.24829 -0.200111 0
M  V30 18148 N 1707.21 -0.246397 -1.55662 0
M  V30 18149 C 1708.16 0.667276 -2.18017 0
M  V30 18150 C 1709.14 1.13957 -1.1359 0
M  V30 18151 O 1710.33 1.08942 -1.39501 0
M  V30 18152 C 1707.46 1.86414 -2.88279 0
M  V30 18153 C 1706.55 1.41037 -3.99962 0
M  V30 18154 N 1706.94 0.670796 -5.01332 0
M  V30 18155 C 1705.24 1.69569 -4.12507 0
M  V30 18156 C 1705.94 0.43594 -5.80064 0
M  V30 18157 N 1704.91 1 -5.34323 0
M  V30 18158 H 1708.71 0.0940693 -2.93749 0
M  V30 18159 H 1706.23 -0.048692 -1.62327 0
M  V30 18160 H 1708.23 2.5297 -3.31379 0
M  V30 18161 H 1706.89 2.44158 -2.14049 0
M  V30 18162 H 1707.9 0.320958 -5.16905 0
M  V30 18163 H 1704.57 2.28455 -3.49449 0
M  V30 18164 H 1705.96 -0.154438 -6.71722 0
M  V30 18165 N 1708.68 1.57577 0.026722 0
M  V30 18166 C 1709.63 2.06711 1.02661 0
M  V30 18167 C 1710.6 0.956754 1.35777 0
M  V30 18168 O 1711.79 1.22747 1.46074 0
M  V30 18169 C 1708.93 2.55321 2.32175 0
M  V30 18170 C 1708.04 3.80155 2.05197 0
M  V30 18171 C 1707.17 4.17368 3.28599 0
M  V30 18172 C 1706.21 5.35114 2.97186 0
M  V30 18173 N 1705.35 5.67747 4.13046 0
M  V30 18174 H 1710.19 2.91884 0.600666 0
M  V30 18175 H 1707.73 1.44313 0.284968 0
M  V30 18176 H 1709.68 2.81572 3.07853 0
M  V30 18177 H 1708.31 1.73061 2.72488 0
M  V30 18178 H 1707.37 3.60975 1.20006 0
M  V30 18179 H 1708.68 4.65949 1.78026 0
M  V30 18180 H 1707.83 4.4476 4.12642 0
M  V30 18181 H 1706.57 3.30231 3.58886 0
M  V30 18182 H 1705.58 5.07473 2.11545 0
M  V30 18183 H 1706.8 6.23906 2.68175 0
M  V30 18184 H 1704.75 4.83569 4.4328 0
M  V30 18185 H 1704.66 6.48056 3.89307 0
M  V30 18186 H 1705.93 5.99717 4.97956 0
M  V30 18187 N 1710.16 -0.299034 1.54737 0
M  V30 18188 C 1711.41 -1.03553 1.74369 0
M  V30 18189 C 1711.74 -1.86856 0.529019 0
M  V30 18190 O 1711.02 -1.8864 -0.473854 0
M  V30 18191 C 1711.3 -1.93988 3.03382 0
M  V30 18192 C 1711.15 -1.13852 4.35153 0
M  V30 18193 C 1712.47 -2.93128 3.28274 0
M  V30 18194 H 1709.59 -0.375055 0.634431 0
M  V30 18195 H 1712.23 -0.310018 1.87454 0
M  V30 18196 H 1710.38 -2.5585 2.92358 0
M  V30 18197 H 1712.05 -0.542614 4.58098 0
M  V30 18198 H 1710.3 -0.441278 4.3155 0
M  V30 18199 H 1710.97 -1.80385 5.21694 0
M  V30 18200 H 1713.44 -2.41396 3.38921 0
M  V30 18201 H 1712.32 -3.53569 4.19857 0
M  V30 18202 H 1712.58 -3.66892 2.46663 0
M  V30 18203 N 1711.64 -1.47227 -0.562322 0
M  V30 18204 C 1712.59 -1.59729 -1.69084 0
M  V30 18205 C 1713.58 -0.464812 -1.62898 0
M  V30 18206 O 1714.79 -0.642429 -1.68145 0
M  V30 18207 H 1711.16 -0.502579 -0.559391 0
M  V30 18208 H 1713.13 -2.54573 -1.55676 0
M  V30 18209 C 1711.88 -1.62394 -3.07447 0
M  V30 18210 H 1711.21 -2.48882 -3.12887 0
M  V30 18211 H 1712.65 -1.75192 -3.86114 0
M  V30 18212 C 1711.1 -0.356287 -3.35011 0
M  V30 18213 O 1711.63 0.544818 -3.97988 0
M  V30 18214 N 1709.84 -0.237888 -2.89625 0
M  V30 18215 H 1709.39 -0.9721 -2.38554 0
M  V30 18216 H 1709.35 0.609348 -3.08438 0
M  V30 18217 N 1713.12 0.808639 -1.35273 0
M  V30 18218 C 1714.08 1.90195 -1.279 0
M  V30 18219 C 1715.08 1.59663 -0.190915 0
M  V30 18220 O 1716.27 1.68434 -0.444482 0
M  V30 18221 C 1713.4 3.26567 -0.978106 0
M  V30 18222 H 1714.6 1.98152 -2.25113 0
M  V30 18223 H 1712.15 1.00426 -1.19767 0
M  V30 18224 H 1712.88 3.24299 -0.00975789 0
M  V30 18225 H 1712.67 3.50114 -1.7653 0
M  V30 18226 H 1714.16 4.06602 -0.95207 0
M  V30 18227 N 1714.6 1.19237 1.03055 0
M  V30 18228 C 1715.82 1.01983 1.80594 0
M  V30 18229 C 1716.25 -0.426875 1.83192 0
M  V30 18230 O 1715.6 -1.30678 1.2567 0
M  V30 18231 C 1715.65 1.59139 3.23585 0
M  V30 18232 O 1714.76 0.819576 4.04174 0
M  V30 18233 H 1714.1 0.360585 0.557561 0
M  V30 18234 H 1716.63 1.58222 1.29719 0
M  V30 18235 H 1716.64 1.62283 3.74337 0
M  V30 18236 H 1715.31 2.64436 3.21009 0
M  V30 18237 H 1713.89 0.861253 3.62818 0
M  V30 18238 N 1716.07 -1.22136 0.99602 0
M  V30 18239 C 1717.3 -1.94696 0.691168 0
M  V30 18240 C 1717.71 -1.73754 -0.748749 0
M  V30 18241 O 1717.06 -1.03561 -1.51726 0
M  V30 18242 C 1717.12 -3.47498 0.921152 0
M  V30 18243 C 1716.78 -3.92179 2.34616 0
M  V30 18244 C 1717.78 -3.99603 3.32585 0
M  V30 18245 C 1715.46 -4.24741 2.68142 0
M  V30 18246 C 1717.46 -4.38968 4.62153 0
M  V30 18247 C 1715.14 -4.63785 3.97928 0
M  V30 18248 C 1716.14 -4.70867 4.94745 0
M  V30 18249 O 1715.83 -5.09026 6.22212 0
M  V30 18250 H 1715.56 -0.626231 0.25458 0
M  V30 18251 H 1718.12 -1.56152 1.33438 0
M  V30 18252 H 1716.35 -3.86069 0.220769 0
M  V30 18253 H 1718.04 -4.01274 0.61107 0
M  V30 18254 H 1718.8 -3.74634 3.08017 0
M  V30 18255 H 1714.68 -4.18431 1.93485 0
M  V30 18256 H 1718.22 -4.44411 5.37721 0
M  V30 18257 H 1714.12 -4.88207 4.22285 0
M  V30 18258 H 1714.89 -5.27089 6.26195 0
M  V30 18259 N 1717.55 -0.769612 -1.37531 0
M  V30 18260 C 1718.96 -0.398644 -1.82394 0
M  V30 18261 C 1719.31 1.07493 -1.64133 0
M  V30 18262 O 1718.44 1.83234 -1.15127 0
M  V30 18263 C 1719.03 -0.716789 -3.31131 0
M  V30 18264 C 1717.59 -0.398903 -3.7428 0
M  V30 18265 C 1716.74 -0.96173 -2.60089 0
M  V30 18266 H 1719.69 -0.964441 -1.26033 0
M  V30 18267 H 1719.71 -0.00067688 -3.805 0
M  V30 18268 H 1719.22 -1.78933 -3.4439 0
M  V30 18269 H 1717.33 0.666412 -3.66592 0
M  V30 18270 H 1717.44 -0.90566 -4.70462 0
M  V30 18271 H 1715.8 -0.386103 -2.51757 0
M  V30 18272 H 1716.59 -2.03963 -2.76141 0
M  V30 18273 N 1719.03 1.48775 -0.519977 0
M  V30 18274 C 1720.45 1.58614 -0.177164 0
M  V30 18275 C 1720.65 1.52314 1.31919 0
M  V30 18276 O 1719.7 1.40697 2.09668 0
M  V30 18277 C 1721.02 2.90653 -0.770816 0
M  V30 18278 C 1722.56 3.0416 -0.73864 0
M  V30 18279 C 1723.04 4.38845 -1.31069 0
M  V30 18280 N 1724.53 4.45386 -1.27222 0
M  V30 18281 C 1725.26 5.48088 -1.68484 0
M  V30 18282 N 1724.76 6.57797 -2.17428 0
M  V30 18283 N 1726.55 5.38912 -1.59782 0
M  V30 18284 H 1718.7 1.51112 -1.49261 0
M  V30 18285 H 1720.97 0.716925 -0.62026 0
M  V30 18286 H 1720.67 3.00888 -1.82097 0
M  V30 18287 H 1720.55 3.76422 -0.242125 0
M  V30 18288 H 1722.93 2.93543 0.302728 0
M  V30 18289 H 1723.02 2.20026 -1.30469 0
M  V30 18290 H 1722.66 4.50215 -2.35093 0
M  V30 18291 H 1722.59 5.21649 -0.720409 0
M  V30 18292 H 1725.08 3.66685 -0.913813 0
M  V30 18293 H 1725.39 7.32287 -2.46933 0
M  V30 18294 H 1723.74 6.58787 -2.21415 0
M  V30 18295 H 1726.93 4.52097 -1.2135 0
M  V30 18296 H 1727.1 6.18821 -1.92261 0
M  V30 18297 N 1720.51 0.254649 1.55529 0
M  V30 18298 C 1721.75 -0.368477 1.99424 0
M  V30 18299 C 1722.09 -1.57023 1.14269 0
M  V30 18300 O 1721.36 -1.93386 0.207886 0
M  V30 18301 C 1721.65 -0.77076 3.51755 0
M  V30 18302 C 1721.5 0.436923 4.47673 0
M  V30 18303 C 1722.82 -1.61487 4.09402 0
M  V30 18304 H 1719.94 -0.132459 0.724999 0
M  V30 18305 H 1722.58 0.357508 1.86606 0
M  V30 18306 H 1720.73 -1.38932 3.62809 0
M  V30 18307 H 1722.4 1.07541 4.4859 0
M  V30 18308 H 1720.64 1.07866 4.20175 0
M  V30 18309 H 1721.31 0.111996 5.51886 0
M  V30 18310 H 1723.79 -1.09265 4.01498 0
M  V30 18311 H 1722.67 -1.86519 5.16238 0
M  V30 18312 H 1722.93 -2.58926 3.58343 0
M  V30 18313 N 1721.99 -1.57589 -0.0183649 0
M  V30 18314 C 1723.21 -1.94421 -0.722172 0
M  V30 18315 C 1723.64 -0.855471 -1.67521 0
M  V30 18316 O 1722.99 0.187954 -1.80323 0
M  V30 18317 C 1723.04 -3.30331 -1.44615 0
M  V30 18318 O 1722.15 -3.23337 -2.55982 0
M  V30 18319 H 1721.49 -0.63519 -0.193466 0
M  V30 18320 H 1724.02 -2.04579 0.0293527 0
M  V30 18321 H 1724.03 -3.65471 -1.8137 0
M  V30 18322 H 1722.7 -4.09132 -0.747256 0
M  V30 18323 H 1721.28 -2.99845 -2.21692 0
M  V30 18324 N 1723.46 0.290824 -1.54893 0
M  V30 18325 C 1724.69 1.04775 -1.78988 0
M  V30 18326 C 1725.11 1.79799 -0.552637 0
M  V30 18327 O 1724.47 1.74349 0.497199 0
M  V30 18328 C 1724.52 1.99603 -3.00318 0
M  V30 18329 O 1723.62 3.08079 -2.74155 0
M  V30 18330 H 1722.97 0.300478 -0.592123 0
M  V30 18331 H 1725.5 0.325151 -2.02 0
M  V30 18332 H 1725.51 2.41884 -3.28567 0
M  V30 18333 H 1724.18 1.44406 -3.90025 0
M  V30 18334 H 1722.76 2.7024 -2.56953 0
M  V30 18335 N 1724.94 1.47523 0.554506 0
M  V30 18336 C 1726.17 1.57907 1.3369 0
M  V30 18337 C 1726.59 0.230244 1.87391 0
M  V30 18338 O 1725.94 -0.776917 1.65137 0
M  V30 18339 C 1725.99 2.60644 2.50493 0
M  V30 18340 O 1725.71 3.9029 1.99011 0
M  V30 18341 C 1727.22 2.81238 3.42666 0
M  V30 18342 H 1724.44 0.533139 0.407436 0
M  V30 18343 H 1726.98 1.93163 0.671445 0
M  V30 18344 H 1725.13 2.28315 3.12971 0
M  V30 18345 H 1725.55 4.46451 2.75285 0
M  V30 18346 H 1727.02 3.56981 4.21033 0
M  V30 18347 H 1727.5 1.89159 3.96378 0
M  V30 18348 H 1728.11 3.14775 2.86001 0
M  V30 18349 N 1726.42 -0.801453 1.357 0
M  V30 18350 C 1727.37 -1.93495 1.29083 0
M  V30 18351 C 1728.36 -1.68389 0.184806 0
M  V30 18352 O 1729.57 -1.76543 0.351097 0
M  V30 18353 H 1725.94 -0.635809 0.40156 0
M  V30 18354 H 1727.91 -1.96195 2.24833 0
M  V30 18355 C 1726.66 -3.30342 1.08487 0
M  V30 18356 H 1725.99 -3.50221 1.92835 0
M  V30 18357 H 1727.43 -4.10041 1.079 0
M  V30 18358 C 1725.89 -3.36238 -0.211057 0
M  V30 18359 O 1726.42 -3.83198 -1.20508 0
M  V30 18360 N 1724.62 -2.89509 -0.251599 0
M  V30 18361 H 1724.17 -2.51486 0.557916 0
M  V30 18362 H 1724.13 -2.93836 -1.11839 0
M  V30 18363 N 1727.9 -1.19782 -1.02421 0
M  V30 18364 C 1728.81 -0.955253 -2.14271 0
M  V30 18365 C 1729.82 0.0863233 -1.73786 0
M  V30 18366 O 1731 -0.0993878 -2.01155 0
M  V30 18367 C 1728.07 -0.502219 -3.43043 0
M  V30 18368 C 1727.13 -1.61374 -3.97815 0
M  V30 18369 C 1726.36 -1.18223 -5.20441 0
M  V30 18370 O 1726.58 -0.0477334 -5.7038 0
M  V30 18371 O 1725.52 -1.98664 -5.68169 0
M  V30 18372 H 1729.34 -1.89157 -2.37599 0
M  V30 18373 H 1726.93 -0.981035 -1.12677 0
M  V30 18374 H 1728.81 -0.258445 -4.20607 0
M  V30 18375 H 1727.48 0.4056 -3.21149 0
M  V30 18376 H 1726.39 -1.91172 -3.21565 0
M  V30 18377 H 1727.72 -2.49829 -4.24083 0
M  V30 18378 N 1729.38 1.21606 -1.00248 0
M  V30 18379 C 1730.34 2.22107 -0.565772 0
M  V30 18380 C 1731.34 1.56798 0.356521 0
M  V30 18381 O 1732.53 1.73577 0.147154 0
M  V30 18382 C 1729.66 3.40447 0.175742 0
M  V30 18383 H 1730.86 2.62258 -1.45468 0
M  V30 18384 H 1728.41 1.34823 -0.790721 0
M  V30 18385 H 1729.14 3.05781 1.0802 0
M  V30 18386 H 1728.93 3.89069 -0.486612 0
M  V30 18387 H 1730.42 4.14957 0.469122 0
M  V30 18388 N 1730.86 0.776895 1.37121 0
M  V30 18389 C 1731.8 0.164838 2.30211 0
M  V30 18390 C 1732.77 -0.684137 1.51356 0
M  V30 18391 O 1733.96 -0.635428 1.79908 0
M  V30 18392 C 1731.1 -0.704263 3.37837 0
M  V30 18393 C 1730.21 0.161881 4.31697 0
M  V30 18394 C 1729.35 -0.712411 5.26401 0
M  V30 18395 C 1728.38 0.155953 6.11901 0
M  V30 18396 N 1727.52 -0.676607 6.98832 0
M  V30 18397 H 1732.36 0.964185 2.81971 0
M  V30 18398 H 1729.9 0.487065 1.38802 0
M  V30 18399 H 1731.86 -1.22302 3.98871 0
M  V30 18400 H 1730.49 -1.46916 2.87429 0
M  V30 18401 H 1729.54 0.798491 3.71925 0
M  V30 18402 H 1730.85 0.831496 4.91821 0
M  V30 18403 H 1730 -1.29745 5.92664 0
M  V30 18404 H 1728.74 -1.41569 4.66701 0
M  V30 18405 H 1727.75 0.753493 5.44612 0
M  V30 18406 H 1728.97 0.856645 6.73675 0
M  V30 18407 H 1726.92 -1.36441 6.41654 0
M  V30 18408 H 1726.84 -0.0644017 7.55973 0
M  V30 18409 H 1728.1 -1.24588 7.69479 0
M  V30 18410 N 1732.33 -1.48497 0.527859 0
M  V30 18411 C 1733.75 -1.58517 0.185573 0
M  V30 18412 C 1733.95 -1.53012 -1.31109 0
M  V30 18413 O 1733.01 -1.41807 -2.08919 0
M  V30 18414 C 1734.32 -2.9024 0.786219 0
M  V30 18415 C 1735.87 -3.03764 0.75476 0
M  V30 18416 C 1736.34 -4.38144 1.33394 0
M  V30 18417 N 1737.83 -4.44705 1.29582 0
M  V30 18418 C 1738.57 -5.47187 1.71388 0
M  V30 18419 N 1738.06 -6.56635 2.20913 0
M  V30 18420 N 1739.86 -5.38057 1.62638 0
M  V30 18421 H 1732.01 -1.50319 1.5006 0
M  V30 18422 H 1734.27 -0.713625 0.624054 0
M  V30 18423 H 1733.98 -2.99918 1.8369 0
M  V30 18424 H 1733.85 -3.76288 0.262084 0
M  V30 18425 H 1736.24 -2.937 -0.287157 0
M  V30 18426 H 1736.32 -2.19331 1.31634 0
M  V30 18427 H 1735.96 -4.48962 2.37478 0
M  V30 18428 H 1735.89 -5.2126 0.748063 0
M  V30 18429 H 1738.38 -3.66195 0.933246 0
M  V30 18430 H 1738.7 -7.30967 2.50813 0
M  V30 18431 H 1737.04 -6.57604 2.24906 0
M  V30 18432 H 1740.23 -4.51447 1.23746 0
M  V30 18433 H 1740.41 -6.17793 1.9554 0
M  V30 18434 N 1733.81 -0.262893 -1.55392 0
M  V30 18435 C 1735.09 0.408525 -1.91286 0
M  V30 18436 C 1735.47 1.74657 -1.18566 0
M  V30 18437 O 1734.82 2.26409 -0.308422 0
M  V30 18438 C 1735.03 0.560865 -3.44464 0
M  V30 18439 C 1736.37 0.849401 -4.16017 0
M  V30 18440 O 1737.4 0.646134 -3.50291 0
M  V30 18441 O 1736.26 1.23741 -5.32307 0
M  V30 18442 H 1733.35 0.221707 -0.796728 0
M  V30 18443 H 1735.9 -0.308143 -1.66879 0
M  V30 18444 H 1734.67 -0.381279 -3.89438 0
M  V30 18445 H 1734.29 1.32747 -3.74785 0
M  V30 18446 N 1735.29 1.57597 0.0100073 0
M  V30 18447 C 1736.51 1.94801 0.711852 0
M  V30 18448 C 1736.94 0.864343 1.67065 0
M  V30 18449 O 1736.3 -0.178388 1.8042 0
M  V30 18450 C 1736.35 3.31094 1.42862 0
M  V30 18451 O 1735.45 3.2469 2.54264 0
M  V30 18452 H 1734.79 0.636207 0.190095 0
M  V30 18453 H 1737.32 2.04561 -0.0402016 0
M  V30 18454 H 1737.33 3.66428 1.79429 0
M  V30 18455 H 1736.01 4.09522 0.725549 0
M  V30 18456 H 1734.58 3.01017 2.20099 0
M  V30 18457 N 1736.77 -0.282606 1.55045 0
M  V30 18458 C 1738.01 -1.01698 1.75458 0
M  V30 18459 C 1738.35 -1.86284 0.548808 0
M  V30 18460 O 1737.62 -1.89131 -0.45382 0
M  V30 18461 C 1737.9 -1.90759 3.05423 0
M  V30 18462 C 1737.76 -1.0923 4.36336 0
M  V30 18463 C 1739.08 -2.8963 3.31364 0
M  V30 18464 H 1736.2 -0.368305 0.638373 0
M  V30 18465 H 1738.84 -0.290118 1.87772 0
M  V30 18466 H 1736.99 -2.52734 2.95055 0
M  V30 18467 H 1738.66 -0.493996 4.58647 0
M  V30 18468 H 1736.9 -0.395481 4.31994 0
M  V30 18469 H 1737.57 -1.74842 5.23578 0
M  V30 18470 H 1740.05 -2.37788 3.41462 0
M  V30 18471 H 1738.93 -3.49096 4.23584 0
M  V30 18472 H 1739.19 -3.64255 2.50541 0
M  V30 18473 N 1738.25 -1.47815 -0.546675 0
M  V30 18474 C 1739.49 -1.54238 -1.29975 0
M  V30 18475 C 1739.81 -0.213869 -1.94427 0
M  V30 18476 O 1741.01 -0.156187 -2.7105 0
M  V30 18477 C 1739.47 -2.71938 -2.35749 0
M  V30 18478 C 1739.08 -4.11362 -1.77441 0
M  V30 18479 C 1740.82 -2.87661 -3.12172 0
M  V30 18480 C 1738.73 -5.20347 -2.81057 0
M  V30 18481 H 1737.66 -0.574139 -0.488754 0
M  V30 18482 H 1740.31 -1.74113 -0.579384 0
M  V30 18483 H 1738.69 -2.45463 -3.10747 0
M  V30 18484 H 1739.87 -4.47785 -1.08744 0
M  V30 18485 H 1738.18 -4.00614 -1.13568 0
M  V30 18486 H 1740.78 -3.66252 -3.89568 0
M  V30 18487 H 1741.12 -1.96494 -3.67009 0
M  V30 18488 H 1741.65 -3.13957 -2.44286 0
M  V30 18489 H 1738.39 -6.13426 -2.31061 0
M  V30 18490 H 1737.91 -4.8843 -3.48132 0
M  V30 18491 H 1739.59 -5.47748 -3.44355 0
M  V30 18492 N 1739.72 0.794246 -1.36123 0
M  V30 18493 C 1740.95 1.58297 -1.33228 0
M  V30 18494 C 1741.37 1.88597 0.0875426 0
M  V30 18495 O 1740.72 1.49754 1.04307 0
M  V30 18496 C 1740.77 2.90687 -2.14904 0
M  V30 18497 O 1740.5 2.61695 -3.51351 0
M  V30 18498 C 1742 3.85009 -2.19734 0
M  V30 18499 H 1739.22 0.491139 -0.457191 0
M  V30 18500 H 1741.76 0.986129 -1.79153 0
M  V30 18501 H 1739.92 3.46852 -1.72546 0
M  V30 18502 H 1740.33 3.46313 -3.93913 0
M  V30 18503 H 1741.8 4.74976 -2.8125 0
M  V30 18504 H 1742.28 4.22504 -1.19946 0
M  V30 18505 H 1742.89 3.34777 -2.62307 0
M  V30 18506 N 1741.2 1.20323 1.01785 0
M  V30 18507 C 1742.43 1.03893 1.79502 0
M  V30 18508 C 1742.85 -0.407421 1.83635 0
M  V30 18509 O 1742.21 -1.29338 1.27049 0
M  V30 18510 C 1742.26 1.62562 3.21879 0
M  V30 18511 O 1741.36 0.862398 4.03282 0
M  V30 18512 H 1740.7 0.366479 0.553705 0
M  V30 18513 H 1743.23 1.59589 1.28034 0
M  V30 18514 H 1743.24 1.66244 3.72595 0
M  V30 18515 H 1741.92 2.67826 3.18186 0
M  V30 18516 H 1740.49 0.899687 3.61884 0
M  V30 18517 N 1742.68 -1.21073 1.00892 0
M  V30 18518 C 1743.9 -1.94774 0.712588 0
M  V30 18519 C 1744.33 -1.73812 -0.719085 0
M  V30 18520 O 1743.69 -1.02747 -1.49374 0
M  V30 18521 C 1743.74 -3.45156 1.04402 0
M  V30 18522 O 1742.84 -4.12122 0.151433 0
M  V30 18523 H 1742.18 -0.608775 0.26512 0
M  V30 18524 H 1744.71 -1.53721 1.35022 0
M  V30 18525 H 1744.72 -3.95744 0.992511 0
M  V30 18526 H 1743.4 -3.59736 2.08716 0
M  V30 18527 H 1741.97 -3.71994 0.259805 0
M  V30 18528 N 1744.16 -0.784156 -1.36707 0
M  V30 18529 C 1745.09 -0.193081 -2.327 0
M  V30 18530 C 1746.07 0.668999 -1.56392 0
M  V30 18531 O 1747.25 0.603908 -1.84571 0
M  V30 18532 C 1744.38 0.677092 -3.40636 0
M  V30 18533 C 1743.34 -0.0846718 -4.27916 0
M  V30 18534 C 1742.66 0.905754 -5.26973 0
M  V30 18535 C 1743.96 -1.27085 -5.06603 0
M  V30 18536 H 1745.66 -0.995029 -2.82382 0
M  V30 18537 H 1743.2 -0.479929 -1.35767 0
M  V30 18538 H 1745.16 1.1005 -4.06776 0
M  V30 18539 H 1743.88 1.51169 -2.89509 0
M  V30 18540 H 1742.54 -0.488992 -3.63324 0
M  V30 18541 H 1742.19 1.73524 -4.72121 0
M  V30 18542 H 1741.89 0.400524 -5.86233 0
M  V30 18543 H 1743.41 1.32784 -5.95987 0
M  V30 18544 H 1744.83 -0.923469 -5.65814 0
M  V30 18545 H 1743.22 -1.70901 -5.7525 0
M  V30 18546 H 1744.29 -2.06882 -4.38552 0
M  V30 18547 N 1745.64 1.48215 -0.535727 0
M  V30 18548 C 1746.86 2.07399 -0.00589172 0
M  V30 18549 C 1747.29 1.38886 1.26856 0
M  V30 18550 O 1746.64 0.456684 1.75454 0
M  V30 18551 C 1746.69 3.60071 0.195203 0
M  V30 18552 O 1745.8 3.92596 1.26261 0
M  V30 18553 H 1745.14 0.662689 -0.0416988 0
M  V30 18554 H 1747.67 1.90543 -0.745281 0
M  V30 18555 H 1747.68 4.05873 0.416085 0
M  V30 18556 H 1746.35 4.0934 -0.735747 0
M  V30 18557 H 1744.93 3.58567 1.02393 0
M  V30 18558 N 1747.11 0.27113 1.5525 0
M  V30 18559 C 1748.36 -0.346106 1.99114 0
M  V30 18560 C 1748.68 -1.56677 1.16092 0
M  V30 18561 O 1747.95 -1.94305 0.249472 0
M  V30 18562 H 1746.53 -0.13087 0.735447 0
M  V30 18563 H 1749.2 0.375542 1.91248 0
M  V30 18564 H 1748.29 -0.638703 3.05495 0
M  V30 18565 N 1748.59 -1.576 -0.00164943 0
M  V30 18566 C 1749.56 -2.07267 -0.978423 0
M  V30 18567 C 1750.56 -0.981758 -1.27351 0
M  V30 18568 O 1751.75 -1.24446 -1.21896 0
M  V30 18569 C 1748.88 -2.51273 -2.30379 0
M  V30 18570 H 1750.07 -2.94835 -0.548845 0
M  V30 18571 H 1747.62 -1.54302 -0.249086 0
M  V30 18572 H 1748.36 -1.66943 -2.7803 0
M  V30 18573 H 1748.14 -3.30943 -2.10283 0
M  V30 18574 H 1749.63 -2.90031 -3.00453 0
M  V30 18575 N 1750.07 0.274379 -1.55193 0
M  V30 18576 C 1751.32 1.00394 -1.7494 0
M  V30 18577 C 1751.63 1.87499 -0.557084 0
M  V30 18578 O 1752.84 2.63923 -0.636936 0
M  V30 18579 C 1751.29 1.83489 -3.09612 0
M  V30 18580 C 1750.9 1.01257 -4.36407 0
M  V30 18581 C 1752.65 2.55883 -3.38709 0
M  V30 18582 C 1750.55 1.83782 -5.62119 0
M  V30 18583 H 1749.48 0.378561 -0.65208 0
M  V30 18584 H 1752.13 0.259678 -1.81653 0
M  V30 18585 H 1750.52 2.62005 -2.96933 0
M  V30 18586 H 1751.69 0.27167 -4.59998 0
M  V30 18587 H 1750.01 0.403235 -4.14443 0
M  V30 18588 H 1752.6 3.18028 -4.2984 0
M  V30 18589 H 1752.95 3.26096 -2.58779 0
M  V30 18590 H 1753.48 1.84398 -3.5248 0
M  V30 18591 H 1750.22 1.17992 -6.44793 0
M  V30 18592 H 1749.74 2.55473 -5.42673 0
M  V30 18593 H 1751.42 2.41181 -6.00367 0
M  V30 18594 N 1751.55 1.48103 0.538828 0
M  V30 18595 C 1752.78 1.59316 1.32008 0
M  V30 18596 C 1753.19 0.250107 1.87136 0
M  V30 18597 O 1752.55 -0.759358 1.65952 0
M  V30 18598 C 1752.6 2.63287 2.47714 0
M  V30 18599 O 1752.32 3.92379 1.9486 0
M  V30 18600 C 1753.82 2.84856 3.39664 0
M  V30 18601 H 1751.04 0.53743 0.401758 0
M  V30 18602 H 1753.59 1.93864 0.65092 0
M  V30 18603 H 1751.74 2.31621 3.10532 0
M  V30 18604 H 1752.15 4.49346 2.70534 0
M  V30 18605 H 1753.63 3.61426 4.17223 0
M  V30 18606 H 1754.11 1.93352 3.9435 0
M  V30 18607 H 1754.71 3.17791 2.82647 0
M  V30 18608 N 1753.03 -0.787016 1.36542 0
M  V30 18609 C 1753.97 -1.89975 1.31065 0
M  V30 18610 C 1754.94 -1.65134 0.178905 0
M  V30 18611 O 1756.13 -1.8726 0.36581 0
M  V30 18612 C 1753.27 -3.26822 1.10821 0
M  V30 18613 C 1752.38 -3.6372 2.33091 0
M  V30 18614 C 1751.52 -4.89697 2.0584 0
M  V30 18615 C 1750.56 -5.1928 3.24059 0
M  V30 18616 N 1749.69 -6.36441 2.96457 0
M  V30 18617 H 1754.53 -1.93993 2.2621 0
M  V30 18618 H 1752.07 -0.948631 1.12425 0
M  V30 18619 H 1754.03 -4.05741 0.971091 0
M  V30 18620 H 1752.66 -3.22221 0.193302 0
M  V30 18621 H 1751.71 -2.79906 2.57598 0
M  V30 18622 H 1753.02 -3.81529 3.21305 0
M  V30 18623 H 1752.18 -5.76486 1.89072 0
M  V30 18624 H 1750.91 -4.73962 1.14941 0
M  V30 18625 H 1749.92 -4.30973 3.41383 0
M  V30 18626 H 1751.14 -5.36934 4.15787 0
M  V30 18627 H 1749.09 -6.22093 2.08172 0
M  V30 18628 H 1749.01 -6.54594 3.78209 0
M  V30 18629 H 1750.28 -7.26207 2.83273 0
M  V30 18630 N 1754.5 -1.20861 -1.01145 0
M  V30 18631 C 1755.92 -1.02156 -1.56272 0
M  V30 18632 C 1756.27 0.420552 -1.9164 0
M  V30 18633 O 1755.39 1.30277 -1.72792 0
M  V30 18634 C 1755.99 -1.84812 -2.83954 0
M  V30 18635 C 1754.55 -1.70458 -3.35591 0
M  V30 18636 C 1753.69 -1.82425 -2.08846 0
M  V30 18637 H 1756.64 -1.34978 -0.834669 0
M  V30 18638 H 1756.66 -1.35455 -3.55573 0
M  V30 18639 H 1756.18 -2.89765 -2.58181 0
M  V30 18640 H 1754.28 -0.681631 -3.66312 0
M  V30 18641 H 1754.39 -2.52041 -4.07446 0
M  V30 18642 H 1752.75 -1.25665 -2.21541 0
M  V30 18643 H 1753.54 -2.88872 -1.85493 0
M  V30 18644 N 1755.98 1.20536 -1.01532 0
M  V30 18645 C 1757.39 1.71594 -0.735687 0
M  V30 18646 C 1757.74 1.81469 0.745873 0
M  V30 18647 O 1756.87 1.47638 1.58215 0
M  V30 18648 C 1757.46 3.11654 -1.3288 0
M  V30 18649 C 1756.02 3.60027 -1.09806 0
M  V30 18650 C 1755.17 2.37266 -1.43528 0
M  V30 18651 H 1758.12 1.05568 -1.18495 0
M  V30 18652 H 1758.14 3.7365 -0.718725 0
M  V30 18653 H 1757.65 3.04434 -2.4071 0
M  V30 18654 H 1755.76 3.72581 -0.0373763 0
M  V30 18655 H 1755.87 4.44918 -1.77722 0
M  V30 18656 H 1754.23 2.39947 -0.854268 0
M  V30 18657 H 1755.02 2.32688 -2.5241 0
M  V30 18658 N 1757.46 0.791395 1.36289 0
M  V30 18659 C 1758.39 0.137038 2.27788 0
M  V30 18660 C 1759.37 -0.688032 1.47326 0
M  V30 18661 O 1760.56 -0.658587 1.76621 0
M  V30 18662 C 1757.68 -0.811389 3.28838 0
M  V30 18663 C 1756.73 -0.0678631 4.26446 0
M  V30 18664 S 1757.56 1.25774 5.2052 0
M  V30 18665 C 1758.72 0.313368 6.25115 0
M  V30 18666 H 1758.95 0.912848 2.82939 0
M  V30 18667 H 1756.48 0.585708 1.42859 0
M  V30 18668 H 1758.44 -1.35313 3.87557 0
M  V30 18669 H 1757.1 -1.56046 2.72596 0
M  V30 18670 H 1756.3 -0.787597 4.97808 0
M  V30 18671 H 1755.9 0.403461 3.71817 0
M  V30 18672 H 1758.19 -0.507056 6.756 0
M  V30 18673 H 1759.13 0.995731 7.01064 0
M  V30 18674 H 1759.54 -0.0841768 5.64437 0
M  V30 18675 N 1758.94 -1.47929 0.54358 0
M  V30 18676 C 1760.17 -2.06891 0.0189187 0
M  V30 18677 C 1760.58 -1.39822 -1.26867 0
M  V30 18678 O 1759.94 -0.490197 -1.75793 0
M  V30 18679 C 1759.99 -3.60976 -0.194595 0
M  V30 18680 O 1759.71 -4.25528 1.04199 0
M  V30 18681 C 1761.21 -4.3677 -0.758093 0
M  V30 18682 H 1758.43 -0.669827 0.0396625 0
M  V30 18683 H 1760.98 -1.90128 0.753105 0
M  V30 18684 H 1759.13 -3.77299 -0.878869 0
M  V30 18685 H 1759.55 -5.17872 0.831191 0
M  V30 18686 H 1761.02 -5.45309 -0.856846 0
M  V30 18687 H 1761.5 -4.02121 -1.76621 0
M  V30 18688 H 1762.1 -4.25158 -0.109953 0
M  V30 18689 N 1760.42 -0.27936 -1.55104 0
M  V30 18690 C 1761.67 0.336866 -1.98867 0
M  V30 18691 C 1761.98 1.56656 -1.17124 0
M  V30 18692 O 1763.19 2.25601 -1.51051 0
M  V30 18693 C 1761.64 0.650699 -3.53969 0
M  V30 18694 C 1761.25 -0.559433 -4.44493 0
M  V30 18695 C 1762.99 1.22931 -4.0631 0
M  V30 18696 C 1760.9 -0.219952 -5.90991 0
M  V30 18697 H 1759.83 0.129643 -0.742771 0
M  V30 18698 H 1762.48 -0.384678 -1.79423 0
M  V30 18699 H 1760.86 1.43126 -3.6923 0
M  V30 18700 H 1762.04 -1.3362 -4.41001 0
M  V30 18701 H 1760.35 -1.05519 -4.02809 0
M  V30 18702 H 1762.95 1.49719 -5.13311 0
M  V30 18703 H 1763.29 2.16458 -3.55601 0
M  V30 18704 H 1763.83 0.51095 -3.94505 0
M  V30 18705 H 1760.56 -1.1232 -6.45805 0
M  V30 18706 H 1760.08 0.519971 -5.97542 0
M  V30 18707 H 1761.76 0.186308 -6.46732 0
M  V30 18708 N 1761.9 1.57599 -0.0067085 0
M  V30 18709 C 1763.14 1.90036 0.675957 0
M  V30 18710 C 1763.46 0.882449 1.74563 0
M  V30 18711 O 1764.66 1.09728 2.48339 0
M  V30 18712 C 1763.12 3.37366 1.25349 0
M  V30 18713 C 1762.73 4.47468 0.218284 0
M  V30 18714 C 1764.47 3.78904 1.91396 0
M  V30 18715 C 1762.38 5.85879 0.806182 0
M  V30 18716 H 1761.31 0.709125 0.256237 0
M  V30 18717 H 1763.96 1.83373 -0.0683502 0
M  V30 18718 H 1762.34 3.38888 2.04868 0
M  V30 18719 H 1763.52 4.57472 -0.552808 0
M  V30 18720 H 1761.83 4.14992 -0.342131 0
M  V30 18721 H 1764.43 4.79654 2.36297 0
M  V30 18722 H 1764.77 3.12773 2.74734 0
M  V30 18723 H 1765.3 3.79709 1.186 0
M  V30 18724 H 1762.04 6.55499 0.0114275 0
M  V30 18725 H 1761.56 5.79526 1.54628 0
M  V30 18726 H 1763.24 6.33748 1.30278 0
M  V30 18727 N 1763.37 -0.266145 1.55336 0
M  V30 18728 C 1764.34 -1.31242 1.87904 0
M  V30 18729 C 1765.34 -1.42022 0.754083 0
M  V30 18730 O 1766.53 -1.41054 1.02222 0
M  V30 18731 C 1763.66 -2.69285 2.09041 0
M  V30 18732 H 1764.85 -1.03592 2.81441 0
M  V30 18733 H 1762.4 -0.504537 1.47933 0
M  V30 18734 H 1763.14 -3.02106 1.17909 0
M  V30 18735 H 1762.92 -2.62846 2.90954 0
M  V30 18736 H 1764.41 -3.4487 2.35488 0
M  V30 18737 N 1764.85 -1.48386 -0.530967 0
M  V30 18738 C 1766.1 -1.55608 -1.28332 0
M  V30 18739 C 1766.41 -0.234479 -1.94189 0
M  V30 18740 O 1767.62 -0.184926 -2.70869 0
M  V30 18741 C 1766.08 -2.74423 -2.32852 0
M  V30 18742 C 1765.68 -4.13221 -1.73068 0
M  V30 18743 C 1767.43 -2.90956 -3.09103 0
M  V30 18744 C 1765.33 -5.23299 -2.75522 0
M  V30 18745 H 1764.26 -0.579291 -0.482637 0
M  V30 18746 H 1766.92 -1.74718 -0.560885 0
M  V30 18747 H 1765.3 -2.48745 -3.08126 0
M  V30 18748 H 1766.47 -4.48913 -1.03989 0
M  V30 18749 H 1764.79 -4.01796 -1.09312 0
M  V30 18750 H 1767.38 -3.70363 -3.85662 0
M  V30 18751 H 1767.73 -2.00376 -3.64905 0
M  V30 18752 H 1768.26 -3.1653 -2.40943 0
M  V30 18753 H 1765 -6.15842 -2.24542 0
M  V30 18754 H 1764.52 -4.92095 -3.42932 0
M  V30 18755 H 1766.2 -5.5137 -3.38526 0
M  V30 18756 N 1766.33 0.779763 -1.36958 0
M  V30 18757 C 1767.56 1.56875 -1.34899 0
M  V30 18758 C 1767.97 1.88679 0.0675345 0
M  V30 18759 O 1767.33 1.50852 1.02712 0
M  V30 18760 C 1767.38 2.88391 -2.17975 0
M  V30 18761 O 1767.1 2.57954 -3.54107 0
M  V30 18762 C 1768.6 3.82657 -2.23805 0
M  V30 18763 H 1765.82 0.486262 -0.462374 0
M  V30 18764 H 1768.37 0.967072 -1.80189 0
M  V30 18765 H 1766.52 3.45003 -1.76215 0
M  V30 18766 H 1766.94 3.42115 -3.97564 0
M  V30 18767 H 1768.41 4.71967 -2.86272 0
M  V30 18768 H 1768.89 4.21208 -1.24421 0
M  V30 18769 H 1769.49 3.31976 -2.65843 0
M  V30 18770 N 1767.81 1.21396 1.00503 0
M  V30 18771 C 1769.22 0.971304 1.26641 0
M  V30 18772 C 1769.42 -0.342336 1.98571 0
M  V30 18773 O 1768.48 -1.068 2.28801 0
M  V30 18774 C 1769.79 2.16186 2.09008 0
M  V30 18775 C 1771.34 2.20411 2.22234 0
M  V30 18776 C 1771.82 3.38984 3.07983 0
M  V30 18777 N 1773.31 3.3907 3.15572 0
M  V30 18778 C 1774.04 4.27467 3.82177 0
M  V30 18779 N 1773.54 5.26062 4.50811 0
M  V30 18780 N 1775.33 4.15276 3.78817 0
M  V30 18781 H 1767.48 2.05875 0.522436 0
M  V30 18782 H 1769.74 0.901496 0.293272 0
M  V30 18783 H 1769.45 3.11383 1.63504 0
M  V30 18784 H 1769.32 2.15243 3.09758 0
M  V30 18785 H 1771.71 1.25769 2.66957 0
M  V30 18786 H 1771.79 2.25397 1.20954 0
M  V30 18787 H 1771.44 4.33919 2.63964 0
M  V30 18788 H 1771.37 3.31236 4.09378 0
M  V30 18789 H 1773.86 2.67718 2.66713 0
M  V30 18790 H 1774.17 5.89815 4.99338 0
M  V30 18791 H 1772.52 5.29987 4.49599 0
M  V30 18792 H 1775.71 3.37511 3.24351 0
M  V30 18793 H 1775.88 4.84375 4.30448 0
M  V30 18794 N 1769.29 -1.19996 1.0217 0
M  V30 18795 C 1770.53 -1.89495 0.713989 0
M  V30 18796 C 1770.86 -1.79172 -0.756819 0
M  V30 18797 O 1770.12 -1.17362 -1.56603 0
M  V30 18798 C 1770.41 -3.39999 1.10162 0
M  V30 18799 C 1770.08 -3.70524 2.5695 0
M  V30 18800 C 1768.74 -3.78565 2.97056 0
M  V30 18801 C 1771.09 -3.8442 3.51952 0
M  V30 18802 C 1768.42 -3.97965 4.31092 0
M  V30 18803 C 1770.77 -4.05332 4.85684 0
M  V30 18804 C 1769.44 -4.11604 5.25489 0
M  V30 18805 H 1768.71 -0.693412 0.261267 0
M  V30 18806 H 1771.36 -1.42146 1.28323 0
M  V30 18807 H 1769.66 -3.89197 0.45088 0
M  V30 18808 H 1771.36 -3.92078 0.841158 0
M  V30 18809 H 1767.95 -3.64868 2.24876 0
M  V30 18810 H 1772.13 -3.77558 3.22123 0
M  V30 18811 H 1767.39 -4.01058 4.61479 0
M  V30 18812 H 1771.56 -4.15027 5.59219 0
M  V30 18813 H 1769.19 -4.26389 6.29362 0
M  V30 18814 N 1770.76 -0.798611 -1.35867 0
M  V30 18815 C 1771.99 -0.386378 -2.03769 0
M  V30 18816 C 1772.41 0.992154 -1.59806 0
M  V30 18817 O 1771.77 1.64094 -0.770895 0
M  V30 18818 C 1771.82 -0.468859 -3.57539 0
M  V30 18819 O 1770.92 0.520742 -4.09099 0
M  V30 18820 H 1770.26 -0.162597 -0.643784 0
M  V30 18821 H 1772.79 -1.08228 -1.73631 0
M  V30 18822 H 1772.8 -0.335775 -4.06616 0
M  V30 18823 H 1771.48 -1.47441 -3.88888 0
M  V30 18824 H 1770.06 0.348559 -3.71267 0
M  V30 18825 N 1772.24 1.47639 -0.551417 0
M  V30 18826 C 1773.66 1.58202 -0.210768 0
M  V30 18827 C 1773.86 1.55078 1.28659 0
M  V30 18828 O 1772.91 1.45113 2.06636 0
M  V30 18829 C 1774.23 2.88952 -0.832294 0
M  V30 18830 C 1775.77 3.02524 -0.80299 0
M  V30 18831 C 1776.25 4.35966 -1.40348 0
M  V30 18832 N 1777.74 4.42587 -1.3664 0
M  V30 18833 C 1778.48 5.44391 -1.80072 0
M  V30 18834 N 1777.97 6.53037 -2.31332 0
M  V30 18835 N 1779.76 5.35401 -1.71178 0
M  V30 18836 H 1771.92 1.47912 -1.52433 0
M  V30 18837 H 1774.18 0.703607 -0.635328 0
M  V30 18838 H 1773.88 2.96958 -1.88439 0
M  V30 18839 H 1773.76 3.75824 -0.321915 0
M  V30 18840 H 1776.15 2.94119 0.240395 0
M  V30 18841 H 1776.23 2.17209 -1.35107 0
M  V30 18842 H 1775.87 4.45127 -2.4459 0
M  V30 18843 H 1775.8 5.20004 -0.830897 0
M  V30 18844 H 1778.29 3.64664 -0.991386 0
M  V30 18845 H 1778.6 7.26884 -2.62411 0
M  V30 18846 H 1776.95 6.53942 -2.35339 0
M  V30 18847 H 1780.14 4.49421 -1.30912 0
M  V30 18848 H 1780.31 6.14604 -2.05344 0
M  V30 18849 N 1773.72 0.287581 1.54954 0
M  V30 18850 C 1775.14 -0.0662092 1.59463 0
M  V30 18851 C 1775.34 -1.53556 1.30471 0
M  V30 18852 O 1774.39 -2.28632 1.07161 0
M  V30 18853 C 1775.71 0.319651 2.98996 0
M  V30 18854 C 1777.25 0.2673 3.11857 0
M  V30 18855 C 1777.73 0.627784 4.53677 0
M  V30 18856 N 1779.22 0.579808 4.59557 0
M  V30 18857 C 1779.95 0.831377 5.67341 0
M  V30 18858 N 1779.45 1.14821 6.83219 0
M  V30 18859 N 1781.24 0.759337 5.56947 0
M  V30 18860 H 1773.39 1.24534 1.72062 0
M  V30 18861 H 1775.66 0.503969 0.802944 0
M  V30 18862 H 1775.36 1.34201 3.25089 0
M  V30 18863 H 1775.24 -0.333373 3.75724 0
M  V30 18864 H 1777.62 -0.745794 2.8552 0
M  V30 18865 H 1777.71 0.954759 2.37314 0
M  V30 18866 H 1777.35 1.63862 4.80741 0
M  V30 18867 H 1777.28 -0.0816007 5.26537 0
M  V30 18868 H 1779.77 0.34531 3.76319 0
M  V30 18869 H 1780.08 1.32651 7.6133 0
M  V30 18870 H 1778.43 1.18612 6.84804 0
M  V30 18871 H 1781.62 0.511563 4.65296 0
M  V30 18872 H 1781.79 0.95877 6.40868 0
M  V30 18873 N 1775.2 -1.57593 0.0150662 0
M  V30 18874 C 1776.15 -2.0936 -0.971443 0
M  V30 18875 C 1777.12 -0.992416 -1.33193 0
M  V30 18876 O 1778.3 -1.26577 -1.42769 0
M  V30 18877 C 1775.44 -2.61386 -2.25324 0
M  V30 18878 C 1774.55 -3.85462 -1.95046 0
M  V30 18879 C 1773.69 -4.25934 -3.17418 0
M  V30 18880 C 1772.73 -5.42805 -2.82894 0
M  V30 18881 N 1771.86 -5.78499 -3.97848 0
M  V30 18882 H 1776.7 -2.93373 -0.523068 0
M  V30 18883 H 1774.24 -1.45018 -0.246605 0
M  V30 18884 H 1776.2 -2.89635 -3.00279 0
M  V30 18885 H 1774.83 -1.80225 -2.67804 0
M  V30 18886 H 1773.88 -3.64029 -1.10394 0
M  V30 18887 H 1775.19 -4.70505 -1.6561 0
M  V30 18888 H 1774.35 -4.55544 -4.00705 0
M  V30 18889 H 1773.09 -3.3963 -3.50004 0
M  V30 18890 H 1772.09 -5.12903 -1.98016 0
M  V30 18891 H 1773.32 -6.30797 -2.51539 0
M  V30 18892 H 1771.26 -4.95152 -4.30303 0
M  V30 18893 H 1771.18 -6.5815 -3.71988 0
M  V30 18894 H 1772.45 -6.12708 -4.8188 0
M  V30 18895 N 1776.68 0.257904 -1.55475 0
M  V30 18896 C 1777.93 0.985329 -1.75995 0
M  V30 18897 C 1778.24 1.86898 -0.57694 0
M  V30 18898 O 1779.44 2.63233 -0.664893 0
M  V30 18899 C 1777.9 1.80195 -3.11541 0
M  V30 18900 C 1777.51 0.966227 -4.37456 0
M  V30 18901 C 1779.25 2.52277 -3.41404 0
M  V30 18902 C 1777.16 1.7781 -5.64037 0
M  V30 18903 H 1776.09 0.371623 -0.656058 0
M  V30 18904 H 1778.74 0.240396 -1.81919 0
M  V30 18905 H 1777.12 2.58841 -2.99695 0
M  V30 18906 H 1778.3 0.222865 -4.60261 0
M  V30 18907 H 1776.61 0.359255 -4.14847 0
M  V30 18908 H 1779.21 3.13451 -4.33189 0
M  V30 18909 H 1779.55 3.23333 -2.62224 0
M  V30 18910 H 1780.08 1.80649 -3.54416 0
M  V30 18911 H 1776.82 1.11147 -6.46008 0
M  V30 18912 H 1776.34 2.49703 -5.45352 0
M  V30 18913 H 1778.02 2.348 -6.02891 0
M  V30 18914 N 1778.15 1.48666 0.52309 0
M  V30 18915 C 1779.57 1.50492 1.10495 0
M  V30 18916 C 1779.92 0.278579 1.94212 0
M  V30 18917 O 1779.04 -0.613679 2.07516 0
M  V30 18918 C 1779.64 2.72692 2.01058 0
M  V30 18919 C 1778.2 2.77368 2.54448 0
M  V30 18920 C 1777.34 2.44104 1.31562 0
M  V30 18921 H 1780.29 1.55682 0.308017 0
M  V30 18922 H 1780.31 2.51601 2.85442 0
M  V30 18923 H 1779.83 3.61931 1.401 0
M  V30 18924 H 1777.93 1.92356 3.19108 0
M  V30 18925 H 1778.04 3.78976 2.93111 0
M  V30 18926 H 1776.4 1.95407 1.63366 0
M  V30 18927 H 1777.19 3.35591 0.723455 0
M  V30 18928 N 1779.63 -0.772489 1.37369 0
M  V30 18929 C 1780.88 -1.53249 1.3374 0
M  V30 18930 C 1781.23 -1.92242 -0.0778522 0
M  V30 18931 O 1780.53 -1.61156 -1.03631 0
M  V30 18932 C 1780.72 -2.80907 2.20966 0
M  V30 18933 C 1780.55 -2.54391 3.7083 0
M  V30 18934 C 1779.32 -2.48557 4.3994 0
M  V30 18935 C 1781.52 -2.22438 4.63709 0
M  V30 18936 N 1779.5 -2.14117 5.75349 0
M  V30 18937 C 1780.87 -1.98131 5.8749 0
M  V30 18938 C 1782.93 -2.08587 4.52101 0
M  V30 18939 C 1781.63 -1.61372 7.00965 0
M  V30 18940 C 1783.65 -1.73228 5.65461 0
M  V30 18941 C 1783.02 -1.4978 6.88292 0
M  V30 18942 H 1779.12 -0.56112 0.544673 0
M  V30 18943 H 1781.7 -0.901278 1.72583 0
M  V30 18944 H 1779.87 -3.41867 1.8434 0
M  V30 18945 H 1781.6 -3.46797 2.086 0
M  V30 18946 H 1778.36 -2.64386 3.92934 0
M  V30 18947 H 1778.78 -1.99596 6.46908 0
M  V30 18948 H 1783.42 -2.25398 3.57708 0
M  V30 18949 H 1781.14 -1.43299 7.95293 0
M  V30 18950 H 1784.73 -1.6317 5.5845 0
M  V30 18951 H 1783.61 -1.22824 7.74522 0
M  V30 18952 N 1781.11 -1.21927 -0.998575 0
M  V30 18953 C 1782.04 -0.942076 -2.08944 0
M  V30 18954 C 1783.06 0.0771683 -1.62617 0
M  V30 18955 O 1784.24 -0.156133 -1.77816 0
M  V30 18956 C 1781.34 -0.394201 -3.366 0
M  V30 18957 C 1780.52 -1.46931 -4.11983 0
M  V30 18958 C 1779.58 -0.929531 -5.17925 0
M  V30 18959 O 1778.6 -1.61444 -5.45824 0
M  V30 18960 N 1779.8 0.251965 -5.79953 0
M  V30 18961 H 1782.57 -1.88119 -2.33306 0
M  V30 18962 H 1780.13 -1.12539 -1.16389 0
M  V30 18963 H 1782.12 -0.0185416 -4.04696 0
M  V30 18964 H 1780.69 0.449884 -3.09346 0
M  V30 18965 H 1779.91 -2.01854 -3.38598 0
M  V30 18966 H 1781.2 -2.19284 -4.59121 0
M  V30 18967 H 1780.6 0.825333 -5.59647 0
M  V30 18968 H 1779.16 0.569068 -6.49311 0
M  V30 18969 N 1782.59 1.19452 -1.02805 0
M  V30 18970 C 1783.52 2.22095 -0.566246 0
M  V30 18971 C 1784.53 1.58828 0.357442 0
M  V30 18972 O 1785.72 1.77835 0.153965 0
M  V30 18973 C 1782.82 3.38343 0.194294 0
M  V30 18974 C 1782 4.31195 -0.734131 0
M  V30 18975 C 1781.05 5.26197 -0.0191426 0
M  V30 18976 O 1780.08 5.65529 -0.645436 0
M  V30 18977 N 1781.28 5.66841 1.25187 0
M  V30 18978 H 1784.05 2.62342 -1.44902 0
M  V30 18979 H 1781.61 1.3411 -0.906978 0
M  V30 18980 H 1783.6 3.9891 0.682136 0
M  V30 18981 H 1782.17 2.96892 0.978474 0
M  V30 18982 H 1781.39 3.68423 -1.40208 0
M  V30 18983 H 1782.68 4.90144 -1.36516 0
M  V30 18984 H 1782.08 5.36918 1.78145 0
M  V30 18985 H 1780.63 6.29664 1.68423 0
M  V30 18986 N 1784.07 0.805805 1.35442 0
M  V30 18987 C 1785.01 0.203715 2.31706 0
M  V30 18988 C 1786.01 -0.646084 1.56595 0
M  V30 18989 O 1787.21 -0.539336 1.7173 0
M  V30 18990 H 1783.59 0.0471152 0.750523 0
M  V30 18991 H 1785.56 1.03076 2.80032 0
M  V30 18992 C 1784.31 -0.633791 3.41875 0
M  V30 18993 H 1783.63 0.0107715 3.99799 0
M  V30 18994 H 1785.07 -1.02147 4.11512 0
M  V30 18995 C 1783.53 -1.79899 2.84847 0
M  V30 18996 O 1784.06 -2.89643 2.78334 0
M  V30 18997 N 1782.27 -1.61027 2.41906 0
M  V30 18998 H 1781.81 -0.717599 2.47403 0
M  V30 18999 H 1781.77 -2.39147 2.04099 0
M  V30 19000 N 1785.54 -1.47344 0.559239 0
M  V30 19001 C 1786.79 -2.02468 0.035943 0
M  V30 19002 C 1787.12 -1.43337 -1.31472 0
M  V30 19003 O 1786.37 -0.579355 -1.86928 0
M  V30 19004 C 1786.67 -3.57247 -0.104523 0
M  V30 19005 C 1786.34 -4.35307 1.17551 0
M  V30 19006 C 1785 -4.56354 1.52625 0
M  V30 19007 C 1787.35 -4.8031 2.02365 0
M  V30 19008 C 1784.68 -5.19653 2.72356 0
M  V30 19009 C 1787.03 -5.4493 3.213 0
M  V30 19010 C 1785.7 -5.64209 3.56685 0
M  V30 19011 H 1784.97 -0.740883 0.0131525 0
M  V30 19012 H 1787.61 -1.76992 0.73116 0
M  V30 19013 H 1785.92 -3.81727 -0.88272 0
M  V30 19014 H 1787.62 -3.97551 -0.5248 0
M  V30 19015 H 1784.21 -4.19206 0.892413 0
M  V30 19016 H 1788.39 -4.63827 1.76575 0
M  V30 19017 H 1783.65 -5.32773 2.99938 0
M  V30 19018 H 1787.82 -5.78764 3.87305 0
M  V30 19019 H 1785.45 -6.13028 4.49556 0
M  V30 19020 N 1787.02 -0.295795 -1.54799 0
M  V30 19021 C 1788.27 0.315473 -2.00331 0
M  V30 19022 C 1788.6 1.53939 -1.18392 0
M  V30 19023 O 1787.88 1.92767 -0.259086 0
M  V30 19024 C 1788.16 0.677227 -3.53674 0
M  V30 19025 C 1788.01 -0.555462 -4.46357 0
M  V30 19026 C 1789.33 1.50576 -4.1354 0
M  V30 19027 H 1786.45 0.113191 -0.728256 0
M  V30 19028 H 1789.09 -0.406858 -1.85593 0
M  V30 19029 H 1787.24 1.29264 -3.66365 0
M  V30 19030 H 1788.91 -1.19397 -4.45581 0
M  V30 19031 H 1787.16 -1.18968 -4.17168 0
M  V30 19032 H 1787.83 -0.25828 -5.51395 0
M  V30 19033 H 1790.3 0.985819 -4.04253 0
M  V30 19034 H 1789.18 1.72766 -5.21002 0
M  V30 19035 H 1789.44 2.49334 -3.65082 0
M  V30 19036 N 1788.5 1.57583 -0.0234236 0
M  V30 19037 C 1789.45 2.11023 0.978379 0
M  V30 19038 C 1790.44 1.03548 1.34067 0
M  V30 19039 O 1791.65 1.2199 1.32357 0
M  V30 19040 H 1788.02 0.674119 0.333267 0
M  V30 19041 H 1790 2.94142 0.502301 0
M  V30 19042 C 1788.74 2.64782 2.25358 0
M  V30 19043 H 1788.07 3.47125 1.98353 0
M  V30 19044 H 1789.51 3.05826 2.93678 0
M  V30 19045 C 1787.97 1.57262 2.97943 0
M  V30 19046 O 1788.5 0.969124 3.89834 0
M  V30 19047 N 1786.7 1.29443 2.60178 0
M  V30 19048 H 1786.25 1.78706 1.85532 0
M  V30 19049 H 1786.21 0.577276 3.09055 0
M  V30 19050 N 1789.98 -0.249655 1.5561 0
M  V30 19051 C 1790.93 -1.32883 1.90906 0
M  V30 19052 C 1791.92 -1.49965 0.787832 0
M  V30 19053 O 1793.13 -1.51473 0.972422 0
M  V30 19054 H 1789.5 -0.444907 0.606269 0
M  V30 19055 H 1791.47 -1.00379 2.8101 0
M  V30 19056 C 1790.22 -2.67782 2.21784 0
M  V30 19057 H 1789.55 -2.55436 3.07559 0
M  V30 19058 H 1790.99 -3.42175 2.50385 0
M  V30 19059 C 1789.44 -3.20664 1.03325 0
M  V30 19060 O 1789.97 -4.00724 0.279822 0
M  V30 19061 N 1788.18 -2.78655 0.824614 0
M  V30 19062 H 1787.73 -2.1366 1.43899 0
M  V30 19063 H 1787.69 -3.14382 0.03369 0
M  V30 19064 N 1791.46 -1.48941 -0.515198 0
M  V30 19065 C 1792.41 -1.60958 -1.61482 0
M  V30 19066 C 1793.39 -0.46591 -1.54007 0
M  V30 19067 O 1794.58 -0.718134 -1.61777 0
M  V30 19068 C 1791.71 -1.66623 -3.00153 0
M  V30 19069 C 1790.8 -2.8652 -3.12677 0
M  V30 19070 N 1791.19 -4.10769 -2.95131 0
M  V30 19071 C 1789.49 -2.84161 -3.43756 0
M  V30 19072 C 1790.19 -4.9129 -3.11463 0
M  V30 19073 N 1789.16 -4.24384 -3.39704 0
M  V30 19074 H 1792.97 -2.54756 -1.46549 0
M  V30 19075 H 1790.48 -1.45517 -0.721007 0
M  V30 19076 H 1792.48 -1.73328 -3.79161 0
M  V30 19077 H 1791.14 -0.739523 -3.16166 0
M  V30 19078 H 1792.15 -4.40974 -2.71593 0
M  V30 19079 H 1788.83 -2.00809 -3.66035 0
M  V30 19080 H 1790.22 -5.99948 -3.0251 0
M  V30 19081 N 1792.94 0.765193 -1.37777 0
M  V30 19082 C 1793.88 1.90005 -1.34168 0
M  V30 19083 C 1794.88 1.6784 -0.229387 0
M  V30 19084 O 1796.08 1.7555 -0.39778 0
M  V30 19085 H 1792.46 0.624939 -0.418276 0
M  V30 19086 H 1794.43 1.90165 -2.29956 0
M  V30 19087 C 1793.18 3.27349 -1.17208 0
M  V30 19088 H 1792.5 3.44985 -2.02053 0
M  V30 19089 H 1793.94 4.07036 -1.18734 0
M  V30 19090 C 1792.4 3.3668 0.121835 0
M  V30 19091 O 1792.93 3.86258 1.10306 0
M  V30 19092 N 1791.14 2.90074 0.174753 0
M  V30 19093 H 1790.68 2.49918 -0.624397 0
M  V30 19094 H 1790.64 2.96697 1.0401 0
M  V30 19095 N 1794.41 1.22455 0.992094 0
M  V30 19096 C 1795.82 1.04629 1.54627 0
M  V30 19097 C 1796.18 -0.390011 1.92285 0
M  V30 19098 O 1795.3 -1.27511 1.74842 0
M  V30 19099 C 1795.9 1.89306 2.80978 0
M  V30 19100 C 1794.45 1.75775 3.32836 0
M  V30 19101 C 1793.6 1.85724 2.05917 0
M  V30 19102 H 1796.55 1.36288 0.813089 0
M  V30 19103 H 1796.57 1.41095 3.53373 0
M  V30 19104 H 1796.09 2.93836 2.53539 0
M  V30 19105 H 1794.19 0.739821 3.65181 0
M  V30 19106 H 1794.3 2.58491 4.03385 0
M  V30 19107 H 1792.66 1.29173 2.19514 0
M  V30 19108 H 1793.45 2.91787 1.80874 0
M  V30 19109 N 1795.89 -1.18905 1.03437 0
M  V30 19110 C 1796.84 -2.22318 0.619933 0
M  V30 19111 C 1797.81 -1.61948 -0.369056 0
M  V30 19112 O 1798.99 -1.88958 -0.26447 0
M  V30 19113 C 1796.13 -3.45096 -0.0174579 0
M  V30 19114 C 1795.25 -4.19829 1.01823 0
M  V30 19115 C 1794.38 -5.30046 0.350026 0
M  V30 19116 C 1793.42 -5.96543 1.37125 0
M  V30 19117 N 1792.56 -6.98311 0.728458 0
M  V30 19118 H 1797.4 -2.57125 1.50634 0
M  V30 19119 H 1794.93 -1.26324 0.753695 0
M  V30 19120 H 1796.89 -4.15236 -0.404294 0
M  V30 19121 H 1795.52 -3.10927 -0.867412 0
M  V30 19122 H 1794.57 -3.48578 1.52308 0
M  V30 19123 H 1795.89 -4.65415 1.79416 0
M  V30 19124 H 1795.04 -6.06631 -0.0913585 0
M  V30 19125 H 1793.78 -4.85544 -0.458049 0
M  V30 19126 H 1792.78 -5.18703 1.82284 0
M  V30 19127 H 1794.01 -6.43127 2.18091 0
M  V30 19128 H 1791.96 -6.55973 -0.0594251 0
M  V30 19129 H 1791.87 -7.42117 1.44218 0
M  V30 19130 H 1793.14 -7.78878 0.311259 0
M  V30 19131 N 1797.37 -0.812977 -1.35013 0
M  V30 19132 C 1798.62 -0.395562 -1.98191 0
M  V30 19133 C 1798.94 1.04242 -1.64799 0
M  V30 19134 O 1798.21 1.72219 -0.933678 0
M  V30 19135 H 1796.79 -0.143276 -0.733131 0
M  V30 19136 H 1799.45 -1.04023 -1.64819 0
M  V30 19137 H 1798.55 -0.506466 -3.07963 0
M  V30 19138 N 1798.85 1.47045 -0.567045 0
M  V30 19139 C 1800.26 1.5797 -0.227536 0
M  V30 19140 C 1800.46 1.56434 1.27006 0
M  V30 19141 O 1799.52 1.47297 2.05085 0
M  V30 19142 C 1800.83 2.88053 -0.862894 0
M  V30 19143 C 1802.38 3.01656 -0.835032 0
M  V30 19144 C 1802.86 4.34453 -1.44964 0
M  V30 19145 N 1804.35 4.41113 -1.41327 0
M  V30 19146 C 1805.08 5.42451 -1.85835 0
M  V30 19147 N 1804.58 6.50547 -2.38245 0
M  V30 19148 N 1806.37 5.33556 -1.76847 0
M  V30 19149 H 1798.52 1.46287 -1.53993 0
M  V30 19150 H 1800.78 0.696829 -0.642755 0
M  V30 19151 H 1800.49 2.94942 -1.91578 0
M  V30 19152 H 1800.36 3.75461 -0.361758 0
M  V30 19153 H 1802.75 2.94358 0.209187 0
M  V30 19154 H 1802.83 2.15764 -1.37403 0
M  V30 19155 H 1802.48 4.42508 -2.49298 0
M  V30 19156 H 1802.41 5.19093 -0.886003 0
M  V30 19157 H 1804.9 3.63592 -1.03001 0
M  V30 19158 H 1805.21 7.2406 -2.70105 0
M  V30 19159 H 1803.56 6.51409 -2.42262 0
M  V30 19160 H 1806.75 4.48008 -1.35671 0
M  V30 19161 H 1806.92 6.12391 -2.11851 0
M  V30 19162 N 1800.33 0.304 1.5464 0
M  V30 19163 C 1801.26 -0.563854 2.2659 0
M  V30 19164 C 1802.24 -1.13547 1.26653 0
M  V30 19165 O 1803.42 -1.16425 1.55431 0
M  V30 19166 C 1800.55 -1.73437 3.00894 0
M  V30 19167 C 1799.51 -1.29297 4.08003 0
M  V30 19168 C 1798.83 -2.54888 4.70038 0
M  V30 19169 C 1800.13 -0.422027 5.20592 0
M  V30 19170 H 1801.83 0.0362569 2.99378 0
M  V30 19171 H 1799.37 0.0188781 1.43988 0
M  V30 19172 H 1801.32 -2.34762 3.4995 0
M  V30 19173 H 1800.05 -2.36076 2.25689 0
M  V30 19174 H 1798.71 -0.702757 3.59801 0
M  V30 19175 H 1798.36 -3.15848 3.9147 0
M  V30 19176 H 1798.06 -2.26054 5.42378 0
M  V30 19177 H 1799.58 -3.17011 5.21859 0
M  V30 19178 H 1800.99 -0.941036 5.65524 0
M  V30 19179 H 1799.39 -0.227323 5.99669 0
M  V30 19180 H 1800.46 0.55212 4.81746 0
M  V30 19181 N 1801.8 -1.57568 0.0317802 0
M  V30 19182 C 1803.22 -1.56264 -0.324633 0
M  V30 19183 C 1803.42 -1.03765 -1.72728 0
M  V30 19184 O 1802.48 -0.685566 -2.43015 0
M  V30 19185 C 1803.79 -3.00214 -0.170806 0
M  V30 19186 C 1805.34 -3.12052 -0.243373 0
M  V30 19187 C 1805.81 -4.57847 -0.118304 0
M  V30 19188 N 1807.3 -4.62869 -0.175203 0
M  V30 19189 C 1808.04 -5.73309 -0.102252 0
M  V30 19190 N 1807.53 -6.92797 0.0219373 0
M  V30 19191 N 1809.33 -5.61882 -0.156432 0
M  V30 19192 H 1801.48 -1.90022 0.948968 0
M  V30 19193 H 1803.74 -0.874208 0.366693 0
M  V30 19194 H 1803.45 -3.42585 0.795517 0
M  V30 19195 H 1803.32 -3.65302 -0.939907 0
M  V30 19196 H 1805.71 -2.69593 -1.20016 0
M  V30 19197 H 1805.79 -2.49681 0.55615 0
M  V30 19198 H 1805.43 -5.00988 0.835072 0
M  V30 19199 H 1805.36 -5.18202 -0.936726 0
M  V30 19200 H 1807.85 -3.76925 -0.271225 0
M  V30 19201 H 1808.17 -7.72768 0.0708376 0
M  V30 19202 H 1806.51 -6.94977 0.0567564 0
M  V30 19203 H 1809.7 -4.67422 -0.251873 0
M  V30 19204 H 1809.88 -6.47929 -0.0961177 0
M  V30 19205 N 1803.28 0.241399 -1.5574 0
M  V30 19206 C 1804.23 1.31868 -1.91608 0
M  V30 19207 C 1805.22 1.49545 -0.795774 0
M  V30 19208 O 1806.43 1.50955 -0.980442 0
M  V30 19209 H 1802.81 0.441685 -0.60862 0
M  V30 19210 H 1804.78 0.98887 -2.81538 0
M  V30 19211 C 1803.53 2.66602 -2.23201 0
M  V30 19212 H 1802.85 2.53802 -3.08909 0
M  V30 19213 H 1804.29 3.40842 -2.52196 0
M  V30 19214 C 1802.75 3.20112 -1.05024 0
M  V30 19215 O 1803.28 4.0057 -0.301069 0
M  V30 19216 N 1801.48 2.78214 -0.839381 0
M  V30 19217 H 1801.03 2.12894 -1.4503 0
M  V30 19218 H 1800.99 3.1436 -0.050362 0
M  V30 19219 N 1804.76 1.49212 0.507292 0
M  V30 19220 C 1805.69 1.61529 1.62606 0
M  V30 19221 C 1806.71 0.498303 1.54986 0
M  V30 19222 O 1807.89 0.7701 1.61033 0
M  V30 19223 C 1804.99 1.55015 3.0137 0
M  V30 19224 C 1804.17 2.8214 3.34239 0
M  V30 19225 C 1803.23 2.68765 4.52385 0
M  V30 19226 O 1802.25 3.42691 4.54479 0
M  V30 19227 N 1803.45 1.7989 5.51924 0
M  V30 19228 H 1806.22 2.58018 1.52469 0
M  V30 19229 H 1803.78 1.46222 0.695042 0
M  V30 19230 H 1805.77 1.4373 3.78317 0
M  V30 19231 H 1804.34 0.6641 3.05464 0
M  V30 19232 H 1803.56 3.07823 2.46249 0
M  V30 19233 H 1804.85 3.66432 3.52994 0
M  V30 19234 H 1804.25 1.19074 5.53026 0
M  V30 19235 H 1802.81 1.74531 6.27999 0
M  V30 19236 N 1806.24 -0.757876 1.38181 0
M  V30 19237 C 1807.19 -1.86207 1.31571 0
M  V30 19238 C 1808.17 -1.59642 0.200812 0
M  V30 19239 O 1809.36 -1.71535 0.436416 0
M  V30 19240 C 1806.49 -3.23861 1.13881 0
M  V30 19241 C 1805.58 -3.56332 2.29975 0
M  V30 19242 N 1805.97 -3.59889 3.55406 0
M  V30 19243 C 1804.27 -3.86574 2.22433 0
M  V30 19244 C 1804.97 -3.89504 4.32044 0
M  V30 19245 N 1803.95 -4.06115 3.61347 0
M  V30 19246 H 1807.75 -1.87229 2.26545 0
M  V30 19247 H 1805.26 -0.955018 1.31351 0
M  V30 19248 H 1807.26 -4.02874 1.0723 0
M  V30 19249 H 1805.92 -3.24093 0.198371 0
M  V30 19250 H 1806.93 -3.41754 3.89133 0
M  V30 19251 H 1803.61 -3.94547 1.36524 0
M  V30 19252 H 1805 -3.98915 5.40663 0
M  V30 19253 N 1807.72 -1.22979 -0.985586 0
M  V30 19254 C 1808.66 -1.00637 -2.07704 0
M  V30 19255 C 1809.63 0.0744076 -1.65933 0
M  V30 19256 O 1810.82 -0.0766583 -1.90646 0
M  V30 19257 C 1807.96 -0.598088 -3.39878 0
M  V30 19258 C 1807.07 -1.75043 -3.94948 0
M  V30 19259 C 1806.21 -1.28943 -5.15313 0
M  V30 19260 C 1805.25 -2.41285 -5.62537 0
M  V30 19261 N 1804.38 -1.9618 -6.74135 0
M  V30 19262 H 1809.22 -1.94063 -2.26149 0
M  V30 19263 H 1806.76 -0.966841 -1.10863 0
M  V30 19264 H 1808.72 -0.342503 -4.15792 0
M  V30 19265 H 1807.35 0.299167 -3.21411 0
M  V30 19266 H 1806.4 -2.12015 -3.15838 0
M  V30 19267 H 1807.71 -2.5952 -4.25971 0
M  V30 19268 H 1806.87 -0.99166 -5.98541 0
M  V30 19269 H 1805.6 -0.41496 -4.85931 0
M  V30 19270 H 1804.61 -2.71842 -4.77893 0
M  V30 19271 H 1805.83 -3.2926 -5.9394 0
M  V30 19272 H 1803.78 -1.11105 -6.46523 0
M  V30 19273 H 1803.7 -2.74219 -7.04514 0
M  V30 19274 H 1804.97 -1.69492 -7.6085 0
M  V30 19275 N 1809.19 1.18355 -1.04066 0
M  V30 19276 C 1810.44 1.88614 -0.745148 0
M  V30 19277 C 1810.77 1.80147 0.725294 0
M  V30 19278 O 1810.05 1.20177 1.5293 0
M  V30 19279 C 1810.33 3.39095 -1.2119 0
M  V30 19280 C 1810.18 3.56372 -2.74444 0
M  V30 19281 C 1811.5 4.32732 -0.801953 0
M  V30 19282 H 1808.62 0.684905 -0.272166 0
M  V30 19283 H 1811.26 1.39248 -1.29267 0
M  V30 19284 H 1809.41 3.81269 -0.746091 0
M  V30 19285 H 1811.09 3.2329 -3.29061 0
M  V30 19286 H 1809.33 2.99028 -3.14269 0
M  V30 19287 H 1810 4.61956 -3.0216 0
M  V30 19288 H 1812.48 3.98337 -1.20278 0
M  V30 19289 H 1811.35 5.36583 -1.15628 0
M  V30 19290 H 1811.61 4.41115 0.294907 0
M  V30 19291 N 1810.67 0.820125 1.3458 0
M  V30 19292 C 1811.9 0.418747 2.03129 0
M  V30 19293 C 1812.32 -0.966605 1.61364 0
M  V30 19294 O 1811.68 -1.62847 0.796903 0
M  V30 19295 C 1811.73 0.525681 3.56748 0
M  V30 19296 O 1810.83 -0.455592 4.09876 0
M  V30 19297 H 1810.17 0.172819 0.641116 0
M  V30 19298 H 1812.7 1.10977 1.71888 0
M  V30 19299 H 1812.71 0.400422 4.0603 0
M  V30 19300 H 1811.39 1.53609 3.86493 0
M  V30 19301 H 1809.97 -0.289449 3.71775 0
M  V30 19302 N 1812.15 -1.46743 0.574835 0
M  V30 19303 C 1813.08 -2.33012 -0.150836 0
M  V30 19304 C 1814.06 -1.44868 -0.891472 0
M  V30 19305 O 1815.25 -1.73698 -0.868481 0
M  V30 19306 C 1812.38 -3.26995 -1.17012 0
M  V30 19307 C 1811.33 -4.24518 -0.544829 0
M  V30 19308 C 1810.66 -5.07951 -1.67002 0
M  V30 19309 C 1811.96 -5.19776 0.512891 0
M  V30 19310 H 1813.65 -2.93935 0.569433 0
M  V30 19311 H 1811.2 -1.41344 0.275289 0
M  V30 19312 H 1813.15 -3.86198 -1.68609 0
M  V30 19313 H 1811.87 -2.64163 -1.92056 0
M  V30 19314 H 1810.53 -3.66566 -0.0500133 0
M  V30 19315 H 1810.18 -4.4151 -2.40993 0
M  V30 19316 H 1809.88 -5.73991 -1.25732 0
M  V30 19317 H 1811.4 -5.70017 -2.1889 0
M  V30 19318 H 1812.82 -5.73241 0.0823064 0
M  V30 19319 H 1811.22 -5.94114 0.845462 0
M  V30 19320 H 1812.29 -4.64184 1.40217 0
M  V30 19321 N 1813.63 -0.312197 -1.54477 0
M  V30 19322 C 1814.56 0.592742 -2.21403 0
M  V30 19323 C 1815.57 1.0888 -1.21033 0
M  V30 19324 O 1816.76 1.00433 -1.47565 0
M  V30 19325 C 1813.86 1.82478 -2.85578 0
M  V30 19326 C 1813.04 1.46933 -4.11982 0
M  V30 19327 C 1812.09 2.5577 -4.59857 0
M  V30 19328 O 1811.12 2.20391 -5.24801 0
M  V30 19329 N 1812.32 3.86506 -4.3312 0
M  V30 19330 H 1815.09 0.0197398 -2.99693 0
M  V30 19331 H 1812.65 -0.13489 -1.61337 0
M  V30 19332 H 1814.64 2.54657 -3.14534 0
M  V30 19333 H 1813.21 2.3059 -2.11062 0
M  V30 19334 H 1812.43 0.579677 -3.89915 0
M  V30 19335 H 1813.72 1.20739 -4.94267 0
M  V30 19336 H 1813.12 4.18053 -3.81114 0
M  V30 19337 H 1811.67 4.5495 -4.66759 0
M  V30 19338 N 1815.11 1.57549 -0.040136 0
M  V30 19339 C 1816.05 2.10879 0.938013 0
M  V30 19340 C 1817.02 1.01348 1.31597 0
M  V30 19341 O 1818.21 1.28832 1.40737 0
M  V30 19342 C 1815.35 2.64938 2.21138 0
M  V30 19343 C 1814.46 3.88516 1.88889 0
M  V30 19344 C 1813.6 4.3093 3.10601 0
M  V30 19345 C 1812.64 5.47237 2.74223 0
M  V30 19346 N 1811.77 5.84755 3.88594 0
M  V30 19347 H 1816.61 2.94169 0.476328 0
M  V30 19348 H 1814.15 1.45392 0.223503 0
M  V30 19349 H 1816.11 2.94375 2.95633 0
M  V30 19350 H 1814.74 1.84463 2.64903 0
M  V30 19351 H 1813.79 3.6574 1.04588 0
M  V30 19352 H 1815.1 4.7308 1.58103 0
M  V30 19353 H 1814.26 4.61861 3.93407 0
M  V30 19354 H 1812.99 3.45155 3.44557 0
M  V30 19355 H 1812 5.15988 1.89831 0
M  V30 19356 H 1813.22 6.34719 2.41472 0
M  V30 19357 H 1811.17 5.01935 4.22371 0
M  V30 19358 H 1811.09 6.63984 3.6147 0
M  V30 19359 H 1812.36 6.20297 4.72072 0
M  V30 19360 N 1816.58 -0.233136 1.55866 0
M  V30 19361 C 1817.81 -0.980602 1.82754 0
M  V30 19362 C 1818.23 -1.77624 0.618988 0
M  V30 19363 O 1817.59 -1.76074 -0.432148 0
M  V30 19364 C 1817.64 -1.88319 3.07519 0
M  V30 19365 O 1816.74 -2.97692 2.85401 0
M  V30 19366 H 1816.09 -0.278295 0.602867 0
M  V30 19367 H 1818.62 -0.249956 2.03067 0
M  V30 19368 H 1818.63 -2.29523 3.37318 0
M  V30 19369 H 1817.3 -1.29831 3.95116 0
M  V30 19370 H 1815.88 -2.60517 2.66805 0
M  V30 19371 N 1818.06 -1.49479 -0.499372 0
M  V30 19372 C 1819.29 -1.6276 -1.27738 0
M  V30 19373 C 1819.71 -0.299635 -1.86407 0
M  V30 19374 O 1819.06 0.715092 -1.67907 0
M  V30 19375 C 1819.11 -2.69762 -2.40647 0
M  V30 19376 O 1818.84 -3.97407 -1.84388 0
M  V30 19377 C 1820.34 -2.93762 -3.31992 0
M  V30 19378 H 1817.56 -0.547893 -0.387368 0
M  V30 19379 H 1820.1 -1.95522 -0.599292 0
M  V30 19380 H 1818.26 -2.39773 -3.04282 0
M  V30 19381 H 1818.67 -4.56361 -2.58525 0
M  V30 19382 H 1820.14 -3.72361 -4.07494 0
M  V30 19383 H 1820.62 -2.0374 -3.89085 0
M  V30 19384 H 1821.23 -3.25173 -2.74122 0
M  V30 19385 N 1819.54 0.750537 -1.38581 0
M  V30 19386 C 1820.5 1.84599 -1.35852 0
M  V30 19387 C 1821.5 1.58709 -0.258462 0
M  V30 19388 O 1822.69 1.66397 -0.51552 0
M  V30 19389 C 1819.83 3.22124 -1.11573 0
M  V30 19390 H 1821.02 1.88426 -2.33314 0
M  V30 19391 H 1818.57 0.952564 -1.23919 0
M  V30 19392 H 1819.31 3.23965 -0.147295 0
M  V30 19393 H 1819.09 3.42311 -1.91221 0
M  V30 19394 H 1820.58 4.02198 -1.12367 0
M  V30 19395 N 1821.02 1.235 0.979051 0
M  V30 19396 C 1822.27 1.06949 1.72307 0
M  V30 19397 C 1822.6 -0.392491 1.90192 0
M  V30 19398 O 1821.87 -1.29054 1.45518 0
M  V30 19399 C 1822.16 1.79705 3.12055 0
M  V30 19400 C 1822.01 3.33583 3.01732 0
M  V30 19401 C 1823.33 1.56062 4.11501 0
M  V30 19402 H 1820.45 0.389917 0.625407 0
M  V30 19403 H 1823.09 1.52022 1.1397 0
M  V30 19404 H 1821.24 1.4139 3.61858 0
M  V30 19405 H 1822.91 3.81428 2.59443 0
M  V30 19406 H 1821.15 3.62547 2.38206 0
M  V30 19407 H 1821.83 3.79681 4.00683 0
M  V30 19408 H 1824.3 1.8937 3.70511 0
M  V30 19409 H 1823.18 2.09442 5.07371 0
M  V30 19410 H 1823.44 0.496276 4.39306 0
M  V30 19411 N 1822.5 -1.17802 1.04693 0
M  V30 19412 C 1823.43 -2.20498 0.587866 0
M  V30 19413 C 1824.41 -1.58076 -0.380899 0
M  V30 19414 O 1825.59 -1.86198 -0.293711 0
M  V30 19415 C 1822.72 -3.38409 -0.140359 0
M  V30 19416 C 1821.77 -4.19258 0.782636 0
M  V30 19417 S 1822.6 -4.85052 2.26902 0
M  V30 19418 C 1823.75 -6.06357 1.55182 0
M  V30 19419 H 1823.99 -2.59096 1.45796 0
M  V30 19420 H 1821.52 -1.28336 0.858441 0
M  V30 19421 H 1823.48 -4.0674 -0.554333 0
M  V30 19422 H 1822.14 -2.98209 -0.98642 0
M  V30 19423 H 1821.33 -5.03522 0.219411 0
M  V30 19424 H 1820.93 -3.56338 1.13575 0
M  V30 19425 H 1823.23 -6.72168 0.848353 0
M  V30 19426 H 1824.17 -6.67198 2.37175 0
M  V30 19427 H 1824.58 -5.54811 1.04142 0
M  V30 19428 N 1823.98 -0.827251 -1.34143 0
M  V30 19429 C 1824.91 -0.267015 -2.31968 0
M  V30 19430 C 1825.89 0.618906 -1.58441 0
M  V30 19431 O 1827.07 0.544882 -1.86399 0
M  V30 19432 C 1824.2 0.568379 -3.42617 0
M  V30 19433 C 1823.16 -0.220767 -4.2743 0
M  V30 19434 C 1822.48 0.737643 -5.29587 0
M  V30 19435 C 1823.78 -1.43137 -5.02304 0
M  V30 19436 H 1825.48 -1.08436 -2.79073 0
M  V30 19437 H 1823.02 -0.522879 -1.34171 0
M  V30 19438 H 1824.97 0.970525 -4.10072 0
M  V30 19439 H 1823.7 1.41882 -2.94172 0
M  V30 19440 H 1822.36 -0.604333 -3.61585 0
M  V30 19441 H 1822.01 1.58416 -4.77403 0
M  V30 19442 H 1821.71 0.213815 -5.87211 0
M  V30 19443 H 1823.23 1.13755 -5.9991 0
M  V30 19444 H 1824.64 -1.10301 -5.62589 0
M  V30 19445 H 1823.04 -1.89115 -5.69522 0
M  V30 19446 H 1824.11 -2.2073 -4.31748 0
M  V30 19447 N 1825.45 1.46436 -0.582609 0
M  V30 19448 C 1826.86 1.86047 -0.156012 0
M  V30 19449 C 1827.22 1.48619 1.28089 0
M  V30 19450 O 1826.34 0.90104 1.96749 0
M  V30 19451 C 1826.94 3.37671 -0.276358 0
M  V30 19452 C 1825.49 3.76279 0.0953682 0
M  V30 19453 C 1824.64 2.70454 -0.612348 0
M  V30 19454 H 1827.59 1.37592 -0.790834 0
M  V30 19455 H 1827.61 3.77223 0.498312 0
M  V30 19456 H 1827.13 3.64881 -1.32225 0
M  V30 19457 H 1825.23 3.54687 1.1414 0
M  V30 19458 H 1825.34 4.78276 -0.280881 0
M  V30 19459 H 1823.7 2.54646 -0.0526182 0
M  V30 19460 H 1824.49 3.00504 -1.65989 0
M  V30 19461 N 1826.93 0.320385 1.54309 0
M  V30 19462 C 1827.88 -0.547011 2.24224 0
M  V30 19463 C 1828.85 -1.11419 1.23187 0
M  V30 19464 O 1830.03 -1.15513 1.5186 0
M  V30 19465 C 1827.17 -1.70359 3.0012 0
M  V30 19466 C 1826.29 -1.16594 4.15968 0
M  V30 19467 C 1825.42 -2.28795 4.79402 0
M  V30 19468 C 1824.46 -1.72263 5.8736 0
M  V30 19469 N 1823.6 -2.78113 6.44668 0
M  V30 19470 H 1828.44 0.0557725 2.97948 0
M  V30 19471 H 1825.97 0.0392956 1.47048 0
M  V30 19472 H 1827.93 -2.38413 3.42367 0
M  V30 19473 H 1826.56 -2.27771 2.28736 0
M  V30 19474 H 1825.61 -0.377054 3.78527 0
M  V30 19475 H 1826.93 -0.712254 4.93689 0
M  V30 19476 H 1826.08 -3.04759 5.24601 0
M  V30 19477 H 1824.82 -2.77499 4.01056 0
M  V30 19478 H 1823.82 -0.947951 5.41566 0
M  V30 19479 H 1825.05 -1.2444 6.67601 0
M  V30 19480 H 1823 -3.26115 5.69197 0
M  V30 19481 H 1822.91 -2.37298 7.17792 0
M  V30 19482 H 1824.18 -3.53916 6.94524 0
M  V30 19483 N 1828.41 -1.57525 0.0484906 0
M  V30 19484 C 1829.64 -1.96897 -0.635553 0
M  V30 19485 C 1830.05 -0.925909 -1.64537 0
M  V30 19486 O 1829.41 0.0901742 -1.82277 0
M  V30 19487 C 1829.46 -3.36348 -1.32484 0
M  V30 19488 O 1829.18 -4.36656 -0.355464 0
M  V30 19489 C 1830.68 -3.90463 -2.0989 0
M  V30 19490 H 1827.9 -0.648062 -0.173945 0
M  V30 19491 H 1830.45 -2.04182 0.113997 0
M  V30 19492 H 1828.6 -3.30222 -2.02564 0
M  V30 19493 H 1829.02 -5.17613 -0.847153 0
M  V30 19494 H 1830.49 -4.90326 -2.53543 0
M  V30 19495 H 1830.97 -3.25745 -2.94596 0
M  V30 19496 H 1831.57 -3.99918 -1.44726 0
M  V30 19497 N 1829.89 0.224867 -1.55988 0
M  V30 19498 C 1831.11 0.970897 -1.83271 0
M  V30 19499 C 1831.54 1.77293 -0.628399 0
M  V30 19500 O 1830.9 1.76301 0.422804 0
M  V30 19501 C 1830.94 1.86686 -3.08514 0
M  V30 19502 O 1830.05 2.96174 -2.86975 0
M  V30 19503 H 1829.39 0.275093 -0.604334 0
M  V30 19504 H 1831.92 0.239183 -2.03197 0
M  V30 19505 H 1831.93 2.27731 -3.3853 0
M  V30 19506 H 1830.6 1.27733 -3.95799 0
M  V30 19507 H 1829.18 2.59099 -2.68183 0
M  V30 19508 N 1831.37 1.49742 0.491438 0
M  V30 19509 C 1832.78 1.52802 1.07278 0
M  V30 19510 C 1833.13 0.319712 1.93578 0
M  V30 19511 O 1832.25 -0.569524 2.08771 0
M  V30 19512 C 1832.85 2.76896 1.95228 0
M  V30 19513 C 1831.41 2.82703 2.48508 0
M  V30 19514 C 1830.55 2.4684 1.26355 0
M  V30 19515 H 1833.5 1.56301 0.274925 0
M  V30 19516 H 1833.53 2.57599 2.80041 0
M  V30 19517 H 1833.04 3.64821 1.32391 0
M  V30 19518 H 1831.14 1.99081 3.14956 0
M  V30 19519 H 1831.25 3.85108 2.85006 0
M  V30 19520 H 1829.62 1.98828 1.59184 0
M  V30 19521 H 1830.4 3.3705 0.652109 0
M  V30 19522 N 1832.84 -0.743177 1.38977 0
M  V30 19523 C 1833.81 -1.83876 1.36829 0
M  V30 19524 C 1834.81 -1.5857 0.266875 0
M  V30 19525 O 1836 -1.66121 0.524337 0
M  V30 19526 C 1833.13 -3.21528 1.1328 0
M  V30 19527 H 1834.32 -1.87186 2.3431 0
M  V30 19528 H 1831.88 -0.945979 1.24422 0
M  V30 19529 H 1832.61 -3.23883 0.164474 0
M  V30 19530 H 1832.4 -3.41292 1.93034 0
M  V30 19531 H 1833.89 -4.01597 1.14498 0
M  V30 19532 N 1834.32 -1.24018 -0.972487 0
M  V30 19533 C 1835.25 -1.0529 -2.08414 0
M  V30 19534 C 1836.23 0.0326663 -1.70069 0
M  V30 19535 O 1837.42 -0.133494 -1.93741 0
M  V30 19536 C 1834.55 -0.651796 -3.41129 0
M  V30 19537 C 1833.5 -1.68559 -3.9341 0
M  V30 19538 C 1832.83 -1.1397 -5.22413 0
M  V30 19539 C 1834.13 -3.08046 -4.21788 0
M  V30 19540 H 1835.82 -1.98272 -2.2434 0
M  V30 19541 H 1833.37 -0.954694 -1.07804 0
M  V30 19542 H 1835.32 -0.507792 -4.18329 0
M  V30 19543 H 1834.05 0.313722 -3.2509 0
M  V30 19544 H 1832.7 -1.81773 -3.18362 0
M  V30 19545 H 1832.35 -0.164928 -5.0273 0
M  V30 19546 H 1832.05 -1.83051 -5.5836 0
M  V30 19547 H 1833.58 -1.00771 -6.02227 0
M  V30 19548 H 1834.99 -2.98088 -4.8971 0
M  V30 19549 H 1833.39 -3.74436 -4.68954 0
M  V30 19550 H 1834.46 -3.56444 -3.28749 0
M  V30 19551 N 1835.8 1.17245 -1.05316 0
M  V30 19552 C 1837.21 1.69167 -0.789906 0
M  V30 19553 C 1837.56 1.83751 0.687762 0
M  V30 19554 O 1836.69 1.52596 1.53438 0
M  V30 19555 C 1837.28 3.07269 -1.42728 0
M  V30 19556 C 1835.84 3.56352 -1.21204 0
M  V30 19557 C 1834.99 2.3258 -1.51003 0
M  V30 19558 H 1837.94 1.01744 -1.21794 0
M  V30 19559 H 1837.96 3.71175 -0.837236 0
M  V30 19560 H 1837.47 2.96622 -2.50273 0
M  V30 19561 H 1835.57 3.72274 -0.155891 0
M  V30 19562 H 1835.69 4.39038 -1.91787 0
M  V30 19563 H 1834.05 2.37107 -0.930172 0
M  V30 19564 H 1834.83 2.2454 -2.59685 0
M  V30 19565 N 1837.28 0.834353 1.33702 0
M  V30 19566 C 1838.69 0.52156 1.50837 0
M  V30 19567 C 1838.89 -0.95203 1.77591 0
M  V30 19568 O 1837.95 -1.73603 1.83353 0
M  V30 19569 C 1839.26 1.39099 2.66593 0
M  V30 19570 C 1840.81 1.3893 2.80477 0
M  V30 19571 C 1841.29 2.24347 3.9929 0
M  V30 19572 N 1842.78 2.22032 4.06517 0
M  V30 19573 C 1843.51 2.84865 4.97634 0
M  V30 19574 N 1843.01 3.56732 5.93897 0
M  V30 19575 N 1844.8 2.74359 4.90595 0
M  V30 19576 H 1836.95 1.78832 1.14598 0
M  V30 19577 H 1839.22 0.762708 0.563011 0
M  V30 19578 H 1838.92 2.43795 2.53489 0
M  V30 19579 H 1838.8 1.06381 3.61888 0
M  V30 19580 H 1841.18 0.350069 2.93016 0
M  V30 19581 H 1841.26 1.75652 1.85957 0
M  V30 19582 H 1840.91 3.28326 3.8751 0
M  V30 19583 H 1840.84 1.84969 4.93046 0
M  V30 19584 H 1843.33 1.69765 3.37621 0
M  V30 19585 H 1843.64 4.01893 6.60077 0
M  V30 19586 H 1841.99 3.6084 5.93986 0
M  V30 19587 H 1845.18 2.17779 4.14355 0
M  V30 19588 H 1845.35 3.23612 5.61408 0
M  V30 19589 N 1838.76 -1.46125 0.590367 0
M  V30 19590 C 1840.03 -1.95597 0.0116648 0
M  V30 19591 C 1840.41 -1.53298 -1.45131 0
M  V30 19592 O 1839.76 -0.787298 -2.14508 0
M  V30 19593 C 1839.97 -3.48473 0.191727 0
M  V30 19594 C 1841.32 -4.24552 0.0635332 0
M  V30 19595 O 1842.34 -3.55995 0.120955 0
M  V30 19596 O 1841.2 -5.4646 -0.0657772 0
M  V30 19597 H 1838.3 -0.825748 -0.0454921 0
M  V30 19598 H 1840.84 -1.56372 0.659223 0
M  V30 19599 H 1839.61 -3.72172 1.20846 0
M  V30 19600 H 1839.24 -3.94545 -0.491905 0
M  V30 19601 N 1840.23 -0.328564 -1.54137 0
M  V30 19602 C 1841.18 0.535112 -2.24511 0
M  V30 19603 C 1842.15 1.10765 -1.23776 0
M  V30 19604 O 1843.34 1.14706 -1.52471 0
M  V30 19605 C 1840.48 1.68765 -3.01019 0
M  V30 19606 C 1839.59 1.14387 -4.16581 0
M  V30 19607 C 1838.72 2.26249 -4.80609 0
M  V30 19608 C 1837.76 1.69146 -5.88265 0
M  V30 19609 N 1836.9 2.74691 -6.46134 0
M  V30 19610 H 1841.74 -0.0715726 -2.97914 0
M  V30 19611 H 1839.28 -0.0470933 -1.47025 0
M  V30 19612 H 1841.24 2.36594 -3.43626 0
M  V30 19613 H 1839.87 2.26555 -2.29941 0
M  V30 19614 H 1838.92 0.356974 -3.78721 0
M  V30 19615 H 1840.23 0.686063 -4.94059 0
M  V30 19616 H 1839.38 3.01973 -5.2621 0
M  V30 19617 H 1838.12 2.75368 -4.02522 0
M  V30 19618 H 1837.13 0.919217 -5.42061 0
M  V30 19619 H 1838.35 1.20897 -6.68252 0
M  V30 19620 H 1836.3 3.23091 -5.70918 0
M  V30 19621 H 1836.22 2.33488 -7.19041 0
M  V30 19622 H 1837.48 3.50228 -6.96391 0
M  V30 19623 N 1841.71 1.57497 -0.0568439 0
M  V30 19624 C 1842.96 1.932 0.61658 0
M  V30 19625 C 1843.29 0.935936 1.70158 0
M  V30 19626 O 1842.57 -0.0372005 1.94464 0
M  V30 19627 C 1842.85 3.39254 1.20742 0
M  V30 19628 C 1842.7 4.49612 0.130081 0
M  V30 19629 C 1844.02 3.85817 2.11738 0
M  V30 19630 H 1841.14 0.702558 0.222668 0
M  V30 19631 H 1843.78 1.89622 -0.119765 0
M  V30 19632 H 1841.93 3.42434 1.83497 0
M  V30 19633 H 1843.6 4.58559 -0.502172 0
M  V30 19634 H 1841.85 4.30411 -0.541167 0
M  V30 19635 H 1842.52 5.48906 0.583606 0
M  V30 19636 H 1844.99 3.8455 1.58936 0
M  V30 19637 H 1843.87 4.88653 2.50019 0
M  V30 19638 H 1844.13 3.22899 3.01974 0
M  V30 19639 N 1843.19 -0.216591 1.56105 0
M  V30 19640 C 1844.42 -0.961164 1.83784 0
M  V30 19641 C 1844.84 -1.76957 0.637792 0
M  V30 19642 O 1844.2 -1.76523 -0.413449 0
M  V30 19643 C 1844.25 -1.85047 3.095 0
M  V30 19644 O 1843.35 -2.94648 2.88542 0
M  V30 19645 H 1842.69 -0.271885 0.605784 0
M  V30 19646 H 1845.22 -0.228404 2.03321 0
M  V30 19647 H 1845.23 -2.25932 3.39733 0
M  V30 19648 H 1843.91 -1.25633 3.96471 0
M  V30 19649 H 1842.48 -2.57673 2.69554 0
M  V30 19650 N 1844.67 -1.5 -0.48349 0
M  V30 19651 C 1846.08 -1.53369 -1.06466 0
M  V30 19652 C 1846.43 -0.329973 -1.93405 0
M  V30 19653 O 1845.56 0.558444 -2.0907 0
M  V30 19654 C 1846.15 -2.77927 -1.93757 0
M  V30 19655 C 1844.71 -2.84017 -2.47005 0
M  V30 19656 C 1843.86 -2.47506 -1.25044 0
M  V30 19657 H 1846.81 -1.56444 -0.266633 0
M  V30 19658 H 1846.83 -2.59081 -2.78671 0
M  V30 19659 H 1846.34 -3.65518 -1.30454 0
M  V30 19660 H 1844.44 -2.00748 -3.13896 0
M  V30 19661 H 1844.55 -3.86614 -2.8296 0
M  V30 19662 H 1842.92 -1.99669 -1.58127 0
M  V30 19663 H 1843.7 -3.37391 -0.634225 0
M  V30 19664 N 1846.15 0.735796 -1.39369 0
M  V30 19665 C 1847.39 1.49534 -1.3655 0
M  V30 19666 C 1847.72 1.94461 0.0388165 0
M  V30 19667 O 1846.98 1.67048 1.01949 0
M  V30 19668 C 1847.28 2.7495 -2.28336 0
M  V30 19669 C 1846.94 2.48894 -3.75982 0
M  V30 19670 C 1845.6 2.41498 -4.16212 0
M  V30 19671 C 1847.96 2.26589 -4.69369 0
M  V30 19672 C 1845.28 2.09836 -5.47892 0
M  V30 19673 C 1847.64 1.96444 -6.01326 0
M  V30 19674 C 1846.3 1.87515 -6.4062 0
M  V30 19675 H 1845.57 0.547184 -0.49967 0
M  V30 19676 H 1848.22 0.844587 -1.71869 0
M  V30 19677 H 1846.52 3.44764 -1.86132 0
M  V30 19678 H 1848.22 3.32975 -2.23448 0
M  V30 19679 H 1844.81 2.5553 -3.44097 0
M  V30 19680 H 1848.99 2.31272 -4.39121 0
M  V30 19681 H 1844.25 2.01445 -5.77261 0
M  V30 19682 H 1848.42 1.78193 -6.73216 0
M  V30 19683 H 1846.05 1.62747 -7.42575 0
M  V30 19684 N 1847.63 1.24532 0.965897 0
M  V30 19685 C 1848.58 1.00627 2.04593 0
M  V30 19686 C 1849.56 -0.0529299 1.60813 0
M  V30 19687 O 1850.75 0.16102 1.76266 0
M  V30 19688 C 1847.88 0.614939 3.37748 0
M  V30 19689 C 1846.97 1.71031 3.88084 0
M  V30 19690 N 1847.36 2.94339 4.11337 0
M  V30 19691 C 1845.66 1.58823 4.16763 0
M  V30 19692 C 1846.36 3.65361 4.52644 0
M  V30 19693 N 1845.33 2.92931 4.57922 0
M  V30 19694 H 1849.13 1.94256 2.20549 0
M  V30 19695 H 1846.65 1.14685 1.14983 0
M  V30 19696 H 1848.65 0.424907 4.14729 0
M  V30 19697 H 1847.31 -0.314149 3.23177 0
M  V30 19698 H 1848.32 3.305 3.98736 0
M  V30 19699 H 1844.99 0.727304 4.11116 0
M  V30 19700 H 1846.38 4.71145 4.79032 0
M  V30 19701 N 1849.1 -1.16685 1.05936 0
M  V30 19702 C 1850.35 -1.87128 0.773915 0
M  V30 19703 C 1850.68 -1.81489 -0.699434 0
M  V30 19704 O 1849.93 -1.22285 -1.5279 0
M  V30 19705 C 1850.23 -3.36322 1.20923 0
M  V30 19706 C 1849.9 -3.62161 2.68607 0
M  V30 19707 C 1848.56 -3.68923 3.08949 0
M  V30 19708 C 1850.91 -3.73029 3.64004 0
M  V30 19709 C 1848.24 -3.84049 4.43535 0
M  V30 19710 C 1850.59 -3.89675 4.98333 0
M  V30 19711 C 1849.26 -3.94678 5.38317 0
M  V30 19712 H 1848.53 -0.684749 0.283195 0
M  V30 19713 H 1851.17 -1.37992 1.3278 0
M  V30 19714 H 1849.48 -3.87566 0.574472 0
M  V30 19715 H 1851.18 -3.89204 0.965469 0
M  V30 19716 H 1847.77 -3.57529 2.3637 0
M  V30 19717 H 1851.95 -3.67119 3.33972 0
M  V30 19718 H 1847.21 -3.86173 4.74005 0
M  V30 19719 H 1851.38 -3.97026 5.72139 0
M  V30 19720 H 1849.01 -4.06151 6.42608 0
M  V30 19721 N 1850.58 -0.841432 -1.33258 0
M  V30 19722 C 1851.81 -0.451942 -2.01904 0
M  V30 19723 C 1852.22 0.94758 -1.63298 0
M  V30 19724 O 1851.58 1.61622 -0.847611 0
M  V30 19725 C 1851.63 -0.565978 -3.57042 0
M  V30 19726 O 1851.35 -1.91036 -3.94255 0
M  V30 19727 C 1852.85 -0.173776 -4.42959 0
M  V30 19728 H 1850.07 -0.179113 -0.646653 0
M  V30 19729 H 1852.62 -1.13472 -1.70131 0
M  V30 19730 H 1850.77 0.0689126 -3.87339 0
M  V30 19731 H 1851.19 -1.8977 -4.88966 0
M  V30 19732 H 1852.66 -0.304608 -5.51159 0
M  V30 19733 H 1853.14 0.884559 -4.302 0
M  V30 19734 H 1853.74 -0.783205 -4.18026 0
M  V30 19735 N 1852.06 1.4581 -0.598108 0
M  V30 19736 C 1853.29 2.06679 -0.0956921 0
M  V30 19737 C 1853.7 1.44435 1.2159 0
M  V30 19738 O 1853.06 0.555104 1.73853 0
M  V30 19739 C 1853.11 3.61449 0.0604873 0
M  V30 19740 O 1852.83 4.21368 -1.1992 0
M  V30 19741 C 1854.33 4.39282 0.595466 0
M  V30 19742 H 1851.55 0.667893 -0.0644954 0
M  V30 19743 H 1854.1 1.87202 -0.823151 0
M  V30 19744 H 1852.25 3.80301 0.738231 0
M  V30 19745 H 1852.67 5.1443 -1.02282 0
M  V30 19746 H 1854.14 5.48114 0.653868 0
M  V30 19747 H 1854.62 4.084 1.61575 0
M  V30 19748 H 1855.22 4.25273 -0.0479171 0
M  V30 19749 N 1853.54 0.336733 1.53961 0
M  V30 19750 C 1854.47 -0.515664 2.27735 0
M  V30 19751 C 1855.45 -1.10835 1.29033 0
M  V30 19752 O 1856.63 -1.13102 1.57866 0
M  V30 19753 C 1853.76 -1.67015 3.04505 0
M  V30 19754 C 1852.72 -1.20613 4.10654 0
M  V30 19755 C 1852.04 -2.44861 4.75339 0
M  V30 19756 C 1853.34 -0.311507 5.2137 0
M  V30 19757 H 1855.04 0.0997513 2.99234 0
M  V30 19758 H 1852.58 0.0494157 1.43915 0
M  V30 19759 H 1854.54 -2.27286 3.54851 0
M  V30 19760 H 1853.26 -2.31236 2.30646 0
M  V30 19761 H 1851.92 -0.62628 3.61211 0
M  V30 19762 H 1851.57 -3.07474 3.98081 0
M  V30 19763 H 1851.27 -2.14498 5.47051 0
M  V30 19764 H 1852.79 -3.0587 5.28466 0
M  V30 19765 H 1854.21 -0.820868 5.67393 0
M  V30 19766 H 1852.6 -0.100073 6.00017 0
M  V30 19767 H 1853.67 0.654181 4.80467 0
M  V30 19768 N 1855.02 -1.57465 0.0651956 0
M  V30 19769 C 1856.24 -1.97975 -0.618099 0
M  V30 19770 C 1856.67 -0.943068 -1.62751 0
M  V30 19771 O 1856.02 0.0921045 -1.81066 0
M  V30 19772 C 1856.07 -3.37533 -1.26902 0
M  V30 19773 O 1855.18 -3.36451 -2.38483 0
M  V30 19774 H 1854.52 -0.644553 -0.159524 0
M  V30 19775 H 1857.05 -2.04136 0.137754 0
M  V30 19776 H 1857.06 -3.74571 -1.61742 0
M  V30 19777 H 1855.73 -4.12518 -0.529334 0
M  V30 19778 H 1854.31 -3.11175 -2.05486 0
M  V30 19779 N 1856.49 0.20831 -1.56217 0
M  V30 19780 C 1857.72 0.947271 -1.83941 0
M  V30 19781 C 1858.14 1.77403 -0.646029 0
M  V30 19782 O 1857.49 1.78385 0.385378 0
M  V30 19783 C 1857.54 1.85415 -3.10328 0
M  V30 19784 O 1857.27 1.06079 -4.25063 0
M  V30 19785 C 1858.77 2.7059 -3.51135 0
M  V30 19786 H 1855.99 0.277012 -0.611151 0
M  V30 19787 H 1858.53 0.219545 -2.03318 0
M  V30 19788 H 1856.69 2.53566 -2.92888 0
M  V30 19789 H 1857.1 1.67758 -4.96948 0
M  V30 19790 H 1858.57 3.29902 -4.42571 0
M  V30 19791 H 1859.05 3.43645 -2.73505 0
M  V30 19792 H 1859.66 2.07831 -3.71061 0
M  V30 19793 N 1857.97 1.50255 0.475528 0
M  V30 19794 C 1859.2 1.65044 1.25599 0
M  V30 19795 C 1859.62 0.331736 1.85152 0
M  V30 19796 O 1858.98 -0.703863 1.67079 0
M  V30 19797 C 1859.03 2.7405 2.34369 0
M  V30 19798 O 1858.13 2.34994 3.38897 0
M  V30 19799 H 1857.47 0.551557 0.369704 0
M  V30 19800 H 1860 1.96603 0.566422 0
M  V30 19801 H 1860.01 2.96993 2.79749 0
M  V30 19802 H 1858.69 3.6976 1.90395 0
M  V30 19803 H 1857.26 2.22481 2.9926 0
M  V30 19804 N 1859.45 -0.728395 1.39758 0
M  V30 19805 C 1860.7 -1.49028 1.37544 0
M  V30 19806 C 1861.03 -1.94182 -0.0265175 0
M  V30 19807 O 1860.3 -1.67257 -0.992737 0
M  V30 19808 C 1860.59 -2.72535 2.35365 0
M  V30 19809 C 1860.44 -2.33358 3.84531 0
M  V30 19810 C 1861.76 -3.74656 2.30914 0
M  V30 19811 H 1858.88 -0.540587 0.500934 0
M  V30 19812 H 1861.52 -0.832335 1.70799 0
M  V30 19813 H 1859.67 -3.28674 2.07137 0
M  V30 19814 H 1861.34 -1.828 4.23535 0
M  V30 19815 H 1859.58 -1.65508 4.00986 0
M  V30 19816 H 1860.26 -3.21832 4.48473 0
M  V30 19817 H 1862.73 -3.28117 2.55888 0
M  V30 19818 H 1861.61 -4.58729 3.01428 0
M  V30 19819 H 1861.87 -4.22047 1.31639 0
M  V30 19820 N 1860.93 -1.25042 -0.959279 0
M  V30 19821 C 1861.86 -0.993416 -2.05442 0
M  V30 19822 C 1862.84 0.0757423 -1.62423 0
M  V30 19823 O 1864.02 -0.0629495 -1.88395 0
M  V30 19824 C 1861.15 -0.500792 -3.34977 0
M  V30 19825 C 1860.2 -1.55978 -3.96955 0
M  V30 19826 S 1861.03 -3.14361 -4.33517 0
M  V30 19827 C 1862.18 -2.66823 -5.66177 0
M  V30 19828 H 1862.42 -1.92071 -2.26927 0
M  V30 19829 H 1859.95 -1.08521 -1.0983 0
M  V30 19830 H 1861.91 -0.223207 -4.09893 0
M  V30 19831 H 1860.57 0.405931 -3.11466 0
M  V30 19832 H 1859.76 -1.16569 -4.90334 0
M  V30 19833 H 1859.36 -1.7878 -3.28502 0
M  V30 19834 H 1861.66 -2.10159 -6.4408 0
M  V30 19835 H 1862.6 -3.58824 -6.10452 0
M  V30 19836 H 1863.01 -2.06972 -5.25189 0
M  V30 19837 N 1862.41 1.16121 -1.06553 0
M  V30 19838 C 1863.34 2.20181 -0.636617 0
M  V30 19839 C 1864.35 1.59884 0.306731 0
M  V30 19840 O 1865.54 1.78235 0.0973101 0
M  V30 19841 C 1862.64 3.38789 0.0865541 0
M  V30 19842 C 1861.81 4.28641 -0.870941 0
M  V30 19843 C 1860.87 5.25869 -0.186538 0
M  V30 19844 O 1859.9 5.63189 -0.825028 0
M  V30 19845 N 1861.1 5.70536 1.0709 0
M  V30 19846 H 1863.87 2.576 -1.53175 0
M  V30 19847 H 1861.43 1.31157 -0.949185 0
M  V30 19848 H 1863.42 4.00878 0.554881 0
M  V30 19849 H 1861.99 2.99854 0.883524 0
M  V30 19850 H 1861.21 3.63776 -1.51858 0
M  V30 19851 H 1862.5 4.85552 -1.5204 0
M  V30 19852 H 1861.89 5.42314 1.60973 0
M  V30 19853 H 1860.45 6.34704 1.48305 0
M  V30 19854 N 1863.88 0.848487 1.3281 0
M  V30 19855 C 1865.13 0.445116 1.96727 0
M  V30 19856 C 1865.45 -1.00311 1.6792 0
M  V30 19857 O 1866.65 -1.51162 2.25527 0
M  V30 19858 C 1865.11 0.745015 3.52104 0
M  V30 19859 C 1864.72 2.20856 3.89778 0
M  V30 19860 C 1866.46 0.409065 4.22524 0
M  V30 19861 C 1864.37 2.452 5.38174 0
M  V30 19862 H 1863.3 0.162715 0.736233 0
M  V30 19863 H 1865.95 1.03841 1.51292 0
M  V30 19864 H 1864.33 0.0812291 3.95917 0
M  V30 19865 H 1865.5 2.91362 3.56994 0
M  V30 19866 H 1863.82 2.50842 3.32366 0
M  V30 19867 H 1866.42 0.568453 5.3167 0
M  V30 19868 H 1866.76 -0.648796 4.11213 0
M  V30 19869 H 1867.29 1.02848 3.84275 0
M  V30 19870 H 1864.03 3.49588 5.54499 0
M  V30 19871 H 1863.55 1.79265 5.72384 0
M  V30 19872 H 1865.23 2.28838 6.0518 0
M  V30 19873 N 1865.36 -1.4549 0.605832 0
M  V30 19874 C 1866.77 -1.85775 0.18559 0
M  V30 19875 C 1867.12 -1.50638 -1.25708 0
M  V30 19876 O 1866.25 -0.932227 -1.95291 0
M  V30 19877 C 1866.84 -3.37189 0.330043 0
M  V30 19878 C 1865.4 -3.76383 -0.0354934 0
M  V30 19879 C 1864.55 -2.69446 0.655297 0
M  V30 19880 H 1867.5 -1.36316 0.812624 0
M  V30 19881 H 1867.52 -3.77968 -0.438236 0
M  V30 19882 H 1867.03 -3.62731 1.38014 0
M  V30 19883 H 1865.14 -3.56458 -1.08483 0
M  V30 19884 H 1865.25 -4.77769 0.356935 0
M  V30 19885 H 1863.61 -2.5453 0.0931235 0
M  V30 19886 H 1864.4 -2.97825 1.70749 0
M  V30 19887 N 1866.84 -0.344893 -1.5378 0
M  V30 19888 C 1868.07 0.255228 -2.05824 0
M  V30 19889 C 1868.49 1.43329 -1.21812 0
M  V30 19890 O 1867.85 1.79807 -0.232191 0
M  V30 19891 C 1867.9 0.646906 -3.5475 0
M  V30 19892 O 1867 1.74677 -3.7358 0
M  V30 19893 H 1866.34 0.0420518 -0.662667 0
M  V30 19894 H 1868.87 -0.499498 -1.98409 0
M  V30 19895 H 1868.88 0.923686 -3.97407 0
M  V30 19896 H 1867.56 -0.214619 -4.15346 0
M  V30 19897 H 1866.13 1.46715 -3.42825 0
M  V30 19898 N 1868.32 1.57428 -0.0735454 0
M  V30 19899 C 1869.27 2.14028 0.910749 0
M  V30 19900 C 1870.26 1.07761 1.30705 0
M  V30 19901 O 1871.47 1.26139 1.28409 0
M  V30 19902 H 1867.84 0.684381 0.311652 0
M  V30 19903 H 1869.81 2.95591 0.408468 0
M  V30 19904 C 1868.56 2.71817 2.1682 0
M  V30 19905 H 1867.88 3.5326 1.87209 0
M  V30 19906 H 1869.32 3.15014 2.83799 0
M  V30 19907 C 1867.78 1.66661 2.92789 0
M  V30 19908 O 1868.31 1.09266 3.86554 0
M  V30 19909 N 1866.52 1.37655 2.55929 0
M  V30 19910 H 1866.07 1.84518 1.79752 0
M  V30 19911 H 1866.02 0.675307 3.07062 0
M  V30 19912 N 1869.8 -0.200022 1.56326 0
M  V30 19913 C 1871.02 -0.937503 1.84441 0
M  V30 19914 C 1871.44 -1.77058 0.655428 0
M  V30 19915 O 1870.8 -1.78587 -0.375913 0
M  V30 19916 C 1870.85 -1.83766 3.11307 0
M  V30 19917 O 1870.57 -1.03823 4.2562 0
M  V30 19918 C 1872.07 -2.68724 3.52565 0
M  V30 19919 H 1869.29 -0.273767 0.612611 0
M  V30 19920 H 1871.83 -0.208759 2.03432 0
M  V30 19921 H 1869.99 -2.52009 2.94228 0
M  V30 19922 H 1870.4 -1.6512 4.97831 0
M  V30 19923 H 1871.88 -3.2755 4.44314 0
M  V30 19924 H 1872.35 -3.4219 2.75323 0
M  V30 19925 H 1872.96 -2.0586 3.72158 0
M  V30 19926 N 1871.27 -1.50505 -0.467553 0
M  V30 19927 C 1872.2 -1.72558 -1.57309 0
M  V30 19928 C 1873.19 -0.574619 -1.601 0
M  V30 19929 O 1874.37 -0.814135 -1.76311 0
M  V30 19930 C 1871.5 -1.82296 -2.9561 0
M  V30 19931 C 1870.45 -2.97513 -3.07685 0
M  V30 19932 C 1869.78 -2.92398 -4.47669 0
M  V30 19933 C 1871.08 -4.37968 -2.84573 0
M  V30 19934 H 1872.77 -2.65122 -1.39107 0
M  V30 19935 H 1870.32 -1.2758 -0.667776 0
M  V30 19936 H 1872.27 -1.96308 -3.72882 0
M  V30 19937 H 1871 -0.863562 -3.14976 0
M  V30 19938 H 1869.66 -2.83157 -2.32847 0
M  V30 19939 H 1869.3 -1.94297 -4.63959 0
M  V30 19940 H 1869 -3.69749 -4.56683 0
M  V30 19941 H 1870.53 -3.08464 -5.26956 0
M  V30 19942 H 1871.94 -4.52831 -3.51593 0
M  V30 19943 H 1870.34 -5.16796 -3.05028 0
M  V30 19944 H 1871.41 -4.50093 -1.80402 0
M  V30 19945 N 1872.75 0.720973 -1.40142 0
M  V30 19946 C 1873.98 1.51012 -1.41431 0
M  V30 19947 C 1874.4 1.88796 -0.0125516 0
M  V30 19948 O 1873.75 1.55073 0.962217 0
M  V30 19949 C 1873.8 2.78886 -2.3001 0
M  V30 19950 O 1873.52 2.42703 -3.64729 0
M  V30 19951 C 1875.03 3.7282 -2.39834 0
M  V30 19952 H 1872.25 0.466214 -0.482582 0
M  V30 19953 H 1874.79 0.889777 -1.84128 0
M  V30 19954 H 1872.94 3.37219 -1.90689 0
M  V30 19955 H 1873.36 3.24945 -4.11717 0
M  V30 19956 H 1874.83 4.594 -3.06032 0
M  V30 19957 H 1875.31 4.15552 -1.42173 0
M  V30 19958 H 1875.92 3.20402 -2.79684 0
M  V30 19959 N 1874.23 1.25549 0.952634 0
M  V30 19960 C 1875.46 1.13162 1.73211 0
M  V30 19961 C 1875.87 -0.314383 1.86164 0
M  V30 19962 O 1875.23 -1.21608 1.3608 0
M  V30 19963 C 1875.28 1.78273 3.14485 0
M  V30 19964 O 1875 3.17221 3.02163 0
M  V30 19965 C 1876.5 1.71691 4.08702 0
M  V30 19966 H 1873.72 0.394613 0.542698 0
M  V30 19967 H 1876.27 1.65951 1.19502 0
M  V30 19968 H 1874.42 1.2945 3.65132 0
M  V30 19969 H 1874.84 3.49266 3.91297 0
M  V30 19970 H 1876.31 2.21906 5.05432 0
M  V30 19971 H 1876.79 0.681094 4.33887 0
M  V30 19972 H 1877.39 2.20012 3.63971 0
M  V30 19973 N 1875.71 -1.15554 1.07168 0
M  V30 19974 C 1876.67 -2.18431 0.694305 0
M  V30 19975 C 1877.67 -1.5861 -0.264497 0
M  V30 19976 O 1878.86 -1.7414 -0.0457035 0
M  V30 19977 C 1875.99 -3.40892 0.0230473 0
M  V30 19978 H 1877.19 -2.53331 1.60511 0
M  V30 19979 H 1874.74 -1.29984 0.867982 0
M  V30 19980 H 1875.47 -3.11559 -0.900083 0
M  V30 19981 H 1875.26 -3.8557 0.712622 0
M  V30 19982 H 1876.75 -4.16986 -0.226392 0
M  V30 19983 N 1877.19 -0.855519 -1.32358 0
M  V30 19984 C 1878.14 -0.27253 -2.26365 0
M  V30 19985 C 1879.12 0.582114 -1.50001 0
M  V30 19986 O 1880.31 0.431356 -1.71663 0
M  V30 19987 C 1877.44 0.53739 -3.39068 0
M  V30 19988 C 1876.53 -0.329689 -4.22817 0
M  V30 19989 N 1876.92 -1.41635 -4.85565 0
M  V30 19990 C 1875.22 -0.11959 -4.4584 0
M  V30 19991 C 1875.92 -1.94986 -5.48047 0
M  V30 19992 N 1874.89 -1.2489 -5.29059 0
M  V30 19993 H 1878.7 -1.10327 -2.72406 0
M  V30 19994 H 1876.21 -0.701726 -1.46457 0
M  V30 19995 H 1878.21 0.971464 -4.05423 0
M  V30 19996 H 1876.87 1.36591 -2.94572 0
M  V30 19997 H 1877.88 -1.79928 -4.8564 0
M  V30 19998 H 1874.56 0.674149 -4.12021 0
M  V30 19999 H 1875.95 -2.86078 -6.07955 0
M  V30 20000 N 1878.67 1.45167 -0.61354 0
M  V30 20001 C 1879.62 2.27666 0.123348 0
M  V30 20002 C 1880.6 1.37663 0.832933 0
M  V30 20003 O 1881.79 1.61608 0.721941 0
M  V30 20004 C 1878.92 3.24651 1.1161 0
M  V30 20005 C 1878.01 4.22142 0.407045 0
M  V30 20006 N 1878.4 5.0275 -0.554622 0
M  V30 20007 C 1876.7 4.41182 0.65382 0
M  V30 20008 C 1877.4 5.73523 -0.97194 0
M  V30 20009 N 1876.37 5.4269 -0.314424 0
M  V30 20010 H 1880.17 2.8739 -0.615174 0
M  V30 20011 H 1877.69 1.56391 -0.437667 0
M  V30 20012 H 1879.69 3.82493 1.65846 0
M  V30 20013 H 1878.35 2.66488 1.85511 0
M  V30 20014 H 1879.36 5.09451 -0.931644 0
M  V30 20015 H 1876.03 3.94136 1.37705 0
M  V30 20016 H 1877.42 6.48292 -1.76543 0
M  V30 20017 N 1880.14 0.353044 1.53595 0
M  V30 20018 C 1881.37 -0.241665 2.05484 0
M  V30 20019 C 1881.79 -1.43458 1.2274 0
M  V30 20020 O 1881.14 -1.80566 0.26501 0
M  V30 20021 C 1881.19 -0.647442 3.55655 0
M  V30 20022 O 1880.92 0.498047 4.3526 0
M  V30 20023 C 1882.42 -1.30187 4.23753 0
M  V30 20024 H 1879.64 -0.0449704 0.669491 0
M  V30 20025 H 1882.18 0.507783 1.98095 0
M  V30 20026 H 1880.34 -1.34682 3.63235 0
M  V30 20027 H 1880.75 0.172685 5.24216 0
M  V30 20028 H 1882.22 -1.53646 5.30186 0
M  V30 20029 H 1882.7 -2.25835 3.7669 0
M  V30 20030 H 1883.31 -0.644265 4.20392 0
M  V30 20031 N 1881.62 -1.57387 0.0818932 0
M  V30 20032 C 1882.85 -1.98201 -0.593645 0
M  V30 20033 C 1883.26 -0.960602 -1.62536 0
M  V30 20034 O 1882.62 0.0514903 -1.82427 0
M  V30 20035 C 1882.67 -3.39083 -1.2532 0
M  V30 20036 O 1882.39 -4.37311 -0.262763 0
M  V30 20037 C 1883.89 -3.94827 -2.0156 0
M  V30 20038 H 1881.11 -0.651606 -0.160159 0
M  V30 20039 H 1883.66 -2.03894 0.157281 0
M  V30 20040 H 1881.81 -3.34444 -1.95514 0
M  V30 20041 H 1882.23 -5.19294 -0.737169 0
M  V30 20042 H 1883.7 -4.95594 -2.43086 0
M  V30 20043 H 1884.18 -3.31921 -2.8762 0
M  V30 20044 H 1884.78 -4.02898 -1.36211 0
M  V30 20045 N 1883.1 0.191729 -1.56429 0
M  V30 20046 C 1884.33 0.927708 -1.84936 0
M  V30 20047 C 1884.74 1.76708 -0.664809 0
M  V30 20048 O 1884.1 1.78783 0.366436 0
M  V30 20049 C 1884.15 1.82113 -3.12277 0
M  V30 20050 O 1883.87 1.01564 -4.26165 0
M  V30 20051 C 1885.37 2.6685 -3.53986 0
M  V30 20052 H 1882.59 0.270514 -0.614055 0
M  V30 20053 H 1885.14 0.197968 -2.0354 0
M  V30 20054 H 1883.29 2.50445 -2.9556 0
M  V30 20055 H 1883.71 1.62478 -4.987 0
M  V30 20056 H 1885.18 3.25189 -4.46045 0
M  V30 20057 H 1885.66 3.40725 -2.77134 0
M  V30 20058 H 1886.26 2.03884 -3.73245 0
M  V30 20059 N 1884.58 1.50751 0.459565 0
M  V30 20060 C 1885.52 1.70454 1.55609 0
M  V30 20061 C 1886.49 0.545921 1.56872 0
M  V30 20062 O 1887.68 0.777824 1.74226 0
M  V30 20063 C 1884.82 1.81524 2.93501 0
M  V30 20064 C 1883.93 3.08962 3.01938 0
M  V30 20065 C 1883.07 3.10758 4.30816 0
M  V30 20066 C 1882.11 4.32602 4.33038 0
M  V30 20067 N 1881.24 4.32073 5.53405 0
M  V30 20068 H 1886.08 2.64062 1.38112 0
M  V30 20069 H 1883.62 1.30889 0.671307 0
M  V30 20070 H 1885.58 1.85923 3.73481 0
M  V30 20071 H 1884.21 0.913445 3.09606 0
M  V30 20072 H 1883.26 3.13979 2.14759 0
M  V30 20073 H 1884.57 3.9892 2.9944 0
M  V30 20074 H 1883.73 3.13951 5.19153 0
M  V30 20075 H 1882.47 2.1865 4.3594 0
M  V30 20076 H 1881.47 4.2961 3.43097 0
M  V30 20077 H 1882.7 5.2595 4.29596 0
M  V30 20078 H 1880.64 3.42824 5.59292 0
M  V30 20079 H 1880.56 5.15814 5.52695 0
M  V30 20080 H 1881.83 4.39428 6.43835 0
M  V30 20081 N 1886.06 -0.713531 1.40522 0
M  V30 20082 C 1887.28 -1.5026 1.4223 0
M  V30 20083 C 1887.7 -1.88787 0.0225637 0
M  V30 20084 O 1887.06 -1.55581 -0.95398 0
M  V30 20085 C 1887.11 -2.77663 2.31486 0
M  V30 20086 O 1886.83 -2.40765 3.66011 0
M  V30 20087 C 1888.33 -3.71543 2.41807 0
M  V30 20088 H 1885.55 -0.463648 0.485048 0
M  V30 20089 H 1888.09 -0.88 1.84598 0
M  V30 20090 H 1886.25 -3.36203 1.92475 0
M  V30 20091 H 1886.66 -3.22757 4.13434 0
M  V30 20092 H 1888.14 -4.57771 3.08464 0
M  V30 20093 H 1888.61 -4.14792 1.44375 0
M  V30 20094 H 1889.22 -3.18914 2.81379 0
M  V30 20095 N 1887.53 -1.26053 -0.945962 0
M  V30 20096 C 1888.48 -1.03869 -2.02966 0
M  V30 20097 C 1889.47 0.0273393 -1.60877 0
M  V30 20098 O 1890.66 -0.189042 -1.75988 0
M  V30 20099 C 1887.79 -0.668594 -3.36726 0
M  V30 20100 C 1886.87 -1.77183 -3.85314 0
M  V30 20101 N 1887.27 -3.00846 -4.06602 0
M  V30 20102 C 1885.56 -1.65434 -4.14183 0
M  V30 20103 C 1886.26 -3.72516 -4.46774 0
M  V30 20104 N 1885.24 -3.00179 -4.53204 0
M  V30 20105 H 1889.04 -1.9774 -2.1743 0
M  V30 20106 H 1886.56 -1.165 -1.13144 0
M  V30 20107 H 1888.55 -0.490833 -4.14001 0
M  V30 20108 H 1887.21 0.262695 -3.23636 0
M  V30 20109 H 1888.22 -3.36802 -3.93427 0
M  V30 20110 H 1884.9 -0.792617 -4.09907 0
M  V30 20111 H 1886.29 -4.78707 -4.71476 0
M  V30 20112 N 1889.01 1.14984 -1.07779 0
M  V30 20113 C 1889.96 2.2193 -0.696405 0
M  V30 20114 C 1890.95 1.66815 0.294832 0
M  V30 20115 O 1892.16 1.79305 0.158081 0
M  V30 20116 H 1888.53 0.722908 -0.207143 0
M  V30 20117 H 1890.51 2.51374 -1.60791 0
M  V30 20118 C 1889.25 3.4751 -0.114943 0
M  V30 20119 H 1888.58 3.90245 -0.86883 0
M  V30 20120 H 1890.02 4.23846 0.114195 0
M  V30 20121 C 1888.48 3.16827 1.14552 0
M  V30 20122 O 1889.01 3.34026 2.23135 0
M  V30 20123 N 1887.21 2.70836 1.05339 0
M  V30 20124 H 1886.76 2.5704 0.169728 0
M  V30 20125 H 1886.72 2.50681 1.89754 0
M  V30 20126 N 1890.49 0.862526 1.31902 0
M  V30 20127 C 1891.9 0.523345 1.79215 0
M  V30 20128 C 1892.25 -0.95931 1.71148 0
M  V30 20129 O 1891.38 -1.74868 1.27476 0
M  V30 20130 C 1891.97 0.943195 3.25406 0
M  V30 20131 C 1890.53 0.655789 3.70643 0
M  V30 20132 C 1889.68 1.13861 2.52846 0
M  V30 20133 H 1892.63 1.04897 1.19089 0
M  V30 20134 H 1892.65 0.262794 3.79591 0
M  V30 20135 H 1892.16 2.02233 3.31245 0
M  V30 20136 H 1890.26 -0.412291 3.70312 0
M  V30 20137 H 1890.38 1.2276 4.63106 0
M  V30 20138 H 1888.74 0.558615 2.48499 0
M  V30 20139 H 1889.52 2.22501 2.61434 0
M  V30 20140 N 1891.97 -1.4484 0.62123 0
M  V30 20141 C 1893.22 -2.01734 0.121544 0
M  V30 20142 C 1893.54 -1.49041 -1.25745 0
M  V30 20143 O 1892.81 -0.690056 -1.83344 0
M  V30 20144 H 1891.39 -0.745822 0.0419419 0
M  V30 20145 H 1894.05 -1.77467 0.805702 0
M  V30 20146 H 1893.15 -3.11993 0.0816882 0
M  V30 20147 N 1893.45 -0.361184 -1.53405 0
M  V30 20148 C 1894.67 0.233383 -2.06083 0
M  V30 20149 C 1895.1 1.42029 -1.23326 0
M  V30 20150 O 1894.45 1.79551 -0.251249 0
M  V30 20151 C 1894.5 0.609243 -3.55416 0
M  V30 20152 O 1893.61 1.70705 -3.75411 0
M  V30 20153 H 1892.95 0.035021 -0.663076 0
M  V30 20154 H 1895.48 -0.520514 -1.97868 0
M  V30 20155 H 1895.49 0.881483 -3.98364 0
M  V30 20156 H 1894.16 -0.25866 -4.15095 0
M  V30 20157 H 1892.74 1.4307 -3.44362 0
M  V30 20158 N 1894.92 1.57341 -0.0902386 0
M  V30 20159 C 1895.85 2.16782 0.86764 0
M  V30 20160 C 1896.84 1.09982 1.29761 0
M  V30 20161 O 1898.02 1.38099 1.36537 0
M  V30 20162 C 1895.15 2.74426 2.12856 0
M  V30 20163 C 1894.1 3.86555 1.83738 0
M  V30 20164 C 1893.43 4.3088 3.16617 0
M  V30 20165 C 1894.73 5.09971 1.12814 0
M  V30 20166 H 1896.42 2.97075 0.372417 0
M  V30 20167 H 1893.97 1.42899 0.177689 0
M  V30 20168 H 1895.92 3.14659 2.80299 0
M  V30 20169 H 1894.65 1.9138 2.64653 0
M  V30 20170 H 1893.31 3.46853 1.18694 0
M  V30 20171 H 1892.95 3.44732 3.66291 0
M  V30 20172 H 1892.65 5.06477 2.97918 0
M  V30 20173 H 1894.18 4.73743 3.85227 0
M  V30 20174 H 1895.59 5.47404 1.70358 0
M  V30 20175 H 1893.99 5.90965 1.04311 0
M  V30 20176 H 1895.06 4.84775 0.110114 0
M  V30 20177 N 1896.4 -0.183431 1.56529 0
M  V30 20178 C 1897.81 -0.747035 1.71103 0
M  V30 20179 C 1898.16 -1.83335 0.698762 0
M  V30 20180 O 1897.29 -2.15931 -0.142414 0
M  V30 20181 C 1897.88 -1.36183 3.10225 0
M  V30 20182 C 1896.44 -1.87239 3.26525 0
M  V30 20183 C 1895.59 -0.746737 2.67056 0
M  V30 20184 H 1898.54 0.0418058 1.58645 0
M  V30 20185 H 1898.56 -2.2314 3.08203 0
M  V30 20186 H 1898.07 -0.570966 3.83877 0
M  V30 20187 H 1896.18 -2.69008 2.57809 0
M  V30 20188 H 1896.29 -2.02616 4.34147 0
M  V30 20189 H 1894.65 -1.16406 2.26543 0
M  V30 20190 H 1895.44 0.0320833 3.43285 0
M  V30 20191 N 1897.88 -1.50992 -0.451564 0
M  V30 20192 C 1899.11 -1.66741 -1.22495 0
M  V30 20193 C 1899.52 -0.358787 -1.8536 0
M  V30 20194 O 1898.88 0.661312 -1.70097 0
M  V30 20195 C 1898.93 -2.77281 -2.31943 0
M  V30 20196 O 1898.65 -4.03072 -1.71652 0
M  V30 20197 C 1900.15 -3.04175 -3.22479 0
M  V30 20198 H 1897.37 -0.55994 -0.369741 0
M  V30 20199 H 1899.92 -1.97329 -0.536785 0
M  V30 20200 H 1898.07 -2.49332 -2.965 0
M  V30 20201 H 1898.49 -4.64354 -2.43875 0
M  V30 20202 H 1899.96 -3.85137 -3.95441 0
M  V30 20203 H 1900.44 -2.16015 -3.82406 0
M  V30 20204 H 1901.04 -3.33729 -2.63638 0
M  V30 20205 N 1899.36 0.706069 -1.40899 0
M  V30 20206 C 1900.31 1.82011 -1.41918 0
M  V30 20207 C 1901.28 1.6381 -0.274879 0
M  V30 20208 O 1902.46 1.84809 -0.474366 0
M  V30 20209 C 1899.6 3.19805 -1.29687 0
M  V30 20210 C 1898.71 3.49512 -2.53901 0
M  V30 20211 C 1897.85 4.76863 -2.34041 0
M  V30 20212 C 1896.89 4.99504 -3.53783 0
M  V30 20213 N 1896.02 6.18074 -3.33059 0
M  V30 20214 H 1900.86 1.80474 -2.37135 0
M  V30 20215 H 1898.4 0.881471 -1.17765 0
M  V30 20216 H 1900.36 3.99389 -1.206 0
M  V30 20217 H 1898.99 3.20546 -0.380837 0
M  V30 20218 H 1898.04 2.64411 -2.73479 0
M  V30 20219 H 1899.35 3.62147 -3.43002 0
M  V30 20220 H 1898.51 5.64482 -2.22361 0
M  V30 20221 H 1897.25 4.66454 -1.42379 0
M  V30 20222 H 1896.25 4.10336 -3.65929 0
M  V30 20223 H 1897.48 5.11779 -4.46385 0
M  V30 20224 H 1895.42 6.08898 -2.44088 0
M  V30 20225 H 1895.34 6.3143 -4.15731 0
M  V30 20226 H 1896.61 7.08456 -3.25131 0
M  V30 20227 N 1900.84 1.26553 0.939264 0
M  V30 20228 C 1901.78 1.08276 2.03826 0
M  V30 20229 C 1902.75 -0.0127713 1.66095 0
M  V30 20230 O 1903.94 0.147362 1.9023 0
M  V30 20231 C 1901.08 0.723819 3.37424 0
M  V30 20232 C 1900.19 1.8958 3.88179 0
M  V30 20233 C 1899.33 1.4798 5.10172 0
M  V30 20234 C 1898.37 2.61997 5.53194 0
M  V30 20235 N 1897.5 2.21064 6.66389 0
M  V30 20236 H 1902.34 2.02323 2.18791 0
M  V30 20237 H 1899.88 1.00732 1.07198 0
M  V30 20238 H 1901.84 0.496585 4.14234 0
M  V30 20239 H 1900.47 -0.179671 3.223 0
M  V30 20240 H 1899.52 2.23591 3.07752 0
M  V30 20241 H 1900.83 2.7515 4.16045 0
M  V30 20242 H 1899.99 1.21312 5.94448 0
M  V30 20243 H 1898.72 0.595025 4.84057 0
M  V30 20244 H 1897.73 2.89391 4.67475 0
M  V30 20245 H 1898.95 3.51076 5.81311 0
M  V30 20246 H 1896.9 1.35024 6.41954 0
M  V30 20247 H 1896.82 3.00177 6.93851 0
M  V30 20248 H 1898.09 1.97614 7.54035 0
M  V30 20249 N 1902.31 -1.14411 1.08387 0
M  V30 20250 C 1903.22 -2.23103 0.725418 0
M  V30 20251 C 1904.24 -1.71924 -0.26799 0
M  V30 20252 O 1905.42 -2.01088 -0.111986 0
M  V30 20253 C 1902.48 -3.46418 0.139915 0
M  V30 20254 C 1901.54 -4.12537 1.18791 0
M  V30 20255 C 1900.78 -5.29966 0.630252 0
M  V30 20256 O 1901 -5.67739 -0.550335 0
M  V30 20257 O 1899.93 -5.85862 1.38021 0
M  V30 20258 H 1903.76 -2.56116 1.63213 0
M  V30 20259 H 1901.34 -1.22338 0.857538 0
M  V30 20260 H 1903.23 -4.20999 -0.18381 0
M  V30 20261 H 1901.9 -3.15129 -0.739957 0
M  V30 20262 H 1900.81 -3.39831 1.56416 0
M  V30 20263 H 1902.14 -4.47932 2.04005 0
M  V30 20264 N 1903.79 -0.869509 -1.31443 0
M  V30 20265 C 1904.72 -0.340679 -2.31001 0
M  V30 20266 C 1905.7 0.568186 -1.6033 0
M  V30 20267 O 1906.89 0.485305 -1.88038 0
M  V30 20268 C 1904.02 0.45909 -3.44252 0
M  V30 20269 C 1902.97 -0.356639 -4.26512 0
M  V30 20270 C 1902.3 0.568786 -5.31666 0
M  V30 20271 C 1903.6 -1.59045 -4.97496 0
M  V30 20272 H 1905.29 -1.1726 -2.75482 0
M  V30 20273 H 1902.84 -0.5653 -1.3244 0
M  V30 20274 H 1904.79 0.839573 -4.12952 0
M  V30 20275 H 1903.52 1.32451 -2.98537 0
M  V30 20276 H 1902.17 -0.719063 -3.59479 0
M  V30 20277 H 1901.82 1.43148 -4.82201 0
M  V30 20278 H 1901.52 0.0268906 -5.87594 0
M  V30 20279 H 1903.05 0.946122 -6.03225 0
M  V30 20280 H 1904.46 -1.28144 -5.58795 0
M  V30 20281 H 1902.86 -2.07139 -5.63217 0
M  V30 20282 H 1903.93 -2.34354 -4.24507 0
M  V30 20283 N 1905.27 1.44508 -0.628902 0
M  V30 20284 C 1906.68 1.85457 -0.215122 0
M  V30 20285 C 1907.03 1.52619 1.23296 0
M  V30 20286 O 1906.16 0.963178 1.93783 0
M  V30 20287 C 1906.75 3.36621 -0.383645 0
M  V30 20288 C 1905.31 3.76392 -0.0243904 0
M  V30 20289 C 1904.46 2.68369 -0.698081 0
M  V30 20290 H 1907.41 1.35006 -0.834208 0
M  V30 20291 H 1907.43 3.78617 0.378049 0
M  V30 20292 H 1906.94 3.6049 -1.43767 0
M  V30 20293 H 1905.04 3.58139 1.02798 0
M  V30 20294 H 1905.16 4.7714 -0.432898 0
M  V30 20295 H 1903.52 2.54349 -0.133605 0
M  V30 20296 H 1904.3 2.95071 -1.75465 0
M  V30 20297 N 1906.75 0.369315 1.53212 0
M  V30 20298 C 1908 -0.219209 2.0131 0
M  V30 20299 C 1908.32 -1.48469 1.25647 0
M  V30 20300 O 1907.58 -1.92734 0.339443 0
M  V30 20301 C 1907.88 -0.553392 3.5309 0
M  V30 20302 C 1907.54 0.618198 4.46642 0
M  V30 20303 C 1906.21 0.939656 4.71936 0
M  V30 20304 C 1908.56 1.40294 5.01963 0
M  V30 20305 C 1905.89 2.04776 5.49803 0
M  V30 20306 C 1908.24 2.50149 5.81041 0
M  V30 20307 C 1906.9 2.82826 6.0462 0
M  V30 20308 H 1906.17 -0.0802141 0.736646 0
M  V30 20309 H 1908.82 0.502547 1.84788 0
M  V30 20310 H 1907.12 -1.35621 3.67579 0
M  V30 20311 H 1908.82 -1.02106 3.87783 0
M  V30 20312 H 1905.41 0.35762 4.27105 0
M  V30 20313 H 1909.6 1.16784 4.82364 0
M  V30 20314 H 1904.85 2.30487 5.66291 0
M  V30 20315 H 1909.03 3.1137 6.22914 0
M  V30 20316 H 1906.65 3.68812 6.64742 0
M  V30 20317 N 1908.23 -1.57291 0.0985816 0
M  V30 20318 C 1909.64 -1.81681 -0.430009 0
M  V30 20319 C 1909.99 -1.01443 -1.6794 0
M  V30 20320 O 1909.11 -0.244848 -2.1501 0
M  V30 20321 C 1909.71 -3.29535 -0.786919 0
M  V30 20322 C 1908.27 -3.54676 -1.26024 0
M  V30 20323 C 1907.42 -2.76091 -0.258642 0
M  V30 20324 H 1910.37 -1.55358 0.323982 0
M  V30 20325 H 1910.39 -3.43048 -1.64616 0
M  V30 20326 H 1909.9 -3.87906 0.122591 0
M  V30 20327 H 1908 -3.01639 -2.18734 0
M  V30 20328 H 1908.11 -4.63315 -1.21967 0
M  V30 20329 H 1906.48 -2.43667 -0.741507 0
M  V30 20330 H 1907.26 -3.37213 0.643607 0
M  V30 20331 N 1909.71 0.175127 -1.56624 0
M  V30 20332 C 1911.12 0.737951 -1.71497 0
M  V30 20333 C 1911.47 1.82962 -0.708475 0
M  V30 20334 O 1910.59 2.16003 0.13096 0
M  V30 20335 C 1911.19 1.34536 -3.10943 0
M  V30 20336 C 1909.75 1.85505 -3.27513 0
M  V30 20337 C 1908.89 0.732564 -2.67449 0
M  V30 20338 H 1911.84 -0.0502185 -1.58621 0
M  V30 20339 H 1911.87 2.21502 -3.09382 0
M  V30 20340 H 1911.38 0.5506 -3.84174 0
M  V30 20341 H 1909.48 2.67637 -2.59232 0
M  V30 20342 H 1909.59 2.00311 -4.35215 0
M  V30 20343 H 1907.96 1.15203 -2.27157 0
M  V30 20344 H 1908.74 -0.050288 -3.43263 0
M  V30 20345 N 1911.18 1.5123 0.44355 0
M  V30 20346 C 1912.11 1.75038 1.54544 0
M  V30 20347 C 1913.09 0.600017 1.59166 0
M  V30 20348 O 1914.28 0.842082 1.74993 0
M  V30 20349 C 1911.41 1.86976 2.92673 0
M  V30 20350 C 1910.36 3.0237 3.02913 0
M  V30 20351 C 1909.69 2.99483 4.4296 0
M  V30 20352 C 1910.99 4.4244 2.77569 0
M  V30 20353 H 1912.68 2.67301 1.34872 0
M  V30 20354 H 1910.23 1.28627 0.647395 0
M  V30 20355 H 1912.18 2.02215 3.69712 0
M  V30 20356 H 1910.91 0.913563 3.13563 0
M  V30 20357 H 1909.57 2.86826 2.28312 0
M  V30 20358 H 1909.21 2.01654 4.60809 0
M  V30 20359 H 1908.91 3.76968 4.50743 0
M  V30 20360 H 1910.44 3.16808 5.21982 0
M  V30 20361 H 1911.85 4.58367 3.44344 0
M  V30 20362 H 1910.25 5.21583 2.96768 0
M  V30 20363 H 1911.32 4.52906 1.73218 0
M  V30 20364 N 1912.66 -0.698586 1.41271 0
M  V30 20365 C 1913.61 -1.83387 1.43081 0
M  V30 20366 C 1914.6 -1.66554 0.309204 0
M  V30 20367 O 1915.81 -1.73452 0.481084 0
M  V30 20368 H 1912.18 -0.604271 0.447617 0
M  V30 20369 H 1914.16 -1.78977 2.38767 0
M  V30 20370 C 1912.9 -3.21385 1.32692 0
M  V30 20371 H 1912.23 -3.34952 2.18283 0
M  V30 20372 H 1913.67 -4.00907 1.38019 0
M  V30 20373 C 1912.13 -3.36877 0.0389378 0
M  V30 20374 O 1912.66 -3.91081 -0.917515 0
M  V30 20375 N 1910.86 -2.90578 -0.0361557 0
M  V30 20376 H 1910.41 -2.46654 0.742925 0
M  V30 20377 H 1910.37 -3.01322 -0.897353 0
M  V30 20378 N 1914.14 -1.27049 -0.93254 0
M  V30 20379 C 1915.55 -1.11887 -1.49459 0
M  V30 20380 C 1915.9 0.297825 -1.93926 0
M  V30 20381 O 1915.03 1.19024 -1.80727 0
M  V30 20382 C 1915.62 -2.02497 -2.71626 0
M  V30 20383 C 1914.18 -1.91455 -3.24071 0
M  V30 20384 C 1913.33 -1.95337 -1.96821 0
M  V30 20385 H 1916.28 -1.40013 -0.747138 0
M  V30 20386 H 1916.3 -1.57794 -3.46239 0
M  V30 20387 H 1915.81 -3.05598 -2.39231 0
M  V30 20388 H 1913.91 -0.913212 -3.61236 0
M  V30 20389 H 1914.03 -2.77443 -3.90592 0
M  V30 20390 H 1912.39 -1.395 -2.13101 0
M  V30 20391 H 1913.17 -3.00084 -1.66746 0
M  V30 20392 N 1915.62 1.13835 -1.08993 0
M  V30 20393 C 1916.55 2.18164 -0.669297 0
M  V30 20394 C 1917.53 1.5938 0.321968 0
M  V30 20395 O 1918.71 1.8716 0.224402 0
M  V30 20396 C 1915.84 3.38697 0.0146637 0
M  V30 20397 C 1914.89 4.16064 -0.937701 0
M  V30 20398 S 1915.72 4.76297 -2.44748 0
M  V30 20399 C 1916.87 6.0018 -1.7758 0
M  V30 20400 H 1917.11 2.53507 -1.55311 0
M  V30 20401 H 1914.64 1.25062 -0.905481 0
M  V30 20402 H 1916.6 4.08517 0.402992 0
M  V30 20403 H 1915.26 3.01664 0.875062 0
M  V30 20404 H 1914.45 5.02361 -0.406139 0
M  V30 20405 H 1914.05 3.51877 -1.26722 0
M  V30 20406 H 1916.35 6.68556 -1.09724 0
M  V30 20407 H 1917.29 6.57936 -2.61774 0
M  V30 20408 H 1917.7 5.50563 -1.24661 0
M  V30 20409 N 1917.1 0.876467 1.3098 0
M  V30 20410 C 1918.03 0.352925 2.30817 0
M  V30 20411 C 1919.01 -0.559675 1.60629 0
M  V30 20412 O 1920.19 -0.475326 1.88293 0
M  V30 20413 C 1917.32 -0.440827 3.44491 0
M  V30 20414 C 1916.28 0.379253 4.26316 0
M  V30 20415 C 1915.6 -0.540582 5.3196 0
M  V30 20416 C 1916.9 1.61682 4.96645 0
M  V30 20417 H 1918.6 1.18719 2.74857 0
M  V30 20418 H 1916.14 0.572316 1.32138 0
M  V30 20419 H 1918.09 -0.817661 4.13391 0
M  V30 20420 H 1916.82 -1.30866 2.99235 0
M  V30 20421 H 1915.48 0.738117 3.59092 0
M  V30 20422 H 1915.13 -1.40588 4.82953 0
M  V30 20423 H 1914.83 0.00427133 5.876 0
M  V30 20424 H 1916.35 -0.914118 6.03719 0
M  V30 20425 H 1917.76 1.31105 5.58108 0
M  V30 20426 H 1916.16 2.10123 5.62111 0
M  V30 20427 H 1917.23 2.36602 4.23258 0
M  V30 20428 N 1918.57 -1.44173 0.636557 0
M  V30 20429 C 1919.98 -1.8534 0.224954 0
M  V30 20430 C 1920.34 -1.53271 -1.22485 0
M  V30 20431 O 1919.46 -0.973441 -1.93269 0
M  V30 20432 C 1920.06 -3.36413 0.401492 0
M  V30 20433 C 1918.61 -3.76374 0.0443511 0
M  V30 20434 C 1917.76 -2.67995 0.712303 0
M  V30 20435 H 1920.71 -1.34562 0.841356 0
M  V30 20436 H 1920.73 -3.78812 -0.357965 0
M  V30 20437 H 1920.25 -3.59722 1.45677 0
M  V30 20438 H 1918.35 -3.58679 -1.00897 0
M  V30 20439 H 1918.46 -4.76904 0.458196 0
M  V30 20440 H 1916.82 -2.54275 0.147092 0
M  V30 20441 H 1917.61 -2.94136 1.77028 0
M  V30 20442 N 1920.05 -0.377435 -1.53014 0
M  V30 20443 C 1921.28 0.211512 -2.06319 0
M  V30 20444 C 1921.7 1.40713 -1.24825 0
M  V30 20445 O 1921.06 1.79274 -0.270279 0
M  V30 20446 C 1921.11 0.571512 -3.56042 0
M  V30 20447 O 1920.21 1.66713 -3.77201 0
M  V30 20448 H 1919.55 0.0279862 -0.66341 0
M  V30 20449 H 1922.08 -0.541471 -1.97305 0
M  V30 20450 H 1922.09 0.839182 -3.99277 0
M  V30 20451 H 1920.77 -0.302672 -4.14797 0
M  V30 20452 H 1919.34 1.3941 -3.4586 0
M  V30 20453 N 1921.53 1.57237 -0.106922 0
M  V30 20454 C 1922.78 1.9395 0.553733 0
M  V30 20455 C 1923.09 0.991678 1.68597 0
M  V30 20456 O 1924.3 1.25299 2.40858 0
M  V30 20457 C 1922.75 3.44655 1.0364 0
M  V30 20458 C 1922.36 4.4795 -0.0667311 0
M  V30 20459 C 1924.11 3.90309 1.66911 0
M  V30 20460 C 1922.01 5.8982 0.431953 0
M  V30 20461 H 1920.94 0.723986 0.21062 0
M  V30 20462 H 1923.59 1.82567 -0.18483 0
M  V30 20463 H 1921.98 3.51231 1.82901 0
M  V30 20464 H 1923.15 4.5303 -0.842624 0
M  V30 20465 H 1921.47 4.11976 -0.605358 0
M  V30 20466 H 1924.06 4.9371 2.05315 0
M  V30 20467 H 1924.41 3.29612 2.54287 0
M  V30 20468 H 1924.94 3.86483 0.942119 0
M  V30 20469 H 1921.68 6.54245 -0.405469 0
M  V30 20470 H 1921.2 5.88187 1.17459 0
M  V30 20471 H 1922.88 6.4075 0.897104 0
M  V30 20472 N 1923.01 -0.166818 1.56715 0
M  V30 20473 C 1924.26 -0.881043 1.8144 0
M  V30 20474 C 1924.57 -1.83216 0.684925 0
M  V30 20475 O 1925.78 -2.58908 0.817234 0
M  V30 20476 C 1924.23 -1.61724 3.21517 0
M  V30 20477 C 1923.84 -0.709534 4.42346 0
M  V30 20478 C 1925.58 -2.31943 3.55532 0
M  V30 20479 C 1923.49 -1.44622 5.73444 0
M  V30 20480 H 1922.42 -0.332741 0.676609 0
M  V30 20481 H 1925.07 -0.133924 1.83011 0
M  V30 20482 H 1923.45 -2.40928 3.14277 0
M  V30 20483 H 1924.63 0.0458591 4.60777 0
M  V30 20484 H 1922.94 -0.116776 4.16236 0
M  V30 20485 H 1925.54 -2.87662 4.50727 0
M  V30 20486 H 1925.88 -3.07495 2.80629 0
M  V30 20487 H 1926.42 -1.59678 3.64346 0
M  V30 20488 H 1923.16 -0.732937 6.51389 0
M  V30 20489 H 1922.68 -2.17483 5.58982 0
M  V30 20490 H 1924.35 -1.9925 6.15555 0
M  V30 20491 N 1924.49 -1.51463 -0.435524 0
M  V30 20492 C 1925.71 -1.68316 -1.21179 0
M  V30 20493 C 1926.14 -0.380709 -1.84207 0
M  V30 20494 O 1925.49 0.659318 -1.68887 0
M  V30 20495 C 1925.54 -2.80168 -2.27021 0
M  V30 20496 O 1924.65 -2.43897 -3.32548 0
M  V30 20497 H 1923.99 -0.561165 -0.35495 0
M  V30 20498 H 1926.52 -1.98036 -0.514097 0
M  V30 20499 H 1926.53 -3.04305 -2.71776 0
M  V30 20500 H 1925.2 -3.74678 -1.80524 0
M  V30 20501 H 1923.78 -2.30337 -2.93256 0
M  V30 20502 N 1925.96 0.691085 -1.4164 0
M  V30 20503 C 1926.91 1.80495 -1.43841 0
M  V30 20504 C 1927.88 1.63509 -0.292237 0
M  V30 20505 O 1929.07 1.84296 -0.493941 0
M  V30 20506 C 1926.21 3.18412 -1.33072 0
M  V30 20507 C 1925.32 3.46799 -2.57594 0
M  V30 20508 C 1924.45 4.74354 -2.39085 0
M  V30 20509 C 1923.49 4.95723 -3.59061 0
M  V30 20510 N 1922.63 6.14507 -3.39596 0
M  V30 20511 H 1927.47 1.77949 -2.39036 0
M  V30 20512 H 1925.01 0.86893 -1.18693 0
M  V30 20513 H 1926.97 3.98087 -1.24829 0
M  V30 20514 H 1925.6 3.20124 -0.414814 0
M  V30 20515 H 1924.65 2.61496 -2.76268 0
M  V30 20516 H 1925.96 3.58489 -3.46824 0
M  V30 20517 H 1925.11 5.62092 -2.28336 0
M  V30 20518 H 1923.85 4.64918 -1.47319 0
M  V30 20519 H 1922.86 4.06432 -3.70261 0
M  V30 20520 H 1924.08 5.07015 -4.51788 0
M  V30 20521 H 1922.03 6.06275 -2.50532 0
M  V30 20522 H 1921.95 6.26985 -4.22405 0
M  V30 20523 H 1923.21 7.04968 -3.32627 0
M  V30 20524 N 1927.44 1.27542 0.925789 0
M  V30 20525 C 1928.72 1.04714 1.6521 0
M  V30 20526 C 1929.1 -0.417492 2.0693 0
M  V30 20527 O 1928.45 -1.40112 1.80502 0
M  V30 20528 C 1928.66 2.0105 2.85272 0
M  V30 20529 C 1930.01 2.30526 3.56571 0
M  V30 20530 O 1931.03 1.99038 2.95402 0
M  V30 20531 O 1929.89 2.84211 4.66783 0
M  V30 20532 H 1926.98 0.399325 0.724202 0
M  V30 20533 H 1929.53 1.38814 0.976156 0
M  V30 20534 H 1928.3 2.99817 2.51447 0
M  V30 20535 H 1927.92 1.67523 3.60585 0
M  V30 20536 N 1928.92 -1.13255 1.09595 0
M  V30 20537 C 1930.15 -1.88952 0.855104 0
M  V30 20538 C 1930.57 -1.78668 -0.588174 0
M  V30 20539 O 1929.93 -1.13544 -1.41341 0
M  V30 20540 C 1929.98 -3.36461 1.29717 0
M  V30 20541 O 1929.08 -4.09863 0.456717 0
M  V30 20542 H 1928.42 -0.587432 0.309547 0
M  V30 20543 H 1930.95 -1.43282 1.46053 0
M  V30 20544 H 1930.96 -3.87291 1.28333 0
M  V30 20545 H 1929.64 -3.43263 2.34826 0
M  V30 20546 H 1928.21 -3.69042 0.535026 0
M  V30 20547 N 1930.4 -0.883401 -1.30514 0
M  V30 20548 C 1931.62 -0.515186 -2.00899 0
M  V30 20549 C 1932.05 0.888515 -1.65792 0
M  V30 20550 O 1931.41 1.58859 -0.873692 0
M  V30 20551 C 1931.45 -0.695291 -3.53833 0
M  V30 20552 O 1930.56 0.259516 -4.11583 0
M  V30 20553 H 1929.9 -0.20321 -0.63214 0
M  V30 20554 H 1932.43 -1.19051 -1.66397 0
M  V30 20555 H 1932.44 -0.593688 -4.03657 0
M  V30 20556 H 1931.11 -1.71874 -3.78724 0
M  V30 20557 H 1929.69 0.111741 -3.72733 0
M  V30 20558 N 1931.88 1.43833 -0.644194 0
M  V30 20559 C 1933.1 2.0627 -0.161397 0
M  V30 20560 C 1933.52 1.4823 1.16933 0
M  V30 20561 O 1932.88 0.610133 1.71999 0
M  V30 20562 C 1932.93 3.61459 -0.0545357 0
M  V30 20563 O 1932.65 4.17339 -1.33265 0
M  V30 20564 C 1934.15 4.40955 0.455411 0
M  V30 20565 H 1931.37 0.665503 -0.0857112 0
M  V30 20566 H 1933.91 1.84488 -0.882291 0
M  V30 20567 H 1932.07 3.82457 0.616868 0
M  V30 20568 H 1932.48 5.10916 -1.18597 0
M  V30 20569 H 1933.96 5.49916 0.479159 0
M  V30 20570 H 1934.43 4.13333 1.485 0
M  V30 20571 H 1935.04 4.24905 -0.18319 0
M  V30 20572 N 1933.35 0.385544 1.52811 0
M  V30 20573 C 1934.3 -0.451417 2.26342 0
M  V30 20574 C 1935.27 -1.06094 1.27801 0
M  V30 20575 O 1936.46 -1.08968 1.56623 0
M  V30 20576 C 1933.6 -1.57477 3.07075 0
M  V30 20577 C 1932.71 -0.988468 4.20539 0
M  V30 20578 C 1931.84 -2.08256 4.88675 0
M  V30 20579 C 1930.88 -1.47196 5.94138 0
M  V30 20580 N 1930.02 -2.5052 6.55884 0
M  V30 20581 H 1934.86 0.182092 2.97443 0
M  V30 20582 H 1932.4 0.101628 1.46749 0
M  V30 20583 H 1934.36 -2.23677 3.52171 0
M  V30 20584 H 1932.99 -2.17864 2.38191 0
M  V30 20585 H 1932.04 -0.216168 3.79785 0
M  V30 20586 H 1933.35 -0.502223 4.96265 0
M  V30 20587 H 1932.5 -2.82235 5.37055 0
M  V30 20588 H 1931.24 -2.60239 4.12464 0
M  V30 20589 H 1930.25 -0.717401 5.45099 0
M  V30 20590 H 1931.47 -0.960124 6.72279 0
M  V30 20591 H 1929.42 -3.0168 5.82516 0
M  V30 20592 H 1929.34 -2.0664 7.27211 0
M  V30 20593 H 1930.6 -3.24141 7.0891 0
M  V30 20594 N 1934.83 -1.57178 0.115259 0
M  V30 20595 C 1936.06 -1.99842 -0.554802 0
M  V30 20596 C 1936.48 -0.994368 -1.59668 0
M  V30 20597 O 1935.84 0.0344531 -1.81267 0
M  V30 20598 C 1935.89 -3.41399 -1.16099 0
M  V30 20599 O 1934.99 -3.43868 -2.27659 0
M  V30 20600 H 1934.33 -0.649301 -0.138937 0
M  V30 20601 H 1936.86 -2.03594 0.202629 0
M  V30 20602 H 1936.87 -3.79527 -1.49743 0
M  V30 20603 H 1935.55 -4.13993 -0.397827 0
M  V30 20604 H 1934.13 -3.17555 -1.95482 0
M  V30 20605 N 1936.31 0.158505 -1.56801 0
M  V30 20606 C 1937.56 0.871408 -1.81905 0
M  V30 20607 C 1937.87 1.8285 -0.694632 0
M  V30 20608 O 1939.08 2.58471 -0.830953 0
M  V30 20609 C 1937.54 1.60017 -3.2237 0
M  V30 20610 C 1937.14 0.686065 -4.42716 0
M  V30 20611 C 1938.89 2.30054 -3.56757 0
M  V30 20612 C 1936.79 1.41579 -5.74203 0
M  V30 20613 H 1935.72 0.329148 -0.678364 0
M  V30 20614 H 1938.38 0.124216 -1.83079 0
M  V30 20615 H 1936.76 2.39258 -3.1555 0
M  V30 20616 H 1937.93 -0.0702946 -4.60746 0
M  V30 20617 H 1936.25 0.0947 -4.16292 0
M  V30 20618 H 1938.84 2.85268 -4.52246 0
M  V30 20619 H 1939.19 3.06002 -2.82256 0
M  V30 20620 H 1939.72 1.57744 -3.65187 0
M  V30 20621 H 1936.46 0.698382 -6.51769 0
M  V30 20622 H 1935.98 2.14515 -5.60128 0
M  V30 20623 H 1937.66 1.95983 -6.16603 0
M  V30 20624 N 1937.79 1.51692 0.427485 0
M  V30 20625 C 1939.04 1.64079 1.17308 0
M  V30 20626 C 1939.35 0.367695 1.92113 0
M  V30 20627 O 1940.56 0.371083 2.68952 0
M  V30 20628 C 1939.01 2.89812 2.13394 0
M  V30 20629 C 1938.62 4.24161 1.44191 0
M  V30 20630 C 1940.37 3.11559 2.88325 0
M  V30 20631 C 1938.27 5.41036 2.38819 0
M  V30 20632 H 1937.2 0.611162 0.441584 0
M  V30 20633 H 1939.85 1.78167 0.439193 0
M  V30 20634 H 1938.24 2.6938 2.90259 0
M  V30 20635 H 1939.41 4.5501 0.72817 0
M  V30 20636 H 1937.72 4.08371 0.813739 0
M  V30 20637 H 1940.32 3.96051 3.59232 0
M  V30 20638 H 1940.66 2.25037 3.50234 0
M  V30 20639 H 1941.2 3.32376 2.18565 0
M  V30 20640 H 1937.94 6.29847 1.81585 0
M  V30 20641 H 1937.46 5.1455 3.08218 0
M  V30 20642 H 1939.14 5.73381 2.9974 0
M  V30 20643 N 1939.27 -0.683564 1.42004 0
M  V30 20644 C 1940.49 -1.47711 1.45589 0
M  V30 20645 C 1940.92 -1.87984 0.0661307 0
M  V30 20646 O 1940.28 -1.55425 -0.933428 0
M  V30 20647 C 1940.32 -2.70824 2.3809 0
M  V30 20648 O 1939.43 -3.68766 1.84622 0
M  V30 20649 H 1938.77 -0.444102 0.493629 0
M  V30 20650 H 1941.3 -0.839192 1.86598 0
M  V30 20651 H 1941.31 -3.18996 2.54373 0
M  V30 20652 H 1939.98 -2.4085 3.39063 0
M  V30 20653 H 1938.56 -3.27756 1.77849 0
M  V30 20654 N 1940.75 -1.28031 -0.919012 0
M  V30 20655 C 1941.97 -1.17714 -1.7015 0
M  V30 20656 C 1942.39 0.264914 -1.86932 0
M  V30 20657 O 1941.75 1.17957 -1.39256 0
M  V30 20658 C 1941.8 -1.86548 -3.09648 0
M  V30 20659 O 1941.52 -3.25121 -2.93646 0
M  V30 20660 C 1943.02 -1.82467 -4.04006 0
M  V30 20661 H 1940.24 -0.408863 -0.532045 0
M  V30 20662 H 1942.78 -1.69061 -1.1506 0
M  V30 20663 H 1940.94 -1.39085 -3.61572 0
M  V30 20664 H 1941.35 -3.59518 -3.81899 0
M  V30 20665 H 1942.83 -2.35229 -4.99371 0
M  V30 20666 H 1943.3 -0.795892 -4.31928 0
M  V30 20667 H 1943.91 -2.29585 -3.5801 0
M  V30 20668 N 1942.22 1.12672 -1.10194 0
M  V30 20669 C 1943.16 2.18045 -0.706344 0
M  V30 20670 C 1944.17 1.60779 0.25571 0
M  V30 20671 O 1945.36 1.78454 0.0405568 0
M  V30 20672 C 1942.46 3.38893 -0.021273 0
M  V30 20673 C 1941.63 4.25654 -1.00687 0
M  V30 20674 C 1940.69 5.2501 -0.353745 0
M  V30 20675 O 1939.72 5.60279 -1.00378 0
M  V30 20676 N 1940.92 5.73655 0.888851 0
M  V30 20677 H 1943.68 2.52596 -1.61293 0
M  V30 20678 H 1941.24 1.28071 -0.990431 0
M  V30 20679 H 1943.24 4.0244 0.427064 0
M  V30 20680 H 1941.81 3.02513 0.787681 0
M  V30 20681 H 1941.03 3.5876 -1.63354 0
M  V30 20682 H 1942.31 4.8047 -1.67411 0
M  V30 20683 H 1941.71 5.4716 1.43638 0
M  V30 20684 H 1940.27 6.39101 1.28038 0
M  V30 20685 N 1943.7 0.89031 1.30043 0
M  V30 20686 C 1944.93 0.526566 2.00087 0
M  V30 20687 C 1945.34 -0.88632 1.66703 0
M  V30 20688 O 1944.7 -1.58365 0.907012 0
M  V30 20689 C 1944.75 0.698102 3.54695 0
M  V30 20690 O 1944.47 2.05537 3.86893 0
M  V30 20691 C 1945.97 0.338058 4.42009 0
M  V30 20692 H 1943.19 0.20299 0.639559 0
M  V30 20693 H 1945.74 1.19708 1.65802 0
M  V30 20694 H 1943.89 0.0748931 3.87328 0
M  V30 20695 H 1944.31 2.07787 4.81586 0
M  V30 20696 H 1945.78 0.508957 5.49649 0
M  V30 20697 H 1946.26 -0.724284 4.33187 0
M  V30 20698 H 1946.86 0.937813 4.14831 0
M  V30 20699 N 1945.18 -1.43489 0.651812 0
M  V30 20700 C 1946.14 -2.29179 -0.0311937 0
M  V30 20701 C 1947.14 -1.42135 -0.751953 0
M  V30 20702 O 1948.33 -1.63781 -0.593416 0
M  V30 20703 C 1945.46 -3.24168 -1.0549 0
M  V30 20704 H 1946.66 -2.91061 0.722741 0
M  V30 20705 H 1944.21 -1.50746 0.412968 0
M  V30 20706 H 1944.95 -2.67177 -1.83812 0
M  V30 20707 H 1944.73 -3.88339 -0.541752 0
M  V30 20708 H 1946.22 -3.88487 -1.53193 0
M  V30 20709 N 1946.66 -0.393643 -1.52605 0
M  V30 20710 C 1947.91 0.188423 -2.00818 0
M  V30 20711 C 1948.22 1.47537 -1.28422 0
M  V30 20712 O 1949.43 2.13775 -1.6737 0
M  V30 20713 C 1947.88 0.386341 -3.5782 0
M  V30 20714 C 1947.49 -0.887606 -4.39119 0
M  V30 20715 C 1949.23 0.924537 -4.1431 0
M  V30 20716 C 1947.14 -0.657729 -5.87731 0
M  V30 20717 H 1946.07 0.0741894 -0.750341 0
M  V30 20718 H 1948.72 -0.516709 -1.76075 0
M  V30 20719 H 1947.1 1.15343 -3.7883 0
M  V30 20720 H 1948.28 -1.65965 -4.29875 0
M  V30 20721 H 1946.59 -1.35107 -3.93872 0
M  V30 20722 H 1949.19 1.1123 -5.23003 0
M  V30 20723 H 1949.53 1.89484 -3.70677 0
M  V30 20724 H 1950.07 0.216908 -3.97208 0
M  V30 20725 H 1946.8 -1.59915 -6.35694 0
M  V30 20726 H 1946.32 0.0752963 -5.99753 0
M  V30 20727 H 1948 -0.293935 -6.46332 0
M  V30 20728 N 1948.14 1.57115 -0.123593 0
M  V30 20729 C 1949.55 1.82342 0.401051 0
M  V30 20730 C 1949.9 1.04102 1.66304 0
M  V30 20731 O 1949.02 0.279024 2.14594 0
M  V30 20732 C 1949.62 3.30745 0.734394 0
M  V30 20733 C 1948.18 3.56636 1.20365 0
M  V30 20734 C 1947.32 2.76468 0.214686 0
M  V30 20735 H 1950.27 1.54823 -0.348657 0
M  V30 20736 H 1950.3 3.45624 1.59137 0
M  V30 20737 H 1949.81 3.87662 -0.184288 0
M  V30 20738 H 1947.91 3.05081 2.13908 0
M  V30 20739 H 1948.02 4.65197 1.1458 0
M  V30 20740 H 1946.39 2.44816 0.702648 0
M  V30 20741 H 1947.17 3.36146 -0.697174 0
M  V30 20742 N 1949.61 -0.150187 1.56883 0
M  V30 20743 C 1950.58 -1.16943 1.97122 0
M  V30 20744 C 1951.58 -1.36037 0.857354 0
M  V30 20745 O 1952.77 -1.33083 1.12403 0
M  V30 20746 C 1949.9 -2.53037 2.2844 0
M  V30 20747 H 1951.09 -0.824297 2.88349 0
M  V30 20748 H 1948.64 -0.393414 1.51268 0
M  V30 20749 H 1949.38 -2.92527 1.39994 0
M  V30 20750 H 1949.16 -2.4054 3.0965 0
M  V30 20751 H 1950.65 -3.26452 2.6042 0
M  V30 20752 N 1951.09 -1.51916 -0.419434 0
M  V30 20753 C 1952.32 -1.69302 -1.1893 0
M  V30 20754 C 1952.74 -0.398024 -1.84557 0
M  V30 20755 O 1952.09 0.625083 -1.71461 0
M  V30 20756 C 1952.14 -2.82139 -2.26009 0
M  V30 20757 O 1951.86 -4.06623 -1.63064 0
M  V30 20758 C 1953.37 -3.10947 -3.15954 0
M  V30 20759 H 1950.59 -0.567657 -0.357781 0
M  V30 20760 H 1953.13 -1.98424 -0.494807 0
M  V30 20761 H 1951.28 -2.55565 -2.91144 0
M  V30 20762 H 1951.7 -4.69423 -2.33971 0
M  V30 20763 H 1953.17 -3.93438 -3.87183 0
M  V30 20764 H 1953.65 -2.24078 -3.77738 0
M  V30 20765 H 1954.26 -3.39246 -2.56499 0
M  V30 20766 N 1952.57 0.676023 -1.42365 0
M  V30 20767 C 1953.8 1.46436 -1.46164 0
M  V30 20768 C 1954.21 1.8866 -0.0726092 0
M  V30 20769 O 1953.57 1.58056 0.912395 0
M  V30 20770 C 1953.62 2.71428 -2.38766 0
M  V30 20771 O 1953.34 2.30976 -3.72266 0
M  V30 20772 C 1954.84 3.65001 -2.51573 0
M  V30 20773 H 1952.06 0.450625 -0.49717 0
M  V30 20774 H 1954.61 0.830748 -1.86866 0
M  V30 20775 H 1952.76 3.30981 -2.01321 0
M  V30 20776 H 1953.18 3.11682 -4.21846 0
M  V30 20777 H 1954.65 4.49432 -3.20492 0
M  V30 20778 H 1955.13 4.10818 -1.55322 0
M  V30 20779 H 1955.73 3.11342 -2.89735 0
M  V30 20780 N 1954.05 1.28517 0.912209 0
M  V30 20781 C 1955.46 1.14251 1.4766 0
M  V30 20782 C 1955.81 -0.266935 1.94376 0
M  V30 20783 O 1954.94 -1.16134 1.82598 0
M  V30 20784 C 1955.53 2.06792 2.6837 0
M  V30 20785 C 1954.09 1.96587 3.20984 0
M  V30 20786 C 1953.24 1.98444 1.93689 0
M  V30 20787 H 1956.19 1.41184 0.724769 0
M  V30 20788 H 1956.21 1.63282 3.43685 0
M  V30 20789 H 1955.72 3.09365 2.34339 0
M  V30 20790 H 1953.82 0.970565 3.59737 0
M  V30 20791 H 1953.93 2.83622 3.86129 0
M  V30 20792 H 1952.3 1.42872 2.10855 0
M  V30 20793 H 1953.08 3.02699 1.61951 0
M  V30 20794 N 1955.53 -1.12086 1.1079 0
M  V30 20795 C 1956.75 -1.87493 0.874862 0
M  V30 20796 C 1957.17 -1.79834 -0.574907 0
M  V30 20797 O 1956.53 -1.17483 -1.39657 0
M  V30 20798 C 1956.58 -3.36566 1.3193 0
M  V30 20799 O 1956.3 -3.4405 2.71222 0
M  V30 20800 C 1957.8 -4.289 1.12069 0
M  V30 20801 H 1955.02 -0.593122 0.313764 0
M  V30 20802 H 1957.56 -1.41803 1.4735 0
M  V30 20803 H 1955.72 -3.79787 0.764254 0
M  V30 20804 H 1956.13 -4.36824 2.90319 0
M  V30 20805 H 1957.61 -5.31768 1.48076 0
M  V30 20806 H 1958.08 -4.3916 0.0596432 0
M  V30 20807 H 1958.69 -3.91465 1.66238 0
M  V30 20808 N 1957 -0.897194 -1.29569 0
M  V30 20809 C 1958.25 -0.521834 -1.95661 0
M  V30 20810 C 1958.58 0.931396 -1.70749 0
M  V30 20811 O 1957.83 1.67507 -1.01192 0
M  V30 20812 C 1958.13 -0.757743 -3.49275 0
M  V30 20813 C 1957.8 -2.18794 -3.94259 0
M  V30 20814 C 1956.46 -2.57901 -4.06252 0
M  V30 20815 C 1958.81 -3.11942 -4.17542 0
M  V30 20816 C 1956.14 -3.89341 -4.38897 0
M  V30 20817 C 1958.49 -4.42928 -4.51661 0
M  V30 20818 C 1957.16 -4.81911 -4.61864 0
M  V30 20819 H 1956.43 -0.190953 -0.715974 0
M  V30 20820 H 1959.07 -1.13537 -1.54212 0
M  V30 20821 H 1957.38 -0.0612622 -3.91752 0
M  V30 20822 H 1959.08 -0.446734 -3.98504 0
M  V30 20823 H 1955.67 -1.87443 -3.85439 0
M  V30 20824 H 1959.85 -2.82944 -4.07745 0
M  V30 20825 H 1955.11 -4.19269 -4.44998 0
M  V30 20826 H 1959.28 -5.15133 -4.68627 0
M  V30 20827 H 1956.91 -5.83797 -4.86914 0
M  V30 20828 N 1958.48 1.43142 -0.659413 0
M  V30 20829 C 1959.89 1.84958 -0.254412 0
M  V30 20830 C 1960.24 1.552 1.20031 0
M  V30 20831 O 1959.37 1.00407 1.91696 0
M  V30 20832 C 1959.96 3.35731 -0.454961 0
M  V30 20833 C 1958.52 3.76256 -0.104223 0
M  V30 20834 C 1957.67 2.66828 -0.754849 0
M  V30 20835 H 1960.62 1.33206 -0.862657 0
M  V30 20836 H 1960.64 3.79334 0.297654 0
M  V30 20837 H 1960.15 3.57359 -1.51381 0
M  V30 20838 H 1958.26 3.60239 0.951785 0
M  V30 20839 H 1958.37 4.76115 -0.534009 0
M  V30 20840 H 1956.73 2.54009 -0.187526 0
M  V30 20841 H 1957.52 2.91283 -1.81685 0
M  V30 20842 N 1959.96 0.40173 1.52394 0
M  V30 20843 C 1960.92 -0.41541 2.25404 0
M  V30 20844 C 1961.92 -0.979848 1.27498 0
M  V30 20845 O 1963.11 -0.859891 1.51498 0
M  V30 20846 C 1960.25 -1.58403 3.01863 0
M  V30 20847 H 1961.44 0.223965 2.99063 0
M  V30 20848 H 1958.99 0.154095 1.55539 0
M  V30 20849 H 1959.73 -2.26048 2.32536 0
M  V30 20850 H 1959.51 -1.18586 3.73737 0
M  V30 20851 H 1961 -2.16224 3.57263 0
M  V30 20852 N 1961.44 -1.57047 0.131923 0
M  V30 20853 C 1962.66 -2.00419 -0.533574 0
M  V30 20854 C 1963.09 -1.01125 -1.58605 0
M  V30 20855 O 1962.45 0.0152254 -1.81294 0
M  V30 20856 C 1962.49 -3.42611 -1.12472 0
M  V30 20857 O 1961.6 -3.46263 -2.23999 0
M  V30 20858 H 1960.94 -0.650739 -0.132043 0
M  V30 20859 H 1963.47 -2.03368 0.224211 0
M  V30 20860 H 1963.48 -3.81094 -1.45709 0
M  V30 20861 H 1962.15 -4.14392 -0.353895 0
M  V30 20862 H 1960.73 -3.1961 -1.92103 0
M  V30 20863 N 1962.92 0.141865 -1.5696 0
M  V30 20864 C 1964.16 0.854874 -1.83901 0
M  V30 20865 C 1964.5 1.80586 -0.714297 0
M  V30 20866 O 1963.77 1.92449 0.281695 0
M  V30 20867 C 1964.05 1.62486 -3.21357 0
M  V30 20868 C 1963.91 0.695015 -4.44398 0
M  V30 20869 C 1965.23 2.5862 -3.56095 0
M  V30 20870 H 1962.34 0.309334 -0.66894 0
M  V30 20871 H 1964.99 0.119882 -1.89621 0
M  V30 20872 H 1963.14 2.25143 -3.16612 0
M  V30 20873 H 1964.81 0.0790536 -4.61232 0
M  V30 20874 H 1963.05 0.00493655 -4.338 0
M  V30 20875 H 1963.72 1.26992 -5.37194 0
M  V30 20876 H 1966.2 2.06079 -3.61484 0
M  V30 20877 H 1965.07 3.09542 -4.53294 0
M  V30 20878 H 1965.34 3.40219 -2.82319 0
M  V30 20879 N 1964.39 1.52136 0.411372 0
M  V30 20880 C 1965.64 1.65314 1.15561 0
M  V30 20881 C 1965.96 0.38805 1.91712 0
M  V30 20882 O 1967.16 0.399588 2.68543 0
M  V30 20883 C 1965.62 2.92059 2.10308 0
M  V30 20884 C 1965.23 4.25667 1.39684 0
M  V30 20885 C 1966.97 3.14599 2.85005 0
M  V30 20886 C 1964.88 5.43538 2.33067 0
M  V30 20887 H 1963.81 0.615812 0.435077 0
M  V30 20888 H 1966.46 1.78622 0.420271 0
M  V30 20889 H 1964.84 2.72444 2.87385 0
M  V30 20890 H 1966.01 4.55757 0.679869 0
M  V30 20891 H 1964.33 4.09212 0.77038 0
M  V30 20892 H 1966.93 3.99839 3.55011 0
M  V30 20893 H 1967.27 2.28739 3.47828 0
M  V30 20894 H 1967.8 3.34676 2.15028 0
M  V30 20895 H 1964.54 6.31738 1.74894 0
M  V30 20896 H 1964.06 5.1779 3.02744 0
M  V30 20897 H 1965.74 5.76527 2.93641 0
M  V30 20898 N 1965.87 -0.668464 1.42721 0
M  V30 20899 C 1967.1 -1.45659 1.46939 0
M  V30 20900 C 1967.52 -1.88619 0.0826133 0
M  V30 20901 O 1966.87 -1.58537 -0.904 0
M  V30 20902 C 1966.92 -2.70158 2.40202 0
M  V30 20903 O 1966.65 -2.28999 3.73485 0
M  V30 20904 C 1968.15 -3.63662 2.53505 0
M  V30 20905 H 1965.37 -0.447982 0.499553 0
M  V30 20906 H 1967.91 -0.820826 1.87304 0
M  V30 20907 H 1966.07 -3.29909 2.03074 0
M  V30 20908 H 1966.48 -3.09441 4.23493 0
M  V30 20909 H 1967.95 -4.47726 3.22871 0
M  V30 20910 H 1968.43 -4.09989 1.57498 0
M  V30 20911 H 1969.04 -3.09801 2.91382 0
M  V30 20912 N 1967.35 -1.28999 -0.905381 0
M  V30 20913 C 1968.58 -1.19339 -1.68647 0
M  V30 20914 C 1968.99 0.249343 -1.8755 0
M  V30 20915 O 1968.33 1.17945 -1.40836 0
M  V30 20916 C 1968.39 -1.82925 -3.09481 0
M  V30 20917 C 1968.06 -3.32203 -3.13832 0
M  V30 20918 C 1969.06 -4.28513 -2.94402 0
M  V30 20919 C 1966.74 -3.73305 -3.36078 0
M  V30 20920 C 1968.73 -5.63901 -2.97144 0
M  V30 20921 C 1966.42 -5.08816 -3.38452 0
M  V30 20922 C 1967.42 -6.03924 -3.19006 0
M  V30 20923 O 1967.11 -7.36963 -3.21156 0
M  V30 20924 H 1966.84 -0.414909 -0.533692 0
M  V30 20925 H 1969.39 -1.70793 -1.14101 0
M  V30 20926 H 1967.62 -1.25976 -3.65605 0
M  V30 20927 H 1969.31 -1.67667 -3.69652 0
M  V30 20928 H 1970.08 -3.98093 -2.77033 0
M  V30 20929 H 1965.96 -2.99735 -3.50257 0
M  V30 20930 H 1969.5 -6.38112 -2.81884 0
M  V30 20931 H 1965.4 -5.38884 -3.55351 0
M  V30 20932 H 1966.17 -7.45696 -3.37461 0
M  V30 20933 N 1968.83 1.11497 -1.11383 0
M  V30 20934 C 1969.74 2.21101 -0.784315 0
M  V30 20935 C 1970.76 1.72574 0.222313 0
M  V30 20936 O 1971.93 2.01315 0.058632 0
M  V30 20937 C 1969 3.45925 -0.231713 0
M  V30 20938 C 1968.06 4.09243 -1.29687 0
M  V30 20939 C 1967.29 5.28108 -0.770542 0
M  V30 20940 O 1967.51 5.68998 0.399616 0
M  V30 20941 O 1966.45 5.81996 -1.53505 0
M  V30 20942 H 1970.27 2.51699 -1.69946 0
M  V30 20943 H 1967.86 1.20022 -0.889672 0
M  V30 20944 H 1969.74 4.21338 0.0721248 0
M  V30 20945 H 1968.42 3.1698 0.656146 0
M  V30 20946 H 1967.32 3.35564 -1.65371 0
M  V30 20947 H 1968.66 4.42365 -2.1581 0
M  V30 20948 N 1970.31 0.904053 1.29092 0
M  V30 20949 C 1971.54 0.547758 1.99517 0
M  V30 20950 C 1971.95 -0.868589 1.67633 0
M  V30 20951 O 1971.31 -1.57394 0.923758 0
M  V30 20952 C 1971.36 0.735683 3.53935 0
M  V30 20953 O 1971.08 2.09629 3.84691 0
M  V30 20954 C 1972.58 0.38492 4.41626 0
M  V30 20955 H 1969.8 0.209762 0.63737 0
M  V30 20956 H 1972.34 1.2146 1.64523 0
M  V30 20957 H 1970.5 0.11597 3.87226 0
M  V30 20958 H 1970.91 2.12883 4.79355 0
M  V30 20959 H 1972.39 0.567226 5.49078 0
M  V30 20960 H 1972.86 -0.678298 4.33931 0
M  V30 20961 H 1973.47 0.981759 4.13813 0
M  V30 20962 N 1971.79 -1.4279 0.666995 0
M  V30 20963 C 1972.72 -2.29134 -0.0550112 0
M  V30 20964 C 1973.73 -1.43259 -0.773357 0
M  V30 20965 O 1974.92 -1.67057 -0.628816 0
M  V30 20966 C 1972.02 -3.20503 -1.1014 0
M  V30 20967 C 1971.19 -4.34991 -0.458443 0
M  V30 20968 C 1970.25 -5.07136 -1.40356 0
M  V30 20969 O 1969.28 -5.61929 -0.90686 0
M  V30 20970 N 1970.48 -5.1192 -2.73712 0
M  V30 20971 H 1973.24 -2.9174 0.686156 0
M  V30 20972 H 1970.81 -1.5363 0.510814 0
M  V30 20973 H 1972.8 -3.65634 -1.73477 0
M  V30 20974 H 1971.37 -2.59403 -1.74439 0
M  V30 20975 H 1970.59 -3.92605 0.354287 0
M  V30 20976 H 1971.88 -5.08799 -0.0101948 0
M  V30 20977 H 1971.27 -4.68799 -3.16613 0
M  V30 20978 H 1969.83 -5.60722 -3.32316 0
M  V30 20979 N 1973.26 -0.409806 -1.52179 0
M  V30 20980 C 1974.49 0.165235 -2.06239 0
M  V30 20981 C 1974.91 1.38804 -1.2798 0
M  V30 20982 O 1974.26 1.79458 -0.331843 0
M  V30 20983 C 1974.31 0.514997 -3.57813 0
M  V30 20984 O 1974.04 -0.659248 -4.33111 0
M  V30 20985 C 1975.54 1.1437 -4.28293 0
M  V30 20986 H 1972.76 0.0200917 -0.670699 0
M  V30 20987 H 1975.3 -0.580955 -1.96074 0
M  V30 20988 H 1973.46 1.21108 -3.67983 0
M  V30 20989 H 1973.87 -0.367126 -5.23214 0
M  V30 20990 H 1975.34 1.33863 -5.35523 0
M  V30 20991 H 1975.82 2.11699 -3.84812 0
M  V30 20992 H 1976.43 0.487795 -4.22493 0
M  V30 20993 N 1974.74 1.56975 -0.14025 0
M  V30 20994 C 1975.65 2.19981 0.815207 0
M  V30 20995 C 1976.67 1.18211 1.2768 0
M  V30 20996 O 1977.84 1.50762 1.33539 0
M  V30 20997 C 1974.91 2.80369 2.03946 0
M  V30 20998 C 1973.97 3.97244 1.62774 0
M  V30 20999 C 1973.2 4.54744 2.79363 0
M  V30 21000 O 1973.43 4.11124 3.9539 0
M  V30 21001 O 1972.36 5.45109 2.55224 0
M  V30 21002 H 1976.19 3.02125 0.308908 0
M  V30 21003 H 1973.77 1.4915 0.0864409 0
M  V30 21004 H 1975.65 3.18778 2.75606 0
M  V30 21005 H 1974.33 2.01243 2.53541 0
M  V30 21006 H 1973.23 3.63564 0.88158 0
M  V30 21007 H 1974.57 4.7787 1.17901 0
M  V30 21008 N 1976.22 -0.133539 1.57033 0
M  V30 21009 C 1977.64 -0.486622 1.52 0
M  V30 21010 C 1977.84 -1.82653 0.850899 0
M  V30 21011 O 1976.89 -2.48862 0.42709 0
M  V30 21012 C 1978.2 -0.484516 2.96771 0
M  V30 21013 C 1979.75 -0.56909 3.07783 0
M  V30 21014 C 1980.23 -0.597515 4.54086 0
M  V30 21015 N 1981.72 -0.659363 4.58483 0
M  V30 21016 C 1982.45 -0.702564 5.6908 0
M  V30 21017 N 1981.95 -0.704292 6.89211 0
M  V30 21018 N 1983.74 -0.74447 5.57148 0
M  V30 21019 H 1975.89 0.744582 1.98921 0
M  V30 21020 H 1978.16 0.273049 0.907826 0
M  V30 21021 H 1977.86 0.432078 3.49036 0
M  V30 21022 H 1977.74 -1.3176 3.53439 0
M  V30 21023 H 1980.12 -1.4761 2.55529 0
M  V30 21024 H 1980.2 0.291401 2.54135 0
M  V30 21025 H 1979.85 0.305395 5.06981 0
M  V30 21026 H 1979.78 -1.47469 5.0553 0
M  V30 21027 H 1982.27 -0.664781 3.72007 0
M  V30 21028 H 1982.58 -0.739477 7.69254 0
M  V30 21029 H 1980.93 -0.67195 6.91744 0
M  V30 21030 H 1984.12 -0.740383 4.62208 0
M  V30 21031 H 1984.29 -0.774672 6.43353 0
M  V30 21032 N 1977.7 -1.52352 -0.403298 0
M  V30 21033 C 1978.92 -1.70849 -1.17582 0
M  V30 21034 C 1979.35 -0.419696 -1.83358 0
M  V30 21035 O 1978.71 0.623346 -1.70247 0
M  V30 21036 C 1978.75 -2.8492 -2.21027 0
M  V30 21037 O 1977.86 -2.50896 -3.273 0
M  V30 21038 H 1977.2 -0.568568 -0.342967 0
M  V30 21039 H 1979.73 -1.99082 -0.471975 0
M  V30 21040 H 1979.74 -3.10002 -2.6526 0
M  V30 21041 H 1978.41 -3.78423 -1.72536 0
M  V30 21042 H 1976.99 -2.36506 -2.88304 0
M  V30 21043 N 1979.18 0.660885 -1.43074 0
M  V30 21044 C 1980.59 0.97566 -1.26305 0
M  V30 21045 C 1980.79 2.00719 -0.17724 0
M  V30 21046 O 1979.85 2.48514 0.446896 0
M  V30 21047 C 1981.16 1.46722 -2.62475 0
M  V30 21048 C 1982.71 1.58427 -2.69944 0
M  V30 21049 C 1983.18 2.10976 -4.06514 0
M  V30 21050 N 1984.67 2.18289 -4.08539 0
M  V30 21051 C 1985.41 2.60054 -5.11038 0
M  V30 21052 N 1984.91 3.01171 -6.23913 0
M  V30 21053 N 1986.7 2.59926 -4.98392 0
M  V30 21054 H 1978.85 -0.02183 -2.12389 0
M  V30 21055 H 1981.11 0.0527972 -0.946529 0
M  V30 21056 H 1980.82 0.783712 -3.42857 0
M  V30 21057 H 1980.69 2.44359 -2.87348 0
M  V30 21058 H 1983.08 2.25881 -1.899 0
M  V30 21059 H 1983.16 0.592433 -2.48845 0
M  V30 21060 H 1982.8 1.44126 -4.87022 0
M  V30 21061 H 1982.73 3.10976 -4.24972 0
M  V30 21062 H 1985.23 1.89317 -3.27059 0
M  V30 21063 H 1985.54 3.31766 -6.97962 0
M  V30 21064 H 1983.88 2.98994 -6.27398 0
M  V30 21065 H 1987.07 2.27175 -4.09279 0
M  V30 21066 H 1987.25 2.92154 -5.78403 0
M  V30 21067 N 1980.65 1.29477 0.898527 0
M  V30 21068 C 1981.62 1.14706 1.98432 0
M  V30 21069 C 1982.62 0.0821822 1.6059 0
M  V30 21070 O 1983.81 0.329216 1.71061 0
M  V30 21071 C 1980.94 0.754356 3.32449 0
M  V30 21072 H 1982.13 2.11154 2.12964 0
M  V30 21073 H 1979.69 1.1268 1.08319 0
M  V30 21074 H 1980.42 -0.210224 3.23618 0
M  V30 21075 H 1980.21 1.52377 3.61281 0
M  V30 21076 H 1981.7 0.674095 4.12123 0
M  V30 21077 N 1982.13 -1.10905 1.11972 0
M  V30 21078 C 1983.06 -2.16893 0.740943 0
M  V30 21079 C 1984.08 -1.61166 -0.230099 0
M  V30 21080 O 1985.27 -1.78496 -0.0121612 0
M  V30 21081 C 1982.37 -3.38817 0.0751853 0
M  V30 21082 C 1981.54 -4.23998 1.07446 0
M  V30 21083 C 1980.6 -5.2438 0.437225 0
M  V30 21084 O 1979.62 -5.58611 1.09279 0
M  V30 21085 N 1980.83 -5.74996 -0.797475 0
M  V30 21086 H 1983.59 -2.49998 1.65291 0
M  V30 21087 H 1981.15 -1.26479 1.01068 0
M  V30 21088 H 1983.14 -4.03069 -0.362985 0
M  V30 21089 H 1981.71 -3.03728 -0.739454 0
M  V30 21090 H 1980.93 -3.56116 1.69041 0
M  V30 21091 H 1982.22 -4.77745 1.75034 0
M  V30 21092 H 1981.62 -5.49376 -1.34915 0
M  V30 21093 H 1980.18 -6.41057 -1.17854 0
M  V30 21094 N 1983.61 -0.910886 -1.2861 0
M  V30 21095 C 1984.84 -0.558332 -1.99224 0
M  V30 21096 C 1985.25 0.859686 -1.68092 0
M  V30 21097 O 1984.61 1.56902 -0.932092 0
M  V30 21098 C 1984.66 -0.754443 -3.5354 0
M  V30 21099 O 1984.38 -2.11666 -3.83574 0
M  V30 21100 C 1985.88 -0.408335 -4.41415 0
M  V30 21101 H 1983.1 -0.213139 -0.636249 0
M  V30 21102 H 1985.65 -1.2233 -1.63877 0
M  V30 21103 H 1983.8 -0.136504 -3.87159 0
M  V30 21104 H 1984.22 -2.15422 -4.78219 0
M  V30 21105 H 1985.69 -0.596337 -5.48769 0
M  V30 21106 H 1986.17 0.655276 -4.34284 0
M  V30 21107 H 1986.77 -1.00369 -4.13287 0
M  V30 21108 N 1985.09 1.42434 -0.674558 0
M  V30 21109 C 1986.34 2.00765 -0.193936 0
M  V30 21110 C 1986.65 1.53957 1.20651 0
M  V30 21111 O 1987.86 2.04705 1.78348 0
M  V30 21112 C 1986.31 3.58682 -0.295862 0
M  V30 21113 C 1985.92 4.14478 -1.70034 0
M  V30 21114 C 1987.66 4.24313 0.12606 0
M  V30 21115 C 1985.57 5.64758 -1.75505 0
M  V30 21116 H 1984.5 0.75086 -0.0687443 0
M  V30 21117 H 1987.15 1.6316 -0.839705 0
M  V30 21118 H 1985.53 3.9379 0.417795 0
M  V30 21119 H 1986.71 3.90831 -2.44106 0
M  V30 21120 H 1985.02 3.61298 -2.07009 0
M  V30 21121 H 1987.62 5.34596 0.105331 0
M  V30 21122 H 1987.96 3.99775 1.16127 0
M  V30 21123 H 1988.5 3.94164 -0.536581 0
M  V30 21124 H 1985.24 5.94094 -2.77007 0
M  V30 21125 H 1984.76 5.90397 -1.05788 0
M  V30 21126 H 1986.43 6.29172 -1.50838 0
M  V30 21127 N 1986.57 0.417871 1.51959 0
M  V30 21128 C 1987.5 -0.438814 2.2496 0
M  V30 21129 C 1988.51 -1.00283 1.28246 0
M  V30 21130 O 1989.7 -0.900288 1.54133 0
M  V30 21131 C 1986.8 -1.62371 2.97471 0
M  V30 21132 C 1985.97 -1.18204 4.21125 0
M  V30 21133 C 1985.03 -2.23484 4.76384 0
M  V30 21134 O 1984.06 -1.83715 5.38737 0
M  V30 21135 N 1985.26 -3.55751 4.58717 0
M  V30 21136 H 1988.03 0.18676 2.99118 0
M  V30 21137 H 1985.59 0.245711 1.60025 0
M  V30 21138 H 1987.58 -2.32385 3.3133 0
M  V30 21139 H 1986.15 -2.15503 2.26445 0
M  V30 21140 H 1985.37 -0.309696 3.92982 0
M  V30 21141 H 1986.66 -0.86403 5.0141 0
M  V30 21142 H 1986.05 -3.90806 4.09008 0
M  V30 21143 H 1984.61 -4.21715 4.96991 0
M  V30 21144 N 1988.04 -1.56898 0.148573 0
M  V30 21145 C 1989.46 -1.58241 -0.207826 0
M  V30 21146 C 1989.66 -1.16291 -1.64556 0
M  V30 21147 O 1988.72 -0.863939 -2.3726 0
M  V30 21148 C 1990.03 -3.00654 0.0523559 0
M  V30 21149 C 1991.58 -3.12998 -0.0112297 0
M  V30 21150 C 1992.05 -4.57463 0.221641 0
M  V30 21151 N 1993.54 -4.62893 0.168624 0
M  V30 21152 C 1994.28 -5.72488 0.323296 0
M  V30 21153 N 1993.77 -6.90725 0.535776 0
M  V30 21154 N 1995.57 -5.61495 0.26079 0
M  V30 21155 H 1987.72 -1.82459 1.08731 0
M  V30 21156 H 1989.98 -0.8446 0.430529 0
M  V30 21157 H 1989.69 -3.3574 1.04745 0
M  V30 21158 H 1989.56 -3.71268 -0.666346 0
M  V30 21159 H 1991.95 -2.77752 -0.996873 0
M  V30 21160 H 1992.03 -2.44868 0.739826 0
M  V30 21161 H 1991.67 -4.93413 1.20439 0
M  V30 21162 H 1991.6 -5.23722 -0.549756 0
M  V30 21163 H 1994.09 -3.77899 0.00911581 0
M  V30 21164 H 1994.41 -7.70113 0.643862 0
M  V30 21165 H 1992.75 -6.92641 0.572117 0
M  V30 21166 H 1995.94 -4.68002 0.095543 0
M  V30 21167 H 1996.12 -6.46857 0.384765 0
M  V30 21168 N 1989.52 0.125209 -1.57102 0
M  V30 21169 C 1990.43 1.17286 -2.03177 0
M  V30 21170 C 1991.45 1.4571 -0.951035 0
M  V30 21171 O 1992.62 1.56949 -1.2621 0
M  V30 21172 C 1989.69 2.4811 -2.42161 0
M  V30 21173 C 1988.75 2.2714 -3.64288 0
M  V30 21174 C 1987.98 3.51726 -4.01404 0
M  V30 21175 O 1988.21 4.58785 -3.38929 0
M  V30 21176 O 1987.14 3.43096 -4.94539 0
M  V30 21177 H 1990.97 0.811619 -2.92654 0
M  V30 21178 H 1988.55 0.335551 -1.45583 0
M  V30 21179 H 1990.43 3.252 -2.67998 0
M  V30 21180 H 1989.11 2.83721 -1.55833 0
M  V30 21181 H 1988.02 1.47929 -3.4361 0
M  V30 21182 H 1989.35 1.96435 -4.51303 0
M  V30 21183 N 1991 1.52564 0.395213 0
M  V30 21184 C 1991.93 1.73146 1.50177 0
M  V30 21185 C 1992.95 0.611895 1.50863 0
M  V30 21186 O 1994.13 0.887429 1.54877 0
M  V30 21187 C 1991.23 1.76943 2.89041 0
M  V30 21188 C 1990.41 3.06156 3.12389 0
M  V30 21189 C 1989.47 3.01581 4.31202 0
M  V30 21190 O 1988.49 3.75459 4.27807 0
M  V30 21191 N 1989.69 2.20335 5.37059 0
M  V30 21192 H 1992.46 2.68617 1.3291 0
M  V30 21193 H 1990.02 1.50975 0.584663 0
M  V30 21194 H 1992.01 1.71396 3.66613 0
M  V30 21195 H 1990.58 0.888857 2.99697 0
M  V30 21196 H 1989.8 3.25242 2.22737 0
M  V30 21197 H 1991.09 3.91607 3.2484 0
M  V30 21198 H 1990.49 1.59768 5.4267 0
M  V30 21199 H 1989.05 2.20634 6.13322 0
M  V30 21200 N 1992.48 -0.653289 1.43422 0
M  V30 21201 C 1993.39 -1.79526 1.51022 0
M  V30 21202 C 1994.4 -1.69403 0.39732 0
M  V30 21203 O 1995.58 -1.90574 0.651437 0
M  V30 21204 C 1992.65 -3.15803 1.43071 0
M  V30 21205 C 1991.71 -3.37723 2.65031 0
M  V30 21206 C 1990.94 -4.67499 2.5745 0
M  V30 21207 O 1991.16 -5.46846 1.6222 0
M  V30 21208 O 1990.1 -4.91137 3.47948 0
M  V30 21209 H 1993.92 -1.76069 2.47454 0
M  V30 21210 H 1991.51 -0.81176 1.25423 0
M  V30 21211 H 1993.39 -3.97083 1.41079 0
M  V30 21212 H 1992.06 -3.1985 0.497738 0
M  V30 21213 H 1990.97 -2.56208 2.72595 0
M  V30 21214 H 1992.3 -3.38523 3.573 0
M  V30 21215 N 1993.96 -1.29952 -0.891648 0
M  V30 21216 C 1995.37 -1.16586 -1.45824 0
M  V30 21217 C 1995.72 0.235978 -1.94776 0
M  V30 21218 O 1994.84 1.13214 -1.84422 0
M  V30 21219 C 1995.44 -2.11036 -2.65046 0
M  V30 21220 C 1994 -2.01668 -3.17816 0
M  V30 21221 C 1993.14 -2.015 -1.90507 0
M  V30 21222 H 1996.1 -1.42319 -0.702216 0
M  V30 21223 H 1996.12 -1.68729 -3.41044 0
M  V30 21224 H 1995.63 -3.13054 -2.29387 0
M  V30 21225 H 1993.73 -1.02767 -3.58147 0
M  V30 21226 H 1993.84 -2.89729 -3.81568 0
M  V30 21227 H 1992.21 -1.46209 -2.08555 0
M  V30 21228 H 1992.99 -3.05237 -1.57115 0
M  V30 21229 N 1995.44 1.1031 -1.12559 0
M  V30 21230 C 1996.37 2.16497 -0.752435 0
M  V30 21231 C 1997.38 1.61285 0.221548 0
M  V30 21232 O 1998.57 1.785 0.00269501 0
M  V30 21233 C 1995.67 3.38772 -0.0931525 0
M  V30 21234 C 1994.84 4.23422 -1.09693 0
M  V30 21235 C 1993.9 5.24141 -0.465028 0
M  V30 21236 O 1992.93 5.58024 -1.1224 0
M  V30 21237 N 1994.13 5.75411 0.76697 0
M  V30 21238 H 1996.89 2.49118 -1.66614 0
M  V30 21239 H 1994.46 1.25941 -1.01737 0
M  V30 21240 H 1996.45 4.03256 0.341604 0
M  V30 21241 H 1995.02 3.04116 0.723336 0
M  V30 21242 H 1994.24 3.55215 -1.70927 0
M  V30 21243 H 1995.53 4.7681 -1.77565 0
M  V30 21244 H 1994.92 5.50084 1.32 0
M  V30 21245 H 1993.48 6.41673 1.14453 0
M  V30 21246 N 1996.91 0.917694 1.28125 0
M  V30 21247 C 1997.86 0.407628 2.27172 0
M  V30 21248 C 1998.83 -0.520056 1.57749 0
M  V30 21249 O 2000.02 -0.441394 1.85624 0
M  V30 21250 C 1997.16 -0.342648 3.43395 0
M  V30 21251 C 1996.27 0.617993 4.27557 0
M  V30 21252 C 1995.4 -0.151124 5.30985 0
M  V30 21253 C 1994.44 0.802876 6.06812 0
M  V30 21254 N 1993.58 0.0670251 7.02068 0
M  V30 21255 H 1998.42 1.25728 2.70179 0
M  V30 21256 H 1995.96 0.631273 1.32866 0
M  V30 21257 H 1997.91 -0.793873 4.09577 0
M  V30 21258 H 1996.54 -1.15661 3.01367 0
M  V30 21259 H 1995.6 1.18775 3.61382 0
M  V30 21260 H 1996.91 1.3475 4.80254 0
M  V30 21261 H 1996.06 -0.662729 6.03069 0
M  V30 21262 H 1994.8 -0.913657 4.79065 0
M  V30 21263 H 1993.81 1.32582 5.33575 0
M  V30 21264 H 1995.03 1.56503 6.6082 0
M  V30 21265 H 1992.98 -0.677445 6.52493 0
M  V30 21266 H 1992.89 0.736283 7.52406 0
M  V30 21267 H 1994.16 -0.424255 7.78345 0
M  V30 21268 N 1998.39 -1.42074 0.682102 0
M  V30 21269 C 1999.34 -2.30799 0.00831535 0
M  V30 21270 C 2000.31 -1.46368 -0.785221 0
M  V30 21271 O 2001.49 -1.75184 -0.755989 0
M  V30 21272 C 1998.63 -3.32283 -0.931784 0
M  V30 21273 C 1997.75 -4.318 -0.131295 0
M  V30 21274 C 1996.88 -5.20357 -1.06781 0
M  V30 21275 C 1995.92 -6.1155 -0.259435 0
M  V30 21276 N 1995.06 -6.92634 -1.14904 0
M  V30 21277 H 1999.9 -2.87861 0.770715 0
M  V30 21278 H 1997.43 -1.41786 0.391799 0
M  V30 21279 H 1999.39 -3.89657 -1.49074 0
M  V30 21280 H 1998.02 -2.76802 -1.66073 0
M  V30 21281 H 1997.07 -3.76484 0.54439 0
M  V30 21282 H 1998.39 -4.96328 0.495998 0
M  V30 21283 H 1997.54 -5.82499 -1.69645 0
M  V30 21284 H 1996.28 -4.56024 -1.72898 0
M  V30 21285 H 1995.28 -5.48469 0.382368 0
M  V30 21286 H 1996.51 -6.77934 0.397744 0
M  V30 21287 H 1994.46 -6.30922 -1.79648 0
M  V30 21288 H 1994.37 -7.53795 -0.577001 0
M  V30 21289 H 1995.64 -7.59257 -1.76492 0
M  V30 21290 N 1999.87 -0.425924 -1.51735 0
M  V30 21291 C 2000.82 0.405756 -2.29034 0
M  V30 21292 C 2001.81 1.03103 -1.3441 0
M  V30 21293 O 2003.02 0.967304 -1.518 0
M  V30 21294 H 1999.39 0.149651 -0.736959 0
M  V30 21295 H 2001.36 -0.267185 -2.97201 0
M  V30 21296 C 2000.11 1.50091 -3.13637 0
M  V30 21297 H 1999.44 1.02912 -3.86328 0
M  V30 21298 H 2000.88 2.05632 -3.70799 0
M  V30 21299 C 1999.33 2.47775 -2.28274 0
M  V30 21300 O 1999.86 3.52051 -1.9345 0
M  V30 21301 N 1998.07 2.18387 -1.91717 0
M  V30 21302 H 1997.62 1.3362 -2.20235 0
M  V30 21303 H 1997.58 2.83989 -1.34897 0
M  V30 21304 N 2001.35 1.56817 -0.156891 0
M  V30 21305 C 2002.76 1.58349 0.199431 0
M  V30 21306 C 2002.96 1.17163 1.63937 0
M  V30 21307 O 2002.02 0.87651 2.36799 0
M  V30 21308 C 2003.33 3.00622 -0.0682996 0
M  V30 21309 C 2004.88 3.13 -0.00536951 0
M  V30 21310 C 2005.36 4.57339 -0.245899 0
M  V30 21311 N 2006.85 4.62797 -0.19317 0
M  V30 21312 C 2007.58 5.72308 -0.353652 0
M  V30 21313 N 2007.08 6.90431 -0.5724 0
M  V30 21314 N 2008.87 5.61349 -0.290563 0
M  V30 21315 H 2001.02 1.8188 -1.09697 0
M  V30 21316 H 2003.28 0.842304 -0.435002 0
M  V30 21317 H 2002.99 3.3518 -1.06524 0
M  V30 21318 H 2002.86 3.71616 0.646647 0
M  V30 21319 H 2005.25 2.78277 0.98213 0
M  V30 21320 H 2005.33 2.44472 -0.752801 0
M  V30 21321 H 2004.98 4.92768 -1.23054 0
M  V30 21322 H 2004.91 5.24007 0.521974 0
M  V30 21323 H 2007.4 3.77889 -0.0291566 0
M  V30 21324 H 2007.71 7.69761 -0.684694 0
M  V30 21325 H 2006.06 6.92328 -0.608841 0
M  V30 21326 H 2009.25 4.67945 -0.120361 0
M  V30 21327 H 2009.42 6.46644 -0.419064 0
M  V30 21328 N 2002.83 -0.116876 1.57166 0
M  V30 21329 C 2004.05 -0.838417 1.89151 0
M  V30 21330 C 2004.47 -1.73335 0.748361 0
M  V30 21331 O 2003.83 -1.80328 -0.280719 0
M  V30 21332 C 2003.88 -1.67006 3.20611 0
M  V30 21333 O 2003.6 -0.811158 4.30525 0
M  V30 21334 C 2005.1 -2.49657 3.66314 0
M  V30 21335 H 2002.32 -0.240909 0.626262 0
M  V30 21336 H 2004.86 -0.100631 2.04252 0
M  V30 21337 H 2003.02 -2.36058 3.07173 0
M  V30 21338 H 2003.43 -1.38499 5.05884 0
M  V30 21339 H 2004.91 -3.03537 4.61052 0
M  V30 21340 H 2005.38 -3.27114 2.93075 0
M  V30 21341 H 2005.99 -1.85844 3.82547 0
M  V30 21342 N 2004.3 -1.52772 -0.387116 0
M  V30 21343 C 2005.58 -1.5849 -1.14631 0
M  V30 21344 C 2005.96 -0.379228 -2.07666 0
M  V30 21345 O 2005.31 0.632297 -2.19577 0
M  V30 21346 C 2005.52 -2.92465 -1.90434 0
M  V30 21347 C 2006.87 -3.46269 -2.45729 0
M  V30 21348 O 2007.89 -2.94352 -2.00588 0
M  V30 21349 O 2006.75 -4.3698 -3.28193 0
M  V30 21350 H 2003.84 -0.639307 -0.52461 0
M  V30 21351 H 2006.39 -1.65108 -0.392117 0
M  V30 21352 H 2005.16 -3.7166 -1.22411 0
M  V30 21353 H 2004.78 -2.89241 -2.7281 0
M  V30 21354 N 2005.78 0.645673 -1.43767 0
M  V30 21355 C 2007.19 1.22702 -1.40717 0
M  V30 21356 C 2007.54 1.95862 -0.115066 0
M  V30 21357 O 2006.67 2.01652 0.785197 0
M  V30 21358 C 2007.26 2.23174 -2.54909 0
M  V30 21359 C 2005.82 2.76769 -2.551 0
M  V30 21360 C 2004.97 1.5153 -2.32237 0
M  V30 21361 H 2007.92 0.437227 -1.52558 0
M  V30 21362 H 2007.94 3.05497 -2.2683 0
M  V30 21363 H 2007.45 1.69898 -3.48936 0
M  V30 21364 H 2005.55 3.34087 -1.64974 0
M  V30 21365 H 2005.67 3.23799 -3.53116 0
M  V30 21366 H 2004.03 1.79146 -1.81049 0
M  V30 21367 H 2004.81 1.00177 -3.28359 0
M  V30 21368 N 2007.26 1.30423 0.884744 0
M  V30 21369 C 2008.21 1.1673 2.01188 0
M  V30 21370 C 2009.2 0.0791439 1.69215 0
M  V30 21371 O 2010.41 0.24001 1.78393 0
M  V30 21372 H 2006.78 0.361014 0.659676 0
M  V30 21373 H 2008.75 2.12124 2.09871 0
M  V30 21374 C 2007.5 0.876173 3.3648 0
M  V30 21375 H 2006.83 1.70557 3.61594 0
M  V30 21376 H 2008.27 0.820477 4.15986 0
M  V30 21377 C 2006.72 -0.420908 3.3426 0
M  V30 21378 O 2007.25 -1.44235 3.74912 0
M  V30 21379 N 2005.46 -0.432149 2.87369 0
M  V30 21380 H 2005.01 0.399559 2.54482 0
M  V30 21381 H 2004.97 -1.29995 2.86267 0
M  V30 21382 N 2008.74 -1.09711 1.13142 0
M  V30 21383 C 2009.99 -1.81198 0.886021 0
M  V30 21384 C 2010.3 -1.86501 -0.589624 0
M  V30 21385 O 2011.51 -2.54267 -0.951866 0
M  V30 21386 C 2009.96 -3.25498 1.53554 0
M  V30 21387 C 2009.57 -3.2847 3.0465 0
M  V30 21388 C 2011.31 -4.01761 1.37072 0
M  V30 21389 C 2009.22 -4.67276 3.62501 0
M  V30 21390 H 2008.15 -0.679005 0.327824 0
M  V30 21391 H 2010.8 -1.23325 1.35879 0
M  V30 21392 H 2009.18 -3.83414 0.990434 0
M  V30 21393 H 2010.36 -2.80336 3.65716 0
M  V30 21394 H 2008.67 -2.65697 3.20615 0
M  V30 21395 H 2011.27 -5.04306 1.77707 0
M  V30 21396 H 2011.61 -4.15105 0.315226 0
M  V30 21397 H 2012.15 -3.50279 1.88545 0
M  V30 21398 H 2008.88 -4.59133 4.67843 0
M  V30 21399 H 2008.4 -5.15746 3.06212 0
M  V30 21400 H 2010.08 -5.36249 3.62002 0
M  V30 21401 N 2010.22 -0.924476 -1.27637 0
M  V30 21402 C 2011.44 -0.57884 -1.99159 0
M  V30 21403 C 2011.87 0.83532 -1.68535 0
M  V30 21404 O 2011.22 1.55999 -0.92379 0
M  V30 21405 C 2011.27 -0.807508 -3.51442 0
M  V30 21406 O 2010.38 0.128443 -4.122 0
M  V30 21407 H 2009.72 -0.223218 -0.625356 0
M  V30 21408 H 2012.25 -1.24285 -1.62525 0
M  V30 21409 H 2012.26 -0.721808 -4.01564 0
M  V30 21410 H 2010.93 -1.83836 -3.73064 0
M  V30 21411 H 2009.51 -0.00689785 -3.72899 0
M  V30 21412 N 2011.69 1.41711 -0.689627 0
M  V30 21413 C 2013.11 1.84377 -0.293587 0
M  V30 21414 C 2013.46 1.57711 1.16712 0
M  V30 21415 O 2012.58 1.0445 1.89523 0
M  V30 21416 C 2013.18 3.34691 -0.526073 0
M  V30 21417 C 2011.74 3.7595 -0.184009 0
M  V30 21418 C 2010.88 2.65167 -0.811277 0
M  V30 21419 H 2013.83 1.31347 -0.890718 0
M  V30 21420 H 2013.85 3.7988 0.217124 0
M  V30 21421 H 2013.37 3.54068 -1.58927 0
M  V30 21422 H 2011.47 3.62176 0.875158 0
M  V30 21423 H 2011.58 4.74875 -0.63488 0
M  V30 21424 H 2009.94 2.53554 -0.241363 0
M  V30 21425 H 2010.73 2.87363 -1.87822 0
M  V30 21426 N 2013.17 0.433965 1.51507 0
M  V30 21427 C 2014.45 -0.193401 1.94642 0
M  V30 21428 C 2014.83 -1.60398 1.37243 0
M  V30 21429 O 2014.18 -2.21579 0.558139 0
M  V30 21430 C 2014.39 -0.174558 3.48563 0
M  V30 21431 C 2015.74 -0.381783 4.2288 0
M  V30 21432 O 2016.76 -0.252823 3.55302 0
M  V30 21433 O 2015.62 -0.638151 5.42761 0
M  V30 21434 H 2012.71 -0.131787 0.816432 0
M  V30 21435 H 2015.26 0.491701 1.6242 0
M  V30 21436 H 2014.03 0.811732 3.82788 0
M  V30 21437 H 2013.65 -0.902712 3.87217 0
M  V30 21438 N 2014.65 -1.56732 0.165206 0
M  V30 21439 C 2015.58 -2.1483 -0.798785 0
M  V30 21440 C 2016.6 -1.10232 -1.19803 0
M  V30 21441 O 2017.78 -1.37442 -1.13894 0
M  V30 21442 C 2014.88 -2.67108 -2.08583 0
M  V30 21443 C 2014.06 -3.96299 -1.8511 0
M  V30 21444 C 2013.12 -4.33702 -2.97975 0
M  V30 21445 O 2012.14 -5.01692 -2.68875 0
M  V30 21446 N 2013.34 -3.94762 -4.25609 0
M  V30 21447 H 2016.11 -2.98173 -0.302127 0
M  V30 21448 H 2013.67 -1.6189 -0.0177783 0
M  V30 21449 H 2015.66 -2.89132 -2.8317 0
M  V30 21450 H 2014.23 -1.88388 -2.49457 0
M  V30 21451 H 2013.45 -3.82715 -0.944608 0
M  V30 21452 H 2014.74 -4.80686 -1.66788 0
M  V30 21453 H 2014.14 -3.40014 -4.52114 0
M  V30 21454 H 2012.7 -4.218 -4.96919 0
M  V30 21455 N 2016.13 0.10854 -1.57226 0
M  V30 21456 C 2017.35 0.832276 -1.89968 0
M  V30 21457 C 2017.78 1.72143 -0.758179 0
M  V30 21458 O 2017.14 1.78952 0.290864 0
M  V30 21459 C 2017.18 1.63287 -3.21512 0
M  V30 21460 O 2016.29 2.74071 -3.08154 0
M  V30 21461 H 2015.63 0.229508 -0.623075 0
M  V30 21462 H 2018.16 0.0877974 -2.04412 0
M  V30 21463 H 2018.17 2.01992 -3.5449 0
M  V30 21464 H 2016.84 0.98022 -4.04184 0
M  V30 21465 H 2015.42 2.38492 -2.86664 0
M  V30 21466 N 2017.61 1.52975 0.379009 0
M  V30 21467 C 2018.83 1.72698 1.14849 0
M  V30 21468 C 2019.26 0.448814 1.82667 0
M  V30 21469 O 2018.61 -0.596182 1.71217 0
M  V30 21470 C 2018.66 2.884 2.16466 0
M  V30 21471 O 2017.77 2.56071 3.23267 0
M  V30 21472 H 2017.11 0.573952 0.333878 0
M  V30 21473 H 2019.64 1.99807 0.440243 0
M  V30 21474 H 2019.65 3.14183 2.60295 0
M  V30 21475 H 2018.32 3.8112 1.66494 0
M  V30 21476 H 2016.9 2.41063 2.84505 0
M  V30 21477 N 2019.08 -0.63804 1.44107 0
M  V30 21478 C 2020.33 -1.39496 1.46237 0
M  V30 21479 C 2020.65 -1.94776 0.093533 0
M  V30 21480 O 2019.92 -1.75361 -0.873231 0
M  V30 21481 H 2018.5 -0.517763 0.538452 0
M  V30 21482 H 2021.17 -0.751452 1.79831 0
M  V30 21483 H 2020.26 -2.22974 2.18378 0
M  V30 21484 N 2020.56 -1.3089 -0.877815 0
M  V30 21485 C 2021.81 -1.20125 -1.63022 0
M  V30 21486 C 2022.14 0.242414 -1.92983 0
M  V30 21487 O 2021.39 1.18896 -1.55442 0
M  V30 21488 C 2021.69 -1.98261 -2.97367 0
M  V30 21489 C 2021.36 -3.47825 -2.8693 0
M  V30 21490 C 2020.02 -3.88608 -2.8379 0
M  V30 21491 C 2022.37 -4.43035 -2.74535 0
M  V30 21492 C 2019.7 -5.22882 -2.66104 0
M  V30 21493 C 2022.05 -5.77425 -2.58386 0
M  V30 21494 C 2020.72 -6.17439 -2.53625 0
M  V30 21495 H 2019.99 -0.439569 -0.59654 0
M  V30 21496 H 2022.63 -1.6207 -1.02007 0
M  V30 21497 H 2020.94 -1.48972 -3.62373 0
M  V30 21498 H 2022.63 -1.87319 -3.5456 0
M  V30 21499 H 2019.22 -3.1542 -2.90187 0
M  V30 21500 H 2023.41 -4.12463 -2.76021 0
M  V30 21501 H 2018.66 -5.52968 -2.60837 0
M  V30 21502 H 2022.84 -6.50833 -2.4777 0
M  V30 21503 H 2020.47 -7.21428 -2.39679 0
M  V30 21504 N 2022.04 1.0911 -1.13723 0
M  V30 21505 C 2023.27 1.85108 -0.924265 0
M  V30 21506 C 2023.68 1.81295 0.527025 0
M  V30 21507 O 2023.04 1.21144 1.36493 0
M  V30 21508 C 2023.09 3.3295 -1.40807 0
M  V30 21509 O 2022.81 3.36738 -2.80249 0
M  V30 21510 C 2024.31 4.25778 -1.23401 0
M  V30 21511 H 2021.53 0.584594 -0.329379 0
M  V30 21512 H 2024.08 1.37847 -1.51058 0
M  V30 21513 H 2022.23 3.77627 -0.864679 0
M  V30 21514 H 2022.65 4.28973 -3.01799 0
M  V30 21515 H 2024.12 5.27655 -1.62123 0
M  V30 21516 H 2024.6 4.38847 -0.176058 0
M  V30 21517 H 2025.2 3.8692 -1.76559 0
M  V30 21518 N 2023.52 0.931232 1.27145 0
M  V30 21519 C 2024.75 0.589956 1.98311 0
M  V30 21520 C 2025.16 -0.832836 1.69438 0
M  V30 21521 O 2024.52 -1.55399 0.956935 0
M  V30 21522 C 2024.57 0.810592 3.52295 0
M  V30 21523 O 2024.29 2.17741 3.80158 0
M  V30 21524 C 2025.79 0.478508 4.4071 0
M  V30 21525 H 2023.01 0.223234 0.632778 0
M  V30 21526 H 2025.56 1.24922 1.6191 0
M  V30 21527 H 2023.71 0.198081 3.86893 0
M  V30 21528 H 2024.12 2.23003 4.74731 0
M  V30 21529 H 2025.6 0.683566 5.47751 0
M  V30 21530 H 2026.08 -0.586102 4.35272 0
M  V30 21531 H 2026.68 1.06931 4.11638 0
M  V30 21532 N 2025 -1.41343 0.697132 0
M  V30 21533 C 2026.41 -1.84219 0.303361 0
M  V30 21534 C 2026.76 -1.58328 -1.15874 0
M  V30 21535 O 2025.88 -1.05454 -1.88967 0
M  V30 21536 C 2026.48 -3.34407 0.543815 0
M  V30 21537 C 2025.04 -3.75847 0.203944 0
M  V30 21538 C 2024.19 -2.64733 0.825329 0
M  V30 21539 H 2027.14 -1.30872 0.897671 0
M  V30 21540 H 2027.16 -3.7999 -0.196975 0
M  V30 21541 H 2026.67 -3.5322 1.60802 0
M  V30 21542 H 2024.77 -3.62635 -0.855939 0
M  V30 21543 H 2024.88 -4.74531 0.660055 0
M  V30 21544 H 2023.25 -2.53422 0.254806 0
M  V30 21545 H 2024.03 -2.86363 1.89344 0
M  V30 21546 N 2026.48 -0.441993 -1.51275 0
M  V30 21547 C 2027.7 0.121451 -2.06543 0
M  V30 21548 C 2028.12 1.36058 -1.30896 0
M  V30 21549 O 2027.48 1.78713 -0.369834 0
M  V30 21550 C 2027.53 0.438983 -3.58825 0
M  V30 21551 O 2027.25 -0.750969 -4.31616 0
M  V30 21552 C 2028.75 1.05259 -4.30622 0
M  V30 21553 H 2025.97 0.00586064 -0.670974 0
M  V30 21554 H 2028.51 -0.622415 -1.94798 0
M  V30 21555 H 2026.67 1.13275 -3.70469 0
M  V30 21556 H 2027.08 -0.478024 -5.22317 0
M  V30 21557 H 2028.56 1.22474 -5.38242 0
M  V30 21558 H 2029.03 2.03489 -3.89216 0
M  V30 21559 H 2029.64 0.398068 -4.23433 0
M  V30 21560 N 2027.95 1.56642 -0.173515 0
M  V30 21561 C 2028.92 2.16857 0.742008 0
M  V30 21562 C 2029.92 1.11721 1.1565 0
M  V30 21563 O 2031.11 1.37223 1.0731 0
M  V30 21564 C 2028.24 2.7532 2.01026 0
M  V30 21565 H 2029.43 2.99108 0.217769 0
M  V30 21566 H 2026.98 1.56115 0.0760536 0
M  V30 21567 H 2027.72 1.96808 2.57754 0
M  V30 21568 H 2027.5 3.52264 1.722 0
M  V30 21569 H 2028.99 3.21626 2.66358 0
M  V30 21570 N 2029.43 -0.1002 1.57281 0
M  V30 21571 C 2030.36 -1.15288 1.96936 0
M  V30 21572 C 2031.34 -1.39113 0.8418 0
M  V30 21573 O 2032.53 -1.52958 1.10165 0
M  V30 21574 C 2029.65 -2.50308 2.28175 0
M  V30 21575 C 2028.7 -2.42795 3.50646 0
M  V30 21576 S 2029.53 -1.8494 5.02551 0
M  V30 21577 C 2030.69 -3.21595 5.36962 0
M  V30 21578 H 2030.92 -0.814808 2.85916 0
M  V30 21579 H 2028.45 -0.307686 1.51303 0
M  V30 21580 H 2030.41 -3.27987 2.46849 0
M  V30 21581 H 2029.07 -2.81286 1.39775 0
M  V30 21582 H 2028.27 -3.42298 3.6993 0
M  V30 21583 H 2027.87 -1.73243 3.31456 0
M  V30 21584 H 2030.16 -4.17856 5.33294 0
M  V30 21585 H 2031.1 -3.0712 6.38031 0
M  V30 21586 H 2031.51 -3.2089 4.64424 0
M  V30 21587 N 2030.91 -1.53174 -0.370891 0
M  V30 21588 C 2032.14 -1.73 -1.13484 0
M  V30 21589 C 2032.55 -0.456538 -1.83197 0
M  V30 21590 O 2031.91 0.570218 -1.73363 0
M  V30 21591 C 2031.96 -2.89186 -2.16919 0
M  V30 21592 O 2031.68 -4.11604 -1.50045 0
M  V30 21593 C 2033.18 -3.20841 -3.05901 0
M  V30 21594 H 2030.4 -0.578752 -0.33954 0
M  V30 21595 H 2032.95 -1.99897 -0.43143 0
M  V30 21596 H 2031.1 -2.64699 -2.82866 0
M  V30 21597 H 2031.52 -4.76629 -2.18918 0
M  V30 21598 H 2032.99 -4.05557 -3.7447 0
M  V30 21599 H 2033.47 -2.35982 -3.70418 0
M  V30 21600 H 2034.07 -3.47235 -2.45577 0
M  V30 21601 N 2032.39 0.630389 -1.44443 0
M  V30 21602 C 2033.8 1.21202 -1.4201 0
M  V30 21603 C 2034.15 1.95729 -0.135833 0
M  V30 21604 O 2033.27 2.02474 0.763765 0
M  V30 21605 C 2033.87 2.20458 -2.57262 0
M  V30 21606 C 2032.43 2.74047 -2.58021 0
M  V30 21607 C 2031.58 1.49058 -2.33831 0
M  V30 21608 H 2034.53 0.421022 -1.53013 0
M  V30 21609 H 2034.55 3.03074 -2.30057 0
M  V30 21610 H 2034.06 1.66188 -3.50718 0
M  V30 21611 H 2032.16 3.32319 -1.68509 0
M  V30 21612 H 2032.27 3.20036 -3.56531 0
M  V30 21613 H 2030.64 1.77216 -1.82939 0
M  V30 21614 H 2031.42 0.96689 -3.29403 0
M  V30 21615 N 2033.87 1.31354 0.870861 0
M  V30 21616 C 2035.28 1.18891 1.43951 0
M  V30 21617 C 2035.63 -0.204961 1.95126 0
M  V30 21618 O 2034.75 -1.10266 1.862 0
M  V30 21619 C 2035.35 2.15226 2.61655 0
M  V30 21620 C 2033.91 2.06699 3.14567 0
M  V30 21621 C 2033.05 2.04505 1.87277 0
M  V30 21622 H 2036 1.43418 0.679486 0
M  V30 21623 H 2036.03 1.74134 3.38316 0
M  V30 21624 H 2035.54 3.16664 2.24378 0
M  V30 21625 H 2033.64 1.08452 3.56467 0
M  V30 21626 H 2033.75 2.95763 3.7691 0
M  V30 21627 H 2032.12 1.49508 2.06202 0
M  V30 21628 H 2032.9 3.07698 1.52239 0
M  V30 21629 N 2035.34 -1.08505 1.143 0
M  V30 21630 C 2036.59 -1.8114 0.911938 0
M  V30 21631 C 2036.92 -1.85946 -0.560156 0
M  V30 21632 O 2036.2 -1.33458 -1.41489 0
M  V30 21633 C 2036.48 -3.26806 1.51227 0
M  V30 21634 C 2036.33 -3.30215 3.05414 0
M  V30 21635 C 2037.65 -4.23754 1.1883 0
M  V30 21636 H 2034.77 -0.657619 0.332725 0
M  V30 21637 H 2037.41 -1.27044 1.41279 0
M  V30 21638 H 2035.56 -3.73003 1.08633 0
M  V30 21639 H 2037.24 -2.92351 3.56832 0
M  V30 21640 H 2035.48 -2.69518 3.39915 0
M  V30 21641 H 2036.15 -4.32875 3.42525 0
M  V30 21642 H 2038.63 -3.8589 1.55653 0
M  V30 21643 H 2037.5 -5.23993 1.63469 0
M  V30 21644 H 2037.76 -4.41979 0.103442 0
M  V30 21645 N 2036.82 -0.937962 -1.26649 0
M  V30 21646 C 2037.75 -0.462649 -2.28871 0
M  V30 21647 C 2038.73 0.4824 -1.63116 0
M  V30 21648 O 2039.92 0.384947 -1.90347 0
M  V30 21649 C 2037.05 0.275964 -3.46202 0
M  V30 21650 C 2036 -0.582222 -4.24021 0
M  V30 21651 C 2035.33 0.286161 -5.33934 0
M  V30 21652 C 2036.63 -1.85193 -4.88365 0
M  V30 21653 H 2038.32 -1.31698 -2.68879 0
M  V30 21654 H 2035.87 -0.634709 -1.29257 0
M  V30 21655 H 2037.82 0.619496 -4.16822 0
M  V30 21656 H 2036.54 1.1644 -3.05138 0
M  V30 21657 H 2035.2 -0.908604 -3.55162 0
M  V30 21658 H 2034.85 1.17386 -4.89111 0
M  V30 21659 H 2034.55 -0.284618 -5.8691 0
M  V30 21660 H 2036.08 0.625035 -6.07393 0
M  V30 21661 H 2037.49 -1.57584 -5.51217 0
M  V30 21662 H 2035.89 -2.36702 -5.51445 0
M  V30 21663 H 2036.96 -2.56526 -4.11488 0
M  V30 21664 N 2038.3 1.40971 -0.704618 0
M  V30 21665 C 2039.53 2.05399 -0.248738 0
M  V30 21666 C 2039.94 1.53056 1.10541 0
M  V30 21667 O 2039.3 0.682534 1.69256 0
M  V30 21668 C 2039.35 3.60902 -0.207794 0
M  V30 21669 O 2039.07 4.11311 -1.50846 0
M  V30 21670 C 2040.57 4.42489 0.267977 0
M  V30 21671 H 2037.79 0.661269 -0.11386 0
M  V30 21672 H 2040.34 1.8058 -0.959745 0
M  V30 21673 H 2038.49 3.84729 0.4541 0
M  V30 21674 H 2038.91 5.05426 -1.4016 0
M  V30 21675 H 2040.38 5.51454 0.245489 0
M  V30 21676 H 2040.86 4.1926 1.30836 0
M  V30 21677 H 2041.46 4.23746 -0.363242 0
M  V30 21678 N 2039.78 0.45001 1.51039 0
M  V30 21679 C 2041.01 -0.110496 2.06605 0
M  V30 21680 C 2041.42 -1.35362 1.31615 0
M  V30 21681 O 2040.78 -1.78515 0.379306 0
M  V30 21682 C 2040.83 -0.419948 3.59052 0
M  V30 21683 O 2040.55 0.773848 4.31211 0
M  V30 21684 C 2042.05 -1.02974 4.31174 0
M  V30 21685 H 2039.27 -0.00230221 0.670996 0
M  V30 21686 H 2041.82 0.632737 1.94465 0
M  V30 21687 H 2039.97 -1.11309 3.71065 0
M  V30 21688 H 2040.38 0.505717 5.22056 0
M  V30 21689 H 2041.86 -1.19617 5.38884 0
M  V30 21690 H 2042.34 -2.01422 3.9029 0
M  V30 21691 H 2042.94 -0.375607 4.23638 0
M  V30 21692 N 2041.26 -1.56548 0.18182 0
M  V30 21693 C 2042.22 -2.17247 -0.730497 0
M  V30 21694 C 2043.22 -1.12333 -1.15056 0
M  V30 21695 O 2044.41 -1.3779 -1.06581 0
M  V30 21696 C 2041.54 -2.76383 -1.99563 0
M  V30 21697 H 2042.73 -2.9922 -0.201904 0
M  V30 21698 H 2040.29 -1.56153 -0.0677734 0
M  V30 21699 H 2041.02 -1.98173 -2.56706 0
M  V30 21700 H 2040.81 -3.53172 -1.70329 0
M  V30 21701 H 2042.3 -3.23034 -2.64649 0
M  V30 21702 N 2042.73 0.0918577 -1.57332 0
M  V30 21703 C 2043.64 1.1295 -2.0562 0
M  V30 21704 C 2044.66 1.4366 -0.981728 0
M  V30 21705 O 2045.84 1.54237 -1.29511 0
M  V30 21706 C 2042.9 2.42918 -2.4737 0
M  V30 21707 C 2041.96 2.19361 -3.69024 0
M  V30 21708 C 2041.2 3.43132 -4.08774 0
M  V30 21709 O 2041.42 4.51492 -3.48584 0
M  V30 21710 O 2040.35 3.32529 -5.01705 0
M  V30 21711 H 2044.18 0.74936 -2.9431 0
M  V30 21712 H 2041.76 0.304595 -1.46262 0
M  V30 21713 H 2043.65 3.19442 -2.74835 0
M  V30 21714 H 2042.32 2.80352 -1.61816 0
M  V30 21715 H 2041.23 1.40607 -3.46671 0
M  V30 21716 H 2042.56 1.86818 -4.55368 0
M  V30 21717 N 2044.21 1.53368 0.362763 0
M  V30 21718 C 2045.44 1.73599 1.12565 0
M  V30 21719 C 2045.86 0.466247 1.82952 0
M  V30 21720 O 2045.21 -0.561016 1.73663 0
M  V30 21721 C 2045.26 2.90332 2.15382 0
M  V30 21722 O 2044.98 4.12394 1.4786 0
M  V30 21723 C 2046.49 3.22459 3.04196 0
M  V30 21724 H 2043.71 0.580544 0.336466 0
M  V30 21725 H 2046.25 2.00123 0.420823 0
M  V30 21726 H 2044.4 2.66195 2.81459 0
M  V30 21727 H 2044.82 4.77783 2.16387 0
M  V30 21728 H 2046.29 4.07537 3.72314 0
M  V30 21729 H 2046.77 2.37943 3.69161 0
M  V30 21730 H 2047.38 3.48532 2.43732 0
M  V30 21731 N 2045.69 -0.62272 1.44776 0
M  V30 21732 C 2046.92 -1.41403 1.51723 0
M  V30 21733 C 2047.34 -1.87534 0.145802 0
M  V30 21734 O 2046.7 -1.59244 -0.866667 0
M  V30 21735 C 2046.75 -2.60482 2.49362 0
M  V30 21736 O 2045.85 -3.60604 2.00096 0
M  V30 21737 H 2045.19 -0.422766 0.51202 0
M  V30 21738 H 2047.72 -0.759294 1.89989 0
M  V30 21739 H 2047.73 -3.0792 2.67674 0
M  V30 21740 H 2046.41 -2.26253 3.48974 0
M  V30 21741 H 2044.98 -3.19918 1.9159 0
M  V30 21742 N 2047.17 -1.31814 -0.863883 0
M  V30 21743 C 2048.41 -1.22028 -1.61979 0
M  V30 21744 C 2048.75 0.219661 -1.92954 0
M  V30 21745 O 2048.02 1.15428 -1.56546 0
M  V30 21746 C 2048.31 -2.0707 -2.94608 0
M  V30 21747 C 2048.16 -3.59395 -2.70473 0
M  V30 21748 C 2049.48 -1.92477 -3.95779 0
M  V30 21749 H 2046.6 -0.444641 -0.587762 0
M  V30 21750 H 2049.24 -1.61666 -0.998202 0
M  V30 21751 H 2047.39 -1.73395 -3.47659 0
M  V30 21752 H 2049.06 -4.03237 -2.24048 0
M  V30 21753 H 2047.3 -3.82521 -2.04597 0
M  V30 21754 H 2047.97 -4.14213 -3.64871 0
M  V30 21755 H 2050.45 -2.21959 -3.51957 0
M  V30 21756 H 2049.33 -2.54272 -4.86453 0
M  V30 21757 H 2049.59 -0.889783 -4.33053 0
M  V30 21758 N 2048.65 1.07897 -1.14873 0
M  V30 21759 C 2049.59 2.14955 -0.840422 0
M  V30 21760 C 2050.56 1.64839 0.204277 0
M  V30 21761 O 2051.75 1.9066 0.0730523 0
M  V30 21762 C 2048.89 3.43521 -0.329768 0
M  V30 21763 C 2048 4.07456 -1.43538 0
M  V30 21764 C 2047.14 5.23836 -0.881432 0
M  V30 21765 C 2046.18 5.79723 -1.96437 0
M  V30 21766 N 2045.31 6.87441 -1.42721 0
M  V30 21767 H 2050.15 2.40669 -1.75734 0
M  V30 21768 H 2047.69 1.18102 -0.876944 0
M  V30 21769 H 2049.65 4.17197 -0.01545 0
M  V30 21770 H 2048.28 3.18076 0.550246 0
M  V30 21771 H 2047.33 3.31489 -1.86599 0
M  V30 21772 H 2048.64 4.45007 -2.25323 0
M  V30 21773 H 2047.8 6.04473 -0.519325 0
M  V30 21774 H 2046.53 4.87689 -0.0326916 0
M  V30 21775 H 2045.54 4.97736 -2.33536 0
M  V30 21776 H 2046.76 6.17927 -2.81678 0
M  V30 21777 H 2044.71 6.53244 -0.600731 0
M  V30 21778 H 2044.63 7.23845 -2.18137 0
M  V30 21779 H 2045.9 7.71797 -1.09317 0
M  V30 21780 N 2050.12 0.944665 1.2615 0
M  V30 21781 C 2051.54 0.636259 1.75524 0
M  V30 21782 C 2051.89 -0.848524 1.76903 0
M  V30 21783 O 2051.01 -1.66407 1.38339 0
M  V30 21784 C 2051.61 1.14823 3.18749 0
M  V30 21785 C 2050.17 0.890177 3.65722 0
M  V30 21786 C 2049.31 1.29711 2.45093 0
M  V30 21787 H 2052.26 1.12258 1.12177 0
M  V30 21788 H 2052.28 0.503668 3.77152 0
M  V30 21789 H 2051.8 2.22889 3.17714 0
M  V30 21790 H 2049.9 -0.175952 3.72184 0
M  V30 21791 H 2050.01 1.51963 4.54361 0
M  V30 21792 H 2048.37 0.71552 2.44443 0
M  V30 21793 H 2049.16 2.38677 2.46755 0
M  V30 21794 N 2051.6 -1.40596 0.712085 0
M  V30 21795 C 2052.83 -2.05787 0.258197 0
M  V30 21796 C 2053.25 -1.53289 -1.09015 0
M  V30 21797 O 2052.61 -0.666771 -1.68594 0
M  V30 21798 C 2052.66 -3.59771 0.244357 0
M  V30 21799 O 2051.76 -4.05042 -0.77555 0
M  V30 21800 H 2051.1 -0.652692 0.12202 0
M  V30 21801 H 2053.63 -1.80059 0.971583 0
M  V30 21802 H 2053.64 -4.0792 0.0808437 0
M  V30 21803 H 2052.32 -3.97347 1.22834 0
M  V30 21804 H 2050.9 -3.68361 -0.580045 0
M  V30 21805 N 2053.08 -0.458013 -1.50798 0
M  V30 21806 C 2054.33 0.101617 -2.02545 0
M  V30 21807 C 2054.66 1.4054 -1.34023 0
M  V30 21808 O 2053.93 1.88941 -0.461705 0
M  V30 21809 C 2054.22 0.298998 -3.58857 0
M  V30 21810 C 2054.07 -1.02488 -4.37968 0
M  V30 21811 C 2055.39 1.05949 -4.27157 0
M  V30 21812 H 2052.51 0.0354565 -0.736147 0
M  V30 21813 H 2055.15 -0.601052 -1.80243 0
M  V30 21814 H 2053.3 0.89752 -3.77991 0
M  V30 21815 H 2054.97 -1.65898 -4.30437 0
M  V30 21816 H 2053.22 -1.62464 -4.02229 0
M  V30 21817 H 2053.89 -0.840572 -5.45562 0
M  V30 21818 H 2056.36 0.55231 -4.12418 0
M  V30 21819 H 2055.24 1.16639 -5.36364 0
M  V30 21820 H 2055.5 2.09283 -3.89427 0
M  V30 21821 N 2054.56 1.56449 -0.190119 0
M  V30 21822 C 2055.78 2.02261 0.458823 0
M  V30 21823 C 2056.21 1.06942 1.54742 0
M  V30 21824 O 2055.57 0.0520711 1.81225 0
M  V30 21825 C 2055.62 3.46549 0.996786 0
M  V30 21826 O 2054.72 3.54338 2.10993 0
M  V30 21827 H 2054.06 0.655191 0.1078 0
M  V30 21828 H 2056.59 2.02396 -0.299535 0
M  V30 21829 H 2056.6 3.8624 1.31465 0
M  V30 21830 H 2055.28 4.1542 0.199852 0
M  V30 21831 H 2053.85 3.2652 1.80109 0
M  V30 21832 N 2056.04 -0.0835127 1.57379 0
M  V30 21833 C 2057 -1.08477 2.01905 0
M  V30 21834 C 2058 -1.32278 0.91428 0
M  V30 21835 O 2059.19 -1.28196 1.17947 0
M  V30 21836 C 2056.32 -2.43121 2.38967 0
M  V30 21837 H 2057.52 -0.701256 2.91586 0
M  V30 21838 H 2055.07 -0.328903 1.528 0
M  V30 21839 H 2055.8 -2.86326 1.52275 0
M  V30 21840 H 2055.59 -2.2719 3.19573 0
M  V30 21841 H 2057.08 -3.15113 2.74032 0
M  V30 21842 N 2057.52 -1.53558 -0.354624 0
M  V30 21843 C 2058.76 -1.70271 -1.09609 0
M  V30 21844 C 2059.09 -0.460135 -1.88979 0
M  V30 21845 O 2058.35 0.558038 -1.87575 0
M  V30 21846 C 2058.64 -2.91096 -2.07359 0
M  V30 21847 C 2058.31 -4.27157 -1.44386 0
M  V30 21848 C 2056.97 -4.64155 -1.2694 0
M  V30 21849 C 2059.32 -5.11726 -0.989239 0
M  V30 21850 C 2056.65 -5.83347 -0.626331 0
M  V30 21851 C 2059 -6.31574 -0.360126 0
M  V30 21852 C 2057.67 -6.67275 -0.173255 0
M  V30 21853 H 2056.94 -0.623064 -0.401089 0
M  V30 21854 H 2059.59 -1.8776 -0.37662 0
M  V30 21855 H 2057.89 -2.68164 -2.85649 0
M  V30 21856 H 2059.59 -3.0122 -2.64702 0
M  V30 21857 H 2056.18 -3.98032 -1.5896 0
M  V30 21858 H 2060.36 -4.83684 -1.11191 0
M  V30 21859 H 2055.62 -6.0959 -0.470062 0
M  V30 21860 H 2059.79 -6.964 0.00028709 0
M  V30 21861 H 2057.42 -7.59496 0.327098 0
M  V30 21862 N 2058.99 0.615033 -1.45104 0
M  V30 21863 C 2060.22 1.40105 -1.52244 0
M  V30 21864 C 2060.64 1.88183 -0.152561 0
M  V30 21865 O 2059.99 1.61783 0.844537 0
M  V30 21866 C 2060.04 2.61056 -2.50064 0
M  V30 21867 O 2059.77 2.14979 -3.81727 0
M  V30 21868 C 2061.27 3.54003 -2.66828 0
M  V30 21869 H 2058.49 0.429133 -0.515835 0
M  V30 21870 H 2061.03 0.750744 -1.90221 0
M  V30 21871 H 2059.19 3.22145 -2.15178 0
M  V30 21872 H 2059.6 2.9351 -4.34686 0
M  V30 21873 H 2061.07 4.35434 -3.39266 0
M  V30 21874 H 2061.55 4.03861 -1.72606 0
M  V30 21875 H 2062.16 2.98773 -3.0268 0
M  V30 21876 N 2060.47 1.3227 0.85688 0
M  V30 21877 C 2061.42 1.17604 1.95329 0
M  V30 21878 C 2062.41 0.0835503 1.60683 0
M  V30 21879 O 2063.6 0.309827 1.74267 0
M  V30 21880 C 2060.73 0.89897 3.31321 0
M  V30 21881 C 2059.81 2.03306 3.72193 0
M  V30 21882 N 2060.2 3.28141 3.84911 0
M  V30 21883 C 2058.5 1.93573 4.01803 0
M  V30 21884 C 2059.2 4.02408 4.20051 0
M  V30 21885 N 2058.18 3.30686 4.31448 0
M  V30 21886 H 2061.98 2.12249 2.03292 0
M  V30 21887 H 2059.49 1.24017 1.0485 0
M  V30 21888 H 2061.49 0.774863 4.09636 0
M  V30 21889 H 2060.15 -0.0391247 3.24676 0
M  V30 21890 H 2061.16 3.63104 3.69291 0
M  V30 21891 H 2057.84 1.07311 4.03473 0
M  V30 21892 H 2059.23 5.10048 4.37379 0
M  V30 21893 N 2061.95 -1.07287 1.15444 0
M  V30 21894 C 2063.17 -1.84153 0.954061 0
M  V30 21895 C 2063.6 -1.81534 -0.492639 0
M  V30 21896 O 2062.96 -1.20877 -1.35124 0
M  V30 21897 C 2063.01 -3.29112 1.4737 0
M  V30 21898 O 2062.11 -4.06866 0.673335 0
M  V30 21899 H 2061.45 -0.570198 0.34025 0
M  V30 21900 H 2063.98 -1.35339 1.53442 0
M  V30 21901 H 2063.99 -3.79944 1.48682 0
M  V30 21902 H 2062.67 -3.30333 2.52691 0
M  V30 21903 H 2061.24 -3.65687 0.729894 0
M  V30 21904 N 2063.43 -0.951342 -1.25647 0
M  V30 21905 C 2064.84 -0.645559 -1.75184 0
M  V30 21906 C 2065.19 0.83913 -1.7735 0
M  V30 21907 O 2064.31 1.65671 -1.3922 0
M  V30 21908 C 2064.91 -1.16512 -3.18136 0
M  V30 21909 C 2063.47 -0.90956 -3.65245 0
M  V30 21910 C 2062.62 -1.31009 -2.44401 0
M  V30 21911 H 2065.57 -1.12852 -1.1158 0
M  V30 21912 H 2065.59 -0.523662 -3.76879 0
M  V30 21913 H 2065.1 -2.24571 -3.16527 0
M  V30 21914 H 2063.2 0.156212 -3.72272 0
M  V30 21915 H 2063.31 -1.54371 -4.53549 0
M  V30 21916 H 2061.68 -0.728474 -2.4406 0
M  V30 21917 H 2062.46 -2.39983 -2.45486 0
M  V30 21918 N 2064.91 1.40216 -0.719531 0
M  V30 21919 C 2066.32 1.83713 -0.33263 0
M  V30 21920 C 2066.67 1.60151 1.1334 0
M  V30 21921 O 2065.79 1.08447 1.87265 0
M  V30 21922 C 2066.39 3.335 -0.596947 0
M  V30 21923 C 2064.95 3.75475 -0.263712 0
M  V30 21924 C 2064.09 2.63387 -0.867341 0
M  V30 21925 H 2067.04 1.29428 -0.918378 0
M  V30 21926 H 2067.07 3.80255 0.136497 0
M  V30 21927 H 2066.58 3.50617 -1.66402 0
M  V30 21928 H 2064.68 3.63951 0.798139 0
M  V30 21929 H 2064.79 4.73421 -0.735465 0
M  V30 21930 H 2063.16 2.52985 -0.295091 0
M  V30 21931 H 2063.94 2.83315 -1.93876 0
M  V30 21932 N 2066.38 0.466004 1.50553 0
M  V30 21933 C 2067.29 -0.33625 2.32178 0
M  V30 21934 C 2068.31 -1.00081 1.42337 0
M  V30 21935 O 2069.49 -0.989904 1.75393 0
M  V30 21936 C 2066.55 -1.40682 3.16875 0
M  V30 21937 C 2065.61 -0.759384 4.2253 0
M  V30 21938 C 2064.84 -1.77894 5.03179 0
M  V30 21939 O 2065.07 -3.00483 4.84836 0
M  V30 21940 O 2064 -1.35358 5.86483 0
M  V30 21941 H 2067.83 0.330908 3.01892 0
M  V30 21942 H 2065.41 0.22795 1.47651 0
M  V30 21943 H 2067.29 -2.02704 3.69444 0
M  V30 21944 H 2065.97 -2.05753 2.49894 0
M  V30 21945 H 2064.88 -0.100338 3.73965 0
M  V30 21946 H 2066.21 -0.151694 4.91966 0
M  V30 21947 N 2067.86 -1.56346 0.198413 0
M  V30 21948 C 2068.81 -2.20589 -0.737791 0
M  V30 21949 C 2069.8 -1.17807 -1.21729 0
M  V30 21950 O 2071.01 -1.35944 -1.1798 0
M  V30 21951 H 2067.38 -0.706982 -0.256282 0
M  V30 21952 H 2069.36 -2.97902 -0.172284 0
M  V30 21953 C 2068.1 -2.88187 -1.94534 0
M  V30 21954 H 2067.43 -3.6702 -1.58545 0
M  V30 21955 H 2068.87 -3.3657 -2.57869 0
M  V30 21956 C 2067.33 -1.89401 -2.7862 0
M  V30 21957 O 2067.86 -1.39638 -3.76649 0
M  V30 21958 N 2066.06 -1.57557 -2.4418 0
M  V30 21959 H 2065.61 -1.98218 -1.64521 0
M  V30 21960 H 2065.57 -0.917179 -3.00724 0
M  V30 21961 N 2069.34 0.0751653 -1.57421 0
M  V30 21962 C 2070.57 0.787972 -1.91308 0
M  V30 21963 C 2070.98 1.7129 -0.794055 0
M  V30 21964 O 2070.34 1.81009 0.23281 0
M  V30 21965 C 2070.39 1.58447 -3.24926 0
M  V30 21966 O 2070.11 0.696727 -4.32524 0
M  V30 21967 C 2071.61 2.39857 -3.72805 0
M  V30 21968 H 2068.83 0.22422 -0.632429 0
M  V30 21969 H 2071.38 0.0464417 -2.04447 0
M  V30 21970 H 2069.53 2.27831 -3.13324 0
M  V30 21971 H 2069.95 1.25038 -5.09378 0
M  V30 21972 H 2071.42 2.91207 -4.68938 0
M  V30 21973 H 2071.9 3.19229 -3.01645 0
M  V30 21974 H 2072.5 1.75636 -3.8734 0
M  V30 21975 N 2070.82 1.53744 0.346476 0
M  V30 21976 C 2072.05 1.74784 1.10717 0
M  V30 21977 C 2072.46 0.485625 1.82448 0
M  V30 21978 O 2071.82 -0.542565 1.74248 0
M  V30 21979 C 2071.87 2.926 2.1229 0
M  V30 21980 O 2071.59 4.13939 1.43477 0
M  V30 21981 C 2073.09 3.25667 3.00758 0
M  V30 21982 H 2070.31 0.58408 0.33029 0
M  V30 21983 H 2072.86 2.00558 0.399573 0
M  V30 21984 H 2071.01 2.69165 2.7862 0
M  V30 21985 H 2071.42 4.80051 2.11308 0
M  V30 21986 H 2072.9 4.11463 3.6797 0
M  V30 21987 H 2073.38 2.41845 3.66617 0
M  V30 21988 H 2073.98 3.51098 2.40022 0
M  V30 21989 N 2072.3 -0.607329 1.45428 0
M  V30 21990 C 2073.54 -1.36363 1.49163 0
M  V30 21991 C 2073.87 -1.94533 0.134827 0
M  V30 21992 O 2073.14 -1.77174 -0.835838 0
M  V30 21993 H 2071.72 -0.506225 0.549314 0
M  V30 21994 H 2074.38 -0.713138 1.81385 0
M  V30 21995 H 2073.47 -2.18292 2.23058 0
M  V30 21996 N 2073.77 -1.32722 -0.849853 0
M  V30 21997 C 2075.02 -1.22908 -1.59927 0
M  V30 21998 C 2075.34 0.206455 -1.94507 0
M  V30 21999 O 2076.54 0.426508 -2.68129 0
M  V30 22000 C 2075 -2.15292 -2.88405 0
M  V30 22001 C 2074.61 -3.63954 -2.6123 0
M  V30 22002 C 2076.35 -2.14325 -3.66422 0
M  V30 22003 C 2074.26 -4.48286 -3.85738 0
M  V30 22004 H 2073.19 -0.456463 -0.600132 0
M  V30 22005 H 2075.84 -1.57715 -0.937993 0
M  V30 22006 H 2074.22 -1.73406 -3.56015 0
M  V30 22007 H 2075.39 -4.14213 -2.01901 0
M  V30 22008 H 2073.71 -3.67101 -1.96535 0
M  V30 22009 H 2076.31 -2.74566 -4.58822 0
M  V30 22010 H 2076.65 -1.13547 -4.00516 0
M  V30 22011 H 2077.18 -2.54517 -3.05722 0
M  V30 22012 H 2073.92 -5.49897 -3.56782 0
M  V30 22013 H 2073.44 -4.02776 -4.44446 0
M  V30 22014 H 2075.12 -4.61531 -4.53429 0
M  V30 22015 N 2075.25 1.06673 -1.16011 0
M  V30 22016 C 2076.48 1.83645 -0.963814 0
M  V30 22017 C 2076.9 1.81793 0.483005 0
M  V30 22018 O 2076.26 1.21592 1.34481 0
M  V30 22019 C 2076.31 3.28326 -1.49113 0
M  V30 22020 O 2075.41 4.06503 -0.694902 0
M  V30 22021 H 2074.75 0.568386 -0.343269 0
M  V30 22022 H 2077.28 1.34523 -1.54158 0
M  V30 22023 H 2077.29 3.7915 -1.50695 0
M  V30 22024 H 2075.97 3.28988 -2.5444 0
M  V30 22025 H 2074.55 3.65295 -0.749278 0
M  V30 22026 N 2076.73 0.957992 1.25141 0
M  V30 22027 C 2077.96 0.631439 1.97554 0
M  V30 22028 C 2078.38 -0.790342 1.7069 0
M  V30 22029 O 2077.74 -1.53495 0.964826 0
M  V30 22030 C 2077.79 0.900403 3.49178 0
M  V30 22031 O 2076.89 -0.01911 4.12396 0
M  V30 22032 H 2076.23 0.23972 0.619217 0
M  V30 22033 H 2078.76 1.2855 1.59173 0
M  V30 22034 H 2078.77 0.828022 3.99509 0
M  V30 22035 H 2077.45 1.93663 3.68059 0
M  V30 22036 H 2076.02 0.105763 3.7275 0
M  V30 22037 N 2078.21 -1.39832 0.726957 0
M  V30 22038 C 2079.44 -2.04978 0.281383 0
M  V30 22039 C 2079.85 -1.54795 -1.08092 0
M  V30 22040 O 2079.21 -0.709375 -1.68149 0
M  V30 22041 C 2079.26 -3.60526 0.265184 0
M  V30 22042 O 2078.98 -4.0886 1.5737 0
M  V30 22043 C 2080.48 -4.4286 -0.197547 0
M  V30 22044 H 2077.7 -0.659374 0.124366 0
M  V30 22045 H 2080.25 -1.7903 0.988352 0
M  V30 22046 H 2078.4 -3.85403 -0.392835 0
M  V30 22047 H 2078.81 -5.03132 1.48183 0
M  V30 22048 H 2080.29 -5.51775 -0.157727 0
M  V30 22049 H 2080.77 -4.21288 -1.24149 0
M  V30 22050 H 2081.37 -4.23114 0.430611 0
M  V30 22051 N 2079.69 -0.473982 -1.50304 0
M  V30 22052 C 2080.94 0.0817089 -2.01534 0
M  V30 22053 C 2081.25 1.40522 -1.36062 0
M  V30 22054 O 2082.45 2.04602 -1.78466 0
M  V30 22055 C 2080.91 0.196125 -3.59365 0
M  V30 22056 C 2080.52 -1.11913 -4.33797 0
M  V30 22057 C 2082.26 0.70362 -4.18628 0
M  V30 22058 C 2080.17 -0.968348 -5.83418 0
M  V30 22059 H 2079.1 0.0343111 -0.753219 0
M  V30 22060 H 2081.75 -0.609316 -1.73088 0
M  V30 22061 H 2080.13 0.950997 -3.84411 0
M  V30 22062 H 2081.31 -1.88518 -4.20473 0
M  V30 22063 H 2079.62 -1.55796 -3.86156 0
M  V30 22064 H 2082.22 0.833506 -5.28164 0
M  V30 22065 H 2082.56 1.69569 -3.802 0
M  V30 22066 H 2083.09 0.00605141 -3.978 0
M  V30 22067 H 2079.83 -1.93387 -6.26324 0
M  V30 22068 H 2079.35 -0.242725 -5.99309 0
M  V30 22069 H 2081.03 -0.636128 -6.43865 0
M  V30 22070 N 2081.16 1.56239 -0.206702 0
M  V30 22071 C 2082.39 2.02736 0.437344 0
M  V30 22072 C 2082.81 1.08577 1.53599 0
M  V30 22073 O 2082.17 0.0712895 1.8116 0
M  V30 22074 C 2082.22 3.47587 0.959974 0
M  V30 22075 O 2081.32 3.56556 2.07223 0
M  V30 22076 H 2080.67 0.656297 0.100845 0
M  V30 22077 H 2083.2 2.02066 -0.320985 0
M  V30 22078 H 2083.21 3.87612 1.27361 0
M  V30 22079 H 2081.88 4.15608 0.15578 0
M  V30 22080 H 2080.46 3.28412 1.76635 0
M  V30 22081 N 2082.64 -0.0668159 1.57458 0
M  V30 22082 C 2083.89 -0.765025 1.87493 0
M  V30 22083 C 2084.22 -1.77326 0.799106 0
M  V30 22084 O 2083.47 -1.9463 -0.204353 0
M  V30 22085 C 2083.77 -1.5042 3.24204 0
M  V30 22086 C 2083.44 -0.635488 4.46399 0
M  V30 22087 C 2082.1 -0.396101 4.79567 0
M  V30 22088 C 2084.45 -0.0334012 5.21189 0
M  V30 22089 C 2081.78 0.454772 5.84935 0
M  V30 22090 C 2084.13 0.804955 6.27458 0
M  V30 22091 C 2082.8 1.05417 6.59123 0
M  V30 22092 H 2082.07 -0.279943 0.686085 0
M  V30 22093 H 2084.71 -0.0256766 1.91483 0
M  V30 22094 H 2083.02 -2.31589 3.16028 0
M  V30 22095 H 2084.71 -2.04932 3.44679 0
M  V30 22096 H 2081.3 -0.832201 4.20443 0
M  V30 22097 H 2085.49 -0.205452 4.95875 0
M  V30 22098 H 2080.74 0.656546 6.07865 0
M  V30 22099 H 2084.92 1.27821 6.84569 0
M  V30 22100 H 2082.55 1.71525 7.40596 0
M  V30 22101 N 2084.12 -1.53926 -0.338317 0
M  V30 22102 C 2085.07 -1.78661 -1.41648 0
M  V30 22103 C 2086.06 -0.642018 -1.47536 0
M  V30 22104 O 2087.25 -0.901572 -1.52318 0
M  V30 22105 C 2084.38 -2.0043 -2.78716 0
M  V30 22106 C 2083.46 -3.2097 -2.77198 0
M  V30 22107 N 2083.85 -4.42332 -2.45308 0
M  V30 22108 C 2082.15 -3.22245 -3.08341 0
M  V30 22109 C 2082.85 -5.24206 -2.52156 0
M  V30 22110 N 2081.83 -4.61043 -2.87994 0
M  V30 22111 H 2085.63 -2.70083 -1.15897 0
M  V30 22112 H 2083.14 -1.52921 -0.546712 0
M  V30 22113 H 2085.14 -2.16287 -3.56407 0
M  V30 22114 H 2083.8 -1.10254 -3.05408 0
M  V30 22115 H 2084.81 -4.69591 -2.18414 0
M  V30 22116 H 2081.49 -2.42053 -3.40171 0
M  V30 22117 H 2082.88 -6.31083 -2.30615 0
M  V30 22118 N 2085.6 0.599608 -1.45748 0
M  V30 22119 C 2086.82 1.38971 -1.53954 0
M  V30 22120 C 2087.25 1.87278 -0.175618 0
M  V30 22121 O 2086.61 1.60602 0.841223 0
M  V30 22122 C 2086.66 2.56482 -2.53474 0
M  V30 22123 O 2085.76 3.57375 -2.05808 0
M  V30 22124 H 2085.1 0.414567 -0.518681 0
M  V30 22125 H 2087.63 0.728972 -1.91173 0
M  V30 22126 H 2087.64 3.03623 -2.72539 0
M  V30 22127 H 2086.32 2.20672 -3.52529 0
M  V30 22128 H 2084.89 3.1683 -1.96656 0
M  V30 22129 N 2087.08 1.33171 0.842803 0
M  V30 22130 C 2088.49 1.1242 1.13287 0
M  V30 22131 C 2088.69 -0.0875106 2.0131 0
M  V30 22132 O 2087.75 -0.768934 2.40507 0
M  V30 22133 C 2089.06 2.40967 1.79876 0
M  V30 22134 C 2090.61 2.46837 1.92459 0
M  V30 22135 C 2091.09 3.75336 2.62463 0
M  V30 22136 N 2092.58 3.76385 2.69979 0
M  V30 22137 C 2093.31 4.72521 3.24825 0
M  V30 22138 N 2092.81 5.7903 3.80389 0
M  V30 22139 N 2094.6 4.60002 3.2304 0
M  V30 22140 H 2086.75 2.10841 0.256882 0
M  V30 22141 H 2089.01 0.931431 0.176468 0
M  V30 22142 H 2088.72 3.29618 1.22656 0
M  V30 22143 H 2088.59 2.52821 2.79931 0
M  V30 22144 H 2090.98 1.58638 2.48833 0
M  V30 22145 H 2091.06 2.38927 0.913649 0
M  V30 22146 H 2090.71 4.63915 2.06749 0
M  V30 22147 H 2090.64 3.80521 3.64021 0
M  V30 22148 H 2093.13 2.99407 2.30573 0
M  V30 22149 H 2093.44 6.48427 4.20431 0
M  V30 22150 H 2091.79 5.8277 3.78688 0
M  V30 22151 H 2094.98 3.75953 2.78886 0
M  V30 22152 H 2095.15 5.35096 3.65482 0
M  V30 22153 N 2088.56 -1.06056 1.16576 0
M  V30 22154 C 2089.78 -1.82592 0.973019 0
M  V30 22155 C 2090.2 -1.82629 -0.478773 0
M  V30 22156 O 2089.56 -1.2472 -1.33233 0
M  V30 22157 C 2089.61 -3.291 1.49585 0
M  V30 22158 O 2089.33 -3.29189 2.89078 0
M  V30 22159 C 2090.83 -4.22357 1.34647 0
M  V30 22160 H 2088.05 -0.575656 0.344763 0
M  V30 22161 H 2090.59 -1.33793 1.5466 0
M  V30 22162 H 2088.75 -3.75202 0.964496 0
M  V30 22163 H 2089.16 -4.2082 3.13066 0
M  V30 22164 H 2090.64 -5.23171 1.76056 0
M  V30 22165 H 2091.11 -4.38226 0.292348 0
M  V30 22166 H 2091.72 -3.82103 1.86755 0
M  V30 22167 N 2090.03 -0.964615 -1.24631 0
M  V30 22168 C 2090.96 -0.511091 -2.27838 0
M  V30 22169 C 2091.94 0.447692 -1.64103 0
M  V30 22170 O 2093.13 0.344485 -1.9112 0
M  V30 22171 C 2090.26 0.202467 -3.46709 0
M  V30 22172 C 2089.21 -0.672032 -4.22691 0
M  V30 22173 C 2088.54 0.172842 -5.34421 0
M  V30 22174 C 2089.84 -1.9551 -4.84327 0
M  V30 22175 H 2091.53 -1.37371 -2.66025 0
M  V30 22176 H 2089.08 -0.661983 -1.27882 0
M  V30 22177 H 2091.03 0.530942 -4.18042 0
M  V30 22178 H 2089.76 1.09942 -3.07539 0
M  V30 22179 H 2088.42 -0.983734 -3.53155 0
M  V30 22180 H 2088.06 1.06985 -4.91491 0
M  V30 22181 H 2087.76 -0.409046 -5.86175 0
M  V30 22182 H 2089.29 0.496057 -6.08582 0
M  V30 22183 H 2090.7 -1.69241 -5.4775 0
M  V30 22184 H 2089.1 -2.48346 -5.46301 0
M  V30 22185 H 2090.17 -2.65197 -4.05954 0
M  V30 22186 N 2091.51 1.39445 -0.734362 0
M  V30 22187 C 2092.46 2.32452 -0.0830804 0
M  V30 22188 C 2093.45 1.53028 0.726556 0
M  V30 22189 O 2094.66 1.68697 0.627813 0
M  V30 22190 H 2091.03 0.751957 -0.00806559 0
M  V30 22191 H 2093.01 2.85008 -0.883901 0
M  V30 22192 C 2091.75 3.38121 0.810522 0
M  V30 22193 H 2091.08 3.99315 0.196919 0
M  V30 22194 H 2092.52 4.0565 1.23385 0
M  V30 22195 C 2090.98 2.75118 1.94453 0
M  V30 22196 O 2091.51 2.62913 3.0371 0
M  V30 22197 N 2089.71 2.33215 1.73376 0
M  V30 22198 H 2089.26 2.43341 0.845144 0
M  V30 22199 H 2089.22 1.914 2.49426 0
M  V30 22200 N 2092.99 0.481946 1.5005 0
M  V30 22201 C 2093.92 -0.296253 2.31613 0
M  V30 22202 C 2094.9 -0.98032 1.3901 0
M  V30 22203 O 2096.09 -0.975402 1.67927 0
M  V30 22204 C 2093.22 -1.37231 3.19037 0
M  V30 22205 C 2092.17 -0.809232 4.2028 0
M  V30 22206 C 2091.5 -1.98439 4.96514 0
M  V30 22207 C 2092.8 0.18685 5.21966 0
M  V30 22208 H 2094.49 0.384509 2.96921 0
M  V30 22209 H 2092.04 0.186362 1.42789 0
M  V30 22210 H 2093.99 -1.92429 3.74899 0
M  V30 22211 H 2092.71 -2.082 2.51636 0
M  V30 22212 H 2091.37 -0.279145 3.65536 0
M  V30 22213 H 2091.02 -2.68131 4.25576 0
M  V30 22214 H 2090.72 -1.6138 5.65005 0
M  V30 22215 H 2092.24 -2.54107 5.55213 0
M  V30 22216 H 2093.66 -0.276326 5.72634 0
M  V30 22217 H 2092.05 0.472282 5.98239 0
M  V30 22218 H 2093.12 1.10915 4.72044 0
M  V30 22219 N 2094.47 -1.56127 0.214985 0
M  V30 22220 C 2095.7 -2.02519 -0.423533 0
M  V30 22221 C 2096.11 -1.0949 -1.5381 0
M  V30 22222 O 2095.47 -0.103303 -1.82207 0
M  V30 22223 C 2095.52 -3.48484 -0.961313 0
M  V30 22224 O 2095.24 -4.37965 0.108806 0
M  V30 22225 C 2096.74 -4.10489 -1.67373 0
M  V30 22226 H 2093.96 -0.662835 -0.104359 0
M  V30 22227 H 2096.5 -2.01828 0.329517 0
M  V30 22228 H 2094.66 -3.49811 -1.66466 0
M  V30 22229 H 2095.07 -5.23673 -0.294413 0
M  V30 22230 H 2096.55 -5.14412 -2.00209 0
M  V30 22231 H 2097.02 -3.55102 -2.58455 0
M  V30 22232 H 2097.63 -4.12992 -1.01575 0
M  V30 22233 N 2095.95 0.0584645 -1.57492 0
M  V30 22234 C 2097.22 0.788828 -1.78988 0
M  V30 22235 C 2097.6 1.95112 -0.805878 0
M  V30 22236 O 2096.95 2.27951 0.158244 0
M  V30 22237 C 2097.16 1.24936 -3.25871 0
M  V30 22238 C 2098.51 1.67732 -3.90066 0
M  V30 22239 O 2099.53 1.34469 -3.29843 0
M  V30 22240 O 2098.39 2.29361 -4.9604 0
M  V30 22241 H 2095.49 0.379032 -0.735027 0
M  V30 22242 H 2098.03 0.0375096 -1.69659 0
M  V30 22243 H 2096.8 0.418302 -3.89058 0
M  V30 22244 H 2096.43 2.06159 -3.39977 0
M  V30 22245 N 2097.42 1.54103 0.330149 0
M  V30 22246 C 2098.67 1.72248 1.07045 0
M  V30 22247 C 2099 0.491265 1.87884 0
M  V30 22248 O 2098.28 -0.511764 1.87647 0
M  V30 22249 C 2098.56 2.99412 2.00061 0
M  V30 22250 C 2098.41 4.3277 1.22596 0
M  V30 22251 C 2099.73 3.22301 2.99683 0
M  V30 22252 H 2096.85 0.626746 0.387761 0
M  V30 22253 H 2099.49 1.86791 0.347722 0
M  V30 22254 H 2097.64 2.87144 2.61688 0
M  V30 22255 H 2099.32 4.56911 0.634799 0
M  V30 22256 H 2097.56 4.30573 0.528135 0
M  V30 22257 H 2098.23 5.17954 1.9086 0
M  V30 22258 H 2100.71 3.33988 2.48176 0
M  V30 22259 H 2099.58 4.12648 3.61956 0
M  V30 22260 H 2099.84 2.39221 3.71787 0
M  V30 22261 N 2098.9 -0.59187 1.46064 0
M  V30 22262 C 2100.15 -1.34657 1.50168 0
M  V30 22263 C 2100.46 -1.94993 0.153981 0
M  V30 22264 O 2101.67 -2.71402 0.0727633 0
M  V30 22265 C 2100.13 -2.44 2.6456 0
M  V30 22266 C 2099.73 -1.90007 4.05711 0
M  V30 22267 C 2101.48 -3.2087 2.77926 0
M  V30 22268 C 2099.39 -2.96925 5.11458 0
M  V30 22269 H 2098.32 -0.506178 0.558838 0
M  V30 22270 H 2100.97 -0.632651 1.72249 0
M  V30 22271 H 2099.35 -3.18149 2.35791 0
M  V30 22272 H 2100.52 -1.22462 4.44229 0
M  V30 22273 H 2098.84 -1.25833 3.96932 0
M  V30 22274 H 2101.43 -4.00647 3.54099 0
M  V30 22275 H 2101.78 -3.72878 1.85115 0
M  V30 22276 H 2102.31 -2.53825 3.06296 0
M  V30 22277 H 2099.05 -2.49815 6.0603 0
M  V30 22278 H 2098.57 -3.62987 4.77494 0
M  V30 22279 H 2100.25 -3.61036 5.369 0
M  V30 22280 N 2100.38 -1.33616 -0.835729 0
M  V30 22281 C 2101.29 -1.26175 -1.9778 0
M  V30 22282 C 2102.31 -0.171736 -1.7315 0
M  V30 22283 O 2103.48 -0.395895 -1.97471 0
M  V30 22284 C 2100.55 -1.00421 -3.31838 0
M  V30 22285 C 2099.61 -2.18454 -3.69563 0
M  V30 22286 C 2098.84 -1.93919 -4.97223 0
M  V30 22287 O 2099.06 -0.891065 -5.63397 0
M  V30 22288 O 2098 -2.80536 -5.32525 0
M  V30 22289 H 2101.82 -2.22227 -2.07 0
M  V30 22290 H 2099.41 -1.13694 -0.969228 0
M  V30 22291 H 2101.29 -0.877873 -4.12155 0
M  V30 22292 H 2099.97 -0.0739914 -3.23615 0
M  V30 22293 H 2098.87 -2.36642 -2.89743 0
M  V30 22294 H 2100.21 -3.09821 -3.82455 0
M  V30 22295 N 2101.86 1.05436 -1.17136 0
M  V30 22296 C 2102.77 2.16633 -0.900413 0
M  V30 22297 C 2103.78 1.7351 0.130523 0
M  V30 22298 O 2104.96 2.01342 -0.0481629 0
M  V30 22299 C 2102.03 3.4421 -0.414754 0
M  V30 22300 C 2101.09 4.01793 -1.51198 0
M  V30 22301 C 2100.32 5.23281 -1.0494 0
M  V30 22302 O 2100.54 5.70317 0.0974405 0
M  V30 22303 O 2099.48 5.73041 -1.8414 0
M  V30 22304 H 2103.3 2.42336 -1.83049 0
M  V30 22305 H 2100.89 1.15137 -0.952042 0
M  V30 22306 H 2102.77 4.21128 -0.151319 0
M  V30 22307 H 2101.44 3.20013 0.487199 0
M  V30 22308 H 2100.35 3.26326 -1.82926 0
M  V30 22309 H 2101.68 4.30304 -2.38955 0
M  V30 22310 N 2103.34 0.971211 1.24118 0
M  V30 22311 C 2104.27 0.523167 2.27564 0
M  V30 22312 C 2105.25 -0.438983 1.64338 0
M  V30 22313 O 2106.43 -0.334345 1.913 0
M  V30 22314 C 2103.56 -0.184078 3.46812 0
M  V30 22315 C 2102.52 0.694439 4.22329 0
M  V30 22316 C 2101.84 -0.144498 5.34505 0
M  V30 22317 C 2103.14 1.98076 4.83284 0
M  V30 22318 H 2104.84 1.3878 2.65293 0
M  V30 22319 H 2102.38 0.668756 1.27529 0
M  V30 22320 H 2104.34 -0.508765 4.18318 0
M  V30 22321 H 2103.06 -1.08309 3.08118 0
M  V30 22322 H 2101.72 1.00245 3.52628 0
M  V30 22323 H 2101.37 -1.04377 4.92051 0
M  V30 22324 H 2101.07 0.440127 5.85949 0
M  V30 22325 H 2102.59 -0.463776 6.08836 0
M  V30 22326 H 2104 1.72143 5.46845 0
M  V30 22327 H 2102.4 2.5124 5.44976 0
M  V30 22328 H 2103.47 2.67346 4.04542 0
M  V30 22329 N 2104.81 -1.39054 0.741747 0
M  V30 22330 C 2105.78 -2.28913 0.114619 0
M  V30 22331 C 2106.78 -1.46629 -0.660038 0
M  V30 22332 O 2107.97 -1.67223 -0.488056 0
M  V30 22333 C 2105.1 -3.3022 -0.846607 0
M  V30 22334 H 2106.29 -2.85875 0.906381 0
M  V30 22335 H 2103.85 -1.47814 0.508001 0
M  V30 22336 H 2104.58 -2.78326 -1.66448 0
M  V30 22337 H 2104.37 -3.90999 -0.293686 0
M  V30 22338 H 2105.86 -3.97443 -1.28176 0
M  V30 22339 N 2106.29 -0.489897 -1.49792 0
M  V30 22340 C 2107.22 0.330983 -2.26798 0
M  V30 22341 C 2108.24 0.940504 -1.32885 0
M  V30 22342 O 2109.43 0.825724 -1.58253 0
M  V30 22343 C 2106.53 1.47994 -3.04879 0
M  V30 22344 C 2105.7 0.979767 -4.26286 0
M  V30 22345 C 2104.76 2.005 -4.86504 0
M  V30 22346 O 2103.78 1.57802 -5.46889 0
M  V30 22347 N 2104.99 3.3346 -4.75168 0
M  V30 22348 H 2107.75 -0.32926 -2.97886 0
M  V30 22349 H 2105.31 -0.321781 -1.5867 0
M  V30 22350 H 2107.3 2.16312 -3.4204 0
M  V30 22351 H 2105.87 2.04453 -2.36469 0
M  V30 22352 H 2105.09 0.121846 -3.94012 0
M  V30 22353 H 2106.38 0.623816 -5.04961 0
M  V30 22354 H 2105.78 3.70846 -4.27188 0
M  V30 22355 H 2104.34 3.97523 -5.16545 0
M  V30 22356 N 2107.77 1.56011 -0.223262 0
M  V30 22357 C 2108.73 2.19108 0.672641 0
M  V30 22358 C 2109.73 1.15344 1.12038 0
M  V30 22359 O 2110.92 1.40567 1.0289 0
M  V30 22360 C 2108.06 2.81576 1.92165 0
M  V30 22361 H 2109.25 2.9965 0.1225 0
M  V30 22362 H 2106.8 1.56278 0.0263484 0
M  V30 22363 H 2107.54 2.04909 2.51362 0
M  V30 22364 H 2107.32 3.57564 1.60906 0
M  V30 22365 H 2108.81 3.29937 2.55991 0
M  V30 22366 N 2109.25 -0.0501116 1.5752 0
M  V30 22367 C 2110.47 -0.761197 1.92926 0
M  V30 22368 C 2110.9 -1.69211 0.821546 0
M  V30 22369 O 2110.26 -1.79908 -0.224247 0
M  V30 22370 C 2110.3 -1.51241 3.27351 0
M  V30 22371 O 2109.41 -2.62445 3.18114 0
M  V30 22372 H 2108.75 -0.206224 0.631164 0
M  V30 22373 H 2111.28 -0.0118709 2.04597 0
M  V30 22374 H 2111.29 -1.88696 3.61743 0
M  V30 22375 H 2109.96 -0.829535 4.07543 0
M  V30 22376 H 2108.54 -2.27688 2.95318 0
M  V30 22377 N 2110.73 -1.54276 -0.321972 0
M  V30 22378 C 2111.95 -1.76523 -1.07923 0
M  V30 22379 C 2112.37 -0.514589 -1.81652 0
M  V30 22380 O 2111.73 0.514775 -1.75089 0
M  V30 22381 C 2111.78 -2.95941 -2.07609 0
M  V30 22382 O 2111.5 -4.1617 -1.36874 0
M  V30 22383 C 2113 -3.30411 -2.95539 0
M  V30 22384 H 2110.22 -0.589261 -0.320956 0
M  V30 22385 H 2112.76 -2.01169 -0.367616 0
M  V30 22386 H 2110.92 -2.73564 -2.74302 0
M  V30 22387 H 2111.33 -4.83352 -2.03644 0
M  V30 22388 H 2112.81 -4.17265 -3.61378 0
M  V30 22389 H 2113.28 -2.47647 -3.62723 0
M  V30 22390 H 2113.89 -3.54872 -2.34405 0
M  V30 22391 N 2112.2 0.584116 -1.46376 0
M  V30 22392 C 2113.14 1.70778 -1.52865 0
M  V30 22393 C 2114.15 1.57366 -0.417122 0
M  V30 22394 O 2115.34 1.64816 -0.685411 0
M  V30 22395 C 2112.44 3.09015 -1.39151 0
M  V30 22396 C 2111.61 3.48443 -2.64397 0
M  V30 22397 C 2110.67 4.65735 -2.44903 0
M  V30 22398 O 2109.7 4.71667 -3.1862 0
M  V30 22399 N 2110.9 5.60523 -1.50978 0
M  V30 22400 H 2113.66 1.65666 -2.49749 0
M  V30 22401 H 2111.22 0.770058 -1.42414 0
M  V30 22402 H 2113.22 3.85272 -1.23884 0
M  V30 22403 H 2111.79 3.08502 -0.50453 0
M  V30 22404 H 2111.01 2.61906 -2.94616 0
M  V30 22405 H 2112.29 3.71552 -3.47601 0
M  V30 22406 H 2111.69 5.58465 -0.90186 0
M  V30 22407 H 2110.25 6.36217 -1.41674 0
M  V30 22408 N 2113.68 1.34058 0.828631 0
M  V30 22409 C 2114.91 1.29156 1.61636 0
M  V30 22410 C 2115.33 -0.135511 1.88313 0
M  V30 22411 O 2114.68 -1.08084 1.47051 0
M  V30 22412 C 2114.73 2.07436 2.96062 0
M  V30 22413 O 2114.46 3.44577 2.70552 0
M  V30 22414 C 2115.96 2.09865 3.90476 0
M  V30 22415 H 2113.18 0.444543 0.502615 0
M  V30 22416 H 2115.72 1.76585 1.0314 0
M  V30 22417 H 2113.88 1.63663 3.51131 0
M  V30 22418 H 2114.29 3.84972 3.56225 0
M  V30 22419 H 2115.76 2.69071 4.8198 0
M  V30 22420 H 2116.24 1.09155 4.2542 0
M  V30 22421 H 2116.85 2.53702 3.41344 0
M  V30 22422 N 2115.16 -1.04814 1.17694 0
M  V30 22423 C 2116.09 -2.1459 0.920505 0
M  V30 22424 C 2117.07 -1.69531 -0.138953 0
M  V30 22425 O 2118.26 -1.94196 0.0120784 0
M  V30 22426 C 2115.39 -3.44537 0.437198 0
M  V30 22427 C 2114.34 -4.03181 1.43628 0
M  V30 22428 C 2113.67 -5.28517 0.810779 0
M  V30 22429 C 2114.97 -4.40226 2.81066 0
M  V30 22430 H 2116.66 -2.363 1.83856 0
M  V30 22431 H 2114.21 -1.13563 0.885411 0
M  V30 22432 H 2116.16 -4.20686 0.245199 0
M  V30 22433 H 2114.88 -3.22492 -0.516401 0
M  V30 22434 H 2113.54 -3.29106 1.61508 0
M  V30 22435 H 2113.19 -5.02777 -0.149773 0
M  V30 22436 H 2112.89 -5.68714 1.47776 0
M  V30 22437 H 2114.42 -6.0735 0.62914 0
M  V30 22438 H 2115.83 -5.07393 2.66881 0
M  V30 22439 H 2114.23 -4.91451 3.44377 0
M  V30 22440 H 2115.3 -3.50396 3.35188 0
M  V30 22441 N 2116.64 -0.977779 -1.23601 0
M  V30 22442 C 2117.59 -0.51555 -2.24968 0
M  V30 22443 C 2118.56 0.4442 -1.6005 0
M  V30 22444 O 2119.74 0.352328 -1.87519 0
M  V30 22445 C 2116.88 0.17842 -3.44638 0
M  V30 22446 C 2115.99 -0.821283 -4.24121 0
M  V30 22447 C 2115.13 -0.102387 -5.31101 0
M  V30 22448 C 2114.17 -1.09148 -6.0229 0
M  V30 22449 N 2113.31 -0.401914 -7.00949 0
M  V30 22450 H 2118.15 -1.38475 -2.63872 0
M  V30 22451 H 2115.68 -0.693946 -1.29703 0
M  V30 22452 H 2117.64 0.597555 -4.12898 0
M  V30 22453 H 2116.27 1.01151 -3.06543 0
M  V30 22454 H 2115.32 -1.35882 -3.55303 0
M  V30 22455 H 2116.63 -1.5751 -4.73278 0
M  V30 22456 H 2115.79 0.374242 -6.05545 0
M  V30 22457 H 2114.53 0.684048 -4.82879 0
M  V30 22458 H 2113.53 -1.57889 -5.26641 0
M  V30 22459 H 2114.76 -1.87853 -6.52601 0
M  V30 22460 H 2112.7 0.365361 -6.54982 0
M  V30 22461 H 2112.62 -1.09443 -7.48036 0
M  V30 22462 H 2113.89 0.0524137 -7.79482 0
M  V30 22463 N 2118.12 1.38658 -0.749111 0
M  V30 22464 C 2119.34 2.0503 -0.312666 0
M  V30 22465 C 2119.77 1.56125 1.04912 0
M  V30 22466 O 2119.13 0.711236 1.66767 0
M  V30 22467 C 2119.17 3.58997 -0.339658 0
M  V30 22468 O 2118.28 4.06956 0.667887 0
M  V30 22469 H 2117.62 0.649228 -0.139282 0
M  V30 22470 H 2120.15 1.7742 -1.01898 0
M  V30 22471 H 2120.16 4.07562 -0.188968 0
M  V30 22472 H 2118.83 3.93951 -1.33325 0
M  V30 22473 H 2117.41 3.69769 0.482177 0
M  V30 22474 N 2119.6 0.497834 1.49531 0
M  V30 22475 C 2120.82 -0.0447105 2.06852 0
M  V30 22476 C 2121.24 -1.31106 1.35855 0
M  V30 22477 O 2120.6 -1.77218 0.435907 0
M  V30 22478 C 2120.65 -0.305505 3.60207 0
M  V30 22479 O 2120.37 0.910643 4.28531 0
M  V30 22480 C 2121.87 -0.892044 4.34232 0
M  V30 22481 H 2119.09 0.0190462 0.67073 0
M  V30 22482 H 2121.63 0.694284 1.92354 0
M  V30 22483 H 2119.79 -0.994475 3.74418 0
M  V30 22484 H 2120.2 0.67155 5.20183 0
M  V30 22485 H 2121.68 -1.02413 5.42416 0
M  V30 22486 H 2122.15 -1.88903 3.965 0
M  V30 22487 H 2122.76 -0.24064 4.24619 0
M  V30 22488 N 2121.07 -1.5589 0.231532 0
M  V30 22489 C 2122.32 -1.97737 -0.397859 0
M  V30 22490 C 2122.64 -1.12252 -1.60184 0
M  V30 22491 O 2123.84 -1.44042 -2.30139 0
M  V30 22492 C 2122.3 -3.518 -0.759238 0
M  V30 22493 C 2121.91 -4.46003 0.422484 0
M  V30 22494 C 2123.65 -4.02338 -1.35368 0
M  V30 22495 C 2121.56 -5.91388 0.0381149 0
M  V30 22496 H 2120.49 -0.738433 -0.152423 0
M  V30 22497 H 2123.14 -1.80521 0.329322 0
M  V30 22498 H 2121.52 -3.64654 -1.54412 0
M  V30 22499 H 2122.69 -4.44902 1.19996 0
M  V30 22500 H 2121.01 -4.05863 0.930821 0
M  V30 22501 H 2123.61 -5.08464 -1.65433 0
M  V30 22502 H 2123.95 -3.48776 -2.2729 0
M  V30 22503 H 2124.48 -3.92747 -0.632021 0
M  V30 22504 H 2121.22 -6.48954 0.924083 0
M  V30 22505 H 2120.74 -5.9566 -0.703473 0
M  V30 22506 H 2122.42 -6.45853 -0.385094 0
M  V30 22507 N 2122.55 0.0417572 -1.57545 0
M  V30 22508 C 2123.51 1.03085 -2.0471 0
M  V30 22509 C 2124.51 1.29808 -0.94903 0
M  V30 22510 O 2125.7 1.25024 -1.21304 0
M  V30 22511 C 2122.84 2.367 -2.45329 0
M  V30 22512 H 2124.03 0.623701 -2.93343 0
M  V30 22513 H 2121.58 0.288275 -1.53619 0
M  V30 22514 H 2122.32 2.82188 -1.59813 0
M  V30 22515 H 2122.1 2.18637 -3.25485 0
M  V30 22516 H 2123.59 3.07737 -2.8229 0
M  V30 22517 N 2124.03 1.54445 0.313786 0
M  V30 22518 C 2125.25 1.77413 1.07421 0
M  V30 22519 C 2125.68 0.525885 1.80599 0
M  V30 22520 O 2125.04 -0.523027 1.73592 0
M  V30 22521 C 2125.09 2.97322 2.04039 0
M  V30 22522 O 2124.19 2.69552 3.12115 0
M  V30 22523 H 2123.53 0.587597 0.309235 0
M  V30 22524 H 2126.06 2.01495 0.355102 0
M  V30 22525 H 2126.07 3.2494 2.46735 0
M  V30 22526 H 2124.75 3.87839 1.5018 0
M  V30 22527 H 2123.32 2.52913 2.74025 0
M  V30 22528 N 2125.51 -0.576345 1.46683 0
M  V30 22529 C 2126.42 -1.71268 1.60326 0
M  V30 22530 C 2127.43 -1.67059 0.486559 0
M  V30 22531 O 2128.61 -1.86852 0.75154 0
M  V30 22532 C 2125.67 -3.07775 1.5961 0
M  V30 22533 C 2124.74 -3.232 2.8256 0
M  V30 22534 C 2123.97 -4.53195 2.81869 0
M  V30 22535 O 2124.19 -5.37478 1.90979 0
M  V30 22536 O 2123.13 -4.72003 3.73493 0
M  V30 22537 H 2126.95 -1.62705 2.56439 0
M  V30 22538 H 2124.54 -0.744135 1.29549 0
M  V30 22539 H 2126.42 -3.89046 1.61929 0
M  V30 22540 H 2125.09 -3.16762 0.666583 0
M  V30 22541 H 2124 -2.41398 2.85793 0
M  V30 22542 H 2125.33 -3.19107 3.74742 0
M  V30 22543 N 2126.99 -1.34495 -0.82151 0
M  V30 22544 C 2128.21 -1.30011 -1.60949 0
M  V30 22545 C 2128.63 0.125523 -1.88382 0
M  V30 22546 O 2127.99 1.07303 -1.47623 0
M  V30 22547 C 2128.04 -2.09003 -2.94957 0
M  V30 22548 O 2127.76 -3.46007 -2.68721 0
M  V30 22549 C 2129.26 -2.11933 -3.89358 0
M  V30 22550 H 2126.48 -0.447203 -0.500251 0
M  V30 22551 H 2129.02 -1.7713 -1.02202 0
M  V30 22552 H 2127.18 -1.65523 -3.50258 0
M  V30 22553 H 2127.59 -3.86856 -3.54179 0
M  V30 22554 H 2129.07 -2.71623 -4.80547 0
M  V30 22555 H 2129.54 -1.11409 -4.24835 0
M  V30 22556 H 2130.15 -2.55508 -3.39993 0
M  V30 22557 N 2128.46 1.04188 -1.18248 0
M  V30 22558 C 2129.69 1.81021 -1.00194 0
M  V30 22559 C 2130.11 1.83367 0.449658 0
M  V30 22560 O 2129.46 1.26824 1.31232 0
M  V30 22561 C 2129.52 3.26678 -1.54802 0
M  V30 22562 O 2129.24 3.24548 -2.94279 0
M  V30 22563 C 2130.74 4.20161 -1.41349 0
M  V30 22564 H 2127.96 0.570098 -0.353877 0
M  V30 22565 H 2130.5 1.31316 -1.56769 0
M  V30 22566 H 2128.66 3.7362 -1.02407 0
M  V30 22567 H 2129.07 4.15787 -3.19721 0
M  V30 22568 H 2130.54 5.20304 -1.84357 0
M  V30 22569 H 2131.02 4.37705 -0.362029 0
M  V30 22570 H 2131.63 3.79083 -1.92811 0
M  V30 22571 N 2129.94 0.98432 1.23081 0
M  V30 22572 C 2130.87 0.547274 2.26996 0
M  V30 22573 C 2131.85 -0.421528 1.64794 0
M  V30 22574 O 2133.04 -0.314036 1.91644 0
M  V30 22575 C 2130.17 -0.147283 3.46988 0
M  V30 22576 C 2129.12 0.739194 4.21568 0
M  V30 22577 C 2128.45 -0.0877981 5.34628 0
M  V30 22578 C 2129.75 2.03191 4.81156 0
M  V30 22579 H 2131.44 1.41586 2.63806 0
M  V30 22580 H 2128.99 0.682245 1.26813 0
M  V30 22581 H 2130.94 -0.464368 4.18834 0
M  V30 22582 H 2129.67 -1.05035 3.09249 0
M  V30 22583 H 2128.32 1.03979 3.51545 0
M  V30 22584 H 2127.97 -0.99152 4.93131 0
M  V30 22585 H 2127.67 0.50225 5.8545 0
M  V30 22586 H 2129.2 -0.399175 6.09294 0
M  V30 22587 H 2130.61 1.77933 5.44989 0
M  V30 22588 H 2129.01 2.57006 5.4228 0
M  V30 22589 H 2130.08 2.71622 4.01684 0
M  V30 22590 N 2131.42 -1.38259 0.756453 0
M  V30 22591 C 2132.65 -2.04861 0.323535 0
M  V30 22592 C 2133.07 -1.56679 -1.04083 0
M  V30 22593 O 2132.43 -0.72007 -1.66387 0
M  V30 22594 C 2132.48 -3.58812 0.358692 0
M  V30 22595 O 2131.58 -4.07304 -0.646296 0
M  V30 22596 H 2130.92 -0.64848 0.142723 0
M  V30 22597 H 2133.45 -1.76877 1.02838 0
M  V30 22598 H 2133.46 -4.07456 0.210579 0
M  V30 22599 H 2132.14 -3.93238 1.35413 0
M  V30 22600 H 2130.71 -3.7002 -0.462561 0
M  V30 22601 N 2132.9 -0.505757 -1.49264 0
M  V30 22602 C 2134.12 0.0358953 -2.07369 0
M  V30 22603 C 2134.55 1.29628 -1.36302 0
M  V30 22604 O 2133.91 1.76338 -0.421242 0
M  V30 22605 C 2133.95 0.267709 -3.59605 0
M  V30 22606 O 2133.06 1.34146 -3.89973 0
M  V30 22607 H 2132.4 -0.0283388 -0.663395 0
M  V30 22608 H 2134.93 -0.70674 -1.92006 0
M  V30 22609 H 2134.94 0.497774 -4.04952 0
M  V30 22610 H 2133.61 -0.653126 -4.1074 0
M  V30 22611 H 2132.19 1.09597 -3.56431 0
M  V30 22612 N 2134.38 1.55765 -0.239796 0
M  V30 22613 C 2135.32 2.2108 0.662746 0
M  V30 22614 C 2136.29 1.17233 1.17668 0
M  V30 22615 O 2137.48 1.45655 1.23245 0
M  V30 22616 C 2134.62 2.90865 1.85719 0
M  V30 22617 C 2133.73 4.0935 1.38044 0
M  V30 22618 C 2132.87 4.6687 2.53389 0
M  V30 22619 C 2131.91 5.77619 2.02541 0
M  V30 22620 N 2131.04 6.29351 3.11225 0
M  V30 22621 H 2135.88 2.97835 0.0990722 0
M  V30 22622 H 2133.42 1.47053 0.0371415 0
M  V30 22623 H 2135.38 3.2952 2.55875 0
M  V30 22624 H 2134.01 2.16596 2.39345 0
M  V30 22625 H 2133.06 3.76057 0.573171 0
M  V30 22626 H 2134.37 4.89322 0.96774 0
M  V30 22627 H 2133.53 5.08062 3.31598 0
M  V30 22628 H 2132.26 3.861 2.97957 0
M  V30 22629 H 2131.27 5.35911 1.22799 0
M  V30 22630 H 2132.49 6.60236 1.5895 0
M  V30 22631 H 2130.44 5.51488 3.55241 0
M  V30 22632 H 2130.36 7.04497 2.74263 0
M  V30 22633 H 2131.63 6.75202 3.89516 0
M  V30 22634 N 2135.85 -0.0334016 1.57565 0
M  V30 22635 C 2137.08 -0.740692 1.93723 0
M  V30 22636 C 2137.5 -1.6833 0.839447 0
M  V30 22637 O 2136.86 -1.80136 -0.205152 0
M  V30 22638 C 2136.91 -1.47761 3.28936 0
M  V30 22639 O 2136.01 -2.59056 3.2088 0
M  V30 22640 H 2135.36 -0.199518 0.633315 0
M  V30 22641 H 2137.89 0.00982998 2.04598 0
M  V30 22642 H 2137.9 -1.84849 3.63724 0
M  V30 22643 H 2136.57 -0.786263 4.084 0
M  V30 22644 H 2135.15 -2.24543 2.97716 0
M  V30 22645 N 2137.33 -1.54609 -0.305591 0
M  V30 22646 C 2138.28 -1.81626 -1.37826 0
M  V30 22647 C 2139.27 -0.673168 -1.46141 0
M  V30 22648 O 2140.46 -0.933678 -1.50371 0
M  V30 22649 C 2137.59 -2.06297 -2.74402 0
M  V30 22650 C 2136.67 -3.26778 -2.70328 0
M  V30 22651 N 2137.06 -4.47436 -2.3587 0
M  V30 22652 C 2135.36 -3.28713 -3.01436 0
M  V30 22653 C 2136.06 -5.29437 -2.4098 0
M  V30 22654 N 2135.04 -4.67048 -2.78149 0
M  V30 22655 H 2138.84 -2.72481 -1.10142 0
M  V30 22656 H 2136.36 -1.54046 -0.514153 0
M  V30 22657 H 2138.35 -2.23798 -3.51739 0
M  V30 22658 H 2137.01 -1.16707 -3.03001 0
M  V30 22659 H 2138.02 -4.74118 -2.08404 0
M  V30 22660 H 2134.7 -2.49214 -3.3496 0
M  V30 22661 H 2136.09 -6.35833 -2.17177 0
M  V30 22662 N 2138.81 0.568558 -1.46987 0
M  V30 22663 C 2139.74 1.69147 -1.54668 0
M  V30 22664 C 2140.76 1.56914 -0.433789 0
M  V30 22665 O 2141.94 1.6408 -0.702853 0
M  V30 22666 C 2139.04 3.07522 -1.4242 0
M  V30 22667 C 2138.22 3.45619 -2.68078 0
M  V30 22668 C 2137.28 4.63111 -2.49829 0
M  V30 22669 O 2136.3 4.68261 -3.23605 0
M  V30 22670 N 2137.5 5.5889 -1.56914 0
M  V30 22671 H 2140.27 1.63008 -2.51492 0
M  V30 22672 H 2137.83 0.75491 -1.43223 0
M  V30 22673 H 2139.82 3.83937 -1.27963 0
M  V30 22674 H 2138.39 3.07949 -0.537222 0
M  V30 22675 H 2137.61 2.58767 -2.97378 0
M  V30 22676 H 2138.9 3.67844 -3.51523 0
M  V30 22677 H 2138.3 5.57477 -0.961042 0
M  V30 22678 H 2136.86 6.34678 -1.48414 0
M  V30 22679 N 2140.29 1.34929 0.814366 0
M  V30 22680 C 2141.51 1.31019 1.60776 0
M  V30 22681 C 2141.94 -0.111347 1.8777 0
M  V30 22682 O 2141.3 -1.07577 1.45935 0
M  V30 22683 C 2141.34 2.11503 2.92059 0
M  V30 22684 O 2140.45 1.49042 3.84526 0
M  V30 22685 H 2139.79 0.449572 0.488652 0
M  V30 22686 H 2142.32 1.77857 1.01133 0
M  V30 22687 H 2142.33 2.23174 3.41552 0
M  V30 22688 H 2141 3.14853 2.71736 0
M  V30 22689 H 2139.58 1.46165 3.4306 0
M  V30 22690 N 2141.77 -1.0356 1.18799 0
M  V30 22691 C 2142.99 -1.80487 1.01153 0
M  V30 22692 C 2143.41 -1.83603 -0.439927 0
M  V30 22693 O 2142.77 -1.27518 -1.30558 0
M  V30 22694 C 2142.82 -3.25853 1.56532 0
M  V30 22695 O 2142.54 -3.22983 2.95996 0
M  V30 22696 C 2144.04 -4.19406 1.43575 0
M  V30 22697 H 2141.26 -0.568214 0.356895 0
M  V30 22698 H 2143.8 -1.30482 1.57463 0
M  V30 22699 H 2141.96 -3.73071 1.04387 0
M  V30 22700 H 2142.37 -4.14085 3.21922 0
M  V30 22701 H 2143.85 -5.19319 1.87114 0
M  V30 22702 H 2144.32 -4.37507 0.385237 0
M  V30 22703 H 2144.93 -3.78055 1.94818 0
M  V30 22704 N 2143.25 -0.990834 -1.22557 0
M  V30 22705 C 2144.47 -0.683901 -1.9527 0
M  V30 22706 C 2144.89 0.751046 -1.73219 0
M  V30 22707 O 2144.25 1.50657 -1.02999 0
M  V30 22708 C 2144.3 -0.977753 -3.48026 0
M  V30 22709 O 2144.02 -2.35631 -3.69337 0
M  V30 22710 C 2145.52 -0.688232 -4.37925 0
M  V30 22711 H 2142.74 -0.25317 -0.621406 0
M  V30 22712 H 2145.28 -1.32505 -1.55765 0
M  V30 22713 H 2143.44 -0.382447 -3.85508 0
M  V30 22714 H 2143.85 -2.45399 -4.63551 0
M  V30 22715 H 2145.33 -0.944126 -5.43866 0
M  V30 22716 H 2145.8 0.377761 -4.37572 0
M  V30 22717 H 2146.41 -1.26449 -4.06067 0
M  V30 22718 N 2144.72 1.37856 -0.763775 0
M  V30 22719 C 2145.95 2.0416 -0.335631 0
M  V30 22720 C 2146.37 1.57607 1.0395 0
M  V30 22721 O 2145.72 0.753707 1.66209 0
M  V30 22722 C 2145.77 3.59696 -0.360678 0
M  V30 22723 O 2145.5 4.04543 -1.68155 0
M  V30 22724 C 2147 4.43228 0.080061 0
M  V30 22725 H 2144.22 0.655845 -0.141805 0
M  V30 22726 H 2146.76 1.76347 -1.03547 0
M  V30 22727 H 2144.92 3.86309 0.290514 0
M  V30 22728 H 2145.33 4.99027 -1.6147 0
M  V30 22729 H 2146.8 5.51999 0.0113779 0
M  V30 22730 H 2147.28 4.24432 1.12936 0
M  V30 22731 H 2147.89 4.21824 -0.542641 0
M  V30 22732 N 2146.2 0.513665 1.48994 0
M  V30 22733 C 2147.62 0.170439 1.58687 0
M  V30 22734 C 2147.82 -1.32564 1.51754 0
M  V30 22735 O 2146.87 -2.10262 1.39807 0
M  V30 22736 C 2148.19 0.758488 2.90977 0
M  V30 22737 C 2149.73 0.725739 3.0447 0
M  V30 22738 C 2150.21 1.29207 4.39397 0
M  V30 22739 N 2151.7 1.25333 4.45922 0
M  V30 22740 C 2152.44 1.66159 5.48798 0
M  V30 22741 N 2151.93 2.14638 6.58713 0
M  V30 22742 N 2153.72 1.57496 5.39584 0
M  V30 22743 H 2145.88 1.48619 1.51744 0
M  V30 22744 H 2148.14 0.617216 0.719548 0
M  V30 22745 H 2147.84 1.8082 3.01657 0
M  V30 22746 H 2147.72 0.226166 3.76521 0
M  V30 22747 H 2150.11 -0.315169 2.93412 0
M  V30 22748 H 2150.19 1.29535 2.20577 0
M  V30 22749 H 2149.83 2.33183 4.51207 0
M  V30 22750 H 2149.76 0.69829 5.2195 0
M  V30 22751 H 2152.25 0.89826 3.67069 0
M  V30 22752 H 2152.56 2.43827 7.33327 0
M  V30 22753 H 2150.91 2.18621 6.5972 0
M  V30 22754 H 2154.1 1.19432 4.52608 0
M  V30 22755 H 2154.27 1.89636 6.19631 0
M  V30 22756 N 2147.68 -1.55636 0.248053 0
M  V30 22757 C 2148.63 -2.21428 -0.651012 0
M  V30 22758 C 2149.6 -1.17855 -1.17045 0
M  V30 22759 O 2150.78 -1.46306 -1.22471 0
M  V30 22760 C 2147.92 -2.91846 -1.84174 0
M  V30 22761 C 2147.03 -4.10077 -1.35872 0
M  V30 22762 C 2146.17 -4.68207 -2.50909 0
M  V30 22763 C 2145.21 -5.78685 -1.99475 0
M  V30 22764 N 2144.35 -6.30993 -3.07883 0
M  V30 22765 H 2149.19 -2.97884 -0.0832758 0
M  V30 22766 H 2146.72 -1.47071 -0.0293424 0
M  V30 22767 H 2148.68 -3.30873 -2.54124 0
M  V30 22768 H 2147.31 -2.17862 -2.38193 0
M  V30 22769 H 2146.36 -3.76356 -0.553219 0
M  V30 22770 H 2147.67 -4.89829 -0.941776 0
M  V30 22771 H 2146.83 -5.09814 -3.28899 0
M  V30 22772 H 2145.57 -3.87674 -2.95905 0
M  V30 22773 H 2144.57 -5.36555 -1.19955 0
M  V30 22774 H 2145.8 -6.6107 -1.55447 0
M  V30 22775 H 2143.74 -5.53365 -3.52312 0
M  V30 22776 H 2143.66 -7.05941 -2.70523 0
M  V30 22777 H 2144.93 -6.77258 -3.8593 0
M  V30 22778 N 2149.16 0.0250451 -1.5758 0
M  V30 22779 C 2150.12 1.00908 -2.05791 0
M  V30 22780 C 2151.12 1.28794 -0.962744 0
M  V30 22781 O 2152.31 1.2373 -1.22623 0
M  V30 22782 C 2149.44 2.34084 -2.47825 0
M  V30 22783 H 2150.64 0.592553 -2.93988 0
M  V30 22784 H 2148.19 0.271965 -1.53916 0
M  V30 22785 H 2148.92 2.80477 -1.62797 0
M  V30 22786 H 2148.71 2.15173 -3.27785 0
M  V30 22787 H 2150.2 3.04725 -2.85539 0
M  V30 22788 N 2150.64 1.54769 0.297388 0
M  V30 22789 C 2151.88 1.7343 1.0298 0
M  V30 22790 C 2152.2 0.529189 1.88305 0
M  V30 22791 O 2153.4 0.597687 2.64839 0
M  V30 22792 C 2151.86 3.06854 1.88065 0
M  V30 22793 C 2151.47 4.34856 1.07724 0
M  V30 22794 C 2153.21 3.34873 2.60883 0
M  V30 22795 C 2151.12 5.59329 1.92107 0
M  V30 22796 H 2150.05 0.646388 0.388199 0
M  V30 22797 H 2152.7 1.81248 0.286615 0
M  V30 22798 H 2151.08 2.93011 2.66385 0
M  V30 22799 H 2152.26 4.59544 0.339927 0
M  V30 22800 H 2150.57 4.13799 0.464715 0
M  V30 22801 H 2153.17 4.25071 3.24374 0
M  V30 22802 H 2153.51 2.5391 3.29902 0
M  V30 22803 H 2154.04 3.49704 1.8961 0
M  V30 22804 H 2150.78 6.4297 1.27551 0
M  V30 22805 H 2150.3 5.3882 2.63501 0
M  V30 22806 H 2151.98 5.96721 2.50067 0
M  V30 22807 N 2152.11 -0.560755 1.47286 0
M  V30 22808 C 2153.36 -1.31441 1.52991 0
M  V30 22809 C 2153.68 -1.94622 0.195307 0
M  V30 22810 O 2154.88 -2.71187 0.130315 0
M  V30 22811 C 2153.34 -2.38334 2.69676 0
M  V30 22812 C 2152.95 -1.81358 4.0965 0
M  V30 22813 C 2154.69 -3.14902 2.8467 0
M  V30 22814 C 2152.6 -2.8601 5.17641 0
M  V30 22815 H 2151.53 -0.49421 0.569449 0
M  V30 22816 H 2154.18 -0.595972 1.73552 0
M  V30 22817 H 2152.56 -3.13075 2.42487 0
M  V30 22818 H 2153.73 -1.13012 4.46727 0
M  V30 22819 H 2152.05 -1.17385 3.99512 0
M  V30 22820 H 2154.65 -3.93045 3.62518 0
M  V30 22821 H 2154.99 -3.68868 1.92983 0
M  V30 22822 H 2155.52 -2.47271 3.11612 0
M  V30 22823 H 2152.26 -2.36904 6.11193 0
M  V30 22824 H 2151.78 -3.52777 4.85086 0
M  V30 22825 H 2153.46 -3.49566 5.44438 0
M  V30 22826 N 2153.59 -1.35359 -0.807199 0
M  V30 22827 C 2155.01 -1.15384 -1.10266 0
M  V30 22828 C 2155.21 0.0341061 -2.01471 0
M  V30 22829 O 2154.26 0.704898 -2.42461 0
M  V30 22830 C 2155.58 -2.45652 -1.73423 0
M  V30 22831 C 2157.12 -2.51853 -1.85847 0
M  V30 22832 C 2157.6 -3.82163 -2.5242 0
M  V30 22833 N 2159.09 -3.83411 -2.59905 0
M  V30 22834 C 2159.83 -4.80967 -3.12183 0
M  V30 22835 N 2159.32 -5.88912 -3.64903 0
M  V30 22836 N 2161.11 -4.68405 -3.1073 0
M  V30 22837 H 2153.27 -2.11448 -0.200891 0
M  V30 22838 H 2155.53 -0.935782 -0.151711 0
M  V30 22839 H 2155.23 -3.32755 -1.13874 0
M  V30 22840 H 2155.11 -2.60154 -2.73129 0
M  V30 22841 H 2157.5 -1.6518 -2.4454 0
M  V30 22842 H 2157.58 -2.41265 -0.84998 0
M  V30 22843 H 2157.22 -4.69234 -1.94376 0
M  V30 22844 H 2157.15 -3.90039 -3.53804 0
M  V30 22845 H 2159.64 -3.05415 -2.22553 0
M  V30 22846 H 2159.95 -6.59346 -4.03091 0
M  V30 22847 H 2158.3 -5.92605 -3.63104 0
M  V30 22848 H 2161.49 -3.83215 -2.6882 0
M  V30 22849 H 2161.66 -5.44598 -3.51166 0
M  V30 22850 N 2155.07 1.02928 -1.19346 0
M  V30 22851 C 2156.02 2.09544 -0.898634 0
M  V30 22852 C 2157 1.60321 0.136393 0
M  V30 22853 O 2158.2 1.76865 -0.0692414 0
M  V30 22854 C 2155.32 3.40486 -0.438666 0
M  V30 22855 C 2154.41 3.96444 -1.50641 0
M  V30 22856 N 2154.8 4.26071 -2.72575 0
M  V30 22857 C 2153.1 4.2445 -1.3696 0
M  V30 22858 C 2153.8 4.71011 -3.41355 0
M  V30 22859 N 2152.78 4.7252 -2.68749 0
M  V30 22860 H 2156.58 2.30342 -1.82538 0
M  V30 22861 H 2154.09 1.20785 -1.08557 0
M  V30 22862 H 2156.09 4.16376 -0.208902 0
M  V30 22863 H 2154.75 3.21109 0.481599 0
M  V30 22864 H 2155.76 4.15365 -3.09341 0
M  V30 22865 H 2152.44 4.14339 -0.512767 0
M  V30 22866 H 2153.83 5.02859 -4.45626 0
M  V30 22867 N 2156.55 0.997319 1.2203 0
M  V30 22868 C 2157.77 0.69397 1.95445 0
M  V30 22869 C 2158.2 -0.735638 1.73118 0
M  V30 22870 O 2157.56 -1.50348 1.01317 0
M  V30 22871 C 2157.6 1.01104 3.46136 0
M  V30 22872 O 2156.71 0.1121 4.12248 0
M  V30 22873 H 2156.05 0.259299 0.611277 0
M  V30 22874 H 2158.58 1.33549 1.55003 0
M  V30 22875 H 2158.59 0.954704 3.96673 0
M  V30 22876 H 2157.26 2.05274 3.61712 0
M  V30 22877 H 2155.84 0.224297 3.72225 0
M  V30 22878 N 2158.03 -1.37449 0.771075 0
M  V30 22879 C 2159.25 -2.03979 0.346453 0
M  V30 22880 C 2159.67 -1.58156 -1.03113 0
M  V30 22881 O 2159.03 -0.762511 -1.65807 0
M  V30 22882 C 2159.08 -3.595 0.379748 0
M  V30 22883 O 2158.8 -4.03646 1.70298 0
M  V30 22884 C 2160.3 -4.43264 -0.0565544 0
M  V30 22885 H 2157.52 -0.655084 0.145281 0
M  V30 22886 H 2160.06 -1.75795 1.04481 0
M  V30 22887 H 2158.22 -3.86458 -0.270023 0
M  V30 22888 H 2158.63 -4.98163 1.64115 0
M  V30 22889 H 2160.11 -5.51997 0.0178961 0
M  V30 22890 H 2160.58 -4.25025 -1.10683 0
M  V30 22891 H 2161.19 -4.2153 0.565003 0
M  V30 22892 N 2159.5 -0.52156 -1.4872 0
M  V30 22893 C 2160.75 0.0175509 -2.01692 0
M  V30 22894 C 2161.07 1.36122 -1.40464 0
M  V30 22895 O 2162.27 1.98821 -1.84885 0
M  V30 22896 C 2160.73 0.0816961 -3.59807 0
M  V30 22897 C 2160.34 -1.25657 -4.30017 0
M  V30 22898 C 2162.08 0.570081 -4.20655 0
M  V30 22899 C 2159.99 -1.15347 -5.80042 0
M  V30 22900 H 2158.92 0.0103307 -0.753929 0
M  V30 22901 H 2161.57 -0.664075 -1.71062 0
M  V30 22902 H 2159.95 0.828218 -3.87242 0
M  V30 22903 H 2161.12 -2.018 -4.14263 0
M  V30 22904 H 2159.44 -1.68002 -3.81004 0
M  V30 22905 H 2162.04 0.665053 -5.30548 0
M  V30 22906 H 2162.38 1.57387 -3.85402 0
M  V30 22907 H 2162.91 -0.120509 -3.97617 0
M  V30 22908 H 2159.65 -2.13215 -6.19854 0
M  V30 22909 H 2159.17 -0.433268 -5.98233 0
M  V30 22910 H 2160.85 -0.840647 -6.41515 0
M  V30 22911 N 2160.98 1.55502 -0.256304 0
M  V30 22912 C 2162.39 1.85085 0.245072 0
M  V30 22913 C 2162.74 1.17822 1.56883 0
M  V30 22914 O 2161.87 0.459889 2.11457 0
M  V30 22915 C 2162.46 3.35779 0.451444 0
M  V30 22916 C 2161.02 3.65554 0.897072 0
M  V30 22917 C 2160.17 2.77293 -0.0203944 0
M  V30 22918 H 2163.12 1.51311 -0.478616 0
M  V30 22919 H 2163.14 3.57867 1.29273 0
M  V30 22920 H 2162.65 3.84706 -0.51217 0
M  V30 22921 H 2160.76 3.22112 1.87282 0
M  V30 22922 H 2160.87 4.73234 0.747422 0
M  V30 22923 H 2159.23 2.4989 0.492637 0
M  V30 22924 H 2160.02 3.29028 -0.979551 0
M  V30 22925 N 2162.46 -0.0166879 1.57591 0
M  V30 22926 C 2163.87 -0.561696 1.7805 0
M  V30 22927 C 2164.22 -1.74907 0.888926 0
M  V30 22928 O 2163.35 -2.16225 0.0869853 0
M  V30 22929 C 2163.94 -1.02576 3.22899 0
M  V30 22930 C 2162.5 -1.51619 3.44512 0
M  V30 22931 C 2161.65 -0.459817 2.73461 0
M  V30 22932 H 2164.6 0.209523 1.57311 0
M  V30 22933 H 2164.62 -1.89257 3.30094 0
M  V30 22934 H 2164.13 -0.16136 3.87764 0
M  V30 22935 H 2162.23 -2.40203 2.84839 0
M  V30 22936 H 2162.35 -1.55516 4.53157 0
M  V30 22937 H 2160.71 -0.917683 2.37594 0
M  V30 22938 H 2161.49 0.395327 3.41016 0
M  V30 22939 N 2163.94 -1.54924 -0.289176 0
M  V30 22940 C 2165.19 -1.74766 -1.02289 0
M  V30 22941 C 2165.51 -0.539873 -1.86857 0
M  V30 22942 O 2164.77 0.477978 -1.89773 0
M  V30 22943 C 2165.07 -2.99629 -1.94826 0
M  V30 22944 C 2164.73 -4.32897 -1.26139 0
M  V30 22945 C 2163.4 -4.69121 -1.0714 0
M  V30 22946 C 2165.75 -5.15461 -0.771309 0
M  V30 22947 C 2163.08 -5.85479 -0.37835 0
M  V30 22948 C 2165.43 -6.32533 -0.0919302 0
M  V30 22949 C 2164.09 -6.67409 0.109915 0
M  V30 22950 H 2163.36 -0.639515 -0.374301 0
M  V30 22951 H 2166.01 -1.89188 -0.296646 0
M  V30 22952 H 2164.31 -2.80038 -2.74018 0
M  V30 22953 H 2166.01 -3.12176 -2.51688 0
M  V30 22954 H 2162.6 -4.04416 -1.41935 0
M  V30 22955 H 2166.78 -4.87965 -0.905767 0
M  V30 22956 H 2162.04 -6.11035 -0.211091 0
M  V30 22957 H 2166.21 -6.95772 0.295654 0
M  V30 22958 H 2163.84 -7.57425 0.648932 0
M  V30 22959 N 2165.42 0.552936 -1.47582 0
M  V30 22960 C 2166.35 1.66928 -1.6327 0
M  V30 22961 C 2167.33 1.63127 -0.482035 0
M  V30 22962 O 2168.51 1.80682 -0.71188 0
M  V30 22963 C 2165.64 3.0556 -1.65076 0
M  V30 22964 C 2164.6 3.2421 -2.79413 0
M  V30 22965 C 2163.92 4.63672 -2.66294 0
M  V30 22966 C 2165.22 3.09176 -4.20961 0
M  V30 22967 H 2166.92 1.54055 -2.56725 0
M  V30 22968 H 2164.46 0.739709 -1.23549 0
M  V30 22969 H 2166.42 3.83508 -1.74642 0
M  V30 22970 H 2165.14 3.19403 -0.681852 0
M  V30 22971 H 2163.8 2.48673 -2.69365 0
M  V30 22972 H 2163.45 4.7432 -1.67422 0
M  V30 22973 H 2163.15 4.77099 -3.43002 0
M  V30 22974 H 2164.67 5.43749 -2.77795 0
M  V30 22975 H 2166.08 3.76936 -4.31963 0
M  V30 22976 H 2164.48 3.3411 -4.98488 0
M  V30 22977 H 2165.55 2.05869 -4.39028 0
M  V30 22978 N 2166.89 1.35785 0.800009 0
M  V30 22979 C 2168.12 1.32717 1.59377 0
M  V30 22980 C 2168.54 -0.0914251 1.87878 0
M  V30 22981 O 2167.9 -1.06023 1.47068 0
M  V30 22982 C 2167.95 2.14589 2.898 0
M  V30 22983 O 2167.05 1.53112 3.82924 0
M  V30 22984 H 2166.4 0.45473 0.483856 0
M  V30 22985 H 2168.93 1.7892 0.992412 0
M  V30 22986 H 2168.94 2.26784 3.39165 0
M  V30 22987 H 2167.61 3.17717 2.68382 0
M  V30 22988 H 2166.19 1.49795 3.41491 0
M  V30 22989 N 2168.37 -1.02294 1.19891 0
M  V30 22990 C 2169.6 -1.79941 1.03131 0
M  V30 22991 C 2170.02 -1.8346 -0.415201 0
M  V30 22992 O 2169.38 -1.26499 -1.29876 0
M  V30 22993 C 2169.43 -3.22565 1.61196 0
M  V30 22994 O 2168.53 -4.03644 0.845295 0
M  V30 22995 H 2167.87 -0.555254 0.364128 0
M  V30 22996 H 2170.4 -1.28709 1.59045 0
M  V30 22997 H 2170.41 -3.73296 1.64663 0
M  V30 22998 H 2169.09 -3.19318 2.66474 0
M  V30 22999 H 2167.67 -3.62262 0.884338 0
M  V30 23000 N 2169.85 -1.00378 -1.21499 0
M  V30 23001 C 2171.08 -0.704325 -1.95074 0
M  V30 23002 C 2171.5 0.726447 -1.73506 0
M  V30 23003 O 2170.86 1.49809 -1.02113 0
M  V30 23004 C 2170.91 -1.02938 -3.45595 0
M  V30 23005 O 2170.01 -0.133961 -4.12182 0
M  V30 23006 H 2169.35 -0.262537 -0.609894 0
M  V30 23007 H 2171.88 -1.34369 -1.54292 0
M  V30 23008 H 2171.89 -0.975727 -3.96161 0
M  V30 23009 H 2170.57 -2.0719 -3.60618 0
M  V30 23010 H 2169.14 -0.244034 -3.72101 0
M  V30 23011 N 2171.33 1.37038 -0.778354 0
M  V30 23012 C 2172.29 2.28529 -0.175271 0
M  V30 23013 C 2173.29 1.48328 0.62093 0
M  V30 23014 O 2174.48 1.68459 0.443548 0
M  V30 23015 C 2171.61 3.32349 0.758757 0
M  V30 23016 H 2172.81 2.83372 -0.981858 0
M  V30 23017 H 2170.36 1.46415 -0.547012 0
M  V30 23018 H 2171.09 2.82642 1.5901 0
M  V30 23019 H 2170.88 3.9164 0.189916 0
M  V30 23020 H 2172.37 4.00701 1.17594 0
M  V30 23021 N 2172.81 0.529439 1.48441 0
M  V30 23022 C 2174.04 -0.000824174 2.069 0
M  V30 23023 C 2174.45 -1.28195 1.38605 0
M  V30 23024 O 2173.81 -1.76253 0.4734 0
M  V30 23025 C 2173.86 -0.229032 3.60774 0
M  V30 23026 O 2173.58 1.00134 4.26503 0
M  V30 23027 C 2175.08 -0.799736 4.36027 0
M  V30 23028 H 2172.3 0.0332691 0.670175 0
M  V30 23029 H 2174.84 0.734929 1.90838 0
M  V30 23030 H 2173 -0.914832 3.76443 0
M  V30 23031 H 2173.41 0.781737 5.18642 0
M  V30 23032 H 2174.89 -0.908842 5.44467 0
M  V30 23033 H 2175.36 -1.8045 4.00418 0
M  V30 23034 H 2175.97 -0.150518 4.25034 0
M  V30 23035 N 2174.29 -1.55364 0.264547 0
M  V30 23036 C 2175.22 -2.25081 -0.621337 0
M  V30 23037 C 2176.2 -1.23722 -1.16734 0
M  V30 23038 O 2177.38 -1.52418 -1.20343 0
M  V30 23039 C 2174.51 -2.96382 -1.81038 0
M  V30 23040 C 2173.47 -4.0458 -1.39638 0
M  V30 23041 C 2172.79 -4.63399 -2.66768 0
M  V30 23042 C 2174.09 -5.1935 -0.554378 0
M  V30 23043 H 2175.79 -2.99373 -0.0399448 0
M  V30 23044 H 2173.33 -1.43989 -0.0177721 0
M  V30 23045 H 2175.28 -3.43862 -2.43592 0
M  V30 23046 H 2174.01 -2.19608 -2.41744 0
M  V30 23047 H 2172.67 -3.57896 -0.794097 0
M  V30 23048 H 2172.32 -3.83305 -3.25709 0
M  V30 23049 H 2172.02 -5.36449 -2.39784 0
M  V30 23050 H 2173.54 -5.13622 -3.30189 0
M  V30 23051 H 2174.95 -5.62946 -1.08465 0
M  V30 23052 H 2173.35 -5.98897 -0.379861 0
M  V30 23053 H 2174.42 -4.82996 0.42934 0
M  V30 23054 N 2175.76 0.00833021 -1.57598 0
M  V30 23055 C 2176.7 1.0361 -2.03323 0
M  V30 23056 C 2177.67 1.33969 -0.921475 0
M  V30 23057 O 2178.86 1.46274 -1.18895 0
M  V30 23058 C 2175.99 2.36579 -2.4238 0
M  V30 23059 C 2175.03 2.21938 -3.64205 0
M  V30 23060 S 2175.86 1.55325 -5.12479 0
M  V30 23061 C 2177.02 2.89741 -5.54798 0
M  V30 23062 H 2177.25 0.646724 -2.90181 0
M  V30 23063 H 2174.79 0.218949 -1.5284 0
M  V30 23064 H 2176.74 3.13037 -2.65552 0
M  V30 23065 H 2175.41 2.72658 -1.55937 0
M  V30 23066 H 2174.6 3.20148 -3.89257 0
M  V30 23067 H 2174.2 1.53624 -3.40992 0
M  V30 23068 H 2176.49 3.86052 -5.56749 0
M  V30 23069 H 2177.44 2.69399 -6.54851 0
M  V30 23070 H 2177.84 2.93267 -4.82343 0
M  V30 23071 N 2177.24 1.55075 0.280956 0
M  V30 23072 C 2178.65 1.66097 0.852571 0
M  V30 23073 C 2179 0.582747 1.87346 0
M  V30 23074 O 2178.13 -0.277166 2.14618 0
M  V30 23075 C 2178.72 3.01102 1.55317 0
M  V30 23076 C 2177.28 3.14177 2.07292 0
M  V30 23077 C 2176.43 2.61864 0.912278 0
M  V30 23078 H 2179.38 1.58596 0.0574834 0
M  V30 23079 H 2179.4 2.93646 2.41976 0
M  V30 23080 H 2178.91 3.79555 0.809903 0
M  V30 23081 H 2177.01 2.40482 2.84604 0
M  V30 23082 H 2177.13 4.20627 2.29369 0
M  V30 23083 H 2175.49 2.1882 1.30345 0
M  V30 23084 H 2176.27 3.42814 0.18265 0
M  V30 23085 N 2178.72 -0.545102 1.47873 0
M  V30 23086 C 2179.97 -1.30364 1.55348 0
M  V30 23087 C 2180.3 -1.92948 0.220182 0
M  V30 23088 O 2179.57 -1.78506 -0.772398 0
M  V30 23089 C 2179.86 -2.40454 2.68055 0
M  V30 23090 C 2179.71 -1.8266 4.11042 0
M  V30 23091 C 2181.03 -3.42314 2.76603 0
M  V30 23092 H 2178.15 -0.472628 0.565502 0
M  V30 23093 H 2180.79 -0.608798 1.79982 0
M  V30 23094 H 2178.94 -2.99722 2.47182 0
M  V30 23095 H 2180.61 -1.2756 4.43313 0
M  V30 23096 H 2178.85 -1.1327 4.18751 0
M  V30 23097 H 2179.53 -2.62302 4.85697 0
M  V30 23098 H 2182 -2.92981 2.95468 0
M  V30 23099 H 2180.88 -4.16757 3.57218 0
M  V30 23100 H 2181.14 -4.01923 1.84147 0
M  V30 23101 N 2180.2 -1.36208 -0.792797 0
M  V30 23102 C 2181.61 -1.27081 -1.36774 0
M  V30 23103 C 2181.96 0.0908481 -1.9599 0
M  V30 23104 O 2181.08 0.992221 -1.92312 0
M  V30 23105 C 2181.68 -2.30115 -2.48662 0
M  V30 23106 C 2180.24 -2.24688 -3.01981 0
M  V30 23107 C 2179.39 -2.15076 -1.75035 0
M  V30 23108 H 2182.34 -1.47135 -0.594713 0
M  V30 23109 H 2182.36 -1.93562 -3.27588 0
M  V30 23110 H 2181.87 -3.29207 -2.05534 0
M  V30 23111 H 2179.97 -1.29051 -3.49538 0
M  V30 23112 H 2180.08 -3.17234 -3.59025 0
M  V30 23113 H 2178.45 -1.61276 -1.97135 0
M  V30 23114 H 2179.23 -3.16051 -1.3404 0
M  V30 23115 N 2181.68 1.01656 -1.20431 0
M  V30 23116 C 2182.92 1.74663 -1.00874 0
M  V30 23117 C 2183.24 1.9012 0.459746 0
M  V30 23118 O 2184.44 2.6022 0.774445 0
M  V30 23119 C 2182.9 3.14147 -1.75612 0
M  V30 23120 C 2182.51 3.06703 -3.26554 0
M  V30 23121 C 2184.25 3.91364 -1.64422 0
M  V30 23122 C 2182.16 4.41194 -3.93829 0
M  V30 23123 H 2181.09 0.654809 -0.37382 0
M  V30 23124 H 2183.74 1.13672 -1.44052 0
M  V30 23125 H 2182.12 3.7568 -1.25221 0
M  V30 23126 H 2183.3 2.54477 -3.84159 0
M  V30 23127 H 2181.61 2.42979 -3.38157 0
M  V30 23128 H 2184.21 4.90866 -2.12026 0
M  V30 23129 H 2184.55 4.11947 -0.600434 0
M  V30 23130 H 2185.08 3.36459 -2.12227 0
M  V30 23131 H 2181.82 4.25814 -4.9836 0
M  V30 23132 H 2181.34 4.93427 -3.41013 0
M  V30 23133 H 2183.02 5.10038 -3.98084 0
M  V30 23134 N 2183.15 1.01021 1.20965 0
M  V30 23135 C 2184.38 0.714661 1.94698 0
M  V30 23136 C 2184.8 -0.717235 1.73889 0
M  V30 23137 O 2184.16 -1.49265 1.02906 0
M  V30 23138 C 2184.21 1.04769 3.45045 0
M  V30 23139 O 2183.31 0.155818 4.12106 0
M  V30 23140 H 2182.65 0.265768 0.608493 0
M  V30 23141 H 2185.18 1.35186 1.53577 0
M  V30 23142 H 2185.19 0.996722 3.95638 0
M  V30 23143 H 2183.87 2.09099 3.59514 0
M  V30 23144 H 2182.45 0.263764 3.71966 0
M  V30 23145 N 2184.63 -1.36623 0.78561 0
M  V30 23146 C 2186.04 -1.81917 0.419903 0
M  V30 23147 C 2186.39 -1.65376 -1.0557 0
M  V30 23148 O 2185.52 -1.17258 -1.81878 0
M  V30 23149 C 2186.11 -3.30272 0.755384 0
M  V30 23150 C 2184.67 -3.73789 0.442556 0
M  V30 23151 C 2183.82 -2.58948 0.992018 0
M  V30 23152 H 2186.77 -1.24899 0.979084 0
M  V30 23153 H 2186.79 -3.80473 0.0450829 0
M  V30 23154 H 2186.3 -3.42278 1.8294 0
M  V30 23155 H 2184.4 -3.67345 -0.623584 0
M  V30 23156 H 2184.52 -4.69373 0.960503 0
M  V30 23157 H 2182.88 -2.51289 0.415458 0
M  V30 23158 H 2183.66 -2.73742 2.07172 0
M  V30 23159 N 2186.11 -0.537304 -1.48158 0
M  V30 23160 C 2187.52 -0.0987274 -1.86439 0
M  V30 23161 C 2187.87 1.32599 -1.4461 0
M  V30 23162 O 2187 1.99427 -0.840112 0
M  V30 23163 C 2187.59 -0.172391 -3.38361 0
M  V30 23164 C 2186.15 0.211031 -3.75808 0
M  V30 23165 C 2185.3 -0.528892 -2.7221 0
M  V30 23166 H 2188.25 -0.74815 -1.39959 0
M  V30 23167 H 2188.27 0.614074 -3.75512 0
M  V30 23168 H 2187.78 -1.20942 -3.68774 0
M  V30 23169 H 2185.88 1.24993 -3.51009 0
M  V30 23170 H 2186 -0.133675 -4.78913 0
M  V30 23171 H 2184.36 0.0257117 -2.54687 0
M  V30 23172 H 2185.14 -1.5667 -3.05466 0
M  V30 23173 N 2187.59 1.55221 -0.272782 0
M  V30 23174 C 2188.84 1.99545 0.344667 0
M  V30 23175 C 2189.16 1.16117 1.56036 0
M  V30 23176 O 2188.42 0.218255 1.94479 0
M  V30 23177 C 2188.72 3.48938 0.773111 0
M  V30 23178 C 2188.38 4.49634 -0.337684 0
M  V30 23179 C 2187.05 4.76889 -0.642695 0
M  V30 23180 C 2189.4 5.09754 -1.0863 0
M  V30 23181 C 2186.73 5.61533 -1.69994 0
M  V30 23182 C 2189.08 5.95546 -2.13325 0
M  V30 23183 C 2187.74 6.21123 -2.44463 0
M  V30 23184 H 2187.01 0.730188 0.126123 0
M  V30 23185 H 2189.66 1.87569 -0.386008 0
M  V30 23186 H 2187.96 3.58378 1.58342 0
M  V30 23187 H 2189.66 3.80639 1.26156 0
M  V30 23188 H 2186.25 4.28506 -0.0898333 0
M  V30 23189 H 2190.43 4.88723 -0.863909 0
M  V30 23190 H 2185.69 5.79596 -1.94623 0
M  V30 23191 H 2189.86 6.41166 -2.71807 0
M  V30 23192 H 2187.49 6.86504 -3.26521 0
M  V30 23193 N 2189.07 2.77022e-05 1.576 0
M  V30 23194 C 2190.29 -0.695799 1.94849 0
M  V30 23195 C 2190.71 -1.67306 0.874875 0
M  V30 23196 O 2190.07 -1.81914 -0.146183 0
M  V30 23197 C 2190.12 -1.42764 3.32115 0
M  V30 23198 O 2189.84 -0.48957 4.35356 0
M  V30 23199 C 2191.34 -2.21797 3.83824 0
M  V30 23200 H 2188.56 -0.193791 0.642407 0
M  V30 23201 H 2191.1 0.0511556 2.04436 0
M  V30 23202 H 2189.26 -2.12623 3.23837 0
M  V30 23203 H 2189.67 -1.00592 5.14764 0
M  V30 23204 H 2191.15 -2.68501 4.82298 0
M  V30 23205 H 2191.62 -3.04473 3.16532 0
M  V30 23206 H 2192.23 -1.56955 3.95279 0
M  V30 23207 N 2190.54 -1.55222 -0.272728 0
M  V30 23208 C 2191.48 -1.84532 -1.35943 0
M  V30 23209 C 2192.49 -0.729843 -1.45524 0
M  V30 23210 O 2193.68 -1.0077 -1.47335 0
M  V30 23211 C 2190.78 -1.99352 -2.74066 0
M  V30 23212 C 2189.95 -3.30012 -2.87073 0
M  V30 23213 C 2189.01 -3.34893 -4.05873 0
M  V30 23214 O 2188.04 -4.08268 -3.96618 0
M  V30 23215 N 2189.24 -2.62316 -5.17852 0
M  V30 23216 H 2192 -2.78329 -1.11144 0
M  V30 23217 H 2189.56 -1.55143 -0.462842 0
M  V30 23218 H 2191.56 -1.99987 -3.51834 0
M  V30 23219 H 2190.13 -1.1242 -2.91686 0
M  V30 23220 H 2189.35 -3.41913 -1.96187 0
M  V30 23221 H 2190.63 -4.16182 -2.92694 0
M  V30 23222 H 2190.03 -2.02386 -5.28258 0
M  V30 23223 H 2188.59 -2.68674 -5.9385 0
M  V30 23224 N 2192.02 0.537252 -1.4816 0
M  V30 23225 C 2193.44 0.865105 -1.3412 0
M  V30 23226 C 2193.64 1.98495 -0.346713 0
M  V30 23227 O 2192.69 2.51407 0.234671 0
M  V30 23228 C 2194.01 1.23949 -2.73965 0
M  V30 23229 C 2195.56 1.34979 -2.824 0
M  V30 23230 C 2196.03 1.75764 -4.22931 0
M  V30 23231 N 2197.52 1.8288 -4.25569 0
M  V30 23232 C 2198.26 2.15808 -5.31239 0
M  V30 23233 N 2197.75 2.4721 -6.47193 0
M  V30 23234 N 2199.55 2.16752 -5.18628 0
M  V30 23235 H 2191.7 -0.201752 -2.1144 0
M  V30 23236 H 2193.96 -0.0276116 -0.947598 0
M  V30 23237 H 2193.67 0.49032 -3.48265 0
M  V30 23238 H 2193.54 2.19126 -3.07023 0
M  V30 23239 H 2195.93 2.08974 -2.0836 0
M  V30 23240 H 2196.01 0.379404 -2.52971 0
M  V30 23241 H 2195.65 1.02332 -4.97484 0
M  V30 23242 H 2195.58 2.7384 -4.49799 0
M  V30 23243 H 2198.07 1.60918 -3.41927 0
M  V30 23244 H 2198.39 2.7142 -7.23568 0
M  V30 23245 H 2196.73 2.44746 -6.5048 0
M  V30 23246 H 2199.92 1.91672 -4.27059 0
M  V30 23247 H 2200.09 2.42082 -6.01082 0
M  V30 23248 N 2193.5 1.36626 0.785562 0
M  V30 23249 C 2194.46 1.3111 1.87997 0
M  V30 23250 C 2195.46 0.217987 1.59316 0
M  V30 23251 O 2196.65 0.473006 1.67655 0
M  V30 23252 C 2193.79 1.03339 3.2486 0
M  V30 23253 H 2194.98 2.28444 1.94303 0
M  V30 23254 H 2192.53 1.21455 0.983792 0
M  V30 23255 H 2193.27 0.0648002 3.24235 0
M  V30 23256 H 2193.05 1.82447 3.47067 0
M  V30 23257 H 2194.54 1.02095 4.04928 0
M  V30 23258 N 2194.98 -1.01016 1.20969 0
M  V30 23259 C 2196.22 -1.74973 1.02529 0
M  V30 23260 C 2196.56 -1.89132 -0.440767 0
M  V30 23261 O 2195.83 -1.42186 -1.32715 0
M  V30 23262 C 2196.12 -3.16527 1.71705 0
M  V30 23263 C 2195.97 -3.10124 3.25797 0
M  V30 23264 C 2197.29 -4.15339 1.45539 0
M  V30 23265 H 2194.41 -0.635128 0.373874 0
M  V30 23266 H 2197.05 -1.17802 1.49073 0
M  V30 23267 H 2195.2 -3.65339 1.32135 0
M  V30 23268 H 2196.87 -2.69066 3.74702 0
M  V30 23269 H 2195.11 -2.47356 3.56367 0
M  V30 23270 H 2195.78 -4.10216 3.6936 0
M  V30 23271 H 2198.26 -3.7521 1.79879 0
M  V30 23272 H 2197.14 -5.12537 1.96462 0
M  V30 23273 H 2197.4 -4.40426 0.384315 0
M  V30 23274 N 2196.46 -1.01661 -1.20428 0
M  V30 23275 C 2197.68 -0.725166 -1.93776 0
M  V30 23276 C 2198.1 0.714135 -1.74773 0
M  V30 23277 O 2197.46 1.48438 -1.06171 0
M  V30 23278 C 2197.51 -1.05136 -3.45874 0
M  V30 23279 O 2197.23 -2.43412 -3.64255 0
M  V30 23280 C 2198.73 -0.780967 -4.36367 0
M  V30 23281 H 2195.95 -0.266294 -0.615896 0
M  V30 23282 H 2198.49 -1.35779 -1.52919 0
M  V30 23283 H 2196.65 -0.464133 -3.8461 0
M  V30 23284 H 2197.06 -2.55177 -4.58241 0
M  V30 23285 H 2198.54 -1.05928 -5.41741 0
M  V30 23286 H 2199.01 0.28486 -4.38275 0
M  V30 23287 H 2199.62 -1.35034 -4.03294 0
M  V30 23288 N 2197.93 1.36205 -0.792844 0
M  V30 23289 C 2199.21 1.93428 -0.290661 0
M  V30 23290 C 2199.59 1.72439 1.2177 0
M  V30 23291 O 2198.94 1.08534 2.01078 0
M  V30 23292 C 2199.15 3.42171 -0.687033 0
M  V30 23293 C 2200.5 4.19301 -0.668717 0
M  V30 23294 O 2201.52 3.50625 -0.62772 0
M  V30 23295 O 2200.38 5.41807 -0.714692 0
M  V30 23296 H 2197.47 0.823789 -0.0728072 0
M  V30 23297 H 2200.02 1.45365 -0.875619 0
M  V30 23298 H 2198.79 3.51119 -1.72718 0
M  V30 23299 H 2198.42 3.97527 -0.0761432 0
M  V30 23300 N 2199.41 0.545154 1.47871 0
M  V30 23301 C 2200.36 -0.222471 2.31534 0
M  V30 23302 C 2201.35 -0.92096 1.42178 0
M  V30 23303 O 2202.56 -0.843617 1.59007 0
M  V30 23304 H 2198.94 -0.0906147 0.746521 0
M  V30 23305 H 2200.91 0.502511 2.94138 0
M  V30 23306 C 2199.66 -1.24693 3.24572 0
M  V30 23307 H 2198.98 -0.718875 3.93284 0
M  V30 23308 H 2200.42 -1.75516 3.85967 0
M  V30 23309 C 2198.88 -2.28852 2.47241 0
M  V30 23310 O 2199.41 -3.35565 2.20814 0
M  V30 23311 N 2197.61 -2.02462 2.08465 0
M  V30 23312 H 2197.16 -1.15696 2.30157 0
M  V30 23313 H 2197.12 -2.72372 1.57038 0
M  V30 23314 N 2200.89 -1.55074 0.28101 0
M  V30 23315 C 2202.14 -2.00021 -0.334575 0
M  V30 23316 C 2202.47 -1.16917 -1.55061 0
M  V30 23317 O 2201.74 -0.24068 -1.93005 0
M  V30 23318 C 2202.03 -3.53012 -0.710945 0
M  V30 23319 C 2201.88 -4.46867 0.512844 0
M  V30 23320 C 2203.2 -4.12084 -1.54515 0
M  V30 23321 H 2200.32 -0.727143 -0.120135 0
M  V30 23322 H 2202.96 -1.85973 0.38913 0
M  V30 23323 H 2201.11 -3.65114 -1.32754 0
M  V30 23324 H 2202.78 -4.467 1.15139 0
M  V30 23325 H 2201.03 -4.18284 1.14982 0
M  V30 23326 H 2201.7 -5.51617 0.205653 0
M  V30 23327 H 2204.17 -4.03294 -1.02435 0
M  V30 23328 H 2203.05 -5.1933 -1.7773 0
M  V30 23329 H 2203.31 -3.62686 -2.52806 0
M  V30 23330 N 2202.37 -0.00838561 -1.57598 0
M  V30 23331 C 2203.33 0.965206 -2.07886 0
M  V30 23332 C 2204.33 1.26723 -0.989847 0
M  V30 23333 O 2205.52 1.21101 -1.2522 0
M  V30 23334 C 2202.65 2.28775 -2.52735 0
M  V30 23335 H 2203.85 0.53006 -2.95179 0
M  V30 23336 H 2201.4 0.239256 -1.54458 0
M  V30 23337 H 2202.14 2.76961 -1.6871 0
M  V30 23338 H 2201.92 2.08172 -3.32276 0
M  V30 23339 H 2203.41 2.986 -2.91938 0
M  V30 23340 N 2203.85 1.55365 0.264492 0
M  V30 23341 C 2205.08 1.80407 1.01297 0
M  V30 23342 C 2205.49 0.581654 1.79617 0
M  V30 23343 O 2204.85 -0.449437 1.76879 0
M  V30 23344 C 2204.9 3.03442 1.96482 0
M  V30 23345 O 2204.62 4.20963 1.21334 0
M  V30 23346 C 2206.12 3.41152 2.83073 0
M  V30 23347 H 2203.34 0.600767 0.298865 0
M  V30 23348 H 2205.88 2.02394 0.2927 0
M  V30 23349 H 2204.04 2.83556 2.6396 0
M  V30 23350 H 2204.45 4.90577 1.85564 0
M  V30 23351 H 2205.93 4.3039 3.45642 0
M  V30 23352 H 2206.4 2.60938 3.53282 0
M  V30 23353 H 2207.01 3.63327 2.21073 0
M  V30 23354 N 2205.33 -0.529387 1.48443 0
M  V30 23355 C 2206.74 -1.11132 1.50022 0
M  V30 23356 C 2207.09 -1.94329 0.270344 0
M  V30 23357 O 2206.21 -2.07254 -0.62247 0
M  V30 23358 C 2206.81 -2.02212 2.71838 0
M  V30 23359 C 2205.37 -2.55622 2.76287 0
M  V30 23360 C 2204.51 -1.32596 2.43544 0
M  V30 23361 H 2207.46 -0.314614 1.5555 0
M  V30 23362 H 2207.49 -2.86506 2.50389 0
M  V30 23363 H 2207 -1.41633 3.61333 0
M  V30 23364 H 2205.1 -3.19921 1.91001 0
M  V30 23365 H 2205.21 -2.94715 3.7773 0
M  V30 23366 H 2203.58 -1.64193 1.94712 0
M  V30 23367 H 2204.36 -0.737675 3.35281 0
M  V30 23368 N 2206.8 -1.37041 -0.778305 0
M  V30 23369 C 2208.05 -1.31213 -1.53187 0
M  V30 23370 C 2208.37 0.103061 -1.95328 0
M  V30 23371 O 2209.57 0.283779 -2.70013 0
M  V30 23372 C 2208.03 -2.30277 -2.76587 0
M  V30 23373 C 2207.64 -3.7729 -2.4157 0
M  V30 23374 C 2209.38 -2.33447 -3.54546 0
M  V30 23375 C 2207.29 -4.68103 -3.61433 0
M  V30 23376 H 2206.22 -0.487633 -0.575092 0
M  V30 23377 H 2208.87 -1.62465 -0.853073 0
M  V30 23378 H 2207.25 -1.92033 -3.46322 0
M  V30 23379 H 2208.42 -4.24333 -1.7966 0
M  V30 23380 H 2206.74 -3.77002 -1.768 0
M  V30 23381 H 2209.34 -2.98501 -4.43623 0
M  V30 23382 H 2209.68 -1.34618 -3.93934 0
M  V30 23383 H 2210.21 -2.70365 -2.91801 0
M  V30 23384 H 2206.95 -5.68036 -3.27132 0
M  V30 23385 H 2206.47 -4.25768 -4.2247 0
M  V30 23386 H 2208.15 -4.84918 -4.28327 0
M  V30 23387 N 2208.28 1.00373 -1.21503 0
M  V30 23388 C 2209.51 1.78278 -1.0598 0
M  V30 23389 C 2209.93 1.84098 0.385962 0
M  V30 23390 O 2209.29 1.28549 1.27847 0
M  V30 23391 C 2209.34 3.1996 -1.66307 0
M  V30 23392 O 2208.44 4.02248 -0.909404 0
M  V30 23393 H 2207.78 0.54939 -0.372916 0
M  V30 23394 H 2210.31 1.26162 -1.61072 0
M  V30 23395 H 2210.32 3.70629 -1.70581 0
M  V30 23396 H 2209 3.15038 -2.71521 0
M  V30 23397 H 2207.57 3.60809 -0.941859 0
M  V30 23398 N 2209.76 1.02298 1.19887 0
M  V30 23399 C 2211.01 0.714591 1.89045 0
M  V30 23400 C 2211.33 -0.758649 1.79637 0
M  V30 23401 O 2210.6 -1.54616 1.20294 0
M  V30 23402 H 2209.18 0.261329 0.699797 0
M  V30 23403 H 2211.84 1.29595 1.45572 0
M  V30 23404 H 2210.94 1.00365 2.95522 0
M  V30 23405 N 2211.24 -1.35782 0.800057 0
M  V30 23406 C 2212.17 -2.32459 0.220225 0
M  V30 23407 C 2213.15 -1.57162 -0.650702 0
M  V30 23408 O 2214.33 -1.85264 -0.582326 0
M  V30 23409 C 2211.46 -3.41403 -0.637293 0
M  V30 23410 C 2210.42 -4.27788 0.134606 0
M  V30 23411 C 2209.74 -5.27994 -0.844192 0
M  V30 23412 C 2211.04 -5.05086 1.32988 0
M  V30 23413 H 2212.74 -2.81201 1.02792 0
M  V30 23414 H 2210.28 -1.35198 0.495741 0
M  V30 23415 H 2212.24 -4.08033 -1.05295 0
M  V30 23416 H 2210.96 -2.91253 -1.4778 0
M  V30 23417 H 2209.62 -3.62729 0.53136 0
M  V30 23418 H 2209.27 -4.74114 -1.68002 0
M  V30 23419 H 2208.97 -5.86661 -0.332081 0
M  V30 23420 H 2210.49 -5.97496 -1.25819 0
M  V30 23421 H 2211.91 -5.64697 0.989439 0
M  V30 23422 H 2210.3 -5.73217 1.77603 0
M  V30 23423 H 2211.37 -4.36108 2.11986 0
M  V30 23424 N 2212.72 -0.552988 -1.4758 0
M  V30 23425 C 2213.65 0.244817 -2.26883 0
M  V30 23426 C 2214.63 0.924123 -1.33786 0
M  V30 23427 O 2215.81 0.943952 -1.63162 0
M  V30 23428 C 2212.94 1.3485 -3.10698 0
M  V30 23429 C 2211.98 0.778195 -4.1934 0
M  V30 23430 S 2212.82 -0.371934 -5.34207 0
M  V30 23431 C 2213.97 0.73367 -6.21585 0
M  V30 23432 H 2214.21 -0.428139 -2.94201 0
M  V30 23433 H 2211.74 -0.339224 -1.50627 0
M  V30 23434 H 2213.7 1.9806 -3.59559 0
M  V30 23435 H 2212.36 1.99327 -2.4275 0
M  V30 23436 H 2211.55 1.60687 -4.77698 0
M  V30 23437 H 2211.15 0.222356 -3.73338 0
M  V30 23438 H 2213.44 1.62681 -6.57679 0
M  V30 23439 H 2214.39 0.187543 -7.07852 0
M  V30 23440 H 2214.8 1.02444 -5.55127 0
M  V30 23441 N 2214.19 1.54923 -0.28923 0
M  V30 23442 C 2215.42 2.04309 0.326427 0
M  V30 23443 C 2215.84 1.16703 1.48411 0
M  V30 23444 O 2215.19 0.190119 1.81507 0
M  V30 23445 C 2215.24 3.52674 0.793952 0
M  V30 23446 O 2214.97 4.36947 -0.317641 0
M  V30 23447 C 2216.47 4.18007 1.47598 0
M  V30 23448 H 2213.69 0.667059 0.0726155 0
M  V30 23449 H 2216.23 2.00026 -0.425436 0
M  V30 23450 H 2214.39 3.57355 1.49587 0
M  V30 23451 H 2214.8 5.24481 0.0442264 0
M  V30 23452 H 2216.27 5.23379 1.75438 0
M  V30 23453 H 2216.75 3.67029 2.41218 0
M  V30 23454 H 2217.36 4.17368 0.817547 0
M  V30 23455 N 2215.67 0.0167433 1.57591 0
M  V30 23456 C 2216.62 -0.987316 2.10606 0
M  V30 23457 C 2217.61 -1.34505 1.02979 0
M  V30 23458 O 2218.82 -1.32873 1.21428 0
M  V30 23459 H 2215.19 -0.336122 0.672701 0
M  V30 23460 H 2217.17 -0.514766 2.93926 0
M  V30 23461 C 2215.91 -2.26478 2.63824 0
M  V30 23462 H 2215.24 -1.99823 3.46282 0
M  V30 23463 H 2216.68 -2.94971 3.04578 0
M  V30 23464 C 2215.14 -2.98607 1.55998 0
M  V30 23465 O 2215.67 -3.90242 0.95259 0
M  V30 23466 N 2213.87 -2.60725 1.28339 0
M  V30 23467 H 2213.42 -1.86288 1.77918 0
M  V30 23468 H 2213.38 -3.09297 0.564169 0
M  V30 23469 N 2217.15 -1.55503 -0.256249 0
M  V30 23470 C 2218.38 -1.80941 -1.00339 0
M  V30 23471 C 2218.79 -0.591171 -1.79306 0
M  V30 23472 O 2218.15 0.44005 -1.77115 0
M  V30 23473 C 2218.2 -3.0448 -1.9487 0
M  V30 23474 O 2217.92 -4.216 -1.19099 0
M  V30 23475 C 2219.42 -3.42648 -2.81259 0
M  V30 23476 H 2216.64 -0.602344 -0.295674 0
M  V30 23477 H 2219.19 -2.02547 -0.281962 0
M  V30 23478 H 2217.34 -2.84952 -2.62452 0
M  V30 23479 H 2217.76 -4.91555 -1.8296 0
M  V30 23480 H 2219.23 -4.32217 -3.43355 0
M  V30 23481 H 2219.71 -2.62808 -3.51893 0
M  V30 23482 H 2220.31 -3.64495 -2.19143 0
M  V30 23483 N 2218.63 0.521507 -1.48721 0
M  V30 23484 C 2219.87 1.27876 -1.57403 0
M  V30 23485 C 2220.21 1.92573 -0.25085 0
M  V30 23486 O 2219.48 1.79712 0.743902 0
M  V30 23487 C 2219.77 2.36159 -2.71847 0
M  V30 23488 C 2219.62 1.76098 -4.13896 0
M  V30 23489 C 2220.94 3.3787 -2.82014 0
M  V30 23490 H 2218.06 0.463571 -0.572949 0
M  V30 23491 H 2220.7 0.580088 -1.80928 0
M  V30 23492 H 2218.85 2.95752 -2.51919 0
M  V30 23493 H 2220.52 1.20491 -4.45286 0
M  V30 23494 H 2218.76 1.06594 -4.205 0
M  V30 23495 H 2219.43 2.54541 -4.89809 0
M  V30 23496 H 2221.91 2.88244 -3.00091 0
M  V30 23497 H 2220.79 4.11021 -3.63803 0
M  V30 23498 H 2221.05 3.98943 -1.90518 0
M  V30 23499 N 2220.11 1.37452 0.771027 0
M  V30 23500 C 2221.35 1.32896 1.53187 0
M  V30 23501 C 2221.69 -0.086217 1.94009 0
M  V30 23502 O 2220.96 -1.0437 1.64125 0
M  V30 23503 C 2221.24 2.26873 2.79644 0
M  V30 23504 C 2221.1 3.77173 2.45072 0
M  V30 23505 C 2222.42 2.19284 3.81579 0
M  V30 23506 H 2219.53 0.484074 0.555735 0
M  V30 23507 H 2222.18 1.68158 0.884463 0
M  V30 23508 H 2220.33 1.96932 3.34888 0
M  V30 23509 H 2222 4.17714 1.95737 0
M  V30 23510 H 2220.24 3.95707 1.7776 0
M  V30 23511 H 2220.91 4.38365 3.3547 0
M  V30 23512 H 2223.39 2.45677 3.3583 0
M  V30 23513 H 2222.26 2.87179 4.67782 0
M  V30 23514 H 2222.53 1.18599 4.25895 0
M  V30 23515 N 2221.58 -0.997276 1.22033 0
M  V30 23516 C 2222.53 -2.08655 0.986504 0
M  V30 23517 C 2223.5 -1.65855 -0.090238 0
M  V30 23518 O 2224.69 -1.9071 0.0584629 0
M  V30 23519 C 2221.83 -3.40433 0.565629 0
M  V30 23520 C 2220.94 -3.966 1.71266 0
M  V30 23521 C 2220.07 -5.1652 1.2402 0
M  V30 23522 C 2219.11 -5.64814 2.35906 0
M  V30 23523 N 2218.25 -6.75976 1.89738 0
M  V30 23524 H 2223.09 -2.27991 1.91896 0
M  V30 23525 H 2220.63 -1.1178 0.956219 0
M  V30 23526 H 2222.59 -4.161 0.302812 0
M  V30 23527 H 2221.22 -3.21111 -0.329823 0
M  V30 23528 H 2220.27 -3.17847 2.08992 0
M  V30 23529 H 2221.58 -4.28428 2.55443 0
M  V30 23530 H 2220.73 -5.9946 0.934501 0
M  V30 23531 H 2219.47 -4.86305 0.368573 0
M  V30 23532 H 2218.48 -4.80465 2.67269 0
M  V30 23533 H 2219.7 -5.97055 3.23577 0
M  V30 23534 H 2217.65 -6.47553 1.04931 0
M  V30 23535 H 2217.57 -7.07099 2.67483 0
M  V30 23536 H 2218.83 -7.62433 1.62224 0
M  V30 23537 N 2223.06 -1.02932 -1.19343 0
M  V30 23538 C 2223.99 -0.631145 -2.24808 0
M  V30 23539 C 2224.97 0.360075 -1.66245 0
M  V30 23540 O 2226.16 0.242692 -1.92678 0
M  V30 23541 C 2223.29 0.0183996 -3.47295 0
M  V30 23542 C 2222.24 -0.895147 -4.18534 0
M  V30 23543 C 2221.57 -0.110686 -5.34585 0
M  V30 23544 C 2222.87 -2.20909 -4.73283 0
M  V30 23545 H 2224.56 -1.5128 -2.5837 0
M  V30 23546 H 2222.11 -0.72884 -1.24193 0
M  V30 23547 H 2224.06 0.308601 -4.20269 0
M  V30 23548 H 2222.79 0.934852 -3.12935 0
M  V30 23549 H 2221.44 -1.16955 -3.47444 0
M  V30 23550 H 2221.09 0.807815 -4.96471 0
M  V30 23551 H 2220.79 -0.71919 -5.83182 0
M  V30 23552 H 2222.32 0.172764 -6.10356 0
M  V30 23553 H 2223.73 -1.98038 -5.38009 0
M  V30 23554 H 2222.13 -2.76955 -5.32368 0
M  V30 23555 H 2223.2 -2.86343 -3.91326 0
M  V30 23556 N 2224.54 1.35356 -0.807246 0
M  V30 23557 C 2225.49 2.27201 -0.190746 0
M  V30 23558 C 2226.47 1.47805 0.635812 0
M  V30 23559 O 2227.67 1.69997 0.492961 0
M  V30 23560 C 2224.8 3.3691 0.659277 0
M  V30 23561 C 2223.88 4.2373 -0.177046 0
M  V30 23562 N 2224.27 4.90355 -1.24038 0
M  V30 23563 C 2222.57 4.45981 0.0412169 0
M  V30 23564 C 2223.27 5.5472 -1.75101 0
M  V30 23565 N 2222.25 5.33217 -1.05736 0
M  V30 23566 H 2226.05 2.76207 -1.00435 0
M  V30 23567 H 2223.56 1.48891 -0.648471 0
M  V30 23568 H 2225.56 4.01658 1.11699 0
M  V30 23569 H 2224.22 2.89457 1.47122 0
M  V30 23570 H 2225.23 4.91811 -1.62304 0
M  V30 23571 H 2221.91 4.09323 0.822248 0
M  V30 23572 H 2223.3 6.17873 -2.63974 0
M  V30 23573 N 2226.02 0.560807 1.47284 0
M  V30 23574 C 2226.93 -0.187913 2.33846 0
M  V30 23575 C 2227.94 -0.908267 1.48413 0
M  V30 23576 O 2229.12 -0.876357 1.81334 0
M  V30 23577 C 2226.19 -1.20245 3.2518 0
M  V30 23578 C 2225.25 -0.489133 4.26504 0
M  V30 23579 C 2224.48 -1.45533 5.13474 0
M  V30 23580 O 2224.7 -2.69041 5.02964 0
M  V30 23581 O 2223.64 -0.977859 5.93904 0
M  V30 23582 H 2227.46 0.52223 2.99176 0
M  V30 23583 H 2225.05 0.321389 1.45902 0
M  V30 23584 H 2226.93 -1.78799 3.81587 0
M  V30 23585 H 2225.6 -1.89445 2.62474 0
M  V30 23586 H 2224.51 0.137693 3.73847 0
M  V30 23587 H 2225.84 0.161485 4.91935 0
M  V30 23588 N 2227.5 -1.54768 0.297442 0
M  V30 23589 C 2228.72 -2.04941 -0.318399 0
M  V30 23590 C 2229.15 -1.17347 -1.47007 0
M  V30 23591 O 2228.5 -0.17679 -1.80436 0
M  V30 23592 C 2228.55 -3.52593 -0.755687 0
M  V30 23593 O 2227.66 -3.68032 -1.86082 0
M  V30 23594 H 2227 -0.661061 -0.0624094 0
M  V30 23595 H 2229.53 -1.99851 0.43825 0
M  V30 23596 H 2229.54 -3.94378 -1.04545 0
M  V30 23597 H 2228.21 -4.15809 0.0867964 0
M  V30 23598 H 2226.79 -3.38152 -1.57188 0
M  V30 23599 N 2228.97 -0.0251005 -1.5758 0
M  V30 23600 C 2230.2 0.668282 -1.96338 0
M  V30 23601 C 2230.62 1.65098 -0.901343 0
M  V30 23602 O 2229.98 1.80773 0.138155 0
M  V30 23603 C 2230.03 1.35451 -3.34194 0
M  V30 23604 O 2229.13 2.46968 -3.30273 0
M  V30 23605 H 2228.48 0.175876 -0.640284 0
M  V30 23606 H 2231.01 -0.0857583 -2.0442 0
M  V30 23607 H 2231.02 1.71222 -3.70334 0
M  V30 23608 H 2229.69 0.634146 -4.11037 0
M  V30 23609 H 2228.27 2.13339 -3.05845 0
M  V30 23610 N 2230.45 1.55637 0.247999 0
M  V30 23611 C 2231.87 1.48036 0.596457 0
M  V30 23612 C 2232.07 0.715073 1.88385 0
M  V30 23613 O 2231.12 0.243988 2.51318 0
M  V30 23614 C 2232.44 2.92434 0.700207 0
M  V30 23615 C 2233.99 3.02798 0.792606 0
M  V30 23616 C 2234.46 4.48501 0.927926 0
M  V30 23617 N 2235.95 4.52435 0.992824 0
M  V30 23618 C 2236.69 5.6242 1.11677 0
M  V30 23619 N 2236.18 6.82217 1.20633 0
M  V30 23620 N 2237.98 5.50214 1.14984 0
M  V30 23621 H 2230.13 2.03833 -0.597145 0
M  V30 23622 H 2232.39 0.925361 -0.205941 0
M  V30 23623 H 2232.1 3.51261 -0.17572 0
M  V30 23624 H 2231.97 3.42859 1.57249 0
M  V30 23625 H 2234.36 2.44053 1.65899 0
M  V30 23626 H 2234.44 2.55585 -0.104807 0
M  V30 23627 H 2234.08 5.07857 0.0661079 0
M  V30 23628 H 2234.01 4.93395 1.84036 0
M  V30 23629 H 2236.5 3.6615 0.934999 0
M  V30 23630 H 2236.82 7.61788 1.29995 0
M  V30 23631 H 2235.16 6.84979 1.17593 0
M  V30 23632 H 2238.35 4.55557 1.07635 0
M  V30 23633 H 2238.52 6.35967 1.24299 0
M  V30 23634 N 2231.93 -0.513613 1.48996 0
M  V30 23635 C 2232.88 -1.61311 1.6113 0
M  V30 23636 C 2233.87 -1.53957 0.467548 0
M  V30 23637 O 2235.06 -1.61701 0.719855 0
M  V30 23638 C 2232.19 -2.99975 1.66943 0
M  V30 23639 C 2231.27 -3.12372 2.86853 0
M  V30 23640 N 2231.66 -2.94694 4.11083 0
M  V30 23641 C 2229.96 -3.43454 2.84527 0
M  V30 23642 C 2230.66 -3.1094 4.91621 0
M  V30 23643 N 2229.64 -3.39253 4.24745 0
M  V30 23644 H 2233.44 -1.46278 2.54912 0
M  V30 23645 H 2230.95 -0.719458 1.45594 0
M  V30 23646 H 2232.95 -3.78976 1.73731 0
M  V30 23647 H 2231.61 -3.16087 0.742887 0
M  V30 23648 H 2232.62 -2.71123 4.41262 0
M  V30 23649 H 2229.3 -3.65822 2.01199 0
M  V30 23650 H 2230.69 -3.01872 6.00269 0
M  V30 23651 N 2233.41 -1.37859 -0.763727 0
M  V30 23652 C 2234.36 -1.3437 -1.89862 0
M  V30 23653 C 2235.35 -0.231173 -1.67815 0
M  V30 23654 O 2236.56 -0.399648 -1.75507 0
M  V30 23655 H 2232.93 -0.418941 -0.624494 0
M  V30 23656 H 2234.9 -2.30158 -1.89921 0
M  V30 23657 C 2233.65 -1.17556 -3.27225 0
M  V30 23658 H 2232.98 -2.0242 -3.4477 0
M  V30 23659 H 2234.42 -1.19167 -4.06909 0
M  V30 23660 C 2232.87 0.118252 -3.36692 0
M  V30 23661 O 2233.4 1.09895 -3.86375 0
M  V30 23662 N 2231.61 0.171666 -2.90093 0
M  V30 23663 H 2231.16 -0.627056 -2.49851 0
M  V30 23664 H 2231.12 1.03694 -2.96808 0
M  V30 23665 N 2234.89 0.990791 -1.22561 0
M  V30 23666 C 2235.85 2.06288 -0.998899 0
M  V30 23667 C 2236.85 1.60761 0.0354551 0
M  V30 23668 O 2238.04 1.7301 -0.203261 0
M  V30 23669 C 2235.17 3.37075 -0.509263 0
M  V30 23670 H 2236.37 2.27833 -1.95018 0
M  V30 23671 H 2233.92 1.16267 -1.04459 0
M  V30 23672 H 2234.65 3.21215 0.446279 0
M  V30 23673 H 2234.44 3.71455 -1.25554 0
M  V30 23674 H 2235.93 4.15949 -0.370961 0
M  V30 23675 N 2236.37 1.03564 1.18795 0
M  V30 23676 C 2237.31 0.622298 2.22252 0
M  V30 23677 C 2238.28 -0.367332 1.61987 0
M  V30 23678 O 2239.47 -0.262459 1.88986 0
M  V30 23679 C 2236.61 -0.0137855 3.45097 0
M  V30 23680 C 2235.72 1.0227 4.1972 0
M  V30 23681 C 2234.86 0.355666 5.30008 0
M  V30 23682 C 2233.89 1.3776 5.96396 0
M  V30 23683 N 2233.03 0.735888 6.98233 0
M  V30 23684 H 2237.87 1.50907 2.56965 0
M  V30 23685 H 2235.41 0.755039 1.26244 0
M  V30 23686 H 2237.37 -0.399875 4.15279 0
M  V30 23687 H 2236 -0.864103 3.11019 0
M  V30 23688 H 2235.05 1.52679 3.48415 0
M  V30 23689 H 2236.36 1.79911 4.65224 0
M  V30 23690 H 2235.51 -0.0849028 6.06641 0
M  V30 23691 H 2234.25 -0.452882 4.85593 0
M  V30 23692 H 2233.26 1.82836 5.18509 0
M  V30 23693 H 2234.48 2.18776 6.42895 0
M  V30 23694 H 2232.43 -0.0524444 6.55979 0
M  V30 23695 H 2232.35 1.45008 7.41963 0
M  V30 23696 H 2233.61 0.319547 7.78845 0
M  V30 23697 N 2237.84 -1.34926 0.814413 0
M  V30 23698 C 2239.25 -1.80985 0.458396 0
M  V30 23699 C 2239.61 -1.67579 -1.02039 0
M  V30 23700 O 2238.73 -1.21089 -1.7935 0
M  V30 23701 C 2239.33 -3.28595 0.82527 0
M  V30 23702 C 2237.88 -3.72766 0.521743 0
M  V30 23703 C 2237.03 -2.56786 1.04672 0
M  V30 23704 H 2239.98 -1.22794 1.00536 0
M  V30 23705 H 2240 -3.80292 0.125777 0
M  V30 23706 H 2239.52 -3.38321 1.90159 0
M  V30 23707 H 2237.62 -3.68585 -0.545524 0
M  V30 23708 H 2237.73 -4.6723 1.05985 0
M  V30 23709 H 2236.09 -2.50351 0.468666 0
M  V30 23710 H 2236.88 -2.69286 2.12932 0
M  V30 23711 N 2239.32 -0.56861 -1.46985 0
M  V30 23712 C 2240.25 0.210297 -2.28233 0
M  V30 23713 C 2241.27 0.868743 -1.37683 0
M  V30 23714 O 2242.46 0.740676 -1.62408 0
M  V30 23715 C 2239.56 1.31625 -3.12295 0
M  V30 23716 C 2238.73 0.752425 -4.3088 0
M  V30 23717 C 2237.79 1.7443 -4.96448 0
M  V30 23718 O 2236.81 1.28591 -5.54485 0
M  V30 23719 N 2238.02 3.07804 -4.92176 0
M  V30 23720 H 2240.78 -0.4867 -2.95722 0
M  V30 23721 H 2238.34 -0.405436 -1.56741 0
M  V30 23722 H 2240.33 1.97877 -3.53025 0
M  V30 23723 H 2238.9 1.91631 -2.46974 0
M  V30 23724 H 2238.12 -0.087182 -3.94104 0
M  V30 23725 H 2239.41 0.35527 -5.07558 0
M  V30 23726 H 2238.81 3.47681 -4.46245 0
M  V30 23727 H 2237.37 3.69583 -5.36891 0
M  V30 23728 N 2240.8 1.54608 -0.305646 0
M  V30 23729 C 2241.73 2.2115 0.602122 0
M  V30 23730 C 2242.74 1.20571 1.09392 0
M  V30 23731 O 2243.93 1.47138 1.01057 0
M  V30 23732 C 2241.03 2.84802 1.83687 0
M  V30 23733 C 2240.21 4.11356 1.48678 0
M  V30 23734 C 2239.27 4.58768 2.57717 0
M  V30 23735 O 2238.29 5.23862 2.22614 0
M  V30 23736 N 2239.49 4.31478 3.88339 0
M  V30 23737 H 2242.26 2.99682 0.0324439 0
M  V30 23738 H 2239.82 1.61393 -0.128049 0
M  V30 23739 H 2241.81 3.13452 2.55988 0
M  V30 23740 H 2240.38 2.10082 2.31483 0
M  V30 23741 H 2239.6 3.89665 0.5962 0
M  V30 23742 H 2240.89 4.9375 1.22833 0
M  V30 23743 H 2240.29 3.79339 4.19665 0
M  V30 23744 H 2238.84 4.64826 4.56924 0
M  V30 23745 N 2242.28 0.033457 1.57564 0
M  V30 23746 C 2243.21 -0.945228 2.13513 0
M  V30 23747 C 2244.19 -1.33642 1.05233 0
M  V30 23748 O 2245.37 -1.41427 1.33087 0
M  V30 23749 C 2242.5 -2.22611 2.66574 0
M  V30 23750 C 2241.46 -1.97554 3.79679 0
M  V30 23751 C 2240.78 -3.31945 4.19186 0
M  V30 23752 C 2242.08 -1.31126 5.05572 0
M  V30 23753 H 2243.78 -0.479273 2.95539 0
M  V30 23754 H 2241.32 -0.22909 1.42166 0
M  V30 23755 H 2243.28 -2.91461 3.04349 0
M  V30 23756 H 2242 -2.7138 1.81715 0
M  V30 23757 H 2240.66 -1.31121 3.42349 0
M  V30 23758 H 2240.31 -3.78481 3.31302 0
M  V30 23759 H 2240.01 -3.15983 4.95407 0
M  V30 23760 H 2241.53 -4.02055 4.59548 0
M  V30 23761 H 2242.95 -1.89982 5.40906 0
M  V30 23762 H 2241.34 -1.25548 5.8682 0
M  V30 23763 H 2242.41 -0.284809 4.84063 0
M  V30 23764 N 2243.76 -1.55766 -0.239741 0
M  V30 23765 C 2245 -1.78196 -0.968202 0
M  V30 23766 C 2245.33 -0.599971 -1.847 0
M  V30 23767 O 2244.61 0.401491 -1.90311 0
M  V30 23768 C 2244.89 -3.10567 -1.82264 0
M  V30 23769 C 2244.75 -4.39182 -0.971555 0
M  V30 23770 C 2246.06 -3.39226 -2.80382 0
M  V30 23771 H 2243.18 -0.648287 -0.350561 0
M  V30 23772 H 2245.83 -1.88501 -0.238226 0
M  V30 23773 H 2243.98 -3.01913 -2.44501 0
M  V30 23774 H 2245.65 -4.59835 -0.367327 0
M  V30 23775 H 2243.89 -4.3292 -0.2762 0
M  V30 23776 H 2244.56 -5.28201 -1.60337 0
M  V30 23777 H 2247.04 -3.47889 -2.28281 0
M  V30 23778 H 2245.91 -4.3305 -3.37282 0
M  V30 23779 H 2246.17 -2.60491 -3.57207 0
M  V30 23780 N 2245.23 0.505704 -1.49266 0
M  V30 23781 C 2246.2 1.59003 -1.65078 0
M  V30 23782 C 2247.2 1.52064 -0.522794 0
M  V30 23783 O 2248.39 1.553 -0.789145 0
M  V30 23784 C 2245.52 2.98653 -1.64375 0
M  V30 23785 H 2246.71 1.46314 -2.61786 0
M  V30 23786 H 2244.26 0.729592 -1.38227 0
M  V30 23787 H 2245 3.16824 -0.692328 0
M  V30 23788 H 2244.78 3.05098 -2.46287 0
M  V30 23789 H 2246.27 3.77443 -1.7868 0
M  V30 23790 N 2246.71 1.38262 0.756405 0
M  V30 23791 C 2247.62 1.37491 1.90088 0
M  V30 23792 C 2248.64 0.272396 1.71855 0
M  V30 23793 O 2249.81 0.510353 1.94826 0
M  V30 23794 C 2246.88 1.19598 3.25419 0
M  V30 23795 C 2245.94 2.39629 3.56197 0
M  V30 23796 C 2245.17 2.22579 4.85071 0
M  V30 23797 O 2245.4 1.21803 5.57243 0
M  V30 23798 O 2244.33 3.11107 5.15263 0
M  V30 23799 H 2248.16 2.33918 1.93691 0
M  V30 23800 H 2245.74 1.19152 0.901292 0
M  V30 23801 H 2247.62 1.11668 4.06335 0
M  V30 23802 H 2246.3 0.262543 3.22634 0
M  V30 23803 H 2245.21 2.53133 2.75453 0
M  V30 23804 H 2246.54 3.31592 3.63741 0
M  V30 23805 N 2248.19 -0.984277 1.23084 0
M  V30 23806 C 2249.44 -1.72759 1.06217 0
M  V30 23807 C 2249.77 -1.90024 -0.40055 0
M  V30 23808 O 2249.04 -1.44969 -1.2967 0
M  V30 23809 C 2249.33 -3.12814 1.7838 0
M  V30 23810 C 2249.18 -3.03143 3.32301 0
M  V30 23811 C 2250.5 -4.12159 1.54316 0
M  V30 23812 H 2247.62 -0.627054 0.387262 0
M  V30 23813 H 2250.26 -1.14614 1.51538 0
M  V30 23814 H 2248.41 -3.62454 1.39854 0
M  V30 23815 H 2250.08 -2.61057 3.80325 0
M  V30 23816 H 2248.33 -2.39741 3.61534 0
M  V30 23817 H 2249 -4.02289 3.77979 0
M  V30 23818 H 2251.47 -3.7131 1.87797 0
M  V30 23819 H 2250.35 -5.08254 2.0729 0
M  V30 23820 H 2250.61 -4.39512 0.477649 0
M  V30 23821 N 2249.67 -1.04192 -1.18244 0
M  V30 23822 C 2250.63 -0.638491 -2.20127 0
M  V30 23823 C 2251.63 0.304777 -1.57885 0
M  V30 23824 O 2252.82 0.0900063 -1.73967 0
M  V30 23825 C 2249.95 0.0637152 -3.4084 0
M  V30 23826 H 2251.15 -1.54012 -2.57333 0
M  V30 23827 H 2248.7 -0.834621 -1.32151 0
M  V30 23828 H 2249.43 0.979081 -3.09167 0
M  V30 23829 H 2249.22 -0.614266 -3.87259 0
M  V30 23830 H 2250.71 0.332439 -4.16275 0
M  V30 23831 N 2251.15 1.34492 -0.821557 0
M  V30 23832 C 2252.37 2.02552 -0.42192 0
M  V30 23833 C 2252.79 1.61874 0.971717 0
M  V30 23834 O 2252.15 0.823524 1.62863 0
M  V30 23835 C 2252.2 3.57843 -0.512913 0
M  V30 23836 O 2251.92 3.97047 -1.85162 0
M  V30 23837 C 2253.42 4.43168 -0.107999 0
M  V30 23838 H 2250.64 0.64924 -0.169494 0
M  V30 23839 H 2253.18 1.71796 -1.10933 0
M  V30 23840 H 2251.34 3.87194 0.126406 0
M  V30 23841 H 2251.75 4.91729 -1.82491 0
M  V30 23842 H 2253.23 5.5155 -0.222754 0
M  V30 23843 H 2253.7 4.2884 0.948325 0
M  V30 23844 H 2254.31 4.19143 -0.721062 0
M  V30 23845 N 2252.62 0.576397 1.46681 0
M  V30 23846 C 2253.85 0.063084 2.07304 0
M  V30 23847 C 2254.27 -1.22977 1.42331 0
M  V30 23848 O 2253.63 -1.74128 0.504895 0
M  V30 23849 C 2253.68 -0.0958316 3.60473 0
M  V30 23850 O 2252.78 -1.15387 3.95929 0
M  V30 23851 H 2252.13 0.0599579 0.661287 0
M  V30 23852 H 2254.66 0.797544 1.88415 0
M  V30 23853 H 2254.67 -0.303999 4.06866 0
M  V30 23854 H 2253.34 0.848351 4.07156 0
M  V30 23855 H 2251.92 -0.92466 3.61254 0
M  V30 23856 N 2254.1 -1.54444 0.313841 0
M  V30 23857 C 2255.51 -1.85867 -0.176211 0
M  V30 23858 C 2255.86 -1.23563 -1.52402 0
M  V30 23859 O 2254.99 -0.538053 -2.09604 0
M  V30 23860 C 2255.58 -3.37223 -0.32651 0
M  V30 23861 C 2254.14 -3.68631 -0.760781 0
M  V30 23862 C 2253.29 -2.77026 0.123296 0
M  V30 23863 H 2256.24 -1.4943 0.534444 0
M  V30 23864 H 2256.26 -3.62418 -1.15902 0
M  V30 23865 H 2255.77 -3.8254 0.654598 0
M  V30 23866 H 2253.88 -3.28841 -1.75198 0
M  V30 23867 H 2253.99 -4.75682 -0.571269 0
M  V30 23868 H 2252.35 -2.51547 -0.399552 0
M  V30 23869 H 2253.14 -3.25166 1.10099 0
M  V30 23870 N 2255.58 -0.0418125 -1.57545 0
M  V30 23871 C 2256.53 0.935768 -2.10979 0
M  V30 23872 C 2257.5 1.31489 -1.01488 0
M  V30 23873 O 2258.68 1.406 -1.28982 0
M  V30 23874 C 2255.82 2.20855 -2.65173 0
M  V30 23875 C 2254.94 1.88475 -3.88717 0
M  V30 23876 C 2254.07 3.10143 -4.3126 0
M  V30 23877 C 2253.11 2.7364 -5.47529 0
M  V30 23878 N 2252.25 3.87972 -5.85168 0
M  V30 23879 H 2257.09 0.473197 -2.94219 0
M  V30 23880 H 2254.62 0.221956 -1.45416 0
M  V30 23881 H 2256.58 2.9532 -2.9469 0
M  V30 23882 H 2255.21 2.64706 -1.84744 0
M  V30 23883 H 2254.26 1.04199 -3.65851 0
M  V30 23884 H 2255.58 1.576 -4.73248 0
M  V30 23885 H 2254.73 3.92915 -4.6228 0
M  V30 23886 H 2253.47 3.44189 -3.45522 0
M  V30 23887 H 2252.47 1.89282 -5.1619 0
M  V30 23888 H 2253.7 2.40796 -6.34976 0
M  V30 23889 H 2251.64 4.21837 -5.02384 0
M  V30 23890 H 2251.56 3.60763 -6.64369 0
M  V30 23891 H 2252.83 4.71411 -6.20799 0
M  V30 23892 N 2257.06 1.55891 0.231477 0
M  V30 23893 C 2258.3 1.78707 0.958738 0
M  V30 23894 C 2258.64 0.609757 1.84379 0
M  V30 23895 O 2257.91 -0.391392 1.90521 0
M  V30 23896 C 2258.2 3.11529 1.80614 0
M  V30 23897 C 2258.05 4.39691 0.948251 0
M  V30 23898 C 2259.37 3.40708 2.78579 0
M  V30 23899 H 2256.49 0.650137 0.347118 0
M  V30 23900 H 2259.13 1.88624 0.228226 0
M  V30 23901 H 2257.28 3.03205 2.42897 0
M  V30 23902 H 2258.95 4.60024 0.342936 0
M  V30 23903 H 2257.19 4.3306 0.253237 0
M  V30 23904 H 2257.86 5.29044 1.57533 0
M  V30 23905 H 2260.34 3.49095 2.26433 0
M  V30 23906 H 2259.22 4.34832 3.34981 0
M  V30 23907 H 2259.48 2.62381 3.55821 0
M  V30 23908 N 2258.54 -0.497781 1.49532 0
M  V30 23909 C 2259.49 -1.59593 1.62832 0
M  V30 23910 C 2260.47 -1.53453 0.483851 0
M  V30 23911 O 2261.66 -1.60928 0.736965 0
M  V30 23912 C 2258.79 -2.98188 1.70115 0
M  V30 23913 C 2257.88 -3.09312 2.9015 0
M  V30 23914 N 2258.27 -2.90317 4.14185 0
M  V30 23915 C 2256.57 -3.40417 2.88154 0
M  V30 23916 C 2257.27 -3.05708 4.94891 0
M  V30 23917 N 2256.24 -3.34729 4.2832 0
M  V30 23918 H 2260.05 -1.43566 2.56449 0
M  V30 23919 H 2257.56 -0.703975 1.46349 0
M  V30 23920 H 2259.56 -3.77112 1.77741 0
M  V30 23921 H 2258.22 -3.15282 0.77637 0
M  V30 23922 H 2259.23 -2.66428 4.44113 0
M  V30 23923 H 2255.9 -3.63667 2.05067 0
M  V30 23924 H 2257.29 -2.95488 6.03437 0
M  V30 23925 N 2260.01 -1.38661 -0.749062 0
M  V30 23926 C 2261.43 -1.31369 -1.32662 0
M  V30 23927 C 2261.78 0.0284495 -1.96179 0
M  V30 23928 O 2260.9 0.930536 -1.95371 0
M  V30 23929 C 2261.5 -2.37909 -2.41215 0
M  V30 23930 C 2260.06 -2.34181 -2.9468 0
M  V30 23931 C 2259.2 -2.20536 -1.68104 0
M  V30 23932 H 2262.15 -1.48953 -0.547602 0
M  V30 23933 H 2262.17 -2.03886 -3.21264 0
M  V30 23934 H 2261.69 -3.3558 -1.94956 0
M  V30 23935 H 2259.79 -1.40106 -3.45255 0
M  V30 23936 H 2259.9 -3.28496 -3.48751 0
M  V30 23937 H 2258.26 -1.67466 -1.91904 0
M  V30 23938 H 2259.05 -3.20155 -1.23918 0
M  V30 23939 N 2261.49 0.977736 -1.23605 0
M  V30 23940 C 2262.44 2.09185 -1.01708 0
M  V30 23941 C 2263.44 1.69341 0.0447917 0
M  V30 23942 O 2264.64 1.7967 -0.108933 0
M  V30 23943 H 2261.02 0.684307 -0.311815 0
M  V30 23944 H 2262.99 2.24819 -1.96211 0
M  V30 23945 C 2261.74 3.41985 -0.627806 0
M  V30 23946 H 2261.06 3.73097 -1.43662 0
M  V30 23947 H 2262.5 4.20871 -0.514127 0
M  V30 23948 C 2260.96 3.30288 0.66418 0
M  V30 23949 O 2261.49 3.63363 1.71261 0
M  V30 23950 N 2259.69 2.8344 0.641106 0
M  V30 23951 H 2259.24 2.56723 -0.212422 0
M  V30 23952 H 2259.2 2.75996 1.50578 0
M  V30 23953 N 2262.97 1.04818 1.1769 0
M  V30 23954 C 2263.93 0.650156 2.19785 0
M  V30 23955 C 2264.93 -0.296399 1.58045 0
M  V30 23956 O 2266.12 -0.0807791 1.74013 0
M  V30 23957 C 2263.26 -0.0456387 3.40869 0
M  V30 23958 H 2264.45 1.55374 2.56513 0
M  V30 23959 H 2262 0.841617 1.31706 0
M  V30 23960 H 2262.74 -0.962672 3.09682 0
M  V30 23961 H 2262.52 0.634795 3.86927 0
M  V30 23962 H 2264.01 -0.310358 4.16445 0
M  V30 23963 N 2264.45 -1.34055 0.828678 0
M  V30 23964 C 2265.4 -2.29413 0.252607 0
M  V30 23965 C 2266.37 -1.53858 -0.625853 0
M  V30 23966 O 2267.55 -1.82203 -0.56628 0
M  V30 23967 C 2264.69 -3.4028 -0.574771 0
M  V30 23968 C 2263.8 -4.30764 0.326575 0
M  V30 23969 C 2262.94 -5.28737 -0.510923 0
M  V30 23970 C 2261.98 -6.1086 0.38945 0
M  V30 23971 N 2261.12 -7.00906 -0.409315 0
M  V30 23972 H 2265.96 -2.78084 1.07113 0
M  V30 23973 H 2263.49 -1.36842 0.539701 0
M  V30 23974 H 2265.45 -4.03249 -1.06985 0
M  V30 23975 H 2264.08 -2.92828 -1.35836 0
M  V30 23976 H 2263.13 -3.68605 0.939902 0
M  V30 23977 H 2264.44 -4.88288 1.01866 0
M  V30 23978 H 2263.6 -5.97186 -1.07024 0
M  V30 23979 H 2262.34 -4.71765 -1.23648 0
M  V30 23980 H 2261.34 -5.41339 0.960864 0
M  V30 23981 H 2262.57 -6.69914 1.11321 0
M  V30 23982 H 2260.51 -6.46395 -1.11845 0
M  V30 23983 H 2260.43 -7.55667 0.224259 0
M  V30 23984 H 2261.7 -7.73675 -0.9512 0
M  V30 23985 N 2265.93 -0.584167 -1.46374 0
M  V30 23986 C 2267.17 -0.070303 -2.02378 0
M  V30 23987 C 2267.5 1.2902 -1.45548 0
M  V30 23988 O 2266.76 1.85917 -0.610999 0
M  V30 23989 C 2267.06 0.0438714 -3.57373 0
M  V30 23990 C 2266.72 -1.24923 -4.3325 0
M  V30 23991 C 2265.38 -1.60349 -4.53698 0
M  V30 23992 C 2267.74 -2.10488 -4.76806 0
M  V30 23993 C 2265.06 -2.81137 -5.14955 0
M  V30 23994 C 2267.42 -3.30503 -5.39398 0
M  V30 23995 C 2266.08 -3.6621 -5.58074 0
M  V30 23996 H 2265.35 -0.0257257 -0.740553 0
M  V30 23997 H 2268 -0.761096 -1.75726 0
M  V30 23998 H 2266.3 0.817801 -3.8317 0
M  V30 23999 H 2268 0.457248 -3.98385 0
M  V30 24000 H 2264.59 -0.963437 -4.17631 0
M  V30 24001 H 2268.77 -1.84422 -4.60763 0
M  V30 24002 H 2264.03 -3.08938 -5.27605 0
M  V30 24003 H 2268.2 -3.97073 -5.72107 0
M  V30 24004 H 2265.83 -4.59896 -6.0531 0
M  V30 24005 N 2267.41 1.54275 -0.322027 0
M  V30 24006 C 2268.63 2.04955 0.283016 0
M  V30 24007 C 2269.05 1.19825 1.45902 0
M  V30 24008 O 2268.41 0.228576 1.81063 0
M  V30 24009 C 2268.46 3.54278 0.718966 0
M  V30 24010 O 2268.18 4.36175 -0.410252 0
M  V30 24011 C 2269.68 4.21044 1.38698 0
M  V30 24012 H 2266.9 0.668449 0.0584499 0
M  V30 24013 H 2269.44 1.99078 -0.467769 0
M  V30 24014 H 2267.6 3.60448 1.41973 0
M  V30 24015 H 2268.01 5.24457 -0.0670338 0
M  V30 24016 H 2269.49 5.26982 1.64297 0
M  V30 24017 H 2269.96 3.72063 2.33379 0
M  V30 24018 H 2270.57 4.19008 0.728833 0
M  V30 24019 N 2268.88 0.0501669 1.5752 0
M  V30 24020 C 2270.13 -0.623294 1.91828 0
M  V30 24021 C 2270.45 -1.72063 0.930252 0
M  V30 24022 O 2271.65 -2.45218 1.16534 0
M  V30 24023 C 2270.11 -1.15997 3.40694 0
M  V30 24024 C 2269.72 -0.0948023 4.479 0
M  V30 24025 C 2271.46 -1.80874 3.84038 0
M  V30 24026 C 2269.37 -0.644307 5.8788 0
M  V30 24027 H 2268.3 -0.236584 0.715922 0
M  V30 24028 H 2270.95 0.118893 1.83114 0
M  V30 24029 H 2269.33 -1.95444 3.44409 0
M  V30 24030 H 2270.5 0.678755 4.55774 0
M  V30 24031 H 2268.82 0.456443 4.13891 0
M  V30 24032 H 2271.42 -2.2298 4.85988 0
M  V30 24033 H 2271.76 -2.66005 3.2023 0
M  V30 24034 H 2272.29 -1.08084 3.82835 0
M  V30 24035 H 2269.03 0.169344 6.55281 0
M  V30 24036 H 2268.55 -1.38587 5.8357 0
M  V30 24037 H 2270.23 -1.12752 6.371 0
M  V30 24038 N 2270.36 -1.56011 -0.223207 0
M  V30 24039 C 2271.61 -1.78594 -0.945971 0
M  V30 24040 C 2271.93 -0.618381 -1.84935 0
M  V30 24041 O 2271.2 0.364799 -1.92473 0
M  V30 24042 H 2269.78 -0.658713 -0.352287 0
M  V30 24043 H 2272.44 -1.93472 -0.23546 0
M  V30 24044 H 2271.54 -2.70675 -1.55376 0
M  V30 24045 N 2271.84 0.489844 -1.49794 0
M  V30 24046 C 2273.07 1.26699 -1.6357 0
M  V30 24047 C 2273.48 1.86213 -0.311498 0
M  V30 24048 O 2272.84 1.68359 0.704386 0
M  V30 24049 C 2272.89 2.38924 -2.71289 0
M  V30 24050 O 2272.61 1.81854 -3.98573 0
M  V30 24051 C 2274.11 3.30115 -2.9587 0
M  V30 24052 H 2271.33 0.383871 -0.550349 0
M  V30 24053 H 2273.88 0.58683 -1.95899 0
M  V30 24054 H 2272.03 3.02749 -2.41706 0
M  V30 24055 H 2272.45 2.55614 -4.57997 0
M  V30 24056 H 2273.92 4.05114 -3.74948 0
M  V30 24057 H 2274.4 3.87779 -2.06213 0
M  V30 24058 H 2275 2.72046 -3.26912 0
M  V30 24059 N 2273.32 1.39056 0.741698 0
M  V30 24060 C 2274.55 1.39174 1.53095 0
M  V30 24061 C 2274.96 -0.0154767 1.88794 0
M  V30 24062 O 2274.32 -0.985132 1.53627 0
M  V30 24063 C 2274.37 2.25845 2.8227 0
M  V30 24064 O 2274.09 3.61086 2.4809 0
M  V30 24065 C 2275.59 2.34273 3.76339 0
M  V30 24066 H 2272.81 0.475608 0.473327 0
M  V30 24067 H 2275.35 1.82787 0.917013 0
M  V30 24068 H 2273.51 1.85662 3.40012 0
M  V30 24069 H 2273.92 4.06848 3.31021 0
M  V30 24070 H 2275.4 2.99178 4.63893 0
M  V30 24071 H 2275.87 1.35989 4.17617 0
M  V30 24072 H 2276.48 2.74896 3.24518 0
M  V30 24073 N 2274.8 -0.971167 1.24121 0
M  V30 24074 C 2275.75 -2.05018 0.997587 0
M  V30 24075 C 2276.73 -1.60789 -0.0597464 0
M  V30 24076 O 2277.92 -1.76333 0.153547 0
M  V30 24077 C 2275.05 -3.38005 0.600616 0
M  V30 24078 C 2274.14 -3.88806 1.69384 0
M  V30 24079 N 2274.53 -4.12581 2.92593 0
M  V30 24080 C 2272.83 -4.17432 1.57055 0
M  V30 24081 C 2273.53 -4.54189 3.63439 0
M  V30 24082 N 2272.5 -4.59159 2.90987 0
M  V30 24083 H 2276.3 -2.2137 1.9332 0
M  V30 24084 H 2273.82 -1.15468 1.14196 0
M  V30 24085 H 2275.82 -4.14905 0.407323 0
M  V30 24086 H 2274.48 -3.23041 -0.327846 0
M  V30 24087 H 2275.49 -4.00133 3.28807 0
M  V30 24088 H 2272.16 -4.11421 0.70987 0
M  V30 24089 H 2273.55 -4.81025 4.6911 0
M  V30 24090 N 2276.27 -1.05441 -1.17133 0
M  V30 24091 C 2277.52 -0.765975 -1.87454 0
M  V30 24092 C 2277.85 0.707121 -1.81191 0
M  V30 24093 O 2277.1 1.53307 -1.21636 0
M  V30 24094 C 2277.4 -1.19497 -3.36831 0
M  V30 24095 C 2277.07 -2.6707 -3.63297 0
M  V30 24096 C 2275.73 -3.07382 -3.70229 0
M  V30 24097 C 2278.08 -3.6242 -3.74568 0
M  V30 24098 C 2275.41 -4.41903 -3.85926 0
M  V30 24099 C 2277.76 -4.96677 -3.91784 0
M  V30 24100 C 2276.43 -5.3664 -3.96956 0
M  V30 24101 H 2275.7 -0.28029 -0.685943 0
M  V30 24102 H 2278.34 -1.32194 -1.38553 0
M  V30 24103 H 2276.65 -0.558037 -3.87806 0
M  V30 24104 H 2278.35 -0.948961 -3.8961 0
M  V30 24105 H 2274.94 -2.34853 -3.58528 0
M  V30 24106 H 2279.12 -3.32413 -3.68531 0
M  V30 24107 H 2274.38 -4.72363 -3.88179 0
M  V30 24108 H 2278.55 -5.70451 -3.99448 0
M  V30 24109 H 2276.18 -6.40881 -4.08871 0
M  V30 24110 N 2277.75 1.33613 -0.835776 0
M  V30 24111 C 2279 1.97143 -0.426324 0
M  V30 24112 C 2279.31 1.66955 1.01909 0
M  V30 24113 O 2280.52 2.24074 1.53307 0
M  V30 24114 C 2278.98 3.52799 -0.711383 0
M  V30 24115 C 2278.58 3.91867 -2.17127 0
M  V30 24116 C 2280.33 4.22896 -0.368729 0
M  V30 24117 C 2278.24 5.40489 -2.40054 0
M  V30 24118 H 2277.17 0.737753 -0.155683 0
M  V30 24119 H 2279.82 1.52276 -1.02393 0
M  V30 24120 H 2278.2 3.95976 -0.0434462 0
M  V30 24121 H 2279.37 3.59758 -2.87942 0
M  V30 24122 H 2277.69 3.34744 -2.4766 0
M  V30 24123 H 2280.28 5.32188 -0.517694 0
M  V30 24124 H 2280.63 4.10575 0.688006 0
M  V30 24125 H 2281.16 3.85239 -0.99177 0
M  V30 24126 H 2277.9 5.57809 -3.44281 0
M  V30 24127 H 2277.42 5.74069 -1.73795 0
M  V30 24128 H 2279.1 6.07336 -2.23053 0
M  V30 24129 N 2279.23 0.591922 1.46062 0
M  V30 24130 C 2280.46 0.0868039 2.06418 0
M  V30 24131 C 2280.87 -1.22748 1.43978 0
M  V30 24132 O 2280.21 -1.75505 0.542562 0
M  V30 24133 C 2280.27 -0.143662 3.59213 0
M  V30 24134 C 2279.94 1.08642 4.43898 0
M  V30 24135 C 2280.93 2.00075 4.7986 0
M  V30 24136 C 2278.62 1.31086 4.84894 0
M  V30 24137 C 2280.61 3.12292 5.55655 0
M  V30 24138 C 2278.3 2.43606 5.60446 0
M  V30 24139 C 2279.3 3.34038 5.95741 0
M  V30 24140 O 2278.99 4.44602 6.69765 0
M  V30 24141 H 2278.72 0.0587566 0.673442 0
M  V30 24142 H 2281.27 0.815027 1.88538 0
M  V30 24143 H 2279.5 -0.926602 3.75434 0
M  V30 24144 H 2281.19 -0.59843 4.01464 0
M  V30 24145 H 2281.96 1.83955 4.4876 0
M  V30 24146 H 2277.84 0.61602 4.56866 0
M  V30 24147 H 2281.38 3.82901 5.83123 0
M  V30 24148 H 2277.28 2.59685 5.9096 0
M  V30 24149 H 2278.05 4.43085 6.88199 0
M  V30 24150 N 2280.71 -1.54102 0.330204 0
M  V30 24151 C 2281.93 -2.05571 -0.274857 0
M  V30 24152 C 2282.36 -1.20439 -1.44485 0
M  V30 24153 O 2281.72 -0.215023 -1.8002 0
M  V30 24154 C 2281.76 -3.54116 -0.680727 0
M  V30 24155 O 2280.87 -3.71896 -1.78234 0
M  V30 24156 H 2280.21 -0.662236 -0.0483732 0
M  V30 24157 H 2282.74 -1.98877 0.480543 0
M  V30 24158 H 2282.75 -3.96507 -0.961565 0
M  V30 24159 H 2281.42 -4.15532 0.174976 0
M  V30 24160 H 2280 -3.4141 -1.49979 0
M  V30 24161 N 2282.19 -0.0585199 -1.57491 0
M  V30 24162 C 2283.13 0.931131 -2.1315 0
M  V30 24163 C 2284.13 1.31728 -1.06509 0
M  V30 24164 O 2285.33 1.29607 -1.24908 0
M  V30 24165 H 2281.71 0.318168 -0.681376 0
M  V30 24166 H 2283.68 0.436655 -2.95188 0
M  V30 24167 C 2282.43 2.19404 -2.69736 0
M  V30 24168 H 2281.75 1.90572 -3.51458 0
M  V30 24169 H 2283.19 2.86792 -3.12292 0
M  V30 24170 C 2281.65 2.94366 -1.6386 0
M  V30 24171 O 2282.18 3.87579 -1.05572 0
M  V30 24172 N 2280.39 2.5723 -1.35207 0
M  V30 24173 H 2279.93 1.81505 -1.82794 0
M  V30 24174 H 2279.89 3.07692 -0.645976 0
M  V30 24175 N 2283.66 1.56128 0.21493 0
M  V30 24176 C 2284.59 1.95976 1.26947 0
M  V30 24177 C 2285.58 0.828894 1.48537 0
M  V30 24178 O 2286.76 1.09171 1.60609 0
M  V30 24179 C 2283.89 2.28218 2.6179 0
M  V30 24180 C 2282.84 3.43858 2.54845 0
M  V30 24181 C 2282.17 3.61722 3.93778 0
M  V30 24182 C 2283.47 4.78636 2.09057 0
M  V30 24183 H 2285.16 2.84314 0.93841 0
M  V30 24184 H 2282.71 1.36789 0.449972 0
M  V30 24185 H 2284.66 2.54688 3.35726 0
M  V30 24186 H 2283.39 1.36741 2.96596 0
M  V30 24187 H 2282.05 3.17447 1.83365 0
M  V30 24188 H 2281.69 2.6761 4.25904 0
M  V30 24189 H 2281.39 4.39505 3.90012 0
M  V30 24190 H 2282.92 3.90547 4.69367 0
M  V30 24191 H 2284.33 5.04267 2.72741 0
M  V30 24192 H 2282.73 5.59749 2.16336 0
M  V30 24193 H 2283.8 4.73549 1.04306 0
M  V30 24194 N 2285.14 -0.481893 1.50052 0
M  V30 24195 C 2286.07 -1.58948 1.71049 0
M  V30 24196 C 2287.05 -1.60641 0.559316 0
M  V30 24197 O 2288.24 -1.7708 0.797274 0
M  V30 24198 C 2285.37 -2.97336 1.79467 0
M  V30 24199 C 2284.32 -3.1051 2.94563 0
M  V30 24200 C 2283.65 -4.50439 2.88113 0
M  V30 24201 C 2284.95 -2.88739 4.35232 0
M  V30 24202 H 2286.64 -1.41631 2.63782 0
M  V30 24203 H 2284.19 -0.67992 1.26937 0
M  V30 24204 H 2286.14 -3.74738 1.92741 0
M  V30 24205 H 2284.87 -3.15786 0.833467 0
M  V30 24206 H 2283.52 -2.35538 2.80923 0
M  V30 24207 H 2283.17 -4.65791 1.89861 0
M  V30 24208 H 2282.87 -4.6019 3.65375 0
M  V30 24209 H 2284.4 -5.29875 3.03421 0
M  V30 24210 H 2285.81 -3.55898 4.49455 0
M  V30 24211 H 2284.21 -3.09946 5.13862 0
M  V30 24212 H 2285.28 -1.84688 4.48351 0
M  V30 24213 N 2286.62 -1.39448 -0.734313 0
M  V30 24214 C 2287.57 -1.34713 -1.83947 0
M  V30 24215 C 2288.55 -0.227879 -1.59278 0
M  V30 24216 O 2289.75 -0.465468 -1.7077 0
M  V30 24217 C 2286.88 -1.19362 -3.21881 0
M  V30 24218 C 2285.96 -2.3599 -3.52377 0
M  V30 24219 N 2286.35 -3.61464 -3.53805 0
M  V30 24220 C 2284.65 -2.28962 -3.82743 0
M  V30 24221 C 2285.35 -4.38592 -3.82115 0
M  V30 24222 N 2284.33 -3.68188 -3.99923 0
M  V30 24223 H 2288.13 -2.2969 -1.83357 0
M  V30 24224 H 2285.64 -1.32953 -0.932586 0
M  V30 24225 H 2287.64 -1.14053 -4.00996 0
M  V30 24226 H 2286.3 -0.253352 -3.2371 0
M  V30 24227 H 2287.31 -3.94878 -3.351 0
M  V30 24228 H 2283.99 -1.43201 -3.92173 0
M  V30 24229 H 2285.38 -5.47356 -3.89681 0
M  V30 24230 N 2288.1 0.964571 -1.24635 0
M  V30 24231 C 2289.32 1.74816 -1.11599 0
M  V30 24232 C 2289.75 1.85232 0.327197 0
M  V30 24233 O 2289.11 1.32552 1.23692 0
M  V30 24234 C 2289.15 3.14507 -1.76402 0
M  V30 24235 O 2288.26 3.99151 -1.03692 0
M  V30 24236 H 2287.6 0.537248 -0.390205 0
M  V30 24237 H 2290.13 1.20974 -1.65004 0
M  V30 24238 H 2290.14 3.65015 -1.82286 0
M  V30 24239 H 2288.81 3.06241 -2.81406 0
M  V30 24240 H 2287.39 3.5763 -1.05617 0
M  V30 24241 N 2289.58 1.0606 1.16572 0
M  V30 24242 C 2290.8 0.796585 1.90951 0
M  V30 24243 C 2291.22 -0.648777 1.77303 0
M  V30 24244 O 2290.58 -1.44395 1.11607 0
M  V30 24245 C 2290.63 1.179 3.41734 0
M  V30 24246 O 2290.35 2.56764 3.5497 0
M  V30 24247 C 2291.85 0.942384 4.33167 0
M  V30 24248 H 2289.07 0.28897 0.605589 0
M  V30 24249 H 2291.61 1.41361 1.47775 0
M  V30 24250 H 2289.77 0.606558 3.82622 0
M  V30 24251 H 2290.18 2.72008 4.48455 0
M  V30 24252 H 2291.66 1.25961 5.37436 0
M  V30 24253 H 2292.13 -0.122001 4.39031 0
M  V30 24254 H 2292.74 1.49909 3.98004 0
M  V30 24255 N 2291.06 -1.33168 0.84285 0
M  V30 24256 C 2292.47 -1.79972 0.496682 0
M  V30 24257 C 2292.82 -1.69705 -0.984611 0
M  V30 24258 O 2291.94 -1.24866 -1.76741 0
M  V30 24259 C 2292.54 -3.26771 0.894784 0
M  V30 24260 C 2291.1 -3.71576 0.600695 0
M  V30 24261 C 2290.24 -2.54508 1.10095 0
M  V30 24262 H 2293.19 -1.20633 1.03118 0
M  V30 24263 H 2293.22 -3.7994 0.206414 0
M  V30 24264 H 2292.73 -3.34211 1.97293 0
M  V30 24265 H 2290.83 -3.69659 -0.467219 0
M  V30 24266 H 2290.94 -4.64877 1.15872 0
M  V30 24267 H 2289.31 -2.49301 0.521664 0
M  V30 24268 H 2290.09 -2.64709 2.18596 0
M  V30 24269 N 2292.53 -0.599659 -1.45746 0
M  V30 24270 C 2293.47 0.172512 -2.27547 0
M  V30 24271 C 2294.44 0.881092 -1.36658 0
M  V30 24272 O 2295.63 0.891566 -1.66082 0
M  V30 24273 C 2292.76 1.24897 -3.14831 0
M  V30 24274 C 2291.8 0.644391 -4.21604 0
M  V30 24275 S 2292.63 -0.5417 -5.32753 0
M  V30 24276 C 2293.79 0.535546 -6.23605 0
M  V30 24277 H 2294.02 -0.52152 -2.9269 0
M  V30 24278 H 2291.56 -0.386973 -1.49472 0
M  V30 24279 H 2293.51 1.8652 -3.65678 0
M  V30 24280 H 2292.18 1.91504 -2.48968 0
M  V30 24281 H 2291.37 1.45408 -4.82569 0
M  V30 24282 H 2290.97 0.103469 -3.73857 0
M  V30 24283 H 2293.26 1.41675 -6.62521 0
M  V30 24284 H 2294.21 -0.0377491 -7.0809 0
M  V30 24285 H 2294.61 0.847312 -5.58105 0
M  V30 24286 N 2294.01 1.53925 -0.338371 0
M  V30 24287 C 2295.42 1.86123 0.146619 0
M  V30 24288 C 2295.77 1.25972 1.50417 0
M  V30 24289 O 2294.9 0.571331 2.08722 0
M  V30 24290 C 2295.49 3.377 0.27282 0
M  V30 24291 C 2294.05 3.69795 0.702038 0
M  V30 24292 C 2293.2 2.76795 -0.167352 0
M  V30 24293 H 2296.15 1.48561 -0.558149 0
M  V30 24294 H 2296.17 3.64216 1.10121 0
M  V30 24295 H 2295.68 3.8145 -0.715374 0
M  V30 24296 H 2293.78 3.31587 1.69944 0
M  V30 24297 H 2293.9 4.76531 0.49552 0
M  V30 24298 H 2292.26 2.5215 0.359483 0
M  V30 24299 H 2293.04 3.23373 -1.15258 0
M  V30 24300 N 2295.49 0.0668712 1.57458 0
M  V30 24301 C 2296.45 -0.887385 2.11325 0
M  V30 24302 C 2297.45 -1.22962 1.0362 0
M  V30 24303 O 2298.64 -1.16371 1.29628 0
M  V30 24304 C 2295.77 -2.19237 2.61051 0
M  V30 24305 H 2296.97 -0.420142 2.96942 0
M  V30 24306 H 2294.52 -0.181765 1.5524 0
M  V30 24307 H 2295.26 -2.70509 1.78873 0
M  V30 24308 H 2295.04 -1.95696 3.39773 0
M  V30 24309 H 2296.53 -2.87559 3.02819 0
M  V30 24310 N 2296.97 -1.56239 -0.206647 0
M  V30 24311 C 2297.9 -1.96647 -1.25906 0
M  V30 24312 C 2298.88 -0.83676 -1.48096 0
M  V30 24313 O 2300.06 -1.10021 -1.60028 0
M  V30 24314 C 2297.19 -2.29603 -2.60576 0
M  V30 24315 C 2296.15 -3.45204 -2.53018 0
M  V30 24316 C 2295.47 -3.63805 -3.91854 0
M  V30 24317 C 2296.77 -4.79738 -2.06516 0
M  V30 24318 H 2298.47 -2.84807 -0.923319 0
M  V30 24319 H 2296.01 -1.37026 -0.442711 0
M  V30 24320 H 2297.97 -2.56464 -3.34371 0
M  V30 24321 H 2296.69 -1.38312 -2.95867 0
M  V30 24322 H 2295.35 -3.18415 -1.81679 0
M  V30 24323 H 2295 -2.69865 -4.24479 0
M  V30 24324 H 2294.7 -4.41567 -3.87675 0
M  V30 24325 H 2296.22 -3.93031 -4.67289 0
M  V30 24326 H 2297.64 -5.05706 -2.70063 0
M  V30 24327 H 2296.03 -5.60888 -2.13364 0
M  V30 24328 H 2297.1 -4.74095 -1.01793 0
M  V30 24329 N 2298.45 0.473929 -1.50305 0
M  V30 24330 C 2299.67 1.24957 -1.64904 0
M  V30 24331 C 2300.09 1.85872 -0.331231 0
M  V30 24332 O 2299.45 1.69096 0.68649 0
M  V30 24333 C 2299.5 2.36033 -2.73807 0
M  V30 24334 O 2299.22 1.77617 -4.0048 0
M  V30 24335 C 2300.72 3.26958 -2.99354 0
M  V30 24336 H 2297.94 0.378013 -0.554389 0
M  V30 24337 H 2300.48 0.566019 -1.96511 0
M  V30 24338 H 2298.64 3.00169 -2.44903 0
M  V30 24339 H 2299.05 2.50742 -4.60683 0
M  V30 24340 H 2300.53 4.01115 -3.79224 0
M  V30 24341 H 2301 3.8557 -2.10314 0
M  V30 24342 H 2301.61 2.68563 -3.29779 0
M  V30 24343 N 2299.92 1.39835 0.726907 0
M  V30 24344 C 2301.15 1.4079 1.51611 0
M  V30 24345 C 2301.57 0.00454824 1.88799 0
M  V30 24346 O 2300.92 -0.968782 1.54664 0
M  V30 24347 C 2300.97 2.28826 2.79859 0
M  V30 24348 O 2300.7 3.63697 2.44247 0
M  V30 24349 C 2302.2 2.38251 3.73833 0
M  V30 24350 H 2299.42 0.480602 0.468255 0
M  V30 24351 H 2301.96 1.83749 0.897575 0
M  V30 24352 H 2300.12 1.89258 3.38024 0
M  V30 24353 H 2300.53 4.10336 3.26688 0
M  V30 24354 H 2302 3.04081 4.60693 0
M  V30 24355 H 2302.48 1.40411 4.16151 0
M  V30 24356 H 2303.09 2.78323 3.21584 0
M  V30 24357 N 2301.4 -0.957948 1.25144 0
M  V30 24358 C 2302.65 -1.70467 1.09858 0
M  V30 24359 C 2302.98 -1.90831 -0.360153 0
M  V30 24360 O 2302.26 -1.47687 -1.26565 0
M  V30 24361 C 2302.54 -3.0896 1.84975 0
M  V30 24362 C 2302.39 -2.96026 3.38657 0
M  V30 24363 C 2303.71 -4.08793 1.63024 0
M  V30 24364 H 2300.83 -0.618699 0.400476 0
M  V30 24365 H 2303.47 -1.11373 1.53935 0
M  V30 24366 H 2301.62 -3.59406 1.47511 0
M  V30 24367 H 2303.29 -2.52931 3.85777 0
M  V30 24368 H 2301.54 -2.32018 3.66538 0
M  V30 24369 H 2302.21 -3.94181 3.86427 0
M  V30 24370 H 2304.68 -3.67243 1.95631 0
M  V30 24371 H 2303.56 -5.03743 2.18024 0
M  V30 24372 H 2303.82 -4.384 0.570769 0
M  V30 24373 N 2302.88 -1.06677 -1.16008 0
M  V30 24374 C 2303.83 -0.681006 -2.20524 0
M  V30 24375 C 2304.8 0.324255 -1.62904 0
M  V30 24376 O 2305.98 0.21226 -1.89616 0
M  V30 24377 C 2303.12 -0.0777158 -3.45012 0
M  V30 24378 C 2302.23 -1.13362 -4.16861 0
M  V30 24379 C 2301.37 -0.496063 -5.28879 0
M  V30 24380 C 2300.41 -1.53524 -5.92534 0
M  V30 24381 N 2299.55 -0.920754 -6.96036 0
M  V30 24382 H 2304.39 -1.57667 -2.52874 0
M  V30 24383 H 2301.92 -0.788245 -1.24198 0
M  V30 24384 H 2303.88 0.28963 -4.16193 0
M  V30 24385 H 2302.51 0.781338 -3.13201 0
M  V30 24386 H 2301.56 -1.61863 -3.44245 0
M  V30 24387 H 2302.87 -1.92182 -4.6029 0
M  V30 24388 H 2302.03 -0.0759671 -6.06652 0
M  V30 24389 H 2300.77 0.323976 -4.86623 0
M  V30 24390 H 2299.77 -1.96519 -5.13479 0
M  V30 24391 H 2301 -2.35744 -6.36869 0
M  V30 24392 H 2298.94 -0.121495 -6.55887 0
M  V30 24393 H 2298.86 -1.64629 -7.37857 0
M  V30 24394 H 2300.13 -0.525932 -7.77724 0
M  V30 24395 N 2304.36 1.32719 -0.8499 0
M  V30 24396 C 2305.58 2.02146 -0.463891 0
M  V30 24397 C 2306.01 1.63477 0.93042 0
M  V30 24398 O 2305.37 0.83298 1.61031 0
M  V30 24399 C 2305.41 3.55488 -0.605017 0
M  V30 24400 O 2304.52 4.10789 0.364177 0
M  V30 24401 H 2303.86 0.637107 -0.187057 0
M  V30 24402 H 2306.39 1.69373 -1.14778 0
M  V30 24403 H 2306.4 4.05038 -0.490767 0
M  V30 24404 H 2305.07 3.82976 -1.6218 0
M  V30 24405 H 2303.65 3.72327 0.206563 0
M  V30 24406 N 2305.84 0.60738 1.45426 0
M  V30 24407 C 2306.77 -0.149711 2.28711 0
M  V30 24408 C 2307.78 -0.831933 1.39938 0
M  V30 24409 O 2308.97 -0.697356 1.64314 0
M  V30 24410 C 2306.07 -1.23299 3.15675 0
M  V30 24411 C 2305.24 -0.63792 4.32723 0
M  V30 24412 C 2304.3 -1.61206 5.00898 0
M  V30 24413 O 2303.33 -1.13844 5.57699 0
M  V30 24414 N 2304.53 -2.94646 5.00164 0
M  V30 24415 H 2307.3 0.564934 2.94327 0
M  V30 24416 H 2304.86 0.446851 1.55611 0
M  V30 24417 H 2306.85 -1.88447 3.58148 0
M  V30 24418 H 2305.42 -1.85016 2.51968 0
M  V30 24419 H 2304.64 0.191641 3.93734 0
M  V30 24420 H 2305.93 -0.220575 5.08322 0
M  V30 24421 H 2305.32 -3.35727 4.55306 0
M  V30 24422 H 2303.88 -3.55218 5.46501 0
M  V30 24423 N 2307.31 -1.53743 0.34653 0
M  V30 24424 C 2308.26 -2.26617 -0.52418 0
M  V30 24425 C 2309.26 -1.28873 -1.09946 0
M  V30 24426 O 2310.46 -1.4657 -1.04485 0
M  V30 24427 H 2306.84 -0.728191 -0.18773 0
M  V30 24428 H 2308.81 -2.98188 0.112442 0
M  V30 24429 C 2307.56 -3.05417 -1.6618 0
M  V30 24430 H 2306.88 -3.8046 -1.22841 0
M  V30 24431 H 2308.32 -3.59616 -2.24615 0
M  V30 24432 C 2306.78 -2.15095 -2.59299 0
M  V30 24433 O 2307.31 -1.74902 -3.61624 0
M  V30 24434 N 2305.52 -1.80114 -2.28051 0
M  V30 24435 H 2305.06 -2.12997 -1.44879 0
M  V30 24436 H 2305.02 -1.19964 -2.90613 0
M  V30 24437 N 2308.79 -0.0752207 -1.5742 0
M  V30 24438 C 2310.02 0.60548 -1.98365 0
M  V30 24439 C 2310.44 1.62147 -0.953412 0
M  V30 24440 O 2309.8 1.81121 0.0805734 0
M  V30 24441 C 2309.85 1.2475 -3.38334 0
M  V30 24442 O 2308.95 2.36336 -3.37963 0
M  V30 24443 H 2308.29 0.155417 -0.645555 0
M  V30 24444 H 2310.82 -0.15075 -2.04044 0
M  V30 24445 H 2310.83 1.59353 -3.75594 0
M  V30 24446 H 2309.51 0.503056 -4.12846 0
M  V30 24447 H 2308.09 2.03501 -3.12477 0
M  V30 24448 N 2310.27 1.56347 0.198358 0
M  V30 24449 C 2311.22 1.94286 1.24585 0
M  V30 24450 C 2312.19 0.803022 1.45399 0
M  V30 24451 O 2313.37 1.0609 1.58586 0
M  V30 24452 C 2310.51 2.28486 2.58627 0
M  V30 24453 C 2309.63 3.55518 2.4542 0
M  V30 24454 C 2308.76 3.79055 3.72143 0
M  V30 24455 C 2307.8 4.99524 3.53754 0
M  V30 24456 N 2306.94 5.19332 4.72482 0
M  V30 24457 H 2311.78 2.83595 0.915307 0
M  V30 24458 H 2309.31 1.40346 0.440604 0
M  V30 24459 H 2311.27 2.4633 3.36715 0
M  V30 24460 H 2309.9 1.42322 2.89731 0
M  V30 24461 H 2308.95 3.45739 1.58646 0
M  V30 24462 H 2310.27 4.43762 2.27764 0
M  V30 24463 H 2309.42 3.97121 4.58672 0
M  V30 24464 H 2308.16 2.89135 3.92749 0
M  V30 24465 H 2307.16 4.81384 2.65611 0
M  V30 24466 H 2308.39 5.9095 3.34597 0
M  V30 24467 H 2306.33 4.32359 4.93358 0
M  V30 24468 H 2306.25 6.01749 4.57639 0
M  V30 24469 H 2307.52 5.41853 5.60371 0
M  V30 24470 N 2311.75 -0.465951 1.50554 0
M  V30 24471 C 2312.68 -1.57125 1.72725 0
M  V30 24472 C 2313.66 -1.60039 0.576322 0
M  V30 24473 O 2314.84 -1.76224 0.816011 0
M  V30 24474 C 2311.97 -2.95416 1.82611 0
M  V30 24475 C 2310.93 -3.07368 2.9784 0
M  V30 24476 C 2310.25 -4.47357 2.92875 0
M  V30 24477 C 2311.55 -2.84106 4.3827 0
M  V30 24478 H 2313.25 -1.38825 2.6527 0
M  V30 24479 H 2310.79 -0.666418 1.27651 0
M  V30 24480 H 2312.75 -3.72673 1.96705 0
M  V30 24481 H 2311.47 -3.14884 0.866914 0
M  V30 24482 H 2310.13 -2.32545 2.83405 0
M  V30 24483 H 2309.78 -4.63752 1.94791 0
M  V30 24484 H 2309.48 -4.56289 3.70235 0
M  V30 24485 H 2311 -5.26627 3.09024 0
M  V30 24486 H 2312.42 -3.5111 4.53205 0
M  V30 24487 H 2310.81 -3.04478 5.1712 0
M  V30 24488 H 2311.88 -1.79923 4.50284 0
M  V30 24489 N 2313.23 -1.40218 -0.719481 0
M  V30 24490 C 2314.45 -1.41592 -1.50862 0
M  V30 24491 C 2314.87 -0.0145607 -1.88794 0
M  V30 24492 O 2314.23 0.960566 -1.55175 0
M  V30 24493 C 2314.28 -2.30307 -2.78641 0
M  V30 24494 O 2314 -3.64987 -2.42314 0
M  V30 24495 C 2315.5 -2.4023 -3.72564 0
M  V30 24496 H 2312.72 -0.483078 -0.4657 0
M  V30 24497 H 2315.26 -1.84223 -0.887817 0
M  V30 24498 H 2313.42 -1.91048 -3.37015 0
M  V30 24499 H 2313.83 -4.12062 -3.24507 0
M  V30 24500 H 2315.31 -3.0652 -4.59074 0
M  V30 24501 H 2315.78 -1.42616 -4.154 0
M  V30 24502 H 2316.39 -2.80024 -3.20104 0
M  V30 24503 N 2314.7 0.951297 -1.25651 0
M  V30 24504 C 2316.12 1.51104 -1.09656 0
M  V30 24505 C 2316.47 1.93463 0.326581 0
M  V30 24506 O 2315.59 1.7894 1.21694 0
M  V30 24507 C 2316.19 2.74602 -1.98442 0
M  V30 24508 C 2314.75 3.26877 -1.86623 0
M  V30 24509 C 2313.89 1.99699 -1.92394 0
M  V30 24510 H 2316.84 0.767841 -1.38888 0
M  V30 24511 H 2316.86 3.48543 -1.52636 0
M  V30 24512 H 2316.38 2.43741 -3.02013 0
M  V30 24513 H 2314.48 3.62552 -0.859485 0
M  V30 24514 H 2314.59 3.94668 -2.71614 0
M  V30 24515 H 2312.95 2.15148 -1.36321 0
M  V30 24516 H 2313.74 1.71183 -2.97576 0
M  V30 24517 N 2316.18 1.07291 1.1544 0
M  V30 24518 C 2317.41 0.816861 1.90636 0
M  V30 24519 C 2317.83 -0.624052 1.77446 0
M  V30 24520 O 2317.19 -1.436 1.10674 0
M  V30 24521 C 2317.24 1.22912 3.39006 0
M  V30 24522 O 2316.34 0.374047 4.107 0
M  V30 24523 H 2315.68 0.297649 0.59355 0
M  V30 24524 H 2318.21 1.43136 1.46196 0
M  V30 24525 H 2318.22 1.20504 3.89798 0
M  V30 24526 H 2316.9 2.27862 3.47925 0
M  V30 24527 H 2315.48 0.460564 3.70045 0
M  V30 24528 N 2317.66 -1.32267 0.856927 0
M  V30 24529 C 2319.07 -1.79435 0.515743 0
M  V30 24530 C 2319.42 -1.7074 -0.966556 0
M  V30 24531 O 2318.55 -1.26734 -1.75407 0
M  V30 24532 C 2319.14 -3.25803 0.929392 0
M  V30 24533 C 2317.7 -3.70918 0.640071 0
M  V30 24534 C 2316.85 -2.53326 1.12789 0
M  V30 24535 H 2319.8 -1.19533 1.04391 0
M  V30 24536 H 2319.82 -3.79699 0.2467 0
M  V30 24537 H 2319.33 -3.321 2.00827 0
M  V30 24538 H 2317.43 -3.70134 -0.427986 0
M  V30 24539 H 2317.55 -4.63622 1.20796 0
M  V30 24540 H 2315.91 -2.48733 0.548076 0
M  V30 24541 H 2316.69 -2.62375 2.21391 0
M  V30 24542 N 2319.14 -0.615084 -1.45102 0
M  V30 24543 C 2320.38 -0.12184 -2.03035 0
M  V30 24544 C 2320.74 1.23662 -1.47396 0
M  V30 24545 O 2320.03 1.80521 -0.642092 0
M  V30 24546 C 2320.23 -0.0319426 -3.57386 0
M  V30 24547 C 2320.06 -1.38014 -4.27998 0
M  V30 24548 C 2318.83 -1.96279 -4.65621 0
M  V30 24549 C 2321.02 -2.31055 -4.59476 0
M  V30 24550 N 2319.01 -3.24501 -5.21126 0
M  V30 24551 C 2320.38 -3.43881 -5.15894 0
M  V30 24552 C 2322.43 -2.30334 -4.41419 0
M  V30 24553 C 2321.13 -4.5616 -5.56157 0
M  V30 24554 C 2323.16 -3.41666 -4.8272 0
M  V30 24555 C 2322.52 -4.53214 -5.39237 0
M  V30 24556 H 2318.62 -0.0881296 -0.777018 0
M  V30 24557 H 2321.21 -0.815075 -1.76818 0
M  V30 24558 H 2319.38 0.630531 -3.83248 0
M  V30 24559 H 2321.11 0.468651 -4.01977 0
M  V30 24560 H 2317.86 -1.494 -4.49418 0
M  V30 24561 H 2318.29 -3.90013 -5.5337 0
M  V30 24562 H 2322.93 -1.4535 -3.97031 0
M  V30 24563 H 2320.65 -5.41864 -5.99507 0
M  V30 24564 H 2324.23 -3.42265 -4.70474 0
M  V30 24565 H 2323.11 -5.37939 -5.70606 0
M  V30 24566 N 2320.62 1.53557 -0.354678 0
M  V30 24567 C 2321.58 2.2402 0.484526 0
M  V30 24568 C 2322.58 1.24424 1.01859 0
M  V30 24569 O 2323.77 1.48782 0.906071 0
M  V30 24570 C 2320.9 2.9685 1.6761 0
M  V30 24571 H 2322.1 2.9961 -0.131895 0
M  V30 24572 H 2319.65 1.55939 -0.106193 0
M  V30 24573 H 2320.38 2.25475 2.33091 0
M  V30 24574 H 2320.17 3.69914 1.30023 0
M  V30 24575 H 2321.66 3.50445 2.27108 0
M  V30 24576 N 2322.1 0.083568 1.57378 0
M  V30 24577 C 2323.01 -0.893982 2.16899 0
M  V30 24578 C 2324.02 -1.31859 1.13531 0
M  V30 24579 O 2325.2 -1.38887 1.4585 0
M  V30 24580 C 2322.26 -2.13921 2.72835 0
M  V30 24581 C 2321.32 -1.7699 3.91118 0
M  V30 24582 C 2320.56 -2.95576 4.44377 0
M  V30 24583 O 2320.78 -4.09954 3.96603 0
M  V30 24584 O 2319.71 -2.7471 5.35554 0
M  V30 24585 H 2323.54 -0.417626 3.00815 0
M  V30 24586 H 2321.12 -0.140155 1.48741 0
M  V30 24587 H 2323.01 -2.86919 3.08635 0
M  V30 24588 H 2321.68 -2.60631 1.91972 0
M  V30 24589 H 2320.59 -1.01208 3.6015 0
M  V30 24590 H 2321.92 -1.35052 4.73309 0
M  V30 24591 N 2323.57 -1.5645 -0.190064 0
M  V30 24592 C 2324.52 -1.9584 -1.25498 0
M  V30 24593 C 2325.52 -0.844511 -1.46848 0
M  V30 24594 O 2326.72 -1.02954 -1.4765 0
M  V30 24595 H 2323.1 -0.622813 -0.421436 0
M  V30 24596 H 2325.07 -2.84637 -0.895771 0
M  V30 24597 C 2323.82 -2.31845 -2.5912 0
M  V30 24598 H 2323.14 -3.17087 -2.43508 0
M  V30 24599 H 2324.58 -2.63266 -3.32366 0
M  V30 24600 C 2323.04 -1.15492 -3.16486 0
M  V30 24601 O 2323.57 -0.432605 -3.99364 0
M  V30 24602 N 2321.77 -0.930397 -2.75303 0
M  V30 24603 H 2321.32 -1.51952 -2.08011 0
M  V30 24604 H 2321.28 -0.153689 -3.14024 0
M  V30 24605 N 2325.05 0.45796 -1.50799 0
M  V30 24606 C 2325.98 1.57208 -1.66788 0
M  V30 24607 C 2327 1.53264 -0.548989 0
M  V30 24608 O 2328.19 1.58414 -0.822628 0
M  V30 24609 C 2325.29 2.9611 -1.64839 0
M  V30 24610 C 2324.46 3.24782 -2.92977 0
M  V30 24611 C 2323.52 4.43304 -2.83493 0
M  V30 24612 O 2322.54 4.42967 -3.57448 0
M  V30 24613 N 2323.75 5.45711 -1.97939 0
M  V30 24614 H 2326.51 1.43904 -2.62891 0
M  V30 24615 H 2324.07 0.646591 -1.48428 0
M  V30 24616 H 2326.06 3.73387 -1.5609 0
M  V30 24617 H 2324.63 3.03116 -0.764171 0
M  V30 24618 H 2323.85 2.35995 -3.15753 0
M  V30 24619 H 2325.14 3.40756 -3.7784 0
M  V30 24620 H 2324.54 5.48812 -1.37192 0
M  V30 24621 H 2323.1 6.21921 -1.95084 0
M  V30 24622 N 2326.53 1.40598 0.712035 0
M  V30 24623 C 2327.78 1.39068 1.47195 0
M  V30 24624 C 2328.1 -0.00580472 1.94499 0
M  V30 24625 O 2327.36 -0.990991 1.68754 0
M  V30 24626 C 2327.66 2.3297 2.71035 0
M  V30 24627 C 2327.32 3.80152 2.42477 0
M  V30 24628 C 2325.99 4.20251 2.34399 0
M  V30 24629 C 2328.34 4.73147 2.1859 0
M  V30 24630 C 2325.67 5.51375 2.00506 0
M  V30 24631 C 2328.02 6.04573 1.86209 0
M  V30 24632 C 2326.68 6.43711 1.76615 0
M  V30 24633 H 2325.95 0.508886 0.538625 0
M  V30 24634 H 2328.6 1.73278 0.815294 0
M  V30 24635 H 2326.9 1.91957 3.41555 0
M  V30 24636 H 2328.6 2.29067 3.29134 0
M  V30 24637 H 2325.19 3.48384 2.49652 0
M  V30 24638 H 2329.38 4.42983 2.23785 0
M  V30 24639 H 2324.63 5.80597 1.91618 0
M  V30 24640 H 2328.81 6.76144 1.6674 0
M  V30 24641 H 2326.43 7.4523 1.5012 0
M  V30 24642 N 2328.01 -0.94462 1.26153 0
M  V30 24643 C 2329.25 -1.69344 1.12668 0
M  V30 24644 C 2329.61 -1.89596 -0.327267 0
M  V30 24645 O 2328.9 -1.46306 -1.23714 0
M  V30 24646 C 2329.1 -3.07265 1.82547 0
M  V30 24647 C 2328.92 -3.00469 3.34587 0
M  V30 24648 C 2327.69 -3.03674 4.03869 0
M  V30 24649 C 2329.89 -2.80869 4.30833 0
M  V30 24650 N 2327.87 -2.87141 5.42608 0
M  V30 24651 C 2329.25 -2.7287 5.56724 0
M  V30 24652 C 2331.3 -2.65626 4.21126 0
M  V30 24653 C 2330 -2.51184 6.74017 0
M  V30 24654 C 2332.03 -2.45313 5.38122 0
M  V30 24655 C 2331.39 -2.38043 6.62959 0
M  V30 24656 H 2327.49 -0.627205 0.467052 0
M  V30 24657 H 2330.07 -1.11812 1.59393 0
M  V30 24658 H 2328.25 -3.62942 1.38302 0
M  V30 24659 H 2329.98 -3.70986 1.61715 0
M  V30 24660 H 2326.73 -3.13253 3.55203 0
M  V30 24661 H 2327.16 -2.82052 6.15448 0
M  V30 24662 H 2331.8 -2.70015 3.25348 0
M  V30 24663 H 2329.52 -2.45536 7.69895 0
M  V30 24664 H 2333.1 -2.34429 5.32479 0
M  V30 24665 H 2331.98 -2.22533 7.51963 0
M  V30 24666 N 2329.49 -1.07901 -1.1487 0
M  V30 24667 C 2330.44 -0.674065 -2.17808 0
M  V30 24668 C 2331.42 0.303671 -1.58008 0
M  V30 24669 O 2332.61 0.116509 -1.76616 0
M  V30 24670 C 2329.74 -0.0793921 -3.43208 0
M  V30 24671 C 2328.83 -1.08261 -4.10049 0
M  V30 24672 N 2329.22 -2.26418 -4.52293 0
M  V30 24673 C 2327.52 -0.917201 -4.36467 0
M  V30 24674 C 2328.22 -2.90109 -5.04194 0
M  V30 24675 N 2327.19 -2.17745 -4.98085 0
M  V30 24676 H 2330.99 -1.57391 -2.48204 0
M  V30 24677 H 2328.51 -0.952999 -1.31498 0
M  V30 24678 H 2330.51 0.228646 -4.16273 0
M  V30 24679 H 2329.17 0.815495 -3.14292 0
M  V30 24680 H 2330.18 -2.64104 -4.45499 0
M  V30 24681 H 2326.85 -0.0756812 -4.17431 0
M  V30 24682 H 2328.24 -3.90468 -5.46795 0
M  V30 24683 N 2330.96 1.31811 -0.863929 0
M  V30 24684 C 2331.91 2.28663 -0.313343 0
M  V30 24685 C 2332.88 1.55463 0.584841 0
M  V30 24686 O 2334.07 1.8364 0.517773 0
M  V30 24687 C 2331.21 3.41684 0.48435 0
M  V30 24688 C 2330.32 4.29747 -0.440669 0
M  V30 24689 C 2329.45 5.29906 0.370558 0
M  V30 24690 C 2328.49 6.09613 -0.551272 0
M  V30 24691 N 2327.63 7.01745 0.223339 0
M  V30 24692 H 2332.47 2.75146 -1.14449 0
M  V30 24693 H 2330.01 1.35363 -0.575793 0
M  V30 24694 H 2331.96 4.05944 0.962555 0
M  V30 24695 H 2330.59 2.96327 1.28024 0
M  V30 24696 H 2329.65 3.65984 -1.0373 0
M  V30 24697 H 2330.96 4.85415 -1.14776 0
M  V30 24698 H 2330.11 5.99813 0.911533 0
M  V30 24699 H 2328.85 4.74878 1.11097 0
M  V30 24700 H 2327.86 5.38601 -1.10405 0
M  V30 24701 H 2329.08 6.66727 -1.29044 0
M  V30 24702 H 2327.03 6.49133 0.946672 0
M  V30 24703 H 2326.94 7.54807 -0.424532 0
M  V30 24704 H 2328.21 7.75925 0.745739 0
M  V30 24705 N 2332.44 0.62277 1.44773 0
M  V30 24706 C 2333.85 0.207259 1.85546 0
M  V30 24707 C 2334.2 -1.23942 1.52095 0
M  V30 24708 O 2333.33 -1.9419 0.954954 0
M  V30 24709 C 2333.92 0.369372 3.3678 0
M  V30 24710 C 2332.48 0.00843463 3.76399 0
M  V30 24711 C 2331.63 0.686698 2.68663 0
M  V30 24712 H 2334.58 0.828477 1.35359 0
M  V30 24713 H 2334.6 -0.394095 3.78454 0
M  V30 24714 H 2334.11 1.42237 3.61096 0
M  V30 24715 H 2332.21 -1.04315 3.577 0
M  V30 24716 H 2332.33 0.412668 4.77319 0
M  V30 24717 H 2330.69 0.122822 2.54404 0
M  V30 24718 H 2331.47 1.74213 2.95812 0
M  V30 24719 N 2333.92 -1.53367 0.362817 0
M  V30 24720 C 2335.15 -2.05335 -0.228245 0
M  V30 24721 C 2335.56 -1.23627 -1.43224 0
M  V30 24722 O 2334.9 -0.269237 -1.81716 0
M  V30 24723 C 2334.96 -3.52846 -0.688487 0
M  V30 24724 C 2334.63 -4.5526 0.398442 0
M  V30 24725 C 2335.62 -5.04713 1.24741 0
M  V30 24726 C 2333.31 -4.99192 0.557892 0
M  V30 24727 C 2335.3 -5.96698 2.2412 0
M  V30 24728 C 2332.99 -5.90983 1.55505 0
M  V30 24729 C 2333.99 -6.39626 2.39514 0
M  V30 24730 O 2333.68 -7.29609 3.3753 0
M  V30 24731 H 2333.41 -0.674541 -0.0443831 0
M  V30 24732 H 2335.96 -1.98743 0.518703 0
M  V30 24733 H 2334.19 -3.56967 -1.48699 0
M  V30 24734 H 2335.88 -3.87687 -1.20224 0
M  V30 24735 H 2336.65 -4.71523 1.13541 0
M  V30 24736 H 2332.53 -4.60919 -0.0862149 0
M  V30 24737 H 2336.07 -6.34589 2.89729 0
M  V30 24738 H 2331.97 -6.23589 1.66755 0
M  V30 24739 H 2332.73 -7.47598 3.33227 0
M  V30 24740 N 2335.4 -0.091913 -1.57332 0
M  V30 24741 C 2336.62 0.584407 -1.98996 0
M  V30 24742 C 2337.05 1.61127 -0.970556 0
M  V30 24743 O 2336.41 1.81196 0.0613586 0
M  V30 24744 C 2336.45 1.21155 -3.39638 0
M  V30 24745 O 2335.56 2.32738 -3.40451 0
M  V30 24746 H 2334.9 0.148561 -0.647167 0
M  V30 24747 H 2337.43 -0.172383 -2.03873 0
M  V30 24748 H 2337.44 1.55361 -3.77263 0
M  V30 24749 H 2336.11 0.45924 -4.13357 0
M  V30 24750 H 2334.69 2.00175 -3.14618 0
M  V30 24751 N 2336.88 1.56548 0.181765 0
M  V30 24752 C 2337.79 1.98817 1.24535 0
M  V30 24753 C 2338.8 0.897887 1.49044 0
M  V30 24754 O 2339.98 1.2047 1.61397 0
M  V30 24755 C 2337.04 2.33059 2.56679 0
M  V30 24756 C 2336.1 3.55863 2.40125 0
M  V30 24757 C 2335.34 3.88463 3.65968 0
M  V30 24758 O 2335.56 3.22169 4.70705 0
M  V30 24759 O 2334.49 4.81849 3.60701 0
M  V30 24760 H 2338.32 2.89538 0.916596 0
M  V30 24761 H 2335.91 1.44279 0.387817 0
M  V30 24762 H 2337.79 2.561 3.3465 0
M  V30 24763 H 2336.46 1.45503 2.89155 0
M  V30 24764 H 2335.37 3.38054 1.6022 0
M  V30 24765 H 2336.7 4.43928 2.12578 0
M  V30 24766 N 2338.35 -0.449957 1.5104 0
M  V30 24767 C 2339.6 -1.19731 1.62319 0
M  V30 24768 C 2339.92 -1.92638 0.339135 0
M  V30 24769 O 2341.12 -2.69473 0.331116 0
M  V30 24770 C 2339.58 -2.17673 2.86612 0
M  V30 24771 C 2339.19 -1.50472 4.21974 0
M  V30 24772 C 2340.93 -2.92919 3.07244 0
M  V30 24773 C 2338.84 -2.46824 5.37431 0
M  V30 24774 H 2337.77 -0.450608 0.60454 0
M  V30 24775 H 2340.42 -0.465593 1.77495 0
M  V30 24776 H 2338.8 -2.94226 2.65042 0
M  V30 24777 H 2339.97 -0.795636 4.53879 0
M  V30 24778 H 2338.29 -0.874273 4.07118 0
M  V30 24779 H 2340.89 -3.65072 3.90675 0
M  V30 24780 H 2341.23 -3.53536 2.19813 0
M  V30 24781 H 2341.76 -2.23475 3.29095 0
M  V30 24782 H 2338.5 -1.90915 6.27082 0
M  V30 24783 H 2338.02 -3.15823 5.09918 0
M  V30 24784 H 2339.7 -3.08218 5.68868 0
M  V30 24785 N 2339.83 -1.40974 -0.704569 0
M  V30 24786 C 2340.8 -1.41848 -1.80033 0
M  V30 24787 C 2341.8 -0.310502 -1.57774 0
M  V30 24788 O 2342.99 -0.569949 -1.64612 0
M  V30 24789 C 2340.12 -1.22104 -3.18282 0
M  V30 24790 H 2341.31 -2.39383 -1.80653 0
M  V30 24791 H 2338.86 -1.26984 -0.911307 0
M  V30 24792 H 2339.6 -0.253728 -3.23306 0
M  V30 24793 H 2339.38 -2.02372 -3.35839 0
M  V30 24794 H 2340.87 -1.25529 -3.98286 0
M  V30 24795 N 2341.31 0.937917 -1.26653 0
M  V30 24796 C 2342.22 2.07064 -1.10279 0
M  V30 24797 C 2343.24 1.73964 -0.0354503 0
M  V30 24798 O 2344.41 1.99967 -0.239851 0
M  V30 24799 C 2341.48 3.3869 -0.740946 0
M  V30 24800 C 2340.54 3.85553 -1.88806 0
M  V30 24801 C 2339.77 5.10897 -1.54338 0
M  V30 24802 O 2339.99 5.68649 -0.446594 0
M  V30 24803 O 2338.93 5.52881 -2.3792 0
M  V30 24804 H 2342.75 2.23786 -2.05313 0
M  V30 24805 H 2340.34 1.05538 -1.05745 0
M  V30 24806 H 2342.22 4.17769 -0.552024 0
M  V30 24807 H 2340.9 3.23199 0.179965 0
M  V30 24808 H 2339.8 3.07405 -2.13197 0
M  V30 24809 H 2341.14 4.05569 -2.78881 0
M  V30 24810 N 2342.79 1.08509 1.14296 0
M  V30 24811 C 2343.74 0.716003 2.19413 0
M  V30 24812 C 2344.71 -0.298297 1.634 0
M  V30 24813 O 2345.89 -0.182067 1.89929 0
M  V30 24814 C 2343.03 0.132594 3.44845 0
M  V30 24815 C 2342.14 1.1998 4.15005 0
M  V30 24816 C 2341.28 0.580141 5.28023 0
M  V30 24817 C 2340.32 1.62931 5.90017 0
M  V30 24818 N 2339.45 1.03137 6.94483 0
M  V30 24819 H 2344.29 1.6167 2.50333 0
M  V30 24820 H 2341.83 0.807904 1.22928 0
M  V30 24821 H 2343.79 -0.223381 4.16602 0
M  V30 24822 H 2342.42 -0.731412 3.14405 0
M  V30 24823 H 2341.47 1.67319 3.41626 0
M  V30 24824 H 2342.78 1.99481 4.57175 0
M  V30 24825 H 2341.94 0.172471 6.06455 0
M  V30 24826 H 2340.68 -0.246518 4.87077 0
M  V30 24827 H 2339.68 2.04663 5.10287 0
M  V30 24828 H 2340.91 2.45846 6.33037 0
M  V30 24829 H 2338.85 0.225826 6.55611 0
M  V30 24830 H 2338.77 1.76347 7.35145 0
M  V30 24831 H 2340.04 0.649594 7.76789 0
M  V30 24832 N 2344.27 -1.31351 0.870907 0
M  V30 24833 C 2345.51 -1.96284 0.481355 0
M  V30 24834 C 2345.84 -1.69175 -0.969783 0
M  V30 24835 O 2345.11 -1.00767 -1.67997 0
M  V30 24836 H 2343.69 -0.726209 0.175014 0
M  V30 24837 H 2346.35 -1.60141 1.1109 0
M  V30 24838 H 2345.44 -3.0547 0.639879 0
M  V30 24839 N 2345.74 -0.630439 -1.44441 0
M  V30 24840 C 2346.69 0.074895 -2.30678 0
M  V30 24841 C 2347.66 0.837477 -1.43442 0
M  V30 24842 O 2348.85 0.818653 -1.72345 0
M  V30 24843 C 2345.99 1.05097 -3.28708 0
M  V30 24844 C 2345.1 0.286878 -4.31046 0
M  V30 24845 C 2344.23 1.25471 -5.16169 0
M  V30 24846 C 2343.27 0.479736 -6.10217 0
M  V30 24847 N 2342.41 1.39799 -6.88041 0
M  V30 24848 H 2347.25 -0.666438 -2.90452 0
M  V30 24849 H 2344.79 -0.340429 -1.43107 0
M  V30 24850 H 2346.75 1.63025 -3.8403 0
M  V30 24851 H 2345.38 1.75944 -2.70635 0
M  V30 24852 H 2344.43 -0.40831 -3.78202 0
M  V30 24853 H 2345.74 -0.316745 -4.97793 0
M  V30 24854 H 2344.89 1.90534 -5.76005 0
M  V30 24855 H 2343.63 1.89225 -4.49494 0
M  V30 24856 H 2342.64 -0.184391 -5.49491 0
M  V30 24857 H 2343.86 -0.153084 -6.78927 0
M  V30 24858 H 2341.81 2.02276 -6.24036 0
M  V30 24859 H 2341.73 0.848376 -7.51225 0
M  V30 24860 H 2342.99 2.03749 -7.52401 0
M  V30 24861 N 2347.22 1.53172 -0.370945 0
M  V30 24862 C 2348.17 2.25901 0.472995 0
M  V30 24863 C 2349.14 1.26783 1.07309 0
M  V30 24864 O 2350.32 1.55576 1.10457 0
M  V30 24865 C 2347.46 3.05558 1.604 0
M  V30 24866 C 2346.58 4.19577 1.02855 0
M  V30 24867 C 2345.71 4.86665 2.1291 0
M  V30 24868 C 2344.75 5.92706 1.52859 0
M  V30 24869 N 2343.89 6.53464 2.56768 0
M  V30 24870 H 2348.73 2.97603 -0.153701 0
M  V30 24871 H 2346.27 1.46839 -0.0876204 0
M  V30 24872 H 2348.22 3.5002 2.27028 0
M  V30 24873 H 2346.85 2.36101 2.20127 0
M  V30 24874 H 2345.91 3.79562 0.252398 0
M  V30 24875 H 2347.22 4.95763 0.549555 0
M  V30 24876 H 2346.37 5.34338 2.87347 0
M  V30 24877 H 2345.11 4.09962 2.64163 0
M  V30 24878 H 2344.12 5.4439 0.769383 0
M  V30 24879 H 2345.34 6.71332 1.02423 0
M  V30 24880 H 2343.29 5.79611 3.07224 0
M  V30 24881 H 2343.2 7.25206 2.1357 0
M  V30 24882 H 2344.47 7.05784 3.30891 0
M  V30 24883 N 2348.7 0.100255 1.57281 0
M  V30 24884 C 2350.11 -0.428075 1.81726 0
M  V30 24885 C 2350.46 -1.67832 1.01622 0
M  V30 24886 O 2349.59 -2.14984 0.247136 0
M  V30 24887 C 2350.18 -0.783412 3.29618 0
M  V30 24888 C 2348.74 -1.25646 3.5481 0
M  V30 24889 C 2347.89 -0.255704 2.76119 0
M  V30 24890 H 2350.84 0.325635 1.55323 0
M  V30 24891 H 2350.86 -1.6425 3.43223 0
M  V30 24892 H 2350.37 0.126718 3.87893 0
M  V30 24893 H 2348.47 -2.18413 3.01872 0
M  V30 24894 H 2348.59 -1.21473 4.63445 0
M  V30 24895 H 2346.95 -0.738914 2.43746 0
M  V30 24896 H 2347.73 0.647196 3.37144 0
M  V30 24897 N 2350.18 -1.56643 -0.17346 0
M  V30 24898 C 2351.09 -1.99475 -1.23479 0
M  V30 24899 C 2352.11 -0.905778 -1.48565 0
M  V30 24900 O 2353.28 -1.21324 -1.60756 0
M  V30 24901 C 2350.35 -2.34417 -2.5544 0
M  V30 24902 C 2349.41 -3.57131 -2.38234 0
M  V30 24903 C 2348.64 -3.90398 -3.63903 0
M  V30 24904 O 2348.86 -3.24661 -4.6899 0
M  V30 24905 O 2347.8 -4.83755 -3.58141 0
M  V30 24906 H 2351.62 -2.9002 -0.901228 0
M  V30 24907 H 2349.21 -1.44482 -0.38016 0
M  V30 24908 H 2351.09 -2.57871 -3.33287 0
M  V30 24909 H 2349.77 -1.47035 -2.88379 0
M  V30 24910 H 2348.67 -3.38899 -1.58425 0
M  V30 24911 H 2350.01 -4.45049 -2.1022 0
M  V30 24912 N 2351.66 0.44194 -1.51277 0
M  V30 24913 C 2352.9 1.19352 -1.6396 0
M  V30 24914 C 2353.24 1.90973 -0.352577 0
M  V30 24915 O 2352.51 1.83402 0.647595 0
M  V30 24916 C 2352.79 2.21417 -2.83983 0
M  V30 24917 C 2352.65 1.5391 -4.22648 0
M  V30 24918 C 2353.97 3.22446 -2.99527 0
M  V30 24919 H 2351.09 0.432549 -0.596716 0
M  V30 24920 H 2353.73 0.483366 -1.83749 0
M  V30 24921 H 2351.88 2.81982 -2.67242 0
M  V30 24922 H 2353.55 0.967177 -4.51047 0
M  V30 24923 H 2351.79 0.84154 -4.25559 0
M  V30 24924 H 2352.46 2.2822 -5.02613 0
M  V30 24925 H 2354.94 2.71931 -3.14949 0
M  V30 24926 H 2353.82 3.91159 -3.85079 0
M  V30 24927 H 2354.08 3.88283 -2.11397 0
M  V30 24928 N 2353.14 1.41345 0.697083 0
M  V30 24929 C 2354.36 1.44173 1.49093 0
M  V30 24930 C 2354.79 0.0481899 1.88038 0
M  V30 24931 O 2354.14 -0.948216 1.54527 0
M  V30 24932 C 2354.19 2.35495 2.73084 0
M  V30 24933 O 2353.3 1.81094 3.70511 0
M  V30 24934 H 2352.64 0.489369 0.448792 0
M  V30 24935 H 2355.17 1.85789 0.856959 0
M  V30 24936 H 2355.18 2.51317 3.21409 0
M  V30 24937 H 2353.85 3.3675 2.44075 0
M  V30 24938 H 2352.43 1.74714 3.29438 0
M  V30 24939 N 2354.61 -0.931187 1.27148 0
M  V30 24940 C 2355.55 -2.03178 1.03893 0
M  V30 24941 C 2356.52 -1.62552 -0.039543 0
M  V30 24942 O 2357.71 -1.88208 0.1049 0
M  V30 24943 C 2354.84 -3.33779 0.575285 0
M  V30 24944 C 2353.88 -3.93382 1.64781 0
M  V30 24945 S 2354.71 -4.26407 3.2394 0
M  V30 24946 C 2355.87 -5.60093 2.79368 0
M  V30 24947 H 2356.1 -2.22592 1.97079 0
M  V30 24948 H 2353.64 -1.07385 1.1094 0
M  V30 24949 H 2355.59 -4.09294 0.314457 0
M  V30 24950 H 2354.26 -3.12293 -0.33645 0
M  V30 24951 H 2353.45 -4.87616 1.27463 0
M  V30 24952 H 2353.05 -3.24438 1.86053 0
M  V30 24953 H 2355.34 -6.39239 2.24454 0
M  V30 24954 H 2356.29 -6.02307 3.72333 0
M  V30 24955 H 2356.69 -5.20448 2.18619 0
M  V30 24956 N 2356.09 -1.09114 -1.13719 0
M  V30 24957 C 2357.02 -0.749423 -2.21147 0
M  V30 24958 C 2358 0.271446 -1.6792 0
M  V30 24959 O 2359.19 0.140217 -1.93693 0
M  V30 24960 C 2356.32 -0.16572 -3.46904 0
M  V30 24961 C 2355.27 -1.11574 -4.13201 0
M  V30 24962 C 2354.6 -0.393903 -5.33247 0
M  V30 24963 C 2355.9 -2.45686 -4.60908 0
M  V30 24964 H 2357.59 -1.64763 -2.49987 0
M  V30 24965 H 2355.14 -0.793647 -1.20155 0
M  V30 24966 H 2357.09 0.0853919 -4.21313 0
M  V30 24967 H 2355.81 0.767658 -3.1745 0
M  V30 24968 H 2354.47 -1.35208 -3.40756 0
M  V30 24969 H 2354.12 0.543511 -5.00055 0
M  V30 24970 H 2353.82 -1.02731 -5.7855 0
M  V30 24971 H 2355.35 -0.151015 -6.10413 0
M  V30 24972 H 2356.76 -2.26278 -5.26755 0
M  V30 24973 H 2355.16 -3.04785 -5.16939 0
M  V30 24974 H 2356.23 -3.06684 -3.75597 0
M  V30 24975 N 2357.57 1.30887 -0.877861 0
M  V30 24976 C 2358.53 2.26599 -0.344305 0
M  V30 24977 C 2359.53 1.52525 0.509193 0
M  V30 24978 O 2360.72 1.71285 0.317368 0
M  V30 24979 C 2357.85 3.37061 0.510139 0
M  V30 24980 H 2359.05 2.75308 -1.18935 0
M  V30 24981 H 2356.6 1.41954 -0.654113 0
M  V30 24982 H 2357.34 2.93658 1.37606 0
M  V30 24983 H 2357.12 3.9197 -0.101116 0
M  V30 24984 H 2358.61 4.0832 0.875465 0
M  V30 24985 N 2359.05 0.638091 1.44105 0
M  V30 24986 C 2360.28 0.152651 2.06336 0
M  V30 24987 C 2360.69 -1.1756 1.47733 0
M  V30 24988 O 2360.05 -1.72256 0.602836 0
M  V30 24989 C 2360.1 0.0392126 3.61479 0
M  V30 24990 O 2359.82 1.31495 4.179 0
M  V30 24991 C 2361.32 -0.474099 4.40758 0
M  V30 24992 H 2358.54 0.0828893 0.665861 0
M  V30 24993 H 2361.08 0.874463 1.8486 0
M  V30 24994 H 2359.24 -0.633075 3.82192 0
M  V30 24995 H 2359.65 1.1643 5.11414 0
M  V30 24996 H 2361.13 -0.502466 5.49708 0
M  V30 24997 H 2361.6 -1.50251 4.127 0
M  V30 24998 H 2362.21 0.165176 4.24979 0
M  V30 24999 N 2360.53 -1.52973 0.379063 0
M  V30 25000 C 2361.75 -2.05864 -0.206754 0
M  V30 25001 C 2362.17 -1.25158 -1.41354 0
M  V30 25002 O 2361.53 -0.295619 -1.8009 0
M  V30 25003 C 2361.58 -3.56703 -0.586983 0
M  V30 25004 O 2361.3 -4.34352 0.571853 0
M  V30 25005 C 2362.8 -4.25901 -1.22975 0
M  V30 25006 H 2360.02 -0.670158 -0.0336005 0
M  V30 25007 H 2362.56 -1.97205 0.541333 0
M  V30 25008 H 2360.72 -3.65468 -1.28497 0
M  V30 25009 H 2361.13 -5.23847 0.261636 0
M  V30 25010 H 2362.61 -5.32717 -1.44625 0
M  V30 25011 H 2363.08 -3.80469 -2.19409 0
M  V30 25012 H 2363.69 -4.21425 -0.572818 0
M  V30 25013 N 2362 -0.108595 -1.57225 0
M  V30 25014 C 2363.25 0.550819 -1.94449 0
M  V30 25015 C 2363.57 1.67876 -0.992103 0
M  V30 25016 O 2362.84 1.95845 -0.0465344 0
M  V30 25017 H 2361.42 0.206466 -0.7179 0
M  V30 25018 H 2364.08 -0.175096 -1.94112 0
M  V30 25019 H 2363.18 0.952207 -2.9722 0
M  V30 25020 N 2363.48 1.56732 0.16515 0
M  V30 25021 C 2364.41 1.99916 1.20648 0
M  V30 25022 C 2365.39 0.875731 1.45825 0
M  V30 25023 O 2366.58 1.14226 1.57055 0
M  V30 25024 C 2363.71 2.36431 2.54396 0
M  V30 25025 C 2362.66 3.51791 2.43776 0
M  V30 25026 C 2361.99 3.74067 3.82071 0
M  V30 25027 C 2363.29 4.85045 1.93724 0
M  V30 25028 H 2364.98 2.87155 0.847483 0
M  V30 25029 H 2362.53 1.38151 0.406226 0
M  V30 25030 H 2364.48 2.6524 3.27454 0
M  V30 25031 H 2363.2 1.46108 2.92096 0
M  V30 25032 H 2361.86 3.2312 1.73173 0
M  V30 25033 H 2361.51 2.81024 4.17174 0
M  V30 25034 H 2361.21 4.51691 3.75832 0
M  V30 25035 H 2362.74 4.05282 4.56705 0
M  V30 25036 H 2364.15 5.12689 2.5656 0
M  V30 25037 H 2362.55 5.66348 1.98418 0
M  V30 25038 H 2363.62 4.76627 0.891879 0
M  V30 25039 N 2364.96 -0.433911 1.51509 0
M  V30 25040 C 2366.18 -1.21 1.68445 0
M  V30 25041 C 2366.61 -1.84166 0.382669 0
M  V30 25042 O 2365.97 -1.68957 -0.65752 0
M  V30 25043 C 2366.02 -2.26722 2.80409 0
M  V30 25044 O 2365.12 -3.32288 2.44251 0
M  V30 25045 H 2364.46 -0.354353 0.561543 0
M  V30 25046 H 2366.99 -0.511989 1.9809 0
M  V30 25047 H 2367 -2.71452 3.04594 0
M  V30 25048 H 2365.68 -1.80126 3.7487 0
M  V30 25049 H 2364.25 -2.93011 2.30649 0
M  V30 25050 N 2366.44 -1.41713 -0.689577 0
M  V30 25051 C 2367.35 -1.46404 -1.83311 0
M  V30 25052 C 2368.36 -0.35408 -1.70359 0
M  V30 25053 O 2369.54 -0.602726 -1.9217 0
M  V30 25054 C 2366.61 -1.34988 -3.19342 0
M  V30 25055 C 2365.67 -2.5635 -3.44359 0
M  V30 25056 C 2364.9 -2.45469 -4.73899 0
M  V30 25057 O 2365.12 -1.48251 -5.50798 0
M  V30 25058 O 2364.06 -3.35336 -4.99833 0
M  V30 25059 H 2367.88 -2.42893 -1.8231 0
M  V30 25060 H 2365.47 -1.23316 -0.843417 0
M  V30 25061 H 2367.35 -1.30927 -4.00545 0
M  V30 25062 H 2366.02 -0.416176 -3.21013 0
M  V30 25063 H 2364.93 -2.65987 -2.63063 0
M  V30 25064 H 2366.26 -3.48569 -3.47506 0
M  V30 25065 N 2367.92 0.924431 -1.2764 0
M  V30 25066 C 2368.88 2.00703 -1.10684 0
M  V30 25067 C 2369.88 1.60723 -0.0498106 0
M  V30 25068 O 2371.07 1.71689 -0.294684 0
M  V30 25069 C 2368.2 3.33901 -0.687223 0
M  V30 25070 H 2369.39 2.17175 -2.06821 0
M  V30 25071 H 2366.95 1.10567 -1.10475 0
M  V30 25072 H 2367.68 3.23129 0.275382 0
M  V30 25073 H 2367.47 3.64277 -1.45067 0
M  V30 25074 H 2368.96 4.13398 -0.590925 0
M  V30 25075 N 2369.39 1.09715 1.13139 0
M  V30 25076 C 2370.62 0.856931 1.8832 0
M  V30 25077 C 2371.04 -0.592041 1.79277 0
M  V30 25078 O 2370.39 -1.40772 1.16145 0
M  V30 25079 C 2370.45 1.28712 3.3781 0
M  V30 25080 O 2370.17 2.67927 3.46622 0
M  V30 25081 C 2371.67 1.07972 4.2995 0
M  V30 25082 H 2368.89 0.30809 0.596089 0
M  V30 25083 H 2371.43 1.45991 1.43203 0
M  V30 25084 H 2369.59 0.727979 3.80499 0
M  V30 25085 H 2370 2.86138 4.39574 0
M  V30 25086 H 2371.47 1.42995 5.33157 0
M  V30 25087 H 2371.95 0.0177349 4.39196 0
M  V30 25088 H 2372.56 1.62495 3.93033 0
M  V30 25089 N 2370.87 -1.30419 0.88479 0
M  V30 25090 C 2372.1 -2.00309 0.51808 0
M  V30 25091 C 2372.52 -1.66326 -0.893378 0
M  V30 25092 O 2371.87 -0.90029 -1.58748 0
M  V30 25093 C 2371.92 -3.54988 0.68306 0
M  V30 25094 O 2371.64 -3.87761 2.03895 0
M  V30 25095 C 2373.15 -4.42148 0.319317 0
M  V30 25096 H 2370.37 -0.640414 0.200277 0
M  V30 25097 H 2372.91 -1.66308 1.19004 0
M  V30 25098 H 2371.06 -3.87356 0.0584733 0
M  V30 25099 H 2371.48 -4.82462 2.05744 0
M  V30 25100 H 2372.95 -5.49859 0.485652 0
M  V30 25101 H 2373.43 -4.32876 -0.74264 0
M  V30 25102 H 2374.04 -4.15225 0.92022 0
M  V30 25103 N 2372.35 -0.645724 -1.43764 0
M  V30 25104 C 2373.28 0.0370066 -2.33471 0
M  V30 25105 C 2374.26 0.819753 -1.49044 0
M  V30 25106 O 2375.45 0.782727 -1.77727 0
M  V30 25107 C 2372.58 1.00924 -3.32313 0
M  V30 25108 C 2371.53 0.337126 -4.2667 0
M  V30 25109 C 2370.86 1.42028 -5.15492 0
M  V30 25110 C 2372.16 -0.765797 -5.16655 0
M  V30 25111 H 2373.85 -0.71212 -2.90808 0
M  V30 25112 H 2371.4 -0.343901 -1.39833 0
M  V30 25113 H 2373.35 1.49571 -3.93962 0
M  V30 25114 H 2372.07 1.78943 -2.73216 0
M  V30 25115 H 2370.73 -0.128836 -3.66374 0
M  V30 25116 H 2370.38 2.19172 -4.52739 0
M  V30 25117 H 2370.08 0.975864 -5.7944 0
M  V30 25118 H 2371.6 1.90827 -5.80015 0
M  V30 25119 H 2373.02 -0.361802 -5.72157 0
M  V30 25120 H 2371.42 -1.13423 -5.89284 0
M  V30 25121 H 2372.49 -1.62691 -4.56793 0
M  V30 25122 N 2373.83 1.5277 -0.38717 0
M  V30 25123 C 2375.07 2.01851 0.19599 0
M  V30 25124 C 2375.41 1.27321 1.46639 0
M  V30 25125 O 2374.68 0.373065 1.90889 0
M  V30 25126 C 2374.97 3.57071 0.466073 0
M  V30 25127 C 2374.82 4.42272 -0.819463 0
M  V30 25128 C 2376.14 4.21749 1.2576 0
M  V30 25129 H 2373.26 0.733691 0.0697579 0
M  V30 25130 H 2375.9 1.8285 -0.516318 0
M  V30 25131 H 2374.05 3.73392 1.07287 0
M  V30 25132 H 2375.72 4.37707 -1.45638 0
M  V30 25133 H 2373.96 4.09369 -1.43524 0
M  V30 25134 H 2374.63 5.4889 -0.585161 0
M  V30 25135 H 2377.11 4.09393 0.744095 0
M  V30 25136 H 2375.99 5.30339 1.41532 0
M  V30 25137 H 2376.25 3.7924 2.27221 0
M  V30 25138 N 2375.31 0.116931 1.57166 0
M  V30 25139 C 2376.53 -0.552675 1.99901 0
M  V30 25140 C 2376.96 -1.59562 0.996067 0
M  V30 25141 O 2376.31 -1.81271 -0.0325241 0
M  V30 25142 C 2376.36 -1.15736 3.41522 0
M  V30 25143 O 2375.47 -2.27292 3.4411 0
M  V30 25144 H 2374.81 -0.138246 0.649449 0
M  V30 25145 H 2377.34 0.204795 2.03572 0
M  V30 25146 H 2377.35 -1.49339 3.79686 0
M  V30 25147 H 2376.02 -0.393421 4.14035 0
M  V30 25148 H 2374.6 -1.95144 3.17763 0
M  V30 25149 N 2376.78 -1.56818 -0.156836 0
M  V30 25150 C 2378.06 -1.73705 -0.899213 0
M  V30 25151 C 2378.44 -0.682289 -1.9977 0
M  V30 25152 O 2377.79 0.300482 -2.26516 0
M  V30 25153 C 2378 -3.17421 -1.45069 0
M  V30 25154 C 2379.35 -3.78813 -1.91796 0
M  V30 25155 O 2380.37 -3.20789 -1.54832 0
M  V30 25156 O 2379.23 -4.80726 -2.59932 0
M  V30 25157 H 2376.32 -0.709886 -0.424254 0
M  V30 25158 H 2378.87 -1.69092 -0.143531 0
M  V30 25159 H 2377.64 -3.8568 -0.660778 0
M  V30 25160 H 2377.27 -3.2642 -2.27016 0
M  V30 25161 N 2378.26 0.425871 -1.51737 0
M  V30 25162 C 2379.51 1.17291 -1.66176 0
M  V30 25163 C 2379.86 1.88634 -0.378793 0
M  V30 25164 O 2379.16 1.81085 0.625989 0
M  V30 25165 C 2379.35 2.20712 -2.81106 0
M  V30 25166 C 2379.18 1.59522 -4.20456 0
M  V30 25167 C 2377.95 1.37516 -4.86228 0
M  V30 25168 C 2380.15 1.06519 -5.03148 0
M  V30 25169 N 2378.13 0.72043 -6.09658 0
M  V30 25170 C 2379.5 0.536397 -6.17675 0
M  V30 25171 C 2381.56 0.958041 -4.88596 0
M  V30 25172 C 2380.26 -0.0890182 -7.19245 0
M  V30 25173 C 2382.28 0.346504 -5.90384 0
M  V30 25174 C 2381.65 -0.171687 -7.04191 0
M  V30 25175 H 2377.75 0.416463 -0.661878 0
M  V30 25176 H 2380.33 0.467768 -1.88997 0
M  V30 25177 H 2378.5 2.88603 -2.59929 0
M  V30 25178 H 2380.23 2.87658 -2.84667 0
M  V30 25179 H 2376.99 1.64008 -4.44295 0
M  V30 25180 H 2377.41 0.410173 -6.75756 0
M  V30 25181 H 2382.05 1.34452 -4.00852 0
M  V30 25182 H 2379.77 -0.487602 -8.06628 0
M  V30 25183 H 2383.36 0.265348 -5.81195 0
M  V30 25184 H 2382.24 -0.637446 -7.81605 0
M  V30 25185 N 2379.74 1.42077 0.682052 0
M  V30 25186 C 2381.02 1.32644 1.43753 0
M  V30 25187 C 2381.4 -0.039624 2.11063 0
M  V30 25188 O 2380.75 -1.0547 2.02702 0
M  V30 25189 C 2380.96 2.4895 2.44591 0
M  V30 25190 C 2382.3 2.90735 3.09448 0
M  V30 25191 O 2383.33 2.48788 2.54918 0
M  V30 25192 O 2382.19 3.63314 4.08246 0
M  V30 25193 H 2379.28 0.522726 0.640848 0
M  V30 25194 H 2381.83 1.54069 0.711388 0
M  V30 25195 H 2380.6 3.4005 1.93603 0
M  V30 25196 H 2380.22 2.29473 3.24697 0
M  V30 25197 N 2381.22 -0.917649 1.28129 0
M  V30 25198 C 2382.47 -1.6631 1.14828 0
M  V30 25199 C 2382.79 -1.9261 -0.304345 0
M  V30 25200 O 2382.06 -1.53949 -1.21146 0
M  V30 25201 H 2380.64 -0.616405 0.421964 0
M  V30 25202 H 2383.3 -1.10131 1.60802 0
M  V30 25203 H 2382.4 -2.62709 1.68494 0
M  V30 25204 N 2382.7 -1.10314 -1.12555 0
M  V30 25205 C 2383.63 -0.708664 -2.17969 0
M  V30 25206 C 2384.64 0.253998 -1.60806 0
M  V30 25207 O 2385.83 0.0386578 -1.78458 0
M  V30 25208 C 2382.93 -0.0248794 -3.38891 0
M  V30 25209 C 2382.1 -1.0114 -4.25546 0
M  V30 25210 C 2381.16 -0.359332 -5.24972 0
M  V30 25211 O 2380.19 -1.00975 -5.60172 0
M  V30 25212 N 2381.39 0.882746 -5.73749 0
M  V30 25213 H 2384.16 -1.61561 -2.52424 0
M  V30 25214 H 2381.72 -0.991793 -1.27965 0
M  V30 25215 H 2383.71 0.422781 -4.02486 0
M  V30 25216 H 2382.28 0.784461 -3.02597 0
M  V30 25217 H 2381.5 -1.63736 -3.58586 0
M  V30 25218 H 2382.79 -1.67922 -4.80291 0
M  V30 25219 H 2382.19 1.43056 -5.47313 0
M  V30 25220 H 2380.74 1.27358 -6.39237 0
M  V30 25221 N 2384.18 1.29948 -0.891694 0
M  V30 25222 C 2385.12 2.27947 -0.361776 0
M  V30 25223 C 2386.09 1.56669 0.551733 0
M  V30 25224 O 2387.28 1.84697 0.478703 0
M  V30 25225 C 2384.42 3.42635 0.411764 0
M  V30 25226 C 2383.53 4.28715 -0.531726 0
M  V30 25227 C 2382.67 5.30573 0.258074 0
M  V30 25228 C 2381.7 6.08306 -0.680455 0
M  V30 25229 N 2380.84 7.02061 0.0744379 0
M  V30 25230 H 2385.68 2.72657 -1.20259 0
M  V30 25231 H 2383.22 1.34111 -0.604376 0
M  V30 25232 H 2385.18 4.07895 0.876232 0
M  V30 25233 H 2383.81 2.98976 1.2171 0
M  V30 25234 H 2382.86 3.63701 -1.1147 0
M  V30 25235 H 2384.17 4.82871 -1.25046 0
M  V30 25236 H 2383.32 6.01612 0.784098 0
M  V30 25237 H 2382.06 4.77127 1.00999 0
M  V30 25238 H 2381.07 5.36138 -1.21805 0
M  V30 25239 H 2382.29 6.63839 -1.43157 0
M  V30 25240 H 2380.24 6.50995 0.808769 0
M  V30 25241 H 2380.16 7.53737 -0.584542 0
M  V30 25242 H 2381.42 7.77332 0.580986 0
M  V30 25243 N 2385.65 0.653339 1.4342 0
M  V30 25244 C 2386.6 -0.0501123 2.32546 0
M  V30 25245 C 2387.6 -0.812959 1.48618 0
M  V30 25246 O 2388.8 -0.723346 1.64826 0
M  V30 25247 H 2385.18 -0.03499 0.751186 0
M  V30 25248 H 2387.15 0.719312 2.89601 0
M  V30 25249 C 2385.9 -1.00274 3.32927 0
M  V30 25250 H 2385.22 -0.425166 3.97533 0
M  V30 25251 H 2386.66 -1.46402 3.97923 0
M  V30 25252 C 2385.12 -2.09882 2.63536 0
M  V30 25253 O 2385.65 -3.18261 2.45097 0
M  V30 25254 N 2383.85 -1.86441 2.22908 0
M  V30 25255 H 2383.4 -0.983048 2.38105 0
M  V30 25256 H 2383.36 -2.59973 1.76809 0
M  V30 25257 N 2387.13 -1.52563 0.395266 0
M  V30 25258 C 2388.36 -2.06072 -0.184907 0
M  V30 25259 C 2388.77 -1.2665 -1.40019 0
M  V30 25260 O 2388.13 -0.314704 -1.79766 0
M  V30 25261 C 2388.18 -3.57305 -0.549116 0
M  V30 25262 O 2387.9 -4.33721 0.617889 0
M  V30 25263 C 2389.4 -4.27182 -1.18451 0
M  V30 25264 H 2386.62 -0.670477 -0.0264907 0
M  V30 25265 H 2389.17 -1.9662 0.562219 0
M  V30 25266 H 2387.32 -3.66811 -1.24614 0
M  V30 25267 H 2387.74 -5.2354 0.317183 0
M  V30 25268 H 2389.21 -5.34221 -1.38967 0
M  V30 25269 H 2389.69 -3.82774 -2.15361 0
M  V30 25270 H 2390.29 -4.22009 -0.528088 0
M  V30 25271 N 2388.61 -0.125265 -1.57101 0
M  V30 25272 C 2389.56 0.822617 -2.15642 0
M  V30 25273 C 2390.53 1.25925 -1.08315 0
M  V30 25274 O 2391.71 1.33565 -1.36254 0
M  V30 25275 C 2388.85 2.06489 -2.76508 0
M  V30 25276 C 2387.96 1.67605 -3.98161 0
M  V30 25277 C 2387.1 2.86846 -4.47094 0
M  V30 25278 C 2386.14 2.44232 -5.61264 0
M  V30 25279 N 2385.28 3.56408 -6.04911 0
M  V30 25280 H 2390.12 0.316573 -2.96314 0
M  V30 25281 H 2387.65 0.144562 -1.46388 0
M  V30 25282 H 2389.61 2.79284 -3.0993 0
M  V30 25283 H 2388.24 2.54541 -1.98516 0
M  V30 25284 H 2387.29 0.846595 -3.7086 0
M  V30 25285 H 2388.6 1.32292 -4.80937 0
M  V30 25286 H 2387.76 3.67859 -4.82457 0
M  V30 25287 H 2386.5 3.2539 -3.63281 0
M  V30 25288 H 2385.5 1.61654 -5.25498 0
M  V30 25289 H 2386.73 2.06799 -6.46847 0
M  V30 25290 H 2384.67 3.94613 -5.24038 0
M  V30 25291 H 2384.59 3.25039 -6.82558 0
M  V30 25292 H 2385.86 4.37841 -6.44915 0
M  V30 25293 N 2390.09 1.56899 0.148518 0
M  V30 25294 C 2391.03 1.98151 1.18341 0
M  V30 25295 C 2392 0.848873 1.4277 0
M  V30 25296 O 2393.19 1.11082 1.55131 0
M  V30 25297 C 2390.33 2.36598 2.51227 0
M  V30 25298 C 2389.44 3.63146 2.33985 0
M  V30 25299 C 2388.58 3.90703 3.59895 0
M  V30 25300 C 2387.62 5.10526 3.37683 0
M  V30 25301 N 2386.75 5.341 4.5572 0
M  V30 25302 H 2391.59 2.86363 0.82462 0
M  V30 25303 H 2389.13 1.41677 0.395731 0
M  V30 25304 H 2391.09 2.56918 3.28708 0
M  V30 25305 H 2389.72 1.51468 2.85057 0
M  V30 25306 H 2388.77 3.50612 1.47566 0
M  V30 25307 H 2390.08 4.50784 2.13531 0
M  V30 25308 H 2389.24 4.11512 4.45805 0
M  V30 25309 H 2387.98 3.01484 3.83352 0
M  V30 25310 H 2386.98 4.89591 2.50161 0
M  V30 25311 H 2388.21 6.01296 3.15627 0
M  V30 25312 H 2386.15 4.47836 4.79353 0
M  V30 25313 H 2386.07 6.16004 4.38263 0
M  V30 25314 H 2387.34 5.59407 5.42848 0
M  V30 25315 N 2391.57 -0.417818 1.51961 0
M  V30 25316 C 2392.79 -1.19207 1.69719 0
M  V30 25317 C 2393.22 -1.8375 0.40218 0
M  V30 25318 O 2392.57 -1.69645 -0.639563 0
M  V30 25319 C 2392.62 -2.23736 2.82798 0
M  V30 25320 O 2391.73 -3.29679 2.47761 0
M  V30 25321 H 2391.07 -0.348377 0.565269 0
M  V30 25322 H 2393.6 -0.49095 1.98622 0
M  V30 25323 H 2393.61 -2.68206 3.07456 0
M  V30 25324 H 2392.28 -1.76139 3.76759 0
M  V30 25325 H 2390.86 -2.90548 2.33744 0
M  V30 25326 N 2393.04 -1.42436 -0.674508 0
M  V30 25327 C 2394.32 -1.33405 -1.43047 0
M  V30 25328 C 2394.7 0.0284303 -2.11081 0
M  V30 25329 O 2394.05 1.04394 -2.03259 0
M  V30 25330 C 2394.26 -2.50243 -2.43268 0
M  V30 25331 C 2395.61 -2.92372 -3.07902 0
M  V30 25332 O 2396.63 -2.50136 -2.53595 0
M  V30 25333 O 2395.49 -3.65474 -4.06314 0
M  V30 25334 H 2392.58 -0.526118 -0.638067 0
M  V30 25335 H 2395.13 -1.54444 -0.703207 0
M  V30 25336 H 2393.9 -3.41071 -1.91797 0
M  V30 25337 H 2393.52 -2.31192 -3.23475 0
M  V30 25338 N 2394.52 0.910841 -1.28614 0
M  V30 25339 C 2395.77 1.66026 -1.15937 0
M  V30 25340 C 2396.1 1.92304 0.291449 0
M  V30 25341 O 2395.35 1.52366 1.22813 0
M  V30 25342 C 2395.65 3.02317 -1.90629 0
M  V30 25343 C 2395.32 2.95689 -3.4041 0
M  V30 25344 C 2393.98 2.93588 -3.8126 0
M  V30 25345 C 2396.33 2.85721 -4.35905 0
M  V30 25346 C 2393.66 2.79325 -5.15941 0
M  V30 25347 C 2396.01 2.72997 -5.70662 0
M  V30 25348 C 2394.67 2.69256 -6.10784 0
M  V30 25349 H 2393.94 0.607534 -0.424245 0
M  V30 25350 H 2396.59 1.06098 -1.59422 0
M  V30 25351 H 2394.9 3.66047 -1.39702 0
M  V30 25352 H 2396.59 3.59212 -1.78235 0
M  V30 25353 H 2393.18 2.9812 -3.07933 0
M  V30 25354 H 2397.37 2.86429 -4.05305 0
M  V30 25355 H 2392.62 2.74826 -5.46151 0
M  V30 25356 H 2396.8 2.64253 -6.44316 0
M  V30 25357 H 2394.42 2.57961 -7.15094 0
M  V30 25358 N 2396 1.10909 1.11969 0
M  V30 25359 C 2397.28 0.766464 1.79957 0
M  V30 25360 C 2397.66 -0.746328 1.97467 0
M  V30 25361 O 2397.01 -1.67434 1.55494 0
M  V30 25362 C 2397.22 1.5232 3.14006 0
M  V30 25363 C 2398.56 1.6989 3.89131 0
M  V30 25364 O 2399.59 1.48698 3.23678 0
M  V30 25365 O 2398.45 2.05063 5.06568 0
M  V30 25366 H 2395.54 0.277076 0.779203 0
M  V30 25367 H 2398.09 1.21219 1.1876 0
M  V30 25368 H 2396.86 2.55254 2.96583 0
M  V30 25369 H 2396.48 1.07065 3.82914 0
M  V30 25370 N 2397.48 -1.29474 0.898573 0
M  V30 25371 C 2398.43 -2.27752 0.373859 0
M  V30 25372 C 2399.4 -1.56959 -0.543417 0
M  V30 25373 O 2400.58 -1.84949 -0.468902 0
M  V30 25374 C 2397.72 -3.42848 -0.393588 0
M  V30 25375 C 2396.83 -4.28427 0.554454 0
M  V30 25376 C 2395.97 -5.30702 -0.229933 0
M  V30 25377 C 2395.01 -6.07937 0.712706 0
M  V30 25378 N 2394.14 -7.0209 -0.0372049 0
M  V30 25379 H 2398.98 -2.72015 1.21703 0
M  V30 25380 H 2396.52 -1.33788 0.611479 0
M  V30 25381 H 2398.48 -4.08354 -0.854588 0
M  V30 25382 H 2397.11 -2.99617 -1.20122 0
M  V30 25383 H 2396.16 -3.63105 1.13397 0
M  V30 25384 H 2397.47 -4.82202 1.27605 0
M  V30 25385 H 2396.63 -6.02019 -0.752182 0
M  V30 25386 H 2395.37 -4.77656 -0.984674 0
M  V30 25387 H 2394.37 -5.35484 1.24646 0
M  V30 25388 H 2395.6 -6.63071 1.46676 0
M  V30 25389 H 2393.54 -6.51415 -0.774233 0
M  V30 25390 H 2393.46 -7.53416 0.624506 0
M  V30 25391 H 2394.73 -7.77629 -0.539754 0
M  V30 25392 N 2398.96 -0.660936 -1.43071 0
M  V30 25393 C 2399.9 0.0259478 -2.30785 0
M  V30 25394 C 2400.87 0.806862 -1.45186 0
M  V30 25395 O 2402.06 0.781912 -1.74042 0
M  V30 25396 C 2399.2 0.981009 -3.30863 0
M  V30 25397 C 2398.31 0.195382 -4.31558 0
M  V30 25398 C 2397.45 1.14494 -5.18714 0
M  V30 25399 C 2396.49 0.350192 -6.11097 0
M  V30 25400 N 2395.62 1.25174 -6.90852 0
M  V30 25401 H 2400.46 -0.727897 -2.88973 0
M  V30 25402 H 2398 -0.370707 -1.42352 0
M  V30 25403 H 2399.96 1.54842 -3.87401 0
M  V30 25404 H 2398.59 1.70164 -2.74307 0
M  V30 25405 H 2397.64 -0.48844 -3.77251 0
M  V30 25406 H 2398.95 -0.422263 -4.97009 0
M  V30 25407 H 2398.11 1.78273 -5.79917 0
M  V30 25408 H 2396.84 1.79648 -4.53407 0
M  V30 25409 H 2395.85 -0.300905 -5.48976 0
M  V30 25410 H 2397.07 -0.29706 -6.7845 0
M  V30 25411 H 2395.02 1.88994 -6.28186 0
M  V30 25412 H 2394.94 0.688839 -7.52855 0
M  V30 25413 H 2396.21 1.87744 -7.56553 0
M  V30 25414 N 2400.43 1.52351 -0.403352 0
M  V30 25415 C 2401.85 1.86578 0.0675454 0
M  V30 25416 C 2402.2 1.32239 1.44939 0
M  V30 25417 O 2401.32 0.659343 2.06111 0
M  V30 25418 C 2401.92 3.38553 0.129344 0
M  V30 25419 C 2400.48 3.7244 0.544564 0
M  V30 25420 C 2399.62 2.75836 -0.2846 0
M  V30 25421 H 2402.57 1.4606 -0.620657 0
M  V30 25422 H 2402.59 3.68559 0.945746 0
M  V30 25423 H 2402.11 3.78072 -0.876516 0
M  V30 25424 H 2400.21 3.38496 1.55728 0
M  V30 25425 H 2400.32 4.78203 0.292961 0
M  V30 25426 H 2398.68 2.53448 0.252214 0
M  V30 25427 H 2399.47 3.18194 -1.2887 0
M  V30 25428 N 2401.91 0.133594 1.57033 0
M  V30 25429 C 2403.16 -0.521614 1.95977 0
M  V30 25430 C 2403.49 -1.65391 1.01782 0
M  V30 25431 O 2402.77 -1.94414 0.0576923 0
M  V30 25432 C 2403.05 -1.04051 3.4474 0
M  V30 25433 C 2402.9 0.0893688 4.49711 0
M  V30 25434 C 2404.22 -1.92668 3.95686 0
M  V30 25435 H 2401.34 -0.188136 0.712582 0
M  V30 25436 H 2403.98 0.21211 1.88812 0
M  V30 25437 H 2402.13 -1.66577 3.50976 0
M  V30 25438 H 2403.8 0.725232 4.55563 0
M  V30 25439 H 2402.05 0.750453 4.27259 0
M  V30 25440 H 2402.72 -0.315187 5.51099 0
M  V30 25441 H 2405.19 -1.39991 3.91844 0
M  V30 25442 H 2404.07 -2.25888 5.00266 0
M  V30 25443 H 2404.33 -2.85866 3.37244 0
M  V30 25444 N 2403.39 -1.56975 -0.140195 0
M  V30 25445 C 2404.32 -1.9539 -1.19814 0
M  V30 25446 C 2405.34 -0.85055 -1.38815 0
M  V30 25447 O 2406.52 -1.12894 -1.38265 0
M  V30 25448 C 2403.62 -2.21862 -2.56185 0
M  V30 25449 C 2402.8 -3.53154 -2.58071 0
M  V30 25450 C 2401.86 -3.68086 -3.7603 0
M  V30 25451 O 2400.88 -4.40412 -3.60591 0
M  V30 25452 N 2402.08 -3.0526 -4.93758 0
M  V30 25453 H 2404.85 -2.86747 -0.871559 0
M  V30 25454 H 2402.41 -1.58508 -0.329692 0
M  V30 25455 H 2404.4 -2.29086 -3.33619 0
M  V30 25456 H 2402.97 -1.36736 -2.81109 0
M  V30 25457 H 2402.19 -3.5731 -1.66504 0
M  V30 25458 H 2403.48 -4.39491 -2.56369 0
M  V30 25459 H 2402.88 -2.46428 -5.09205 0
M  V30 25460 H 2401.44 -3.18036 -5.68943 0
M  V30 25461 N 2404.87 0.409753 -1.5218 0
M  V30 25462 C 2405.78 1.52389 -1.78367 0
M  V30 25463 C 2406.79 1.60616 -0.669211 0
M  V30 25464 O 2407.97 1.77342 -0.954549 0
M  V30 25465 C 2405.04 2.8813 -1.92827 0
M  V30 25466 C 2404.1 2.89794 -3.1673 0
M  V30 25467 C 2403.33 4.19061 -3.3049 0
M  V30 25468 O 2403.55 5.12924 -2.49531 0
M  V30 25469 O 2402.49 4.27569 -4.23637 0
M  V30 25470 H 2406.31 1.33197 -2.72933 0
M  V30 25471 H 2403.9 0.595546 -1.37017 0
M  V30 25472 H 2405.78 3.6864 -2.04164 0
M  V30 25473 H 2404.45 3.07392 -1.0145 0
M  V30 25474 H 2403.36 2.0814 -3.10851 0
M  V30 25475 H 2404.69 2.75482 -4.07886 0
M  V30 25476 N 2406.35 1.42792 0.666944 0
M  V30 25477 C 2407.31 1.46571 1.76209 0
M  V30 25478 C 2408.31 0.352224 1.56895 0
M  V30 25479 O 2409.5 0.613393 1.63043 0
M  V30 25480 C 2406.63 1.305 3.14933 0
M  V30 25481 H 2407.82 2.44089 1.74243 0
M  V30 25482 H 2405.38 1.29355 0.877319 0
M  V30 25483 H 2406.11 0.339358 3.2252 0
M  V30 25484 H 2405.9 2.11205 3.30356 0
M  V30 25485 H 2407.39 1.36045 3.94818 0
M  V30 25486 N 2407.82 -0.904008 1.29095 0
M  V30 25487 C 2409.05 -1.68764 1.19692 0
M  V30 25488 C 2409.47 -1.87229 -0.24308 0
M  V30 25489 O 2408.82 -1.40624 -1.16324 0
M  V30 25490 C 2408.88 -3.0745 1.90149 0
M  V30 25491 O 2408.6 -2.89832 3.28526 0
M  V30 25492 C 2410.1 -4.01849 1.8717 0
M  V30 25493 H 2407.32 -0.527237 0.415045 0
M  V30 25494 H 2409.86 -1.13079 1.70392 0
M  V30 25495 H 2408.02 -3.59924 1.43296 0
M  V30 25496 H 2408.43 -3.77677 3.63951 0
M  V30 25497 H 2409.9 -4.96592 2.41041 0
M  V30 25498 H 2410.38 -4.3097 0.846246 0
M  V30 25499 H 2410.99 -3.55306 2.33747 0
M  V30 25500 N 2409.3 -1.11501 -1.11379 0
M  V30 25501 C 2410.53 -0.886783 -1.86933 0
M  V30 25502 C 2410.95 0.563445 -1.80196 0
M  V30 25503 O 2410.3 1.38906 -1.1837 0
M  V30 25504 C 2410.35 -1.3407 -3.35719 0
M  V30 25505 O 2410.07 -2.73407 -3.42316 0
M  V30 25506 C 2411.58 -1.14798 -4.28178 0
M  V30 25507 H 2408.8 -0.317534 -0.591112 0
M  V30 25508 H 2411.34 -1.4825 -1.40862 0
M  V30 25509 H 2409.49 -0.788421 -3.79292 0
M  V30 25510 H 2409.91 -2.93095 -4.34966 0
M  V30 25511 H 2411.38 -1.51459 -5.30815 0
M  V30 25512 H 2411.86 -0.087605 -4.39113 0
M  V30 25513 H 2412.47 -1.68728 -3.90399 0
M  V30 25514 N 2410.78 1.28995 -0.905426 0
M  V30 25515 C 2412.01 1.99996 -0.54921 0
M  V30 25516 C 2412.43 1.67276 0.860247 0
M  V30 25517 O 2411.79 0.90053 1.57354 0
M  V30 25518 C 2411.84 3.52602 -0.755247 0
M  V30 25519 O 2410.94 4.11964 0.18962 0
M  V30 25520 H 2410.28 0.6286 -0.21391 0
M  V30 25521 H 2412.81 1.64352 -1.21858 0
M  V30 25522 H 2412.82 4.02592 -0.662116 0
M  V30 25523 H 2411.5 3.75752 -1.78278 0
M  V30 25524 H 2410.07 3.72869 0.0484602 0
M  V30 25525 N 2412.26 0.668514 1.42719 0
M  V30 25526 C 2413.21 -0.0137083 2.30796 0
M  V30 25527 C 2414.18 -0.799151 1.45612 0
M  V30 25528 O 2415.36 -0.772671 1.74455 0
M  V30 25529 C 2412.5 -0.963448 3.31378 0
M  V30 25530 C 2411.61 -0.172493 4.31655 0
M  V30 25531 C 2410.75 -1.11741 5.19314 0
M  V30 25532 C 2409.79 -0.317779 6.11275 0
M  V30 25533 N 2408.93 -1.21508 6.91506 0
M  V30 25534 H 2413.77 0.743212 2.88583 0
M  V30 25535 H 2411.3 0.378251 1.42154 0
M  V30 25536 H 2413.26 -1.52785 3.88217 0
M  V30 25537 H 2411.89 -1.68707 2.75205 0
M  V30 25538 H 2410.94 0.50844 3.76987 0
M  V30 25539 H 2412.25 0.448615 4.96779 0
M  V30 25540 H 2411.41 -1.75195 5.80854 0
M  V30 25541 H 2410.15 -1.77241 4.54353 0
M  V30 25542 H 2409.15 0.330014 5.48809 0
M  V30 25543 H 2410.38 0.333036 6.78283 0
M  V30 25544 H 2408.32 -1.8566 6.29179 0
M  V30 25545 H 2408.24 -0.648903 7.5321 0
M  V30 25546 H 2409.51 -1.83729 7.57538 0
M  V30 25547 N 2413.74 -1.52135 0.411426 0
M  V30 25548 C 2414.67 -2.29979 -0.403974 0
M  V30 25549 C 2415.65 -1.34286 -1.0441 0
M  V30 25550 O 2416.83 -1.63194 -1.05268 0
M  V30 25551 C 2413.96 -3.12288 -1.51965 0
M  V30 25552 C 2412.92 -4.16048 -1.0044 0
M  V30 25553 C 2412.24 -4.86716 -2.21385 0
M  V30 25554 C 2413.54 -5.22269 -0.0568418 0
M  V30 25555 H 2415.24 -2.98391 0.245581 0
M  V30 25556 H 2412.78 -1.43503 0.11955 0
M  V30 25557 H 2414.74 -3.65514 -2.09708 0
M  V30 25558 H 2413.46 -2.41649 -2.19711 0
M  V30 25559 H 2412.12 -3.63836 -0.449357 0
M  V30 25560 H 2411.77 -4.12605 -2.87692 0
M  V30 25561 H 2411.47 -5.56861 -1.87561 0
M  V30 25562 H 2412.99 -5.42755 -2.7973 0
M  V30 25563 H 2414.41 -5.70721 -0.54315 0
M  V30 25564 H 2412.8 -5.99791 0.1927 0
M  V30 25565 H 2413.87 -4.76704 0.887747 0
M  V30 25566 N 2415.22 -0.14192 -1.5696 0
M  V30 25567 C 2416.15 0.795898 -2.19517 0
M  V30 25568 C 2417.13 1.26075 -1.14189 0
M  V30 25569 O 2418.31 1.31923 -1.42513 0
M  V30 25570 C 2415.44 2.03718 -2.81276 0
M  V30 25571 C 2414.4 1.70929 -3.92387 0
M  V30 25572 C 2413.72 3.02279 -4.41057 0
M  V30 25573 C 2415.02 0.959864 -5.13404 0
M  V30 25574 H 2416.72 0.274543 -2.98139 0
M  V30 25575 H 2414.26 0.130611 -1.43406 0
M  V30 25576 H 2416.21 2.69802 -3.23705 0
M  V30 25577 H 2414.94 2.58218 -1.99978 0
M  V30 25578 H 2413.6 1.07226 -3.50568 0
M  V30 25579 H 2413.25 3.54759 -3.56588 0
M  V30 25580 H 2412.95 2.81105 -5.15998 0
M  V30 25581 H 2414.47 3.69443 -4.86153 0
M  V30 25582 H 2415.88 1.52269 -5.52709 0
M  V30 25583 H 2414.28 0.848253 -5.94075 0
M  V30 25584 H 2415.35 -0.0493287 -4.84875 0
M  V30 25585 N 2416.69 1.57047 0.131868 0
M  V30 25586 C 2418.1 1.73467 0.690376 0
M  V30 25587 C 2418.46 0.758661 1.80939 0
M  V30 25588 O 2417.58 -0.0713433 2.16282 0
M  V30 25589 C 2418.18 3.14535 1.2591 0
M  V30 25590 C 2416.73 3.32504 1.76403 0
M  V30 25591 C 2415.88 2.69367 0.658531 0
M  V30 25592 H 2418.83 1.58422 -0.0939422 0
M  V30 25593 H 2418.85 3.15372 2.12886 0
M  V30 25594 H 2418.37 3.85547 0.444447 0
M  V30 25595 H 2416.47 2.66514 2.60387 0
M  V30 25596 H 2416.58 4.40574 1.88233 0
M  V30 25597 H 2414.94 2.30248 1.08895 0
M  V30 25598 H 2415.73 3.42994 -0.144931 0
M  V30 25599 N 2418.17 -0.401677 1.52395 0
M  V30 25600 C 2419.42 -1.14793 1.6682 0
M  V30 25601 C 2419.75 -1.90304 0.401805 0
M  V30 25602 O 2419 -1.8577 -0.615454 0
M  V30 25603 C 2419.3 -2.16212 2.84582 0
M  V30 25604 C 2418.97 -1.57453 4.22516 0
M  V30 25605 C 2417.63 -1.41153 4.60032 0
M  V30 25606 C 2419.98 -1.14613 5.08442 0
M  V30 25607 C 2417.31 -0.805418 5.81145 0
M  V30 25608 C 2419.66 -0.554169 6.30168 0
M  V30 25609 C 2418.32 -0.378364 6.66427 0
M  V30 25610 H 2417.59 -0.420058 0.610436 0
M  V30 25611 H 2420.24 -0.434179 1.86513 0
M  V30 25612 H 2418.55 -2.9376 2.59254 0
M  V30 25613 H 2420.24 -2.7384 2.92938 0
M  V30 25614 H 2416.83 -1.71125 3.92956 0
M  V30 25615 H 2421.02 -1.26012 4.80036 0
M  V30 25616 H 2416.27 -0.657292 6.07857 0
M  V30 25617 H 2420.45 -0.21386 6.96072 0
M  V30 25618 H 2418.07 0.0933942 7.60143 0
M  V30 25619 N 2419.65 -1.43144 -0.659362 0
M  V30 25620 C 2420.93 -1.34914 -1.41624 0
M  V30 25621 C 2421.31 0.00604075 -2.11099 0
M  V30 25622 O 2420.65 1.02232 -2.04355 0
M  V30 25623 C 2420.86 -2.5281 -2.406 0
M  V30 25624 C 2422.21 -2.95621 -3.04784 0
M  V30 25625 O 2423.24 -2.52812 -2.50928 0
M  V30 25626 O 2422.1 -3.69763 -4.02415 0
M  V30 25627 H 2419.19 -0.532856 -0.632451 0
M  V30 25628 H 2421.74 -1.55182 -0.686787 0
M  V30 25629 H 2420.51 -3.43087 -1.88168 0
M  V30 25630 H 2420.13 -2.3461 -3.21005 0
M  V30 25631 N 2421.13 0.897149 -1.29572 0
M  V30 25632 C 2422.35 1.68654 -1.20708 0
M  V30 25633 C 2422.78 1.86706 0.22855 0
M  V30 25634 O 2422.14 1.38922 1.16492 0
M  V30 25635 C 2422.18 3.04714 -1.92826 0
M  V30 25636 O 2421.29 3.93094 -1.24704 0
M  V30 25637 H 2420.63 0.515809 -0.418135 0
M  V30 25638 H 2423.16 1.12057 -1.71185 0
M  V30 25639 H 2423.17 3.54839 -2.01378 0
M  V30 25640 H 2421.84 2.90894 -2.97244 0
M  V30 25641 H 2420.42 3.51529 -1.24426 0
M  V30 25642 N 2422.61 1.1209 1.10786 0
M  V30 25643 C 2423.54 0.807793 2.19082 0
M  V30 25644 C 2424.52 -0.226829 1.68581 0
M  V30 25645 O 2425.7 -0.0888134 1.93997 0
M  V30 25646 C 2422.83 0.257637 3.46343 0
M  V30 25647 C 2421.79 1.22491 4.10098 0
M  V30 25648 C 2421.11 0.535145 5.32015 0
M  V30 25649 C 2422.41 2.57819 4.54232 0
M  V30 25650 H 2424.11 1.71333 2.45531 0
M  V30 25651 H 2421.65 0.825225 1.18009 0
M  V30 25652 H 2423.6 0.0263419 4.21392 0
M  V30 25653 H 2422.33 -0.683222 3.19374 0
M  V30 25654 H 2420.99 1.44195 3.37051 0
M  V30 25655 H 2420.64 -0.410739 5.0132 0
M  V30 25656 H 2420.34 1.18034 5.75623 0
M  V30 25657 H 2421.86 0.312802 6.09798 0
M  V30 25658 H 2423.27 2.40164 5.20571 0
M  V30 25659 H 2421.67 3.18384 5.08676 0
M  V30 25660 H 2422.74 3.16534 3.67334 0
M  V30 25661 N 2424.08 -1.28513 0.912254 0
M  V30 25662 C 2425.31 -1.99702 0.559809 0
M  V30 25663 C 2425.73 -1.6773 -0.851364 0
M  V30 25664 O 2425.09 -0.908862 -1.56874 0
M  V30 25665 C 2425.14 -3.52197 0.773936 0
M  V30 25666 O 2424.24 -4.12059 -0.16777 0
M  V30 25667 H 2423.58 -0.627457 0.217241 0
M  V30 25668 H 2426.11 -1.63704 1.22728 0
M  V30 25669 H 2426.12 -4.02235 0.683457 0
M  V30 25670 H 2424.8 -3.74802 1.80268 0
M  V30 25671 H 2423.38 -3.72889 -0.0286853 0
M  V30 25672 N 2425.56 -0.676073 -1.42362 0
M  V30 25673 C 2426.98 -0.345745 -1.5581 0
M  V30 25674 C 2427.18 1.14877 -1.65546 0
M  V30 25675 O 2426.23 1.93422 -1.62309 0
M  V30 25676 C 2427.55 -1.07718 -2.80744 0
M  V30 25677 C 2429.1 -1.05963 -2.94518 0
M  V30 25678 C 2429.57 -1.77241 -4.22315 0
M  V30 25679 N 2431.06 -1.74115 -4.2923 0
M  V30 25680 C 2431.8 -2.26122 -5.26931 0
M  V30 25681 N 2431.29 -2.86516 -6.30777 0
M  V30 25682 N 2433.09 -2.16489 -5.18738 0
M  V30 25683 H 2425.24 -1.64563 -1.34286 0
M  V30 25684 H 2427.5 -0.693361 -0.646494 0
M  V30 25685 H 2427.21 -2.13226 -2.79692 0
M  V30 25686 H 2427.08 -0.643225 -3.71675 0
M  V30 25687 H 2429.47 -0.0128774 -2.95097 0
M  V30 25688 H 2429.55 -1.53247 -2.04814 0
M  V30 25689 H 2429.19 -2.81885 -4.22497 0
M  V30 25690 H 2429.12 -1.27405 -5.10955 0
M  V30 25691 H 2431.61 -1.30065 -3.54812 0
M  V30 25692 H 2431.93 -3.23817 -7.01685 0
M  V30 25693 H 2430.27 -2.90586 -6.31335 0
M  V30 25694 H 2433.46 -1.68994 -4.3653 0
M  V30 25695 H 2433.63 -2.57326 -5.94716 0
M  V30 25696 N 2427.04 1.51915 -0.419488 0
M  V30 25697 C 2428.27 2.06041 0.151879 0
M  V30 25698 C 2428.68 1.28858 1.38537 0
M  V30 25699 O 2428.02 0.336495 1.80592 0
M  V30 25700 C 2428.08 3.55158 0.557056 0
M  V30 25701 C 2427.75 4.53467 -0.567134 0
M  V30 25702 C 2428.74 4.99736 -1.43388 0
M  V30 25703 C 2426.43 4.96778 -0.74278 0
M  V30 25704 C 2428.42 5.87969 -2.46112 0
M  V30 25705 C 2426.11 5.84805 -1.77332 0
M  V30 25706 C 2427.11 6.30296 -2.63089 0
M  V30 25707 O 2426.8 7.16579 -3.64376 0
M  V30 25708 H 2426.53 0.675724 0.0193174 0
M  V30 25709 H 2429.08 1.96681 -0.592107 0
M  V30 25710 H 2427.31 3.6224 1.35348 0
M  V30 25711 H 2429 3.91882 1.05753 0
M  V30 25712 H 2429.77 4.66984 -1.30963 0
M  V30 25713 H 2425.65 4.60922 -0.0849117 0
M  V30 25714 H 2429.19 6.23398 -3.13082 0
M  V30 25715 H 2425.09 6.1697 -1.89784 0
M  V30 25716 H 2425.86 7.34715 -3.60744 0
M  V30 25717 N 2428.52 0.150242 1.56882 0
M  V30 25718 C 2429.77 -0.500037 1.95403 0
M  V30 25719 C 2430.08 -1.65799 1.03779 0
M  V30 25720 O 2431.29 -2.37311 1.31893 0
M  V30 25721 C 2429.74 -0.940957 3.47382 0
M  V30 25722 C 2429.35 0.190237 4.47596 0
M  V30 25723 C 2431.09 -1.56084 3.94763 0
M  V30 25724 C 2429 -0.269134 5.90787 0
M  V30 25725 H 2427.93 -0.190575 0.729518 0
M  V30 25726 H 2430.58 0.235106 1.81988 0
M  V30 25727 H 2428.96 -1.73146 3.56141 0
M  V30 25728 H 2430.14 0.967236 4.50534 0
M  V30 25729 H 2428.45 0.718738 4.1015 0
M  V30 25730 H 2431.05 -1.91622 4.99185 0
M  V30 25731 H 2431.39 -2.45101 3.36499 0
M  V30 25732 H 2431.93 -0.83518 3.88934 0
M  V30 25733 H 2428.67 0.585736 6.52878 0
M  V30 25734 H 2428.19 -1.01194 5.91202 0
M  V30 25735 H 2429.86 -0.720063 6.42981 0
M  V30 25736 N 2430 -1.57115 -0.123538 0
M  V30 25737 C 2431.24 -1.84613 -0.832121 0
M  V30 25738 C 2431.57 -0.734659 -1.80092 0
M  V30 25739 O 2430.83 0.274386 -1.93767 0
M  V30 25740 C 2431.13 -3.18571 -1.6201 0
M  V30 25741 C 2430.79 -4.43818 -0.796006 0
M  V30 25742 C 2429.45 -4.77827 -0.568732 0
M  V30 25743 C 2431.81 -5.2073 -0.221273 0
M  V30 25744 C 2429.13 -5.86194 0.243602 0
M  V30 25745 C 2431.49 -6.29952 0.578228 0
M  V30 25746 C 2430.15 -6.62495 0.815861 0
M  V30 25747 H 2429.42 -0.675547 -0.304495 0
M  V30 25748 H 2432.07 -1.91266 -0.0946912 0
M  V30 25749 H 2430.37 -3.07474 -2.42831 0
M  V30 25750 H 2432.07 -3.37067 -2.17225 0
M  V30 25751 H 2428.66 -4.1717 -0.983234 0
M  V30 25752 H 2432.84 -4.94812 -0.384086 0
M  V30 25753 H 2428.1 -6.09836 0.436978 0
M  V30 25754 H 2432.27 -6.88732 1.03058 0
M  V30 25755 H 2429.9 -7.46299 1.44715 0
M  V30 25756 N 2431.47 0.393589 -1.52606 0
M  V30 25757 C 2432.38 1.50489 -1.79973 0
M  V30 25758 C 2433.4 1.59897 -0.686209 0
M  V30 25759 O 2434.58 1.7632 -0.973305 0
M  V30 25760 C 2431.64 2.86068 -1.95872 0
M  V30 25761 C 2430.7 2.86419 -3.19786 0
M  V30 25762 C 2429.94 4.15532 -3.34916 0
M  V30 25763 O 2430.16 5.10248 -2.54957 0
M  V30 25764 O 2429.09 4.23052 -4.28148 0
M  V30 25765 H 2432.92 1.30294 -2.7433 0
M  V30 25766 H 2430.5 0.58098 -1.37641 0
M  V30 25767 H 2432.39 3.66453 -2.08062 0
M  V30 25768 H 2431.06 3.06298 -1.04704 0
M  V30 25769 H 2429.97 2.04831 -3.13041 0
M  V30 25770 H 2431.3 2.7114 -4.10784 0
M  V30 25771 N 2432.95 1.43492 0.651762 0
M  V30 25772 C 2433.9 1.48763 1.7646 0
M  V30 25773 C 2434.87 0.337217 1.62641 0
M  V30 25774 O 2436.05 0.544576 1.82863 0
M  V30 25775 C 2433.19 1.41802 3.14621 0
M  V30 25776 C 2432.31 2.67059 3.39563 0
M  V30 25777 C 2431.44 2.52076 4.6758 0
M  V30 25778 C 2430.48 3.72595 4.85633 0
M  V30 25779 N 2429.62 3.56413 6.04908 0
M  V30 25780 H 2434.46 2.43852 1.71289 0
M  V30 25781 H 2432 1.21044 0.835868 0
M  V30 25782 H 2433.95 1.3576 3.94494 0
M  V30 25783 H 2432.58 0.502936 3.18858 0
M  V30 25784 H 2431.64 2.83374 2.53778 0
M  V30 25785 H 2432.95 3.56578 3.48788 0
M  V30 25786 H 2432.1 2.4375 5.55582 0
M  V30 25787 H 2430.84 1.60084 4.60678 0
M  V30 25788 H 2429.85 3.81328 3.96067 0
M  V30 25789 H 2431.07 4.65598 4.94364 0
M  V30 25790 H 2429.02 2.67156 5.99136 0
M  V30 25791 H 2428.93 4.39534 6.15098 0
M  V30 25792 H 2430.2 3.51941 6.95527 0
M  V30 25793 N 2434.43 -0.890264 1.30046 0
M  V30 25794 C 2435.84 -1.457 1.16741 0
M  V30 25795 C 2436.19 -1.94801 -0.233905 0
M  V30 25796 O 2435.32 -1.84543 -1.13018 0
M  V30 25797 C 2435.91 -2.64821 2.11318 0
M  V30 25798 C 2434.47 -3.17601 2.02007 0
M  V30 25799 C 2433.62 -1.90293 2.01703 0
M  V30 25800 H 2436.57 -0.700701 1.42393 0
M  V30 25801 H 2436.59 -3.40864 1.69092 0
M  V30 25802 H 2436.1 -2.29054 3.13298 0
M  V30 25803 H 2434.2 -3.58038 1.03148 0
M  V30 25804 H 2434.32 -3.81259 2.90135 0
M  V30 25805 H 2432.68 -2.08399 1.4643 0
M  V30 25806 H 2433.46 -1.5679 3.05404 0
M  V30 25807 N 2435.91 -1.12676 -1.1019 0
M  V30 25808 C 2437.32 -0.86334 -1.34233 0
M  V30 25809 C 2437.52 0.505243 -1.95063 0
M  V30 25810 O 2436.58 1.25341 -2.19194 0
M  V30 25811 C 2437.89 -1.98176 -2.26156 0
M  V30 25812 C 2439.44 -2.01294 -2.39687 0
M  V30 25813 C 2439.92 -3.12376 -3.3494 0
M  V30 25814 N 2441.41 -3.11835 -3.4251 0
M  V30 25815 C 2442.14 -3.94426 -4.16192 0
M  V30 25816 N 2441.64 -4.87012 -4.92738 0
M  V30 25817 N 2443.43 -3.82554 -4.11836 0
M  V30 25818 H 2435.58 -2.00854 -0.690762 0
M  V30 25819 H 2437.85 -0.874181 -0.366759 0
M  V30 25820 H 2437.55 -2.96808 -1.88675 0
M  V30 25821 H 2437.43 -1.88912 -3.26484 0
M  V30 25822 H 2439.81 -1.0328 -2.76437 0
M  V30 25823 H 2439.89 -2.14632 -1.39165 0
M  V30 25824 H 2439.54 -4.10624 -2.98915 0
M  V30 25825 H 2439.47 -2.96277 -4.35348 0
M  V30 25826 H 2441.96 -2.44764 -2.87922 0
M  V30 25827 H 2442.27 -5.46537 -5.46367 0
M  V30 25828 H 2440.62 -4.91024 -4.91854 0
M  V30 25829 H 2443.81 -3.09556 -3.51131 0
M  V30 25830 H 2443.98 -4.47151 -4.68999 0
M  V30 25831 N 2437.39 1.28028 -0.919057 0
M  V30 25832 C 2438.64 1.94033 -0.550836 0
M  V30 25833 C 2438.95 1.73098 0.910847 0
M  V30 25834 O 2440.15 2.3337 1.38746 0
M  V30 25835 C 2438.61 3.47561 -0.93431 0
M  V30 25836 C 2438.22 3.77266 -2.41608 0
M  V30 25837 C 2439.96 4.19695 -0.636928 0
M  V30 25838 C 2437.87 5.24128 -2.73941 0
M  V30 25839 H 2436.8 0.726358 -0.202286 0
M  V30 25840 H 2439.45 1.45456 -1.1187 0
M  V30 25841 H 2437.83 3.94898 -0.295184 0
M  V30 25842 H 2439.01 3.40718 -3.10239 0
M  V30 25843 H 2437.32 3.18316 -2.68447 0
M  V30 25844 H 2439.92 5.27818 -0.855098 0
M  V30 25845 H 2440.26 4.1412 0.425502 0
M  V30 25846 H 2440.79 3.78151 -1.23476 0
M  V30 25847 H 2437.53 5.34785 -3.79058 0
M  V30 25848 H 2437.05 5.61854 -2.09952 0
M  V30 25849 H 2438.73 5.91921 -2.61225 0
M  V30 25850 N 2438.86 0.683613 1.42002 0
M  V30 25851 C 2440.11 0.20986 2.01711 0
M  V30 25852 C 2440.44 -1.1835 1.53971 0
M  V30 25853 O 2439.72 -1.79638 0.745692 0
M  V30 25854 C 2440 0.25426 3.59201 0
M  V30 25855 C 2439.85 1.68371 4.17099 0
M  V30 25856 C 2441.17 -0.392632 4.38345 0
M  V30 25857 H 2438.29 0.0777317 0.732889 0
M  V30 25858 H 2440.93 0.87007 1.68908 0
M  V30 25859 H 2439.08 -0.307885 3.87278 0
M  V30 25860 H 2440.76 2.29878 3.99942 0
M  V30 25861 H 2439 2.22164 3.72593 0
M  V30 25862 H 2439.67 1.66639 5.26246 0
M  V30 25863 H 2442.15 0.0859893 4.16011 0
M  V30 25864 H 2441.02 -0.330967 5.47901 0
M  V30 25865 H 2441.28 -1.47157 4.1689 0
M  V30 25866 N 2440.34 -1.5169 0.427538 0
M  V30 25867 C 2441.59 -2.01601 -0.141912 0
M  V30 25868 C 2441.91 -1.31417 -1.44065 0
M  V30 25869 O 2441.18 -0.445692 -1.90763 0
M  V30 25870 H 2439.76 -0.74494 -0.0554337 0
M  V30 25871 H 2442.42 -1.8644 0.568001 0
M  V30 25872 H 2441.52 -3.10405 -0.324858 0
M  V30 25873 N 2441.82 -0.15856 -1.568 0
M  V30 25874 C 2443.07 0.488678 -1.96103 0
M  V30 25875 C 2443.39 1.64635 -1.04501 0
M  V30 25876 O 2442.66 1.95598 -0.108817 0
M  V30 25877 H 2441.24 0.183522 -0.724105 0
M  V30 25878 H 2443.9 -0.236762 -1.93457 0
M  V30 25879 H 2443 0.857167 -3.00098 0
M  V30 25880 N 2443.3 1.57178 0.115204 0
M  V30 25881 C 2444.25 2.00617 1.14111 0
M  V30 25882 C 2445.22 0.878966 1.40938 0
M  V30 25883 O 2446.4 1.14347 1.52739 0
M  V30 25884 C 2443.54 2.41874 2.46152 0
M  V30 25885 C 2442.65 3.68028 2.26229 0
M  V30 25886 C 2441.79 3.98249 3.51527 0
M  V30 25887 C 2440.83 5.17574 3.26778 0
M  V30 25888 N 2439.97 5.43647 4.44289 0
M  V30 25889 H 2444.81 2.88048 0.763692 0
M  V30 25890 H 2442.34 1.42485 0.36559 0
M  V30 25891 H 2444.3 2.63832 3.23185 0
M  V30 25892 H 2442.93 1.5748 2.8178 0
M  V30 25893 H 2441.98 3.53663 1.40096 0
M  V30 25894 H 2443.29 4.55212 2.03921 0
M  V30 25895 H 2442.45 4.20876 4.36976 0
M  V30 25896 H 2441.19 3.09548 3.76871 0
M  V30 25897 H 2440.19 4.94787 2.3972 0
M  V30 25898 H 2441.42 6.07855 3.02801 0
M  V30 25899 H 2439.36 4.57903 4.69746 0
M  V30 25900 H 2439.28 6.25162 4.25098 0
M  V30 25901 H 2440.55 5.70795 5.3086 0
M  V30 25902 N 2444.78 -0.38549 1.52813 0
M  V30 25903 C 2445.74 -1.45382 1.77191 0
M  V30 25904 C 2446.74 -1.47429 0.641979 0
M  V30 25905 O 2447.93 -1.48538 0.910059 0
M  V30 25906 C 2445.06 -2.84647 1.87587 0
M  V30 25907 H 2446.26 -1.25049 2.72585 0
M  V30 25908 H 2443.81 -0.617442 1.43587 0
M  V30 25909 H 2444.54 -3.1032 0.941903 0
M  V30 25910 H 2444.33 -2.84562 2.69753 0
M  V30 25911 H 2445.82 -3.6205 2.08109 0
M  V30 25912 N 2446.26 -1.43835 -0.644143 0
M  V30 25913 C 2447.22 -1.49356 -1.73855 0
M  V30 25914 C 2448.22 -0.37714 -1.56315 0
M  V30 25915 O 2449.41 -0.639254 -1.62047 0
M  V30 25916 C 2446.54 -1.35493 -3.12817 0
M  V30 25917 H 2447.73 -2.4683 -1.70338 0
M  V30 25918 H 2445.29 -1.30735 -0.856629 0
M  V30 25919 H 2446.02 -0.390625 -3.21939 0
M  V30 25920 H 2445.81 -2.16434 -3.26954 0
M  V30 25921 H 2447.3 -1.42309 -3.92604 0
M  V30 25922 N 2447.73 0.883355 -1.30517 0
M  V30 25923 C 2448.96 1.67365 -1.2249 0
M  V30 25924 C 2449.38 1.86938 0.208734 0
M  V30 25925 O 2448.74 1.4015 1.15012 0
M  V30 25926 C 2448.79 3.02652 -1.96047 0
M  V30 25927 O 2447.89 3.91749 -1.28866 0
M  V30 25928 H 2447.23 0.511345 -0.423582 0
M  V30 25929 H 2449.76 1.10236 -1.72364 0
M  V30 25930 H 2449.77 3.52683 -2.05131 0
M  V30 25931 H 2448.45 2.87724 -3.00312 0
M  V30 25932 H 2447.03 3.5019 -1.28147 0
M  V30 25933 N 2449.21 1.13259 1.09591 0
M  V30 25934 C 2450.46 0.893289 1.81732 0
M  V30 25935 C 2450.79 -0.580623 1.85631 0
M  V30 25936 O 2450.04 -1.44564 1.31908 0
M  V30 25937 C 2450.34 1.42416 3.27799 0
M  V30 25938 C 2450.01 2.91462 3.44036 0
M  V30 25939 C 2448.67 3.32156 3.48175 0
M  V30 25940 C 2451.02 3.87362 3.48712 0
M  V30 25941 C 2448.35 4.67439 3.54567 0
M  V30 25942 C 2450.7 5.22486 3.56639 0
M  V30 25943 C 2449.36 5.6271 3.59045 0
M  V30 25944 H 2448.63 0.326877 0.665005 0
M  V30 25945 H 2451.28 1.41425 1.29117 0
M  V30 25946 H 2449.59 0.823863 3.8304 0
M  V30 25947 H 2451.28 1.2151 3.82147 0
M  V30 25948 H 2447.87 2.58993 3.41498 0
M  V30 25949 H 2452.06 3.5701 3.44757 0
M  V30 25950 H 2447.31 4.97982 3.54717 0
M  V30 25951 H 2451.49 5.96613 3.59202 0
M  V30 25952 H 2449.11 6.67525 3.63751 0
M  V30 25953 N 2450.69 -1.27539 0.925834 0
M  V30 25954 C 2451.92 -1.98559 0.581544 0
M  V30 25955 C 2452.33 -1.69084 -0.840011 0
M  V30 25956 O 2451.69 -0.950339 -1.55804 0
M  V30 25957 C 2451.74 -3.52635 0.795651 0
M  V30 25958 O 2451.46 -3.81078 2.16128 0
M  V30 25959 C 2452.96 -4.40909 0.459822 0
M  V30 25960 H 2450.18 -0.633718 0.22055 0
M  V30 25961 H 2452.73 -1.62438 1.24234 0
M  V30 25962 H 2450.88 -3.86974 0.181678 0
M  V30 25963 H 2451.3 -4.75672 2.20989 0
M  V30 25964 H 2452.77 -5.48036 0.66034 0
M  V30 25965 H 2453.25 -4.35019 -0.604548 0
M  V30 25966 H 2453.85 -4.12088 1.05185 0
M  V30 25967 N 2452.17 -0.691135 -1.41637 0
M  V30 25968 C 2453.42 -0.217353 -2.00525 0
M  V30 25969 C 2453.73 1.18846 -1.55355 0
M  V30 25970 O 2454.94 1.75947 -2.06772 0
M  V30 25971 C 2453.39 -0.337702 -3.58312 0
M  V30 25972 C 2453 -1.7486 -4.12466 0
M  V30 25973 C 2454.74 0.076532 -4.24431 0
M  V30 25974 C 2452.65 -1.82084 -5.62672 0
M  V30 25975 H 2451.58 -0.0775025 -0.750006 0
M  V30 25976 H 2454.23 -0.858689 -1.62169 0
M  V30 25977 H 2452.61 0.371809 -3.94251 0
M  V30 25978 H 2453.79 -2.48651 -3.87955 0
M  V30 25979 H 2452.1 -2.11212 -3.58857 0
M  V30 25980 H 2454.7 0.0429344 -5.34683 0
M  V30 25981 H 2455.04 1.11453 -4.01103 0
M  V30 25982 H 2455.58 -0.582545 -3.93511 0
M  V30 25983 H 2452.31 -2.83921 -5.90821 0
M  V30 25984 H 2451.83 -1.12671 -5.89122 0
M  V30 25985 H 2453.51 -1.5817 -6.27368 0
M  V30 25986 N 2453.65 1.51461 -0.435577 0
M  V30 25987 C 2455.06 1.86679 0.0279543 0
M  V30 25988 C 2455.41 1.35283 1.42102 0
M  V30 25989 O 2454.53 0.702914 2.04666 0
M  V30 25990 C 2455.13 3.38751 0.0575031 0
M  V30 25991 C 2453.69 3.73511 0.465441 0
M  V30 25992 C 2452.83 2.7517 -0.343045 0
M  V30 25993 H 2455.78 1.44711 -0.651499 0
M  V30 25994 H 2455.81 3.70482 0.867356 0
M  V30 25995 H 2455.32 3.76128 -0.956514 0
M  V30 25996 H 2453.42 3.41723 1.48513 0
M  V30 25997 H 2453.53 4.78717 0.191462 0
M  V30 25998 H 2451.9 2.53926 0.198397 0
M  V30 25999 H 2452.68 3.15389 -1.3559 0
M  V30 26000 N 2455.12 0.166873 1.56714 0
M  V30 26001 C 2456.09 -0.751194 2.1654 0
M  V30 26002 C 2457.09 -1.16123 1.1123 0
M  V30 26003 O 2458.28 -1.07891 1.36767 0
M  V30 26004 C 2455.41 -2.02191 2.74466 0
M  V30 26005 H 2456.6 -0.230447 2.99013 0
M  V30 26006 H 2454.16 -0.0826708 1.56081 0
M  V30 26007 H 2454.89 -2.58586 1.95714 0
M  V30 26008 H 2454.68 -1.73691 3.5153 0
M  V30 26009 H 2456.17 -2.67719 3.20494 0
M  V30 26010 N 2456.6 -1.57237 -0.106866 0
M  V30 26011 C 2457.55 -2.02217 -1.1494 0
M  V30 26012 C 2458.54 -0.921165 -1.42165 0
M  V30 26013 O 2459.75 -1.10636 -1.41985 0
M  V30 26014 H 2456.13 -0.644276 -0.38783 0
M  V30 26015 H 2458.1 -2.88986 -0.743632 0
M  V30 26016 C 2456.85 -2.45255 -2.46466 0
M  V30 26017 H 2456.17 -3.29549 -2.26358 0
M  V30 26018 H 2457.61 -2.80514 -3.17944 0
M  V30 26019 C 2456.07 -1.32105 -3.09919 0
M  V30 26020 O 2456.6 -0.643691 -3.96509 0
M  V30 26021 N 2454.8 -1.07502 -2.69985 0
M  V30 26022 H 2454.35 -1.62764 -1.99664 0
M  V30 26023 H 2454.31 -0.319931 -3.12768 0
M  V30 26024 N 2458.08 0.377381 -1.53015 0
M  V30 26025 C 2459.31 1.14665 -1.7282 0
M  V30 26026 C 2459.73 1.82619 -0.450757 0
M  V30 26027 O 2459.09 1.71281 0.59436 0
M  V30 26028 C 2459.14 2.16159 -2.88631 0
M  V30 26029 O 2458.24 3.22994 -2.56415 0
M  V30 26030 H 2457.58 0.333268 -0.574307 0
M  V30 26031 H 2460.11 0.438117 -1.99854 0
M  V30 26032 H 2460.12 2.5996 -3.14459 0
M  V30 26033 H 2458.8 1.66088 -3.81297 0
M  V30 26034 H 2457.37 2.84248 -2.41365 0
M  V30 26035 N 2459.56 1.44175 0.636506 0
M  V30 26036 C 2460.84 1.3715 1.3946 0
M  V30 26037 C 2461.22 0.0275441 2.11082 0
M  V30 26038 O 2460.56 -0.98968 2.05955 0
M  V30 26039 C 2460.77 2.56605 2.36548 0
M  V30 26040 C 2462.12 3.00433 3.00042 0
M  V30 26041 O 2463.15 2.56772 2.46874 0
M  V30 26042 O 2462 3.76118 3.96481 0
M  V30 26043 H 2459.1 0.54285 0.623893 0
M  V30 26044 H 2461.64 1.56255 0.662012 0
M  V30 26045 H 2460.42 3.46037 1.82686 0
M  V30 26046 H 2460.04 2.39687 3.17232 0
M  V30 26047 N 2461.04 -0.876421 1.30983 0
M  V30 26048 C 2462 -1.96457 1.18057 0
M  V30 26049 C 2463 -1.60427 0.109428 0
M  V30 26050 O 2464.19 -1.70477 0.358203 0
M  V30 26051 C 2461.32 -3.31121 0.810675 0
M  V30 26052 H 2462.51 -2.0935 2.14739 0
M  V30 26053 H 2460.07 -1.0639 1.14502 0
M  V30 26054 H 2460.8 -3.23928 -0.155265 0
M  V30 26055 H 2460.59 -3.58642 1.58487 0
M  V30 26056 H 2462.08 -4.1092 0.743948 0
M  V30 26057 N 2462.51 -1.13839 -1.08989 0
M  V30 26058 C 2463.76 -0.902914 -1.81256 0
M  V30 26059 C 2464.09 0.57077 -1.85937 0
M  V30 26060 O 2463.34 1.43862 -1.32673 0
M  V30 26061 C 2463.64 -1.44153 -3.27039 0
M  V30 26062 C 2463.31 -2.93282 -3.42485 0
M  V30 26063 C 2461.97 -3.33998 -3.46408 0
M  V30 26064 C 2464.32 -3.89206 -3.46653 0
M  V30 26065 C 2461.65 -4.69313 -3.52083 0
M  V30 26066 C 2464 -5.2437 -3.53863 0
M  V30 26067 C 2462.67 -5.64606 -3.56056 0
M  V30 26068 H 2461.94 -0.3304 -0.663262 0
M  V30 26069 H 2464.58 -1.42107 -1.28366 0
M  V30 26070 H 2462.89 -0.844165 -3.82598 0
M  V30 26071 H 2464.59 -1.23535 -3.81497 0
M  V30 26072 H 2461.18 -2.608 -3.40119 0
M  V30 26073 H 2465.36 -3.58834 -3.42859 0
M  V30 26074 H 2460.62 -4.99856 -3.52071 0
M  V30 26075 H 2464.79 -5.9851 -3.56033 0
M  V30 26076 H 2462.42 -6.69444 -3.60206 0
M  V30 26077 N 2463.99 1.27046 -0.932584 0
M  V30 26078 C 2464.92 2.29065 -0.452942 0
M  V30 26079 C 2465.9 1.6291 0.48931 0
M  V30 26080 O 2467.09 1.90182 0.393013 0
M  V30 26081 C 2464.22 3.46082 0.290637 0
M  V30 26082 C 2463.17 4.24264 -0.564242 0
M  V30 26083 C 2462.5 5.33808 0.308793 0
M  V30 26084 C 2463.8 4.89146 -1.83121 0
M  V30 26085 H 2465.49 2.69435 -1.30557 0
M  V30 26086 H 2463.04 1.29525 -0.629224 0
M  V30 26087 H 2464.99 4.16555 0.63716 0
M  V30 26088 H 2463.72 3.04642 1.17733 0
M  V30 26089 H 2462.37 3.55544 -0.89354 0
M  V30 26090 H 2462.02 4.88609 1.19458 0
M  V30 26091 H 2461.72 5.87026 -0.259736 0
M  V30 26092 H 2463.25 6.07122 0.650777 0
M  V30 26093 H 2464.66 5.5188 -1.55246 0
M  V30 26094 H 2463.06 5.52444 -2.34363 0
M  V30 26095 H 2464.13 4.12572 -2.5478 0
M  V30 26096 N 2465.47 0.698636 1.41269 0
M  V30 26097 C 2466.88 0.305321 1.84187 0
M  V30 26098 C 2467.23 -1.15705 1.58451 0
M  V30 26099 O 2466.36 -1.88855 1.05655 0
M  V30 26100 C 2466.95 0.547373 3.34349 0
M  V30 26101 C 2465.51 0.207944 3.75825 0
M  V30 26102 C 2464.66 0.828145 2.64645 0
M  V30 26103 H 2467.61 0.899063 1.30777 0
M  V30 26104 H 2467.63 -0.192931 3.80011 0
M  V30 26105 H 2467.14 1.61178 3.53048 0
M  V30 26106 H 2465.24 -0.852079 3.62726 0
M  V30 26107 H 2465.36 0.665105 4.74461 0
M  V30 26108 H 2463.72 0.257503 2.53395 0
M  V30 26109 H 2464.5 1.89648 2.86161 0
M  V30 26110 N 2466.95 -1.51228 0.443603 0
M  V30 26111 C 2468.19 -2.04048 -0.119853 0
M  V30 26112 C 2468.55 -1.32012 -1.39416 0
M  V30 26113 O 2469.75 -1.75239 -2.03826 0
M  V30 26114 C 2468.02 -3.55899 -0.32717 0
M  V30 26115 S 2469.58 -4.30427 -0.853132 0
M  V30 26116 H 2466.4 -0.710412 -0.0289085 0
M  V30 26117 H 2469 -1.85921 0.604445 0
M  V30 26118 H 2467.71 -4.05894 0.606516 0
M  V30 26119 H 2467.24 -3.78331 -1.07837 0
M  V30 26120 H 2469.25 -4.48159 -2.12997 0
M  V30 26121 N 2468.43 -0.175182 -1.56623 0
M  V30 26122 C 2469.34 0.766003 -2.21742 0
M  V30 26123 C 2470.35 1.25015 -1.21025 0
M  V30 26124 O 2471.53 1.30148 -1.537 0
M  V30 26125 C 2468.59 1.9765 -2.84843 0
M  V30 26126 C 2467.65 1.53885 -4.00772 0
M  V30 26127 C 2466.89 2.69165 -4.60854 0
M  V30 26128 O 2467.11 3.86134 -4.1983 0
M  V30 26129 O 2466.04 2.43018 -5.50659 0
M  V30 26130 H 2469.87 0.241532 -3.02738 0
M  V30 26131 H 2467.46 0.0531958 -1.49305 0
M  V30 26132 H 2469.34 2.68436 -3.24838 0
M  V30 26133 H 2468.01 2.48995 -2.06841 0
M  V30 26134 H 2466.92 0.800376 -3.65438 0
M  V30 26135 H 2468.25 1.07227 -4.80378 0
M  V30 26136 N 2469.91 1.57292 0.0985263 0
M  V30 26137 C 2470.87 2.0086 1.10398 0
M  V30 26138 C 2471.87 0.901616 1.33145 0
M  V30 26139 O 2473.06 1.16718 1.29316 0
M  V30 26140 C 2470.19 2.36636 2.4539 0
M  V30 26141 H 2471.38 2.90904 0.729048 0
M  V30 26142 H 2468.94 1.52479 0.343468 0
M  V30 26143 H 2469.67 1.49536 2.87766 0
M  V30 26144 H 2469.46 3.17391 2.30229 0
M  V30 26145 H 2470.95 2.71013 3.17713 0
M  V30 26146 N 2471.38 -0.369261 1.53213 0
M  V30 26147 C 2472.63 -1.11394 1.69468 0
M  V30 26148 C 2472.96 -1.89073 0.44329 0
M  V30 26149 O 2472.24 -1.86283 -0.559354 0
M  V30 26150 C 2472.52 -2.07616 2.94224 0
M  V30 26151 C 2472.37 -1.3357 4.2951 0
M  V30 26152 C 2473.69 -3.07788 3.1457 0
M  V30 26153 H 2470.81 -0.403586 0.616674 0
M  V30 26154 H 2473.45 -0.395147 1.85846 0
M  V30 26155 H 2471.6 -2.68911 2.80391 0
M  V30 26156 H 2473.28 -0.750875 4.55148 0
M  V30 26157 H 2471.52 -0.637542 4.2909 0
M  V30 26158 H 2472.19 -2.0398 5.12929 0
M  V30 26159 H 2474.67 -2.56595 3.27564 0
M  V30 26160 H 2473.54 -3.72341 4.03303 0
M  V30 26161 H 2473.8 -3.77755 2.29682 0
M  V30 26162 N 2472.86 -1.4451 -0.628851 0
M  V30 26163 C 2474.11 -1.47122 -1.38562 0
M  V30 26164 C 2474.43 -0.105933 -1.94712 0
M  V30 26165 O 2473.7 0.862048 -1.75913 0
M  V30 26166 H 2472.28 -0.541738 -0.514324 0
M  V30 26167 H 2474.94 -1.80306 -0.739986 0
M  V30 26168 H 2474.04 -2.19793 -2.21579 0
M  V30 26169 N 2474.34 0.869463 -1.31446 0
M  V30 26170 C 2475.29 1.99812 -1.1907 0
M  V30 26171 C 2476.28 1.69111 -0.0988866 0
M  V30 26172 O 2477.49 1.781 -0.260813 0
M  V30 26173 H 2473.86 0.655418 -0.368688 0
M  V30 26174 H 2475.83 2.07381 -2.14559 0
M  V30 26175 C 2474.58 3.35434 -0.915382 0
M  V30 26176 H 2473.91 3.59579 -1.74766 0
M  V30 26177 H 2475.35 4.15 -0.868968 0
M  V30 26178 C 2473.8 3.34729 0.38187 0
M  V30 26179 O 2474.33 3.7657 1.3985 0
M  V30 26180 N 2472.54 2.87854 0.398582 0
M  V30 26181 H 2472.09 2.53999 -0.429231 0
M  V30 26182 H 2472.05 2.87764 1.26646 0
M  V30 26183 N 2475.82 1.14415 1.08383 0
M  V30 26184 C 2477.23 0.923564 1.62257 0
M  V30 26185 C 2477.58 -0.537562 1.88692 0
M  V30 26186 O 2476.7 -1.40652 1.64457 0
M  V30 26187 C 2477.3 1.67008 2.94778 0
M  V30 26188 C 2475.86 1.49506 3.45434 0
M  V30 26189 C 2475.01 1.69242 2.19665 0
M  V30 26190 H 2477.96 1.29592 0.916064 0
M  V30 26191 H 2477.98 1.13341 3.63227 0
M  V30 26192 H 2477.49 2.73346 2.75506 0
M  V30 26193 H 2475.59 0.455162 3.69809 0
M  V30 26194 H 2475.7 2.26518 4.22169 0
M  V30 26195 H 2474.07 1.11808 2.28847 0
M  V30 26196 H 2474.85 2.76923 2.029 0
M  V30 26197 N 2477.3 -1.26549 0.939309 0
M  V30 26198 C 2478.23 -2.28821 0.465084 0
M  V30 26199 C 2479.21 -1.63168 -0.480663 0
M  V30 26200 O 2480.39 -1.90387 -0.382921 0
M  V30 26201 C 2477.52 -3.46231 -0.27228 0
M  V30 26202 C 2476.48 -4.23959 0.586734 0
M  V30 26203 C 2475.8 -5.33964 -0.280479 0
M  V30 26204 C 2477.1 -4.88168 1.85713 0
M  V30 26205 H 2478.8 -2.68739 1.31984 0
M  V30 26206 H 2476.34 -1.2919 0.636084 0
M  V30 26207 H 2478.29 -4.16887 -0.61506 0
M  V30 26208 H 2477.02 -3.05262 -1.16116 0
M  V30 26209 H 2475.68 -3.55065 0.912383 0
M  V30 26210 H 2475.33 -4.89236 -1.16865 0
M  V30 26211 H 2475.03 -5.8688 0.290863 0
M  V30 26212 H 2476.55 -6.07459 -0.618571 0
M  V30 26213 H 2477.96 -5.51049 1.5817 0
M  V30 26214 H 2476.36 -5.51193 2.37289 0
M  V30 26215 H 2477.43 -4.11215 2.56964 0
M  V30 26216 N 2478.77 -0.706118 -1.40896 0
M  V30 26217 C 2480.18 -0.315085 -1.84022 0
M  V30 26218 C 2480.54 1.14863 -1.59062 0
M  V30 26219 O 2479.66 1.88292 -1.06655 0
M  V30 26220 C 2480.26 -0.565097 -3.34054 0
M  V30 26221 C 2478.81 -0.227872 -3.7571 0
M  V30 26222 C 2477.96 -0.842168 -2.64202 0
M  V30 26223 H 2480.91 -0.905986 -1.30298 0
M  V30 26224 H 2480.93 0.172776 -3.80108 0
M  V30 26225 H 2480.45 -1.63048 -3.52189 0
M  V30 26226 H 2478.55 0.832831 -3.63173 0
M  V30 26227 H 2478.66 -0.690257 -4.74102 0
M  V30 26228 H 2477.02 -0.270938 -2.53255 0
M  V30 26229 H 2477.81 -1.91163 -2.85152 0
M  V30 26230 N 2480.25 1.50991 -0.451617 0
M  V30 26231 C 2481.48 2.06616 0.108298 0
M  V30 26232 C 2481.89 1.31759 1.35222 0
M  V30 26233 O 2481.25 0.381206 1.78474 0
M  V30 26234 C 2481.3 3.59097 0.416127 0
M  V30 26235 O 2481.02 4.31129 -0.778436 0
M  V30 26236 C 2482.52 4.31284 1.02515 0
M  V30 26237 H 2479.74 0.670998 0.00158816 0
M  V30 26238 H 2482.29 1.94398 -0.634806 0
M  V30 26239 H 2480.44 3.71183 1.10914 0
M  V30 26240 H 2480.86 5.22002 -0.511273 0
M  V30 26241 H 2482.33 5.39011 1.19044 0
M  V30 26242 H 2482.81 3.90504 2.01006 0
M  V30 26243 H 2483.41 4.23678 0.371099 0
M  V30 26244 N 2481.73 0.183486 1.56528 0
M  V30 26245 C 2482.98 -0.458477 1.9642 0
M  V30 26246 C 2483.29 -1.6356 1.07273 0
M  V30 26247 O 2484.5 -2.3446 1.36897 0
M  V30 26248 C 2482.95 -0.86706 3.49299 0
M  V30 26249 C 2482.56 0.285136 4.47092 0
M  V30 26250 C 2484.31 -1.47676 3.97985 0
M  V30 26251 C 2482.21 -0.143758 5.91225 0
M  V30 26252 H 2481.14 -0.175058 0.733397 0
M  V30 26253 H 2483.79 0.273656 1.81448 0
M  V30 26254 H 2482.18 -1.65552 3.59734 0
M  V30 26255 H 2483.35 1.06258 4.48381 0
M  V30 26256 H 2481.66 0.805575 4.08533 0
M  V30 26257 H 2484.26 -1.8099 5.03137 0
M  V30 26258 H 2484.6 -2.37908 3.41622 0
M  V30 26259 H 2485.14 -0.752494 3.90618 0
M  V30 26260 H 2481.88 0.724089 6.51488 0
M  V30 26261 H 2481.4 -0.886309 5.93215 0
M  V30 26262 H 2483.08 -0.583515 6.44363 0
M  V30 26263 N 2483.21 -1.57342 -0.0901833 0
M  V30 26264 C 2484.16 -1.98846 -1.11554 0
M  V30 26265 C 2485.14 -0.867648 -1.35502 0
M  V30 26266 O 2486.33 -1.1315 -1.36111 0
M  V30 26267 C 2483.46 -2.42055 -2.43442 0
M  V30 26268 C 2482.55 -3.60832 -2.22847 0
M  V30 26269 N 2482.94 -4.75609 -1.72132 0
M  V30 26270 C 2481.24 -3.67025 -2.53394 0
M  V30 26271 C 2481.94 -5.57534 -1.65923 0
M  V30 26272 N 2480.91 -5.00846 -2.11314 0
M  V30 26273 H 2484.72 -2.85034 -0.716448 0
M  V30 26274 H 2482.23 -1.59651 -0.297539 0
M  V30 26275 H 2484.23 -2.7002 -3.1764 0
M  V30 26276 H 2482.89 -1.57246 -2.84084 0
M  V30 26277 H 2483.9 -4.98263 -1.41259 0
M  V30 26278 H 2480.58 -2.92889 -2.97527 0
M  V30 26279 H 2481.97 -6.59649 -1.27722 0
M  V30 26280 N 2484.69 0.36113 -1.53407 0
M  V30 26281 C 2485.93 1.10137 -1.71001 0
M  V30 26282 C 2486.29 1.86858 -0.458458 0
M  V30 26283 O 2485.58 1.83578 0.548622 0
M  V30 26284 C 2485.77 2.08591 -2.90215 0
M  V30 26285 C 2485.6 1.41545 -4.26843 0
M  V30 26286 C 2484.37 1.1677 -4.91623 0
M  V30 26287 C 2486.57 0.850826 -5.07213 0
M  V30 26288 N 2484.55 0.461205 -6.12165 0
M  V30 26289 C 2485.92 0.273938 -6.19395 0
M  V30 26290 C 2487.98 0.749949 -4.9222 0
M  V30 26291 C 2486.68 -0.393994 -7.1822 0
M  V30 26292 C 2488.71 0.09579 -5.91322 0
M  V30 26293 C 2488.07 -0.470204 -7.02829 0
M  V30 26294 H 2484.17 0.388016 -0.678946 0
M  V30 26295 H 2486.75 0.387187 -1.90811 0
M  V30 26296 H 2484.92 2.77318 -2.71936 0
M  V30 26297 H 2486.66 2.75325 -2.96611 0
M  V30 26298 H 2483.41 1.45016 -4.50852 0
M  V30 26299 H 2483.84 0.123193 -6.76888 0
M  V30 26300 H 2488.48 1.1733 -4.06194 0
M  V30 26301 H 2486.2 -0.829281 -8.03834 0
M  V30 26302 H 2489.78 0.0186052 -5.81797 0
M  V30 26303 H 2488.66 -0.968378 -7.78198 0
M  V30 26304 N 2486.16 1.44842 0.621179 0
M  V30 26305 C 2487.39 1.51648 1.40749 0
M  V30 26306 C 2487.81 0.144583 1.88246 0
M  V30 26307 O 2487.16 -0.851388 1.61424 0
M  V30 26308 C 2487.22 2.48955 2.62114 0
M  V30 26309 O 2486.94 3.80812 2.16596 0
M  V30 26310 C 2488.44 2.65325 3.5513 0
M  V30 26311 H 2485.66 0.514012 0.431316 0
M  V30 26312 H 2488.2 1.89901 0.758801 0
M  V30 26313 H 2486.36 2.13811 3.23054 0
M  V30 26314 H 2486.77 4.33438 2.9535 0
M  V30 26315 H 2488.24 3.37417 4.36868 0
M  V30 26316 H 2488.72 1.70893 4.04589 0
M  V30 26317 H 2489.33 3.0141 3.00053 0
M  V30 26318 N 2487.64 -0.862479 1.31905 0
M  V30 26319 C 2489.06 -1.14943 1.10726 0
M  V30 26320 C 2489.26 -2.01158 -0.117386 0
M  V30 26321 O 2488.31 -2.39339 -0.804553 0
M  V30 26322 C 2489.63 -1.83433 2.38271 0
M  V30 26323 C 2491.18 -1.96102 2.43953 0
M  V30 26324 C 2491.65 -2.68006 3.71398 0
M  V30 26325 N 2493.14 -2.75537 3.72335 0
M  V30 26326 C 2493.88 -3.31804 4.67647 0
M  V30 26327 N 2493.37 -3.88943 5.7332 0
M  V30 26328 N 2495.17 -3.29833 4.55156 0
M  V30 26329 H 2487.32 -0.288154 2.10436 0
M  V30 26330 H 2489.58 -0.190275 0.928708 0
M  V30 26331 H 2489.29 -1.27536 3.27761 0
M  V30 26332 H 2489.16 -2.83653 2.48638 0
M  V30 26333 H 2491.55 -2.51161 1.54926 0
M  V30 26334 H 2491.63 -0.949017 2.37544 0
M  V30 26335 H 2491.27 -2.13613 4.60795 0
M  V30 26336 H 2491.2 -3.69629 3.75076 0
M  V30 26337 H 2493.69 -2.34992 2.95951 0
M  V30 26338 H 2494.01 -4.30011 6.42114 0
M  V30 26339 H 2492.35 -3.87297 5.77084 0
M  V30 26340 H 2495.54 -2.84436 3.71771 0
M  V30 26341 H 2495.71 -3.73385 5.29611 0
M  V30 26342 N 2489.12 -1.14988 -1.07775 0
M  V30 26343 C 2490.37 -0.923454 -1.80555 0
M  V30 26344 C 2490.7 0.548304 -1.86299 0
M  V30 26345 O 2489.97 1.40637 -1.34356 0
M  V30 26346 C 2490.26 -1.53305 -3.25837 0
M  V30 26347 C 2490.11 -3.07511 -3.28264 0
M  V30 26348 C 2491.43 -1.21526 -4.22989 0
M  V30 26349 H 2488.55 -0.336906 -0.655487 0
M  V30 26350 H 2491.19 -1.42085 -1.26142 0
M  V30 26351 H 2489.34 -1.11006 -3.72304 0
M  V30 26352 H 2491.01 -3.58686 -2.90073 0
M  V30 26353 H 2489.26 -3.41624 -2.67349 0
M  V30 26354 H 2489.93 -3.45274 -4.30685 0
M  V30 26355 H 2492.4 -1.58107 -3.84891 0
M  V30 26356 H 2491.28 -1.66802 -5.22942 0
M  V30 26357 H 2491.54 -0.131582 -4.41904 0
M  V30 26358 N 2490.6 1.26049 -0.946007 0
M  V30 26359 C 2492.01 1.75456 -0.638127 0
M  V30 26360 C 2492.36 1.76993 0.846641 0
M  V30 26361 O 2491.49 1.38516 1.66259 0
M  V30 26362 C 2492.08 3.18627 -1.15162 0
M  V30 26363 C 2490.64 3.65627 -0.894068 0
M  V30 26364 C 2489.79 2.44954 -1.29972 0
M  V30 26365 H 2492.74 1.12058 -1.12378 0
M  V30 26366 H 2492.76 3.77098 -0.507681 0
M  V30 26367 H 2492.27 3.17476 -2.23227 0
M  V30 26368 H 2490.37 3.72203 0.171992 0
M  V30 26369 H 2490.48 4.54199 -1.52447 0
M  V30 26370 H 2488.85 2.44367 -0.718121 0
M  V30 26371 H 2489.63 2.46501 -2.3894 0
M  V30 26372 N 2492.08 0.71358 1.4052 0
M  V30 26373 C 2493.3 0.260386 2.05759 0
M  V30 26374 C 2493.73 -1.08851 1.53405 0
M  V30 26375 O 2493.08 -1.68523 0.668565 0
M  V30 26376 C 2493.13 0.248185 3.59745 0
M  V30 26377 O 2492.24 -0.771239 4.05124 0
M  V30 26378 H 2491.58 0.122715 0.652562 0
M  V30 26379 H 2494.11 0.973499 1.79956 0
M  V30 26380 H 2494.12 0.0851846 4.07911 0
M  V30 26381 H 2492.79 1.23256 3.97216 0
M  V30 26382 H 2491.37 -0.576125 3.68423 0
M  V30 26383 N 2493.55 -1.50749 0.459618 0
M  V30 26384 C 2494.8 -2.01857 -0.0991177 0
M  V30 26385 C 2495.12 -1.34443 -1.41245 0
M  V30 26386 O 2494.39 -0.486055 -1.89774 0
M  V30 26387 H 2492.97 -0.745949 -0.0396199 0
M  V30 26388 H 2495.64 -1.85193 0.60742 0
M  V30 26389 H 2494.73 -3.11024 -0.258943 0
M  V30 26390 N 2495.03 -0.191784 -1.56429 0
M  V30 26391 C 2495.96 0.725657 -2.21938 0
M  V30 26392 C 2496.94 1.22378 -1.18142 0
M  V30 26393 O 2498.13 1.27322 -1.46638 0
M  V30 26394 C 2495.26 1.94667 -2.87615 0
M  V30 26395 C 2494.21 1.58359 -3.97626 0
M  V30 26396 C 2493.54 2.88094 -4.50451 0
M  V30 26397 C 2494.84 0.796042 -5.16198 0
M  V30 26398 H 2496.53 0.179554 -2.98861 0
M  V30 26399 H 2494.08 0.0849212 -1.43749 0
M  V30 26400 H 2496.03 2.59367 -3.32124 0
M  V30 26401 H 2494.76 2.51725 -2.08092 0
M  V30 26402 H 2493.41 0.960185 -3.53802 0
M  V30 26403 H 2493.06 3.43235 -3.67694 0
M  V30 26404 H 2492.76 2.64547 -5.2468 0
M  V30 26405 H 2494.29 3.53789 -4.9766 0
M  V30 26406 H 2495.7 1.34608 -5.57273 0
M  V30 26407 H 2494.1 0.658823 -5.96473 0
M  V30 26408 H 2495.17 -0.203563 -4.84473 0
M  V30 26409 N 2496.51 1.57387 0.0818378 0
M  V30 26410 C 2497.79 1.77798 0.815312 0
M  V30 26411 C 2498.17 0.776825 1.96287 0
M  V30 26412 O 2497.52 -0.192066 2.27691 0
M  V30 26413 C 2497.73 3.23981 1.29759 0
M  V30 26414 C 2499.07 3.87533 1.73504 0
M  V30 26415 O 2500.1 3.27811 1.39351 0
M  V30 26416 O 2498.96 4.9258 2.367 0
M  V30 26417 H 2496.05 0.729319 0.389901 0
M  V30 26418 H 2498.6 1.69584 0.0626915 0
M  V30 26419 H 2497.37 3.88394 0.476012 0
M  V30 26420 H 2496.99 3.36879 2.11183 0
M  V30 26421 N 2497.99 -0.35299 1.53596 0
M  V30 26422 C 2498.92 -1.4388 1.83904 0
M  V30 26423 C 2499.9 -1.55323 0.693448 0
M  V30 26424 O 2501.08 -1.69686 0.944482 0
M  V30 26425 C 2498.21 -2.81057 2.04021 0
M  V30 26426 C 2497.17 -2.84428 3.19819 0
M  V30 26427 C 2496.49 -4.244 3.25252 0
M  V30 26428 C 2497.79 -2.50814 4.58137 0
M  V30 26429 H 2499.49 -1.18765 2.74837 0
M  V30 26430 H 2497.03 -0.569894 1.32243 0
M  V30 26431 H 2498.99 -3.57055 2.23807 0
M  V30 26432 H 2497.71 -3.07586 1.0981 0
M  V30 26433 H 2496.37 -2.10882 2.99874 0
M  V30 26434 H 2496.02 -4.48025 2.28654 0
M  V30 26435 H 2495.72 -4.27569 4.03061 0
M  V30 26436 H 2497.24 -5.02254 3.47237 0
M  V30 26437 H 2498.66 -3.16526 4.78001 0
M  V30 26438 H 2497.05 -2.65281 5.38281 0
M  V30 26439 H 2498.12 -1.46026 4.6239 0
M  V30 26440 N 2499.47 -1.45169 -0.613489 0
M  V30 26441 C 2500.69 -1.5262 -1.40434 0
M  V30 26442 C 2501.12 -0.15774 -1.87437 0
M  V30 26443 O 2500.48 0.856509 -1.59792 0
M  V30 26444 C 2500.52 -2.51016 -2.58889 0
M  V30 26445 O 2499.63 -2.02388 -3.59323 0
M  V30 26446 H 2498.97 -0.514702 -0.419497 0
M  V30 26447 H 2501.5 -1.90469 -0.747181 0
M  V30 26448 H 2501.51 -2.69629 -3.06209 0
M  V30 26449 H 2500.18 -3.50407 -2.24026 0
M  V30 26450 H 2498.76 -1.93624 -3.18692 0
M  V30 26451 N 2500.95 0.855472 -1.32361 0
M  V30 26452 C 2501.89 1.96398 -1.21229 0
M  V30 26453 C 2502.86 1.6583 -0.0946496 0
M  V30 26454 O 2504.05 1.88879 -0.270054 0
M  V30 26455 C 2501.19 3.32038 -0.940477 0
M  V30 26456 C 2500.3 3.75109 -2.14283 0
M  V30 26457 C 2499.44 4.99536 -1.80657 0
M  V30 26458 C 2498.47 5.35097 -2.97217 0
M  V30 26459 N 2497.61 6.50701 -2.63689 0
M  V30 26460 H 2502.45 2.05251 -2.16046 0
M  V30 26461 H 2499.99 1.00461 -1.07453 0
M  V30 26462 H 2501.95 4.10156 -0.763383 0
M  V30 26463 H 2500.58 3.22787 -0.029098 0
M  V30 26464 H 2499.63 2.92651 -2.43022 0
M  V30 26465 H 2500.94 3.97384 -3.01475 0
M  V30 26466 H 2500.09 5.8536 -1.59494 0
M  V30 26467 H 2498.83 4.79196 -0.906762 0
M  V30 26468 H 2497.84 4.47785 -3.19012 0
M  V30 26469 H 2499.06 5.57394 -3.87928 0
M  V30 26470 H 2497.01 6.3188 -1.76249 0
M  V30 26471 H 2496.93 6.7299 -3.44412 0
M  V30 26472 H 2498.19 7.3968 -2.45955 0
M  V30 26473 N 2502.42 1.15558 1.07164 0
M  V30 26474 C 2503.84 0.898626 1.31897 0
M  V30 26475 C 2504.04 -0.453348 1.96334 0
M  V30 26476 O 2503.1 -1.19485 2.2244 0
M  V30 26477 C 2504.41 2.04103 2.20823 0
M  V30 26478 C 2505.96 2.07578 2.34266 0
M  V30 26479 C 2506.43 3.21147 3.26541 0
M  V30 26480 N 2507.92 3.20807 3.34122 0
M  V30 26481 C 2508.66 4.05322 4.05588 0
M  V30 26482 N 2508.15 4.99905 4.79652 0
M  V30 26483 N 2509.95 3.93339 4.01548 0
M  V30 26484 H 2502.1 2.02615 0.637267 0
M  V30 26485 H 2504.36 0.883597 0.343453 0
M  V30 26486 H 2504.07 3.01706 1.80739 0
M  V30 26487 H 2503.94 1.97502 3.21361 0
M  V30 26488 H 2506.33 1.10573 2.73601 0
M  V30 26489 H 2506.41 2.18246 1.33425 0
M  V30 26490 H 2506.05 4.18405 2.87923 0
M  V30 26491 H 2505.98 3.07715 4.27339 0
M  V30 26492 H 2508.47 2.52311 2.81331 0
M  V30 26493 H 2508.79 5.60831 5.31684 0
M  V30 26494 H 2507.13 5.03892 4.78662 0
M  V30 26495 H 2510.32 3.18757 3.428 0
M  V30 26496 H 2510.5 4.59428 4.56979 0
M  V30 26497 N 2503.9 -1.25546 0.952678 0
M  V30 26498 C 2504.85 -2.25961 0.47012 0
M  V30 26499 C 2505.82 -1.59123 -0.476356 0
M  V30 26500 O 2507 -1.86771 -0.390037 0
M  V30 26501 C 2504.14 -3.44209 -0.24782 0
M  V30 26502 C 2503.26 -4.2569 0.735666 0
M  V30 26503 C 2502.39 -5.312 -0.00463723 0
M  V30 26504 C 2501.43 -6.04367 0.969911 0
M  V30 26505 N 2500.57 -7.01616 0.260609 0
M  V30 26506 H 2505.41 -2.66609 1.33131 0
M  V30 26507 H 2502.94 -1.31075 0.667673 0
M  V30 26508 H 2504.9 -4.11611 -0.680622 0
M  V30 26509 H 2503.53 -3.04442 -1.07307 0
M  V30 26510 H 2502.58 -3.57969 1.28695 0
M  V30 26511 H 2503.9 -4.76355 1.47942 0
M  V30 26512 H 2503.05 -6.04668 -0.496169 0
M  V30 26513 H 2501.79 -4.81403 -0.781198 0
M  V30 26514 H 2500.79 -5.29716 1.47246 0
M  V30 26515 H 2502.02 -6.56253 1.74667 0
M  V30 26516 H 2499.97 -6.54113 -0.497249 0
M  V30 26517 H 2499.88 -7.50089 0.943494 0
M  V30 26518 H 2501.15 -7.79219 -0.20945 0
M  V30 26519 N 2505.38 -0.721022 -1.40139 0
M  V30 26520 C 2506.31 -0.0325072 -2.29177 0
M  V30 26521 C 2507.32 0.7181 -1.46107 0
M  V30 26522 O 2508.51 0.564578 -1.69336 0
M  V30 26523 C 2505.61 0.978235 -3.24475 0
M  V30 26524 C 2504.79 0.292039 -4.36424 0
M  V30 26525 C 2503.85 1.20892 -5.12124 0
M  V30 26526 O 2502.87 0.691667 -5.64982 0
M  V30 26527 N 2504.07 2.53969 -5.21996 0
M  V30 26528 H 2506.84 -0.797035 -2.88907 0
M  V30 26529 H 2504.4 -0.569094 -1.51568 0
M  V30 26530 H 2506.39 1.59391 -3.7199 0
M  V30 26531 H 2504.96 1.64408 -2.65874 0
M  V30 26532 H 2504.18 -0.503916 -3.90966 0
M  V30 26533 H 2505.47 -0.184061 -5.08467 0
M  V30 26534 H 2504.87 2.98484 -4.80545 0
M  V30 26535 H 2503.42 3.10667 -5.73 0
M  V30 26536 N 2506.86 1.50503 -0.467606 0
M  V30 26537 C 2507.81 2.30065 0.342441 0
M  V30 26538 C 2508.8 1.37202 0.993572 0
M  V30 26539 O 2510.01 1.5441 0.925075 0
M  V30 26540 H 2506.38 0.740806 0.12927 0
M  V30 26541 H 2508.35 2.96352 -0.349042 0
M  V30 26542 C 2507.1 3.17657 1.41385 0
M  V30 26543 H 2506.42 3.89019 0.922196 0
M  V30 26544 H 2507.86 3.76328 1.95328 0
M  V30 26545 C 2506.32 2.3502 2.41386 0
M  V30 26546 O 2506.85 2.03085 3.46582 0
M  V30 26547 N 2505.06 1.97666 2.13017 0
M  V30 26548 H 2504.61 2.23836 1.27495 0
M  V30 26549 H 2504.56 1.42678 2.80161 0
M  V30 26550 N 2508.34 0.200077 1.56325 0
M  V30 26551 C 2509.56 -0.445935 2.02549 0
M  V30 26552 C 2509.99 -1.54058 1.07925 0
M  V30 26553 O 2509.34 -1.81188 0.0636093 0
M  V30 26554 C 2509.39 -0.9747 3.47177 0
M  V30 26555 O 2508.5 -2.08732 3.55675 0
M  V30 26556 H 2507.84 -0.103626 0.655864 0
M  V30 26557 H 2510.37 0.312417 2.02201 0
M  V30 26558 H 2510.38 -1.29003 3.87069 0
M  V30 26559 H 2509.05 -0.173397 4.15538 0
M  V30 26560 H 2507.63 -1.78026 3.2766 0
M  V30 26561 N 2509.81 -1.57429 -0.0734901 0
M  V30 26562 C 2511.23 -1.53747 -0.428237 0
M  V30 26563 C 2511.43 -0.920011 -1.79271 0
M  V30 26564 O 2510.49 -0.521788 -2.4705 0
M  V30 26565 C 2511.8 -2.98404 -0.370862 0
M  V30 26566 C 2513.35 -3.09731 -0.45117 0
M  V30 26567 C 2513.82 -4.56036 -0.42372 0
M  V30 26568 N 2515.31 -4.60666 -0.483844 0
M  V30 26569 C 2516.05 -5.71347 -0.48479 0
M  V30 26570 N 2515.54 -6.91397 -0.440653 0
M  V30 26571 N 2517.34 -5.59584 -0.531221 0
M  V30 26572 H 2509.49 -1.95934 0.819983 0
M  V30 26573 H 2511.75 -0.89674 0.307509 0
M  V30 26574 H 2511.46 -3.47132 0.565017 0
M  V30 26575 H 2511.33 -3.58212 -1.1817 0
M  V30 26576 H 2513.72 -2.60978 -1.37747 0
M  V30 26577 H 2513.8 -2.52837 0.388211 0
M  V30 26578 H 2513.44 -5.05445 0.498727 0
M  V30 26579 H 2513.37 -5.10791 -1.28061 0
M  V30 26580 H 2515.86 -3.74274 -0.522272 0
M  V30 26581 H 2516.18 -7.71516 -0.445254 0
M  V30 26582 H 2514.52 -6.93805 -0.407368 0
M  V30 26583 H 2517.71 -4.64697 -0.563383 0
M  V30 26584 H 2517.89 -6.45841 -0.528489 0
M  V30 26585 N 2511.29 0.344839 -1.53781 0
M  V30 26586 C 2512.54 1.08684 -1.71218 0
M  V30 26587 C 2512.87 1.88344 -0.473314 0
M  V30 26588 O 2512.15 1.8715 0.529647 0
M  V30 26589 C 2512.43 2.02909 -2.97489 0
M  V30 26590 C 2512.28 1.2672 -4.31581 0
M  V30 26591 C 2513.6 3.02745 -3.19427 0
M  V30 26592 H 2510.72 0.393724 -0.623017 0
M  V30 26593 H 2513.36 0.36553 -1.86451 0
M  V30 26594 H 2511.51 2.64416 -2.84634 0
M  V30 26595 H 2513.18 0.67837 -4.56285 0
M  V30 26596 H 2511.43 0.569197 -4.3005 0
M  V30 26597 H 2512.1 1.95793 -5.16109 0
M  V30 26598 H 2514.57 2.51351 -3.31605 0
M  V30 26599 H 2513.45 3.65878 -4.09176 0
M  V30 26600 H 2513.71 3.74053 -2.35663 0
M  V30 26601 N 2512.77 1.45492 0.605781 0
M  V30 26602 C 2513.7 1.50313 1.73028 0
M  V30 26603 C 2514.71 0.393715 1.57967 0
M  V30 26604 O 2515.9 0.660868 1.65816 0
M  V30 26605 C 2513 1.34548 3.11047 0
M  V30 26606 C 2512.18 2.59196 3.5233 0
M  V30 26607 C 2511.24 2.37962 4.69319 0
M  V30 26608 O 2510.26 3.11583 4.76345 0
M  V30 26609 N 2511.46 1.4264 5.62703 0
M  V30 26610 H 2514.23 2.47263 1.69356 0
M  V30 26611 H 2511.79 1.41255 0.791115 0
M  V30 26612 H 2513.78 1.18151 3.87069 0
M  V30 26613 H 2512.35 0.458677 3.09217 0
M  V30 26614 H 2511.57 2.90696 2.66251 0
M  V30 26615 H 2512.86 3.42047 3.76671 0
M  V30 26616 H 2512.26 0.818856 5.59742 0
M  V30 26617 H 2510.81 1.32214 6.3825 0
M  V30 26618 N 2514.25 -0.848441 1.32813 0
M  V30 26619 C 2515.49 -1.60543 1.2391 0
M  V30 26620 C 2515.83 -1.93197 -0.197127 0
M  V30 26621 O 2515.1 -1.57882 -1.13593 0
M  V30 26622 C 2515.39 -2.92172 2.10494 0
M  V30 26623 C 2515.24 -2.6626 3.62527 0
M  V30 26624 C 2516.56 -3.93505 1.97082 0
M  V30 26625 H 2513.68 -0.582532 0.45147 0
M  V30 26626 H 2516.32 -0.979267 1.6282 0
M  V30 26627 H 2514.47 -3.45611 1.7744 0
M  V30 26628 H 2516.14 -2.19326 4.05825 0
M  V30 26629 H 2514.38 -2.00119 3.84883 0
M  V30 26630 H 2515.05 -3.60013 4.18443 0
M  V30 26631 H 2517.53 -3.49342 2.26051 0
M  V30 26632 H 2516.41 -4.83453 2.59932 0
M  V30 26633 H 2516.67 -4.31986 0.940262 0
M  V30 26634 N 2515.73 -1.16125 -1.06549 0
M  V30 26635 C 2516.66 -0.888548 -2.15933 0
M  V30 26636 C 2517.64 0.164105 -1.69307 0
M  V30 26637 O 2518.82 0.0167515 -1.94193 0
M  V30 26638 C 2515.95 -0.386003 -3.45148 0
M  V30 26639 C 2514.91 -1.37627 -4.05269 0
M  V30 26640 C 2514.23 -0.73223 -5.29663 0
M  V30 26641 C 2515.53 -2.745 -4.4435 0
M  V30 26642 H 2517.23 -1.80327 -2.39003 0
M  V30 26643 H 2514.77 -0.868455 -1.14865 0
M  V30 26644 H 2516.73 -0.182721 -4.21004 0
M  V30 26645 H 2515.45 0.564218 -3.2169 0
M  V30 26646 H 2514.11 -1.56605 -3.31467 0
M  V30 26647 H 2513.76 0.224394 -5.02499 0
M  V30 26648 H 2513.46 -1.39317 -5.70846 0
M  V30 26649 H 2514.98 -0.538909 -6.08217 0
M  V30 26650 H 2516.39 -2.5932 -5.11299 0
M  V30 26651 H 2514.79 -3.37044 -4.96509 0
M  V30 26652 H 2515.86 -3.29949 -3.55333 0
M  V30 26653 N 2517.2 1.25039 -0.959323 0
M  V30 26654 C 2518.62 1.74769 -0.6567 0
M  V30 26655 C 2518.97 1.77881 0.827821 0
M  V30 26656 O 2518.09 1.40272 1.64781 0
M  V30 26657 C 2518.69 3.17387 -1.18535 0
M  V30 26658 C 2517.25 3.64659 -0.932798 0
M  V30 26659 C 2516.39 2.43562 -1.32563 0
M  V30 26660 H 2519.34 1.1086 -1.1356 0
M  V30 26661 H 2519.36 3.76538 -0.547649 0
M  V30 26662 H 2518.88 3.15091 -2.26582 0
M  V30 26663 H 2516.98 3.72364 0.132505 0
M  V30 26664 H 2517.09 4.52557 -1.57256 0
M  V30 26665 H 2515.45 2.43591 -0.743999 0
M  V30 26666 H 2516.24 2.43953 -2.41541 0
M  V30 26667 N 2518.68 0.728444 1.39755 0
M  V30 26668 C 2519.63 0.0732258 2.32485 0
M  V30 26669 C 2520.62 -0.733036 1.52718 0
M  V30 26670 O 2521.83 -0.634958 1.68429 0
M  V30 26671 H 2518.21 0.00487791 0.751984 0
M  V30 26672 H 2520.18 0.871811 2.8538 0
M  V30 26673 C 2518.93 -0.824848 3.37774 0
M  V30 26674 H 2518.25 -0.213844 3.99228 0
M  V30 26675 H 2519.69 -1.25103 4.05124 0
M  V30 26676 C 2518.15 -1.95617 2.74291 0
M  V30 26677 O 2518.68 -3.04822 2.61623 0
M  V30 26678 N 2516.88 -1.74363 2.32478 0
M  V30 26679 H 2516.43 -0.855451 2.42981 0
M  V30 26680 H 2516.39 -2.50235 1.90341 0
M  V30 26681 N 2520.16 -1.50253 0.475581 0
M  V30 26682 C 2521.41 -2.01951 -0.0777025 0
M  V30 26683 C 2521.73 -1.35934 -1.39811 0
M  V30 26684 O 2521 -0.506156 -1.89248 0
M  V30 26685 H 2519.58 -0.746327 -0.0317059 0
M  V30 26686 H 2522.24 -1.84538 0.627028 0
M  V30 26687 H 2521.34 -3.11281 -0.225941 0
M  V30 26688 N 2521.64 -0.208365 -1.56217 0
M  V30 26689 C 2522.87 0.432114 -2.02337 0
M  V30 26690 C 2523.28 1.54273 -1.08837 0
M  V30 26691 O 2522.64 1.8225 -0.0955782 0
M  V30 26692 C 2522.69 0.976077 -3.48073 0
M  V30 26693 O 2522.41 -0.090239 -4.38007 0
M  V30 26694 C 2523.91 1.69112 -4.09776 0
M  V30 26695 H 2521.13 0.107168 -0.662387 0
M  V30 26696 H 2523.68 -0.320958 -2.01966 0
M  V30 26697 H 2521.83 1.67948 -3.49102 0
M  V30 26698 H 2522.24 0.316609 -5.23544 0
M  V30 26699 H 2523.72 2.02388 -5.13559 0
M  V30 26700 H 2524.2 2.59958 -3.54004 0
M  V30 26701 H 2524.8 1.03325 -4.12558 0
M  V30 26702 N 2523.12 1.57465 0.0651402 0
M  V30 26703 C 2524.05 2.07184 1.0769 0
M  V30 26704 C 2525.03 0.966697 1.39961 0
M  V30 26705 O 2526.21 1.23982 1.49472 0
M  V30 26706 C 2523.34 2.52131 2.38845 0
M  V30 26707 C 2522.3 3.66582 2.2091 0
M  V30 26708 C 2521.62 3.97608 3.57508 0
M  V30 26709 C 2522.92 4.96383 1.62485 0
M  V30 26710 H 2524.62 2.91964 0.663148 0
M  V30 26711 H 2522.16 1.40455 0.317544 0
M  V30 26712 H 2524.12 2.85528 3.09923 0
M  V30 26713 H 2522.84 1.64389 2.82213 0
M  V30 26714 H 2521.5 3.33479 1.52273 0
M  V30 26715 H 2521.15 3.06986 3.98458 0
M  V30 26716 H 2520.85 4.74678 3.46345 0
M  V30 26717 H 2522.37 4.33506 4.30006 0
M  V30 26718 H 2523.78 5.27967 2.23435 0
M  V30 26719 H 2522.18 5.7782 1.61999 0
M  V30 26720 H 2523.25 4.81334 0.586956 0
M  V30 26721 N 2524.59 -0.336679 1.53962 0
M  V30 26722 C 2525.82 -1.10043 1.75799 0
M  V30 26723 C 2526.24 -1.8136 0.499017 0
M  V30 26724 O 2525.6 -1.72796 -0.548739 0
M  V30 26725 C 2525.65 -2.0843 2.9426 0
M  V30 26726 O 2524.75 -3.16082 2.64889 0
M  V30 26727 H 2524.1 -0.317924 0.582941 0
M  V30 26728 H 2526.63 -0.384975 2.00946 0
M  V30 26729 H 2526.64 -2.51531 3.21241 0
M  V30 26730 H 2525.31 -1.55921 3.85567 0
M  V30 26731 H 2523.89 -2.77749 2.48817 0
M  V30 26732 N 2526.07 -1.45812 -0.598057 0
M  V30 26733 C 2527.32 -1.49596 -1.35292 0
M  V30 26734 C 2527.63 -0.145713 -1.95056 0
M  V30 26735 O 2528.84 -0.0612576 -2.71431 0
M  V30 26736 C 2527.3 -2.63523 -2.45119 0
M  V30 26737 C 2526.9 -4.04902 -1.91725 0
M  V30 26738 C 2528.65 -2.76563 -3.22045 0
M  V30 26739 C 2526.56 -5.10195 -2.99091 0
M  V30 26740 H 2525.49 -0.556687 -0.508542 0
M  V30 26741 H 2528.14 -1.71979 -0.639947 0
M  V30 26742 H 2526.52 -2.3444 -3.19145 0
M  V30 26743 H 2527.69 -4.43706 -1.24344 0
M  V30 26744 H 2526.01 -3.96395 -1.27515 0
M  V30 26745 H 2528.6 -3.52398 -4.02144 0
M  V30 26746 H 2528.95 -1.83533 -3.73659 0
M  V30 26747 H 2529.48 -3.05218 -2.55121 0
M  V30 26748 H 2526.22 -6.04966 -2.52382 0
M  V30 26749 H 2525.74 -4.75951 -3.65008 0
M  V30 26750 H 2527.42 -5.35365 -3.63309 0
M  V30 26751 N 2527.55 0.841385 -1.33261 0
M  V30 26752 C 2528.48 1.95802 -1.19139 0
M  V30 26753 C 2529.5 1.62335 -0.122994 0
M  V30 26754 O 2530.68 1.74555 -0.373185 0
M  V30 26755 C 2527.78 3.29217 -0.804326 0
M  V30 26756 C 2526.96 3.90836 -1.96383 0
M  V30 26757 C 2526.02 5.02601 -1.55815 0
M  V30 26758 O 2525.04 5.21884 -2.27213 0
M  V30 26759 N 2526.24 5.78661 -0.461711 0
M  V30 26760 H 2529.01 2.08454 -2.1533 0
M  V30 26761 H 2526.57 1.01698 -1.25973 0
M  V30 26762 H 2528.56 4.01409 -0.515081 0
M  V30 26763 H 2527.13 3.12529 0.0668259 0
M  V30 26764 H 2526.35 3.11265 -2.41884 0
M  V30 26765 H 2527.64 4.28737 -2.73974 0
M  V30 26766 H 2527.04 5.65545 0.132243 0
M  V30 26767 H 2525.6 6.51387 -0.232128 0
M  V30 26768 N 2529.03 1.16688 1.05932 0
M  V30 26769 C 2530.45 0.912565 1.30937 0
M  V30 26770 C 2530.65 -0.432499 1.96804 0
M  V30 26771 O 2529.7 -1.17119 2.23695 0
M  V30 26772 C 2531.01 2.06433 2.18645 0
M  V30 26773 C 2532.56 2.10051 2.32051 0
M  V30 26774 C 2533.04 3.24592 3.23116 0
M  V30 26775 N 2534.53 3.24333 3.307 0
M  V30 26776 C 2535.26 4.09601 4.01266 0
M  V30 26777 N 2534.76 5.04965 4.74323 0
M  V30 26778 N 2536.55 3.97576 3.97354 0
M  V30 26779 H 2528.7 2.03279 0.615741 0
M  V30 26780 H 2530.97 0.88719 0.334062 0
M  V30 26781 H 2530.67 3.03606 1.77529 0
M  V30 26782 H 2530.55 2.00899 3.19248 0
M  V30 26783 H 2532.93 1.13469 2.72413 0
M  V30 26784 H 2533.01 2.19649 1.31103 0
M  V30 26785 H 2532.66 4.21435 2.83469 0
M  V30 26786 H 2532.59 3.1223 4.24052 0
M  V30 26787 H 2535.08 2.55281 2.78639 0
M  V30 26788 H 2535.39 5.66439 5.25706 0
M  V30 26789 H 2533.74 5.08941 4.73291 0
M  V30 26790 H 2536.93 3.22375 3.394 0
M  V30 26791 H 2537.1 4.64249 4.5208 0
M  V30 26792 N 2530.51 -1.24529 0.96594 0
M  V30 26793 C 2531.75 -1.92838 0.627794 0
M  V30 26794 C 2532.09 -1.75348 -0.834663 0
M  V30 26795 O 2531.36 -1.10549 -1.60029 0
M  V30 26796 C 2531.64 -3.45903 1.00115 0
M  V30 26797 C 2531.5 -3.72568 2.52018 0
M  V30 26798 C 2532.82 -4.36843 0.534427 0
M  V30 26799 H 2529.94 -0.70034 0.229549 0
M  V30 26800 H 2532.58 -1.46931 1.20463 0
M  V30 26801 H 2530.73 -3.85134 0.510306 0
M  V30 26802 H 2532.4 -3.42907 3.08565 0
M  V30 26803 H 2530.64 -3.17781 2.95293 0
M  V30 26804 H 2531.31 -4.79657 2.73191 0
M  V30 26805 H 2533.79 -4.04978 0.955636 0
M  V30 26806 H 2532.67 -5.42676 0.824247 0
M  V30 26807 H 2532.93 -4.38468 -0.565512 0
M  V30 26808 N 2531.99 -0.735845 -1.39367 0
M  V30 26809 C 2532.9 -0.0980105 -2.34395 0
M  V30 26810 C 2533.91 0.72094 -1.58362 0
M  V30 26811 O 2535.09 0.649211 -1.90649 0
M  V30 26812 C 2532.15 0.797857 -3.37395 0
M  V30 26813 C 2531.21 -0.0334417 -4.29287 0
M  V30 26814 C 2530.45 0.819761 -5.27367 0
M  V30 26815 O 2530.67 2.05845 -5.31962 0
M  V30 26816 O 2529.6 0.247973 -6.01389 0
M  V30 26817 H 2533.43 -0.882366 -2.90599 0
M  V30 26818 H 2531.01 -0.496525 -1.40908 0
M  V30 26819 H 2532.9 1.31041 -4.00507 0
M  V30 26820 H 2531.57 1.56101 -2.83574 0
M  V30 26821 H 2530.48 -0.59154 -3.69394 0
M  V30 26822 H 2531.81 -0.758837 -4.86315 0
M  V30 26823 N 2533.46 1.49999 -0.483543 0
M  V30 26824 C 2534.71 2.01582 0.0688748 0
M  V30 26825 C 2535.03 1.36954 1.39653 0
M  V30 26826 O 2536.23 1.79765 2.03462 0
M  V30 26827 C 2534.69 3.59483 0.173238 0
M  V30 26828 C 2534.3 4.33075 -1.14672 0
M  V30 26829 C 2536.04 4.19068 0.67695 0
M  V30 26830 C 2533.95 5.8279 -1.00548 0
M  V30 26831 H 2532.88 0.753422 0.0295144 0
M  V30 26832 H 2535.53 1.72697 -0.620325 0
M  V30 26833 H 2533.91 3.85009 0.926501 0
M  V30 26834 H 2535.08 4.19264 -1.91192 0
M  V30 26835 H 2533.4 3.85156 -1.58251 0
M  V30 26836 H 2536 5.28684 0.799859 0
M  V30 26837 H 2536.34 3.81272 1.67144 0
M  V30 26838 H 2536.87 3.97795 -0.0192782 0
M  V30 26839 H 2533.61 6.2508 -1.97371 0
M  V30 26840 H 2533.13 5.99142 -0.280881 0
M  V30 26841 H 2534.81 6.43447 -0.677113 0
M  V30 26842 N 2534.94 0.216646 1.56104 0
M  V30 26843 C 2535.87 -0.727722 2.1734 0
M  V30 26844 C 2536.89 -1.16114 1.14111 0
M  V30 26845 O 2538.08 -1.09314 1.41112 0
M  V30 26846 C 2535.18 -1.99688 2.73821 0
M  V30 26847 C 2534.35 -1.71981 4.02171 0
M  V30 26848 C 2533.41 -2.83554 4.43264 0
M  V30 26849 O 2532.43 -2.52235 5.10261 0
M  V30 26850 N 2533.64 -4.124 4.08542 0
M  V30 26851 H 2536.4 -0.20393 2.99005 0
M  V30 26852 H 2533.96 0.0354574 1.61861 0
M  V30 26853 H 2535.95 -2.73511 2.98285 0
M  V30 26854 H 2534.52 -2.43128 1.96487 0
M  V30 26855 H 2533.74 -0.818269 3.85614 0
M  V30 26856 H 2535.03 -1.50894 4.8591 0
M  V30 26857 H 2534.43 -4.4069 3.54695 0
M  V30 26858 H 2532.99 -4.82782 4.3791 0
M  V30 26859 N 2536.42 -1.57498 -0.0567885 0
M  V30 26860 C 2537.7 -1.79072 -0.786923 0
M  V30 26861 C 2538.08 -0.807954 -1.95026 0
M  V30 26862 O 2537.42 0.155818 -2.27968 0
M  V30 26863 C 2537.63 -3.26004 -1.24589 0
M  V30 26864 C 2538.98 -3.90244 -1.67316 0
M  V30 26865 O 2540.01 -3.29986 -1.34118 0
M  V30 26866 O 2538.87 -4.96284 -2.28833 0
M  V30 26867 H 2535.96 -0.73543 -0.378249 0
M  V30 26868 H 2538.51 -1.69662 -0.0357042 0
M  V30 26869 H 2537.28 -3.89102 -0.414162 0
M  V30 26870 H 2536.9 -3.40196 -2.05797 0
M  V30 26871 N 2537.9 0.328509 -1.54138 0
M  V30 26872 C 2539.31 0.672549 -1.44737 0
M  V30 26873 C 2539.51 1.91845 -0.61625 0
M  V30 26874 O 2538.57 2.52247 -0.113111 0
M  V30 26875 C 2539.88 0.851166 -2.88402 0
M  V30 26876 C 2541.43 0.948825 -2.98272 0
M  V30 26877 C 2541.91 1.15965 -4.43076 0
M  V30 26878 N 2543.4 1.2265 -4.46667 0
M  V30 26879 C 2544.13 1.40742 -5.55859 0
M  V30 26880 N 2543.63 1.55908 -6.75029 0
M  V30 26881 N 2545.42 1.4341 -5.43498 0
M  V30 26882 H 2537.57 -0.490458 -2.0666 0
M  V30 26883 H 2539.83 -0.157595 -0.934809 0
M  V30 26884 H 2539.54 0.00698054 -3.51699 0
M  V30 26885 H 2539.41 1.74847 -3.34228 0
M  V30 26886 H 2541.8 1.78352 -2.35106 0
M  V30 26887 H 2541.88 0.0280986 -2.55785 0
M  V30 26888 H 2541.53 0.329826 -5.06828 0
M  V30 26889 H 2541.46 2.09417 -4.83169 0
M  V30 26890 H 2543.95 1.12393 -3.60799 0
M  V30 26891 H 2544.26 1.6939 -7.54007 0
M  V30 26892 H 2542.61 1.53015 -6.77946 0
M  V30 26893 H 2545.8 1.31154 -4.49351 0
M  V30 26894 H 2545.97 1.57167 -6.28651 0
M  V30 26895 N 2539.38 1.46127 0.590316 0
M  V30 26896 C 2540.62 1.50744 1.34613 0
M  V30 26897 C 2540.94 0.15752 1.94363 0
M  V30 26898 O 2540.21 -0.815104 1.78137 0
M  V30 26899 H 2538.79 0.555184 0.49978 0
M  V30 26900 H 2541.46 1.82204 0.691921 0
M  V30 26901 H 2540.55 2.25591 2.15674 0
M  V30 26902 N 2540.85 -0.834306 1.33705 0
M  V30 26903 C 2541.79 -1.95168 1.20176 0
M  V30 26904 C 2542.8 -1.62267 0.131601 0
M  V30 26905 O 2543.99 -1.74355 0.382437 0
M  V30 26906 C 2541.09 -3.28786 0.821774 0
M  V30 26907 C 2540.26 -3.89789 1.98453 0
M  V30 26908 C 2539.32 -5.01768 1.58478 0
M  V30 26909 O 2538.35 -5.20672 2.29977 0
M  V30 26910 N 2539.55 -5.78408 0.492392 0
M  V30 26911 H 2542.31 -2.07309 2.16432 0
M  V30 26912 H 2539.87 -1.01028 1.2651 0
M  V30 26913 H 2541.87 -4.0113 0.536361 0
M  V30 26914 H 2540.44 -3.1256 -0.0502509 0
M  V30 26915 H 2539.66 -3.09978 2.43531 0
M  V30 26916 H 2540.94 -4.27278 2.76244 0
M  V30 26917 H 2540.34 -5.65608 -0.102249 0
M  V30 26918 H 2538.9 -6.51254 0.266669 0
M  V30 26919 N 2542.33 -1.17248 -1.05312 0
M  V30 26920 C 2543.56 -0.983197 -1.81705 0
M  V30 26921 C 2543.97 0.471789 -1.83223 0
M  V30 26922 O 2543.31 1.33937 -1.25724 0
M  V30 26923 C 2543.37 -1.44611 -3.29132 0
M  V30 26924 C 2543.04 -2.92298 -3.51299 0
M  V30 26925 C 2544.04 -3.90241 -3.43523 0
M  V30 26926 C 2541.72 -3.30446 -3.783 0
M  V30 26927 C 2543.71 -5.2433 -3.62432 0
M  V30 26928 C 2541.4 -4.64701 -3.96858 0
M  V30 26929 C 2542.4 -5.61452 -3.88923 0
M  V30 26930 O 2542.09 -6.93279 -4.06964 0
M  V30 26931 H 2541.82 -0.348124 -0.57947 0
M  V30 26932 H 2544.37 -1.55926 -1.33702 0
M  V30 26933 H 2542.6 -0.813603 -3.78044 0
M  V30 26934 H 2544.29 -1.22269 -3.87047 0
M  V30 26935 H 2545.06 -3.62115 -3.22642 0
M  V30 26936 H 2540.94 -2.55708 -3.83581 0
M  V30 26937 H 2544.48 -5.99833 -3.56155 0
M  V30 26938 H 2540.38 -4.92533 -4.17231 0
M  V30 26939 H 2541.15 -7 -4.24196 0
M  V30 26940 N 2543.81 1.24015 -0.972531 0
M  V30 26941 C 2544.74 2.27508 -0.525588 0
M  V30 26942 C 2545.72 1.64385 0.437233 0
M  V30 26943 O 2546.91 1.91336 0.332309 0
M  V30 26944 C 2544.04 3.46831 0.180387 0
M  V30 26945 C 2542.99 4.22255 -0.698933 0
M  V30 26946 C 2542.32 5.3452 0.138809 0
M  V30 26947 C 2543.62 4.83073 -1.9859 0
M  V30 26948 H 2545.31 2.65145 -1.39063 0
M  V30 26949 H 2542.86 1.27458 -0.670113 0
M  V30 26950 H 2544.81 4.18371 0.504313 0
M  V30 26951 H 2543.53 3.08233 1.07981 0
M  V30 26952 H 2542.19 3.52521 -1.0062 0
M  V30 26953 H 2541.84 4.92162 1.03853 0
M  V30 26954 H 2541.54 5.85902 -0.446362 0
M  V30 26955 H 2543.06 6.08885 0.457297 0
M  V30 26956 H 2544.48 5.46662 -1.72725 0
M  V30 26957 H 2542.88 5.44708 -2.5182 0
M  V30 26958 H 2543.95 4.04257 -2.67776 0
M  V30 26959 N 2545.29 0.743226 1.38974 0
M  V30 26960 C 2546.53 0.299575 2.02193 0
M  V30 26961 C 2546.89 -1.09503 1.57712 0
M  V30 26962 O 2548.09 -1.63722 2.13187 0
M  V30 26963 C 2546.36 0.406885 3.55076 0
M  V30 26964 S 2547.92 0.044288 4.38778 0
M  V30 26965 H 2544.74 0.116849 0.701333 0
M  V30 26966 H 2547.34 0.971559 1.6965 0
M  V30 26967 H 2546.05 1.42302 3.84939 0
M  V30 26968 H 2545.58 -0.282638 3.92383 0
M  V30 26969 H 2547.59 -1.16939 4.82224 0
M  V30 26970 N 2546.77 -1.4974 0.491491 0
M  V30 26971 C 2547.99 -2.07325 -0.0556813 0
M  V30 26972 C 2548.42 -1.35059 -1.30923 0
M  V30 26973 O 2547.77 -0.404396 -1.76732 0
M  V30 26974 C 2547.82 -3.59333 -0.302011 0
M  V30 26975 O 2546.93 -3.88675 -1.37861 0
M  V30 26976 H 2546.27 -0.663635 0.0220072 0
M  V30 26977 H 2548.8 -1.92672 0.688386 0
M  V30 26978 H 2548.81 -4.04459 -0.536393 0
M  V30 26979 H 2547.48 -4.11344 0.613902 0
M  V30 26980 H 2546.06 -3.55369 -1.12993 0
M  V30 26981 N 2548.24 -0.224922 -1.55987 0
M  V30 26982 C 2549.21 0.670309 -2.19179 0
M  V30 26983 C 2550.21 1.11915 -1.15463 0
M  V30 26984 O 2551.4 1.02741 -1.40677 0
M  V30 26985 C 2548.53 1.91866 -2.81781 0
M  V30 26986 H 2549.72 0.119311 -2.99663 0
M  V30 26987 H 2547.28 0.0246853 -1.56281 0
M  V30 26988 H 2548.01 2.51144 -2.05176 0
M  V30 26989 H 2547.8 1.60525 -3.57735 0
M  V30 26990 H 2549.29 2.5564 -3.30209 0
M  V30 26991 N 2549.72 1.57526 0.0484352 0
M  V30 26992 C 2550.95 1.93007 0.759143 0
M  V30 26993 C 2551.37 0.823347 1.69123 0
M  V30 26994 O 2550.73 -0.222332 1.79932 0
M  V30 26995 C 2550.78 3.27511 1.50893 0
M  V30 26996 O 2549.88 3.18393 2.62106 0
M  V30 26997 H 2549.22 0.631383 0.205553 0
M  V30 26998 H 2551.75 2.04598 0.00969363 0
M  V30 26999 H 2551.76 3.61943 1.88311 0
M  V30 27000 H 2550.44 4.07631 0.825197 0
M  V30 27001 H 2549.02 2.9556 2.27374 0
M  V30 27002 N 2551.2 -0.32033 1.5431 0
M  V30 27003 C 2552.15 -1.41447 1.8465 0
M  V30 27004 C 2553.14 -1.53401 0.718651 0
M  V30 27005 O 2554.35 -1.55748 0.902362 0
M  V30 27006 H 2550.72 -0.472081 0.585358 0
M  V30 27007 H 2552.69 -1.13084 2.76142 0
M  V30 27008 C 2551.44 -2.77614 2.09346 0
M  V30 27009 H 2550.77 -2.69191 2.95595 0
M  V30 27010 H 2552.21 -3.53233 2.34526 0
M  V30 27011 C 2550.67 -3.25041 0.885996 0
M  V30 27012 O 2551.2 -4.01583 0.0968597 0
M  V30 27013 N 2549.4 -2.82124 0.696732 0
M  V30 27014 H 2548.95 -2.19998 1.3401 0
M  V30 27015 H 2548.91 -3.14209 -0.109657 0
M  V30 27016 N 2552.68 -1.46438 -0.582558 0
M  V30 27017 C 2553.61 -1.59874 -1.70184 0
M  V30 27018 C 2554.59 -0.449071 -1.64065 0
M  V30 27019 O 2555.77 -0.675332 -1.82079 0
M  V30 27020 C 2552.9 -1.58886 -3.08824 0
M  V30 27021 C 2551.86 -2.72824 -3.29774 0
M  V30 27022 C 2551.18 -2.56898 -4.68943 0
M  V30 27023 C 2552.48 -4.14646 -3.17594 0
M  V30 27024 H 2554.18 -2.53569 -1.59196 0
M  V30 27025 H 2551.72 -1.22033 -0.764451 0
M  V30 27026 H 2553.68 -1.6688 -3.86948 0
M  V30 27027 H 2552.4 -0.617362 -3.20712 0
M  V30 27028 H 2551.06 -2.643 -2.54049 0
M  V30 27029 H 2550.71 -1.57831 -4.77596 0
M  V30 27030 H 2550.41 -3.3332 -4.83913 0
M  V30 27031 H 2551.93 -2.66783 -5.49235 0
M  V30 27032 H 2553.35 -4.24281 -3.85563 0
M  V30 27033 H 2551.74 -4.91656 -3.44085 0
M  V30 27034 H 2552.81 -4.34791 -2.14673 0
M  V30 27035 N 2554.16 0.827204 -1.34146 0
M  V30 27036 C 2555.4 1.58317 -1.26261 0
M  V30 27037 C 2555.73 1.93768 0.168561 0
M  V30 27038 O 2554.99 1.59868 1.12874 0
M  V30 27039 C 2555.29 2.89581 -2.09469 0
M  V30 27040 C 2554.95 2.73441 -3.58526 0
M  V30 27041 C 2553.61 2.68747 -3.9916 0
M  V30 27042 C 2555.97 2.5742 -4.53193 0
M  V30 27043 C 2553.29 2.45947 -5.3266 0
M  V30 27044 C 2555.65 2.36153 -5.86869 0
M  V30 27045 C 2554.31 2.29868 -6.26671 0
M  V30 27046 H 2553.58 0.579324 -0.462023 0
M  V30 27047 H 2556.23 0.95745 -1.65847 0
M  V30 27048 H 2554.53 3.56422 -1.62698 0
M  V30 27049 H 2556.23 3.4715 -2.00718 0
M  V30 27050 H 2552.82 2.77933 -3.26269 0
M  V30 27051 H 2557 2.60073 -4.227 0
M  V30 27052 H 2552.26 2.39536 -5.62523 0
M  V30 27053 H 2556.43 2.22742 -6.59817 0
M  V30 27054 H 2554.06 2.11962 -7.30052 0
M  V30 27055 N 2555.63 1.17805 1.04688 0
M  V30 27056 C 2556.88 0.967648 1.77429 0
M  V30 27057 C 2557.2 -0.50454 1.8836 0
M  V30 27058 O 2556.47 -1.36614 1.40404 0
M  V30 27059 H 2555.05 0.355035 0.657236 0
M  V30 27060 H 2557.72 1.48373 1.26378 0
M  V30 27061 H 2556.81 1.40032 2.78922 0
M  V30 27062 N 2557.11 -1.23497 0.979094 0
M  V30 27063 C 2558.34 -1.95914 0.665236 0
M  V30 27064 C 2558.76 -1.72494 -0.767541 0
M  V30 27065 O 2558.11 -1.01557 -1.51633 0
M  V30 27066 C 2558.16 -3.48943 0.9445 0
M  V30 27067 O 2557.88 -3.71568 2.32096 0
M  V30 27068 C 2559.39 -4.38562 0.646413 0
M  V30 27069 H 2556.61 -0.623794 0.247229 0
M  V30 27070 H 2559.15 -1.57022 1.31012 0
M  V30 27071 H 2557.3 -3.85855 0.345643 0
M  V30 27072 H 2557.72 -4.65871 2.40965 0
M  V30 27073 H 2559.19 -5.44742 0.892186 0
M  V30 27074 H 2559.67 -4.37192 -0.419498 0
M  V30 27075 H 2560.28 -4.07255 1.22569 0
M  V30 27076 N 2558.59 -0.750586 -1.38578 0
M  V30 27077 C 2559.87 -0.231043 -1.94231 0
M  V30 27078 C 2560.25 1.27015 -1.68613 0
M  V30 27079 O 2559.6 2.04321 -1.023 0
M  V30 27080 C 2559.81 -0.581489 -3.44122 0
M  V30 27081 C 2561.15 -0.539463 -4.21159 0
M  V30 27082 O 2562.18 -0.519603 -3.5239 0
M  V30 27083 O 2561.04 -0.547745 -5.43748 0
M  V30 27084 H 2558.13 -0.0474408 -0.825638 0
M  V30 27085 H 2560.68 -0.830504 -1.47989 0
M  V30 27086 H 2559.45 -1.61839 -3.56264 0
M  V30 27087 H 2559.07 0.0461348 -3.97573 0
M  V30 27088 N 2560.07 1.49477 -0.499425 0
M  V30 27089 C 2561.02 2.2603 0.299063 0
M  V30 27090 C 2562 1.30808 0.936911 0
M  V30 27091 O 2563.2 1.5554 0.844771 0
M  V30 27092 C 2560.32 3.15046 1.36385 0
M  V30 27093 C 2559.41 4.17729 0.732325 0
M  V30 27094 N 2559.8 5.05534 -0.164117 0
M  V30 27095 C 2558.1 4.34803 0.993086 0
M  V30 27096 C 2558.8 5.79322 -0.525446 0
M  V30 27097 N 2557.78 5.43496 0.106252 0
M  V30 27098 H 2561.58 2.91287 -0.391054 0
M  V30 27099 H 2559.09 1.59308 -0.315398 0
M  V30 27100 H 2561.09 3.6852 1.94933 0
M  V30 27101 H 2559.75 2.51341 2.05567 0
M  V30 27102 H 2560.76 5.15131 -0.534827 0
M  V30 27103 H 2557.44 3.82305 1.67777 0
M  V30 27104 H 2558.83 6.60004 -1.25873 0
M  V30 27105 N 2561.55 0.233191 1.55865 0
M  V30 27106 C 2562.48 -0.666559 2.23784 0
M  V30 27107 C 2563.46 -1.19203 1.21345 0
M  V30 27108 O 2564.64 -1.23389 1.49962 0
M  V30 27109 C 2561.77 -1.86973 2.92675 0
M  V30 27110 C 2560.73 -1.47761 4.01685 0
M  V30 27111 C 2560.05 -2.7605 4.57931 0
M  V30 27112 C 2561.35 -0.658902 5.18127 0
M  V30 27113 H 2563.05 -0.100253 2.99232 0
M  V30 27114 H 2560.59 -0.0467787 1.43924 0
M  V30 27115 H 2562.55 -2.50471 3.38884 0
M  V30 27116 H 2561.27 -2.46119 2.14693 0
M  V30 27117 H 2559.93 -0.866043 3.56224 0
M  V30 27118 H 2559.58 -3.33365 3.76665 0
M  V30 27119 H 2559.28 -2.50543 5.31509 0
M  V30 27120 H 2560.8 -3.4047 5.06865 0
M  V30 27121 H 2562.22 -1.19785 5.60646 0
M  V30 27122 H 2560.61 -0.500447 5.9801 0
M  V30 27123 H 2561.68 0.331941 4.83763 0
M  V30 27124 N 2563.03 -1.57549 -0.0400806 0
M  V30 27125 C 2563.98 -2.02294 -1.05171 0
M  V30 27126 C 2564.96 -0.910317 -1.32673 0
M  V30 27127 O 2566.15 -1.17423 -1.32442 0
M  V30 27128 C 2563.28 -2.49678 -2.35618 0
M  V30 27129 C 2562.37 -3.67739 -2.11255 0
M  V30 27130 N 2562.76 -4.80845 -1.56914 0
M  V30 27131 C 2561.06 -3.74901 -2.41589 0
M  V30 27132 C 2561.76 -5.62531 -1.48101 0
M  V30 27133 N 2560.73 -5.07316 -1.95273 0
M  V30 27134 H 2564.53 -2.87169 -0.625405 0
M  V30 27135 H 2562.05 -1.60517 -0.246596 0
M  V30 27136 H 2564.05 -2.79989 -3.08888 0
M  V30 27137 H 2562.71 -1.66205 -2.78937 0
M  V30 27138 H 2563.72 -5.02505 -1.25336 0
M  V30 27139 H 2560.39 -3.02206 -2.88059 0
M  V30 27140 H 2561.78 -6.63378 -1.06671 0
M  V30 27141 N 2564.5 0.312142 -1.54478 0
M  V30 27142 C 2565.75 1.05027 -1.73485 0
M  V30 27143 C 2566.08 1.87297 -0.513158 0
M  V30 27144 O 2565.36 1.88231 0.48983 0
M  V30 27145 C 2565.64 1.96553 -3.01727 0
M  V30 27146 C 2565.49 1.17537 -4.34172 0
M  V30 27147 C 2566.81 2.95901 -3.25777 0
M  V30 27148 H 2563.93 0.380421 -0.631228 0
M  V30 27149 H 2566.57 0.325899 -1.87184 0
M  V30 27150 H 2564.72 2.58319 -2.90178 0
M  V30 27151 H 2566.4 0.581432 -4.57621 0
M  V30 27152 H 2564.64 0.477849 -4.3116 0
M  V30 27153 H 2565.31 1.84802 -5.20146 0
M  V30 27154 H 2567.79 2.44261 -3.36862 0
M  V30 27155 H 2566.66 3.57116 -4.16845 0
M  V30 27156 H 2566.92 3.6897 -2.43544 0
M  V30 27157 N 2565.98 1.46745 0.574784 0
M  V30 27158 C 2567.21 1.56049 1.35854 0
M  V30 27159 C 2567.62 0.204398 1.8769 0
M  V30 27160 O 2566.98 -0.799601 1.64051 0
M  V30 27161 C 2567.03 2.57168 2.54061 0
M  V30 27162 O 2566.75 3.8751 2.04371 0
M  V30 27163 C 2568.25 2.76489 3.4651 0
M  V30 27164 H 2565.47 0.527473 0.414744 0
M  V30 27165 H 2568.02 1.92219 0.698001 0
M  V30 27166 H 2566.17 2.2398 3.16088 0
M  V30 27167 H 2566.59 4.42615 2.81411 0
M  V30 27168 H 2568.06 3.51145 4.25912 0
M  V30 27169 H 2568.54 1.83678 3.98947 0
M  V30 27170 H 2569.14 3.10804 2.90312 0
M  V30 27171 N 2567.46 -0.820078 1.34583 0
M  V30 27172 C 2568.39 -1.94603 1.29042 0
M  V30 27173 C 2569.37 -1.69275 0.16733 0
M  V30 27174 O 2570.56 -1.90831 0.360146 0
M  V30 27175 C 2567.69 -3.31111 1.04799 0
M  V30 27176 C 2566.64 -3.70887 2.13604 0
M  V30 27177 C 2565.97 -5.05409 1.74545 0
M  V30 27178 C 2567.27 -3.82684 3.55458 0
M  V30 27179 H 2568.96 -1.99497 2.23252 0
M  V30 27180 H 2566.51 -0.95843 1.07472 0
M  V30 27181 H 2568.46 -4.09469 0.995664 0
M  V30 27182 H 2567.18 -3.26524 0.0703139 0
M  V30 27183 H 2565.84 -2.94806 2.1791 0
M  V30 27184 H 2565.49 -4.97312 0.754313 0
M  V30 27185 H 2565.19 -5.32993 2.47371 0
M  V30 27186 H 2566.71 -5.86221 1.70814 0
M  V30 27187 H 2568.13 -4.51305 3.53548 0
M  V30 27188 H 2566.52 -4.21725 4.26929 0
M  V30 27189 H 2567.59 -2.84604 3.92592 0
M  V30 27190 N 2568.94 -1.18359 -1.04062 0
M  V30 27191 C 2570.16 -1.00448 -1.81452 0
M  V30 27192 C 2570.59 0.44239 -1.82824 0
M  V30 27193 O 2569.95 1.31739 -1.24557 0
M  V30 27194 C 2569.99 -1.5639 -3.24923 0
M  V30 27195 O 2569.1 -0.78528 -4.04854 0
M  V30 27196 H 2568.44 -0.355845 -0.560598 0
M  V30 27197 H 2570.97 -1.57116 -1.31056 0
M  V30 27198 H 2570.98 -1.59103 -3.757 0
M  V30 27199 H 2569.65 -2.61705 -3.23239 0
M  V30 27200 H 2568.23 -0.830462 -3.63535 0
M  V30 27201 N 2570.42 1.22976 -0.98563 0
M  V30 27202 C 2571.66 1.91815 -0.658393 0
M  V30 27203 C 2571.99 1.76654 0.806661 0
M  V30 27204 O 2571.27 1.13081 1.5825 0
M  V30 27205 C 2571.55 3.44266 -1.05606 0
M  V30 27206 C 2571.41 3.68512 -2.57913 0
M  V30 27207 C 2572.72 4.35938 -0.603857 0
M  V30 27208 H 2569.84 0.696599 -0.240662 0
M  V30 27209 H 2572.49 1.44996 -1.22785 0
M  V30 27210 H 2570.64 3.84273 -0.571513 0
M  V30 27211 H 2572.31 3.37954 -3.13982 0
M  V30 27212 H 2570.55 3.13043 -3.00311 0
M  V30 27213 H 2571.22 4.7525 -2.80788 0
M  V30 27214 H 2573.7 4.03406 -1.01994 0
M  V30 27215 H 2572.57 5.41296 -0.910478 0
M  V30 27216 H 2572.83 4.39312 0.495684 0
M  V30 27217 N 2571.89 0.757924 1.38178 0
M  V30 27218 C 2573.14 0.316488 2.00315 0
M  V30 27219 C 2573.47 -1.10022 1.60028 0
M  V30 27220 O 2572.75 -1.75432 0.839866 0
M  V30 27221 C 2573.03 0.444307 3.57348 0
M  V30 27222 C 2572.88 1.90243 4.07587 0
M  V30 27223 C 2574.2 -0.159723 4.3981 0
M  V30 27224 H 2571.32 0.116471 0.727739 0
M  V30 27225 H 2573.96 0.958381 1.64058 0
M  V30 27226 H 2572.11 -0.102165 3.88366 0
M  V30 27227 H 2573.79 2.50755 3.87195 0
M  V30 27228 H 2572.03 2.41602 3.60293 0
M  V30 27229 H 2572.7 1.943 5.16673 0
M  V30 27230 H 2575.18 0.306387 4.1497 0
M  V30 27231 H 2574.05 -0.040071 5.48885 0
M  V30 27232 H 2574.31 -1.24851 4.24104 0
M  V30 27233 N 2573.37 -1.4921 0.507345 0
M  V30 27234 C 2574.6 -2.07373 -0.0336885 0
M  V30 27235 C 2575.02 -1.3644 -1.29483 0
M  V30 27236 O 2574.38 -0.423118 -1.76294 0
M  V30 27237 C 2574.43 -3.59633 -0.263882 0
M  V30 27238 O 2573.53 -3.90115 -1.33731 0
M  V30 27239 H 2572.87 -0.663364 0.0290447 0
M  V30 27240 H 2575.4 -1.91931 0.708783 0
M  V30 27241 H 2575.41 -4.05005 -0.493464 0
M  V30 27242 H 2574.09 -4.1067 0.657496 0
M  V30 27243 H 2572.67 -3.56547 -1.09217 0
M  V30 27244 N 2574.85 -0.241454 -1.55739 0
M  V30 27245 C 2576.08 0.388534 -2.02914 0
M  V30 27246 C 2576.49 1.52476 -1.12017 0
M  V30 27247 O 2575.83 1.83268 -0.125935 0
M  V30 27248 C 2575.89 0.963014 -3.46362 0
M  V30 27249 C 2575.56 -0.0402719 -4.56982 0
M  V30 27250 C 2576.55 -0.847857 -5.1294 0
M  V30 27251 C 2574.24 -0.164787 -5.0203 0
M  V30 27252 C 2576.23 -1.76647 -6.12433 0
M  V30 27253 C 2573.92 -1.08691 -6.01356 0
M  V30 27254 C 2574.92 -1.88628 -6.56436 0
M  V30 27255 O 2574.61 -2.79286 -7.53826 0
M  V30 27256 H 2574.34 0.0971335 -0.668985 0
M  V30 27257 H 2576.89 -0.361283 -2.02198 0
M  V30 27258 H 2575.12 1.76229 -3.44209 0
M  V30 27259 H 2576.81 1.5025 -3.77067 0
M  V30 27260 H 2577.58 -0.762217 -4.78973 0
M  V30 27261 H 2573.46 0.44733 -4.58825 0
M  V30 27262 H 2577 -2.39083 -6.55351 0
M  V30 27263 H 2572.9 -1.17349 -6.34744 0
M  V30 27264 H 2573.67 -2.73586 -7.71423 0
M  V30 27265 N 2576.33 1.57568 0.0317248 0
M  V30 27266 C 2577.74 1.77506 0.57866 0
M  V30 27267 C 2578.09 0.872195 1.75748 0
M  V30 27268 O 2577.22 0.0663487 2.16298 0
M  V30 27269 C 2577.81 3.21905 1.05652 0
M  V30 27270 C 2576.37 3.4305 1.549 0
M  V30 27271 C 2575.52 2.7301 0.485891 0
M  V30 27272 H 2578.47 1.57504 -0.194502 0
M  V30 27273 H 2578.49 3.28273 1.92399 0
M  V30 27274 H 2578 3.87593 0.198354 0
M  V30 27275 H 2576.1 2.82534 2.4291 0
M  V30 27276 H 2576.21 4.51653 1.59833 0
M  V30 27277 H 2574.58 2.36707 0.940313 0
M  V30 27278 H 2575.36 3.41378 -0.362769 0
M  V30 27279 N 2577.81 -0.303946 1.54641 0
M  V30 27280 C 2579.22 -0.877134 1.64813 0
M  V30 27281 C 2579.57 -1.8819 0.554871 0
M  V30 27282 O 2578.69 -2.14183 -0.308995 0
M  V30 27283 C 2579.29 -1.59769 2.98763 0
M  V30 27284 C 2577.85 -2.11933 3.11065 0
M  V30 27285 C 2576.99 -0.951051 2.60481 0
M  V30 27286 H 2579.95 -0.0810208 1.58493 0
M  V30 27287 H 2579.97 -2.46309 2.90021 0
M  V30 27288 H 2579.48 -0.86616 3.78311 0
M  V30 27289 H 2577.58 -2.88142 2.3623 0
M  V30 27290 H 2577.69 -2.35588 4.17175 0
M  V30 27291 H 2576.06 -1.33579 2.16861 0
M  V30 27292 H 2576.84 -0.233521 3.42505 0
M  V30 27293 N 2579.28 -1.47047 -0.566994 0
M  V30 27294 C 2580.7 -1.32349 -0.891951 0
M  V30 27295 C 2580.9 -0.306651 -1.99153 0
M  V30 27296 O 2579.96 0.285276 -2.50883 0
M  V30 27297 C 2581.27 -2.71413 -1.29444 0
M  V30 27298 C 2582.82 -2.79623 -1.40641 0
M  V30 27299 C 2583.29 -4.19304 -1.8425 0
M  V30 27300 N 2584.78 -4.21798 -1.91417 0
M  V30 27301 C 2585.52 -5.26783 -2.26467 0
M  V30 27302 N 2585.01 -6.42081 -2.60199 0
M  V30 27303 N 2586.81 -5.14156 -2.27157 0
M  V30 27304 H 2578.96 -2.11803 0.159111 0
M  V30 27305 H 2581.22 -0.947962 0.00851418 0
M  V30 27306 H 2580.93 -3.47207 -0.560387 0
M  V30 27307 H 2580.8 -3.02546 -2.25268 0
M  V30 27308 H 2583.19 -2.04107 -2.1313 0
M  V30 27309 H 2583.27 -2.52155 -0.430294 0
M  V30 27310 H 2582.91 -4.95321 -1.12335 0
M  V30 27311 H 2582.84 -4.4419 -2.82847 0
M  V30 27312 H 2585.33 -3.38615 -1.67774 0
M  V30 27313 H 2585.65 -7.17953 -2.85943 0
M  V30 27314 H 2583.99 -6.45417 -2.57802 0
M  V30 27315 H 2587.18 -4.23111 -2.00237 0
M  V30 27316 H 2587.36 -5.96083 -2.54144 0
M  V30 27317 N 2580.76 0.812929 -1.35016 0
M  V30 27318 C 2582.01 1.56476 -1.27272 0
M  V30 27319 C 2582.32 1.95003 0.152737 0
M  V30 27320 O 2583.53 2.69203 0.352404 0
M  V30 27321 C 2581.99 2.82358 -2.23164 0
M  V30 27322 C 2581.59 2.51094 -3.7102 0
M  V30 27323 C 2583.34 3.60372 -2.24349 0
M  V30 27324 C 2581.25 3.73229 -4.58753 0
M  V30 27325 H 2580.18 0.587315 -0.472839 0
M  V30 27326 H 2582.83 0.894143 -1.60241 0
M  V30 27327 H 2581.21 3.51097 -1.83157 0
M  V30 27328 H 2582.38 1.90401 -4.19624 0
M  V30 27329 H 2580.7 1.86337 -3.72381 0
M  V30 27330 H 2583.29 4.51076 -2.87115 0
M  V30 27331 H 2583.64 3.97232 -1.24549 0
M  V30 27332 H 2584.17 2.98587 -2.62851 0
M  V30 27333 H 2580.91 3.41482 -5.59527 0
M  V30 27334 H 2580.43 4.33169 -4.14879 0
M  V30 27335 H 2582.11 4.40529 -4.7386 0
M  V30 27336 N 2582.24 1.18909 1.03433 0
M  V30 27337 C 2583.17 0.945486 2.13501 0
M  V30 27338 C 2584.15 -0.119159 1.69682 0
M  V30 27339 O 2585.34 0.0347411 1.94169 0
M  V30 27340 C 2582.47 0.477377 3.44003 0
M  V30 27341 C 2581.42 1.48323 4.01478 0
M  V30 27342 C 2580.75 0.872404 5.27535 0
M  V30 27343 C 2582.05 2.86185 4.36916 0
M  V30 27344 H 2583.74 1.86601 2.34138 0
M  V30 27345 H 2581.29 0.898604 1.12522 0
M  V30 27346 H 2583.24 0.294278 4.20371 0
M  V30 27347 H 2581.96 -0.478729 3.23072 0
M  V30 27348 H 2580.62 1.65338 3.27198 0
M  V30 27349 H 2580.27 -0.0910868 5.02918 0
M  V30 27350 H 2579.97 1.54403 5.66951 0
M  V30 27351 H 2581.49 0.699978 6.06575 0
M  V30 27352 H 2582.91 2.72785 5.04243 0
M  V30 27353 H 2581.31 3.50089 4.87399 0
M  V30 27354 H 2582.38 3.39254 3.4646 0
M  V30 27355 N 2583.72 -1.22452 0.992137 0
M  V30 27356 C 2584.63 -2.28045 0.55069 0
M  V30 27357 C 2585.64 -1.69336 -0.400159 0
M  V30 27358 O 2586.82 -1.9962 -0.26718 0
M  V30 27359 C 2583.89 -3.46462 -0.128435 0
M  V30 27360 C 2582.95 -4.20489 0.865281 0
M  V30 27361 C 2582.18 -5.33253 0.218471 0
M  V30 27362 O 2582.4 -5.61782 -0.987795 0
M  V30 27363 O 2581.34 -5.94782 0.922949 0
M  V30 27364 H 2585.16 -2.67972 1.42915 0
M  V30 27365 H 2582.75 -1.28604 0.760348 0
M  V30 27366 H 2584.63 -4.18316 -0.508874 0
M  V30 27367 H 2583.3 -3.08462 -0.981472 0
M  V30 27368 H 2582.21 -3.5091 1.29664 0
M  V30 27369 H 2583.54 -4.62368 1.6875 0
M  V30 27370 N 2585.2 -0.765242 -1.37774 0
M  V30 27371 C 2586.61 -0.444135 -1.53296 0
M  V30 27372 C 2586.81 1.04116 -1.72517 0
M  V30 27373 O 2585.87 1.82708 -1.74282 0
M  V30 27374 C 2587.18 -1.25354 -2.73326 0
M  V30 27375 C 2588.73 -1.24478 -2.87183 0
M  V30 27376 C 2589.2 -2.0374 -4.10188 0
M  V30 27377 N 2590.7 -2.0106 -4.17288 0
M  V30 27378 C 2591.43 -2.59175 -5.11484 0
M  V30 27379 N 2590.93 -3.26051 -6.11279 0
M  V30 27380 N 2592.72 -2.49041 -5.0392 0
M  V30 27381 H 2584.87 -1.7277 -1.23549 0
M  V30 27382 H 2587.13 -0.733072 -0.60109 0
M  V30 27383 H 2586.84 -2.30581 -2.65566 0
M  V30 27384 H 2586.71 -0.878295 -3.66832 0
M  V30 27385 H 2589.1 -0.200522 -2.94418 0
M  V30 27386 H 2589.18 -1.65962 -1.94654 0
M  V30 27387 H 2588.83 -3.08183 -4.03714 0
M  V30 27388 H 2588.76 -1.59642 -5.01819 0
M  V30 27389 H 2591.25 -1.52366 -3.45822 0
M  V30 27390 H 2591.56 -3.67786 -6.79671 0
M  V30 27391 H 2589.9 -3.30149 -6.11577 0
M  V30 27392 H 2593.1 -1.96414 -4.24899 0
M  V30 27393 H 2593.27 -2.94627 -5.77147 0
M  V30 27394 N 2586.67 1.48939 -0.515251 0
M  V30 27395 C 2588.09 1.58669 -0.172127 0
M  V30 27396 C 2588.29 1.51895 1.32402 0
M  V30 27397 O 2587.35 1.40031 2.10113 0
M  V30 27398 C 2588.66 2.90896 -0.761584 0
M  V30 27399 C 2590.21 3.04393 -0.728979 0
M  V30 27400 C 2590.68 4.39259 -1.29675 0
M  V30 27401 N 2592.17 4.45788 -1.25807 0
M  V30 27402 C 2592.91 5.4862 -1.66743 0
M  V30 27403 N 2592.4 6.58484 -2.15338 0
M  V30 27404 N 2594.2 5.39416 -1.58071 0
M  V30 27405 H 2586.35 1.51586 -1.4878 0
M  V30 27406 H 2588.61 0.71889 -0.617981 0
M  V30 27407 H 2588.32 3.01464 -1.81141 0
M  V30 27408 H 2588.19 3.76497 -0.230173 0
M  V30 27409 H 2590.58 2.93446 0.312047 0
M  V30 27410 H 2590.66 2.20439 -1.2977 0
M  V30 27411 H 2590.3 4.50959 -2.33663 0
M  V30 27412 H 2590.23 5.21875 -0.703844 0
M  V30 27413 H 2592.72 3.66973 -0.902166 0
M  V30 27414 H 2593.04 7.33067 -2.44607 0
M  V30 27415 H 2591.38 6.59487 -2.19322 0
M  V30 27416 H 2594.57 4.5248 -1.19914 0
M  V30 27417 H 2594.75 6.19429 -1.90295 0
M  V30 27418 N 2588.15 0.249709 1.55609 0
M  V30 27419 C 2589.38 -0.378316 2.03412 0
M  V30 27420 C 2589.8 -1.51333 1.12889 0
M  V30 27421 O 2589.15 -1.81932 0.143865 0
M  V30 27422 C 2589.2 -0.883448 3.50539 0
M  V30 27423 O 2588.93 0.206337 4.37614 0
M  V30 27424 C 2590.43 -1.58188 4.14115 0
M  V30 27425 H 2587.65 -0.0895683 0.664995 0
M  V30 27426 H 2590.19 0.374393 2.01044 0
M  V30 27427 H 2588.35 -1.58633 3.53432 0
M  V30 27428 H 2588.76 -0.17769 5.24199 0
M  V30 27429 H 2590.23 -1.88701 5.18745 0
M  V30 27430 H 2590.71 -2.50481 3.60772 0
M  V30 27431 H 2591.32 -0.9235 4.15152 0
M  V30 27432 N 2589.63 -1.57583 -0.0233682 0
M  V30 27433 C 2590.58 -2.06929 -1.02221 0
M  V30 27434 C 2591.55 -0.959641 -1.35573 0
M  V30 27435 O 2592.73 -1.23058 -1.45813 0
M  V30 27436 C 2589.87 -2.55814 -2.31632 0
M  V30 27437 C 2588.99 -3.80591 -2.04388 0
M  V30 27438 C 2588.12 -4.18067 -3.2771 0
M  V30 27439 C 2587.16 -5.35745 -2.96046 0
M  V30 27440 N 2586.3 -5.68625 -4.11837 0
M  V30 27441 H 2591.14 -2.92011 -0.594453 0
M  V30 27442 H 2588.67 -1.44374 -0.281896 0
M  V30 27443 H 2590.63 -2.82226 -3.07253 0
M  V30 27444 H 2589.26 -1.73641 -2.72119 0
M  V30 27445 H 2588.31 -3.61229 -1.19238 0
M  V30 27446 H 2589.63 -4.66327 -1.77034 0
M  V30 27447 H 2588.78 -4.45637 -4.11695 0
M  V30 27448 H 2587.52 -3.30994 -3.58182 0
M  V30 27449 H 2586.52 -5.07922 -2.10465 0
M  V30 27450 H 2587.75 -6.24476 -2.66846 0
M  V30 27451 H 2585.7 -4.84511 -4.4225 0
M  V30 27452 H 2585.61 -6.48883 -3.87927 0
M  V30 27453 H 2586.88 -6.00775 -4.96678 0
M  V30 27454 N 2591.11 0.29574 -1.548 0
M  V30 27455 C 2592.02 1.38738 -1.89179 0
M  V30 27456 C 2593.04 1.5521 -0.786509 0
M  V30 27457 O 2594.21 1.69773 -1.08347 0
M  V30 27458 C 2591.28 2.73033 -2.13668 0
M  V30 27459 C 2590.34 2.65502 -3.37354 0
M  V30 27460 C 2589.57 3.93391 -3.60665 0
M  V30 27461 O 2589.79 4.93001 -2.86891 0
M  V30 27462 O 2588.73 3.94967 -4.54186 0
M  V30 27463 H 2592.55 1.12584 -2.82061 0
M  V30 27464 H 2590.14 0.49227 -1.41057 0
M  V30 27465 H 2592.02 3.5248 -2.30946 0
M  V30 27466 H 2590.7 2.99019 -1.23972 0
M  V30 27467 H 2589.6 1.84508 -3.25434 0
M  V30 27468 H 2590.94 2.44467 -4.27196 0
M  V30 27469 N 2592.59 1.47346 0.559187 0
M  V30 27470 C 2593.84 1.5313 1.31278 0
M  V30 27471 C 2594.15 0.197378 1.94602 0
M  V30 27472 O 2595.36 0.133201 2.71173 0
M  V30 27473 C 2593.81 2.69929 2.38046 0
M  V30 27474 C 2593.42 4.09843 1.80922 0
M  V30 27475 C 2595.16 2.85004 3.14599 0
M  V30 27476 C 2593.07 5.17945 2.85459 0
M  V30 27477 H 2592 0.569975 0.493604 0
M  V30 27478 H 2594.65 1.73616 0.594125 0
M  V30 27479 H 2593.03 2.4282 3.12817 0
M  V30 27480 H 2594.21 4.46847 1.12537 0
M  V30 27481 H 2592.52 3.99636 1.1696 0
M  V30 27482 H 2595.12 3.62936 3.92659 0
M  V30 27483 H 2595.46 1.93375 3.68662 0
M  V30 27484 H 2596 3.11875 2.46939 0
M  V30 27485 H 2592.73 6.11445 2.36254 0
M  V30 27486 H 2592.25 4.85461 3.52261 0
M  V30 27487 H 2593.93 5.44809 3.48987 0
M  V30 27488 N 2594.07 -0.805758 1.35445 0
M  V30 27489 C 2595.29 -1.59421 1.31881 0
M  V30 27490 C 2595.71 -1.88516 -0.103529 0
M  V30 27491 O 2595.07 -1.48865 -1.05572 0
M  V30 27492 C 2595.12 -2.92498 2.12431 0
M  V30 27493 O 2594.84 -2.64664 3.4912 0
M  V30 27494 C 2596.34 -3.86858 2.16462 0
M  V30 27495 H 2593.56 -0.494998 0.45301 0
M  V30 27496 H 2596.1 -1.00128 1.7831 0
M  V30 27497 H 2594.26 -3.48303 1.69599 0
M  V30 27498 H 2594.67 -3.4964 3.90963 0
M  V30 27499 H 2596.15 -4.77344 2.77213 0
M  V30 27500 H 2596.62 -4.23506 1.1636 0
M  V30 27501 H 2597.23 -3.36988 2.59459 0
M  V30 27502 N 2595.54 -1.19456 -1.02801 0
M  V30 27503 C 2596.79 -0.999202 -1.76476 0
M  V30 27504 C 2597.12 0.468795 -1.88457 0
M  V30 27505 O 2596.4 1.34812 -1.402 0
M  V30 27506 C 2596.68 -1.66987 -3.19041 0
M  V30 27507 C 2596.53 -3.21157 -3.14926 0
M  V30 27508 C 2597.85 -1.39357 -4.17454 0
M  V30 27509 H 2594.97 -0.364404 -0.640608 0
M  V30 27510 H 2597.61 -1.47307 -1.20002 0
M  V30 27511 H 2595.76 -1.26697 -3.6726 0
M  V30 27512 H 2597.44 -3.70666 -2.74598 0
M  V30 27513 H 2595.68 -3.52656 -2.52619 0
M  V30 27514 H 2596.35 -3.6323 -4.15654 0
M  V30 27515 H 2598.83 -1.74289 -3.77839 0
M  V30 27516 H 2597.7 -1.88832 -5.15397 0
M  V30 27517 H 2597.96 -0.318891 -4.40948 0
M  V30 27518 N 2597.02 1.21924 -0.998617 0
M  V30 27519 C 2597.97 2.21878 -0.524782 0
M  V30 27520 C 2598.96 1.55585 0.410143 0
M  V30 27521 O 2600.15 1.75419 0.236032 0
M  V30 27522 C 2597.28 3.42956 0.153576 0
M  V30 27523 C 2596.36 4.16448 -0.801991 0
M  V30 27524 N 2596.75 4.66608 -1.95219 0
M  V30 27525 C 2595.05 4.41683 -0.619049 0
M  V30 27526 C 2595.75 5.2271 -2.55243 0
M  V30 27527 N 2594.73 5.11706 -1.8346 0
M  V30 27528 H 2598.53 2.58308 -1.40193 0
M  V30 27529 H 2596.04 1.37659 -0.861614 0
M  V30 27530 H 2598.04 4.13763 0.510461 0
M  V30 27531 H 2596.7 3.08038 1.02679 0
M  V30 27532 H 2597.71 4.62387 -2.33279 0
M  V30 27533 H 2594.39 4.16983 0.207621 0
M  V30 27534 H 2595.78 5.7202 -3.52481 0
M  V30 27535 N 2598.5 0.772537 1.37367 0
M  V30 27536 C 2599.72 0.347421 2.04469 0
M  V30 27537 C 2600.15 -1.02247 1.57883 0
M  V30 27538 O 2599.51 -1.65535 0.739439 0
M  V30 27539 C 2599.56 0.400542 3.58369 0
M  V30 27540 O 2598.66 -0.598718 4.08031 0
M  V30 27541 H 2598 0.150282 0.64677 0
M  V30 27542 H 2600.53 1.04895 1.75665 0
M  V30 27543 H 2600.54 0.258117 4.07183 0
M  V30 27544 H 2599.22 1.39993 3.91631 0
M  V30 27545 H 2597.79 -0.419346 3.70535 0
M  V30 27546 N 2599.98 -1.48664 0.523142 0
M  V30 27547 C 2601.23 -2.02096 -0.0134142 0
M  V30 27548 C 2601.55 -1.40313 -1.35415 0
M  V30 27549 O 2600.82 -0.566107 -1.87542 0
M  V30 27550 H 2599.4 -0.746958 -0.00794602 0
M  V30 27551 H 2602.06 -1.8245 0.68542 0
M  V30 27552 H 2601.15 -3.11842 -0.126795 0
M  V30 27553 N 2601.46 -0.257958 -1.55475 0
M  V30 27554 C 2602.68 0.370453 -2.04065 0
M  V30 27555 C 2603.11 1.49946 -1.13568 0
M  V30 27556 O 2602.46 1.80827 -0.130812 0
M  V30 27557 C 2602.51 0.845176 -3.50555 0
M  V30 27558 O 2601.62 1.95388 -3.63177 0
M  V30 27559 H 2600.96 0.0792128 -0.659258 0
M  V30 27560 H 2603.49 -0.387247 -2.00902 0
M  V30 27561 H 2603.5 1.14548 -3.9159 0
M  V30 27562 H 2602.17 0.0190528 -4.15896 0
M  V30 27563 H 2600.75 1.65742 -3.34042 0
M  V30 27564 N 2602.93 1.57593 0.0150108 0
M  V30 27565 C 2604.16 1.94176 0.71436 0
M  V30 27566 C 2604.58 0.858871 1.68133 0
M  V30 27567 O 2603.93 -0.163535 1.81766 0
M  V30 27568 C 2603.99 3.30738 1.45927 0
M  V30 27569 O 2603.71 4.34869 0.531091 0
M  V30 27570 C 2605.21 3.8169 2.2545 0
M  V30 27571 H 2602.43 0.640528 0.199912 0
M  V30 27572 H 2604.97 2.04476 -0.0316455 0
M  V30 27573 H 2603.13 3.21793 2.15703 0
M  V30 27574 H 2603.54 5.1378 1.055 0
M  V30 27575 H 2605.01 4.79714 2.73091 0
M  V30 27576 H 2605.49 3.13612 3.0748 0
M  V30 27577 H 2606.1 3.93763 1.6072 0
M  V30 27578 N 2604.41 -0.287527 1.54955 0
M  V30 27579 C 2605.66 -1.02254 1.75134 0
M  V30 27580 C 2605.99 -1.86457 0.542891 0
M  V30 27581 O 2605.27 -1.88986 -0.459823 0
M  V30 27582 C 2605.55 -1.91728 3.04815 0
M  V30 27583 C 2605.4 -1.10615 4.35987 0
M  V30 27584 C 2606.72 -2.90681 3.30443 0
M  V30 27585 H 2603.84 -0.37033 0.637201 0
M  V30 27586 H 2606.48 -0.296079 1.87679 0
M  V30 27587 H 2604.63 -2.5367 2.94251 0
M  V30 27588 H 2606.3 -0.508555 4.58488 0
M  V30 27589 H 2604.55 -0.409195 4.31866 0
M  V30 27590 H 2605.22 -1.76503 5.23021 0
M  V30 27591 H 2607.69 -2.38871 3.40705 0
M  V30 27592 H 2606.57 -3.50439 4.22473 0
M  V30 27593 H 2606.83 -3.65049 2.49383 0
M  V30 27594 N 2605.89 -1.47641 -0.551365 0
M  V30 27595 C 2606.8 -1.6321 -1.68522 0
M  V30 27596 C 2607.82 -0.514844 -1.66209 0
M  V30 27597 O 2608.99 -0.783146 -1.8555 0
M  V30 27598 C 2606.06 -1.64811 -3.05022 0
M  V30 27599 C 2605.12 -2.88005 -3.18357 0
M  V30 27600 C 2604.35 -2.89521 -4.48345 0
M  V30 27601 O 2604.57 -2.00074 -5.3416 0
M  V30 27602 O 2603.51 -3.81451 -4.65595 0
M  V30 27603 H 2607.33 -2.59163 -1.58329 0
M  V30 27604 H 2604.92 -1.30794 -0.72204 0
M  V30 27605 H 2606.8 -1.68509 -3.86242 0
M  V30 27606 H 2605.48 -0.720252 -3.15585 0
M  V30 27607 H 2604.38 -2.89849 -2.36513 0
M  V30 27608 H 2605.72 -3.80104 -3.127 0
M  V30 27609 N 2607.37 0.798563 -1.3587 0
M  V30 27610 C 2608.3 1.92526 -1.32121 0
M  V30 27611 C 2609.28 1.68987 -0.194239 0
M  V30 27612 O 2610.46 1.90234 -0.39046 0
M  V30 27613 C 2607.59 3.29402 -1.10053 0
M  V30 27614 C 2606.55 3.67442 -2.19477 0
M  V30 27615 C 2605.87 5.02568 -1.82564 0
M  V30 27616 C 2607.17 3.7698 -3.61501 0
M  V30 27617 H 2608.87 1.9592 -2.26397 0
M  V30 27618 H 2606.41 0.941211 -1.08983 0
M  V30 27619 H 2608.37 4.07833 -1.06068 0
M  V30 27620 H 2607.09 3.26371 -0.122252 0
M  V30 27621 H 2605.75 2.91302 -2.22573 0
M  V30 27622 H 2605.4 4.96049 -0.833336 0
M  V30 27623 H 2605.1 5.2899 -2.55819 0
M  V30 27624 H 2606.62 5.83429 -1.80118 0
M  V30 27625 H 2608.04 4.45624 -3.60683 0
M  V30 27626 H 2606.43 4.14879 -4.33584 0
M  V30 27627 H 2607.5 2.78322 -3.9707 0
M  V30 27628 N 2608.85 1.19999 1.02166 0
M  V30 27629 C 2609.79 0.944265 2.106 0
M  V30 27630 C 2610.76 -0.123635 1.65639 0
M  V30 27631 O 2611.95 0.0200276 1.90789 0
M  V30 27632 C 2609.09 0.496925 3.41504 0
M  V30 27633 C 2608.2 1.63241 3.99971 0
M  V30 27634 C 2607.34 1.13588 5.18913 0
M  V30 27635 C 2606.38 2.24478 5.69452 0
M  V30 27636 N 2605.51 1.7608 6.79662 0
M  V30 27637 H 2610.35 1.87264 2.31811 0
M  V30 27638 H 2607.89 0.933503 1.13684 0
M  V30 27639 H 2609.85 0.218916 4.16625 0
M  V30 27640 H 2608.48 -0.394452 3.20381 0
M  V30 27641 H 2607.53 2.02545 3.21993 0
M  V30 27642 H 2608.84 2.4676 4.33487 0
M  V30 27643 H 2608 0.813534 6.01221 0
M  V30 27644 H 2606.73 0.270519 4.86949 0
M  V30 27645 H 2605.74 2.57535 4.85753 0
M  V30 27646 H 2606.96 3.11482 6.03453 0
M  V30 27647 H 2604.91 0.91863 6.49536 0
M  V30 27648 H 2604.83 2.53183 7.12344 0
M  V30 27649 H 2606.1 1.4683 7.65546 0
M  V30 27650 N 2610.32 -1.21392 1.00507 0
M  V30 27651 C 2611.56 -1.92179 0.696183 0
M  V30 27652 C 2611.93 -1.76358 -0.759068 0
M  V30 27653 O 2613.13 -2.41518 -1.17994 0
M  V30 27654 C 2611.4 -3.39864 1.10577 0
M  V30 27655 S 2612.96 -4.29109 0.917096 0
M  V30 27656 H 2609.78 -0.664022 0.254158 0
M  V30 27657 H 2612.38 -1.46907 1.28991 0
M  V30 27658 H 2611.08 -3.48896 2.16102 0
M  V30 27659 H 2610.61 -3.90154 0.504336 0
M  V30 27660 H 2612.63 -4.95852 -0.185768 0
M  V30 27661 N 2611.8 -0.779811 -1.36955 0
M  V30 27662 C 2613.22 -0.460369 -1.52816 0
M  V30 27663 C 2613.42 1.0228 -1.73612 0
M  V30 27664 O 2612.47 1.80849 -1.7621 0
M  V30 27665 C 2613.79 -1.28246 -2.71981 0
M  V30 27666 C 2615.34 -1.27517 -2.85847 0
M  V30 27667 C 2615.81 -2.08079 -4.08004 0
M  V30 27668 N 2617.3 -2.05475 -4.15132 0
M  V30 27669 C 2618.04 -2.64586 -5.08706 0
M  V30 27670 N 2617.53 -3.32517 -6.07787 0
M  V30 27671 N 2619.33 -2.54372 -5.0125 0
M  V30 27672 H 2611.48 -1.74071 -1.2171 0
M  V30 27673 H 2613.74 -0.739407 -0.593281 0
M  V30 27674 H 2613.45 -2.33385 -2.63105 0
M  V30 27675 H 2613.32 -0.917153 -3.6588 0
M  V30 27676 H 2615.71 -0.231738 -2.94189 0
M  V30 27677 H 2615.79 -1.68018 -1.92883 0
M  V30 27678 H 2615.43 -3.12448 -4.00423 0
M  V30 27679 H 2615.36 -1.64956 -5.00097 0
M  V30 27680 H 2617.85 -1.56026 -3.44187 0
M  V30 27681 H 2618.17 -3.74974 -6.75732 0
M  V30 27682 H 2616.51 -3.36617 -6.08041 0
M  V30 27683 H 2619.7 -2.0091 -4.22792 0
M  V30 27684 H 2619.87 -3.00732 -5.7399 0
M  V30 27685 N 2613.28 1.48384 -0.531019 0
M  V30 27686 C 2614.24 2.28137 0.220457 0
M  V30 27687 C 2615.24 1.35435 0.866827 0
M  V30 27688 O 2616.43 1.58318 0.726718 0
M  V30 27689 C 2613.57 3.14342 1.31915 0
M  V30 27690 H 2614.76 2.96038 -0.479767 0
M  V30 27691 H 2612.31 1.53643 -0.286995 0
M  V30 27692 H 2613.05 2.51076 2.0526 0
M  V30 27693 H 2612.83 3.82535 0.860783 0
M  V30 27694 H 2614.32 3.745 1.84769 0
M  V30 27695 N 2614.76 0.2662 1.55336 0
M  V30 27696 C 2615.67 -0.635418 2.25831 0
M  V30 27697 C 2616.68 -1.17747 1.28108 0
M  V30 27698 O 2617.86 -1.20965 1.61026 0
M  V30 27699 C 2614.93 -1.80706 2.95882 0
M  V30 27700 C 2613.99 -1.30257 4.09062 0
M  V30 27701 C 2613.22 -2.41838 4.75763 0
M  V30 27702 O 2613.44 -3.60999 4.41628 0
M  V30 27703 O 2612.38 -2.105 5.63891 0
M  V30 27704 H 2616.2 -0.0646159 3.03631 0
M  V30 27705 H 2613.79 0.033944 1.49361 0
M  V30 27706 H 2615.67 -2.49041 3.39936 0
M  V30 27707 H 2614.34 -2.36512 2.21006 0
M  V30 27708 H 2613.25 -0.585954 3.69483 0
M  V30 27709 H 2614.58 -0.790373 4.85813 0
M  V30 27710 N 2616.24 -1.57599 -0.0066531 0
M  V30 27711 C 2617.48 -1.89901 -0.691518 0
M  V30 27712 C 2617.81 -0.866703 -1.7468 0
M  V30 27713 O 2617.08 0.0967845 -1.95661 0
M  V30 27714 H 2615.66 -0.700883 -0.258404 0
M  V30 27715 H 2618.32 -1.94873 0.0326997 0
M  V30 27716 H 2617.41 -2.89462 -1.16697 0
M  V30 27717 N 2617.72 0.279305 -1.55105 0
M  V30 27718 C 2619.13 0.626161 -1.46804 0
M  V30 27719 C 2619.33 1.89788 -0.676972 0
M  V30 27720 O 2618.39 2.51759 -0.193304 0
M  V30 27721 C 2619.7 0.758983 -2.90964 0
M  V30 27722 C 2621.25 0.853451 -3.0114 0
M  V30 27723 C 2621.72 1.0181 -4.46541 0
M  V30 27724 N 2623.21 1.08378 -4.50343 0
M  V30 27725 C 2623.95 1.22986 -5.60055 0
M  V30 27726 N 2623.45 1.34354 -6.79648 0
M  V30 27727 N 2625.24 1.26046 -5.47785 0
M  V30 27728 H 2617.39 -0.555957 -2.04995 0
M  V30 27729 H 2619.65 -0.187256 -0.929322 0
M  V30 27730 H 2619.36 -0.104913 -3.51543 0
M  V30 27731 H 2619.23 1.64125 -3.39622 0
M  V30 27732 H 2621.62 1.70782 -2.40661 0
M  V30 27733 H 2621.7 -0.0532916 -2.55744 0
M  V30 27734 H 2621.34 0.168415 -5.07621 0
M  V30 27735 H 2621.27 1.9394 -4.89587 0
M  V30 27736 H 2623.77 1.00858 -3.64192 0
M  V30 27737 H 2624.08 1.45317 -7.59014 0
M  V30 27738 H 2622.42 1.3137 -6.82471 0
M  V30 27739 H 2625.61 1.16792 -4.53296 0
M  V30 27740 H 2625.79 1.37087 -6.33333 0
M  V30 27741 N 2619.19 1.47931 0.543528 0
M  V30 27742 C 2620.6 1.48955 1.12558 0
M  V30 27743 C 2620.96 0.251788 1.94578 0
M  V30 27744 O 2620.08 -0.642219 2.06651 0
M  V30 27745 C 2620.68 2.69896 2.04797 0
M  V30 27746 C 2619.23 2.73835 2.58246 0
M  V30 27747 C 2618.38 2.42268 1.34914 0
M  V30 27748 H 2621.33 1.55243 0.329443 0
M  V30 27749 H 2621.35 2.47644 2.88882 0
M  V30 27750 H 2620.87 3.59965 1.45074 0
M  V30 27751 H 2618.97 1.8794 3.21729 0
M  V30 27752 H 2619.08 3.74901 2.98306 0
M  V30 27753 H 2617.44 1.93137 1.66043 0
M  V30 27754 H 2618.23 3.34562 0.769634 0
M  V30 27755 N 2620.67 -0.791347 1.36292 0
M  V30 27756 C 2621.9 -1.58529 1.33729 0
M  V30 27757 C 2622.32 -1.87932 -0.0794603 0
M  V30 27758 O 2621.68 -1.4774 -1.05084 0
M  V30 27759 C 2621.73 -2.88427 2.1643 0
M  V30 27760 O 2620.83 -3.81941 1.55547 0
M  V30 27761 H 2620.17 -0.480951 0.457802 0
M  V30 27762 H 2622.7 -0.980999 1.79548 0
M  V30 27763 H 2622.71 -3.37714 2.28939 0
M  V30 27764 H 2621.39 -2.66353 3.1942 0
M  V30 27765 H 2619.96 -3.4053 1.51967 0
M  V30 27766 N 2622.15 -1.2054 -1.01528 0
M  V30 27767 C 2623.56 -1.01659 -1.56596 0
M  V30 27768 C 2623.91 0.426634 -1.91505 0
M  V30 27769 O 2623.04 1.30824 -1.72377 0
M  V30 27770 C 2623.63 -1.8391 -2.84539 0
M  V30 27771 C 2622.19 -1.69392 -3.3613 0
M  V30 27772 C 2621.34 -1.81761 -2.09424 0
M  V30 27773 H 2624.29 -1.34712 -0.83895 0
M  V30 27774 H 2624.31 -1.34325 -3.56001 0
M  V30 27775 H 2623.82 -2.88944 -2.591 0
M  V30 27776 H 2621.92 -0.669997 -3.66527 0
M  V30 27777 H 2622.04 -2.50746 -4.08244 0
M  V30 27778 H 2620.4 -1.24961 -2.21939 0
M  V30 27779 H 2621.18 -2.88282 -1.86409 0
M  V30 27780 N 2623.63 1.20858 -1.01149 0
M  V30 27781 C 2624.86 1.94081 -0.716945 0
M  V30 27782 C 2625.27 1.74469 0.721537 0
M  V30 27783 O 2624.63 1.05541 1.48887 0
M  V30 27784 C 2624.68 3.46317 -1.03668 0
M  V30 27785 O 2624.4 3.65284 -2.41866 0
M  V30 27786 C 2625.9 4.36694 -0.762462 0
M  V30 27787 H 2623.12 0.61702 -0.263681 0
M  V30 27788 H 2625.66 1.53494 -1.35129 0
M  V30 27789 H 2623.82 3.84803 -0.447824 0
M  V30 27790 H 2624.23 4.59319 -2.53232 0
M  V30 27791 H 2625.71 5.42185 -1.0363 0
M  V30 27792 H 2626.18 4.38151 0.303437 0
M  V30 27793 H 2626.79 4.03863 -1.33323 0
M  V30 27794 N 2625.11 0.787064 1.3654 0
M  V30 27795 C 2626.35 0.358907 1.99599 0
M  V30 27796 C 2626.68 -1.06603 1.62325 0
M  V30 27797 O 2625.96 -1.73611 0.876889 0
M  V30 27798 C 2626.24 0.520006 3.56326 0
M  V30 27799 C 2626.1 1.98846 4.0346 0
M  V30 27800 C 2627.41 -0.0663964 4.4005 0
M  V30 27801 H 2624.53 0.131882 0.725104 0
M  V30 27802 H 2627.18 0.992964 1.61988 0
M  V30 27803 H 2625.33 -0.0197638 3.88495 0
M  V30 27804 H 2627 2.58911 3.81789 0
M  V30 27805 H 2625.24 2.4919 3.55087 0
M  V30 27806 H 2625.91 2.05216 5.12436 0
M  V30 27807 H 2628.39 0.394339 4.14227 0
M  V30 27808 H 2627.26 0.0763647 5.48847 0
M  V30 27809 H 2627.52 -1.15827 4.26657 0
M  V30 27810 N 2626.58 -1.48101 0.53888 0
M  V30 27811 C 2627.81 -2.06896 0.01235 0
M  V30 27812 C 2628.23 -1.39419 -1.2731 0
M  V30 27813 O 2627.58 -0.484613 -1.75948 0
M  V30 27814 C 2627.63 -3.60912 -0.206055 0
M  V30 27815 O 2627.36 -4.25857 1.02847 0
M  V30 27816 C 2628.86 -4.36527 -0.771956 0
M  V30 27817 H 2626.08 -0.669949 0.0375357 0
M  V30 27818 H 2628.62 -1.90366 0.747065 0
M  V30 27819 H 2626.78 -3.77018 -0.890844 0
M  V30 27820 H 2627.19 -5.18133 0.814745 0
M  V30 27821 H 2628.66 -5.45034 -0.874155 0
M  V30 27822 H 2629.14 -4.01559 -1.77897 0
M  V30 27823 H 2629.75 -4.25121 -0.123451 0
M  V30 27824 N 2628.06 -0.274434 -1.55192 0
M  V30 27825 C 2629.31 0.336044 -2.00605 0
M  V30 27826 C 2629.66 1.53536 -1.1595 0
M  V30 27827 O 2628.96 1.90316 -0.221419 0
M  V30 27828 C 2629.15 0.769397 -3.4902 0
M  V30 27829 C 2628.98 -0.386379 -4.48037 0
M  V30 27830 C 2627.75 -0.869942 -4.97755 0
M  V30 27831 C 2629.95 -1.22263 -4.99556 0
M  V30 27832 N 2627.93 -1.99525 -5.80571 0
M  V30 27833 C 2629.3 -2.19585 -5.79812 0
M  V30 27834 C 2631.35 -1.25605 -4.81796 0
M  V30 27835 C 2630.06 -3.19993 -6.44203 0
M  V30 27836 C 2632.08 -2.24857 -5.46986 0
M  V30 27837 C 2631.45 -3.20912 -6.27053 0
M  V30 27838 H 2627.54 0.0881583 -0.777015 0
M  V30 27839 H 2630.13 -0.3983 -1.90582 0
M  V30 27840 H 2628.3 1.47297 -3.59386 0
M  V30 27841 H 2630.03 1.35715 -3.81266 0
M  V30 27842 H 2626.79 -0.449363 -4.71463 0
M  V30 27843 H 2627.21 -2.56151 -6.2667 0
M  V30 27844 H 2631.85 -0.527231 -4.195 0
M  V30 27845 H 2629.57 -3.93809 -7.05649 0
M  V30 27846 H 2633.16 -2.28184 -5.35185 0
M  V30 27847 H 2632.04 -3.96456 -6.76603 0
M  V30 27848 N 2629.54 1.576 -0.00170483 0
M  V30 27849 C 2630.79 1.8982 0.681988 0
M  V30 27850 C 2631.1 0.876902 1.74842 0
M  V30 27851 O 2632.31 1.08939 2.48686 0
M  V30 27852 C 2630.76 3.36966 1.26419 0
M  V30 27853 C 2630.37 4.47396 0.232489 0
M  V30 27854 C 2632.12 3.78294 1.92598 0
M  V30 27855 C 2630.02 5.8562 0.824779 0
M  V30 27856 H 2628.95 0.708308 0.258487 0
M  V30 27857 H 2631.6 1.83393 -0.0625279 0
M  V30 27858 H 2629.99 3.38236 2.05943 0
M  V30 27859 H 2631.16 4.57645 -0.538281 0
M  V30 27860 H 2629.47 4.15099 -0.328953 0
M  V30 27861 H 2632.07 4.78901 2.37819 0
M  V30 27862 H 2632.41 3.11899 2.75726 0
M  V30 27863 H 2632.95 3.7933 1.19805 0
M  V30 27864 H 2629.69 6.55492 0.032239 0
M  V30 27865 H 2629.21 5.79032 1.56467 0
M  V30 27866 H 2630.89 6.33331 1.3229 0
M  V30 27867 N 2631.02 -0.271076 1.55251 0
M  V30 27868 C 2631.95 -1.33929 1.91272 0
M  V30 27869 C 2632.93 -1.51429 0.774806 0
M  V30 27870 O 2634.11 -1.6444 1.0331 0
M  V30 27871 C 2631.24 -2.69847 2.18632 0
M  V30 27872 C 2630.2 -2.67076 3.34447 0
M  V30 27873 C 2629.52 -4.06563 3.47291 0
M  V30 27874 C 2630.82 -2.26176 4.70788 0
M  V30 27875 H 2632.52 -1.0403 2.80746 0
M  V30 27876 H 2630.06 -0.498993 1.35078 0
M  V30 27877 H 2632.02 -3.4469 2.42419 0
M  V30 27878 H 2630.74 -3.01333 1.2596 0
M  V30 27879 H 2629.4 -1.9469 3.10631 0
M  V30 27880 H 2629.05 -4.35274 2.52082 0
M  V30 27881 H 2628.75 -4.05603 4.25159 0
M  V30 27882 H 2630.27 -4.83142 3.73372 0
M  V30 27883 H 2631.69 -2.90743 4.94107 0
M  V30 27884 H 2630.08 -2.36375 5.51586 0
M  V30 27885 H 2631.15 -1.2131 4.6948 0
M  V30 27886 N 2632.5 -1.48217 -0.535675 0
M  V30 27887 C 2633.46 -1.61841 -1.62297 0
M  V30 27888 C 2634.46 -0.492051 -1.53087 0
M  V30 27889 O 2635.65 -0.757695 -1.56859 0
M  V30 27890 C 2632.78 -1.58324 -3.01904 0
M  V30 27891 H 2633.97 -2.58785 -1.51559 0
M  V30 27892 H 2631.53 -1.36729 -0.757293 0
M  V30 27893 H 2632.26 -0.628355 -3.18154 0
M  V30 27894 H 2632.05 -2.4009 -3.09998 0
M  V30 27895 H 2633.54 -1.7104 -3.80966 0
M  V30 27896 N 2633.97 0.784108 -1.3671 0
M  V30 27897 C 2634.92 1.91835 -1.31537 0
M  V30 27898 C 2635.92 1.6814 -0.206235 0
M  V30 27899 O 2637.12 1.76081 -0.37355 0
M  V30 27900 H 2633.5 0.630644 -0.409624 0
M  V30 27901 H 2635.47 1.93316 -2.27313 0
M  V30 27902 C 2634.22 3.28934 -1.12685 0
M  V30 27903 H 2633.54 3.47737 -1.9728 0
M  V30 27904 H 2634.98 4.08634 -1.13113 0
M  V30 27905 C 2633.44 3.3648 0.168221 0
M  V30 27906 O 2633.97 3.84702 1.15619 0
M  V30 27907 N 2632.18 2.89806 0.214711 0
M  V30 27908 H 2631.72 2.50755 -0.589896 0
M  V30 27909 H 2631.68 2.95236 1.08088 0
M  V30 27910 N 2635.45 1.21076 1.00888 0
M  V30 27911 C 2636.38 0.924328 2.09735 0
M  V30 27912 C 2637.4 -0.0909523 1.62546 0
M  V30 27913 O 2638.59 0.141052 1.77942 0
M  V30 27914 C 2635.69 0.365649 3.36922 0
M  V30 27915 C 2634.86 1.43433 4.13214 0
M  V30 27916 C 2633.92 0.885587 5.18694 0
M  V30 27917 O 2632.94 1.56811 5.47174 0
M  V30 27918 N 2634.15 -0.301125 5.79718 0
M  V30 27919 H 2636.91 1.86134 2.34892 0
M  V30 27920 H 2634.47 1.11549 1.17339 0
M  V30 27921 H 2636.46 -0.0157696 4.04697 0
M  V30 27922 H 2635.03 -0.476095 3.08953 0
M  V30 27923 H 2634.25 1.98976 3.40297 0
M  V30 27924 H 2635.54 2.15384 4.60963 0
M  V30 27925 H 2634.94 -0.87275 5.58927 0
M  V30 27926 H 2633.5 -0.624097 6.48805 0
M  V30 27927 N 2636.93 -1.2032 1.01789 0
M  V30 27928 C 2638.16 -1.93698 0.727228 0
M  V30 27929 C 2638.57 -1.74849 -0.712275 0
M  V30 27930 O 2637.93 -1.06329 -1.48325 0
M  V30 27931 C 2637.98 -3.45762 1.05504 0
M  V30 27932 O 2637.7 -3.63996 2.438 0
M  V30 27933 C 2639.2 -4.36283 0.785611 0
M  V30 27934 H 2636.42 -0.615613 0.26695 0
M  V30 27935 H 2638.97 -1.52775 1.35941 0
M  V30 27936 H 2637.12 -3.8456 0.468225 0
M  V30 27937 H 2637.54 -4.57969 2.55664 0
M  V30 27938 H 2639.01 -5.41628 1.06504 0
M  V30 27939 H 2639.49 -4.38305 -0.280196 0
M  V30 27940 H 2640.09 -4.0315 1.35463 0
M  V30 27941 N 2638.41 -0.794293 -1.3612 0
M  V30 27942 C 2639.65 -0.369487 -1.99406 0
M  V30 27943 C 2639.99 1.0574 -1.62888 0
M  V30 27944 O 2639.26 1.73144 -0.886084 0
M  V30 27945 C 2639.55 -0.538896 -3.56045 0
M  V30 27946 C 2639.4 -2.00983 -4.024 0
M  V30 27947 C 2640.72 0.0430585 -4.40079 0
M  V30 27948 H 2637.84 -0.135725 -0.724395 0
M  V30 27949 H 2640.48 -1.00154 -1.61459 0
M  V30 27950 H 2638.63 -0.000839293 -3.885 0
M  V30 27951 H 2640.3 -2.60932 -3.8041 0
M  V30 27952 H 2638.54 -2.51069 -3.53761 0
M  V30 27953 H 2639.21 -2.07931 -5.1134 0
M  V30 27954 H 2641.69 -0.416301 -4.14012 0
M  V30 27955 H 2640.57 -0.10547 -5.48799 0
M  V30 27956 H 2640.83 1.13563 -4.27266 0
M  V30 27957 N 2639.89 1.47813 -0.546727 0
M  V30 27958 C 2641.13 2.02791 -0.0188041 0
M  V30 27959 C 2641.47 1.4213 1.32336 0
M  V30 27960 O 2640.74 0.573056 1.85866 0
M  V30 27961 C 2641.02 3.59999 0.0854352 0
M  V30 27962 C 2640.88 4.31112 -1.28308 0
M  V30 27963 C 2642.2 4.32693 0.804044 0
M  V30 27964 H 2639.31 0.736953 -0.00830755 0
M  V30 27965 H 2641.96 1.76356 -0.706993 0
M  V30 27966 H 2640.11 3.82652 0.671542 0
M  V30 27967 H 2641.78 4.19829 -1.91158 0
M  V30 27968 H 2640.02 3.91875 -1.86056 0
M  V30 27969 H 2640.69 5.3961 -1.16296 0
M  V30 27970 H 2643.17 4.1497 0.306503 0
M  V30 27971 H 2642.04 5.42343 0.845915 0
M  V30 27972 H 2642.31 4.01164 1.85795 0
M  V30 27973 N 2641.36 0.28266 1.55044 0
M  V30 27974 C 2642.59 -0.337941 2.04628 0
M  V30 27975 C 2643.01 -1.48121 1.15939 0
M  V30 27976 O 2642.37 -1.80596 0.159564 0
M  V30 27977 C 2642.42 -0.789298 3.51856 0
M  V30 27978 O 2641.52 -1.89585 3.66239 0
M  V30 27979 H 2640.87 -0.0687145 0.660435 0
M  V30 27980 H 2643.4 0.41916 2.0026 0
M  V30 27981 H 2643.41 -1.08304 3.93363 0
M  V30 27982 H 2642.08 0.047115 4.15873 0
M  V30 27983 H 2640.66 -1.60407 3.36636 0
M  V30 27984 N 2642.84 -1.57597 0.0100627 0
M  V30 27985 C 2643.75 -2.12492 -0.994189 0
M  V30 27986 C 2644.77 -1.07256 -1.37011 0
M  V30 27987 O 2645.94 -1.39212 -1.4554 0
M  V30 27988 C 2643.01 -2.62559 -2.26415 0
M  V30 27989 C 2642.07 -3.82436 -1.95042 0
M  V30 27990 C 2641.3 -4.30105 -3.15983 0
M  V30 27991 O 2641.53 -3.77048 -4.28009 0
M  V30 27992 O 2640.46 -5.22156 -2.99393 0
M  V30 27993 H 2644.29 -2.98539 -0.557496 0
M  V30 27994 H 2641.87 -1.47925 -0.209387 0
M  V30 27995 H 2643.75 -2.94915 -3.01004 0
M  V30 27996 H 2642.43 -1.79605 -2.69303 0
M  V30 27997 H 2641.34 -3.55037 -1.17898 0
M  V30 27998 H 2642.67 -4.66494 -1.56984 0
M  V30 27999 N 2644.32 0.262839 -1.55393 0
M  V30 28000 C 2645.55 1.0153 -1.80849 0
M  V30 28001 C 2645.97 1.78773 -0.584978 0
M  V30 28002 O 2645.33 1.75218 0.465671 0
M  V30 28003 C 2645.38 1.94154 -3.0387 0
M  V30 28004 O 2644.48 3.03084 -2.79668 0
M  V30 28005 H 2643.82 0.289749 -0.597446 0
M  V30 28006 H 2646.35 0.288663 -2.02553 0
M  V30 28007 H 2646.36 2.35918 -3.32876 0
M  V30 28008 H 2645.04 1.37347 -3.92567 0
M  V30 28009 H 2643.61 2.65561 -2.61785 0
M  V30 28010 N 2645.8 1.48499 0.527807 0
M  V30 28011 C 2647.02 1.60549 1.31297 0
M  V30 28012 C 2647.45 0.266753 1.86199 0
M  V30 28013 O 2646.81 -0.761889 1.64514 0
M  V30 28014 C 2646.85 2.65682 2.43814 0
M  V30 28015 O 2645.96 2.22993 3.46912 0
M  V30 28016 H 2645.3 0.538284 0.388775 0
M  V30 28017 H 2647.83 1.94501 0.634862 0
M  V30 28018 H 2647.84 2.87023 2.89968 0
M  V30 28019 H 2646.51 3.62872 2.03215 0
M  V30 28020 H 2645.09 2.11875 3.06861 0
M  V30 28021 N 2647.28 -0.776847 1.37123 0
M  V30 28022 C 2648.21 -1.89895 1.28345 0
M  V30 28023 C 2649.22 -1.61563 0.200305 0
M  V30 28024 O 2650.41 -1.72576 0.456042 0
M  V30 28025 C 2647.51 -3.25004 0.960484 0
M  V30 28026 C 2646.68 -3.81021 2.14806 0
M  V30 28027 C 2645.74 -4.94595 1.79617 0
M  V30 28028 O 2644.77 -5.10449 2.51854 0
M  V30 28029 N 2645.97 -5.75799 0.737272 0
M  V30 28030 H 2648.74 -1.97943 2.2503 0
M  V30 28031 H 2646.3 -0.955716 1.30682 0
M  V30 28032 H 2648.29 -3.98494 0.706012 0
M  V30 28033 H 2646.86 -3.12491 0.0823616 0
M  V30 28034 H 2646.08 -2.9937 2.56459 0
M  V30 28035 H 2647.37 -4.15178 2.94117 0
M  V30 28036 H 2646.77 -5.65532 0.137736 0
M  V30 28037 H 2645.32 -6.49537 0.542649 0
M  V30 28038 N 2648.76 -1.2161 -1.00244 0
M  V30 28039 C 2650 -1.03283 -1.73715 0
M  V30 28040 C 2650.32 0.434284 -1.90103 0
M  V30 28041 O 2649.59 1.31309 -1.45378 0
M  V30 28042 H 2648.17 -0.379183 -0.643606 0
M  V30 28043 H 2650.84 -1.52962 -1.20784 0
M  V30 28044 H 2649.93 -1.50287 -2.73533 0
M  V30 28045 N 2650.23 1.19778 -1.02425 0
M  V30 28046 C 2651.46 1.93851 -0.737334 0
M  V30 28047 C 2651.88 1.74714 0.696893 0
M  V30 28048 O 2651.24 1.04641 1.48054 0
M  V30 28049 C 2651.29 3.43798 -1.08789 0
M  V30 28050 O 2650.39 4.11896 -0.203902 0
M  V30 28051 H 2649.73 0.60535 -0.272851 0
M  V30 28052 H 2652.26 1.51989 -1.36969 0
M  V30 28053 H 2652.27 3.94448 -1.04283 0
M  V30 28054 H 2650.95 3.57049 -2.13281 0
M  V30 28055 H 2649.53 3.71633 -0.307156 0
M  V30 28056 N 2651.71 0.801501 1.35697 0
M  V30 28057 C 2653.13 0.484623 1.52064 0
M  V30 28058 C 2653.33 -0.995053 1.75217 0
M  V30 28059 O 2652.38 -1.78023 1.79065 0
M  V30 28060 C 2653.7 1.32557 2.69906 0
M  V30 28061 C 2655.24 1.32049 2.83782 0
M  V30 28062 C 2655.72 2.14544 4.04642 0
M  V30 28063 N 2657.21 2.12053 4.1181 0
M  V30 28064 C 2657.95 2.72645 5.04433 0
M  V30 28065 N 2657.44 3.42144 6.0242 0
M  V30 28066 N 2659.23 2.62314 4.9714 0
M  V30 28067 H 2651.39 1.75985 1.18925 0
M  V30 28068 H 2653.65 0.748752 0.581442 0
M  V30 28069 H 2653.35 2.37541 2.59359 0
M  V30 28070 H 2653.23 0.975245 3.64375 0
M  V30 28071 H 2655.62 0.278511 2.93783 0
M  V30 28072 H 2655.7 1.71065 1.90185 0
M  V30 28073 H 2655.34 3.18779 3.95402 0
M  V30 28074 H 2655.27 1.72891 4.9741 0
M  V30 28075 H 2657.76 1.61482 3.41661 0
M  V30 28076 H 2658.07 3.85677 6.69681 0
M  V30 28077 H 2656.42 3.46248 6.02609 0
M  V30 28078 H 2659.61 2.0761 4.19542 0
M  V30 28079 H 2659.78 3.09825 5.69133 0
M  V30 28080 N 2653.19 -1.47521 0.554558 0
M  V30 28081 C 2654.12 -2.28022 -0.232066 0
M  V30 28082 C 2655.13 -1.36848 -0.881841 0
M  V30 28083 O 2656.32 -1.61693 -0.75614 0
M  V30 28084 C 2653.42 -3.11025 -1.34599 0
M  V30 28085 C 2652.6 -4.30142 -0.793506 0
M  V30 28086 C 2651.66 -4.94761 -1.79159 0
M  V30 28087 O 2650.68 -5.53232 -1.33876 0
M  V30 28088 N 2651.88 -4.89216 -3.12486 0
M  V30 28089 H 2654.65 -2.96173 0.458459 0
M  V30 28090 H 2652.21 -1.57121 0.390461 0
M  V30 28091 H 2654.2 -3.51121 -2.01236 0
M  V30 28092 H 2652.77 -2.45134 -1.93979 0
M  V30 28093 H 2651.99 -3.94169 0.0495718 0
M  V30 28094 H 2653.28 -5.07196 -0.403686 0
M  V30 28095 H 2652.68 -4.42907 -3.51923 0
M  V30 28096 H 2651.23 -5.3334 -3.74689 0
M  V30 28097 N 2654.67 -0.290879 -1.54892 0
M  V30 28098 C 2655.63 0.576745 -2.21825 0
M  V30 28099 C 2656.63 1.06917 -1.20106 0
M  V30 28100 O 2657.82 0.966817 -1.44908 0
M  V30 28101 C 2654.95 1.79742 -2.89665 0
M  V30 28102 H 2656.15 -0.00789323 -2.99899 0
M  V30 28103 H 2653.7 -0.0416208 -1.56245 0
M  V30 28104 H 2654.43 2.42215 -2.15644 0
M  V30 28105 H 2654.22 1.45208 -3.64221 0
M  V30 28106 H 2655.71 2.41404 -3.40755 0
M  V30 28107 N 2656.15 1.57589 -0.0184203 0
M  V30 28108 C 2657.39 1.91639 0.663509 0
M  V30 28109 C 2657.72 0.894164 1.7239 0
M  V30 28110 O 2657 -0.0846107 1.94316 0
M  V30 28111 C 2657.28 3.36209 1.28979 0
M  V30 28112 C 2657.14 4.49161 0.239683 0
M  V30 28113 C 2658.45 3.80539 2.21083 0
M  V30 28114 H 2655.57 0.696919 0.239734 0
M  V30 28115 H 2658.22 1.89858 -0.0734894 0
M  V30 28116 H 2656.37 3.37857 1.91793 0
M  V30 28117 H 2658.04 4.59647 -0.3902 0
M  V30 28118 H 2656.28 4.31603 -0.436048 0
M  V30 28119 H 2656.95 5.4732 0.717287 0
M  V30 28120 H 2659.43 3.8056 1.68267 0
M  V30 28121 H 2658.3 4.82411 2.61861 0
M  V30 28122 H 2658.56 3.15439 3.09759 0
M  V30 28123 N 2657.62 -0.254594 1.5553 0
M  V30 28124 C 2658.87 -0.985162 1.77264 0
M  V30 28125 C 2659.2 -1.85264 0.582319 0
M  V30 28126 O 2658.48 -1.89919 -0.419632 0
M  V30 28127 C 2658.76 -1.85219 3.08814 0
M  V30 28128 C 2658.61 -1.01342 4.38235 0
M  V30 28129 C 2659.93 -2.83606 3.36535 0
M  V30 28130 H 2657.05 -0.356731 0.644913 0
M  V30 28131 H 2659.69 -0.256202 1.88265 0
M  V30 28132 H 2657.84 -2.47371 2.99566 0
M  V30 28133 H 2659.52 -0.411189 4.59464 0
M  V30 28134 H 2657.76 -0.317498 4.32637 0
M  V30 28135 H 2658.43 -1.6537 5.26647 0
M  V30 28136 H 2660.91 -2.3159 3.45695 0
M  V30 28137 H 2659.78 -3.41399 4.29811 0
M  V30 28138 H 2660.04 -3.59677 2.5707 0
M  V30 28139 N 2659.1 -1.48777 -0.519925 0
M  V30 28140 C 2660.33 -1.60984 -1.29968 0
M  V30 28141 C 2660.74 -0.273917 -1.86802 0
M  V30 28142 O 2660.1 0.738164 -1.66905 0
M  V30 28143 C 2660.15 -2.6642 -2.44342 0
M  V30 28144 O 2659.87 -3.94828 -1.89848 0
M  V30 28145 C 2661.37 -2.89159 -3.36009 0
M  V30 28146 H 2658.59 -0.542503 -0.394882 0
M  V30 28147 H 2661.14 -1.94677 -0.62618 0
M  V30 28148 H 2659.29 -2.35557 -3.07557 0
M  V30 28149 H 2659.71 -4.52755 -2.6479 0
M  V30 28150 H 2661.18 -3.6671 -4.12586 0
M  V30 28151 H 2661.66 -1.98358 -3.91855 0
M  V30 28152 H 2662.26 -3.21364 -2.78577 0
M  V30 28153 N 2660.58 0.769564 -1.37534 0
M  V30 28154 C 2661.83 1.53046 -1.33059 0
M  V30 28155 C 2662.16 1.94018 0.0841524 0
M  V30 28156 O 2661.43 1.64236 1.04195 0
M  V30 28157 C 2661.72 2.79402 -2.27171 0
M  V30 28158 C 2661.57 2.44671 -3.77434 0
M  V30 28159 C 2662.89 3.81346 -2.1969 0
M  V30 28160 H 2660.01 0.55522 -0.484665 0
M  V30 28161 H 2662.65 0.882673 -1.68252 0
M  V30 28162 H 2660.8 3.34678 -1.97288 0
M  V30 28163 H 2662.47 1.95293 -4.17922 0
M  V30 28164 H 2660.71 1.77339 -3.95896 0
M  V30 28165 H 2661.39 3.35004 -4.38721 0
M  V30 28166 H 2663.86 3.35569 -2.46034 0
M  V30 28167 H 2662.74 4.67476 -2.87676 0
M  V30 28168 H 2663 4.25769 -1.19052 0
M  V30 28169 N 2662.06 1.22139 0.995977 0
M  V30 28170 C 2663.34 0.952672 1.70832 0
M  V30 28171 C 2663.72 -0.533083 2.04258 0
M  V30 28172 O 2663.06 -1.50031 1.72345 0
M  V30 28173 C 2663.27 1.84706 2.96116 0
M  V30 28174 C 2664.62 2.10131 3.68958 0
M  V30 28175 O 2665.65 1.82129 3.06117 0
M  V30 28176 O 2664.5 2.57539 4.82012 0
M  V30 28177 H 2661.6 0.35801 0.745492 0
M  V30 28178 H 2664.14 1.33111 1.0526 0
M  V30 28179 H 2662.92 2.85218 2.67893 0
M  V30 28180 H 2662.54 1.47002 3.69427 0
M  V30 28181 N 2663.54 -1.19233 1.03059 0
M  V30 28182 C 2664.78 -1.88586 0.726614 0
M  V30 28183 C 2665.11 -1.80117 -0.747196 0
M  V30 28184 O 2664.38 -1.21277 -1.53847 0
M  V30 28185 H 2662.96 -0.698119 0.26578 0
M  V30 28186 H 2665.62 -1.44744 1.30519 0
M  V30 28187 H 2664.71 -2.94877 1.02245 0
M  V30 28188 N 2665.01 -0.808686 -1.3527 0
M  V30 28189 C 2666.24 -0.402572 -2.02946 0
M  V30 28190 C 2666.66 0.987119 -1.60939 0
M  V30 28191 O 2666.01 1.63641 -0.807946 0
M  V30 28192 C 2666.07 -0.478743 -3.58316 0
M  V30 28193 O 2665.79 -1.81365 -3.98796 0
M  V30 28194 C 2667.29 -0.065706 -4.43251 0
M  V30 28195 H 2664.51 -0.163291 -0.650828 0
M  V30 28196 H 2667.05 -1.09289 -1.72847 0
M  V30 28197 H 2665.21 0.163347 -3.87055 0
M  V30 28198 H 2665.62 -1.7779 -4.93448 0
M  V30 28199 H 2667.09 -0.170114 -5.51738 0
M  V30 28200 H 2667.57 0.989203 -4.27915 0
M  V30 28201 H 2668.18 -0.681034 -4.19812 0
M  V30 28202 N 2666.49 1.47225 -0.562374 0
M  V30 28203 C 2667.42 2.32876 0.170586 0
M  V30 28204 C 2668.4 1.44107 0.903722 0
M  V30 28205 O 2669.59 1.72956 0.883176 0
M  V30 28206 C 2666.72 3.25991 1.1978 0
M  V30 28207 C 2665.67 4.24041 0.580801 0
M  V30 28208 C 2665 5.06517 1.71302 0
M  V30 28209 C 2666.3 5.20192 -0.468806 0
M  V30 28210 H 2667.99 2.94407 -0.544492 0
M  V30 28211 H 2665.54 1.41572 -0.263296 0
M  V30 28212 H 2667.49 3.84755 1.71877 0
M  V30 28213 H 2666.22 2.62525 1.94289 0
M  V30 28214 H 2664.87 3.6651 0.0810894 0
M  V30 28215 H 2664.52 4.39451 2.44728 0
M  V30 28216 H 2664.22 5.72904 1.30594 0
M  V30 28217 H 2665.75 5.68141 2.23715 0
M  V30 28218 H 2667.16 5.7329 -0.0337035 0
M  V30 28219 H 2665.56 5.9481 -0.795062 0
M  V30 28220 H 2666.63 4.65356 -1.36277 0
M  V30 28221 N 2667.97 0.299089 1.54736 0
M  V30 28222 C 2669.22 -0.311209 2.00398 0
M  V30 28223 C 2669.55 -1.53686 1.18719 0
M  V30 28224 O 2668.82 -1.92711 0.263188 0
M  V30 28225 C 2669.11 -0.669698 3.53818 0
M  V30 28226 C 2668.96 0.564961 4.46238 0
M  V30 28227 C 2670.28 -1.49695 4.13859 0
M  V30 28228 H 2667.4 -0.11164 0.728495 0
M  V30 28229 H 2670.04 0.410807 1.85506 0
M  V30 28230 H 2668.19 -1.28484 3.66639 0
M  V30 28231 H 2669.86 1.20345 4.45326 0
M  V30 28232 H 2668.11 1.19856 4.16914 0
M  V30 28233 H 2668.78 0.270015 5.51339 0
M  V30 28234 H 2671.25 -0.977213 4.04462 0
M  V30 28235 H 2670.13 -1.71657 5.21368 0
M  V30 28236 H 2670.39 -2.48556 3.65612 0
M  V30 28237 N 2669.45 -1.57577 0.0267774 0
M  V30 28238 C 2670.38 -2.1311 -0.95427 0
M  V30 28239 C 2671.36 -1.04665 -1.34086 0
M  V30 28240 O 2672.54 -1.32486 -1.4199 0
M  V30 28241 C 2669.67 -2.65628 -2.23739 0
M  V30 28242 C 2668.63 -3.78839 -1.99162 0
M  V30 28243 C 2667.95 -4.17775 -3.33719 0
M  V30 28244 C 2669.25 -5.05012 -1.33268 0
M  V30 28245 H 2670.95 -2.95333 -0.491796 0
M  V30 28246 H 2668.49 -1.42068 -0.235115 0
M  V30 28247 H 2670.45 -3.03111 -2.92748 0
M  V30 28248 H 2669.17 -1.80563 -2.72148 0
M  V30 28249 H 2667.83 -3.4179 -1.32571 0
M  V30 28250 H 2667.48 -3.29695 -3.79882 0
M  V30 28251 H 2667.18 -4.94063 -3.18081 0
M  V30 28252 H 2668.7 -4.57839 -4.03999 0
M  V30 28253 H 2670.12 -5.40096 -1.92273 0
M  V30 28254 H 2668.51 -5.86282 -1.28035 0
M  V30 28255 H 2669.58 -4.83938 -0.305326 0
M  V30 28256 N 2670.93 0.246342 -1.55663 0
M  V30 28257 C 2671.88 1.30792 -1.86755 0
M  V30 28258 C 2672.86 1.43465 -0.728471 0
M  V30 28259 O 2674.05 1.46697 -0.990406 0
M  V30 28260 C 2671.18 2.66326 -2.16623 0
M  V30 28261 C 2670.27 2.57655 -3.3686 0
M  V30 28262 N 2670.66 2.18616 -4.56115 0
M  V30 28263 C 2668.96 2.88667 -3.39981 0
M  V30 28264 C 2669.66 2.20592 -5.38251 0
M  V30 28265 N 2668.63 2.60116 -4.77327 0
M  V30 28266 H 2672.44 0.996593 -2.76487 0
M  V30 28267 H 2669.95 0.454966 -1.55897 0
M  V30 28268 H 2671.95 3.42938 -2.37063 0
M  V30 28269 H 2670.61 2.98324 -1.2819 0
M  V30 28270 H 2671.62 1.90151 -4.81729 0
M  V30 28271 H 2668.29 3.25202 -2.61821 0
M  V30 28272 H 2669.68 1.92744 -6.43661 0
M  V30 28273 N 2672.4 1.4905 0.512027 0
M  V30 28274 C 2673.35 1.65376 1.63566 0
M  V30 28275 C 2674.35 0.519834 1.61227 0
M  V30 28276 O 2675.55 0.69913 1.65868 0
M  V30 28277 H 2671.93 0.521276 0.54201 0
M  V30 28278 H 2673.9 2.59711 1.46945 0
M  V30 28279 C 2672.65 1.72735 3.01758 0
M  V30 28280 H 2671.97 2.59358 3.04259 0
M  V30 28281 H 2673.41 1.88196 3.79945 0
M  V30 28282 C 2671.87 0.469789 3.33608 0
M  V30 28283 O 2672.4 -0.409421 3.99608 0
M  V30 28284 N 2670.61 0.336053 2.8865 0
M  V30 28285 H 2670.15 1.05251 2.35117 0
M  V30 28286 H 2670.11 -0.504309 3.10329 0
M  V30 28287 N 2673.88 -0.762259 1.3794 0
M  V30 28288 C 2674.81 -1.88955 1.3718 0
M  V30 28289 C 2675.79 -1.68413 0.238974 0
M  V30 28290 O 2676.98 -1.89132 0.44076 0
M  V30 28291 C 2674.11 -3.26368 1.18748 0
M  V30 28292 C 2673.06 -3.61494 2.29142 0
M  V30 28293 C 2672.39 -4.97551 1.95824 0
M  V30 28294 C 2673.69 -3.67263 3.71369 0
M  V30 28295 H 2675.38 -1.89848 2.31512 0
M  V30 28296 H 2672.93 -0.911985 1.1144 0
M  V30 28297 H 2674.88 -4.04877 1.16844 0
M  V30 28298 H 2673.61 -3.25932 0.208741 0
M  V30 28299 H 2672.26 -2.85298 2.30218 0
M  V30 28300 H 2671.91 -4.93665 0.964561 0
M  V30 28301 H 2671.61 -5.22022 2.69754 0
M  V30 28302 H 2673.14 -5.78449 1.95524 0
M  V30 28303 H 2674.55 -4.35904 3.72372 0
M  V30 28304 H 2672.95 -4.03238 4.44432 0
M  V30 28305 H 2674.02 -2.67697 4.0431 0
M  V30 28306 N 2675.36 -1.22666 -0.989486 0
M  V30 28307 C 2676.59 -1.08054 -1.77029 0
M  V30 28308 C 2677.01 0.364451 -1.84536 0
M  V30 28309 O 2676.37 1.26338 -1.30033 0
M  V30 28310 C 2676.42 -1.7003 -3.17997 0
M  V30 28311 O 2675.52 -0.956286 -4.01159 0
M  V30 28312 H 2674.86 -0.379302 -0.545001 0
M  V30 28313 H 2677.39 -1.62534 -1.24274 0
M  V30 28314 H 2677.4 -1.74895 -3.68613 0
M  V30 28315 H 2676.08 -2.75179 -3.11848 0
M  V30 28316 H 2674.65 -0.983903 -3.59686 0
M  V30 28317 N 2676.84 1.18685 -1.0369 0
M  V30 28318 C 2678.09 1.87899 -0.733268 0
M  V30 28319 C 2678.4 1.80992 0.741713 0
M  V30 28320 O 2679.61 2.45532 1.15871 0
M  V30 28321 C 2678.06 3.37073 -1.26133 0
M  V30 28322 C 2677.67 3.5252 -2.76467 0
M  V30 28323 C 2679.42 4.11713 -1.03406 0
M  V30 28324 C 2677.32 4.95632 -3.2265 0
M  V30 28325 H 2676.25 0.703771 -0.270597 0
M  V30 28326 H 2678.9 1.34131 -1.25224 0
M  V30 28327 H 2677.29 3.90287 -0.670233 0
M  V30 28328 H 2678.46 3.09596 -3.41302 0
M  V30 28329 H 2676.77 2.9128 -2.97565 0
M  V30 28330 H 2679.37 5.17265 -1.35429 0
M  V30 28331 H 2679.71 4.1629 0.0288514 0
M  V30 28332 H 2680.25 3.64661 -1.58957 0
M  V30 28333 H 2676.99 4.96221 -4.28305 0
M  V30 28334 H 2676.51 5.39285 -2.62549 0
M  V30 28335 H 2678.19 5.64328 -3.16454 0
M  V30 28336 N 2678.32 0.815849 1.34839 0
M  V30 28337 C 2679.55 0.41273 2.02435 0
M  V30 28338 C 2679.96 -0.983878 1.61606 0
M  V30 28339 O 2679.3 -1.64693 0.813758 0
M  V30 28340 C 2679.36 0.427245 3.56952 0
M  V30 28341 C 2679.02 1.77596 4.2108 0
M  V30 28342 C 2680.02 2.73571 4.42103 0
M  V30 28343 C 2677.71 2.06251 4.58002 0
M  V30 28344 C 2679.7 3.96379 4.99162 0
M  V30 28345 C 2677.39 3.29319 5.14774 0
M  V30 28346 C 2678.39 4.24201 5.35297 0
M  V30 28347 O 2678.07 5.45096 5.90869 0
M  V30 28348 H 2677.81 0.164706 0.655628 0
M  V30 28349 H 2680.36 1.10343 1.73244 0
M  V30 28350 H 2678.59 -0.320108 3.85373 0
M  V30 28351 H 2680.28 0.0451588 4.05875 0
M  V30 28352 H 2681.04 2.52728 4.13949 0
M  V30 28353 H 2676.92 1.33204 4.41336 0
M  V30 28354 H 2680.47 4.70448 5.15096 0
M  V30 28355 H 2676.36 3.5003 5.42356 0
M  V30 28356 H 2677.13 5.46519 6.0931 0
M  V30 28357 N 2679.8 -1.46924 0.570174 0
M  V30 28358 C 2681.07 -1.95594 -0.0152915 0
M  V30 28359 C 2681.45 -1.51284 -1.47229 0
M  V30 28360 O 2680.8 -0.757662 -2.15573 0
M  V30 28361 C 2681.01 -3.48704 0.143685 0
M  V30 28362 C 2682.36 -4.246 0.00501947 0
M  V30 28363 O 2683.38 -3.56127 0.071884 0
M  V30 28364 O 2682.24 -5.46318 -0.141079 0
M  V30 28365 H 2679.34 -0.825042 -0.0568674 0
M  V30 28366 H 2681.88 -1.57266 0.63761 0
M  V30 28367 H 2680.65 -3.73802 1.15705 0
M  V30 28368 H 2680.28 -3.9383 -0.546231 0
M  V30 28369 N 2681.27 -0.307291 -1.54575 0
M  V30 28370 C 2682.69 0.045897 -1.59534 0
M  V30 28371 C 2682.89 1.51882 -1.32416 0
M  V30 28372 O 2681.95 2.27249 -1.10064 0
M  V30 28373 C 2683.26 -0.357701 -2.98565 0
M  V30 28374 C 2684.81 -0.306992 -3.11491 0
M  V30 28375 C 2685.28 -0.685507 -4.52841 0
M  V30 28376 N 2686.77 -0.638283 -4.58781 0
M  V30 28377 C 2687.51 -0.903558 -5.66236 0
M  V30 28378 N 2687 -1.23513 -6.81701 0
M  V30 28379 N 2688.8 -0.8302 -5.55935 0
M  V30 28380 H 2680.95 -1.26715 -1.70462 0
M  V30 28381 H 2683.21 -0.514153 -0.796461 0
M  V30 28382 H 2682.92 -1.3833 -3.23354 0
M  V30 28383 H 2682.79 0.285499 -3.76118 0
M  V30 28384 H 2685.18 0.709373 -2.86447 0
M  V30 28385 H 2685.26 -0.984902 -2.36079 0
M  V30 28386 H 2684.9 -1.69971 -4.78615 0
M  V30 28387 H 2684.83 0.0145421 -5.26598 0
M  V30 28388 H 2687.32 -0.393204 -3.75849 0
M  V30 28389 H 2687.64 -1.42335 -7.59579 0
M  V30 28390 H 2685.98 -1.27323 -6.83238 0
M  V30 28391 H 2689.17 -0.570774 -4.64607 0
M  V30 28392 H 2689.35 -1.0403 -6.39595 0
M  V30 28393 N 2682.75 1.57561 -0.0351337 0
M  V30 28394 C 2684 1.91668 0.640926 0
M  V30 28395 C 2684.32 0.912712 1.72321 0
M  V30 28396 O 2683.59 -0.0448745 1.95849 0
M  V30 28397 H 2682.17 0.707487 0.23973 0
M  V30 28398 H 2684.83 1.94717 -0.0843552 0
M  V30 28399 H 2683.93 2.92454 1.08982 0
M  V30 28400 N 2684.23 -0.238084 1.55791 0
M  V30 28401 C 2685.48 -0.964876 1.78035 0
M  V30 28402 C 2685.8 -1.84981 0.601016 0
M  V30 28403 O 2685.06 -1.91242 -0.415327 0
M  V30 28404 C 2685.36 -1.8487 3.05873 0
M  V30 28405 C 2685.02 -1.11838 4.3681 0
M  V30 28406 C 2683.69 -0.916579 4.7239 0
M  V30 28407 C 2686.04 -0.601419 5.17718 0
M  V30 28408 C 2683.37 -0.185653 5.86406 0
M  V30 28409 C 2685.72 0.116083 6.32493 0
M  V30 28410 C 2684.38 0.329285 6.66687 0
M  V30 28411 H 2683.65 -0.353073 0.651476 0
M  V30 28412 H 2686.3 -0.234284 1.90061 0
M  V30 28413 H 2684.6 -2.64663 2.88896 0
M  V30 28414 H 2686.3 -2.41288 3.20283 0
M  V30 28415 H 2682.89 -1.28562 4.08864 0
M  V30 28416 H 2687.08 -0.744845 4.90679 0
M  V30 28417 H 2682.33 -0.0100811 6.11399 0
M  V30 28418 H 2686.51 0.524249 6.94424 0
M  V30 28419 H 2684.13 0.897607 7.54882 0
M  V30 28420 N 2685.71 -1.4932 -0.504115 0
M  V30 28421 C 2686.94 -1.62118 -1.28068 0
M  V30 28422 C 2687.35 -0.290599 -1.86955 0
M  V30 28423 O 2686.69 0.733587 -1.68417 0
M  V30 28424 C 2686.75 -2.62897 -2.45205 0
M  V30 28425 C 2686.41 -4.07324 -2.0721 0
M  V30 28426 C 2687.41 -4.94224 -1.61366 0
M  V30 28427 C 2685.1 -4.53036 -2.16941 0
M  V30 28428 C 2687.09 -6.24872 -1.25752 0
M  V30 28429 C 2684.78 -5.83699 -1.80938 0
M  V30 28430 C 2685.78 -6.69441 -1.35418 0
M  V30 28431 O 2685.46 -7.97668 -0.99901 0
M  V30 28432 H 2685.2 -0.548767 -0.394754 0
M  V30 28433 H 2687.75 -1.96068 -0.612084 0
M  V30 28434 H 2685.98 -2.24121 -3.1513 0
M  V30 28435 H 2687.67 -2.65257 -3.07235 0
M  V30 28436 H 2688.43 -4.60136 -1.53298 0
M  V30 28437 H 2684.31 -3.86468 -2.51324 0
M  V30 28438 H 2687.86 -6.9175 -0.901509 0
M  V30 28439 H 2683.75 -6.17316 -1.88656 0
M  V30 28440 H 2684.52 -8.10652 -1.13075 0
M  V30 28441 N 2687.19 0.754933 -1.38342 0
M  V30 28442 C 2688.13 1.86865 -1.35463 0
M  V30 28443 C 2689.1 1.64671 -0.217398 0
M  V30 28444 O 2690.29 1.86356 -0.409416 0
M  V30 28445 C 2687.43 3.24147 -1.18418 0
M  V30 28446 C 2686.54 3.58181 -2.41517 0
M  V30 28447 C 2685.68 4.8476 -2.17213 0
M  V30 28448 C 2684.71 5.11576 -3.3609 0
M  V30 28449 N 2683.85 6.29349 -3.1123 0
M  V30 28450 H 2688.69 1.8866 -2.30676 0
M  V30 28451 H 2686.23 0.922134 -1.14608 0
M  V30 28452 H 2688.19 4.03364 -1.06552 0
M  V30 28453 H 2686.82 3.21682 -0.268453 0
M  V30 28454 H 2685.87 2.73818 -2.64061 0
M  V30 28455 H 2687.18 3.73926 -3.30122 0
M  V30 28456 H 2686.33 5.71917 -2.02475 0
M  V30 28457 H 2685.07 4.7115 -1.25972 0
M  V30 28458 H 2684.08 4.22888 -3.51349 0
M  V30 28459 H 2685.3 5.27083 -4.28206 0
M  V30 28460 H 2683.25 6.17065 -2.22635 0
M  V30 28461 H 2683.17 6.45589 -3.93384 0
M  V30 28462 H 2684.43 7.19398 -3.00145 0
M  V30 28463 N 2688.66 1.23189 0.982967 0
M  V30 28464 C 2689.9 1.07415 1.73901 0
M  V30 28465 C 2690.27 -0.382731 1.88147 0
M  V30 28466 O 2691.47 -0.661593 2.60531 0
M  V30 28467 C 2689.74 1.77683 3.10102 0
M  V30 28468 S 2691.3 1.77448 4.0132 0
M  V30 28469 H 2688.12 0.384466 0.598086 0
M  V30 28470 H 2690.72 1.56285 1.17453 0
M  V30 28471 H 2689.42 2.82827 2.97383 0
M  V30 28472 H 2688.95 1.29084 3.71619 0
M  V30 28473 H 2690.97 0.831248 4.89188 0
M  V30 28474 N 2690.14 -1.18133 1.04318 0
M  V30 28475 C 2691.39 -1.88455 0.749161 0
M  V30 28476 C 2691.72 -1.80301 -0.721459 0
M  V30 28477 O 2691 -1.20502 -1.52674 0
M  V30 28478 C 2691.28 -3.38836 1.21911 0
M  V30 28479 C 2691.13 -3.55787 2.75201 0
M  V30 28480 C 2692.45 -4.3256 0.811161 0
M  V30 28481 H 2689.57 -0.684324 0.273624 0
M  V30 28482 H 2692.21 -1.38973 1.29563 0
M  V30 28483 H 2690.36 -3.81109 0.754204 0
M  V30 28484 H 2692.03 -3.22589 3.29748 0
M  V30 28485 H 2690.28 -2.98358 3.14905 0
M  V30 28486 H 2690.95 -4.61312 3.03143 0
M  V30 28487 H 2693.42 -3.9808 1.21125 0
M  V30 28488 H 2692.3 -5.36336 1.1677 0
M  V30 28489 H 2692.56 -4.41177 -0.285518 0
M  V30 28490 N 2691.62 -0.822988 -1.34405 0
M  V30 28491 C 2692.58 -0.250311 -2.27829 0
M  V30 28492 C 2693.58 0.571827 -1.50289 0
M  V30 28493 O 2694.77 0.387923 -1.69826 0
M  V30 28494 C 2691.91 0.649078 -3.34664 0
M  V30 28495 H 2693.1 -1.07449 -2.7999 0
M  V30 28496 H 2690.65 -0.594855 -1.44538 0
M  V30 28497 H 2691.39 1.49632 -2.87717 0
M  V30 28498 H 2691.17 0.061051 -3.92052 0
M  V30 28499 H 2692.66 1.04356 -4.04351 0
M  V30 28500 N 2693.1 1.4662 -0.577957 0
M  V30 28501 C 2694.32 2.07297 -0.06529 0
M  V30 28502 C 2694.75 1.42462 1.22826 0
M  V30 28503 O 2694.11 0.506748 1.74074 0
M  V30 28504 C 2694.15 3.60483 0.0919955 0
M  V30 28505 O 2693.26 3.96051 1.14965 0
M  V30 28506 H 2692.6 0.661223 -0.0606616 0
M  V30 28507 H 2695.13 1.88331 -0.799548 0
M  V30 28508 H 2695.14 4.06898 0.299669 0
M  V30 28509 H 2693.81 4.07065 -0.852683 0
M  V30 28510 H 2692.39 3.61352 0.920815 0
M  V30 28511 N 2694.58 0.315484 1.5441 0
M  V30 28512 C 2695.52 -0.569731 2.25515 0
M  V30 28513 C 2696.52 -1.1252 1.26632 0
M  V30 28514 O 2697.72 -1.07417 1.44435 0
M  V30 28515 H 2694.1 -0.202363 0.72426 0
M  V30 28516 H 2696.07 0.0523419 2.98354 0
M  V30 28517 C 2694.82 -1.723 3.02007 0
M  V30 28518 H 2694.14 -1.30482 3.77908 0
M  V30 28519 H 2695.58 -2.31815 3.55018 0
M  V30 28520 C 2694.04 -2.6358 2.09827 0
M  V30 28521 O 2694.57 -3.65075 1.6758 0
M  V30 28522 N 2692.78 -2.31634 1.75482 0
M  V30 28523 H 2692.32 -1.49141 2.10035 0
M  V30 28524 H 2692.28 -2.92971 1.14084 0
M  V30 28525 N 2696.05 -1.5754 0.0434891 0
M  V30 28526 C 2697.47 -1.80065 -0.493311 0
M  V30 28527 C 2697.82 -0.955053 -1.71386 0
M  V30 28528 O 2696.94 -0.169472 -2.15735 0
M  V30 28529 C 2697.54 -3.2658 -0.901733 0
M  V30 28530 C 2696.1 -3.50049 -1.38356 0
M  V30 28531 C 2695.24 -2.75017 -0.355081 0
M  V30 28532 H 2698.19 -1.56396 0.269428 0
M  V30 28533 H 2698.21 -3.37079 -1.76517 0
M  V30 28534 H 2697.73 -3.88098 -0.0132028 0
M  V30 28535 H 2695.83 -2.93802 -2.29154 0
M  V30 28536 H 2695.94 -4.58764 -1.38102 0
M  V30 28537 H 2694.3 -2.40924 -0.826306 0
M  V30 28538 H 2695.09 -3.39258 0.525231 0
M  V30 28539 N 2697.53 0.229818 -1.55915 0
M  V30 28540 C 2698.78 0.953534 -1.78191 0
M  V30 28541 C 2699.1 1.85196 -0.610536 0
M  V30 28542 O 2698.37 1.92317 0.372955 0
M  V30 28543 H 2696.95 0.355076 -0.657214 0
M  V30 28544 H 2699.61 0.243659 -1.93371 0
M  V30 28545 H 2698.71 1.56522 -2.70014 0
M  V30 28546 N 2699.01 1.49585 0.49619 0
M  V30 28547 C 2700.26 1.59 1.24754 0
M  V30 28548 C 2700.58 0.280809 1.92968 0
M  V30 28549 O 2699.85 -0.700166 1.8296 0
M  V30 28550 H 2698.43 0.585844 0.46346 0
M  V30 28551 H 2701.09 1.86236 0.574645 0
M  V30 28552 H 2700.19 2.3885 2.00891 0
M  V30 28553 N 2700.49 -0.747586 1.3874 0
M  V30 28554 C 2701.42 -1.8713 1.32344 0
M  V30 28555 C 2702.43 -1.61102 0.23453 0
M  V30 28556 O 2703.62 -1.7157 0.492546 0
M  V30 28557 C 2700.72 -3.22894 1.02921 0
M  V30 28558 C 2699.9 -3.76379 2.2284 0
M  V30 28559 C 2698.95 -4.90674 1.90068 0
M  V30 28560 O 2697.98 -5.04992 2.62624 0
M  V30 28561 N 2699.18 -5.74106 0.859242 0
M  V30 28562 H 2701.95 -1.93125 2.29178 0
M  V30 28563 H 2699.51 -0.927781 1.32679 0
M  V30 28564 H 2701.5 -3.96907 0.790379 0
M  V30 28565 H 2700.07 -3.12246 0.148627 0
M  V30 28566 H 2699.29 -2.93862 2.62752 0
M  V30 28567 H 2700.58 -4.08845 3.02858 0
M  V30 28568 H 2699.98 -5.65113 0.257663 0
M  V30 28569 H 2698.53 -6.4824 0.680303 0
M  V30 28570 N 2701.97 -1.23709 -0.97642 0
M  V30 28571 C 2703.24 -0.979729 -1.69295 0
M  V30 28572 C 2703.62 0.500519 -2.05081 0
M  V30 28573 O 2702.97 1.4727 -1.7471 0
M  V30 28574 C 2703.18 -1.89394 -2.9314 0
M  V30 28575 C 2704.53 -2.15974 -3.65569 0
M  V30 28576 O 2705.55 -1.86976 -3.0318 0
M  V30 28577 O 2704.41 -2.65175 -4.77854 0
M  V30 28578 H 2701.51 -0.369825 -0.739702 0
M  V30 28579 H 2704.05 -1.34769 -1.03129 0
M  V30 28580 H 2702.82 -2.89443 -2.63322 0
M  V30 28581 H 2702.45 -1.5286 -3.67042 0
M  V30 28582 N 2703.44 1.17579 -1.04943 0
M  V30 28583 C 2704.67 1.92243 -0.778287 0
M  V30 28584 C 2705.09 1.76153 0.659676 0
M  V30 28585 O 2704.45 1.07758 1.45801 0
M  V30 28586 C 2704.5 3.41414 -1.16057 0
M  V30 28587 O 2703.6 4.1137 -0.291225 0
M  V30 28588 H 2702.95 0.599426 -0.28563 0
M  V30 28589 H 2705.48 1.4905 -1.40162 0
M  V30 28590 H 2705.49 3.92147 -1.12626 0
M  V30 28591 H 2704.16 3.52445 -2.20806 0
M  V30 28592 H 2702.74 3.70898 -0.385916 0
M  V30 28593 N 2704.92 0.830104 1.33967 0
M  V30 28594 C 2705.85 0.271951 2.31911 0
M  V30 28595 C 2706.83 -0.615532 1.58572 0
M  V30 28596 O 2708.02 -0.540914 1.86515 0
M  V30 28597 C 2705.15 -0.561086 3.42738 0
M  V30 28598 C 2704.1 0.229864 4.27382 0
M  V30 28599 C 2703.43 -0.72637 5.29743 0
M  V30 28600 C 2704.73 1.44206 5.01998 0
M  V30 28601 H 2706.42 1.0903 2.78842 0
M  V30 28602 H 2703.97 0.525733 1.3406 0
M  V30 28603 H 2705.92 -0.961795 4.10277 0
M  V30 28604 H 2704.65 -1.41256 2.94473 0
M  V30 28605 H 2703.3 0.612028 3.61455 0
M  V30 28606 H 2702.95 -1.574 4.77739 0
M  V30 28607 H 2702.65 -0.201317 5.87255 0
M  V30 28608 H 2704.18 -1.12478 6.00151 0
M  V30 28609 H 2705.59 1.11498 5.62353 0
M  V30 28610 H 2703.99 1.90327 5.69118 0
M  V30 28611 H 2705.06 2.21648 4.31277 0
M  V30 28612 N 2706.4 -1.46311 0.585725 0
M  V30 28613 C 2707.33 -2.33118 -0.133516 0
M  V30 28614 C 2708.31 -1.45527 -0.880682 0
M  V30 28615 O 2709.5 -1.74339 -0.855548 0
M  V30 28616 C 2706.63 -3.27855 -1.14579 0
M  V30 28617 C 2705.58 -4.24911 -0.513266 0
M  V30 28618 C 2704.91 -5.09178 -1.63222 0
M  V30 28619 C 2706.21 -5.1938 0.551504 0
M  V30 28620 H 2707.9 -2.93504 0.591261 0
M  V30 28621 H 2705.45 -1.41136 0.285786 0
M  V30 28622 H 2707.4 -3.87441 -1.65734 0
M  V30 28623 H 2706.12 -2.65583 -1.90088 0
M  V30 28624 H 2704.78 -3.66593 -0.0227705 0
M  V30 28625 H 2704.43 -4.43289 -2.37706 0
M  V30 28626 H 2704.13 -5.74909 -1.21463 0
M  V30 28627 H 2705.66 -5.71628 -2.14648 0
M  V30 28628 H 2707.07 -5.73164 0.124905 0
M  V30 28629 H 2705.47 -5.9347 0.88959 0
M  V30 28630 H 2706.54 -4.6313 1.43663 0
M  V30 28631 N 2707.88 -0.323668 -1.54241 0
M  V30 28632 C 2709.13 0.279288 -2.00868 0
M  V30 28633 C 2709.46 1.51778 -1.21149 0
M  V30 28634 O 2708.73 1.92268 -0.293813 0
M  V30 28635 C 2709.02 0.613324 -3.54838 0
M  V30 28636 C 2708.87 -0.635882 -4.45283 0
M  V30 28637 C 2710.19 1.43092 -4.16188 0
M  V30 28638 H 2707.31 0.100036 -0.730179 0
M  V30 28639 H 2709.95 -0.440267 -1.84829 0
M  V30 28640 H 2708.1 1.22635 -3.68637 0
M  V30 28641 H 2709.77 -1.27414 -4.43355 0
M  V30 28642 H 2708.01 -1.26474 -4.14954 0
M  V30 28643 H 2708.69 -0.357694 -5.5084 0
M  V30 28644 H 2711.16 0.912743 -4.05966 0
M  V30 28645 H 2710.04 1.63341 -5.24033 0
M  V30 28646 H 2710.3 2.42708 -3.6952 0
M  V30 28647 N 2709.36 1.57515 -0.0518432 0
M  V30 28648 C 2710.3 2.1157 0.922315 0
M  V30 28649 C 2711.27 1.02323 1.3084 0
M  V30 28650 O 2712.46 1.29875 1.39775 0
M  V30 28651 C 2709.6 2.66574 2.19163 0
M  V30 28652 C 2708.71 3.89909 1.85996 0
M  V30 28653 C 2707.85 4.33226 3.0739 0
M  V30 28654 C 2706.89 5.4926 2.70148 0
M  V30 28655 N 2706.02 5.87627 3.84238 0
M  V30 28656 H 2710.86 2.94514 0.454454 0
M  V30 28657 H 2708.4 1.45554 0.212692 0
M  V30 28658 H 2710.36 2.96564 2.93437 0
M  V30 28659 H 2708.99 1.86426 2.63524 0
M  V30 28660 H 2708.04 3.66507 1.01867 0
M  V30 28661 H 2709.35 4.74242 1.54583 0
M  V30 28662 H 2708.51 4.64772 3.89964 0
M  V30 28663 H 2707.25 3.47706 3.41982 0
M  V30 28664 H 2706.25 5.17385 1.85992 0
M  V30 28665 H 2707.48 6.36496 2.36748 0
M  V30 28666 H 2705.42 5.0506 4.18629 0
M  V30 28667 H 2705.34 6.66652 3.56526 0
M  V30 28668 H 2706.61 6.23788 4.67449 0
M  V30 28669 N 2710.84 -0.221546 1.56035 0
M  V30 28670 C 2712.08 -0.943985 1.78247 0
M  V30 28671 C 2712.4 -1.855 0.620403 0
M  V30 28672 O 2713.6 -2.61609 0.726149 0
M  V30 28673 C 2712.06 -1.72874 3.15662 0
M  V30 28674 C 2711.67 -0.863865 4.39592 0
M  V30 28675 C 2713.41 -2.4424 3.47199 0
M  V30 28676 C 2711.32 -1.64597 5.68033 0
M  V30 28677 H 2710.25 -0.35621 0.664553 0
M  V30 28678 H 2712.9 -0.197872 1.8243 0
M  V30 28679 H 2711.28 -2.51776 3.05655 0
M  V30 28680 H 2712.46 -0.115383 4.60656 0
M  V30 28681 H 2710.77 -0.262334 4.15573 0
M  V30 28682 H 2713.37 -3.03256 4.40386 0
M  V30 28683 H 2713.71 -3.17125 2.69698 0
M  V30 28684 H 2714.24 -1.72328 3.58536 0
M  V30 28685 H 2710.98 -0.960393 6.48426 0
M  V30 28686 H 2710.5 -2.36907 5.51031 0
M  V30 28687 H 2712.18 -2.20665 6.08207 0
M  V30 28688 N 2712.31 -1.49846 -0.48825 0
M  V30 28689 C 2713.25 -1.63587 -1.60536 0
M  V30 28690 C 2714.26 -0.517999 -1.54339 0
M  V30 28691 O 2715.45 -0.790544 -1.6004 0
M  V30 28692 C 2712.55 -1.5884 -2.99371 0
M  V30 28693 C 2711.72 -2.86374 -3.30619 0
M  V30 28694 C 2710.78 -2.74504 -4.48925 0
M  V30 28695 O 2709.81 -3.48451 -4.50078 0
M  V30 28696 N 2711.01 -1.86904 -5.49588 0
M  V30 28697 H 2713.77 -2.59938 -1.49171 0
M  V30 28698 H 2711.33 -1.47095 -0.676365 0
M  V30 28699 H 2713.33 -1.48536 -3.76456 0
M  V30 28700 H 2711.9 -0.702946 -3.04594 0
M  V30 28701 H 2711.12 -3.10934 -2.42309 0
M  V30 28702 H 2712.4 -3.70898 -3.48299 0
M  V30 28703 H 2711.8 -1.26107 -5.51465 0
M  V30 28704 H 2710.36 -1.82514 -6.25725 0
M  V30 28705 N 2713.79 0.740218 -1.39135 0
M  V30 28706 C 2715.04 1.50189 -1.36276 0
M  V30 28707 C 2715.37 1.94152 0.0429794 0
M  V30 28708 O 2714.65 1.6641 1.00688 0
M  V30 28709 C 2714.93 2.74521 -2.33046 0
M  V30 28710 C 2714.78 2.3661 -3.82539 0
M  V30 28711 C 2716.1 3.766 -2.27729 0
M  V30 28712 H 2713.22 0.544814 -0.496333 0
M  V30 28713 H 2715.86 0.846785 -1.70087 0
M  V30 28714 H 2714.01 3.30418 -2.04343 0
M  V30 28715 H 2715.68 1.86384 -4.2197 0
M  V30 28716 H 2713.93 1.68902 -3.99568 0
M  V30 28717 H 2714.6 3.25622 -4.45729 0
M  V30 28718 H 2717.07 3.30274 -2.53097 0
M  V30 28719 H 2715.95 4.61268 -2.97528 0
M  V30 28720 H 2716.21 4.23148 -1.28057 0
M  V30 28721 N 2715.27 1.24225 0.969846 0
M  V30 28722 C 2716.52 1.07469 1.70685 0
M  V30 28723 C 2716.83 -0.386828 1.91737 0
M  V30 28724 O 2718.04 -0.674535 2.62987 0
M  V30 28725 C 2716.49 1.87477 3.07214 0
M  V30 28726 C 2716.1 3.38025 2.94012 0
M  V30 28727 C 2717.85 1.79244 3.84801 0
M  V30 28728 C 2715.75 4.10386 4.25837 0
M  V30 28729 H 2714.68 0.398547 0.64006 0
M  V30 28730 H 2717.33 1.48287 1.08089 0
M  V30 28731 H 2715.72 1.39472 3.70626 0
M  V30 28732 H 2716.89 3.93594 2.39625 0
M  V30 28733 H 2715.2 3.47187 2.29892 0
M  V30 28734 H 2717.8 2.30611 4.82413 0
M  V30 28735 H 2718.14 0.757269 4.09355 0
M  V30 28736 H 2718.68 2.24918 3.28111 0
M  V30 28737 H 2715.42 5.14253 4.06477 0
M  V30 28738 H 2714.94 3.59603 4.80048 0
M  V30 28739 H 2716.62 4.17265 4.94468 0
M  V30 28740 N 2716.75 -1.1702 1.05565 0
M  V30 28741 C 2717.71 -2.19367 0.664137 0
M  V30 28742 C 2718.71 -1.5823 -0.28633 0
M  V30 28743 O 2719.9 -1.74061 -0.0696974 0
M  V30 28744 C 2717.03 -3.40892 -0.0239333 0
M  V30 28745 H 2718.23 -2.55518 1.57004 0
M  V30 28746 H 2715.78 -1.31168 0.849987 0
M  V30 28747 H 2716.51 -3.10289 -0.942934 0
M  V30 28748 H 2716.3 -3.86515 0.659419 0
M  V30 28749 H 2717.79 -4.16634 -0.283835 0
M  V30 28750 N 2718.23 -0.837197 -1.33524 0
M  V30 28751 C 2719.19 -0.274461 -2.27551 0
M  V30 28752 C 2720.19 0.555855 -1.50887 0
M  V30 28753 O 2721.38 0.369888 -1.70228 0
M  V30 28754 C 2718.51 0.613546 -3.35333 0
M  V30 28755 H 2719.7 -1.10413 -2.78835 0
M  V30 28756 H 2717.26 -0.610151 -1.43899 0
M  V30 28757 H 2717.99 1.46572 -2.89288 0
M  V30 28758 H 2717.78 0.0194652 -3.92095 0
M  V30 28759 H 2719.27 1.00061 -4.05435 0
M  V30 28760 N 2719.7 1.45999 -0.593476 0
M  V30 28761 C 2721.11 1.85926 -0.169834 0
M  V30 28762 C 2721.47 1.49567 1.26981 0
M  V30 28763 O 2720.59 0.915636 1.96074 0
M  V30 28764 C 2721.19 3.37456 -0.301444 0
M  V30 28765 C 2719.74 3.7634 0.0674022 0
M  V30 28766 C 2718.89 2.69992 -0.63243 0
M  V30 28767 H 2721.84 1.37 -0.801038 0
M  V30 28768 H 2721.86 3.77583 0.470265 0
M  V30 28769 H 2721.38 3.63888 -1.34933 0
M  V30 28770 H 2719.48 3.55525 1.11501 0
M  V30 28771 H 2719.59 4.78054 -0.316416 0
M  V30 28772 H 2717.95 2.546 -0.0715408 0
M  V30 28773 H 2718.74 2.99262 -1.68218 0
M  V30 28774 N 2721.18 0.331843 1.54067 0
M  V30 28775 C 2722.59 -0.154507 1.8606 0
M  V30 28776 C 2722.94 -1.5095 1.25334 0
M  V30 28777 O 2722.07 -2.08962 0.562478 0
M  V30 28778 C 2722.66 -0.287133 3.37581 0
M  V30 28779 C 2721.22 -0.717708 3.69494 0
M  V30 28780 C 2720.37 0.155617 2.76863 0
M  V30 28781 H 2723.32 0.551847 1.48796 0
M  V30 28782 H 2723.34 -1.11664 3.63746 0
M  V30 28783 H 2722.85 0.699198 3.8175 0
M  V30 28784 H 2720.96 -1.71349 3.30863 0
M  V30 28785 H 2721.07 -0.515716 4.76316 0
M  V30 28786 H 2719.43 -0.370169 2.51996 0
M  V30 28787 H 2720.22 1.13887 3.23859 0
M  V30 28788 N 2722.66 -1.57485 0.0601958 0
M  V30 28789 C 2723.91 -1.93331 -0.612467 0
M  V30 28790 C 2724.24 -0.939556 -1.69959 0
M  V30 28791 O 2723.51 0.0330616 -1.94472 0
M  V30 28792 C 2723.8 -3.39511 -1.20019 0
M  V30 28793 C 2723.65 -4.49639 -0.120511 0
M  V30 28794 C 2724.97 -3.86267 -2.10916 0
M  V30 28795 H 2722.09 -0.70303 -0.221172 0
M  V30 28796 H 2724.73 -1.89596 0.123801 0
M  V30 28797 H 2722.88 -3.42824 -1.82768 0
M  V30 28798 H 2724.55 -4.58451 0.51193 0
M  V30 28799 H 2722.8 -4.30295 0.550327 0
M  V30 28800 H 2723.47 -5.49029 -0.571922 0
M  V30 28801 H 2725.94 -3.84887 -1.58118 0
M  V30 28802 H 2724.82 -4.89184 -2.48978 0
M  V30 28803 H 2725.08 -3.23541 -3.01286 0
M  V30 28804 N 2724.14 0.213268 -1.5615 0
M  V30 28805 C 2725.39 0.934518 -1.78745 0
M  V30 28806 C 2725.7 1.85169 -0.630232 0
M  V30 28807 O 2726.91 2.6122 -0.740012 0
M  V30 28808 C 2725.36 1.71198 -3.16574 0
M  V30 28809 C 2724.97 0.84054 -4.40044 0
M  V30 28810 C 2726.71 2.42395 -3.4849 0
M  V30 28811 C 2724.62 1.61582 -5.68898 0
M  V30 28812 H 2723.55 0.352681 -0.666433 0
M  V30 28813 H 2726.2 0.188195 -1.82532 0
M  V30 28814 H 2724.58 2.50152 -3.06986 0
M  V30 28815 H 2725.76 0.0909516 -4.6071 0
M  V30 28816 H 2724.07 0.240292 -4.15706 0
M  V30 28817 H 2726.67 3.00916 -4.41988 0
M  V30 28818 H 2727.01 3.15691 -2.71376 0
M  V30 28819 H 2727.55 1.70424 -3.59445 0
M  V30 28820 H 2724.29 0.925992 -6.48927 0
M  V30 28821 H 2723.81 2.33981 -5.5228 0
M  V30 28822 H 2725.48 2.17436 -6.09369 0
M  V30 28823 N 2725.62 1.50103 0.480296 0
M  V30 28824 C 2726.55 1.71218 1.58766 0
M  V30 28825 C 2727.53 0.561025 1.60582 0
M  V30 28826 O 2728.71 0.799158 1.76995 0
M  V30 28827 C 2725.84 1.79783 2.97145 0
M  V30 28828 C 2724.8 2.94894 3.10196 0
M  V30 28829 C 2724.12 2.88592 4.50132 0
M  V30 28830 C 2725.42 4.35539 2.88276 0
M  V30 28831 H 2727.12 2.63933 1.4135 0
M  V30 28832 H 2724.66 1.2701 0.678569 0
M  V30 28833 H 2726.62 1.9314 3.74533 0
M  V30 28834 H 2725.34 0.836827 3.15697 0
M  V30 28835 H 2724 2.81173 2.35239 0
M  V30 28836 H 2723.65 1.90357 4.65589 0
M  V30 28837 H 2723.35 3.65864 4.59801 0
M  V30 28838 H 2724.87 3.03985 5.29552 0
M  V30 28839 H 2726.28 4.49834 3.55419 0
M  V30 28840 H 2724.68 5.14191 3.09399 0
M  V30 28841 H 2725.75 4.48547 1.84211 0
M  V30 28842 N 2727.09 -0.732829 1.39526 0
M  V30 28843 C 2728 -1.87727 1.40698 0
M  V30 28844 C 2729.02 -1.71368 0.301526 0
M  V30 28845 O 2730.2 -1.93932 0.543347 0
M  V30 28846 C 2727.26 -3.23342 1.25104 0
M  V30 28847 C 2726.32 -3.52079 2.4564 0
M  V30 28848 C 2725.56 -4.81224 2.3078 0
M  V30 28849 O 2725.78 -5.55096 1.31243 0
M  V30 28850 O 2724.71 -5.09909 3.19808 0
M  V30 28851 H 2728.54 -1.89693 2.37172 0
M  V30 28852 H 2726.12 -0.880938 1.20664 0
M  V30 28853 H 2728.01 -4.04381 1.18548 0
M  V30 28854 H 2726.68 -3.22141 0.317266 0
M  V30 28855 H 2725.59 -2.71117 2.57772 0
M  V30 28856 H 2726.92 -3.5806 3.37718 0
M  V30 28857 N 2728.57 -1.24737 -0.963244 0
M  V30 28858 C 2729.5 -1.00153 -2.0616 0
M  V30 28859 C 2730.52 0.0305619 -1.62771 0
M  V30 28860 O 2731.71 -0.206997 -1.77296 0
M  V30 28861 C 2728.81 -0.490444 -3.35332 0
M  V30 28862 C 2727.98 -1.58671 -4.07606 0
M  V30 28863 C 2727.04 -1.07749 -5.1505 0
M  V30 28864 O 2726.06 -1.77011 -5.40977 0
M  V30 28865 N 2727.27 0.0857585 -5.80437 0
M  V30 28866 H 2730.03 -1.94723 -2.27822 0
M  V30 28867 H 2727.59 -1.15827 -1.13119 0
M  V30 28868 H 2729.58 -0.134442 -4.04477 0
M  V30 28869 H 2728.15 0.361101 -3.10507 0
M  V30 28870 H 2727.37 -2.11469 -3.32678 0
M  V30 28871 H 2728.66 -2.32344 -4.52652 0
M  V30 28872 H 2728.06 0.664707 -5.61781 0
M  V30 28873 H 2726.62 0.382867 -6.50675 0
M  V30 28874 N 2730.05 1.16459 -1.06184 0
M  V30 28875 C 2731.47 1.38955 -0.785089 0
M  V30 28876 C 2731.67 1.91851 0.61607 0
M  V30 28877 O 2730.72 2.1166 1.37682 0
M  V30 28878 C 2732.04 2.37129 -1.84906 0
M  V30 28879 C 2733.58 2.50816 -1.87244 0
M  V30 28880 C 2734.06 3.52272 -2.92692 0
M  V30 28881 N 2735.55 3.59798 -2.91719 0
M  V30 28882 C 2736.28 4.38086 -3.69957 0
M  V30 28883 N 2735.78 5.19807 -4.58009 0
M  V30 28884 N 2737.57 4.33058 -3.58353 0
M  V30 28885 H 2729.72 0.8046 -1.9657 0
M  V30 28886 H 2731.99 0.416196 -0.851754 0
M  V30 28887 H 2731.69 2.05355 -2.85521 0
M  V30 28888 H 2731.57 3.36763 -1.69914 0
M  V30 28889 H 2733.95 2.81895 -0.872877 0
M  V30 28890 H 2734.04 1.51222 -2.06314 0
M  V30 28891 H 2733.68 3.2193 -3.92841 0
M  V30 28892 H 2733.61 4.51593 -2.70872 0
M  V30 28893 H 2736.1 3.0146 -2.27882 0
M  V30 28894 H 2736.41 5.76755 -5.14367 0
M  V30 28895 H 2734.76 5.19154 -4.62065 0
M  V30 28896 H 2737.95 3.68274 -2.88949 0
M  V30 28897 H 2738.12 4.93825 -4.19572 0
M  V30 28898 N 2731.53 0.844266 1.33079 0
M  V30 28899 C 2732.94 0.532755 1.50446 0
M  V30 28900 C 2733.14 -0.938806 1.78294 0
M  V30 28901 O 2732.2 -1.72236 1.84638 0
M  V30 28902 C 2733.51 1.41076 2.65552 0
M  V30 28903 C 2735.06 1.4101 2.79437 0
M  V30 28904 C 2735.54 2.27308 3.97612 0
M  V30 28905 N 2737.03 2.25047 4.04856 0
M  V30 28906 C 2737.76 2.88555 4.95503 0
M  V30 28907 N 2737.26 3.61136 5.9123 0
M  V30 28908 N 2739.05 2.77997 4.88543 0
M  V30 28909 H 2731.2 1.79679 1.13266 0
M  V30 28910 H 2733.47 0.766871 0.557327 0
M  V30 28911 H 2733.17 2.45672 2.5167 0
M  V30 28912 H 2733.05 1.09067 3.61087 0
M  V30 28913 H 2735.43 0.371835 2.92748 0
M  V30 28914 H 2735.51 1.77029 1.84647 0
M  V30 28915 H 2735.16 3.31197 3.8506 0
M  V30 28916 H 2735.09 1.88628 4.91657 0
M  V30 28917 H 2737.58 1.7227 3.3635 0
M  V30 28918 H 2737.89 4.06787 6.57072 0
M  V30 28919 H 2736.24 3.65244 5.91288 0
M  V30 28920 H 2739.43 2.20853 4.12725 0
M  V30 28921 H 2739.6 3.27775 5.58988 0
M  V30 28922 N 2733.01 -1.45682 0.60121 0
M  V30 28923 C 2733.94 -2.28645 -0.159405 0
M  V30 28924 C 2734.95 -1.39584 -0.837858 0
M  V30 28925 O 2736.14 -1.64017 -0.704316 0
M  V30 28926 C 2733.24 -3.15149 -1.24636 0
M  V30 28927 C 2732.41 -4.32449 -0.656258 0
M  V30 28928 C 2731.47 -5.0021 -1.63328 0
M  V30 28929 O 2730.5 -5.57211 -1.16207 0
M  V30 28930 N 2731.7 -4.9891 -2.96764 0
M  V30 28931 H 2734.47 -2.94564 0.552452 0
M  V30 28932 H 2732.03 -1.55799 0.44025 0
M  V30 28933 H 2734.02 -3.57346 -1.89964 0
M  V30 28934 H 2732.59 -2.51182 -1.86082 0
M  V30 28935 H 2731.81 -3.93812 0.174949 0
M  V30 28936 H 2733.1 -5.08224 -0.242122 0
M  V30 28937 H 2732.49 -4.53879 -3.37654 0
M  V30 28938 H 2731.05 -5.4499 -3.57532 0
M  V30 28939 N 2734.48 -0.340009 -1.53889 0
M  V30 28940 C 2735.73 0.257967 -2.01153 0
M  V30 28941 C 2736.06 1.50485 -1.22752 0
M  V30 28942 O 2735.34 1.91946 -0.314189 0
M  V30 28943 C 2735.62 0.575654 -3.55469 0
M  V30 28944 C 2735.47 -0.683074 -4.44583 0
M  V30 28945 C 2736.79 1.3867 -4.17683 0
M  V30 28946 H 2733.91 0.0922863 -0.731199 0
M  V30 28947 H 2736.55 -0.459846 -1.84351 0
M  V30 28948 H 2734.7 1.18718 -3.69917 0
M  V30 28949 H 2736.38 -1.32109 -4.41978 0
M  V30 28950 H 2734.62 -1.30868 -4.13589 0
M  V30 28951 H 2735.29 -0.416098 -5.50429 0
M  V30 28952 H 2737.77 0.869633 -4.06911 0
M  V30 28953 H 2736.64 1.57773 -5.25736 0
M  V30 28954 H 2736.9 2.38775 -3.72074 0
M  V30 28955 N 2735.96 1.57451 -0.0685468 0
M  V30 28956 C 2737.21 1.92542 0.600864 0
M  V30 28957 C 2737.53 0.950269 1.70966 0
M  V30 28958 O 2738.73 1.19388 2.43842 0
M  V30 28959 C 2737.19 3.42025 1.12013 0
M  V30 28960 C 2736.8 4.4798 0.042524 0
M  V30 28961 C 2738.54 3.86122 1.7638 0
M  V30 28962 C 2736.45 5.88592 0.575655 0
M  V30 28963 H 2735.38 0.718634 0.228213 0
M  V30 28964 H 2738.03 1.82963 -0.140255 0
M  V30 28965 H 2736.41 3.46666 1.91412 0
M  V30 28966 H 2737.58 4.5495 -0.7319 0
M  V30 28967 H 2735.9 4.1333 -0.504715 0
M  V30 28968 H 2738.5 4.88557 2.17293 0
M  V30 28969 H 2738.84 3.23313 2.62249 0
M  V30 28970 H 2739.37 3.8407 1.03608 0
M  V30 28971 H 2736.11 6.55039 -0.245807 0
M  V30 28972 H 2735.63 5.85147 1.31767 0
M  V30 28973 H 2737.31 6.38372 1.05309 0
M  V30 28974 N 2737.44 -0.204984 1.56261 0
M  V30 28975 C 2738.69 -0.928268 1.80308 0
M  V30 28976 C 2739.02 -1.83317 0.640964 0
M  V30 28977 O 2738.3 -1.91158 -0.358998 0
M  V30 28978 C 2738.58 -1.75301 3.1455 0
M  V30 28979 C 2738.43 -0.873485 4.41237 0
M  V30 28980 C 2739.75 -2.72756 3.45387 0
M  V30 28981 H 2736.87 -0.336033 0.655935 0
M  V30 28982 H 2739.51 -0.196178 1.88985 0
M  V30 28983 H 2737.66 -2.37716 3.07284 0
M  V30 28984 H 2739.33 -0.264806 4.60539 0
M  V30 28985 H 2737.58 -0.179697 4.33428 0
M  V30 28986 H 2738.25 -1.48531 5.31641 0
M  V30 28987 H 2740.72 -2.20475 3.52888 0
M  V30 28988 H 2739.6 -3.27552 4.40455 0
M  V30 28989 H 2739.86 -3.51316 2.68383 0
M  V30 28990 N 2738.92 -1.50356 -0.472329 0
M  V30 28991 C 2740.17 -1.60964 -1.22208 0
M  V30 28992 C 2740.49 -0.311473 -1.92496 0
M  V30 28993 O 2739.76 0.67097 -1.84051 0
M  V30 28994 H 2738.34 -0.593143 -0.454081 0
M  V30 28995 H 2741 -1.87127 -0.544944 0
M  V30 28996 H 2740.1 -2.42016 -1.97065 0
M  V30 28997 N 2740.4 0.725419 -1.39912 0
M  V30 28998 C 2741.63 1.51461 -1.40951 0
M  V30 28999 C 2742.04 1.88799 -0.00655738 0
M  V30 29000 O 2741.4 1.54767 0.967136 0
M  V30 29001 C 2741.45 2.79615 -2.29123 0
M  V30 29002 O 2741.17 2.43859 -3.63956 0
M  V30 29003 C 2742.67 3.7358 -2.38649 0
M  V30 29004 H 2739.89 0.467744 -0.4811 0
M  V30 29005 H 2742.43 0.895619 -1.83845 0
M  V30 29006 H 2740.59 3.37822 -1.89618 0
M  V30 29007 H 2741 3.26251 -4.10683 0
M  V30 29008 H 2742.48 4.6037 -3.04572 0
M  V30 29009 H 2742.95 4.16001 -1.40853 0
M  V30 29010 H 2743.56 3.21288 -2.78665 0
M  V30 29011 N 2741.88 1.25246 0.956615 0
M  V30 29012 C 2743.12 1.11047 1.70411 0
M  V30 29013 C 2743.48 -0.345343 1.89275 0
M  V30 29014 O 2742.77 -1.25105 1.45118 0
M  V30 29015 C 2742.96 1.79606 3.08992 0
M  V30 29016 C 2742.79 3.31705 3.03648 0
M  V30 29017 C 2741.56 4.00953 3.07514 0
M  V30 29018 C 2743.76 4.28133 2.84967 0
M  V30 29019 N 2741.74 5.39843 2.92306 0
M  V30 29020 C 2743.11 5.54095 2.7817 0
M  V30 29021 C 2745.17 4.18572 2.69632 0
M  V30 29022 C 2743.87 6.71589 2.57605 0
M  V30 29023 C 2745.9 5.35757 2.50437 0
M  V30 29024 C 2745.26 6.60658 2.44358 0
M  V30 29025 H 2741.36 0.461046 0.631633 0
M  V30 29026 H 2743.94 1.58319 1.13328 0
M  V30 29027 H 2742.11 1.34833 3.64245 0
M  V30 29028 H 2743.85 1.58168 3.72512 0
M  V30 29029 H 2740.6 3.52198 3.16629 0
M  V30 29030 H 2741.02 6.12728 2.87912 0
M  V30 29031 H 2745.67 3.22757 2.73108 0
M  V30 29032 H 2743.38 7.67517 2.52871 0
M  V30 29033 H 2746.97 5.30218 2.395 0
M  V30 29034 H 2745.85 7.49805 2.29698 0
M  V30 29035 N 2743.35 -1.15894 1.068 0
M  V30 29036 C 2744.6 -1.86179 0.786243 0
M  V30 29037 C 2744.92 -1.82403 -0.689515 0
M  V30 29038 O 2744.19 -1.2611 -1.49911 0
M  V30 29039 H 2742.77 -0.68931 0.287856 0
M  V30 29040 H 2745.43 -1.40518 1.35058 0
M  V30 29041 H 2744.53 -2.91475 1.11575 0
M  V30 29042 N 2744.83 -0.851312 -1.32629 0
M  V30 29043 C 2745.74 -0.296309 -2.32721 0
M  V30 29044 C 2746.76 0.584134 -1.63902 0
M  V30 29045 O 2747.93 0.485299 -1.95466 0
M  V30 29046 C 2745 0.509043 -3.42943 0
M  V30 29047 C 2744.06 -0.397144 -4.27459 0
M  V30 29048 C 2743.29 0.369866 -5.32417 0
M  V30 29049 O 2743.52 1.60021 -5.47494 0
M  V30 29050 O 2742.45 -0.262599 -6.01327 0
M  V30 29051 H 2746.28 -1.12548 -2.82076 0
M  V30 29052 H 2743.86 -0.614159 -1.36193 0
M  V30 29053 H 2745.74 0.966268 -4.10172 0
M  V30 29054 H 2744.42 1.31507 -2.95783 0
M  V30 29055 H 2743.32 -0.902474 -3.63051 0
M  V30 29056 H 2744.66 -1.16826 -4.78134 0
M  V30 29057 N 2746.31 1.45361 -0.608928 0
M  V30 29058 C 2747.53 2.07112 -0.109246 0
M  V30 29059 C 2747.96 1.45035 1.19776 0
M  V30 29060 O 2747.32 0.543558 1.7296 0
M  V30 29061 C 2747.37 3.60597 0.0155111 0
M  V30 29062 O 2746.47 3.98401 1.06539 0
M  V30 29063 H 2745.81 0.659788 -0.0746735 0
M  V30 29064 H 2748.34 1.86592 -0.839316 0
M  V30 29065 H 2748.35 4.07442 0.213293 0
M  V30 29066 H 2747.03 4.05165 -0.938836 0
M  V30 29067 H 2745.6 3.63224 0.84396 0
M  V30 29068 N 2747.79 0.348166 1.53706 0
M  V30 29069 C 2748.72 -0.498726 2.28112 0
M  V30 29070 C 2749.7 -1.09873 1.29853 0
M  V30 29071 O 2750.88 -1.11926 1.58702 0
M  V30 29072 C 2748.01 -1.64748 3.05738 0
M  V30 29073 C 2746.97 -1.17558 4.11539 0
M  V30 29074 C 2746.29 -2.41321 4.77146 0
M  V30 29075 C 2747.59 -0.272752 5.21587 0
M  V30 29076 H 2749.29 0.121986 2.99151 0
M  V30 29077 H 2746.83 0.0601095 1.43874 0
M  V30 29078 H 2748.79 -2.24643 3.5653 0
M  V30 29079 H 2747.51 -2.29516 2.32358 0
M  V30 29080 H 2746.17 -0.599419 3.61666 0
M  V30 29081 H 2745.82 -3.04507 4.00356 0
M  V30 29082 H 2745.52 -2.10427 5.4863 0
M  V30 29083 H 2747.04 -3.01934 5.30724 0
M  V30 29084 H 2748.46 -0.778679 5.67987 0
M  V30 29085 H 2746.85 -0.0554795 6.00074 0
M  V30 29086 H 2747.92 0.689869 4.79968 0
M  V30 29087 N 2749.27 -1.57412 0.0768958 0
M  V30 29088 C 2750.21 -2.13011 -0.88854 0
M  V30 29089 C 2751.18 -1.04392 -1.29196 0
M  V30 29090 O 2752.37 -1.32082 -1.37692 0
M  V30 29091 C 2749.51 -2.70027 -2.14894 0
M  V30 29092 C 2748.62 -3.92819 -1.7977 0
M  V30 29093 C 2747.76 -4.38061 -3.00459 0
M  V30 29094 C 2746.79 -5.53488 -2.61376 0
M  V30 29095 N 2745.93 -5.93666 -3.74841 0
M  V30 29096 H 2750.77 -2.952 -0.407542 0
M  V30 29097 H 2748.31 -1.45874 -0.189509 0
M  V30 29098 H 2750.27 -3.01195 -2.88682 0
M  V30 29099 H 2748.9 -1.90595 -2.60525 0
M  V30 29100 H 2747.95 -3.68081 -0.960237 0
M  V30 29101 H 2749.26 -4.76641 -1.47019 0
M  V30 29102 H 2748.41 -4.70917 -3.8252 0
M  V30 29103 H 2747.15 -3.53103 -3.36407 0
M  V30 29104 H 2746.16 -5.20278 -1.77737 0
M  V30 29105 H 2747.38 -6.40182 -2.26592 0
M  V30 29106 H 2745.33 -5.11656 -4.10541 0
M  V30 29107 H 2745.25 -6.7224 -3.45875 0
M  V30 29108 H 2746.51 -6.31146 -4.57466 0
M  V30 29109 N 2750.74 0.196695 -1.56368 0
M  V30 29110 C 2751.67 1.24651 -1.97445 0
M  V30 29111 C 2752.66 1.4756 -0.846173 0
M  V30 29112 O 2753.84 1.59324 -1.11038 0
M  V30 29113 C 2750.97 2.59108 -2.31258 0
M  V30 29114 C 2749.92 2.50815 -3.46808 0
M  V30 29115 C 2749.25 3.8953 -3.66293 0
M  V30 29116 C 2750.55 2.03457 -4.81043 0
M  V30 29117 H 2752.24 0.905166 -2.85389 0
M  V30 29118 H 2749.79 0.433977 -1.37305 0
M  V30 29119 H 2751.74 3.32731 -2.58588 0
M  V30 29120 H 2750.47 2.9498 -1.40194 0
M  V30 29121 H 2749.13 1.79648 -3.19566 0
M  V30 29122 H 2748.77 4.22752 -2.72562 0
M  V30 29123 H 2748.47 3.84856 -4.44027 0
M  V30 29124 H 2750 4.64777 -3.95998 0
M  V30 29125 H 2751.41 2.66837 -5.07416 0
M  V30 29126 H 2749.81 2.09788 -5.62236 0
M  V30 29127 H 2750.88 0.987726 -4.74734 0
M  V30 29128 N 2752.22 1.50604 0.464349 0
M  V30 29129 C 2753.63 1.54712 1.04504 0
M  V30 29130 C 2753.98 0.354576 1.92969 0
M  V30 29131 O 2753.11 -0.531775 2.09764 0
M  V30 29132 C 2753.7 2.80372 1.90202 0
M  V30 29133 C 2752.26 2.87139 2.43368 0
M  V30 29134 C 2751.41 2.49078 1.21882 0
M  V30 29135 H 2754.36 1.56771 0.246689 0
M  V30 29136 H 2754.38 2.62609 2.75349 0
M  V30 29137 H 2753.89 3.67149 1.25789 0
M  V30 29138 H 2752 2.0473 3.11314 0
M  V30 29139 H 2752.11 3.90186 2.78014 0
M  V30 29140 H 2750.47 2.01667 1.55572 0
M  V30 29141 H 2751.26 3.38171 0.591209 0
M  V30 29142 N 2753.7 -0.717989 1.40295 0
M  V30 29143 C 2754.94 -1.4903 1.39891 0
M  V30 29144 C 2755.3 -1.92 -0.000429187 0
M  V30 29145 O 2756.51 -2.68488 -0.129575 0
M  V30 29146 C 2754.78 -2.68512 2.35873 0
M  V30 29147 S 2756.34 -3.5795 2.53806 0
M  V30 29148 H 2753.15 -0.509554 0.495858 0
M  V30 29149 H 2755.76 -0.839815 1.76543 0
M  V30 29150 H 2754.46 -2.35111 3.36379 0
M  V30 29151 H 2753.99 -3.38475 2.00496 0
M  V30 29152 H 2756.01 -4.6284 1.78867 0
M  V30 29153 N 2755.18 -1.25752 -0.94996 0
M  V30 29154 C 2756.41 -1.1353 -1.7297 0
M  V30 29155 C 2756.82 0.31042 -1.86231 0
M  V30 29156 O 2756.18 1.21318 -1.36339 0
M  V30 29157 C 2756.23 -1.78942 -3.14105 0
M  V30 29158 O 2755.95 -3.17863 -3.01487 0
M  V30 29159 C 2757.45 -1.72561 -4.08335 0
M  V30 29160 H 2754.67 -0.395768 -0.541857 0
M  V30 29161 H 2757.22 -1.66205 -1.19148 0
M  V30 29162 H 2755.37 -1.30227 -3.64856 0
M  V30 29163 H 2755.78 -3.50098 -3.90553 0
M  V30 29164 H 2757.26 -2.22981 -5.04959 0
M  V30 29165 H 2757.74 -0.690327 -4.33741 0
M  V30 29166 H 2758.34 -2.20786 -3.63502 0
M  V30 29167 N 2756.66 1.15326 -1.07413 0
M  V30 29168 C 2757.62 2.18283 -0.698952 0
M  V30 29169 C 2758.62 1.58666 0.261121 0
M  V30 29170 O 2759.81 1.74149 0.0419971 0
M  V30 29171 C 2756.94 3.40887 -0.0303026 0
M  V30 29172 H 2758.13 2.52988 -1.61049 0
M  V30 29173 H 2755.69 1.29799 -0.870747 0
M  V30 29174 H 2756.42 3.1175 0.89345 0
M  V30 29175 H 2756.21 3.85417 -0.720827 0
M  V30 29176 H 2757.7 4.17033 0.217517 0
M  V30 29177 N 2758.13 0.858334 1.32176 0
M  V30 29178 C 2759.08 0.303647 2.28794 0
M  V30 29179 C 2760.05 -0.591426 1.55214 0
M  V30 29180 O 2761.24 -0.525553 1.83419 0
M  V30 29181 C 2758.38 -0.49883 3.41476 0
M  V30 29182 C 2757.49 0.422448 4.2993 0
M  V30 29183 C 2756.62 -0.393018 5.29744 0
M  V30 29184 C 2755.66 0.525425 6.09841 0
M  V30 29185 N 2754.8 -0.253084 7.01644 0
M  V30 29186 H 2759.64 1.13281 2.75629 0
M  V30 29187 H 2757.18 0.570049 1.35605 0
M  V30 29188 H 2759.14 -0.979755 4.05533 0
M  V30 29189 H 2757.77 -1.29279 2.95782 0
M  V30 29190 H 2756.82 1.02178 3.6642 0
M  V30 29191 H 2758.13 1.12717 4.85897 0
M  V30 29192 H 2757.28 -0.936951 5.99421 0
M  V30 29193 H 2756.02 -1.13109 4.74402 0
M  V30 29194 H 2755.03 1.08121 5.39064 0
M  V30 29195 H 2756.25 1.26216 6.67268 0
M  V30 29196 H 2754.2 -0.974181 6.48726 0
M  V30 29197 H 2754.12 0.392531 7.5498 0
M  V30 29198 H 2755.38 -0.778625 7.75602 0
M  V30 29199 N 2759.61 -1.45036 0.616628 0
M  V30 29200 C 2760.86 -2.01772 0.115138 0
M  V30 29201 C 2761.18 -1.48641 -1.26218 0
M  V30 29202 O 2760.45 -0.684231 -1.83562 0
M  V30 29203 H 2759.03 -0.745951 0.0395738 0
M  V30 29204 H 2761.69 -1.77722 0.800064 0
M  V30 29205 H 2760.79 -3.12017 0.0717822 0
M  V30 29206 N 2761.09 -0.356312 -1.53519 0
M  V30 29207 C 2762.32 0.237291 -2.05535 0
M  V30 29208 C 2762.73 1.43197 -1.23045 0
M  V30 29209 O 2762.09 1.80509 -0.268852 0
M  V30 29210 C 2762.14 0.639871 -3.55792 0
M  V30 29211 O 2761.86 -0.50731 -4.35153 0
M  V30 29212 C 2763.36 1.29284 -4.24029 0
M  V30 29213 H 2760.58 0.0435454 -0.669586 0
M  V30 29214 H 2763.13 -0.511998 -1.97987 0
M  V30 29215 H 2761.28 1.33909 -3.63521 0
M  V30 29216 H 2761.7 -0.183842 -5.24178 0
M  V30 29217 H 2763.17 1.52517 -5.30511 0
M  V30 29218 H 2763.65 2.25033 -3.7717 0
M  V30 29219 H 2764.25 0.635316 -4.20528 0
M  V30 29220 N 2762.57 1.57369 -0.0852427 0
M  V30 29221 C 2763.98 1.81309 0.445397 0
M  V30 29222 C 2764.33 1.00016 1.68794 0
M  V30 29223 O 2763.46 0.226611 2.1521 0
M  V30 29224 C 2764.05 3.28856 0.814829 0
M  V30 29225 C 2762.61 3.53595 1.29026 0
M  V30 29226 C 2761.76 2.75862 0.28204 0
M  V30 29227 H 2764.71 1.55627 -0.310799 0
M  V30 29228 H 2764.73 3.4164 1.67518 0
M  V30 29229 H 2764.24 3.87996 -0.0896991 0
M  V30 29230 H 2762.34 2.99774 2.21284 0
M  V30 29231 H 2762.45 4.62265 1.2589 0
M  V30 29232 H 2760.82 2.4303 0.762139 0
M  V30 29233 H 2761.6 3.37747 -0.614995 0
M  V30 29234 N 2764.05 -0.188399 1.5647 0
M  V30 29235 C 2764.98 -1.25766 1.91613 0
M  V30 29236 C 2765.99 -1.41364 0.807461 0
M  V30 29237 O 2767.18 -1.41671 1.08589 0
M  V30 29238 C 2764.28 -2.62886 2.13879 0
M  V30 29239 C 2763.45 -2.68809 3.45051 0
M  V30 29240 C 2762.51 -3.87172 3.56349 0
M  V30 29241 O 2761.54 -3.73963 4.29116 0
M  V30 29242 N 2762.74 -5.02911 2.89932 0
M  V30 29243 H 2765.51 -0.959323 2.83931 0
M  V30 29244 H 2763.07 -0.378278 1.57419 0
M  V30 29245 H 2765.06 -3.40506 2.18718 0
M  V30 29246 H 2763.63 -2.8518 1.28027 0
M  V30 29247 H 2762.85 -1.77412 3.52021 0
M  V30 29248 H 2764.14 -2.69763 4.314 0
M  V30 29249 H 2763.53 -5.16542 2.30653 0
M  V30 29250 H 2762.09 -5.78454 3.0039 0
M  V30 29251 N 2765.53 -1.50848 -0.456355 0
M  V30 29252 C 2766.94 -1.55264 -1.03682 0
M  V30 29253 C 2767.29 -0.364805 -1.92779 0
M  V30 29254 O 2766.41 0.520643 -2.10043 0
M  V30 29255 C 2767.01 -2.81377 -1.88713 0
M  V30 29256 C 2765.57 -2.88426 -2.41842 0
M  V30 29257 C 2764.71 -2.49721 -1.20559 0
M  V30 29258 H 2767.66 -1.569 -0.238371 0
M  V30 29259 H 2767.69 -2.64065 -2.73952 0
M  V30 29260 H 2767.2 -3.67811 -1.2384 0
M  V30 29261 H 2765.3 -2.06378 -3.10224 0
M  V30 29262 H 2765.41 -3.91655 -2.7594 0
M  V30 29263 H 2763.78 -2.02489 -1.545 0
M  V30 29264 H 2764.56 -3.3848 -0.573266 0
M  V30 29265 N 2767 0.710538 -1.40674 0
M  V30 29266 C 2768.23 1.50462 -1.42744 0
M  V30 29267 C 2768.65 1.88076 -0.0302447 0
M  V30 29268 O 2768.01 1.53615 0.962918 0
M  V30 29269 C 2768.06 2.75318 -2.32878 0
M  V30 29270 O 2767.16 3.72222 -1.77551 0
M  V30 29271 H 2766.5 0.453441 -0.485064 0
M  V30 29272 H 2769.03 0.874648 -1.84962 0
M  V30 29273 H 2769.04 3.23792 -2.48239 0
M  V30 29274 H 2767.72 2.47277 -3.34405 0
M  V30 29275 H 2766.3 3.3109 -1.71562 0
M  V30 29276 N 2768.48 1.26254 0.943277 0
M  V30 29277 C 2769.73 1.1184 1.69173 0
M  V30 29278 C 2770.06 -0.337858 1.91238 0
M  V30 29279 O 2769.34 -1.24833 1.49154 0
M  V30 29280 C 2769.62 1.88568 3.0678 0
M  V30 29281 C 2769.47 3.42088 2.92054 0
M  V30 29282 C 2770.79 1.67783 4.06862 0
M  V30 29283 H 2767.91 0.407669 0.613983 0
M  V30 29284 H 2770.55 1.55224 1.09569 0
M  V30 29285 H 2768.7 1.51695 3.5766 0
M  V30 29286 H 2770.37 3.88702 2.48412 0
M  V30 29287 H 2768.62 3.69221 2.27725 0
M  V30 29288 H 2769.29 3.91001 3.89644 0
M  V30 29289 H 2771.76 1.99904 3.64935 0
M  V30 29290 H 2770.64 2.23888 5.01164 0
M  V30 29291 H 2770.9 0.621893 4.37704 0
M  V30 29292 N 2769.96 -1.14755 1.08024 0
M  V30 29293 C 2771.19 -1.89296 0.827679 0
M  V30 29294 C 2771.6 -1.78632 -0.623474 0
M  V30 29295 O 2770.94 -1.14074 -1.43989 0
M  V30 29296 C 2771 -3.4008 1.16559 0
M  V30 29297 C 2770.67 -3.74529 2.61872 0
M  V30 29298 C 2771.66 -3.74977 3.60122 0
M  V30 29299 C 2769.35 -4.04628 2.97626 0
M  V30 29300 C 2771.34 -4.05042 4.92158 0
M  V30 29301 C 2769.03 -4.34357 4.29858 0
M  V30 29302 C 2770.03 -4.34546 5.26933 0
M  V30 29303 O 2769.72 -4.63557 6.56788 0
M  V30 29304 H 2769.45 -0.606572 0.298407 0
M  V30 29305 H 2772 -1.46283 1.44189 0
M  V30 29306 H 2770.23 -3.83527 0.494363 0
M  V30 29307 H 2771.92 -3.95922 0.894476 0
M  V30 29308 H 2772.69 -3.51815 3.33843 0
M  V30 29309 H 2768.57 -4.03635 2.22709 0
M  V30 29310 H 2772.11 -4.05105 5.67922 0
M  V30 29311 H 2768.01 -4.56987 4.55887 0
M  V30 29312 H 2768.77 -4.81291 6.62043 0
M  V30 29313 N 2771.44 -0.865331 -1.31719 0
M  V30 29314 C 2772.68 -0.483979 -1.97558 0
M  V30 29315 C 2773.04 0.95224 -1.67183 0
M  V30 29316 O 2772.33 1.66079 -0.955421 0
M  V30 29317 C 2772.53 -0.672345 -3.51019 0
M  V30 29318 C 2772.35 -2.12532 -3.96308 0
M  V30 29319 C 2771.12 -2.76599 -4.22873 0
M  V30 29320 C 2773.32 -3.09709 -4.10591 0
M  V30 29321 N 2771.3 -4.12696 -4.54483 0
M  V30 29322 C 2772.68 -4.30824 -4.4586 0
M  V30 29323 C 2774.73 -3.05762 -3.92956 0
M  V30 29324 C 2773.43 -5.48504 -4.65335 0
M  V30 29325 C 2775.46 -4.22696 -4.13621 0
M  V30 29326 C 2774.82 -5.42571 -4.49217 0
M  V30 29327 H 2770.92 -0.226048 -0.748616 0
M  V30 29328 H 2773.5 -1.11896 -1.59334 0
M  V30 29329 H 2771.68 -0.0669907 -3.88342 0
M  V30 29330 H 2773.41 -0.259836 -4.03865 0
M  V30 29331 H 2770.16 -2.27575 -4.15339 0
M  V30 29332 H 2770.59 -4.82929 -4.74456 0
M  V30 29333 H 2775.23 -2.14195 -3.64528 0
M  V30 29334 H 2772.95 -6.40592 -4.92612 0
M  V30 29335 H 2776.53 -4.21089 -4.01467 0
M  V30 29336 H 2775.41 -6.31548 -4.64884 0
M  V30 29337 N 2772.92 1.44707 -0.624311 0
M  V30 29338 C 2774.16 2.02407 -0.126273 0
M  V30 29339 C 2774.49 1.48945 1.24615 0
M  V30 29340 O 2773.77 0.670774 1.82567 0
M  V30 29341 C 2774.05 3.59945 -0.105512 0
M  V30 29342 C 2773.91 4.23704 -1.5098 0
M  V30 29343 C 2775.22 4.36347 0.573552 0
M  V30 29344 H 2772.34 0.735477 -0.0473602 0
M  V30 29345 H 2774.99 1.72361 -0.799482 0
M  V30 29346 H 2773.14 3.85674 0.467762 0
M  V30 29347 H 2774.81 4.09106 -2.13144 0
M  V30 29348 H 2773.05 3.81461 -2.06567 0
M  V30 29349 H 2773.72 5.32687 -1.44736 0
M  V30 29350 H 2776.2 4.16011 0.0861056 0
M  V30 29351 H 2775.07 5.46064 0.557242 0
M  V30 29352 H 2775.33 4.10449 1.64269 0
M  V30 29353 N 2774.39 0.364449 1.53328 0
M  V30 29354 C 2775.32 -0.474503 2.28628 0
M  V30 29355 C 2776.3 -1.0849 1.31011 0
M  V30 29356 O 2777.49 -1.10236 1.5988 0
M  V30 29357 C 2774.62 -1.61496 3.07468 0
M  V30 29358 C 2773.57 -1.13187 4.12762 0
M  V30 29359 C 2772.9 -2.36247 4.79678 0
M  V30 29360 C 2774.2 -0.217416 5.21847 0
M  V30 29361 H 2775.89 0.153708 2.99005 0
M  V30 29362 H 2773.44 0.0753659 1.43803 0
M  V30 29363 H 2775.39 -2.20849 3.58892 0
M  V30 29364 H 2774.12 -2.27038 2.34779 0
M  V30 29365 H 2772.78 -0.561026 3.62282 0
M  V30 29366 H 2772.42 -3.00243 4.03563 0
M  V30 29367 H 2772.12 -2.04596 5.50831 0
M  V30 29368 H 2773.65 -2.96288 5.33897 0
M  V30 29369 H 2775.06 -0.718393 5.68781 0
M  V30 29370 H 2773.46 0.00816956 6.00099 0
M  V30 29371 H 2774.53 0.740738 4.79209 0
M  V30 29372 N 2775.87 -1.57322 0.0935872 0
M  V30 29373 C 2777.1 -1.99058 -0.582289 0
M  V30 29374 C 2777.52 -0.97227 -1.61023 0
M  V30 29375 O 2776.88 0.0594303 -1.81203 0
M  V30 29376 C 2776.93 -3.39767 -1.20793 0
M  V30 29377 O 2776.03 -3.40698 -2.32376 0
M  V30 29378 H 2775.37 -0.647325 -0.147872 0
M  V30 29379 H 2777.9 -2.03854 0.174552 0
M  V30 29380 H 2777.91 -3.77428 -1.54959 0
M  V30 29381 H 2776.59 -4.13405 -0.454841 0
M  V30 29382 H 2775.16 -3.14831 -1.9984 0
M  V30 29383 N 2777.35 0.180099 -1.56568 0
M  V30 29384 C 2778.63 0.924901 -1.72351 0
M  V30 29385 C 2779.01 2.00761 -0.652558 0
M  V30 29386 O 2778.35 2.26045 0.334075 0
M  V30 29387 C 2778.56 1.49765 -3.15232 0
M  V30 29388 C 2779.91 1.97398 -3.75924 0
M  V30 29389 O 2780.94 1.59577 -3.18455 0
M  V30 29390 O 2779.8 2.6704 -4.76814 0
M  V30 29391 H 2776.89 0.434746 -0.703509 0
M  V30 29392 H 2779.44 0.168617 -1.6886 0
M  V30 29393 H 2778.21 0.71796 -3.84657 0
M  V30 29394 H 2777.83 2.31836 -3.23013 0
M  V30 29395 N 2778.83 1.51088 0.448349 0
M  V30 29396 C 2780.08 1.62888 1.19632 0
M  V30 29397 C 2780.4 0.342058 1.91976 0
M  V30 29398 O 2779.67 -0.641604 1.85095 0
M  V30 29399 H 2778.25 0.600292 0.444587 0
M  V30 29400 H 2780.91 1.8797 0.515105 0
M  V30 29401 H 2780 2.4512 1.9319 0
M  V30 29402 N 2780.31 -0.703068 1.41049 0
M  V30 29403 C 2781.53 -1.49199 1.43343 0
M  V30 29404 C 2781.95 -1.88765 0.0365928 0
M  V30 29405 O 2781.31 -1.56286 -0.942391 0
M  V30 29406 C 2781.36 -2.75935 2.33543 0
M  V30 29407 O 2781.08 -2.38038 3.6779 0
M  V30 29408 C 2782.58 -3.69736 2.44562 0
M  V30 29409 H 2779.8 -0.460031 0.48848 0
M  V30 29410 H 2782.34 -0.866257 1.85246 0
M  V30 29411 H 2780.5 -3.34763 1.94968 0
M  V30 29412 H 2780.91 -3.19676 4.15822 0
M  V30 29413 H 2782.39 -4.55466 3.11857 0
M  V30 29414 H 2782.86 -4.13708 1.47454 0
M  V30 29415 H 2783.47 -3.16814 2.83741 0
M  V30 29416 N 2781.78 -1.26752 -0.936569 0
M  V30 29417 C 2782.69 -1.105 -2.06947 0
M  V30 29418 C 2783.71 -0.0373016 -1.7396 0
M  V30 29419 O 2784.89 -0.241979 -1.99941 0
M  V30 29420 C 2781.95 -0.74455 -3.38611 0
M  V30 29421 C 2781.01 -1.89216 -3.85352 0
M  V30 29422 C 2780.25 -1.54882 -5.10732 0
M  V30 29423 O 2780.47 -0.452645 -5.68601 0
M  V30 29424 O 2779.4 -2.38509 -5.52628 0
M  V30 29425 H 2783.23 -2.05551 -2.23567 0
M  V30 29426 H 2780.81 -1.05857 -1.05426 0
M  V30 29427 H 2782.7 -0.556469 -4.1771 0
M  V30 29428 H 2781.37 0.176525 -3.23218 0
M  V30 29429 H 2780.28 -2.13524 -3.07178 0
M  V30 29430 H 2781.61 -2.79313 -4.05272 0
M  V30 29431 N 2783.26 1.1418 -1.08631 0
M  V30 29432 C 2784.51 1.85545 -0.818589 0
M  V30 29433 C 2784.84 1.82855 0.654044 0
M  V30 29434 O 2784.12 1.26086 1.48097 0
M  V30 29435 C 2784.4 3.34078 -1.34403 0
M  V30 29436 C 2784.25 3.45328 -2.88217 0
M  V30 29437 C 2785.57 4.29251 -0.971144 0
M  V30 29438 H 2782.69 0.673697 -0.298833 0
M  V30 29439 H 2785.33 1.34068 -1.34632 0
M  V30 29440 H 2783.48 3.78047 -0.89513 0
M  V30 29441 H 2785.15 3.10128 -3.41494 0
M  V30 29442 H 2783.4 2.86465 -3.25761 0
M  V30 29443 H 2784.07 4.49743 -3.20055 0
M  V30 29444 H 2786.54 3.9331 -1.35816 0
M  V30 29445 H 2785.42 5.31632 -1.36595 0
M  V30 29446 H 2785.68 4.41933 0.121581 0
M  V30 29447 N 2784.74 0.872304 1.31258 0
M  V30 29448 C 2785.69 0.327897 2.28459 0
M  V30 29449 C 2786.66 -0.57493 1.55832 0
M  V30 29450 O 2787.84 -0.506069 1.83966 0
M  V30 29451 C 2784.98 -0.462584 3.41986 0
M  V30 29452 C 2784.1 0.468024 4.29457 0
M  V30 29453 C 2783.23 -0.33681 5.30131 0
M  V30 29454 C 2782.27 0.590077 6.09249 0
M  V30 29455 N 2781.41 -0.178651 7.01873 0
M  V30 29456 H 2786.25 1.16198 2.74412 0
M  V30 29457 H 2783.78 0.5844 1.34993 0
M  V30 29458 H 2785.74 -0.936688 4.06549 0
M  V30 29459 H 2784.37 -1.26135 2.97136 0
M  V30 29460 H 2783.42 1.06058 3.65316 0
M  V30 29461 H 2784.74 1.17864 4.84675 0
M  V30 29462 H 2783.89 -0.873322 6.00382 0
M  V30 29463 H 2782.63 -1.08071 4.75575 0
M  V30 29464 H 2781.63 1.13833 5.37887 0
M  V30 29465 H 2782.86 1.33287 6.65891 0
M  V30 29466 H 2780.8 -0.90532 6.49723 0
M  V30 29467 H 2780.72 0.472585 7.54521 0
M  V30 29468 H 2781.99 -0.696318 7.76384 0
M  V30 29469 N 2786.22 -1.44374 0.631976 0
M  V30 29470 C 2787.63 -1.8541 0.219069 0
M  V30 29471 C 2787.98 -1.52881 -1.22971 0
M  V30 29472 O 2787.11 -0.9673 -1.93578 0
M  V30 29473 C 2787.7 -3.36538 0.390809 0
M  V30 29474 C 2786.26 -3.76386 0.0324013 0
M  V30 29475 C 2785.41 -2.6822 0.703791 0
M  V30 29476 H 2788.36 -1.34828 0.837079 0
M  V30 29477 H 2788.38 -3.78697 -0.36999 0
M  V30 29478 H 2787.89 -3.60183 1.44534 0
M  V30 29479 H 2785.99 -3.58357 -1.02036 0
M  V30 29480 H 2786.1 -4.77047 0.443052 0
M  V30 29481 H 2784.47 -2.5432 0.139018 0
M  V30 29482 H 2785.25 -2.94697 1.76093 0
M  V30 29483 N 2787.7 -0.372575 -1.53133 0
M  V30 29484 C 2788.63 0.462372 -2.28876 0
M  V30 29485 C 2789.61 1.07793 -1.31585 0
M  V30 29486 O 2790.79 1.09387 -1.60462 0
M  V30 29487 C 2787.92 1.59863 -3.0832 0
M  V30 29488 C 2786.88 1.10996 -4.13357 0
M  V30 29489 C 2786.2 2.337 -4.80925 0
M  V30 29490 C 2787.5 0.189738 -5.21955 0
M  V30 29491 H 2789.2 -0.169563 -2.98919 0
M  V30 29492 H 2786.74 -0.0829911 -1.43761 0
M  V30 29493 H 2788.7 2.18942 -3.60059 0
M  V30 29494 H 2787.42 2.2579 -2.3598 0
M  V30 29495 H 2786.08 0.541805 -3.62574 0
M  V30 29496 H 2785.73 2.98099 -4.05149 0
M  V30 29497 H 2785.43 2.01672 -5.51908 0
M  V30 29498 H 2786.95 2.93453 -5.35461 0
M  V30 29499 H 2788.36 0.688219 -5.69154 0
M  V30 29500 H 2786.76 -0.0399942 -6.00087 0
M  V30 29501 H 2787.83 -0.766141 -4.78809 0
M  V30 29502 N 2789.17 1.5727 -0.101929 0
M  V30 29503 C 2790.11 2.11438 0.884685 0
M  V30 29504 C 2791.12 1.05316 1.24147 0
M  V30 29505 O 2792.31 1.32742 1.19339 0
M  V30 29506 C 2789.41 2.58488 2.19174 0
M  V30 29507 C 2788.58 3.8852 2.00926 0
M  V30 29508 C 2787.64 4.21346 3.15205 0
M  V30 29509 O 2786.67 4.90453 2.88868 0
M  V30 29510 N 2787.87 3.77295 4.41167 0
M  V30 29511 H 2790.63 2.96714 0.422006 0
M  V30 29512 H 2788.19 1.61687 0.0829844 0
M  V30 29513 H 2790.19 2.77489 2.94588 0
M  V30 29514 H 2788.76 1.78185 2.56844 0
M  V30 29515 H 2787.98 3.78599 1.09803 0
M  V30 29516 H 2789.26 4.73577 1.86018 0
M  V30 29517 H 2788.66 3.21524 4.65445 0
M  V30 29518 H 2787.22 4.01438 5.13508 0
M  V30 29519 N 2790.65 -0.171793 1.56661 0
M  V30 29520 C 2791.9 -0.888497 1.81967 0
M  V30 29521 C 2792.23 -1.82266 0.678932 0
M  V30 29522 O 2791.48 -1.92832 -0.333841 0
M  V30 29523 C 2791.78 -1.7173 3.13438 0
M  V30 29524 C 2791.45 -0.932106 4.4116 0
M  V30 29525 C 2790.11 -0.715398 4.75852 0
M  V30 29526 C 2792.46 -0.381296 5.19803 0
M  V30 29527 C 2789.79 0.0632291 5.86666 0
M  V30 29528 C 2792.14 0.38424 6.31432 0
M  V30 29529 C 2790.81 0.611754 6.64691 0
M  V30 29530 H 2790.08 -0.325124 0.665864 0
M  V30 29531 H 2792.72 -0.153462 1.90884 0
M  V30 29532 H 2791.03 -2.52171 2.99861 0
M  V30 29533 H 2792.72 -2.27487 3.30228 0
M  V30 29534 H 2789.31 -1.11105 4.13949 0
M  V30 29535 H 2793.5 -0.536061 4.93396 0
M  V30 29536 H 2788.75 0.249243 6.10892 0
M  V30 29537 H 2792.93 0.818306 6.91576 0
M  V30 29538 H 2790.56 1.21697 7.50396 0
M  V30 29539 N 2792.13 -1.51324 -0.44033 0
M  V30 29540 C 2793.36 -1.67647 -1.21252 0
M  V30 29541 C 2793.77 -0.372552 -1.85088 0
M  V30 29542 O 2793.13 0.648653 -1.70584 0
M  V30 29543 C 2793.18 -2.78997 -2.29876 0
M  V30 29544 O 2792.9 -4.04337 -1.68652 0
M  V30 29545 C 2794.4 -3.06563 -3.20209 0
M  V30 29546 H 2791.62 -0.562672 -0.36557 0
M  V30 29547 H 2794.17 -1.97723 -0.522105 0
M  V30 29548 H 2792.32 -2.51529 -2.94639 0
M  V30 29549 H 2792.74 -4.66154 -2.40418 0
M  V30 29550 H 2794.21 -3.88065 -3.92568 0
M  V30 29551 H 2794.69 -2.18851 -3.8079 0
M  V30 29552 H 2795.29 -3.35679 -2.6115 0
M  V30 29553 N 2793.61 0.695578 -1.41419 0
M  V30 29554 C 2794.56 1.83082 -1.43471 0
M  V30 29555 C 2795.55 1.66488 -0.312748 0
M  V30 29556 O 2796.76 1.73349 -0.484775 0
M  V30 29557 H 2793.13 0.603317 -0.448902 0
M  V30 29558 H 2795.1 1.78469 -2.39147 0
M  V30 29559 C 2793.85 3.21101 -1.33376 0
M  V30 29560 H 2793.17 3.34486 -2.18995 0
M  V30 29561 H 2794.61 4.00613 -1.38872 0
M  V30 29562 C 2793.07 3.36868 -0.0461076 0
M  V30 29563 O 2793.6 3.91276 0.909189 0
M  V30 29564 N 2791.81 2.90585 0.0299712 0
M  V30 29565 H 2791.36 2.46496 -0.748173 0
M  V30 29566 H 2791.31 3.01512 0.890938 0
M  V30 29567 N 2795.09 1.27247 0.929833 0
M  V30 29568 C 2796.31 1.16377 1.71672 0
M  V30 29569 C 2796.74 -0.275991 1.86064 0
M  V30 29570 O 2796.1 -1.1999 1.35912 0
M  V30 29571 C 2796.14 1.85008 3.09523 0
M  V30 29572 O 2795.25 1.1466 3.9614 0
M  V30 29573 H 2794.59 0.404873 0.526283 0
M  V30 29574 H 2797.12 1.68278 1.16378 0
M  V30 29575 H 2797.13 1.92283 3.59849 0
M  V30 29576 H 2795.8 2.89744 2.98364 0
M  V30 29577 H 2794.38 1.15439 3.54582 0
M  V30 29578 N 2796.57 -1.13603 1.09235 0
M  V30 29579 C 2797.51 -2.18953 0.72996 0
M  V30 29580 C 2798.48 -1.63586 -0.287887 0
M  V30 29581 O 2799.67 -1.90041 -0.16997 0
M  V30 29582 C 2796.81 -3.44754 0.154549 0
M  V30 29583 C 2795.92 -4.14232 1.2262 0
M  V30 29584 C 2795.06 -5.27642 0.61375 0
M  V30 29585 C 2794.09 -5.88967 1.66684 0
M  V30 29586 N 2793.23 -6.93813 1.07557 0
M  V30 29587 H 2798.07 -2.49299 1.63261 0
M  V30 29588 H 2795.61 -1.22411 0.815715 0
M  V30 29589 H 2797.57 -4.16735 -0.19685 0
M  V30 29590 H 2796.2 -3.14864 -0.711377 0
M  V30 29591 H 2795.25 -3.40554 1.69491 0
M  V30 29592 H 2796.56 -4.55895 2.02388 0
M  V30 29593 H 2795.71 -6.06333 0.211082 0
M  V30 29594 H 2794.45 -4.87224 -0.215498 0
M  V30 29595 H 2793.46 -5.08974 2.07908 0
M  V30 29596 H 2794.68 -6.31459 2.49872 0
M  V30 29597 H 2792.63 -6.55454 0.267567 0
M  V30 29598 H 2792.55 -7.34007 1.81024 0
M  V30 29599 H 2793.81 -7.76359 0.699042 0
M  V30 29600 N 2798.04 -0.879253 -1.30793 0
M  V30 29601 C 2798.97 -0.357836 -2.30742 0
M  V30 29602 C 2799.95 0.556255 -1.60748 0
M  V30 29603 O 2801.14 0.471317 -1.88394 0
M  V30 29604 C 2798.27 0.433494 -3.44584 0
M  V30 29605 C 2797.22 -0.388326 -4.26235 0
M  V30 29606 C 2796.55 0.529259 -5.32074 0
M  V30 29607 C 2797.85 -1.62738 -4.963 0
M  V30 29608 H 2799.54 -1.19304 -2.74603 0
M  V30 29609 H 2797.09 -0.575127 -1.32016 0
M  V30 29610 H 2799.04 0.808861 -4.13564 0
M  V30 29611 H 2797.77 1.30229 -2.99513 0
M  V30 29612 H 2796.43 -0.745758 -3.58935 0
M  V30 29613 H 2796.07 1.3956 -4.83251 0
M  V30 29614 H 2795.77 -0.0167774 -5.87598 0
M  V30 29615 H 2797.3 0.901267 -6.03912 0
M  V30 29616 H 2798.71 -1.32293 -5.57827 0
M  V30 29617 H 2797.11 -2.11318 -5.61662 0
M  V30 29618 H 2798.18 -2.37502 -4.22754 0
M  V30 29619 N 2799.52 1.44037 -0.639624 0
M  V30 29620 C 2800.77 2.01962 -0.147515 0
M  V30 29621 C 2801.1 1.50367 1.23369 0
M  V30 29622 O 2800.35 0.681533 1.83449 0
M  V30 29623 C 2800.65 3.5728 -0.0925976 0
M  V30 29624 C 2800.32 4.28164 -1.41372 0
M  V30 29625 C 2798.98 4.47245 -1.77553 0
M  V30 29626 C 2801.33 4.68423 -2.28538 0
M  V30 29627 C 2798.66 5.03847 -3.00592 0
M  V30 29628 C 2801.01 5.26387 -3.50855 0
M  V30 29629 C 2799.67 5.43686 -3.87249 0
M  V30 29630 H 2798.94 0.739031 -0.0539796 0
M  V30 29631 H 2801.59 1.72692 -0.827629 0
M  V30 29632 H 2799.9 3.86013 0.670919 0
M  V30 29633 H 2801.59 3.9984 0.30482 0
M  V30 29634 H 2798.18 4.13649 -1.12218 0
M  V30 29635 H 2802.37 4.53386 -2.01878 0
M  V30 29636 H 2797.62 5.15426 -3.28855 0
M  V30 29637 H 2801.8 5.5653 -4.18625 0
M  V30 29638 H 2799.42 5.87311 -4.8267 0
M  V30 29639 N 2801 0.380691 1.52933 0
M  V30 29640 C 2801.93 -0.450227 2.29118 0
M  V30 29641 C 2802.91 -1.07094 1.32155 0
M  V30 29642 O 2804.1 -1.08534 1.6104 0
M  V30 29643 C 2801.23 -1.58226 3.09163 0
M  V30 29644 C 2800.18 -1.08802 4.1394 0
M  V30 29645 C 2799.51 -2.31146 4.82157 0
M  V30 29646 C 2800.81 -0.162055 5.22049 0
M  V30 29647 H 2802.5 0.185413 2.98825 0
M  V30 29648 H 2800.05 0.0906139 1.43715 0
M  V30 29649 H 2802 -2.1703 3.61215 0
M  V30 29650 H 2800.72 -2.24535 2.37174 0
M  V30 29651 H 2799.38 -0.52257 3.62856 0
M  V30 29652 H 2799.03 -2.95946 4.06724 0
M  V30 29653 H 2798.73 -1.98742 5.5297 0
M  V30 29654 H 2800.25 -2.90609 5.37009 0
M  V30 29655 H 2801.67 -0.658026 5.69511 0
M  V30 29656 H 2800.06 0.0718177 6.00057 0
M  V30 29657 H 2801.13 0.791522 4.78396 0
M  V30 29658 N 2802.48 -1.57214 0.110268 0
M  V30 29659 C 2803.72 -1.94892 -0.549835 0
M  V30 29660 C 2804.05 -0.993013 -1.67241 0
M  V30 29661 O 2803.31 -0.0153047 -1.95694 0
M  V30 29662 C 2803.61 -3.39034 -1.13096 0
M  V30 29663 C 2803.27 -4.50711 -0.130633 0
M  V30 29664 C 2801.93 -4.80983 0.144455 0
M  V30 29665 C 2804.29 -5.18273 0.551564 0
M  V30 29666 C 2801.61 -5.76139 1.10817 0
M  V30 29667 C 2803.97 -6.14465 1.50386 0
M  V30 29668 C 2802.63 -6.43134 1.78702 0
M  V30 29669 H 2801.9 -0.713162 -0.201199 0
M  V30 29670 H 2804.55 -1.90562 0.189322 0
M  V30 29671 H 2802.85 -3.40016 -1.94669 0
M  V30 29672 H 2804.55 -3.65496 -1.64966 0
M  V30 29673 H 2801.14 -4.27125 -0.355226 0
M  V30 29674 H 2805.32 -4.95049 0.352197 0
M  V30 29675 H 2800.58 -5.9666 1.3344 0
M  V30 29676 H 2804.75 -6.65906 2.0382 0
M  V30 29677 H 2802.38 -7.16676 2.53534 0
M  V30 29678 N 2803.96 0.163482 -1.5675 0
M  V30 29679 C 2805.18 0.898231 -1.8694 0
M  V30 29680 C 2805.61 1.7469 -0.697486 0
M  V30 29681 O 2804.96 1.77824 0.353296 0
M  V30 29682 C 2805.01 1.74436 -3.15602 0
M  V30 29683 O 2804.12 2.84684 -2.98376 0
M  V30 29684 H 2803.46 0.251167 -0.614664 0
M  V30 29685 H 2805.99 0.159262 -2.03979 0
M  V30 29686 H 2806 2.14271 -3.47206 0
M  V30 29687 H 2804.67 1.12103 -4.00507 0
M  V30 29688 H 2803.25 2.48375 -2.78144 0
M  V30 29689 N 2805.43 1.51555 0.432299 0
M  V30 29690 C 2806.38 1.73813 1.54569 0
M  V30 29691 C 2807.38 0.604566 1.58245 0
M  V30 29692 O 2808.58 0.78607 1.61929 0
M  V30 29693 H 2804.96 0.549274 0.513617 0
M  V30 29694 H 2806.93 2.67135 1.32972 0
M  V30 29695 C 2805.68 1.88488 2.92177 0
M  V30 29696 H 2805 2.75121 2.90083 0
M  V30 29697 H 2806.44 2.08072 3.69435 0
M  V30 29698 C 2804.9 0.645967 3.30649 0
M  V30 29699 O 2805.43 -0.197022 4.01217 0
M  V30 29700 N 2803.63 0.488588 2.86463 0
M  V30 29701 H 2803.18 1.17566 2.29207 0
M  V30 29702 H 2803.14 -0.339101 3.12566 0
M  V30 29703 N 2806.91 -0.688069 1.41786 0
M  V30 29704 C 2808.16 -1.44527 1.41267 0
M  V30 29705 C 2808.48 -1.94984 0.0253289 0
M  V30 29706 O 2807.75 -1.72198 -0.934051 0
M  V30 29707 H 2806.33 -0.536285 0.520007 0
M  V30 29708 H 2808.99 -0.81391 1.77092 0
M  V30 29709 H 2808.09 -2.30478 2.10443 0
M  V30 29710 N 2808.39 -1.27739 -0.923072 0
M  V30 29711 C 2809.62 -1.17174 -1.70523 0
M  V30 29712 C 2810.03 0.270848 -1.86847 0
M  V30 29713 O 2809.39 1.18399 -1.38881 0
M  V30 29714 C 2809.44 -1.85564 -3.10239 0
M  V30 29715 O 2809.16 -3.24187 -2.94677 0
M  V30 29716 C 2810.66 -1.81183 -4.04583 0
M  V30 29717 H 2807.88 -0.407172 -0.53334 0
M  V30 29718 H 2810.43 -1.68694 -1.15596 0
M  V30 29719 H 2808.58 -1.37937 -3.62011 0
M  V30 29720 H 2809 -3.58304 -3.83039 0
M  V30 29721 H 2810.47 -2.33642 -5.00115 0
M  V30 29722 H 2810.95 -0.782175 -4.32179 0
M  V30 29723 H 2811.55 -2.28447 -3.58737 0
M  V30 29724 N 2809.87 1.13022 -1.09836 0
M  V30 29725 C 2810.8 2.20665 -0.76349 0
M  V30 29726 C 2811.78 1.6809 0.260748 0
M  V30 29727 O 2812.96 1.93778 0.127881 0
M  V30 29728 C 2810.09 3.46792 -0.187805 0
M  V30 29729 C 2809.05 4.12482 -1.14203 0
M  V30 29730 C 2808.37 5.32986 -0.427849 0
M  V30 29731 C 2809.67 4.59334 -2.48615 0
M  V30 29732 H 2811.37 2.48933 -1.66351 0
M  V30 29733 H 2808.91 1.19647 -0.801282 0
M  V30 29734 H 2810.87 4.21359 0.0585635 0
M  V30 29735 H 2809.59 3.17932 0.747429 0
M  V30 29736 H 2808.25 3.39888 -1.37375 0
M  V30 29737 H 2807.9 5.00391 0.511659 0
M  V30 29738 H 2807.6 5.77884 -1.06413 0
M  V30 29739 H 2809.12 6.10305 -0.189879 0
M  V30 29740 H 2810.54 5.25304 -2.29628 0
M  V30 29741 H 2808.93 5.14988 -3.08071 0
M  V30 29742 H 2810 3.73637 -3.09069 0
M  V30 29743 N 2811.35 0.886177 1.30325 0
M  V30 29744 C 2812.58 0.519457 1.99963 0
M  V30 29745 C 2812.98 -0.89683 1.66594 0
M  V30 29746 O 2812.33 -1.60148 0.899914 0
M  V30 29747 C 2812.39 0.615857 3.54186 0
M  V30 29748 C 2812.05 1.99667 4.11074 0
M  V30 29749 C 2813.05 2.96622 4.2698 0
M  V30 29750 C 2810.74 2.30238 4.46425 0
M  V30 29751 C 2812.73 4.22281 4.77449 0
M  V30 29752 C 2810.42 3.56143 4.96594 0
M  V30 29753 C 2811.41 4.51979 5.12058 0
M  V30 29754 O 2811.1 5.7565 5.61144 0
M  V30 29755 H 2810.83 0.199228 0.645975 0
M  V30 29756 H 2813.39 1.19371 1.67152 0
M  V30 29757 H 2811.62 -0.11538 3.86528 0
M  V30 29758 H 2813.31 0.260241 4.05065 0
M  V30 29759 H 2814.07 2.74315 3.9997 0
M  V30 29760 H 2809.95 1.56411 4.33655 0
M  V30 29761 H 2813.5 4.97091 4.89435 0
M  V30 29762 H 2809.39 3.78286 5.23039 0
M  V30 29763 H 2810.16 5.78049 5.79484 0
M  V30 29764 N 2812.82 -1.43695 0.647253 0
M  V30 29765 C 2814.07 -2.01099 0.155588 0
M  V30 29766 C 2814.39 -1.51627 -1.23567 0
M  V30 29767 O 2815.59 -2.01264 -1.82222 0
M  V30 29768 C 2814.05 -3.59181 0.227359 0
M  V30 29769 C 2813.66 -4.17648 1.62093 0
M  V30 29770 C 2815.4 -4.23995 -0.207011 0
M  V30 29771 C 2813.31 -5.68005 1.64695 0
M  V30 29772 H 2812.24 -0.752035 0.0544027 0
M  V30 29773 H 2814.89 -1.64733 0.808415 0
M  V30 29774 H 2813.27 -3.92921 -0.492868 0
M  V30 29775 H 2814.44 -3.95418 2.36603 0
M  V30 29776 H 2812.76 -3.65183 2.00077 0
M  V30 29777 H 2815.36 -5.34298 -0.207332 0
M  V30 29778 H 2815.7 -3.97486 -1.23735 0
M  V30 29779 H 2816.23 -3.95117 0.461263 0
M  V30 29780 H 2812.97 -5.99272 2.65619 0
M  V30 29781 H 2812.49 -5.92309 0.945018 0
M  V30 29782 H 2814.17 -6.31936 1.38804 0
M  V30 29783 N 2814.3 -0.388796 -1.52729 0
M  V30 29784 C 2815.72 -0.038733 -1.59553 0
M  V30 29785 C 2815.92 1.4465 -1.40281 0
M  V30 29786 O 2814.97 2.21095 -1.21955 0
M  V30 29787 C 2816.29 -0.515461 -2.96249 0
M  V30 29788 C 2817.84 -0.471675 -3.09426 0
M  V30 29789 C 2818.31 -0.924584 -4.4857 0
M  V30 29790 N 2819.8 -0.880576 -4.54753 0
M  V30 29791 C 2820.54 -1.20244 -5.60651 0
M  V30 29792 N 2820.03 -1.59474 -6.74196 0
M  V30 29793 N 2821.83 -1.12372 -5.50753 0
M  V30 29794 H 2813.98 -1.35572 -1.63505 0
M  V30 29795 H 2816.24 -0.555649 -0.768087 0
M  V30 29796 H 2815.95 -1.55276 -3.15567 0
M  V30 29797 H 2815.82 0.0857258 -3.77103 0
M  V30 29798 H 2818.21 0.556537 -2.89805 0
M  V30 29799 H 2818.29 -1.10866 -2.30526 0
M  V30 29800 H 2817.93 -1.95102 -4.68932 0
M  V30 29801 H 2817.86 -0.264616 -5.25935 0
M  V30 29802 H 2820.35 -0.591881 -3.73236 0
M  V30 29803 H 2820.67 -1.82399 -7.50966 0
M  V30 29804 H 2819.01 -1.63361 -6.75528 0
M  V30 29805 H 2822.2 -0.81625 -4.60928 0
M  V30 29806 H 2822.37 -1.37788 -6.33181 0
M  V30 29807 N 2815.78 1.57153 -0.118604 0
M  V30 29808 C 2816.73 2.16549 0.849076 0
M  V30 29809 C 2817.72 1.11461 1.27565 0
M  V30 29810 O 2818.93 1.29765 1.24744 0
M  V30 29811 H 2815.3 0.693026 0.291923 0
M  V30 29812 H 2817.27 2.9664 0.323641 0
M  V30 29813 C 2816.02 2.77915 2.08946 0
M  V30 29814 H 2815.35 3.58477 1.77015 0
M  V30 29815 H 2816.79 3.23013 2.74661 0
M  V30 29816 C 2815.25 1.74979 2.87896 0
M  V30 29817 O 2815.78 1.20292 3.83266 0
M  V30 29818 N 2813.98 1.44929 2.51881 0
M  V30 29819 H 2813.53 1.8959 1.74394 0
M  V30 29820 H 2813.49 0.762975 3.05002 0
M  V30 29821 N 2817.26 -0.155167 1.56834 0
M  V30 29822 C 2818.19 -1.19372 2.0068 0
M  V30 29823 C 2819.17 -1.45265 0.884998 0
M  V30 29824 O 2820.35 -1.56324 1.15223 0
M  V30 29825 C 2817.48 -2.52886 2.38046 0
M  V30 29826 C 2816.44 -2.41531 3.53336 0
M  V30 29827 C 2815.76 -3.79681 3.76492 0
M  V30 29828 C 2817.06 -1.90631 4.86268 0
M  V30 29829 H 2818.76 -0.829182 2.87689 0
M  V30 29830 H 2816.3 -0.397421 1.38407 0
M  V30 29831 H 2818.26 -3.25758 2.67319 0
M  V30 29832 H 2816.98 -2.9116 1.47965 0
M  V30 29833 H 2815.64 -1.71112 3.24216 0
M  V30 29834 H 2815.29 -4.15377 2.83675 0
M  V30 29835 H 2814.99 -3.72948 4.54074 0
M  V30 29836 H 2816.51 -4.54115 4.08182 0
M  V30 29837 H 2817.93 -2.5329 5.14312 0
M  V30 29838 H 2816.32 -1.94808 5.676 0
M  V30 29839 H 2817.39 -0.861512 4.77185 0
M  V30 29840 N 2818.74 -1.51782 -0.424256 0
M  V30 29841 C 2819.7 -1.73434 -1.49845 0
M  V30 29842 C 2820.7 -0.604251 -1.49015 0
M  V30 29843 O 2821.89 -0.871962 -1.50806 0
M  V30 29844 C 2819.02 -1.80282 -2.89329 0
M  V30 29845 H 2820.21 -2.69315 -1.31946 0
M  V30 29846 H 2817.77 -1.4197 -0.653784 0
M  V30 29847 H 2818.5 -0.862623 -3.12617 0
M  V30 29848 H 2818.29 -2.62424 -2.91335 0
M  V30 29849 H 2819.78 -1.98827 -3.67229 0
M  V30 29850 N 2820.21 0.68054 -1.42149 0
M  V30 29851 C 2821.44 1.47401 -1.45903 0
M  V30 29852 C 2821.86 1.87969 -0.0701315 0
M  V30 29853 O 2821.22 1.55623 0.930117 0
M  V30 29854 C 2821.27 2.70317 -2.38666 0
M  V30 29855 O 2820.37 3.68373 -1.85406 0
M  V30 29856 H 2819.72 0.443051 -0.494573 0
M  V30 29857 H 2822.25 0.835218 -1.86776 0
M  V30 29858 H 2822.26 3.18454 -2.55051 0
M  V30 29859 H 2820.93 2.40128 -3.39575 0
M  V30 29860 H 2819.51 3.27377 -1.78546 0
M  V30 29861 N 2821.69 1.28226 0.916285 0
M  V30 29862 C 2822.92 1.18191 1.70428 0
M  V30 29863 C 2823.34 -0.256241 1.86346 0
M  V30 29864 O 2822.7 -1.18542 1.37177 0
M  V30 29865 C 2822.75 1.88281 3.07543 0
M  V30 29866 O 2821.85 1.18855 3.94902 0
M  V30 29867 H 2821.19 0.410432 0.521959 0
M  V30 29868 H 2823.72 1.69503 1.14586 0
M  V30 29869 H 2823.73 1.96089 3.57789 0
M  V30 29870 H 2822.41 2.92893 2.95274 0
M  V30 29871 H 2820.99 1.19194 3.53337 0
M  V30 29872 N 2823.17 -1.12438 1.10433 0
M  V30 29873 C 2824.45 -1.80281 0.758829 0
M  V30 29874 C 2824.83 -1.97149 -0.754692 0
M  V30 29875 O 2824.18 -1.54782 -1.68091 0
M  V30 29876 C 2824.39 -3.14649 1.50987 0
M  V30 29877 C 2825.73 -3.89847 1.68239 0
M  V30 29878 O 2826.76 -3.24305 1.47325 0
M  V30 29879 O 2825.62 -5.07433 2.02914 0
M  V30 29880 H 2822.71 -0.780371 0.27377 0
M  V30 29881 H 2825.26 -1.19273 1.20715 0
M  V30 29882 H 2824.03 -2.97662 2.53994 0
M  V30 29883 H 2823.65 -3.83364 1.05441 0
M  V30 29884 N 2824.65 -0.893076 -1.29853 0
M  V30 29885 C 2826.07 -0.588225 -1.48365 0
M  V30 29886 C 2826.27 0.871986 -1.81655 0
M  V30 29887 O 2825.32 1.65265 -1.90903 0
M  V30 29888 C 2826.63 -1.50835 -2.60133 0
M  V30 29889 C 2828.18 -1.51284 -2.74011 0
M  V30 29890 C 2828.66 -2.41909 -3.88901 0
M  V30 29891 N 2830.15 -2.39918 -3.96224 0
M  V30 29892 C 2830.88 -3.06747 -4.84452 0
M  V30 29893 N 2830.38 -3.8283 -5.77419 0
M  V30 29894 N 2832.17 -2.95938 -4.77888 0
M  V30 29895 H 2824.32 -1.83759 -1.06519 0
M  V30 29896 H 2826.59 -0.787027 -0.528481 0
M  V30 29897 H 2826.29 -2.54844 -2.42379 0
M  V30 29898 H 2826.17 -1.22394 -3.56791 0
M  V30 29899 H 2828.55 -0.48023 -2.91166 0
M  V30 29900 H 2828.63 -1.8376 -1.77949 0
M  V30 29901 H 2828.28 -3.4526 -3.72502 0
M  V30 29902 H 2828.21 -2.06746 -4.84318 0
M  V30 29903 H 2830.7 -1.84634 -3.29725 0
M  V30 29904 H 2831.01 -4.30894 -6.41522 0
M  V30 29905 H 2829.36 -3.86938 -5.77325 0
M  V30 29906 H 2832.55 -2.36019 -4.04244 0
M  V30 29907 H 2832.72 -3.48296 -5.46438 0
M  V30 29908 N 2826.13 1.4335 -0.654865 0
M  V30 29909 C 2827.38 2.01396 -0.168594 0
M  V30 29910 C 2827.7 1.51935 1.22232 0
M  V30 29911 O 2826.97 0.732659 1.81684 0
M  V30 29912 H 2825.55 0.74464 -0.0593375 0
M  V30 29913 H 2828.21 1.75538 -0.846902 0
M  V30 29914 H 2827.3 3.11717 -0.154483 0
M  V30 29915 N 2827.61 0.39689 1.52521 0
M  V30 29916 C 2828.83 -0.182714 2.06092 0
M  V30 29917 C 2829.25 -1.39884 1.26799 0
M  V30 29918 O 2828.61 -1.79733 0.316616 0
M  V30 29919 C 2828.66 -0.545314 3.57363 0
M  V30 29920 O 2828.38 0.622505 4.33655 0
M  V30 29921 C 2829.88 -1.17997 4.27307 0
M  V30 29922 H 2827.1 -0.0257772 0.670505 0
M  V30 29923 H 2829.64 0.564311 1.9656 0
M  V30 29924 H 2827.8 -1.24223 3.66943 0
M  V30 29925 H 2828.21 0.322754 5.23506 0
M  V30 29926 H 2829.69 -1.38398 5.34369 0
M  V30 29927 H 2830.16 -2.14954 3.83003 0
M  V30 29928 H 2830.77 -0.523597 4.22065 0
M  V30 29929 N 2829.08 -1.57088 0.126936 0
M  V30 29930 C 2830.31 -1.9953 -0.535857 0
M  V30 29931 C 2830.72 -1.00569 -1.60258 0
M  V30 29932 O 2830.06 0.0084004 -1.83698 0
M  V30 29933 C 2830.13 -3.38393 -1.21368 0
M  V30 29934 C 2829.79 -4.56054 -0.293964 0
M  V30 29935 C 2830.79 -5.17766 0.470545 0
M  V30 29936 C 2828.47 -5.01891 -0.20272 0
M  V30 29937 C 2830.47 -6.2371 1.31395 0
M  V30 29938 C 2828.15 -6.07694 0.64431 0
M  V30 29939 C 2829.15 -6.68471 1.40127 0
M  V30 29940 O 2828.84 -7.72229 2.23422 0
M  V30 29941 H 2828.57 -0.660092 -0.145787 0
M  V30 29942 H 2831.13 -2.04298 0.212477 0
M  V30 29943 H 2829.36 -3.30403 -2.00925 0
M  V30 29944 H 2831.04 -3.65072 -1.77418 0
M  V30 29945 H 2831.81 -4.83264 0.409969 0
M  V30 29946 H 2827.69 -4.54326 -0.781608 0
M  V30 29947 H 2831.23 -6.71078 1.90526 0
M  V30 29948 H 2827.13 -6.41625 0.70625 0
M  V30 29949 H 2827.9 -7.89362 2.1645 0
M  V30 29950 N 2830.56 0.146848 -1.56914 0
M  V30 29951 C 2831.47 1.20075 -2.01542 0
M  V30 29952 C 2832.49 1.47007 -0.930864 0
M  V30 29953 O 2833.66 1.58673 -1.24035 0
M  V30 29954 C 2830.73 2.51424 -2.38719 0
M  V30 29955 C 2829.79 2.32138 -3.61124 0
M  V30 29956 C 2829.02 3.57224 -3.96518 0
M  V30 29957 O 2829.25 4.63412 -3.32574 0
M  V30 29958 O 2828.18 3.49878 -4.89764 0
M  V30 29959 H 2832.01 0.851872 -2.91508 0
M  V30 29960 H 2829.59 0.355582 -1.45107 0
M  V30 29961 H 2831.47 3.28863 -2.63491 0
M  V30 29962 H 2830.15 2.85842 -1.51908 0
M  V30 29963 H 2829.05 1.5265 -3.41539 0
M  V30 29964 H 2830.39 2.02636 -4.48553 0
M  V30 29965 N 2832.04 1.52005 0.4162 0
M  V30 29966 C 2833.28 1.67389 1.17305 0
M  V30 29967 C 2833.64 0.391864 1.87959 0
M  V30 29968 O 2834.84 0.421717 2.65471 0
M  V30 29969 C 2833.12 2.85758 2.14656 0
M  V30 29970 S 2834.67 3.21586 2.98543 0
M  V30 29971 H 2831.49 0.589507 0.397495 0
M  V30 29972 H 2834.09 1.89977 0.461397 0
M  V30 29973 H 2832.8 3.7732 1.61425 0
M  V30 29974 H 2832.33 2.65422 2.9037 0
M  V30 29975 H 2834.34 2.69659 4.16531 0
M  V30 29976 N 2833.52 -0.672992 1.42508 0
M  V30 29977 C 2834.77 -1.4288 1.42366 0
M  V30 29978 C 2835.08 -1.9555 0.0441942 0
M  V30 29979 O 2836.29 -2.71383 -0.0798202 0
M  V30 29980 C 2834.74 -2.58477 2.50435 0
M  V30 29981 C 2834.35 -2.12499 3.94396 0
M  V30 29982 C 2836.09 -3.35976 2.59461 0
M  V30 29983 C 2834 -3.25189 4.9397 0
M  V30 29984 H 2832.93 -0.536773 0.52952 0
M  V30 29985 H 2835.58 -0.728418 1.68423 0
M  V30 29986 H 2833.96 -3.30892 2.17546 0
M  V30 29987 H 2835.14 -1.47225 4.36648 0
M  V30 29988 H 2833.45 -1.47933 3.89236 0
M  V30 29989 H 2836.05 -4.19906 3.31033 0
M  V30 29990 H 2836.39 -3.82689 1.63875 0
M  V30 29991 H 2836.93 -2.70632 2.91553 0
M  V30 29992 H 2833.66 -2.83466 5.91039 0
M  V30 29993 H 2833.18 -3.89239 4.56348 0
M  V30 29994 H 2834.86 -3.90628 5.1577 0
M  V30 29995 N 2835 -1.2871 -0.909472 0
M  V30 29996 C 2835.96 -1.13019 -1.99397 0
M  V30 29997 C 2836.96 -0.0685643 -1.60654 0
M  V30 29998 O 2838.15 -0.314701 -1.71334 0
M  V30 29999 C 2835.28 -0.726144 -3.33077 0
M  V30 30000 H 2836.47 -2.09341 -2.14747 0
M  V30 30001 H 2834.03 -1.11758 -1.0927 0
M  V30 30002 H 2834.76 0.237653 -3.23428 0
M  V30 30003 H 2834.55 -1.49308 -3.6256 0
M  V30 30004 H 2836.04 -0.639131 -4.1268 0
M  V30 30005 N 2836.47 1.1185 -1.11028 0
M  V30 30006 C 2837.7 1.87307 -0.878851 0
M  V30 30007 C 2838.12 1.79956 0.571078 0
M  V30 30008 O 2837.47 1.1778 1.39407 0
M  V30 30009 C 2837.52 3.36285 -1.32646 0
M  V30 30010 O 2837.25 3.43471 -2.71954 0
M  V30 30011 C 2838.75 4.28661 -1.12982 0
M  V30 30012 H 2835.97 0.592453 -0.315025 0
M  V30 30013 H 2838.51 1.41489 -1.47652 0
M  V30 30014 H 2836.67 3.79623 -0.772336 0
M  V30 30015 H 2837.08 4.36205 -2.91248 0
M  V30 30016 H 2838.55 5.31452 -1.49208 0
M  V30 30017 H 2839.03 4.39146 -0.0689899 0
M  V30 30018 H 2839.64 3.9111 -1.67071 0
M  V30 30019 N 2837.95 0.89995 1.29378 0
M  V30 30020 C 2839.18 0.540728 2.00227 0
M  V30 30021 C 2839.6 -0.86733 1.6691 0
M  V30 30022 O 2838.96 -1.57734 0.893851 0
M  V30 30023 C 2839.01 0.740294 3.52919 0
M  V30 30024 O 2838.11 -0.207082 4.1188 0
M  V30 30025 H 2837.45 0.211244 0.629501 0
M  V30 30026 H 2839.98 1.21161 1.64867 0
M  V30 30027 H 2839.99 0.645044 4.02869 0
M  V30 30028 H 2838.67 1.76683 3.76505 0
M  V30 30029 H 2837.24 -0.0642659 3.72845 0
M  V30 30030 N 2839.43 -1.43001 0.662458 0
M  V30 30031 C 2840.66 -2.06564 0.186039 0
M  V30 30032 C 2841.08 -1.49381 -1.14311 0
M  V30 30033 O 2840.44 -0.607376 -1.70823 0
M  V30 30034 C 2840.49 -3.60406 0.118333 0
M  V30 30035 O 2839.59 -4.02081 -0.916788 0
M  V30 30036 H 2838.93 -0.656562 0.0991096 0
M  V30 30037 H 2841.46 -1.83349 0.90799 0
M  V30 30038 H 2841.47 -4.07953 -0.0619264 0
M  V30 30039 H 2840.15 -4.01401 1.08856 0
M  V30 30040 H 2838.72 -3.66106 -0.70857 0
M  V30 30041 N 2840.91 -0.404973 -1.52308 0
M  V30 30042 C 2842.14 0.171782 -2.06186 0
M  V30 30043 C 2842.55 1.3921 -1.27539 0
M  V30 30044 O 2841.91 1.79562 -0.326144 0
M  V30 30045 C 2841.96 0.526354 -3.57648 0
M  V30 30046 O 2841.68 -0.645494 -4.33319 0
M  V30 30047 C 2843.18 1.15729 -4.27927 0
M  V30 30048 H 2840.4 0.022221 -0.670632 0
M  V30 30049 H 2842.95 -0.574727 -1.96258 0
M  V30 30050 H 2841.1 1.22276 -3.67597 0
M  V30 30051 H 2841.51 -0.350512 -5.23327 0
M  V30 30052 H 2842.99 1.35562 -5.35095 0
M  V30 30053 H 2843.47 2.12919 -3.84138 0
M  V30 30054 H 2844.07 0.501207 -4.22336 0
M  V30 30055 N 2842.39 1.57018 -0.135265 0
M  V30 30056 C 2843.63 1.95356 0.517735 0
M  V30 30057 C 2843.96 1.02045 1.66168 0
M  V30 30058 O 2843.23 0.0797687 1.95738 0
M  V30 30059 H 2841.81 0.721301 0.194252 0
M  V30 30060 H 2844.47 1.93787 -0.208017 0
M  V30 30061 H 2843.56 2.98793 0.901622 0
M  V30 30062 N 2843.86 -0.138524 1.5699 0
M  V30 30063 C 2845.09 -0.868377 1.88345 0
M  V30 30064 C 2845.51 -1.73559 0.72519 0
M  V30 30065 O 2844.87 -1.78364 -0.324961 0
M  V30 30066 C 2844.92 -1.69393 3.18337 0
M  V30 30067 O 2844.02 -2.79902 3.02868 0
M  V30 30068 H 2843.37 -0.241356 0.618582 0
M  V30 30069 H 2845.9 -0.12679 2.04207 0
M  V30 30070 H 2845.91 -2.0872 3.50571 0
M  V30 30071 H 2844.58 -1.05717 4.0224 0
M  V30 30072 H 2843.16 -2.43919 2.8206 0
M  V30 30073 N 2845.34 -1.52224 -0.408133 0
M  V30 30074 C 2846.25 -1.78529 -1.52199 0
M  V30 30075 C 2847.27 -0.67092 -1.60545 0
M  V30 30076 O 2848.44 -0.956436 -1.77241 0
M  V30 30077 C 2845.51 -1.93133 -2.87924 0
M  V30 30078 C 2844.57 -3.17038 -2.89457 0
M  V30 30079 C 2843.8 -3.30936 -4.18709 0
M  V30 30080 O 2844.03 -2.50076 -5.12658 0
M  V30 30081 O 2842.96 -4.24092 -4.27118 0
M  V30 30082 H 2846.79 -2.73074 -1.32906 0
M  V30 30083 H 2844.37 -1.3708 -0.594088 0
M  V30 30084 H 2846.25 -2.04556 -3.68422 0
M  V30 30085 H 2844.93 -1.01777 -3.07283 0
M  V30 30086 H 2843.84 -3.11073 -2.07809 0
M  V30 30087 H 2845.17 -4.08178 -2.75048 0
M  V30 30088 N 2846.82 0.665425 -1.42863 0
M  V30 30089 C 2848.24 0.979665 -1.25995 0
M  V30 30090 C 2848.44 2.00774 -0.170867 0
M  V30 30091 O 2847.49 2.48371 0.454784 0
M  V30 30092 C 2848.81 1.47555 -2.62008 0
M  V30 30093 C 2850.35 1.59283 -2.6944 0
M  V30 30094 C 2850.83 2.12265 -4.05842 0
M  V30 30095 N 2852.32 2.19585 -4.07844 0
M  V30 30096 C 2853.05 2.61675 -5.10209 0
M  V30 30097 N 2852.55 3.0315 -6.22954 0
M  V30 30098 N 2854.34 2.61507 -4.97565 0
M  V30 30099 H 2846.49 -0.0150867 -2.12395 0
M  V30 30100 H 2848.76 0.0558021 -0.946356 0
M  V30 30101 H 2848.46 0.794594 -3.42606 0
M  V30 30102 H 2848.34 2.4527 -2.86571 0
M  V30 30103 H 2850.72 2.26483 -1.89182 0
M  V30 30104 H 2850.81 0.60033 -2.48656 0
M  V30 30105 H 2850.45 1.45672 -4.86562 0
M  V30 30106 H 2850.38 3.12324 -4.23983 0
M  V30 30107 H 2852.87 1.90355 -3.26456 0
M  V30 30108 H 2853.18 3.3398 -6.96905 0
M  V30 30109 H 2851.53 3.00984 -6.26445 0
M  V30 30110 H 2854.72 2.28474 -4.08555 0
M  V30 30111 H 2854.89 2.93988 -5.77473 0
M  V30 30112 N 2848.3 1.29191 0.902633 0
M  V30 30113 C 2849.71 1.07139 1.18294 0
M  V30 30114 C 2849.91 -0.179187 2.00702 0
M  V30 30115 O 2848.97 -0.877771 2.36752 0
M  V30 30116 C 2850.28 2.32517 1.90673 0
M  V30 30117 C 2851.83 2.37807 2.03511 0
M  V30 30118 C 2852.31 3.62981 2.793 0
M  V30 30119 N 2853.8 3.63686 2.86856 0
M  V30 30120 C 2854.53 4.57223 3.46027 0
M  V30 30121 N 2854.03 5.61088 4.06389 0
M  V30 30122 N 2855.82 4.44798 3.43673 0
M  V30 30123 H 2847.97 2.09451 0.352728 0
M  V30 30124 H 2850.24 0.922418 0.218744 0
M  V30 30125 H 2849.94 3.23685 1.37554 0
M  V30 30126 H 2849.82 2.39798 2.91165 0
M  V30 30127 H 2852.2 1.4713 2.55806 0
M  V30 30128 H 2852.28 2.34514 1.02161 0
M  V30 30129 H 2851.93 4.54008 2.27682 0
M  V30 30130 H 2851.86 3.63532 3.80988 0
M  V30 30131 H 2854.35 2.88585 2.43981 0
M  V30 30132 H 2854.66 6.28588 4.49553 0
M  V30 30133 H 2853.01 5.64901 4.0486 0
M  V30 30134 H 2856.2 3.62849 2.95734 0
M  V30 30135 H 2856.37 5.17879 3.89494 0
M  V30 30136 N 2849.78 -1.1126 1.1162 0
M  V30 30137 C 2851.02 -1.83309 0.867495 0
M  V30 30138 C 2851.36 -1.84525 -0.605333 0
M  V30 30139 O 2850.63 -1.29968 -1.44702 0
M  V30 30140 C 2850.91 -3.30397 1.43213 0
M  V30 30141 C 2850.77 -3.37565 2.97271 0
M  V30 30142 C 2852.09 -4.26526 1.08461 0
M  V30 30143 H 2849.2 -0.665537 0.31659 0
M  V30 30144 H 2851.85 -1.30452 1.38139 0
M  V30 30145 H 2850 -3.75541 0.995048 0
M  V30 30146 H 2851.67 -3.00965 3.49596 0
M  V30 30147 H 2849.91 -2.77727 3.33242 0
M  V30 30148 H 2850.58 -4.41099 3.31867 0
M  V30 30149 H 2853.06 -3.89571 1.46196 0
M  V30 30150 H 2851.93 -5.27824 1.50643 0
M  V30 30151 H 2852.2 -4.421 -0.00436797 0
M  V30 30152 N 2851.25 -0.906798 -1.28899 0
M  V30 30153 C 2852.5 -0.537155 -1.95557 0
M  V30 30154 C 2852.83 0.915552 -1.71264 0
M  V30 30155 O 2852.11 1.65011 -1.02964 0
M  V30 30156 C 2852.39 -0.838707 -3.50197 0
M  V30 30157 C 2852.24 -2.34364 -3.83919 0
M  V30 30158 C 2853.56 -0.330065 -4.38861 0
M  V30 30159 H 2850.68 -0.19663 -0.710286 0
M  V30 30160 H 2853.32 -1.13478 -1.5239 0
M  V30 30161 H 2851.47 -0.330092 -3.87095 0
M  V30 30162 H 2853.15 -2.92234 -3.56928 0
M  V30 30163 H 2851.39 -2.80147 -3.3121 0
M  V30 30164 H 2852.06 -2.50519 -4.91878 0
M  V30 30165 H 2854.54 -0.765681 -4.08995 0
M  V30 30166 H 2853.41 -0.5702 -5.4593 0
M  V30 30167 H 2853.67 0.769435 -4.35353 0
M  V30 30168 N 2852.73 1.42648 -0.670032 0
M  V30 30169 C 2853.67 2.28118 0.0613222 0
M  V30 30170 C 2854.64 1.40793 0.813389 0
M  V30 30171 O 2855.83 1.70233 0.809499 0
M  V30 30172 C 2852.95 3.20548 1.09393 0
M  V30 30173 C 2852 4.24245 0.43799 0
M  V30 30174 S 2852.83 5.29477 -0.800901 0
M  V30 30175 C 2853.99 6.25475 0.230751 0
M  V30 30176 H 2854.22 2.89798 -0.663656 0
M  V30 30177 H 2851.76 1.47407 -0.459416 0
M  V30 30178 H 2853.71 3.7434 1.68463 0
M  V30 30179 H 2852.37 2.58012 1.79132 0
M  V30 30180 H 2851.57 4.89086 1.21698 0
M  V30 30181 H 2851.17 3.73917 -0.0790003 0
M  V30 30182 H 2853.46 6.68643 1.09192 0
M  V30 30183 H 2854.4 7.07063 -0.38307 0
M  V30 30184 H 2854.81 5.61573 0.574092 0
M  V30 30185 N 2854.21 0.413044 1.52091 0
M  V30 30186 C 2855.14 -0.401527 2.30022 0
M  V30 30187 C 2856.12 -1.04267 1.34397 0
M  V30 30188 O 2857.31 -1.05094 1.63306 0
M  V30 30189 C 2854.44 -1.51632 3.1245 0
M  V30 30190 C 2853.39 -0.999977 4.16154 0
M  V30 30191 C 2852.72 -2.20867 4.86952 0
M  V30 30192 C 2854.02 -0.0512839 5.22275 0
M  V30 30193 H 2855.71 0.248757 2.98365 0
M  V30 30194 H 2853.26 0.121077 1.4349 0
M  V30 30195 H 2855.21 -2.09319 3.65737 0
M  V30 30196 H 2853.93 -2.19454 2.41883 0
M  V30 30197 H 2852.59 -0.445485 3.63883 0
M  V30 30198 H 2852.24 -2.87252 4.1291 0
M  V30 30199 H 2851.94 -1.86968 5.57061 0
M  V30 30200 H 2853.47 -2.79153 5.43053 0
M  V30 30201 H 2854.88 -0.537076 5.70779 0
M  V30 30202 H 2853.28 0.199082 5.9977 0
M  V30 30203 H 2854.35 0.892819 4.7661 0
M  V30 30204 N 2855.69 -1.56945 0.143591 0
M  V30 30205 C 2856.92 -2.00377 -0.515412 0
M  V30 30206 C 2857.33 -1.02364 -1.58641 0
M  V30 30207 O 2856.69 -0.020136 -1.82489 0
M  V30 30208 C 2856.74 -3.43739 -1.11917 0
M  V30 30209 O 2856.46 -4.38006 -0.0909548 0
M  V30 30210 C 2857.96 -4.02432 -1.85911 0
M  V30 30211 H 2855.18 -0.657389 -0.134466 0
M  V30 30212 H 2857.73 -2.0312 0.23717 0
M  V30 30213 H 2855.88 -3.41859 -1.82239 0
M  V30 30214 H 2856.3 -5.21787 -0.532825 0
M  V30 30215 H 2857.77 -5.04751 -2.23451 0
M  V30 30216 H 2858.25 -3.42952 -2.74374 0
M  V30 30217 H 2858.85 -4.07933 -1.20296 0
M  V30 30218 N 2857.17 0.130197 -1.57061 0
M  V30 30219 C 2858.1 1.19025 -1.947 0
M  V30 30220 C 2859.08 1.40694 -0.815099 0
M  V30 30221 O 2860.26 1.55032 -1.07226 0
M  V30 30222 C 2857.39 2.54617 -2.23356 0
M  V30 30223 C 2856.44 2.49442 -3.45949 0
M  V30 30224 S 2857.27 1.94497 -4.9893 0
M  V30 30225 C 2858.42 3.31783 -5.30727 0
M  V30 30226 H 2858.66 0.869222 -2.84309 0
M  V30 30227 H 2856.19 0.336504 -1.50688 0
M  V30 30228 H 2858.15 3.32638 -2.40545 0
M  V30 30229 H 2856.81 2.83902 -1.34381 0
M  V30 30230 H 2856 3.49295 -3.6333 0
M  V30 30231 H 2855.6 1.79537 -3.28089 0
M  V30 30232 H 2857.9 4.27957 -5.25223 0
M  V30 30233 H 2858.84 3.1924 -6.32053 0
M  V30 30234 H 2859.25 3.29695 -4.58216 0
M  V30 30235 N 2858.65 1.52438 0.400055 0
M  V30 30236 C 2859.56 1.79334 1.5125 0
M  V30 30237 C 2860.57 0.679425 1.60187 0
M  V30 30238 O 2861.75 0.965822 1.76731 0
M  V30 30239 C 2858.81 1.94657 2.86896 0
M  V30 30240 C 2857.87 3.18569 2.87772 0
M  V30 30241 C 2857.11 3.33152 4.16948 0
M  V30 30242 O 2857.33 2.52792 5.11324 0
M  V30 30243 O 2856.26 4.26351 4.24863 0
M  V30 30244 H 2860.09 2.73775 1.31456 0
M  V30 30245 H 2857.67 1.37393 0.58681 0
M  V30 30246 H 2859.56 2.06507 3.67332 0
M  V30 30247 H 2858.23 1.03405 3.06739 0
M  V30 30248 H 2857.14 3.1217 2.06157 0
M  V30 30249 H 2858.47 4.09631 2.72879 0
M  V30 30250 N 2860.12 -0.657839 1.43214 0
M  V30 30251 C 2861.03 -1.80005 1.50451 0
M  V30 30252 C 2862.05 -1.69528 0.39194 0
M  V30 30253 O 2863.23 -1.90779 0.645383 0
M  V30 30254 C 2860.29 -3.16256 1.42067 0
M  V30 30255 C 2859.35 -3.38563 2.63957 0
M  V30 30256 C 2858.58 -4.68314 2.55964 0
M  V30 30257 O 2858.81 -5.47359 1.60483 0
M  V30 30258 O 2857.74 -4.92239 3.46387 0
M  V30 30259 H 2861.57 -1.76854 2.46893 0
M  V30 30260 H 2859.15 -0.815738 1.25164 0
M  V30 30261 H 2861.03 -3.97529 1.39817 0
M  V30 30262 H 2859.71 -3.20007 0.48758 0
M  V30 30263 H 2858.62 -2.57072 2.71781 0
M  V30 30264 H 2859.95 -3.39655 3.56223 0
M  V30 30265 N 2861.6 -1.29668 -0.895769 0
M  V30 30266 C 2863.02 -1.07765 -1.17724 0
M  V30 30267 C 2863.22 0.168541 -2.00794 0
M  V30 30268 O 2862.27 0.865203 -2.37214 0
M  V30 30269 C 2863.59 -2.33525 -1.89437 0
M  V30 30270 C 2865.13 -2.38883 -2.02247 0
M  V30 30271 C 2865.61 -3.64457 -2.77371 0
M  V30 30272 N 2867.1 -3.65203 -2.84923 0
M  V30 30273 C 2867.84 -4.59051 -3.43598 0
M  V30 30274 N 2867.33 -5.63235 -4.03408 0
M  V30 30275 N 2869.12 -4.46614 -3.4131 0
M  V30 30276 H 2861.28 -2.09635 -0.341615 0
M  V30 30277 H 2863.54 -0.923565 -0.213849 0
M  V30 30278 H 2863.24 -3.24409 -1.35836 0
M  V30 30279 H 2863.12 -2.41339 -2.89889 0
M  V30 30280 H 2865.51 -1.48484 -2.55022 0
M  V30 30281 H 2865.59 -2.35052 -1.00916 0
M  V30 30282 H 2865.23 -4.55209 -2.25271 0
M  V30 30283 H 2865.16 -3.65547 -3.79055 0
M  V30 30284 H 2867.65 -2.89875 -2.42448 0
M  V30 30285 H 2867.96 -6.30963 -4.46213 0
M  V30 30286 H 2866.31 -5.6704 -4.01858 0
M  V30 30287 H 2869.5 -3.64412 -2.93805 0
M  V30 30288 H 2869.67 -5.19937 -3.86742 0
M  V30 30289 N 2863.08 1.10667 -1.12208 0
M  V30 30290 C 2864.33 1.82847 -0.877204 0
M  V30 30291 C 2864.66 1.84843 0.595539 0
M  V30 30292 O 2863.93 1.30734 1.4401 0
M  V30 30293 C 2864.22 3.29633 -1.44963 0
M  V30 30294 C 2864.07 3.35984 -2.99057 0
M  V30 30295 C 2865.39 4.25945 -1.10722 0
M  V30 30296 H 2862.51 0.663849 -0.320115 0
M  V30 30297 H 2865.15 1.29717 -1.38829 0
M  V30 30298 H 2863.3 3.75008 -1.01495 0
M  V30 30299 H 2864.97 2.99107 -3.51188 0
M  V30 30300 H 2863.21 2.75956 -3.3471 0
M  V30 30301 H 2863.89 4.39333 -3.34201 0
M  V30 30302 H 2866.36 3.88791 -1.4826 0
M  V30 30303 H 2865.24 5.27018 -1.5344 0
M  V30 30304 H 2865.5 4.42096 -0.0190777 0
M  V30 30305 N 2864.56 0.913621 1.28416 0
M  V30 30306 C 2865.79 0.562571 1.99105 0
M  V30 30307 C 2866.2 -0.856107 1.68274 0
M  V30 30308 O 2865.56 -1.56703 0.935429 0
M  V30 30309 C 2865.61 0.761965 3.53378 0
M  V30 30310 O 2865.33 2.12482 3.83123 0
M  V30 30311 C 2866.83 0.417729 4.41327 0
M  V30 30312 H 2864.05 0.214492 0.635794 0
M  V30 30313 H 2866.59 1.22679 1.63616 0
M  V30 30314 H 2864.75 0.144744 3.8713 0
M  V30 30315 H 2865.16 2.1644 4.77759 0
M  V30 30316 H 2866.64 0.608015 5.48641 0
M  V30 30317 H 2867.11 -0.646031 4.34423 0
M  V30 30318 H 2867.72 1.01248 4.13072 0
M  V30 30319 N 2866.04 -1.4229 0.677588 0
M  V30 30320 C 2867.26 -2.06355 0.207938 0
M  V30 30321 C 2867.69 -1.50585 -1.1272 0
M  V30 30322 O 2867.04 -0.62546 -1.7017 0
M  V30 30323 C 2867.09 -3.6026 0.156552 0
M  V30 30324 O 2866.2 -4.0303 -0.874091 0
M  V30 30325 H 2865.54 -0.655474 0.106068 0
M  V30 30326 H 2868.07 -1.82375 0.927386 0
M  V30 30327 H 2868.08 -4.07996 -0.018654 0
M  V30 30328 H 2866.75 -4.00224 1.13108 0
M  V30 30329 H 2865.33 -3.66837 -0.6697 0
M  V30 30330 N 2867.51 -0.421104 -1.5187 0
M  V30 30331 C 2868.92 0.0457663 -1.86644 0
M  V30 30332 C 2869.28 1.43386 -1.33921 0
M  V30 30333 O 2868.4 2.05327 -0.683352 0
M  V30 30334 C 2869 0.0898249 -3.38681 0
M  V30 30335 C 2867.55 0.501062 -3.7305 0
M  V30 30336 C 2866.7 -0.316772 -2.75485 0
M  V30 30337 H 2869.65 -0.63766 -1.45326 0
M  V30 30338 H 2869.67 0.902669 -3.69638 0
M  V30 30339 H 2869.19 -0.920579 -3.77024 0
M  V30 30340 H 2867.29 1.51767 -3.4029 0
M  V30 30341 H 2867.4 0.237133 -4.78513 0
M  V30 30342 H 2865.76 0.222618 -2.53725 0
M  V30 30343 H 2866.55 -1.32575 -3.16668 0
M  V30 30344 N 2868.99 1.56866 -0.151912 0
M  V30 30345 C 2870.41 1.58285 0.204458 0
M  V30 30346 C 2870.61 1.16641 1.64308 0
M  V30 30347 O 2869.66 0.868987 2.37076 0
M  V30 30348 C 2870.98 3.00643 -0.0587548 0
M  V30 30349 C 2872.53 3.13 0.00456802 0
M  V30 30350 C 2873 4.57415 -0.231377 0
M  V30 30351 N 2874.49 4.62856 -0.178476 0
M  V30 30352 C 2875.23 5.72418 -0.33548 0
M  V30 30353 N 2874.72 6.9061 -0.550476 0
M  V30 30354 N 2876.52 5.61438 -0.272739 0
M  V30 30355 H 2868.67 1.82227 -1.09119 0
M  V30 30356 H 2870.93 0.843681 -0.432326 0
M  V30 30357 H 2870.64 3.35516 -1.05459 0
M  V30 30358 H 2870.51 3.71409 0.658442 0
M  V30 30359 H 2872.9 2.77964 0.99096 0
M  V30 30360 H 2872.98 2.4471 -0.745035 0
M  V30 30361 H 2872.62 4.93156 -1.21489 0
M  V30 30362 H 2872.55 5.23838 0.538608 0
M  V30 30363 H 2875.04 3.77896 -0.0171588 0
M  V30 30364 H 2875.36 7.69974 -0.660252 0
M  V30 30365 H 2873.7 6.92518 -0.586857 0
M  V30 30366 H 2876.89 4.67981 -0.105503 0
M  V30 30367 H 2877.06 6.46773 -0.398531 0
M  V30 30368 N 2870.47 -0.121866 1.57128 0
M  V30 30369 C 2871.72 -0.828716 1.83889 0
M  V30 30370 C 2872.03 -1.81179 0.737119 0
M  V30 30371 O 2873.24 -2.56462 0.891052 0
M  V30 30372 C 2871.69 -1.52449 3.26017 0
M  V30 30373 C 2871.3 -0.582552 4.44196 0
M  V30 30374 C 2873.05 -2.21665 3.62029 0
M  V30 30375 C 2870.95 -1.28139 5.77351 0
M  V30 30376 H 2869.88 -0.313226 0.685861 0
M  V30 30377 H 2872.53 -0.0814529 1.83319 0
M  V30 30378 H 2870.92 -2.31828 3.21048 0
M  V30 30379 H 2872.09 0.17781 4.60457 0
M  V30 30380 H 2870.41 0.00248548 4.164 0
M  V30 30381 H 2873 -2.74635 4.58781 0
M  V30 30382 H 2873.35 -2.99331 2.89321 0
M  V30 30383 H 2873.88 -1.49177 3.6877 0
M  V30 30384 H 2870.62 -0.546074 6.53221 0
M  V30 30385 H 2870.14 -2.01384 5.64982 0
M  V30 30386 H 2871.82 -1.81538 6.2101 0
M  V30 30387 N 2871.95 -1.52648 -0.391965 0
M  V30 30388 C 2872.86 -1.80133 -1.50297 0
M  V30 30389 C 2873.87 -0.68791 -1.59824 0
M  V30 30390 O 2875.05 -0.97518 -1.76216 0
M  V30 30391 C 2872.12 -1.96176 -2.8586 0
M  V30 30392 C 2871.18 -3.2009 -2.86078 0
M  V30 30393 C 2870.41 -3.35358 -4.15175 0
M  V30 30394 O 2870.63 -2.555 -5.09977 0
M  V30 30395 O 2869.57 -4.28598 -4.22596 0
M  V30 30396 H 2873.39 -2.74469 -1.30002 0
M  V30 30397 H 2870.98 -1.37703 -0.579515 0
M  V30 30398 H 2872.86 -2.08452 -3.66232 0
M  V30 30399 H 2871.53 -1.0503 -3.06187 0
M  V30 30400 H 2870.44 -3.13259 -2.04498 0
M  V30 30401 H 2871.77 -4.11073 -2.70703 0
M  V30 30402 N 2873.43 0.650235 -1.43561 0
M  V30 30403 C 2874.39 1.74486 -1.48618 0
M  V30 30404 C 2875.39 1.56473 -0.37051 0
M  V30 30405 O 2876.58 1.62316 -0.632379 0
M  V30 30406 C 2873.71 3.13388 -1.34166 0
M  V30 30407 H 2874.9 1.71382 -2.46106 0
M  V30 30408 H 2872.46 0.862163 -1.3037 0
M  V30 30409 H 2873.19 3.22102 -0.376974 0
M  V30 30410 H 2872.98 3.27868 -2.15046 0
M  V30 30411 H 2874.47 3.93204 -1.40644 0
M  V30 30412 N 2874.9 1.30141 0.88888 0
M  V30 30413 C 2875.87 1.16177 1.97574 0
M  V30 30414 C 2876.87 0.0941142 1.60524 0
M  V30 30415 O 2878.06 0.341919 1.70811 0
M  V30 30416 C 2875.19 0.779041 3.31879 0
M  V30 30417 H 2876.38 2.12731 2.11389 0
M  V30 30418 H 2873.94 1.13482 1.07478 0
M  V30 30419 H 2874.67 -0.186168 3.23765 0
M  V30 30420 H 2874.46 1.55058 3.60138 0
M  V30 30421 H 2875.95 0.704704 4.11611 0
M  V30 30422 N 2876.38 -1.1007 1.12794 0
M  V30 30423 C 2877.61 -1.86425 0.90887 0
M  V30 30424 C 2878.03 -1.80279 -0.536761 0
M  V30 30425 O 2877.39 -1.17546 -1.38031 0
M  V30 30426 C 2877.44 -3.32608 1.393 0
M  V30 30427 O 2876.54 -4.08387 0.573918 0
M  V30 30428 H 2875.88 -0.578326 0.326245 0
M  V30 30429 H 2878.41 -1.3904 1.50097 0
M  V30 30430 H 2878.42 -3.83457 1.39373 0
M  V30 30431 H 2877.1 -3.36397 2.44561 0
M  V30 30432 H 2875.68 -3.67358 0.640503 0
M  V30 30433 N 2877.86 -0.920419 -1.2793 0
M  V30 30434 C 2878.79 -0.371208 -2.26174 0
M  V30 30435 C 2879.81 0.494038 -1.55123 0
M  V30 30436 O 2880.99 0.307839 -1.75825 0
M  V30 30437 C 2878.09 0.487422 -3.35377 0
M  V30 30438 C 2877.27 -0.356849 -4.35942 0
M  V30 30439 C 2876.33 0.43795 -5.24374 0
M  V30 30440 O 2875.35 -0.151815 -5.68998 0
M  V30 30441 N 2876.55 1.73946 -5.53826 0
M  V30 30442 H 2879.32 -1.21569 -2.73936 0
M  V30 30443 H 2876.88 -0.787071 -1.41481 0
M  V30 30444 H 2878.87 1.02603 -3.91478 0
M  V30 30445 H 2877.44 1.23264 -2.87271 0
M  V30 30446 H 2876.66 -1.07679 -3.79208 0
M  V30 30447 H 2877.95 -0.934294 -5.00148 0
M  V30 30448 H 2877.35 2.24105 -5.19417 0
M  V30 30449 H 2875.91 2.22475 -6.12657 0
M  V30 30450 N 2879.34 1.41929 -0.685124 0
M  V30 30451 C 2880.29 2.30796 -0.0132275 0
M  V30 30452 C 2881.26 1.46534 0.782104 0
M  V30 30453 O 2882.44 1.75345 0.752259 0
M  V30 30454 C 2879.58 3.3248 0.924709 0
M  V30 30455 C 2878.69 4.31827 0.122105 0
M  V30 30456 C 2877.83 5.20583 1.05673 0
M  V30 30457 C 2876.87 6.11604 0.246419 0
M  V30 30458 N 2876 6.92877 1.1343 0
M  V30 30459 H 2880.84 2.87696 -0.77684 0
M  V30 30460 H 2878.38 1.41703 -0.394816 0
M  V30 30461 H 2880.34 3.89974 1.48244 0
M  V30 30462 H 2878.97 2.77155 1.65484 0
M  V30 30463 H 2878.02 3.76368 -0.552401 0
M  V30 30464 H 2879.33 4.96221 -0.50656 0
M  V30 30465 H 2878.49 5.82859 1.68405 0
M  V30 30466 H 2877.23 4.56391 1.71927 0
M  V30 30467 H 2876.23 5.48386 -0.39404 0
M  V30 30468 H 2877.46 6.77848 -0.412172 0
M  V30 30469 H 2875.4 6.31303 1.78305 0
M  V30 30470 H 2875.32 7.53916 0.560956 0
M  V30 30471 H 2876.59 7.59631 1.74875 0
M  V30 30472 N 2880.82 0.429152 1.51644 0
M  V30 30473 C 2882.23 0.081022 1.59394 0
M  V30 30474 C 2882.43 -1.40879 1.44067 0
M  V30 30475 O 2881.49 -2.17784 1.27774 0
M  V30 30476 C 2882.8 0.593825 2.94778 0
M  V30 30477 C 2884.35 0.553548 3.08066 0
M  V30 30478 C 2884.82 1.04319 4.45961 0
M  V30 30479 N 2886.32 1.00084 4.52258 0
M  V30 30480 C 2887.05 1.35066 5.57265 0
M  V30 30481 N 2886.55 1.77293 6.6973 0
M  V30 30482 N 2888.34 1.26935 5.4758 0
M  V30 30483 H 2880.49 1.3986 1.59853 0
M  V30 30484 H 2882.75 0.575818 0.753085 0
M  V30 30485 H 2882.46 1.63588 3.11339 0
M  V30 30486 H 2882.33 0.0142865 3.77197 0
M  V30 30487 H 2884.72 -0.479505 2.91178 0
M  V30 30488 H 2884.8 1.16939 2.27506 0
M  V30 30489 H 2884.45 2.07467 4.63595 0
M  V30 30490 H 2884.38 0.403966 5.25048 0
M  V30 30491 H 2886.87 0.69063 3.71536 0
M  V30 30492 H 2887.18 2.02245 7.45866 0
M  V30 30493 H 2885.52 1.81214 6.7096 0
M  V30 30494 H 2888.72 0.93817 4.58602 0
M  V30 30495 H 2888.89 1.54527 6.29306 0
M  V30 30496 N 2882.29 -1.56783 0.160229 0
M  V30 30497 C 2883.52 -2.00913 -0.49413 0
M  V30 30498 C 2883.94 -1.04041 -1.57546 0
M  V30 30499 O 2883.29 -0.0394902 -1.82457 0
M  V30 30500 C 2883.35 -3.44907 -1.08265 0
M  V30 30501 O 2883.07 -4.38077 -0.0444934 0
M  V30 30502 C 2884.57 -4.04382 -1.81633 0
M  V30 30503 H 2881.79 -0.658778 -0.127486 0
M  V30 30504 H 2884.33 -2.02857 0.258701 0
M  V30 30505 H 2882.49 -3.43773 -1.78603 0
M  V30 30506 H 2882.9 -5.22322 -0.477452 0
M  V30 30507 H 2884.37 -5.07093 -2.18085 0
M  V30 30508 H 2884.85 -3.45842 -2.70721 0
M  V30 30509 H 2885.46 -4.09186 -1.15962 0
M  V30 30510 N 2883.77 0.113531 -1.57191 0
M  V30 30511 C 2884.68 1.15773 -2.04043 0
M  V30 30512 C 2885.7 1.44999 -0.961837 0
M  V30 30513 O 2886.88 1.56007 -1.27373 0
M  V30 30514 C 2883.94 2.46304 -2.43999 0
M  V30 30515 C 2883 2.24426 -3.65966 0
M  V30 30516 C 2882.23 3.48733 -4.04006 0
M  V30 30517 O 2882.46 4.56253 -3.42329 0
M  V30 30518 O 2881.39 3.39411 -4.97075 0
M  V30 30519 H 2885.22 0.789848 -2.93249 0
M  V30 30520 H 2882.8 0.324722 -1.45828 0
M  V30 30521 H 2884.68 3.232 -2.70407 0
M  V30 30522 H 2883.36 2.82555 -1.57937 0
M  V30 30523 H 2882.27 1.45371 -3.447 0
M  V30 30524 H 2883.6 1.93076 -4.5275 0
M  V30 30525 N 2885.25 1.52854 0.383864 0
M  V30 30526 C 2886.5 1.68397 1.13006 0
M  V30 30527 C 2886.83 0.425229 1.89487 0
M  V30 30528 O 2886.11 -0.577104 1.85741 0
M  V30 30529 C 2886.39 2.92229 2.10414 0
M  V30 30530 C 2886.24 4.28216 1.37662 0
M  V30 30531 C 2887.56 3.11619 3.10776 0
M  V30 30532 H 2884.68 0.612795 0.409452 0
M  V30 30533 H 2887.32 1.8546 0.412863 0
M  V30 30534 H 2885.47 2.77812 2.71574 0
M  V30 30535 H 2887.14 4.54411 0.794272 0
M  V30 30536 H 2885.39 4.28462 0.678458 0
M  V30 30537 H 2886.06 5.10959 2.08865 0
M  V30 30538 H 2888.53 3.25101 2.59709 0
M  V30 30539 H 2887.41 3.99732 3.76172 0
M  V30 30540 H 2887.67 2.26067 3.79929 0
M  V30 30541 N 2886.73 -0.642612 1.43904 0
M  V30 30542 C 2887.68 -1.77631 1.50167 0
M  V30 30543 C 2888.67 -1.65213 0.374324 0
M  V30 30544 O 2889.88 -1.71431 0.548778 0
M  V30 30545 H 2886.25 -0.586241 0.470984 0
M  V30 30546 H 2888.22 -1.6947 2.45606 0
M  V30 30547 C 2886.97 -3.1593 1.45202 0
M  V30 30548 H 2886.3 -3.26128 2.31258 0
M  V30 30549 H 2887.74 -3.95183 1.53645 0
M  V30 30550 C 2886.19 -3.36465 0.171102 0
M  V30 30551 O 2886.72 -3.9438 -0.763343 0
M  V30 30552 N 2884.93 -2.90496 0.077898 0
M  V30 30553 H 2884.48 -2.43549 0.839142 0
M  V30 30554 H 2884.44 -3.04611 -0.778419 0
M  V30 30555 N 2888.21 -1.30611 -0.881966 0
M  V30 30556 C 2889.45 -1.19607 -1.63403 0
M  V30 30557 C 2889.78 0.24854 -1.92905 0
M  V30 30558 O 2889.04 1.19388 -1.55064 0
M  V30 30559 C 2889.34 -1.97316 -2.97995 0
M  V30 30560 C 2889 -3.46912 -2.88033 0
M  V30 30561 C 2887.66 -3.87705 -2.85023 0
M  V30 30562 C 2890.02 -4.42161 -2.7594 0
M  V30 30563 C 2887.34 -5.22035 -2.67762 0
M  V30 30564 C 2889.7 -5.76602 -2.60218 0
M  V30 30565 C 2888.36 -6.1663 -2.55584 0
M  V30 30566 H 2887.63 -0.437672 -0.597933 0
M  V30 30567 H 2890.28 -1.61746 -1.02521 0
M  V30 30568 H 2888.58 -1.47821 -3.62845 0
M  V30 30569 H 2890.28 -1.86192 -3.55153 0
M  V30 30570 H 2886.87 -3.14497 -2.91187 0
M  V30 30571 H 2891.05 -4.11585 -2.77329 0
M  V30 30572 H 2886.31 -5.52137 -2.62592 0
M  V30 30573 H 2890.48 -6.50043 -2.49835 0
M  V30 30574 H 2888.11 -7.20663 -2.41968 0
M  V30 30575 N 2889.69 1.0947 -1.13376 0
M  V30 30576 C 2890.93 1.81278 -0.893454 0
M  V30 30577 C 2891.25 1.86112 0.581996 0
M  V30 30578 O 2890.52 1.34635 1.42303 0
M  V30 30579 H 2889.1 0.671355 -0.327555 0
M  V30 30580 H 2891.77 1.32405 -1.43021 0
M  V30 30581 H 2890.86 2.84474 -1.28379 0
M  V30 30582 N 2891.16 0.92719 1.2744 0
M  V30 30583 C 2892.44 0.485776 1.89472 0
M  V30 30584 C 2892.82 -1.0361 1.83924 0
M  V30 30585 O 2892.17 -1.89004 1.28412 0
M  V30 30586 C 2892.38 1.03129 3.33415 0
M  V30 30587 C 2893.73 1.09147 4.10332 0
M  V30 30588 O 2894.75 0.98088 3.42428 0
M  V30 30589 O 2893.61 1.26174 5.31735 0
M  V30 30590 H 2890.7 0.156169 0.812121 0
M  V30 30591 H 2893.25 1.01885 1.35711 0
M  V30 30592 H 2892.02 2.07514 3.31743 0
M  V30 30593 H 2891.64 0.479837 3.94694 0
M  V30 30594 N 2892.64 -1.41564 0.692641 0
M  V30 30595 C 2893.59 -2.30786 0.025467 0
M  V30 30596 C 2894.56 -1.46947 -0.774321 0
M  V30 30597 O 2895.74 -1.75741 -0.74295 0
M  V30 30598 C 2892.88 -3.32966 -0.907064 0
M  V30 30599 C 2892 -4.31886 -0.0992024 0
M  V30 30600 C 2891.13 -5.21136 -1.02911 0
M  V30 30601 C 2890.17 -6.11726 -0.213981 0
M  V30 30602 N 2889.31 -6.93469 -1.09754 0
M  V30 30603 H 2894.15 -2.8728 0.792086 0
M  V30 30604 H 2891.68 -1.41491 0.402325 0
M  V30 30605 H 2893.64 -3.90754 -1.46174 0
M  V30 30606 H 2892.27 -2.78029 -1.64011 0
M  V30 30607 H 2891.32 -3.7607 0.572353 0
M  V30 30608 H 2892.64 -4.95946 0.532869 0
M  V30 30609 H 2891.79 -5.83744 -1.65311 0
M  V30 30610 H 2890.53 -4.57296 -1.69504 0
M  V30 30611 H 2889.53 -5.48169 0.423117 0
M  V30 30612 H 2890.76 -6.7762 0.448114 0
M  V30 30613 H 2888.71 -6.3224 -1.74954 0
M  V30 30614 H 2888.62 -7.54203 -0.520966 0
M  V30 30615 H 2889.89 -7.60547 -1.70844 0
M  V30 30616 N 2894.12 -0.437188 -1.51415 0
M  V30 30617 C 2895.05 0.364881 -2.30631 0
M  V30 30618 C 2896.03 1.02116 -1.36038 0
M  V30 30619 O 2897.22 1.02482 -1.64958 0
M  V30 30620 C 2894.35 1.46642 -3.14823 0
M  V30 30621 C 2893.3 0.933644 -4.17693 0
M  V30 30622 C 2892.63 2.13092 -4.90404 0
M  V30 30623 C 2893.93 -0.0318119 -5.2229 0
M  V30 30624 H 2895.62 -0.296193 -2.97931 0
M  V30 30625 H 2893.17 -0.14389 -1.43279 0
M  V30 30626 H 2895.12 2.03474 -3.69021 0
M  V30 30627 H 2893.84 2.15578 -2.45344 0
M  V30 30628 H 2892.5 0.387538 -3.64546 0
M  V30 30629 H 2892.15 2.80647 -4.17428 0
M  V30 30630 H 2891.85 1.78082 -5.59965 0
M  V30 30631 H 2893.37 2.70478 -5.47425 0
M  V30 30632 H 2894.79 0.446202 -5.71561 0
M  V30 30633 H 2893.18 -0.294475 -5.99377 0
M  V30 30634 H 2894.25 -0.968531 -4.75129 0
M  V30 30635 N 2895.6 1.56696 -0.168541 0
M  V30 30636 C 2896.53 2.20836 0.758524 0
M  V30 30637 C 2897.51 1.16313 1.24118 0
M  V30 30638 O 2898.69 1.44732 1.29485 0
M  V30 30639 C 2895.82 2.84693 1.98915 0
M  V30 30640 C 2894.78 3.95231 1.64245 0
M  V30 30641 C 2894.1 4.46124 2.94749 0
M  V30 30642 C 2895.4 5.14959 0.872585 0
M  V30 30643 H 2897.1 2.98562 0.2239 0
M  V30 30644 H 2894.64 1.43607 0.106252 0
M  V30 30645 H 2896.6 3.28237 2.64269 0
M  V30 30646 H 2895.32 2.04332 2.54786 0
M  V30 30647 H 2893.98 3.52338 1.0126 0
M  V30 30648 H 2893.63 3.62558 3.48655 0
M  V30 30649 H 2893.33 5.20695 2.72307 0
M  V30 30650 H 2894.85 4.92353 3.61138 0
M  V30 30651 H 2896.27 5.55214 1.42866 0
M  V30 30652 H 2894.66 5.95429 0.747297 0
M  V30 30653 H 2895.73 4.84721 -0.13162 0
M  V30 30654 N 2897.08 -0.105193 1.57249 0
M  V30 30655 C 2898.01 -1.12927 2.04376 0
M  V30 30656 C 2898.99 -1.42375 0.930765 0
M  V30 30657 O 2900.17 -1.52579 1.20138 0
M  V30 30658 C 2897.3 -2.45185 2.45971 0
M  V30 30659 C 2896.26 -2.30168 3.60842 0
M  V30 30660 C 2895.58 -3.67511 3.88381 0
M  V30 30661 C 2896.88 -1.75065 4.92087 0
M  V30 30662 H 2898.58 -0.737236 2.90181 0
M  V30 30663 H 2896.12 -0.353187 1.39602 0
M  V30 30664 H 2898.07 -3.17089 2.77548 0
M  V30 30665 H 2896.8 -2.86305 1.57153 0
M  V30 30666 H 2895.46 -1.6071 3.29496 0
M  V30 30667 H 2895.11 -4.06141 2.96746 0
M  V30 30668 H 2894.81 -3.58313 4.6571 0
M  V30 30669 H 2896.33 -4.40899 4.22422 0
M  V30 30670 H 2897.74 -2.36799 5.2211 0
M  V30 30671 H 2896.14 -1.76652 5.7351 0
M  V30 30672 H 2897.21 -0.709263 4.79685 0
M  V30 30673 N 2898.55 -1.53055 -0.375752 0
M  V30 30674 C 2899.5 -1.7943 -1.48012 0
M  V30 30675 C 2900.5 -0.662881 -1.55892 0
M  V30 30676 O 2901.7 -0.845627 -1.589 0
M  V30 30677 H 2898.08 -0.567958 -0.492877 0
M  V30 30678 H 2900.05 -2.71886 -1.22966 0
M  V30 30679 C 2898.8 -1.99202 -2.8498 0
M  V30 30680 H 2898.12 -2.85698 -2.79672 0
M  V30 30681 H 2899.56 -2.2164 -3.61458 0
M  V30 30682 C 2898.02 -0.76824 -3.28024 0
M  V30 30683 O 2898.55 0.0479776 -4.01671 0
M  V30 30684 N 2896.76 -0.594571 -2.84452 0
M  V30 30685 H 2896.3 -1.25992 -2.24686 0
M  V30 30686 H 2896.26 0.222861 -3.13609 0
M  V30 30687 N 2900.03 0.634971 -1.44242 0
M  V30 30688 C 2901.27 1.4062 -1.48342 0
M  V30 30689 C 2901.64 1.91676 -0.111513 0
M  V30 30690 O 2902.84 2.68786 -0.0271817 0
M  V30 30691 C 2901.11 2.54303 -2.51126 0
M  V30 30692 S 2902.67 3.42543 -2.74243 0
M  V30 30693 H 2899.49 0.479778 -0.524723 0
M  V30 30694 H 2902.09 0.735457 -1.81139 0
M  V30 30695 H 2900.79 2.151 -3.49514 0
M  V30 30696 H 2900.32 3.26209 -2.19889 0
M  V30 30697 H 2902.34 4.51624 -2.05548 0
M  V30 30698 N 2901.51 1.31076 0.875027 0
M  V30 30699 C 2902.74 1.23553 1.66581 0
M  V30 30700 C 2903.16 -0.196827 1.87067 0
M  V30 30701 O 2902.52 -1.14117 1.40879 0
M  V30 30702 C 2902.57 1.9797 3.01397 0
M  V30 30703 O 2901.67 1.31358 3.9092 0
M  V30 30704 H 2901.01 0.42683 0.508638 0
M  V30 30705 H 2903.54 1.73062 1.09136 0
M  V30 30706 H 2903.55 2.07372 3.5137 0
M  V30 30707 H 2902.23 3.02138 2.85806 0
M  V30 30708 H 2900.8 1.30374 3.49366 0
M  V30 30709 N 2902.99 -1.08867 1.13955 0
M  V30 30710 C 2903.95 -2.13836 0.825028 0
M  V30 30711 C 2904.95 -1.59918 -0.16817 0
M  V30 30712 O 2906.14 -1.74098 0.0596084 0
M  V30 30713 C 2903.27 -3.4013 0.228998 0
M  V30 30714 H 2904.47 -2.43168 1.75525 0
M  V30 30715 H 2902.02 -1.24501 0.944942 0
M  V30 30716 H 2902.75 -3.16429 -0.710171 0
M  V30 30717 H 2902.54 -3.80559 0.94431 0
M  V30 30718 H 2904.03 -4.17592 0.0259957 0
M  V30 30719 N 2904.47 -0.933936 -1.26946 0
M  V30 30720 C 2905.69 -0.594175 -1.98185 0
M  V30 30721 C 2906.11 0.829228 -1.69615 0
M  V30 30722 O 2905.47 1.55195 -0.960241 0
M  V30 30723 C 2905.52 -0.818088 -3.52122 0
M  V30 30724 O 2905.24 -2.1855 -3.79694 0
M  V30 30725 C 2906.74 -0.487887 -4.40607 0
M  V30 30726 H 2903.96 -0.22458 -0.632301 0
M  V30 30727 H 2906.5 -1.25266 -1.61643 0
M  V30 30728 H 2904.66 -0.206314 -3.8685 0
M  V30 30729 H 2905.07 -2.24013 -4.74256 0
M  V30 30730 H 2906.55 -0.695222 -5.47604 0
M  V30 30731 H 2907.02 0.576837 -4.35395 0
M  V30 30732 H 2907.63 -1.07807 -4.11409 0
M  V30 30733 N 2905.94 1.41194 -0.700139 0
M  V30 30734 C 2907.19 2.00757 -0.232581 0
M  V30 30735 C 2907.51 1.55747 1.17337 0
M  V30 30736 O 2906.78 0.790089 1.79261 0
M  V30 30737 H 2905.36 0.742375 -0.0829976 0
M  V30 30738 H 2908.03 1.72755 -0.902319 0
M  V30 30739 H 2907.12 3.11068 -0.253575 0
M  V30 30740 N 2907.42 0.445212 1.51181 0
M  V30 30741 C 2908.33 -0.368215 2.31692 0
M  V30 30742 C 2909.35 -1.02033 1.40944 0
M  V30 30743 O 2910.52 -1.01398 1.74013 0
M  V30 30744 C 2907.59 -1.45035 3.14906 0
M  V30 30745 C 2906.65 -0.81754 4.21444 0
M  V30 30746 C 2905.88 -1.84811 5.0068 0
M  V30 30747 O 2906.11 -3.07136 4.80649 0
M  V30 30748 O 2905.04 -1.43427 5.84562 0
M  V30 30749 H 2908.87 0.289273 3.02319 0
M  V30 30750 H 2906.45 0.207581 1.47951 0
M  V30 30751 H 2908.33 -2.07776 3.66616 0
M  V30 30752 H 2907.01 -2.09178 2.47035 0
M  V30 30753 H 2905.92 -0.151865 3.73792 0
M  V30 30754 H 2907.25 -0.219478 4.9171 0
M  V30 30755 N 2908.9 -1.56605 0.176849 0
M  V30 30756 C 2910.31 -1.83598 -0.33893 0
M  V30 30757 C 2910.66 -1.09687 -1.62675 0
M  V30 30758 O 2909.79 -0.351699 -2.13523 0
M  V30 30759 C 2910.38 -3.33047 -0.621711 0
M  V30 30760 C 2908.94 -3.60516 -1.08191 0
M  V30 30761 C 2908.09 -2.77037 -0.120725 0
M  V30 30762 H 2911.04 -1.5355 0.401005 0
M  V30 30763 H 2911.06 -3.50826 -1.47314 0
M  V30 30764 H 2910.57 -3.86813 0.315759 0
M  V30 30765 H 2908.67 -3.12165 -2.03429 0
M  V30 30766 H 2908.79 -4.68818 -0.987247 0
M  V30 30767 H 2907.15 -2.4706 -0.619149 0
M  V30 30768 H 2907.93 -3.33586 0.810865 0
M  V30 30769 N 2910.38 0.0968524 -1.57302 0
M  V30 30770 C 2911.33 1.11762 -2.01935 0
M  V30 30771 C 2912.3 1.39902 -0.895354 0
M  V30 30772 O 2913.48 1.51395 -1.16122 0
M  V30 30773 C 2910.62 2.43313 -2.4473 0
M  V30 30774 C 2909.73 2.21919 -3.70643 0
M  V30 30775 C 2908.87 3.46855 -4.02324 0
M  V30 30776 C 2907.91 3.20716 -5.21352 0
M  V30 30777 N 2907.04 4.37914 -5.48795 0
M  V30 30778 H 2911.88 0.730024 -2.8892 0
M  V30 30779 H 2909.42 0.348937 -1.42902 0
M  V30 30780 H 2911.38 3.20084 -2.67586 0
M  V30 30781 H 2910.01 2.79923 -1.60758 0
M  V30 30782 H 2909.06 1.35959 -3.55274 0
M  V30 30783 H 2910.37 1.98595 -4.57561 0
M  V30 30784 H 2909.53 4.32035 -4.25947 0
M  V30 30785 H 2908.27 3.73232 -3.13925 0
M  V30 30786 H 2907.27 2.33929 -4.97551 0
M  V30 30787 H 2908.5 2.95687 -6.11348 0
M  V30 30788 H 2906.44 4.6437 -4.63354 0
M  V30 30789 H 2906.36 4.17774 -6.3008 0
M  V30 30790 H 2907.63 5.24163 -5.76952 0
M  V30 30791 N 2911.86 1.53252 0.36763 0
M  V30 30792 C 2913.27 1.61045 0.944535 0
M  V30 30793 C 2913.62 0.476579 1.90324 0
M  V30 30794 O 2912.74 -0.397296 2.12722 0
M  V30 30795 C 2913.34 2.91901 1.71987 0
M  V30 30796 C 2911.9 3.02035 2.24614 0
M  V30 30797 C 2911.04 2.56326 1.05795 0
M  V30 30798 H 2914 1.58022 0.146489 0
M  V30 30799 H 2914.02 2.79588 2.5809 0
M  V30 30800 H 2913.53 3.74406 1.02185 0
M  V30 30801 H 2911.63 2.24114 2.97664 0
M  V30 30802 H 2911.74 4.07077 2.52636 0
M  V30 30803 H 2910.11 2.11152 1.42432 0
M  V30 30804 H 2910.89 3.41246 0.374948 0
M  V30 30805 N 2913.34 -0.627313 1.44577 0
M  V30 30806 C 2914.27 -1.7524 1.47728 0
M  V30 30807 C 2915.28 -1.58535 0.370221 0
M  V30 30808 O 2916.47 -1.66778 0.63618 0
M  V30 30809 C 2913.57 -3.1301 1.29916 0
M  V30 30810 C 2912.74 -3.56139 2.53937 0
M  V30 30811 C 2911.8 -4.728 2.30969 0
M  V30 30812 O 2910.83 -4.80918 3.04478 0
M  V30 30813 N 2912.03 -5.64758 1.34271 0
M  V30 30814 H 2914.79 -1.73008 2.44721 0
M  V30 30815 H 2912.36 -0.811997 1.40065 0
M  V30 30816 H 2914.35 -3.8878 1.12392 0
M  V30 30817 H 2912.92 -3.09863 0.412723 0
M  V30 30818 H 2912.14 -2.70537 2.86711 0
M  V30 30819 H 2913.43 -3.81707 3.36418 0
M  V30 30820 H 2912.82 -5.60896 0.735672 0
M  V30 30821 H 2911.38 -6.40142 1.22724 0
M  V30 30822 N 2914.81 -1.31539 -0.868063 0
M  V30 30823 C 2916.06 -1.20692 -1.61605 0
M  V30 30824 C 2916.38 0.23324 -1.94204 0
M  V30 30825 O 2917.58 0.463418 -2.67516 0
M  V30 30826 C 2916.04 -2.11297 -2.91344 0
M  V30 30827 C 2915.65 -3.6032 -2.66221 0
M  V30 30828 C 2917.39 -2.09255 -3.69341 0
M  V30 30829 C 2915.3 -4.42927 -3.91879 0
M  V30 30830 H 2914.23 -0.448149 -0.606365 0
M  V30 30831 H 2916.88 -1.56407 -0.959638 0
M  V30 30832 H 2915.26 -1.68483 -3.58371 0
M  V30 30833 H 2916.43 -4.11392 -2.0759 0
M  V30 30834 H 2914.75 -3.64357 -2.01576 0
M  V30 30835 H 2917.35 -2.68217 -4.62562 0
M  V30 30836 H 2917.69 -1.08017 -4.02042 0
M  V30 30837 H 2918.22 -2.5028 -3.092 0
M  V30 30838 H 2914.96 -5.44928 -3.64327 0
M  V30 30839 H 2914.48 -3.96612 -4.49954 0
M  V30 30840 H 2916.16 -4.55239 -4.59746 0
M  V30 30841 N 2916.29 1.08262 -1.1453 0
M  V30 30842 C 2917.22 2.14558 -0.777192 0
M  V30 30843 C 2918.2 1.60787 0.242137 0
M  V30 30844 O 2919.39 1.88045 0.130849 0
M  V30 30845 C 2916.51 3.38349 -0.154151 0
M  V30 30846 C 2915.56 4.10874 -1.14389 0
M  V30 30847 S 2916.39 4.63508 -2.68181 0
M  V30 30848 C 2917.55 5.90584 -2.0727 0
M  V30 30849 H 2917.78 2.45451 -1.67752 0
M  V30 30850 H 2915.31 1.20394 -0.966683 0
M  V30 30851 H 2917.27 4.10018 0.198898 0
M  V30 30852 H 2915.93 3.05651 0.723634 0
M  V30 30853 H 2915.13 4.99713 -0.655996 0
M  V30 30854 H 2914.73 3.45125 -1.44101 0
M  V30 30855 H 2917.02 6.62257 -1.42906 0
M  V30 30856 H 2917.96 6.44072 -2.94239 0
M  V30 30857 H 2918.37 5.43666 -1.51945 0
M  V30 30858 N 2917.77 0.940655 1.26449 0
M  V30 30859 C 2919.02 0.598337 1.944 0
M  V30 30860 C 2919.37 -0.853148 1.7245 0
M  V30 30861 O 2918.66 -1.60226 1.05062 0
M  V30 30862 C 2918.86 0.875855 3.46502 0
M  V30 30863 C 2918.69 2.35277 3.83243 0
M  V30 30864 C 2917.46 3.00783 4.06027 0
M  V30 30865 C 2919.65 3.33121 3.91835 0
M  V30 30866 N 2917.64 4.38492 4.29649 0
M  V30 30867 C 2919.01 4.56086 4.19983 0
M  V30 30868 C 2921.06 3.28152 3.7446 0
M  V30 30869 C 2919.77 5.74701 4.32564 0
M  V30 30870 C 2921.79 4.46092 3.88273 0
M  V30 30871 C 2921.15 5.67839 4.16819 0
M  V30 30872 H 2917.25 0.26931 0.734164 0
M  V30 30873 H 2919.84 1.20995 1.52539 0
M  V30 30874 H 2918.01 0.293291 3.87291 0
M  V30 30875 H 2919.74 0.494859 4.01663 0
M  V30 30876 H 2916.49 2.51403 4.01364 0
M  V30 30877 H 2916.92 5.0977 4.45492 0
M  V30 30878 H 2921.56 2.35084 3.51419 0
M  V30 30879 H 2919.28 6.68223 4.54426 0
M  V30 30880 H 2922.86 4.43779 3.76233 0
M  V30 30881 H 2921.74 6.57577 4.27272 0
M  V30 30882 N 2919.25 -1.40821 0.707617 0
M  V30 30883 C 2920.66 -1.55001 0.380367 0
M  V30 30884 C 2920.86 -1.68064 -1.1116 0
M  V30 30885 O 2919.92 -1.66578 -1.89758 0
M  V30 30886 C 2921.23 -2.78275 1.13945 0
M  V30 30887 C 2922.78 -2.92085 1.12497 0
M  V30 30888 C 2923.26 -4.18262 1.86604 0
M  V30 30889 N 2924.75 -4.25245 1.83633 0
M  V30 30890 C 2925.48 -5.21763 2.37804 0
M  V30 30891 N 2924.98 -6.24239 3.00496 0
M  V30 30892 N 2926.77 -5.13787 2.27991 0
M  V30 30893 H 2918.92 -1.30587 1.67513 0
M  V30 30894 H 2921.18 -0.630888 0.70759 0
M  V30 30895 H 2920.89 -2.74873 2.19403 0
M  V30 30896 H 2920.76 -3.7015 0.725858 0
M  V30 30897 H 2923.15 -2.94995 0.0786083 0
M  V30 30898 H 2923.23 -2.0135 1.57771 0
M  V30 30899 H 2922.88 -4.16113 2.91226 0
M  V30 30900 H 2922.81 -5.07991 1.38755 0
M  V30 30901 H 2925.3 -3.51827 1.37936 0
M  V30 30902 H 2925.61 -6.94298 3.39367 0
M  V30 30903 H 2923.96 -6.24706 3.04578 0
M  V30 30904 H 2927.15 -4.32657 1.78676 0
M  V30 30905 H 2927.32 -5.88837 2.7051 0
M  V30 30906 N 2920.73 -0.453223 -1.50943 0
M  V30 30907 C 2921.66 0.340399 -2.31005 0
M  V30 30908 C 2922.64 1.00667 -1.37114 0
M  V30 30909 O 2923.82 1.00727 -1.66035 0
M  V30 30910 C 2920.95 1.43295 -3.1636 0
M  V30 30911 C 2919.91 0.889289 -4.18659 0
M  V30 30912 C 2919.23 2.07879 -4.92636 0
M  V30 30913 C 2920.53 -0.087206 -5.22227 0
M  V30 30914 H 2922.23 -0.327775 -2.976 0
M  V30 30915 H 2919.77 -0.159079 -1.43119 0
M  V30 30916 H 2921.72 1.99549 -3.71158 0
M  V30 30917 H 2920.45 2.12964 -2.47617 0
M  V30 30918 H 2919.11 0.348851 -3.64936 0
M  V30 30919 H 2918.76 2.76204 -4.20381 0
M  V30 30920 H 2918.46 1.72133 -5.61822 0
M  V30 30921 H 2919.98 2.64656 -5.50263 0
M  V30 30922 H 2921.39 0.385555 -5.72002 0
M  V30 30923 H 2919.79 -0.358031 -5.99031 0
M  V30 30924 H 2920.86 -1.01887 -4.74075 0
M  V30 30925 N 2922.2 1.56509 -0.185151 0
M  V30 30926 C 2923.61 1.83775 0.329189 0
M  V30 30927 C 2923.97 1.10548 1.62091 0
M  V30 30928 O 2923.09 0.363018 2.13333 0
M  V30 30929 C 2923.69 3.33372 0.60404 0
M  V30 30930 C 2922.24 3.61084 1.06278 0
M  V30 30931 C 2921.39 2.77097 0.106031 0
M  V30 30932 H 2924.34 1.53335 -0.409143 0
M  V30 30933 H 2924.36 3.51602 1.45452 0
M  V30 30934 H 2923.88 3.8664 -0.336269 0
M  V30 30935 H 2921.98 3.1324 2.01771 0
M  V30 30936 H 2922.09 4.69335 0.96237 0
M  V30 30937 H 2920.45 2.47385 0.606038 0
M  V30 30938 H 2921.24 3.33152 -0.828544 0
M  V30 30939 N 2923.68 -0.0885089 1.57351 0
M  V30 30940 C 2924.91 -0.808017 1.91013 0
M  V30 30941 C 2925.33 -1.71164 0.780039 0
M  V30 30942 O 2924.69 -1.79307 -0.268051 0
M  V30 30943 C 2924.74 -1.59179 3.23565 0
M  V30 30944 O 2923.84 -2.70124 3.11619 0
M  V30 30945 H 2923.18 -0.221554 0.625947 0
M  V30 30946 H 2925.71 -0.0617594 2.04507 0
M  V30 30947 H 2925.72 -1.97461 3.57034 0
M  V30 30948 H 2924.4 -0.92867 4.05399 0
M  V30 30949 H 2922.97 -2.34822 2.89678 0
M  V30 30950 N 2925.16 -1.53445 -0.359498 0
M  V30 30951 C 2926.11 -1.80312 -1.4407 0
M  V30 30952 C 2927.08 -0.647837 -1.52945 0
M  V30 30953 O 2928.26 -0.890644 -1.68737 0
M  V30 30954 C 2925.4 -2.0042 -2.80937 0
M  V30 30955 C 2924.51 -3.28137 -2.8098 0
M  V30 30956 C 2923.65 -3.384 -4.09462 0
M  V30 30957 C 2922.69 -4.60126 -4.03671 0
M  V30 30958 N 2921.83 -4.67509 -5.23813 0
M  V30 30959 H 2926.67 -2.72568 -1.2046 0
M  V30 30960 H 2924.2 -1.35018 -0.583836 0
M  V30 30961 H 2926.16 -2.10067 -3.60455 0
M  V30 30962 H 2924.79 -1.11494 -3.02934 0
M  V30 30963 H 2923.84 -3.27414 -1.9366 0
M  V30 30964 H 2925.15 -4.17737 -2.72575 0
M  V30 30965 H 2924.31 -3.47391 -4.97398 0
M  V30 30966 H 2923.05 -2.46827 -4.20628 0
M  V30 30967 H 2922.05 -4.5123 -3.14121 0
M  V30 30968 H 2923.28 -5.53046 -3.94102 0
M  V30 30969 H 2921.22 -3.7884 -5.35552 0
M  V30 30970 H 2921.14 -5.51022 -5.17601 0
M  V30 30971 H 2922.41 -4.80791 -6.13564 0
M  V30 30972 N 2926.64 0.619637 -1.44908 0
M  V30 30973 C 2927.6 1.71295 -1.52285 0
M  V30 30974 C 2928.6 1.55652 -0.403617 0
M  V30 30975 O 2929.79 1.60938 -0.666667 0
M  V30 30976 C 2926.92 3.10472 -1.40783 0
M  V30 30977 H 2928.12 1.66124 -2.49686 0
M  V30 30978 H 2925.67 0.834315 -1.3217 0
M  V30 30979 H 2926.4 3.21229 -0.445212 0
M  V30 30980 H 2926.19 3.23233 -2.21952 0
M  V30 30981 H 2927.68 3.90132 -1.48952 0
M  V30 30982 N 2928.12 1.31997 0.861075 0
M  V30 30983 C 2929.36 1.22372 1.61718 0
M  V30 30984 C 2929.7 -0.215553 1.93 0
M  V30 30985 O 2928.97 -1.15095 1.56791 0
M  V30 30986 C 2929.25 2.07697 2.94167 0
M  V30 30987 C 2929.11 3.5997 2.69707 0
M  V30 30988 C 2930.43 1.93319 3.95368 0
M  V30 30989 H 2927.54 0.445891 0.586814 0
M  V30 30990 H 2930.19 1.61878 0.994759 0
M  V30 30991 H 2928.34 1.74134 3.47289 0
M  V30 30992 H 2930.01 4.03713 2.23189 0
M  V30 30993 H 2928.25 3.82956 2.03783 0
M  V30 30994 H 2928.92 4.14989 3.63989 0
M  V30 30995 H 2931.4 2.22708 3.51483 0
M  V30 30996 H 2930.27 2.55307 4.85911 0
M  V30 30997 H 2930.54 0.898998 4.32863 0
M  V30 30998 N 2929.59 -1.07653 1.15103 0
M  V30 30999 C 2930.84 -1.80457 0.925375 0
M  V30 31000 C 2931.17 -1.86357 -0.546322 0
M  V30 31001 O 2930.45 -1.34506 -1.40494 0
M  V30 31002 C 2930.73 -3.25673 1.53652 0
M  V30 31003 C 2930.58 -3.27936 3.0786 0
M  V30 31004 C 2931.9 -4.22859 1.21976 0
M  V30 31005 H 2929.02 -0.655128 0.337603 0
M  V30 31006 H 2931.66 -1.25991 1.42219 0
M  V30 31007 H 2929.81 -3.72185 1.11402 0
M  V30 31008 H 2931.49 -2.89691 3.58994 0
M  V30 31009 H 2929.73 -2.66985 3.41909 0
M  V30 31010 H 2930.4 -4.30318 3.45732 0
M  V30 31011 H 2932.88 -3.84723 1.58516 0
M  V30 31012 H 2931.75 -5.22764 1.67359 0
M  V30 31013 H 2932.01 -4.4189 0.136285 0
M  V30 31014 N 2931.07 -0.947348 -1.25949 0
M  V30 31015 C 2932.35 -0.515857 -1.88675 0
M  V30 31016 C 2932.73 1.00671 -1.85549 0
M  V30 31017 O 2932.08 1.86938 -1.31402 0
M  V30 31018 C 2932.29 -1.08421 -3.31732 0
M  V30 31019 C 2933.64 -1.15662 -4.08543 0
M  V30 31020 O 2934.66 -1.03523 -3.40825 0
M  V30 31021 O 2933.52 -1.34617 -5.29661 0
M  V30 31022 H 2930.61 -0.169069 -0.809534 0
M  V30 31023 H 2933.16 -1.04031 -1.34073 0
M  V30 31024 H 2931.93 -2.12766 -3.284 0
M  V30 31025 H 2931.55 -0.542568 -3.93881 0
M  V30 31026 N 2932.55 1.40444 -0.715075 0
M  V30 31027 C 2933.48 2.29189 -0.0227919 0
M  V30 31028 C 2934.5 1.45801 0.724287 0
M  V30 31029 O 2935.68 1.69095 0.571752 0
M  V30 31030 C 2932.78 3.24057 0.991981 0
M  V30 31031 C 2931.96 4.36296 0.310536 0
M  V30 31032 C 2931.02 5.11607 1.23062 0
M  V30 31033 O 2930.04 5.64684 0.715611 0
M  V30 31034 N 2931.24 5.20915 2.56179 0
M  V30 31035 H 2934.01 2.89243 -0.784781 0
M  V30 31036 H 2931.57 1.51808 -0.562664 0
M  V30 31037 H 2933.56 3.71311 1.60967 0
M  V30 31038 H 2932.13 2.65174 1.65534 0
M  V30 31039 H 2931.35 3.91176 -0.487338 0
M  V30 31040 H 2932.64 5.0854 -0.162505 0
M  V30 31041 H 2932.04 4.79275 3.00519 0
M  V30 31042 H 2930.6 5.71678 3.13093 0
M  V30 31043 N 2934.03 0.461222 1.507 0
M  V30 31044 C 2934.96 -0.374204 2.26125 0
M  V30 31045 C 2935.97 -0.965692 1.31066 0
M  V30 31046 O 2937.16 -0.855774 1.56649 0
M  V30 31047 C 2934.26 -1.53785 3.01999 0
M  V30 31048 C 2933.44 -1.06094 4.24338 0
M  V30 31049 C 2932.49 -2.09748 4.82589 0
M  V30 31050 O 2931.52 -1.6821 5.43778 0
M  V30 31051 N 2932.72 -3.42467 4.68718 0
M  V30 31052 H 2935.49 0.272352 2.9846 0
M  V30 31053 H 2933.05 0.291443 1.59255 0
M  V30 31054 H 2935.04 -2.228 3.3785 0
M  V30 31055 H 2933.61 -2.08929 2.32524 0
M  V30 31056 H 2932.83 -0.197016 3.93707 0
M  V30 31057 H 2934.12 -0.720067 5.03679 0
M  V30 31058 H 2933.52 -3.78931 4.20033 0
M  V30 31059 H 2932.07 -4.07308 5.08865 0
M  V30 31060 N 2935.51 -1.56408 0.193449 0
M  V30 31061 C 2936.46 -2.15628 -0.740852 0
M  V30 31062 C 2937.44 -1.09658 -1.17745 0
M  V30 31063 O 2938.63 -1.35725 -1.13612 0
M  V30 31064 C 2935.76 -2.81789 -1.96086 0
M  V30 31065 C 2934.85 -3.94947 -1.54524 0
M  V30 31066 N 2935.24 -4.98768 -0.840481 0
M  V30 31067 C 2933.54 -4.06517 -1.83466 0
M  V30 31068 C 2934.24 -5.78251 -0.632469 0
M  V30 31069 N 2933.21 -5.30623 -1.18069 0
M  V30 31070 H 2937.02 -2.93261 -0.193666 0
M  V30 31071 H 2934.53 -1.62399 -0.00640356 0
M  V30 31072 H 2936.53 -3.22606 -2.64066 0
M  V30 31073 H 2935.19 -2.05643 -2.51278 0
M  V30 31074 H 2936.2 -5.15518 -0.496127 0
M  V30 31075 H 2932.87 -3.41498 -2.40178 0
M  V30 31076 H 2934.26 -6.7186 -0.0735252 0
M  V30 31077 N 2936.98 0.0801629 -1.57396 0
M  V30 31078 C 2938.4 0.434751 -1.53565 0
M  V30 31079 C 2938.6 1.79659 -0.912403 0
M  V30 31080 O 2937.66 2.47269 -0.511311 0
M  V30 31081 C 2938.97 0.383508 -2.98244 0
M  V30 31082 C 2940.52 0.464296 -3.09537 0
M  V30 31083 C 2940.99 0.443047 -4.55852 0
M  V30 31084 N 2942.48 0.503367 -4.60457 0
M  V30 31085 C 2943.22 0.509006 -5.71136 0
M  V30 31086 N 2942.71 0.469958 -6.91204 0
M  V30 31087 N 2944.51 0.554937 -5.59354 0
M  V30 31088 H 2936.66 -0.81167 -1.9628 0
M  V30 31089 H 2938.92 -0.303705 -0.898035 0
M  V30 31090 H 2938.63 -0.550297 -3.47368 0
M  V30 31091 H 2938.5 1.19688 -3.57708 0
M  V30 31092 H 2940.89 1.38852 -2.60392 0
M  V30 31093 H 2940.97 -0.37749 -2.52999 0
M  V30 31094 H 2940.61 -0.477296 -5.05652 0
M  V30 31095 H 2940.54 1.30225 -5.10244 0
M  V30 31096 H 2943.03 0.538134 -3.74049 0
M  V30 31097 H 2943.35 0.477956 -7.71321 0
M  V30 31098 H 2941.69 0.436775 -6.93626 0
M  V30 31099 H 2944.88 0.583077 -4.64454 0
M  V30 31100 H 2945.06 0.555862 -6.45611 0
M  V30 31101 N 2938.46 1.53634 0.351355 0
M  V30 31102 C 2939.71 1.70756 1.09408 0
M  V30 31103 C 2940.04 0.465326 1.88543 0
M  V30 31104 O 2939.32 -0.537575 1.86923 0
M  V30 31105 C 2939.6 2.96627 2.04168 0
M  V30 31106 C 2939.45 4.3104 1.28548 0
M  V30 31107 C 2940.77 3.18141 3.04096 0
M  V30 31108 H 2937.89 0.621342 0.396362 0
M  V30 31109 H 2940.53 1.86294 0.373431 0
M  V30 31110 H 2938.68 2.8351 2.6562 0
M  V30 31111 H 2940.35 4.55993 0.697706 0
M  V30 31112 H 2938.6 4.29804 0.587422 0
M  V30 31113 H 2939.27 5.15275 1.9798 0
M  V30 31114 H 2941.74 3.30536 2.52755 0
M  V30 31115 H 2940.62 4.07621 3.67609 0
M  V30 31116 H 2940.88 2.34075 3.75048 0
M  V30 31117 N 2939.94 -0.611943 1.45234 0
M  V30 31118 C 2941.19 -1.36836 1.48729 0
M  V30 31119 C 2941.51 -1.94575 0.12865 0
M  V30 31120 O 2940.78 -1.76908 -0.841459 0
M  V30 31121 H 2939.36 -0.507966 0.547704 0
M  V30 31122 H 2942.02 -0.718893 1.81157 0
M  V30 31123 H 2941.12 -2.18999 2.22364 0
M  V30 31124 N 2941.42 -1.32452 -0.854063 0
M  V30 31125 C 2942.64 -1.26188 -1.64594 0
M  V30 31126 C 2943.07 0.167041 -1.87357 0
M  V30 31127 O 2942.43 1.11862 -1.42677 0
M  V30 31128 C 2942.47 -2.0274 -2.9821 0
M  V30 31129 O 2941.58 -1.37561 -3.88781 0
M  V30 31130 H 2940.92 -0.434868 -0.501783 0
M  V30 31131 H 2943.45 -1.74777 -1.06369 0
M  V30 31132 H 2943.46 -2.12936 -3.48026 0
M  V30 31133 H 2942.13 -3.06647 -2.80964 0
M  V30 31134 H 2940.71 -1.35916 -3.47248 0
M  V30 31135 N 2942.9 1.07041 -1.15672 0
M  V30 31136 C 2944.14 1.80119 -0.94491 0
M  V30 31137 C 2944.5 1.85178 0.522207 0
M  V30 31138 O 2943.79 1.32681 1.38226 0
M  V30 31139 C 2943.99 3.24546 -1.49683 0
M  V30 31140 C 2943.81 3.33561 -3.01608 0
M  V30 31141 C 2942.58 3.43937 -3.70183 0
M  V30 31142 C 2944.78 3.24052 -3.99368 0
M  V30 31143 N 2942.76 3.41887 -5.09888 0
M  V30 31144 C 2944.14 3.29158 -5.2541 0
M  V30 31145 C 2946.19 3.07884 -3.91295 0
M  V30 31146 C 2944.89 3.19758 -6.44319 0
M  V30 31147 C 2946.92 2.9982 -5.09767 0
M  V30 31148 C 2946.28 3.0554 -6.34684 0
M  V30 31149 H 2942.38 0.672277 -0.399459 0
M  V30 31150 H 2944.96 1.27746 -1.46932 0
M  V30 31151 H 2943.14 3.75332 -0.999007 0
M  V30 31152 H 2944.87 3.85762 -1.22352 0
M  V30 31153 H 2941.62 3.48415 -3.20786 0
M  V30 31154 H 2942.05 3.44383 -5.82863 0
M  V30 31155 H 2946.69 3.02313 -2.95579 0
M  V30 31156 H 2944.41 3.24088 -7.40265 0
M  V30 31157 H 2947.99 2.88409 -5.05284 0
M  V30 31158 H 2946.87 2.99348 -7.24817 0
M  V30 31159 N 2944.38 0.954014 1.25445 0
M  V30 31160 C 2945.62 0.604135 1.9244 0
M  V30 31161 C 2945.94 -0.862765 1.75544 0
M  V30 31162 O 2947.14 -1.32258 2.37108 0
M  V30 31163 C 2945.6 1.0298 3.44852 0
M  V30 31164 C 2945.21 2.5192 3.70459 0
M  V30 31165 C 2946.95 0.752425 4.17778 0
M  V30 31166 C 2944.86 2.8829 5.16374 0
M  V30 31167 H 2943.79 0.22224 0.720504 0
M  V30 31168 H 2946.44 1.15838 1.42316 0
M  V30 31169 H 2944.82 0.403973 3.93934 0
M  V30 31170 H 2946 3.19517 3.32033 0
M  V30 31171 H 2944.31 2.77123 3.10792 0
M  V30 31172 H 2946.91 1.00033 5.25259 0
M  V30 31173 H 2947.25 -0.311139 4.15136 0
M  V30 31174 H 2947.78 1.33857 3.74603 0
M  V30 31175 H 2944.52 3.93662 5.24128 0
M  V30 31176 H 2944.04 2.25367 5.55851 0
M  V30 31177 H 2945.72 2.77449 5.84492 0
M  V30 31178 N 2945.85 -1.40063 0.722513 0
M  V30 31179 C 2946.8 -2.27944 0.0507202 0
M  V30 31180 C 2947.79 -1.43617 -0.725468 0
M  V30 31181 O 2948.98 -1.66645 -0.59653 0
M  V30 31182 C 2946.11 -3.3222 -0.865136 0
M  V30 31183 C 2945.19 -4.24017 -0.0837648 0
M  V30 31184 N 2945.59 -4.97053 0.936603 0
M  V30 31185 C 2943.88 -4.44884 -0.315293 0
M  V30 31186 C 2944.58 -5.64435 1.4067 0
M  V30 31187 N 2943.56 -5.38709 0.727579 0
M  V30 31188 H 2947.36 -2.81858 0.832659 0
M  V30 31189 H 2944.88 -1.52596 0.555718 0
M  V30 31190 H 2946.87 -3.94032 -1.36179 0
M  V30 31191 H 2945.53 -2.79865 -1.64637 0
M  V30 31192 H 2946.54 -5.00858 1.31764 0
M  V30 31193 H 2943.22 -4.03494 -1.07231 0
M  V30 31194 H 2944.61 -6.32932 2.25493 0
M  V30 31195 N 2947.33 -0.469207 -1.50453 0
M  V30 31196 C 2948.58 0.0865615 -2.02615 0
M  V30 31197 C 2948.91 1.3954 -1.35064 0
M  V30 31198 O 2948.19 1.88592 -0.475734 0
M  V30 31199 C 2948.47 0.272322 -3.59069 0
M  V30 31200 C 2948.32 -1.0574 -4.37195 0
M  V30 31201 C 2949.64 1.02772 -4.27932 0
M  V30 31202 H 2946.76 0.0299848 -0.73639 0
M  V30 31203 H 2949.4 -0.61443 -1.79791 0
M  V30 31204 H 2947.55 0.869404 -3.78647 0
M  V30 31205 H 2949.22 -1.69092 -4.29192 0
M  V30 31206 H 2947.47 -1.65449 -4.0101 0
M  V30 31207 H 2948.14 -0.881092 -5.44923 0
M  V30 31208 H 2950.61 0.521646 -4.12817 0
M  V30 31209 H 2949.49 1.12649 -5.37216 0
M  V30 31210 H 2949.75 2.06383 -3.90971 0
M  V30 31211 N 2948.81 1.56303 -0.201741 0
M  V30 31212 C 2950.04 2.01859 0.440049 0
M  V30 31213 C 2950.45 1.081 1.55277 0
M  V30 31214 O 2949.79 0.0792539 1.83529 0
M  V30 31215 C 2949.85 3.43799 1.05085 0
M  V30 31216 C 2949.52 4.56937 0.0760405 0
M  V30 31217 C 2950.51 5.14932 -0.717042 0
M  V30 31218 C 2948.2 5.02286 -0.0369698 0
M  V30 31219 C 2950.19 6.16731 -1.61003 0
M  V30 31220 C 2947.88 6.03928 -0.933515 0
M  V30 31221 C 2948.88 6.61024 -1.71861 0
M  V30 31222 O 2948.57 7.6069 -2.60012 0
M  V30 31223 H 2948.3 0.666296 0.114127 0
M  V30 31224 H 2950.85 2.03052 -0.309708 0
M  V30 31225 H 2949.08 3.39613 1.84932 0
M  V30 31226 H 2950.77 3.73121 1.59798 0
M  V30 31227 H 2951.54 4.80758 -0.640074 0
M  V30 31228 H 2947.42 4.57538 0.563953 0
M  V30 31229 H 2950.96 6.61224 -2.22327 0
M  V30 31230 H 2946.86 6.37524 -1.01157 0
M  V30 31231 H 2947.62 7.78135 -2.53865 0
M  V30 31232 N 2950.29 -0.0718147 1.57436 0
M  V30 31233 C 2951.7 -0.623647 1.75976 0
M  V30 31234 C 2952.05 -1.7791 0.827186 0
M  V30 31235 O 2951.17 -2.16397 0.0112805 0
M  V30 31236 C 2951.77 -1.1381 3.19112 0
M  V30 31237 C 2950.33 -1.6358 3.38996 0
M  V30 31238 C 2949.48 -0.555213 2.71685 0
M  V30 31239 H 2952.43 0.154356 1.57948 0
M  V30 31240 H 2952.45 -2.00691 3.2327 0
M  V30 31241 H 2951.96 -0.29693 3.86962 0
M  V30 31242 H 2950.06 -2.50022 2.7626 0
M  V30 31243 H 2950.17 -1.71276 4.47439 0
M  V30 31244 H 2948.54 -1.00025 2.34237 0
M  V30 31245 H 2949.32 0.275772 3.42191 0
M  V30 31246 N 2951.77 -1.53818 -0.343203 0
M  V30 31247 C 2952.71 -1.82529 -1.44173 0
M  V30 31248 C 2953.71 -0.695799 -1.54451 0
M  V30 31249 O 2954.91 -0.879142 -1.5707 0
M  V30 31250 H 2951.29 -0.578285 -0.480719 0
M  V30 31251 H 2953.26 -2.74433 -1.17171 0
M  V30 31252 C 2952.01 -2.05202 -2.80691 0
M  V30 31253 H 2951.33 -2.91566 -2.73549 0
M  V30 31254 H 2952.77 -2.29257 -3.56675 0
M  V30 31255 C 2951.23 -0.837646 -3.26321 0
M  V30 31256 O 2951.76 -0.0372337 -4.01683 0
M  V30 31257 N 2949.97 -0.654773 -2.83127 0
M  V30 31258 H 2949.51 -1.30729 -2.21963 0
M  V30 31259 H 2949.47 0.156289 -3.14011 0
M  V30 31260 N 2953.24 0.604233 -1.45557 0
M  V30 31261 C 2954.49 1.36045 -1.49453 0
M  V30 31262 C 2954.81 1.94504 -0.138967 0
M  V30 31263 O 2954.08 1.77351 0.832065 0
M  V30 31264 H 2952.66 0.505055 -0.55039 0
M  V30 31265 H 2955.32 0.709276 -1.81536 0
M  V30 31266 H 2954.42 2.17817 -2.23522 0
M  V30 31267 N 2954.72 1.32903 0.847027 0
M  V30 31268 C 2955.95 1.27059 1.63923 0
M  V30 31269 C 2956.37 -0.157103 1.87443 0
M  V30 31270 O 2955.73 -1.11103 1.43268 0
M  V30 31271 C 2955.78 2.04318 2.9713 0
M  V30 31272 O 2954.88 1.3962 3.88046 0
M  V30 31273 H 2954.22 0.437523 0.49947 0
M  V30 31274 H 2956.75 1.75338 1.0544 0
M  V30 31275 H 2956.76 2.14778 3.46892 0
M  V30 31276 H 2955.44 3.08133 2.79333 0
M  V30 31277 H 2954.01 1.37756 3.46522 0
M  V30 31278 N 2956.2 -1.06426 1.16238 0
M  V30 31279 C 2957.13 -2.15838 0.890845 0
M  V30 31280 C 2958.11 -1.69324 -0.162303 0
M  V30 31281 O 2959.3 -1.94194 -0.014685 0
M  V30 31282 C 2956.43 -3.45107 0.389675 0
M  V30 31283 C 2955.38 -4.05122 1.38058 0
M  V30 31284 C 2954.71 -5.29584 0.737867 0
M  V30 31285 C 2956.01 -4.44058 2.74973 0
M  V30 31286 H 2957.7 -2.38811 1.80582 0
M  V30 31287 H 2955.25 -1.14772 0.869677 0
M  V30 31288 H 2957.2 -4.20984 0.187201 0
M  V30 31289 H 2955.92 -3.21749 -0.560794 0
M  V30 31290 H 2954.58 -3.313 1.56958 0
M  V30 31291 H 2954.23 -5.02523 -0.219047 0
M  V30 31292 H 2953.93 -5.70697 1.39924 0
M  V30 31293 H 2955.45 -6.08159 0.545381 0
M  V30 31294 H 2956.87 -5.11022 2.59864 0
M  V30 31295 H 2955.26 -4.9615 3.37572 0
M  V30 31296 H 2956.33 -3.54982 3.30327 0
M  V30 31297 N 2957.68 -0.960653 -1.24937 0
M  V30 31298 C 2958.93 -0.618697 -1.92817 0
M  V30 31299 C 2959.25 0.845142 -1.75179 0
M  V30 31300 O 2958.51 1.62256 -1.09414 0
M  V30 31301 C 2958.81 -0.93087 -3.45065 0
M  V30 31302 C 2958.47 -2.38171 -3.82865 0
M  V30 31303 C 2957.14 -2.77827 -3.92894 0
M  V30 31304 C 2959.49 -3.32364 -4.01477 0
M  V30 31305 C 2956.82 -4.10731 -4.18948 0
M  V30 31306 C 2959.17 -4.64887 -4.29025 0
M  V30 31307 C 2957.83 -5.0433 -4.37273 0
M  V30 31308 H 2957.1 -0.226397 -0.705567 0
M  V30 31309 H 2959.75 -1.21082 -1.48362 0
M  V30 31310 H 2958.05 -0.256424 -3.9096 0
M  V30 31311 H 2959.75 -0.644782 -3.95782 0
M  V30 31312 H 2956.34 -2.06419 -3.75618 0
M  V30 31313 H 2960.52 -3.02914 -3.93137 0
M  V30 31314 H 2955.78 -4.40925 -4.2355 0
M  V30 31315 H 2959.95 -5.37848 -4.42372 0
M  V30 31316 H 2957.58 -6.07338 -4.57214 0
M  V30 31317 N 2959.16 1.39677 -0.729931 0
M  V30 31318 C 2960.41 1.9985 -0.272569 0
M  V30 31319 C 2960.72 1.58573 1.14516 0
M  V30 31320 O 2961.92 2.11546 1.70178 0
M  V30 31321 C 2960.38 3.57245 -0.436385 0
M  V30 31322 C 2959.99 4.07487 -1.86168 0
M  V30 31323 C 2961.73 4.24481 -0.0405425 0
M  V30 31324 C 2959.64 5.57436 -1.97531 0
M  V30 31325 H 2958.57 0.747584 -0.0981559 0
M  V30 31326 H 2961.22 1.59739 -0.903084 0
M  V30 31327 H 2959.6 3.95126 0.262945 0
M  V30 31328 H 2960.78 3.80951 -2.59255 0
M  V30 31329 H 2959.09 3.52896 -2.21027 0
M  V30 31330 H 2961.69 5.34598 -0.104531 0
M  V30 31331 H 2962.03 4.04024 1.0035 0
M  V30 31332 H 2962.56 3.91755 -0.690842 0
M  V30 31333 H 2959.3 5.82766 -3.00106 0
M  V30 31334 H 2958.82 5.85791 -1.28874 0
M  V30 31335 H 2960.5 6.22768 -1.75411 0
M  V30 31336 N 2960.63 0.47718 1.50202 0
M  V30 31337 C 2961.88 -0.0755534 2.01959 0
M  V30 31338 C 2962.2 -1.39666 1.36082 0
M  V30 31339 O 2961.47 -1.89194 0.508169 0
M  V30 31340 H 2960.05 -0.0309117 0.74636 0
M  V30 31341 H 2962.72 0.628991 1.84471 0
M  V30 31342 H 2961.81 -0.222628 3.11305 0
M  V30 31343 N 2962.11 -1.56194 0.210027 0
M  V30 31344 C 2963.34 -2.02829 -0.433028 0
M  V30 31345 C 2963.76 -1.08903 -1.53368 0
M  V30 31346 O 2963.12 -0.075145 -1.81144 0
M  V30 31347 C 2963.17 -3.47791 -0.952574 0
M  V30 31348 O 2962.27 -3.56997 -2.06463 0
M  V30 31349 H 2961.61 -0.656511 -0.0994479 0
M  V30 31350 H 2964.14 -2.01998 0.325285 0
M  V30 31351 H 2964.15 -3.87882 -1.26536 0
M  V30 31352 H 2962.83 -4.1564 -0.146934 0
M  V30 31353 H 2961.41 -3.28787 -1.75936 0
M  V30 31354 N 2963.59 0.0634645 -1.57472 0
M  V30 31355 C 2964.84 0.762161 -1.87933 0
M  V30 31356 C 2965.17 1.76802 -0.803408 0
M  V30 31357 O 2964.44 1.93614 0.185434 0
M  V30 31358 C 2964.73 1.46269 -3.29055 0
M  V30 31359 C 2964.58 0.472676 -4.4731 0
M  V30 31360 C 2965.9 2.40552 -3.68541 0
M  V30 31361 H 2963.02 0.275612 -0.683525 0
M  V30 31362 H 2965.66 0.0252317 -1.89983 0
M  V30 31363 H 2963.81 2.09084 -3.27439 0
M  V30 31364 H 2965.48 -0.150909 -4.61053 0
M  V30 31365 H 2963.73 -0.211263 -4.33285 0
M  V30 31366 H 2964.4 1.00062 -5.42855 0
M  V30 31367 H 2966.87 1.87808 -3.71305 0
M  V30 31368 H 2965.75 2.86566 -4.68157 0
M  V30 31369 H 2966.01 3.25726 -2.98923 0
M  V30 31370 N 2965.07 1.53998 0.33504 0
M  V30 31371 C 2966.3 1.75602 1.09415 0
M  V30 31372 C 2966.71 0.49917 1.82082 0
M  V30 31373 O 2966.07 -0.529601 1.74647 0
M  V30 31374 C 2966.12 2.9417 2.1011 0
M  V30 31375 O 2965.84 4.14994 1.40397 0
M  V30 31376 C 2967.34 3.27893 2.9833 0
M  V30 31377 H 2964.56 0.586519 0.32594 0
M  V30 31378 H 2967.11 2.0085 0.384658 0
M  V30 31379 H 2965.26 2.71228 2.76611 0
M  V30 31380 H 2965.67 4.81608 2.07734 0
M  V30 31381 H 2967.15 4.14186 3.64902 0
M  V30 31382 H 2967.63 2.44563 3.64809 0
M  V30 31383 H 2968.23 3.52872 2.37406 0
M  V30 31384 N 2966.55 -0.596505 1.45875 0
M  V30 31385 C 2967.46 -1.73461 1.5795 0
M  V30 31386 C 2968.47 -1.67713 0.46349 0
M  V30 31387 O 2969.65 -1.8787 0.725718 0
M  V30 31388 C 2966.71 -3.09946 1.55353 0
M  V30 31389 C 2965.77 -3.27063 2.7808 0
M  V30 31390 C 2965.01 -4.57036 2.75597 0
M  V30 31391 O 2965.23 -5.40059 1.83554 0
M  V30 31392 O 2964.16 -4.77105 3.66953 0
M  V30 31393 H 2967.99 -1.66223 2.54172 0
M  V30 31394 H 2965.58 -0.761918 1.28511 0
M  V30 31395 H 2967.46 -3.91241 1.56552 0
M  V30 31396 H 2966.13 -3.17651 0.622867 0
M  V30 31397 H 2965.04 -2.45314 2.82439 0
M  V30 31398 H 2966.37 -3.24241 3.70309 0
M  V30 31399 N 2968.02 -1.3335 -0.839967 0
M  V30 31400 C 2968.97 -1.23513 -1.9497 0
M  V30 31401 C 2969.94 -0.113996 -1.65708 0
M  V30 31402 O 2971.13 -0.292078 -1.88551 0
M  V30 31403 C 2968.27 -0.979163 -3.30918 0
M  V30 31404 C 2967.38 -2.18646 -3.72583 0
M  V30 31405 C 2966.51 -1.86474 -4.97394 0
M  V30 31406 C 2965.55 -3.03442 -5.31592 0
M  V30 31407 N 2964.69 -2.71265 -6.4758 0
M  V30 31408 H 2969.53 -2.18427 -2.02716 0
M  V30 31409 H 2967.07 -1.08618 -0.991998 0
M  V30 31410 H 2969.03 -0.811198 -4.09238 0
M  V30 31411 H 2967.66 -0.0667667 -3.22731 0
M  V30 31412 H 2966.71 -2.46421 -2.89795 0
M  V30 31413 H 2968.02 -3.06093 -3.93839 0
M  V30 31414 H 2967.17 -1.66315 -5.83459 0
M  V30 31415 H 2965.91 -0.962624 -4.78105 0
M  V30 31416 H 2964.92 -3.24216 -4.44032 0
M  V30 31417 H 2966.14 -3.94407 -5.52829 0
M  V30 31418 H 2964.09 -1.83611 -6.2978 0
M  V30 31419 H 2964.01 -3.52243 -6.68925 0
M  V30 31420 H 2965.27 -2.54571 -7.36759 0
M  V30 31421 N 2969.5 1.05808 -1.16801 0
M  V30 31422 C 2970.78 1.7555 -0.862647 0
M  V30 31423 C 2971.16 2.01213 0.638465 0
M  V30 31424 O 2970.51 1.64319 1.58781 0
M  V30 31425 C 2970.72 3.05311 -1.69075 0
M  V30 31426 C 2972.07 3.79375 -1.90682 0
M  V30 31427 O 2973.09 3.15164 -1.65982 0
M  V30 31428 O 2971.95 4.94739 -2.32153 0
M  V30 31429 H 2969.04 0.763082 -0.318802 0
M  V30 31430 H 2971.59 1.12032 -1.27463 0
M  V30 31431 H 2970.36 2.82347 -2.70917 0
M  V30 31432 H 2969.98 3.76564 -1.27613 0
M  V30 31433 N 2970.98 0.967265 1.24426 0
M  V30 31434 C 2972.21 0.646103 1.97079 0
M  V30 31435 C 2972.63 -0.777635 1.71273 0
M  V30 31436 O 2971.99 -1.52774 0.976206 0
M  V30 31437 C 2972.04 0.926328 3.48499 0
M  V30 31438 O 2971.14 0.0115378 4.12398 0
M  V30 31439 H 2970.48 0.244315 0.617419 0
M  V30 31440 H 2973.01 1.2973 1.58213 0
M  V30 31441 H 2973.02 0.857689 3.98883 0
M  V30 31442 H 2971.7 1.96393 3.6661 0
M  V30 31443 H 2970.27 0.133461 3.72661 0
M  V30 31444 N 2972.46 -1.39288 0.737328 0
M  V30 31445 C 2973.71 -2.0007 0.285727 0
M  V30 31446 C 2974.03 -1.58803 -1.13166 0
M  V30 31447 O 2973.3 -0.837339 -1.77103 0
M  V30 31448 H 2971.88 -0.739913 0.102651 0
M  V30 31449 H 2974.54 -1.70302 0.947805 0
M  V30 31450 H 2973.64 -3.10287 0.33596 0
M  V30 31451 N 2973.94 -0.485139 -1.49947 0
M  V30 31452 C 2975.18 0.0650666 -2.02696 0
M  V30 31453 C 2975.52 1.38099 -1.36536 0
M  V30 31454 O 2974.79 1.88077 -0.49571 0
M  V30 31455 C 2975.07 0.234222 -3.59337 0
M  V30 31456 C 2974.93 -1.10371 -4.36048 0
M  V30 31457 C 2976.25 0.982276 -4.28998 0
M  V30 31458 H 2973.37 0.0221727 -0.736666 0
M  V30 31459 H 2976.01 -0.633465 -1.79129 0
M  V30 31460 H 2974.16 0.829195 -3.79548 0
M  V30 31461 H 2975.83 -1.73635 -4.27374 0
M  V30 31462 H 2974.07 -1.69693 -3.99233 0
M  V30 31463 H 2974.74 -0.938839 -5.43958 0
M  V30 31464 H 2977.22 0.477831 -4.13347 0
M  V30 31465 H 2976.1 1.06945 -5.38381 0
M  V30 31466 H 2976.36 2.02225 -3.93138 0
M  V30 31467 N 2975.42 1.56081 -0.218307 0
M  V30 31468 C 2976.65 2.02315 0.418614 0
M  V30 31469 C 2977.05 1.09741 1.54122 0
M  V30 31470 O 2976.4 0.0987151 1.83435 0
M  V30 31471 C 2976.46 3.44894 1.01433 0
M  V30 31472 C 2976.12 4.56992 0.027572 0
M  V30 31473 C 2977.12 5.14142 -0.771617 0
M  V30 31474 C 2974.8 5.02219 -0.0902419 0
M  V30 31475 C 2976.8 6.14988 -1.67536 0
M  V30 31476 C 2974.49 6.02904 -0.997517 0
M  V30 31477 C 2975.48 6.59164 -1.78862 0
M  V30 31478 O 2975.17 7.57889 -2.68065 0
M  V30 31479 H 2974.9 0.667469 0.107054 0
M  V30 31480 H 2977.46 2.02712 -0.331227 0
M  V30 31481 H 2975.69 3.41555 1.8132 0
M  V30 31482 H 2977.38 3.74795 1.55831 0
M  V30 31483 H 2978.14 4.80052 -0.691029 0
M  V30 31484 H 2974.02 4.5811 0.515394 0
M  V30 31485 H 2977.57 6.58828 -2.29327 0
M  V30 31486 H 2973.46 6.36416 -1.07913 0
M  V30 31487 H 2974.23 7.75399 -2.62104 0
M  V30 31488 N 2976.89 -0.0551124 1.57504 0
M  V30 31489 C 2977.82 -1.06368 2.07865 0
M  V30 31490 C 2978.8 -1.39342 0.97559 0
M  V30 31491 O 2979.99 -1.4868 1.24932 0
M  V30 31492 C 2977.12 -2.37235 2.53647 0
M  V30 31493 C 2976.07 -2.18572 3.67982 0
M  V30 31494 C 2975.4 -3.54969 3.99876 0
M  V30 31495 C 2976.7 -1.59321 4.97407 0
M  V30 31496 H 2978.39 -0.644544 2.9238 0
M  V30 31497 H 2975.94 -0.308595 1.40655 0
M  V30 31498 H 2977.89 -3.08098 2.87495 0
M  V30 31499 H 2976.62 -2.8116 1.66182 0
M  V30 31500 H 2975.28 -1.50146 3.34442 0
M  V30 31501 H 2974.92 -3.96495 3.09517 0
M  V30 31502 H 2974.62 -3.43315 4.76873 0
M  V30 31503 H 2976.15 -4.27237 4.36235 0
M  V30 31504 H 2977.56 -2.20069 5.29379 0
M  V30 31505 H 2975.96 -1.58316 5.7884 0
M  V30 31506 H 2977.03 -0.556296 4.81698 0
M  V30 31507 N 2978.37 -1.54173 -0.326869 0
M  V30 31508 C 2979.61 -1.73943 -1.07346 0
M  V30 31509 C 2979.98 -0.500782 -1.85354 0
M  V30 31510 O 2981.18 -0.575777 -2.62561 0
M  V30 31511 C 2979.45 -2.97787 -1.9763 0
M  V30 31512 S 2981.01 -3.38445 -2.79286 0
M  V30 31513 H 2977.82 -0.61168 -0.362448 0
M  V30 31514 H 2980.43 -1.92344 -0.34985 0
M  V30 31515 H 2979.13 -3.86089 -1.39151 0
M  V30 31516 H 2978.66 -2.819 -2.74402 0
M  V30 31517 H 2980.68 -2.93485 -4.00101 0
M  V30 31518 N 2979.85 0.58876 -1.4619 0
M  V30 31519 C 2981.1 1.34918 -1.5141 0
M  V30 31520 C 2981.43 1.93516 -0.162805 0
M  V30 31521 O 2980.7 1.76134 0.825051 0
M  V30 31522 C 2980.99 2.48306 -2.60799 0
M  V30 31523 C 2980.84 1.94782 -4.05438 0
M  V30 31524 C 2982.16 3.50375 -2.66319 0
M  V30 31525 H 2979.28 0.489207 -0.551221 0
M  V30 31526 H 2981.92 0.661961 -1.78096 0
M  V30 31527 H 2980.07 3.06928 -2.38175 0
M  V30 31528 H 2981.74 1.40664 -4.39331 0
M  V30 31529 H 2979.98 1.25651 -4.15204 0
M  V30 31530 H 2980.66 2.76605 -4.77696 0
M  V30 31531 H 2983.13 3.01624 -2.8664 0
M  V30 31532 H 2982.01 4.27178 -3.44688 0
M  V30 31533 H 2982.27 4.07213 -1.72134 0
M  V30 31534 N 2981.33 1.33794 0.832883 0
M  V30 31535 C 2982.29 1.24452 1.92469 0
M  V30 31536 C 2983.29 0.162113 1.59981 0
M  V30 31537 O 2984.48 0.414058 1.69208 0
M  V30 31538 C 2981.61 0.919102 3.28276 0
M  V30 31539 H 2982.81 2.21506 2.02176 0
M  V30 31540 H 2980.36 1.17938 1.02568 0
M  V30 31541 H 2981.09 -0.048681 3.24263 0
M  V30 31542 H 2980.88 1.70193 3.53238 0
M  V30 31543 H 2982.37 0.878648 4.08252 0
M  V30 31544 N 2982.81 -1.05187 1.1736 0
M  V30 31545 C 2984.22 -1.30353 0.920884 0
M  V30 31546 C 2984.42 -1.97075 -0.419959 0
M  V30 31547 O 2983.48 -2.24436 -1.15692 0
M  V30 31548 C 2984.79 -2.17326 2.07821 0
M  V30 31549 C 2986.34 -2.30709 2.11524 0
M  V30 31550 C 2986.81 -3.21043 3.26643 0
M  V30 31551 N 2988.3 -3.28628 3.26432 0
M  V30 31552 C 2989.04 -3.9865 4.12148 0
M  V30 31553 N 2988.54 -4.71098 5.07975 0
M  V30 31554 N 2990.33 -3.94814 4.00098 0
M  V30 31555 H 2982.48 -0.602785 2.03667 0
M  V30 31556 H 2984.74 -0.328406 0.8893 0
M  V30 31557 H 2984.45 -1.75592 3.0473 0
M  V30 31558 H 2984.32 -3.17962 2.02928 0
M  V30 31559 H 2986.71 -2.71685 1.15201 0
M  V30 31560 H 2986.79 -1.29702 2.20479 0
M  V30 31561 H 2986.43 -2.8078 4.23231 0
M  V30 31562 H 2986.36 -4.22055 3.14924 0
M  V30 31563 H 2988.86 -2.77008 2.5705 0
M  V30 31564 H 2989.17 -5.22089 5.69775 0
M  V30 31565 H 2987.51 -4.70041 5.11944 0
M  V30 31566 H 2990.7 -3.3734 3.24529 0
M  V30 31567 H 2990.88 -4.49115 4.67118 0
M  V30 31568 N 2984.28 -0.97385 -1.23911 0
M  V30 31569 C 2985.23 -0.501019 -2.2714 0
M  V30 31570 C 2986.23 0.438602 -1.63623 0
M  V30 31571 O 2987.43 0.313216 -1.77254 0
M  V30 31572 H 2983.81 -0.143573 -0.738167 0
M  V30 31573 H 2985.78 -1.38351 -2.64389 0
M  V30 31574 C 2984.53 0.187316 -3.47195 0
M  V30 31575 H 2983.85 -0.526605 -3.96317 0
M  V30 31576 H 2985.29 0.481888 -4.21253 0
M  V30 31577 C 2983.75 1.41637 -3.05681 0
M  V30 31578 O 2984.28 2.51303 -3.13384 0
M  V30 31579 N 2982.48 1.28464 -2.60663 0
M  V30 31580 H 2982.03 0.392335 -2.54595 0
M  V30 31581 H 2981.99 2.10809 -2.33253 0
M  V30 31582 N 2985.76 1.38895 -0.744705 0
M  V30 31583 C 2986.71 2.30532 -0.111104 0
M  V30 31584 C 2987.68 1.4972 0.719249 0
M  V30 31585 O 2988.86 1.78377 0.677213 0
M  V30 31586 C 2986 3.36103 0.782861 0
M  V30 31587 C 2985.12 4.31957 -0.0611576 0
M  V30 31588 C 2984.25 5.24596 0.834983 0
M  V30 31589 C 2983.29 6.12099 -0.013205 0
M  V30 31590 N 2982.43 6.97064 0.839403 0
M  V30 31591 H 2987.27 2.84143 -0.898163 0
M  V30 31592 H 2984.8 1.39901 -0.454561 0
M  V30 31593 H 2986.76 3.9591 1.31571 0
M  V30 31594 H 2985.39 2.83925 1.5358 0
M  V30 31595 H 2984.44 3.73686 -0.711535 0
M  V30 31596 H 2985.76 4.93626 -0.716569 0
M  V30 31597 H 2984.91 5.89477 1.43532 0
M  V30 31598 H 2983.65 4.63272 1.52415 0
M  V30 31599 H 2982.65 5.46221 -0.626275 0
M  V30 31600 H 2983.88 6.7549 -0.6993 0
M  V30 31601 H 2981.83 6.38297 1.51368 0
M  V30 31602 H 2981.74 7.55617 0.24069 0
M  V30 31603 H 2983.01 7.66364 1.42499 0
M  V30 31604 N 2987.24 0.493084 1.49688 0
M  V30 31605 C 2988.17 -0.336022 2.25712 0
M  V30 31606 C 2989.15 -0.977271 1.29955 0
M  V30 31607 O 2990.34 -1.00892 1.59227 0
M  V30 31608 C 2987.46 -1.47258 3.05013 0
M  V30 31609 C 2986.51 -0.946502 4.15865 0
M  V30 31610 S 2987.34 0.156417 5.35272 0
M  V30 31611 C 2988.5 -0.983492 6.18125 0
M  V30 31612 H 2988.73 0.309267 2.95687 0
M  V30 31613 H 2986.26 0.278265 1.51872 0
M  V30 31614 H 2988.22 -2.12384 3.51288 0
M  V30 31615 H 2986.88 -2.08945 2.34522 0
M  V30 31616 H 2986.08 -1.79802 4.70837 0
M  V30 31617 H 2985.68 -0.372582 3.7214 0
M  V30 31618 H 2987.97 -1.89044 6.50591 0
M  V30 31619 H 2988.91 -0.472563 7.06521 0
M  V30 31620 H 2989.32 -1.24725 5.50549 0
M  V30 31621 N 2988.72 -1.55963 0.226582 0
M  V30 31622 C 2989.97 -1.98042 -0.402957 0
M  V30 31623 C 2990.29 -1.1156 -1.59936 0
M  V30 31624 O 2989.56 -0.193754 -1.94939 0
M  V30 31625 H 2988.14 -0.7314 -0.151867 0
M  V30 31626 H 2990.8 -1.92244 0.320647 0
M  V30 31627 H 2989.9 -3.03541 -0.725883 0
M  V30 31628 N 2990.2 0.0467589 -1.57531 0
M  V30 31629 C 2991.47 0.775505 -1.7957 0
M  V30 31630 C 2991.85 1.94508 -0.820356 0
M  V30 31631 O 2991.2 2.28063 0.1413 0
M  V30 31632 C 2991.41 1.2251 -3.26791 0
M  V30 31633 C 2992.76 1.64828 -3.91301 0
M  V30 31634 O 2993.78 1.32014 -3.30833 0
M  V30 31635 O 2992.64 2.25669 -4.97731 0
M  V30 31636 H 2989.74 0.373559 -0.737823 0
M  V30 31637 H 2992.28 0.0249004 -1.69682 0
M  V30 31638 H 2991.05 0.389378 -3.89358 0
M  V30 31639 H 2990.68 2.03627 -3.415 0
M  V30 31640 N 2991.67 1.54344 0.318688 0
M  V30 31641 C 2992.95 1.63439 1.07458 0
M  V30 31642 C 2993.33 0.471346 2.05771 0
M  V30 31643 O 2992.68 -0.533871 2.22176 0
M  V30 31644 C 2992.89 3.00657 1.77219 0
M  V30 31645 C 2994.24 3.5687 2.30063 0
M  V30 31646 O 2995.26 3.02994 1.87278 0
M  V30 31647 O 2994.12 4.51164 3.08405 0
M  V30 31648 H 2991.21 0.662038 0.495615 0
M  V30 31649 H 2993.76 1.6669 0.318189 0
M  V30 31650 H 2992.53 3.76744 1.05736 0
M  V30 31651 H 2992.16 3.01105 2.59656 0
M  V30 31652 N 2993.15 -0.580999 1.465 0
M  V30 31653 C 2994.08 -1.70014 1.60055 0
M  V30 31654 C 2995.06 -1.64017 0.450816 0
M  V30 31655 O 2996.25 -1.82007 0.677269 0
M  V30 31656 C 2993.38 -3.08655 1.59215 0
M  V30 31657 C 2992.33 -3.29483 2.73175 0
M  V30 31658 C 2991.66 -4.68669 2.57397 0
M  V30 31659 C 2992.96 -3.17153 4.14984 0
M  V30 31660 H 2994.65 -1.58926 2.53738 0
M  V30 31661 H 2992.2 -0.763152 1.22115 0
M  V30 31662 H 2994.15 -3.86771 1.67292 0
M  V30 31663 H 2992.88 -3.20646 0.620775 0
M  V30 31664 H 2991.53 -2.53768 2.6457 0
M  V30 31665 H 2991.18 -4.77428 1.58339 0
M  V30 31666 H 2990.88 -4.83558 3.33835 0
M  V30 31667 H 2992.41 -5.48951 2.67367 0
M  V30 31668 H 2993.82 -3.85111 4.24691 0
M  V30 31669 H 2992.22 -3.43562 4.92022 0
M  V30 31670 H 2993.29 -2.1421 4.3502 0
M  V30 31671 N 2994.63 -1.34234 -0.825776 0
M  V30 31672 C 2995.88 -1.25773 -1.57684 0
M  V30 31673 C 2996.19 0.171338 -1.94848 0
M  V30 31674 O 2997.4 0.378076 -2.68855 0
M  V30 31675 C 2995.85 -2.20459 -2.84474 0
M  V30 31676 C 2995.46 -3.68607 -2.54623 0
M  V30 31677 C 2997.21 -2.209 -3.62496 0
M  V30 31678 C 2995.11 -4.55171 -3.77589 0
M  V30 31679 H 2994.04 -0.467213 -0.591801 0
M  V30 31680 H 2996.69 -1.59381 -0.909393 0
M  V30 31681 H 2995.08 -1.79799 -3.52829 0
M  V30 31682 H 2996.25 -4.17788 -1.94397 0
M  V30 31683 H 2994.57 -3.70586 -1.89882 0
M  V30 31684 H 2997.16 -2.82797 -4.53795 0
M  V30 31685 H 2997.51 -1.20753 -3.98402 0
M  V30 31686 H 2998.04 -2.5999 -3.01081 0
M  V30 31687 H 2994.78 -5.56243 -3.46806 0
M  V30 31688 H 2994.3 -4.10727 -4.37108 0
M  V30 31689 H 2995.98 -4.69635 -4.4503 0
M  V30 31690 N 2996.11 1.04563 -1.17917 0
M  V30 31691 C 2997.04 2.14394 -0.92507 0
M  V30 31692 C 2998.02 1.69561 0.135345 0
M  V30 31693 O 2999.2 1.94193 -0.0162115 0
M  V30 31694 C 2996.33 3.44443 -0.44453 0
M  V30 31695 C 2995.29 4.02875 -1.44486 0
M  V30 31696 C 2994.61 5.28343 -0.822025 0
M  V30 31697 C 2995.91 4.39627 -2.82003 0
M  V30 31698 H 2997.61 2.35908 -1.84358 0
M  V30 31699 H 2995.15 1.13374 -0.887826 0
M  V30 31700 H 2997.11 4.20633 -0.254152 0
M  V30 31701 H 2995.83 3.22601 0.509536 0
M  V30 31702 H 2994.49 3.28761 -1.62208 0
M  V30 31703 H 2994.14 5.02808 0.139072 0
M  V30 31704 H 2993.84 5.68399 -1.48986 0
M  V30 31705 H 2995.36 6.07215 -0.642065 0
M  V30 31706 H 2996.78 5.06823 -2.67961 0
M  V30 31707 H 2995.17 4.90717 -3.45423 0
M  V30 31708 H 2996.24 3.49681 -3.35933 0
M  V30 31709 N 2997.59 0.980408 1.23393 0
M  V30 31710 C 2998.52 0.465443 2.23403 0
M  V30 31711 C 2999.5 -0.467444 1.55736 0
M  V30 31712 O 3000.68 -0.395888 1.84296 0
M  V30 31713 C 2997.81 -0.326661 3.37121 0
M  V30 31714 C 2996.85 0.55037 4.22934 0
M  V30 31715 S 2997.69 1.99823 4.96821 0
M  V30 31716 C 2998.84 1.21527 6.13989 0
M  V30 31717 H 2999.08 1.31294 2.66738 0
M  V30 31718 H 2996.61 0.786403 1.32872 0
M  V30 31719 H 2998.57 -0.777667 4.03066 0
M  V30 31720 H 2997.23 -1.14928 2.92319 0
M  V30 31721 H 2996.42 -0.0584412 5.03966 0
M  V30 31722 H 2996.02 0.937622 3.62056 0
M  V30 31723 H 2998.32 0.476595 6.75822 0
M  V30 31724 H 2999.26 2.00042 6.79256 0
M  V30 31725 H 2999.67 0.734048 5.59707 0
M  V30 31726 N 2999.06 -1.38498 0.75206 0
M  V30 31727 C 3000.01 -2.27785 0.099059 0
M  V30 31728 C 3001 -1.45123 -0.694842 0
M  V30 31729 O 3002.19 -1.67873 -0.561048 0
M  V30 31730 C 2999.32 -3.33981 -0.794473 0
M  V30 31731 C 2998.41 -4.241 0.00619438 0
M  V30 31732 N 2998.8 -4.94954 1.04182 0
M  V30 31733 C 2997.09 -4.45453 -0.220855 0
M  V30 31734 C 2997.8 -5.61324 1.52611 0
M  V30 31735 N 2996.77 -5.37044 0.841684 0
M  V30 31736 H 3000.57 -2.80029 0.892258 0
M  V30 31737 H 2998.09 -1.51383 0.587961 0
M  V30 31738 H 3000.08 -3.96832 -1.2779 0
M  V30 31739 H 2998.74 -2.83295 -1.58664 0
M  V30 31740 H 2999.76 -4.9795 1.42358 0
M  V30 31741 H 2996.43 -4.05678 -0.986484 0
M  V30 31742 H 2997.82 -6.28006 2.38868 0
M  V30 31743 N 3000.54 -0.501015 -1.49424 0
M  V30 31744 C 3001.79 0.0435643 -2.02753 0
M  V30 31745 C 3002.12 1.36644 -1.37993 0
M  V30 31746 O 3001.4 1.87541 -0.51563 0
M  V30 31747 C 3001.68 0.196097 -3.59566 0
M  V30 31748 C 3001.53 -1.1499 -4.34853 0
M  V30 31749 C 3002.85 0.936719 -4.30016 0
M  V30 31750 H 2999.97 0.0143581 -0.73686 0
M  V30 31751 H 3002.61 -0.652428 -1.78447 0
M  V30 31752 H 3000.76 0.788892 -3.80406 0
M  V30 31753 H 3002.43 -1.78158 -4.25509 0
M  V30 31754 H 3000.68 -1.73918 -3.97411 0
M  V30 31755 H 3001.35 -0.99648 -5.42931 0
M  V30 31756 H 3003.82 0.433964 -4.13831 0
M  V30 31757 H 3002.7 1.01229 -5.39485 0
M  V30 31758 H 3002.96 1.98043 -3.95261 0
M  V30 31759 N 3002.02 1.5584 -0.234849 0
M  V30 31760 C 3003.25 2.03492 0.400705 0
M  V30 31761 C 3003.67 1.1133 1.51616 0
M  V30 31762 O 3003.03 0.103954 1.81002 0
M  V30 31763 C 3003.08 3.49262 0.897123 0
M  V30 31764 O 3002.18 3.60236 2.00758 0
M  V30 31765 H 3001.52 0.65801 0.0889908 0
M  V30 31766 H 3004.05 2.01455 -0.35738 0
M  V30 31767 H 3004.06 3.89846 1.20349 0
M  V30 31768 H 3002.74 4.15822 0.0807908 0
M  V30 31769 H 3001.31 3.31544 1.70683 0
M  V30 31770 N 3003.5 -0.038404 1.57553 0
M  V30 31771 C 3004.43 -1.04158 2.08982 0
M  V30 31772 C 3005.41 -1.383 0.990314 0
M  V30 31773 O 3006.6 -1.47347 1.26502 0
M  V30 31774 C 3003.73 -2.34531 2.56149 0
M  V30 31775 C 3002.68 -2.14656 3.70279 0
M  V30 31776 C 3002.01 -3.50708 4.03618 0
M  V30 31777 C 3003.31 -1.54036 4.99069 0
M  V30 31778 H 3005 -0.613497 2.93047 0
M  V30 31779 H 3002.55 -0.293659 1.40974 0
M  V30 31780 H 3004.5 -3.05032 2.90747 0
M  V30 31781 H 3003.22 -2.79382 1.69155 0
M  V30 31782 H 3001.88 -1.46591 3.36016 0
M  V30 31783 H 3001.53 -3.9319 3.13705 0
M  V30 31784 H 3001.23 -3.38238 4.80488 0
M  V30 31785 H 3002.75 -4.22586 4.40742 0
M  V30 31786 H 3004.17 -2.14442 5.31684 0
M  V30 31787 H 3002.56 -1.52168 5.80487 0
M  V30 31788 H 3003.63 -0.505174 4.82261 0
M  V30 31789 N 3004.98 -1.54511 -0.310498 0
M  V30 31790 C 3006.39 -1.45513 -0.655612 0
M  V30 31791 C 3006.59 -0.638597 -1.91113 0
M  V30 31792 O 3005.65 -0.142542 -2.52097 0
M  V30 31793 C 3006.96 -2.89376 -0.817451 0
M  V30 31794 C 3008.51 -2.99359 -0.91395 0
M  V30 31795 C 3008.99 -4.44399 -1.10786 0
M  V30 31796 N 3010.48 -4.48068 -1.17429 0
M  V30 31797 C 3011.21 -5.57464 -1.34245 0
M  V30 31798 N 3010.71 -6.76803 -1.4802 0
M  V30 31799 N 3012.5 -5.45135 -1.37057 0
M  V30 31800 H 3004.65 -2.06073 0.514542 0
M  V30 31801 H 3006.91 -0.932906 0.168494 0
M  V30 31802 H 3006.62 -3.51684 0.0340648 0
M  V30 31803 H 3006.49 -3.36246 -1.70934 0
M  V30 31804 H 3008.88 -2.37171 -1.75596 0
M  V30 31805 H 3008.96 -2.558 0.00175454 0
M  V30 31806 H 3008.61 -5.07178 -0.270654 0
M  V30 31807 H 3008.54 -4.8558 -2.03764 0
M  V30 31808 H 3011.03 -3.62086 -1.08175 0
M  V30 31809 H 3011.34 -7.55933 -1.60579 0
M  V30 31810 H 3009.69 -6.79686 -1.45093 0
M  V30 31811 H 3012.88 -4.50851 -1.25901 0
M  V30 31812 H 3013.05 -6.30443 -1.4982 0
M  V30 31813 N 3006.46 0.573222 -1.46806 0
M  V30 31814 C 3007.39 1.69163 -1.60954 0
M  V30 31815 C 3008.37 1.63776 -0.459508 0
M  V30 31816 O 3009.55 1.81646 -0.686912 0
M  V30 31817 C 3006.68 3.07806 -1.6085 0
M  V30 31818 C 3005.64 3.2803 -2.74919 0
M  V30 31819 C 3004.96 4.67298 -2.59879 0
M  V30 31820 C 3006.26 3.14947 -4.1666 0
M  V30 31821 H 3007.96 1.57578 -2.54577 0
M  V30 31822 H 3005.5 0.756665 -1.22518 0
M  V30 31823 H 3007.45 3.85878 -1.6934 0
M  V30 31824 H 3006.18 3.20312 -0.63777 0
M  V30 31825 H 3004.84 2.52361 -2.65912 0
M  V30 31826 H 3004.49 4.76582 -1.60869 0
M  V30 31827 H 3004.19 4.8178 -3.36395 0
M  V30 31828 H 3005.71 5.47525 -2.70275 0
M  V30 31829 H 3007.12 3.82853 -4.26727 0
M  V30 31830 H 3005.52 3.40948 -4.93837 0
M  V30 31831 H 3006.59 2.119 -4.36149 0
M  V30 31832 N 3007.93 1.3467 0.818645 0
M  V30 31833 C 3008.88 1.26599 1.9298 0
M  V30 31834 C 3009.85 0.140345 1.65506 0
M  V30 31835 O 3011.04 0.322038 1.88063 0
M  V30 31836 C 3008.18 1.03169 3.29318 0
M  V30 31837 C 3007.29 2.24546 3.69057 0
M  V30 31838 C 3006.42 1.94364 4.94364 0
M  V30 31839 C 3005.46 3.1186 5.26697 0
M  V30 31840 N 3004.6 2.81534 6.43182 0
M  V30 31841 H 3009.44 2.21624 1.99216 0
M  V30 31842 H 3006.98 1.10182 0.974593 0
M  V30 31843 H 3008.93 0.876201 4.07895 0
M  V30 31844 H 3007.56 0.118102 3.22584 0
M  V30 31845 H 3006.62 2.51 2.85838 0
M  V30 31846 H 3007.93 3.12319 3.88919 0
M  V30 31847 H 3007.08 1.75576 5.80739 0
M  V30 31848 H 3005.82 1.03857 4.76514 0
M  V30 31849 H 3004.83 3.31239 4.38817 0
M  V30 31850 H 3006.05 4.03152 5.46484 0
M  V30 31851 H 3004 1.93607 6.26779 0
M  V30 31852 H 3003.91 3.6284 6.63237 0
M  V30 31853 H 3005.18 2.6626 7.32616 0
M  V30 31854 N 3009.41 -1.03936 1.1847 0
M  V30 31855 C 3010.82 -1.58612 0.984836 0
M  V30 31856 C 3011.17 -1.90607 -0.465131 0
M  V30 31857 O 3010.3 -1.69706 -1.34271 0
M  V30 31858 C 3010.89 -2.88187 1.7814 0
M  V30 31859 C 3009.45 -3.39475 1.62585 0
M  V30 31860 C 3008.6 -2.13043 1.77505 0
M  V30 31861 H 3011.55 -0.865921 1.32994 0
M  V30 31862 H 3011.57 -3.58635 1.27125 0
M  V30 31863 H 3011.08 -2.64869 2.83665 0
M  V30 31864 H 3009.18 -3.67802 0.596015 0
M  V30 31865 H 3009.3 -4.13213 2.4247 0
M  V30 31866 H 3007.66 -2.24412 1.20464 0
M  V30 31867 H 3008.44 -1.9218 2.84468 0
M  V30 31868 N 3010.89 -0.986938 -1.22871 0
M  V30 31869 C 3011.85 -0.537481 -2.22809 0
M  V30 31870 C 3012.85 0.376432 -1.56332 0
M  V30 31871 O 3014.04 0.169216 -1.73376 0
M  V30 31872 C 3011.17 0.219022 -3.40196 0
M  V30 31873 H 3012.37 -1.42121 -2.64087 0
M  V30 31874 H 3009.92 -0.773512 -1.35818 0
M  V30 31875 H 3010.66 1.119 -3.04383 0
M  V30 31876 H 3010.44 -0.437095 -3.89656 0
M  V30 31877 H 3011.93 0.521853 -4.14327 0
M  V30 31878 N 3012.37 1.38098 -0.759394 0
M  V30 31879 C 3013.31 2.30402 -0.135549 0
M  V30 31880 C 3014.28 1.50474 0.703329 0
M  V30 31881 O 3015.47 1.79086 0.658255 0
M  V30 31882 C 3012.61 3.36915 0.747169 0
M  V30 31883 C 3011.72 4.31868 -0.106969 0
M  V30 31884 C 3010.86 5.25453 0.779296 0
M  V30 31885 C 3009.9 6.1205 -0.0781255 0
M  V30 31886 N 3009.03 6.97915 0.765423 0
M  V30 31887 H 3013.87 2.83174 -0.928249 0
M  V30 31888 H 3011.41 1.39411 -0.469374 0
M  V30 31889 H 3013.37 3.97284 1.27364 0
M  V30 31890 H 3012 2.85538 1.50559 0
M  V30 31891 H 3011.05 3.7291 -0.751129 0
M  V30 31892 H 3012.36 4.92838 -0.768884 0
M  V30 31893 H 3011.52 5.90966 1.37272 0
M  V30 31894 H 3010.26 4.64863 1.47493 0
M  V30 31895 H 3009.26 5.45526 -0.684174 0
M  V30 31896 H 3010.49 6.7471 -0.770905 0
M  V30 31897 H 3008.43 6.39867 1.4459 0
M  V30 31898 H 3008.35 7.5583 0.160533 0
M  V30 31899 H 3009.62 7.67833 1.34363 0
M  V30 31900 N 3013.85 0.508932 1.49156 0
M  V30 31901 C 3015.09 -0.03465 2.0167 0
M  V30 31902 C 3015.41 -1.37308 1.39305 0
M  V30 31903 O 3016.61 -2.00381 1.83193 0
M  V30 31904 C 3015.07 -0.112198 3.59725 0
M  V30 31905 C 3014.68 1.22007 4.31067 0
M  V30 31906 C 3016.42 -0.605724 4.20156 0
M  V30 31907 C 3014.33 1.10425 5.80999 0
M  V30 31908 H 3013.26 -0.0167222 0.753815 0
M  V30 31909 H 3015.91 0.649548 1.71619 0
M  V30 31910 H 3014.29 -0.861019 3.86526 0
M  V30 31911 H 3015.47 1.9828 4.15959 0
M  V30 31912 H 3013.78 1.64766 3.82415 0
M  V30 31913 H 3016.38 -0.710009 5.29965 0
M  V30 31914 H 3016.72 -1.60649 3.84054 0
M  V30 31915 H 3017.25 0.0867938 3.97705 0
M  V30 31916 H 3013.99 2.07952 6.2164 0
M  V30 31917 H 3013.51 0.382534 5.98579 0
M  V30 31918 H 3015.19 0.786229 6.42205 0
M  V30 31919 N 3015.32 -1.55714 0.243111 0
M  V30 31920 C 3016.6 -1.90751 -0.432817 0
M  V30 31921 C 3016.98 -1.16336 -1.76151 0
M  V30 31922 O 3016.33 -0.279605 -2.26783 0
M  V30 31923 C 3016.54 -3.43723 -0.604625 0
M  V30 31924 C 3017.89 -4.14903 -0.902237 0
M  V30 31925 O 3018.91 -3.49441 -0.690628 0
M  V30 31926 O 3017.77 -5.3069 -1.30501 0
M  V30 31927 H 3014.86 -0.793844 -0.231821 0
M  V30 31928 H 3017.41 -1.67257 0.286896 0
M  V30 31929 H 3016.18 -3.89891 0.331723 0
M  V30 31930 H 3015.8 -3.73067 -1.37502 0
M  V30 31931 N 3016.8 0.030048 -1.57571 0
M  V30 31932 C 3017.75 1.03881 -2.0296 0
M  V30 31933 C 3018.74 1.3209 -0.918747 0
M  V30 31934 O 3019.93 1.31692 -1.18264 0
M  V30 31935 C 3017.06 2.34023 -2.51173 0
M  V30 31936 C 3016.14 2.08909 -3.69077 0
M  V30 31937 N 3016.53 1.53849 -4.81834 0
M  V30 31938 C 3014.83 2.39197 -3.76431 0
M  V30 31939 C 3015.53 1.44516 -5.63462 0
M  V30 31940 N 3014.51 1.92039 -5.08549 0
M  V30 31941 H 3018.31 0.607107 -2.87561 0
M  V30 31942 H 3015.83 0.23637 -1.60671 0
M  V30 31943 H 3017.82 3.07099 -2.8195 0
M  V30 31944 H 3016.48 2.77874 -1.67977 0
M  V30 31945 H 3017.49 1.22134 -5.03293 0
M  V30 31946 H 3014.17 2.86128 -3.04034 0
M  V30 31947 H 3015.56 1.02445 -6.64044 0
M  V30 31948 N 3018.28 1.54674 0.3023 0
M  V30 31949 C 3019.23 1.85535 1.37279 0
M  V30 31950 C 3020.2 0.704156 1.50436 0
M  V30 31951 O 3021.38 0.952656 1.65315 0
M  V30 31952 C 3018.52 2.10709 2.73305 0
M  V30 31953 C 3017.64 3.3834 2.68608 0
M  V30 31954 C 3016.77 3.53364 3.9662 0
M  V30 31955 C 3015.81 4.74791 3.86315 0
M  V30 31956 N 3014.95 4.86628 5.061 0
M  V30 31957 H 3019.79 2.76851 1.10261 0
M  V30 31958 H 3017.32 1.37092 0.533322 0
M  V30 31959 H 3019.28 2.233 3.5241 0
M  V30 31960 H 3017.91 1.22661 2.98587 0
M  V30 31961 H 3016.96 3.34376 1.81375 0
M  V30 31962 H 3018.28 4.27566 2.56883 0
M  V30 31963 H 3017.43 3.65612 4.84162 0
M  V30 31964 H 3016.17 2.62269 4.11177 0
M  V30 31965 H 3015.17 4.62577 2.97157 0
M  V30 31966 H 3016.4 5.67292 3.73305 0
M  V30 31967 H 3014.34 3.98455 5.21123 0
M  V30 31968 H 3014.26 5.69853 4.96794 0
M  V30 31969 H 3015.53 5.03231 5.95297 0
M  V30 31970 N 3019.76 -0.565428 1.47108 0
M  V30 31971 C 3020.69 -1.68817 1.55027 0
M  V30 31972 C 3021.7 -1.56822 0.437128 0
M  V30 31973 O 3022.89 -1.6393 0.706344 0
M  V30 31974 C 3019.99 -3.07218 1.43075 0
M  V30 31975 C 3019.17 -3.45048 2.68813 0
M  V30 31976 C 3018.22 -4.62578 2.50814 0
M  V30 31977 O 3017.25 -4.67571 3.24601 0
M  V30 31978 N 3018.45 -5.58555 1.58103 0
M  V30 31979 H 3021.22 -1.62472 2.51839 0
M  V30 31980 H 3018.78 -0.75186 1.43383 0
M  V30 31981 H 3020.77 -3.83664 1.2878 0
M  V30 31982 H 3019.34 -3.07834 0.543775 0
M  V30 31983 H 3018.56 -2.58133 2.97928 0
M  V30 31984 H 3019.85 -3.67095 3.52305 0
M  V30 31985 H 3019.25 -5.57271 0.972905 0
M  V30 31986 H 3017.8 -6.34361 1.49764 0
M  V30 31987 N 3021.24 -1.35102 -0.811492 0
M  V30 31988 C 3022.47 -1.31014 -1.59747 0
M  V30 31989 C 3022.87 0.115533 -1.88847 0
M  V30 31990 O 3022.22 1.07646 -1.48855 0
M  V30 31991 C 3022.28 -2.0444 -2.9571 0
M  V30 31992 C 3021.94 -3.5365 -2.89449 0
M  V30 31993 C 3022.94 -4.48337 -2.6323 0
M  V30 31994 C 3020.63 -3.96228 -3.08721 0
M  V30 31995 C 3022.62 -5.83578 -2.5635 0
M  V30 31996 C 3020.31 -5.31565 -3.01466 0
M  V30 31997 C 3021.3 -6.25052 -2.75315 0
M  V30 31998 O 3020.99 -7.57908 -2.68013 0
M  V30 31999 H 3020.72 -0.451759 -0.502881 0
M  V30 32000 H 3023.28 -1.78464 -1.01684 0
M  V30 32001 H 3021.51 -1.5162 -3.55736 0
M  V30 32002 H 3023.2 -1.93493 -3.56813 0
M  V30 32003 H 3023.96 -4.1676 -2.48064 0
M  V30 32004 H 3019.84 -3.23851 -3.28088 0
M  V30 32005 H 3023.39 -6.56518 -2.35859 0
M  V30 32006 H 3019.28 -5.62757 -3.16187 0
M  V30 32007 H 3020.05 -7.67777 -2.83657 0
M  V30 32008 N 3022.71 1.03306 -1.19019 0
M  V30 32009 C 3023.96 1.76636 -0.990245 0
M  V30 32010 C 3024.29 1.88499 0.479402 0
M  V30 32011 O 3023.54 1.39532 1.3722 0
M  V30 32012 C 3023.84 3.19619 -1.59932 0
M  V30 32013 C 3023.51 3.27773 -3.09638 0
M  V30 32014 C 3022.17 3.29705 -3.50496 0
M  V30 32015 C 3024.52 3.27257 -4.0565 0
M  V30 32016 C 3021.85 3.28774 -4.85927 0
M  V30 32017 C 3024.2 3.27866 -5.41005 0
M  V30 32018 C 3022.87 3.28094 -5.81301 0
M  V30 32019 H 3022.14 0.646358 -0.362356 0
M  V30 32020 H 3024.78 1.21282 -1.48199 0
M  V30 32021 H 3023.09 3.78025 -1.02977 0
M  V30 32022 H 3024.79 3.75018 -1.41995 0
M  V30 32023 H 3021.38 3.26994 -2.77079 0
M  V30 32024 H 3025.56 3.24949 -3.75129 0
M  V30 32025 H 3020.82 3.27272 -5.16433 0
M  V30 32026 H 3024.99 3.26417 -6.15162 0
M  V30 32027 H 3022.62 3.27126 -6.86216 0
M  V30 32028 N 3024.19 0.99344 1.22346 0
M  V30 32029 C 3025.61 0.704263 1.43221 0
M  V30 32030 C 3025.81 -0.724876 1.8801 0
M  V30 32031 O 3024.86 -1.49572 2.03432 0
M  V30 32032 C 3026.18 1.71029 2.47325 0
M  V30 32033 C 3027.73 1.7258 2.61123 0
M  V30 32034 C 3028.2 2.72048 3.68448 0
M  V30 32035 N 3029.69 2.70645 3.75906 0
M  V30 32036 C 3030.43 3.44274 4.58545 0
M  V30 32037 N 3029.92 4.27504 5.45171 0
M  V30 32038 N 3031.72 3.32977 4.5286 0
M  V30 32039 H 3023.87 1.91643 0.915798 0
M  V30 32040 H 3026.13 0.826534 0.464269 0
M  V30 32041 H 3025.84 2.73299 2.21361 0
M  V30 32042 H 3025.71 1.50359 3.45936 0
M  V30 32043 H 3028.1 0.710087 2.86429 0
M  V30 32044 H 3028.18 1.9732 1.62784 0
M  V30 32045 H 3027.82 3.73769 3.43888 0
M  V30 32046 H 3027.75 2.44578 4.66357 0
M  V30 32047 H 3030.24 2.10252 3.1401 0
M  V30 32048 H 3030.56 4.8051 6.05252 0
M  V30 32049 H 3028.9 4.31591 5.44751 0
M  V30 32050 H 3032.09 2.67396 3.8421 0
M  V30 32051 H 3032.26 3.90617 5.17032 0
M  V30 32052 N 3025.67 -1.37693 0.766707 0
M  V30 32053 C 3026.62 -2.30326 0.147766 0
M  V30 32054 C 3027.59 -1.50845 -0.695339 0
M  V30 32055 O 3028.77 -1.79432 -0.648749 0
M  V30 32056 C 3025.91 -3.37306 -0.729291 0
M  V30 32057 C 3025.03 -4.31805 0.12987 0
M  V30 32058 C 3024.16 -5.25858 -0.751419 0
M  V30 32059 C 3023.2 -6.12 0.110583 0
M  V30 32060 N 3022.34 -6.98311 -0.7284 0
M  V30 32061 H 3027.18 -2.82678 0.943254 0
M  V30 32062 H 3024.71 -1.3916 0.476761 0
M  V30 32063 H 3026.67 -3.97953 -1.25256 0
M  V30 32064 H 3025.3 -2.86332 -1.49043 0
M  V30 32065 H 3024.35 -3.72507 0.770895 0
M  V30 32066 H 3025.67 -4.92424 0.79501 0
M  V30 32067 H 3024.82 -5.91686 -1.34136 0
M  V30 32068 H 3023.56 -4.65638 -1.45025 0
M  V30 32069 H 3022.56 -5.45156 0.713094 0
M  V30 32070 H 3023.79 -6.74292 0.806676 0
M  V30 32071 H 3021.73 -6.40625 -1.41194 0
M  V30 32072 H 3021.65 -7.55904 -0.120447 0
M  V30 32073 H 3022.92 -7.68534 -1.30289 0
M  V30 32074 N 3027.15 -0.516835 -1.48884 0
M  V30 32075 C 3028.08 0.290021 -2.27358 0
M  V30 32076 C 3029.09 0.916383 -1.3456 0
M  V30 32077 O 3030.28 0.797045 -1.59717 0
M  V30 32078 C 3027.38 1.42471 -3.07499 0
M  V30 32079 C 3026.56 0.902718 -4.27983 0
M  V30 32080 C 3025.61 1.91692 -4.90041 0
M  V30 32081 O 3024.64 1.47912 -5.49646 0
M  V30 32082 N 3025.84 3.24835 -4.81105 0
M  V30 32083 H 3028.61 -0.382936 -2.97243 0
M  V30 32084 H 3026.17 -0.350348 -1.58064 0
M  V30 32085 H 3028.16 2.10107 -3.45886 0
M  V30 32086 H 3026.73 2.00155 -2.40118 0
M  V30 32087 H 3025.95 0.0507579 -3.94167 0
M  V30 32088 H 3027.24 0.532634 -5.06004 0
M  V30 32089 H 3026.64 3.63081 -4.33807 0
M  V30 32090 H 3025.19 3.88141 -5.23631 0
M  V30 32091 N 3028.63 1.55583 -0.251365 0
M  V30 32092 C 3029.87 1.99346 0.372685 0
M  V30 32093 C 3030.21 1.13937 1.57264 0
M  V30 32094 O 3029.48 0.203804 1.93429 0
M  V30 32095 C 3029.76 3.51591 0.778183 0
M  V30 32096 C 3029.62 4.47764 -0.427473 0
M  V30 32097 C 3030.94 4.0906 1.62351 0
M  V30 32098 H 3028.05 0.724718 0.133989 0
M  V30 32099 H 3030.7 1.86681 -0.353569 0
M  V30 32100 H 3028.85 3.62515 1.39698 0
M  V30 32101 H 3030.52 4.48816 -1.06594 0
M  V30 32102 H 3028.76 4.20402 -1.06979 0
M  V30 32103 H 3029.43 5.51909 -0.100347 0
M  V30 32104 H 3031.91 4.01266 1.10113 0
M  V30 32105 H 3030.78 5.15843 1.87608 0
M  V30 32106 H 3031.05 3.57796 2.59682 0
M  V30 32107 N 3030.1 -0.0216912 1.57585 0
M  V30 32108 C 3031.03 -1.01935 2.10075 0
M  V30 32109 C 3032.02 -1.37242 1.00493 0
M  V30 32110 O 3033.2 -1.45997 1.28057 0
M  V30 32111 C 3030.33 -2.31801 2.58622 0
M  V30 32112 C 3029.28 -2.10717 3.72535 0
M  V30 32113 C 3028.61 -3.46408 4.07315 0
M  V30 32114 C 3029.91 -1.48734 5.00675 0
M  V30 32115 H 3031.6 -0.582381 2.93681 0
M  V30 32116 H 3029.15 -0.27869 1.41277 0
M  V30 32117 H 3031.1 -3.01931 2.93966 0
M  V30 32118 H 3029.83 -2.77572 1.72109 0
M  V30 32119 H 3028.49 -1.43019 3.37552 0
M  V30 32120 H 3028.13 -3.89841 3.17857 0
M  V30 32121 H 3027.83 -3.33123 4.84048 0
M  V30 32122 H 3029.36 -4.17887 4.45199 0
M  V30 32123 H 3030.77 -2.08791 5.33928 0
M  V30 32124 H 3029.17 -1.46003 5.82068 0
M  V30 32125 H 3030.24 -0.453995 4.8277 0
M  V30 32126 N 3031.58 -1.54832 -0.294093 0
M  V30 32127 C 3032.53 -1.82645 -1.36473 0
M  V30 32128 C 3033.52 -0.68401 -1.45637 0
M  V30 32129 O 3034.71 -0.944827 -1.49673 0
M  V30 32130 C 3031.84 -2.08331 -2.72861 0
M  V30 32131 C 3030.92 -3.28778 -2.67892 0
M  V30 32132 N 3031.32 -4.49176 -2.32539 0
M  V30 32133 C 3029.61 -3.30944 -2.98985 0
M  V30 32134 C 3030.31 -5.31213 -2.37039 0
M  V30 32135 N 3029.29 -4.69102 -2.74671 0
M  V30 32136 H 3033.09 -2.73292 -1.08114 0
M  V30 32137 H 3030.61 -1.54424 -0.50269 0
M  V30 32138 H 3032.6 -2.26406 -3.50066 0
M  V30 32139 H 3031.26 -1.18956 -3.02125 0
M  V30 32140 H 3032.27 -4.75654 -2.04875 0
M  V30 32141 H 3028.95 -2.51697 -3.33099 0
M  V30 32142 H 3030.34 -6.37429 -2.12446 0
M  V30 32143 N 3033.06 0.557619 -1.47405 0
M  V30 32144 C 3034.31 1.31222 -1.53705 0
M  V30 32145 C 3034.63 1.93964 -0.200776 0
M  V30 32146 O 3033.9 1.79909 0.775221 0
M  V30 32147 H 3032.48 0.487289 -0.566179 0
M  V30 32148 H 3035.14 0.651163 -1.83701 0
M  V30 32149 H 3034.24 2.10595 -2.30339 0
M  V30 32150 N 3034.54 1.35531 0.804316 0
M  V30 32151 C 3035.49 1.28638 1.91627 0
M  V30 32152 C 3036.46 0.157891 1.65348 0
M  V30 32153 O 3037.64 0.341967 1.8771 0
M  V30 32154 C 3034.78 1.06656 3.28205 0
M  V30 32155 C 3033.89 2.28447 3.66655 0
M  V30 32156 C 3033.03 1.99596 4.92275 0
M  V30 32157 C 3032.07 3.17429 5.23359 0
M  V30 32158 N 3031.21 2.8834 6.4016 0
M  V30 32159 H 3036.05 2.23724 1.96854 0
M  V30 32160 H 3033.58 1.1121 0.962852 0
M  V30 32161 H 3035.54 0.919415 4.06943 0
M  V30 32162 H 3034.17 0.15231 3.2244 0
M  V30 32163 H 3033.22 2.54018 2.83159 0
M  V30 32164 H 3034.53 3.16427 3.85585 0
M  V30 32165 H 3033.69 1.81726 5.78844 0
M  V30 32166 H 3032.43 1.08905 4.75385 0
M  V30 32167 H 3031.43 3.35875 4.35279 0
M  V30 32168 H 3032.66 4.08926 5.42178 0
M  V30 32169 H 3030.6 2.00244 6.24691 0
M  V30 32170 H 3030.52 3.69854 6.59351 0
M  V30 32171 H 3031.79 2.74015 7.29751 0
M  V30 32172 N 3036.02 -1.02674 1.19565 0
M  V30 32173 C 3037.29 -1.73201 0.908887 0
M  V30 32174 C 3037.67 -2.02835 -0.584892 0
M  V30 32175 O 3037.02 -1.68471 -1.54369 0
M  V30 32176 C 3037.23 -3.00721 1.77111 0
M  V30 32177 C 3038.58 -3.74186 2.00673 0
M  V30 32178 O 3039.6 -3.10653 1.7428 0
M  V30 32179 O 3038.46 -4.8841 2.45189 0
M  V30 32180 H 3035.56 -0.754361 0.338922 0
M  V30 32181 H 3038.1 -1.08613 1.30389 0
M  V30 32182 H 3036.88 -2.75065 2.78307 0
M  V30 32183 H 3036.5 -3.73048 1.37552 0
M  V30 32184 N 3037.5 -0.999914 -1.21817 0
M  V30 32185 C 3038.74 -0.679727 -1.90751 0
M  V30 32186 C 3039.07 0.788982 -1.77779 0
M  V30 32187 O 3038.33 1.58693 -1.14521 0
M  V30 32188 C 3038.62 -1.04018 -3.41928 0
M  V30 32189 C 3038.29 -2.50231 -3.75094 0
M  V30 32190 C 3036.95 -2.90186 -3.83856 0
M  V30 32191 C 3039.3 -3.44968 -3.907 0
M  V30 32192 C 3036.63 -4.23851 -4.05669 0
M  V30 32193 C 3038.98 -4.78301 -4.14018 0
M  V30 32194 C 3037.65 -5.17986 -4.21006 0
M  V30 32195 H 3036.92 -0.24873 -0.698007 0
M  V30 32196 H 3039.57 -1.25741 -1.44435 0
M  V30 32197 H 3037.87 -0.380675 -3.89946 0
M  V30 32198 H 3039.57 -0.77037 -3.93531 0
M  V30 32199 H 3036.16 -2.18265 -3.68861 0
M  V30 32200 H 3040.34 -3.15268 -3.83301 0
M  V30 32201 H 3035.6 -4.54177 -4.09308 0
M  V30 32202 H 3039.77 -5.51649 -4.25037 0
M  V30 32203 H 3037.4 -6.21576 -4.37661 0
M  V30 32204 N 3038.97 1.37284 -0.773999 0
M  V30 32205 C 3039.91 2.28886 -0.119978 0
M  V30 32206 C 3040.92 1.48742 0.661796 0
M  V30 32207 O 3042.11 1.71368 0.499518 0
M  V30 32208 C 3039.21 3.27973 0.853645 0
M  V30 32209 C 3038.38 4.37221 0.125209 0
M  V30 32210 C 3037.44 5.16367 1.01252 0
M  V30 32211 O 3036.47 5.67211 0.475465 0
M  V30 32212 N 3037.67 5.31312 2.33855 0
M  V30 32213 H 3040.43 2.85654 -0.906752 0
M  V30 32214 H 3037.99 1.49285 -0.626545 0
M  V30 32215 H 3039.99 3.77804 1.45073 0
M  V30 32216 H 3038.56 2.71957 1.54138 0
M  V30 32217 H 3037.78 3.88757 -0.652811 0
M  V30 32218 H 3039.06 5.07394 -0.378048 0
M  V30 32219 H 3038.46 4.9159 2.79921 0
M  V30 32220 H 3037.02 5.84443 2.88565 0
M  V30 32221 N 3040.45 0.524724 1.48608 0
M  V30 32222 C 3041.7 -0.0113025 2.02797 0
M  V30 32223 C 3042.03 -1.34431 1.4015 0
M  V30 32224 O 3041.31 -1.86697 0.545401 0
M  V30 32225 C 3041.59 -0.138868 3.59832 0
M  V30 32226 C 3041.44 1.21894 4.32969 0
M  V30 32227 C 3042.76 -0.868189 4.31452 0
M  V30 32228 H 3039.88 -0.0026335 0.736995 0
M  V30 32229 H 3042.52 0.680735 1.77387 0
M  V30 32230 H 3040.67 -0.728273 3.81613 0
M  V30 32231 H 3042.34 1.84905 4.2262 0
M  V30 32232 H 3040.59 1.80218 3.94593 0
M  V30 32233 H 3041.26 1.08273 5.41277 0
M  V30 32234 H 3043.73 -0.368072 4.14469 0
M  V30 32235 H 3042.61 -0.926333 5.41027 0
M  V30 32236 H 3042.87 -1.9173 3.98362 0
M  V30 32237 N 3041.93 -1.55447 0.259613 0
M  V30 32238 C 3043.21 -1.912 -0.412561 0
M  V30 32239 C 3043.59 -1.18197 -1.74907 0
M  V30 32240 O 3042.93 -0.303643 -2.26474 0
M  V30 32241 C 3043.14 -3.44345 -0.568134 0
M  V30 32242 C 3044.49 -4.15837 -0.85818 0
M  V30 32243 O 3045.52 -3.50154 -0.653526 0
M  V30 32244 O 3044.38 -5.32044 -1.24865 0
M  V30 32245 H 3041.47 -0.796258 -0.223389 0
M  V30 32246 H 3044.02 -1.66944 0.30462 0
M  V30 32247 H 3042.79 -3.89518 0.373058 0
M  V30 32248 H 3042.41 -3.74504 -1.33537 0
M  V30 32249 N 3043.41 0.0133338 -1.57594 0
M  V30 32250 C 3044.65 0.705606 -1.91835 0
M  V30 32251 C 3045.01 1.71671 -0.859832 0
M  V30 32252 O 3046.21 2.45838 -1.08706 0
M  V30 32253 C 3044.48 1.34377 -3.31176 0
M  V30 32254 S 3046.04 2.06302 -3.87279 0
M  V30 32255 H 3042.86 0.233393 -0.671602 0
M  V30 32256 H 3045.46 -0.0401517 -1.95459 0
M  V30 32257 H 3044.17 0.594867 -4.06066 0
M  V30 32258 H 3043.7 2.12775 -3.30893 0
M  V30 32259 H 3045.71 3.3365 -3.67277 0
M  V30 32260 N 3044.89 1.54985 0.285878 0
M  V30 32261 C 3045.83 1.8698 1.35303 0
M  V30 32262 C 3046.8 0.720072 1.4968 0
M  V30 32263 O 3047.99 0.970136 1.64295 0
M  V30 32264 C 3045.13 2.13596 2.71055 0
M  V30 32265 C 3044.24 3.4117 2.65004 0
M  V30 32266 C 3043.38 3.57551 3.9285 0
M  V30 32267 C 3042.41 4.78862 3.81258 0
M  V30 32268 N 3041.55 4.91968 5.00911 0
M  V30 32269 H 3046.39 2.78005 1.07318 0
M  V30 32270 H 3043.93 1.37649 0.518752 0
M  V30 32271 H 3045.89 2.27025 3.50022 0
M  V30 32272 H 3044.52 1.25821 2.97269 0
M  V30 32273 H 3043.57 3.36281 1.77818 0
M  V30 32274 H 3044.88 4.30266 2.52334 0
M  V30 32275 H 3044.03 3.70727 4.80257 0
M  V30 32276 H 3042.77 2.66615 4.08372 0
M  V30 32277 H 3041.78 4.65703 2.92234 0
M  V30 32278 H 3043 5.7122 3.67267 0
M  V30 32279 H 3040.95 4.0396 5.16868 0
M  V30 32280 H 3040.87 5.7509 4.90722 0
M  V30 32281 H 3042.13 5.09517 5.89926 0
M  V30 32282 N 3046.36 -0.549794 1.47699 0
M  V30 32283 C 3047.33 -1.63834 1.60285 0
M  V30 32284 C 3048.33 -1.53549 0.477421 0
M  V30 32285 O 3049.52 -1.57574 0.742693 0
M  V30 32286 C 3046.65 -3.03401 1.55436 0
M  V30 32287 H 3047.84 -1.54022 2.57327 0
M  V30 32288 H 3045.4 -0.770305 1.36 0
M  V30 32289 H 3046.13 -3.18739 0.597968 0
M  V30 32290 H 3045.92 -3.12275 2.37121 0
M  V30 32291 H 3047.41 -3.82581 1.67396 0
M  V30 32292 N 3047.84 -1.35955 -0.797117 0
M  V30 32293 C 3049.07 -1.33055 -1.59094 0
M  V30 32294 C 3049.49 0.0874262 -1.87897 0
M  V30 32295 O 3048.85 1.0571 -1.47293 0
M  V30 32296 C 3048.9 -2.15205 -2.89342 0
M  V30 32297 O 3048 -1.53926 -3.82597 0
M  V30 32298 H 3047.34 -0.455759 -0.482887 0
M  V30 32299 H 3049.87 -1.79131 -0.988601 0
M  V30 32300 H 3049.88 -2.27505 -3.38682 0
M  V30 32301 H 3048.56 -3.18288 -2.67705 0
M  V30 32302 H 3047.14 -1.50522 -3.41171 0
M  V30 32303 N 3049.32 1.02038 -1.20108 0
M  V30 32304 C 3050.57 1.75229 -1.00693 0
M  V30 32305 C 3050.89 1.89437 0.462457 0
M  V30 32306 O 3050.16 1.43413 1.33453 0
M  V30 32307 H 3048.74 0.649164 -0.369587 0
M  V30 32308 H 3051.4 1.23041 -1.51152 0
M  V30 32309 H 3050.5 2.75734 -1.4621 0
M  V30 32310 N 3050.8 1.00636 1.21285 0
M  V30 32311 C 3052.02 0.708476 1.94924 0
M  V30 32312 C 3052.45 -0.722752 1.7366 0
M  V30 32313 O 3051.81 -1.49591 1.02432 0
M  V30 32314 C 3051.85 1.03673 3.45376 0
M  V30 32315 O 3050.96 0.142733 4.12153 0
M  V30 32316 H 3050.3 0.263834 0.609334 0
M  V30 32317 H 3052.83 1.34697 1.54006 0
M  V30 32318 H 3052.84 0.984156 3.95952 0
M  V30 32319 H 3051.51 2.07957 3.60176 0
M  V30 32320 H 3050.09 0.251953 3.72048 0
M  V30 32321 N 3052.28 -1.36872 0.781268 0
M  V30 32322 C 3053.69 -1.82049 0.414125 0
M  V30 32323 C 3054.04 -1.6504 -1.06095 0
M  V30 32324 O 3053.16 -1.1668 -1.82249 0
M  V30 32325 C 3053.76 -3.3051 0.744895 0
M  V30 32326 C 3052.32 -3.73928 0.430686 0
M  V30 32327 C 3051.46 -2.59262 0.983792 0
M  V30 32328 H 3054.42 -1.25209 0.975113 0
M  V30 32329 H 3054.44 -3.80486 0.0330029 0
M  V30 32330 H 3053.95 -3.42857 1.81853 0
M  V30 32331 H 3052.05 -3.67145 -0.635244 0
M  V30 32332 H 3052.16 -4.69676 0.945596 0
M  V30 32333 H 3050.53 -2.51419 0.407477 0
M  V30 32334 H 3051.31 -2.74398 2.06302 0
M  V30 32335 N 3053.75 -0.532597 -1.48328 0
M  V30 32336 C 3055 0.000547572 -2.028 0
M  V30 32337 C 3055.33 1.33686 -1.40861 0
M  V30 32338 O 3054.61 1.86405 -0.555294 0
M  V30 32339 C 3054.89 0.119783 -3.59901 0
M  V30 32340 C 3054.74 -1.24188 -4.32316 0
M  V30 32341 C 3056.06 0.845296 -4.31906 0
M  V30 32342 H 3053.18 -0.00127501 -0.736999 0
M  V30 32343 H 3055.82 -0.690133 -1.77023 0
M  V30 32344 H 3053.97 0.708025 -3.81994 0
M  V30 32345 H 3055.65 -1.87143 -4.21634 0
M  V30 32346 H 3053.89 -1.82308 -3.93632 0
M  V30 32347 H 3054.56 -1.11142 -5.40695 0
M  V30 32348 H 3057.04 0.346086 -4.14658 0
M  V30 32349 H 3055.91 0.897628 -5.41511 0
M  V30 32350 H 3056.17 1.89615 -3.99373 0
M  V30 32351 N 3055.23 1.55307 -0.267853 0
M  V30 32352 C 3056.64 1.85262 0.231311 0
M  V30 32353 C 3056.99 1.18985 1.56004 0
M  V30 32354 O 3056.12 0.475591 2.11109 0
M  V30 32355 C 3056.71 3.36105 0.426478 0
M  V30 32356 C 3055.27 3.6621 0.869881 0
M  V30 32357 C 3054.42 2.7727 -0.041001 0
M  V30 32358 H 3057.37 1.50951 -0.489847 0
M  V30 32359 H 3057.39 3.58818 1.2661 0
M  V30 32360 H 3056.9 3.84314 -0.540746 0
M  V30 32361 H 3055.01 3.23495 1.84883 0
M  V30 32362 H 3055.12 4.73776 0.712233 0
M  V30 32363 H 3053.48 2.5025 0.474053 0
M  V30 32364 H 3054.27 3.28291 -1.00398 0
M  V30 32365 N 3056.71 -0.00497598 1.57599 0
M  V30 32366 C 3057.62 -1.01442 2.11534 0
M  V30 32367 C 3058.64 -1.38029 1.05944 0
M  V30 32368 O 3059.81 -1.46862 1.37817 0
M  V30 32369 C 3056.88 -2.2891 2.60386 0
M  V30 32370 C 3055.94 -1.98682 3.80557 0
M  V30 32371 C 3055.17 -3.20073 4.2707 0
M  V30 32372 O 3055.39 -4.31587 3.72946 0
M  V30 32373 O 3054.33 -3.04362 5.19276 0
M  V30 32374 H 3058.15 -0.585958 2.97994 0
M  V30 32375 H 3055.74 -0.223493 1.47719 0
M  V30 32376 H 3057.62 -3.03804 2.92029 0
M  V30 32377 H 3056.3 -2.71004 1.77027 0
M  V30 32378 H 3055.2 -1.2128 3.53895 0
M  V30 32379 H 3056.54 -1.61428 4.64975 0
M  V30 32380 N 3058.19 -1.55135 -0.277654 0
M  V30 32381 C 3059.44 -1.74728 -1.00763 0
M  V30 32382 C 3059.75 -0.553125 -1.87616 0
M  V30 32383 O 3060.96 -0.631364 -2.64057 0
M  V30 32384 C 3059.41 -3.09224 -1.84142 0
M  V30 32385 C 3059.02 -4.36192 -1.02178 0
M  V30 32386 C 3060.76 -3.38168 -2.56598 0
M  V30 32387 C 3058.67 -5.6173 -1.84968 0
M  V30 32388 H 3057.6 -0.651279 -0.379936 0
M  V30 32389 H 3060.25 -1.81598 -0.263511 0
M  V30 32390 H 3058.63 -2.96379 -2.62632 0
M  V30 32391 H 3059.81 -4.5994 -0.281378 0
M  V30 32392 H 3058.12 -4.14357 -0.411982 0
M  V30 32393 H 3060.72 -4.29167 -3.18935 0
M  V30 32394 H 3061.06 -2.58091 -3.26642 0
M  V30 32395 H 3061.6 -3.5209 -1.85141 0
M  V30 32396 H 3058.34 -6.44543 -1.19353 0
M  V30 32397 H 3057.86 -5.42132 -2.56618 0
M  V30 32398 H 3059.53 -5.99857 -2.42448 0
M  V30 32399 N 3059.67 0.541953 -1.47989 0
M  V30 32400 C 3060.89 1.32823 -1.59288 0
M  V30 32401 C 3061.32 1.86445 -0.248973 0
M  V30 32402 O 3060.67 1.6378 0.777553 0
M  V30 32403 C 3060.72 2.46338 -2.63344 0
M  V30 32404 O 3059.83 3.49024 -2.19673 0
M  V30 32405 H 3059.17 0.393894 -0.53455 0
M  V30 32406 H 3061.7 0.653392 -1.93886 0
M  V30 32407 H 3061.71 2.92694 -2.84243 0
M  V30 32408 H 3060.38 2.06669 -3.60917 0
M  V30 32409 H 3058.96 3.08868 -2.08937 0
M  V30 32410 N 3061.15 1.36376 0.789896 0
M  V30 32411 C 3062.39 1.3178 1.54937 0
M  V30 32412 C 3062.75 -0.102293 1.92128 0
M  V30 32413 O 3062.04 -1.05672 1.59825 0
M  V30 32414 C 3062.23 2.17375 2.83695 0
M  V30 32415 C 3062.06 3.67565 2.59087 0
M  V30 32416 C 3060.83 4.36744 2.54132 0
M  V30 32417 C 3063.03 4.60842 2.28317 0
M  V30 32418 N 3061.01 5.7258 2.21417 0
M  V30 32419 C 3062.38 5.84923 2.05586 0
M  V30 32420 C 3064.44 4.49412 2.1432 0
M  V30 32421 C 3063.14 6.98856 1.70273 0
M  V30 32422 C 3065.17 5.63212 1.80405 0
M  V30 32423 C 3064.53 6.86331 1.58521 0
M  V30 32424 H 3060.63 0.537493 0.568001 0
M  V30 32425 H 3063.21 1.71423 0.923153 0
M  V30 32426 H 3061.38 1.79978 3.44184 0
M  V30 32427 H 3063.12 2.04173 3.49422 0
M  V30 32428 H 3059.87 3.8954 2.69361 0
M  V30 32429 H 3060.29 6.44318 2.07806 0
M  V30 32430 H 3064.94 3.54813 2.29929 0
M  V30 32431 H 3062.65 7.93406 1.53401 0
M  V30 32432 H 3066.24 5.5633 1.70259 0
M  V30 32433 H 3065.12 7.72897 1.32664 0
M  V30 32434 N 3062.62 -1.014 1.20647 0
M  V30 32435 C 3063.85 -1.7917 1.04465 0
M  V30 32436 C 3064.27 -1.83764 -0.401556 0
M  V30 32437 O 3063.63 -1.27461 -1.28932 0
M  V30 32438 C 3063.68 -3.21358 1.63589 0
M  V30 32439 O 3062.78 -4.03005 0.875268 0
M  V30 32440 H 3062.12 -0.552532 0.368245 0
M  V30 32441 H 3064.65 -1.27523 1.59997 0
M  V30 32442 H 3064.66 -3.72062 1.67433 0
M  V30 32443 H 3063.34 -3.17329 2.6884 0
M  V30 32444 H 3061.92 -3.61595 0.911235 0
M  V30 32445 N 3064.1 -1.01278 -1.2075 0
M  V30 32446 C 3065.03 -0.600104 -2.25657 0
M  V30 32447 C 3066.01 0.382951 -1.65733 0
M  V30 32448 O 3067.2 0.269222 -1.92325 0
M  V30 32449 C 3064.33 0.0662587 -3.47237 0
M  V30 32450 C 3063.28 -0.837384 -4.19728 0
M  V30 32451 C 3062.61 -0.0370042 -5.34687 0
M  V30 32452 C 3063.91 -2.14365 -4.76282 0
M  V30 32453 H 3065.6 -1.47705 -2.6043 0
M  V30 32454 H 3063.15 -0.711656 -1.25186 0
M  V30 32455 H 3065.1 0.366489 -4.19803 0
M  V30 32456 H 3063.82 0.977889 -3.11617 0
M  V30 32457 H 3062.48 -1.12156 -3.49022 0
M  V30 32458 H 3062.13 0.876157 -4.9531 0
M  V30 32459 H 3061.83 -0.638753 -5.84118 0
M  V30 32460 H 3063.36 0.256861 -6.10059 0
M  V30 32461 H 3064.77 -1.90605 -5.40687 0
M  V30 32462 H 3063.17 -2.69592 -5.36134 0
M  V30 32463 H 3064.24 -2.80923 -3.95235 0
M  V30 32464 N 3065.58 1.36456 -0.788516 0
M  V30 32465 C 3066.99 1.81827 -0.423774 0
M  V30 32466 C 3067.34 1.65601 1.05218 0
M  V30 32467 O 3066.47 1.17645 1.81628 0
M  V30 32468 C 3067.06 3.3011 -0.762412 0
M  V30 32469 C 3065.62 3.73694 -0.450511 0
M  V30 32470 C 3064.77 2.58737 -0.997527 0
M  V30 32471 H 3067.72 1.2469 -0.98174 0
M  V30 32472 H 3067.74 3.80463 -0.0531805 0
M  V30 32473 H 3067.25 3.41888 -1.83668 0
M  V30 32474 H 3065.35 3.67477 0.615764 0
M  V30 32475 H 3065.47 4.69168 -0.970491 0
M  V30 32476 H 3063.83 2.512 -0.420805 0
M  V30 32477 H 3064.61 2.733 -2.07754 0
M  V30 32478 N 3067.06 0.540456 1.48043 0
M  V30 32479 C 3068.33 -0.0546958 1.95524 0
M  V30 32480 C 3068.71 -1.50248 1.48287 0
M  V30 32481 O 3068.06 -2.17056 0.714075 0
M  V30 32482 C 3068.27 0.0734007 3.48923 0
M  V30 32483 C 3069.62 -0.0805279 4.24524 0
M  V30 32484 O 3070.64 0.00011848 3.562 0
M  V30 32485 O 3069.5 -0.25112 5.45923 0
M  V30 32486 H 3066.6 -0.0734785 0.823729 0
M  V30 32487 H 3069.14 0.605796 1.58519 0
M  V30 32488 H 3067.92 1.0815 3.76057 0
M  V30 32489 H 3067.54 -0.625467 3.9265 0
M  V30 32490 N 3068.54 -1.55163 0.276085 0
M  V30 32491 C 3069.78 -1.99224 -0.339747 0
M  V30 32492 C 3070.1 -1.16592 -1.56305 0
M  V30 32493 O 3069.37 -0.255674 -1.94224 0
M  V30 32494 H 3067.95 -0.735861 -0.128521 0
M  V30 32495 H 3070.62 -1.91127 0.381646 0
M  V30 32496 H 3069.71 -3.05697 -0.628947 0
M  V30 32497 N 3070.01 -0.00338196 -1.576 0
M  V30 32498 C 3071.24 0.69165 -1.94997 0
M  V30 32499 C 3071.66 1.6712 -0.878434 0
M  V30 32500 O 3071.01 1.81944 0.142311 0
M  V30 32501 C 3071.06 1.42057 -3.32419 0
M  V30 32502 O 3070.79 0.480303 -4.35459 0
M  V30 32503 C 3072.29 2.2098 -3.84295 0
M  V30 32504 H 3069.51 0.192423 -0.642818 0
M  V30 32505 H 3072.05 -0.0555066 -2.04425 0
M  V30 32506 H 3070.21 2.11933 -3.24289 0
M  V30 32507 H 3070.62 0.994964 -5.14976 0
M  V30 32508 H 3072.09 2.67474 -4.82868 0
M  V30 32509 H 3072.57 3.03799 -3.17179 0
M  V30 32510 H 3073.18 1.56114 -3.95612 0
M  V30 32511 N 3071.49 1.5528 0.269423 0
M  V30 32512 C 3072.42 1.83338 1.35877 0
M  V30 32513 C 3073.4 0.686685 1.47389 0
M  V30 32514 O 3074.59 0.930066 1.63957 0
M  V30 32515 C 3071.71 1.99817 2.7348 0
M  V30 32516 C 3070.76 3.22383 2.79233 0
M  V30 32517 S 3071.59 4.79646 2.38117 0
M  V30 32518 C 3072.75 4.99102 3.77688 0
M  V30 32519 H 3072.98 2.75448 1.11874 0
M  V30 32520 H 3070.51 1.47097 0.469242 0
M  V30 32521 H 3072.47 2.09995 3.52721 0
M  V30 32522 H 3071.13 1.08588 2.94733 0
M  V30 32523 H 3070.33 3.30811 3.80237 0
M  V30 32524 H 3069.93 3.10814 2.08016 0
M  V30 32525 H 3072.22 4.85063 4.72991 0
M  V30 32526 H 3073.16 6.01143 3.7421 0
M  V30 32527 H 3073.57 4.27064 3.69156 0
M  V30 32528 N 3072.97 -0.534097 1.48274 0
M  V30 32529 C 3074.22 -1.2866 1.55337 0
M  V30 32530 C 3074.53 -1.94239 0.230379 0
M  V30 32531 O 3075.74 -2.70908 0.179209 0
M  V30 32532 C 3074.19 -2.33431 2.73931 0
M  V30 32533 C 3073.8 -1.7394 4.12855 0
M  V30 32534 C 3075.55 -3.09717 2.90303 0
M  V30 32535 C 3073.45 -2.76626 5.22716 0
M  V30 32536 H 3072.38 -0.483858 0.578271 0
M  V30 32537 H 3075.03 -0.564571 1.74599 0
M  V30 32538 H 3073.42 -3.08651 2.48094 0
M  V30 32539 H 3074.59 -1.04936 4.48693 0
M  V30 32540 H 3072.9 -1.1016 4.01564 0
M  V30 32541 H 3075.5 -3.86443 3.69549 0
M  V30 32542 H 3075.84 -3.65327 1.99605 0
M  V30 32543 H 3076.38 -2.4161 3.16021 0
M  V30 32544 H 3073.12 -2.25841 6.15366 0
M  V30 32545 H 3072.64 -3.4397 4.9137 0
M  V30 32546 H 3074.32 -3.39689 5.50654 0
M  V30 32547 N 3074.45 -1.36793 -0.782652 0
M  V30 32548 C 3075.4 -1.31741 -1.91695 0
M  V30 32549 C 3076.39 -0.208024 -1.68118 0
M  V30 32550 O 3077.6 -0.375424 -1.76041 0
M  V30 32551 H 3073.97 -0.410295 -0.630208 0
M  V30 32552 H 3075.94 -2.27519 -1.93074 0
M  V30 32553 C 3074.69 -1.13035 -3.28814 0
M  V30 32554 H 3074.01 -1.9765 -3.47527 0
M  V30 32555 H 3075.45 -1.13548 -4.08513 0
M  V30 32556 C 3073.91 0.164641 -3.36497 0
M  V30 32557 O 3074.44 1.15209 -3.84824 0
M  V30 32558 N 3072.65 0.211627 -2.89828 0
M  V30 32559 H 3072.2 -0.592564 -2.50692 0
M  V30 32560 H 3072.15 1.07774 -2.95351 0
M  V30 32561 N 3075.93 1.00759 -1.21184 0
M  V30 32562 C 3076.87 2.11603 -0.965766 0
M  V30 32563 C 3077.87 1.69181 0.0860731 0
M  V30 32564 O 3079.07 1.79882 -0.0650874 0
M  V30 32565 H 3075.45 0.691707 -0.295035 0
M  V30 32566 H 3077.42 2.29537 -1.90671 0
M  V30 32567 C 3076.17 3.43414 -0.544225 0
M  V30 32568 H 3075.49 3.76489 -1.34521 0
M  V30 32569 H 3076.93 4.22 -0.411342 0
M  V30 32570 C 3075.39 3.2857 0.744525 0
M  V30 32571 O 3075.92 3.59078 1.80071 0
M  V30 32572 N 3074.13 2.81792 0.710034 0
M  V30 32573 H 3073.67 2.57164 -0.149755 0
M  V30 32574 H 3073.63 2.72242 1.57264 0
M  V30 32575 N 3077.4 1.01917 1.20211 0
M  V30 32576 C 3078.37 0.596366 2.21305 0
M  V30 32577 C 3079.37 -0.334851 1.57275 0
M  V30 32578 O 3080.56 -0.123189 1.73764 0
M  V30 32579 C 3077.69 -0.128748 3.40657 0
M  V30 32580 H 3078.88 1.49073 2.60226 0
M  V30 32581 H 3076.44 0.80925 1.33719 0
M  V30 32582 H 3077.17 -1.0379 3.07243 0
M  V30 32583 H 3076.96 0.540252 3.8836 0
M  V30 32584 H 3078.45 -0.411819 4.15564 0
M  V30 32585 N 3078.88 -1.36036 0.795742 0
M  V30 32586 C 3079.82 -2.27743 0.144309 0
M  V30 32587 C 3080.79 -1.47545 -0.683325 0
M  V30 32588 O 3081.98 -1.7683 -0.652945 0
M  V30 32589 C 3079.1 -3.29095 -0.800886 0
M  V30 32590 C 3078.15 -4.26465 -0.0542485 0
M  V30 32591 S 3078.98 -5.20116 1.27435 0
M  V30 32592 C 3080.14 -6.25012 0.333323 0
M  V30 32593 H 3080.37 -2.82646 0.921876 0
M  V30 32594 H 3077.91 -1.42672 0.590266 0
M  V30 32595 H 3079.86 -3.87987 -1.34075 0
M  V30 32596 H 3078.52 -2.73092 -1.55175 0
M  V30 32597 H 3077.72 -4.98057 -0.7717 0
M  V30 32598 H 3077.32 -3.71687 0.41533 0
M  V30 32599 H 3079.61 -6.75758 -0.485485 0
M  V30 32600 H 3080.55 -7.00743 1.01811 0
M  V30 32601 H 3080.96 -5.64461 -0.0661567 0
M  V30 32602 N 3080.36 -0.5483 -1.47755 0
M  V30 32603 C 3081.29 0.24173 -2.27922 0
M  V30 32604 C 3082.31 0.887634 -1.36473 0
M  V30 32605 O 3083.49 0.762987 -1.61371 0
M  V30 32606 C 3080.59 1.35916 -3.10451 0
M  V30 32607 C 3079.77 0.811733 -4.29802 0
M  V30 32608 C 3078.83 1.81255 -4.93997 0
M  V30 32609 O 3077.85 1.3622 -5.5266 0
M  V30 32610 N 3079.05 3.14557 -4.87887 0
M  V30 32611 H 3081.82 -0.4459 -2.96364 0
M  V30 32612 H 3079.38 -0.383797 -1.57285 0
M  V30 32613 H 3081.37 2.02723 -3.50265 0
M  V30 32614 H 3079.94 1.95017 -2.4431 0
M  V30 32615 H 3079.16 -0.0328622 -3.94186 0
M  V30 32616 H 3080.45 0.425183 -5.0702 0
M  V30 32617 H 3079.85 3.53797 -4.41411 0
M  V30 32618 H 3078.41 3.76947 -5.31747 0
M  V30 32619 N 3081.84 1.55014 -0.28431 0
M  V30 32620 C 3082.8 2.21578 0.586143 0
M  V30 32621 C 3083.8 1.19652 1.07425 0
M  V30 32622 O 3084.99 1.44497 0.972951 0
M  V30 32623 C 3082.12 2.889 1.80968 0
M  V30 32624 H 3083.32 2.999 0.00481982 0
M  V30 32625 H 3080.87 1.56261 -0.0349971 0
M  V30 32626 H 3081.6 2.14615 2.43127 0
M  V30 32627 H 3081.39 3.63602 1.4675 0
M  V30 32628 H 3082.88 3.39728 2.42847 0
M  V30 32629 N 3083.32 0.0117398 1.57596 0
M  V30 32630 C 3084.59 -0.708324 1.82324 0
M  V30 32631 C 3084.97 -1.91329 0.891981 0
M  V30 32632 O 3084.32 -2.2843 -0.0565582 0
M  V30 32633 C 3084.53 -1.10297 3.31113 0
M  V30 32634 C 3085.88 -1.50192 3.97149 0
M  V30 32635 O 3086.9 -1.19644 3.35505 0
M  V30 32636 O 3085.76 -2.0704 5.05763 0
M  V30 32637 H 3082.86 -0.345918 0.751179 0
M  V30 32638 H 3085.4 0.0380931 1.69657 0
M  V30 32639 H 3084.17 -0.244602 3.90535 0
M  V30 32640 H 3083.8 -1.90812 3.48822 0
M  V30 32641 N 3084.79 -1.55421 -0.261185 0
M  V30 32642 C 3086.07 -1.67314 -1.01318 0
M  V30 32643 C 3086.45 -0.547391 -2.03879 0
M  V30 32644 O 3085.8 0.451044 -2.24004 0
M  V30 32645 C 3086.01 -3.07027 -1.65938 0
M  V30 32646 C 3087.36 -3.65163 -2.16659 0
M  V30 32647 O 3088.38 -3.09736 -1.75904 0
M  V30 32648 O 3087.24 -4.62299 -2.91447 0
M  V30 32649 H 3084.33 -0.679977 -0.470703 0
M  V30 32650 H 3086.88 -1.67756 -0.256104 0
M  V30 32651 H 3085.65 -3.80408 -0.916801 0
M  V30 32652 H 3085.28 -3.10535 -2.48302 0
M  V30 32653 N 3086.27 0.526227 -1.48555 0
M  V30 32654 C 3087.5 1.31126 -1.60688 0
M  V30 32655 C 3087.92 1.8617 -0.268734 0
M  V30 32656 O 3087.28 1.64595 0.760138 0
M  V30 32657 C 3087.33 2.43531 -2.65942 0
M  V30 32658 O 3086.43 3.46674 -2.23362 0
M  V30 32659 H 3085.77 0.388202 -0.538698 0
M  V30 32660 H 3088.3 0.632791 -1.94569 0
M  V30 32661 H 3088.31 2.89663 -2.87332 0
M  V30 32662 H 3086.99 2.02829 -3.63088 0
M  V30 32663 H 3085.57 3.06635 -2.12201 0
M  V30 32664 N 3087.75 1.37206 0.775387 0
M  V30 32665 C 3089 1.31952 1.53078 0
M  V30 32666 C 3089.32 -0.0966521 1.9476 0
M  V30 32667 O 3088.59 -1.03991 1.6602 0
M  V30 32668 H 3087.17 0.485454 0.567753 0
M  V30 32669 H 3089.83 1.71655 0.92306 0
M  V30 32670 H 3088.93 1.95618 2.43187 0
M  V30 32671 N 3089.23 -1.00115 1.21716 0
M  V30 32672 C 3090.18 -2.07389 0.947295 0
M  V30 32673 C 3091.16 -1.60596 -0.098938 0
M  V30 32674 O 3092.35 -1.76655 0.110501 0
M  V30 32675 C 3089.48 -3.39369 0.518013 0
M  V30 32676 C 3088.57 -3.92821 1.59853 0
M  V30 32677 N 3088.96 -4.19593 2.82445 0
M  V30 32678 C 3087.26 -4.21138 1.46829 0
M  V30 32679 C 3087.96 -4.62916 3.52255 0
M  V30 32680 N 3086.94 -4.66119 2.79704 0
M  V30 32681 H 3090.74 -2.26019 1.87864 0
M  V30 32682 H 3088.25 -1.18219 1.11347 0
M  V30 32683 H 3090.25 -4.15775 0.306024 0
M  V30 32684 H 3088.91 -3.22145 -0.406524 0
M  V30 32685 H 3089.92 -4.08032 3.18951 0
M  V30 32686 H 3086.6 -4.1303 0.609331 0
M  V30 32687 H 3087.99 -4.92322 4.57241 0
M  V30 32688 N 3090.71 -1.02553 -1.19669 0
M  V30 32689 C 3092.12 -0.741988 -1.41304 0
M  V30 32690 C 3092.32 0.674774 -1.89866 0
M  V30 32691 O 3091.38 1.44126 -2.07326 0
M  V30 32692 C 3092.69 -1.77527 -2.42703 0
M  V30 32693 C 3094.24 -1.79443 -2.56455 0
M  V30 32694 C 3094.72 -2.81721 -3.61106 0
M  V30 32695 N 3096.21 -2.80517 -3.68598 0
M  V30 32696 C 3096.94 -3.5631 -4.49256 0
M  V30 32697 N 3096.44 -4.41808 -5.33645 0
M  V30 32698 N 3098.23 -3.44867 -4.43873 0
M  V30 32699 H 3090.38 -1.94003 -0.864666 0
M  V30 32700 H 3092.64 -0.838553 -0.442191 0
M  V30 32701 H 3092.35 -2.79071 -2.14037 0
M  V30 32702 H 3092.22 -1.59478 -3.41828 0
M  V30 32703 H 3094.61 -0.78578 -2.84446 0
M  V30 32704 H 3094.69 -2.01566 -1.57495 0
M  V30 32705 H 3094.34 -3.82755 -3.33857 0
M  V30 32706 H 3094.27 -2.56857 -4.59709 0
M  V30 32707 H 3096.76 -2.18504 -3.08325 0
M  V30 32708 H 3097.07 -4.96388 -5.92299 0
M  V30 32709 H 3095.42 -4.45883 -5.33117 0
M  V30 32710 H 3098.61 -2.77488 -3.76985 0
M  V30 32711 H 3098.78 -4.04188 -5.06494 0
M  V30 32712 N 3092.19 1.35612 -0.802945 0
M  V30 32713 C 3093.41 2.03115 -0.393966 0
M  V30 32714 C 3093.83 1.60519 0.993933 0
M  V30 32715 O 3093.19 0.801002 1.63982 0
M  V30 32716 C 3093.24 3.58516 -0.463549 0
M  V30 32717 O 3092.96 3.99561 -1.79673 0
M  V30 32718 C 3094.46 4.43275 -0.0469157 0
M  V30 32719 H 3091.68 0.651514 -0.16053 0
M  V30 32720 H 3094.22 1.73309 -1.08555 0
M  V30 32721 H 3092.38 3.86983 0.179753 0
M  V30 32722 H 3092.79 4.94197 -1.75697 0
M  V30 32723 H 3094.27 5.51805 -0.146723 0
M  V30 32724 H 3094.74 4.27492 1.00733 0
M  V30 32725 H 3095.35 4.20097 -0.663232 0
M  V30 32726 N 3093.66 0.556128 1.47462 0
M  V30 32727 C 3095.08 0.215818 1.58134 0
M  V30 32728 C 3095.28 -1.28163 1.55488 0
M  V30 32729 O 3094.34 -2.06172 1.45772 0
M  V30 32730 C 3095.65 0.841515 2.88685 0
M  V30 32731 C 3097.2 0.812644 3.02267 0
M  V30 32732 C 3097.67 1.41739 4.35516 0
M  V30 32733 N 3099.16 1.38053 4.42149 0
M  V30 32734 C 3099.9 1.81809 5.43814 0
M  V30 32735 N 3099.39 2.33416 6.52295 0
M  V30 32736 N 3101.19 1.72886 5.34852 0
M  V30 32737 H 3093.34 1.52904 1.47425 0
M  V30 32738 H 3095.6 0.637571 0.701575 0
M  V30 32739 H 3095.31 1.89386 2.96354 0
M  V30 32740 H 3095.18 0.333912 3.75719 0
M  V30 32741 H 3097.57 -0.231004 2.94194 0
M  V30 32742 H 3097.65 1.35799 2.16777 0
M  V30 32743 H 3097.29 2.4601 4.44344 0
M  V30 32744 H 3097.22 0.847493 5.19736 0
M  V30 32745 H 3099.71 1.00302 3.64346 0
M  V30 32746 H 3100.03 2.6473 7.26043 0
M  V30 32747 H 3098.37 2.37426 6.53188 0
M  V30 32748 H 3101.56 1.32346 4.49001 0
M  V30 32749 H 3101.74 2.07305 6.13945 0
M  V30 32750 N 3095.14 -1.54861 0.292527 0
M  V30 32751 C 3096.56 -1.59483 -0.061118 0
M  V30 32752 C 3096.76 -1.30961 -1.53139 0
M  V30 32753 O 3095.81 -1.07891 -2.28289 0
M  V30 32754 C 3097.13 -2.98893 0.329195 0
M  V30 32755 C 3098.67 -3.1177 0.277255 0
M  V30 32756 C 3099.15 -4.53474 0.642264 0
M  V30 32757 N 3100.64 -4.59369 0.594476 0
M  V30 32758 C 3101.38 -5.67073 0.849485 0
M  V30 32759 N 3100.87 -6.82849 1.17002 0
M  V30 32760 N 3102.66 -5.56702 0.777114 0
M  V30 32761 H 3094.82 -1.71663 1.25082 0
M  V30 32762 H 3097.08 -0.801331 0.50653 0
M  V30 32763 H 3096.78 -3.24659 1.35238 0
M  V30 32764 H 3096.66 -3.75828 -0.321376 0
M  V30 32765 H 3099.05 -2.85757 -0.736675 0
M  V30 32766 H 3099.13 -2.37008 0.96233 0
M  V30 32767 H 3098.77 -4.80215 1.65396 0
M  V30 32768 H 3098.7 -5.2656 -0.0647906 0
M  V30 32769 H 3101.19 -3.76207 0.357322 0
M  V30 32770 H 3101.5 -7.60903 1.3508 0
M  V30 32771 H 3099.85 -6.84422 1.20797 0
M  V30 32772 H 3103.04 -4.65131 0.526415 0
M  V30 32773 H 3103.21 -6.40558 0.979225 0
M  V30 32774 N 3096.62 -0.0200973 -1.57587 0
M  V30 32775 C 3097.85 0.669957 -1.95436 0
M  V30 32776 C 3098.26 1.6671 -0.894676 0
M  V30 32777 O 3097.6 1.83218 0.132976 0
M  V30 32778 C 3097.66 1.44041 -3.29382 0
M  V30 32779 C 3097.33 0.602611 -4.53009 0
M  V30 32780 C 3098.32 -0.11828 -5.19765 0
M  V30 32781 C 3096.01 0.542666 -4.9936 0
M  V30 32782 C 3098 -0.887885 -6.31186 0
M  V30 32783 C 3095.69 -0.23065 -6.10665 0
M  V30 32784 C 3096.69 -0.944641 -6.76436 0
M  V30 32785 O 3096.38 -1.7053 -7.85605 0
M  V30 32786 H 3096.11 0.190223 -0.648684 0
M  V30 32787 H 3098.66 -0.0734199 -2.05269 0
M  V30 32788 H 3096.89 2.22872 -3.16014 0
M  V30 32789 H 3098.58 2.01771 -3.52198 0
M  V30 32790 H 3099.35 -0.0812456 -4.84932 0
M  V30 32791 H 3095.23 1.08796 -4.47978 0
M  V30 32792 H 3098.77 -1.4457 -6.82455 0
M  V30 32793 H 3094.67 -0.269434 -6.44937 0
M  V30 32794 H 3095.43 -1.62412 -8.02225 0
M  V30 32795 N 3098.1 1.55557 0.252939 0
M  V30 32796 C 3099.33 1.81154 0.999533 0
M  V30 32797 C 3099.74 0.594986 1.7918 0
M  V30 32798 O 3099.1 -0.43628 1.77208 0
M  V30 32799 C 3099.15 3.04894 1.94221 0
M  V30 32800 O 3098.87 4.21853 1.18202 0
M  V30 32801 C 3100.37 3.43246 2.8053 0
M  V30 32802 H 3097.59 0.602971 0.294392 0
M  V30 32803 H 3100.13 2.02606 0.277651 0
M  V30 32804 H 3098.29 2.8551 2.61845 0
M  V30 32805 H 3098.7 4.91943 1.81913 0
M  V30 32806 H 3100.18 4.32947 3.42434 0
M  V30 32807 H 3100.65 2.63557 3.51333 0
M  V30 32808 H 3101.26 3.6496 2.18367 0
M  V30 32809 N 3099.58 -0.518341 1.48832 0
M  V30 32810 C 3100.51 -1.63072 1.67122 0
M  V30 32811 C 3101.49 -1.61958 0.519976 0
M  V30 32812 O 3102.67 -1.78971 0.753855 0
M  V30 32813 C 3099.8 -3.01624 1.72163 0
M  V30 32814 C 3098.76 -3.17601 2.86904 0
M  V30 32815 C 3098.08 -4.5733 2.77043 0
M  V30 32816 C 3099.38 -2.99266 4.28062 0
M  V30 32817 H 3101.08 -1.48021 2.6025 0
M  V30 32818 H 3098.62 -0.710672 1.25242 0
M  V30 32819 H 3100.57 -3.79327 1.83545 0
M  V30 32820 H 3099.3 -3.17725 0.756213 0
M  V30 32821 H 3097.96 -2.42318 2.75095 0
M  V30 32822 H 3097.61 -4.70283 1.78446 0
M  V30 32823 H 3097.31 -4.68963 3.54044 0
M  V30 32824 H 3098.83 -5.37117 2.9041 0
M  V30 32825 H 3100.24 -3.66752 4.40643 0
M  V30 32826 H 3098.64 -3.22384 5.06151 0
M  V30 32827 H 3099.71 -1.95567 4.43714 0
M  V30 32828 N 3101.05 -1.37615 -0.7681 0
M  V30 32829 C 3102.3 -1.33025 -1.52678 0
M  V30 32830 C 3102.63 0.0841577 -1.94318 0
M  V30 32831 O 3101.88 1.05817 -1.64624 0
M  V30 32832 C 3102.18 -2.21861 -2.802 0
M  V30 32833 C 3101.85 -3.70075 -2.57595 0
M  V30 32834 C 3100.51 -4.10466 -2.51139 0
M  V30 32835 C 3102.86 -4.63957 -2.37474 0
M  V30 32836 C 3100.19 -5.42849 -2.22556 0
M  V30 32837 C 3102.54 -5.96581 -2.10414 0
M  V30 32838 C 3101.21 -6.36073 -2.02405 0
M  V30 32839 H 3100.48 -0.486773 -0.558689 0
M  V30 32840 H 3103.12 -1.69853 -0.884441 0
M  V30 32841 H 3101.43 -1.78041 -3.49011 0
M  V30 32842 H 3103.13 -2.15621 -3.38095 0
M  V30 32843 H 3099.72 -3.38044 -2.63485 0
M  V30 32844 H 3103.9 -4.33608 -2.4145 0
M  V30 32845 H 3099.16 -5.72406 -2.14853 0
M  V30 32846 H 3103.33 -6.68878 -1.93845 0
M  V30 32847 H 3100.96 -7.38577 -1.80021 0
M  V30 32848 N 3102.53 0.994677 -1.22245 0
M  V30 32849 C 3103.48 2.10567 -0.988155 0
M  V30 32850 C 3104.47 1.69263 0.0681243 0
M  V30 32851 O 3105.68 1.79803 -0.0841627 0
M  V30 32852 H 3102.05 0.688539 -0.302355 0
M  V30 32853 H 3104.03 2.27502 -1.93095 0
M  V30 32854 C 3102.77 3.42818 -0.580618 0
M  V30 32855 H 3102.1 3.75041 -1.38507 0
M  V30 32856 H 3103.54 4.2154 -0.456078 0
M  V30 32857 C 3102 3.29341 0.709634 0
M  V30 32858 O 3102.53 3.60968 1.76253 0
M  V30 32859 N 3100.73 2.8253 0.680106 0
M  V30 32860 H 3100.28 2.56991 -0.177022 0
M  V30 32861 H 3100.24 2.73894 1.54367 0
M  V30 32862 N 3104.01 1.03186 1.19123 0
M  V30 32863 C 3104.96 0.60882 2.24491 0
M  V30 32864 C 3105.95 -0.360036 1.6553 0
M  V30 32865 O 3107.16 -0.228289 1.78546 0
M  V30 32866 H 3103.53 0.178628 0.730476 0
M  V30 32867 H 3105.5 1.50807 2.57487 0
M  V30 32868 C 3104.25 -0.0214515 3.47693 0
M  V30 32869 H 3103.58 0.715093 3.93353 0
M  V30 32870 H 3105.02 -0.280354 4.23072 0
M  V30 32871 C 3103.47 -1.26891 3.1209 0
M  V30 32872 O 3104 -2.36065 3.25017 0
M  V30 32873 N 3102.21 -1.15881 2.66496 0
M  V30 32874 H 3101.76 -0.270418 2.56177 0
M  V30 32875 H 3101.72 -1.9944 2.43045 0
M  V30 32876 N 3105.49 -1.35184 0.810125 0
M  V30 32877 C 3106.74 -1.98274 0.391378 0
M  V30 32878 C 3107.06 -1.64578 -1.04589 0
M  V30 32879 O 3106.33 -0.930041 -1.72415 0
M  V30 32880 H 3104.91 -0.733432 0.141728 0
M  V30 32881 H 3107.57 -1.65038 1.03675 0
M  V30 32882 H 3106.67 -3.08069 0.499964 0
M  V30 32883 N 3106.97 -0.56394 -1.47165 0
M  V30 32884 C 3108.19 -0.047465 -2.06846 0
M  V30 32885 C 3108.61 1.24925 -1.4156 0
M  V30 32886 O 3107.97 1.751 -0.514407 0
M  V30 32887 C 3108.02 0.144767 -3.6121 0
M  V30 32888 O 3107.74 -1.10061 -4.2405 0
M  V30 32889 C 3109.24 0.697753 -4.37774 0
M  V30 32890 H 3106.46 -0.0489014 -0.669216 0
M  V30 32891 H 3109 -0.779269 -1.8907 0
M  V30 32892 H 3107.16 0.826723 -3.78476 0
M  V30 32893 H 3107.57 -0.902571 -5.16676 0
M  V30 32894 H 3109.05 0.78152 -5.4644 0
M  V30 32895 H 3109.52 1.71056 -4.0452 0
M  V30 32896 H 3110.13 0.0512769 -4.25269 0
M  V30 32897 N 3108.44 1.54704 -0.300735 0
M  V30 32898 C 3109.37 2.2647 0.568635 0
M  V30 32899 C 3110.36 1.26413 1.13814 0
M  V30 32900 O 3111.54 1.55185 1.16753 0
M  V30 32901 C 3108.67 3.00527 1.74071 0
M  V30 32902 C 3107.62 4.07729 1.30158 0
M  V30 32903 C 3106.95 4.69499 2.5588 0
M  V30 32904 C 3108.25 5.20502 0.433015 0
M  V30 32905 H 3109.94 2.99385 -0.0299377 0
M  V30 32906 H 3107.49 1.43991 -0.0158388 0
M  V30 32907 H 3109.44 3.49453 2.355 0
M  V30 32908 H 3108.17 2.2519 2.36552 0
M  V30 32909 H 3106.83 3.59652 0.71035 0
M  V30 32910 H 3106.47 3.90802 3.16674 0
M  V30 32911 H 3106.17 5.41899 2.27198 0
M  V30 32912 H 3107.7 5.21189 3.18111 0
M  V30 32913 H 3109.11 5.65324 0.95297 0
M  V30 32914 H 3107.51 5.9962 0.23998 0
M  V30 32915 H 3108.58 4.81862 -0.54195 0
M  V30 32916 N 3109.92 0.0284543 1.57574 0
M  V30 32917 C 3111.15 -0.659583 1.95788 0
M  V30 32918 C 3111.56 -1.66233 0.903505 0
M  V30 32919 O 3110.9 -1.83286 -0.123258 0
M  V30 32920 C 3110.97 -1.42292 3.30141 0
M  V30 32921 C 3110.63 -0.578578 4.53323 0
M  V30 32922 C 3111.63 0.145843 5.19695 0
M  V30 32923 C 3109.31 -0.516176 4.99641 0
M  V30 32924 C 3111.31 0.921346 6.30706 0
M  V30 32925 C 3108.99 0.263032 6.10534 0
M  V30 32926 C 3109.99 0.980501 6.75925 0
M  V30 32927 O 3109.68 1.74694 7.84689 0
M  V30 32928 H 3109.41 -0.18678 0.649684 0
M  V30 32929 H 3111.96 0.0843048 2.05227 0
M  V30 32930 H 3110.19 -2.21193 3.17192 0
M  V30 32931 H 3111.88 -1.999 3.53263 0
M  V30 32932 H 3112.65 0.106962 4.84882 0
M  V30 32933 H 3108.53 -1.06419 4.48549 0
M  V30 32934 H 3112.07 1.48188 6.81679 0
M  V30 32935 H 3107.97 0.303633 6.44785 0
M  V30 32936 H 3108.74 1.66664 8.01352 0
M  V30 32937 N 3111.4 -1.55689 -0.244686 0
M  V30 32938 C 3112.65 -1.77624 -0.972414 0
M  V30 32939 C 3112.98 -0.593169 -1.85234 0
M  V30 32940 O 3112.23 0.42343 -1.91064 0
M  V30 32941 C 3112.53 -3.05086 -1.86164 0
M  V30 32942 C 3112.2 -4.36332 -1.13689 0
M  V30 32943 C 3110.86 -4.71997 -0.936596 0
M  V30 32944 C 3113.21 -5.17459 -0.62336 0
M  V30 32945 C 3110.54 -5.86322 -0.210509 0
M  V30 32946 C 3112.89 -6.32537 0.0892698 0
M  V30 32947 C 3111.55 -6.66821 0.301021 0
M  V30 32948 H 3110.82 -0.649973 -0.355832 0
M  V30 32949 H 3113.47 -1.8996 -0.242339 0
M  V30 32950 H 3111.78 -2.87771 -2.65885 0
M  V30 32951 H 3113.47 -3.19257 -2.42644 0
M  V30 32952 H 3110.06 -4.08315 -1.30294 0
M  V30 32953 H 3114.25 -4.90359 -0.765639 0
M  V30 32954 H 3109.5 -6.11389 -0.0359987 0
M  V30 32955 H 3113.68 -6.9464 0.494807 0
M  V30 32956 H 3111.3 -7.55256 0.865598 0
M  V30 32957 N 3112.88 0.510441 -1.49105 0
M  V30 32958 C 3113.83 1.63389 -1.6555 0
M  V30 32959 C 3114.82 1.61171 -0.52155 0
M  V30 32960 O 3116.03 1.65793 -0.700894 0
M  V30 32961 H 3112.4 0.541455 -0.521853 0
M  V30 32962 H 3114.37 1.46669 -2.59867 0
M  V30 32963 C 3113.12 3.01574 -1.73056 0
M  V30 32964 H 3112.44 3.03983 -2.59682 0
M  V30 32965 H 3113.88 3.79744 -1.886 0
M  V30 32966 C 3112.34 3.33558 -0.473339 0
M  V30 32967 O 3112.87 3.99651 0.405169 0
M  V30 32968 N 3111.08 2.88614 -0.339125 0
M  V30 32969 H 3110.63 2.35005 -1.05501 0
M  V30 32970 H 3110.58 3.10382 0.501006 0
M  V30 32971 N 3114.36 1.38021 0.760791 0
M  V30 32972 C 3115.3 1.3467 1.87437 0
M  V30 32973 C 3116.27 0.210415 1.64762 0
M  V30 32974 O 3117.46 0.401512 1.86528 0
M  V30 32975 C 3114.6 1.17043 3.24646 0
M  V30 32976 C 3113.71 2.39996 3.59201 0
M  V30 32977 C 3112.85 2.15156 4.85676 0
M  V30 32978 C 3111.89 3.33919 5.12996 0
M  V30 32979 N 3111.02 3.0856 6.30663 0
M  V30 32980 H 3115.86 2.29874 1.89636 0
M  V30 32981 H 3113.4 1.14217 0.926984 0
M  V30 32982 H 3115.36 1.04842 4.03812 0
M  V30 32983 H 3113.99 0.254814 3.21793 0
M  V30 32984 H 3113.04 2.62898 2.74935 0
M  V30 32985 H 3114.35 3.28534 3.75323 0
M  V30 32986 H 3113.51 2.00049 5.7277 0
M  V30 32987 H 3112.24 1.23974 4.7168 0
M  V30 32988 H 3111.25 3.49553 4.24373 0
M  V30 32989 H 3112.47 4.25968 5.28894 0
M  V30 32990 H 3110.42 2.20017 6.18004 0
M  V30 32991 H 3110.34 3.90644 6.47251 0
M  V30 32992 H 3111.61 2.97093 7.20664 0
M  V30 32993 N 3115.83 -0.98818 1.22771 0
M  V30 32994 C 3117.08 -1.73095 1.05668 0
M  V30 32995 C 3117.41 -1.89896 -0.406581 0
M  V30 32996 O 3116.69 -1.44557 -1.30129 0
M  V30 32997 C 3116.97 -3.13379 1.77386 0
M  V30 32998 C 3116.82 -3.04197 3.31337 0
M  V30 32999 C 3118.14 -4.12646 1.53006 0
M  V30 33000 H 3115.26 -0.628281 0.385269 0
M  V30 33001 H 3117.9 -1.15094 1.51173 0
M  V30 33002 H 3116.05 -3.62896 1.38703 0
M  V30 33003 H 3117.73 -2.62263 3.79494 0
M  V30 33004 H 3115.97 -2.40887 3.60771 0
M  V30 33005 H 3116.64 -4.03487 3.767 0
M  V30 33006 H 3119.12 -3.71905 1.86617 0
M  V30 33007 H 3117.99 -5.0891 2.05675 0
M  V30 33008 H 3118.25 -4.39662 0.463693 0
M  V30 33009 N 3117.31 -1.03816 -1.18575 0
M  V30 33010 C 3118.56 -0.738607 -1.8812 0
M  V30 33011 C 3118.88 0.735712 -1.80589 0
M  V30 33012 O 3118.15 1.53071 -1.22254 0
M  V30 33013 H 3116.73 -0.27022 -0.696412 0
M  V30 33014 H 3119.39 -1.31438 -1.4391 0
M  V30 33015 H 3118.49 -1.04121 -2.9422 0
M  V30 33016 N 3118.79 1.34753 -0.817283 0
M  V30 33017 C 3120.04 1.9875 -0.403279 0
M  V30 33018 C 3120.37 1.6466 1.0296 0
M  V30 33019 O 3119.64 0.915344 1.71615 0
M  V30 33020 C 3119.93 3.55079 -0.59925 0
M  V30 33021 C 3119.78 3.98931 -2.07784 0
M  V30 33022 C 3121.1 4.40089 -0.0316429 0
M  V30 33023 H 3118.22 0.721987 -0.148001 0
M  V30 33024 H 3120.86 1.59736 -1.0288 0
M  V30 33025 H 3119.01 3.88443 -0.0667799 0
M  V30 33026 H 3120.68 3.75927 -2.67352 0
M  V30 33027 H 3118.93 3.49448 -2.57037 0
M  V30 33028 H 3119.6 5.07737 -2.1658 0
M  V30 33029 H 3122.07 4.13246 -0.486512 0
M  V30 33030 H 3120.95 5.48541 -0.198604 0
M  V30 33031 H 3121.21 4.29132 1.06295 0
M  V30 33032 N 3120.27 0.571737 1.46864 0
M  V30 33033 C 3121.23 -0.157459 2.28658 0
M  V30 33034 C 3122.23 -0.829148 1.37774 0
M  V30 33035 O 3123.42 -0.682782 1.60261 0
M  V30 33036 C 3120.55 -1.23196 3.17861 0
M  V30 33037 H 3121.75 0.561222 2.94602 0
M  V30 33038 H 3119.3 0.329256 1.52793 0
M  V30 33039 H 3120.04 -1.98258 2.5664 0
M  V30 33040 H 3119.82 -0.754964 3.84763 0
M  V30 33041 H 3121.31 -1.74371 3.79453 0
M  V30 33042 N 3121.75 -1.54542 0.308935 0
M  V30 33043 C 3122.66 -2.27497 -0.572899 0
M  V30 33044 C 3123.67 -1.31307 -1.14169 0
M  V30 33045 O 3124.85 -1.64301 -1.16478 0
M  V30 33046 C 3121.91 -3.00753 -1.72478 0
M  V30 33047 C 3120.98 -4.12498 -1.18927 0
M  V30 33048 C 3120.21 -4.82251 -2.28626 0
M  V30 33049 O 3120.43 -4.51416 -3.48683 0
M  V30 33050 O 3119.37 -5.69482 -1.94869 0
M  V30 33051 H 3123.19 -3.03694 0.0191411 0
M  V30 33052 H 3120.78 -1.49211 0.0751205 0
M  V30 33053 H 3122.66 -3.46675 -2.39571 0
M  V30 33054 H 3121.33 -2.27444 -2.30328 0
M  V30 33055 H 3120.24 -3.70958 -0.483839 0
M  V30 33056 H 3121.57 -4.87808 -0.6561 0
M  V30 33057 N 3123.23 -0.0368104 -1.57557 0
M  V30 33058 C 3124.14 0.957979 -2.14149 0
M  V30 33059 C 3125.15 1.35171 -1.09566 0
M  V30 33060 O 3126.33 1.43156 -1.41663 0
M  V30 33061 C 3123.39 2.21926 -2.66364 0
M  V30 33062 C 3122.45 1.88523 -3.85691 0
M  V30 33063 C 3121.69 3.08638 -4.35406 0
M  V30 33064 O 3121.91 4.21547 -3.84258 0
M  V30 33065 O 3120.84 2.90488 -5.27163 0
M  V30 33066 H 3124.67 0.506744 -2.99442 0
M  V30 33067 H 3122.25 0.184249 -1.4826 0
M  V30 33068 H 3124.14 2.95955 -2.99981 0
M  V30 33069 H 3122.81 2.66215 -1.8415 0
M  V30 33070 H 3121.72 1.11855 -3.56986 0
M  V30 33071 H 3123.05 1.49044 -4.69091 0
M  V30 33072 N 3124.7 1.55817 0.236426 0
M  V30 33073 C 3125.95 1.77786 0.961079 0
M  V30 33074 C 3126.27 0.60268 1.85453 0
M  V30 33075 O 3125.54 -0.381104 1.92157 0
M  V30 33076 H 3124.12 0.655703 0.357859 0
M  V30 33077 H 3126.78 1.93266 0.251854 0
M  V30 33078 H 3125.88 2.69348 1.57665 0
M  V30 33079 N 3126.18 -0.502526 1.49373 0
M  V30 33080 C 3127.46 -1.26387 1.49284 0
M  V30 33081 C 3127.84 -2.09954 0.219711 0
M  V30 33082 O 3127.19 -2.14114 -0.797954 0
M  V30 33083 C 3127.4 -2.12189 2.77086 0
M  V30 33084 C 3128.74 -2.71427 3.26515 0
M  V30 33085 O 3129.77 -2.22457 2.78193 0
M  V30 33086 O 3128.63 -3.60571 4.10671 0
M  V30 33087 H 3125.72 -0.57185 0.597425 0
M  V30 33088 H 3128.27 -0.516922 1.61635 0
M  V30 33089 H 3127.04 -1.50405 3.6124 0
M  V30 33090 H 3126.66 -2.94079 2.67588 0
M  V30 33091 N 3127.66 -1.38422 -0.75346 0
M  V30 33092 C 3128.89 -1.37671 -1.54046 0
M  V30 33093 C 3129.3 0.0353324 -1.89167 0
M  V30 33094 O 3128.64 1.01236 -1.53287 0
M  V30 33095 C 3128.7 -2.16798 -2.86773 0
M  V30 33096 C 3128.37 -3.65608 -2.74189 0
M  V30 33097 C 3129.36 -4.59098 -2.43977 0
M  V30 33098 C 3127.05 -4.08965 -2.91638 0
M  V30 33099 C 3129.04 -5.93926 -2.31368 0
M  V30 33100 C 3126.73 -5.43873 -2.78649 0
M  V30 33101 C 3127.73 -6.36167 -2.48557 0
M  V30 33102 O 3127.42 -7.68593 -2.35626 0
M  V30 33103 H 3127.15 -0.472682 -0.483268 0
M  V30 33104 H 3129.7 -1.82616 -0.940235 0
M  V30 33105 H 3127.93 -1.66571 -3.48986 0
M  V30 33106 H 3129.62 -2.08453 -3.48285 0
M  V30 33107 H 3130.39 -4.26906 -2.30165 0
M  V30 33108 H 3126.27 -3.37474 -3.14057 0
M  V30 33109 H 3129.81 -6.65931 -2.07802 0
M  V30 33110 H 3125.71 -5.75662 -2.92034 0
M  V30 33111 H 3126.47 -7.79117 -2.50838 0
M  V30 33112 N 3129.14 0.981655 -1.23294 0
M  V30 33113 C 3130.37 1.75803 -1.09091 0
M  V30 33114 C 3130.78 1.8538 0.357714 0
M  V30 33115 O 3130.14 1.33207 1.24748 0
M  V30 33116 C 3130.19 3.18557 -1.7089 0
M  V30 33117 O 3129.91 3.09479 -3.10088 0
M  V30 33118 C 3131.41 4.12595 -1.62113 0
M  V30 33119 H 3128.63 0.551754 -0.381849 0
M  V30 33120 H 3131.17 1.23339 -1.63118 0
M  V30 33121 H 3129.33 3.68052 -1.20899 0
M  V30 33122 H 3129.74 3.99336 -3.40046 0
M  V30 33123 H 3131.22 5.1047 -2.10058 0
M  V30 33124 H 3131.69 4.35357 -0.579719 0
M  V30 33125 H 3132.3 3.69003 -2.11464 0
M  V30 33126 N 3130.62 1.04444 1.18022 0
M  V30 33127 C 3131.86 0.758991 1.89786 0
M  V30 33128 C 3132.22 -0.700675 1.78758 0
M  V30 33129 O 3133.42 -1.0999 2.45267 0
M  V30 33130 C 3131.69 1.21691 3.36045 0
M  V30 33131 S 3133.25 1.05768 4.25862 0
M  V30 33132 H 3130.07 0.275853 0.655306 0
M  V30 33133 H 3132.67 1.33751 1.42586 0
M  V30 33134 H 3131.37 2.27456 3.41602 0
M  V30 33135 H 3130.91 0.632338 3.88285 0
M  V30 33136 H 3132.92 -0.0226418 4.96195 0
M  V30 33137 N 3132.09 -1.34317 0.824418 0
M  V30 33138 C 3133.32 -2.02169 0.425612 0
M  V30 33139 C 3133.73 -1.62229 -0.973567 0
M  V30 33140 O 3133.07 -0.824228 -1.64171 0
M  V30 33141 C 3133.14 -3.56673 0.449965 0
M  V30 33142 C 3132.8 -4.19941 1.80274 0
M  V30 33143 C 3133.8 -4.40352 2.76381 0
M  V30 33144 C 3131.48 -4.5668 2.09163 0
M  V30 33145 C 3133.48 -4.96628 3.99549 0
M  V30 33146 C 3131.16 -5.12666 3.3259 0
M  V30 33147 C 3132.16 -5.32585 4.27601 0
M  V30 33148 O 3131.85 -5.87386 5.48847 0
M  V30 33149 H 3131.58 -0.654566 0.168878 0
M  V30 33150 H 3134.14 -1.72538 1.11444 0
M  V30 33151 H 3132.37 -3.85569 -0.295563 0
M  V30 33152 H 3134.05 -4.05838 0.0710016 0
M  V30 33153 H 3134.82 -4.12331 2.55359 0
M  V30 33154 H 3130.7 -4.40479 1.36012 0
M  V30 33155 H 3134.24 -5.12091 4.73718 0
M  V30 33156 H 3130.14 -5.40116 3.53476 0
M  V30 33157 H 3130.91 -6.05818 5.50388 0
M  V30 33158 N 3133.57 -0.579517 -1.46558 0
M  V30 33159 C 3134.53 0.145331 -2.28739 0
M  V30 33160 C 3135.53 0.82183 -1.38212 0
M  V30 33161 O 3136.72 0.674274 -1.60621 0
M  V30 33162 C 3133.86 1.21509 -3.1851 0
M  V30 33163 H 3135.05 -0.576838 -2.943 0
M  V30 33164 H 3132.6 -0.337354 -1.52616 0
M  V30 33165 H 3133.34 1.96894 -2.57688 0
M  V30 33166 H 3133.12 0.734548 -3.85158 0
M  V30 33167 H 3134.61 1.72356 -3.80372 0
M  V30 33168 N 3135.05 1.54376 -0.317127 0
M  V30 33169 C 3135.98 2.21591 0.585671 0
M  V30 33170 C 3137 1.2138 1.08493 0
M  V30 33171 O 3138.18 1.47885 0.999612 0
M  V30 33172 C 3135.28 2.8616 1.81565 0
M  V30 33173 C 3134.46 4.12449 1.45617 0
M  V30 33174 C 3133.52 4.60671 2.543 0
M  V30 33175 O 3132.54 5.25502 2.18714 0
M  V30 33176 N 3133.74 4.34352 3.85121 0
M  V30 33177 H 3136.51 2.99698 0.010172 0
M  V30 33178 H 3134.07 1.61293 -0.14004 0
M  V30 33179 H 3136.06 3.15346 2.53652 0
M  V30 33180 H 3134.63 2.11797 2.29915 0
M  V30 33181 H 3133.85 3.90098 0.567226 0
M  V30 33182 H 3135.14 4.9465 1.1916 0
M  V30 33183 H 3134.54 3.82447 4.16834 0
M  V30 33184 H 3133.1 4.68209 4.53457 0
M  V30 33185 N 3136.53 0.0451655 1.57535 0
M  V30 33186 C 3137.48 -0.949168 2.12352 0
M  V30 33187 C 3138.47 -1.32626 1.05389 0
M  V30 33188 O 3139.68 -1.30661 1.23805 0
M  V30 33189 H 3136.05 -0.323934 0.678654 0
M  V30 33190 H 3138.02 -0.461666 2.94807 0
M  V30 33191 C 3136.77 -2.21683 2.67866 0
M  V30 33192 H 3136.09 -1.93544 3.49829 0
M  V30 33193 H 3137.53 -2.8943 3.09849 0
M  V30 33194 C 3135.99 -2.95745 1.61358 0
M  V30 33195 O 3136.52 -3.8846 1.02282 0
M  V30 33196 N 3134.73 -2.58367 1.33021 0
M  V30 33197 H 3134.28 -1.83048 1.81249 0
M  V30 33198 H 3134.23 -3.08229 0.619866 0
M  V30 33199 N 3138.01 -1.5594 -0.228159 0
M  V30 33200 C 3139.23 -1.82722 -0.970586 0
M  V30 33201 C 3139.65 -0.623417 -1.7821 0
M  V30 33202 O 3139.01 0.408032 -1.7788 0
M  V30 33203 C 3139.06 -3.07945 -1.89346 0
M  V30 33204 O 3138.78 -4.2368 -1.11476 0
M  V30 33205 C 3140.28 -3.47666 -2.75033 0
M  V30 33206 H 3137.5 -0.607579 -0.284762 0
M  V30 33207 H 3140.04 -2.03022 -0.245383 0
M  V30 33208 H 3138.2 -2.89639 -2.5727 0
M  V30 33209 H 3138.61 -4.94775 -1.74064 0
M  V30 33210 H 3140.09 -4.3834 -3.35503 0
M  V30 33211 H 3140.56 -2.69113 -3.47095 0
M  V30 33212 H 3141.17 -3.68388 -2.12533 0
M  V30 33213 N 3139.48 0.494597 -1.49638 0
M  V30 33214 C 3140.41 1.60393 -1.69695 0
M  V30 33215 C 3141.4 1.6111 -0.545676 0
M  V30 33216 O 3142.58 1.77749 -0.782233 0
M  V30 33217 C 3139.71 2.98847 -1.7694 0
M  V30 33218 C 3138.66 3.12996 -2.9192 0
M  V30 33219 C 3137.99 4.52865 -2.84284 0
M  V30 33220 C 3139.29 2.92418 -4.32769 0
M  V30 33221 H 3140.98 1.43862 -2.62572 0
M  V30 33222 H 3138.53 0.690657 -1.26356 0
M  V30 33223 H 3140.48 3.76359 -1.89557 0
M  V30 33224 H 3139.21 3.16481 -0.806664 0
M  V30 33225 H 3137.87 2.37911 -2.78916 0
M  V30 33226 H 3137.51 4.67384 -1.85905 0
M  V30 33227 H 3137.21 4.63272 -3.6146 0
M  V30 33228 H 3138.74 5.32429 -2.98918 0
M  V30 33229 H 3140.15 3.59695 -4.46422 0
M  V30 33230 H 3138.55 3.14291 -5.11215 0
M  V30 33231 H 3139.62 1.88483 -4.46769 0
M  V30 33232 N 3140.96 1.3882 0.746109 0
M  V30 33233 C 3142.21 1.3517 1.50245 0
M  V30 33234 C 3142.53 -0.0553188 1.94922 0
M  V30 33235 O 3141.8 -1.00446 1.68189 0
M  V30 33236 H 3140.38 0.497387 0.557328 0
M  V30 33237 H 3143.04 1.73575 0.886442 0
M  V30 33238 H 3142.14 2.00733 2.38983 0
M  V30 33239 N 3142.44 -0.975103 1.23812 0
M  V30 33240 C 3143.39 -2.06841 1.02398 0
M  V30 33241 C 3144.36 -1.6599 -0.0603078 0
M  V30 33242 O 3145.54 -1.90574 0.0928522 0
M  V30 33243 C 3142.68 -3.39357 0.626941 0
M  V30 33244 C 3141.8 -3.93447 1.78392 0
M  V30 33245 C 3140.93 -5.14199 1.33316 0
M  V30 33246 C 3139.97 -5.60467 2.46055 0
M  V30 33247 N 3139.11 -6.72444 2.019 0
M  V30 33248 H 3143.95 -2.24493 1.95977 0
M  V30 33249 H 3141.48 -1.10038 0.976225 0
M  V30 33250 H 3143.44 -4.15486 0.377815 0
M  V30 33251 H 3142.07 -3.21653 -0.27185 0
M  V30 33252 H 3141.12 -3.14026 2.14691 0
M  V30 33253 H 3142.44 -4.2375 2.63129 0
M  V30 33254 H 3141.59 -5.97677 1.04247 0
M  V30 33255 H 3140.33 -4.85561 0.456228 0
M  V30 33256 H 3139.33 -4.75567 2.75892 0
M  V30 33257 H 3140.56 -5.91121 3.34294 0
M  V30 33258 H 3138.5 -6.45555 1.16594 0
M  V30 33259 H 3138.42 -7.02159 2.80194 0
M  V30 33260 H 3139.69 -7.59383 1.7595 0
M  V30 33261 N 3143.92 -1.05068 -1.17467 0
M  V30 33262 C 3145.2 -0.673905 -1.83624 0
M  V30 33263 C 3145.58 0.845837 -1.93414 0
M  V30 33264 O 3144.92 1.75129 -1.46773 0
M  V30 33265 C 3145.13 -1.36145 -3.2135 0
M  V30 33266 C 3146.48 -1.4987 -3.97271 0
M  V30 33267 O 3147.51 -1.32036 -3.30825 0
M  V30 33268 O 3146.36 -1.79022 -5.16346 0
M  V30 33269 H 3143.46 -0.237069 -0.792292 0
M  V30 33270 H 3146 -1.15019 -1.24774 0
M  V30 33271 H 3144.78 -2.39832 -3.09186 0
M  V30 33272 H 3144.4 -0.874432 -3.87865 0
M  V30 33273 N 3145.4 1.33878 -0.831529 0
M  V30 33274 C 3146.31 2.33135 -0.261729 0
M  V30 33275 C 3147.32 1.63017 0.608401 0
M  V30 33276 O 3148.5 1.94724 0.514263 0
M  V30 33277 C 3145.56 3.42149 0.559897 0
M  V30 33278 C 3144.62 4.28002 -0.333644 0
M  V30 33279 C 3143.86 5.31809 0.448863 0
M  V30 33280 O 3144.08 5.45058 1.68131 0
M  V30 33281 O 3143.01 6.0165 -0.173302 0
M  V30 33282 H 3146.84 2.83715 -1.08348 0
M  V30 33283 H 3144.43 1.37089 -0.593873 0
M  V30 33284 H 3146.31 4.08693 1.02705 0
M  V30 33285 H 3144.98 2.93798 1.35883 0
M  V30 33286 H 3143.89 3.64351 -0.84848 0
M  V30 33287 H 3145.22 4.79816 -1.09715 0
M  V30 33288 N 3146.87 0.587281 1.46249 0
M  V30 33289 C 3147.81 -0.191797 2.27393 0
M  V30 33290 C 3148.79 -0.892647 1.35907 0
M  V30 33291 O 3149.97 -0.905614 1.65321 0
M  V30 33292 C 3147.1 -1.27562 3.13761 0
M  V30 33293 C 3146.14 -0.680112 4.21042 0
M  V30 33294 S 3146.98 0.496513 5.33193 0
M  V30 33295 C 3148.13 -0.588397 6.23128 0
M  V30 33296 H 3148.36 0.496687 2.93122 0
M  V30 33297 H 3145.9 0.374287 1.49795 0
M  V30 33298 H 3147.86 -1.89614 3.64084 0
M  V30 33299 H 3146.52 -1.93607 2.47336 0
M  V30 33300 H 3145.71 -1.49494 4.81318 0
M  V30 33301 H 3145.31 -0.135161 3.73756 0
M  V30 33302 H 3147.6 -1.47287 6.61296 0
M  V30 33303 H 3148.55 -0.0222848 7.08096 0
M  V30 33304 H 3148.95 -0.894598 5.57366 0
M  V30 33305 N 3148.35 -1.54206 0.325309 0
M  V30 33306 C 3149.3 -2.24398 -0.53985 0
M  V30 33307 C 3150.27 -1.23542 -1.11026 0
M  V30 33308 O 3151.45 -1.52228 -1.15027 0
M  V30 33309 C 3148.59 -3.00662 -1.694 0
M  V30 33310 C 3147.71 -4.16339 -1.15266 0
M  V30 33311 C 3146.84 -4.8013 -2.27263 0
M  V30 33312 C 3145.88 -5.87907 -1.70387 0
M  V30 33313 N 3145.02 -6.45553 -2.76054 0
M  V30 33314 H 3149.86 -2.97928 0.0652842 0
M  V30 33315 H 3147.4 -1.47034 0.0439899 0
M  V30 33316 H 3149.35 -3.43126 -2.37319 0
M  V30 33317 H 3147.98 -2.29462 -2.27039 0
M  V30 33318 H 3147.04 -3.78645 -0.364967 0
M  V30 33319 H 3148.35 -4.93913 -0.69649 0
M  V30 33320 H 3147.5 -5.25572 -3.03083 0
M  V30 33321 H 3146.24 -4.0194 -2.76217 0
M  V30 33322 H 3145.25 -5.41866 -0.930657 0
M  V30 33323 H 3146.47 -6.67995 -1.22308 0
M  V30 33324 H 3144.42 -5.70235 -3.24296 0
M  V30 33325 H 3144.33 -7.18546 -2.35005 0
M  V30 33326 H 3145.6 -6.9565 -3.51697 0
M  V30 33327 N 3149.83 -0.0535194 -1.57509 0
M  V30 33328 C 3151.08 0.620657 -1.93069 0
M  V30 33329 C 3151.41 1.70356 -0.932343 0
M  V30 33330 O 3150.69 1.94456 0.0413051 0
M  V30 33331 C 3150.97 1.21457 -3.38999 0
M  V30 33332 C 3150.82 0.139571 -4.49583 0
M  V30 33333 C 3152.14 2.12552 -3.8537 0
M  V30 33334 H 3149.26 0.22415 -0.702087 0
M  V30 33335 H 3151.9 -0.115763 -1.89647 0
M  V30 33336 H 3150.05 1.8422 -3.42046 0
M  V30 33337 H 3151.72 -0.492492 -4.58664 0
M  V30 33338 H 3149.97 -0.532081 -4.30524 0
M  V30 33339 H 3150.64 0.595191 -5.48782 0
M  V30 33340 H 3153.11 1.59748 -3.84213 0
M  V30 33341 H 3151.99 2.5105 -4.88124 0
M  V30 33342 H 3152.25 3.02655 -3.22261 0
M  V30 33343 N 3151.31 1.56059 0.219886 0
M  V30 33344 C 3152.26 1.88948 1.27603 0
M  V30 33345 C 3153.24 0.752716 1.42208 0
M  V30 33346 O 3154.44 1.01516 1.44995 0
M  V30 33347 C 3151.56 2.21112 2.62611 0
M  V30 33348 C 3150.65 3.41185 2.519 0
M  V30 33349 N 3151.04 4.59759 2.10843 0
M  V30 33350 C 3149.34 3.44832 2.82855 0
M  V30 33351 C 3150.04 5.41918 2.11424 0
M  V30 33352 N 3149.02 4.81673 2.51976 0
M  V30 33353 H 3152.82 2.78139 0.949521 0
M  V30 33354 H 3150.33 1.56647 0.42844 0
M  V30 33355 H 3152.33 2.4285 3.38865 0
M  V30 33356 H 3150.99 1.33235 2.96106 0
M  V30 33357 H 3152 4.84887 1.81947 0
M  V30 33358 H 3148.68 2.67303 3.20711 0
M  V30 33359 H 3150.07 6.4684 1.81792 0
M  V30 33360 N 3152.79 -0.486655 1.49898 0
M  V30 33361 C 3153.72 -1.59491 1.70543 0
M  V30 33362 C 3154.7 -1.60818 0.554213 0
M  V30 33363 O 3155.88 -1.77332 0.791648 0
M  V30 33364 C 3153.01 -2.97905 1.78522 0
M  V30 33365 C 3151.97 -3.11444 2.93576 0
M  V30 33366 C 3151.29 -4.51351 2.86682 0
M  V30 33367 C 3152.59 -2.90119 4.34313 0
M  V30 33368 H 3154.29 -1.42467 2.63331 0
M  V30 33369 H 3151.83 -0.683947 1.26721 0
M  V30 33370 H 3153.79 -3.75348 1.9155 0
M  V30 33371 H 3152.51 -3.16049 0.823437 0
M  V30 33372 H 3151.17 -2.36429 2.80173 0
M  V30 33373 H 3150.82 -4.66392 1.88381 0
M  V30 33374 H 3150.52 -4.61348 3.63912 0
M  V30 33375 H 3152.04 -5.30836 3.01737 0
M  V30 33376 H 3153.46 -3.57323 4.48323 0
M  V30 33377 H 3151.85 -3.11576 5.12875 0
M  V30 33378 H 3152.92 -1.86111 4.47762 0
M  V30 33379 N 3154.27 -1.39214 -0.738737 0
M  V30 33380 C 3155.49 -1.395 -1.52799 0
M  V30 33381 C 3155.91 0.0114585 -1.88797 0
M  V30 33382 O 3155.27 0.98186 -1.53837 0
M  V30 33383 C 3155.32 -2.26445 -2.81789 0
M  V30 33384 O 3155.04 -3.61613 -2.47321 0
M  V30 33385 C 3156.54 -2.35073 -3.7584 0
M  V30 33386 H 3153.76 -0.476614 -0.472313 0
M  V30 33387 H 3156.3 -1.82982 -0.913121 0
M  V30 33388 H 3154.46 -1.86386 -3.39616 0
M  V30 33389 H 3154.87 -4.07551 -3.30155 0
M  V30 33390 H 3156.35 -3.00165 -4.63255 0
M  V30 33391 H 3156.82 -1.36877 -4.17326 0
M  V30 33392 H 3157.43 -2.75586 -3.23932 0
M  V30 33393 N 3155.74 0.968523 -1.24328 0
M  V30 33394 C 3156.99 1.71392 -1.08409 0
M  V30 33395 C 3157.32 1.90519 0.376319 0
M  V30 33396 O 3156.6 1.46609 1.27813 0
M  V30 33397 C 3156.88 3.10517 -1.82349 0
M  V30 33398 C 3156.73 2.98887 -3.36135 0
M  V30 33399 C 3158.05 4.1016 -1.59552 0
M  V30 33400 H 3155.17 0.622072 -0.395216 0
M  V30 33401 H 3157.81 1.12675 -1.52985 0
M  V30 33402 H 3155.96 3.60644 -1.44459 0
M  V30 33403 H 3157.64 2.56193 -3.83618 0
M  V30 33404 H 3155.88 2.35117 -3.64558 0
M  V30 33405 H 3156.55 3.97443 -3.83071 0
M  V30 33406 H 3159.03 3.68889 -1.92511 0
M  V30 33407 H 3157.9 5.05573 -2.13745 0
M  V30 33408 H 3158.16 4.38868 -0.53358 0
M  V30 33409 N 3157.22 1.0569 1.16908 0
M  V30 33410 C 3158.47 0.765055 1.86627 0
M  V30 33411 C 3158.78 -0.710886 1.82224 0
M  V30 33412 O 3159.99 -1.11687 2.47464 0
M  V30 33413 C 3158.45 1.31836 3.34884 0
M  V30 33414 C 3158.05 2.82411 3.47776 0
M  V30 33415 C 3159.8 1.10379 4.09899 0
M  V30 33416 C 3157.7 3.31016 4.90084 0
M  V30 33417 H 3156.63 0.282503 0.699077 0
M  V30 33418 H 3159.29 1.27483 1.31986 0
M  V30 33419 H 3157.67 0.736381 3.89093 0
M  V30 33420 H 3158.84 3.46507 3.03759 0
M  V30 33421 H 3157.16 3.02466 2.86188 0
M  V30 33422 H 3159.75 1.44189 5.14892 0
M  V30 33423 H 3160.1 0.0418103 4.16279 0
M  V30 33424 H 3160.63 1.65123 3.6191 0
M  V30 33425 H 3157.37 4.36666 4.8888 0
M  V30 33426 H 3156.89 2.71664 5.34751 0
M  V30 33427 H 3158.57 3.25987 5.58875 0
M  V30 33428 N 3158.7 -1.33435 0.838617 0
M  V30 33429 C 3159.93 -2.01999 0.44768 0
M  V30 33430 C 3160.34 -1.63098 -0.951024 0
M  V30 33431 O 3159.7 -0.844197 -1.61801 0
M  V30 33432 C 3159.75 -3.57161 0.558441 0
M  V30 33433 O 3159.47 -3.94657 1.90203 0
M  V30 33434 C 3160.97 -4.42995 0.164426 0
M  V30 33435 H 3158.19 -0.647029 0.177748 0
M  V30 33436 H 3160.74 -1.7037 1.13112 0
M  V30 33437 H 3158.89 -3.87323 -0.0770882 0
M  V30 33438 H 3159.31 -4.89365 1.88738 0
M  V30 33439 H 3160.78 -5.51222 0.292973 0
M  V30 33440 H 3161.26 -4.30013 -0.893638 0
M  V30 33441 H 3161.86 -4.18191 0.77438 0
M  V30 33442 N 3160.18 -0.595029 -1.45935 0
M  V30 33443 C 3161.14 0.121062 -2.2888 0
M  V30 33444 C 3162.14 0.807124 -1.39076 0
M  V30 33445 O 3163.33 0.6572 -1.61327 0
M  V30 33446 C 3160.46 1.18124 -3.1978 0
M  V30 33447 H 3161.66 -0.60802 -2.93672 0
M  V30 33448 H 3159.21 -0.353522 -1.5225 0
M  V30 33449 H 3159.94 1.9415 -2.59762 0
M  V30 33450 H 3159.73 0.693656 -3.85916 0
M  V30 33451 H 3161.22 1.68312 -3.82179 0
M  V30 33452 N 3161.66 1.54031 -0.333483 0
M  V30 33453 C 3162.62 2.23331 0.515353 0
M  V30 33454 C 3163.62 1.23009 1.03564 0
M  V30 33455 O 3164.81 1.47519 0.926488 0
M  V30 33456 C 3161.94 2.94511 1.71685 0
M  V30 33457 H 3163.13 2.99763 -0.0905934 0
M  V30 33458 H 3160.69 1.5607 -0.0846926 0
M  V30 33459 H 3161.42 2.22241 2.36177 0
M  V30 33460 H 3161.21 3.68087 1.35108 0
M  V30 33461 H 3162.7 3.47282 2.31915 0
M  V30 33462 N 3163.13 0.0618717 1.57479 0
M  V30 33463 C 3164.54 -0.472263 1.80628 0
M  V30 33464 C 3164.9 -1.7026 0.97499 0
M  V30 33465 O 3164.02 -2.15523 0.194638 0
M  V30 33466 C 3164.62 -0.863558 3.2761 0
M  V30 33467 C 3163.17 -1.34261 3.5164 0
M  V30 33468 C 3162.32 -0.322961 2.75413 0
M  V30 33469 H 3165.27 0.287662 1.56071 0
M  V30 33470 H 3165.29 -1.72571 3.39116 0
M  V30 33471 H 3164.81 0.0320908 3.88087 0
M  V30 33472 H 3162.91 -2.25709 2.96456 0
M  V30 33473 H 3163.02 -1.32739 4.60345 0
M  V30 33474 H 3161.38 -0.798133 2.41872 0
M  V30 33475 H 3162.17 0.564788 3.38622 0
M  V30 33476 N 3164.61 -1.56173 -0.211607 0
M  V30 33477 C 3166.03 -1.49387 -0.561744 0
M  V30 33478 C 3166.23 -0.758845 -1.86665 0
M  V30 33479 O 3165.28 -0.302578 -2.50681 0
M  V30 33480 C 3166.6 -2.93988 -0.631764 0
M  V30 33481 C 3168.15 -3.04566 -0.721719 0
M  V30 33482 C 3168.62 -4.50545 -0.822996 0
M  V30 33483 N 3170.11 -4.54629 -0.886958 0
M  V30 33484 C 3170.85 -5.64873 -0.985205 0
M  V30 33485 N 3170.34 -6.84846 -1.04678 0
M  V30 33486 N 3172.14 -5.52747 -1.02111 0
M  V30 33487 H 3164.29 -2.02384 0.644556 0
M  V30 33488 H 3166.55 -0.920302 0.227483 0
M  V30 33489 H 3166.26 -3.50755 0.257653 0
M  V30 33490 H 3166.13 -3.46436 -1.49204 0
M  V30 33491 H 3168.52 -2.47858 -1.60157 0
M  V30 33492 H 3168.6 -2.55271 0.16443 0
M  V30 33493 H 3168.24 -5.07873 0.0524403 0
M  V30 33494 H 3168.17 -4.97555 -1.72471 0
M  V30 33495 H 3170.66 -3.68233 -0.849288 0
M  V30 33496 H 3170.98 -7.64615 -1.1218 0
M  V30 33497 H 3169.32 -6.87537 -1.01574 0
M  V30 33498 H 3172.51 -4.57945 -0.969733 0
M  V30 33499 H 3172.68 -6.38695 -1.09423 0
M  V30 33500 N 3166.09 0.478699 -1.50154 0
M  V30 33501 C 3167.34 1.22806 -1.60005 0
M  V30 33502 C 3167.65 1.9325 -0.302311 0
M  V30 33503 O 3168.86 2.70056 -0.279631 0
M  V30 33504 C 3167.31 2.23103 -2.82406 0
M  V30 33505 C 3166.92 1.58497 -4.19026 0
M  V30 33506 C 3168.67 2.98729 -3.01598 0
M  V30 33507 C 3166.57 2.57035 -5.32622 0
M  V30 33508 H 3165.5 0.462063 -0.59583 0
M  V30 33509 H 3168.15 0.499381 -1.76574 0
M  V30 33510 H 3166.54 2.9923 -2.59379 0
M  V30 33511 H 3167.71 0.882108 -4.52278 0
M  V30 33512 H 3166.03 0.951806 -4.05376 0
M  V30 33513 H 3168.62 3.72461 -3.83637 0
M  V30 33514 H 3168.97 3.57667 -2.13026 0
M  V30 33515 H 3169.5 2.29715 -3.2477 0
M  V30 33516 H 3166.24 2.02847 -6.23324 0
M  V30 33517 H 3165.76 3.25496 -5.03798 0
M  V30 33518 H 3167.44 3.19018 -5.62882 0
M  V30 33519 N 3167.57 1.39603 0.731343 0
M  V30 33520 C 3168.98 1.21288 1.03737 0
M  V30 33521 C 3169.18 0.0770229 2.01353 0
M  V30 33522 O 3168.24 -0.570149 2.45979 0
M  V30 33523 C 3169.55 2.5484 1.59616 0
M  V30 33524 C 3171.1 2.61716 1.71679 0
M  V30 33525 C 3171.58 3.95498 2.30966 0
M  V30 33526 N 3173.07 3.97157 2.38371 0
M  V30 33527 C 3173.8 4.97447 2.85191 0
M  V30 33528 N 3173.3 6.08135 3.3188 0
M  V30 33529 N 3175.09 4.84824 2.84433 0
M  V30 33530 H 3167.24 2.12234 0.0840083 0
M  V30 33531 H 3169.51 0.942723 0.0998872 0
M  V30 33532 H 3169.21 3.38527 0.953549 0
M  V30 33533 H 3169.09 2.74817 2.58371 0
M  V30 33534 H 3171.47 1.78411 2.35061 0
M  V30 33535 H 3171.55 2.45585 0.715671 0
M  V30 33536 H 3171.2 4.79237 1.6821 0
M  V30 33537 H 3171.13 4.08952 3.31762 0
M  V30 33538 H 3173.62 3.17221 2.05376 0
M  V30 33539 H 3173.93 6.80567 3.66126 0
M  V30 33540 H 3172.28 6.11723 3.29879 0
M  V30 33541 H 3175.47 3.97453 2.47283 0
M  V30 33542 H 3175.64 5.6313 3.20607 0
M  V30 33543 N 3169.05 -0.961916 1.2484 0
M  V30 33544 C 3169.98 -2.06053 1.00373 0
M  V30 33545 C 3170.99 -1.62774 -0.0288297 0
M  V30 33546 O 3172.18 -1.77274 0.208884 0
M  V30 33547 C 3169.28 -3.3528 0.494012 0
M  V30 33548 C 3168.45 -4.07437 1.59104 0
M  V30 33549 C 3167.51 -5.14935 1.08297 0
M  V30 33550 O 3166.54 -5.40788 1.77587 0
M  V30 33551 N 3167.74 -5.80445 -0.0795816 0
M  V30 33552 H 3170.51 -2.27615 1.94966 0
M  V30 33553 H 3168.07 -1.12995 1.15947 0
M  V30 33554 H 3170.06 -4.04462 0.138746 0
M  V30 33555 H 3168.63 -3.10546 -0.357796 0
M  V30 33556 H 3167.85 -3.32453 2.11823 0
M  V30 33557 H 3169.14 -4.52405 2.32825 0
M  V30 33558 H 3168.53 -5.61852 -0.658728 0
M  V30 33559 H 3167.09 -6.50715 -0.375942 0
M  V30 33560 N 3170.52 -1.06308 -1.16346 0
M  V30 33561 C 3171.75 -0.80067 -1.91322 0
M  V30 33562 C 3172.17 0.639074 -1.76911 0
M  V30 33563 O 3171.53 1.44533 -1.09452 0
M  V30 33564 C 3171.58 -1.20033 -3.40036 0
M  V30 33565 O 3170.68 -0.339214 -4.11003 0
M  V30 33566 H 3170.03 -0.292606 -0.596052 0
M  V30 33567 H 3172.56 -1.41892 -1.47404 0
M  V30 33568 H 3172.57 -1.17195 -3.90806 0
M  V30 33569 H 3171.24 -2.24904 -3.49844 0
M  V30 33570 H 3169.82 -0.429175 -3.70422 0
M  V30 33571 N 3172 1.32989 -0.845682 0
M  V30 33572 C 3172.95 2.30999 -0.272453 0
M  V30 33573 C 3173.94 1.58445 0.599284 0
M  V30 33574 O 3175.15 1.73256 0.488086 0
M  V30 33575 H 3171.53 0.748792 -0.0693883 0
M  V30 33576 H 3173.5 2.76847 -1.11348 0
M  V30 33577 C 3172.25 3.43607 0.531959 0
M  V30 33578 H 3171.57 3.9959 -0.129525 0
M  V30 33579 H 3173.01 4.14365 0.89878 0
M  V30 33580 C 3171.47 2.90065 1.71359 0
M  V30 33581 O 3172 2.86815 2.81247 0
M  V30 33582 N 3170.2 2.46583 1.53771 0
M  V30 33583 H 3169.75 2.49425 0.643792 0
M  V30 33584 H 3169.71 2.11112 2.32979 0
M  V30 33585 N 3173.48 0.60276 1.45618 0
M  V30 33586 C 3174.43 -0.118903 2.30494 0
M  V30 33587 C 3175.4 -0.864698 1.41817 0
M  V30 33588 O 3176.58 -0.851394 1.70751 0
M  V30 33589 C 3173.72 -1.11351 3.26642 0
M  V30 33590 C 3172.84 -0.369085 4.3042 0
M  V30 33591 C 3171.97 -1.35298 5.13681 0
M  V30 33592 C 3171.01 -0.5961 6.0919 0
M  V30 33593 N 3170.15 -1.52904 6.85248 0
M  V30 33594 H 3174.99 0.610887 2.91671 0
M  V30 33595 H 3172.52 0.313057 1.4373 0
M  V30 33596 H 3174.48 -1.70324 3.80849 0
M  V30 33597 H 3173.11 -1.81077 2.67228 0
M  V30 33598 H 3172.16 0.336061 3.78913 0
M  V30 33599 H 3173.48 0.22169 4.98307 0
M  V30 33600 H 3172.63 -2.01492 5.72264 0
M  V30 33601 H 3171.37 -1.97769 4.45801 0
M  V30 33602 H 3170.37 0.079495 5.49743 0
M  V30 33603 H 3171.6 0.0234928 6.79096 0
M  V30 33604 H 3169.54 -2.14148 6.20062 0
M  V30 33605 H 3169.46 -0.991582 7.49469 0
M  V30 33606 H 3170.73 -2.1807 7.48375 0
M  V30 33607 N 3174.96 -1.53852 0.341647 0
M  V30 33608 C 3176.19 -2.05299 -0.256893 0
M  V30 33609 C 3176.6 -1.21673 -1.44364 0
M  V30 33610 O 3175.96 -0.251615 -1.80757 0
M  V30 33611 C 3176.01 -3.55165 -0.673792 0
M  V30 33612 O 3175.73 -4.35617 0.465764 0
M  V30 33613 C 3177.23 -4.22776 -1.33325 0
M  V30 33614 H 3174.45 -0.66914 -0.0499327 0
M  V30 33615 H 3177 -1.98466 0.493082 0
M  V30 33616 H 3175.15 -3.62226 -1.37371 0
M  V30 33617 H 3175.56 -5.24329 0.133815 0
M  V30 33618 H 3177.04 -5.29032 -1.57573 0
M  V30 33619 H 3177.52 -3.75005 -2.28622 0
M  V30 33620 H 3178.12 -4.19903 -0.675415 0
M  V30 33621 N 3176.44 -0.0702223 -1.57443 0
M  V30 33622 C 3177.38 0.915265 -2.13836 0
M  V30 33623 C 3178.38 1.30932 -1.07485 0
M  V30 33624 O 3179.58 1.28675 -1.25868 0
M  V30 33625 H 3175.96 0.313096 -0.683721 0
M  V30 33626 H 3177.93 0.414706 -2.95504 0
M  V30 33627 C 3176.68 2.17393 -2.71359 0
M  V30 33628 H 3176 1.87954 -3.52864 0
M  V30 33629 H 3177.44 2.84464 -3.14415 0
M  V30 33630 C 3175.9 2.9314 -1.66043 0
M  V30 33631 O 3176.43 3.86784 -1.08449 0
M  V30 33632 N 3174.64 2.56219 -1.37115 0
M  V30 33633 H 3174.18 1.80142 -1.84138 0
M  V30 33634 H 3174.14 3.07204 -0.668824 0
M  V30 33635 N 3177.91 1.56283 0.203321 0
M  V30 33636 C 3178.86 1.9389 1.25202 0
M  V30 33637 C 3179.83 0.798402 1.45653 0
M  V30 33638 O 3181.02 1.05586 1.58922 0
M  V30 33639 C 3178.16 2.27664 2.59351 0
M  V30 33640 C 3177.27 3.54737 2.46547 0
M  V30 33641 C 3176.4 3.77872 3.73345 0
M  V30 33642 C 3175.44 4.98398 3.55339 0
M  V30 33643 N 3174.58 5.17829 4.74128 0
M  V30 33644 H 3179.42 2.83303 0.924306 0
M  V30 33645 H 3176.96 1.40206 0.445058 0
M  V30 33646 H 3178.92 2.4526 3.37496 0
M  V30 33647 H 3177.55 1.41401 2.90182 0
M  V30 33648 H 3176.6 3.45234 1.59743 0
M  V30 33649 H 3177.91 4.43037 2.29172 0
M  V30 33650 H 3177.06 3.95663 4.5993 0
M  V30 33651 H 3175.8 2.87887 3.93665 0
M  V30 33652 H 3174.81 4.80539 2.67138 0
M  V30 33653 H 3176.03 5.89885 3.36471 0
M  V30 33654 H 3173.98 4.3079 4.94728 0
M  V30 33655 H 3173.9 6.00293 4.59547 0
M  V30 33656 H 3175.16 5.40071 5.62088 0
M  V30 33657 N 3179.39 -0.470729 1.50406 0
M  V30 33658 C 3180.81 -0.80451 1.3784 0
M  V30 33659 C 3181.01 -1.96753 0.434778 0
M  V30 33660 O 3180.07 -2.52203 -0.122462 0
M  V30 33661 C 3181.38 -1.11624 2.79214 0
M  V30 33662 C 3182.93 -1.22267 2.88132 0
M  V30 33663 C 3183.4 -1.56753 4.3034 0
M  V30 33664 N 3184.89 -1.63743 4.33292 0
M  V30 33665 C 3185.63 -1.91932 5.40324 0
M  V30 33666 N 3185.12 -2.18139 6.57562 0
M  V30 33667 N 3186.92 -1.93437 5.27767 0
M  V30 33668 H 3179.07 0.295726 2.10331 0
M  V30 33669 H 3181.33 0.0697899 0.945428 0
M  V30 33670 H 3181.04 -0.334717 3.50104 0
M  V30 33671 H 3180.91 -2.05234 3.16479 0
M  V30 33672 H 3183.3 -1.99486 2.17461 0
M  V30 33673 H 3183.38 -0.266355 2.54409 0
M  V30 33674 H 3183.02 -0.800729 5.01548 0
M  V30 33675 H 3182.95 -2.53535 4.61549 0
M  V30 33676 H 3185.44 -1.45529 3.48755 0
M  V30 33677 H 3185.76 -2.38923 7.34939 0
M  V30 33678 H 3184.1 -2.15531 6.60736 0
M  V30 33679 H 3187.29 -1.7246 4.35172 0
M  V30 33680 H 3187.47 -2.1507 6.11268 0
M  V30 33681 N 3180.87 -1.39989 -0.72393 0
M  V30 33682 C 3182.12 -1.37123 -1.4792 0
M  V30 33683 C 3182.43 0.0263321 -1.95582 0
M  V30 33684 O 3183.64 0.177604 -2.70918 0
M  V30 33685 C 3182.1 -2.40954 -2.67338 0
M  V30 33686 C 3181.7 -3.86479 -2.26579 0
M  V30 33687 C 3183.45 -2.4718 -3.45112 0
M  V30 33688 C 3181.35 -4.81925 -3.42786 0
M  V30 33689 H 3180.28 -0.509824 -0.555513 0
M  V30 33690 H 3182.94 -1.65688 -0.788663 0
M  V30 33691 H 3181.32 -2.05476 -3.3852 0
M  V30 33692 H 3182.49 -4.31057 -1.62871 0
M  V30 33693 H 3180.81 -3.8365 -1.6187 0
M  V30 33694 H 3183.4 -3.1568 -4.31568 0
M  V30 33695 H 3183.75 -1.49973 -3.88348 0
M  V30 33696 H 3184.28 -2.81607 -2.80966 0
M  V30 33697 H 3181.02 -5.80436 -3.04589 0
M  V30 33698 H 3180.54 -4.42019 -4.05437 0
M  V30 33699 H 3182.22 -5.01352 -4.08968 0
M  V30 33700 N 3182.35 0.955282 -1.25348 0
M  V30 33701 C 3183.3 2.05186 -1.05676 0
M  V30 33702 C 3184.27 1.66065 0.0338925 0
M  V30 33703 O 3185.45 1.90402 -0.123159 0
M  V30 33704 C 3182.59 3.38317 -0.680851 0
M  V30 33705 C 3181.7 3.90559 -1.84629 0
M  V30 33706 C 3180.84 5.12013 -1.4148 0
M  V30 33707 C 3179.88 5.56482 -2.54941 0
M  V30 33708 N 3179.02 6.69147 -2.12572 0
M  V30 33709 H 3183.86 2.21346 -1.99524 0
M  V30 33710 H 3181.39 1.08471 -0.993607 0
M  V30 33711 H 3183.35 4.14832 -0.443867 0
M  V30 33712 H 3181.98 3.22045 0.220643 0
M  V30 33713 H 3181.03 3.1057 -2.19659 0
M  V30 33714 H 3182.34 4.19511 -2.69837 0
M  V30 33715 H 3181.5 5.95943 -1.13743 0
M  V30 33716 H 3180.24 4.84774 -0.533419 0
M  V30 33717 H 3179.24 4.71117 -2.83423 0
M  V30 33718 H 3180.47 5.85728 -3.43655 0
M  V30 33719 H 3178.41 6.43619 -1.26849 0
M  V30 33720 H 3178.33 6.97613 -2.91329 0
M  V30 33721 H 3179.6 7.56487 -1.88009 0
M  V30 33722 N 3183.83 1.06924 1.1578 0
M  V30 33723 C 3184.79 0.689693 2.18577 0
M  V30 33724 C 3185.79 -0.267844 1.58554 0
M  V30 33725 O 3186.98 -0.049379 1.7413 0
M  V30 33726 C 3184.11 0.0158519 3.40896 0
M  V30 33727 H 3185.31 1.59976 2.53669 0
M  V30 33728 H 3182.86 0.865237 1.30167 0
M  V30 33729 H 3183.59 -0.906657 3.11368 0
M  V30 33730 H 3183.38 0.704482 3.85719 0
M  V30 33731 H 3184.87 -0.235193 4.16937 0
M  V30 33732 N 3185.31 -1.32538 0.852723 0
M  V30 33733 C 3186.55 -1.96929 0.454259 0
M  V30 33734 C 3186.87 -1.67823 -0.993005 0
M  V30 33735 O 3186.14 -0.984422 -1.69369 0
M  V30 33736 H 3184.72 -0.728552 0.16499 0
M  V30 33737 H 3187.39 -1.61656 1.08873 0
M  V30 33738 H 3186.48 -3.06323 0.597721 0
M  V30 33739 N 3186.78 -0.610474 -1.45296 0
M  V30 33740 C 3188.06 -0.0386533 -1.95562 0
M  V30 33741 C 3188.44 1.43001 -1.55286 0
M  V30 33742 O 3187.79 2.13402 -0.816822 0
M  V30 33743 C 3188 -0.239793 -3.48175 0
M  V30 33744 C 3189.35 -0.122109 -4.24424 0
M  V30 33745 O 3190.37 -0.170066 -3.55794 0
M  V30 33746 O 3189.23 -0.00963301 -5.46499 0
M  V30 33747 H 3186.32 0.0340936 -0.826297 0
M  V30 33748 H 3188.87 -0.680737 -1.55448 0
M  V30 33749 H 3187.64 -1.25969 -3.70469 0
M  V30 33750 H 3187.26 0.437416 -3.95187 0
M  V30 33751 N 3188.26 1.53669 -0.349801 0
M  V30 33752 C 3189.49 2.05432 0.246002 0
M  V30 33753 C 3189.9 1.22437 1.43717 0
M  V30 33754 O 3189.26 0.261198 1.80621 0
M  V30 33755 C 3189.31 3.55517 0.654947 0
M  V30 33756 O 3189.03 4.35364 -0.488859 0
M  V30 33757 C 3190.53 4.23477 1.31081 0
M  V30 33758 H 3187.75 0.669395 0.0463834 0
M  V30 33759 H 3190.3 1.98202 -0.503601 0
M  V30 33760 H 3188.45 3.6295 1.35448 0
M  V30 33761 H 3188.87 5.24251 -0.16162 0
M  V30 33762 H 3190.34 5.2986 1.54765 0
M  V30 33763 H 3190.82 3.76212 2.2663 0
M  V30 33764 H 3191.42 4.20255 0.653137 0
M  V30 33765 N 3189.74 0.0785709 1.57404 0
M  V30 33766 C 3190.7 -0.871656 2.11978 0
M  V30 33767 C 3191.7 -1.22188 1.04531 0
M  V30 33768 O 3192.89 -1.15404 1.3049 0
M  V30 33769 C 3190.02 -2.17291 2.62674 0
M  V30 33770 H 3191.22 -0.398063 2.97246 0
M  V30 33771 H 3188.77 -0.170224 1.5537 0
M  V30 33772 H 3189.51 -2.69172 1.80878 0
M  V30 33773 H 3189.29 -1.93165 3.41218 0
M  V30 33774 H 3190.78 -2.85301 3.04948 0
M  V30 33775 N 3191.22 -1.56389 -0.19503 0
M  V30 33776 C 3192.46 -1.80896 -0.916768 0
M  V30 33777 C 3192.8 -0.652624 -1.82906 0
M  V30 33778 O 3192.07 0.346819 -1.91383 0
M  V30 33779 C 3192.35 -3.1566 -1.73294 0
M  V30 33780 C 3192.21 -4.41784 -0.845372 0
M  V30 33781 C 3193.53 -3.47117 -2.70551 0
M  V30 33782 H 3190.65 -0.658062 -0.331849 0
M  V30 33783 H 3193.29 -1.89106 -0.18414 0
M  V30 33784 H 3191.44 -3.08792 -2.35754 0
M  V30 33785 H 3193.11 -4.60699 -0.235476 0
M  V30 33786 H 3191.35 -4.33533 -0.152095 0
M  V30 33787 H 3192.02 -5.32576 -1.45143 0
M  V30 33788 H 3194.5 -3.54285 -2.18223 0
M  V30 33789 H 3193.38 -4.42532 -3.24741 0
M  V30 33790 H 3193.64 -2.70614 -3.496 0
M  V30 33791 N 3192.7 0.462746 -1.50653 0
M  V30 33792 C 3193.63 1.56757 -1.73059 0
M  V30 33793 C 3194.61 1.59916 -0.579727 0
M  V30 33794 O 3195.79 1.7605 -0.81976 0
M  V30 33795 C 3192.92 2.95027 -1.83239 0
M  V30 33796 C 3191.88 3.06734 -2.98494 0
M  V30 33797 C 3191.2 4.46733 -2.93826 0
M  V30 33798 C 3192.5 2.83173 -4.38874 0
M  V30 33799 H 3194.2 1.3826 -2.65565 0
M  V30 33800 H 3191.74 0.6637 -1.27793 0
M  V30 33801 H 3193.69 3.72254 -1.97497 0
M  V30 33802 H 3192.42 3.14699 -0.873613 0
M  V30 33803 H 3191.08 2.31941 -2.83899 0
M  V30 33804 H 3190.73 4.63336 -1.95777 0
M  V30 33805 H 3190.43 4.555 -3.71205 0
M  V30 33806 H 3191.95 5.25968 -3.10144 0
M  V30 33807 H 3193.36 3.50145 -4.53951 0
M  V30 33808 H 3191.76 3.03377 -5.17767 0
M  V30 33809 H 3192.83 1.78964 -4.50666 0
M  V30 33810 N 3194.17 1.40371 0.716495 0
M  V30 33811 C 3195.45 1.29099 1.46945 0
M  V30 33812 C 3195.83 -0.0910811 2.10903 0
M  V30 33813 O 3195.18 -1.10382 2.0007 0
M  V30 33814 C 3195.39 2.42911 2.5059 0
M  V30 33815 C 3196.74 2.83102 3.16446 0
M  V30 33816 O 3197.76 2.42497 2.60909 0
M  V30 33817 O 3196.62 3.53251 4.16984 0
M  V30 33818 H 3193.71 0.506944 0.653404 0
M  V30 33819 H 3196.26 1.52289 0.748747 0
M  V30 33820 H 3195.03 3.35227 2.01837 0
M  V30 33821 H 3194.66 2.21487 3.30196 0
M  V30 33822 N 3195.65 -0.948621 1.25853 0
M  V30 33823 C 3196.89 -1.70872 1.12169 0
M  V30 33824 C 3197.26 -1.89131 -0.3307 0
M  V30 33825 O 3198.46 -2.62256 -0.589494 0
M  V30 33826 C 3196.73 -3.05084 1.86167 0
M  V30 33827 S 3198.29 -3.96274 1.88448 0
M  V30 33828 H 3195.11 -0.587256 0.400813 0
M  V30 33829 H 3197.71 -1.13098 1.59465 0
M  V30 33830 H 3196.41 -2.89471 2.90921 0
M  V30 33831 H 3195.94 -3.67918 1.39283 0
M  V30 33832 H 3197.96 -4.86709 0.965836 0
M  V30 33833 N 3197.13 -1.07536 -1.15212 0
M  V30 33834 C 3198.04 -0.708857 -2.23634 0
M  V30 33835 C 3199.06 0.280729 -1.7172 0
M  V30 33836 O 3200.23 0.126892 -2.01 0
M  V30 33837 C 3197.3 -0.114228 -3.46512 0
M  V30 33838 C 3196.36 -1.15729 -4.13407 0
M  V30 33839 C 3195.59 -0.590943 -5.30418 0
M  V30 33840 O 3195.81 0.592412 -5.67315 0
M  V30 33841 O 3194.75 -1.33674 -5.86869 0
M  V30 33842 H 3198.57 -1.61309 -2.57319 0
M  V30 33843 H 3196.16 -0.848444 -1.22971 0
M  V30 33844 H 3198.04 0.215017 -4.20851 0
M  V30 33845 H 3196.72 0.7633 -3.14572 0
M  V30 33846 H 3195.62 -1.53892 -3.40981 0
M  V30 33847 H 3196.96 -2.00679 -4.49432 0
M  V30 33848 N 3198.61 1.32084 -0.85974 0
M  V30 33849 C 3199.85 1.97366 -0.466306 0
M  V30 33850 C 3200.19 1.67852 0.976698 0
M  V30 33851 O 3199.46 0.969479 1.68616 0
M  V30 33852 C 3199.75 3.52993 -0.711913 0
M  V30 33853 C 3199.6 3.92118 -2.20371 0
M  V30 33854 C 3200.92 4.39765 -0.171638 0
M  V30 33855 H 3198.04 0.716913 -0.170895 0
M  V30 33856 H 3200.68 1.56382 -1.0791 0
M  V30 33857 H 3198.83 3.88034 -0.190326 0
M  V30 33858 H 3200.5 3.67231 -2.79176 0
M  V30 33859 H 3198.74 3.41094 -2.68025 0
M  V30 33860 H 3199.41 5.0059 -2.32623 0
M  V30 33861 H 3201.89 4.11489 -0.617737 0
M  V30 33862 H 3200.77 5.47631 -0.373017 0
M  V30 33863 H 3201.03 4.32296 0.925883 0
M  V30 33864 N 3200.09 0.618171 1.4497 0
M  V30 33865 C 3201.31 0.124202 2.06527 0
M  V30 33866 C 3201.73 -1.19585 1.46099 0
M  V30 33867 O 3201.09 -1.7307 0.57904 0
M  V30 33868 C 3201.14 -0.0106066 3.61498 0
M  V30 33869 O 3200.86 1.25723 4.19673 0
M  V30 33870 C 3202.36 -0.534795 4.40062 0
M  V30 33871 H 3199.58 0.0737052 0.66694 0
M  V30 33872 H 3202.12 0.848904 1.86048 0
M  V30 33873 H 3200.28 -0.685685 3.81284 0
M  V30 33874 H 3200.69 1.09371 5.1297 0
M  V30 33875 H 3202.17 -0.578174 5.48964 0
M  V30 33876 H 3202.64 -1.55924 4.1059 0
M  V30 33877 H 3203.25 0.106594 4.25166 0
M  V30 33878 N 3201.56 -1.53481 0.357946 0
M  V30 33879 C 3202.81 -2.00745 -0.233665 0
M  V30 33880 C 3203.13 -1.24713 -1.49905 0
M  V30 33881 O 3202.4 -0.358269 -1.92596 0
M  V30 33882 H 3200.98 -0.741639 -0.0893343 0
M  V30 33883 H 3203.65 -1.88835 0.482421 0
M  V30 33884 H 3202.74 -3.08601 -0.466019 0
M  V30 33885 N 3203.04 -0.0869173 -1.5736 0
M  V30 33886 C 3204.32 0.620528 -1.85496 0
M  V30 33887 C 3204.7 1.86856 -0.982251 0
M  V30 33888 O 3204.05 2.2844 -0.0524931 0
M  V30 33889 C 3204.26 0.943739 -3.35998 0
M  V30 33890 C 3205.61 1.31072 -4.03863 0
M  V30 33891 O 3206.63 1.03501 -3.40831 0
M  V30 33892 O 3205.49 1.82674 -5.15066 0
M  V30 33893 H 3202.58 0.309684 -0.766828 0
M  V30 33894 H 3205.13 -0.118995 -1.69282 0
M  V30 33895 H 3203.9 0.057994 -3.91257 0
M  V30 33896 H 3203.52 1.73952 -3.57528 0
M  V30 33897 N 3204.52 1.5649 0.186734 0
M  V30 33898 C 3205.93 1.70945 0.750645 0
M  V30 33899 C 3206.28 0.69489 1.83482 0
M  V30 33900 O 3205.41 -0.146971 2.159 0
M  V30 33901 C 3206 3.09937 1.36838 0
M  V30 33902 C 3204.56 3.26129 1.87928 0
M  V30 33903 C 3203.71 2.66898 0.752373 0
M  V30 33904 H 3206.66 1.58653 -0.0384571 0
M  V30 33905 H 3206.68 3.07731 2.2379 0
M  V30 33906 H 3206.19 3.83756 0.579068 0
M  V30 33907 H 3204.29 2.5724 2.69552 0
M  V30 33908 H 3204.41 4.33718 2.03532 0
M  V30 33909 H 3202.77 2.26297 1.16884 0
M  V30 33910 H 3203.55 3.43291 -0.0248373 0
M  V30 33911 N 3206 -0.45475 1.50897 0
M  V30 33912 C 3206.95 -1.55064 1.7095 0
M  V30 33913 C 3207.92 -1.56697 0.550926 0
M  V30 33914 O 3209.1 -1.73976 0.783382 0
M  V30 33915 C 3206.24 -2.9292 1.8246 0
M  V30 33916 C 3205.35 -3.0095 3.09924 0
M  V30 33917 C 3204.49 -4.29822 3.12132 0
M  V30 33918 C 3203.53 -4.31654 4.33983 0
M  V30 33919 N 3202.66 -5.52023 4.33838 0
M  V30 33920 H 3207.5 -1.37269 2.64502 0
M  V30 33921 H 3205.04 -0.667125 1.31102 0
M  V30 33922 H 3207 -3.72886 1.87115 0
M  V30 33923 H 3205.63 -3.09313 0.923325 0
M  V30 33924 H 3204.68 -2.13756 3.14663 0
M  V30 33925 H 3205.99 -2.98165 3.99874 0
M  V30 33926 H 3205.15 -5.18148 3.15607 0
M  V30 33927 H 3203.89 -4.35239 2.20041 0
M  V30 33928 H 3202.89 -3.41723 4.30703 0
M  V30 33929 H 3204.12 -4.27915 5.27319 0
M  V30 33930 H 3202.06 -5.58195 3.44608 0
M  V30 33931 H 3201.98 -5.51046 5.17576 0
M  V30 33932 H 3203.25 -6.42429 4.41481 0
M  V30 33933 N 3207.48 -1.40749 -0.709041 0
M  V30 33934 C 3208.89 -1.35114 -1.28845 0
M  V30 33935 C 3209.24 -0.0277494 -1.9618 0
M  V30 33936 O 3208.36 0.874198 -1.97956 0
M  V30 33937 C 3208.96 -2.4472 -2.34302 0
M  V30 33938 C 3207.52 -2.42525 -2.87852 0
M  V30 33939 C 3206.66 -2.2526 -1.61719 0
M  V30 33940 H 3209.62 -1.5046 -0.504716 0
M  V30 33941 H 3209.64 -2.13004 -3.15293 0
M  V30 33942 H 3209.15 -3.41026 -1.85265 0
M  V30 33943 H 3207.25 -1.49937 -3.41101 0
M  V30 33944 H 3207.36 -3.3835 -3.392 0
M  V30 33945 H 3205.73 -1.72893 -1.87029 0
M  V30 33946 H 3206.51 -3.23573 -1.14697 0
M  V30 33947 N 3208.96 0.941933 -1.26354 0
M  V30 33948 C 3209.9 2.04054 -1.07846 0
M  V30 33949 C 3210.87 1.66092 0.0162772 0
M  V30 33950 O 3212.06 1.90261 -0.143347 0
M  V30 33951 C 3209.2 3.37576 -0.716696 0
M  V30 33952 C 3208.31 3.88579 -1.88761 0
M  V30 33953 C 3207.45 5.10483 -1.46902 0
M  V30 33954 C 3206.48 5.53746 -2.60828 0
M  V30 33955 N 3205.62 6.66855 -2.19657 0
M  V30 33956 H 3210.46 2.19218 -2.0186 0
M  V30 33957 H 3208 1.07411 -1.00506 0
M  V30 33958 H 3209.96 4.14338 -0.487841 0
M  V30 33959 H 3208.59 3.22261 0.186474 0
M  V30 33960 H 3207.64 3.08223 -2.22941 0
M  V30 33961 H 3208.95 4.16625 -2.74272 0
M  V30 33962 H 3208.1 5.94703 -1.20057 0
M  V30 33963 H 3206.84 4.84181 -0.584806 0
M  V30 33964 H 3205.85 4.68085 -2.88404 0
M  V30 33965 H 3207.07 5.8205 -3.49849 0
M  V30 33966 H 3205.02 6.42237 -1.33669 0
M  V30 33967 H 3204.94 6.94483 -2.98712 0
M  V30 33968 H 3206.2 7.54451 -1.96022 0
M  V30 33969 N 3210.43 1.08146 1.1464 0
M  V30 33970 C 3211.68 0.80447 1.84963 0
M  V30 33971 C 3212 -0.672074 1.83691 0
M  V30 33972 O 3213.2 -1.06413 2.49777 0
M  V30 33973 C 3211.66 1.3891 3.32012 0
M  V30 33974 C 3211.27 2.89724 3.41708 0
M  V30 33975 C 3213.01 1.19048 4.07465 0
M  V30 33976 C 3210.92 3.41337 4.82952 0
M  V30 33977 H 3209.85 0.297268 0.692927 0
M  V30 33978 H 3212.5 1.30254 1.29252 0
M  V30 33979 H 3210.88 0.818748 3.87444 0
M  V30 33980 H 3212.05 3.52872 2.96341 0
M  V30 33981 H 3210.37 3.08468 2.79708 0
M  V30 33982 H 3212.97 1.55078 5.11718 0
M  V30 33983 H 3213.31 0.1301 4.16097 0
M  V30 33984 H 3213.84 1.72763 3.58326 0
M  V30 33985 H 3210.58 4.46937 4.79507 0
M  V30 33986 H 3210.1 2.82946 5.28868 0
M  V30 33987 H 3211.78 3.37768 5.51835 0
M  V30 33988 N 3211.91 -1.31626 0.866732 0
M  V30 33989 C 3213.16 -1.96825 0.476061 0
M  V30 33990 C 3213.49 -1.68531 -0.970964 0
M  V30 33991 O 3212.74 -0.97258 -1.69822 0
M  V30 33992 C 3213.04 -3.50947 0.67608 0
M  V30 33993 C 3212.71 -3.99254 2.0954 0
M  V30 33994 C 3211.37 -4.12156 2.48356 0
M  V30 33995 C 3213.72 -4.24704 3.02119 0
M  V30 33996 C 3211.05 -4.47858 3.78999 0
M  V30 33997 C 3213.4 -4.61868 4.32274 0
M  V30 33998 C 3212.06 -4.72977 4.71009 0
M  V30 33999 H 3211.33 -0.720232 0.174203 0
M  V30 34000 H 3213.98 -1.56818 1.0991 0
M  V30 34001 H 3212.29 -3.91788 -0.0301178 0
M  V30 34002 H 3213.98 -3.99437 0.353675 0
M  V30 34003 H 3210.57 -3.89705 1.78403 0
M  V30 34004 H 3214.76 -4.14233 2.73358 0
M  V30 34005 H 3210.01 -4.54655 4.08777 0
M  V30 34006 H 3214.19 -4.80513 5.04064 0
M  V30 34007 H 3211.81 -5.00397 5.72282 0
M  V30 34008 N 3213.39 -0.62585 -1.4464 0
M  V30 34009 C 3214.64 -0.136925 -2.02939 0
M  V30 34010 C 3214.99 1.22563 -1.4831 0
M  V30 34011 O 3214.28 1.80039 -0.65549 0
M  V30 34012 C 3214.48 -0.0585009 -3.57352 0
M  V30 34013 C 3214.31 -1.41191 -4.2696 0
M  V30 34014 C 3213.08 -1.99733 -4.64149 0
M  V30 34015 C 3215.27 -2.34463 -4.57746 0
M  V30 34016 N 3213.26 -3.28365 -5.187 0
M  V30 34017 C 3214.63 -3.47705 -5.13324 0
M  V30 34018 C 3216.68 -2.33608 -4.39695 0
M  V30 34019 C 3215.39 -4.60281 -5.52751 0
M  V30 34020 C 3217.41 -3.45244 -4.80167 0
M  V30 34021 C 3216.77 -4.57209 -5.35854 0
M  V30 34022 H 3212.87 -0.0939016 -0.776342 0
M  V30 34023 H 3215.46 -0.828193 -1.76207 0
M  V30 34024 H 3213.63 0.602033 -3.83706 0
M  V30 34025 H 3215.36 0.438765 -4.02314 0
M  V30 34026 H 3212.11 -1.52736 -4.48295 0
M  V30 34027 H 3212.54 -3.94115 -5.50457 0
M  V30 34028 H 3217.18 -1.48296 -3.9594 0
M  V30 34029 H 3214.9 -5.46304 -5.95464 0
M  V30 34030 H 3218.48 -3.45752 -4.67918 0
M  V30 34031 H 3217.36 -5.42164 -5.66593 0
M  V30 34032 N 3214.87 1.53289 -0.36608 0
M  V30 34033 C 3215.8 2.28678 0.47207 0
M  V30 34034 C 3216.78 1.31127 1.0835 0
M  V30 34035 O 3217.96 1.59997 1.10066 0
M  V30 34036 C 3215.09 3.07639 1.61168 0
M  V30 34037 C 3214.05 4.12883 1.12747 0
M  V30 34038 C 3213.37 4.7993 2.35736 0
M  V30 34039 C 3214.67 5.2187 0.211862 0
M  V30 34040 H 3216.37 2.98989 -0.15689 0
M  V30 34041 H 3213.91 1.43795 -0.0768962 0
M  V30 34042 H 3215.87 3.59127 2.20467 0
M  V30 34043 H 3214.59 2.3502 2.26788 0
M  V30 34044 H 3213.25 3.62341 0.55717 0
M  V30 34045 H 3212.9 4.03882 2.99814 0
M  V30 34046 H 3212.6 5.51048 2.0401 0
M  V30 34047 H 3214.12 5.34212 2.9572 0
M  V30 34048 H 3215.54 5.68857 0.71234 0
M  V30 34049 H 3213.93 6.00098 -0.0145556 0
M  V30 34050 H 3215 4.7913 -0.745837 0
M  V30 34051 N 3216.35 0.0952613 1.57312 0
M  V30 34052 C 3217.28 -0.860715 2.17057 0
M  V30 34053 C 3218.26 -1.29409 1.10396 0
M  V30 34054 O 3219.44 -1.36095 1.38534 0
M  V30 34055 C 3216.57 -2.11979 2.75104 0
M  V30 34056 C 3215.53 -1.82503 3.87139 0
M  V30 34057 C 3214.85 -3.1524 4.31889 0
M  V30 34058 C 3216.15 -1.11185 5.10328 0
M  V30 34059 H 3217.85 -0.362931 2.97192 0
M  V30 34060 H 3215.39 -0.173126 1.42955 0
M  V30 34061 H 3217.34 -2.79293 3.15552 0
M  V30 34062 H 3216.07 -2.64041 1.92224 0
M  V30 34063 H 3214.73 -1.17586 3.47231 0
M  V30 34064 H 3214.38 -3.65189 3.45899 0
M  V30 34065 H 3214.08 -2.963 5.07425 0
M  V30 34066 H 3215.6 -3.83712 4.74971 0
M  V30 34067 H 3217.01 -1.6861 5.47945 0
M  V30 34068 H 3215.41 -1.02424 5.91295 0
M  V30 34069 H 3216.48 -0.0946374 4.84808 0
M  V30 34070 N 3217.82 -1.56587 -0.178432 0
M  V30 34071 C 3219.23 -1.71341 -0.741569 0
M  V30 34072 C 3219.59 -0.704611 -1.83111 0
M  V30 34073 O 3218.71 0.135519 -2.15975 0
M  V30 34074 C 3219.31 -3.10658 -1.35192 0
M  V30 34075 C 3217.86 -3.27121 -1.86196 0
M  V30 34076 C 3217.01 -2.67293 -0.738208 0
M  V30 34077 H 3219.96 -1.58631 0.0468703 0
M  V30 34078 H 3219.98 -3.08914 -2.22155 0
M  V30 34079 H 3219.5 -3.84057 -0.558708 0
M  V30 34080 H 3217.6 -2.58666 -2.68184 0
M  V30 34081 H 3217.71 -4.34791 -2.01229 0
M  V30 34082 H 3216.07 -2.26914 -1.15682 0
M  V30 34083 H 3216.86 -3.43273 0.0430425 0
M  V30 34084 N 3219.3 0.446741 -1.51136 0
M  V30 34085 C 3220.53 1.22424 -1.67413 0
M  V30 34086 C 3220.95 1.84484 -0.367041 0
M  V30 34087 O 3220.31 1.68393 0.671821 0
M  V30 34088 C 3220.36 2.29092 -2.78477 0
M  V30 34089 O 3219.46 3.34347 -2.41425 0
M  V30 34090 H 3218.8 0.359101 -0.558518 0
M  V30 34091 H 3221.33 0.528765 -1.97649 0
M  V30 34092 H 3221.34 2.74025 -3.02282 0
M  V30 34093 H 3220.02 1.83297 -3.7333 0
M  V30 34094 H 3218.59 2.94956 -2.28157 0
M  V30 34095 N 3220.78 1.41123 0.701567 0
M  V30 34096 C 3221.73 1.42693 1.83688 0
M  V30 34097 C 3222.72 0.305688 1.66619 0
M  V30 34098 O 3223.93 0.477422 1.73553 0
M  V30 34099 H 3220.3 0.44634 0.605214 0
M  V30 34100 H 3222.27 2.38389 1.79481 0
M  V30 34101 C 3221.02 1.32014 3.21664 0
M  V30 34102 H 3220.35 2.17575 3.35412 0
M  V30 34103 H 3221.79 1.37172 4.01198 0
M  V30 34104 C 3220.24 0.031827 3.36885 0
M  V30 34105 O 3220.77 -0.925767 3.90887 0
M  V30 34106 N 3218.98 -0.042289 2.90569 0
M  V30 34107 H 3218.53 0.737717 2.46811 0
M  V30 34108 H 3218.49 -0.903711 3.01132 0
M  V30 34109 N 3222.26 -0.935219 1.26852 0
M  V30 34110 C 3223.53 -1.65982 1.03486 0
M  V30 34111 C 3223.91 -2.06615 -0.432823 0
M  V30 34112 O 3223.26 -1.79458 -1.41446 0
M  V30 34113 C 3223.47 -2.86754 1.98929 0
M  V30 34114 C 3224.82 -3.5827 2.27876 0
M  V30 34115 O 3225.84 -2.96869 1.96843 0
M  V30 34116 O 3224.7 -4.68877 2.80743 0
M  V30 34117 H 3221.8 -0.727143 0.393945 0
M  V30 34118 H 3224.34 -0.986421 1.38086 0
M  V30 34119 H 3223.12 -2.53663 2.97944 0
M  V30 34120 H 3222.74 -3.61817 1.64845 0
M  V30 34121 N 3223.74 -1.08752 -1.14065 0
M  V30 34122 C 3224.67 -0.664691 -2.18305 0
M  V30 34123 C 3225.65 0.325331 -1.59312 0
M  V30 34124 O 3226.83 0.228352 -1.87112 0
M  V30 34125 C 3223.96 0.0218127 -3.38693 0
M  V30 34126 C 3223 -0.928917 -4.16261 0
M  V30 34127 S 3223.84 -2.43742 -4.76812 0
M  V30 34128 C 3224.99 -1.76313 -6.00554 0
M  V30 34129 H 3225.23 -1.54776 -2.53834 0
M  V30 34130 H 3222.76 -0.902839 -1.25252 0
M  V30 34131 H 3224.72 0.411614 -4.08431 0
M  V30 34132 H 3223.38 0.881428 -3.01479 0
M  V30 34133 H 3222.57 -0.395534 -5.02446 0
M  V30 34134 H 3222.17 -1.25979 -3.52144 0
M  V30 34135 H 3224.47 -1.08313 -6.68786 0
M  V30 34136 H 3225.41 -2.60385 -6.58487 0
M  V30 34137 H 3225.82 -1.23499 -5.50825 0
M  V30 34138 N 3225.21 1.31165 -0.873701 0
M  V30 34139 C 3226.46 1.95841 -0.482612 0
M  V30 34140 C 3226.78 1.69805 0.970851 0
M  V30 34141 O 3227.98 2.28373 1.46826 0
M  V30 34142 C 3226.44 3.50617 -0.812135 0
M  V30 34143 C 3226.05 3.85488 -2.28261 0
M  V30 34144 C 3227.79 4.21666 -0.489698 0
M  V30 34145 C 3225.7 5.33392 -2.55435 0
M  V30 34146 H 3224.63 0.732991 -0.176748 0
M  V30 34147 H 3227.28 1.49281 -1.06712 0
M  V30 34148 H 3225.66 3.95689 -0.156839 0
M  V30 34149 H 3226.83 3.51364 -2.98128 0
M  V30 34150 H 3225.15 3.27514 -2.57145 0
M  V30 34151 H 3227.75 5.30487 -0.669905 0
M  V30 34152 H 3228.09 4.12377 0.570132 0
M  V30 34153 H 3228.62 3.8224 -1.1017 0
M  V30 34154 H 3225.36 5.4772 -3.60115 0
M  V30 34155 H 3224.88 5.68856 -1.90166 0
M  V30 34156 H 3226.56 6.00698 -2.40356 0
M  V30 34157 N 3226.69 0.633512 1.44307 0
M  V30 34158 C 3227.92 0.144384 2.06897 0
M  V30 34159 C 3228.34 -1.17297 1.47047 0
M  V30 34160 O 3227.7 -1.72012 0.572836 0
M  V30 34161 C 3227.75 0.0456957 3.60571 0
M  V30 34162 O 3226.85 -0.997612 4.00152 0
M  V30 34163 H 3226.19 0.0858614 0.658425 0
M  V30 34164 H 3228.72 0.870866 1.85141 0
M  V30 34165 H 3228.73 -0.144106 4.07745 0
M  V30 34166 H 3227.41 1.00747 4.03513 0
M  V30 34167 H 3225.99 -0.782188 3.64604 0
M  V30 34168 N 3228.17 -1.53093 0.374204 0
M  V30 34169 C 3229.42 -2.01379 -0.212781 0
M  V30 34170 C 3229.75 -1.2612 -1.48067 0
M  V30 34171 O 3229 -0.345595 -1.92624 0
M  V30 34172 C 3229.3 -3.53265 -0.542117 0
M  V30 34173 C 3228.97 -4.46442 0.632454 0
M  V30 34174 C 3227.63 -4.71634 0.954718 0
M  V30 34175 C 3229.98 -5.01513 1.41896 0
M  V30 34176 C 3227.31 -5.49147 2.0653 0
M  V30 34177 C 3229.66 -5.80239 2.52003 0
M  V30 34178 C 3228.32 -6.03714 2.84755 0
M  V30 34179 H 3227.59 -0.736898 -0.077862 0
M  V30 34180 H 3230.24 -1.84627 0.508444 0
M  V30 34181 H 3228.55 -3.6801 -1.34447 0
M  V30 34182 H 3230.24 -3.88107 -1.00868 0
M  V30 34183 H 3226.83 -4.26989 0.371254 0
M  V30 34184 H 3231.02 -4.81989 1.18323 0
M  V30 34185 H 3226.27 -5.65552 2.32294 0
M  V30 34186 H 3230.45 -6.21917 3.13357 0
M  V30 34187 H 3228.07 -6.63561 3.70932 0
M  V30 34188 N 3229.65 -0.103603 -1.57259 0
M  V30 34189 C 3230.87 0.569603 -1.99425 0
M  V30 34190 C 3231.3 1.60401 -0.982503 0
M  V30 34191 O 3230.66 1.81237 0.0478912 0
M  V30 34192 C 3230.7 1.18627 -3.40529 0
M  V30 34193 O 3229.81 2.30202 -3.42171 0
M  V30 34194 H 3229.15 0.143747 -0.648254 0
M  V30 34195 H 3231.68 -0.187529 -2.03739 0
M  V30 34196 H 3231.69 1.52553 -3.78407 0
M  V30 34197 H 3230.36 0.428509 -4.13687 0
M  V30 34198 H 3228.94 1.97831 -3.16097 0
M  V30 34199 N 3231.13 1.56679 0.170126 0
M  V30 34200 C 3232.38 1.81254 0.884871 0
M  V30 34201 C 3232.69 0.681056 1.8336 0
M  V30 34202 O 3233.89 0.811767 2.5908 0
M  V30 34203 C 3232.35 3.21175 1.62403 0
M  V30 34204 C 3231.96 4.42195 0.718869 0
M  V30 34205 C 3233.7 3.55042 2.32692 0
M  V30 34206 C 3231.61 5.73138 1.45832 0
M  V30 34207 H 3230.54 0.675905 0.334168 0
M  V30 34208 H 3233.19 1.82982 0.137786 0
M  V30 34209 H 3231.57 3.13767 2.41591 0
M  V30 34210 H 3232.75 4.60786 -0.0361331 0
M  V30 34211 H 3231.06 4.16211 0.125561 0
M  V30 34212 H 3233.66 4.50119 2.88613 0
M  V30 34213 H 3234 2.79979 3.08087 0
M  V30 34214 H 3234.53 3.64008 1.60447 0
M  V30 34215 H 3231.27 6.51233 0.746685 0
M  V30 34216 H 3230.79 5.58522 2.18662 0
M  V30 34217 H 3232.47 6.15133 2.00549 0
M  V30 34218 N 3232.6 -0.43872 1.5137 0
M  V30 34219 C 3233.88 -1.19941 1.5451 0
M  V30 34220 C 3234.26 -2.08833 0.308562 0
M  V30 34221 O 3233.61 -2.17306 -0.706422 0
M  V30 34222 C 3233.82 -2.00246 2.85837 0
M  V30 34223 C 3235.17 -2.57335 3.37734 0
M  V30 34224 O 3236.19 -2.10458 2.87378 0
M  V30 34225 O 3235.05 -3.42828 4.25595 0
M  V30 34226 H 3232.14 -0.545996 0.621142 0
M  V30 34227 H 3234.69 -0.447902 1.63682 0
M  V30 34228 H 3233.46 -1.34948 3.67294 0
M  V30 34229 H 3233.09 -2.82465 2.7982 0
M  V30 34230 N 3234.08 -1.41493 -0.694073 0
M  V30 34231 C 3235.5 -1.23996 -1.00485 0
M  V30 34232 C 3235.7 -0.130381 -2.01078 0
M  V30 34233 O 3234.75 0.504732 -2.47404 0
M  V30 34234 C 3236.07 -2.58982 -1.52803 0
M  V30 34235 C 3237.62 -2.66176 -1.64679 0
M  V30 34236 C 3238.09 -4.01483 -2.20399 0
M  V30 34237 N 3239.58 -4.03337 -2.27757 0
M  V30 34238 C 3240.32 -5.04834 -2.71902 0
M  V30 34239 N 3239.81 -6.1672 -3.1564 0
M  V30 34240 N 3241.61 -4.92195 -2.71479 0
M  V30 34241 H 3233.76 -2.12382 -0.0277087 0
M  V30 34242 H 3236.02 -0.94504 -0.0748575 0
M  V30 34243 H 3235.73 -3.40936 -0.863459 0
M  V30 34244 H 3235.6 -2.81571 -2.50993 0
M  V30 34245 H 3237.99 -1.8458 -2.30248 0
M  V30 34246 H 3238.07 -2.47396 -0.650307 0
M  V30 34247 H 3237.71 -4.83528 -1.55445 0
M  V30 34248 H 3237.64 -4.17604 -3.20802 0
M  V30 34249 H 3240.13 -3.22554 -1.96894 0
M  V30 34250 H 3240.45 -6.90035 -3.47954 0
M  V30 34251 H 3238.79 -6.20254 -3.13545 0
M  V30 34252 H 3241.98 -4.03869 -2.36659 0
M  V30 34253 H 3242.15 -5.71432 -3.05563 0
M  V30 34254 N 3235.56 0.928479 -1.27346 0
M  V30 34255 C 3236.79 1.7077 -1.16281 0
M  V30 34256 C 3237.2 1.8707 0.283098 0
M  V30 34257 O 3236.54 1.38687 1.20464 0
M  V30 34258 C 3236.6 3.12727 -1.77319 0
M  V30 34259 C 3236.27 3.19767 -3.26494 0
M  V30 34260 C 3237.26 3.02076 -4.23139 0
M  V30 34261 C 3234.95 3.42751 -3.67188 0
M  V30 34262 C 3236.94 3.07257 -5.58455 0
M  V30 34263 C 3234.63 3.47565 -5.02635 0
M  V30 34264 C 3235.63 3.29836 -5.98078 0
M  V30 34265 O 3235.32 3.34384 -7.31056 0
M  V30 34266 H 3235.05 0.541081 -0.405224 0
M  V30 34267 H 3237.6 1.1716 -1.68709 0
M  V30 34268 H 3235.83 3.67816 -1.19367 0
M  V30 34269 H 3237.52 3.72613 -1.60979 0
M  V30 34270 H 3238.29 2.84161 -3.93036 0
M  V30 34271 H 3234.17 3.55601 -2.93375 0
M  V30 34272 H 3237.71 2.93337 -6.32929 0
M  V30 34273 H 3233.61 3.65004 -5.32393 0
M  V30 34274 H 3234.38 3.50844 -7.39494 0
M  V30 34275 N 3237.04 1.09355 1.13486 0
M  V30 34276 C 3238.27 0.850948 1.88591 0
M  V30 34277 C 3238.68 -0.59773 1.79088 0
M  V30 34278 O 3238.04 -1.4114 1.15697 0
M  V30 34279 C 3238.09 1.27639 3.38217 0
M  V30 34280 O 3237.81 2.66825 3.47471 0
M  V30 34281 C 3239.31 1.06606 4.30291 0
M  V30 34282 H 3236.53 0.306195 0.597064 0
M  V30 34283 H 3239.08 1.45535 1.43665 0
M  V30 34284 H 3237.23 0.715895 3.80728 0
M  V30 34285 H 3237.64 2.84741 4.4048 0
M  V30 34286 H 3239.12 1.41302 5.33608 0
M  V30 34287 H 3239.6 0.0037907 4.392 0
M  V30 34288 H 3240.2 1.61247 3.93547 0
M  V30 34289 N 3238.52 -1.307 0.880644 0
M  V30 34290 C 3239.76 -1.96309 0.49691 0
M  V30 34291 C 3240.09 -1.69551 -0.953034 0
M  V30 34292 O 3239.35 -0.990537 -1.6878 0
M  V30 34293 C 3239.65 -3.5021 0.713264 0
M  V30 34294 C 3239.31 -3.97009 2.13763 0
M  V30 34295 C 3237.97 -4.09499 2.52714 0
M  V30 34296 C 3240.33 -4.21475 3.06607 0
M  V30 34297 C 3237.65 -4.43813 3.83728 0
M  V30 34298 C 3240.01 -4.57257 4.37148 0
M  V30 34299 C 3238.67 -4.67955 4.75999 0
M  V30 34300 H 3237.94 -0.718344 0.181832 0
M  V30 34301 H 3240.59 -1.55644 1.11567 0
M  V30 34302 H 3238.89 -3.91798 0.0114383 0
M  V30 34303 H 3240.59 -3.9904 0.39602 0
M  V30 34304 H 3237.18 -3.87791 1.82526 0
M  V30 34305 H 3241.36 -4.1131 2.77736 0
M  V30 34306 H 3236.62 -4.50294 4.13576 0
M  V30 34307 H 3240.79 -4.7514 5.09132 0
M  V30 34308 H 3238.42 -4.94299 5.77557 0
M  V30 34309 N 3240 -0.641156 -1.43969 0
M  V30 34310 C 3240.95 0.079839 -2.2786 0
M  V30 34311 C 3241.93 0.806485 -1.39229 0
M  V30 34312 O 3243.12 0.69094 -1.62957 0
M  V30 34313 C 3240.25 1.05388 -3.26723 0
M  V30 34314 C 3239.34 0.326337 -4.22843 0
M  V30 34315 N 3239.73 -0.650552 -5.01599 0
M  V30 34316 C 3238.03 0.56943 -4.4235 0
M  V30 34317 C 3238.73 -1.08131 -5.71561 0
M  V30 34318 N 3237.7 -0.418027 -5.4199 0
M  V30 34319 H 3241.5 -0.669957 -2.86162 0
M  V30 34320 H 3239.02 -0.46746 -1.55527 0
M  V30 34321 H 3241.02 1.5851 -3.85591 0
M  V30 34322 H 3239.68 1.80387 -2.69983 0
M  V30 34323 H 3240.69 -1.02879 -5.07579 0
M  V30 34324 H 3237.36 1.30152 -3.96695 0
M  V30 34325 H 3238.75 -1.88894 -6.44801 0
M  V30 34326 N 3241.47 1.52892 -0.382318 0
M  V30 34327 C 3242.44 2.24858 0.444041 0
M  V30 34328 C 3243.44 1.26241 0.995982 0
M  V30 34329 O 3244.63 1.50392 0.879087 0
M  V30 34330 C 3241.76 2.99824 1.62229 0
M  V30 34331 H 3242.95 2.99323 -0.185915 0
M  V30 34332 H 3240.5 1.55722 -0.134302 0
M  V30 34333 H 3241.24 2.29642 2.28987 0
M  V30 34334 H 3241.02 3.72199 1.2333 0
M  V30 34335 H 3242.51 3.54485 2.2075 0
M  V30 34336 N 3242.95 0.111941 1.57202 0
M  V30 34337 C 3243.9 -0.858248 2.16187 0
M  V30 34338 C 3244.89 -1.28037 1.10919 0
M  V30 34339 O 3246.1 -1.25293 1.29235 0
M  V30 34340 H 3242.47 -0.294858 0.691782 0
M  V30 34341 H 3244.45 -0.336213 2.965 0
M  V30 34342 C 3243.19 -2.10122 2.77027 0
M  V30 34343 H 3242.52 -1.78533 3.57723 0
M  V30 34344 H 3243.96 -2.76027 3.21846 0
M  V30 34345 C 3242.42 -2.88635 1.73757 0
M  V30 34346 O 3242.95 -3.83772 1.18666 0
M  V30 34347 N 3241.15 -2.52493 1.4386 0
M  V30 34348 H 3240.7 -1.75196 1.88849 0
M  V30 34349 H 3240.66 -3.05322 0.750039 0
M  V30 34350 N 3244.43 -1.56767 -0.161814 0
M  V30 34351 C 3245.68 -1.82168 -0.87516 0
M  V30 34352 C 3246 -0.690476 -1.82366 0
M  V30 34353 O 3245.27 0.288989 -1.93757 0
M  V30 34354 H 3243.85 -0.67203 -0.326167 0
M  V30 34355 H 3246.51 -1.94247 -0.159358 0
M  V30 34356 H 3245.61 -2.76563 -1.44635 0
M  V30 34357 N 3245.91 0.430686 -1.51601 0
M  V30 34358 C 3247.13 1.20642 -1.68702 0
M  V30 34359 C 3247.56 1.84085 -0.386587 0
M  V30 34360 O 3246.92 1.69096 0.653923 0
M  V30 34361 C 3246.96 2.26125 -2.80891 0
M  V30 34362 O 3246.07 3.31767 -2.44957 0
M  V30 34363 H 3245.41 0.353157 -0.562295 0
M  V30 34364 H 3247.94 0.507772 -1.98199 0
M  V30 34365 H 3247.95 2.70803 -3.05172 0
M  V30 34366 H 3246.62 1.79327 -3.75253 0
M  V30 34367 H 3245.2 2.92519 -2.31273 0
M  V30 34368 N 3247.39 1.4186 0.686559 0
M  V30 34369 C 3248.32 1.47196 1.81261 0
M  V30 34370 C 3249.3 0.329686 1.66874 0
M  V30 34371 O 3250.48 0.54238 1.86472 0
M  V30 34372 C 3247.61 1.36221 3.1947 0
M  V30 34373 C 3246.57 2.48353 3.48575 0
M  V30 34374 C 3245.89 2.22441 4.86235 0
M  V30 34375 C 3247.19 3.90684 3.46646 0
M  V30 34376 H 3248.89 2.41439 1.77053 0
M  V30 34377 H 3246.43 1.16208 0.850395 0
M  V30 34378 H 3248.38 1.38565 3.97967 0
M  V30 34379 H 3247.11 0.384668 3.24327 0
M  V30 34380 H 3245.77 2.45307 2.72433 0
M  V30 34381 H 3245.42 1.23008 4.87727 0
M  V30 34382 H 3245.12 2.97585 5.06672 0
M  V30 34383 H 3246.64 2.26514 5.6703 0
M  V30 34384 H 3248.05 3.95396 4.15132 0
M  V30 34385 H 3246.45 4.65585 3.78617 0
M  V30 34386 H 3247.52 4.18193 2.45444 0
M  V30 34387 N 3248.86 -0.921712 1.27837 0
M  V30 34388 C 3250.09 -1.70398 1.17355 0
M  V30 34389 C 3250.51 -1.86876 -0.268859 0
M  V30 34390 O 3249.86 -1.39007 -1.18251 0
M  V30 34391 C 3249.91 -3.10041 1.85894 0
M  V30 34392 O 3249.64 -2.94332 3.245 0
M  V30 34393 C 3251.14 -4.0439 1.81614 0
M  V30 34394 H 3248.36 -0.532907 0.407739 0
M  V30 34395 H 3250.9 -1.15416 1.68817 0
M  V30 34396 H 3249.06 -3.61864 1.38322 0
M  V30 34397 H 3249.47 -3.82657 3.58711 0
M  V30 34398 H 3250.94 -4.99866 2.34174 0
M  V30 34399 H 3251.42 -4.32095 0.786773 0
M  V30 34400 H 3252.03 -3.58494 2.28828 0
M  V30 34401 N 3250.34 -1.09956 -1.12905 0
M  V30 34402 C 3251.59 -0.833794 -1.83659 0
M  V30 34403 C 3251.9 0.642765 -1.84737 0
M  V30 34404 O 3253.11 1.02426 -2.51438 0
M  V30 34405 C 3251.57 -1.44174 -3.2976 0
M  V30 34406 C 3251.17 -2.95123 -3.37055 0
M  V30 34407 C 3252.92 -1.25516 -4.05519 0
M  V30 34408 C 3250.82 -3.48977 -4.77461 0
M  V30 34409 H 3249.75 -0.308254 -0.68811 0
M  V30 34410 H 3252.41 -1.32294 -1.27164 0
M  V30 34411 H 3250.79 -0.880283 -3.86092 0
M  V30 34412 H 3251.96 -3.57542 -2.90689 0
M  V30 34413 H 3250.28 -3.12879 -2.74765 0
M  V30 34414 H 3252.87 -1.632 -5.09186 0
M  V30 34415 H 3253.22 -0.196281 -4.15837 0
M  V30 34416 H 3253.75 -1.78442 -3.55533 0
M  V30 34417 H 3250.49 -4.54509 -4.72336 0
M  V30 34418 H 3250.01 -2.91324 -5.243 0
M  V30 34419 H 3251.69 -3.46505 -5.46391 0
M  V30 34420 N 3251.82 1.30231 -0.887563 0
M  V30 34421 C 3252.77 2.30015 -0.345805 0
M  V30 34422 C 3253.76 1.60272 0.548572 0
M  V30 34423 O 3254.97 1.74721 0.432719 0
M  V30 34424 H 3251.34 0.746205 -0.0931754 0
M  V30 34425 H 3253.31 2.73164 -1.201 0
M  V30 34426 C 3252.06 3.45125 0.422374 0
M  V30 34427 H 3251.39 3.98976 -0.256586 0
M  V30 34428 H 3252.83 4.17014 0.766498 0
M  V30 34429 C 3251.28 2.9537 1.62044 0
M  V30 34430 O 3251.81 2.95618 2.7198 0
M  V30 34431 N 3250.02 2.5135 1.45848 0
M  V30 34432 H 3249.57 2.51347 0.564113 0
M  V30 34433 H 3249.53 2.18417 2.26144 0
M  V30 34434 N 3253.3 0.648782 1.43627 0
M  V30 34435 C 3254.25 -0.0455131 2.30755 0
M  V30 34436 C 3255.22 -0.819142 1.44497 0
M  V30 34437 O 3256.4 -0.79664 1.73373 0
M  V30 34438 C 3253.54 -1.00902 3.30019 0
M  V30 34439 C 3252.65 -0.231963 4.31377 0
M  V30 34440 C 3251.79 -1.18887 5.17725 0
M  V30 34441 C 3250.83 -0.401989 6.10779 0
M  V30 34442 N 3249.96 -1.31026 6.89766 0
M  V30 34443 H 3254.8 0.703371 2.8958 0
M  V30 34444 H 3252.34 0.358625 1.42661 0
M  V30 34445 H 3254.3 -1.58121 3.86075 0
M  V30 34446 H 3252.93 -1.72483 2.72854 0
M  V30 34447 H 3251.98 0.456439 3.77652 0
M  V30 34448 H 3253.29 0.380111 4.9735 0
M  V30 34449 H 3252.45 -1.83184 5.78385 0
M  V30 34450 H 3251.19 -1.83486 4.51867 0
M  V30 34451 H 3250.19 0.254351 5.49211 0
M  V30 34452 H 3251.42 0.23953 6.78677 0
M  V30 34453 H 3249.36 -1.94313 6.26561 0
M  V30 34454 H 3249.28 -0.752642 7.52244 0
M  V30 34455 H 3250.55 -1.94151 7.54934 0
M  V30 34456 N 3254.78 -1.52688 0.390421 0
M  V30 34457 C 3256.02 -2.01892 -0.191693 0
M  V30 34458 C 3256.36 -1.27633 -1.46367 0
M  V30 34459 O 3255.63 -0.377127 -1.90809 0
M  V30 34460 C 3255.91 -3.57169 -0.458473 0
M  V30 34461 C 3255.77 -4.42097 0.828874 0
M  V30 34462 C 3257.09 -4.22016 -1.24862 0
M  V30 34463 H 3254.2 -0.733838 -0.0681962 0
M  V30 34464 H 3256.85 -1.8274 0.520208 0
M  V30 34465 H 3255 -3.7362 -1.06492 0
M  V30 34466 H 3256.67 -4.37396 1.46569 0
M  V30 34467 H 3254.91 -4.09063 1.44395 0
M  V30 34468 H 3255.58 -5.48764 0.596842 0
M  V30 34469 H 3258.06 -4.0955 -0.73538 0
M  V30 34470 H 3256.93 -5.30639 -1.40403 0
M  V30 34471 H 3257.2 -3.79723 -2.26413 0
M  V30 34472 N 3256.25 -0.120276 -1.5714 0
M  V30 34473 C 3257.2 0.82946 -2.1538 0
M  V30 34474 C 3258.17 1.26268 -1.07915 0
M  V30 34475 O 3259.36 1.33997 -1.35829 0
M  V30 34476 C 3256.5 2.07366 -2.75851 0
M  V30 34477 C 3255.61 1.68868 -3.97627 0
M  V30 34478 C 3254.74 2.88264 -4.46181 0
M  V30 34479 C 3253.78 2.46013 -5.60486 0
M  V30 34480 N 3252.92 3.58327 -6.03777 0
M  V30 34481 H 3257.76 0.325979 -2.96212 0
M  V30 34482 H 3255.3 0.149209 -1.46341 0
M  V30 34483 H 3257.26 2.80266 -3.09041 0
M  V30 34484 H 3255.89 2.5517 -1.97707 0
M  V30 34485 H 3254.94 0.858366 -3.70589 0
M  V30 34486 H 3256.25 1.33819 -4.80514 0
M  V30 34487 H 3255.4 3.69388 -4.81287 0
M  V30 34488 H 3254.14 3.26542 -3.62246 0
M  V30 34489 H 3253.15 1.63322 -5.24982 0
M  V30 34490 H 3254.37 2.08851 -6.46187 0
M  V30 34491 H 3252.32 3.96275 -5.22783 0
M  V30 34492 H 3252.24 3.27205 -6.81523 0
M  V30 34493 H 3253.5 4.39887 -6.43521 0
M  V30 34494 N 3257.73 1.56851 0.153498 0
M  V30 34495 C 3258.66 2.00807 1.19159 0
M  V30 34496 C 3259.64 0.886544 1.4517 0
M  V30 34497 O 3260.83 1.1539 1.56201 0
M  V30 34498 C 3257.96 2.38315 2.52632 0
M  V30 34499 C 3256.91 3.53593 2.41155 0
M  V30 34500 C 3256.24 3.76896 3.79281 0
M  V30 34501 C 3257.54 4.86471 1.90114 0
M  V30 34502 H 3259.23 2.87777 0.82612 0
M  V30 34503 H 3256.78 1.38449 0.395948 0
M  V30 34504 H 3258.73 2.67666 3.25474 0
M  V30 34505 H 3257.46 1.48275 2.91002 0
M  V30 34506 H 3256.11 3.24398 1.70767 0
M  V30 34507 H 3255.76 2.84117 4.15074 0
M  V30 34508 H 3255.46 4.54471 3.72464 0
M  V30 34509 H 3256.99 4.08665 4.5368 0
M  V30 34510 H 3258.4 5.14581 2.52743 0
M  V30 34511 H 3256.8 5.67807 1.94204 0
M  V30 34512 H 3257.87 4.77277 0.856433 0
M  V30 34513 N 3259.21 -0.42264 1.51827 0
M  V30 34514 C 3260.14 -1.52114 1.77154 0
M  V30 34515 C 3261.12 -1.58323 0.621922 0
M  V30 34516 O 3262.31 -1.73815 0.866148 0
M  V30 34517 C 3259.44 -2.90065 1.90997 0
M  V30 34518 C 3258.39 -2.98712 3.06521 0
M  V30 34519 C 3257.72 -4.38786 3.05567 0
M  V30 34520 C 3259.02 -2.71437 4.46227 0
M  V30 34521 H 3260.71 -1.3117 2.69137 0
M  V30 34522 H 3258.26 -0.629584 1.29508 0
M  V30 34523 H 3260.21 -3.66886 2.07298 0
M  V30 34524 H 3258.93 -3.12272 0.956743 0
M  V30 34525 H 3257.59 -2.24333 2.89949 0
M  V30 34526 H 3257.24 -4.57982 2.07993 0
M  V30 34527 H 3256.94 -4.45498 3.83151 0
M  V30 34528 H 3258.46 -5.17561 3.2398 0
M  V30 34529 H 3259.88 -3.37986 4.63075 0
M  V30 34530 H 3258.28 -2.89542 5.25628 0
M  V30 34531 H 3259.35 -1.66952 4.55253 0
M  V30 34532 N 3260.69 -1.42222 -0.679027 0
M  V30 34533 C 3261.97 -1.3295 -1.4347 0
M  V30 34534 C 3262.35 0.0351318 -2.11071 0
M  V30 34535 O 3261.69 1.05039 -2.02926 0
M  V30 34536 C 3261.9 -2.4947 -2.44061 0
M  V30 34537 C 3263.25 -2.91393 -3.08829 0
M  V30 34538 O 3264.28 -2.4933 -2.54388 0
M  V30 34539 O 3263.13 -3.64182 -4.07472 0
M  V30 34540 H 3260.23 -0.524089 -0.639734 0
M  V30 34541 H 3262.77 -1.5422 -0.708107 0
M  V30 34542 H 3261.55 -3.40461 -1.92878 0
M  V30 34543 H 3261.17 -2.30163 -3.24208 0
M  V30 34544 N 3262.17 0.91492 -1.28324 0
M  V30 34545 C 3263.39 1.70302 -1.18373 0
M  V30 34546 C 3263.82 1.86374 0.254258 0
M  V30 34547 O 3263.17 1.37303 1.18395 0
M  V30 34548 C 3263.22 3.07342 -1.88608 0
M  V30 34549 O 3262.33 3.94775 -1.19275 0
M  V30 34550 H 3261.67 0.521522 -0.410987 0
M  V30 34551 H 3264.2 1.14406 -1.69624 0
M  V30 34552 H 3264.21 3.57581 -1.96469 0
M  V30 34553 H 3262.88 2.94962 -2.93207 0
M  V30 34554 H 3261.46 3.5321 -1.1957 0
M  V30 34555 N 3263.64 1.10553 1.1232 0
M  V30 34556 C 3264.89 0.84703 1.83493 0
M  V30 34557 C 3265.21 -0.629172 1.84571 0
M  V30 34558 O 3264.48 -1.45683 1.3097 0
M  V30 34559 H 3263.06 0.310363 0.679473 0
M  V30 34560 H 3265.73 1.39605 1.36002 0
M  V30 34561 H 3264.82 1.21097 2.87649 0
M  V30 34562 N 3265.12 -1.29758 0.894457 0
M  V30 34563 C 3266.03 -2.31621 0.372663 0
M  V30 34564 C 3267.05 -1.65734 -0.52993 0
M  V30 34565 O 3268.22 -1.96956 -0.420772 0
M  V30 34566 C 3265.29 -3.44431 -0.396015 0
M  V30 34567 C 3264.35 -4.25922 0.537469 0
M  V30 34568 C 3263.58 -5.33345 -0.194619 0
M  V30 34569 O 3263.81 -5.52459 -1.41934 0
M  V30 34570 O 3262.74 -6.00138 0.46016 0
M  V30 34571 H 3266.57 -2.78223 1.21761 0
M  V30 34572 H 3264.15 -1.341 0.658604 0
M  V30 34573 H 3266.03 -4.13127 -0.830889 0
M  V30 34574 H 3264.71 -2.99947 -1.21711 0
M  V30 34575 H 3263.62 -3.59888 1.02135 0
M  V30 34576 H 3264.95 -4.74035 1.32483 0
M  V30 34577 N 3266.6 -0.65639 -1.4328 0
M  V30 34578 C 3267.83 -0.178656 -2.05826 0
M  V30 34579 C 3268.24 1.16213 -1.49302 0
M  V30 34580 O 3267.58 1.72914 -0.620193 0
M  V30 34581 C 3267.64 -0.0164732 -3.59496 0
M  V30 34582 C 3267.31 -1.28306 -4.38619 0
M  V30 34583 C 3268.3 -2.21249 -4.70473 0
M  V30 34584 C 3265.99 -1.52553 -4.78574 0
M  V30 34585 C 3267.98 -3.3673 -5.41194 0
M  V30 34586 C 3265.67 -2.68326 -5.49039 0
M  V30 34587 C 3266.67 -3.6024 -5.80272 0
M  V30 34588 O 3266.36 -4.73992 -6.49297 0
M  V30 34589 H 3266.09 -0.0886932 -0.670156 0
M  V30 34590 H 3268.64 -0.898192 -1.84721 0
M  V30 34591 H 3266.87 0.758465 -3.79189 0
M  V30 34592 H 3268.56 0.419025 -4.03731 0
M  V30 34593 H 3269.33 -2.0376 -4.40121 0
M  V30 34594 H 3265.21 -0.818895 -4.53668 0
M  V30 34595 H 3268.75 -4.08493 -5.6549 0
M  V30 34596 H 3264.65 -2.85748 -5.78808 0
M  V30 34597 H 3265.42 -4.73298 -6.67781 0
M  V30 34598 N 3268.08 1.52478 -0.398513 0
M  V30 34599 C 3269.33 2.01991 0.180984 0
M  V30 34600 C 3269.66 1.28408 1.45688 0
M  V30 34601 O 3268.93 0.387241 1.90606 0
M  V30 34602 C 3269.22 3.57408 0.439525 0
M  V30 34603 C 3269.07 4.41651 -0.852308 0
M  V30 34604 C 3270.39 4.22672 1.22623 0
M  V30 34605 H 3267.51 0.734189 0.0643035 0
M  V30 34606 H 3270.15 1.82461 -0.529892 0
M  V30 34607 H 3268.3 3.74179 1.04509 0
M  V30 34608 H 3269.97 4.36612 -1.48887 0
M  V30 34609 H 3268.21 4.08292 -1.46562 0
M  V30 34610 H 3268.89 5.4844 -0.625936 0
M  V30 34611 H 3271.36 4.09934 0.71365 0
M  V30 34612 H 3270.24 5.31377 1.37587 0
M  V30 34613 H 3270.5 3.80918 2.24396 0
M  V30 34614 N 3269.56 0.128608 1.57074 0
M  V30 34615 C 3270.8 -0.530024 1.97408 0
M  V30 34616 C 3271.16 -1.63232 1.0109 0
M  V30 34617 O 3272.36 -2.35053 1.30398 0
M  V30 34618 C 3270.63 -1.04015 3.41929 0
M  V30 34619 S 3272.19 -1.70596 4.0428 0
M  V30 34620 H 3269.01 -0.171978 0.689887 0
M  V30 34621 H 3271.61 0.215967 1.94303 0
M  V30 34622 H 3270.32 -0.226856 4.09773 0
M  V30 34623 H 3269.85 -1.82119 3.48706 0
M  V30 34624 H 3271.86 -2.99228 3.95825 0
M  V30 34625 N 3271.04 -1.5693 -0.145178 0
M  V30 34626 C 3272.28 -1.83721 -0.858754 0
M  V30 34627 C 3272.61 -0.710484 -1.80737 0
M  V30 34628 O 3271.89 0.285757 -1.92389 0
M  V30 34629 C 3272.17 -3.21013 -1.63164 0
M  V30 34630 C 3272.03 -4.4425 -0.704393 0
M  V30 34631 C 3273.34 -3.55548 -2.59371 0
M  V30 34632 H 3270.46 -0.668286 -0.310746 0
M  V30 34633 H 3273.11 -1.89596 -0.123885 0
M  V30 34634 H 3271.26 -3.16136 -2.25811 0
M  V30 34635 H 3272.93 -4.61215 -0.0887889 0
M  V30 34636 H 3271.17 -4.33798 -0.014093 0
M  V30 34637 H 3271.84 -5.36924 -1.28126 0
M  V30 34638 H 3274.32 -3.61048 -2.06842 0
M  V30 34639 H 3273.19 -4.52639 -3.10498 0
M  V30 34640 H 3273.45 -2.816 -3.40814 0
M  V30 34641 N 3272.51 0.414582 -1.52049 0
M  V30 34642 C 3273.48 1.48737 -1.74384 0
M  V30 34643 C 3274.48 1.48627 -0.613728 0
M  V30 34644 O 3275.67 1.50248 -0.881547 0
M  V30 34645 C 3272.8 2.88175 -1.82121 0
M  V30 34646 H 3273.99 1.30228 -2.70149 0
M  V30 34647 H 3271.54 0.644731 -1.42383 0
M  V30 34648 H 3272.28 3.12061 -0.882511 0
M  V30 34649 H 3272.06 2.89658 -2.64274 0
M  V30 34650 H 3273.55 3.65956 -2.01162 0
M  V30 34651 N 3273.99 1.4258 0.671475 0
M  V30 34652 C 3275.41 1.25579 0.984997 0
M  V30 34653 C 3275.61 0.162354 2.00845 0
M  V30 34654 O 3274.66 -0.465308 2.48176 0
M  V30 34655 C 3275.98 2.6138 1.48664 0
M  V30 34656 C 3277.52 2.68762 1.60424 0
M  V30 34657 C 3278 4.04938 2.13984 0
M  V30 34658 N 3279.49 4.06909 2.21312 0
M  V30 34659 C 3280.23 5.09096 2.63836 0
M  V30 34660 N 3279.72 6.21663 3.05788 0
M  V30 34661 N 3281.51 4.96452 2.63614 0
M  V30 34662 H 3273.67 2.12399 -0.00608295 0
M  V30 34663 H 3275.93 0.946111 0.0598133 0
M  V30 34664 H 3275.63 3.42266 0.80911 0
M  V30 34665 H 3275.51 2.85528 2.46482 0
M  V30 34666 H 3277.9 1.8822 2.27283 0
M  V30 34667 H 3277.98 2.48399 0.610866 0
M  V30 34668 H 3277.62 4.8594 1.47733 0
M  V30 34669 H 3277.55 4.22655 3.14118 0
M  V30 34670 H 3280.04 3.25646 1.91737 0
M  V30 34671 H 3280.35 6.95483 3.36932 0
M  V30 34672 H 3278.7 6.25164 3.03637 0
M  V30 34673 H 3281.89 4.07583 2.30204 0
M  V30 34674 H 3282.06 5.76221 2.96434 0
M  V30 34675 N 3275.47 -0.908102 1.28807 0
M  V30 34676 C 3276.42 -2.03259 1.13086 0
M  V30 34677 C 3277.41 -1.6933 0.0486392 0
M  V30 34678 O 3278.62 -1.78796 0.207825 0
M  V30 34679 H 3274.99 -0.666074 0.349069 0
M  V30 34680 H 3276.96 -2.13659 2.08308 0
M  V30 34681 C 3275.71 -3.38004 0.815398 0
M  V30 34682 H 3275.04 -3.64609 1.64014 0
M  V30 34683 H 3276.48 -4.17397 0.745385 0
M  V30 34684 C 3274.93 -3.33448 -0.481072 0
M  V30 34685 O 3275.46 -3.72252 -1.50968 0
M  V30 34686 N 3273.67 -2.86543 -0.483862 0
M  V30 34687 H 3273.22 -2.55161 0.353638 0
M  V30 34688 H 3273.18 -2.83878 -1.35133 0
M  V30 34689 N 3276.95 -1.11147 -1.11732 0
M  V30 34690 C 3278.36 -0.874988 -1.64927 0
M  V30 34691 C 3278.71 0.593342 -1.87013 0
M  V30 34692 O 3277.83 1.45472 -1.60209 0
M  V30 34693 C 3278.43 -1.58183 -2.99606 0
M  V30 34694 C 3276.99 -1.39185 -3.4972 0
M  V30 34695 C 3276.14 -1.62646 -2.24592 0
M  V30 34696 H 3279.09 -1.26815 -0.954132 0
M  V30 34697 H 3279.11 -1.02508 -3.66432 0
M  V30 34698 H 3278.62 -2.65047 -2.83499 0
M  V30 34699 H 3276.72 -0.345176 -3.70998 0
M  V30 34700 H 3276.83 -2.13885 -4.28707 0
M  V30 34701 H 3275.2 -1.04965 -2.32065 0
M  V30 34702 H 3275.98 -2.70778 -2.11031 0
M  V30 34703 N 3278.43 1.29282 -0.901326 0
M  V30 34704 C 3279.65 2.00169 -0.542858 0
M  V30 34705 C 3280.08 1.67002 0.865553 0
M  V30 34706 O 3279.43 0.895529 1.57639 0
M  V30 34707 C 3279.48 3.5284 -0.744049 0
M  V30 34708 O 3278.59 4.11902 0.202699 0
M  V30 34709 H 3277.93 0.629276 -0.211914 0
M  V30 34710 H 3280.46 1.64738 -1.21336 0
M  V30 34711 H 3280.47 4.028 -0.64933 0
M  V30 34712 H 3279.14 3.76316 -1.77084 0
M  V30 34713 H 3277.72 3.72851 0.0602982 0
M  V30 34714 N 3279.9 0.663979 1.4293 0
M  V30 34715 C 3281.15 0.181414 2.01284 0
M  V30 34716 C 3281.47 -1.21263 1.5271 0
M  V30 34717 O 3280.74 -1.81213 0.744213 0
M  V30 34718 H 3279.32 0.0640777 0.744247 0
M  V30 34719 H 3281.98 0.858062 1.74995 0
M  V30 34720 H 3281.08 0.174328 3.11613 0
M  V30 34721 N 3281.38 -1.52265 0.406593 0
M  V30 34722 C 3282.66 -1.94261 -0.228443 0
M  V30 34723 C 3283.04 -1.3433 -1.62845 0
M  V30 34724 O 3282.39 -0.518121 -2.22548 0
M  V30 34725 C 3282.6 -3.48192 -0.23734 0
M  V30 34726 C 3283.94 -4.22123 -0.457922 0
M  V30 34727 O 3284.97 -3.54788 -0.316806 0
M  V30 34728 O 3283.83 -5.41523 -0.735851 0
M  V30 34729 H 3280.92 -0.813925 -0.146477 0
M  V30 34730 H 3283.47 -1.6328 0.462353 0
M  V30 34731 H 3282.24 -3.84188 0.742624 0
M  V30 34732 H 3281.86 -3.85527 -0.972341 0
M  V30 34733 N 3282.86 -0.136936 -1.57004 0
M  V30 34734 C 3284.14 0.5612 -1.87376 0
M  V30 34735 C 3284.52 1.83636 -1.0412 0
M  V30 34736 O 3283.87 2.28157 -0.125143 0
M  V30 34737 C 3284.08 0.836367 -3.3883 0
M  V30 34738 C 3285.42 1.18157 -4.07828 0
M  V30 34739 O 3286.45 0.92605 -3.43952 0
M  V30 34740 O 3285.31 1.66195 -5.20616 0
M  V30 34741 H 3282.4 0.285131 -0.776292 0
M  V30 34742 H 3284.95 -0.172791 -1.68818 0
M  V30 34743 H 3283.72 -0.0665108 -3.91243 0
M  V30 34744 H 3283.34 1.62489 -3.62882 0
M  V30 34745 N 3284.34 1.57005 0.136853 0
M  V30 34746 C 3285.57 1.8807 0.862403 0
M  V30 34747 C 3285.98 0.726258 1.74273 0
M  V30 34748 O 3285.34 -0.303629 1.79957 0
M  V30 34749 C 3285.39 3.18461 1.7107 0
M  V30 34750 O 3285.11 4.29459 0.865842 0
M  V30 34751 C 3286.61 3.6311 2.54296 0
M  V30 34752 H 3283.83 0.623148 0.248854 0
M  V30 34753 H 3286.38 2.04108 0.126597 0
M  V30 34754 H 3284.53 3.04146 2.39946 0
M  V30 34755 H 3284.94 5.04081 1.44921 0
M  V30 34756 H 3286.42 4.57155 3.09376 0
M  V30 34757 H 3286.9 2.88891 3.30815 0
M  V30 34758 H 3287.5 3.80153 1.90693 0
M  V30 34759 N 3285.82 -0.406513 1.52267 0
M  V30 34760 C 3286.76 -1.49547 1.75797 0
M  V30 34761 C 3287.73 -1.54865 0.600499 0
M  V30 34762 O 3288.92 -1.71396 0.838335 0
M  V30 34763 C 3286.06 -2.86967 1.91687 0
M  V30 34764 C 3285.17 -2.90938 3.19342 0
M  V30 34765 C 3284.31 -4.19674 3.25649 0
M  V30 34766 C 3283.35 -4.17629 4.47496 0
M  V30 34767 N 3282.48 -5.37941 4.5118 0
M  V30 34768 H 3287.32 -1.28784 2.68735 0
M  V30 34769 H 3284.86 -0.625078 1.33158 0
M  V30 34770 H 3286.82 -3.66744 1.98883 0
M  V30 34771 H 3285.45 -3.06219 1.02126 0
M  V30 34772 H 3284.5 -2.03637 3.21304 0
M  V30 34773 H 3285.81 -2.85292 4.09158 0
M  V30 34774 H 3284.97 -5.07845 3.31931 0
M  V30 34775 H 3283.7 -4.28019 2.33776 0
M  V30 34776 H 3282.71 -3.27848 4.41357 0
M  V30 34777 H 3283.93 -4.10922 5.40666 0
M  V30 34778 H 3281.88 -5.46949 3.62192 0
M  V30 34779 H 3281.8 -5.34301 5.34845 0
M  V30 34780 H 3283.07 -6.28058 4.61696 0
M  V30 34781 N 3287.29 -1.42934 -0.663904 0
M  V30 34782 C 3288.23 -1.41702 -1.78873 0
M  V30 34783 C 3289.21 -0.279838 -1.60174 0
M  V30 34784 O 3290.39 -0.471767 -1.82501 0
M  V30 34785 C 3287.52 -1.21836 -3.16028 0
M  V30 34786 C 3286.56 -2.38691 -3.53453 0
M  V30 34787 S 3287.4 -4.01236 -3.54641 0
M  V30 34788 C 3288.55 -3.83732 -4.9447 0
M  V30 34789 H 3288.78 -2.36886 -1.79646 0
M  V30 34790 H 3286.32 -1.29837 -0.835573 0
M  V30 34791 H 3288.28 -1.1106 -3.95191 0
M  V30 34792 H 3286.94 -0.282194 -3.1283 0
M  V30 34793 H 3286.13 -2.20567 -4.53174 0
M  V30 34794 H 3285.73 -2.46037 -2.81677 0
M  V30 34795 H 3288.02 -3.45396 -5.82845 0
M  V30 34796 H 3288.97 -4.83167 -5.17644 0
M  V30 34797 H 3289.37 -3.1639 -4.67501 0
M  V30 34798 N 3288.77 0.901258 -1.29287 0
M  V30 34799 C 3290 1.68265 -1.19877 0
M  V30 34800 C 3290.41 1.87628 0.243354 0
M  V30 34801 O 3289.75 1.41211 1.17495 0
M  V30 34802 C 3289.82 3.08896 -1.83912 0
M  V30 34803 C 3289.48 3.12769 -3.33203 0
M  V30 34804 C 3290.48 2.93032 -4.29451 0
M  V30 34805 C 3288.16 3.34885 -3.74376 0
M  V30 34806 C 3290.16 2.95342 -5.64847 0
M  V30 34807 C 3287.84 3.36825 -5.09894 0
M  V30 34808 C 3288.84 3.17076 -6.0494 0
M  V30 34809 O 3288.53 3.18802 -7.37984 0
M  V30 34810 H 3288.26 0.532364 -0.41661 0
M  V30 34811 H 3290.81 1.13555 -1.71156 0
M  V30 34812 H 3289.04 3.65201 -1.27142 0
M  V30 34813 H 3290.73 3.69115 -1.68846 0
M  V30 34814 H 3291.5 2.7576 -3.98975 0
M  V30 34815 H 3287.38 3.49298 -3.00852 0
M  V30 34816 H 3290.92 2.79845 -6.39009 0
M  V30 34817 H 3286.82 3.53629 -5.40016 0
M  V30 34818 H 3287.59 3.35079 -7.46769 0
M  V30 34819 N 3290.25 1.11738 1.11141 0
M  V30 34820 C 3291.2 0.778551 2.17272 0
M  V30 34821 C 3292.17 -0.251376 1.64187 0
M  V30 34822 O 3293.35 -0.127595 1.90373 0
M  V30 34823 C 3290.49 0.231306 3.44324 0
M  V30 34824 C 3289.61 1.31817 4.11398 0
M  V30 34825 C 3288.74 0.731132 5.26144 0
M  V30 34826 C 3287.78 1.79763 5.85108 0
M  V30 34827 N 3286.92 1.22985 6.91245 0
M  V30 34828 H 3291.76 1.68774 2.456 0
M  V30 34829 H 3289.29 0.84278 1.20564 0
M  V30 34830 H 3291.25 -0.103971 4.1707 0
M  V30 34831 H 3289.88 -0.641064 3.1637 0
M  V30 34832 H 3288.93 1.77035 3.36694 0
M  V30 34833 H 3290.25 2.12493 4.51274 0
M  V30 34834 H 3289.4 0.346093 6.05712 0
M  V30 34835 H 3288.14 -0.106914 4.87583 0
M  V30 34836 H 3287.14 2.19194 5.04216 0
M  V30 34837 H 3288.37 2.63876 6.25737 0
M  V30 34838 H 3286.31 0.413505 6.54695 0
M  V30 34839 H 3286.23 1.97329 7.29793 0
M  V30 34840 H 3287.5 0.871806 7.74609 0
M  V30 34841 N 3291.73 -1.28802 0.90817 0
M  V30 34842 C 3292.66 -2.29887 0.409146 0
M  V30 34843 C 3293.64 -1.61947 -0.52031 0
M  V30 34844 O 3294.82 -1.89397 -0.429235 0
M  V30 34845 C 3291.95 -3.45464 -0.356629 0
M  V30 34846 C 3290.91 -4.25264 0.483175 0
M  V30 34847 C 3290.23 -5.33121 -0.410606 0
M  V30 34848 C 3291.53 -4.92552 1.73753 0
M  V30 34849 H 3293.23 -2.71878 1.25391 0
M  V30 34850 H 3290.77 -1.30702 0.604391 0
M  V30 34851 H 3292.73 -4.15263 -0.716537 0
M  V30 34852 H 3291.45 -3.02339 -1.23525 0
M  V30 34853 H 3290.11 -3.57184 0.825527 0
M  V30 34854 H 3289.76 -4.8624 -1.28761 0
M  V30 34855 H 3289.46 -5.87414 0.147663 0
M  V30 34856 H 3290.98 -6.0577 -0.766519 0
M  V30 34857 H 3292.4 -5.54742 1.44686 0
M  V30 34858 H 3290.79 -5.56816 2.23777 0
M  V30 34859 H 3291.86 -4.17359 2.4686 0
M  V30 34860 N 3293.21 -0.67155 -1.42576 0
M  V30 34861 C 3294.48 -0.121563 -1.95222 0
M  V30 34862 C 3294.86 1.36287 -1.61212 0
M  V30 34863 O 3294.21 2.09745 -0.906598 0
M  V30 34864 C 3294.42 -0.38725 -3.46845 0
M  V30 34865 C 3295.77 -0.302012 -4.23525 0
M  V30 34866 O 3296.79 -0.320817 -3.54752 0
M  V30 34867 O 3295.65 -0.241413 -5.45967 0
M  V30 34868 H 3292.75 -0.000983152 -0.826999 0
M  V30 34869 H 3295.29 -0.746055 -1.52421 0
M  V30 34870 H 3294.06 -1.41569 -3.64793 0
M  V30 34871 H 3293.69 0.269411 -3.96686 0
M  V30 34872 N 3294.68 1.52047 -0.414663 0
M  V30 34873 C 3295.93 2.02171 0.15955 0
M  V30 34874 C 3296.26 1.29946 1.44318 0
M  V30 34875 O 3295.54 0.407435 1.90185 0
M  V30 34876 C 3295.82 3.57854 0.401592 0
M  V30 34877 C 3295.67 4.40722 -0.899103 0
M  V30 34878 C 3296.99 4.23949 1.18133 0
M  V30 34879 H 3294.11 0.73483 0.0565128 0
M  V30 34880 H 3296.75 1.81889 -0.549215 0
M  V30 34881 H 3294.9 3.75267 1.00534 0
M  V30 34882 H 3296.58 4.35009 -1.53509 0
M  V30 34883 H 3294.82 4.06714 -1.50884 0
M  V30 34884 H 3295.49 5.47745 -0.68407 0
M  V30 34885 H 3297.97 4.10668 0.670131 0
M  V30 34886 H 3296.84 5.32806 1.31943 0
M  V30 34887 H 3297.1 3.83277 2.20344 0
M  V30 34888 N 3296.16 0.145261 1.56929 0
M  V30 34889 C 3297.41 -0.507036 1.96359 0
M  V30 34890 C 3297.74 -1.6463 1.03008 0
M  V30 34891 O 3297.02 -1.94366 0.0721387 0
M  V30 34892 C 3297.3 -1.01486 3.45503 0
M  V30 34893 C 3297.15 0.122787 4.49632 0
M  V30 34894 C 3298.47 -1.89722 3.97107 0
M  V30 34895 H 3295.59 -0.182835 0.713961 0
M  V30 34896 H 3298.23 0.226135 1.88649 0
M  V30 34897 H 3296.38 -1.63964 3.52205 0
M  V30 34898 H 3298.05 0.759068 4.55012 0
M  V30 34899 H 3296.3 0.782184 4.2669 0
M  V30 34900 H 3296.97 -0.274223 5.51318 0
M  V30 34901 H 3299.44 -1.37075 3.92873 0
M  V30 34902 H 3298.32 -2.22164 5.01931 0
M  V30 34903 H 3298.58 -2.83352 3.39359 0
M  V30 34904 N 3297.64 -1.57075 -0.128525 0
M  V30 34905 C 3298.87 -1.88894 -0.856367 0
M  V30 34906 C 3299.29 -0.736226 -1.73093 0
M  V30 34907 O 3298.65 0.313597 -1.78567 0
M  V30 34908 C 3298.7 -3.19409 -1.67362 0
M  V30 34909 O 3297.8 -3.04644 -2.77967 0
M  V30 34910 H 3297.14 -0.620106 -0.237413 0
M  V30 34911 H 3299.67 -2.04283 -0.113785 0
M  V30 34912 H 3299.68 -3.51893 -2.06484 0
M  V30 34913 H 3298.36 -4.02905 -1.03154 0
M  V30 34914 H 3296.93 -2.83608 -2.42118 0
M  V30 34915 N 3299.12 0.398432 -1.5248 0
M  V30 34916 C 3300.07 1.48612 -1.76587 0
M  V30 34917 C 3301.04 1.54545 -0.608704 0
M  V30 34918 O 3302.22 1.70949 -0.847413 0
M  V30 34919 C 3299.36 2.85947 -1.93206 0
M  V30 34920 C 3298.47 2.8924 -3.2088 0
M  V30 34921 C 3297.61 4.17941 -3.2787 0
M  V30 34922 C 3296.65 4.1525 -4.49704 0
M  V30 34923 N 3295.79 5.35541 -4.54027 0
M  V30 34924 H 3300.63 1.27357 -2.69414 0
M  V30 34925 H 3298.16 0.618008 -1.33488 0
M  V30 34926 H 3300.12 3.65684 -2.00825 0
M  V30 34927 H 3298.75 3.05673 -1.03749 0
M  V30 34928 H 3297.8 2.0193 -3.22379 0
M  V30 34929 H 3299.11 2.83118 -4.10665 0
M  V30 34930 H 3298.27 5.06077 -3.3462 0
M  V30 34931 H 3297.01 4.26773 -2.36043 0
M  V30 34932 H 3296.01 3.25503 -4.43089 0
M  V30 34933 H 3297.24 4.08049 -5.42838 0
M  V30 34934 H 3295.18 5.4502 -3.65088 0
M  V30 34935 H 3295.1 5.31457 -5.37671 0
M  V30 34936 H 3296.37 6.25601 -4.6502 0
M  V30 34937 N 3300.6 1.43284 0.656314 0
M  V30 34938 C 3302.01 1.39803 1.23742 0
M  V30 34939 C 3302.36 0.100541 1.95942 0
M  V30 34940 O 3301.48 -0.800125 2.01065 0
M  V30 34941 C 3302.08 2.53248 2.25058 0
M  V30 34942 C 3300.64 2.53041 2.78652 0
M  V30 34943 C 3299.79 2.31107 1.53247 0
M  V30 34944 H 3302.74 1.5223 0.448526 0
M  V30 34945 H 3302.76 2.24559 3.0717 0
M  V30 34946 H 3302.27 3.47667 1.7248 0
M  V30 34947 H 3300.37 1.62493 3.35301 0
M  V30 34948 H 3300.48 3.50706 3.26408 0
M  V30 34949 H 3298.85 1.79716 1.80484 0
M  V30 34950 H 3299.63 3.27607 1.02609 0
M  V30 34951 N 3302.08 -0.894389 1.29763 0
M  V30 34952 C 3303.49 -1.4607 1.16278 0
M  V30 34953 C 3303.84 -1.94725 -0.240089 0
M  V30 34954 O 3302.96 -1.84183 -1.13603 0
M  V30 34955 C 3303.56 -2.65491 2.10476 0
M  V30 34956 C 3302.12 -3.18241 2.00997 0
M  V30 34957 C 3301.26 -1.90932 2.01098 0
M  V30 34958 H 3304.21 -0.705219 1.4217 0
M  V30 34959 H 3304.24 -3.41399 1.68009 0
M  V30 34960 H 3303.75 -2.30048 3.1257 0
M  V30 34961 H 3301.85 -3.58364 1.02011 0
M  V30 34962 H 3301.96 -3.82179 2.88923 0
M  V30 34963 H 3300.33 -2.08863 1.45768 0
M  V30 34964 H 3301.11 -1.57759 3.04905 0
M  V30 34965 N 3303.55 -1.12326 -1.10547 0
M  V30 34966 C 3304.48 -0.812454 -2.1891 0
M  V30 34967 C 3305.46 0.223241 -1.68629 0
M  V30 34968 O 3306.65 0.0846843 -1.94015 0
M  V30 34969 C 3303.78 -0.265008 -3.46287 0
M  V30 34970 C 3302.73 -1.23363 -4.09836 0
M  V30 34971 C 3302.06 -0.546467 -5.319 0
M  V30 34972 C 3303.36 -2.58786 -4.53682 0
M  V30 34973 H 3305.05 -1.71855 -2.45166 0
M  V30 34974 H 3302.6 -0.827735 -1.17833 0
M  V30 34975 H 3304.55 -0.0353105 -4.21385 0
M  V30 34976 H 3303.28 0.676423 -3.19519 0
M  V30 34977 H 3301.94 -1.44912 -3.36743 0
M  V30 34978 H 3301.58 0.400068 -5.01406 0
M  V30 34979 H 3301.28 -1.19259 -5.7537 0
M  V30 34980 H 3302.81 -0.32578 -6.0973 0
M  V30 34981 H 3304.22 -2.41272 -5.20058 0
M  V30 34982 H 3302.62 -3.19466 -5.07998 0
M  V30 34983 H 3303.69 -3.17315 -3.66659 0
M  V30 34984 N 3305.03 1.28319 -0.914988 0
M  V30 34985 C 3306.28 1.94207 -0.544673 0
M  V30 34986 C 3306.59 1.72808 0.916338 0
M  V30 34987 O 3307.8 2.32929 1.39486 0
M  V30 34988 C 3306.26 3.47856 -0.92327 0
M  V30 34989 C 3305.86 3.78031 -2.40409 0
M  V30 34990 C 3307.61 4.19895 -0.6236 0
M  V30 34991 C 3305.51 5.24995 -2.72275 0
M  V30 34992 H 3304.44 0.726997 -0.199979 0
M  V30 34993 H 3307.1 1.4581 -1.11407 0
M  V30 34994 H 3305.48 3.9499 -0.282645 0
M  V30 34995 H 3306.65 3.41701 -3.09155 0
M  V30 34996 H 3304.97 3.19167 -2.67435 0
M  V30 34997 H 3307.56 5.28087 -0.838336 0
M  V30 34998 H 3307.91 4.13983 0.438648 0
M  V30 34999 H 3308.44 3.78542 -1.22275 0
M  V30 35000 H 3305.18 5.35986 -3.77358 0
M  V30 35001 H 3304.7 5.62518 -2.08167 0
M  V30 35002 H 3306.38 5.92747 -2.59345 0
M  V30 35003 N 3306.51 0.679102 1.42218 0
M  V30 35004 C 3307.46 -0.00815939 2.32599 0
M  V30 35005 C 3308.45 -0.78602 1.5006 0
M  V30 35006 O 3309.66 -0.693498 1.66104 0
M  V30 35007 H 3306.03 -0.021435 0.751694 0
M  V30 35008 H 3308 0.77143 2.88256 0
M  V30 35009 C 3306.75 -0.942522 3.34682 0
M  V30 35010 H 3306.08 -0.353393 3.98235 0
M  V30 35011 H 3307.52 -1.39201 4.00499 0
M  V30 35012 C 3305.97 -2.05094 2.67279 0
M  V30 35013 O 3306.5 -3.13789 2.50798 0
M  V30 35014 N 3304.71 -1.8239 2.26235 0
M  V30 35015 H 3304.26 -0.93994 2.39839 0
M  V30 35016 H 3304.22 -2.56741 1.8147 0
M  V30 35017 N 3307.99 -1.51825 0.42272 0
M  V30 35018 C 3309.24 -2.01555 -0.148312 0
M  V30 35019 C 3309.56 -1.30959 -1.44481 0
M  V30 35020 O 3308.83 -0.439633 -1.90903 0
M  V30 35021 H 3307.41 -0.744761 -0.0577985 0
M  V30 35022 H 3310.07 -1.86619 0.562079 0
M  V30 35023 H 3309.16 -3.103 -0.334711 0
M  V30 35024 N 3309.47 -0.153581 -1.5685 0
M  V30 35025 C 3310.4 0.779562 -2.20102 0
M  V30 35026 C 3311.38 1.25223 -1.15123 0
M  V30 35027 O 3312.56 1.3086 -1.4349 0
M  V30 35028 C 3309.69 2.01623 -2.82782 0
M  V30 35029 C 3308.65 1.68009 -3.93646 0
M  V30 35030 C 3307.97 2.98993 -4.43291 0
M  V30 35031 C 3309.27 0.921684 -5.14103 0
M  V30 35032 H 3310.97 0.25238 -2.98334 0
M  V30 35033 H 3308.51 0.11995 -1.435 0
M  V30 35034 H 3310.46 2.67389 -3.25701 0
M  V30 35035 H 3309.19 2.56724 -2.01891 0
M  V30 35036 H 3307.85 1.04618 -3.51356 0
M  V30 35037 H 3307.5 3.52099 -3.59215 0
M  V30 35038 H 3307.2 2.77263 -5.18072 0
M  V30 35039 H 3308.72 3.6582 -4.88885 0
M  V30 35040 H 3310.13 1.48157 -5.53825 0
M  V30 35041 H 3308.53 0.80408 -5.94689 0
M  V30 35042 H 3309.6 -0.085361 -4.84825 0
M  V30 35043 N 3310.94 1.57141 0.120193 0
M  V30 35044 C 3312.17 1.887 0.841186 0
M  V30 35045 C 3312.58 0.7428 1.74009 0
M  V30 35046 O 3311.92 -0.295465 1.81308 0
M  V30 35047 C 3311.99 3.1526 1.72776 0
M  V30 35048 C 3311.65 4.45851 1.00328 0
M  V30 35049 C 3312.65 5.18756 0.344643 0
M  V30 35050 C 3310.33 4.92551 0.984812 0
M  V30 35051 C 3312.33 6.36582 -0.322776 0
M  V30 35052 C 3310.01 6.10295 0.313594 0
M  V30 35053 C 3311.01 6.82158 -0.339046 0
M  V30 35054 O 3310.7 7.97662 -0.999557 0
M  V30 35055 H 3310.43 0.629187 0.247184 0
M  V30 35056 H 3312.99 2.05108 0.109506 0
M  V30 35057 H 3311.22 2.94931 2.50105 0
M  V30 35058 H 3312.9 3.32849 2.32307 0
M  V30 35059 H 3313.67 4.83732 0.350538 0
M  V30 35060 H 3309.55 4.36521 1.48223 0
M  V30 35061 H 3313.09 6.92612 -0.832765 0
M  V30 35062 H 3308.99 6.44777 0.305459 0
M  V30 35063 H 3309.76 8.13493 -0.903913 0
M  V30 35064 N 3312.42 -0.39034 1.5269 0
M  V30 35065 C 3313.65 -1.15675 1.71543 0
M  V30 35066 C 3314.07 -1.83763 0.433204 0
M  V30 35067 O 3313.42 -1.72624 -0.592218 0
M  V30 35068 C 3313.47 -2.20579 2.86404 0
M  V30 35069 O 3313.19 -1.55267 4.09663 0
M  V30 35070 C 3314.7 -3.09957 3.16925 0
M  V30 35071 H 3311.92 -0.346873 0.574387 0
M  V30 35072 H 3314.46 -0.456816 1.99332 0
M  V30 35073 H 3312.61 -2.8621 2.6108 0
M  V30 35074 H 3313.03 -2.24962 4.73806 0
M  V30 35075 H 3314.5 -3.79597 4.00762 0
M  V30 35076 H 3314.98 -3.73389 2.31252 0
M  V30 35077 H 3315.59 -2.49973 3.44084 0
M  V30 35078 N 3313.9 -1.4363 -0.648706 0
M  V30 35079 C 3314.85 -1.49412 -1.78266 0
M  V30 35080 C 3315.84 -0.367317 -1.6537 0
M  V30 35081 O 3317.05 -0.541506 -1.71662 0
M  V30 35082 H 3313.42 -0.468495 -0.588232 0
M  V30 35083 H 3315.39 -2.44886 -1.7051 0
M  V30 35084 C 3314.14 -1.43861 -3.16543 0
M  V30 35085 H 3313.47 -2.29874 -3.27106 0
M  V30 35086 H 3314.91 -1.51968 -3.9583 0
M  V30 35087 C 3313.37 -0.156838 -3.36535 0
M  V30 35088 O 3313.9 0.780054 -3.94053 0
M  V30 35089 N 3312.1 -0.065583 -2.90526 0
M  V30 35090 H 3311.65 -0.828811 -2.43903 0
M  V30 35091 H 3311.61 0.791325 -3.04278 0
M  V30 35092 N 3315.38 0.887495 -1.30236 0
M  V30 35093 C 3316.79 1.17035 -1.08512 0
M  V30 35094 C 3316.99 2.00897 0.155752 0
M  V30 35095 O 3316.05 2.3776 0.850081 0
M  V30 35096 C 3317.36 1.87947 -2.34727 0
M  V30 35097 C 3318.91 2.00722 -2.40166 0
M  V30 35098 C 3319.39 2.75045 -3.66216 0
M  V30 35099 N 3320.88 2.82592 -3.67009 0
M  V30 35100 C 3321.61 3.40668 -4.6123 0
M  V30 35101 N 3321.11 3.99813 -5.65793 0
M  V30 35102 N 3322.9 3.38459 -4.48778 0
M  V30 35103 H 3315.05 0.32826 -2.09848 0
M  V30 35104 H 3317.32 0.207964 -0.924908 0
M  V30 35105 H 3317.02 1.33768 -3.25268 0
M  V30 35106 H 3316.9 2.88346 -2.4318 0
M  V30 35107 H 3319.28 2.54072 -1.50105 0
M  V30 35108 H 3319.36 0.994176 -2.3569 0
M  V30 35109 H 3319.01 2.22368 -4.56634 0
M  V30 35110 H 3318.94 3.7672 -3.67953 0
M  V30 35111 H 3321.43 2.40597 -2.91413 0
M  V30 35112 H 3321.74 4.42186 -6.33791 0
M  V30 35113 H 3320.09 3.9824 -5.69588 0
M  V30 35114 H 3323.28 2.91479 -3.66275 0
M  V30 35115 H 3323.45 3.83424 -5.22389 0
M  V30 35116 N 3316.86 1.12911 1.0995 0
M  V30 35117 C 3318.08 0.910516 1.85788 0
M  V30 35118 C 3318.5 -0.540452 1.80899 0
M  V30 35119 O 3317.86 -1.37387 1.20129 0
M  V30 35120 C 3317.91 1.38335 3.33985 0
M  V30 35121 O 3317.63 2.77745 3.38806 0
M  V30 35122 C 3319.13 1.20241 4.26681 0
M  V30 35123 H 3316.35 0.325036 0.58702 0
M  V30 35124 H 3318.89 1.50032 1.38963 0
M  V30 35125 H 3317.05 0.836658 3.78258 0
M  V30 35126 H 3317.46 2.9861 4.31199 0
M  V30 35127 H 3318.94 1.58207 5.28843 0
M  V30 35128 H 3319.41 0.143517 4.38965 0
M  V30 35129 H 3320.02 1.73686 3.88218 0
M  V30 35130 N 3318.33 -1.27832 0.92178 0
M  V30 35131 C 3319.58 -1.94917 0.559941 0
M  V30 35132 C 3319.91 -1.72321 -0.895502 0
M  V30 35133 O 3319.19 -1.04882 -1.63798 0
M  V30 35134 C 3319.47 -3.49194 0.879519 0
M  V30 35135 C 3319.32 -3.81158 2.38828 0
M  V30 35136 C 3320.64 -4.38445 0.38126 0
M  V30 35137 H 3317.76 -0.707943 0.204906 0
M  V30 35138 H 3320.4 -1.51056 1.15248 0
M  V30 35139 H 3318.55 -3.86684 0.375245 0
M  V30 35140 H 3320.23 -3.53493 2.96379 0
M  V30 35141 H 3318.47 -3.27918 2.83994 0
M  V30 35142 H 3319.14 -4.88921 2.56242 0
M  V30 35143 H 3321.62 -4.08073 0.81336 0
M  V30 35144 H 3320.49 -5.45228 0.633874 0
M  V30 35145 H 3320.75 -4.36221 -0.718575 0
M  V30 35146 N 3319.81 -0.686634 -1.41856 0
M  V30 35147 C 3321.06 -0.210986 -2.00593 0
M  V30 35148 C 3321.37 1.19338 -1.54977 0
M  V30 35149 O 3322.58 1.76603 -2.06213 0
M  V30 35150 C 3321.04 -0.326324 -3.58418 0
M  V30 35151 C 3320.64 -1.73549 -4.13019 0
M  V30 35152 C 3322.39 0.090007 -4.24405 0
M  V30 35153 C 3320.3 -1.80296 -5.63247 0
M  V30 35154 H 3319.23 -0.0751209 -0.750249 0
M  V30 35155 H 3321.88 -0.853536 -1.62441 0
M  V30 35156 H 3320.26 0.384325 -3.94131 0
M  V30 35157 H 3321.43 -2.47418 -3.88743 0
M  V30 35158 H 3319.75 -2.10071 -3.59526 0
M  V30 35159 H 3322.34 0.05991 -5.34666 0
M  V30 35160 H 3322.69 1.12726 -4.00747 0
M  V30 35161 H 3323.22 -0.570049 -3.93694 0
M  V30 35162 H 3319.96 -2.82044 -5.91719 0
M  V30 35163 H 3319.48 -1.108 -5.89477 0
M  V30 35164 H 3321.16 -1.56178 -6.27867 0
M  V30 35165 N 3321.29 1.51599 -0.430766 0
M  V30 35166 C 3322.24 2.27583 0.383984 0
M  V30 35167 C 3323.21 1.30896 1.02251 0
M  V30 35168 O 3324.39 1.5979 1.04267 0
M  V30 35169 C 3321.53 3.11617 1.48286 0
M  V30 35170 C 3320.65 4.2329 0.863113 0
M  V30 35171 C 3319.78 4.94645 1.93648 0
M  V30 35172 C 3318.82 5.98248 1.29482 0
M  V30 35173 N 3317.96 6.63036 2.30927 0
M  V30 35174 H 3322.8 2.96771 -0.270366 0
M  V30 35175 H 3320.33 1.46382 -0.145174 0
M  V30 35176 H 3322.29 3.5866 2.13118 0
M  V30 35177 H 3320.92 2.44557 2.10693 0
M  V30 35178 H 3319.97 3.8026 0.10326 0
M  V30 35179 H 3321.29 4.97538 0.354588 0
M  V30 35180 H 3320.44 5.45202 2.66158 0
M  V30 35181 H 3319.18 4.20013 2.47872 0
M  V30 35182 H 3318.18 5.4699 0.555166 0
M  V30 35183 H 3319.41 6.74834 0.760004 0
M  V30 35184 H 3317.35 5.91221 2.84243 0
M  V30 35185 H 3317.27 7.33028 1.84948 0
M  V30 35186 H 3318.54 7.18225 3.0294 0
M  V30 35187 N 3322.77 0.161897 1.56766 0
M  V30 35188 C 3323.73 -0.758066 2.16301 0
M  V30 35189 C 3324.73 -1.16476 1.10861 0
M  V30 35190 O 3325.92 -1.08325 1.36424 0
M  V30 35191 C 3323.05 -2.03062 2.73822 0
M  V30 35192 H 3324.25 -0.239939 2.98939 0
M  V30 35193 H 3321.8 -0.0876258 1.56054 0
M  V30 35194 H 3322.53 -2.59206 1.94892 0
M  V30 35195 H 3322.32 -1.74807 3.50977 0
M  V30 35196 H 3323.81 -2.68735 3.19642 0
M  V30 35197 N 3324.25 -1.57203 -0.111858 0
M  V30 35198 C 3325.47 -1.89418 -0.832374 0
M  V30 35199 C 3325.89 -0.753891 -1.73095 0
M  V30 35200 O 3325.25 0.274961 -1.80417 0
M  V30 35201 C 3325.3 -3.21142 -1.65982 0
M  V30 35202 O 3325.02 -4.30782 -0.797409 0
M  V30 35203 C 3326.52 -3.67109 -2.48487 0
M  V30 35204 H 3323.74 -0.627028 -0.238908 0
M  V30 35205 H 3326.28 -2.04283 -0.0941097 0
M  V30 35206 H 3324.44 -3.07925 -2.35077 0
M  V30 35207 H 3324.85 -5.06323 -1.36883 0
M  V30 35208 H 3326.33 -4.62019 -3.02064 0
M  V30 35209 H 3326.8 -2.94118 -3.26177 0
M  V30 35210 H 3327.41 -3.83138 -1.84621 0
M  V30 35211 N 3325.72 0.382237 -1.52894 0
M  V30 35212 C 3326.69 1.45005 -1.775 0
M  V30 35213 C 3327.69 1.47292 -0.645116 0
M  V30 35214 O 3328.88 1.48344 -0.913218 0
M  V30 35215 C 3326.01 2.84247 -1.88193 0
M  V30 35216 H 3327.2 1.24468 -2.72851 0
M  V30 35217 H 3324.76 0.614385 -1.43718 0
M  V30 35218 H 3325.49 3.10119 -0.948506 0
M  V30 35219 H 3325.28 2.83987 -2.70358 0
M  V30 35220 H 3326.77 3.61607 -2.08879 0
M  V30 35221 N 3327.2 1.43972 0.64108 0
M  V30 35222 C 3328.45 1.46448 1.40289 0
M  V30 35223 C 3328.78 0.0929345 1.93978 0
M  V30 35224 O 3328.06 -0.888012 1.73045 0
M  V30 35225 C 3328.34 2.51678 2.57547 0
M  V30 35226 C 3328.19 3.98152 2.09272 0
M  V30 35227 C 3329.51 2.53514 3.59748 0
M  V30 35228 H 3326.63 0.533227 0.508761 0
M  V30 35229 H 3329.27 1.75593 0.725736 0
M  V30 35230 H 3327.42 2.26955 3.15315 0
M  V30 35231 H 3329.1 4.33974 1.56411 0
M  V30 35232 H 3327.34 4.10404 1.40538 0
M  V30 35233 H 3328.01 4.67414 2.93646 0
M  V30 35234 H 3330.49 2.7558 3.11761 0
M  V30 35235 H 3329.36 3.29064 4.39327 0
M  V30 35236 H 3329.62 1.57342 4.13154 0
M  V30 35237 N 3328.68 -0.880575 1.30704 0
M  V30 35238 C 3330.1 -1.16458 1.09131 0
M  V30 35239 C 3330.3 -2.00977 -0.145096 0
M  V30 35240 O 3329.35 -2.38208 -0.83746 0
M  V30 35241 C 3330.67 -1.86699 2.3572 0
M  V30 35242 C 3332.21 -1.99445 2.41227 0
M  V30 35243 C 3332.69 -2.73099 3.6767 0
M  V30 35244 N 3334.18 -2.80642 3.68503 0
M  V30 35245 C 3334.92 -3.38217 4.6303 0
M  V30 35246 N 3334.41 -3.96807 5.67905 0
M  V30 35247 N 3336.2 -3.36074 4.50567 0
M  V30 35248 H 3328.36 -0.317127 2.10019 0
M  V30 35249 H 3330.62 -0.203056 0.925998 0
M  V30 35250 H 3330.32 -1.32041 3.25973 0
M  V30 35251 H 3330.2 -2.87053 2.44705 0
M  V30 35252 H 3332.59 -2.53272 1.51451 0
M  V30 35253 H 3332.67 -0.981663 2.36214 0
M  V30 35254 H 3332.31 -2.19943 4.57807 0
M  V30 35255 H 3332.24 -3.74763 3.69946 0
M  V30 35256 H 3334.73 -2.39048 2.92685 0
M  V30 35257 H 3335.04 -4.38819 6.36127 0
M  V30 35258 H 3333.39 -3.95213 5.71692 0
M  V30 35259 H 3336.58 -2.89532 3.67816 0
M  V30 35260 H 3336.75 -3.80648 5.24415 0
M  V30 35261 N 3330.16 -1.13492 -1.09349 0
M  V30 35262 C 3331.11 -0.781777 -2.14178 0
M  V30 35263 C 3332.09 0.224547 -1.59325 0
M  V30 35264 O 3333.29 0.0283436 -1.76977 0
M  V30 35265 C 3330.41 -0.250338 -3.42386 0
M  V30 35266 C 3329.5 -1.28562 -4.04144 0
M  V30 35267 N 3329.89 -2.48678 -4.40446 0
M  V30 35268 C 3328.19 -1.13358 -4.31354 0
M  V30 35269 C 3328.89 -3.14876 -4.89109 0
M  V30 35270 N 3327.87 -2.42297 -4.86614 0
M  V30 35271 H 3331.67 -1.69565 -2.40052 0
M  V30 35272 H 3329.18 -1.01735 -1.26585 0
M  V30 35273 H 3331.18 0.0209034 -4.16895 0
M  V30 35274 H 3329.84 0.657848 -3.17966 0
M  V30 35275 H 3330.85 -2.85978 -4.31784 0
M  V30 35276 H 3327.53 -0.283623 -4.16536 0
M  V30 35277 H 3328.92 -4.17233 -5.26656 0
M  V30 35278 N 3331.64 1.27341 -0.928546 0
M  V30 35279 C 3332.86 1.98973 -0.585195 0
M  V30 35280 C 3333.29 1.68801 0.829935 0
M  V30 35281 O 3332.65 0.928765 1.55704 0
M  V30 35282 C 3332.69 3.51183 -0.818724 0
M  V30 35283 O 3331.8 4.12239 0.115283 0
M  V30 35284 H 3331.14 0.62464 -0.225214 0
M  V30 35285 H 3333.67 1.62128 -1.24803 0
M  V30 35286 H 3333.68 4.01332 -0.734624 0
M  V30 35287 H 3332.35 3.72476 -1.85026 0
M  V30 35288 H 3330.93 3.72895 -0.0188026 0
M  V30 35289 N 3333.12 0.694147 1.4149 0
M  V30 35290 C 3334.06 0.0279229 2.30783 0
M  V30 35291 C 3335.03 -0.772757 1.47029 0
M  V30 35292 O 3336.22 -0.741079 1.7582 0
M  V30 35293 C 3333.36 -0.90352 3.33062 0
M  V30 35294 C 3332.47 -0.0946064 4.31896 0
M  V30 35295 C 3331.61 -1.02356 5.21245 0
M  V30 35296 C 3330.64 -0.207471 6.11748 0
M  V30 35297 N 3329.78 -1.09015 6.93585 0
M  V30 35298 H 3334.62 0.795143 2.87196 0
M  V30 35299 H 3332.16 0.40383 1.41448 0
M  V30 35300 H 3334.12 -1.45758 3.9091 0
M  V30 35301 H 3332.75 -1.63715 2.78203 0
M  V30 35302 H 3331.8 0.576355 3.76008 0
M  V30 35303 H 3333.11 0.538146 4.95889 0
M  V30 35304 H 3332.26 -1.6469 5.8392 0
M  V30 35305 H 3331 -1.69017 4.57476 0
M  V30 35306 H 3330.01 0.42895 5.48124 0
M  V30 35307 H 3331.23 0.455325 6.77572 0
M  V30 35308 H 3329.18 -1.74281 6.32426 0
M  V30 35309 H 3329.1 -0.51294 7.54258 0
M  V30 35310 H 3330.36 -1.70035 7.60729 0
M  V30 35311 N 3334.59 -1.51368 0.438799 0
M  V30 35312 C 3335.54 -2.27784 -0.37191 0
M  V30 35313 C 3336.51 -1.31437 -1.01556 0
M  V30 35314 O 3337.7 -1.60341 -1.03418 0
M  V30 35315 C 3334.84 -3.12399 -1.46631 0
M  V30 35316 C 3333.95 -4.23742 -0.840653 0
M  V30 35317 C 3333.08 -4.95665 -1.91022 0
M  V30 35318 C 3332.12 -5.98926 -1.26308 0
M  V30 35319 N 3331.26 -6.64252 -2.27408 0
M  V30 35320 H 3336.1 -2.96623 0.2861 0
M  V30 35321 H 3333.64 -1.46303 0.152935 0
M  V30 35322 H 3335.59 -3.59785 -2.11213 0
M  V30 35323 H 3334.22 -2.45671 -2.09393 0
M  V30 35324 H 3333.28 -3.80309 -0.083092 0
M  V30 35325 H 3334.59 -4.97719 -0.328198 0
M  V30 35326 H 3333.74 -5.46606 -2.63262 0
M  V30 35327 H 3332.48 -4.21321 -2.45641 0
M  V30 35328 H 3331.49 -5.47277 -0.52615 0
M  V30 35329 H 3332.71 -6.75227 -0.724205 0
M  V30 35330 H 3330.66 -5.9272 -2.81104 0
M  V30 35331 H 3330.57 -7.33999 -1.81058 0
M  V30 35332 H 3331.84 -7.19822 -2.99127 0
M  V30 35333 N 3336.07 -0.170208 -1.56678 0
M  V30 35334 C 3337.02 0.772781 -2.14504 0
M  V30 35335 C 3338.01 1.1936 -1.07898 0
M  V30 35336 O 3339.2 1.15614 -1.34023 0
M  V30 35337 C 3336.33 2.00248 -2.78847 0
M  V30 35338 C 3335.41 1.6037 -3.9261 0
M  V30 35339 N 3335.8 0.914431 -4.97465 0
M  V30 35340 C 3334.1 1.8948 -4.03749 0
M  V30 35341 C 3334.8 0.718241 -5.77249 0
M  V30 35342 N 3333.78 1.25933 -5.28812 0
M  V30 35343 H 3337.58 0.23718 -2.92941 0
M  V30 35344 H 3335.09 0.0305111 -1.62371 0
M  V30 35345 H 3337.09 2.68826 -3.18651 0
M  V30 35346 H 3335.75 2.54304 -2.0189 0
M  V30 35347 H 3336.76 0.572602 -5.14725 0
M  V30 35348 H 3333.44 2.45221 -3.37895 0
M  V30 35349 H 3334.83 0.173255 -6.71677 0
M  V30 35350 N 3337.55 1.5726 0.10352 0
M  V30 35351 C 3338.8 1.85658 0.808544 0
M  V30 35352 C 3339.12 0.757533 1.79142 0
M  V30 35353 O 3338.38 -0.249688 1.94101 0
M  V30 35354 C 3338.68 3.20608 1.5794 0
M  V30 35355 C 3338.34 4.44796 0.739424 0
M  V30 35356 C 3337.01 4.78513 0.507837 0
M  V30 35357 C 3339.36 5.2097 0.154942 0
M  V30 35358 C 3336.69 5.85836 -0.318232 0
M  V30 35359 C 3339.04 6.29164 -0.658402 0
M  V30 35360 C 3337.7 6.61403 -0.90016 0
M  V30 35361 H 3336.97 0.67937 0.295867 0
M  V30 35362 H 3339.62 1.91371 0.0703267 0
M  V30 35363 H 3337.92 3.10541 2.38896 0
M  V30 35364 H 3339.62 3.39806 2.12915 0
M  V30 35365 H 3336.21 4.18388 0.930029 0
M  V30 35366 H 3340.4 4.95261 0.321043 0
M  V30 35367 H 3335.65 6.0923 -0.514603 0
M  V30 35368 H 3339.83 6.87364 -1.11821 0
M  V30 35369 H 3337.45 7.44395 -1.54207 0
M  V30 35370 N 3339.03 -0.374123 1.53095 0
M  V30 35371 C 3340.3 -1.1328 1.59458 0
M  V30 35372 C 3340.68 -2.07336 0.396857 0
M  V30 35373 O 3340.03 -2.20107 -0.61362 0
M  V30 35374 C 3340.24 -1.87942 2.94073 0
M  V30 35375 C 3341.59 -2.42779 3.48344 0
M  V30 35376 O 3342.61 -1.9808 2.96045 0
M  V30 35377 O 3341.47 -3.24469 4.39752 0
M  V30 35378 H 3338.57 -0.51916 0.643741 0
M  V30 35379 H 3341.11 -0.378076 1.65435 0
M  V30 35380 H 3339.89 -1.19249 3.72687 0
M  V30 35381 H 3339.51 -2.70343 2.91549 0
M  V30 35382 N 3340.51 -1.4431 -0.633436 0
M  V30 35383 C 3341.75 -1.48491 -1.40462 0
M  V30 35384 C 3342.11 -0.113553 -1.91664 0
M  V30 35385 O 3343.31 -0.030042 -2.68783 0
M  V30 35386 C 3341.58 -2.51397 -2.54036 0
M  V30 35387 S 3343.14 -2.74608 -3.42251 0
M  V30 35388 H 3339.96 -0.525233 -0.479219 0
M  V30 35389 H 3342.56 -1.81217 -0.733529 0
M  V30 35390 H 3341.26 -3.49743 -2.14728 0
M  V30 35391 H 3340.8 -2.20236 -3.25975 0
M  V30 35392 H 3342.81 -2.06029 -4.51405 0
M  V30 35393 N 3341.98 0.873632 -1.3117 0
M  V30 35394 C 3343.4 1.15878 -1.09747 0
M  V30 35395 C 3343.6 2.01051 0.134436 0
M  V30 35396 O 3342.66 2.38648 0.824815 0
M  V30 35397 C 3343.97 1.85446 -2.36707 0
M  V30 35398 C 3345.52 1.98163 -2.42282 0
M  V30 35399 C 3345.99 2.71145 -3.69113 0
M  V30 35400 N 3347.48 2.78684 -3.69986 0
M  V30 35401 C 3348.22 3.35757 -4.64817 0
M  V30 35402 N 3347.71 3.9379 -5.70001 0
M  V30 35403 N 3349.51 3.3368 -4.52343 0
M  V30 35404 H 3341.66 0.305984 -2.10184 0
M  V30 35405 H 3343.92 0.198142 -0.927062 0
M  V30 35406 H 3343.63 1.3031 -3.26668 0
M  V30 35407 H 3343.5 2.85751 -2.46224 0
M  V30 35408 H 3345.89 2.52465 -1.52792 0
M  V30 35409 H 3345.97 0.969122 -2.36731 0
M  V30 35410 H 3345.61 2.17512 -4.58967 0
M  V30 35411 H 3345.54 3.72796 -3.71928 0
M  V30 35412 H 3348.03 2.37493 -2.93948 0
M  V30 35413 H 3348.35 4.35439 -6.38446 0
M  V30 35414 H 3346.69 3.92176 -5.7378 0
M  V30 35415 H 3349.88 2.87578 -3.69346 0
M  V30 35416 H 3350.06 3.77861 -5.26426 0
M  V30 35417 N 3343.46 1.1407 1.08746 0
M  V30 35418 C 3344.43 0.827304 2.13748 0
M  V30 35419 C 3345.43 -0.166468 1.59936 0
M  V30 35420 O 3346.62 0.0614611 1.74092 0
M  V30 35421 C 3343.75 0.232617 3.40105 0
M  V30 35422 H 3344.94 1.75784 2.42981 0
M  V30 35423 H 3342.49 0.946266 1.24401 0
M  V30 35424 H 3343.23 -0.706803 3.16504 0
M  V30 35425 H 3343.01 0.948359 3.80458 0
M  V30 35426 H 3344.5 0.0304396 4.17589 0
M  V30 35427 N 3344.94 -1.26847 0.935286 0
M  V30 35428 C 3345.85 -2.30318 0.446162 0
M  V30 35429 C 3346.87 -1.67336 -0.476935 0
M  V30 35430 O 3348.04 -1.98194 -0.357899 0
M  V30 35431 C 3345.11 -3.45516 -0.286237 0
M  V30 35432 C 3344.17 -4.23997 0.672701 0
M  V30 35433 C 3343.4 -5.33694 -0.0248406 0
M  V30 35434 O 3343.62 -5.56695 -1.24286 0
M  V30 35435 O 3342.56 -5.98371 0.650857 0
M  V30 35436 H 3346.38 -2.74208 1.30551 0
M  V30 35437 H 3343.97 -1.31937 0.700933 0
M  V30 35438 H 3345.85 -4.15562 -0.699035 0
M  V30 35439 H 3344.53 -3.03667 -1.12106 0
M  V30 35440 H 3343.43 -3.56456 1.13533 0
M  V30 35441 H 3344.77 -4.6958 1.47497 0
M  V30 35442 N 3346.42 -0.701641 -1.4112 0
M  V30 35443 C 3347.67 -0.234717 -2.00732 0
M  V30 35444 C 3347.99 1.17171 -1.55872 0
M  V30 35445 O 3347.26 1.79177 -0.791997 0
M  V30 35446 H 3345.84 -0.0837875 -0.742286 0
M  V30 35447 H 3348.5 -0.904157 -1.72659 0
M  V30 35448 H 3347.6 -0.256885 -3.11041 0
M  V30 35449 N 3347.9 1.51133 -0.446821 0
M  V30 35450 C 3349.12 2.06581 0.114857 0
M  V30 35451 C 3349.54 1.31329 1.35639 0
M  V30 35452 O 3348.9 0.375538 1.78594 0
M  V30 35453 C 3348.95 3.58963 0.427526 0
M  V30 35454 O 3348.67 4.31374 -0.764744 0
M  V30 35455 C 3350.17 4.30956 1.03884 0
M  V30 35456 H 3347.39 0.67099 0.00371852 0
M  V30 35457 H 3349.93 1.94598 -0.62863 0
M  V30 35458 H 3348.09 3.70829 1.12092 0
M  V30 35459 H 3348.5 5.22162 -0.494697 0
M  V30 35460 H 3349.98 5.3863 1.20755 0
M  V30 35461 H 3350.45 3.89864 2.02245 0
M  V30 35462 H 3351.06 4.23558 0.384548 0
M  V30 35463 N 3349.37 0.178515 1.56586 0
M  V30 35464 C 3350.79 -0.336976 1.83634 0
M  V30 35465 C 3351.14 -1.62558 1.0986 0
M  V30 35466 O 3350.26 -2.13485 0.353971 0
M  V30 35467 C 3350.86 -0.618166 3.33113 0
M  V30 35468 C 3349.42 -1.07808 3.60631 0
M  V30 35469 C 3348.56 -0.117777 2.7705 0
M  V30 35470 H 3351.51 0.402639 1.53507 0
M  V30 35471 H 3351.53 -1.46941 3.50982 0
M  V30 35472 H 3351.05 0.319876 3.8678 0
M  V30 35473 H 3349.15 -2.03097 3.12382 0
M  V30 35474 H 3349.26 -0.982257 4.68923 0
M  V30 35475 H 3347.62 -0.616519 2.47126 0
M  V30 35476 H 3348.41 0.814414 3.335 0
M  V30 35477 N 3350.85 -1.57312 -0.0951784 0
M  V30 35478 C 3352.08 -1.90668 -0.816107 0
M  V30 35479 C 3352.5 -0.772776 -1.71493 0
M  V30 35480 O 3351.86 0.27565 -1.79192 0
M  V30 35481 C 3351.91 -3.22887 -1.60549 0
M  V30 35482 O 3351.01 -3.10471 -2.71443 0
M  V30 35483 H 3350.35 -0.625002 -0.224206 0
M  V30 35484 H 3352.88 -2.04479 -0.0704281 0
M  V30 35485 H 3352.89 -3.56193 -1.98973 0
M  V30 35486 H 3351.57 -4.05002 -0.945847 0
M  V30 35487 H 3350.15 -2.8868 -2.36048 0
M  V30 35488 N 3352.33 0.365999 -1.53291 0
M  V30 35489 C 3353.74 0.94282 -1.61145 0
M  V30 35490 C 3354.09 1.90273 -0.478605 0
M  V30 35491 O 3353.22 2.12764 0.395032 0
M  V30 35492 C 3353.81 1.71676 -2.92084 0
M  V30 35493 C 3352.37 2.24293 -3.02274 0
M  V30 35494 C 3351.52 1.05522 -2.56438 0
M  V30 35495 H 3354.47 0.144807 -1.58038 0
M  V30 35496 H 3354.49 2.57793 -2.79863 0
M  V30 35497 H 3354 1.01787 -3.74514 0
M  V30 35498 H 3352.1 2.97425 -2.2443 0
M  V30 35499 H 3352.22 2.52203 -4.07346 0
M  V30 35500 H 3350.58 1.42207 -2.11304 0
M  V30 35501 H 3351.36 0.371316 -3.41286 0
M  V30 35502 N 3353.81 1.44644 0.625774 0
M  V30 35503 C 3354.72 1.54423 1.76609 0
M  V30 35504 C 3355.73 0.429606 1.68613 0
M  V30 35505 O 3356.91 0.687719 1.89294 0
M  V30 35506 C 3353.98 1.49077 3.13013 0
M  V30 35507 C 3353.04 2.71434 3.32599 0
M  V30 35508 C 3352.27 2.66333 4.62496 0
M  V30 35509 O 3352.49 1.72636 5.43648 0
M  V30 35510 O 3351.43 3.57266 4.84401 0
M  V30 35511 H 3355.25 2.50772 1.71311 0
M  V30 35512 H 3352.84 1.2695 0.787655 0
M  V30 35513 H 3354.72 1.48638 3.94316 0
M  V30 35514 H 3353.39 0.558742 3.18841 0
M  V30 35515 H 3352.3 2.77439 2.50954 0
M  V30 35516 H 3353.63 3.63701 3.31636 0
M  V30 35517 N 3355.29 -0.866663 1.31631 0
M  V30 35518 C 3356.53 -1.62236 1.21686 0
M  V30 35519 C 3356.87 -1.92907 -0.223733 0
M  V30 35520 O 3356.14 -1.56302 -1.15758 0
M  V30 35521 C 3356.42 -2.95045 2.06448 0
M  V30 35522 C 3356.28 -2.71231 3.58823 0
M  V30 35523 C 3357.6 -3.96184 1.91641 0
M  V30 35524 H 3354.71 -0.588699 0.443399 0
M  V30 35525 H 3357.36 -1.00161 1.61455 0
M  V30 35526 H 3355.51 -3.48024 1.7266 0
M  V30 35527 H 3357.18 -2.24898 4.02764 0
M  V30 35528 H 3355.42 -2.05404 3.82088 0
M  V30 35529 H 3356.09 -3.65745 4.13442 0
M  V30 35530 H 3358.57 -3.52424 2.21216 0
M  V30 35531 H 3357.44 -4.86989 2.53245 0
M  V30 35532 H 3357.71 -4.3324 0.88064 0
M  V30 35533 N 3356.77 -1.14645 -1.0814 0
M  V30 35534 C 3357.7 -0.779475 -2.14475 0
M  V30 35535 C 3358.68 0.240426 -1.60813 0
M  V30 35536 O 3359.86 0.128848 -1.88059 0
M  V30 35537 C 3356.99 -0.157752 -3.38332 0
M  V30 35538 C 3356.03 -1.14826 -4.10752 0
M  V30 35539 S 3356.87 -2.68674 -4.63222 0
M  V30 35540 C 3358.02 -2.07899 -5.90363 0
M  V30 35541 H 3358.26 -1.68014 -2.45273 0
M  V30 35542 H 3355.79 -0.967963 -1.20291 0
M  V30 35543 H 3357.75 0.194535 -4.10039 0
M  V30 35544 H 3356.41 0.720381 -3.05728 0
M  V30 35545 H 3355.6 -0.661314 -4.99643 0
M  V30 35546 H 3355.2 -1.44468 -3.44971 0
M  V30 35547 H 3357.49 -1.43611 -6.62104 0
M  V30 35548 H 3358.44 -2.94924 -6.43759 0
M  V30 35549 H 3358.85 -1.52523 -5.43504 0
M  V30 35550 N 3358.24 1.26349 -0.942 0
M  V30 35551 C 3359.49 1.94337 -0.600406 0
M  V30 35552 C 3359.84 1.72541 0.851312 0
M  V30 35553 O 3359.14 1.05233 1.60114 0
M  V30 35554 C 3359.33 3.46408 -0.879542 0
M  V30 35555 C 3359.16 3.82992 -2.35684 0
M  V30 35556 C 3357.93 4.05706 -3.01215 0
M  V30 35557 C 3360.13 3.9148 -3.33538 0
M  V30 35558 N 3358.11 4.29182 -4.38949 0
M  V30 35559 C 3359.48 4.19498 -4.56532 0
M  V30 35560 C 3361.54 3.74111 -3.2855 0
M  V30 35561 C 3360.24 4.31952 -5.75161 0
M  V30 35562 C 3362.27 3.87798 -4.46505 0
M  V30 35563 C 3361.63 4.16215 -5.68282 0
M  V30 35564 H 3357.73 0.733877 -0.270091 0
M  V30 35565 H 3360.31 1.52411 -1.21157 0
M  V30 35566 H 3358.48 3.8726 -0.297413 0
M  V30 35567 H 3360.21 4.0161 -0.499133 0
M  V30 35568 H 3356.97 4.01097 -2.5183 0
M  V30 35569 H 3357.39 4.4495 -5.10244 0
M  V30 35570 H 3362.03 3.51169 -2.35457 0
M  V30 35571 H 3359.75 4.53715 -6.68707 0
M  V30 35572 H 3363.34 3.75761 -4.44179 0
M  V30 35573 H 3362.22 4.26572 -6.58032 0
M  V30 35574 N 3359.72 0.709115 1.40746 0
M  V30 35575 C 3360.97 0.242872 2.00232 0
M  V30 35576 C 3361.28 -1.16858 1.56855 0
M  V30 35577 O 3362.49 -1.733 2.08996 0
M  V30 35578 C 3360.95 0.383304 3.57853 0
M  V30 35579 C 3360.55 1.80098 4.10206 0
M  V30 35580 C 3362.3 -0.0224765 4.24494 0
M  V30 35581 C 3360.2 1.89234 5.60307 0
M  V30 35582 H 3359.13 0.0870472 0.748958 0
M  V30 35583 H 3361.79 0.879271 1.61062 0
M  V30 35584 H 3360.17 -0.321573 3.94692 0
M  V30 35585 H 3361.34 2.53571 3.84757 0
M  V30 35586 H 3359.66 2.15764 3.56139 0
M  V30 35587 H 3362.25 0.0251584 5.34694 0
M  V30 35588 H 3362.6 -1.06336 4.0249 0
M  V30 35589 H 3363.13 0.63261 3.92738 0
M  V30 35590 H 3359.87 2.91422 5.87157 0
M  V30 35591 H 3359.39 1.20164 5.8764 0
M  V30 35592 H 3361.07 1.66147 6.25303 0
M  V30 35593 N 3361.2 -1.50894 0.454829 0
M  V30 35594 C 3362.13 -2.24784 -0.393356 0
M  V30 35595 C 3363.11 -1.27425 -1.01003 0
M  V30 35596 O 3364.29 -1.56607 -1.04911 0
M  V30 35597 C 3361.42 -3.01166 -1.54972 0
M  V30 35598 C 3360.47 -4.13321 -1.05203 0
M  V30 35599 S 3361.3 -5.35496 0.0201427 0
M  V30 35600 C 3362.46 -6.15422 -1.14048 0
M  V30 35601 H 3362.69 -2.96378 0.233916 0
M  V30 35602 H 3360.22 -1.52531 0.239524 0
M  V30 35603 H 3362.18 -3.45769 -2.21256 0
M  V30 35604 H 3360.84 -2.29129 -2.14846 0
M  V30 35605 H 3360.03 -4.66108 -1.91726 0
M  V30 35606 H 3359.64 -3.71071 -0.467169 0
M  V30 35607 H 3361.93 -6.45569 -2.0554 0
M  V30 35608 H 3362.87 -7.0509 -0.652215 0
M  V30 35609 H 3363.28 -5.47196 -1.38696 0
M  V30 35610 N 3362.68 -0.186817 -1.56489 0
M  V30 35611 C 3364.09 0.327233 -1.8381 0
M  V30 35612 C 3364.44 1.61974 -1.1072 0
M  V30 35613 O 3363.56 2.13295 -0.365288 0
M  V30 35614 C 3364.16 0.600492 -3.33436 0
M  V30 35615 C 3362.72 1.05893 -3.61197 0
M  V30 35616 C 3361.87 0.103082 -2.77108 0
M  V30 35617 H 3364.82 -0.410774 -1.53292 0
M  V30 35618 H 3364.84 1.45078 -3.51757 0
M  V30 35619 H 3364.35 -0.340383 -3.86604 0
M  V30 35620 H 3362.45 2.01438 -3.13454 0
M  V30 35621 H 3362.56 0.957375 -4.69437 0
M  V30 35622 H 3360.93 0.603405 -2.47449 0
M  V30 35623 H 3361.71 -0.832089 -3.33063 0
M  V30 35624 N 3364.16 1.57361 0.0868344 0
M  V30 35625 C 3365.43 1.77538 0.820953 0
M  V30 35626 C 3365.81 0.770589 1.96533 0
M  V30 35627 O 3365.16 -0.199294 2.27629 0
M  V30 35628 C 3365.37 3.23567 1.30787 0
M  V30 35629 C 3366.72 3.8698 1.74733 0
M  V30 35630 O 3367.74 3.27367 1.40391 0
M  V30 35631 O 3366.6 4.91826 2.38263 0
M  V30 35632 H 3363.7 0.728077 0.392215 0
M  V30 35633 H 3366.24 1.69563 0.0680753 0
M  V30 35634 H 3365.01 3.88241 0.488341 0
M  V30 35635 H 3364.64 3.36207 2.12252 0
M  V30 35636 N 3365.63 -0.357865 1.53483 0
M  V30 35637 C 3366.58 -1.45908 1.81145 0
M  V30 35638 C 3367.58 -1.55108 0.681029 0
M  V30 35639 O 3368.78 -1.57902 0.864114 0
M  V30 35640 H 3365.16 -0.486215 0.573672 0
M  V30 35641 H 3367.13 -1.19784 2.73302 0
M  V30 35642 C 3365.88 -2.82636 2.02514 0
M  V30 35643 H 3365.2 -2.76319 2.88943 0
M  V30 35644 H 3366.64 -3.58847 2.25843 0
M  V30 35645 C 3365.1 -3.27105 0.80647 0
M  V30 35646 O 3365.63 -4.017 -0.00109748 0
M  V30 35647 N 3363.83 -2.83739 0.627727 0
M  V30 35648 H 3363.38 -2.232 1.28605 0
M  V30 35649 H 3363.34 -3.13848 -0.186246 0
M  V30 35650 N 3367.11 -1.44974 -0.618094 0
M  V30 35651 C 3368.36 -1.47717 -1.37341 0
M  V30 35652 C 3368.67 -0.118819 -1.95239 0
M  V30 35653 O 3369.88 -0.0238459 -2.7149 0
M  V30 35654 C 3368.34 -2.6012 -2.48728 0
M  V30 35655 C 3367.94 -4.02221 -1.97287 0
M  V30 35656 C 3369.69 -2.72099 -3.25826 0
M  V30 35657 C 3367.59 -5.06025 -3.06093 0
M  V30 35658 H 3366.52 -0.549626 -0.516166 0
M  V30 35659 H 3369.18 -1.71081 -0.663587 0
M  V30 35660 H 3367.56 -2.3002 -3.22346 0
M  V30 35661 H 3368.73 -4.4195 -1.30447 0
M  V30 35662 H 3367.05 -3.946 -1.32965 0
M  V30 35663 H 3369.64 -3.46822 -4.06962 0
M  V30 35664 H 3369.99 -1.78366 -3.76153 0
M  V30 35665 H 3370.52 -3.01673 -2.59303 0
M  V30 35666 H 3367.26 -6.0143 -2.60695 0
M  V30 35667 H 3366.78 -4.70875 -3.71533 0
M  V30 35668 H 3368.46 -5.30307 -3.70652 0
M  V30 35669 N 3368.59 0.85967 -1.32089 0
M  V30 35670 C 3369.84 1.61349 -1.22363 0
M  V30 35671 C 3370.16 1.933 0.215762 0
M  V30 35672 O 3369.42 1.57068 1.16739 0
M  V30 35673 C 3369.72 2.94603 -2.02345 0
M  V30 35674 C 3369.38 2.82103 -3.51751 0
M  V30 35675 C 3368.05 2.78401 -3.92487 0
M  V30 35676 C 3370.4 2.68395 -4.46781 0
M  V30 35677 C 3367.73 2.58863 -5.26504 0
M  V30 35678 C 3370.08 2.50394 -5.80935 0
M  V30 35679 C 3368.74 2.45081 -6.2088 0
M  V30 35680 H 3368.01 0.590418 -0.447758 0
M  V30 35681 H 3370.66 0.997608 -1.63463 0
M  V30 35682 H 3368.96 3.60283 -1.53959 0
M  V30 35683 H 3370.66 3.51941 -1.92193 0
M  V30 35684 H 3367.25 2.85807 -3.19394 0
M  V30 35685 H 3371.44 2.70304 -4.16233 0
M  V30 35686 H 3366.69 2.53182 -5.56515 0
M  V30 35687 H 3370.87 2.38766 -6.54189 0
M  V30 35688 H 3368.49 2.29701 -7.24666 0
M  V30 35689 N 3370.07 1.15217 1.0753 0
M  V30 35690 C 3371 0.870209 2.16679 0
M  V30 35691 C 3371.98 -0.178453 1.69161 0
M  V30 35692 O 3373.16 -0.0332148 1.94172 0
M  V30 35693 C 3370.29 0.356727 3.45463 0
M  V30 35694 C 3369.25 1.34186 4.06421 0
M  V30 35695 C 3368.57 0.687299 5.30264 0
M  V30 35696 C 3369.87 2.70723 4.46661 0
M  V30 35697 H 3371.57 1.78295 2.40523 0
M  V30 35698 H 3369.11 0.858686 1.15597 0
M  V30 35699 H 3371.07 0.147021 4.21143 0
M  V30 35700 H 3369.79 -0.591471 3.212 0
M  V30 35701 H 3368.45 1.53789 3.32783 0
M  V30 35702 H 3368.1 -0.266989 5.02291 0
M  V30 35703 H 3367.8 1.34472 5.72006 0
M  V30 35704 H 3369.32 0.487325 6.08652 0
M  V30 35705 H 3370.74 2.54976 5.13479 0
M  V30 35706 H 3369.13 3.32822 4.99349 0
M  V30 35707 H 3370.2 3.26925 3.58117 0
M  V30 35708 N 3371.55 -1.25848 0.948687 0
M  V30 35709 C 3372.77 -1.97478 0.617264 0
M  V30 35710 C 3373.19 -1.70571 -0.809376 0
M  V30 35711 O 3372.55 -0.978287 -1.54064 0
M  V30 35712 C 3372.6 -3.51143 0.859127 0
M  V30 35713 O 3372.32 -3.77118 2.22966 0
M  V30 35714 C 3373.82 -4.40008 0.539275 0
M  V30 35715 H 3371.04 -0.629637 0.231944 0
M  V30 35716 H 3373.58 -1.60171 1.27144 0
M  V30 35717 H 3371.74 -3.86583 0.251448 0
M  V30 35718 H 3372.15 -4.71609 2.29533 0
M  V30 35719 H 3373.63 -5.46756 0.759083 0
M  V30 35720 H 3374.1 -4.36039 -0.525985 0
M  V30 35721 H 3374.71 -4.10123 1.12601 0
M  V30 35722 N 3373.02 -0.716569 -1.40368 0
M  V30 35723 C 3373.99 -0.0733508 -2.29083 0
M  V30 35724 C 3374.99 0.686353 -1.45416 0
M  V30 35725 O 3376.18 0.51811 -1.66317 0
M  V30 35726 C 3373.31 0.905974 -3.28641 0
M  V30 35727 H 3374.5 -0.854721 -2.87462 0
M  V30 35728 H 3372.06 -0.481283 -1.48706 0
M  V30 35729 H 3372.79 1.71436 -2.75282 0
M  V30 35730 H 3372.58 0.364095 -3.90406 0
M  V30 35731 H 3374.07 1.35317 -3.95068 0
M  V30 35732 N 3374.5 1.50651 -0.462825 0
M  V30 35733 C 3375.91 1.86699 -0.00572188 0
M  V30 35734 C 3376.26 1.37824 1.39638 0
M  V30 35735 O 3375.39 0.739715 2.03365 0
M  V30 35736 C 3375.98 3.388 -0.00360738 0
M  V30 35737 C 3374.54 3.7429 0.397995 0
M  V30 35738 C 3373.69 2.74506 -0.392622 0
M  V30 35739 H 3376.64 1.43512 -0.677494 0
M  V30 35740 H 3376.66 3.71987 0.80039 0
M  V30 35741 H 3376.17 3.74342 -1.0242 0
M  V30 35742 H 3374.28 3.44346 1.42325 0
M  V30 35743 H 3374.39 4.78985 0.105083 0
M  V30 35744 H 3372.75 2.54243 0.152564 0
M  V30 35745 H 3373.54 3.12892 -1.41257 0
M  V30 35746 N 3375.98 0.195113 1.56388 0
M  V30 35747 C 3377.21 -0.448602 2.01671 0
M  V30 35748 C 3377.62 -1.55734 1.07441 0
M  V30 35749 O 3376.96 -1.83561 0.0714732 0
M  V30 35750 C 3377.02 -1.06541 3.4335 0
M  V30 35751 C 3376.69 -0.0954097 4.569 0
M  V30 35752 C 3377.68 0.695207 5.15231 0
M  V30 35753 C 3375.37 0.0156772 5.02298 0
M  V30 35754 C 3377.36 1.58388 6.17408 0
M  V30 35755 C 3375.05 0.907905 6.04318 0
M  V30 35756 C 3376.05 1.69057 6.61747 0
M  V30 35757 O 3375.74 2.56785 7.61785 0
M  V30 35758 H 3375.47 -0.116951 0.665807 0
M  V30 35759 H 3378.02 0.301098 2.03181 0
M  V30 35760 H 3376.25 -1.8637 3.38826 0
M  V30 35761 H 3377.94 -1.61378 3.7244 0
M  V30 35762 H 3378.71 0.619689 4.81025 0
M  V30 35763 H 3374.59 -0.583344 4.57294 0
M  V30 35764 H 3378.13 2.19522 6.6216 0
M  V30 35765 H 3374.03 0.984539 6.37948 0
M  V30 35766 H 3374.8 2.50564 7.79205 0
M  V30 35767 N 3377.46 -1.57404 -0.0784879 0
M  V30 35768 C 3378.69 -1.90864 -0.79086 0
M  V30 35769 C 3379.1 -0.788674 -1.71978 0
M  V30 35770 O 3378.44 0.24729 -1.82028 0
M  V30 35771 C 3378.5 -3.1973 -1.64356 0
M  V30 35772 C 3378.17 -4.48354 -0.884718 0
M  V30 35773 C 3379.16 -5.19488 -0.206983 0
M  V30 35774 C 3376.85 -4.94989 -0.853875 0
M  V30 35775 C 3378.84 -6.35503 0.491441 0
M  V30 35776 C 3376.53 -6.10912 -0.151675 0
M  V30 35777 C 3377.53 -6.81019 0.519789 0
M  V30 35778 O 3377.21 -7.94731 1.21069 0
M  V30 35779 H 3376.95 -0.635519 -0.230416 0
M  V30 35780 H 3379.5 -2.05326 -0.055087 0
M  V30 35781 H 3377.73 -3.01458 -2.42198 0
M  V30 35782 H 3379.42 -3.38891 -2.234 0
M  V30 35783 H 3380.19 -4.84491 -0.222162 0
M  V30 35784 H 3376.06 -4.40298 -1.36597 0
M  V30 35785 H 3379.61 -6.9016 1.01611 0
M  V30 35786 H 3375.51 -6.4536 -0.1344 0
M  V30 35787 H 3376.27 -8.10811 1.11928 0
M  V30 35788 N 3378.94 0.34972 -1.53671 0
M  V30 35789 C 3380.18 1.0885 -1.70283 0
M  V30 35790 C 3380.51 1.89363 -0.465471 0
M  V30 35791 O 3379.78 1.88856 0.520582 0
M  V30 35792 H 3378.36 0.404843 -0.627783 0
M  V30 35793 H 3381.02 0.392489 -1.90907 0
M  V30 35794 H 3380.11 1.76937 -2.57099 0
M  V30 35795 N 3380.41 1.45299 0.610397 0
M  V30 35796 C 3381.64 1.52919 1.40109 0
M  V30 35797 C 3382.06 0.161729 1.87403 0
M  V30 35798 O 3381.42 -0.853107 1.59974 0
M  V30 35799 C 3381.47 2.51566 2.58354 0
M  V30 35800 O 3380.57 2.03152 3.58891 0
M  V30 35801 H 3379.92 0.515594 0.418401 0
M  V30 35802 H 3382.45 1.90627 0.743126 0
M  V30 35803 H 3382.46 2.7028 3.05635 0
M  V30 35804 H 3381.13 3.50883 2.2328 0
M  V30 35805 H 3379.71 1.94301 3.18279 0
M  V30 35806 N 3381.89 -0.852653 1.32543 0
M  V30 35807 C 3383.31 -1.14117 1.11577 0
M  V30 35808 C 3383.51 -2.01239 -0.102433 0
M  V30 35809 O 3382.56 -2.3993 -0.786744 0
M  V30 35810 C 3383.88 -1.81657 2.39627 0
M  V30 35811 C 3385.43 -1.94284 2.45403 0
M  V30 35812 C 3385.9 -2.65239 3.7338 0
M  V30 35813 N 3387.39 -2.72762 3.74373 0
M  V30 35814 C 3388.13 -3.28319 4.701 0
M  V30 35815 N 3387.62 -3.84671 5.76194 0
M  V30 35816 N 3389.42 -3.26441 4.57594 0
M  V30 35817 H 3381.57 -0.272507 2.10645 0
M  V30 35818 H 3383.83 -0.183369 0.930097 0
M  V30 35819 H 3383.54 -1.25097 3.287 0
M  V30 35820 H 3383.41 -2.81797 2.50739 0
M  V30 35821 H 3385.8 -2.50003 1.56789 0
M  V30 35822 H 3385.88 -0.931338 2.38243 0
M  V30 35823 H 3385.52 -2.10183 4.6237 0
M  V30 35824 H 3385.45 -3.66832 3.77812 0
M  V30 35825 H 3387.94 -2.32786 2.9769 0
M  V30 35826 H 3388.26 -4.25227 6.45292 0
M  V30 35827 H 3386.6 -3.82998 5.79946 0
M  V30 35828 H 3389.79 -2.81665 3.73875 0
M  V30 35829 H 3389.96 -3.69439 5.32371 0
M  V30 35830 N 3383.37 -1.15786 -1.06918 0
M  V30 35831 C 3384.62 -0.929975 -1.78981 0
M  V30 35832 C 3384.93 0.543936 -1.87885 0
M  V30 35833 O 3386.14 0.889533 -2.56514 0
M  V30 35834 C 3384.59 -1.61451 -3.21654 0
M  V30 35835 C 3384.2 -3.12575 -3.20937 0
M  V30 35836 C 3385.95 -1.46835 -3.98296 0
M  V30 35837 C 3383.85 -3.73796 -4.58291 0
M  V30 35838 H 3382.78 -0.344296 -0.670803 0
M  V30 35839 H 3385.43 -1.38848 -1.19973 0
M  V30 35840 H 3383.82 -1.0837 -3.80883 0
M  V30 35841 H 3384.99 -3.72448 -2.71328 0
M  V30 35842 H 3383.31 -3.27004 -2.57794 0
M  V30 35843 H 3385.9 -1.89961 -4.99819 0
M  V30 35844 H 3386.25 -0.416431 -4.14212 0
M  V30 35845 H 3386.78 -1.97037 -3.45574 0
M  V30 35846 H 3383.52 -4.78908 -4.4758 0
M  V30 35847 H 3383.04 -3.18707 -5.0812 0
M  V30 35848 H 3384.72 -3.74981 -5.27256 0
M  V30 35849 N 3384.85 1.25343 -0.955348 0
M  V30 35850 C 3386.08 1.97148 -0.627728 0
M  V30 35851 C 3386.49 1.70998 0.800319 0
M  V30 35852 O 3385.85 0.986444 1.53543 0
M  V30 35853 C 3385.9 3.50682 -0.877737 0
M  V30 35854 O 3385.62 3.7593 -2.24963 0
M  V30 35855 C 3387.12 4.39715 -0.562602 0
M  V30 35856 H 3384.34 0.628398 -0.23528 0
M  V30 35857 H 3386.89 1.59494 -1.27992 0
M  V30 35858 H 3385.04 3.86444 -0.271945 0
M  V30 35859 H 3385.45 4.70385 -2.3203 0
M  V30 35860 H 3386.93 5.46346 -0.788068 0
M  V30 35861 H 3387.41 4.36312 0.502853 0
M  V30 35862 H 3388.01 4.0952 -1.14775 0
M  V30 35863 N 3386.33 0.724003 1.39986 0
M  V30 35864 C 3387.57 0.267546 2.01027 0
M  V30 35865 C 3387.91 -1.13892 1.57297 0
M  V30 35866 O 3387.18 -1.77428 0.796836 0
M  V30 35867 C 3387.46 0.357034 3.58326 0
M  V30 35868 C 3387.32 1.80248 4.12105 0
M  V30 35869 C 3388.64 -0.266925 4.3929 0
M  V30 35870 H 3385.76 0.0986904 0.730362 0
M  V30 35871 H 3388.4 0.918089 1.66346 0
M  V30 35872 H 3386.55 -0.19684 3.88001 0
M  V30 35873 H 3388.22 2.41238 3.93194 0
M  V30 35874 H 3386.46 2.32744 3.66078 0
M  V30 35875 H 3387.13 1.81643 5.21258 0
M  V30 35876 H 3389.61 0.205103 4.15594 0
M  V30 35877 H 3388.49 -0.173908 5.48624 0
M  V30 35878 H 3388.75 -1.35156 4.20934 0
M  V30 35879 N 3387.81 -1.50403 0.470808 0
M  V30 35880 C 3388.76 -2.25418 -0.342144 0
M  V30 35881 C 3389.74 -1.28996 -0.961703 0
M  V30 35882 O 3390.93 -1.53899 -0.874299 0
M  V30 35883 C 3388.06 -3.12386 -1.42372 0
M  V30 35884 C 3387.15 -4.16256 -0.811909 0
M  V30 35885 N 3387.54 -5.05755 0.0676134 0
M  V30 35886 C 3385.84 -4.32829 -1.07588 0
M  V30 35887 C 3386.54 -5.80219 0.414795 0
M  V30 35888 N 3385.51 -5.43194 -0.209951 0
M  V30 35889 H 3389.31 -2.9198 0.335395 0
M  V30 35890 H 3386.83 -1.59881 0.284939 0
M  V30 35891 H 3388.83 -3.64733 -2.0193 0
M  V30 35892 H 3387.49 -2.47373 -2.10326 0
M  V30 35893 H 3388.5 -5.16058 0.436424 0
M  V30 35894 H 3385.17 -3.79034 -1.75042 0
M  V30 35895 H 3386.56 -6.62286 1.13255 0
M  V30 35896 N 3389.28 -0.203404 -1.56282 0
M  V30 35897 C 3390.23 0.714125 -2.19474 0
M  V30 35898 C 3391.2 1.2037 -1.14456 0
M  V30 35899 O 3392.39 1.26608 -1.42741 0
M  V30 35900 C 3389.53 1.92452 -2.86455 0
M  V30 35901 C 3388.64 1.47554 -4.0602 0
M  V30 35902 C 3387.77 2.64208 -4.60834 0
M  V30 35903 C 3386.81 2.15957 -5.72738 0
M  V30 35904 N 3385.95 3.25818 -6.21922 0
M  V30 35905 H 3390.79 0.168506 -2.97523 0
M  V30 35906 H 3388.33 0.0714267 -1.46926 0
M  V30 35907 H 3390.28 2.63491 -3.23463 0
M  V30 35908 H 3388.91 2.44331 -2.10955 0
M  V30 35909 H 3387.97 0.660718 -3.74618 0
M  V30 35910 H 3389.28 1.08159 -4.86932 0
M  V30 35911 H 3388.43 3.43357 -5.00191 0
M  V30 35912 H 3387.17 3.06881 -3.79046 0
M  V30 35913 H 3386.18 1.35264 -5.32901 0
M  V30 35914 H 3387.4 1.74305 -6.56349 0
M  V30 35915 H 3385.35 3.68006 -5.43054 0
M  V30 35916 H 3385.26 2.90619 -6.97909 0
M  V30 35917 H 3386.53 4.05157 -6.65934 0
M  V30 35918 N 3390.76 1.57444 0.0701393 0
M  V30 35919 C 3391.71 2.04844 1.10189 0
M  V30 35920 C 3392.7 0.954094 1.39976 0
M  V30 35921 O 3393.91 1.1392 1.39364 0
M  V30 35922 H 3390.28 0.653153 0.372687 0
M  V30 35923 H 3392.26 2.90642 0.675982 0
M  V30 35924 C 3391 2.5094 2.40675 0
M  V30 35925 H 3390.33 3.34742 2.18605 0
M  V30 35926 H 3391.77 2.87858 3.1131 0
M  V30 35927 C 3390.23 1.39303 3.06751 0
M  V30 35928 O 3390.76 0.736058 3.94899 0
M  V30 35929 N 3388.96 1.13774 2.67402 0
M  V30 35930 H 3388.51 1.6738 1.95811 0
M  V30 35931 H 3388.47 0.392841 3.11936 0
M  V30 35932 N 3392.24 -0.341566 1.53854 0
M  V30 35933 C 3393.49 -1.07945 1.70857 0
M  V30 35934 C 3393.81 -1.89114 0.475507 0
M  V30 35935 O 3393.08 -1.8913 -0.510559 0
M  V30 35936 H 3391.66 -0.401508 0.629921 0
M  V30 35937 H 3394.32 -0.382359 1.91113 0
M  V30 35938 H 3393.42 -1.75571 2.58033 0
M  V30 35939 N 3393.72 -1.45621 -0.602683 0
M  V30 35940 C 3394.95 -1.53428 -1.38807 0
M  V30 35941 C 3395.36 -0.168543 -1.88046 0
M  V30 35942 O 3394.72 0.830762 -1.62495 0
M  V30 35943 C 3394.77 -2.52272 -2.58923 0
M  V30 35944 O 3394.49 -3.8354 -2.11729 0
M  V30 35945 C 3395.99 -2.69826 -3.51723 0
M  V30 35946 H 3393.21 -0.519462 -0.424735 0
M  V30 35947 H 3395.75 -1.90852 -0.734557 0
M  V30 35948 H 3393.91 -2.17907 -3.20305 0
M  V30 35949 H 3394.32 -4.37164 -2.89806 0
M  V30 35950 H 3395.8 -3.42953 -4.32536 0
M  V30 35951 H 3396.27 -1.76031 -4.0238 0
M  V30 35952 H 3396.88 -3.05207 -2.9619 0
M  V30 35953 N 3395.2 0.845612 -1.32993 0
M  V30 35954 C 3396.13 1.9703 -1.25305 0
M  V30 35955 C 3397.11 1.69563 -0.134996 0
M  V30 35956 O 3398.29 1.91484 -0.323663 0
M  V30 35957 C 3395.42 3.33051 -0.984609 0
M  V30 35958 C 3394.38 3.74896 -2.06487 0
M  V30 35959 C 3393.7 5.08648 -1.64869 0
M  V30 35960 C 3395 3.89397 -3.4809 0
M  V30 35961 H 3396.7 2.03721 -2.19404 0
M  V30 35962 H 3394.24 0.978765 -1.05623 0
M  V30 35963 H 3396.19 4.11294 -0.917341 0
M  V30 35964 H 3394.92 3.26599 -0.00798856 0
M  V30 35965 H 3393.58 2.98911 -2.12245 0
M  V30 35966 H 3393.23 4.98661 -0.659271 0
M  V30 35967 H 3392.93 5.37617 -2.37154 0
M  V30 35968 H 3394.45 5.89374 -1.59595 0
M  V30 35969 H 3395.86 4.5797 -3.44871 0
M  V30 35970 H 3394.26 4.29795 -4.18803 0
M  V30 35971 H 3395.33 2.92044 -3.87089 0
M  V30 35972 N 3396.67 1.16351 1.06302 0
M  V30 35973 C 3397.58 0.884327 2.17294 0
M  V30 35974 C 3398.6 -0.143383 1.73408 0
M  V30 35975 O 3399.78 0.0332341 2.01373 0
M  V30 35976 C 3396.84 0.389223 3.44508 0
M  V30 35977 C 3395.9 1.48215 4.02903 0
M  V30 35978 C 3395.13 1.01057 5.24045 0
M  V30 35979 O 3395.36 -0.139721 5.70229 0
M  V30 35980 O 3394.29 1.79886 5.74391 0
M  V30 35981 H 3398.12 1.81247 2.43687 0
M  V30 35982 H 3395.7 0.94348 1.1584 0
M  V30 35983 H 3397.58 0.120092 4.21229 0
M  V30 35984 H 3396.26 -0.510912 3.19643 0
M  V30 35985 H 3395.17 1.80502 3.27673 0
M  V30 35986 H 3396.5 2.35758 4.32064 0
M  V30 35987 N 3398.15 -1.24835 0.961982 0
M  V30 35988 C 3399.4 -1.92051 0.616376 0
M  V30 35989 C 3399.71 -1.7609 -0.85157 0
M  V30 35990 O 3400.92 -2.37945 -1.30745 0
M  V30 35991 C 3399.38 -3.4419 1.05174 0
M  V30 35992 C 3398.98 -3.68848 2.54274 0
M  V30 35993 C 3400.73 -4.17291 0.779011 0
M  V30 35994 C 3398.63 -5.14528 2.91573 0
M  V30 35995 H 3397.56 -0.719074 0.226823 0
M  V30 35996 H 3400.22 -1.41575 1.16742 0
M  V30 35997 H 3398.6 -3.93669 0.429048 0
M  V30 35998 H 3399.77 -3.29991 3.21624 0
M  V30 35999 H 3398.09 -3.09022 2.79096 0
M  V30 36000 H 3400.68 -5.24612 1.03375 0
M  V30 36001 H 3401.03 -4.15325 -0.284699 0
M  V30 36002 H 3401.56 -3.73743 1.3624 0
M  V30 36003 H 3398.3 -5.21611 3.96991 0
M  V30 36004 H 3397.82 -5.54404 2.28901 0
M  V30 36005 H 3399.5 -5.82713 2.81166 0
M  V30 36006 N 3399.63 -0.731417 -1.396 0
M  V30 36007 C 3401.05 -0.406621 -1.54333 0
M  V30 36008 C 3401.25 1.08292 -1.69927 0
M  V30 36009 O 3400.3 1.86903 -1.69774 0
M  V30 36010 C 3401.61 -1.18651 -2.76301 0
M  V30 36011 C 3403.16 -1.17438 -2.90133 0
M  V30 36012 C 3403.64 -1.93676 -4.15034 0
M  V30 36013 N 3405.13 -1.90824 -4.22067 0
M  V30 36014 C 3405.86 -2.46625 -5.17652 0
M  V30 36015 N 3405.36 -3.11048 -6.19048 0
M  V30 36016 N 3407.15 -2.36678 -5.09843 0
M  V30 36017 H 3399.3 -1.69706 -1.27725 0
M  V30 36018 H 3401.57 -0.718197 -0.618787 0
M  V30 36019 H 3401.27 -2.24037 -2.7111 0
M  V30 36020 H 3401.15 -0.788579 -3.68865 0
M  V30 36021 H 3403.53 -0.128667 -2.94819 0
M  V30 36022 H 3403.61 -1.61166 -1.98643 0
M  V30 36023 H 3403.26 -2.98247 -4.1111 0
M  V30 36024 H 3403.19 -1.47357 -5.05562 0
M  V30 36025 H 3405.68 -1.43888 -3.49435 0
M  V30 36026 H 3405.99 -3.51103 -6.88438 0
M  V30 36027 H 3404.34 -3.15137 -6.19446 0
M  V30 36028 H 3407.53 -1.85994 -4.29562 0
M  V30 36029 H 3407.7 -2.80465 -5.8416 0
M  V30 36030 N 3401.11 1.50152 -0.478778 0
M  V30 36031 C 3402.06 2.30314 0.325334 0
M  V30 36032 C 3403.05 1.37937 0.983348 0
M  V30 36033 O 3404.26 1.55093 0.913574 0
M  V30 36034 H 3400.63 0.741746 0.123762 0
M  V30 36035 H 3402.6 2.96084 -0.371056 0
M  V30 36036 C 3401.35 3.18698 1.3902 0
M  V30 36037 H 3400.67 3.89693 0.89326 0
M  V30 36038 H 3402.11 3.77769 1.92526 0
M  V30 36039 C 3400.57 2.36807 2.39633 0
M  V30 36040 O 3401.1 2.05655 3.45063 0
M  V30 36041 N 3399.31 1.99244 2.11543 0
M  V30 36042 H 3398.86 2.24778 1.25828 0
M  V30 36043 H 3398.81 1.44756 2.79093 0
M  V30 36044 N 3402.59 0.211689 1.56172 0
M  V30 36045 C 3403.83 -0.423297 1.98333 0
M  V30 36046 C 3404.17 -1.60113 1.09898 0
M  V30 36047 O 3403.44 -1.93885 0.154511 0
M  V30 36048 C 3403.72 -0.867409 3.49497 0
M  V30 36049 C 3403.58 0.313381 4.48707 0
M  V30 36050 C 3404.9 -1.72709 4.04796 0
M  V30 36051 H 3402.01 -0.152389 0.721073 0
M  V30 36052 H 3404.66 0.305945 1.87521 0
M  V30 36053 H 3402.81 -1.48878 3.58842 0
M  V30 36054 H 3404.48 0.951371 4.51383 0
M  V30 36055 H 3402.72 0.962454 4.22988 0
M  V30 36056 H 3403.39 -0.0401432 5.51985 0
M  V30 36057 H 3405.87 -1.20289 3.98334 0
M  V30 36058 H 3404.74 -2.00675 5.10902 0
M  V30 36059 H 3405.01 -2.68703 3.51071 0
M  V30 36060 N 3404.06 -1.57479 -0.0617887 0
M  V30 36061 C 3405.48 -1.54061 -0.4168 0
M  V30 36062 C 3405.68 -0.933308 -1.78582 0
M  V30 36063 O 3404.74 -0.540134 -2.46655 0
M  V30 36064 C 3406.05 -2.98672 -0.348676 0
M  V30 36065 C 3407.6 -3.10058 -0.42814 0
M  V30 36066 C 3408.07 -4.56338 -0.389817 0
M  V30 36067 N 3409.56 -4.61013 -0.449596 0
M  V30 36068 C 3410.3 -5.71691 -0.442317 0
M  V30 36069 N 3409.79 -6.91706 -0.38926 0
M  V30 36070 N 3411.59 -5.59964 -0.48962 0
M  V30 36071 H 3403.74 -1.95319 0.834521 0
M  V30 36072 H 3406 -0.89443 0.314164 0
M  V30 36073 H 3405.71 -3.46702 0.590799 0
M  V30 36074 H 3405.58 -3.5908 -1.15505 0
M  V30 36075 H 3407.97 -2.61995 -1.35804 0
M  V30 36076 H 3408.05 -2.52542 0.40699 0
M  V30 36077 H 3407.69 -5.05061 0.536275 0
M  V30 36078 H 3407.62 -5.11729 -1.24262 0
M  V30 36079 H 3410.11 -3.74651 -0.494444 0
M  V30 36080 H 3410.43 -7.71826 -0.387907 0
M  V30 36081 H 3408.77 -6.94089 -0.355796 0
M  V30 36082 H 3411.96 -4.65103 -0.528833 0
M  V30 36083 H 3412.14 -6.46216 -0.480479 0
M  V30 36084 N 3405.54 0.333401 -1.54033 0
M  V30 36085 C 3406.47 1.41527 -1.85722 0
M  V30 36086 C 3407.45 1.54428 -0.713171 0
M  V30 36087 O 3408.64 1.68469 -0.966014 0
M  V30 36088 C 3405.77 2.78436 -2.07583 0
M  V30 36089 C 3404.72 2.80333 -3.23416 0
M  V30 36090 C 3404.05 4.20224 -3.3063 0
M  V30 36091 C 3405.35 2.44959 -4.61294 0
M  V30 36092 H 3407.04 1.15256 -2.76327 0
M  V30 36093 H 3404.59 0.553007 -1.32958 0
M  V30 36094 H 3406.54 3.54176 -2.28336 0
M  V30 36095 H 3405.27 3.06163 -1.13718 0
M  V30 36096 H 3403.92 2.07046 -3.02535 0
M  V30 36097 H 3403.57 4.45077 -2.34341 0
M  V30 36098 H 3403.27 4.22402 -4.08474 0
M  V30 36099 H 3404.8 4.97791 -3.53605 0
M  V30 36100 H 3406.21 3.10413 -4.81993 0
M  V30 36101 H 3404.61 2.58404 -5.41615 0
M  V30 36102 H 3405.68 1.40126 -4.64212 0
M  V30 36103 N 3407.02 1.45939 0.594952 0
M  V30 36104 C 3408.25 1.54396 1.38479 0
M  V30 36105 C 3408.67 0.181596 1.87221 0
M  V30 36106 O 3408.03 -0.836091 1.6087 0
M  V30 36107 C 3408.08 2.54292 2.55672 0
M  V30 36108 O 3407.18 2.06947 3.56716 0
M  V30 36109 H 3406.52 0.520002 0.412909 0
M  V30 36110 H 3409.05 1.91405 0.722865 0
M  V30 36111 H 3409.06 2.73507 3.02751 0
M  V30 36112 H 3407.74 3.53232 2.19546 0
M  V30 36113 H 3406.31 1.97666 3.162 0
M  V30 36114 N 3408.5 -0.838547 1.3344 0
M  V30 36115 C 3409.78 -1.57848 1.15513 0
M  V30 36116 C 3410.16 -2.09257 -0.278368 0
M  V30 36117 O 3409.5 -1.89456 -1.27745 0
M  V30 36118 C 3409.71 -2.71208 2.19652 0
M  V30 36119 C 3411.06 -3.4038 2.53824 0
M  V30 36120 O 3412.09 -2.8145 2.18322 0
M  V30 36121 O 3410.94 -4.46761 3.14749 0
M  V30 36122 H 3408.04 -0.695918 0.446797 0
M  V30 36123 H 3410.58 -0.881274 1.45023 0
M  V30 36124 H 3409.36 -2.30863 3.1594 0
M  V30 36125 H 3408.98 -3.48593 1.9123 0
M  V30 36126 N 3409.98 -1.16914 -1.05683 0
M  V30 36127 C 3411.2 -0.979381 -1.82819 0
M  V30 36128 C 3411.63 0.467543 -1.82197 0
M  V30 36129 O 3410.98 1.33443 -1.2273 0
M  V30 36130 C 3411.03 -1.51897 -3.27047 0
M  V30 36131 O 3410.14 -0.729413 -4.05898 0
M  V30 36132 H 3409.48 -0.348086 -0.565449 0
M  V30 36133 H 3412.01 -1.55295 -1.33209 0
M  V30 36134 H 3412.02 -1.53911 -3.77856 0
M  V30 36135 H 3410.69 -2.57225 -3.26815 0
M  V30 36136 H 3409.27 -0.780285 -3.64645 0
M  V30 36137 N 3411.45 1.24323 -0.968589 0
M  V30 36138 C 3412.42 2.23582 -0.504346 0
M  V30 36139 C 3413.42 1.55756 0.399598 0
M  V30 36140 O 3414.61 1.73106 0.194935 0
M  V30 36141 C 3411.74 3.39833 0.2695 0
M  V30 36142 H 3412.93 2.66167 -1.38185 0
M  V30 36143 H 3410.49 1.36951 -0.753265 0
M  V30 36144 H 3411.22 3.02688 1.16406 0
M  V30 36145 H 3411.01 3.90262 -0.379202 0
M  V30 36146 H 3412.5 4.13506 0.583303 0
M  V30 36147 N 3412.93 0.73881 1.3921 0
M  V30 36148 C 3414.21 0.214567 1.9442 0
M  V30 36149 C 3414.59 -1.2844 1.6753 0
M  V30 36150 O 3413.94 -2.05181 1.00564 0
M  V30 36151 C 3414.15 0.552293 3.44602 0
M  V30 36152 C 3415.5 0.503738 4.21601 0
M  V30 36153 O 3416.52 0.489709 3.52818 0
M  V30 36154 O 3415.38 0.501626 5.44193 0
M  V30 36155 H 3412.47 0.0404392 0.826011 0
M  V30 36156 H 3415.02 0.817928 1.48688 0
M  V30 36157 H 3413.79 1.58813 3.57623 0
M  V30 36158 H 3413.41 -0.0798398 3.9752 0
M  V30 36159 N 3414.41 -1.49895 0.486734 0
M  V30 36160 C 3415.66 -2.02403 -0.0628164 0
M  V30 36161 C 3415.99 -1.36756 -1.38304 0
M  V30 36162 O 3415.24 -0.487527 -1.8953 0
M  V30 36163 C 3415.54 -3.56313 -0.27858 0
M  V30 36164 C 3415.21 -4.40521 0.961871 0
M  V30 36165 C 3413.87 -4.63253 1.30193 0
M  V30 36166 C 3416.22 -4.89606 1.78706 0
M  V30 36167 C 3413.55 -5.32314 2.46696 0
M  V30 36168 C 3415.9 -5.59948 2.94349 0
M  V30 36169 C 3414.56 -5.80929 3.28752 0
M  V30 36170 H 3413.83 -0.740643 -0.0229862 0
M  V30 36171 H 3416.48 -1.80347 0.643995 0
M  V30 36172 H 3414.79 -3.76969 -1.06779 0
M  V30 36173 H 3416.48 -3.94519 -0.718009 0
M  V30 36174 H 3413.07 -4.23059 0.686961 0
M  V30 36175 H 3417.26 -4.71884 1.5375 0
M  V30 36176 H 3412.51 -5.46763 2.73605 0
M  V30 36177 H 3416.69 -5.96959 3.58626 0
M  V30 36178 H 3414.31 -6.34218 4.19132 0
M  V30 36179 N 3415.89 -0.219968 -1.56057 0
M  V30 36180 C 3417.14 0.412509 -1.97437 0
M  V30 36181 C 3417.45 1.61012 -1.11061 0
M  V30 36182 O 3418.66 2.31201 -1.42332 0
M  V30 36183 C 3417.11 0.7853 -3.51228 0
M  V30 36184 C 3416.72 -0.389406 -4.46304 0
M  V30 36185 C 3418.47 1.38347 -4.01323 0
M  V30 36186 C 3416.37 0.00573136 -5.914 0
M  V30 36187 H 3415.3 0.157893 -0.737283 0
M  V30 36188 H 3417.95 -0.31593 -1.8076 0
M  V30 36189 H 3416.34 1.57111 -3.635 0
M  V30 36190 H 3417.51 -1.16694 -4.45779 0
M  V30 36191 H 3415.82 -0.900705 -4.06542 0
M  V30 36192 H 3418.42 1.69198 -5.07224 0
M  V30 36193 H 3418.76 2.2987 -3.47081 0
M  V30 36194 H 3419.3 0.661121 -3.92268 0
M  V30 36195 H 3416.04 -0.875944 -6.49621 0
M  V30 36196 H 3415.56 0.747615 -5.95122 0
M  V30 36197 H 3417.24 0.432966 -6.4555 0
M  V30 36198 N 3417.37 1.57509 0.0534363 0
M  V30 36199 C 3418.61 1.89977 0.754198 0
M  V30 36200 C 3418.97 0.815864 1.73804 0
M  V30 36201 O 3420.17 1.02414 2.48525 0
M  V30 36202 C 3418.44 3.27649 1.42762 0
M  V30 36203 S 3420 3.81903 2.16091 0
M  V30 36204 H 3416.82 0.665444 0.250409 0
M  V30 36205 H 3419.42 1.95498 0.00960447 0
M  V30 36206 H 3418.13 4.0442 0.698016 0
M  V30 36207 H 3417.66 3.25371 2.21127 0
M  V30 36208 H 3419.67 3.58666 3.42889 0
M  V30 36209 N 3418.85 -0.325228 1.54208 0
M  V30 36210 C 3420.09 -1.06494 1.72588 0
M  V30 36211 C 3420.42 -1.87726 0.497261 0
M  V30 36212 O 3419.7 -1.87809 -0.505771 0
M  V30 36213 C 3419.98 -1.99104 3.00049 0
M  V30 36214 C 3419.84 -1.21214 4.3316 0
M  V30 36215 C 3421.15 -2.98652 3.23257 0
M  V30 36216 H 3418.27 -0.385758 0.62798 0
M  V30 36217 H 3420.92 -0.341757 1.86901 0
M  V30 36218 H 3419.07 -2.6077 2.87978 0
M  V30 36219 H 3420.74 -0.620209 4.57112 0
M  V30 36220 H 3418.98 -0.514386 4.30739 0
M  V30 36221 H 3419.65 -1.89205 5.18561 0
M  V30 36222 H 3422.13 -2.47108 3.34779 0
M  V30 36223 H 3421 -3.60637 4.13802 0
M  V30 36224 H 3421.26 -3.71021 2.40407 0
M  V30 36225 N 3420.32 -1.46252 -0.587204 0
M  V30 36226 C 3421.29 -1.56063 -1.6786 0
M  V30 36227 C 3422.29 -0.438189 -1.54714 0
M  V30 36228 O 3423.48 -0.702351 -1.59414 0
M  V30 36229 C 3420.61 -1.47664 -3.07259 0
M  V30 36230 H 3421.8 -2.53324 -1.60521 0
M  V30 36231 H 3419.35 -1.33996 -0.804667 0
M  V30 36232 H 3420.09 -0.516657 -3.20158 0
M  V30 36233 H 3419.87 -2.29097 -3.18209 0
M  V30 36234 H 3421.36 -1.57606 -3.86717 0
M  V30 36235 N 3421.8 0.831459 -1.33883 0
M  V30 36236 C 3423.22 1.12328 -1.13378 0
M  V30 36237 C 3423.42 2.01377 0.0704048 0
M  V30 36238 O 3422.47 2.41152 0.748474 0
M  V30 36239 C 3423.79 1.77822 -2.42487 0
M  V30 36240 C 3425.33 1.90355 -2.48463 0
M  V30 36241 C 3425.81 2.59265 -3.77552 0
M  V30 36242 N 3427.3 2.66772 -3.78665 0
M  V30 36243 C 3428.04 3.20799 -4.75264 0
M  V30 36244 N 3427.53 3.75456 -5.82241 0
M  V30 36245 N 3429.32 3.1912 -4.6273 0
M  V30 36246 H 3421.48 0.238961 -2.11052 0
M  V30 36247 H 3423.74 0.168548 -0.932896 0
M  V30 36248 H 3423.44 1.19851 -3.30649 0
M  V30 36249 H 3423.32 2.77773 -2.5519 0
M  V30 36250 H 3425.71 2.47477 -1.60746 0
M  V30 36251 H 3425.79 0.893317 -2.39695 0
M  V30 36252 H 3425.43 2.028 -4.65655 0
M  V30 36253 H 3425.36 3.60775 -3.836 0
M  V30 36254 H 3427.85 2.28021 -3.01355 0
M  V30 36255 H 3428.16 4.14907 -6.51976 0
M  V30 36256 H 3426.51 3.73723 -5.85966 0
M  V30 36257 H 3429.7 2.75682 -3.78308 0
M  V30 36258 H 3429.87 3.60922 -5.38181 0
M  V30 36259 N 3423.28 1.17472 1.05062 0
M  V30 36260 C 3424.23 0.888853 2.14947 0
M  V30 36261 C 3425.22 -0.147008 1.68761 0
M  V30 36262 O 3426.43 0.000195918 1.8 0
M  V30 36263 H 3422.8 0.269907 0.701893 0
M  V30 36264 H 3424.77 1.82272 2.36262 0
M  V30 36265 C 3423.52 0.420067 3.45153 0
M  V30 36266 H 3422.85 1.20861 3.81094 0
M  V30 36267 H 3424.29 0.25894 4.23209 0
M  V30 36268 C 3422.74 -0.862494 3.25673 0
M  V30 36269 O 3423.27 -1.92899 3.52353 0
M  V30 36270 N 3421.48 -0.811161 2.79049 0
M  V30 36271 H 3421.03 0.0569477 2.57537 0
M  V30 36272 H 3420.99 -1.66976 2.66395 0
M  V30 36273 N 3424.76 -1.23807 0.975168 0
M  V30 36274 C 3425.67 -2.28782 0.519211 0
M  V30 36275 C 3426.68 -1.68769 -0.423457 0
M  V30 36276 O 3427.86 -1.99233 -0.294664 0
M  V30 36277 C 3424.92 -3.46252 -0.176168 0
M  V30 36278 C 3423.99 -4.21642 0.807252 0
M  V30 36279 C 3423.22 -5.33503 0.144963 0
M  V30 36280 O 3423.44 -5.60367 -1.06512 0
M  V30 36281 O 3422.38 -5.95997 0.840894 0
M  V30 36282 H 3426.2 -2.69916 1.39208 0
M  V30 36283 H 3423.79 -1.2964 0.742553 0
M  V30 36284 H 3425.67 -4.17575 -0.566474 0
M  V30 36285 H 3424.34 -3.0708 -1.02389 0
M  V30 36286 H 3423.25 -3.52664 1.24816 0
M  V30 36287 H 3424.58 -4.6465 1.62362 0
M  V30 36288 N 3426.24 -0.746182 -1.38816 0
M  V30 36289 C 3427.48 -0.29846 -1.99884 0
M  V30 36290 C 3427.8 1.12153 -1.5952 0
M  V30 36291 O 3427.07 1.76566 -0.848599 0
M  V30 36292 H 3425.65 -0.10736 -0.739245 0
M  V30 36293 H 3428.32 -0.95863 -1.69695 0
M  V30 36294 H 3427.41 -0.355711 -3.10066 0
M  V30 36295 N 3427.71 1.49635 -0.494676 0
M  V30 36296 C 3428.96 2.02033 0.0519788 0
M  V30 36297 C 3429.28 1.37703 1.38068 0
M  V30 36298 O 3428.55 0.530215 1.88588 0
M  V30 36299 H 3427.13 0.74667 0.0221992 0
M  V30 36300 H 3429.79 1.83725 -0.650477 0
M  V30 36301 H 3428.89 3.11544 0.186282 0
M  V30 36302 N 3429.19 0.228241 1.55939 0
M  V30 36303 C 3430.1 -0.6903 2.24214 0
M  V30 36304 C 3431.12 -1.20836 1.25199 0
M  V30 36305 O 3432.29 -1.24856 1.58028 0
M  V30 36306 C 3429.36 -1.87868 2.91387 0
M  V30 36307 C 3428.42 -1.40194 4.05764 0
M  V30 36308 C 3427.65 -2.53367 4.69724 0
M  V30 36309 O 3427.88 -3.71661 4.32694 0
M  V30 36310 O 3426.81 -2.24188 5.58591 0
M  V30 36311 H 3430.64 -0.138639 3.03383 0
M  V30 36312 H 3428.22 -0.00248878 1.494 0
M  V30 36313 H 3430.1 -2.57256 3.33762 0
M  V30 36314 H 3428.78 -2.41831 2.15173 0
M  V30 36315 H 3427.68 -0.67588 3.67944 0
M  V30 36316 H 3429.02 -0.908606 4.83741 0
M  V30 36317 N 3430.67 -1.57536 -0.0450825 0
M  V30 36318 C 3431.9 -1.93168 -0.755034 0
M  V30 36319 C 3432.32 -0.826944 -1.68947 0
M  V30 36320 O 3431.68 0.218502 -1.79978 0
M  V30 36321 C 3431.73 -3.27832 -1.50196 0
M  V30 36322 O 3430.83 -3.1895 -2.61428 0
M  V30 36323 H 3430.17 -0.631819 -0.204208 0
M  V30 36324 H 3432.7 -2.04599 -0.00533908 0
M  V30 36325 H 3432.71 -3.62343 -1.8754 0
M  V30 36326 H 3431.39 -4.07806 -0.81652 0
M  V30 36327 H 3429.96 -2.96043 -2.26744 0
M  V30 36328 N 3432.15 0.317045 -1.54378 0
M  V30 36329 C 3433.39 1.05578 -1.73151 0
M  V30 36330 C 3433.73 1.87459 -0.507209 0
M  V30 36331 O 3433 1.88075 0.495804 0
M  V30 36332 C 3433.29 1.9751 -3.01101 0
M  V30 36333 C 3433.14 1.18915 -4.33796 0
M  V30 36334 C 3434.46 2.96934 -3.24836 0
M  V30 36335 H 3431.58 0.382423 -0.630017 0
M  V30 36336 H 3434.22 0.33184 -1.8708 0
M  V30 36337 H 3432.37 2.59239 -2.89357 0
M  V30 36338 H 3434.04 0.595959 -4.57434 0
M  V30 36339 H 3432.28 0.491536 -4.31006 0
M  V30 36340 H 3432.95 1.86452 -5.19557 0
M  V30 36341 H 3435.43 2.45329 -3.36085 0
M  V30 36342 H 3434.31 3.58438 -4.15709 0
M  V30 36343 H 3434.57 3.69741 -2.42371 0
M  V30 36344 N 3433.63 1.46561 0.57944 0
M  V30 36345 C 3434.56 1.60236 1.69843 0
M  V30 36346 C 3435.54 0.452562 1.63969 0
M  V30 36347 O 3436.72 0.679206 1.81935 0
M  V30 36348 C 3433.85 1.59543 3.08485 0
M  V30 36349 C 3432.81 2.73526 3.29193 0
M  V30 36350 C 3432.13 2.57896 4.68395 0
M  V30 36351 C 3433.43 4.15321 3.16711 0
M  V30 36352 H 3435.13 2.53907 1.58656 0
M  V30 36353 H 3432.67 1.22196 0.761852 0
M  V30 36354 H 3434.63 1.67703 3.86592 0
M  V30 36355 H 3433.35 0.624186 3.2058 0
M  V30 36356 H 3432.01 2.6484 2.53486 0
M  V30 36357 H 3431.66 1.58847 4.77259 0
M  V30 36358 H 3431.36 3.34349 4.83202 0
M  V30 36359 H 3432.88 2.67951 5.48666 0
M  V30 36360 H 3434.29 4.251 3.84659 0
M  V30 36361 H 3432.69 4.92387 3.43038 0
M  V30 36362 H 3433.76 4.35247 2.13747 0
M  V30 36363 N 3435.1 -0.824347 1.34322 0
M  V30 36364 C 3436.35 -1.58282 1.26785 0
M  V30 36365 C 3436.68 -1.93521 -0.162248 0
M  V30 36366 O 3435.96 -1.59905 -1.10727 0
M  V30 36367 C 3436.24 -2.88327 2.1573 0
M  V30 36368 C 3436.09 -2.59678 3.6727 0
M  V30 36369 C 3437.41 -3.89887 2.04148 0
M  V30 36370 H 3434.53 -0.574294 0.461904 0
M  V30 36371 H 3437.17 -0.94974 1.6456 0
M  V30 36372 H 3435.32 -3.42355 1.83645 0
M  V30 36373 H 3437 -2.11971 4.09715 0
M  V30 36374 H 3435.24 -1.93144 3.8843 0
M  V30 36375 H 3435.91 -3.52406 4.24869 0
M  V30 36376 H 3438.39 -3.45208 2.32316 0
M  V30 36377 H 3437.26 -4.78686 2.6861 0
M  V30 36378 H 3437.52 -4.30219 1.01803 0
M  V30 36379 N 3436.58 -1.18028 -1.04437 0
M  V30 36380 C 3437.83 -0.974787 -1.77836 0
M  V30 36381 C 3438.16 0.494722 -1.87793 0
M  V30 36382 O 3437.44 1.36731 -1.38329 0
M  V30 36383 C 3437.72 -1.62574 -3.21312 0
M  V30 36384 C 3437.57 -3.16786 -3.19322 0
M  V30 36385 C 3438.89 -1.33591 -4.19335 0
M  V30 36386 H 3436.01 -0.355541 -0.645569 0
M  V30 36387 H 3438.65 -1.4564 -1.22021 0
M  V30 36388 H 3436.8 -1.21623 -3.68972 0
M  V30 36389 H 3438.47 -3.66847 -2.79681 0
M  V30 36390 H 3436.72 -3.49141 -2.57455 0
M  V30 36391 H 3437.39 -3.57467 -4.2062 0
M  V30 36392 H 3439.86 -1.69066 -3.80205 0
M  V30 36393 H 3438.74 -1.81711 -5.1795 0
M  V30 36394 H 3439 -0.258093 -4.41346 0
M  V30 36395 N 3438.06 1.23288 -0.98172 0
M  V30 36396 C 3438.99 2.24094 -0.481081 0
M  V30 36397 C 3440.01 1.57348 0.41779 0
M  V30 36398 O 3441.19 1.77118 0.221715 0
M  V30 36399 C 3438.29 3.37355 0.323264 0
M  V30 36400 C 3437.47 4.33683 -0.569051 0
M  V30 36401 C 3436.53 5.25886 0.181669 0
M  V30 36402 O 3435.55 5.6758 -0.429159 0
M  V30 36403 N 3436.75 5.61651 1.46727 0
M  V30 36404 H 3439.52 2.67681 -1.34786 0
M  V30 36405 H 3437.08 1.37473 -0.855141 0
M  V30 36406 H 3439.07 3.96016 0.833864 0
M  V30 36407 H 3437.64 2.92942 1.09106 0
M  V30 36408 H 3436.86 3.73505 -1.26047 0
M  V30 36409 H 3438.15 4.94996 -1.17713 0
M  V30 36410 H 3437.55 5.29729 1.98504 0
M  V30 36411 H 3436.11 6.22778 1.92328 0
M  V30 36412 N 3439.54 0.753533 1.38418 0
M  V30 36413 C 3440.47 0.141239 2.33072 0
M  V30 36414 C 3441.45 -0.703643 1.54864 0
M  V30 36415 O 3442.63 -0.64484 1.83181 0
M  V30 36416 C 3439.76 -0.752743 3.39044 0
M  V30 36417 C 3438.72 -0.010594 4.27999 0
M  V30 36418 C 3438.04 -1.02282 5.24826 0
M  V30 36419 C 3439.34 1.15777 5.09306 0
M  V30 36420 H 3441.04 0.93193 2.84527 0
M  V30 36421 H 3438.58 0.449591 1.36802 0
M  V30 36422 H 3440.54 -1.19076 4.04226 0
M  V30 36423 H 3439.26 -1.57575 2.86073 0
M  V30 36424 H 3437.92 0.408003 3.64323 0
M  V30 36425 H 3437.57 -1.83989 4.68142 0
M  V30 36426 H 3437.27 -0.530907 5.85197 0
M  V30 36427 H 3438.79 -1.46016 5.92884 0
M  V30 36428 H 3440.21 0.797303 5.67729 0
M  V30 36429 H 3438.6 1.58055 5.78912 0
M  V30 36430 H 3439.67 1.9707 4.43048 0
M  V30 36431 N 3441.02 -1.49371 0.502605 0
M  V30 36432 C 3441.93 -2.32929 -0.279491 0
M  V30 36433 C 3442.94 -1.44737 -0.965781 0
M  V30 36434 O 3444.12 -1.77757 -0.946808 0
M  V30 36435 C 3441.18 -3.20213 -1.32907 0
M  V30 36436 C 3440.24 -4.24258 -0.656047 0
M  V30 36437 C 3439.48 -5.07371 -1.65562 0
M  V30 36438 O 3439.7 -4.92024 -2.88562 0
M  V30 36439 O 3438.63 -5.89611 -1.21006 0
M  V30 36440 H 3442.46 -3.00994 0.40448 0
M  V30 36441 H 3440.05 -1.47051 0.263914 0
M  V30 36442 H 3441.93 -3.74281 -1.93628 0
M  V30 36443 H 3440.6 -2.54841 -1.99594 0
M  V30 36444 H 3439.51 -3.74099 -0.00904913 0
M  V30 36445 H 3440.84 -4.9219 -0.0315937 0
M  V30 36446 N 3442.49 -0.236508 -1.55815 0
M  V30 36447 C 3443.74 0.39169 -1.98981 0
M  V30 36448 C 3444.07 1.58344 -1.12431 0
M  V30 36449 O 3443.35 1.93615 -0.185337 0
M  V30 36450 C 3443.63 0.811697 -3.50833 0
M  V30 36451 C 3443.48 -0.384726 -4.48152 0
M  V30 36452 C 3444.8 1.66247 -4.07492 0
M  V30 36453 H 3441.92 0.140899 -0.723406 0
M  V30 36454 H 3444.56 -0.335739 -1.8701 0
M  V30 36455 H 3442.71 1.43151 -3.61165 0
M  V30 36456 H 3444.39 -1.02306 -4.49812 0
M  V30 36457 H 3442.63 -1.02963 -4.21404 0
M  V30 36458 H 3443.3 -0.047678 -5.51979 0
M  V30 36459 H 3445.78 1.13936 -4.00197 0
M  V30 36460 H 3444.65 1.92522 -5.1403 0
M  V30 36461 H 3444.91 2.63084 -3.55302 0
M  V30 36462 N 3443.97 1.57557 0.0367273 0
M  V30 36463 C 3444.9 2.09093 1.03935 0
M  V30 36464 C 3445.88 0.991785 1.38194 0
M  V30 36465 O 3447.07 1.26658 1.47212 0
M  V30 36466 C 3444.2 2.56398 2.34259 0
M  V30 36467 C 3443.15 3.70507 2.14262 0
M  V30 36468 C 3442.48 4.03991 3.50278 0
M  V30 36469 C 3443.78 4.99233 1.53505 0
M  V30 36470 H 3445.47 2.93112 0.610378 0
M  V30 36471 H 3443.02 1.41005 0.292159 0
M  V30 36472 H 3444.97 2.91071 3.04722 0
M  V30 36473 H 3443.7 1.69452 2.79202 0
M  V30 36474 H 3442.35 3.36172 1.46233 0
M  V30 36475 H 3442 3.14123 3.92856 0
M  V30 36476 H 3441.7 4.80848 3.37727 0
M  V30 36477 H 3443.23 4.41192 4.22116 0
M  V30 36478 H 3444.64 5.31912 2.13876 0
M  V30 36479 H 3443.04 5.80648 1.5155 0
M  V30 36480 H 3444.11 4.82315 0.500041 0
M  V30 36481 N 3445.45 -0.308854 1.54544 0
M  V30 36482 C 3446.36 -1.40337 1.87996 0
M  V30 36483 C 3447.38 -1.55871 0.773321 0
M  V30 36484 O 3448.55 -1.70686 1.06903 0
M  V30 36485 C 3445.62 -2.74834 2.11346 0
M  V30 36486 C 3444.68 -2.68352 3.3509 0
M  V30 36487 C 3443.91 -3.96435 3.57316 0
M  V30 36488 O 3444.14 -4.95416 2.82701 0
M  V30 36489 O 3443.07 -3.98803 4.50821 0
M  V30 36490 H 3446.9 -1.14971 2.81097 0
M  V30 36491 H 3444.48 -0.504211 1.40635 0
M  V30 36492 H 3446.36 -3.54425 2.27949 0
M  V30 36493 H 3445.04 -3.0006 1.21432 0
M  V30 36494 H 3443.94 -1.87261 3.23858 0
M  V30 36495 H 3445.28 -2.4808 4.25108 0
M  V30 36496 N 3446.93 -1.46867 -0.571659 0
M  V30 36497 C 3447.86 -1.52791 -1.69499 0
M  V30 36498 C 3448.84 -0.381137 -1.5807 0
M  V30 36499 O 3450.02 -0.586876 -1.79131 0
M  V30 36500 C 3447.15 -1.41687 -3.0764 0
M  V30 36501 C 3446.2 -2.60686 -3.37558 0
M  V30 36502 S 3447.03 -4.22977 -3.28406 0
M  V30 36503 C 3448.19 -4.14401 -4.69065 0
M  V30 36504 H 3448.42 -2.47831 -1.64217 0
M  V30 36505 H 3445.95 -1.34888 -0.75131 0
M  V30 36506 H 3447.91 -1.35968 -3.87328 0
M  V30 36507 H 3446.57 -0.480571 -3.10402 0
M  V30 36508 H 3445.76 -2.4894 -4.38229 0
M  V30 36509 H 3445.37 -2.63452 -2.6546 0
M  V30 36510 H 3447.66 -3.81764 -5.59699 0
M  V30 36511 H 3448.6 -5.1511 -4.85868 0
M  V30 36512 H 3449.01 -3.45481 -4.46434 0
M  V30 36513 N 3448.41 0.817212 -1.34757 0
M  V30 36514 C 3449.34 1.94328 -1.29456 0
M  V30 36515 C 3450.32 1.69239 -0.170932 0
M  V30 36516 O 3451.5 1.90754 -0.364206 0
M  V30 36517 C 3448.63 3.30887 -1.05503 0
M  V30 36518 C 3447.59 3.70432 -2.14393 0
M  V30 36519 C 3446.91 5.05036 -1.75621 0
M  V30 36520 C 3448.21 3.81926 -3.56272 0
M  V30 36521 H 3449.91 1.99021 -2.23676 0
M  V30 36522 H 3447.45 0.95614 -1.07675 0
M  V30 36523 H 3449.41 4.09256 -1.00438 0
M  V30 36524 H 3448.13 3.26509 -0.0772633 0
M  V30 36525 H 3446.79 2.94342 -2.18537 0
M  V30 36526 H 3446.44 4.9715 -0.764896 0
M  V30 36527 H 3446.14 5.32465 -2.48504 0
M  V30 36528 H 3447.66 5.85856 -1.72061 0
M  V30 36529 H 3449.08 4.50552 -3.54508 0
M  V30 36530 H 3447.47 4.20815 -4.27826 0
M  V30 36531 H 3448.54 2.83768 -3.93197 0
M  V30 36532 N 3449.89 1.1858 1.0381 0
M  V30 36533 C 3451.3 0.936034 1.29269 0
M  V30 36534 C 3451.5 -0.396931 1.97552 0
M  V30 36535 O 3450.56 -1.13065 2.25771 0
M  V30 36536 C 3451.87 2.10343 2.14886 0
M  V30 36537 C 3453.42 2.14202 2.28224 0
M  V30 36538 C 3453.89 3.30367 3.17209 0
M  V30 36539 N 3455.38 3.30245 3.24796 0
M  V30 36540 C 3456.12 4.16772 3.93813 0
M  V30 36541 N 3455.62 5.13438 4.65138 0
M  V30 36542 N 3457.41 4.04678 3.90118 0
M  V30 36543 H 3449.56 2.04357 0.578975 0
M  V30 36544 H 3451.82 0.893072 0.318005 0
M  V30 36545 H 3451.53 3.06758 1.72024 0
M  V30 36546 H 3451.4 2.06625 3.15573 0
M  V30 36547 H 3453.79 1.18364 2.70322 0
M  V30 36548 H 3453.87 2.21978 1.2712 0
M  V30 36549 H 3453.51 4.26479 2.75822 0
M  V30 36550 H 3453.44 3.19828 4.18351 0
M  V30 36551 H 3455.94 2.60265 2.7399 0
M  V30 36552 H 3456.25 5.75829 5.15403 0
M  V30 36553 H 3454.59 5.17395 4.64034 0
M  V30 36554 H 3457.78 3.28444 3.3353 0
M  V30 36555 H 3457.96 4.72328 4.43633 0
M  V30 36556 N 3451.36 -1.22766 0.988245 0
M  V30 36557 C 3452.78 -1.43518 0.698186 0
M  V30 36558 C 3452.98 -1.87701 -0.732839 0
M  V30 36559 O 3452.04 -2.02796 -1.50433 0
M  V30 36560 C 3453.35 -2.48047 1.69979 0
M  V30 36561 C 3454.9 -2.61852 1.71472 0
M  V30 36562 C 3455.37 -3.69598 2.70484 0
M  V30 36563 N 3456.86 -3.7705 2.69049 0
M  V30 36564 C 3457.6 -4.6 3.42327 0
M  V30 36565 N 3457.09 -5.46979 4.2519 0
M  V30 36566 N 3458.89 -4.54268 3.31055 0
M  V30 36567 H 3451.04 -0.923914 1.91253 0
M  V30 36568 H 3453.3 -0.467768 0.824559 0
M  V30 36569 H 3453.01 -2.22518 2.72358 0
M  V30 36570 H 3452.88 -3.46571 1.48891 0
M  V30 36571 H 3455.27 -2.86728 0.697939 0
M  V30 36572 H 3455.35 -1.63619 1.96628 0
M  V30 36573 H 3454.99 -3.4547 3.72308 0
M  V30 36574 H 3454.92 -4.6739 2.42599 0
M  V30 36575 H 3457.41 -3.14899 2.08919 0
M  V30 36576 H 3457.73 -6.07283 4.7794 0
M  V30 36577 H 3456.07 -5.46576 4.29278 0
M  V30 36578 H 3459.26 -3.8534 2.65764 0
M  V30 36579 H 3459.44 -5.18683 3.88422 0
M  V30 36580 N 3452.84 -0.760864 -1.38017 0
M  V30 36581 C 3454.25 -0.387054 -1.82644 0
M  V30 36582 C 3454.6 1.08533 -1.63447 0
M  V30 36583 O 3453.73 1.83961 -1.13961 0
M  V30 36584 C 3454.32 -0.695748 -3.31579 0
M  V30 36585 C 3452.88 -0.375129 -3.74526 0
M  V30 36586 C 3452.03 -0.945196 -2.60694 0
M  V30 36587 H 3454.98 -0.956419 -1.26643 0
M  V30 36588 H 3455 0.0234842 -3.80493 0
M  V30 36589 H 3454.51 -1.76743 -3.45519 0
M  V30 36590 H 3452.61 0.689677 -3.66161 0
M  V30 36591 H 3452.73 -0.875768 -4.71028 0
M  V30 36592 H 3451.09 -0.370109 -2.51997 0
M  V30 36593 H 3451.87 -2.02206 -2.77431 0
M  V30 36594 N 3454.32 1.49102 -0.510519 0
M  V30 36595 C 3455.55 2.06882 0.0271355 0
M  V30 36596 C 3455.96 1.36964 1.29947 0
M  V30 36597 O 3455.32 0.450948 1.76841 0
M  V30 36598 C 3455.37 3.60453 0.274892 0
M  V30 36599 O 3455.09 4.27742 -0.947017 0
M  V30 36600 C 3456.59 4.34974 0.855121 0
M  V30 36601 H 3453.81 0.670544 -0.0247438 0
M  V30 36602 H 3456.36 1.91757 -0.710601 0
M  V30 36603 H 3454.51 3.7525 0.96263 0
M  V30 36604 H 3454.93 5.19594 -0.715718 0
M  V30 36605 H 3456.4 5.43267 0.978008 0
M  V30 36606 H 3456.88 3.98091 1.85528 0
M  V30 36607 H 3457.48 4.24808 0.204557 0
M  V30 36608 N 3455.8 0.244768 1.55688 0
M  V30 36609 C 3457.04 -0.380568 1.98892 0
M  V30 36610 C 3457.37 -1.58103 1.13286 0
M  V30 36611 O 3456.63 -1.94841 0.183175 0
M  V30 36612 C 3456.93 -0.835862 3.47488 0
M  V30 36613 C 3456.59 0.256607 4.50169 0
M  V30 36614 C 3455.25 0.556658 4.77969 0
M  V30 36615 C 3457.61 0.994264 5.11629 0
M  V30 36616 C 3454.93 1.59848 5.64505 0
M  V30 36617 C 3457.29 2.02559 5.99294 0
M  V30 36618 C 3455.95 2.33231 6.25428 0
M  V30 36619 H 3455.22 -0.13926 0.727796 0
M  V30 36620 H 3457.87 0.352146 1.88234 0
M  V30 36621 H 3456.17 -1.64774 3.55467 0
M  V30 36622 H 3457.87 -1.32994 3.78303 0
M  V30 36623 H 3454.46 0.0126038 4.28598 0
M  V30 36624 H 3458.64 0.775703 4.90201 0
M  V30 36625 H 3453.9 1.84148 5.83009 0
M  V30 36626 H 3458.07 2.6021 6.4596 0
M  V30 36627 H 3455.7 3.14098 6.92276 0
M  V30 36628 N 3457.28 -1.57574 -0.0283712 0
M  V30 36629 C 3458.69 -1.54911 -0.384027 0
M  V30 36630 C 3458.89 -0.970978 -1.76562 0
M  V30 36631 O 3457.95 -0.592331 -2.45454 0
M  V30 36632 C 3459.26 -2.99344 -0.285244 0
M  V30 36633 C 3460.81 -3.10896 -0.362276 0
M  V30 36634 C 3461.28 -4.57062 -0.292934 0
M  V30 36635 N 3462.77 -4.61863 -0.351707 0
M  V30 36636 C 3463.51 -5.72501 -0.320953 0
M  V30 36637 N 3463.01 -6.92376 -0.242451 0
M  V30 36638 N 3464.8 -5.60876 -0.370733 0
M  V30 36639 H 3456.95 -1.93505 0.875764 0
M  V30 36640 H 3459.21 -0.887565 0.333066 0
M  V30 36641 H 3458.92 -3.45371 0.664206 0
M  V30 36642 H 3458.79 -3.61449 -1.07862 0
M  V30 36643 H 3461.18 -2.64817 -1.30216 0
M  V30 36644 H 3461.26 -2.51621 0.460467 0
M  V30 36645 H 3460.9 -5.0381 0.643285 0
M  V30 36646 H 3460.83 -5.1425 -1.13379 0
M  V30 36647 H 3463.33 -3.75616 -0.414863 0
M  V30 36648 H 3463.64 -7.72475 -0.224104 0
M  V30 36649 H 3461.98 -6.94687 -0.208489 0
M  V30 36650 H 3465.17 -4.6612 -0.430059 0
M  V30 36651 H 3465.35 -6.4709 -0.343299 0
M  V30 36652 N 3458.75 0.300654 -1.54706 0
M  V30 36653 C 3459.7 1.39084 -1.86436 0
M  V30 36654 C 3460.7 1.52473 -0.738127 0
M  V30 36655 O 3461.9 1.54586 -0.922123 0
M  V30 36656 H 3458.28 0.464588 -0.591322 0
M  V30 36657 H 3460.25 1.09559 -2.7756 0
M  V30 36658 C 3459 2.74925 -2.12865 0
M  V30 36659 H 3458.32 2.65405 -2.98999 0
M  V30 36660 H 3459.76 3.50217 -2.39006 0
M  V30 36661 C 3458.22 3.23886 -0.927317 0
M  V30 36662 O 3458.75 4.01427 -0.147992 0
M  V30 36663 N 3456.95 2.81214 -0.732602 0
M  V30 36664 H 3456.5 2.18273 -1.36801 0
M  V30 36665 H 3456.46 3.14323 0.069635 0
M  V30 36666 N 3460.23 1.47168 0.563863 0
M  V30 36667 C 3461.64 1.4739 1.146 0
M  V30 36668 C 3461.99 0.22495 1.94906 0
M  V30 36669 O 3461.12 -0.670636 2.05746 0
M  V30 36670 C 3461.71 2.67048 2.08497 0
M  V30 36671 C 3460.27 2.7025 2.61996 0
M  V30 36672 C 3459.42 2.40385 1.3824 0
M  V30 36673 H 3462.37 1.54774 0.350805 0
M  V30 36674 H 3462.39 2.43639 2.92267 0
M  V30 36675 H 3461.9 3.57932 1.50021 0
M  V30 36676 H 3460.01 1.83488 3.24288 0
M  V30 36677 H 3460.12 3.70754 3.03444 0
M  V30 36678 H 3458.48 1.9083 1.68689 0
M  V30 36679 H 3459.27 3.33469 0.815667 0
M  V30 36680 N 3461.71 -0.810054 1.35188 0
M  V30 36681 C 3462.96 -1.56696 1.28267 0
M  V30 36682 C 3463.29 -1.93967 -0.143872 0
M  V30 36683 O 3462.54 -1.61293 -1.10829 0
M  V30 36684 C 3462.84 -2.8689 2.1314 0
M  V30 36685 C 3462.51 -2.68854 3.61979 0
M  V30 36686 C 3461.17 -2.63642 4.0255 0
M  V30 36687 C 3463.52 -2.51628 4.56435 0
M  V30 36688 C 3460.85 -2.39144 5.35749 0
M  V30 36689 C 3463.2 -2.2866 5.89828 0
M  V30 36690 C 3461.86 -2.21869 6.29548 0
M  V30 36691 H 3461.13 -0.573393 0.469363 0
M  V30 36692 H 3463.78 -0.936253 1.67053 0
M  V30 36693 H 3462.09 -3.54321 1.67224 0
M  V30 36694 H 3463.78 -3.44566 2.05123 0
M  V30 36695 H 3460.37 -2.73756 3.29782 0
M  V30 36696 H 3464.56 -2.54669 4.25978 0
M  V30 36697 H 3459.81 -2.32353 5.65528 0
M  V30 36698 H 3463.99 -2.14322 6.626 0
M  V30 36699 H 3461.61 -2.02648 7.32692 0
M  V30 36700 N 3463.19 -1.19129 -1.0318 0
M  V30 36701 C 3464.14 -0.922937 -2.13506 0
M  V30 36702 C 3465.13 0.120141 -1.68973 0
M  V30 36703 O 3466.34 -0.0288323 -1.79977 0
M  V30 36704 H 3462.71 -0.281039 -0.697511 0
M  V30 36705 H 3464.68 -1.86007 -2.33332 0
M  V30 36706 C 3463.43 -0.474925 -3.44441 0
M  V30 36707 H 3462.75 -1.26909 -3.79123 0
M  V30 36708 H 3464.19 -0.326236 -4.22743 0
M  V30 36709 C 3462.65 0.810573 -3.27004 0
M  V30 36710 O 3463.18 1.87269 -3.55377 0
M  V30 36711 N 3461.39 0.766664 -2.80305 0
M  V30 36712 H 3460.94 -0.0979124 -2.57414 0
M  V30 36713 H 3460.89 1.62717 -2.69018 0
M  V30 36714 N 3464.67 1.2224 -0.994741 0
M  V30 36715 C 3465.58 2.27927 -0.555542 0
M  V30 36716 C 3466.59 1.69421 0.396554 0
M  V30 36717 O 3467.77 1.99676 0.26293 0
M  V30 36718 C 3464.83 3.46489 0.12106 0
M  V30 36719 C 3463.89 4.20304 -0.874229 0
M  V30 36720 C 3463.13 5.33205 -0.22982 0
M  V30 36721 O 3463.35 5.61991 0.975836 0
M  V30 36722 O 3462.28 5.94584 -0.935606 0
M  V30 36723 H 3466.11 2.67667 -1.43485 0
M  V30 36724 H 3463.7 1.28442 -0.763084 0
M  V30 36725 H 3465.58 4.18424 0.49997 0
M  V30 36726 H 3464.25 3.0867 0.974905 0
M  V30 36727 H 3463.16 3.50634 -1.30411 0
M  V30 36728 H 3464.49 4.62008 -1.69733 0
M  V30 36729 N 3466.14 0.768172 1.37611 0
M  V30 36730 C 3467.09 0.150217 2.30311 0
M  V30 36731 C 3468.06 -0.693734 1.50919 0
M  V30 36732 O 3469.25 -0.646839 1.79501 0
M  V30 36733 C 3466.39 -0.725701 3.37383 0
M  V30 36734 C 3465.5 0.134465 4.31791 0
M  V30 36735 C 3464.63 -0.745822 5.25938 0
M  V30 36736 C 3463.67 0.117096 6.11988 0
M  V30 36737 N 3462.81 -0.720968 6.98388 0
M  V30 36738 H 3467.65 0.946261 2.82577 0
M  V30 36739 H 3465.19 0.478241 1.39109 0
M  V30 36740 H 3467.15 -1.24832 3.98086 0
M  V30 36741 H 3465.78 -1.48738 2.8649 0
M  V30 36742 H 3464.83 0.774858 3.72425 0
M  V30 36743 H 3466.14 0.80025 4.92339 0
M  V30 36744 H 3465.29 -1.33506 5.91829 0
M  V30 36745 H 3464.03 -1.4453 4.65792 0
M  V30 36746 H 3463.04 0.718895 5.4508 0
M  V30 36747 H 3464.26 0.813851 6.74206 0
M  V30 36748 H 3462.21 -1.40513 6.40775 0
M  V30 36749 H 3462.13 -0.112403 7.55916 0
M  V30 36750 H 3463.39 -1.29471 7.68673 0
M  V30 36751 N 3467.62 -1.48829 0.518419 0
M  V30 36752 C 3468.87 -2.01688 -0.0218081 0
M  V30 36753 C 3469.18 -1.40176 -1.36418 0
M  V30 36754 O 3470.39 -1.84465 -1.99211 0
M  V30 36755 C 3468.85 -3.59789 -0.0892906 0
M  V30 36756 C 3468.45 -4.30281 1.24749 0
M  V30 36757 C 3470.2 -4.20533 -0.578958 0
M  V30 36758 C 3468.11 -5.80284 1.14122 0
M  V30 36759 H 3467.04 -0.753906 -0.011922 0
M  V30 36760 H 3469.69 -1.71202 0.660463 0
M  V30 36761 H 3468.07 -3.87067 -0.83639 0
M  V30 36762 H 3469.24 -4.14688 2.00925 0
M  V30 36763 H 3467.56 -3.81358 1.67197 0
M  V30 36764 H 3470.15 -5.30406 -0.67625 0
M  V30 36765 H 3470.5 -3.85069 -1.582 0
M  V30 36766 H 3471.03 -3.97642 0.112116 0
M  V30 36767 H 3467.77 -6.20303 2.11906 0
M  V30 36768 H 3467.29 -5.98323 0.42064 0
M  V30 36769 H 3468.97 -6.41692 0.827104 0
M  V30 36770 N 3469.1 -0.253021 -1.55556 0
M  V30 36771 C 3470.35 0.370564 -1.99386 0
M  V30 36772 C 3470.68 1.57143 -1.14104 0
M  V30 36773 O 3469.95 1.93407 -0.205862 0
M  V30 36774 C 3470.24 0.774441 -3.51674 0
M  V30 36775 C 3470.09 -0.432237 -4.47718 0
M  V30 36776 C 3471.41 1.61915 -4.09233 0
M  V30 36777 H 3468.53 0.133218 -0.72486 0
M  V30 36778 H 3471.17 -0.355555 -1.86644 0
M  V30 36779 H 3469.32 1.39312 -3.62663 0
M  V30 36780 H 3470.99 -1.07071 -4.48702 0
M  V30 36781 H 3469.24 -1.07426 -4.20288 0
M  V30 36782 H 3469.91 -0.10622 -5.51898 0
M  V30 36783 H 3472.38 1.09685 -4.01383 0
M  V30 36784 H 3471.26 1.87059 -5.16043 0
M  V30 36785 H 3471.52 2.59301 -3.58072 0
M  V30 36786 N 3470.58 1.57587 0.0200142 0
M  V30 36787 C 3471.54 2.06113 1.00251 0
M  V30 36788 C 3472.54 0.966851 1.28486 0
M  V30 36789 O 3473.73 1.23018 1.23338 0
M  V30 36790 C 3470.86 2.48571 2.33292 0
M  V30 36791 H 3472.06 2.94175 0.583164 0
M  V30 36792 H 3469.61 1.54002 0.26705 0
M  V30 36793 H 3470.34 1.63692 2.79956 0
M  V30 36794 H 3470.13 3.2847 2.14125 0
M  V30 36795 H 3471.62 2.8651 3.03812 0
M  V30 36796 N 3472.06 -0.292445 1.54863 0
M  V30 36797 C 3472.99 -1.38278 1.82789 0
M  V30 36798 C 3474 -1.4644 0.711278 0
M  V30 36799 O 3475.19 -1.48605 0.988878 0
M  V30 36800 C 3472.29 -2.76579 1.9585 0
M  V30 36801 C 3471.46 -2.91246 3.26335 0
M  V30 36802 C 3470.52 -4.10099 3.29705 0
M  V30 36803 O 3469.55 -4.01778 4.03191 0
M  V30 36804 N 3470.75 -5.21146 2.55709 0
M  V30 36805 H 3473.52 -1.14675 2.76893 0
M  V30 36806 H 3471.08 -0.482534 1.54542 0
M  V30 36807 H 3473.07 -3.54349 1.95497 0
M  V30 36808 H 3471.64 -2.93092 1.08702 0
M  V30 36809 H 3470.86 -2.00519 3.3939 0
M  V30 36810 H 3472.15 -2.97963 4.12426 0
M  V30 36811 H 3471.54 -5.30789 1.95652 0
M  V30 36812 H 3470.1 -5.97219 2.611 0
M  V30 36813 N 3473.53 -1.47465 -0.55605 0
M  V30 36814 C 3474.46 -1.62918 -1.67273 0
M  V30 36815 C 3475.45 -0.47859 -1.63228 0
M  V30 36816 O 3476.63 -0.708064 -1.80832 0
M  V30 36817 C 3473.76 -1.64431 -3.05908 0
M  V30 36818 C 3472.71 -2.78728 -3.24799 0
M  V30 36819 C 3472.04 -2.65315 -4.64233 0
M  V30 36820 C 3473.34 -4.20307 -3.10063 0
M  V30 36821 H 3475.03 -2.56399 -1.54596 0
M  V30 36822 H 3472.58 -1.23392 -0.742315 0
M  V30 36823 H 3474.53 -1.73832 -3.83875 0
M  V30 36824 H 3473.26 -0.675109 -3.19546 0
M  V30 36825 H 3471.92 -2.68839 -2.49241 0
M  V30 36826 H 3471.56 -1.6642 -4.74672 0
M  V30 36827 H 3471.26 -3.41994 -4.77822 0
M  V30 36828 H 3472.79 -2.76646 -5.44334 0
M  V30 36829 H 3474.2 -4.31166 -3.77847 0
M  V30 36830 H 3472.6 -4.97782 -3.35161 0
M  V30 36831 H 3473.67 -4.38593 -2.06796 0
M  V30 36832 N 3475.01 0.802873 -1.35616 0
M  V30 36833 C 3476.26 1.55706 -1.28841 0
M  V30 36834 C 3476.58 1.94526 0.135872 0
M  V30 36835 O 3475.85 1.63892 1.07314 0
M  V30 36836 H 3474.43 0.577419 -0.473916 0
M  V30 36837 H 3477.09 0.957457 -1.69761 0
M  V30 36838 H 3476.19 2.47079 -1.90679 0
M  V30 36839 N 3476.49 1.19674 1.02547 0
M  V30 36840 C 3477.44 0.937573 2.10899 0
M  V30 36841 C 3478.41 -0.128894 1.65599 0
M  V30 36842 O 3479.59 0.0139701 1.90795 0
M  V30 36843 C 3476.73 0.48608 3.4166 0
M  V30 36844 C 3475.85 1.6197 4.00487 0
M  V30 36845 C 3474.98 1.1194 5.19272 0
M  V30 36846 C 3474.02 2.22669 5.70162 0
M  V30 36847 N 3473.16 1.73921 6.80217 0
M  V30 36848 H 3478 1.86527 2.32404 0
M  V30 36849 H 3475.53 0.929889 1.1398 0
M  V30 36850 H 3477.49 0.205688 4.16693 0
M  V30 36851 H 3476.12 -0.404622 3.20254 0
M  V30 36852 H 3475.17 2.01522 3.22634 0
M  V30 36853 H 3476.49 2.45382 4.34268 0
M  V30 36854 H 3475.64 0.794442 6.01476 0
M  V30 36855 H 3474.38 0.255058 4.87033 0
M  V30 36856 H 3473.38 2.55991 4.86568 0
M  V30 36857 H 3474.61 3.09565 6.04439 0
M  V30 36858 H 3472.56 0.898003 6.49825 0
M  V30 36859 H 3472.47 2.5092 7.13145 0
M  V30 36860 H 3473.74 1.44399 7.66009 0
M  V30 36861 N 3477.97 -1.21711 1.00121 0
M  V30 36862 C 3479.19 -1.95223 0.700206 0
M  V30 36863 C 3479.62 -1.73352 -0.730107 0
M  V30 36864 O 3478.98 -1.01797 -1.50024 0
M  V30 36865 C 3479.03 -3.45812 1.02208 0
M  V30 36866 O 3478.13 -4.1221 0.125261 0
M  V30 36867 H 3477.47 -0.610447 0.261249 0
M  V30 36868 H 3480 -1.54575 1.34043 0
M  V30 36869 H 3480.01 -3.96366 0.967362 0
M  V30 36870 H 3478.69 -3.61054 2.06428 0
M  V30 36871 H 3477.26 -3.72151 0.236179 0
M  V30 36872 N 3479.45 -0.775459 -1.37202 0
M  V30 36873 C 3480.68 -0.352963 -2.03867 0
M  V30 36874 C 3481.09 1.02607 -1.58484 0
M  V30 36875 O 3480.45 1.65563 -0.767801 0
M  V30 36876 C 3480.5 -0.391223 -3.59377 0
M  V30 36877 O 3480.22 -1.71586 -4.031 0
M  V30 36878 C 3481.72 0.0424029 -4.4328 0
M  V30 36879 H 3478.94 -0.147371 -0.654616 0
M  V30 36880 H 3481.48 -1.05042 -1.75461 0
M  V30 36881 H 3479.64 0.257684 -3.86542 0
M  V30 36882 H 3480.05 -1.65704 -4.97637 0
M  V30 36883 H 3481.53 -0.0355186 -5.51989 0
M  V30 36884 H 3482 1.09326 -4.25376 0
M  V30 36885 H 3482.61 -0.578458 -4.21348 0
M  V30 36886 N 3480.93 1.48552 -0.526305 0
M  V30 36887 C 3481.89 2.28066 0.227699 0
M  V30 36888 C 3482.89 1.3516 0.871122 0
M  V30 36889 O 3484.08 1.58086 0.731741 0
M  V30 36890 C 3481.21 3.13922 1.32913 0
M  V30 36891 H 3482.4 2.96188 -0.470365 0
M  V30 36892 H 3479.96 1.53733 -0.282116 0
M  V30 36893 H 3480.69 2.50423 2.06056 0
M  V30 36894 H 3480.48 3.8226 0.872924 0
M  V30 36895 H 3481.97 3.73911 1.85957 0
M  V30 36896 N 3482.4 0.261267 1.55419 0
M  V30 36897 C 3483.33 -0.626087 2.2495 0
M  V30 36898 C 3484.31 -1.16995 1.23476 0
M  V30 36899 O 3485.5 -1.20664 1.52164 0
M  V30 36900 C 3482.63 -1.81663 2.96 0
M  V30 36901 C 3481.58 -1.40492 4.04285 0
M  V30 36902 C 3480.91 -2.67745 4.62835 0
M  V30 36903 C 3482.21 -0.565339 5.19231 0
M  V30 36904 H 3483.9 -0.0462638 2.99364 0
M  V30 36905 H 3481.45 -0.0208113 1.43985 0
M  V30 36906 H 3483.4 -2.44317 3.43347 0
M  V30 36907 H 3482.13 -2.42207 2.19097 0
M  V30 36908 H 3480.79 -0.80165 3.57728 0
M  V30 36909 H 3480.43 -3.26517 3.82617 0
M  V30 36910 H 3480.13 -2.40915 5.35942 0
M  V30 36911 H 3481.66 -3.31272 5.12924 0
M  V30 36912 H 3483.07 -1.09653 5.62716 0
M  V30 36913 H 3481.47 -0.392502 5.98815 0
M  V30 36914 H 3482.54 0.419144 4.83085 0
M  V30 36915 N 3483.88 -1.57596 -0.0116567 0
M  V30 36916 C 3484.83 -2.08793 -1.02511 0
M  V30 36917 C 3485.82 -1.00539 -1.36339 0
M  V30 36918 O 3487.03 -1.19014 -1.3504 0
M  V30 36919 H 3483.4 -0.666535 -0.348189 0
M  V30 36920 H 3485.38 -2.92951 -0.567646 0
M  V30 36921 C 3484.12 -2.597 -2.31195 0
M  V30 36922 H 3483.45 -3.42625 -2.0603 0
M  V30 36923 H 3484.89 -2.99214 -3.00412 0
M  V30 36924 C 3483.35 -1.50592 -3.0137 0
M  V30 36925 O 3483.88 -0.882115 -3.91895 0
M  V30 36926 N 3482.08 -1.2362 -2.62995 0
M  V30 36927 H 3481.63 -1.74532 -1.89463 0
M  V30 36928 H 3481.59 -0.508344 -3.10263 0
M  V30 36929 N 3485.36 0.284228 -1.55016 0
M  V30 36930 C 3486.6 1.02508 -1.76837 0
M  V30 36931 C 3486.96 1.83903 -0.551707 0
M  V30 36932 O 3488.16 2.60873 -0.647965 0
M  V30 36933 C 3486.44 1.89343 -3.03124 0
M  V30 36934 S 3487.99 2.69846 -3.46018 0
M  V30 36935 H 3484.81 0.345442 -0.621442 0
M  V30 36936 H 3487.41 0.296674 -1.93236 0
M  V30 36937 H 3486.12 1.28451 -3.8978 0
M  V30 36938 H 3485.65 2.66523 -2.8936 0
M  V30 36939 H 3487.66 3.91855 -3.04407 0
M  V30 36940 N 3486.84 1.47758 0.548222 0
M  V30 36941 C 3488.06 1.58724 1.33497 0
M  V30 36942 C 3488.49 0.241067 1.86549 0
M  V30 36943 O 3487.85 -0.784488 1.63449 0
M  V30 36944 C 3487.89 2.62297 2.47452 0
M  V30 36945 O 3487 2.18191 3.49952 0
M  V30 36946 H 3486.34 0.532875 0.396156 0
M  V30 36947 H 3488.87 1.93608 0.661606 0
M  V30 36948 H 3488.88 2.83 2.93896 0
M  V30 36949 H 3487.55 3.60037 2.08197 0
M  V30 36950 H 3486.13 2.07626 3.09751 0
M  V30 36951 N 3488.32 -0.79567 1.3604 0
M  V30 36952 C 3489.56 -1.55557 1.30114 0
M  V30 36953 C 3489.89 -1.93822 -0.121163 0
M  V30 36954 O 3489.17 -1.62218 -1.07311 0
M  V30 36955 C 3489.45 -2.83686 2.21797 0
M  V30 36956 C 3489.31 -2.51829 3.72696 0
M  V30 36957 C 3490.62 -3.85469 2.12372 0
M  V30 36958 H 3487.74 -0.564368 0.473981 0
M  V30 36959 H 3490.39 -0.91462 1.66537 0
M  V30 36960 H 3488.54 -3.38382 1.90866 0
M  V30 36961 H 3490.21 -2.03232 4.14119 0
M  V30 36962 H 3488.45 -1.84862 3.92439 0
M  V30 36963 H 3489.12 -3.43315 4.32248 0
M  V30 36964 H 3491.6 -3.40203 2.39586 0
M  V30 36965 H 3490.47 -4.7288 2.78703 0
M  V30 36966 H 3490.73 -4.27963 1.10905 0
M  V30 36967 N 3489.79 -1.20217 -1.0191 0
M  V30 36968 C 3491.07 -0.919897 -1.72619 0
M  V30 36969 C 3491.45 0.571965 -2.03204 0
M  V30 36970 O 3490.8 1.53293 -1.69451 0
M  V30 36971 C 3491.01 -1.79022 -2.99587 0
M  V30 36972 C 3492.36 -2.03052 -3.72901 0
M  V30 36973 O 3493.38 -1.76254 -3.09537 0
M  V30 36974 O 3492.24 -2.48294 -4.86839 0
M  V30 36975 H 3489.33 -0.343718 -0.752188 0
M  V30 36976 H 3491.88 -1.31078 -1.07781 0
M  V30 36977 H 3490.65 -2.80053 -2.73287 0
M  V30 36978 H 3490.28 -1.39925 -3.72165 0
M  V30 36979 N 3491.27 1.21178 -1.00765 0
M  V30 36980 C 3492.52 1.89938 -0.690493 0
M  V30 36981 C 3492.84 1.78658 0.781432 0
M  V30 36982 O 3492.11 1.18318 1.56133 0
M  V30 36983 H 3490.69 0.703064 -0.252409 0
M  V30 36984 H 3493.35 1.47208 -1.27733 0
M  V30 36985 H 3492.45 2.96774 -0.965992 0
M  V30 36986 N 3492.75 0.782725 1.36789 0
M  V30 36987 C 3493.7 0.164399 2.32018 0
M  V30 36988 C 3494.69 -0.672543 1.55477 0
M  V30 36989 O 3495.9 -0.568376 1.70791 0
M  V30 36990 H 3492.27 0.0343829 0.751214 0
M  V30 36991 H 3494.24 0.983126 2.8174 0
M  V30 36992 C 3492.99 -0.691667 3.40751 0
M  V30 36993 H 3492.32 -0.0570182 3.99759 0
M  V30 36994 H 3493.76 -1.0911 4.09721 0
M  V30 36995 C 3492.22 -1.84703 2.81756 0
M  V30 36996 O 3492.75 -2.9432 2.73383 0
M  V30 36997 N 3490.95 -1.65106 2.39141 0
M  V30 36998 H 3490.5 -0.759444 2.46151 0
M  V30 36999 H 3490.46 -2.42573 2.00014 0
M  V30 37000 N 3494.23 -1.48271 0.534176 0
M  V30 37001 C 3495.64 -1.86459 0.0947919 0
M  V30 37002 C 3495.99 -1.4433 -1.32903 0
M  V30 37003 O 3495.12 -0.835901 -1.99604 0
M  V30 37004 C 3495.71 -3.38397 0.165249 0
M  V30 37005 C 3494.27 -3.75763 -0.218963 0
M  V30 37006 C 3493.42 -2.72321 0.523145 0
M  V30 37007 H 3496.37 -1.40116 0.745194 0
M  V30 37008 H 3496.39 -3.75382 -0.621999 0
M  V30 37009 H 3495.9 -3.69029 1.20164 0
M  V30 37010 H 3494 -3.50745 -1.25734 0
M  V30 37011 H 3494.11 -4.78941 0.123566 0
M  V30 37012 H 3492.48 -2.54681 -0.0310875 0
M  V30 37013 H 3493.26 -3.05796 1.56025 0
M  V30 37014 N 3495.71 -0.269505 -1.55279 0
M  V30 37015 C 3497.12 0.229339 -1.85286 0
M  V30 37016 C 3497.47 1.55877 -1.19151 0
M  V30 37017 O 3496.59 2.11058 -0.477837 0
M  V30 37018 C 3497.19 0.422901 -3.3615 0
M  V30 37019 C 3495.75 0.865983 -3.66303 0
M  V30 37020 C 3494.89 -0.0439516 -2.77265 0
M  V30 37021 H 3497.85 -0.491453 -1.50899 0
M  V30 37022 H 3497.87 1.26228 -3.58952 0
M  V30 37023 H 3497.38 -0.544835 -3.84257 0
M  V30 37024 H 3495.48 1.84539 -3.23691 0
M  V30 37025 H 3495.59 0.707191 -4.73852 0
M  V30 37026 H 3493.96 0.471389 -2.503 0
M  V30 37027 H 3494.74 -1.00747 -3.28184 0
M  V30 37028 N 3497.18 1.576 0.00329885 0
M  V30 37029 C 3498.6 1.78521 0.546549 0
M  V30 37030 C 3498.95 0.903753 1.74146 0
M  V30 37031 O 3498.07 0.105352 2.16143 0
M  V30 37032 C 3498.67 3.23759 0.998287 0
M  V30 37033 C 3497.23 3.45788 1.48687 0
M  V30 37034 C 3496.37 2.73842 0.436569 0
M  V30 37035 H 3499.32 1.57127 -0.22288 0
M  V30 37036 H 3499.34 3.3169 1.86446 0
M  V30 37037 H 3498.86 3.87888 0.128411 0
M  V30 37038 H 3496.96 2.86869 2.37775 0
M  V30 37039 H 3497.07 4.54462 1.5166 0
M  V30 37040 H 3495.43 2.38365 0.897465 0
M  V30 37041 H 3496.22 3.40668 -0.424284 0
M  V30 37042 N 3498.66 -0.276003 1.55164 0
M  V30 37043 C 3499.57 -1.36318 1.90931 0
M  V30 37044 C 3500.59 -1.54196 0.80621 0
M  V30 37045 O 3501.76 -1.6838 1.105 0
M  V30 37046 C 3498.83 -2.70289 2.17128 0
M  V30 37047 C 3497.89 -2.61184 3.40707 0
M  V30 37048 C 3497.12 -3.88766 3.65645 0
M  V30 37049 O 3497.35 -4.89308 2.93145 0
M  V30 37050 O 3496.28 -3.89151 4.59179 0
M  V30 37051 H 3500.11 -1.08983 2.83472 0
M  V30 37052 H 3497.69 -0.474267 1.41672 0
M  V30 37053 H 3499.57 -3.4951 2.35416 0
M  V30 37054 H 3498.25 -2.97416 1.2777 0
M  V30 37055 H 3497.16 -1.80349 3.27757 0
M  V30 37056 H 3498.49 -2.39007 4.30275 0
M  V30 37057 N 3500.14 -1.48046 -0.540378 0
M  V30 37058 C 3501.39 -1.5479 -1.29318 0
M  V30 37059 C 3501.7 -0.222143 -1.94334 0
M  V30 37060 O 3502.91 -0.167723 -2.70981 0
M  V30 37061 C 3501.36 -2.72939 -2.3459 0
M  V30 37062 C 3500.97 -4.12114 -1.75689 0
M  V30 37063 C 3502.72 -2.88988 -3.10944 0
M  V30 37064 C 3500.62 -5.21538 -2.7884 0
M  V30 37065 H 3499.55 -0.576214 -0.486305 0
M  V30 37066 H 3502.2 -1.74358 -0.571968 0
M  V30 37067 H 3500.59 -2.46783 -3.097 0
M  V30 37068 H 3501.76 -4.48244 -1.06837 0
M  V30 37069 H 3500.08 -4.01093 -1.11862 0
M  V30 37070 H 3502.67 -3.67907 -3.88006 0
M  V30 37071 H 3503.02 -1.98054 -3.6617 0
M  V30 37072 H 3503.55 -3.14994 -2.42948 0
M  V30 37073 H 3500.29 -6.14404 -2.28448 0
M  V30 37074 H 3499.81 -4.89907 -3.4605 0
M  V30 37075 H 3501.49 -5.49209 -3.42021 0
M  V30 37076 N 3501.62 0.788444 -1.3646 0
M  V30 37077 C 3502.87 1.54155 -1.30073 0
M  V30 37078 C 3503.18 1.95247 0.117539 0
M  V30 37079 O 3504.39 2.69795 0.30379 0
M  V30 37080 C 3502.84 2.78287 -2.2822 0
M  V30 37081 C 3502.45 2.44361 -3.75489 0
M  V30 37082 C 3504.19 3.56267 -2.30812 0
M  V30 37083 C 3502.1 3.64893 -4.6541 0
M  V30 37084 H 3501.03 0.578691 -0.483355 0
M  V30 37085 H 3503.68 0.865094 -1.61828 0
M  V30 37086 H 3502.06 3.47737 -1.8946 0
M  V30 37087 H 3503.24 1.82802 -4.2299 0
M  V30 37088 H 3501.55 1.7959 -3.75681 0
M  V30 37089 H 3504.15 4.45824 -2.95204 0
M  V30 37090 H 3504.49 3.94921 -1.31694 0
M  V30 37091 H 3505.03 2.93797 -2.68194 0
M  V30 37092 H 3501.77 3.31334 -5.65595 0
M  V30 37093 H 3501.29 4.25615 -4.22625 0
M  V30 37094 H 3502.96 4.3191 -4.81729 0
M  V30 37095 N 3503.1 1.20755 1.01271 0
M  V30 37096 C 3504.34 1.03164 1.75296 0
M  V30 37097 C 3504.7 -0.431266 1.87504 0
M  V30 37098 O 3503.99 -1.3159 1.39265 0
M  V30 37099 C 3504.18 1.65334 3.16859 0
M  V30 37100 C 3504.01 3.17518 3.18453 0
M  V30 37101 C 3502.78 3.86518 3.25472 0
M  V30 37102 C 3504.98 4.14698 3.04188 0
M  V30 37103 N 3502.96 5.25957 3.16611 0
M  V30 37104 C 3504.33 5.40839 3.03139 0
M  V30 37105 C 3506.39 4.05846 2.88433 0
M  V30 37106 C 3505.09 6.59148 2.87951 0
M  V30 37107 C 3507.12 5.23783 2.74599 0
M  V30 37108 C 3506.48 6.48832 2.74221 0
M  V30 37109 H 3502.58 0.431773 0.651994 0
M  V30 37110 H 3505.16 1.52988 1.20427 0
M  V30 37111 H 3503.33 1.18088 3.70013 0
M  V30 37112 H 3505.07 1.41022 3.79335 0
M  V30 37113 H 3501.82 3.37398 3.32355 0
M  V30 37114 H 3502.25 5.98967 3.15544 0
M  V30 37115 H 3506.89 3.09972 2.87537 0
M  V30 37116 H 3504.61 7.55191 2.87596 0
M  V30 37117 H 3508.19 5.18749 2.63421 0
M  V30 37118 H 3507.07 7.38555 2.6364 0
M  V30 37119 N 3504.58 -1.20642 1.01406 0
M  V30 37120 C 3505.82 -1.89264 0.697277 0
M  V30 37121 C 3506.14 -1.79543 -0.776118 0
M  V30 37122 O 3507.34 -2.43276 -1.20536 0
M  V30 37123 C 3505.8 -3.39419 1.19677 0
M  V30 37124 C 3505.41 -3.57731 2.69689 0
M  V30 37125 C 3507.15 -4.13611 0.955298 0
M  V30 37126 C 3505.06 -5.01699 3.13133 0
M  V30 37127 H 3503.99 -0.708807 0.257117 0
M  V30 37128 H 3506.64 -1.36496 1.22642 0
M  V30 37129 H 3505.02 -3.91495 0.595631 0
M  V30 37130 H 3506.2 -3.16053 3.35331 0
M  V30 37131 H 3504.51 -2.96906 2.91952 0
M  V30 37132 H 3507.11 -5.19755 1.25533 0
M  V30 37133 H 3507.45 -4.16159 -0.108289 0
M  V30 37134 H 3507.98 -3.67628 1.51969 0
M  V30 37135 H 3504.72 -5.04304 4.18757 0
M  V30 37136 H 3504.24 -5.44197 2.5221 0
M  V30 37137 H 3505.92 -5.70264 3.05627 0
M  V30 37138 N 3506.05 -0.789968 -1.36372 0
M  V30 37139 C 3506.98 -0.202984 -2.32616 0
M  V30 37140 C 3507.96 0.662336 -1.56675 0
M  V30 37141 O 3509.15 0.596046 -1.84827 0
M  V30 37142 C 3506.28 0.662586 -3.40921 0
M  V30 37143 C 3505.23 -0.102886 -4.27876 0
M  V30 37144 C 3504.56 0.883314 -5.27353 0
M  V30 37145 C 3505.86 -1.2924 -5.06058 0
M  V30 37146 H 3507.55 -1.00704 -2.81956 0
M  V30 37147 H 3505.1 -0.485704 -1.35562 0
M  V30 37148 H 3507.05 1.08317 -4.07241 0
M  V30 37149 H 3505.78 1.49935 -2.9015 0
M  V30 37150 H 3504.44 -0.504453 -3.63113 0
M  V30 37151 H 3504.08 1.71513 -4.72856 0
M  V30 37152 H 3503.78 0.375566 -5.86399 0
M  V30 37153 H 3505.31 1.30245 -5.96547 0
M  V30 37154 H 3506.72 -0.947546 -5.65415 0
M  V30 37155 H 3505.12 -1.73348 -5.74518 0
M  V30 37156 H 3506.19 -2.08747 -4.37667 0
M  V30 37157 N 3507.53 1.47986 -0.542031 0
M  V30 37158 C 3508.94 1.86406 -0.104679 0
M  V30 37159 C 3509.29 1.45033 1.32136 0
M  V30 37160 O 3508.42 0.846474 1.99158 0
M  V30 37161 C 3509.01 3.38304 -0.183193 0
M  V30 37162 C 3507.57 3.75873 0.199032 0
M  V30 37163 C 3506.72 2.72039 -0.53758 0
M  V30 37164 H 3509.67 1.39719 -0.752614 0
M  V30 37165 H 3509.69 3.75706 0.602083 0
M  V30 37166 H 3509.2 3.68386 -1.22119 0
M  V30 37167 H 3507.3 3.51407 1.23872 0
M  V30 37168 H 3507.42 4.78868 -0.148964 0
M  V30 37169 H 3505.78 2.54694 0.0175807 0
M  V30 37170 H 3506.56 3.04964 -1.57644 0
M  V30 37171 N 3509.01 0.277736 1.55133 0
M  V30 37172 C 3509.96 -0.624555 2.24058 0
M  V30 37173 C 3510.95 -1.15574 1.2385 0
M  V30 37174 O 3512.16 -1.10907 1.41773 0
M  V30 37175 H 3508.53 -0.219964 0.71911 0
M  V30 37176 H 3510.5 -0.020429 2.98393 0
M  V30 37177 C 3509.25 -1.79613 2.97715 0
M  V30 37178 H 3508.58 -1.39658 3.74614 0
M  V30 37179 H 3510.02 -2.40403 3.49259 0
M  V30 37180 C 3508.47 -2.68618 2.03337 0
M  V30 37181 O 3509 -3.69053 1.58628 0
M  V30 37182 N 3507.21 -2.35844 1.69782 0
M  V30 37183 H 3506.76 -1.54219 2.06335 0
M  V30 37184 H 3506.72 -2.95666 1.06906 0
M  V30 37185 N 3510.49 -1.57599 0.00505908 0
M  V30 37186 C 3511.74 -1.9041 -0.677387 0
M  V30 37187 C 3512.06 -0.879661 -1.74032 0
M  V30 37188 O 3511.33 0.0822413 -1.95727 0
M  V30 37189 H 3509.91 -0.702784 -0.253188 0
M  V30 37190 H 3512.57 -1.94843 0.0471808 0
M  V30 37191 H 3511.66 -2.90321 -1.14543 0
M  V30 37192 N 3511.97 0.267771 -1.55309 0
M  V30 37193 C 3513.19 1.01677 -1.80192 0
M  V30 37194 C 3513.61 1.79739 -0.577861 0
M  V30 37195 O 3512.97 1.76784 0.453169 0
M  V30 37196 C 3513.02 1.97122 -3.03027 0
M  V30 37197 O 3512.74 1.22222 -4.20706 0
M  V30 37198 C 3514.24 2.83792 -3.40554 0
M  V30 37199 H 3511.46 0.300132 -0.600135 0
M  V30 37200 H 3514 0.296971 -2.02332 0
M  V30 37201 H 3512.16 2.64558 -2.82998 0
M  V30 37202 H 3512.57 1.86599 -4.90185 0
M  V30 37203 H 3514.05 3.4655 -4.29659 0
M  V30 37204 H 3514.52 3.53832 -2.60192 0
M  V30 37205 H 3515.13 2.2184 -3.6286 0
M  V30 37206 N 3513.44 1.48331 0.532519 0
M  V30 37207 C 3514.86 1.34395 0.860819 0
M  V30 37208 C 3515.06 0.353048 1.98383 0
M  V30 37209 O 3514.12 -0.226644 2.51481 0
M  V30 37210 C 3515.43 2.7436 1.23074 0
M  V30 37211 C 3516.98 2.82829 1.34077 0
M  V30 37212 C 3517.45 4.2349 1.74413 0
M  V30 37213 N 3518.94 4.26151 1.8152 0
M  V30 37214 C 3519.68 5.31925 2.14111 0
M  V30 37215 N 3519.17 6.47979 2.45143 0
M  V30 37216 N 3520.97 5.19317 2.15095 0
M  V30 37217 H 3513.12 2.11374 -0.208501 0
M  V30 37218 H 3515.38 0.947505 -0.0306366 0
M  V30 37219 H 3515.09 3.4842 0.479199 0
M  V30 37220 H 3514.96 3.07721 2.18145 0
M  V30 37221 H 3517.35 2.09026 2.08308 0
M  V30 37222 H 3517.43 2.53091 0.371326 0
M  V30 37223 H 3517.07 4.97808 1.00743 0
M  V30 37224 H 3517 4.50671 2.72403 0
M  V30 37225 H 3519.49 3.42439 1.59826 0
M  V30 37226 H 3519.81 7.24431 2.69109 0
M  V30 37227 H 3518.15 6.51258 2.42668 0
M  V30 37228 H 3521.34 4.27669 1.90307 0
M  V30 37229 H 3521.52 6.01852 2.40162 0
M  V30 37230 N 3514.92 -0.781196 1.36876 0
M  V30 37231 C 3516.17 -1.53941 1.31562 0
M  V30 37232 C 3516.5 -1.94229 -0.102696 0
M  V30 37233 O 3515.75 -1.63607 -1.07383 0
M  V30 37234 C 3516.05 -2.82305 2.19177 0
M  V30 37235 C 3515.72 -2.61115 3.676 0
M  V30 37236 C 3514.38 -2.55044 4.08051 0
M  V30 37237 C 3516.73 -2.4189 4.61669 0
M  V30 37238 C 3514.06 -2.27726 5.40701 0
M  V30 37239 C 3516.41 -2.16097 5.94546 0
M  V30 37240 C 3515.07 -2.08465 6.34112 0
M  V30 37241 H 3514.34 -0.563308 0.48142 0
M  V30 37242 H 3516.99 -0.900608 1.69001 0
M  V30 37243 H 3515.3 -3.50694 1.74702 0
M  V30 37244 H 3516.99 -3.40137 2.12385 0
M  V30 37245 H 3513.58 -2.66699 3.35514 0
M  V30 37246 H 3517.77 -2.45576 4.31284 0
M  V30 37247 H 3513.02 -2.20305 5.70329 0
M  V30 37248 H 3517.2 -2.00219 6.66997 0
M  V30 37249 H 3514.82 -1.87061 7.36826 0
M  V30 37250 N 3516.4 -1.21291 -1.0063 0
M  V30 37251 C 3517.62 -1.05604 -1.78501 0
M  V30 37252 C 3518.05 0.389847 -1.84016 0
M  V30 37253 O 3517.41 1.28118 -1.28279 0
M  V30 37254 C 3517.46 -1.65631 -3.2031 0
M  V30 37255 O 3516.56 -0.900912 -4.02439 0
M  V30 37256 H 3515.9 -0.371755 -0.550176 0
M  V30 37257 H 3518.43 -1.60805 -1.26502 0
M  V30 37258 H 3518.44 -1.69798 -3.70989 0
M  V30 37259 H 3517.12 -2.70855 -3.15611 0
M  V30 37260 H 3515.69 -0.934241 -3.61007 0
M  V30 37261 N 3517.88 1.20103 -1.02045 0
M  V30 37262 C 3518.83 2.25062 -0.587371 0
M  V30 37263 C 3519.82 1.65179 0.375815 0
M  V30 37264 O 3521.03 1.78321 0.245316 0
M  V30 37265 H 3517.4 0.732148 -0.17165 0
M  V30 37266 H 3519.37 2.58915 -1.48344 0
M  V30 37267 C 3518.12 3.47657 0.0546282 0
M  V30 37268 H 3517.44 3.94017 -0.677526 0
M  V30 37269 H 3518.88 4.22785 0.320712 0
M  V30 37270 C 3517.34 3.10865 1.29863 0
M  V30 37271 O 3517.87 3.2275 2.39156 0
M  V30 37272 N 3516.08 2.65378 1.18419 0
M  V30 37273 H 3515.63 2.55907 0.29485 0
M  V30 37274 H 3515.58 2.41131 2.0175 0
M  V30 37275 N 3519.36 0.797189 1.35951 0
M  V30 37276 C 3520.6 0.37244 1.98639 0
M  V30 37277 C 3520.93 -1.06155 1.63573 0
M  V30 37278 O 3520.2 -1.73295 0.913546 0
M  V30 37279 H 3518.78 0.134723 0.734751 0
M  V30 37280 H 3521.44 1.02095 1.6602 0
M  V30 37281 H 3520.53 0.470545 3.08532 0
M  V30 37282 N 3520.83 -1.47696 0.549872 0
M  V30 37283 C 3522.25 -1.86348 0.114563 0
M  V30 37284 C 3522.6 -1.45731 -1.31365 0
M  V30 37285 O 3521.72 -0.857024 -1.98706 0
M  V30 37286 C 3522.32 -3.38202 0.201131 0
M  V30 37287 C 3520.88 -3.75974 -0.179096 0
M  V30 37288 C 3520.02 -2.7175 0.551999 0
M  V30 37289 H 3522.97 -1.39318 0.760014 0
M  V30 37290 H 3522.99 -3.7602 -0.58215 0
M  V30 37291 H 3522.51 -3.67734 1.24071 0
M  V30 37292 H 3520.61 -3.52059 -1.22006 0
M  V30 37293 H 3520.72 -4.78783 0.174357 0
M  V30 37294 H 3519.08 -2.547 -0.00407342 0
M  V30 37295 H 3519.87 -3.04124 1.59259 0
M  V30 37296 N 3522.31 -0.285959 -1.54984 0
M  V30 37297 C 3523.24 0.630197 -2.20366 0
M  V30 37298 C 3524.26 1.10916 -1.1917 0
M  V30 37299 O 3525.45 1.0292 -1.45841 0
M  V30 37300 C 3522.55 1.87294 -2.82443 0
M  V30 37301 C 3521.72 1.53898 -4.09432 0
M  V30 37302 C 3520.78 2.6353 -4.55454 0
M  V30 37303 O 3519.8 2.29258 -5.20989 0
M  V30 37304 N 3521.01 3.93794 -4.26505 0
M  V30 37305 H 3523.77 0.0705518 -2.99617 0
M  V30 37306 H 3521.33 -0.107515 -1.61543 0
M  V30 37307 H 3523.32 2.59954 -3.10171 0
M  V30 37308 H 3521.89 2.34136 -2.07121 0
M  V30 37309 H 3521.11 0.645705 -3.88876 0
M  V30 37310 H 3522.4 1.29102 -4.92148 0
M  V30 37311 H 3521.8 4.24455 -3.73971 0
M  V30 37312 H 3520.36 4.62799 -4.58978 0
M  V30 37313 N 3523.79 1.57594 -0.0134169 0
M  V30 37314 C 3525.02 1.95837 0.68282 0
M  V30 37315 C 3525.44 0.889078 1.65762 0
M  V30 37316 O 3524.8 -0.151553 1.80665 0
M  V30 37317 C 3524.85 3.3318 1.37925 0
M  V30 37318 O 3523.95 3.28433 2.4941 0
M  V30 37319 H 3523.29 0.638963 0.180618 0
M  V30 37320 H 3525.82 2.04478 -0.0706003 0
M  V30 37321 H 3525.83 3.69054 1.73963 0
M  V30 37322 H 3524.51 4.10556 0.664602 0
M  V30 37323 H 3523.08 3.04255 2.156 0
M  V30 37324 N 3525.27 -0.259531 1.55448 0
M  V30 37325 C 3526.5 -1.00574 1.80467 0
M  V30 37326 C 3526.91 -1.79928 0.585032 0
M  V30 37327 O 3526.25 -1.7796 -0.455609 0
M  V30 37328 C 3526.31 -2.0014 2.98637 0
M  V30 37329 C 3525.98 -1.39599 4.35156 0
M  V30 37330 C 3526.97 -0.804832 5.13633 0
M  V30 37331 C 3524.66 -1.41915 4.81836 0
M  V30 37332 C 3526.65 -0.244895 6.36929 0
M  V30 37333 C 3524.34 -0.855352 6.05084 0
M  V30 37334 C 3525.34 -0.269239 6.82469 0
M  V30 37335 O 3525.02 0.285884 8.03392 0
M  V30 37336 H 3524.76 -0.302185 0.604698 0
M  V30 37337 H 3527.31 -0.291564 2.0332 0
M  V30 37338 H 3525.54 -2.75354 2.71509 0
M  V30 37339 H 3527.23 -2.61 3.1086 0
M  V30 37340 H 3528 -0.779541 4.78694 0
M  V30 37341 H 3523.87 -1.86474 4.21602 0
M  V30 37342 H 3527.42 0.213221 6.97274 0
M  V30 37343 H 3523.32 -0.877928 6.39502 0
M  V30 37344 H 3524.08 0.176534 8.1831 0
M  V30 37345 N 3526.75 -1.48611 -0.524645 0
M  V30 37346 C 3527.68 -1.59624 -1.64478 0
M  V30 37347 C 3528.69 -0.480208 -1.55557 0
M  V30 37348 O 3529.88 -0.751282 -1.6192 0
M  V30 37349 C 3526.98 -1.51492 -3.03156 0
M  V30 37350 C 3526.15 -2.78226 -3.37504 0
M  V30 37351 C 3525.21 -2.63475 -4.55486 0
M  V30 37352 O 3524.24 -3.37372 -4.58442 0
M  V30 37353 N 3525.44 -1.73446 -5.53982 0
M  V30 37354 H 3528.21 -2.56224 -1.55466 0
M  V30 37355 H 3525.77 -1.45402 -0.712033 0
M  V30 37356 H 3527.76 -1.39311 -3.79966 0
M  V30 37357 H 3526.33 -0.62846 -3.06217 0
M  V30 37358 H 3525.55 -3.04933 -2.49819 0
M  V30 37359 H 3526.84 -3.62294 -3.5724 0
M  V30 37360 H 3526.23 -1.12621 -5.54376 0
M  V30 37361 H 3524.79 -1.67201 -6.2999 0
M  V30 37362 N 3528.22 0.773926 -1.37289 0
M  V30 37363 C 3529.45 1.56073 -1.35369 0
M  V30 37364 C 3529.86 1.89094 0.0634105 0
M  V30 37365 O 3529.21 1.51767 1.03501 0
M  V30 37366 C 3529.27 2.8996 -2.12517 0
M  V30 37367 C 3528.93 2.79587 -3.61497 0
M  V30 37368 C 3529.93 2.50766 -4.55426 0
M  V30 37369 C 3527.61 2.97677 -4.04591 0
M  V30 37370 C 3529.61 2.4016 -5.90425 0
M  V30 37371 C 3527.29 2.86692 -5.39677 0
M  V30 37372 C 3528.29 2.57973 -6.32407 0
M  V30 37373 O 3527.98 2.4701 -7.65011 0
M  V30 37374 H 3527.71 0.490232 -0.465455 0
M  V30 37375 H 3530.27 0.967241 -1.812 0
M  V30 37376 H 3528.5 3.5142 -1.61372 0
M  V30 37377 H 3530.19 3.51341 -2.03259 0
M  V30 37378 H 3530.95 2.36477 -4.23443 0
M  V30 37379 H 3526.83 3.19033 -3.32775 0
M  V30 37380 H 3530.37 2.17665 -6.62773 0
M  V30 37381 H 3526.27 3.00548 -5.71263 0
M  V30 37382 H 3527.04 2.62376 -7.75307 0
M  V30 37383 N 3529.7 1.21823 0.99985 0
M  V30 37384 C 3530.63 1.00625 2.10706 0
M  V30 37385 C 3531.61 -0.0705118 1.69954 0
M  V30 37386 O 3532.8 0.0903383 1.9399 0
M  V30 37387 C 3529.93 0.575706 3.42495 0
M  V30 37388 C 3528.88 1.59761 3.97065 0
M  V30 37389 C 3528.21 1.02314 5.2482 0
M  V30 37390 C 3529.51 2.98581 4.2854 0
M  V30 37391 H 3531.2 1.9323 2.28697 0
M  V30 37392 H 3528.75 0.930462 1.09902 0
M  V30 37393 H 3530.7 0.414555 4.19356 0
M  V30 37394 H 3529.43 -0.386002 3.24311 0
M  V30 37395 H 3528.08 1.74642 3.22329 0
M  V30 37396 H 3527.73 0.05299 5.02972 0
M  V30 37397 H 3527.43 1.70577 5.62296 0
M  V30 37398 H 3528.96 0.873418 6.04321 0
M  V30 37399 H 3530.37 2.87115 4.96224 0
M  V30 37400 H 3528.77 3.63905 4.77172 0
M  V30 37401 H 3529.84 3.49038 3.36601 0
M  V30 37402 N 3531.18 -1.1956 1.0268 0
M  V30 37403 C 3532.43 -1.88514 0.717312 0
M  V30 37404 C 3532.74 -1.80356 -0.757031 0
M  V30 37405 O 3533.95 -2.44541 -1.17949 0
M  V30 37406 C 3532.4 -3.38131 1.23271 0
M  V30 37407 C 3532.01 -3.54851 2.73468 0
M  V30 37408 C 3533.76 -4.12575 0.999113 0
M  V30 37409 C 3531.66 -4.98349 3.18437 0
M  V30 37410 H 3530.59 -0.70604 0.26462 0
M  V30 37411 H 3533.24 -1.35188 1.24083 0
M  V30 37412 H 3531.63 -3.90841 0.63712 0
M  V30 37413 H 3532.8 -3.12479 3.38664 0
M  V30 37414 H 3531.12 -2.93793 2.95084 0
M  V30 37415 H 3533.71 -5.18395 1.31039 0
M  V30 37416 H 3534.06 -4.16251 -0.0641438 0
M  V30 37417 H 3534.59 -3.65995 1.5586 0
M  V30 37418 H 3531.33 -4.99834 4.24082 0
M  V30 37419 H 3530.85 -5.41491 2.57967 0
M  V30 37420 H 3532.53 -5.6699 3.11659 0
M  V30 37421 N 3532.66 -0.804387 -1.35526 0
M  V30 37422 C 3533.62 -0.21889 -2.28152 0
M  V30 37423 C 3534.62 0.592484 -1.49487 0
M  V30 37424 O 3535.81 0.411289 -1.69275 0
M  V30 37425 C 3532.94 0.695136 -3.33737 0
M  V30 37426 H 3534.14 -1.03581 -2.81445 0
M  V30 37427 H 3531.69 -0.574879 -1.45344 0
M  V30 37428 H 3532.42 1.53582 -2.85627 0
M  V30 37429 H 3532.21 0.115074 -3.91931 0
M  V30 37430 H 3533.7 1.09918 -4.02874 0
M  V30 37431 N 3534.14 1.47403 -0.557697 0
M  V30 37432 C 3535.36 2.07367 -0.0367161 0
M  V30 37433 C 3535.79 1.40756 1.24777 0
M  V30 37434 O 3535.15 0.482711 1.74756 0
M  V30 37435 C 3535.19 3.60322 0.141665 0
M  V30 37436 O 3534.3 3.94429 1.20412 0
M  V30 37437 H 3533.64 0.661996 -0.0515435 0
M  V30 37438 H 3536.17 1.89414 -0.773519 0
M  V30 37439 H 3536.18 4.06446 0.355716 0
M  V30 37440 H 3534.85 4.08202 -0.796505 0
M  V30 37441 H 3533.43 3.60049 0.970526 0
M  V30 37442 N 3535.62 0.294175 1.5483 0
M  V30 37443 C 3536.56 -0.600756 2.24708 0
M  V30 37444 C 3537.56 -1.14254 1.25069 0
M  V30 37445 O 3538.76 -1.09397 1.42941 0
M  V30 37446 H 3535.14 -0.212325 0.721403 0
M  V30 37447 H 3537.11 0.0112207 2.98398 0
M  V30 37448 C 3535.86 -1.76445 2.99604 0
M  V30 37449 H 3535.18 -1.35677 3.76074 0
M  V30 37450 H 3536.62 -2.36686 3.5179 0
M  V30 37451 C 3535.08 -2.66446 2.06175 0
M  V30 37452 O 3535.61 -3.6735 1.62533 0
M  V30 37453 N 3533.82 -2.3403 1.72274 0
M  V30 37454 H 3533.36 -1.52022 2.0796 0
M  V30 37455 H 3533.32 -2.94516 1.10036 0
M  V30 37456 N 3537.09 -1.57585 0.0217743 0
M  V30 37457 C 3538.34 -1.91118 -0.657153 0
M  V30 37458 C 3538.66 -0.898069 -1.73089 0
M  V30 37459 O 3537.93 0.0614771 -1.95804 0
M  V30 37460 H 3536.51 -0.705429 -0.24572 0
M  V30 37461 H 3539.17 -1.94782 0.0678439 0
M  V30 37462 H 3538.27 -2.9152 -1.11457 0
M  V30 37463 N 3538.57 0.251283 -1.55584 0
M  V30 37464 C 3539.8 1.00183 -1.81599 0
M  V30 37465 C 3540.22 1.78333 -0.598247 0
M  V30 37466 O 3539.58 1.75559 0.452636 0
M  V30 37467 C 3539.63 1.9189 -3.05304 0
M  V30 37468 O 3538.73 3.00997 -2.81912 0
M  V30 37469 H 3538.07 0.285301 -0.599583 0
M  V30 37470 H 3540.6 0.273602 -2.02762 0
M  V30 37471 H 3540.61 2.33438 -3.3462 0
M  V30 37472 H 3539.29 1.34426 -3.93577 0
M  V30 37473 H 3537.86 2.63609 -2.63752 0
M  V30 37474 N 3540.05 1.48887 0.516757 0
M  V30 37475 C 3541.3 1.57577 1.27184 0
M  V30 37476 C 3541.62 0.255466 1.92815 0
M  V30 37477 O 3540.88 -0.755371 1.80534 0
M  V30 37478 C 3541.18 2.6726 2.37291 0
M  V30 37479 C 3540.84 4.09274 1.89225 0
M  V30 37480 C 3539.51 4.47924 1.75834 0
M  V30 37481 C 3541.86 4.98218 1.53064 0
M  V30 37482 C 3539.19 5.73308 1.24638 0
M  V30 37483 C 3541.54 6.24105 1.03326 0
M  V30 37484 C 3540.2 6.61599 0.885628 0
M  V30 37485 H 3539.47 0.576614 0.4654 0
M  V30 37486 H 3542.12 1.82658 0.575191 0
M  V30 37487 H 3540.42 2.36089 3.1268 0
M  V30 37488 H 3542.12 2.71196 2.95388 0
M  V30 37489 H 3538.71 3.78757 2.00602 0
M  V30 37490 H 3542.9 4.69025 1.62264 0
M  V30 37491 H 3538.15 6.01071 1.11906 0
M  V30 37492 H 3542.33 6.92412 0.744217 0
M  V30 37493 H 3539.95 7.5864 0.486732 0
M  V30 37494 N 3541.53 -0.766635 1.37697 0
M  V30 37495 C 3542.78 -1.52066 1.32509 0
M  V30 37496 C 3543.09 -1.95409 -0.0864624 0
M  V30 37497 O 3544.3 -2.70244 -0.260829 0
M  V30 37498 C 3542.75 -2.74621 2.32619 0
M  V30 37499 C 3542.36 -2.38356 3.79329 0
M  V30 37500 C 3544.1 -3.5255 2.36451 0
M  V30 37501 C 3542.01 -3.57443 4.71156 0
M  V30 37502 H 3540.94 -0.570928 0.492501 0
M  V30 37503 H 3543.59 -0.83924 1.63184 0
M  V30 37504 H 3541.97 -3.44678 1.94969 0
M  V30 37505 H 3543.15 -1.76049 4.25844 0
M  V30 37506 H 3541.46 -1.7359 3.78491 0
M  V30 37507 H 3544.06 -4.41071 3.02259 0
M  V30 37508 H 3544.4 -3.92776 1.3796 0
M  V30 37509 H 3544.94 -2.89493 2.72834 0
M  V30 37510 H 3541.67 -3.22294 5.70795 0
M  V30 37511 H 3541.19 -4.18838 4.29342 0
M  V30 37512 H 3542.87 -4.24192 4.88539 0
M  V30 37513 N 3543.01 -1.22351 -0.993375 0
M  V30 37514 C 3544.25 -1.04192 -1.72705 0
M  V30 37515 C 3544.57 0.423347 -1.90964 0
M  V30 37516 O 3545.77 0.724599 -2.61652 0
M  V30 37517 C 3544.23 -1.81581 -3.10735 0
M  V30 37518 C 3543.84 -3.32353 -3.00409 0
M  V30 37519 C 3545.58 -1.71868 -3.88152 0
M  V30 37520 C 3543.49 -4.02185 -4.33591 0
M  V30 37521 H 3542.42 -0.38626 -0.647549 0
M  V30 37522 H 3545.07 -1.46197 -1.10899 0
M  V30 37523 H 3543.45 -1.32374 -3.7322 0
M  V30 37524 H 3544.63 -3.8895 -2.47092 0
M  V30 37525 H 3542.94 -3.42736 -2.36476 0
M  V30 37526 H 3545.54 -2.21363 -4.86726 0
M  V30 37527 H 3545.88 -0.679011 -4.10725 0
M  V30 37528 H 3546.41 -2.18615 -3.32344 0
M  V30 37529 H 3543.15 -5.06403 -4.16217 0
M  V30 37530 H 3542.67 -3.50376 -4.86823 0
M  V30 37531 H 3544.35 -4.07753 -5.02341 0
M  V30 37532 N 3544.48 1.19014 -1.03313 0
M  V30 37533 C 3545.71 1.93298 -0.75172 0
M  V30 37534 C 3546.13 1.75227 0.683889 0
M  V30 37535 O 3545.49 1.05738 1.47272 0
M  V30 37536 C 3545.54 3.4298 -1.11341 0
M  V30 37537 O 3544.64 4.11733 -0.234507 0
M  V30 37538 H 3543.98 0.603305 -0.277342 0
M  V30 37539 H 3546.51 1.50967 -1.38094 0
M  V30 37540 H 3546.52 3.93662 -1.07211 0
M  V30 37541 H 3545.2 3.55454 -2.15928 0
M  V30 37542 H 3543.78 3.71394 -0.334766 0
M  V30 37543 N 3545.96 0.811563 1.35098 0
M  V30 37544 C 3546.91 0.223412 2.29716 0
M  V30 37545 C 3547.88 -0.645369 1.5305 0
M  V30 37546 O 3549.06 -0.589404 1.81468 0
M  V30 37547 C 3546.2 -0.617998 3.39521 0
M  V30 37548 C 3545.32 0.271768 4.31144 0
M  V30 37549 C 3544.45 -0.578121 5.28045 0
M  V30 37550 C 3543.49 0.311736 6.11306 0
M  V30 37551 N 3542.63 -0.498416 7.00329 0
M  V30 37552 H 3547.47 1.03568 2.79424 0
M  V30 37553 H 3545 0.522256 1.37517 0
M  V30 37554 H 3546.96 -1.12104 4.01856 0
M  V30 37555 H 3545.59 -1.39549 2.91077 0
M  V30 37556 H 3544.64 0.89295 3.69771 0
M  V30 37557 H 3545.96 0.956478 4.89544 0
M  V30 37558 H 3545.11 -1.1461 5.95776 0
M  V30 37559 H 3543.85 -1.29638 4.70155 0
M  V30 37560 H 3542.85 0.891945 5.42517 0
M  V30 37561 H 3544.08 1.02793 6.71275 0
M  V30 37562 H 3542.03 -1.20056 6.44921 0
M  V30 37563 H 3541.94 0.128143 7.55891 0
M  V30 37564 H 3543.21 -1.04951 7.72402 0
M  V30 37565 N 3547.44 -1.47105 0.565506 0
M  V30 37566 C 3548.67 -2.0684 0.0496662 0
M  V30 37567 C 3549.08 -1.41693 -1.24774 0
M  V30 37568 O 3548.44 -0.51627 -1.75045 0
M  V30 37569 C 3548.49 -3.61225 -0.140923 0
M  V30 37570 O 3548.21 -4.23932 1.10512 0
M  V30 37571 C 3549.71 -4.37848 -0.693094 0
M  V30 37572 H 3546.93 -0.669163 0.0496135 0
M  V30 37573 H 3549.48 -1.88987 0.78128 0
M  V30 37574 H 3547.63 -3.78564 -0.822695 0
M  V30 37575 H 3548.05 -5.16579 0.908069 0
M  V30 37576 H 3549.52 -5.46522 -0.775704 0
M  V30 37577 H 3550 -4.04702 -1.70625 0
M  V30 37578 H 3550.6 -4.25274 -0.0467513 0
M  V30 37579 N 3548.92 -0.302382 -1.54672 0
M  V30 37580 C 3550.15 0.309057 -2.04579 0
M  V30 37581 C 3550.56 1.47414 -1.1796 0
M  V30 37582 O 3549.92 1.81339 -0.205532 0
M  V30 37583 C 3549.97 0.763961 -3.53335 0
M  V30 37584 O 3549.69 -0.354751 -4.36661 0
M  V30 37585 C 3551.19 1.44041 -4.19246 0
M  V30 37586 H 3548.41 0.0669458 -0.667652 0
M  V30 37587 H 3550.96 -0.442414 -1.99657 0
M  V30 37588 H 3549.11 1.46545 -3.58613 0
M  V30 37589 H 3549.52 -0.000333382 -5.245 0
M  V30 37590 H 3551 1.70985 -5.2485 0
M  V30 37591 H 3551.48 2.38091 -3.69065 0
M  V30 37592 H 3552.08 0.782059 -4.18048 0
M  V30 37593 N 3550.4 1.57571 -0.0301311 0
M  V30 37594 C 3551.81 1.56229 0.326268 0
M  V30 37595 C 3552.01 1.03584 1.72837 0
M  V30 37596 O 3551.07 0.683022 2.43087 0
M  V30 37597 C 3552.38 3.00196 0.173948 0
M  V30 37598 C 3553.93 3.12027 0.246639 0
M  V30 37599 C 3554.4 4.57835 0.123096 0
M  V30 37600 N 3555.9 4.6285 0.180047 0
M  V30 37601 C 3556.63 5.73298 0.108252 0
M  V30 37602 N 3556.13 6.92798 -0.0146866 0
M  V30 37603 N 3557.92 5.61866 0.162313 0
M  V30 37604 H 3550.07 1.90121 -0.946978 0
M  V30 37605 H 3552.33 0.874592 -0.365778 0
M  V30 37606 H 3552.04 3.42668 -0.791931 0
M  V30 37607 H 3551.91 3.65203 0.94373 0
M  V30 37608 H 3554.3 2.69467 1.20298 0
M  V30 37609 H 3554.38 2.49739 -0.553537 0
M  V30 37610 H 3554.03 5.01075 -0.829828 0
M  V30 37611 H 3553.96 5.18103 0.942149 0
M  V30 37612 H 3556.45 3.76897 0.27517 0
M  V30 37613 H 3556.76 7.72775 -0.0627498 0
M  V30 37614 H 3555.1 6.94982 -0.0494828 0
M  V30 37615 H 3558.3 4.67395 0.256765 0
M  V30 37616 H 3558.47 6.47918 0.102899 0
M  V30 37617 N 3551.87 -0.243029 1.55715 0
M  V30 37618 C 3552.78 -1.32237 1.93779 0
M  V30 37619 C 3553.8 -1.52451 0.838736 0
M  V30 37620 O 3554.98 -1.65998 1.14047 0
M  V30 37621 C 3552.04 -2.65623 2.22812 0
M  V30 37622 C 3551.1 -2.53898 3.46171 0
M  V30 37623 C 3550.34 -3.80923 3.73809 0
M  V30 37624 O 3550.56 -4.82979 3.03458 0
M  V30 37625 O 3549.49 -3.79323 4.6733 0
M  V30 37626 H 3553.32 -1.02946 2.8572 0
M  V30 37627 H 3550.9 -0.444109 1.42647 0
M  V30 37628 H 3552.79 -3.44438 2.42777 0
M  V30 37629 H 3551.46 -2.94639 1.3405 0
M  V30 37630 H 3550.37 -1.73356 3.31509 0
M  V30 37631 H 3551.7 -2.29826 4.35248 0
M  V30 37632 N 3553.35 -1.49159 -0.508854 0
M  V30 37633 C 3554.63 -1.48747 -1.27019 0
M  V30 37634 C 3555.01 -0.210809 -2.10045 0
M  V30 37635 O 3554.36 0.807023 -2.13774 0
M  V30 37636 C 3554.57 -2.76184 -2.13362 0
M  V30 37637 C 3555.92 -3.25362 -2.72809 0
M  V30 37638 O 3556.94 -2.77247 -2.23635 0
M  V30 37639 O 3555.8 -4.09139 -3.62308 0
M  V30 37640 H 3552.89 -0.594996 -0.574377 0
M  V30 37641 H 3555.44 -1.61415 -0.523769 0
M  V30 37642 H 3554.21 -3.60599 -1.51935 0
M  V30 37643 H 3553.83 -2.66339 -2.95211 0
M  V30 37644 N 3554.83 0.759322 -1.38102 0
M  V30 37645 C 3555.79 1.85458 -1.34677 0
M  V30 37646 C 3556.79 1.5887 -0.248379 0
M  V30 37647 O 3557.98 1.66721 -0.504944 0
M  V30 37648 C 3555.12 3.22826 -1.09526 0
M  V30 37649 H 3556.31 1.89904 -2.32113 0
M  V30 37650 H 3553.86 0.960413 -1.23312 0
M  V30 37651 H 3554.6 3.24052 -0.126721 0
M  V30 37652 H 3554.38 3.43519 -1.89043 0
M  V30 37653 H 3555.87 4.02904 -1.09811 0
M  V30 37654 N 3556.31 1.22876 0.986873 0
M  V30 37655 C 3557.56 1.05487 1.72386 0
M  V30 37656 C 3557.88 -0.410041 1.9064 0
M  V30 37657 O 3557.15 -1.29447 1.47038 0
M  V30 37658 H 3555.73 0.387349 0.638725 0
M  V30 37659 H 3558.39 1.54487 1.18826 0
M  V30 37660 H 3557.49 1.53759 2.71597 0
M  V30 37661 N 3557.79 -1.18464 1.03942 0
M  V30 37662 C 3558.73 -2.22053 0.629391 0
M  V30 37663 C 3559.7 -1.62104 -0.362159 0
M  V30 37664 O 3560.89 -1.89069 -0.256424 0
M  V30 37665 C 3558.03 -3.451 -0.00276822 0
M  V30 37666 C 3557.14 -4.19391 1.0361 0
M  V30 37667 C 3556.28 -5.29892 0.372585 0
M  V30 37668 C 3555.32 -5.95954 1.39663 0
M  V30 37669 N 3554.45 -6.97994 0.758176 0
M  V30 37670 H 3559.29 -2.56482 1.51727 0
M  V30 37671 H 3556.83 -1.26002 0.759065 0
M  V30 37672 H 3558.79 -4.15405 -0.386615 0
M  V30 37673 H 3557.42 -3.11294 -0.854169 0
M  V30 37674 H 3556.47 -3.47926 1.5379 0
M  V30 37675 H 3557.78 -4.64647 1.81395 0
M  V30 37676 H 3556.94 -6.06665 -0.0655354 0
M  V30 37677 H 3555.67 -4.85735 -0.437377 0
M  V30 37678 H 3554.68 -5.17922 1.8449 0
M  V30 37679 H 3555.9 -6.42193 2.20827 0
M  V30 37680 H 3553.85 -6.55992 -0.031502 0
M  V30 37681 H 3553.77 -7.41496 1.47376 0
M  V30 37682 H 3555.04 -7.78739 0.34441 0
M  V30 37683 N 3559.26 -0.818716 -1.34665 0
M  V30 37684 C 3560.49 -0.417038 -2.02347 0
M  V30 37685 C 3560.9 0.980436 -1.61815 0
M  V30 37686 O 3560.25 1.64519 -0.817261 0
M  V30 37687 C 3560.31 -0.434841 -3.5686 0
M  V30 37688 C 3559.97 -1.78492 -4.20701 0
M  V30 37689 C 3560.97 -2.74512 -4.41519 0
M  V30 37690 C 3558.65 -2.07225 -4.57562 0
M  V30 37691 C 3560.65 -3.9744 -4.98317 0
M  V30 37692 C 3558.33 -3.30414 -5.14072 0
M  V30 37693 C 3559.33 -4.25339 -5.34393 0
M  V30 37694 O 3559.02 -5.46352 -5.89707 0
M  V30 37695 H 3558.75 -0.166101 -0.655276 0
M  V30 37696 H 3561.31 -1.10711 -1.73009 0
M  V30 37697 H 3559.54 0.311905 -3.8544 0
M  V30 37698 H 3561.23 -0.0537971 -4.05864 0
M  V30 37699 H 3561.99 -2.53608 -4.1341 0
M  V30 37700 H 3557.87 -1.34143 -4.41052 0
M  V30 37701 H 3561.41 -4.71543 -5.14094 0
M  V30 37702 H 3557.31 -3.51183 -5.41609 0
M  V30 37703 H 3558.08 -5.47815 -6.08146 0
M  V30 37704 N 3560.74 1.46803 -0.573299 0
M  V30 37705 C 3562.16 1.57871 -0.234258 0
M  V30 37706 C 3562.36 1.56973 1.26339 0
M  V30 37707 O 3561.41 1.48168 2.04456 0
M  V30 37708 C 3562.73 2.87683 -0.875148 0
M  V30 37709 C 3564.28 3.01298 -0.847865 0
M  V30 37710 C 3564.75 4.33832 -1.46812 0
M  V30 37711 N 3566.24 4.40508 -1.43203 0
M  V30 37712 C 3566.98 5.41655 -1.88143 0
M  V30 37713 N 3566.47 6.49527 -2.41012 0
M  V30 37714 N 3568.27 5.32798 -1.79116 0
M  V30 37715 H 3560.42 1.4563 -1.54614 0
M  V30 37716 H 3562.68 0.694086 -0.645715 0
M  V30 37717 H 3562.39 2.94124 -1.92831 0
M  V30 37718 H 3562.26 3.75304 -0.377737 0
M  V30 37719 H 3564.65 2.94444 0.196655 0
M  V30 37720 H 3564.73 2.15177 -1.3832 0
M  V30 37721 H 3564.37 4.41443 -2.51179 0
M  V30 37722 H 3564.3 5.18711 -0.908091 0
M  V30 37723 H 3566.79 3.6315 -1.04548 0
M  V30 37724 H 3567.11 7.22904 -2.73185 0
M  V30 37725 H 3565.45 6.50372 -2.45033 0
M  V30 37726 H 3568.64 4.47426 -1.37577 0
M  V30 37727 H 3568.81 6.11484 -2.14456 0
M  V30 37728 N 3562.22 0.31058 1.54509 0
M  V30 37729 C 3563.46 -0.296623 2.02236 0
M  V30 37730 C 3563.82 -1.50355 1.19404 0
M  V30 37731 O 3565.03 -2.18275 1.56873 0
M  V30 37732 C 3563.3 -0.635045 3.51713 0
M  V30 37733 S 3564.86 -1.22375 4.2139 0
M  V30 37734 H 3561.67 -0.090501 0.705217 0
M  V30 37735 H 3564.28 0.440682 1.90468 0
M  V30 37736 H 3562.98 0.251691 4.09627 0
M  V30 37737 H 3562.51 -1.40289 3.67536 0
M  V30 37738 H 3564.53 -2.51117 4.27966 0
M  V30 37739 N 3563.7 -1.57553 0.0384871 0
M  V30 37740 C 3564.66 -2.09691 -0.925321 0
M  V30 37741 C 3565.66 -1.01387 -1.24809 0
M  V30 37742 O 3566.85 -1.2751 -1.18688 0
M  V30 37743 C 3563.98 -2.57059 -2.23906 0
M  V30 37744 H 3565.18 -2.96137 -0.473581 0
M  V30 37745 H 3562.73 -1.54887 -0.209709 0
M  V30 37746 H 3563.47 -1.73969 -2.73688 0
M  V30 37747 H 3563.25 -3.36191 -2.01787 0
M  V30 37748 H 3564.74 -2.97588 -2.92969 0
M  V30 37749 N 3565.18 0.234767 -1.55842 0
M  V30 37750 C 3566.14 1.27427 -1.90513 0
M  V30 37751 C 3567.14 1.40472 -0.782568 0
M  V30 37752 O 3568.33 1.38964 -1.05045 0
M  V30 37753 C 3565.46 2.65015 -2.14429 0
M  V30 37754 H 3566.66 0.978953 -2.83472 0
M  V30 37755 H 3564.21 0.474604 -1.4892 0
M  V30 37756 H 3564.94 2.99667 -1.23977 0
M  V30 37757 H 3564.73 2.56926 -2.96195 0
M  V30 37758 H 3566.22 3.40051 -2.42394 0
M  V30 37759 N 3566.66 1.49427 0.500936 0
M  V30 37760 C 3568.07 1.36191 0.832118 0
M  V30 37761 C 3568.27 0.395049 1.9759 0
M  V30 37762 O 3567.33 -0.17325 2.51905 0
M  V30 37763 C 3568.64 2.76909 1.17227 0
M  V30 37764 C 3570.19 2.8561 1.28047 0
M  V30 37765 C 3570.66 4.27095 1.65391 0
M  V30 37766 N 3572.15 4.29905 1.7244 0
M  V30 37767 C 3572.89 5.36347 2.0278 0
M  V30 37768 N 3572.39 6.53033 2.31343 0
M  V30 37769 N 3574.18 5.23763 2.04031 0
M  V30 37770 H 3566.33 2.10884 -0.25329 0
M  V30 37771 H 3568.59 0.946642 -0.0507277 0
M  V30 37772 H 3568.3 3.49358 0.405186 0
M  V30 37773 H 3568.17 3.12279 2.11569 0
M  V30 37774 H 3570.56 2.13397 2.03827 0
M  V30 37775 H 3570.64 2.53821 0.317558 0
M  V30 37776 H 3570.28 4.99833 0.901616 0
M  V30 37777 H 3570.21 4.56347 2.62782 0
M  V30 37778 H 3572.71 3.45752 1.52526 0
M  V30 37779 H 3573.02 7.29976 2.53682 0
M  V30 37780 H 3571.36 6.56259 2.28799 0
M  V30 37781 H 3574.55 4.3161 1.81193 0
M  V30 37782 H 3574.73 6.06811 2.27342 0
M  V30 37783 N 3568.13 -0.751987 1.38502 0
M  V30 37784 C 3569.08 -1.88713 1.35978 0
M  V30 37785 C 3570.08 -1.67613 0.245421 0
M  V30 37786 O 3571.28 -1.75161 0.414544 0
M  V30 37787 H 3567.66 -0.620912 0.424232 0
M  V30 37788 H 3569.63 -1.87958 2.31763 0
M  V30 37789 C 3568.38 -3.26214 1.20332 0
M  V30 37790 H 3567.7 -3.43038 2.05342 0
M  V30 37791 H 3569.14 -4.05882 1.2262 0
M  V30 37792 C 3567.6 -3.36781 -0.0896437 0
M  V30 37793 O 3568.13 -3.87295 -1.06608 0
M  V30 37794 N 3566.33 -2.90228 -0.147014 0
M  V30 37795 H 3565.88 -2.4931 0.64826 0
M  V30 37796 H 3565.84 -2.97678 -1.01168 0
M  V30 37797 N 3569.61 -1.23398 -0.980343 0
M  V30 37798 C 3570.56 -1.0152 -2.07274 0
M  V30 37799 C 3571.53 0.0673437 -1.65963 0
M  V30 37800 O 3572.71 -0.0847727 -1.90612 0
M  V30 37801 C 3569.85 -0.61255 -3.3962 0
M  V30 37802 C 3568.97 -1.76722 -3.942 0
M  V30 37803 C 3568.1 -1.31135 -5.14759 0
M  V30 37804 C 3567.14 -2.43677 -5.61505 0
M  V30 37805 N 3566.28 -1.99047 -6.73294 0
M  V30 37806 H 3571.12 -1.95024 -2.25321 0
M  V30 37807 H 3568.65 -0.971552 -1.1045 0
M  V30 37808 H 3570.61 -0.360199 -4.15642 0
M  V30 37809 H 3569.24 0.285483 -3.21535 0
M  V30 37810 H 3568.29 -2.13358 -3.14933 0
M  V30 37811 H 3569.61 -2.6133 -4.24862 0
M  V30 37812 H 3568.76 -1.01713 -5.98113 0
M  V30 37813 H 3567.5 -0.435641 -4.8575 0
M  V30 37814 H 3566.5 -2.73874 -4.76732 0
M  V30 37815 H 3567.73 -3.31785 -5.92533 0
M  V30 37816 H 3565.68 -1.13856 -6.46044 0
M  V30 37817 H 3565.59 -2.77215 -7.03341 0
M  V30 37818 H 3566.86 -1.72729 -7.60122 0
M  V30 37819 N 3571.09 1.17911 -1.04569 0
M  V30 37820 C 3572.34 1.88295 -0.75317 0
M  V30 37821 C 3572.67 1.80455 0.71762 0
M  V30 37822 O 3571.94 1.20827 1.52417 0
M  V30 37823 C 3572.23 3.38576 -1.22632 0
M  V30 37824 C 3572.08 3.552 -2.75958 0
M  V30 37825 C 3573.4 4.32386 -0.820366 0
M  V30 37826 H 3570.52 0.68374 -0.275079 0
M  V30 37827 H 3573.16 1.38697 -1.29859 0
M  V30 37828 H 3571.31 3.80948 -0.762313 0
M  V30 37829 H 3572.98 3.21886 -3.30434 0
M  V30 37830 H 3571.22 2.97687 -3.15539 0
M  V30 37831 H 3571.9 4.60665 -3.04124 0
M  V30 37832 H 3574.37 3.97822 -1.21972 0
M  V30 37833 H 3573.25 5.36086 -1.17911 0
M  V30 37834 H 3573.51 4.41237 0.276128 0
M  V30 37835 N 3572.57 0.825847 1.34229 0
M  V30 37836 C 3573.82 0.41449 1.97804 0
M  V30 37837 C 3574.14 -1.02662 1.65788 0
M  V30 37838 O 3573.41 -1.71318 0.950099 0
M  V30 37839 H 3571.99 0.150278 0.731728 0
M  V30 37840 H 3574.65 1.05594 1.63817 0
M  V30 37841 H 3573.74 0.535883 3.07465 0
M  V30 37842 N 3574.05 -1.46497 0.581077 0
M  V30 37843 C 3575.28 -2.06476 0.0714978 0
M  V30 37844 C 3575.68 -1.43064 -1.23812 0
M  V30 37845 O 3575.03 -0.529535 -1.75902 0
M  V30 37846 C 3575.09 -3.59096 -0.17029 0
M  V30 37847 C 3574.75 -4.44692 1.05348 0
M  V30 37848 C 3575.75 -4.81331 1.96512 0
M  V30 37849 C 3573.43 -4.85852 1.27487 0
M  V30 37850 C 3575.43 -5.57955 3.08163 0
M  V30 37851 C 3573.12 -5.62236 2.39444 0
M  V30 37852 C 3574.11 -5.98202 3.29612 0
M  V30 37853 O 3573.8 -6.73042 4.39624 0
M  V30 37854 H 3573.53 -0.673859 0.0537621 0
M  V30 37855 H 3576.09 -1.89137 0.801026 0
M  V30 37856 H 3574.32 -3.74737 -0.954411 0
M  V30 37857 H 3576.01 -4.0101 -0.628178 0
M  V30 37858 H 3576.77 -4.50111 1.80623 0
M  V30 37859 H 3572.65 -4.5731 0.582131 0
M  V30 37860 H 3576.2 -5.85946 3.78567 0
M  V30 37861 H 3572.09 -5.92869 2.55296 0
M  V30 37862 H 3572.86 -6.91465 4.37971 0
M  V30 37863 N 3575.52 -0.31877 -1.54343 0
M  V30 37864 C 3576.77 0.286111 -1.9966 0
M  V30 37865 C 3577.09 1.53623 -1.21076 0
M  V30 37866 O 3578.29 2.21681 -1.56748 0
M  V30 37867 C 3576.75 0.560342 -3.55511 0
M  V30 37868 C 3576.36 -0.672451 -4.42924 0
M  V30 37869 C 3578.1 1.12544 -4.09309 0
M  V30 37870 C 3576.01 -0.370388 -5.90239 0
M  V30 37871 H 3574.94 0.110685 -0.745832 0
M  V30 37872 H 3577.59 -0.430247 -1.78385 0
M  V30 37873 H 3575.97 1.33676 -3.72756 0
M  V30 37874 H 3577.14 -1.44808 -4.37455 0
M  V30 37875 H 3575.46 -1.15743 -3.99991 0
M  V30 37876 H 3578.06 1.36598 -5.16958 0
M  V30 37877 H 3578.4 2.07331 -3.60998 0
M  V30 37878 H 3578.93 0.410315 -3.95678 0
M  V30 37879 H 3575.67 -1.28731 -6.42735 0
M  V30 37880 H 3575.19 0.367626 -5.98672 0
M  V30 37881 H 3576.87 0.0215444 -6.46996 0
M  V30 37882 N 3577 1.5753 -0.0468419 0
M  V30 37883 C 3577.91 2.14755 0.944324 0
M  V30 37884 C 3578.93 1.10425 1.34471 0
M  V30 37885 O 3580.1 1.42571 1.42251 0
M  V30 37886 C 3577.17 2.67772 2.20225 0
M  V30 37887 C 3576.23 3.86884 1.86063 0
M  V30 37888 C 3575.46 4.37362 3.05859 0
M  V30 37889 O 3575.69 3.86934 4.19092 0
M  V30 37890 O 3574.62 5.29002 2.87125 0
M  V30 37891 H 3578.45 2.99759 0.487667 0
M  V30 37892 H 3576.03 1.48374 0.174805 0
M  V30 37893 H 3577.91 3.0186 2.94038 0
M  V30 37894 H 3576.59 1.85841 2.65037 0
M  V30 37895 H 3575.49 3.57691 1.09579 0
M  V30 37896 H 3576.83 4.70031 1.46054 0
M  V30 37897 N 3578.48 -0.226499 1.55964 0
M  V30 37898 C 3579.43 -1.28066 1.9201 0
M  V30 37899 C 3580.4 -1.46822 0.776691 0
M  V30 37900 O 3581.58 -1.60472 1.03215 0
M  V30 37901 C 3578.72 -2.62703 2.23789 0
M  V30 37902 C 3577.84 -2.51786 3.51038 0
M  V30 37903 C 3576.97 -3.78913 3.72288 0
M  V30 37904 C 3576.01 -3.62698 4.93068 0
M  V30 37905 N 3575.15 -4.81763 5.10733 0
M  V30 37906 H 3579.99 -0.966261 2.819 0
M  V30 37907 H 3577.52 -0.465822 1.3953 0
M  V30 37908 H 3579.48 -3.411 2.40223 0
M  V30 37909 H 3578.11 -2.92249 1.37078 0
M  V30 37910 H 3577.16 -1.6485 3.42825 0
M  V30 37911 H 3578.48 -2.35723 4.39586 0
M  V30 37912 H 3577.63 -4.65753 3.88792 0
M  V30 37913 H 3576.37 -3.97896 2.82011 0
M  V30 37914 H 3575.37 -2.74242 4.7652 0
M  V30 37915 H 3576.6 -3.45191 5.84825 0
M  V30 37916 H 3574.54 -5.01069 4.23399 0
M  V30 37917 H 3574.46 -4.68408 5.93405 0
M  V30 37918 H 3575.73 -5.70044 5.31668 0
M  V30 37919 N 3579.96 -1.4969 -0.493005 0
M  V30 37920 C 3580.89 -1.69866 -1.60212 0
M  V30 37921 C 3581.87 -0.547391 -1.61052 0
M  V30 37922 O 3583.05 -0.784124 -1.77666 0
M  V30 37923 C 3580.18 -1.77258 -2.98659 0
M  V30 37924 C 3579.14 -2.92253 -3.12685 0
M  V30 37925 C 3578.46 -2.84766 -4.52562 0
M  V30 37926 C 3579.76 -4.3308 -2.91958 0
M  V30 37927 H 3581.46 -2.62725 -1.43582 0
M  V30 37928 H 3579 -1.2643 -0.689312 0
M  V30 37929 H 3580.96 -1.89957 -3.76157 0
M  V30 37930 H 3579.68 -0.810032 -3.16395 0
M  V30 37931 H 3578.34 -2.79169 -2.37614 0
M  V30 37932 H 3577.99 -1.86403 -4.67186 0
M  V30 37933 H 3577.69 -3.61953 -4.62887 0
M  V30 37934 H 3579.21 -2.99484 -5.3211 0
M  V30 37935 H 3580.63 -4.46804 -3.5922 0
M  V30 37936 H 3579.02 -5.11549 -3.13747 0
M  V30 37937 H 3580.09 -4.46969 -1.88007 0
M  V30 37938 N 3581.44 0.744631 -1.38899 0
M  V30 37939 C 3582.68 1.50621 -1.35798 0
M  V30 37940 C 3583.02 1.94138 0.0491434 0
M  V30 37941 O 3582.29 1.66089 1.01216 0
M  V30 37942 C 3582.57 2.75259 -2.32173 0
M  V30 37943 C 3582.43 2.37823 -3.81786 0
M  V30 37944 C 3583.75 3.77321 -2.26532 0
M  V30 37945 H 3580.86 0.546387 -0.494601 0
M  V30 37946 H 3583.51 0.852181 -1.69817 0
M  V30 37947 H 3581.66 3.31065 -2.03293 0
M  V30 37948 H 3583.33 1.87723 -4.21376 0
M  V30 37949 H 3581.57 1.70169 -3.9903 0
M  V30 37950 H 3582.24 3.27036 -4.44693 0
M  V30 37951 H 3584.72 3.31076 -2.52047 0
M  V30 37952 H 3583.59 4.62211 -2.96062 0
M  V30 37953 H 3583.86 4.23552 -1.26712 0
M  V30 37954 N 3582.91 1.23916 0.973785 0
M  V30 37955 C 3584.16 1.06926 1.71025 0
M  V30 37956 C 3584.48 -0.392913 1.91613 0
M  V30 37957 O 3585.68 -0.682881 2.62772 0
M  V30 37958 C 3584.14 1.86501 3.07807 0
M  V30 37959 C 3583.75 3.3709 2.95084 0
M  V30 37960 C 3585.49 1.78021 3.85368 0
M  V30 37961 C 3583.4 4.09032 4.27138 0
M  V30 37962 H 3582.33 0.396513 0.641322 0
M  V30 37963 H 3584.98 1.47943 1.0856 0
M  V30 37964 H 3583.36 1.38295 3.71067 0
M  V30 37965 H 3584.53 3.92832 2.40873 0
M  V30 37966 H 3582.85 3.46455 2.30993 0
M  V30 37967 H 3585.45 2.29078 4.83143 0
M  V30 37968 H 3585.79 0.744268 4.09593 0
M  V30 37969 H 3586.32 2.23875 3.28823 0
M  V30 37970 H 3583.06 5.1296 4.08108 0
M  V30 37971 H 3582.58 3.58077 4.81187 0
M  V30 37972 H 3584.26 4.15693 4.9579 0
M  V30 37973 N 3584.39 -1.17355 1.05193 0
M  V30 37974 C 3585.32 -2.23562 0.673971 0
M  V30 37975 C 3586.3 -1.66903 -0.328254 0
M  V30 37976 O 3587.49 -1.93106 -0.205844 0
M  V30 37977 C 3584.62 -3.47267 0.0479411 0
M  V30 37978 C 3583.57 -4.16748 0.974929 0
M  V30 37979 C 3582.9 -5.34276 0.212778 0
M  V30 37980 C 3584.2 -4.68977 2.29908 0
M  V30 37981 H 3585.89 -2.55433 1.56187 0
M  V30 37982 H 3583.44 -1.22778 0.752429 0
M  V30 37983 H 3585.39 -4.20781 -0.228269 0
M  V30 37984 H 3584.12 -3.14663 -0.874908 0
M  V30 37985 H 3582.77 -3.45146 1.2357 0
M  V30 37986 H 3582.42 -4.97923 -0.712836 0
M  V30 37987 H 3582.12 -5.81702 0.830453 0
M  V30 37988 H 3583.65 -6.10574 -0.0561476 0
M  V30 37989 H 3585.06 -5.34128 2.08278 0
M  V30 37990 H 3583.46 -5.26981 2.87073 0
M  V30 37991 H 3584.53 -3.85785 2.93765 0
M  V30 37992 N 3585.87 -0.832954 -1.3379 0
M  V30 37993 C 3586.78 -0.264209 -2.33107 0
M  V30 37994 C 3587.8 0.606666 -1.63081 0
M  V30 37995 O 3588.97 0.51219 -1.94778 0
M  V30 37996 C 3586.04 0.556255 -3.42209 0
M  V30 37997 C 3585.1 -0.338198 -4.27966 0
M  V30 37998 C 3584.33 0.443203 -5.31857 0
M  V30 37999 O 3584.55 1.6755 -5.45237 0
M  V30 38000 O 3583.49 -0.179705 -6.01632 0
M  V30 38001 H 3587.31 -1.0865 -2.836 0
M  V30 38002 H 3584.9 -0.595331 -1.37026 0
M  V30 38003 H 3586.78 1.0227 -4.08802 0
M  V30 38004 H 3585.46 1.3557 -2.93943 0
M  V30 38005 H 3584.36 -0.852357 -3.6426 0
M  V30 38006 H 3585.7 -1.10226 -4.79699 0
M  V30 38007 N 3587.35 1.46186 -0.588837 0
M  V30 38008 C 3588.6 2.01563 -0.0744448 0
M  V30 38009 C 3588.91 1.46525 1.29575 0
M  V30 38010 O 3590.12 1.93759 1.90183 0
M  V30 38011 C 3588.57 3.59805 -0.0824712 0
M  V30 38012 C 3588.18 4.23839 -1.45136 0
M  V30 38013 C 3589.92 4.22817 0.377657 0
M  V30 38014 C 3587.83 5.74179 -1.41678 0
M  V30 38015 H 3586.76 0.753616 -0.0240614 0
M  V30 38016 H 3589.41 1.67856 -0.741393 0
M  V30 38017 H 3587.79 3.90616 0.650763 0
M  V30 38018 H 3588.97 4.04629 -2.20481 0
M  V30 38019 H 3587.28 3.72947 -1.85202 0
M  V30 38020 H 3589.88 5.33029 0.422416 0
M  V30 38021 H 3590.22 3.92179 1.39648 0
M  V30 38022 H 3590.76 3.96654 -0.301708 0
M  V30 38023 H 3587.5 6.09486 -2.4126 0
M  V30 38024 H 3587.02 5.95635 -0.705629 0
M  V30 38025 H 3588.69 6.37015 -1.13232 0
M  V30 38026 N 3588.83 0.32695 1.54171 0
M  V30 38027 C 3590.07 -0.274063 2.00233 0
M  V30 38028 C 3590.4 -1.52388 1.21668 0
M  V30 38029 O 3589.67 -1.93279 0.319393 0
M  V30 38030 H 3588.25 -0.104258 0.739689 0
M  V30 38031 H 3590.91 0.444278 1.89769 0
M  V30 38032 H 3590 -0.5281 3.076 0
M  V30 38033 N 3590.3 -1.57503 0.0551955 0
M  V30 38034 C 3591.24 -2.08718 -0.947065 0
M  V30 38035 C 3592.25 -1.01584 -1.27218 0
M  V30 38036 O 3593.44 -1.29141 -1.23227 0
M  V30 38037 C 3590.54 -2.51867 -2.26751 0
M  V30 38038 C 3589.71 -3.82384 -2.12371 0
M  V30 38039 C 3588.77 -4.11802 -3.27575 0
M  V30 38040 O 3587.8 -4.81661 -3.03301 0
M  V30 38041 N 3589 -3.64032 -4.52173 0
M  V30 38042 H 3591.76 -2.9533 -0.509905 0
M  V30 38043 H 3589.32 -1.6137 -0.130948 0
M  V30 38044 H 3591.32 -2.68621 -3.02696 0
M  V30 38045 H 3589.89 -1.70481 -2.62021 0
M  V30 38046 H 3589.11 -3.75172 -1.20994 0
M  V30 38047 H 3590.39 -4.67845 -1.99995 0
M  V30 38048 H 3589.79 -3.07565 -4.74785 0
M  V30 38049 H 3588.35 -3.86017 -5.25199 0
M  V30 38050 N 3591.78 0.218225 -1.56082 0
M  V30 38051 C 3592.73 1.27046 -1.92686 0
M  V30 38052 C 3593.7 1.46408 -0.784467 0
M  V30 38053 O 3594.88 1.59922 -1.04065 0
M  V30 38054 C 3592.02 2.61512 -2.25179 0
M  V30 38055 C 3591.14 2.49921 -3.52368 0
M  V30 38056 C 3590.27 3.76933 -3.74292 0
M  V30 38057 C 3589.31 3.60078 -4.94985 0
M  V30 38058 N 3588.45 4.79048 -5.13281 0
M  V30 38059 H 3593.29 0.951297 -2.82408 0
M  V30 38060 H 3590.83 0.458416 -1.39775 0
M  V30 38061 H 3592.78 3.39821 -2.42028 0
M  V30 38062 H 3591.41 2.91518 -1.38626 0
M  V30 38063 H 3590.47 1.6303 -3.43694 0
M  V30 38064 H 3591.78 2.33389 -4.4083 0
M  V30 38065 H 3590.93 4.63685 -3.91256 0
M  V30 38066 H 3589.67 3.96394 -2.84118 0
M  V30 38067 H 3588.68 2.71711 -4.77968 0
M  V30 38068 H 3589.9 3.42085 -5.86647 0
M  V30 38069 H 3587.85 4.98816 -4.2605 0
M  V30 38070 H 3587.76 4.65255 -5.95881 0
M  V30 38071 H 3589.03 5.67216 -5.34683 0
M  V30 38072 N 3593.26 1.4995 0.485059 0
M  V30 38073 C 3594.67 1.53257 1.06626 0
M  V30 38074 C 3595.02 0.327949 1.9344 0
M  V30 38075 O 3594.15 -0.560632 2.09012 0
M  V30 38076 C 3594.74 2.77724 1.94048 0
M  V30 38077 C 3593.3 2.83758 2.47302 0
M  V30 38078 C 3592.45 2.47375 1.25303 0
M  V30 38079 H 3595.4 1.56416 0.26827 0
M  V30 38080 H 3595.42 2.58789 2.78942 0
M  V30 38081 H 3594.93 3.65381 1.30837 0
M  V30 38082 H 3593.03 2.0042 3.14106 0
M  V30 38083 H 3593.15 3.86318 2.83364 0
M  V30 38084 H 3591.51 1.99504 1.58336 0
M  V30 38085 H 3592.29 3.37324 0.637756 0
M  V30 38086 N 3594.74 -0.737255 1.39292 0
M  V30 38087 C 3595.99 -1.49899 1.36595 0
M  V30 38088 C 3596.32 -1.94161 -0.0388471 0
M  V30 38089 O 3595.59 -1.66624 -1.00334 0
M  V30 38090 C 3595.88 -2.74024 2.3363 0
M  V30 38091 C 3595.73 -2.35795 3.83041 0
M  V30 38092 C 3597.05 -3.76114 2.2853 0
M  V30 38093 H 3594.17 -0.543757 0.497491 0
M  V30 38094 H 3596.81 -0.843163 1.70267 0
M  V30 38095 H 3594.96 -3.29982 2.05046 0
M  V30 38096 H 3596.63 -1.85485 4.22366 0
M  V30 38097 H 3594.87 -1.68051 3.99927 0
M  V30 38098 H 3595.55 -3.24673 4.46421 0
M  V30 38099 H 3598.02 -3.29735 2.53799 0
M  V30 38100 H 3596.9 -4.60634 2.98509 0
M  V30 38101 H 3597.16 -4.22874 1.28957 0
M  V30 38102 N 3596.22 -1.24431 -0.967199 0
M  V30 38103 C 3597.47 -1.07832 -1.70456 0
M  V30 38104 C 3597.78 0.382746 -1.91819 0
M  V30 38105 O 3598.99 0.668936 -2.6313 0
M  V30 38106 C 3597.44 -1.88131 -3.06814 0
M  V30 38107 C 3597.05 -3.3865 -2.93292 0
M  V30 38108 C 3598.79 -1.80063 -3.84419 0
M  V30 38109 C 3596.7 -4.11291 -4.24963 0
M  V30 38110 H 3595.63 -0.399908 -0.63921 0
M  V30 38111 H 3598.28 -1.48516 -1.07773 0
M  V30 38112 H 3596.66 -1.40261 -3.70328 0
M  V30 38113 H 3597.84 -3.94104 -2.38787 0
M  V30 38114 H 3596.15 -3.47675 -2.29152 0
M  V30 38115 H 3598.75 -2.31637 -4.81921 0
M  V30 38116 H 3599.09 -0.765979 -4.09192 0
M  V30 38117 H 3599.63 -2.25616 -3.27632 0
M  V30 38118 H 3596.36 -5.15117 -4.05382 0
M  V30 38119 H 3595.88 -3.60623 -4.79282 0
M  V30 38120 H 3597.56 -4.18317 -4.93579 0
M  V30 38121 N 3597.7 1.16795 -1.05814 0
M  V30 38122 C 3598.63 2.23201 -0.685817 0
M  V30 38123 C 3599.61 1.67074 0.319399 0
M  V30 38124 O 3600.79 1.93212 0.195601 0
M  V30 38125 C 3597.92 3.47237 -0.0663568 0
M  V30 38126 C 3596.88 4.16225 -0.997016 0
M  V30 38127 C 3596.2 5.34156 -0.241109 0
M  V30 38128 C 3597.5 4.67751 -2.32392 0
M  V30 38129 H 3599.2 2.54601 -1.5754 0
M  V30 38130 H 3596.74 1.22377 -0.75893 0
M  V30 38131 H 3598.69 4.20896 0.20595 0
M  V30 38132 H 3597.42 3.15123 0.858208 0
M  V30 38133 H 3596.08 3.44486 -1.25399 0
M  V30 38134 H 3595.73 4.98294 0.68642 0
M  V30 38135 H 3595.43 5.81253 -0.86129 0
M  V30 38136 H 3596.95 6.10595 0.0237666 0
M  V30 38137 H 3598.36 5.33016 -2.11108 0
M  V30 38138 H 3596.76 5.25451 -2.89864 0
M  V30 38139 H 3597.83 3.84222 -2.95807 0
M  V30 38140 N 3599.17 0.840037 1.33346 0
M  V30 38141 C 3600.4 0.449829 2.01951 0
M  V30 38142 C 3600.82 -0.949288 1.63199 0
M  V30 38143 O 3600.17 -1.61711 0.845919 0
M  V30 38144 C 3600.22 0.562241 3.57101 0
M  V30 38145 O 3599.95 1.90623 3.94455 0
M  V30 38146 C 3601.45 0.16914 4.42977 0
M  V30 38147 H 3598.67 0.178436 0.64684 0
M  V30 38148 H 3601.21 1.13293 1.70249 0
M  V30 38149 H 3599.37 -0.0729664 3.87331 0
M  V30 38150 H 3599.78 1.89258 4.89164 0
M  V30 38151 H 3601.25 0.298839 5.5119 0
M  V30 38152 H 3601.73 -0.889061 4.30107 0
M  V30 38153 H 3602.34 0.778829 4.18108 0
M  V30 38154 N 3600.65 -1.45872 0.596582 0
M  V30 38155 C 3601.88 -2.06389 0.0933933 0
M  V30 38156 C 3602.29 -1.44369 -1.22288 0
M  V30 38157 O 3601.63 -0.548162 -1.75331 0
M  V30 38158 C 3601.69 -3.59257 -0.132193 0
M  V30 38159 C 3601.36 -4.43549 1.10059 0
M  V30 38160 C 3602.36 -4.79219 2.01606 0
M  V30 38161 C 3600.04 -4.84473 1.32633 0
M  V30 38162 C 3602.03 -5.54655 3.14064 0
M  V30 38163 C 3599.72 -5.59665 2.45394 0
M  V30 38164 C 3600.72 -5.94672 3.35938 0
M  V30 38165 O 3600.41 -6.68342 4.46738 0
M  V30 38166 H 3600.14 -0.673251 0.0609062 0
M  V30 38167 H 3602.69 -1.88277 0.821042 0
M  V30 38168 H 3600.92 -3.75728 -0.914612 0
M  V30 38169 H 3602.61 -4.01653 -0.58561 0
M  V30 38170 H 3603.38 -4.4817 1.85387 0
M  V30 38171 H 3599.26 -4.56667 0.630602 0
M  V30 38172 H 3602.8 -5.81898 3.84761 0
M  V30 38173 H 3598.7 -5.90128 2.6157 0
M  V30 38174 H 3599.47 -6.86781 4.4528 0
M  V30 38175 N 3602.13 -0.335122 -1.53996 0
M  V30 38176 C 3603.09 0.512976 -2.23386 0
M  V30 38177 C 3604.09 1.03433 -1.23119 0
M  V30 38178 O 3605.28 0.924918 -1.47617 0
M  V30 38179 C 3602.41 1.71372 -2.94694 0
M  V30 38180 H 3603.61 -0.0937833 -2.99753 0
M  V30 38181 H 3601.16 -0.0863534 -1.56061 0
M  V30 38182 H 3601.9 2.3594 -2.22492 0
M  V30 38183 H 3601.68 1.34717 -3.68231 0
M  V30 38184 H 3603.17 2.31546 -3.47529 0
M  V30 38185 N 3603.61 1.57472 -0.0635475 0
M  V30 38186 C 3605.02 1.80678 0.470341 0
M  V30 38187 C 3605.37 0.976801 1.70156 0
M  V30 38188 O 3604.49 0.196931 2.15502 0
M  V30 38189 C 3605.09 3.27701 0.860072 0
M  V30 38190 C 3603.65 3.51783 1.33887 0
M  V30 38191 C 3602.8 2.75447 0.32003 0
M  V30 38192 H 3605.75 1.5604 -0.289322 0
M  V30 38193 H 3605.77 3.39299 1.7221 0
M  V30 38194 H 3605.28 3.88083 -0.0362207 0
M  V30 38195 H 3603.38 2.96696 2.25394 0
M  V30 38196 H 3603.49 4.60486 1.32249 0
M  V30 38197 H 3601.86 2.41957 0.795558 0
M  V30 38198 H 3602.64 3.38562 -0.568392 0
M  V30 38199 N 3605.09 -0.209945 1.56195 0
M  V30 38200 C 3606.33 -0.930764 1.79391 0
M  V30 38201 C 3606.65 -1.84403 0.634071 0
M  V30 38202 O 3605.92 -1.92776 -0.348434 0
M  V30 38203 H 3604.5 -0.346678 0.661682 0
M  V30 38204 H 3607.17 -0.219015 1.93666 0
M  V30 38205 H 3606.26 -1.53071 2.71985 0
M  V30 38206 N 3606.56 -1.50205 -0.4771 0
M  V30 38207 C 3607.79 -1.6464 -1.25304 0
M  V30 38208 C 3608.21 -0.327307 -1.85941 0
M  V30 38209 O 3607.56 0.690058 -1.68951 0
M  V30 38210 C 3607.61 -2.73309 -2.36611 0
M  V30 38211 O 3607.34 -4.00104 -1.78462 0
M  V30 38212 C 3608.84 -2.98664 -3.2759 0
M  V30 38213 H 3606.06 -0.55359 -0.379182 0
M  V30 38214 H 3608.6 -1.96391 -0.570166 0
M  V30 38215 H 3606.76 -2.44269 -3.00685 0
M  V30 38216 H 3607.17 -4.60153 -2.51714 0
M  V30 38217 H 3608.64 -3.78377 -4.01914 0
M  V30 38218 H 3609.12 -2.095 -3.86014 0
M  V30 38219 H 3609.73 -3.29211 -2.69258 0
M  V30 38220 N 3608.04 0.729857 -1.39681 0
M  V30 38221 C 3609.29 1.49172 -1.37388 0
M  V30 38222 C 3609.62 1.94179 0.0285497 0
M  V30 38223 O 3608.9 1.67153 0.994487 0
M  V30 38224 C 3609.18 2.72781 -2.3508 0
M  V30 38225 C 3609.03 2.3376 -3.84286 0
M  V30 38226 C 3610.35 3.74897 -2.30522 0
M  V30 38227 H 3607.47 0.541111 -0.500368 0
M  V30 38228 H 3610.11 0.834122 -1.70711 0
M  V30 38229 H 3608.26 3.2889 -2.06793 0
M  V30 38230 H 3609.93 1.83243 -4.23344 0
M  V30 38231 H 3608.18 1.65928 -4.00812 0
M  V30 38232 H 3608.85 3.22301 -4.48136 0
M  V30 38233 H 3611.32 3.28384 -2.55544 0
M  V30 38234 H 3610.2 4.59045 -3.00947 0
M  V30 38235 H 3610.46 4.22184 -1.31198 0
M  V30 38236 N 3609.52 1.24942 0.960587 0
M  V30 38237 C 3610.47 1.04805 2.05632 0
M  V30 38238 C 3611.44 -0.0409319 1.6605 0
M  V30 38239 O 3612.62 0.115087 1.90453 0
M  V30 38240 C 3609.76 0.666503 3.38603 0
M  V30 38241 C 3608.88 1.82971 3.91338 0
M  V30 38242 C 3608.01 1.39308 5.12608 0
M  V30 38243 C 3607.05 2.52579 5.57557 0
M  V30 38244 N 3606.19 2.09734 6.70042 0
M  V30 38245 H 3611.03 1.98584 2.2219 0
M  V30 38246 H 3608.56 0.989 1.08891 0
M  V30 38247 H 3610.52 0.426278 4.15017 0
M  V30 38248 H 3609.15 -0.234293 3.21949 0
M  V30 38249 H 3608.2 2.18341 3.11499 0
M  V30 38250 H 3609.52 2.68057 4.20651 0
M  V30 38251 H 3608.67 1.11215 5.96419 0
M  V30 38252 H 3607.41 0.512864 4.84996 0
M  V30 38253 H 3606.41 2.81423 4.72314 0
M  V30 38254 H 3607.64 3.41169 5.8718 0
M  V30 38255 H 3605.58 1.2412 6.44151 0
M  V30 38256 H 3605.5 2.88369 6.98841 0
M  V30 38257 H 3606.77 1.848 7.57277 0
M  V30 38258 N 3611 -1.16233 1.06432 0
M  V30 38259 C 3612.25 -1.86428 0.780328 0
M  V30 38260 C 3612.57 -1.82183 -0.695303 0
M  V30 38261 O 3611.84 -1.25633 -1.5031 0
M  V30 38262 H 3610.42 -0.69022 0.285666 0
M  V30 38263 H 3613.08 -1.40946 1.34611 0
M  V30 38264 H 3612.18 -2.91827 1.10649 0
M  V30 38265 N 3612.48 -0.847097 -1.32899 0
M  V30 38266 C 3613.73 -0.443057 -1.96774 0
M  V30 38267 C 3614.04 1.00487 -1.67815 0
M  V30 38268 O 3615.24 1.51398 -2.25369 0
M  V30 38269 C 3613.7 -0.74133 -3.52182 0
M  V30 38270 C 3613.31 -2.20448 -3.90009 0
M  V30 38271 C 3615.05 -0.404643 -4.22567 0
M  V30 38272 C 3612.96 -2.44637 -5.3843 0
M  V30 38273 H 3611.89 -0.161945 -0.736403 0
M  V30 38274 H 3614.54 -1.03683 -1.51401 0
M  V30 38275 H 3612.92 -0.0770854 -3.95925 0
M  V30 38276 H 3614.1 -2.90988 -3.57299 0
M  V30 38277 H 3612.41 -2.50494 -3.32628 0
M  V30 38278 H 3615.01 -0.562888 -5.31729 0
M  V30 38279 H 3615.35 0.6531 -4.11145 0
M  V30 38280 H 3615.88 -1.02446 -3.84382 0
M  V30 38281 H 3612.62 -3.49007 -5.54864 0
M  V30 38282 H 3612.14 -1.78666 -5.72572 0
M  V30 38283 H 3613.82 -2.28204 -6.05419 0
M  V30 38284 N 3613.95 1.45554 -0.604309 0
M  V30 38285 C 3615.18 2.07146 -0.10267 0
M  V30 38286 C 3615.6 1.44654 1.20236 0
M  V30 38287 O 3614.96 0.538064 1.73132 0
M  V30 38288 C 3615.01 3.6059 0.0269597 0
M  V30 38289 O 3614.11 3.98061 1.07803 0
M  V30 38290 H 3613.46 0.660022 -0.0725783 0
M  V30 38291 H 3615.99 1.86858 -0.833388 0
M  V30 38292 H 3616 4.07372 0.226228 0
M  V30 38293 H 3614.67 4.05461 -0.925968 0
M  V30 38294 H 3613.25 3.62954 0.855488 0
M  V30 38295 N 3615.43 0.343284 1.53816 0
M  V30 38296 C 3616.68 -0.25281 2.00513 0
M  V30 38297 C 3617 -1.51089 1.23277 0
M  V30 38298 O 3616.27 -1.92929 0.339874 0
M  V30 38299 H 3614.85 -0.0964072 0.740753 0
M  V30 38300 H 3617.51 0.46438 1.89287 0
M  V30 38301 H 3616.61 -0.495445 3.08142 0
M  V30 38302 N 3616.91 -1.57436 0.0718977 0
M  V30 38303 C 3617.82 -2.1623 -0.910039 0
M  V30 38304 C 3618.84 -1.1255 -1.32697 0
M  V30 38305 O 3620.01 -1.44816 -1.39965 0
M  V30 38306 C 3617.08 -2.71241 -2.15938 0
M  V30 38307 C 3616.14 -3.89795 -1.79885 0
M  V30 38308 C 3615.37 -4.42173 -2.98862 0
M  V30 38309 O 3615.59 -3.93553 -4.12883 0
M  V30 38310 O 3614.53 -5.33503 -2.78673 0
M  V30 38311 H 3618.35 -3.00497 -0.439917 0
M  V30 38312 H 3615.94 -1.48633 -0.151178 0
M  V30 38313 H 3617.82 -3.065 -2.89199 0
M  V30 38314 H 3616.5 -1.90034 -2.62047 0
M  V30 38315 H 3615.4 -3.5939 -1.03875 0
M  V30 38316 H 3616.74 -4.72295 -1.38558 0
M  V30 38317 N 3618.39 0.201658 -1.56305 0
M  V30 38318 C 3619.61 0.94355 -1.84694 0
M  V30 38319 C 3620.04 1.76339 -0.65468 0
M  V30 38320 O 3619.4 1.7691 0.396555 0
M  V30 38321 C 3619.44 1.8208 -3.11254 0
M  V30 38322 O 3618.55 2.91876 -2.91346 0
M  V30 38323 H 3617.89 0.266081 -0.608356 0
M  V30 38324 H 3620.42 0.208956 -2.0353 0
M  V30 38325 H 3620.43 2.22674 -3.41878 0
M  V30 38326 H 3619.1 1.21837 -3.97654 0
M  V30 38327 H 3617.68 2.55084 -2.72005 0
M  V30 38328 N 3619.87 1.50456 0.469128 0
M  V30 38329 C 3620.8 1.72393 1.5749 0
M  V30 38330 C 3621.78 0.572943 1.6016 0
M  V30 38331 O 3622.96 0.81229 1.76396 0
M  V30 38332 C 3620.09 1.81987 2.95801 0
M  V30 38333 C 3619.05 2.97191 3.07996 0
M  V30 38334 C 3618.37 2.9193 4.47975 0
M  V30 38335 C 3619.67 4.3767 2.85031 0
M  V30 38336 H 3621.37 2.64976 1.39384 0
M  V30 38337 H 3618.91 1.2751 0.669111 0
M  V30 38338 H 3620.87 1.95918 3.73087 0
M  V30 38339 H 3619.59 0.860265 3.15067 0
M  V30 38340 H 3618.25 2.82913 2.33143 0
M  V30 38341 H 3617.9 1.93812 4.64162 0
M  V30 38342 H 3617.6 3.69271 4.5707 0
M  V30 38343 H 3619.12 3.07912 5.27279 0
M  V30 38344 H 3620.53 4.52462 3.52066 0
M  V30 38345 H 3618.93 5.16476 3.05569 0
M  V30 38346 H 3620 4.49903 1.80873 0
M  V30 38347 N 3621.34 -0.722439 1.40066 0
M  V30 38348 C 3622.57 -1.51667 1.41463 0
M  V30 38349 C 3622.99 -1.88095 0.0142984 0
M  V30 38350 O 3622.35 -1.52793 -0.975907 0
M  V30 38351 C 3622.4 -2.77283 2.30535 0
M  V30 38352 O 3621.5 -3.73714 1.74388 0
M  V30 38353 H 3620.85 -0.457538 0.481202 0
M  V30 38354 H 3623.38 -0.890298 1.84214 0
M  V30 38355 H 3623.39 -3.25885 2.45485 0
M  V30 38356 H 3622.06 -2.50103 3.32297 0
M  V30 38357 H 3620.64 -3.32533 1.68749 0
M  V30 38358 N 3622.82 -1.2545 -0.953947 0
M  V30 38359 C 3623.75 -1.08376 -2.06826 0
M  V30 38360 C 3624.73 0.00738595 -1.70098 0
M  V30 38361 O 3625.92 -0.162274 -1.93521 0
M  V30 38362 C 3623.05 -0.702424 -3.40122 0
M  V30 38363 C 3622 -1.74388 -3.90862 0
M  V30 38364 C 3621.33 -1.21721 -5.20661 0
M  V30 38365 C 3622.63 -3.1428 -4.17163 0
M  V30 38366 H 3624.32 -2.01585 -2.21368 0
M  V30 38367 H 3621.87 -0.970611 -1.06373 0
M  V30 38368 H 3623.82 -0.56991 -4.17528 0
M  V30 38369 H 3622.55 0.265371 -3.2552 0
M  V30 38370 H 3621.21 -1.86484 -3.15625 0
M  V30 38371 H 3620.85 -0.239628 -5.02429 0
M  V30 38372 H 3620.55 -1.91329 -5.55578 0
M  V30 38373 H 3622.08 -1.09711 -6.00663 0
M  V30 38374 H 3623.49 -3.05334 -4.85226 0
M  V30 38375 H 3621.89 -3.81364 -4.63337 0
M  V30 38376 H 3622.96 -3.6129 -3.23415 0
M  V30 38377 N 3624.3 1.15667 -1.07047 0
M  V30 38378 C 3625.25 2.18302 -0.657899 0
M  V30 38379 C 3626.24 1.57779 0.315378 0
M  V30 38380 O 3627.43 1.76525 0.1296 0
M  V30 38381 C 3624.56 3.43258 -0.0539446 0
M  V30 38382 C 3623.64 4.10841 -1.05217 0
M  V30 38383 N 3624.03 4.53959 -2.23059 0
M  V30 38384 C 3622.33 4.37135 -0.884816 0
M  V30 38385 C 3623.03 5.06331 -2.86363 0
M  V30 38386 N 3622.01 4.99685 -2.14046 0
M  V30 38387 H 3625.81 2.49364 -1.55546 0
M  V30 38388 H 3623.32 1.32201 -0.943223 0
M  V30 38389 H 3625.32 4.16092 0.259502 0
M  V30 38390 H 3623.98 3.13679 0.838775 0
M  V30 38391 H 3624.99 4.47445 -2.60794 0
M  V30 38392 H 3621.67 4.17476 -0.0447309 0
M  V30 38393 H 3623.06 5.49675 -3.86403 0
M  V30 38394 N 3625.78 0.854133 1.32447 0
M  V30 38395 C 3627.02 0.463539 1.99075 0
M  V30 38396 C 3627.38 -0.96271 1.6612 0
M  V30 38397 O 3628.58 -1.45783 2.25833 0
M  V30 38398 C 3626.86 0.695223 3.50573 0
M  V30 38399 S 3628.41 0.402124 4.36954 0
M  V30 38400 H 3625.23 0.173679 0.689461 0
M  V30 38401 H 3627.83 1.10673 1.61157 0
M  V30 38402 H 3626.54 1.73234 3.72046 0
M  V30 38403 H 3626.07 0.0384366 3.93381 0
M  V30 38404 H 3628.08 -0.772061 4.90157 0
M  V30 38405 N 3627.26 -1.45231 0.61202 0
M  V30 38406 C 3628.5 -2.02506 0.109108 0
M  V30 38407 C 3628.84 -1.47883 -1.25874 0
M  V30 38408 O 3628.11 -0.655272 -1.8313 0
M  V30 38409 C 3628.39 -3.60022 0.074992 0
M  V30 38410 C 3628.25 -4.24969 1.47382 0
M  V30 38411 C 3629.57 -4.35845 -0.610526 0
M  V30 38412 H 3626.69 -0.735852 0.041123 0
M  V30 38413 H 3629.33 -1.73033 0.78484 0
M  V30 38414 H 3627.48 -3.85263 -0.500443 0
M  V30 38415 H 3629.15 -4.10898 2.09667 0
M  V30 38416 H 3627.39 -3.83199 2.03325 0
M  V30 38417 H 3628.06 -5.33895 1.40215 0
M  V30 38418 H 3630.54 -4.15923 -0.121372 0
M  V30 38419 H 3629.42 -5.45572 -0.603518 0
M  V30 38420 H 3629.68 -4.09041 -1.67743 0
M  V30 38421 N 3628.74 -0.351436 -1.53632 0
M  V30 38422 C 3629.96 0.246465 -2.0593 0
M  V30 38423 C 3630.39 1.4281 -1.22421 0
M  V30 38424 O 3629.74 1.79707 -0.239843 0
M  V30 38425 C 3629.79 0.631799 -3.55022 0
M  V30 38426 O 3628.9 1.73085 -3.7432 0
M  V30 38427 H 3628.24 0.0392307 -0.66284 0
M  V30 38428 H 3630.77 -0.507939 -1.98195 0
M  V30 38429 H 3630.78 0.906761 -3.97796 0
M  V30 38430 H 3629.45 -0.232297 -4.15251 0
M  V30 38431 H 3628.03 1.45254 -3.43447 0
M  V30 38432 N 3630.21 1.57396 -0.0802459 0
M  V30 38433 C 3631.49 1.85231 0.628386 0
M  V30 38434 C 3631.87 0.974321 1.8727 0
M  V30 38435 O 3631.22 0.0428089 2.2846 0
M  V30 38436 C 3631.43 3.35595 0.957974 0
M  V30 38437 C 3632.78 4.03304 1.32783 0
M  V30 38438 O 3633.8 3.4039 1.04945 0
M  V30 38439 O 3632.66 5.14287 1.84856 0
M  V30 38440 H 3629.75 0.765508 0.312932 0
M  V30 38441 H 3632.3 1.69331 -0.111818 0
M  V30 38442 H 3631.07 3.91229 0.0745792 0
M  V30 38443 H 3630.69 3.56788 1.75466 0
M  V30 38444 N 3631.69 -0.193366 1.56409 0
M  V30 38445 C 3632.94 -0.911685 1.80368 0
M  V30 38446 C 3633.26 -1.8372 0.653593 0
M  V30 38447 O 3632.53 -1.93135 -0.327967 0
M  V30 38448 H 3631.11 -0.33964 0.665322 0
M  V30 38449 H 3633.77 -0.198462 1.93887 0
M  V30 38450 H 3632.87 -1.50177 2.73593 0
M  V30 38451 N 3633.17 -1.50702 -0.461142 0
M  V30 38452 C 3634.42 -1.61427 -1.20931 0
M  V30 38453 C 3634.73 -0.324844 -1.92884 0
M  V30 38454 O 3635.94 -0.311129 -2.69711 0
M  V30 38455 C 3634.39 -2.8499 -2.19792 0
M  V30 38456 C 3634 -4.20847 -1.53596 0
M  V30 38457 C 3635.75 -3.05064 -2.95189 0
M  V30 38458 C 3633.65 -5.35586 -2.50802 0
M  V30 38459 H 3632.58 -0.601182 -0.455078 0
M  V30 38460 H 3635.23 -1.77145 -0.47874 0
M  V30 38461 H 3633.62 -2.62853 -2.96183 0
M  V30 38462 H 3634.79 -4.53277 -0.829265 0
M  V30 38463 H 3633.1 -4.06459 -0.904432 0
M  V30 38464 H 3635.7 -3.87957 -3.67958 0
M  V30 38465 H 3636.04 -2.17186 -3.55156 0
M  V30 38466 H 3636.58 -3.27429 -2.25909 0
M  V30 38467 H 3633.32 -6.25649 -1.95559 0
M  V30 38468 H 3632.84 -5.07562 -3.19595 0
M  V30 38469 H 3634.52 -5.66567 -3.12427 0
M  V30 38470 N 3634.65 0.715001 -1.40447 0
M  V30 38471 C 3636.06 1.29417 -1.34567 0
M  V30 38472 C 3636.41 1.9619 -0.0194329 0
M  V30 38473 O 3635.53 1.97584 0.882582 0
M  V30 38474 C 3636.13 2.35337 -2.43725 0
M  V30 38475 C 3634.69 2.88877 -2.41303 0
M  V30 38476 C 3633.84 1.62673 -2.24573 0
M  V30 38477 H 3636.79 0.51109 -1.50245 0
M  V30 38478 H 3636.81 3.16193 -2.11665 0
M  V30 38479 H 3636.32 1.86709 -3.40237 0
M  V30 38480 H 3634.42 3.41733 -1.48489 0
M  V30 38481 H 3634.53 3.40631 -3.36909 0
M  V30 38482 H 3632.9 1.8776 -1.72099 0
M  V30 38483 H 3633.68 1.16068 -3.23084 0
M  V30 38484 N 3636.13 1.25954 0.947281 0
M  V30 38485 C 3637.07 1.0698 2.04509 0
M  V30 38486 C 3638.04 -0.0233178 1.66084 0
M  V30 38487 O 3639.23 0.13528 1.9032 0
M  V30 38488 C 3636.37 0.702379 3.37877 0
M  V30 38489 C 3635.48 1.87112 3.89375 0
M  V30 38490 C 3634.62 1.44737 5.11101 0
M  V30 38491 C 3633.65 2.58479 5.54847 0
M  V30 38492 N 3632.79 2.16829 6.6778 0
M  V30 38493 H 3637.63 2.00929 2.20071 0
M  V30 38494 H 3635.17 1.00049 1.07836 0
M  V30 38495 H 3637.13 0.470272 4.14541 0
M  V30 38496 H 3635.76 -0.200133 3.22179 0
M  V30 38497 H 3634.81 2.21633 3.09165 0
M  V30 38498 H 3636.12 2.72503 4.17784 0
M  V30 38499 H 3635.27 1.17535 5.95206 0
M  V30 38500 H 3634.01 0.564276 4.84425 0
M  V30 38501 H 3633.02 2.86417 4.69303 0
M  V30 38502 H 3634.24 3.47378 5.83528 0
M  V30 38503 H 3632.19 1.30945 6.42798 0
M  V30 38504 H 3632.11 2.95765 6.95743 0
M  V30 38505 H 3633.37 1.92822 7.55275 0
M  V30 38506 N 3637.6 -1.15097 1.07659 0
M  V30 38507 C 3639.02 -1.67539 0.823858 0
M  V30 38508 C 3639.37 -1.851 -0.650569 0
M  V30 38509 O 3638.49 -1.55659 -1.5033 0
M  V30 38510 C 3639.09 -3.04328 1.48895 0
M  V30 38511 C 3637.65 -3.53835 1.28365 0
M  V30 38512 C 3636.79 -2.29487 1.55663 0
M  V30 38513 H 3639.74 -0.992677 1.23821 0
M  V30 38514 H 3639.76 -3.69411 0.911913 0
M  V30 38515 H 3639.28 -2.91515 2.56204 0
M  V30 38516 H 3637.38 -3.71884 0.230929 0
M  V30 38517 H 3637.49 -4.35082 2.00601 0
M  V30 38518 H 3635.85 -2.35183 0.977796 0
M  V30 38519 H 3636.64 -2.19258 2.6416 0
M  V30 38520 N 3639.08 -0.861145 -1.31993 0
M  V30 38521 C 3640.03 -0.299393 -2.30665 0
M  V30 38522 C 3641.02 0.580751 -1.59134 0
M  V30 38523 O 3642.23 0.467833 -1.73814 0
M  V30 38524 H 3638.61 -0.0781223 -0.747931 0
M  V30 38525 H 3640.58 -1.14572 -2.75528 0
M  V30 38526 C 3639.33 0.491822 -3.44204 0
M  V30 38527 H 3638.65 -0.17615 -3.99412 0
M  V30 38528 H 3640.09 0.850361 -4.15385 0
M  V30 38529 C 3638.55 1.67962 -2.92045 0
M  V30 38530 O 3639.08 2.77881 -2.90078 0
M  V30 38531 N 3637.28 1.50882 -2.4836 0
M  V30 38532 H 3636.83 0.614639 -2.5016 0
M  V30 38533 H 3636.79 2.30499 -2.13817 0
M  V30 38534 N 3640.56 1.44905 -0.619713 0
M  V30 38535 C 3641.81 2.01359 -0.117182 0
M  V30 38536 C 3642.12 1.49241 1.26438 0
M  V30 38537 O 3643.33 1.9775 1.8603 0
M  V30 38538 C 3641.78 3.5955 -0.158773 0
M  V30 38539 C 3641.39 4.20665 -1.54094 0
M  V30 38540 C 3643.14 4.23523 0.287887 0
M  V30 38541 C 3641.04 5.71044 -1.53826 0
M  V30 38542 H 3639.97 0.752936 -0.0400413 0
M  V30 38543 H 3642.62 1.66246 -0.776831 0
M  V30 38544 H 3641.01 3.91909 0.567761 0
M  V30 38545 H 3642.18 3.99861 -2.29014 0
M  V30 38546 H 3640.5 3.68934 -1.93071 0
M  V30 38547 H 3643.09 5.33805 0.309258 0
M  V30 38548 H 3643.44 3.95053 1.31298 0
M  V30 38549 H 3643.97 3.95925 -0.385776 0
M  V30 38550 H 3640.71 6.04232 -2.54134 0
M  V30 38551 H 3640.23 5.94004 -0.831813 0
M  V30 38552 H 3641.91 6.34469 -1.26719 0
M  V30 38553 N 3642.04 0.359579 1.53443 0
M  V30 38554 C 3642.99 -0.48973 2.25544 0
M  V30 38555 C 3643.96 -1.08246 1.25984 0
M  V30 38556 O 3645.14 -1.11608 1.54753 0
M  V30 38557 C 3642.28 -1.62661 3.04361 0
M  V30 38558 C 3641.39 -1.05963 4.18803 0
M  V30 38559 C 3640.53 -2.16512 4.85073 0
M  V30 38560 C 3639.57 -1.57249 5.91557 0
M  V30 38561 N 3638.7 -2.61605 6.51542 0
M  V30 38562 H 3643.54 0.131633 2.97709 0
M  V30 38563 H 3641.08 0.0767314 1.469 0
M  V30 38564 H 3643.04 -2.29617 3.48328 0
M  V30 38565 H 3641.67 -2.21872 2.34463 0
M  V30 38566 H 3640.72 -0.280532 3.79364 0
M  V30 38567 H 3642.03 -0.586296 4.95342 0
M  V30 38568 H 3641.19 -2.91301 5.32193 0
M  V30 38569 H 3639.93 -2.67195 4.07993 0
M  V30 38570 H 3638.93 -0.809723 5.43805 0
M  V30 38571 H 3640.16 -1.07397 6.70554 0
M  V30 38572 H 3638.1 -3.11513 5.77318 0
M  V30 38573 H 3638.02 -2.18941 7.23603 0
M  V30 38574 H 3639.29 -3.36114 7.03312 0
M  V30 38575 N 3643.52 -1.57351 0.0885919 0
M  V30 38576 C 3644.76 -1.95209 -0.5714 0
M  V30 38577 C 3645.12 -0.969389 -1.66194 0
M  V30 38578 O 3644.41 0.00567309 -1.91599 0
M  V30 38579 C 3644.6 -3.37443 -1.17758 0
M  V30 38580 C 3644.43 -4.49459 -0.147283 0
M  V30 38581 C 3643.2 -5.04557 0.273954 0
M  V30 38582 C 3645.4 -5.10525 0.622025 0
M  V30 38583 N 3643.38 -6.00125 1.2932 0
M  V30 38584 C 3644.75 -6.01748 1.49328 0
M  V30 38585 C 3646.81 -4.93286 0.676256 0
M  V30 38586 C 3645.51 -6.77584 2.41398 0
M  V30 38587 C 3647.54 -5.69778 1.58453 0
M  V30 38588 C 3646.9 -6.60663 2.44342 0
M  V30 38589 H 3643 -0.761093 -0.179616 0
M  V30 38590 H 3645.58 -1.9396 0.169646 0
M  V30 38591 H 3643.75 -3.39398 -1.88847 0
M  V30 38592 H 3645.49 -3.62496 -1.7994 0
M  V30 38593 H 3642.24 -4.73466 -0.112504 0
M  V30 38594 H 3642.67 -6.52609 1.80083 0
M  V30 38595 H 3647.31 -4.22792 0.0263942 0
M  V30 38596 H 3645.03 -7.47344 3.07412 0
M  V30 38597 H 3648.61 -5.58455 1.63155 0
M  V30 38598 H 3647.49 -7.18817 3.13483 0
M  V30 38599 N 3644.99 0.185069 -1.5651 0
M  V30 38600 C 3646.22 0.919828 -1.85329 0
M  V30 38601 C 3646.64 1.76423 -0.672325 0
M  V30 38602 O 3645.99 1.78938 0.358823 0
M  V30 38603 C 3646.05 1.80782 -3.1305 0
M  V30 38604 O 3645.77 0.997494 -4.26593 0
M  V30 38605 C 3647.27 2.65341 -3.55118 0
M  V30 38606 H 3644.49 0.267898 -0.6152 0
M  V30 38607 H 3647.03 0.189302 -2.03622 0
M  V30 38608 H 3645.19 2.49185 -2.96624 0
M  V30 38609 H 3645.6 1.60353 -4.99387 0
M  V30 38610 H 3647.07 3.23287 -4.47425 0
M  V30 38611 H 3647.55 3.39542 -2.78582 0
M  V30 38612 H 3648.16 2.02293 -3.74109 0
M  V30 38613 N 3646.47 1.50945 0.453144 0
M  V30 38614 C 3647.41 1.65777 1.56822 0
M  V30 38615 C 3648.38 0.505542 1.54541 0
M  V30 38616 O 3649.57 0.727367 1.73901 0
M  V30 38617 C 3646.69 1.65686 2.95408 0
M  V30 38618 C 3645.74 2.86686 3.15775 0
M  V30 38619 S 3646.57 4.47736 2.93755 0
M  V30 38620 C 3647.73 4.50365 4.34651 0
M  V30 38621 H 3647.96 2.60097 1.44004 0
M  V30 38622 H 3645.5 1.40431 0.641746 0
M  V30 38623 H 3647.45 1.66317 3.75298 0
M  V30 38624 H 3646.11 0.725713 3.05601 0
M  V30 38625 H 3645.31 2.82977 4.17061 0
M  V30 38626 H 3644.91 2.83714 2.43685 0
M  V30 38627 H 3647.2 4.25033 5.27592 0
M  V30 38628 H 3648.14 5.5209 4.43398 0
M  V30 38629 H 3648.55 3.79864 4.17568 0
M  V30 38630 N 3647.95 -0.707543 1.40825 0
M  V30 38631 C 3649.36 -1.28701 1.35251 0
M  V30 38632 C 3649.71 -1.96177 0.0298371 0
M  V30 38633 O 3648.84 -1.98049 -0.872091 0
M  V30 38634 C 3649.43 -2.34041 2.4497 0
M  V30 38635 C 3647.99 -2.87593 2.42831 0
M  V30 38636 C 3647.14 -1.61479 2.25432 0
M  V30 38637 H 3650.09 -0.503114 1.50514 0
M  V30 38638 H 3650.11 -3.15066 2.13339 0
M  V30 38639 H 3649.62 -1.84902 3.41223 0
M  V30 38640 H 3647.72 -3.40941 1.503 0
M  V30 38641 H 3647.84 -3.38839 3.3871 0
M  V30 38642 H 3646.2 -1.86845 1.73092 0
M  V30 38643 H 3646.98 -1.14353 3.23695 0
M  V30 38644 N 3649.43 -1.26454 -0.940588 0
M  V30 38645 C 3650.65 -1.14917 -1.72652 0
M  V30 38646 C 3651.08 0.291756 -1.85824 0
M  V30 38647 O 3650.44 1.21138 -1.3489 0
M  V30 38648 C 3650.48 -1.82378 -3.1108 0
M  V30 38649 O 3649.59 -1.11297 -3.97098 0
M  V30 38650 H 3648.93 -0.400396 -0.529697 0
M  V30 38651 H 3651.46 -1.67285 -1.178 0
M  V30 38652 H 3651.47 -1.89225 -3.61466 0
M  V30 38653 H 3650.14 -2.87204 -3.0081 0
M  V30 38654 H 3648.72 -1.12429 -3.55548 0
M  V30 38655 N 3650.91 1.14525 -1.08268 0
M  V30 38656 C 3652.15 1.85163 -0.809889 0
M  V30 38657 C 3652.48 1.83266 0.666231 0
M  V30 38658 O 3651.75 1.28008 1.48292 0
M  V30 38659 H 3650.33 0.685588 -0.29661 0
M  V30 38660 H 3652.99 1.38787 -1.36836 0
M  V30 38661 H 3652.08 2.9003 -1.15277 0
M  V30 38662 N 3652.39 0.868133 1.31534 0
M  V30 38663 C 3653.62 0.49185 2.0066 0
M  V30 38664 C 3654.02 -0.919704 1.65342 0
M  V30 38665 O 3653.37 -1.61373 0.877759 0
M  V30 38666 C 3653.43 0.566988 3.55001 0
M  V30 38667 C 3653.09 1.93983 4.13787 0
M  V30 38668 C 3654.09 2.90709 4.31027 0
M  V30 38669 C 3651.77 2.24064 4.49556 0
M  V30 38670 C 3653.77 4.15661 4.83223 0
M  V30 38671 C 3651.46 3.49266 5.01454 0
M  V30 38672 C 3652.45 4.4488 5.18238 0
M  V30 38673 O 3652.14 5.67862 5.69023 0
M  V30 38674 H 3651.87 0.190307 0.64866 0
M  V30 38675 H 3654.43 1.17056 1.68781 0
M  V30 38676 H 3652.66 -0.168636 3.86332 0
M  V30 38677 H 3654.35 0.204394 4.05385 0
M  V30 38678 H 3655.11 2.68777 4.03713 0
M  V30 38679 H 3650.99 1.5042 4.35769 0
M  V30 38680 H 3654.54 4.90299 4.96239 0
M  V30 38681 H 3650.43 3.71043 5.28202 0
M  V30 38682 H 3651.2 5.70008 5.87395 0
M  V30 38683 N 3653.86 -1.44574 0.627389 0
M  V30 38684 C 3655.11 -2.02379 0.13058 0
M  V30 38685 C 3655.44 -1.4921 -1.24298 0
M  V30 38686 O 3654.72 -0.674658 -1.82424 0
M  V30 38687 C 3655 -3.59922 0.113173 0
M  V30 38688 C 3654.85 -4.23382 1.51881 0
M  V30 38689 C 3656.17 -4.36468 -0.564264 0
M  V30 38690 H 3653.29 -0.735374 0.0489254 0
M  V30 38691 H 3655.93 -1.7219 0.803149 0
M  V30 38692 H 3654.08 -3.85772 -0.459553 0
M  V30 38693 H 3655.76 -4.08651 2.14014 0
M  V30 38694 H 3654 -3.81021 2.07378 0
M  V30 38695 H 3654.67 -5.32378 1.4587 0
M  V30 38696 H 3657.15 -4.16028 -0.0772513 0
M  V30 38697 H 3656.02 -5.46181 -0.545619 0
M  V30 38698 H 3656.28 -4.10797 -1.63395 0
M  V30 38699 N 3655.34 -0.367711 -1.5325 0
M  V30 38700 C 3656.59 0.221643 -2.01585 0
M  V30 38701 C 3656.92 1.48246 -1.25446 0
M  V30 38702 O 3656.2 1.91348 -0.34876 0
M  V30 38703 C 3656.48 0.511444 -3.5645 0
M  V30 38704 C 3656.33 -0.763153 -4.43279 0
M  V30 38705 C 3657.65 1.31113 -4.20116 0
M  V30 38706 H 3654.77 0.0790825 -0.732745 0
M  V30 38707 H 3657.41 -0.493023 -1.83492 0
M  V30 38708 H 3655.56 1.12027 -3.71998 0
M  V30 38709 H 3657.23 -1.4006 -4.39524 0
M  V30 38710 H 3655.48 -1.38306 -4.11162 0
M  V30 38711 H 3656.15 -0.515312 -5.49589 0
M  V30 38712 H 3658.62 0.796097 -4.08413 0
M  V30 38713 H 3657.5 1.48265 -5.28497 0
M  V30 38714 H 3657.76 2.32025 -3.7632 0
M  V30 38715 N 3656.82 1.57302 -0.0969353 0
M  V30 38716 C 3658.1 1.85887 0.608704 0
M  V30 38717 C 3658.48 0.994129 1.86226 0
M  V30 38718 O 3657.82 0.0670377 2.28402 0
M  V30 38719 C 3658.03 3.36592 0.922326 0
M  V30 38720 C 3659.38 4.04689 1.28498 0
M  V30 38721 O 3660.41 3.41484 1.01328 0
M  V30 38722 O 3659.27 5.16218 1.79391 0
M  V30 38723 H 3656.36 0.768784 0.304795 0
M  V30 38724 H 3658.91 1.69203 -0.129772 0
M  V30 38725 H 3657.68 3.91286 0.03308 0
M  V30 38726 H 3657.3 3.58629 1.71672 0
M  V30 38727 N 3658.3 -0.176766 1.56606 0
M  V30 38728 C 3659.71 -0.528328 1.50602 0
M  V30 38729 C 3659.91 -1.84928 0.800238 0
M  V30 38730 O 3658.97 -2.49944 0.358343 0
M  V30 38731 C 3660.28 -0.56612 2.95323 0
M  V30 38732 C 3661.83 -0.653697 3.06098 0
M  V30 38733 C 3662.31 -0.722431 4.52266 0
M  V30 38734 N 3663.8 -0.785468 4.56492 0
M  V30 38735 C 3664.53 -0.859133 5.66927 0
M  V30 38736 N 3664.03 -0.893967 6.87008 0
M  V30 38737 N 3665.82 -0.897734 5.54885 0
M  V30 38738 H 3657.97 0.689478 2.00898 0
M  V30 38739 H 3660.23 0.247926 0.915006 0
M  V30 38740 H 3659.94 0.335722 3.50094 0
M  V30 38741 H 3659.81 -1.4145 3.49674 0
M  V30 38742 H 3662.2 -1.54596 2.51364 0
M  V30 38743 H 3662.28 0.221252 2.54841 0
M  V30 38744 H 3661.93 0.165558 5.0763 0
M  V30 38745 H 3661.86 -1.61345 5.01274 0
M  V30 38746 H 3664.35 -0.767052 3.70033 0
M  V30 38747 H 3664.66 -0.951199 7.66924 0
M  V30 38748 H 3663.01 -0.862336 6.89629 0
M  V30 38749 H 3666.2 -0.867484 4.59992 0
M  V30 38750 H 3666.37 -0.951682 6.40973 0
M  V30 38751 N 3659.78 -1.51183 -0.445132 0
M  V30 38752 C 3661.19 -1.5603 -1.02525 0
M  V30 38753 C 3661.54 -0.379121 -1.92502 0
M  V30 38754 O 3660.66 0.505019 -2.10425 0
M  V30 38755 C 3661.26 -2.82772 -1.86616 0
M  V30 38756 C 3659.82 -2.90215 -2.39692 0
M  V30 38757 C 3658.96 -2.5061 -1.187 0
M  V30 38758 H 3661.91 -1.57072 -0.226704 0
M  V30 38759 H 3661.94 -2.66094 -2.71982 0
M  V30 38760 H 3661.45 -3.68722 -1.21103 0
M  V30 38761 H 3659.55 -2.08677 -3.08682 0
M  V30 38762 H 3659.66 -3.93695 -2.73022 0
M  V30 38763 H 3658.03 -2.03632 -1.52991 0
M  V30 38764 H 3658.81 -3.38896 -0.548096 0
M  V30 38765 N 3661.25 0.700065 -1.41198 0
M  V30 38766 C 3662.19 1.8253 -1.3862 0
M  V30 38767 C 3663.2 1.60213 -0.289075 0
M  V30 38768 O 3664.39 1.69799 -0.550495 0
M  V30 38769 C 3661.49 3.19215 -1.13821 0
M  V30 38770 C 3660.66 3.68598 -2.35487 0
M  V30 38771 C 3659.72 4.8394 -2.06612 0
M  V30 38772 O 3658.75 4.95787 -2.79613 0
M  V30 38773 N 3659.95 5.70858 -1.05361 0
M  V30 38774 H 3662.71 1.85236 -2.35601 0
M  V30 38775 H 3660.27 0.882214 -1.35752 0
M  V30 38776 H 3662.27 3.93996 -0.92464 0
M  V30 38777 H 3660.84 3.11562 -0.254522 0
M  V30 38778 H 3660.06 2.84775 -2.72574 0
M  V30 38779 H 3661.34 3.9833 -3.1656 0
M  V30 38780 H 3660.74 5.63913 -0.449322 0
M  V30 38781 H 3659.3 6.45557 -0.899933 0
M  V30 38782 N 3662.73 1.26951 0.933869 0
M  V30 38783 C 3663.98 1.12313 1.67537 0
M  V30 38784 C 3664.29 -0.331754 1.92766 0
M  V30 38785 O 3665.5 -0.598936 2.64811 0
M  V30 38786 C 3663.96 1.96199 3.01718 0
M  V30 38787 C 3663.56 3.46307 2.8421 0
M  V30 38788 C 3665.31 1.90191 3.7951 0
M  V30 38789 C 3663.21 4.22414 4.13909 0
M  V30 38790 H 3662.14 0.416715 0.628382 0
M  V30 38791 H 3664.8 1.51322 1.03798 0
M  V30 38792 H 3663.18 1.5003 3.66479 0
M  V30 38793 H 3664.35 4.00296 2.28254 0
M  V30 38794 H 3662.67 3.53629 2.19854 0
M  V30 38795 H 3665.26 2.44333 4.7561 0
M  V30 38796 H 3665.61 0.8742 4.07018 0
M  V30 38797 H 3666.14 2.34223 3.21535 0
M  V30 38798 H 3662.88 5.25684 3.91582 0
M  V30 38799 H 3662.4 3.73204 4.69552 0
M  V30 38800 H 3664.08 4.31256 4.82314 0
M  V30 38801 N 3664.21 -1.13949 1.08873 0
M  V30 38802 C 3665.16 -2.21254 0.717589 0
M  V30 38803 C 3666.15 -1.67089 -0.278872 0
M  V30 38804 O 3667.36 -1.79447 -0.140932 0
M  V30 38805 H 3663.73 -0.720895 0.214044 0
M  V30 38806 H 3665.7 -2.49825 1.63187 0
M  V30 38807 C 3664.45 -3.47384 0.148159 0
M  V30 38808 H 3663.78 -3.89397 0.906097 0
M  V30 38809 H 3665.22 -4.23936 -0.0736706 0
M  V30 38810 C 3663.67 -3.17908 -1.11518 0
M  V30 38811 O 3664.2 -3.36144 -2.19932 0
M  V30 38812 N 3662.41 -2.7183 -1.02745 0
M  V30 38813 H 3661.96 -2.57191 -0.145148 0
M  V30 38814 H 3661.92 -2.52483 -1.87348 0
M  V30 38815 N 3665.69 -0.875096 -1.31072 0
M  V30 38816 C 3666.94 -0.487618 -1.96129 0
M  V30 38817 C 3667.26 0.964377 -1.69484 0
M  V30 38818 O 3666.53 1.67674 -1.01303 0
M  V30 38819 H 3665.11 -0.177332 -0.725646 0
M  V30 38820 H 3667.77 -1.11601 -1.59785 0
M  V30 38821 H 3666.86 -0.649628 -3.05264 0
M  V30 38822 N 3667.17 1.44239 -0.635047 0
M  V30 38823 C 3668.11 2.30701 0.0675302 0
M  V30 38824 C 3669.08 1.43708 0.832893 0
M  V30 38825 O 3670.27 1.72605 0.813147 0
M  V30 38826 C 3667.41 3.29041 1.04047 0
M  V30 38827 C 3666.52 4.31136 0.273115 0
M  V30 38828 C 3665.66 5.16567 1.23822 0
M  V30 38829 C 3664.7 6.10367 0.460252 0
M  V30 38830 N 3663.83 6.88484 1.37602 0
M  V30 38831 H 3668.67 2.90238 -0.675707 0
M  V30 38832 H 3666.21 1.42997 -0.344996 0
M  V30 38833 H 3668.17 3.84548 1.61798 0
M  V30 38834 H 3666.8 2.71196 1.75079 0
M  V30 38835 H 3665.85 3.7807 -0.420382 0
M  V30 38836 H 3667.16 4.9769 -0.332635 0
M  V30 38837 H 3666.32 5.7661 1.88694 0
M  V30 38838 H 3665.05 4.50096 1.87789 0
M  V30 38839 H 3664.06 5.49429 -0.201933 0
M  V30 38840 H 3665.28 6.78875 -0.174758 0
M  V30 38841 H 3663.23 6.24678 2.00283 0
M  V30 38842 H 3663.15 7.51492 0.824388 0
M  V30 38843 H 3664.42 7.53047 2.01346 0
M  V30 38844 N 3668.64 0.375833 1.53053 0
M  V30 38845 C 3669.87 -0.210792 2.05522 0
M  V30 38846 C 3670.28 -1.42168 1.24839 0
M  V30 38847 O 3669.63 -1.81481 0.284666 0
M  V30 38848 C 3669.69 -0.658485 3.53418 0
M  V30 38849 C 3669.35 0.437105 4.54905 0
M  V30 38850 C 3670.35 1.29025 5.03635 0
M  V30 38851 C 3668.03 0.600282 4.987 0
M  V30 38852 C 3670.03 2.29182 5.94773 0
M  V30 38853 C 3667.71 1.6052 5.89641 0
M  V30 38854 C 3668.71 2.4494 6.37568 0
M  V30 38855 O 3668.4 3.43716 7.26715 0
M  V30 38856 H 3668.13 -0.0386509 0.674894 0
M  V30 38857 H 3670.69 0.535569 1.98295 0
M  V30 38858 H 3668.92 -1.45661 3.58217 0
M  V30 38859 H 3670.61 -1.16926 3.88694 0
M  V30 38860 H 3671.37 1.17542 4.70541 0
M  V30 38861 H 3667.25 -0.0470536 4.60976 0
M  V30 38862 H 3670.79 2.9511 6.32104 0
M  V30 38863 H 3666.69 1.72046 6.2215 0
M  V30 38864 H 3667.46 3.39566 7.4474 0
M  V30 38865 N 3670.12 -1.57248 0.105276 0
M  V30 38866 C 3671.37 -1.93892 -0.555763 0
M  V30 38867 C 3671.68 -0.989913 -1.68701 0
M  V30 38868 O 3672.89 -1.25047 -2.40989 0
M  V30 38869 C 3671.35 -3.44546 -1.04 0
M  V30 38870 C 3670.95 -4.47957 0.0620429 0
M  V30 38871 C 3672.7 -3.90134 -1.6732 0
M  V30 38872 C 3670.61 -5.89775 -0.438125 0
M  V30 38873 H 3669.54 -0.723765 -0.211378 0
M  V30 38874 H 3672.19 -1.82586 0.182919 0
M  V30 38875 H 3670.57 -3.51039 -1.83269 0
M  V30 38876 H 3671.74 -4.53118 0.837882 0
M  V30 38877 H 3670.06 -4.12039 0.601046 0
M  V30 38878 H 3672.65 -4.93495 -2.05831 0
M  V30 38879 H 3673 -3.29345 -2.54632 0
M  V30 38880 H 3673.53 -3.86384 -0.946163 0
M  V30 38881 H 3670.27 -6.54287 0.398621 0
M  V30 38882 H 3669.79 -5.88063 -1.18075 0
M  V30 38883 H 3671.47 -6.40656 -0.903809 0
M  V30 38884 N 3671.6 0.168458 -1.56697 0
M  V30 38885 C 3672.53 1.21069 -1.99661 0
M  V30 38886 C 3673.51 1.4601 -0.872651 0
M  V30 38887 O 3674.7 1.57295 -1.13894 0
M  V30 38888 C 3671.83 2.54895 -2.35894 0
M  V30 38889 C 3670.78 2.44518 -3.51276 0
M  V30 38890 C 3670.11 3.8286 -3.73259 0
M  V30 38891 C 3671.41 1.94747 -4.84635 0
M  V30 38892 H 3673.1 0.853542 -2.86976 0
M  V30 38893 H 3670.65 0.409141 -1.38065 0
M  V30 38894 H 3672.6 3.28013 -2.64548 0
M  V30 38895 H 3671.32 2.92404 -1.45491 0
M  V30 38896 H 3669.98 1.73854 -3.22754 0
M  V30 38897 H 3669.63 4.17767 -2.80143 0
M  V30 38898 H 3669.33 3.76784 -4.50896 0
M  V30 38899 H 3670.85 4.57559 -4.04317 0
M  V30 38900 H 3672.27 2.57641 -5.12146 0
M  V30 38901 H 3670.67 1.99613 -5.65928 0
M  V30 38902 H 3671.74 0.901937 -4.76438 0
M  V30 38903 N 3673.08 1.51417 0.437109 0
M  V30 38904 C 3674.03 1.69132 1.529 0
M  V30 38905 C 3675.01 0.545306 1.51378 0
M  V30 38906 O 3676.2 0.801227 1.57827 0
M  V30 38907 C 3673.33 1.81995 2.91089 0
M  V30 38908 C 3672.42 3.02381 2.97366 0
M  V30 38909 N 3672.81 4.2555 2.73388 0
M  V30 38910 C 3671.11 3.0164 3.28526 0
M  V30 38911 C 3671.81 5.0681 2.85514 0
M  V30 38912 N 3670.79 4.41463 3.17193 0
M  V30 38913 H 3674.59 2.62027 1.33113 0
M  V30 38914 H 3672.1 1.49067 0.644418 0
M  V30 38915 H 3674.1 1.92796 3.69642 0
M  V30 38916 H 3672.76 0.902812 3.11896 0
M  V30 38917 H 3673.77 4.54491 2.48312 0
M  V30 38918 H 3670.45 2.19558 3.55106 0
M  V30 38919 H 3671.84 6.14856 2.70927 0
M  V30 38920 N 3674.56 -0.692567 1.41567 0
M  V30 38921 C 3675.83 -1.44732 1.31575 0
M  V30 38922 C 3676.21 -2.11028 -0.055271 0
M  V30 38923 O 3675.56 -2.01915 -1.0697 0
M  V30 38924 C 3675.77 -2.4643 2.4713 0
M  V30 38925 C 3677.12 -3.11595 2.88433 0
M  V30 38926 O 3678.14 -2.56755 2.46891 0
M  V30 38927 O 3677 -4.10929 3.60278 0
M  V30 38928 H 3674.1 -0.644706 0.517961 0
M  V30 38929 H 3676.64 -0.722791 1.53538 0
M  V30 38930 H 3675.41 -1.96118 3.38605 0
M  V30 38931 H 3675.04 -3.26389 2.27059 0
M  V30 38932 N 3676.03 -1.27445 -0.927123 0
M  V30 38933 C 3676.98 -1.10056 -2.04916 0
M  V30 38934 C 3677.98 -0.0234966 -1.69384 0
M  V30 38935 O 3679.18 -0.18126 -1.79085 0
M  V30 38936 H 3675.56 -0.339142 -0.671183 0
M  V30 38937 H 3677.53 -2.05113 -2.16728 0
M  V30 38938 C 3676.28 -0.765132 -3.39177 0
M  V30 38939 H 3675.6 -1.58583 -3.67003 0
M  V30 38940 H 3677.04 -0.683339 -4.18457 0
M  V30 38941 C 3675.5 0.530519 -3.32697 0
M  V30 38942 O 3676.03 1.56477 -3.6997 0
M  V30 38943 N 3674.24 0.526346 -2.85794 0
M  V30 38944 H 3673.78 -0.31572 -2.55658 0
M  V30 38945 H 3673.74 1.39332 -2.8184 0
M  V30 38946 N 3677.51 1.1337 -1.09476 0
M  V30 38947 C 3678.76 1.84293 -0.829482 0
M  V30 38948 C 3679.08 1.83962 0.646756 0
M  V30 38949 O 3678.35 1.29574 1.46926 0
M  V30 38950 H 3676.93 0.682404 -0.303865 0
M  V30 38951 H 3679.59 1.37328 -1.38301 0
M  V30 38952 H 3678.69 2.88791 -1.18347 0
M  V30 38953 N 3678.99 0.882035 1.30606 0
M  V30 38954 C 3680.22 0.51385 2.00418 0
M  V30 38955 C 3680.63 -0.896887 1.66137 0
M  V30 38956 O 3679.99 -1.58938 0.896938 0
M  V30 38957 C 3680.04 0.675565 3.55131 0
M  V30 38958 O 3679.76 2.03076 3.8819 0
M  V30 38959 C 3681.26 0.309984 4.42215 0
M  V30 38960 H 3678.48 0.198924 0.640835 0
M  V30 38961 H 3681.03 1.18652 1.66559 0
M  V30 38962 H 3679.18 0.050297 3.87367 0
M  V30 38963 H 3679.6 2.04725 4.82895 0
M  V30 38964 H 3681.07 0.474045 5.49961 0
M  V30 38965 H 3681.55 -0.751776 4.32718 0
M  V30 38966 H 3682.15 0.911453 4.15419 0
M  V30 38967 N 3680.47 -1.439 0.642688 0
M  V30 38968 C 3681.4 -2.33462 -0.0419345 0
M  V30 38969 C 3682.38 -1.4887 -0.822897 0
M  V30 38970 O 3683.56 -1.77562 -0.786477 0
M  V30 38971 C 3680.69 -3.32099 -1.01625 0
M  V30 38972 C 3679.65 -4.26598 -0.346131 0
M  V30 38973 C 3678.97 -5.15191 -1.43116 0
M  V30 38974 C 3680.27 -5.16816 0.75489 0
M  V30 38975 H 3681.97 -2.90958 0.70598 0
M  V30 38976 H 3679.51 -1.39905 0.340949 0
M  V30 38977 H 3681.47 -3.93646 -1.50403 0
M  V30 38978 H 3680.19 -2.72837 -1.7952 0
M  V30 38979 H 3678.85 -3.664 0.121102 0
M  V30 38980 H 3678.5 -4.52275 -2.20127 0
M  V30 38981 H 3678.2 -5.79233 -0.988092 0
M  V30 38982 H 3679.72 -5.79611 -1.92051 0
M  V30 38983 H 3681.14 -5.72232 0.349725 0
M  V30 38984 H 3679.53 -5.89522 1.12179 0
M  V30 38985 H 3680.6 -4.57135 1.61726 0
M  V30 38986 N 3681.95 -0.383945 -1.52852 0
M  V30 38987 C 3683.19 0.20025 -2.01809 0
M  V30 38988 C 3683.53 1.46907 -1.27012 0
M  V30 38989 O 3682.8 1.90967 -0.369035 0
M  V30 38990 C 3683.08 0.473609 -3.56972 0
M  V30 38991 C 3682.94 -0.810126 -4.42444 0
M  V30 38992 C 3684.26 1.2665 -4.21483 0
M  V30 38993 H 3681.38 0.0713063 -0.733542 0
M  V30 38994 H 3684.02 -0.512457 -1.82959 0
M  V30 38995 H 3682.17 1.08075 -3.73165 0
M  V30 38996 H 3683.84 -1.44714 -4.38013 0
M  V30 38997 H 3682.08 -1.42659 -4.09671 0
M  V30 38998 H 3682.75 -0.573574 -5.49012 0
M  V30 38999 H 3685.23 0.752734 -4.09235 0
M  V30 39000 H 3684.11 1.42651 -5.30039 0
M  V30 39001 H 3684.37 2.28021 -3.7876 0
M  V30 39002 N 3683.43 1.5719 -0.113614 0
M  V30 39003 C 3684.67 1.94184 0.545472 0
M  V30 39004 C 3684.99 0.998845 1.68174 0
M  V30 39005 O 3686.19 1.26323 2.40322 0
M  V30 39006 C 3684.65 3.45093 1.02172 0
M  V30 39007 C 3684.26 4.47918 -0.0857983 0
M  V30 39008 C 3686 3.91016 1.65248 0
M  V30 39009 C 3683.91 5.89999 0.406842 0
M  V30 39010 H 3682.84 0.724875 0.207537 0
M  V30 39011 H 3685.49 1.82486 -0.1926 0
M  V30 39012 H 3683.87 3.52006 1.81404 0
M  V30 39013 H 3685.05 4.52668 -0.861901 0
M  V30 39014 H 3683.36 4.11715 -0.622889 0
M  V30 39015 H 3685.96 4.9458 2.03211 0
M  V30 39016 H 3686.3 3.30691 2.52882 0
M  V30 39017 H 3686.83 3.8688 0.925659 0
M  V30 39018 H 3683.57 6.54066 -0.433314 0
M  V30 39019 H 3683.09 5.88681 1.14954 0
M  V30 39020 H 3684.77 6.41126 0.869821 0
M  V30 39021 N 3684.9 -0.160146 1.56784 0
M  V30 39022 C 3685.85 -1.19807 1.97269 0
M  V30 39023 C 3686.82 -1.43396 0.838265 0
M  V30 39024 O 3688.01 -1.5595 1.09929 0
M  V30 39025 C 3685.15 -2.52975 2.34729 0
M  V30 39026 C 3684.26 -2.36671 3.61401 0
M  V30 39027 C 3683.39 -3.62782 3.88024 0
M  V30 39028 C 3682.43 -3.41459 5.08008 0
M  V30 39029 N 3681.57 -4.59668 5.30707 0
M  V30 39030 H 3686.41 -0.845828 2.85744 0
M  V30 39031 H 3683.95 -0.406224 1.4138 0
M  V30 39032 H 3685.9 -3.30604 2.54474 0
M  V30 39033 H 3684.53 -2.86172 1.4935 0
M  V30 39034 H 3683.59 -1.50161 3.49508 0
M  V30 39035 H 3684.9 -2.16867 4.49188 0
M  V30 39036 H 3684.05 -4.48844 4.08196 0
M  V30 39037 H 3682.79 -3.85576 2.98634 0
M  V30 39038 H 3681.8 -2.53784 4.87723 0
M  V30 39039 H 3683.02 -3.20076 5.98939 0
M  V30 39040 H 3680.97 -4.8266 4.4427 0
M  V30 39041 H 3680.88 -4.42818 6.12738 0
M  V30 39042 H 3682.15 -5.46981 5.55367 0
M  V30 39043 N 3686.38 -1.51647 -0.429072 0
M  V30 39044 C 3687.29 -1.76415 -1.54645 0
M  V30 39045 C 3688.31 -0.648731 -1.61454 0
M  V30 39046 O 3689.48 -0.931919 -1.78542 0
M  V30 39047 C 3686.55 -1.89147 -2.90559 0
M  V30 39048 C 3685.61 -3.13019 -2.93799 0
M  V30 39049 C 3684.84 -3.25134 -4.2323 0
M  V30 39050 O 3685.07 -2.42988 -5.16055 0
M  V30 39051 O 3684 -4.18165 -4.32922 0
M  V30 39052 H 3687.83 -2.71217 -1.36657 0
M  V30 39053 H 3685.41 -1.36248 -0.612922 0
M  V30 39054 H 3687.29 -1.99459 -3.71206 0
M  V30 39055 H 3685.97 -0.975326 -3.08657 0
M  V30 39056 H 3684.87 -3.08179 -2.12076 0
M  V30 39057 H 3686.21 -4.04349 -2.80647 0
M  V30 39058 N 3687.86 0.685049 -1.41932 0
M  V30 39059 C 3688.82 1.78058 -1.44318 0
M  V30 39060 C 3689.82 1.5733 -0.332243 0
M  V30 39061 O 3691.01 1.6381 -0.592609 0
M  V30 39062 C 3688.14 3.16567 -1.26484 0
M  V30 39063 H 3689.34 1.77333 -2.41853 0
M  V30 39064 H 3686.89 0.893698 -1.28229 0
M  V30 39065 H 3687.63 3.22925 -0.298316 0
M  V30 39066 H 3687.41 3.33015 -2.06987 0
M  V30 39067 H 3688.9 3.96516 -1.31013 0
M  V30 39068 N 3689.34 1.27935 0.920351 0
M  V30 39069 C 3690.57 1.17536 1.70273 0
M  V30 39070 C 3690.98 -0.26687 1.86904 0
M  V30 39071 O 3690.34 -1.18103 1.39133 0
M  V30 39072 C 3690.39 1.86224 3.09843 0
M  V30 39073 O 3690.11 3.24813 2.93986 0
M  V30 39074 C 3691.61 1.82044 4.04197 0
M  V30 39075 H 3688.83 0.408306 0.532473 0
M  V30 39076 H 3691.37 1.6894 1.15237 0
M  V30 39077 H 3689.53 1.38707 3.61717 0
M  V30 39078 H 3689.94 3.59118 3.82275 0
M  V30 39079 H 3691.42 2.34706 4.99617 0
M  V30 39080 H 3691.89 0.791371 4.32012 0
M  V30 39081 H 3692.5 2.2921 3.5825 0
M  V30 39082 N 3690.82 -1.12788 1.10076 0
M  V30 39083 C 3691.78 -2.16592 0.749708 0
M  V30 39084 C 3692.78 -1.59232 -0.224018 0
M  V30 39085 O 3693.97 -1.742 -0.00134042 0
M  V30 39086 C 3691.1 -3.40723 0.109855 0
M  V30 39087 H 3692.29 -2.49161 1.6691 0
M  V30 39088 H 3689.85 -1.27731 0.900804 0
M  V30 39089 H 3690.58 -3.1375 -0.820446 0
M  V30 39090 H 3690.37 -3.8363 0.810584 0
M  V30 39091 H 3691.86 -4.17427 -0.120125 0
M  V30 39092 N 3692.29 -0.888949 -1.30136 0
M  V30 39093 C 3693.52 -0.523711 -1.99852 0
M  V30 39094 C 3693.93 0.893283 -1.66785 0
M  V30 39095 O 3693.27 1.59956 -0.90332 0
M  V30 39096 C 3693.34 -0.623394 -3.54054 0
M  V30 39097 C 3693 -2.00541 -4.10648 0
M  V30 39098 C 3694 -2.9753 -4.26347 0
M  V30 39099 C 3691.68 -2.31188 -4.45934 0
M  V30 39100 C 3693.68 -4.23296 -4.76549 0
M  V30 39101 C 3691.36 -3.57199 -4.95834 0
M  V30 39102 C 3692.36 -4.53068 -5.11095 0
M  V30 39103 O 3692.05 -5.76843 -5.59917 0
M  V30 39104 H 3691.78 -0.200603 -0.64555 0
M  V30 39105 H 3694.34 -1.19727 -1.66897 0
M  V30 39106 H 3692.57 0.107153 -3.86552 0
M  V30 39107 H 3694.25 -0.268861 -4.05009 0
M  V30 39108 H 3695.02 -2.75166 -3.99386 0
M  V30 39109 H 3690.9 -1.57334 -4.33321 0
M  V30 39110 H 3694.44 -4.98131 -4.88376 0
M  V30 39111 H 3690.34 -3.79399 -5.22232 0
M  V30 39112 H 3691.11 -5.79281 -5.78252 0
M  V30 39113 N 3693.77 1.43557 -0.65031 0
M  V30 39114 C 3695.05 1.95381 -0.0925687 0
M  V30 39115 C 3695.43 1.59171 1.38665 0
M  V30 39116 O 3694.78 0.875361 2.11068 0
M  V30 39117 C 3694.99 3.47382 -0.335718 0
M  V30 39118 C 3696.33 4.23926 -0.239107 0
M  V30 39119 O 3697.36 3.55189 -0.268119 0
M  V30 39120 O 3696.22 5.46265 -0.160337 0
M  V30 39121 H 3693.31 0.826923 0.0112938 0
M  V30 39122 H 3695.86 1.53512 -0.723346 0
M  V30 39123 H 3694.63 3.66854 -1.36138 0
M  V30 39124 H 3694.25 3.96243 0.328269 0
M  V30 39125 N 3695.25 0.392045 1.52646 0
M  V30 39126 C 3696.67 0.0421287 1.59544 0
M  V30 39127 C 3696.87 -1.44351 1.40589 0
M  V30 39128 O 3695.92 -2.20835 1.22426 0
M  V30 39129 C 3697.23 0.521765 2.96139 0
M  V30 39130 C 3698.78 0.47826 3.09325 0
M  V30 39131 C 3699.26 0.934129 4.48373 0
M  V30 39132 N 3700.75 0.890252 4.54564 0
M  V30 39133 C 3701.48 1.21437 5.60393 0
M  V30 39134 N 3700.98 1.60909 6.73855 0
M  V30 39135 N 3702.77 1.13544 5.50513 0
M  V30 39136 H 3694.92 1.3592 1.63216 0
M  V30 39137 H 3697.19 0.557283 0.766903 0
M  V30 39138 H 3696.89 1.55947 3.15235 0
M  V30 39139 H 3696.77 -0.0776996 3.7712 0
M  V30 39140 H 3699.15 -0.550367 2.89922 0
M  V30 39141 H 3699.23 1.11356 2.3029 0
M  V30 39142 H 3698.88 1.961 4.68516 0
M  V30 39143 H 3698.81 0.27581 5.25877 0
M  V30 39144 H 3701.3 0.599823 3.73109 0
M  V30 39145 H 3701.61 1.83996 7.50577 0
M  V30 39146 H 3699.96 1.64798 6.75179 0
M  V30 39147 H 3703.15 0.826058 4.60754 0
M  V30 39148 H 3703.32 1.39135 6.32887 0
M  V30 39149 N 3696.73 -1.57127 0.121948 0
M  V30 39150 C 3697.98 -1.9491 -0.534279 0
M  V30 39151 C 3698.3 -1.00633 -1.67027 0
M  V30 39152 O 3697.57 -0.063171 -1.95798 0
M  V30 39153 H 3696.15 -0.719628 -0.20036 0
M  V30 39154 H 3698.81 -1.93956 0.191581 0
M  V30 39155 H 3697.91 -2.98018 -0.926922 0
M  V30 39156 N 3698.21 0.151829 -1.56867 0
M  V30 39157 C 3699.15 1.20681 -1.98844 0
M  V30 39158 C 3700.15 1.44744 -0.880095 0
M  V30 39159 O 3701.35 1.45093 -1.06527 0
M  V30 39160 H 3697.73 0.406112 -0.632911 0
M  V30 39161 H 3699.7 0.826044 -2.86739 0
M  V30 39162 C 3698.45 2.53385 -2.381 0
M  V30 39163 H 3697.77 2.35698 -3.22934 0
M  V30 39164 H 3699.21 3.25842 -2.71298 0
M  V30 39165 C 3697.67 3.13573 -1.2318 0
M  V30 39166 O 3698.2 3.98189 -0.529934 0
M  V30 39167 N 3696.41 2.72951 -0.997303 0
M  V30 39168 H 3695.95 2.04241 -1.56982 0
M  V30 39169 H 3695.91 3.13556 -0.230276 0
M  V30 39170 N 3699.68 1.51872 0.421024 0
M  V30 39171 C 3700.91 1.68932 1.18935 0
M  V30 39172 C 3701.32 0.393231 1.85068 0
M  V30 39173 O 3700.67 -0.639617 1.72205 0
M  V30 39174 C 3700.73 2.76016 2.30338 0
M  V30 39175 C 3700.39 4.18129 1.84438 0
M  V30 39176 C 3701.39 5.02368 1.33873 0
M  V30 39177 C 3699.07 4.64308 1.91633 0
M  V30 39178 C 3701.07 6.30855 0.911101 0
M  V30 39179 C 3698.75 5.92787 1.48482 0
M  V30 39180 C 3699.75 6.75889 0.983041 0
M  V30 39181 O 3699.44 8.01963 0.557712 0
M  V30 39182 H 3699.17 0.569697 0.363898 0
M  V30 39183 H 3701.73 1.99144 0.503054 0
M  V30 39184 H 3699.96 2.41154 3.02294 0
M  V30 39185 H 3701.65 2.81792 2.92144 0
M  V30 39186 H 3702.41 4.67888 1.27696 0
M  V30 39187 H 3698.29 3.99736 2.29634 0
M  V30 39188 H 3701.83 6.95669 0.518755 0
M  V30 39189 H 3697.73 6.26778 1.54334 0
M  V30 39190 H 3698.5 8.15653 0.682095 0
M  V30 39191 N 3701.16 -0.677513 1.42294 0
M  V30 39192 C 3702.41 -1.43332 1.41912 0
M  V30 39193 C 3702.72 -1.95563 0.0379854 0
M  V30 39194 O 3703.93 -2.71356 -0.088436 0
M  V30 39195 C 3702.39 -2.59271 2.49613 0
M  V30 39196 C 3701.99 -2.1375 3.93719 0
M  V30 39197 C 3703.74 -3.36798 2.58393 0
M  V30 39198 C 3701.65 -3.26756 4.92935 0
M  V30 39199 H 3700.58 -0.538451 0.527813 0
M  V30 39200 H 3703.23 -0.733762 1.68191 0
M  V30 39201 H 3701.61 -3.31581 2.16494 0
M  V30 39202 H 3702.78 -1.48611 4.36178 0
M  V30 39203 H 3701.1 -1.49168 3.88764 0
M  V30 39204 H 3703.69 -4.20955 3.29698 0
M  V30 39205 H 3704.04 -3.83207 1.6266 0
M  V30 39206 H 3704.57 -2.71556 2.90693 0
M  V30 39207 H 3701.31 -2.85341 5.90136 0
M  V30 39208 H 3700.83 -3.90686 4.5511 0
M  V30 39209 H 3702.51 -3.92264 5.14527 0
M  V30 39210 N 3702.64 -1.28421 -0.913554 0
M  V30 39211 C 3703.88 -1.16839 -1.67714 0
M  V30 39212 C 3704.24 0.278418 -1.89971 0
M  V30 39213 O 3705.45 0.516948 -2.63782 0
M  V30 39214 C 3703.72 -1.9451 -2.99834 0
M  V30 39215 S 3705.28 -1.99304 -3.90926 0
M  V30 39216 H 3702.09 -0.416856 -0.57598 0
M  V30 39217 H 3704.7 -1.62523 -1.08658 0
M  V30 39218 H 3703.4 -2.98793 -2.81338 0
M  V30 39219 H 3702.93 -1.49376 -3.63937 0
M  V30 39220 H 3704.95 -1.09969 -4.83861 0
M  V30 39221 N 3704.12 1.12202 -1.10672 0
M  V30 39222 C 3705.07 2.18005 -0.757783 0
M  V30 39223 C 3706.04 1.63939 0.267032 0
M  V30 39224 O 3707.22 1.90242 0.145755 0
M  V30 39225 C 3704.36 3.44529 -0.19844 0
M  V30 39226 C 3703.47 4.12637 -1.27885 0
M  V30 39227 C 3702.61 5.26818 -0.680893 0
M  V30 39228 C 3701.65 5.86797 -1.74171 0
M  V30 39229 N 3700.78 6.92387 -1.16384 0
M  V30 39230 H 3705.62 2.47199 -1.66422 0
M  V30 39231 H 3703.16 1.21363 -0.831237 0
M  V30 39232 H 3705.12 4.16952 0.143765 0
M  V30 39233 H 3703.75 3.15744 0.671223 0
M  V30 39234 H 3702.8 3.38368 -1.73814 0
M  V30 39235 H 3704.11 4.53281 -2.08177 0
M  V30 39236 H 3703.27 6.06015 -0.288279 0
M  V30 39237 H 3702.01 4.87459 0.153435 0
M  V30 39238 H 3701.01 5.06285 -2.14372 0
M  V30 39239 H 3702.24 6.28226 -2.57893 0
M  V30 39240 H 3700.18 6.5506 -0.351014 0
M  V30 39241 H 3700.1 7.31642 -1.90356 0
M  V30 39242 H 3701.37 7.75406 -0.797851 0
M  V30 39243 N 3705.6 0.895838 1.29663 0
M  V30 39244 C 3706.56 0.37554 2.26102 0
M  V30 39245 C 3707.56 -0.488099 1.53213 0
M  V30 39246 O 3708.75 -0.293702 1.71706 0
M  V30 39247 C 3705.88 -0.46358 3.37733 0
M  V30 39248 H 3707.07 1.22723 2.73641 0
M  V30 39249 H 3704.63 0.673638 1.41038 0
M  V30 39250 H 3705.36 -1.33541 2.95529 0
M  V30 39251 H 3705.15 0.155192 3.91793 0
M  V30 39252 H 3706.64 -0.81904 4.09489 0
M  V30 39253 N 3707.07 -1.43211 0.657914 0
M  V30 39254 C 3708.01 -2.29094 -0.0695597 0
M  V30 39255 C 3709.02 -1.42765 -0.782438 0
M  V30 39256 O 3710.21 -1.66655 -0.639411 0
M  V30 39257 C 3707.31 -3.19798 -1.12173 0
M  V30 39258 C 3706.48 -4.34691 -0.486054 0
M  V30 39259 C 3705.54 -5.06234 -1.43573 0
M  V30 39260 O 3704.57 -5.61342 -0.942523 0
M  V30 39261 N 3705.77 -5.10171 -2.76957 0
M  V30 39262 H 3708.53 -2.92169 0.667617 0
M  V30 39263 H 3706.09 -1.53952 0.501049 0
M  V30 39264 H 3708.09 -3.64525 -1.75795 0
M  V30 39265 H 3706.66 -2.5829 -1.76082 0
M  V30 39266 H 3705.88 -3.92822 0.32935 0
M  V30 39267 H 3707.16 -5.08782 -0.0425024 0
M  V30 39268 H 3706.56 -4.66779 -3.19583 0
M  V30 39269 H 3705.12 -5.586 -3.3587 0
M  V30 39270 N 3708.55 -0.400135 -1.52436 0
M  V30 39271 C 3709.5 0.444532 -2.28313 0
M  V30 39272 C 3710.49 1.05367 -1.32643 0
M  V30 39273 O 3711.7 0.992904 -1.50138 0
M  V30 39274 H 3708.08 0.162125 -0.734316 0
M  V30 39275 H 3710.05 -0.216754 -2.97612 0
M  V30 39276 C 3708.8 1.55387 -3.11047 0
M  V30 39277 H 3708.12 1.09448 -3.84527 0
M  V30 39278 H 3709.56 2.11889 -3.67259 0
M  V30 39279 C 3708.02 2.5161 -2.2404 0
M  V30 39280 O 3708.55 3.5528 -1.87453 0
M  V30 39281 N 3706.75 2.21607 -1.87986 0
M  V30 39282 H 3706.3 1.37335 -2.17938 0
M  V30 39283 H 3706.26 2.86236 -1.30063 0
M  V30 39284 N 3710.03 1.57061 -0.13028 0
M  V30 39285 C 3711.26 2.00363 0.535672 0
M  V30 39286 C 3711.68 1.00959 1.5871 0
M  V30 39287 O 3711.04 -0.0171227 1.81292 0
M  V30 39288 C 3711.09 3.42493 1.1283 0
M  V30 39289 O 3710.19 3.46029 2.24361 0
M  V30 39290 H 3709.53 0.6506 0.132724 0
M  V30 39291 H 3712.06 2.03391 -0.222083 0
M  V30 39292 H 3712.07 3.80941 1.46108 0
M  V30 39293 H 3710.75 4.14354 0.358231 0
M  V30 39294 H 3709.32 3.19409 1.92438 0
M  V30 39295 N 3711.51 -0.143508 1.56945 0
M  V30 39296 C 3712.76 -0.856798 1.83812 0
M  V30 39297 C 3713.09 -1.80661 0.712407 0
M  V30 39298 O 3712.36 -1.9242 -0.283709 0
M  V30 39299 C 3712.65 -1.62823 3.21187 0
M  V30 39300 C 3712.5 -0.699666 4.44325 0
M  V30 39301 C 3713.82 -2.58993 3.55824 0
M  V30 39302 H 3710.94 -0.310034 0.668616 0
M  V30 39303 H 3713.58 -0.121867 1.89609 0
M  V30 39304 H 3711.73 -2.25474 3.16376 0
M  V30 39305 H 3713.4 -0.0838808 4.61224 0
M  V30 39306 H 3711.64 -0.00947665 4.33799 0
M  V30 39307 H 3712.32 -1.27555 5.3706 0
M  V30 39308 H 3714.79 -2.06457 3.61268 0
M  V30 39309 H 3713.67 -3.10016 4.5297 0
M  V30 39310 H 3713.93 -3.40514 2.81962 0
M  V30 39311 N 3712.99 -1.52093 -0.412964 0
M  V30 39312 C 3714.24 -1.65636 -1.15798 0
M  V30 39313 C 3714.56 -0.386771 -1.91126 0
M  V30 39314 O 3713.83 0.598229 -1.86542 0
M  V30 39315 H 3712.41 -0.610505 -0.430456 0
M  V30 39316 H 3715.07 -1.89121 -0.471094 0
M  V30 39317 H 3714.16 -2.49563 -1.87417 0
M  V30 39318 N 3714.47 0.669957 -1.42651 0
M  V30 39319 C 3715.42 1.77612 -1.42961 0
M  V30 39320 C 3716.4 1.58073 -0.300278 0
M  V30 39321 O 3717.59 1.6847 -0.54286 0
M  V30 39322 C 3714.72 3.16103 -1.33916 0
M  V30 39323 C 3713.81 3.41249 -2.51814 0
M  V30 39324 N 3714.2 3.36953 -3.77222 0
M  V30 39325 C 3712.5 3.71903 -2.46178 0
M  V30 39326 C 3713.2 3.61716 -4.55562 0
M  V30 39327 N 3712.17 3.82717 -3.86043 0
M  V30 39328 H 3715.97 1.72691 -2.37813 0
M  V30 39329 H 3713.49 0.870985 -1.37068 0
M  V30 39330 H 3715.49 3.95377 -1.3222 0
M  V30 39331 H 3714.15 3.22218 -0.400709 0
M  V30 39332 H 3715.16 3.16744 -4.09748 0
M  V30 39333 H 3711.83 3.85235 -1.60937 0
M  V30 39334 H 3713.22 3.64315 -5.64557 0
M  V30 39335 N 3715.94 1.28904 0.90673 0
M  V30 39336 C 3717.17 1.19336 1.69017 0
M  V30 39337 C 3717.59 -0.247032 1.87177 0
M  V30 39338 O 3716.94 -1.16621 1.40378 0
M  V30 39339 C 3716.99 1.895 3.07851 0
M  V30 39340 O 3716.72 3.27913 2.90525 0
M  V30 39341 C 3718.22 1.86321 4.02243 0
M  V30 39342 H 3715.44 0.413931 0.528112 0
M  V30 39343 H 3717.98 1.70153 1.13438 0
M  V30 39344 H 3716.14 1.42536 3.60225 0
M  V30 39345 H 3716.55 3.63153 3.78445 0
M  V30 39346 H 3718.02 2.39992 4.97099 0
M  V30 39347 H 3718.5 0.837147 4.31148 0
M  V30 39348 H 3719.11 2.32997 3.55799 0
M  V30 39349 N 3717.42 -1.11614 1.11266 0
M  V30 39350 C 3718.35 -2.19675 0.791528 0
M  V30 39351 C 3719.33 -1.68408 -0.239321 0
M  V30 39352 O 3720.52 -1.93926 -0.103194 0
M  V30 39353 C 3717.65 -3.46525 0.231952 0
M  V30 39354 C 3716.6 -4.10995 1.19447 0
M  V30 39355 C 3715.93 -5.32397 0.495687 0
M  V30 39356 C 3717.23 -4.56131 2.54445 0
M  V30 39357 H 3718.92 -2.46795 1.69508 0
M  V30 39358 H 3716.47 -1.18617 0.816454 0
M  V30 39359 H 3718.42 -4.214 -0.00490061 0
M  V30 39360 H 3717.14 -3.18859 -0.706882 0
M  V30 39361 H 3715.8 -3.38111 1.41692 0
M  V30 39362 H 3715.45 -5.01002 -0.447896 0
M  V30 39363 H 3715.15 -5.76482 1.13763 0
M  V30 39364 H 3716.68 -6.10013 0.267583 0
M  V30 39365 H 3718.09 -5.22337 2.36298 0
M  V30 39366 H 3716.49 -5.11023 3.14604 0
M  V30 39367 H 3717.56 -3.69671 3.13802 0
M  V30 39368 N 3718.9 -0.902701 -1.29186 0
M  V30 39369 C 3720.15 -0.526117 -1.94717 0
M  V30 39370 C 3720.46 0.932786 -1.71926 0
M  V30 39371 O 3721.67 1.41703 -2.31587 0
M  V30 39372 C 3720.12 -0.890035 -3.48721 0
M  V30 39373 C 3719.73 -2.36791 -3.80308 0
M  V30 39374 C 3721.48 -0.583504 -4.20471 0
M  V30 39375 C 3719.38 -2.67253 -5.2757 0
M  V30 39376 H 3718.31 -0.193032 -0.728872 0
M  V30 39377 H 3720.96 -1.10011 -1.46867 0
M  V30 39378 H 3719.35 -0.244941 -3.95242 0
M  V30 39379 H 3720.52 -3.05881 -3.44635 0
M  V30 39380 H 3718.83 -2.64377 -3.21704 0
M  V30 39381 H 3721.43 -0.787906 -5.28863 0
M  V30 39382 H 3721.77 0.478131 -4.13545 0
M  V30 39383 H 3722.31 -1.18657 -3.79691 0
M  V30 39384 H 3719.05 -3.72227 -5.39562 0
M  V30 39385 H 3718.57 -2.0279 -5.64479 0
M  V30 39386 H 3720.25 -2.53677 -5.95195 0
M  V30 39387 N 3720.38 1.4286 -0.6655 0
M  V30 39388 C 3721.61 2.06007 -0.192036 0
M  V30 39389 C 3722.02 1.49951 1.14717 0
M  V30 39390 O 3721.38 0.635629 1.71073 0
M  V30 39391 C 3721.43 3.61338 -0.108252 0
M  V30 39392 O 3721.15 4.15312 -1.39453 0
M  V30 39393 C 3722.65 4.41583 0.389823 0
M  V30 39394 H 3719.87 0.664156 -0.0955929 0
M  V30 39395 H 3722.41 1.83156 -0.909614 0
M  V30 39396 H 3720.57 3.83332 0.559956 0
M  V30 39397 H 3720.98 5.09097 -1.26177 0
M  V30 39398 H 3722.46 5.50568 0.397374 0
M  V30 39399 H 3722.93 4.15495 1.42341 0
M  V30 39400 H 3723.54 4.24586 -0.246322 0
M  V30 39401 N 3721.86 0.408213 1.52221 0
M  V30 39402 C 3723.1 -0.168119 2.02102 0
M  V30 39403 C 3723.43 -1.44868 1.29333 0
M  V30 39404 O 3722.71 -1.90356 0.39937 0
M  V30 39405 C 3722.99 -0.416758 3.5768 0
M  V30 39406 C 3722.85 0.880412 4.411 0
M  V30 39407 C 3724.16 -1.19929 4.23444 0
M  V30 39408 H 3721.28 -0.0596273 0.734584 0
M  V30 39409 H 3723.93 0.541499 1.8212 0
M  V30 39410 H 3722.08 -1.02124 3.74837 0
M  V30 39411 H 3723.75 1.51664 4.35656 0
M  V30 39412 H 3721.99 1.49159 4.0735 0
M  V30 39413 H 3722.66 0.660845 5.4803 0
M  V30 39414 H 3725.14 -0.687533 4.10381 0
M  V30 39415 H 3724.01 -1.34201 5.32242 0
M  V30 39416 H 3724.27 -2.21966 3.82339 0
M  V30 39417 N 3723.33 -1.56989 0.138607 0
M  V30 39418 C 3724.74 -1.82717 -0.383601 0
M  V30 39419 C 3725.1 -1.05687 -1.65302 0
M  V30 39420 O 3724.22 -0.299525 -2.14317 0
M  V30 39421 C 3724.82 -3.31432 -0.702742 0
M  V30 39422 C 3723.37 -3.5777 -1.1695 0
M  V30 39423 C 3722.52 -2.7666 -0.188246 0
M  V30 39424 H 3725.47 -1.54482 0.363442 0
M  V30 39425 H 3725.49 -3.47129 -1.55826 0
M  V30 39426 H 3725.01 -3.87468 0.221339 0
M  V30 39427 H 3723.11 -3.07112 -2.10981 0
M  V30 39428 H 3723.22 -4.66271 -1.10128 0
M  V30 39429 H 3721.58 -2.45477 -0.679212 0
M  V30 39430 H 3722.37 -3.35465 0.729277 0
M  V30 39431 N 3724.81 0.135183 -1.57019 0
M  V30 39432 C 3726.06 0.847038 -1.84264 0
M  V30 39433 C 3726.39 1.80281 -0.721977 0
M  V30 39434 O 3725.67 1.92567 0.273501 0
M  V30 39435 C 3725.95 1.61117 -3.22046 0
M  V30 39436 C 3725.8 0.676092 -4.4469 0
M  V30 39437 C 3727.12 2.57102 -3.57193 0
M  V30 39438 H 3724.24 0.306484 -0.670251 0
M  V30 39439 H 3726.88 0.11181 -1.89671 0
M  V30 39440 H 3725.03 2.23793 -3.17567 0
M  V30 39441 H 3726.7 0.0594198 -4.61262 0
M  V30 39442 H 3724.95 -0.0135289 -4.33798 0
M  V30 39443 H 3725.62 1.24705 -5.37729 0
M  V30 39444 H 3728.09 2.04539 -3.62358 0
M  V30 39445 H 3726.97 3.07609 -4.54607 0
M  V30 39446 H 3727.23 3.39014 -2.83764 0
M  V30 39447 N 3726.29 1.5231 0.404892 0
M  V30 39448 C 3727.22 1.70683 1.51468 0
M  V30 39449 C 3728.2 0.554452 1.52855 0
M  V30 39450 O 3729.39 0.782324 1.71499 0
M  V30 39451 C 3726.51 1.75 2.89987 0
M  V30 39452 C 3725.56 2.96587 3.06494 0
M  V30 39453 S 3726.39 4.56855 2.79362 0
M  V30 39454 C 3727.55 4.63965 4.20103 0
M  V30 39455 H 3727.78 2.64546 1.35656 0
M  V30 39456 H 3725.31 1.42402 0.596744 0
M  V30 39457 H 3727.27 1.78173 3.69817 0
M  V30 39458 H 3725.93 0.82257 3.03138 0
M  V30 39459 H 3725.13 2.96102 4.07847 0
M  V30 39460 H 3724.73 2.91323 2.34536 0
M  V30 39461 H 3727.02 4.41603 5.13803 0
M  V30 39462 H 3727.96 5.65917 4.2561 0
M  V30 39463 H 3728.37 3.92957 4.05272 0
M  V30 39464 N 3727.77 -0.662382 1.43004 0
M  V30 39465 C 3729.02 -1.41818 1.43424 0
M  V30 39466 C 3729.33 -1.95512 0.0587253 0
M  V30 39467 O 3730.54 -2.71434 -0.0596501 0
M  V30 39468 C 3728.99 -2.56609 2.52349 0
M  V30 39469 C 3728.6 -2.09562 3.95964 0
M  V30 39470 C 3730.34 -3.34039 2.61951 0
M  V30 39471 C 3728.25 -3.21509 4.96373 0
M  V30 39472 H 3727.18 -0.532823 0.533494 0
M  V30 39473 H 3729.83 -0.715882 1.6896 0
M  V30 39474 H 3728.21 -3.29267 2.19999 0
M  V30 39475 H 3729.39 -1.43976 4.3773 0
M  V30 39476 H 3727.7 -1.45037 3.90325 0
M  V30 39477 H 3730.3 -4.17435 3.34144 0
M  V30 39478 H 3730.64 -3.8146 1.66715 0
M  V30 39479 H 3731.18 -2.68457 2.93557 0
M  V30 39480 H 3727.92 -2.79066 5.93129 0
M  V30 39481 H 3727.44 -3.85837 4.59228 0
M  V30 39482 H 3729.11 -3.86784 5.18659 0
M  V30 39483 N 3729.25 -1.29383 -0.899882 0
M  V30 39484 C 3730.49 -1.17517 -1.6528 0
M  V30 39485 C 3730.83 0.272754 -1.92275 0
M  V30 39486 O 3730.1 1.19699 -1.53305 0
M  V30 39487 C 3730.38 -1.98872 -3.00203 0
M  V30 39488 C 3730.24 -3.51804 -2.80275 0
M  V30 39489 C 3731.56 -1.81496 -4.00933 0
M  V30 39490 H 3728.67 -0.428273 -0.599792 0
M  V30 39491 H 3731.32 -1.58854 -1.04238 0
M  V30 39492 H 3729.47 -1.63748 -3.52305 0
M  V30 39493 H 3731.14 -3.9691 -2.35075 0
M  V30 39494 H 3729.38 -3.76737 -2.15062 0
M  V30 39495 H 3730.05 -4.04 -3.76148 0
M  V30 39496 H 3732.53 -2.12175 -3.5794 0
M  V30 39497 H 3731.4 -2.40769 -4.93276 0
M  V30 39498 H 3731.67 -0.770098 -4.35341 0
M  V30 39499 N 3730.72 1.11022 -1.11856 0
M  V30 39500 C 3731.69 2.15372 -0.784071 0
M  V30 39501 C 3732.69 1.59568 0.198657 0
M  V30 39502 O 3733.88 1.7418 -0.0263735 0
M  V30 39503 C 3731.01 3.40505 -0.164047 0
M  V30 39504 H 3732.2 2.46474 -1.70853 0
M  V30 39505 H 3729.76 1.26282 -0.92101 0
M  V30 39506 H 3730.49 3.15016 0.770428 0
M  V30 39507 H 3730.28 3.82292 -0.871514 0
M  V30 39508 H 3731.77 4.17565 0.0537005 0
M  V30 39509 N 3732.2 0.90954 1.28706 0
M  V30 39510 C 3733.43 0.55544 1.98994 0
M  V30 39511 C 3733.84 -0.866636 1.68185 0
M  V30 39512 O 3733.18 -1.58498 0.928654 0
M  V30 39513 C 3733.25 0.679642 3.53017 0
M  V30 39514 C 3732.91 2.07049 4.07406 0
M  V30 39515 C 3733.91 3.04275 4.2156 0
M  V30 39516 C 3731.59 2.38253 4.422 0
M  V30 39517 C 3733.59 4.30824 4.69755 0
M  V30 39518 C 3731.27 3.65043 4.90089 0
M  V30 39519 C 3732.27 4.61142 5.03823 0
M  V30 39520 O 3731.96 5.85678 5.50669 0
M  V30 39521 H 3731.69 0.210847 0.642277 0
M  V30 39522 H 3734.24 1.22367 1.64971 0
M  V30 39523 H 3732.47 -0.0456425 3.86673 0
M  V30 39524 H 3734.16 0.333261 4.0453 0
M  V30 39525 H 3734.93 2.81485 3.94957 0
M  V30 39526 H 3730.81 1.64208 4.30763 0
M  V30 39527 H 3734.35 5.05838 4.80389 0
M  V30 39528 H 3730.25 3.87659 5.1613 0
M  V30 39529 H 3731.02 5.88407 5.68963 0
M  V30 39530 N 3733.68 -1.42505 0.673067 0
M  V30 39531 C 3735.09 -1.84707 0.272082 0
M  V30 39532 C 3735.44 -1.5634 -1.18542 0
M  V30 39533 O 3734.57 -1.02235 -1.90728 0
M  V30 39534 C 3735.16 -3.35281 0.487036 0
M  V30 39535 C 3733.72 -3.76139 0.140188 0
M  V30 39536 C 3732.87 -2.66094 0.780323 0
M  V30 39537 H 3735.82 -1.32376 0.875352 0
M  V30 39538 H 3735.84 -3.79601 -0.261376 0
M  V30 39539 H 3735.35 -3.55895 1.5479 0
M  V30 39540 H 3733.45 -3.61132 -0.917303 0
M  V30 39541 H 3733.57 -4.75582 0.579501 0
M  V30 39542 H 3731.93 -2.53818 0.2118 0
M  V30 39543 H 3732.71 -2.89532 1.84461 0
M  V30 39544 N 3735.16 -0.41628 -1.52003 0
M  V30 39545 C 3736.57 0.0516919 -1.86628 0
M  V30 39546 C 3736.92 1.4381 -1.33465 0
M  V30 39547 O 3736.05 2.05543 -0.67683 0
M  V30 39548 C 3736.64 0.100577 -3.38651 0
M  V30 39549 C 3735.2 0.512903 -3.72889 0
M  V30 39550 C 3734.35 -0.308024 -2.75584 0
M  V30 39551 H 3737.3 -0.633043 -1.45528 0
M  V30 39552 H 3737.32 0.9144 -3.69349 0
M  V30 39553 H 3736.83 -0.908605 -3.77314 0
M  V30 39554 H 3734.93 1.52846 -3.39807 0
M  V30 39555 H 3735.04 0.252324 -4.78435 0
M  V30 39556 H 3733.41 0.230673 -2.53653 0
M  V30 39557 H 3734.19 -1.31569 -3.17088 0
M  V30 39558 N 3736.64 1.56914 -0.146931 0
M  V30 39559 C 3738.05 1.58219 0.209482 0
M  V30 39560 C 3738.25 1.16119 1.64677 0
M  V30 39561 O 3737.31 0.861456 2.3735 0
M  V30 39562 C 3738.62 3.0066 -0.0492093 0
M  V30 39563 C 3740.17 3.12997 0.0145055 0
M  V30 39564 C 3740.64 4.57486 -0.216854 0
M  V30 39565 N 3742.14 4.6291 -0.163779 0
M  V30 39566 C 3742.87 5.72521 -0.317304 0
M  V30 39567 N 3742.37 6.90781 -0.528547 0
M  V30 39568 N 3744.16 5.61522 -0.254913 0
M  V30 39569 H 3736.31 1.82573 -1.0854 0
M  V30 39570 H 3738.57 0.84505 -0.429645 0
M  V30 39571 H 3738.28 3.3585 -1.04393 0
M  V30 39572 H 3738.15 3.71198 0.670231 0
M  V30 39573 H 3740.54 2.77648 0.99978 0
M  V30 39574 H 3740.62 2.44945 -0.737262 0
M  V30 39575 H 3740.27 4.93539 -1.19923 0
M  V30 39576 H 3740.2 5.23665 0.555237 0
M  V30 39577 H 3742.69 3.779 -0.00516075 0
M  V30 39578 H 3743 7.7018 -0.635802 0
M  V30 39579 H 3741.34 6.92701 -0.564867 0
M  V30 39580 H 3744.54 4.68012 -0.0906449 0
M  V30 39581 H 3744.71 6.46897 -0.377995 0
M  V30 39582 N 3738.11 -0.126854 1.57089 0
M  V30 39583 C 3739.36 -0.83455 1.83625 0
M  V30 39584 C 3739.68 -1.81412 0.731363 0
M  V30 39585 O 3740.88 -2.56743 0.882905 0
M  V30 39586 C 3739.34 -1.53484 3.25531 0
M  V30 39587 C 3738.95 -0.596652 4.44009 0
M  V30 39588 C 3740.69 -2.22813 3.61323 0
M  V30 39589 C 3738.6 -1.29972 5.76941 0
M  V30 39590 H 3737.53 -0.315402 0.684863 0
M  V30 39591 H 3740.18 -0.0872728 1.83292 0
M  V30 39592 H 3738.56 -2.32846 3.2031 0
M  V30 39593 H 3739.73 0.16319 4.60511 0
M  V30 39594 H 3738.05 -0.0107349 4.16399 0
M  V30 39595 H 3740.65 -2.7609 4.57907 0
M  V30 39596 H 3740.99 -3.00249 2.88369 0
M  V30 39597 H 3741.52 -1.50347 3.68294 0
M  V30 39598 H 3738.26 -0.56681 6.53045 0
M  V30 39599 H 3737.78 -2.03177 5.6434 0
M  V30 39600 H 3739.46 -1.83509 6.2043 0
M  V30 39601 N 3739.59 -1.52523 -0.396809 0
M  V30 39602 C 3740.82 -1.71051 -1.16401 0
M  V30 39603 C 3741.24 -0.42541 -1.83945 0
M  V30 39604 O 3740.59 0.59953 -1.72371 0
M  V30 39605 C 3740.64 -2.85467 -2.21791 0
M  V30 39606 O 3740.36 -4.09001 -1.57002 0
M  V30 39607 C 3741.87 -3.15609 -3.11298 0
M  V30 39608 H 3739.09 -0.572911 -0.349304 0
M  V30 39609 H 3741.63 -1.99137 -0.465262 0
M  V30 39610 H 3739.78 -2.59864 -2.87314 0
M  V30 39611 H 3740.2 -4.72848 -2.26968 0
M  V30 39612 H 3741.67 -3.99149 -3.81292 0
M  V30 39613 H 3742.15 -2.29667 -3.74366 0
M  V30 39614 H 3742.76 -3.43021 -2.51429 0
M  V30 39615 N 3741.07 0.654789 -1.43354 0
M  V30 39616 C 3742.02 1.78898 -1.48655 0
M  V30 39617 C 3743.01 1.65524 -0.360303 0
M  V30 39618 O 3744.22 1.7189 -0.534225 0
M  V30 39619 H 3740.59 0.590212 -0.465997 0
M  V30 39620 H 3742.57 1.71546 -2.44161 0
M  V30 39621 C 3741.31 3.1715 -1.42518 0
M  V30 39622 H 3740.64 3.28077 -2.28485 0
M  V30 39623 H 3742.08 3.96471 -1.50289 0
M  V30 39624 C 3740.54 3.36598 -0.14257 0
M  V30 39625 O 3741.07 3.93719 0.796752 0
M  V30 39626 N 3739.27 2.90551 -0.0532667 0
M  V30 39627 H 3738.82 2.44252 -0.818464 0
M  V30 39628 H 3738.78 3.0394 0.804217 0
M  V30 39629 N 3742.55 1.29858 0.893007 0
M  V30 39630 C 3743.97 1.08015 1.17494 0
M  V30 39631 C 3744.17 -0.164267 2.00829 0
M  V30 39632 O 3743.22 -0.860152 2.37398 0
M  V30 39633 C 3744.53 2.33928 1.8894 0
M  V30 39634 C 3746.08 2.39313 2.01738 0
M  V30 39635 C 3746.56 3.65047 2.76595 0
M  V30 39636 N 3748.05 3.65808 2.84145 0
M  V30 39637 C 3748.78 4.59782 3.4262 0
M  V30 39638 N 3748.28 5.64093 4.02208 0
M  V30 39639 N 3750.07 4.4734 3.40358 0
M  V30 39640 H 3742.22 2.09707 0.337153 0
M  V30 39641 H 3744.49 0.924018 0.211883 0
M  V30 39642 H 3744.19 3.24698 1.35145 0
M  V30 39643 H 3744.07 2.41955 2.89374 0
M  V30 39644 H 3746.45 1.49027 2.54706 0
M  V30 39645 H 3746.53 2.35266 1.00416 0
M  V30 39646 H 3746.18 4.55688 2.24301 0
M  V30 39647 H 3746.11 3.66353 3.78276 0
M  V30 39648 H 3748.6 2.9039 2.4183 0
M  V30 39649 H 3748.91 6.31911 4.44869 0
M  V30 39650 H 3747.26 5.67894 4.00651 0
M  V30 39651 H 3750.45 3.65036 2.93029 0
M  V30 39652 H 3750.62 5.20759 3.85635 0
M  V30 39653 N 3744.03 -1.10427 1.12443 0
M  V30 39654 C 3745.44 -1.63894 0.894176 0
M  V30 39655 C 3745.79 -1.87693 -0.571476 0
M  V30 39656 O 3744.91 -1.61895 -1.43593 0
M  V30 39657 C 3745.51 -2.97739 1.61669 0
M  V30 39658 C 3744.07 -3.48072 1.43257 0
M  V30 39659 C 3743.22 -2.22679 1.65256 0
M  V30 39660 H 3746.17 -0.939267 1.2792 0
M  V30 39661 H 3746.19 -3.65211 1.06777 0
M  V30 39662 H 3745.7 -2.80386 2.68338 0
M  V30 39663 H 3743.8 -3.7057 0.38845 0
M  V30 39664 H 3743.91 -4.26182 2.18874 0
M  V30 39665 H 3742.28 -2.30825 1.07667 0
M  V30 39666 H 3743.06 -2.07857 2.73222 0
M  V30 39667 N 3745.51 -0.916353 -1.28221 0
M  V30 39668 C 3746.92 -0.597034 -1.76897 0
M  V30 39669 C 3747.27 0.887688 -1.7497 0
M  V30 39670 O 3746.39 1.69445 -1.34601 0
M  V30 39671 C 3746.99 -1.077 -3.21226 0
M  V30 39672 C 3745.55 -0.808555 -3.67613 0
M  V30 39673 C 3744.69 -1.24224 -2.47919 0
M  V30 39674 H 3747.64 -1.09734 -1.14648 0
M  V30 39675 H 3747.67 -0.419597 -3.78179 0
M  V30 39676 H 3747.18 -2.15762 -3.22596 0
M  V30 39677 H 3745.28 0.258749 -3.717 0
M  V30 39678 H 3745.39 -1.41813 -4.57631 0
M  V30 39679 H 3743.76 -0.660935 -2.45975 0
M  V30 39680 H 3744.54 -2.33126 -2.52006 0
M  V30 39681 N 3746.98 1.42146 -0.680615 0
M  V30 39682 C 3748.4 1.55699 -0.350718 0
M  V30 39683 C 3748.6 1.65912 1.14347 0
M  V30 39684 O 3747.66 1.62926 1.92902 0
M  V30 39685 C 3748.97 2.80399 -1.08613 0
M  V30 39686 C 3750.52 2.94178 -1.06902 0
M  V30 39687 C 3750.99 4.21747 -1.78588 0
M  V30 39688 N 3752.48 4.28672 -1.75485 0
M  V30 39689 C 3753.22 5.26207 -2.27803 0
M  V30 39690 N 3752.71 6.2986 -2.88529 0
M  V30 39691 N 3754.51 5.18044 -2.18144 0
M  V30 39692 H 3746.66 1.3376 -1.64991 0
M  V30 39693 H 3748.92 0.644277 -0.695422 0
M  V30 39694 H 3748.63 2.7901 -2.14118 0
M  V30 39695 H 3748.5 3.71468 -0.655088 0
M  V30 39696 H 3750.89 2.95092 -0.0222983 0
M  V30 39697 H 3750.97 2.04324 -1.539 0
M  V30 39698 H 3750.61 4.21595 -2.83232 0
M  V30 39699 H 3750.54 5.10546 -1.29036 0
M  V30 39700 H 3753.03 3.54395 -1.31197 0
M  V30 39701 H 3753.35 7.00648 -3.26056 0
M  V30 39702 H 3751.69 6.30405 -2.92601 0
M  V30 39703 H 3754.88 4.35988 -1.70387 0
M  V30 39704 H 3755.06 5.93892 -2.59223 0
M  V30 39705 N 3748.46 0.424336 1.5178 0
M  V30 39706 C 3749.69 -0.147932 2.06872 0
M  V30 39707 C 3750.11 -1.36806 1.29096 0
M  V30 39708 O 3749.47 -1.78358 0.32531 0
M  V30 39709 C 3749.52 -0.461694 3.57632 0
M  V30 39710 O 3748.62 -1.55029 3.82152 0
M  V30 39711 H 3747.96 -0.00756108 0.663957 0
M  V30 39712 H 3750.49 0.601922 1.95546 0
M  V30 39713 H 3750.5 -0.715935 4.01669 0
M  V30 39714 H 3749.18 0.430154 4.1367 0
M  V30 39715 H 3747.75 -1.28703 3.49986 0
M  V30 39716 N 3749.94 -1.56833 0.15525 0
M  V30 39717 C 3751.19 -1.95562 -0.493796 0
M  V30 39718 C 3751.5 -1.04308 -1.65466 0
M  V30 39719 O 3752.71 -1.3265 -2.36888 0
M  V30 39720 C 3751.16 -3.4768 -0.929862 0
M  V30 39721 C 3750.77 -4.47533 0.204526 0
M  V30 39722 C 3752.52 -3.95259 -1.54823 0
M  V30 39723 C 3750.42 -5.9087 -0.250271 0
M  V30 39724 H 3749.35 -0.730123 -0.188245 0
M  V30 39725 H 3752 -1.81912 0.240915 0
M  V30 39726 H 3750.39 -3.56692 -1.72008 0
M  V30 39727 H 3751.56 -4.50223 0.981614 0
M  V30 39728 H 3749.87 -4.09919 0.731828 0
M  V30 39729 H 3752.47 -4.99794 -1.90027 0
M  V30 39730 H 3752.81 -3.37279 -2.44025 0
M  V30 39731 H 3753.35 -3.89199 -0.822759 0
M  V30 39732 H 3750.09 -6.52687 0.606576 0
M  V30 39733 H 3749.61 -5.91522 -0.99306 0
M  V30 39734 H 3751.29 -6.43207 -0.699532 0
M  V30 39735 N 3751.42 0.118521 -1.57154 0
M  V30 39736 C 3752.66 0.827447 -1.85152 0
M  V30 39737 C 3753 1.79505 -0.741058 0
M  V30 39738 O 3752.27 1.92847 0.253061 0
M  V30 39739 C 3752.55 1.57692 -3.23736 0
M  V30 39740 C 3752.41 0.628889 -4.45382 0
M  V30 39741 C 3753.73 2.53299 -3.599 0
M  V30 39742 H 3750.85 0.299358 -0.673464 0
M  V30 39743 H 3753.49 0.0916864 -1.89779 0
M  V30 39744 H 3751.64 2.20412 -3.19923 0
M  V30 39745 H 3753.31 0.0104935 -4.61299 0
M  V30 39746 H 3751.55 -0.0595382 -4.33759 0
M  V30 39747 H 3752.22 1.18994 -5.39022 0
M  V30 39748 H 3754.7 2.00684 -3.64507 0
M  V30 39749 H 3753.58 3.0277 -4.57844 0
M  V30 39750 H 3753.84 3.35985 -2.87344 0
M  V30 39751 N 3752.9 1.52731 0.388715 0
M  V30 39752 C 3754.12 1.71666 1.15492 0
M  V30 39753 C 3754.54 0.435159 1.83717 0
M  V30 39754 O 3753.9 -0.590381 1.72687 0
M  V30 39755 C 3753.95 2.86639 2.20274 0
M  V30 39756 O 3753.67 4.09828 1.54831 0
M  V30 39757 C 3755.17 3.17255 3.09619 0
M  V30 39758 H 3752.39 0.574756 0.346261 0
M  V30 39759 H 3754.93 1.99381 0.454694 0
M  V30 39760 H 3753.09 2.61384 2.85932 0
M  V30 39761 H 3753.5 4.74045 2.24457 0
M  V30 39762 H 3754.98 4.01166 3.7917 0
M  V30 39763 H 3755.45 2.31649 3.73142 0
M  V30 39764 H 3756.06 3.4435 2.49606 0
M  V30 39765 N 3754.37 -0.647178 1.43699 0
M  V30 39766 C 3755.79 -0.963541 1.27232 0
M  V30 39767 C 3755.99 -2.0054 0.196421 0
M  V30 39768 O 3755.05 -2.4893 -0.423118 0
M  V30 39769 C 3756.36 -1.44206 2.63866 0
M  V30 39770 C 3757.91 -1.55839 2.71446 0
M  V30 39771 C 3758.38 -2.0708 4.08512 0
M  V30 39772 N 3759.87 -2.14373 4.10607 0
M  V30 39773 C 3760.61 -2.55157 5.135 0
M  V30 39774 N 3760.1 -2.95192 6.26764 0
M  V30 39775 N 3761.9 -2.5515 5.00854 0
M  V30 39776 H 3754.05 0.0421329 2.12358 0
M  V30 39777 H 3756.31 -0.0437461 0.94699 0
M  V30 39778 H 3756.02 -0.7509 3.4359 0
M  V30 39779 H 3755.89 -2.416 2.89671 0
M  V30 39780 H 3758.28 -2.24055 1.9205 0
M  V30 39781 H 3758.36 -0.568617 2.494 0
M  V30 39782 H 3758 -1.39464 4.88377 0
M  V30 39783 H 3757.93 -3.06899 4.27926 0
M  V30 39784 H 3760.42 -1.86182 3.28853 0
M  V30 39785 H 3760.74 -3.25079 7.01102 0
M  V30 39786 H 3759.08 -2.92982 6.30227 0
M  V30 39787 H 3762.27 -2.23252 4.11432 0
M  V30 39788 H 3762.45 -2.86611 5.8117 0
M  V30 39789 N 3755.85 -1.3033 -0.886108 0
M  V30 39790 C 3757.08 -1.22009 -1.67097 0
M  V30 39791 C 3757.5 0.217222 -1.87546 0
M  V30 39792 O 3756.85 1.14373 -1.42215 0
M  V30 39793 C 3756.9 -1.94374 -3.04797 0
M  V30 39794 O 3756.62 -3.32494 -2.85271 0
M  V30 39795 C 3758.13 -1.92697 -3.99228 0
M  V30 39796 H 3755.35 -0.42228 -0.52146 0
M  V30 39797 H 3757.89 -1.71936 -1.10717 0
M  V30 39798 H 3756.04 -1.48249 -3.57912 0
M  V30 39799 H 3756.46 -3.69127 -3.72619 0
M  V30 39800 H 3757.93 -2.4787 -4.93218 0
M  V30 39801 H 3758.41 -0.905633 -4.29761 0
M  V30 39802 H 3759.02 -2.38628 -3.52047 0
M  V30 39803 N 3757.33 1.0983 -1.13028 0
M  V30 39804 C 3758.58 1.81561 -0.887694 0
M  V30 39805 C 3758.9 1.85927 0.587902 0
M  V30 39806 O 3758.17 1.34183 1.4273 0
M  V30 39807 H 3756.75 0.672391 -0.325422 0
M  V30 39808 H 3759.41 1.32858 -1.426 0
M  V30 39809 H 3758.51 2.8488 -1.27475 0
M  V30 39810 N 3758.81 0.92314 1.27734 0
M  V30 39811 C 3759.77 0.423415 2.25255 0
M  V30 39812 C 3760.77 -0.45549 1.54214 0
M  V30 39813 O 3761.96 -0.257215 1.72291 0
M  V30 39814 C 3759.09 -0.391838 3.38641 0
M  V30 39815 H 3760.29 1.28499 2.70976 0
M  V30 39816 H 3757.84 0.703403 1.39578 0
M  V30 39817 H 3758.57 -1.27243 2.98295 0
M  V30 39818 H 3758.36 0.238262 3.91375 0
M  V30 39819 H 3759.85 -0.731997 4.11134 0
M  V30 39820 N 3760.29 -1.41783 0.688143 0
M  V30 39821 C 3761.25 -2.29184 0.0271814 0
M  V30 39822 C 3762.25 -1.44004 -0.715511 0
M  V30 39823 O 3763.44 -1.65239 -0.551513 0
M  V30 39824 C 3760.57 -3.26749 -0.972003 0
M  V30 39825 H 3761.76 -2.89126 0.796631 0
M  V30 39826 H 3759.32 -1.49645 0.451224 0
M  V30 39827 H 3760.05 -2.71772 -1.76948 0
M  V30 39828 H 3759.84 -3.89593 -0.442678 0
M  V30 39829 H 3761.33 -3.92262 -1.43249 0
M  V30 39830 N 3761.76 -0.432379 -1.51553 0
M  V30 39831 C 3763.01 0.135744 -2.02045 0
M  V30 39832 C 3763.34 1.43144 -1.31681 0
M  V30 39833 O 3762.59 1.91164 -0.418882 0
M  V30 39834 C 3762.89 0.406853 -3.55077 0
M  V30 39835 C 3762.56 -0.802434 -4.43702 0
M  V30 39836 C 3761.22 -1.13408 -4.67645 0
M  V30 39837 C 3763.57 -1.60939 -4.9573 0
M  V30 39838 C 3760.9 -2.27345 -5.40861 0
M  V30 39839 C 3763.25 -2.73971 -5.70195 0
M  V30 39840 C 3761.92 -3.07596 -5.92403 0
M  V30 39841 H 3761.19 0.0496721 -0.739333 0
M  V30 39842 H 3763.83 -0.57856 -1.82551 0
M  V30 39843 H 3762.14 1.20299 -3.72874 0
M  V30 39844 H 3763.84 0.85977 -3.91675 0
M  V30 39845 H 3760.43 -0.533998 -4.2526 0
M  V30 39846 H 3764.61 -1.36638 -4.7712 0
M  V30 39847 H 3759.87 -2.53716 -5.56272 0
M  V30 39848 H 3764.04 -3.36872 -6.095 0
M  V30 39849 H 3761.67 -3.95995 -6.48916 0
M  V30 39850 N 3763.24 1.56749 -0.163565 0
M  V30 39851 C 3764.17 2.14747 0.801033 0
M  V30 39852 C 3765.19 1.10106 1.19918 0
M  V30 39853 O 3766.38 1.37323 1.14038 0
M  V30 39854 C 3763.48 2.66889 2.08862 0
M  V30 39855 C 3762.65 3.96105 1.85525 0
M  V30 39856 C 3761.71 4.3339 2.98428 0
M  V30 39857 O 3760.73 5.0141 2.694 0
M  V30 39858 N 3761.94 3.94317 4.26022 0
M  V30 39859 H 3764.7 2.98141 0.305247 0
M  V30 39860 H 3762.26 1.61888 0.0194726 0
M  V30 39861 H 3764.25 2.88835 2.83472 0
M  V30 39862 H 3762.82 1.88127 2.49654 0
M  V30 39863 H 3762.04 3.82616 0.948613 0
M  V30 39864 H 3763.33 4.80511 1.67291 0
M  V30 39865 H 3762.73 3.39541 4.52469 0
M  V30 39866 H 3761.29 4.2128 4.9736 0
M  V30 39867 N 3764.72 -0.110185 1.57214 0
M  V30 39868 C 3765.65 -1.13576 2.04017 0
M  V30 39869 C 3766.63 -1.4267 0.92624 0
M  V30 39870 O 3767.82 -1.5296 1.19653 0
M  V30 39871 C 3764.95 -2.45964 2.45192 0
M  V30 39872 C 3763.9 -2.31312 3.60109 0
M  V30 39873 C 3763.23 -3.68743 3.87212 0
M  V30 39874 C 3764.53 -1.76626 4.91529 0
M  V30 39875 H 3766.22 -0.746445 2.89946 0
M  V30 39876 H 3763.77 -0.357617 1.39489 0
M  V30 39877 H 3765.72 -3.17968 2.7654 0
M  V30 39878 H 3764.44 -2.86802 1.56243 0
M  V30 39879 H 3763.1 -1.61756 3.28984 0
M  V30 39880 H 3762.75 -4.07081 2.95455 0
M  V30 39881 H 3762.45 -3.5979 4.6457 0
M  V30 39882 H 3763.97 -4.42238 4.2102 0
M  V30 39883 H 3765.39 -2.38456 5.21356 0
M  V30 39884 H 3763.79 -1.78472 5.72947 0
M  V30 39885 H 3764.86 -0.724489 4.79457 0
M  V30 39886 N 3766.2 -1.52935 -0.38061 0
M  V30 39887 C 3767.15 -1.7469 -1.46518 0
M  V30 39888 C 3768.13 -0.601114 -1.4925 0
M  V30 39889 O 3769.32 -0.859252 -1.54745 0
M  V30 39890 C 3766.45 -1.92673 -2.84134 0
M  V30 39891 C 3765.54 -3.13209 -2.85939 0
M  V30 39892 N 3765.93 -4.35403 -2.57405 0
M  V30 39893 C 3764.23 -3.13625 -3.17105 0
M  V30 39894 C 3764.93 -5.17058 -2.66507 0
M  V30 39895 N 3763.91 -4.52931 -3.0059 0
M  V30 39896 H 3767.71 -2.66787 -1.23297 0
M  V30 39897 H 3765.22 -1.51356 -0.588649 0
M  V30 39898 H 3767.22 -2.06382 -3.62232 0
M  V30 39899 H 3765.88 -1.01795 -3.08331 0
M  V30 39900 H 3766.89 -4.63393 -2.31273 0
M  V30 39901 H 3763.57 -2.32586 -3.46713 0
M  V30 39902 H 3764.96 -6.24488 -2.4792 0
M  V30 39903 N 3767.68 0.639548 -1.4404 0
M  V30 39904 C 3768.92 1.41091 -1.47894 0
M  V30 39905 C 3769.28 1.9171 -0.105427 0
M  V30 39906 O 3770.48 2.68794 -0.0186478 0
M  V30 39907 C 3768.75 2.551 -2.50318 0
M  V30 39908 S 3770.31 3.43412 -2.73155 0
M  V30 39909 H 3767.13 0.481441 -0.523197 0
M  V30 39910 H 3769.73 0.741204 -1.80904 0
M  V30 39911 H 3768.44 2.16208 -3.4883 0
M  V30 39912 H 3767.97 3.26906 -2.18852 0
M  V30 39913 H 3769.98 4.52275 -2.04113 0
M  V30 39914 N 3769.15 1.30798 0.879184 0
M  V30 39915 C 3770.4 1.20132 1.63389 0
M  V30 39916 C 3770.73 -0.24213 1.92685 0
M  V30 39917 O 3770.01 -1.17245 1.5519 0
M  V30 39918 C 3770.29 2.03623 2.97001 0
M  V30 39919 C 3770.14 3.56218 2.74642 0
M  V30 39920 C 3771.46 1.87852 3.97995 0
M  V30 39921 H 3768.58 0.437761 0.592903 0
M  V30 39922 H 3771.22 1.60492 1.01697 0
M  V30 39923 H 3769.37 1.69332 3.49656 0
M  V30 39924 H 3771.05 4.00599 2.28731 0
M  V30 39925 H 3769.29 3.80111 2.09041 0
M  V30 39926 H 3769.96 4.09934 3.69673 0
M  V30 39927 H 3772.44 2.17843 3.54519 0
M  V30 39928 H 3771.31 2.48586 4.89383 0
M  V30 39929 H 3771.57 0.839259 4.34061 0
M  V30 39930 N 3770.63 -1.09229 1.13608 0
M  V30 39931 C 3771.6 -2.14097 0.818235 0
M  V30 39932 C 3772.6 -1.59864 -0.173246 0
M  V30 39933 O 3773.79 -1.74116 0.0540806 0
M  V30 39934 C 3770.92 -3.40201 0.218198 0
M  V30 39935 H 3772.11 -2.43724 1.74752 0
M  V30 39936 H 3769.66 -1.24801 0.940984 0
M  V30 39937 H 3770.4 -3.16202 -0.720214 0
M  V30 39938 H 3770.18 -3.80857 0.932223 0
M  V30 39939 H 3771.67 -4.17598 0.0127374 0
M  V30 39940 N 3772.11 -0.929901 -1.27242 0
M  V30 39941 C 3773.04 -0.448106 -2.2916 0
M  V30 39942 C 3774.02 0.492747 -1.62807 0
M  V30 39943 O 3775.21 0.397026 -1.90098 0
M  V30 39944 C 3772.34 0.297942 -3.4602 0
M  V30 39945 C 3771.29 -0.555286 -4.24383 0
M  V30 39946 C 3770.62 0.320059 -5.33741 0
M  V30 39947 C 3771.92 -1.82088 -4.89532 0
M  V30 39948 H 3773.61 -1.29988 -2.6971 0
M  V30 39949 H 3771.16 -0.626488 -1.29658 0
M  V30 39950 H 3773.11 0.645951 -4.1642 0
M  V30 39951 H 3771.83 1.18376 -3.04392 0
M  V30 39952 H 3770.49 -0.886033 -3.55732 0
M  V30 39953 H 3770.14 1.20489 -4.88356 0
M  V30 39954 H 3769.84 -0.247344 -5.87079 0
M  V30 39955 H 3771.37 0.663591 -6.06983 0
M  V30 39956 H 3772.78 -1.54081 -5.52207 0
M  V30 39957 H 3771.18 -2.33196 -5.52937 0
M  V30 39958 H 3772.25 -2.53908 -4.13108 0
M  V30 39959 N 3773.59 1.41416 -0.695653 0
M  V30 39960 C 3774.84 2.0083 -0.226206 0
M  V30 39961 C 3775.16 1.55373 1.17831 0
M  V30 39962 O 3774.43 0.784394 1.79511 0
M  V30 39963 H 3773.01 0.742635 -0.0806402 0
M  V30 39964 H 3775.67 1.7304 -0.89683 0
M  V30 39965 H 3774.77 3.11147 -0.243698 0
M  V30 39966 N 3775.07 0.44041 1.51321 0
M  V30 39967 C 3776.31 -0.125212 2.02413 0
M  V30 39968 C 3776.65 -1.42092 1.32376 0
M  V30 39969 O 3775.92 -1.89466 0.439657 0
M  V30 39970 C 3776.2 -0.340795 3.58484 0
M  V30 39971 C 3776.06 0.973778 4.39133 0
M  V30 39972 C 3777.38 -1.1092 4.25893 0
M  V30 39973 H 3774.5 -0.0440323 0.735683 0
M  V30 39974 H 3777.14 0.580008 1.80931 0
M  V30 39975 H 3775.29 -0.941505 3.76919 0
M  V30 39976 H 3776.96 1.60871 4.32341 0
M  V30 39977 H 3775.2 1.57766 4.04094 0
M  V30 39978 H 3775.87 0.776941 5.46505 0
M  V30 39979 H 3778.35 -0.600331 4.11747 0
M  V30 39980 H 3777.23 -1.22881 5.34969 0
M  V30 39981 H 3777.49 -2.13806 3.86961 0
M  V30 39982 N 3776.55 -1.5666 0.171876 0
M  V30 39983 C 3777.96 -1.83489 -0.344758 0
M  V30 39984 C 3778.31 -1.0917 -1.63023 0
M  V30 39985 O 3777.43 -0.344918 -2.13634 0
M  V30 39986 C 3778.03 -3.32848 -0.632282 0
M  V30 39987 C 3776.59 -3.6017 -1.09335 0
M  V30 39988 C 3775.73 -2.76997 -0.12952 0
M  V30 39989 H 3778.68 -1.53677 0.396128 0
M  V30 39990 H 3778.71 -3.50356 -1.48428 0
M  V30 39991 H 3778.22 -3.86912 0.303477 0
M  V30 39992 H 3776.32 -3.11518 -2.04419 0
M  V30 39993 H 3776.43 -4.68502 -1.00213 0
M  V30 39994 H 3774.8 -2.46862 -0.62699 0
M  V30 39995 H 3775.58 -3.33842 0.80027 0
M  V30 39996 N 3778.02 0.101846 -1.57271 0
M  V30 39997 C 3778.97 1.12403 -2.01579 0
M  V30 39998 C 3779.94 1.40186 -0.890908 0
M  V30 39999 O 3781.13 1.51762 -1.15641 0
M  V30 40000 C 3778.27 2.44088 -2.43957 0
M  V30 40001 C 3777.38 2.23095 -3.69936 0
M  V30 40002 C 3776.51 3.48131 -4.01221 0
M  V30 40003 C 3775.55 3.22369 -5.20331 0
M  V30 40004 N 3774.69 4.39654 -5.47402 0
M  V30 40005 H 3779.53 0.739193 -2.88687 0
M  V30 40006 H 3777.07 0.353472 -1.4279 0
M  V30 40007 H 3779.02 3.20932 -2.66569 0
M  V30 40008 H 3777.65 2.80432 -1.59868 0
M  V30 40009 H 3776.71 1.37086 -3.5484 0
M  V30 40010 H 3778.02 2.00046 -4.56928 0
M  V30 40011 H 3777.17 4.33385 -4.24573 0
M  V30 40012 H 3775.91 3.74227 -3.12738 0
M  V30 40013 H 3774.92 2.35508 -4.96806 0
M  V30 40014 H 3776.14 2.97626 -6.10406 0
M  V30 40015 H 3774.09 4.65839 -4.61877 0
M  V30 40016 H 3774 4.19772 -6.28751 0
M  V30 40017 H 3775.27 5.25992 -5.75285 0
M  V30 40018 N 3779.5 1.53135 0.372494 0
M  V30 40019 C 3780.91 1.60744 0.949643 0
M  V30 40020 C 3781.26 0.470534 1.90474 0
M  V30 40021 O 3780.39 -0.404048 2.12594 0
M  V30 40022 C 3780.98 2.91353 1.72912 0
M  V30 40023 C 3779.54 3.01321 2.25572 0
M  V30 40024 C 3778.69 2.55988 1.06608 0
M  V30 40025 H 3781.64 1.57975 0.151505 0
M  V30 40026 H 3781.66 2.78767 2.58977 0
M  V30 40027 H 3781.17 3.7408 1.03373 0
M  V30 40028 H 3779.27 2.23167 2.98374 0
M  V30 40029 H 3779.39 4.06273 2.53928 0
M  V30 40030 H 3777.75 2.10699 1.43101 0
M  V30 40031 H 3778.53 3.41126 0.38578 0
M  V30 40032 N 3780.98 -0.6319 1.44377 0
M  V30 40033 C 3781.89 -1.77262 1.53673 0
M  V30 40034 C 3782.91 -1.68794 0.422454 0
M  V30 40035 O 3784.08 -1.89584 0.679689 0
M  V30 40036 C 3781.15 -3.13642 1.47749 0
M  V30 40037 C 3780.21 -3.33747 2.70021 0
M  V30 40038 C 3779.44 -4.63621 2.6437 0
M  V30 40039 O 3779.66 -5.44375 1.7033 0
M  V30 40040 O 3778.6 -4.85911 3.55209 0
M  V30 40041 H 3782.42 -1.72372 2.50043 0
M  V30 40042 H 3780.01 -0.79303 1.26615 0
M  V30 40043 H 3781.89 -3.94942 1.46965 0
M  V30 40044 H 3780.57 -3.19075 0.545221 0
M  V30 40045 H 3779.47 -2.52128 2.76373 0
M  V30 40046 H 3780.81 -3.33175 3.62292 0
M  V30 40047 N 3782.46 -1.31262 -0.872235 0
M  V30 40048 C 3783.71 -1.20179 -1.61988 0
M  V30 40049 C 3784.02 0.239405 -1.94129 0
M  V30 40050 O 3785.23 0.471909 -2.67367 0
M  V30 40051 C 3783.68 -2.10371 -2.92014 0
M  V30 40052 C 3783.29 -3.59473 -2.67364 0
M  V30 40053 C 3785.03 -2.08082 -3.70003 0
M  V30 40054 C 3782.94 -4.41681 -3.93283 0
M  V30 40055 H 3781.87 -0.446221 -0.607785 0
M  V30 40056 H 3784.52 -1.56102 -0.964599 0
M  V30 40057 H 3782.9 -1.67344 -3.58904 0
M  V30 40058 H 3784.08 -4.1073 -2.08895 0
M  V30 40059 H 3782.39 -3.63715 -2.02731 0
M  V30 40060 H 3784.99 -2.66747 -4.63411 0
M  V30 40061 H 3785.33 -1.0674 -4.02383 0
M  V30 40062 H 3785.87 -2.49297 -3.09993 0
M  V30 40063 H 3782.6 -5.43768 -3.66055 0
M  V30 40064 H 3782.12 -3.95182 -4.51211 0
M  V30 40065 H 3783.8 -4.53777 -4.61189 0
M  V30 40066 N 3783.94 1.08625 -1.14186 0
M  V30 40067 C 3785.16 1.84713 -0.932136 0
M  V30 40068 C 3785.58 1.81518 0.519303 0
M  V30 40069 O 3784.94 1.21724 1.35976 0
M  V30 40070 C 3784.99 3.32348 -1.42223 0
M  V30 40071 O 3784.71 3.35542 -2.8168 0
M  V30 40072 C 3786.21 4.25249 -1.25213 0
M  V30 40073 H 3783.43 0.583187 -0.331864 0
M  V30 40074 H 3785.97 1.37202 -1.51644 0
M  V30 40075 H 3784.13 3.77255 -0.880746 0
M  V30 40076 H 3784.54 4.27684 -3.03622 0
M  V30 40077 H 3786.02 5.2696 -1.64368 0
M  V30 40078 H 3786.49 4.38768 -0.194736 0
M  V30 40079 H 3787.1 3.86165 -1.78204 0
M  V30 40080 N 3785.41 0.936635 1.26747 0
M  V30 40081 C 3786.66 0.592162 1.94589 0
M  V30 40082 C 3787.02 -0.858619 1.72179 0
M  V30 40083 O 3786.31 -1.60559 1.04553 0
M  V30 40084 C 3786.5 0.86485 3.46778 0
M  V30 40085 C 3786.33 2.34059 3.83988 0
M  V30 40086 C 3785.1 2.99492 4.0698 0
M  V30 40087 C 3787.3 3.31875 3.92891 0
M  V30 40088 N 3785.28 4.37126 4.31039 0
M  V30 40089 C 3786.65 4.5475 4.21429 0
M  V30 40090 C 3788.71 3.26962 3.755 0
M  V30 40091 C 3787.41 5.73325 4.34386 0
M  V30 40092 C 3789.44 4.44857 3.89687 0
M  V30 40093 C 3788.8 5.66513 4.1862 0
M  V30 40094 H 3784.9 0.266978 0.735015 0
M  V30 40095 H 3787.48 1.2051 1.52923 0
M  V30 40096 H 3785.65 0.280994 3.87382 0
M  V30 40097 H 3787.38 0.482104 4.01818 0
M  V30 40098 H 3784.14 2.50128 4.02161 0
M  V30 40099 H 3784.56 5.08353 4.47109 0
M  V30 40100 H 3789.21 2.33967 3.52164 0
M  V30 40101 H 3786.92 6.66777 4.56545 0
M  V30 40102 H 3790.51 4.42582 3.7764 0
M  V30 40103 H 3789.39 6.56218 4.29358 0
M  V30 40104 N 3786.89 -1.41045 0.703143 0
M  V30 40105 C 3787.8 -2.3456 0.0433189 0
M  V30 40106 C 3788.82 -1.56637 -0.757676 0
M  V30 40107 O 3789.99 -1.89084 -0.693497 0
M  V30 40108 C 3787.06 -3.35442 -0.876326 0
M  V30 40109 C 3786.12 -4.29248 -0.0666845 0
M  V30 40110 C 3785.35 -5.25311 -0.942529 0
M  V30 40111 O 3785.58 -5.27017 -2.18196 0
M  V30 40112 O 3784.51 -6.00647 -0.38816 0
M  V30 40113 H 3788.34 -2.92578 0.814354 0
M  V30 40114 H 3785.92 -1.42027 0.463528 0
M  V30 40115 H 3787.8 -3.97342 -1.40346 0
M  V30 40116 H 3786.48 -2.79856 -1.62672 0
M  V30 40117 H 3785.39 -3.70673 0.50523 0
M  V30 40118 H 3786.72 -4.87953 0.645214 0
M  V30 40119 N 3788.37 -0.448429 -1.51086 0
M  V30 40120 C 3789.3 0.402881 -2.24615 0
M  V30 40121 C 3790.28 1.01542 -1.26996 0
M  V30 40122 O 3791.47 1.05574 -1.56161 0
M  V30 40123 C 3788.59 1.56248 -3.00507 0
M  V30 40124 C 3787.64 1.06954 -4.12872 0
M  V30 40125 S 3788.47 0.00255763 -5.355 0
M  V30 40126 C 3789.63 1.16656 -6.14933 0
M  V30 40127 H 3789.86 -0.22135 -2.96475 0
M  V30 40128 H 3787.39 -0.233056 -1.52631 0
M  V30 40129 H 3789.35 2.22719 -3.44828 0
M  V30 40130 H 3788.01 2.15815 -2.28216 0
M  V30 40131 H 3787.21 1.937 -4.65292 0
M  V30 40132 H 3786.81 0.482894 -3.70869 0
M  V30 40133 H 3789.1 2.08275 -6.44692 0
M  V30 40134 H 3790.04 0.682099 -7.04807 0
M  V30 40135 H 3790.45 1.41014 -5.46603 0
M  V30 40136 N 3789.85 1.56567 -0.180181 0
M  V30 40137 C 3791.26 1.8367 0.335022 0
M  V30 40138 C 3791.61 1.10033 1.62441 0
M  V30 40139 O 3790.74 0.356243 2.13448 0
M  V30 40140 C 3791.33 3.33178 0.614621 0
M  V30 40141 C 3789.89 3.60745 1.07424 0
M  V30 40142 C 3789.04 2.77062 0.114828 0
M  V30 40143 H 3791.99 1.53464 -0.404272 0
M  V30 40144 H 3792.01 3.51138 1.46567 0
M  V30 40145 H 3791.52 3.86745 -0.323991 0
M  V30 40146 H 3789.62 3.12598 2.02765 0
M  V30 40147 H 3789.73 4.69027 0.977266 0
M  V30 40148 H 3788.1 2.47191 0.613889 0
M  V30 40149 H 3788.88 3.33413 -0.817963 0
M  V30 40150 N 3791.33 -0.0935042 1.57322 0
M  V30 40151 C 3792.6 -0.828471 1.77188 0
M  V30 40152 C 3792.98 -1.96858 0.762251 0
M  V30 40153 O 3792.33 -2.27543 -0.208942 0
M  V30 40154 C 3792.54 -1.32158 3.2301 0
M  V30 40155 C 3793.89 -1.76372 3.86236 0
M  V30 40156 O 3794.91 -1.41777 3.26769 0
M  V30 40157 O 3793.77 -2.40345 4.90812 0
M  V30 40158 H 3790.87 -0.395298 0.726408 0
M  V30 40159 H 3793.41 -0.0752626 1.69533 0
M  V30 40160 H 3792.18 -0.504794 3.8803 0
M  V30 40161 H 3791.81 -2.13675 3.35304 0
M  V30 40162 N 3792.8 -1.5333 -0.364368 0
M  V30 40163 C 3793.75 -1.76234 -1.44657 0
M  V30 40164 C 3794.74 -0.61691 -1.48604 0
M  V30 40165 O 3795.93 -0.875616 -1.53824 0
M  V30 40166 C 3793.06 -1.95676 -2.82074 0
M  V30 40167 C 3792.15 -3.16224 -2.82601 0
M  V30 40168 N 3792.54 -4.38109 -2.52773 0
M  V30 40169 C 3790.83 -3.16971 -3.1376 0
M  V30 40170 C 3791.54 -5.19855 -2.61008 0
M  V30 40171 N 3790.51 -4.56094 -2.95769 0
M  V30 40172 H 3794.31 -2.68079 -1.2046 0
M  V30 40173 H 3791.83 -1.51972 -0.572562 0
M  V30 40174 H 3793.82 -2.10213 -3.60023 0
M  V30 40175 H 3792.48 -1.05059 -3.07234 0
M  V30 40176 H 3793.5 -4.6582 -2.26345 0
M  V30 40177 H 3790.17 -2.36251 -3.44227 0
M  V30 40178 H 3791.56 -6.27082 -2.41283 0
M  V30 40179 N 3794.28 0.624234 -1.4471 0
M  V30 40180 C 3795.51 1.41562 -1.51575 0
M  V30 40181 C 3795.93 1.87549 -0.143839 0
M  V30 40182 O 3795.29 1.59153 0.868333 0
M  V30 40183 C 3795.34 2.60743 -2.49089 0
M  V30 40184 O 3794.44 3.60813 -1.99719 0
M  V30 40185 H 3793.78 0.423302 -0.511578 0
M  V30 40186 H 3796.31 0.761282 -1.8991 0
M  V30 40187 H 3796.32 3.082 -2.67351 0
M  V30 40188 H 3795 2.26618 -3.48737 0
M  V30 40189 H 3793.58 3.20118 -1.91255 0
M  V30 40190 N 3795.76 1.31723 0.865262 0
M  V30 40191 C 3796.69 1.22366 1.98869 0
M  V30 40192 C 3797.67 0.109809 1.69745 0
M  V30 40193 O 3798.86 0.295201 1.91943 0
M  V30 40194 C 3795.99 0.935059 3.34476 0
M  V30 40195 C 3794.94 2.00899 3.7792 0
M  V30 40196 C 3794.27 1.573 5.11039 0
M  V30 40197 C 3795.57 3.42271 3.94522 0
M  V30 40198 H 3797.26 2.16356 2.06956 0
M  V30 40199 H 3794.81 1.04158 0.994337 0
M  V30 40200 H 3796.76 0.856183 4.12611 0
M  V30 40201 H 3795.48 -0.0404962 3.26575 0
M  V30 40202 H 3794.14 2.07784 3.02029 0
M  V30 40203 H 3793.79 0.585172 4.99585 0
M  V30 40204 H 3793.49 2.29147 5.41078 0
M  V30 40205 H 3795.01 1.50828 5.91678 0
M  V30 40206 H 3796.43 3.38035 4.63039 0
M  V30 40207 H 3794.83 4.12377 4.35965 0
M  V30 40208 H 3795.9 3.82711 2.97758 0
M  V30 40209 N 3797.24 -1.08018 1.14761 0
M  V30 40210 C 3798.17 -2.17046 0.861016 0
M  V30 40211 C 3799.15 -1.69084 -0.185623 0
M  V30 40212 O 3800.33 -1.94156 -0.0414456 0
M  V30 40213 C 3797.46 -3.45611 0.342079 0
M  V30 40214 C 3796.42 -4.06986 1.32462 0
M  V30 40215 C 3795.74 -5.30551 0.664814 0
M  V30 40216 C 3797.04 -4.47805 2.68827 0
M  V30 40217 H 3798.74 -2.41277 1.77273 0
M  V30 40218 H 3796.28 -1.1596 0.853778 0
M  V30 40219 H 3798.24 -4.21202 0.129167 0
M  V30 40220 H 3796.96 -3.20946 -0.605081 0
M  V30 40221 H 3795.62 -3.33432 1.52377 0
M  V30 40222 H 3795.27 -5.02173 -0.288279 0
M  V30 40223 H 3794.97 -5.72571 1.32046 0
M  V30 40224 H 3796.49 -6.08853 0.461519 0
M  V30 40225 H 3797.91 -5.14555 2.52797 0
M  V30 40226 H 3796.3 -5.00755 3.30702 0
M  V30 40227 H 3797.37 -3.595 3.25404 0
M  V30 40228 N 3798.72 -0.943344 -1.26249 0
M  V30 40229 C 3799.94 -0.608376 -1.98276 0
M  V30 40230 C 3800.37 0.810179 -1.69758 0
M  V30 40231 O 3799.72 1.54609 -0.946873 0
M  V30 40232 C 3799.77 -0.859653 -3.50203 0
M  V30 40233 O 3798.88 0.0671646 -4.12345 0
M  V30 40234 H 3798.22 -0.232488 -0.621969 0
M  V30 40235 H 3800.75 -1.26687 -1.6066 0
M  V30 40236 H 3800.76 -0.781411 -4.00447 0
M  V30 40237 H 3799.43 -1.89361 -3.70291 0
M  V30 40238 H 3798.01 -0.0623199 -3.72848 0
M  V30 40239 N 3800.2 1.4067 -0.710613 0
M  V30 40240 C 3801.42 2.05292 -0.257478 0
M  V30 40241 C 3801.84 1.53525 1.09888 0
M  V30 40242 O 3801.2 0.689733 1.68964 0
M  V30 40243 C 3801.25 3.60811 -0.223154 0
M  V30 40244 O 3800.97 4.10666 -1.52595 0
M  V30 40245 C 3802.47 4.42599 0.249139 0
M  V30 40246 H 3799.69 0.660778 -0.116674 0
M  V30 40247 H 3802.23 1.8017 -0.967423 0
M  V30 40248 H 3800.39 3.84919 0.437719 0
M  V30 40249 H 3800.8 5.04825 -1.4231 0
M  V30 40250 H 3802.28 5.51553 0.222013 0
M  V30 40251 H 3802.75 4.19813 1.2905 0
M  V30 40252 H 3803.36 4.23588 -0.381276 0
M  V30 40253 N 3801.67 0.456435 1.50846 0
M  V30 40254 C 3802.64 -0.33384 2.26756 0
M  V30 40255 C 3803.64 -0.933224 1.30949 0
M  V30 40256 O 3804.83 -0.804689 1.545 0
M  V30 40257 C 3801.96 -1.47412 3.0738 0
M  V30 40258 H 3803.15 0.331686 2.9806 0
M  V30 40259 H 3800.7 0.210095 1.54882 0
M  V30 40260 H 3801.44 -2.17513 2.40538 0
M  V30 40261 H 3801.22 -1.05029 3.77771 0
M  V30 40262 H 3802.71 -2.03197 3.6483 0
M  V30 40263 N 3803.15 -1.56469 0.188482 0
M  V30 40264 C 3804.38 -2.02213 -0.460939 0
M  V30 40265 C 3804.8 -1.0678 -1.54854 0
M  V30 40266 O 3804.16 -0.0501744 -1.81231 0
M  V30 40267 C 3804.21 -3.46445 -1.00041 0
M  V30 40268 O 3803.31 -3.54117 -2.11364 0
M  V30 40269 H 3802.65 -0.655078 -0.108486 0
M  V30 40270 H 3805.18 -2.02427 0.297417 0
M  V30 40271 H 3805.19 -3.86102 -1.31869 0
M  V30 40272 H 3803.87 -4.15398 -0.2042 0
M  V30 40273 H 3802.44 -3.26331 -1.8045 0
M  V30 40274 N 3804.63 0.0851597 -1.5737 0
M  V30 40275 C 3805.58 1.10259 -2.0276 0
M  V30 40276 C 3806.55 1.39233 -0.905726 0
M  V30 40277 O 3807.73 1.50527 -1.17244 0
M  V30 40278 C 3804.87 2.41487 -2.46532 0
M  V30 40279 C 3803.98 2.19158 -3.72282 0
M  V30 40280 C 3803.12 3.43856 -4.04891 0
M  V30 40281 C 3802.16 3.16832 -5.23721 0
M  V30 40282 N 3801.3 4.33824 -5.52034 0
M  V30 40283 H 3806.14 0.708532 -2.89454 0
M  V30 40284 H 3803.67 0.338307 -1.43157 0
M  V30 40285 H 3805.63 3.18086 -2.69957 0
M  V30 40286 H 3804.26 2.7872 -1.62834 0
M  V30 40287 H 3803.31 1.33315 -3.56274 0
M  V30 40288 H 3804.62 1.95189 -4.59024 0
M  V30 40289 H 3803.78 4.28857 -4.29146 0
M  V30 40290 H 3802.52 3.70889 -3.1669 0
M  V30 40291 H 3801.52 2.30225 -4.99276 0
M  V30 40292 H 3802.75 2.91135 -6.13528 0
M  V30 40293 H 3800.69 4.60914 -4.66792 0
M  V30 40294 H 3800.61 4.1308 -6.33168 0
M  V30 40295 H 3801.88 5.19861 -5.80831 0
M  V30 40296 N 3806.11 1.53521 0.356231 0
M  V30 40297 C 3807.02 1.83592 1.46052 0
M  V30 40298 C 3808.03 0.725025 1.58175 0
M  V30 40299 O 3809.21 1.01604 1.73892 0
M  V30 40300 C 3806.27 2.02794 2.81203 0
M  V30 40301 C 3805.34 3.2668 2.78529 0
M  V30 40302 C 3804.57 3.44957 4.07235 0
M  V30 40303 O 3804.79 2.67333 5.03874 0
M  V30 40304 O 3803.73 4.38344 4.12478 0
M  V30 40305 H 3807.55 2.77428 1.23561 0
M  V30 40306 H 3805.14 1.39018 0.547219 0
M  V30 40307 H 3807.02 2.16943 3.61267 0
M  V30 40308 H 3805.69 1.12148 3.03652 0
M  V30 40309 H 3804.6 3.17947 1.97131 0
M  V30 40310 H 3805.93 4.17279 2.61035 0
M  V30 40311 N 3807.59 -0.616551 1.45039 0
M  V30 40312 C 3809 -0.936336 1.29247 0
M  V30 40313 C 3809.2 -2.00079 0.238914 0
M  V30 40314 O 3808.26 -2.49771 -0.370221 0
M  V30 40315 C 3809.57 -1.38577 2.66865 0
M  V30 40316 C 3811.12 -1.50046 2.74691 0
M  V30 40317 C 3811.59 -1.98368 4.12812 0
M  V30 40318 N 3813.08 -2.05616 4.15062 0
M  V30 40319 C 3813.82 -2.44207 5.18797 0
M  V30 40320 N 3813.32 -2.81831 6.32885 0
M  V30 40321 N 3815.11 -2.44468 5.06154 0
M  V30 40322 H 3807.26 0.0871678 2.12221 0
M  V30 40323 H 3809.52 -0.0236492 0.947705 0
M  V30 40324 H 3809.23 -0.67785 3.45106 0
M  V30 40325 H 3809.1 -2.35402 2.9473 0
M  V30 40326 H 3811.49 -2.19931 1.9676 0
M  V30 40327 H 3811.57 -0.515587 2.5055 0
M  V30 40328 H 3811.21 -1.29073 4.91226 0
M  V30 40329 H 3811.14 -2.97753 4.34339 0
M  V30 40330 H 3813.64 -1.79165 3.32729 0
M  V30 40331 H 3813.95 -3.10134 7.07839 0
M  V30 40332 H 3812.29 -2.79548 6.363 0
M  V30 40333 H 3815.48 -2.14475 4.16075 0
M  V30 40334 H 3815.66 -2.74219 5.87118 0
M  V30 40335 N 3809.06 -1.3218 -0.858264 0
M  V30 40336 C 3810.29 -1.25526 -1.64471 0
M  V30 40337 C 3810.71 0.177392 -1.87965 0
M  V30 40338 O 3810.06 1.1133 -1.44609 0
M  V30 40339 C 3810.11 -2.00795 -3.00605 0
M  V30 40340 O 3809.84 -3.3847 -2.78154 0
M  V30 40341 C 3811.34 -2.01122 -3.95051 0
M  V30 40342 H 3808.56 -0.433246 -0.512385 0
M  V30 40343 H 3811.1 -1.74246 -1.07045 0
M  V30 40344 H 3809.26 -1.55807 -3.54687 0
M  V30 40345 H 3809.67 -3.76948 -3.64706 0
M  V30 40346 H 3811.14 -2.58276 -4.8785 0
M  V30 40347 H 3811.62 -0.996588 -4.27744 0
M  V30 40348 H 3812.23 -2.46041 -3.46906 0
M  V30 40349 N 3810.54 1.07407 -1.15332 0
M  V30 40350 C 3811.49 2.1282 -0.818017 0
M  V30 40351 C 3812.48 1.59684 0.197472 0
M  V30 40352 O 3813.67 1.77 -0.00169909 0
M  V30 40353 C 3810.8 3.41912 -0.308416 0
M  V30 40354 C 3809.88 4.01904 -1.35403 0
M  V30 40355 N 3810.27 4.36162 -2.56118 0
M  V30 40356 C 3808.57 4.29367 -1.20663 0
M  V30 40357 C 3809.27 4.83695 -3.23132 0
M  V30 40358 N 3808.25 4.82431 -2.50522 0
M  V30 40359 H 3812.05 2.37139 -1.73615 0
M  V30 40360 H 3809.56 1.2484 -1.03869 0
M  V30 40361 H 3811.56 4.1687 -0.0498598 0
M  V30 40362 H 3810.22 3.19037 0.603784 0
M  V30 40363 H 3811.23 4.26867 -2.93266 0
M  V30 40364 H 3807.91 4.15994 -0.354281 0
M  V30 40365 H 3809.3 5.19498 -4.26112 0
M  V30 40366 N 3812.02 0.950026 1.25747 0
M  V30 40367 C 3813.27 0.601138 1.92953 0
M  V30 40368 C 3813.59 -0.863923 1.74818 0
M  V30 40369 O 3812.86 -1.61482 1.10906 0
M  V30 40370 H 3811.44 0.219337 0.714073 0
M  V30 40371 H 3814.1 1.20727 1.53007 0
M  V30 40372 H 3813.2 0.8265 3.00957 0
M  V30 40373 N 3813.5 -1.40291 0.718063 0
M  V30 40374 C 3814.72 -2.05675 0.266954 0
M  V30 40375 C 3815.15 -1.53751 -1.08361 0
M  V30 40376 O 3814.51 -0.673942 -1.68308 0
M  V30 40377 C 3814.55 -3.59664 0.259669 0
M  V30 40378 O 3813.66 -4.05368 -0.758301 0
M  V30 40379 H 3813 -0.652167 0.124798 0
M  V30 40380 H 3815.53 -1.79644 0.979239 0
M  V30 40381 H 3815.54 -4.07882 0.0982067 0
M  V30 40382 H 3814.21 -3.96821 1.24524 0
M  V30 40383 H 3812.79 -3.68605 -0.56436 0
M  V30 40384 N 3814.98 -0.464428 -1.50602 0
M  V30 40385 C 3815.89 0.33868 -2.32142 0
M  V30 40386 C 3816.9 1.0023 -1.42232 0
M  V30 40387 O 3818.08 0.991739 -1.7529 0
M  V30 40388 C 3815.14 1.41013 -3.16727 0
M  V30 40389 C 3814.2 0.763805 -4.22451 0
M  V30 40390 C 3813.44 1.7842 -5.02993 0
M  V30 40391 O 3813.66 3.00991 -4.84521 0
M  V30 40392 O 3812.59 1.35972 -5.86341 0
M  V30 40393 H 3816.42 -0.327748 -3.01926 0
M  V30 40394 H 3814.01 -0.226405 -1.47675 0
M  V30 40395 H 3815.89 2.03091 -3.69232 0
M  V30 40396 H 3814.56 2.06015 -2.49679 0
M  V30 40397 H 3813.47 0.104252 -3.73955 0
M  V30 40398 H 3814.8 0.156843 -4.9195 0
M  V30 40399 N 3816.45 1.56367 -0.196777 0
M  V30 40400 C 3817.39 2.16397 0.755302 0
M  V30 40401 C 3818.4 1.12625 1.17556 0
M  V30 40402 O 3819.59 1.39711 1.111 0
M  V30 40403 C 3816.69 2.71259 2.03154 0
M  V30 40404 C 3815.86 3.99951 1.77081 0
M  V30 40405 C 3814.92 4.39623 2.89168 0
M  V30 40406 O 3813.95 5.07012 2.58703 0
M  V30 40407 N 3815.15 4.03265 4.17562 0
M  V30 40408 H 3817.91 2.98722 0.241938 0
M  V30 40409 H 3815.47 1.61893 -0.0148707 0
M  V30 40410 H 3817.47 2.94783 2.77282 0
M  V30 40411 H 3816.04 1.9338 2.45607 0
M  V30 40412 H 3815.26 3.84542 0.867241 0
M  V30 40413 H 3816.54 4.83952 1.57061 0
M  V30 40414 H 3815.94 3.49062 4.45165 0
M  V30 40415 H 3814.5 4.31735 4.88312 0
M  V30 40416 N 3817.93 -0.0768128 1.57413 0
M  V30 40417 C 3818.86 -1.09223 2.0638 0
M  V30 40418 C 3819.84 -1.40673 0.956294 0
M  V30 40419 O 3821.03 -1.50388 1.22871 0
M  V30 40420 C 3818.16 -2.40708 2.50354 0
M  V30 40421 C 3817.11 -2.23622 3.64935 0
M  V30 40422 C 3816.44 -3.60446 3.94946 0
M  V30 40423 C 3817.74 -1.6616 4.95165 0
M  V30 40424 H 3819.43 -0.684775 2.91464 0
M  V30 40425 H 3816.98 -0.327949 1.40216 0
M  V30 40426 H 3818.93 -3.12031 2.83222 0
M  V30 40427 H 3817.66 -2.83424 1.62292 0
M  V30 40428 H 3816.31 -1.54741 3.32341 0
M  V30 40429 H 3815.96 -4.00723 3.04023 0
M  V30 40430 H 3815.66 -3.49855 4.72097 0
M  V30 40431 H 3817.19 -4.33208 4.30306 0
M  V30 40432 H 3818.6 -2.27344 5.26296 0
M  V30 40433 H 3817 -1.66278 5.76603 0
M  V30 40434 H 3818.07 -0.622626 4.80886 0
M  V30 40435 N 3819.41 -1.53708 -0.348084 0
M  V30 40436 C 3820.36 -1.77758 -1.42779 0
M  V30 40437 C 3821.34 -0.632636 -1.47941 0
M  V30 40438 O 3822.54 -0.891882 -1.52887 0
M  V30 40439 C 3819.67 -1.98657 -2.79983 0
M  V30 40440 C 3818.75 -3.19203 -2.79231 0
M  V30 40441 N 3819.14 -4.40765 -2.48112 0
M  V30 40442 C 3817.44 -3.20281 -3.10381 0
M  V30 40443 C 3818.14 -5.22595 -2.5548 0
M  V30 40444 N 3817.12 -4.59205 -2.90915 0
M  V30 40445 H 3820.92 -2.69342 -1.1761 0
M  V30 40446 H 3818.43 -1.52571 -0.556412 0
M  V30 40447 H 3820.43 -2.14019 -3.57773 0
M  V30 40448 H 3819.09 -1.08312 -3.06102 0
M  V30 40449 H 3820.1 -4.68195 -2.21391 0
M  V30 40450 H 3816.78 -2.39888 -3.41701 0
M  V30 40451 H 3818.17 -6.29606 -2.34618 0
M  V30 40452 N 3820.89 0.608851 -1.45364 0
M  V30 40453 C 3821.82 1.73037 -1.56781 0
M  V30 40454 C 3822.8 1.64848 -0.419434 0
M  V30 40455 O 3823.98 1.83267 -0.642412 0
M  V30 40456 C 3821.11 3.11637 -1.53296 0
M  V30 40457 C 3820.07 3.34637 -2.66838 0
M  V30 40458 C 3819.39 4.73496 -2.48406 0
M  V30 40459 C 3820.69 3.25014 -4.08856 0
M  V30 40460 H 3822.39 1.63739 -2.50659 0
M  V30 40461 H 3819.93 0.786317 -1.20636 0
M  V30 40462 H 3821.89 3.89893 -1.5988 0
M  V30 40463 H 3820.61 3.21772 -0.559471 0
M  V30 40464 H 3819.27 2.58771 -2.59679 0
M  V30 40465 H 3818.92 4.80363 -1.49199 0
M  V30 40466 H 3818.62 4.8984 -3.24546 0
M  V30 40467 H 3820.14 5.53953 -2.56843 0
M  V30 40468 H 3821.56 3.93146 -4.17264 0
M  V30 40469 H 3819.95 3.52889 -4.85376 0
M  V30 40470 H 3821.02 2.22473 -4.30852 0
M  V30 40471 N 3822.37 1.32633 0.851242 0
M  V30 40472 C 3823.3 1.17684 1.9668 0
M  V30 40473 C 3824.31 0.110955 1.62421 0
M  V30 40474 O 3825.5 0.360233 1.74827 0
M  V30 40475 C 3822.6 0.779896 3.29804 0
M  V30 40476 C 3821.77 1.9348 3.92281 0
M  V30 40477 C 3820.83 1.52084 5.03743 0
M  V30 40478 O 3819.86 2.23337 5.23554 0
M  V30 40479 N 3821.06 0.418797 5.78987 0
M  V30 40480 H 3823.83 2.13778 2.10045 0
M  V30 40481 H 3821.39 1.25215 1.02629 0
M  V30 40482 H 3823.38 0.485307 4.0178 0
M  V30 40483 H 3821.95 -0.0899949 3.1247 0
M  V30 40484 H 3821.17 2.3957 3.1305 0
M  V30 40485 H 3822.46 2.70788 4.30757 0
M  V30 40486 H 3821.85 -0.174169 5.65432 0
M  V30 40487 H 3820.41 0.183828 6.51541 0
M  V30 40488 N 3823.84 -1.06794 1.159 0
M  V30 40489 C 3825.09 -1.79144 0.935519 0
M  V30 40490 C 3825.41 -1.8742 -0.5384 0
M  V30 40491 O 3824.68 -1.3792 -1.39122 0
M  V30 40492 H 3823.26 -0.663527 0.343134 0
M  V30 40493 H 3825.93 -1.29031 1.46072 0
M  V30 40494 H 3825.02 -2.814 1.34983 0
M  V30 40495 N 3825.32 -0.956681 -1.25241 0
M  V30 40496 C 3826.55 -0.629825 -1.97081 0
M  V30 40497 C 3826.97 0.798499 -1.71083 0
M  V30 40498 O 3826.32 1.53438 -0.988077 0
M  V30 40499 C 3826.37 -0.881468 -3.50589 0
M  V30 40500 O 3826.09 -2.25363 -3.7569 0
M  V30 40501 C 3827.6 -0.567281 -4.39655 0
M  V30 40502 H 3824.82 -0.235949 -0.628147 0
M  V30 40503 H 3827.36 -1.28161 -1.59358 0
M  V30 40504 H 3825.51 -0.276058 -3.86415 0
M  V30 40505 H 3825.93 -2.32531 -4.70138 0
M  V30 40506 H 3827.4 -0.793881 -5.46261 0
M  V30 40507 H 3827.88 0.49821 -4.36365 0
M  V30 40508 H 3828.49 -1.1521 -4.09398 0
M  V30 40509 N 3826.8 1.39908 -0.725493 0
M  V30 40510 C 3827.73 2.3331 -0.094252 0
M  V30 40511 C 3828.71 1.53415 0.734701 0
M  V30 40512 O 3829.9 1.81845 0.681615 0
M  V30 40513 C 3827.03 3.37459 0.820899 0
M  V30 40514 C 3825.98 4.2789 0.0968231 0
M  V30 40515 C 3825.31 5.22659 1.12835 0
M  V30 40516 C 3826.61 5.11536 -1.05492 0
M  V30 40517 H 3828.3 2.86347 -0.874416 0
M  V30 40518 H 3825.85 1.3768 -0.421938 0
M  V30 40519 H 3827.8 4.01745 1.27196 0
M  V30 40520 H 3826.52 2.8284 1.63307 0
M  V30 40521 H 3825.18 3.65071 -0.334518 0
M  V30 40522 H 3824.83 4.6434 1.93384 0
M  V30 40523 H 3824.53 5.84008 0.648702 0
M  V30 40524 H 3826.05 5.89822 1.57932 0
M  V30 40525 H 3827.47 5.6922 -0.682757 0
M  V30 40526 H 3825.87 5.81979 -1.46359 0
M  V30 40527 H 3826.94 4.46929 -1.88103 0
M  V30 40528 N 3828.28 0.472408 1.50353 0
M  V30 40529 C 3829.52 -0.082249 2.02633 0
M  V30 40530 C 3829.86 -1.39252 1.35361 0
M  V30 40531 O 3829.13 -1.88491 0.479747 0
M  V30 40532 C 3829.42 -0.264679 3.59126 0
M  V30 40533 C 3829.27 1.06671 4.36968 0
M  V30 40534 C 3830.59 -1.01861 4.2815 0
M  V30 40535 H 3827.71 -0.0284174 0.736452 0
M  V30 40536 H 3830.35 0.618255 1.7966 0
M  V30 40537 H 3828.5 -0.861344 3.78831 0
M  V30 40538 H 3830.17 1.70005 4.28831 0
M  V30 40539 H 3828.41 1.66302 4.00657 0
M  V30 40540 H 3829.08 0.892688 5.44734 0
M  V30 40541 H 3831.56 -0.512858 4.12927 0
M  V30 40542 H 3830.44 -1.11506 5.37455 0
M  V30 40543 H 3830.7 -2.0555 3.9141 0
M  V30 40544 N 3829.76 -1.5626 0.205067 0
M  V30 40545 C 3831.01 -1.97034 -0.43133 0
M  V30 40546 C 3831.32 -1.0952 -1.62064 0
M  V30 40547 O 3832.53 -1.4012 -2.32548 0
M  V30 40548 C 3830.98 -3.50463 -0.818779 0
M  V30 40549 C 3830.59 -4.46656 0.346801 0
M  V30 40550 C 3832.33 -3.99985 -1.4217 0
M  V30 40551 C 3830.24 -5.91367 -0.0621638 0
M  V30 40552 H 3829.17 -0.735742 -0.164921 0
M  V30 40553 H 3831.82 -1.81053 0.298667 0
M  V30 40554 H 3830.2 -3.61984 -1.60573 0
M  V30 40555 H 3831.38 -4.46872 1.12435 0
M  V30 40556 H 3829.69 -4.07383 0.86187 0
M  V30 40557 H 3832.29 -5.05586 -1.7403 0
M  V30 40558 H 3832.63 -3.44872 -2.33171 0
M  V30 40559 H 3833.17 -3.91619 -0.698522 0
M  V30 40560 H 3829.9 -6.50427 0.813916 0
M  V30 40561 H 3829.42 -5.94382 -0.804369 0
M  V30 40562 H 3831.1 -6.45107 -0.494546 0
M  V30 40563 N 3831.24 0.0684638 -1.57451 0
M  V30 40564 C 3832.17 1.10779 -2.0065 0
M  V30 40565 C 3833.18 1.34791 -0.912968 0
M  V30 40566 O 3834.37 1.32973 -1.19082 0
M  V30 40567 C 3831.47 2.45801 -2.33314 0
M  V30 40568 C 3830.64 2.41698 -3.64556 0
M  V30 40569 C 3829.7 3.58854 -3.84851 0
M  V30 40570 O 3828.73 3.40131 -4.56398 0
M  V30 40571 N 3829.93 4.79323 -3.27459 0
M  V30 40572 H 3832.69 0.739887 -2.90423 0
M  V30 40573 H 3830.26 0.257065 -1.59846 0
M  V30 40574 H 3832.25 3.22825 -2.44061 0
M  V30 40575 H 3830.82 2.74581 -1.49413 0
M  V30 40576 H 3830.04 1.50036 -3.64531 0
M  V30 40577 H 3831.33 2.36061 -4.50725 0
M  V30 40578 H 3830.72 4.97437 -2.69393 0
M  V30 40579 H 3829.28 5.53848 -3.43651 0
M  V30 40580 N 3832.71 1.5389 0.339928 0
M  V30 40581 C 3833.66 1.82836 1.43784 0
M  V30 40582 C 3834.66 0.699085 1.54302 0
M  V30 40583 O 3835.86 0.882483 1.56883 0
M  V30 40584 H 3832.24 0.579307 0.479487 0
M  V30 40585 H 3834.21 2.74682 1.16587 0
M  V30 40586 C 3832.96 2.05799 2.80254 0
M  V30 40587 H 3832.28 2.92148 2.72928 0
M  V30 40588 H 3833.72 2.30015 3.56187 0
M  V30 40589 C 3832.18 0.844589 3.26142 0
M  V30 40590 O 3832.71 0.0457827 4.01674 0
M  V30 40591 N 3830.91 0.660798 2.82987 0
M  V30 40592 H 3830.46 1.31202 2.21684 0
M  V30 40593 H 3830.42 -0.149606 3.14044 0
M  V30 40594 N 3834.19 -0.601133 1.45685 0
M  V30 40595 C 3835.6 -1.18314 1.44425 0
M  V30 40596 C 3835.95 -1.95416 0.175274 0
M  V30 40597 O 3835.08 -2.03973 -0.72278 0
M  V30 40598 C 3835.67 -2.15225 2.61655 0
M  V30 40599 C 3834.23 -2.68789 2.63495 0
M  V30 40600 C 3833.38 -1.44312 2.36789 0
M  V30 40601 H 3836.33 -0.390081 1.53831 0
M  V30 40602 H 3836.35 -2.98373 2.36122 0
M  V30 40603 H 3835.86 -1.59082 3.53998 0
M  V30 40604 H 3833.96 -3.28853 1.75176 0
M  V30 40605 H 3834.08 -3.12781 3.62912 0
M  V30 40606 H 3832.44 -1.73491 1.86475 0
M  V30 40607 H 3833.22 -0.900269 3.31285 0
M  V30 40608 N 3835.67 -1.33083 -0.844196 0
M  V30 40609 C 3836.6 -1.18725 -1.96053 0
M  V30 40610 C 3837.61 -0.119567 -1.6236 0
M  V30 40611 O 3838.8 -0.3695 -1.74634 0
M  V30 40612 C 3835.9 -0.797375 -3.29386 0
M  V30 40613 C 3835.08 -1.95557 -3.91249 0
M  V30 40614 C 3834.14 -1.54754 -5.02929 0
M  V30 40615 O 3833.16 -2.2611 -5.22363 0
M  V30 40616 N 3834.36 -0.449496 -5.78757 0
M  V30 40617 H 3837.13 -2.14889 -2.08908 0
M  V30 40618 H 3834.69 -1.25758 -1.01963 0
M  V30 40619 H 3836.68 -0.506607 -4.01517 0
M  V30 40620 H 3835.25 0.0734225 -3.12514 0
M  V30 40621 H 3834.47 -2.41226 -3.11775 0
M  V30 40622 H 3835.76 -2.73068 -4.29315 0
M  V30 40623 H 3835.16 0.14418 -5.65516 0
M  V30 40624 H 3833.71 -0.218378 -6.51434 0
M  V30 40625 N 3837.15 1.06178 -1.16464 0
M  V30 40626 C 3838.38 1.82694 -0.971107 0
M  V30 40627 C 3838.79 1.82578 0.480684 0
M  V30 40628 O 3838.15 1.24581 1.33364 0
M  V30 40629 C 3838.2 3.29256 -1.49241 0
M  V30 40630 O 3837.92 3.29491 -2.88734 0
M  V30 40631 C 3839.42 4.22497 -1.34205 0
M  V30 40632 H 3836.64 0.576016 -0.34416 0
M  V30 40633 H 3839.18 1.33955 -1.5452 0
M  V30 40634 H 3837.34 3.75302 -0.960569 0
M  V30 40635 H 3837.75 4.21148 -3.12626 0
M  V30 40636 H 3839.23 5.23355 -1.75508 0
M  V30 40637 H 3839.7 4.38256 -0.287762 0
M  V30 40638 H 3840.31 3.82298 -1.86355 0
M  V30 40639 N 3838.63 0.96331 1.24732 0
M  V30 40640 C 3839.85 0.639843 1.97283 0
M  V30 40641 C 3840.28 -0.783069 1.71025 0
M  V30 40642 O 3839.63 -1.53083 0.971351 0
M  V30 40643 C 3839.68 0.915258 3.48791 0
M  V30 40644 O 3838.79 -0.00155556 4.124 0
M  V30 40645 H 3838.13 0.242354 0.618191 0
M  V30 40646 H 3840.66 1.29227 1.58624 0
M  V30 40647 H 3840.67 0.84502 3.99153 0
M  V30 40648 H 3839.34 1.95228 3.67231 0
M  V30 40649 H 3837.92 0.121629 3.72702 0
M  V30 40650 N 3840.1 -1.39522 0.732902 0
M  V30 40651 C 3841.38 -1.94509 0.206324 0
M  V30 40652 C 3841.76 -1.66984 -1.29149 0
M  V30 40653 O 3841.11 -0.996931 -2.05605 0
M  V30 40654 C 3841.32 -3.44833 0.53768 0
M  V30 40655 C 3842.67 -4.21811 0.485861 0
M  V30 40656 O 3843.69 -3.53022 0.474748 0
M  V30 40657 O 3842.55 -5.44401 0.478553 0
M  V30 40658 H 3839.64 -0.826175 0.0369373 0
M  V30 40659 H 3842.19 -1.49033 0.811617 0
M  V30 40660 H 3840.96 -3.58293 1.57295 0
M  V30 40661 H 3840.58 -3.97482 -0.0966902 0
M  V30 40662 N 3841.58 -0.480375 -1.501 0
M  V30 40663 C 3842.81 0.0710508 -2.07278 0
M  V30 40664 C 3843.23 1.31921 -1.34084 0
M  V30 40665 O 3842.59 1.77027 -0.391282 0
M  V30 40666 C 3842.64 0.328643 -3.59099 0
M  V30 40667 O 3841.74 1.40739 -3.87642 0
M  V30 40668 H 3841.08 -0.0170865 -0.66378 0
M  V30 40669 H 3843.61 -0.674083 -1.93177 0
M  V30 40670 H 3843.62 0.566364 -4.0405 0
M  V30 40671 H 3842.3 -0.583388 -4.11788 0
M  V30 40672 H 3840.87 1.15624 -3.54521 0
M  V30 40673 N 3843.06 1.56149 -0.213351 0
M  V30 40674 C 3844.31 1.97693 0.419732 0
M  V30 40675 C 3844.63 1.102 1.60876 0
M  V30 40676 O 3843.9 0.177219 1.95097 0
M  V30 40677 H 3842.48 0.730086 0.158063 0
M  V30 40678 H 3845.14 1.92509 -0.304337 0
M  V30 40679 H 3844.24 3.02915 0.751592 0
M  V30 40680 N 3844.54 -0.0601128 1.57485 0
M  V30 40681 C 3845.79 -0.755917 1.86999 0
M  V30 40682 C 3846.1 -1.78147 0.807648 0
M  V30 40683 O 3847.31 -2.52767 0.991004 0
M  V30 40684 C 3845.76 -1.39539 3.31748 0
M  V30 40685 C 3845.37 -0.407795 4.4614 0
M  V30 40686 C 3847.11 -2.07288 3.70449 0
M  V30 40687 C 3845.02 -1.05385 5.81935 0
M  V30 40688 H 3843.95 -0.286071 0.697624 0
M  V30 40689 H 3846.6 -0.00945368 1.83498 0
M  V30 40690 H 3844.98 -2.19051 3.29898 0
M  V30 40691 H 3846.16 0.358362 4.59404 0
M  V30 40692 H 3844.47 0.165884 4.16069 0
M  V30 40693 H 3847.07 -2.5642 4.69204 0
M  V30 40694 H 3847.41 -2.87748 3.00844 0
M  V30 40695 H 3847.95 -1.34591 3.74339 0
M  V30 40696 H 3844.69 -0.289322 6.54861 0
M  V30 40697 H 3844.21 -1.79058 5.72449 0
M  V30 40698 H 3845.88 -1.57029 6.27655 0
M  V30 40699 N 3846.02 -1.54068 -0.331762 0
M  V30 40700 C 3847.25 -1.75579 -1.08883 0
M  V30 40701 C 3847.65 -0.500462 -1.82461 0
M  V30 40702 O 3847 0.538129 -1.75641 0
M  V30 40703 C 3847.06 -2.88976 -2.13853 0
M  V30 40704 C 3846.72 -4.28171 -1.59746 0
M  V30 40705 C 3847.72 -5.09319 -1.04356 0
M  V30 40706 C 3845.41 -4.74691 -1.64237 0
M  V30 40707 C 3847.4 -6.35094 -0.541745 0
M  V30 40708 C 3845.09 -6.00435 -1.13668 0
M  V30 40709 C 3846.08 -6.8047 -0.587307 0
M  V30 40710 O 3845.77 -8.03851 -0.0891954 0
M  V30 40711 H 3845.5 -0.589944 -0.330064 0
M  V30 40712 H 3848.06 -2.01739 -0.386092 0
M  V30 40713 H 3846.29 -2.58368 -2.8772 0
M  V30 40714 H 3847.98 -2.98346 -2.75217 0
M  V30 40715 H 3848.74 -4.74537 -1.002 0
M  V30 40716 H 3844.62 -4.12445 -2.05938 0
M  V30 40717 H 3848.17 -6.9751 -0.112278 0
M  V30 40718 H 3844.06 -6.3471 -1.17529 0
M  V30 40719 H 3844.83 -8.18242 -0.205386 0
M  V30 40720 N 3847.49 0.593399 -1.46002 0
M  V30 40721 C 3848.44 1.70321 -1.55755 0
M  V30 40722 C 3849.41 1.6115 -0.402495 0
M  V30 40723 O 3850.6 1.8052 -0.617836 0
M  V30 40724 C 3847.74 3.0865 -1.54367 0
M  V30 40725 C 3846.85 3.28524 -2.80528 0
M  V30 40726 C 3845.98 4.5704 -2.70717 0
M  V30 40727 C 3845.02 4.70221 -3.91866 0
M  V30 40728 N 3844.16 5.90052 -3.80504 0
M  V30 40729 H 3849 1.61322 -2.50558 0
M  V30 40730 H 3846.54 0.786403 -1.24315 0
M  V30 40731 H 3848.5 3.88701 -1.51549 0
M  V30 40732 H 3847.13 3.16572 -0.631042 0
M  V30 40733 H 3846.18 2.4215 -2.93372 0
M  V30 40734 H 3847.49 3.34133 -3.70346 0
M  V30 40735 H 3846.64 5.45306 -2.65944 0
M  V30 40736 H 3845.38 4.53852 -1.78521 0
M  V30 40737 H 3844.39 3.80376 -3.96982 0
M  V30 40738 H 3845.61 4.75196 -4.85145 0
M  V30 40739 H 3843.56 5.87881 -2.91087 0
M  V30 40740 H 3843.48 5.96883 -4.63968 0
M  V30 40741 H 3844.74 6.80777 -3.79688 0
M  V30 40742 N 3848.97 1.33529 0.837127 0
M  V30 40743 C 3850.21 1.26418 1.60617 0
M  V30 40744 C 3850.58 -0.167186 1.91271 0
M  V30 40745 O 3851.78 -0.362276 2.66348 0
M  V30 40746 C 3850.05 2.1166 2.87984 0
M  V30 40747 S 3851.61 2.21757 3.78641 0
M  V30 40748 H 3848.43 0.449728 0.550696 0
M  V30 40749 H 3851.03 1.68582 0.989975 0
M  V30 40750 H 3849.73 3.14687 2.63439 0
M  V30 40751 H 3849.26 1.7034 3.54609 0
M  V30 40752 H 3851.28 1.37992 4.76626 0
M  V30 40753 N 3850.45 -1.05559 1.17026 0
M  V30 40754 C 3851.68 -1.82176 0.980782 0
M  V30 40755 C 3852.09 -1.82831 -0.470995 0
M  V30 40756 O 3851.45 -1.25286 -1.32701 0
M  V30 40757 C 3851.5 -3.2846 1.50985 0
M  V30 40758 O 3851.22 -3.27955 2.90477 0
M  V30 40759 C 3852.72 -4.2178 1.36443 0
M  V30 40760 H 3849.94 -0.574183 0.34721 0
M  V30 40761 H 3852.49 -1.33133 1.55228 0
M  V30 40762 H 3850.64 -3.74788 0.980459 0
M  V30 40763 H 3851.06 -4.19484 3.14855 0
M  V30 40764 H 3852.53 -5.22417 1.78281 0
M  V30 40765 H 3853.01 -4.38098 0.310999 0
M  V30 40766 H 3853.61 -3.81304 1.8838 0
M  V30 40767 N 3851.93 -0.969911 -1.2422 0
M  V30 40768 C 3852.89 -0.506725 -2.23528 0
M  V30 40769 C 3853.89 0.397941 -1.55798 0
M  V30 40770 O 3855.08 0.193093 -1.73127 0
M  V30 40771 C 3852.21 0.265884 -3.39862 0
M  V30 40772 H 3853.41 -1.38468 -2.6602 0
M  V30 40773 H 3850.96 -0.754722 -1.36871 0
M  V30 40774 H 3851.69 1.16084 -3.02812 0
M  V30 40775 H 3851.48 -0.383355 -3.90221 0
M  V30 40776 H 3852.97 0.578902 -4.13568 0
M  V30 40777 N 3853.41 1.39131 -0.740291 0
M  V30 40778 C 3854.35 2.30567 -0.103784 0
M  V30 40779 C 3855.32 1.49491 0.723999 0
M  V30 40780 O 3856.51 1.78161 0.682873 0
M  V30 40781 C 3853.65 3.35853 0.793528 0
M  V30 40782 C 3852.76 4.31974 -0.047443 0
M  V30 40783 C 3851.9 5.24329 0.851634 0
M  V30 40784 C 3850.94 6.121 0.00622874 0
M  V30 40785 N 3850.07 6.96794 0.86153 0
M  V30 40786 H 3854.91 2.84426 -0.889137 0
M  V30 40787 H 3852.45 1.40044 -0.450117 0
M  V30 40788 H 3854.41 3.95491 1.32827 0
M  V30 40789 H 3853.04 2.83436 1.5448 0
M  V30 40790 H 3852.09 3.7391 -0.699667 0
M  V30 40791 H 3853.4 4.93851 -0.700893 0
M  V30 40792 H 3852.56 5.89019 1.45403 0
M  V30 40793 H 3851.29 4.62786 1.53885 0
M  V30 40794 H 3850.3 5.46418 -0.608929 0
M  V30 40795 H 3851.52 6.75709 -0.67785 0
M  V30 40796 H 3849.47 6.37814 1.53394 0
M  V30 40797 H 3849.39 7.55537 0.264679 0
M  V30 40798 H 3850.66 7.65908 1.44932 0
M  V30 40799 N 3854.88 0.488329 1.49844 0
M  V30 40800 C 3855.83 -0.310663 2.30516 0
M  V30 40801 C 3856.83 -0.974545 1.3856 0
M  V30 40802 O 3858.03 -0.90368 1.55672 0
M  V30 40803 H 3854.41 -0.119036 0.742519 0
M  V30 40804 H 3856.38 0.389901 2.95842 0
M  V30 40805 C 3855.13 -1.36988 3.19577 0
M  V30 40806 H 3854.45 -0.868429 3.90254 0
M  V30 40807 H 3855.89 -1.90117 3.78988 0
M  V30 40808 C 3854.35 -2.3812 2.38328 0
M  V30 40809 O 3854.88 -3.43747 2.07848 0
M  V30 40810 N 3853.09 -2.1027 2.00587 0
M  V30 40811 H 3852.63 -1.24395 2.25574 0
M  V30 40812 H 3852.59 -2.78166 1.4653 0
M  V30 40813 N 3856.36 -1.56034 0.221629 0
M  V30 40814 C 3857.77 -1.84493 -0.286208 0
M  V30 40815 C 3858.12 -1.14301 -1.59467 0
M  V30 40816 O 3857.25 -0.412709 -2.12428 0
M  V30 40817 C 3857.84 -3.34691 -0.526069 0
M  V30 40818 C 3856.4 -3.63467 -0.978214 0
M  V30 40819 C 3855.55 -2.77269 -0.0413299 0
M  V30 40820 H 3858.5 -1.52339 0.444818 0
M  V30 40821 H 3858.52 -3.54901 -1.37206 0
M  V30 40822 H 3858.03 -3.8575 0.426416 0
M  V30 40823 H 3856.14 -3.17864 -1.94405 0
M  V30 40824 H 3856.25 -4.71453 -0.852569 0
M  V30 40825 H 3854.61 -2.48732 -0.548135 0
M  V30 40826 H 3855.4 -3.31127 0.906074 0
M  V30 40827 N 3857.84 0.0517601 -1.57515 0
M  V30 40828 C 3858.77 1.05926 -2.08091 0
M  V30 40829 C 3859.75 1.39134 -0.978553 0
M  V30 40830 O 3860.94 1.48414 -1.25248 0
M  V30 40831 C 3858.07 2.36695 -2.54151 0
M  V30 40832 C 3857.02 2.17788 -3.68446 0
M  V30 40833 C 3856.35 3.54117 -4.00631 0
M  V30 40834 C 3857.65 1.58262 -4.97745 0
M  V30 40835 H 3859.34 0.638319 -2.92516 0
M  V30 40836 H 3856.89 0.3056 -1.4072 0
M  V30 40837 H 3858.84 3.07486 -2.8815 0
M  V30 40838 H 3857.56 2.80806 -1.6678 0
M  V30 40839 H 3856.22 1.49434 -3.34761 0
M  V30 40840 H 3855.87 3.95835 -3.1036 0
M  V30 40841 H 3855.57 3.423 -4.77603 0
M  V30 40842 H 3857.09 4.26307 -4.37144 0
M  V30 40843 H 3858.51 2.18942 -5.29847 0
M  V30 40844 H 3856.91 1.57084 -5.79176 0
M  V30 40845 H 3857.98 0.546042 -4.81816 0
M  V30 40846 N 3859.32 1.54242 0.323587 0
M  V30 40847 C 3860.57 1.72106 1.05944 0
M  V30 40848 C 3860.89 0.497545 1.88546 0
M  V30 40849 O 3860.16 -0.488452 1.89713 0
M  V30 40850 H 3858.74 0.634564 0.39413 0
M  V30 40851 H 3861.4 1.91546 0.36003 0
M  V30 40852 H 3860.5 2.60065 1.72548 0
M  V30 40853 N 3860.8 -0.585648 1.46314 0
M  V30 40854 C 3862.02 -1.37493 1.55275 0
M  V30 40855 C 3862.45 -1.87102 0.193514 0
M  V30 40856 O 3861.81 -1.61399 -0.825831 0
M  V30 40857 C 3861.85 -2.54047 2.55915 0
M  V30 40858 O 3860.96 -3.55391 2.09215 0
M  V30 40859 H 3860.3 -0.409589 0.522621 0
M  V30 40860 H 3862.83 -0.710663 1.91861 0
M  V30 40861 H 3862.84 -3.01003 2.75429 0
M  V30 40862 H 3861.51 -2.17292 3.54622 0
M  V30 40863 H 3860.09 -3.14935 1.99676 0
M  V30 40864 N 3862.28 -1.33971 -0.830033 0
M  V30 40865 C 3863.55 -1.16516 -1.5711 0
M  V30 40866 C 3863.93 0.265038 -2.0943 0
M  V30 40867 O 3863.28 1.26536 -1.90265 0
M  V30 40868 C 3863.49 -2.21374 -2.69804 0
M  V30 40869 C 3864.84 -2.55986 -3.38757 0
M  V30 40870 O 3865.86 -2.20109 -2.80054 0
M  V30 40871 O 3864.72 -3.17588 -4.44748 0
M  V30 40872 H 3861.82 -0.451219 -0.693058 0
M  V30 40873 H 3864.36 -1.45581 -0.872022 0
M  V30 40874 H 3863.13 -3.17403 -2.28847 0
M  V30 40875 H 3862.76 -1.93445 -3.47368 0
M  V30 40876 N 3863.75 1.04937 -1.17584 0
M  V30 40877 C 3864.98 1.8139 -0.988993 0
M  V30 40878 C 3865.39 1.83373 0.465938 0
M  V30 40879 O 3864.73 1.26151 1.33535 0
M  V30 40880 C 3864.8 3.28669 -1.45661 0
M  V30 40881 C 3864.46 3.50364 -2.93418 0
M  V30 40882 C 3865.46 3.42276 -3.91335 0
M  V30 40883 C 3863.14 3.77243 -3.31652 0
M  V30 40884 C 3865.14 3.60757 -5.25484 0
M  V30 40885 C 3862.82 3.95372 -4.65966 0
M  V30 40886 C 3863.82 3.87128 -5.62691 0
M  V30 40887 O 3863.51 4.04749 -6.94575 0
M  V30 40888 H 3863.24 0.578356 -0.349972 0
M  V30 40889 H 3865.8 1.33204 -1.56352 0
M  V30 40890 H 3864.03 3.77782 -0.825668 0
M  V30 40891 H 3865.71 3.86654 -1.23504 0
M  V30 40892 H 3866.48 3.21484 -3.63143 0
M  V30 40893 H 3862.36 3.82763 -2.56932 0
M  V30 40894 H 3865.9 3.54238 -6.00967 0
M  V30 40895 H 3861.8 4.15657 -4.93862 0
M  V30 40896 H 3862.57 4.21959 -7.01351 0
M  V30 40897 N 3865.23 0.976485 1.23703 0
M  V30 40898 C 3866.19 0.518572 2.23257 0
M  V30 40899 C 3867.19 -0.389673 1.56007 0
M  V30 40900 O 3868.38 -0.183909 1.73226 0
M  V30 40901 C 3865.52 -0.247856 3.39998 0
M  V30 40902 H 3866.71 1.39877 2.65282 0
M  V30 40903 H 3864.26 0.76197 1.36469 0
M  V30 40904 H 3865 -1.14476 3.03423 0
M  V30 40905 H 3864.78 0.404044 3.90013 0
M  V30 40906 H 3866.27 -0.556962 4.13869 0
M  V30 40907 N 3866.71 -1.38737 0.747659 0
M  V30 40908 C 3867.67 -2.28862 0.124362 0
M  V30 40909 C 3868.67 -1.46909 -0.653791 0
M  V30 40910 O 3869.86 -1.6743 -0.480933 0
M  V30 40911 C 3866.99 -3.30578 -0.832543 0
M  V30 40912 H 3868.19 -2.85487 0.918542 0
M  V30 40913 H 3865.74 -1.47597 0.514288 0
M  V30 40914 H 3866.48 -2.79032 -1.65262 0
M  V30 40915 H 3866.26 -3.9112 -0.27704 0
M  V30 40916 H 3867.75 -3.97985 -1.26483 0
M  V30 40917 N 3868.19 -0.496268 -1.49583 0
M  V30 40918 C 3869.42 0.0468754 -2.06847 0
M  V30 40919 C 3869.83 1.31248 -1.35718 0
M  V30 40920 O 3869.19 1.77263 -0.434052 0
M  V30 40921 C 3869.24 0.309275 -3.60175 0
M  V30 40922 O 3868.96 -0.906157 -4.28626 0
M  V30 40923 C 3870.46 0.896588 -4.34138 0
M  V30 40924 H 3867.68 -0.0183442 -0.670749 0
M  V30 40925 H 3870.22 -0.69227 -1.92426 0
M  V30 40926 H 3868.38 0.998393 -3.74314 0
M  V30 40927 H 3868.79 -0.666105 -5.20253 0
M  V30 40928 H 3870.27 1.0298 -5.42309 0
M  V30 40929 H 3870.74 1.89318 -3.96302 0
M  V30 40930 H 3871.35 0.245084 -4.24593 0
M  V30 40931 N 3869.67 1.55914 -0.2299 0
M  V30 40932 C 3870.9 2.0262 0.403568 0
M  V30 40933 C 3871.3 1.10884 1.53302 0
M  V30 40934 O 3870.65 0.112344 1.83356 0
M  V30 40935 C 3870.71 3.45638 0.988666 0
M  V30 40936 C 3870.37 4.57 -0.00639032 0
M  V30 40937 C 3871.37 5.13554 -0.809804 0
M  V30 40938 C 3869.05 5.02138 -0.127562 0
M  V30 40939 C 3871.05 6.13726 -1.72101 0
M  V30 40940 C 3868.74 6.02146 -1.04229 0
M  V30 40941 C 3869.73 6.57817 -1.83756 0
M  V30 40942 O 3869.42 7.55876 -2.7369 0
M  V30 40943 H 3869.15 0.668247 0.102091 0
M  V30 40944 H 3871.71 2.0246 -0.346282 0
M  V30 40945 H 3869.94 3.42893 1.78776 0
M  V30 40946 H 3871.63 3.75943 1.53042 0
M  V30 40947 H 3872.39 4.79525 -0.726685 0
M  V30 40948 H 3868.27 4.5848 0.481335 0
M  V30 40949 H 3871.82 6.57106 -2.34217 0
M  V30 40950 H 3867.71 6.35596 -1.1264 0
M  V30 40951 H 3868.48 7.7343 -2.67859 0
M  V30 40952 N 3871.14 -0.043406 1.5754 0
M  V30 40953 C 3872.39 -0.736041 1.87791 0
M  V30 40954 C 3872.71 -1.77281 0.826497 0
M  V30 40955 O 3873.91 -2.51702 1.01776 0
M  V30 40956 C 3872.37 -1.36012 3.3321 0
M  V30 40957 C 3871.98 -0.360453 4.46548 0
M  V30 40958 C 3873.72 -2.03347 3.72626 0
M  V30 40959 C 3871.63 -0.992065 5.8302 0
M  V30 40960 H 3870.56 -0.278655 0.700619 0
M  V30 40961 H 3873.21 0.0100092 1.83497 0
M  V30 40962 H 3871.59 -2.1554 3.32203 0
M  V30 40963 H 3872.76 0.407068 4.58998 0
M  V30 40964 H 3871.08 0.210004 4.1587 0
M  V30 40965 H 3873.68 -2.51429 4.71898 0
M  V30 40966 H 3874.02 -2.84541 3.03879 0
M  V30 40967 H 3874.55 -1.30614 3.75746 0
M  V30 40968 H 3871.29 -0.219849 6.55131 0
M  V30 40969 H 3870.81 -1.72977 5.74316 0
M  V30 40970 H 3872.49 -1.50363 6.29285 0
M  V30 40971 N 3872.62 -1.54412 -0.315402 0
M  V30 40972 C 3873.55 -1.80716 -1.40977 0
M  V30 40973 C 3874.57 -0.689461 -1.4748 0
M  V30 40974 O 3875.76 -0.966708 -1.50057 0
M  V30 40975 C 3872.86 -1.91723 -2.79456 0
M  V30 40976 C 3872.03 -3.21975 -2.96059 0
M  V30 40977 C 3871.09 -3.2358 -4.14948 0
M  V30 40978 O 3870.11 -3.97182 -4.07719 0
M  V30 40979 N 3871.32 -2.47944 -5.24885 0
M  V30 40980 H 3874.08 -2.7516 -1.18773 0
M  V30 40981 H 3871.64 -1.53809 -0.505423 0
M  V30 40982 H 3873.63 -1.90215 -3.57212 0
M  V30 40983 H 3872.2 -1.04339 -2.94673 0
M  V30 40984 H 3871.42 -3.36376 -2.05535 0
M  V30 40985 H 3872.71 -4.07958 -3.04053 0
M  V30 40986 H 3872.11 -1.87751 -5.33635 0
M  V30 40987 H 3870.67 -2.52205 -6.01029 0
M  V30 40988 N 3874.1 0.57788 -1.46623 0
M  V30 40989 C 3875.35 1.33789 -1.52408 0
M  V30 40990 C 3875.68 1.9339 -0.177181 0
M  V30 40991 O 3874.95 1.76742 0.811939 0
M  V30 40992 C 3875.24 2.46361 -2.62637 0
M  V30 40993 C 3875.09 1.91764 -4.06874 0
M  V30 40994 C 3876.41 3.48386 -2.68915 0
M  V30 40995 H 3873.53 0.485097 -0.554842 0
M  V30 40996 H 3876.17 0.648708 -1.78583 0
M  V30 40997 H 3874.32 3.0515 -2.40449 0
M  V30 40998 H 3875.99 1.37395 -4.40364 0
M  V30 40999 H 3874.24 1.22562 -4.16126 0
M  V30 41000 H 3874.91 2.73047 -4.79739 0
M  V30 41001 H 3877.38 2.99485 -2.88873 0
M  V30 41002 H 3876.26 4.24605 -3.47854 0
M  V30 41003 H 3876.52 4.05922 -1.75156 0
M  V30 41004 N 3875.58 1.34409 0.822917 0
M  V30 41005 C 3876.83 1.26108 1.57416 0
M  V30 41006 C 3877.14 -0.16719 1.94884 0
M  V30 41007 O 3878.35 -0.372353 2.68935 0
M  V30 41008 C 3876.8 2.21064 2.84005 0
M  V30 41009 C 3876.41 3.69148 2.53838 0
M  V30 41010 C 3878.15 2.21671 3.62025 0
M  V30 41011 C 3876.06 4.55973 3.7662 0
M  V30 41012 H 3874.99 0.468472 0.590805 0
M  V30 41013 H 3877.64 1.59574 0.905999 0
M  V30 41014 H 3876.02 1.80549 3.52446 0
M  V30 41015 H 3877.2 4.182 1.93507 0
M  V30 41016 H 3875.51 3.70989 1.89093 0
M  V30 41017 H 3878.11 2.83762 4.53192 0
M  V30 41018 H 3878.45 1.216 3.98144 0
M  V30 41019 H 3878.99 2.6063 3.00527 0
M  V30 41020 H 3875.73 5.5698 3.45621 0
M  V30 41021 H 3875.25 4.11656 4.36233 0
M  V30 41022 H 3876.92 4.70581 4.4403 0
M  V30 41023 O 3877.1 -0.961333 1.29771 0
M  V30 41024 H 3877.79 -1.58853 1.1084 0
M  V30 END ATOM
M  V30 BEGIN BOND
M  V30 END BOND
M  V30 END CTAB
M  END
$$$$
