drugbank_target|Q9LCX9 Citrate synthase (DB01992; DB04272)
 OpenBabel12092120243D

  0  0  0     0  0            999 V3000
M  V30 BEGIN CTAB
M  V30 COUNTS 5966 6034 0 0 0
M  V30 BEGIN ATOM
M  V30 1 H -0.908 1.98254 -0.117106 0
M  V30 2 N 0 1.576 0 0
M  V30 3 C 0.933 2.03868 1.02534 0
M  V30 4 C 1.911 0.928543 1.3348 0
M  V30 5 O 3.095 1.19667 1.45644 0
M  V30 6 C 0.222 2.43627 2.35294 0
M  V30 7 C -0.732 3.65373 2.2001 0
M  V30 8 S 0.101 5.13292 1.52614 0
M  V30 9 C 1.257 5.56322 2.86805 0
M  V30 10 H 1.49 2.90518 0.631377 0
M  V30 11 H -0.977 1.52953 0.210867 0
M  V30 12 H 0.981 2.67203 3.11629 0
M  V30 13 H -0.358 1.57376 2.7183 0
M  V30 14 H -1.165 3.90944 3.18086 0
M  V30 15 H -1.563 3.418 1.51819 0
M  V30 16 H 0.729 5.58782 3.83104 0
M  V30 17 H 1.672 6.56266 2.65933 0
M  V30 18 H 2.08 4.83886 2.90714 0
M  V30 19 N 1.4781 -0.272755 1.55222 0
M  V30 20 C 2.3881 -1.35918 1.91216 0
M  V30 21 C 3.4041 -1.54026 0.809436 0
M  V30 22 O 4.5801 -1.68148 1.10852 0
M  V30 23 C 1.6451 -2.69834 2.17693 0
M  V30 24 C 0.7061 -2.6047 3.41253 0
M  V30 25 C -0.0609 -3.88 3.66458 0
M  V30 26 O 0.1621 -4.88693 2.94169 0
M  V30 27 O -0.9039 -3.88189 4.59992 0
M  V30 28 H 2.9221 -1.0839 2.83699 0
M  V30 29 H 0.5071 -0.471301 1.41771 0
M  V30 30 H 2.3891 -3.49017 2.36147 0
M  V30 31 H 1.0641 -2.97148 1.28392 0
M  V30 32 H -0.0289 -1.79663 3.28134 0
M  V30 33 H 1.3041 -2.38106 4.30774 0
M  V30 34 N 2.9562 -1.48159 -0.537278 0
M  V30 35 C 4.2022 -1.56035 -1.29541 0
M  V30 36 C 4.5352 -0.230377 -1.92829 0
M  V30 37 O 3.8102 0.762952 -1.78911 0
M  V30 38 C 4.0932 -2.69323 -2.39034 0
M  V30 39 C 3.9462 -4.12002 -1.80485 0
M  V30 40 C 5.2652 -2.78408 -3.40847 0
M  V30 41 H 2.3842 -0.567992 -0.469632 0
M  V30 42 H 5.0262 -1.80302 -0.599277 0
M  V30 43 H 3.1762 -2.48763 -2.98412 0
M  V30 44 H 4.8482 -4.43981 -1.25215 0
M  V30 45 H 3.0912 -4.19344 -1.11055 0
M  V30 46 H 3.7622 -4.87077 -2.59731 0
M  V30 47 H 6.2382 -2.97012 -2.91416 0
M  V30 48 H 5.1142 -3.59416 -4.14863 0
M  V30 49 H 5.3752 -1.86269 -4.00944 0
M  V30 50 N 4.4343 0.785586 -1.36625 0
M  V30 51 C 5.3973 1.87999 -1.31107 0
M  V30 52 C 6.3973 1.59316 -0.217959 0
M  V30 53 O 7.5873 1.67656 -0.472977 0
M  V30 54 C 4.7193 3.24861 -1.03334 0
M  V30 55 H 5.9123 1.94307 -2.2844 0
M  V30 56 H 3.4653 0.983813 -1.21453 0
M  V30 57 H 4.2003 3.24235 -0.0647432 0
M  V30 58 H 3.9853 3.4707 -1.82441 0
M  V30 59 H 5.4753 4.04929 -1.02088 0
M  V30 60 N 5.9124 1.20967 1.01018 0
M  V30 61 C 7.3284 0.965905 1.27053 0
M  V30 62 C 7.5284 -0.350785 1.98423 0
M  V30 63 O 6.5844 -1.07773 2.28344 0
M  V30 64 C 7.8974 2.15294 2.09926 0
M  V30 65 C 9.4454 2.19463 2.23171 0
M  V30 66 C 9.9204 3.3767 3.09424 0
M  V30 67 N 11.4114 3.37724 3.17012 0
M  V30 68 C 12.1464 4.25837 3.83993 0
M  V30 69 N 11.6424 5.24138 4.53047 0
M  V30 70 N 13.4354 4.1366 3.80581 0
M  V30 71 H 5.5864 2.0565 0.531194 0
M  V30 72 H 7.8494 0.90024 0.297106 0
M  V30 73 H 7.5554 3.10684 1.64828 0
M  V30 74 H 7.4294 2.13923 3.10672 0
M  V30 75 H 9.8164 1.24632 2.6749 0
M  V30 76 H 9.8974 2.2488 1.21912 0
M  V30 77 H 9.5414 4.32791 2.65808 0
M  V30 78 H 9.4714 3.29491 4.10784 0
M  V30 79 H 11.9624 2.6658 2.6785 0
M  V30 80 H 12.2754 5.87684 5.01844 0
M  V30 81 H 10.6204 5.28068 4.5185 0
M  V30 82 H 13.8114 3.36127 3.25785 0
M  V30 83 H 13.9844 4.82538 4.32505 0
M  V30 84 N 7.3905 -1.2043 1.01659 0
M  V30 85 C 8.6385 -1.89423 0.704522 0
M  V30 86 C 8.9595 -1.79231 -0.768197 0
M  V30 87 O 8.2295 -1.1947 -1.55254 0
M  V30 88 H 6.8095 -0.701178 0.257602 0
M  V30 89 H 9.4715 -1.4626 1.28818 0
M  V30 90 H 8.5675 -2.96052 0.987916 0
M  V30 91 N 8.8686 -0.792821 -1.36206 0
M  V30 92 C 9.7986 -0.207853 -2.32573 0
M  V30 93 C 10.7796 0.659055 -1.56813 0
M  V30 94 O 11.9646 0.592176 -1.84951 0
M  V30 95 C 9.0946 0.655449 -3.41059 0
M  V30 96 C 8.0486 -0.111842 -4.27854 0
M  V30 97 C 7.3746 0.872274 -5.27537 0
M  V30 98 C 8.6746 -1.30299 -5.05786 0
M  V30 99 H 10.3686 -1.01294 -2.81744 0
M  V30 100 H 7.9146 -0.48854 -1.3546 0
M  V30 101 H 9.8676 1.07464 -4.07467 0
M  V30 102 H 8.5916 1.49328 -2.90463 0
M  V30 103 H 7.2506 -0.512053 -3.63006 0
M  V30 104 H 6.8986 1.70523 -4.73214 0
M  V30 105 H 6.5986 0.363291 -5.86476 0
M  V30 106 H 8.1226 1.28996 -5.96818 0
M  V30 107 H 9.5366 -0.959379 -5.65216 0
M  V30 108 H 7.9336 -1.7455 -5.74154 0
M  V30 109 H 9.0036 -2.09663 -4.37229 0
M  V30 110 N 10.3467 1.47872 -0.545128 0
M  V30 111 C 11.2567 2.33633 0.212746 0
M  V30 112 C 12.2727 1.4744 0.923983 0
M  V30 113 O 13.4487 1.80393 0.895572 0
M  V30 114 C 10.5137 3.23884 1.23693 0
M  V30 115 C 9.5747 4.25961 0.534417 0
M  V30 116 C 8.8077 5.11899 1.5098 0
M  V30 117 O 9.0307 5.00077 2.7437 0
M  V30 118 O 7.9647 5.92831 1.0409 0
M  V30 119 H 11.7907 2.99714 -0.490416 0
M  V30 120 H 9.3757 1.46235 -0.305871 0
M  V30 121 H 11.2577 3.79666 1.82843 0
M  V30 122 H 9.9327 2.60446 1.92222 0
M  V30 123 H 8.8397 3.73972 -0.0979679 0
M  V30 124 H 10.1727 4.92079 -0.109213 0
M  V30 125 N 11.8248 0.280983 1.55075 0
M  V30 126 C 13.0728 -0.333455 1.9933 0
M  V30 127 C 13.3938 -1.55937 1.17085 0
M  V30 128 O 12.6638 -1.94143 0.261805 0
M  V30 129 H 11.2438 -0.126197 0.736263 0
M  V30 130 H 13.9058 0.387678 1.91005 0
M  V30 131 H 13.0018 -0.619292 3.05894 0
M  V30 132 N 13.3029 -1.57598 0.00835791 0
M  V30 133 C 14.5489 -1.91211 -0.675732 0
M  V30 134 C 14.8819 -0.883139 -1.72958 0
M  V30 135 O 14.1569 0.097016 -1.94258 0
M  V30 136 C 14.4399 -3.35379 -1.31123 0
M  V30 137 C 14.2929 -4.48999 -0.268356 0
M  V30 138 C 15.6119 -3.7912 -2.23508 0
M  V30 139 H 12.7309 -0.695374 -0.244179 0
M  V30 140 H 15.3729 -1.89901 0.0613655 0
M  V30 141 H 13.5229 -3.36626 -1.93946 0
M  V30 142 H 15.1949 -4.59887 0.360844 0
M  V30 143 H 13.4379 -4.31873 0.408482 0
M  V30 144 H 14.1089 -5.46851 -0.752218 0
M  V30 145 H 16.5849 -3.79477 -1.70693 0
M  V30 146 H 15.4609 -4.80729 -2.64936 0
M  V30 147 H 15.7219 -3.13455 -3.11766 0
M  V30 148 N 14.781 0.264519 -1.55364 0
M  V30 149 C 15.711 1.33121 -1.91836 0
M  V30 150 C 16.692 1.51101 -0.781192 0
M  V30 151 O 17.877 1.64003 -1.04003 0
M  V30 152 C 15.007 2.68921 -2.19769 0
M  V30 153 C 13.961 2.65661 -3.35571 0
M  V30 154 C 13.287 4.05093 -3.49004 0
M  V30 155 C 14.587 2.24187 -4.71739 0
M  V30 156 H 16.281 1.02844 -2.81182 0
M  V30 157 H 13.827 0.493286 -1.35287 0
M  V30 158 H 15.78 3.43663 -2.43872 0
M  V30 159 H 14.504 3.00799 -1.27231 0
M  V30 160 H 13.163 1.93377 -3.1145 0
M  V30 161 H 12.811 4.34206 -2.53917 0
M  V30 162 H 12.511 4.03804 -4.26868 0
M  V30 163 H 14.035 4.81561 -3.75408 0
M  V30 164 H 15.449 2.88654 -4.9533 0
M  V30 165 H 13.846 2.34044 -5.52579 0
M  V30 166 H 14.916 1.19327 -4.69988 0
M  V30 167 N 16.2591 1.48442 0.529413 0
M  V30 168 C 17.5061 1.56488 1.28521 0
M  V30 169 C 17.8341 0.239042 1.93025 0
M  V30 170 O 17.0891 -0.770713 1.79885 0
M  V30 171 C 17.3881 2.6523 2.39558 0
M  V30 172 C 17.0541 4.07648 1.92702 0
M  V30 173 C 15.7161 4.46411 1.79641 0
M  V30 174 C 18.0681 4.96896 1.573 0
M  V30 175 C 15.3961 5.72226 1.29514 0
M  V30 176 C 17.7481 6.23202 1.08636 0
M  V30 177 C 16.4121 6.60821 0.941919 0
M  V30 178 H 15.6821 0.572631 0.470292 0
M  V30 179 H 18.3291 1.82161 0.59072 0
M  V30 180 H 16.6341 2.33419 3.14679 0
M  V30 181 H 18.3311 2.68671 2.97686 0
M  V30 182 H 14.9211 3.77036 2.03819 0
M  V30 183 H 19.1051 4.67626 1.66251 0
M  V30 184 H 14.3611 6.00097 1.17019 0
M  V30 185 H 18.5351 6.91753 0.803136 0
M  V30 186 H 16.1621 7.58198 0.5513 0
M  V30 187 N 17.7372 -0.778329 1.37039 0
M  V30 188 C 18.9652 -1.56734 1.35063 0
M  V30 189 C 19.3802 -1.88686 -0.0655597 0
M  V30 190 O 18.7372 -1.5096 -1.02554 0
M  V30 191 C 18.7882 -2.88163 2.18276 0
M  V30 192 O 18.5092 -2.57583 3.54376 0
M  V30 193 C 20.0102 -3.82422 2.24206 0
M  V30 194 H 17.2302 -0.485778 0.462883 0
M  V30 195 H 19.7742 -0.965185 1.8029 0
M  V30 196 H 17.9292 -3.44818 1.76576 0
M  V30 197 H 18.3432 -3.41699 3.97922 0
M  V30 198 H 19.8172 -4.71667 2.86765 0
M  V30 199 H 20.2942 -4.21078 1.24861 0
M  V30 200 H 20.9002 -3.31697 2.6619 0
M  V30 201 N 19.2153 -1.21501 -1.00376 0
M  V30 202 C 20.1253 -0.991447 -2.12621 0
M  V30 203 C 21.1413 0.0568446 -1.73907 0
M  V30 204 O 22.3173 -0.13348 -2.00957 0
M  V30 205 C 19.3823 -0.560312 -3.42142 0
M  V30 206 C 18.4433 -1.68096 -3.95022 0
M  V30 207 C 17.6763 -1.2703 -5.18362 0
M  V30 208 O 17.8993 -0.144438 -5.70217 0
M  V30 209 O 16.8333 -2.08269 -5.64719 0
M  V30 210 H 20.6593 -1.93158 -2.34358 0
M  V30 211 H 18.2443 -0.999999 -1.10997 0
M  V30 212 H 20.1263 -0.329724 -4.20108 0
M  V30 213 H 18.8013 0.351089 -3.2179 0
M  V30 214 H 17.7083 -1.96597 -3.18278 0
M  V30 215 H 19.0413 -2.56983 -4.19786 0
M  V30 216 N 20.6934 1.19889 -1.02296 0
M  V30 217 C 21.9184 1.9393 -0.735237 0
M  V30 218 C 22.3434 1.74639 0.698782 0
M  V30 219 O 21.7014 1.04481 1.48167 0
M  V30 220 C 21.7494 3.43916 -1.08417 0
M  V30 221 O 20.8534 4.11917 -0.199446 0
M  V30 222 H 20.1944 0.605645 -0.272196 0
M  V30 223 H 22.7244 1.52137 -1.36804 0
M  V30 224 H 22.7344 3.9456 -1.03856 0
M  V30 225 H 21.4094 3.5728 -2.12894 0
M  V30 226 H 19.9864 3.71666 -0.303136 0
M  V30 227 N 22.1715 0.800033 1.35784 0
M  V30 228 C 23.5875 0.482977 1.52117 0
M  V30 229 C 23.7875 -0.996948 1.75109 0
M  V30 230 O 22.8435 -1.78216 1.78872 0
M  V30 231 C 24.1565 1.32264 2.70049 0
M  V30 232 C 25.7045 1.31742 2.83924 0
M  V30 233 C 26.1795 2.14106 4.04874 0
M  V30 234 N 27.6705 2.11607 4.12039 0
M  V30 235 C 28.4055 2.72099 5.04727 0
M  V30 236 N 27.9015 3.41492 6.02789 0
M  V30 237 N 29.6945 2.61776 4.97423 0
M  V30 238 H 21.8455 1.75856 1.19115 0
M  V30 239 H 24.1085 0.748122 0.582252 0
M  V30 240 H 23.8145 2.37261 2.59616 0
M  V30 241 H 23.6885 0.971303 3.6448 0
M  V30 242 H 26.0755 0.275333 2.93813 0
M  V30 243 H 26.1565 1.70859 1.9037 0
M  V30 244 H 25.8005 3.18351 3.95746 0
M  V30 245 H 25.7305 1.72353 4.97596 0
M  V30 246 H 28.2215 1.61112 3.41835 0
M  V30 247 H 28.5345 3.84953 6.70098 0
M  V30 248 H 26.8795 3.45596 6.02983 0
M  V30 249 H 30.0705 2.07157 4.19766 0
M  V30 250 H 30.2435 3.0921 5.69468 0
M  V30 251 N 23.6496 -1.47581 0.552962 0
M  V30 252 C 24.5826 -2.26883 -0.244857 0
M  V30 253 C 25.5606 -1.33784 -0.924147 0
M  V30 254 O 26.7446 -1.6316 -0.943981 0
M  V30 255 C 23.8716 -3.10695 -1.34856 0
M  V30 256 C 22.9176 -4.19339 -0.778268 0
M  V30 257 S 23.7506 -5.34207 0.37184 0
M  V30 258 C 24.9066 -6.21584 -0.733779 0
M  V30 259 H 25.1396 -2.94202 0.428087 0
M  V30 260 H 22.6726 -1.50628 0.339197 0
M  V30 261 H 24.6306 -3.59555 -1.98066 0
M  V30 262 H 23.2916 -2.42746 -1.99332 0
M  V30 263 H 22.4846 -4.77695 -1.60696 0
M  V30 264 H 22.0866 -3.73338 -0.222422 0
M  V30 265 H 24.3786 -6.57676 -1.62692 0
M  V30 266 H 25.3216 -7.07851 -0.187668 0
M  V30 267 H 25.7296 -5.55125 -1.02454 0
M  V30 268 N 25.1277 -0.289203 -1.54924 0
M  V30 269 C 26.3677 0.324536 -2.01807 0
M  V30 270 C 26.7317 1.5199 -1.17316 0
M  V30 271 O 27.9327 2.20422 -1.53843 0
M  V30 272 C 26.2037 0.683578 -3.50802 0
M  V30 273 S 27.7627 1.28185 -4.19659 0
M  V30 274 H 24.5807 0.100236 -0.703899 0
M  V30 275 H 27.1827 -0.414325 -1.91059 0
M  V30 276 H 25.8867 -0.195073 -4.09936 0
M  V30 277 H 25.4177 1.45354 -3.65562 0
M  V30 278 H 27.4327 2.57006 -4.24456 0
M  V30 279 N 26.6058 1.57591 -0.0167156 0
M  V30 280 C 27.8358 1.95292 0.674149 0
M  V30 281 C 28.2438 0.891097 1.66901 0
M  V30 282 O 27.5868 -0.136908 1.83189 0
M  V30 283 C 27.6488 3.29072 1.44747 0
M  V30 284 C 27.3128 4.52879 0.612331 0
M  V30 285 C 28.3098 5.1979 -0.107126 0
M  V30 286 C 25.9948 4.99242 0.553381 0
M  V30 287 C 27.9888 6.31375 -0.874339 0
M  V30 288 C 25.6758 6.10713 -0.217546 0
M  V30 289 C 26.6738 6.76637 -0.930123 0
M  V30 290 O 26.3618 7.85969 -1.68844 0
M  V30 291 H 26.0938 0.648275 0.191615 0
M  V30 292 H 28.6478 2.05284 -0.0690148 0
M  V30 293 H 26.8778 3.15535 2.2355 0
M  V30 294 H 28.5668 3.51764 2.02526 0
M  V30 295 H 29.3328 4.84948 -0.0708392 0
M  V30 296 H 25.2118 4.47744 1.09757 0
M  V30 297 H 28.7558 6.82764 -1.43106 0
M  V30 298 H 24.6528 6.44994 -0.255593 0
M  V30 299 H 25.4208 8.02571 -1.6069 0
M  V30 300 N 28.0839 -0.256276 1.55502 0
M  V30 301 C 29.3329 -0.983486 1.76098 0
M  V30 302 C 29.6459 -1.86837 0.578896 0
M  V30 303 O 30.8519 -2.63163 0.667648 0
M  V30 304 C 29.3079 -1.79868 3.1173 0
M  V30 305 C 28.9159 -0.961648 4.37557 0
M  V30 306 C 30.6599 -2.51919 3.41668 0
M  V30 307 C 28.5669 -1.77219 5.64223 0
M  V30 308 H 27.4969 -0.370936 0.656447 0
M  V30 309 H 30.1479 -0.238492 1.81944 0
M  V30 310 H 28.5299 -2.58527 2.99966 0
M  V30 311 H 29.7039 -0.218048 4.60284 0
M  V30 312 H 28.0189 -0.354913 4.14885 0
M  V30 313 H 30.6159 -3.12998 4.33516 0
M  V30 314 H 30.9589 -3.23059 2.62562 0
M  V30 315 H 31.4919 -1.80278 3.54605 0
M  V30 316 H 28.2309 -1.10471 6.46124 0
M  V30 317 H 27.7509 -2.49132 5.45613 0
M  V30 318 H 29.4299 -2.34169 6.03137 0
M  V30 319 N 29.562 -1.4872 -0.521534 0
M  V30 320 C 30.839 -1.4766 -1.2828 0
M  V30 321 C 31.219 -0.19292 -2.10217 0
M  V30 322 O 30.567 0.825193 -2.13079 0
M  V30 323 C 30.777 -2.74358 -2.15705 0
M  V30 324 C 32.125 -3.23028 -2.75569 0
M  V30 325 O 33.149 -2.75333 -2.25987 0
M  V30 326 O 32.008 -4.0604 -3.65778 0
M  V30 327 H 29.102 -0.590085 -0.579421 0
M  V30 328 H 31.648 -1.60963 -0.537492 0
M  V30 329 H 30.42 -3.59292 -1.54999 0
M  V30 330 H 30.043 -2.63816 -2.97467 0
M  V30 331 N 31.0401 0.771051 -1.3745 0
M  V30 332 C 32.2881 1.52661 -1.32435 0
M  V30 333 C 32.6091 1.9479 0.0905024 0
M  V30 334 O 31.8791 1.66348 1.03466 0
M  V30 335 H 30.4591 0.566218 -0.487244 0
M  V30 336 H 33.1211 0.917636 -1.71946 0
M  V30 337 H 32.2171 2.42568 -1.96385 0
M  V30 338 N 32.5182 1.22032 0.997298 0
M  V30 339 C 33.4502 0.944263 2.08845 0
M  V30 340 C 34.4632 -0.0754663 1.62625 0
M  V30 341 O 35.6522 0.157994 1.77799 0
M  V30 342 C 32.7522 0.397723 3.36558 0
M  V30 343 C 31.9252 1.47362 4.11829 0
M  V30 344 C 30.9842 0.934951 5.17827 0
M  V30 345 O 30.0102 1.62016 5.45655 0
M  V30 346 N 31.2122 -0.245895 5.79979 0
M  V30 347 H 33.9772 1.88363 2.33109 0
M  V30 348 H 31.5382 1.12661 1.16272 0
M  V30 349 H 33.5302 0.0227771 4.04694 0
M  V30 350 H 32.1002 -0.446646 3.09393 0
M  V30 351 H 31.3202 2.02208 3.38386 0
M  V30 352 H 32.6082 2.19764 4.58891 0
M  V30 353 H 32.0062 -0.819475 5.59733 0
M  V30 354 H 30.5632 -0.562272 6.4937 0
M  V30 355 N 33.9963 -1.19345 1.0293 0
M  V30 356 C 34.9283 -2.22036 0.56857 0
M  V30 357 C 35.9413 -1.58865 -0.355779 0
M  V30 358 O 37.1303 -1.77851 -0.152103 0
M  V30 359 C 34.2303 -3.38363 -0.190752 0
M  V30 360 C 33.4033 -4.31118 0.738643 0
M  V30 361 C 32.4623 -5.26194 0.0246497 0
M  V30 362 O 31.4883 -5.65461 0.651354 0
M  V30 363 N 32.6903 -5.66971 -1.24594 0
M  V30 364 H 35.4553 -2.6219 1.45177 0
M  V30 365 H 33.0163 -1.34015 0.908381 0
M  V30 366 H 35.0083 -3.98981 -0.677961 0
M  V30 367 H 33.5783 -2.96994 -0.975366 0
M  V30 368 H 32.7983 -3.68276 1.40593 0
M  V30 369 H 34.0863 -4.90001 1.37029 0
M  V30 370 H 33.4843 -5.37104 -1.77583 0
M  V30 371 H 32.0413 -6.2984 -1.67764 0
M  V30 372 N 35.4744 -0.807222 -1.35358 0
M  V30 373 C 36.7224 -0.387122 -1.98358 0
M  V30 374 C 37.0434 1.04942 -1.64354 0
M  V30 375 O 36.3134 1.72615 -0.926339 0
M  V30 376 H 34.8934 -0.140154 -0.733734 0
M  V30 377 H 37.5554 -1.0332 -1.6526 0
M  V30 378 H 36.6514 -0.493352 -3.08176 0
M  V30 379 N 36.9525 1.47285 -0.560781 0
M  V30 380 C 37.8995 2.30058 0.18491 0
M  V30 381 C 38.8695 1.39281 0.904986 0
M  V30 382 O 40.0545 1.68241 0.899979 0
M  V30 383 C 37.1945 3.23317 1.20666 0
M  V30 384 C 36.3075 4.29186 0.492285 0
M  V30 385 C 35.4425 5.09592 1.49964 0
M  V30 386 C 34.4815 6.07232 0.770439 0
M  V30 387 N 33.6185 6.80584 1.72479 0
M  V30 388 H 38.4585 2.93302 -0.527048 0
M  V30 389 H 35.9955 1.44568 -0.271738 0
M  V30 390 H 37.9535 3.75811 1.81168 0
M  V30 391 H 36.5835 2.61929 1.88661 0
M  V30 392 H 35.6355 3.7972 -0.227333 0
M  V30 393 H 36.9475 4.98738 -0.0787929 0
M  V30 394 H 36.1015 5.66254 2.17809 0
M  V30 395 H 34.8405 4.3995 2.10464 0
M  V30 396 H 33.8455 5.49745 0.0780846 0
M  V30 397 H 35.0705 6.78884 0.171134 0
M  V30 398 H 33.0165 6.1367 2.3183 0
M  V30 399 H 32.9335 7.46319 1.20596 0
M  V30 400 H 34.2015 7.41818 2.39428 0
M  V30 401 N 38.4306 0.297415 1.54768 0
M  V30 402 C 39.3606 -0.573494 2.26348 0
M  V30 403 C 40.3416 -1.14085 1.26169 0
M  V30 404 O 41.5266 -1.17086 1.54934 0
M  V30 405 C 38.6566 -1.74716 3.00153 0
M  V30 406 C 37.6106 -1.31032 4.07449 0
M  V30 407 C 36.9366 -2.56887 4.68949 0
M  V30 408 C 38.2366 -0.444183 5.20408 0
M  V30 409 H 39.9306 0.0235131 2.99391 0
M  V30 410 H 37.4766 0.0127488 1.43994 0
M  V30 411 H 39.4296 -2.3625 3.48947 0
M  V30 412 H 38.1536 -2.37035 2.24682 0
M  V30 413 H 36.8126 -0.718066 3.59499 0
M  V30 414 H 36.4606 -3.17512 3.90122 0
M  V30 415 H 36.1606 -2.2836 5.41411 0
M  V30 416 H 37.6846 -3.19229 5.20505 0
M  V30 417 H 39.0986 -0.9651 5.65118 0
M  V30 418 H 37.4956 -0.252846 5.99567 0
M  V30 419 H 38.5656 0.531609 4.81977 0
M  V30 420 N 39.9087 -1.5758 0.0250728 0
M  V30 421 C 41.1387 -1.95646 -0.663783 0
M  V30 422 C 41.5467 -0.899935 -1.66427 0
M  V30 423 O 40.8897 0.127191 -1.83259 0
M  V30 424 C 40.9517 -3.29835 -1.43 0
M  V30 425 C 40.6157 -4.53197 -0.588305 0
M  V30 426 C 41.6127 -5.19726 0.13469 0
M  V30 427 C 39.2977 -4.99529 -0.526897 0
M  V30 428 C 41.2917 -6.30902 0.90781 0
M  V30 429 C 38.9787 -6.10589 0.24993 0
M  V30 430 C 39.9767 -6.76134 0.965994 0
M  V30 431 O 39.6647 -7.85062 1.7301 0
M  V30 432 H 39.3967 -0.649282 -0.188174 0
M  V30 433 H 41.9507 -2.05245 0.0799006 0
M  V30 434 H 40.1807 -3.16716 -2.21873 0
M  V30 435 H 41.8697 -3.52833 -2.00658 0
M  V30 436 H 42.6357 -4.84904 0.0965562 0
M  V30 437 H 38.5147 -4.48319 -1.07381 0
M  V30 438 H 42.0587 -6.81995 1.46724 0
M  V30 439 H 37.9557 -6.44849 0.289795 0
M  V30 440 H 38.7237 -8.01708 1.64944 0
M  V30 441 N 41.3868 0.248026 -1.55636 0
M  V30 442 C 42.6168 0.992367 -1.81206 0
M  V30 443 C 43.0248 1.7949 -0.598324 0
M  V30 444 O 42.3678 1.78292 0.442434 0
M  V30 445 C 42.4298 1.97926 -3.00109 0
M  V30 446 C 42.0938 1.36377 -4.36177 0
M  V30 447 C 43.0908 0.76682 -5.14214 0
M  V30 448 C 40.7758 1.38347 -4.82872 0
M  V30 449 C 42.7698 0.197778 -6.37093 0
M  V30 450 C 40.4568 0.810574 -6.057 0
M  V30 451 C 41.4548 0.218754 -6.8265 0
M  V30 452 O 41.1428 -0.345298 -8.03158 0
M  V30 453 H 40.8748 0.297704 -0.606917 0
M  V30 454 H 43.4288 0.276517 -2.0353 0
M  V30 455 H 41.6588 2.73339 -2.73538 0
M  V30 456 H 43.3478 2.58694 -3.12781 0
M  V30 457 H 44.1138 0.744114 -4.79258 0
M  V30 458 H 39.9928 1.8335 -4.2297 0
M  V30 459 H 43.5368 -0.264788 -6.97097 0
M  V30 460 H 39.4338 0.830604 -6.40134 0
M  V30 461 H 40.2018 -0.237055 -8.18157 0
M  V30 462 N 42.8649 1.48995 0.513639 0
M  V30 463 C 44.0949 1.61297 1.291 0
M  V30 464 C 44.5029 0.278656 1.87137 0
M  V30 465 O 43.8459 -0.744325 1.67945 0
M  V30 466 C 43.9079 2.61326 2.46879 0
M  V30 467 C 43.5719 4.05993 2.09807 0
M  V30 468 C 44.5689 4.93183 1.64519 0
M  V30 469 C 42.2539 4.51642 2.19829 0
M  V30 470 C 44.2479 6.24056 1.2974 0
M  V30 471 C 41.9349 5.82532 1.84662 0
M  V30 472 C 42.9329 6.68562 1.3969 0
M  V30 473 O 42.6209 7.97014 1.04992 0
M  V30 474 H 42.3529 0.546236 0.39825 0
M  V30 475 H 44.9069 1.95673 0.62459 0
M  V30 476 H 43.1369 2.22104 3.16554 0
M  V30 477 H 44.8259 2.6329 3.08923 0
M  V30 478 H 45.5919 4.59147 1.56233 0
M  V30 479 H 41.4709 3.84855 2.53786 0
M  V30 480 H 45.0149 6.91161 0.945659 0
M  V30 481 H 40.9119 6.16099 1.92594 0
M  V30 482 H 41.6799 8.09913 1.18249 0
M  V30 483 N 44.343 -0.763751 1.37857 0
M  V30 484 C 45.591 -1.51957 1.33243 0
M  V30 485 C 45.912 -1.94835 -0.0801709 0
M  V30 486 O 45.182 -1.66894 -1.02582 0
M  V30 487 H 43.762 -0.563626 0.49024 0
M  V30 488 H 46.424 -0.908504 1.7243 0
M  V30 489 H 45.52 -2.41523 1.97669 0
M  V30 490 N 45.8211 -1.22559 -0.990812 0
M  V30 491 C 47.0701 -1.04553 -1.72486 0
M  V30 492 C 47.3831 0.419349 -1.91052 0
M  V30 493 O 48.5891 0.719121 -2.61803 0
M  V30 494 C 47.0451 -1.82231 -3.10355 0
M  V30 495 C 46.6531 -3.32981 -2.99713 0
M  V30 496 C 48.3971 -1.7268 -3.87791 0
M  V30 497 C 46.3041 -4.03091 -4.32748 0
M  V30 498 H 45.2341 -0.387614 -0.646739 0
M  V30 499 H 47.8851 -1.46429 -1.10593 0
M  V30 500 H 46.2671 -1.33155 -3.72942 0
M  V30 501 H 47.4411 -3.89466 -2.46278 0
M  V30 502 H 45.7561 -3.43231 -2.35758 0
M  V30 503 H 48.3531 -2.22381 -4.86262 0
M  V30 504 H 48.6961 -0.687607 -4.10582 0
M  V30 505 H 49.2291 -2.1931 -3.31885 0
M  V30 506 H 45.9681 -5.07273 -4.15156 0
M  V30 507 H 45.4881 -3.51394 -4.86089 0
M  V30 508 H 47.1671 -4.08804 -5.01486 0
M  V30 509 N 47.2992 1.18797 -1.03562 0
M  V30 510 C 48.7102 1.70322 -0.764676 0
M  V30 511 C 49.0612 1.82708 0.714996 0
M  V30 512 O 48.1862 1.50299 1.55689 0
M  V30 513 C 48.7812 3.09356 -1.38145 0
M  V30 514 C 47.3402 3.58114 -1.15895 0
M  V30 515 C 46.4872 2.34798 -1.4753 0
M  V30 516 H 49.4382 1.03543 -1.20268 0
M  V30 517 H 49.4592 3.72378 -0.781977 0
M  V30 518 H 48.9712 3.00309 -2.45837 0
M  V30 519 H 47.0722 3.72464 -0.100544 0
M  V30 520 H 47.1852 4.4184 -1.8524 0
M  V30 521 H 45.5492 2.38464 -0.894829 0
M  V30 522 H 46.3322 2.28375 -2.56319 0
M  V30 523 N 48.7773 0.814389 1.34928 0
M  V30 524 C 50.0263 0.394871 1.97797 0
M  V30 525 C 50.3393 -1.04555 1.65311 0
M  V30 526 O 51.5453 -1.56856 2.21604 0
M  V30 527 C 50.0013 0.655103 3.53888 0
M  V30 528 C 49.6093 2.10858 3.95276 0
M  V30 529 C 51.3533 0.301329 4.23429 0
M  V30 530 C 49.2603 2.31415 5.44244 0
M  V30 531 H 48.1903 0.143913 0.740139 0
M  V30 532 H 50.8413 0.999544 1.53888 0
M  V30 533 H 49.2233 -0.0196253 3.95995 0
M  V30 534 H 50.3973 2.82176 3.64298 0
M  V30 535 H 48.7123 2.42297 3.38646 0
M  V30 536 H 51.3093 0.432869 5.32945 0
M  V30 537 H 51.6523 -0.75331 4.09428 0
M  V30 538 H 52.1853 0.930288 3.86769 0
M  V30 539 H 48.9243 3.35353 5.63222 0
M  V30 540 H 48.4443 1.6463 5.76764 0
M  V30 541 H 50.1233 2.13352 6.10811 0
M  V30 542 N 50.2554 -1.46986 0.568584 0
M  V30 543 C 51.1874 -2.28233 -0.210337 0
M  V30 544 C 52.2004 -1.37682 -0.868767 0
M  V30 545 O 53.3894 -1.62406 -0.740705 0
M  V30 546 C 50.4894 -3.12293 -1.3163 0
M  V30 547 C 49.6624 -4.30878 -0.7525 0
M  V30 548 C 48.7214 -4.96445 -1.74439 0
M  V30 549 O 47.7474 -5.54482 -1.286 0
M  V30 550 N 48.9494 -4.92171 -3.07812 0
M  V30 551 H 51.7144 -2.95723 0.486648 0
M  V30 552 H 49.2754 -1.56742 0.405409 0
M  V30 553 H 51.2674 -3.53022 -1.97883 0
M  V30 554 H 49.8374 -2.46971 -1.91636 0
M  V30 555 H 49.0574 -3.94104 0.0871128 0
M  V30 556 H 50.3454 -5.07558 -0.35536 0
M  V30 557 H 49.7434 -4.46239 -3.47688 0
M  V30 558 H 48.3004 -5.36884 -3.69592 0
M  V30 559 N 51.7335 -0.305618 -1.54608 0
M  V30 560 C 52.6435 0.57778 -2.27374 0
M  V30 561 C 53.6595 1.14451 -1.31061 0
M  V30 562 O 54.8355 1.16831 -1.6405 0
M  V30 563 C 51.9005 1.73123 -3.00382 0
M  V30 564 C 50.9615 1.19812 -4.12242 0
M  V30 565 C 50.1945 2.2966 -4.81759 0
M  V30 566 O 50.4175 3.49651 -4.50666 0
M  V30 567 O 49.3515 1.96091 -5.69062 0
M  V30 568 H 53.1775 -0.012624 -3.03697 0
M  V30 569 H 50.7625 -0.0719184 -1.49227 0
M  V30 570 H 52.6445 2.40315 -3.4616 0
M  V30 571 H 51.3195 2.30815 -2.26949 0
M  V30 572 H 50.2265 0.491798 -3.70853 0
M  V30 573 H 51.5595 0.666566 -4.87666 0
M  V30 574 N 53.2116 1.57565 -0.0334293 0
M  V30 575 C 54.1416 2.13511 0.945265 0
M  V30 576 C 55.1226 1.05231 1.33643 0
M  V30 577 O 56.3076 1.33084 1.41429 0
M  V30 578 C 53.4376 2.6657 2.22616 0
M  V30 579 C 52.3916 3.79676 1.97561 0
M  V30 580 C 51.7176 4.1918 3.31952 0
M  V30 581 C 53.0176 5.0557 1.31135 0
M  V30 582 H 54.7116 2.95538 0.479325 0
M  V30 583 H 52.2576 1.42166 0.229115 0
M  V30 584 H 54.2106 3.04344 2.91466 0
M  V30 585 H 52.9346 1.8171 2.71384 0
M  V30 586 H 51.5936 3.42347 1.31127 0
M  V30 587 H 51.2416 3.31296 3.78487 0
M  V30 588 H 50.9416 4.95402 3.15992 0
M  V30 589 H 52.4656 4.59541 4.02063 0
M  V30 590 H 53.8796 5.40903 1.89992 0
M  V30 591 H 52.2766 5.86818 1.25559 0
M  V30 592 H 53.3466 4.84062 0.284894 0
M  V30 593 N 54.6897 -0.239769 1.55765 0
M  V30 594 C 55.6527 -1.28038 1.90103 0
M  V30 595 C 56.6527 -1.40723 0.778055 0
M  V30 596 O 57.8427 -1.39301 1.04599 0
M  V30 597 C 54.9747 -2.65702 2.13577 0
M  V30 598 H 56.1677 -0.988048 2.83157 0
M  V30 599 H 53.7207 -0.479382 1.48767 0
M  V30 600 H 54.4557 -3.00063 1.23015 0
M  V30 601 H 54.2407 -2.57875 2.95369 0
M  V30 602 H 55.7307 -3.40828 2.41301 0
M  V30 603 N 56.1678 -1.49265 -0.50573 0
M  V30 604 C 57.0778 -1.68312 -1.63427 0
M  V30 605 C 58.0938 -0.565682 -1.64548 0
M  V30 606 O 59.2698 -0.839801 -1.83055 0
M  V30 607 C 56.3348 -1.74107 -2.99813 0
M  V30 608 C 55.3958 -2.97653 -3.09356 0
M  V30 609 C 54.6288 -3.03163 -4.39236 0
M  V30 610 O 54.8518 -2.16396 -5.27758 0
M  V30 611 O 53.7858 -3.9558 -4.53652 0
M  V30 612 H 57.6118 -2.63907 -1.50289 0
M  V30 613 H 55.1968 -1.32951 -0.681502 0
M  V30 614 H 57.0788 -1.803 -3.80881 0
M  V30 615 H 55.7538 -0.816901 -3.13223 0
M  V30 616 H 54.6608 -2.96981 -2.27493 0
M  V30 617 H 55.9938 -3.89535 -3.00871 0
M  V30 618 N 57.6459 0.756429 -1.3826 0
M  V30 619 C 58.5929 1.87011 -1.35261 0
M  V30 620 C 59.5629 1.64695 -0.215616 0
M  V30 621 O 60.7479 1.864 -0.407399 0
M  V30 622 C 57.8879 3.24275 -1.18068 0
M  V30 623 C 57.0009 3.58442 -2.41129 0
M  V30 624 C 56.1359 4.84994 -2.16689 0
M  V30 625 C 55.1749 5.11939 -3.35537 0
M  V30 626 N 54.3119 6.29685 -3.10549 0
M  V30 627 H 59.1519 1.8891 -2.30472 0
M  V30 628 H 56.6889 0.923373 -1.14509 0
M  V30 629 H 58.6469 4.03479 -1.06116 0
M  V30 630 H 57.2769 3.21711 -0.264973 0
M  V30 631 H 56.3289 2.74103 -2.63764 0
M  V30 632 H 57.6409 3.74283 -3.29717 0
M  V30 633 H 56.7949 5.72135 -2.01857 0
M  V30 634 H 55.5339 4.71286 -1.25462 0
M  V30 635 H 54.5389 4.23268 -3.50891 0
M  V30 636 H 55.7639 5.27546 -4.27635 0
M  V30 637 H 53.7099 6.17306 -2.21967 0
M  V30 638 H 53.6269 6.46014 -3.92686 0
M  V30 639 H 54.8949 7.19722 -2.99367 0
M  V30 640 N 59.124 1.23083 0.984299 0
M  V30 641 C 60.349 1.088 1.76571 0
M  V30 642 C 60.774 -0.356657 1.84688 0
M  V30 643 O 60.132 -1.25788 1.30565 0
M  V30 644 C 60.18 1.71371 3.17277 0
M  V30 645 O 59.284 0.973213 4.00752 0
M  V30 646 H 58.625 0.381599 0.543395 0
M  V30 647 H 61.155 1.63057 1.23587 0
M  V30 648 H 61.165 1.76449 3.67872 0
M  V30 649 H 59.84 2.76493 3.10684 0
M  V30 650 H 58.417 0.999078 3.59267 0
M  V30 651 N 60.6021 -1.18246 1.0419 0
M  V30 652 C 61.8271 -1.92736 0.765996 0
M  V30 653 C 62.2521 -1.75728 -0.67091 0
M  V30 654 O 61.6101 -1.06825 -1.46486 0
M  V30 655 C 61.6581 -3.42148 1.13875 0
M  V30 656 O 60.7621 -4.11548 0.264954 0
M  V30 657 H 60.1031 -0.601238 0.281797 0
M  V30 658 H 62.6331 -1.49942 1.39207 0
M  V30 659 H 62.6431 -3.92858 1.1012 0
M  V30 660 H 61.3181 -3.53848 2.18551 0
M  V30 661 H 59.8951 -3.71137 0.362226 0
M  V30 662 N 62.0802 -0.821533 -1.34494 0
M  V30 663 C 63.3272 -0.408946 -1.98328 0
M  V30 664 C 63.6552 1.02764 -1.65136 0
M  V30 665 O 62.9102 1.73026 -0.914349 0
M  V30 666 C 63.2092 -0.556512 -3.53041 0
M  V30 667 C 62.8752 -1.95861 -4.0614 0
M  V30 668 C 61.5372 -2.34217 -4.20352 0
M  V30 669 C 63.8892 -2.87523 -4.34718 0
M  V30 670 C 61.2172 -3.63572 -4.6047 0
M  V30 671 C 63.5692 -4.1634 -4.76281 0
M  V30 672 C 62.2332 -4.54675 -4.88699 0
M  V30 673 H 61.5032 -0.149644 -0.725732 0
M  V30 674 H 64.1502 -1.04521 -1.6046 0
M  V30 675 H 62.4552 0.163148 -3.9146 0
M  V30 676 H 64.1522 -0.217826 -4.00408 0
M  V30 677 H 60.7422 -1.65066 -3.95539 0
M  V30 678 H 64.9262 -2.59133 -4.23277 0
M  V30 679 H 60.1822 -3.93101 -4.68275 0
M  V30 680 H 64.3562 -4.87455 -4.97354 0
M  V30 681 H 61.9832 -5.54959 -5.19542 0
M  V30 682 N 63.5583 1.46682 -0.576371 0
M  V30 683 C 64.4683 2.34032 0.163141 0
M  V30 684 C 65.4843 1.49367 0.892501 0
M  V30 685 O 66.6603 1.82252 0.857106 0
M  V30 686 C 63.7253 3.26435 1.16795 0
M  V30 687 C 62.7863 4.26998 0.443944 0
M  V30 688 C 62.0193 5.14986 1.40088 0
M  V30 689 O 62.2423 5.05785 2.637 0
M  V30 690 O 61.1763 5.94906 0.914917 0
M  V30 691 H 65.0023 2.98607 -0.55388 0
M  V30 692 H 62.5873 1.45554 -0.336821 0
M  V30 693 H 64.4693 3.83459 1.74748 0
M  V30 694 H 63.1443 2.64465 1.86655 0
M  V30 695 H 62.0513 3.7368 -0.177271 0
M  V30 696 H 63.3843 4.91736 -0.213566 0
M  V30 697 N 65.0364 0.313813 1.54444 0
M  V30 698 C 65.9464 -0.565714 2.27677 0
M  V30 699 C 66.9624 -1.13754 1.31666 0
M  V30 700 O 68.1384 -1.15959 1.64668 0
M  V30 701 C 65.2034 -1.71528 3.01296 0
M  V30 702 C 64.2644 -1.17624 4.12872 0
M  V30 703 C 63.4974 -2.27102 4.8297 0
M  V30 704 O 63.7204 -3.47256 4.52514 0
M  V30 705 O 62.6544 -1.9307 5.70094 0
M  V30 706 H 66.4804 0.0287296 3.03686 0
M  V30 707 H 64.0654 0.0798312 1.49187 0
M  V30 708 H 65.9474 -2.38476 3.4743 0
M  V30 709 H 64.6224 -2.29608 2.2817 0
M  V30 710 H 63.5294 -0.472124 3.71109 0
M  V30 711 H 64.8624 -0.640695 4.88012 0
M  V30 712 N 66.5145 -1.57545 0.0417849 0
M  V30 713 C 67.7425 -1.96624 -0.643928 0
M  V30 714 C 68.1575 -0.918897 -1.64929 0
M  V30 715 O 67.5145 0.0979323 -1.82237 0
M  V30 716 C 67.5655 -3.35781 -1.33914 0
M  V30 717 O 67.2865 -4.365 -0.374048 0
M  V30 718 C 68.7875 -3.89566 -2.1155 0
M  V30 719 H 66.0075 -0.647316 -0.176702 0
M  V30 720 H 68.5515 -2.04229 0.105304 0
M  V30 721 H 66.7065 -3.29357 -2.03968 0
M  V30 722 H 67.1205 -5.17248 -0.869179 0
M  V30 723 H 68.5945 -4.89242 -2.55628 0
M  V30 724 H 69.0715 -3.24488 -2.9598 0
M  V30 725 H 69.6775 -3.99298 -1.46427 0
M  V30 726 N 67.9926 0.231505 -1.5589 0
M  V30 727 C 69.2206 0.974505 -1.82513 0
M  V30 728 C 69.6356 1.78344 -0.619591 0
M  V30 729 O 68.9926 1.77792 0.411848 0
M  V30 730 C 69.0436 1.90007 -3.07538 0
M  V30 731 O 68.7646 1.12385 -4.2344 0
M  V30 732 C 70.2656 2.75779 -3.47075 0
M  V30 733 H 67.4856 0.286065 -0.606966 0
M  V30 734 H 70.0296 0.249739 -2.02969 0
M  V30 735 H 68.1846 2.57891 -2.89086 0
M  V30 736 H 68.5986 1.75125 -4.944 0
M  V30 737 H 70.0726 3.36443 -4.37619 0
M  V30 738 H 70.5496 3.47672 -2.68367 0
M  V30 739 H 71.1556 2.13323 -3.67931 0
M  V30 740 N 69.4707 1.49531 0.497807 0
M  V30 741 C 70.7177 1.59179 1.25173 0
M  V30 742 C 71.0457 0.279932 1.92475 0
M  V30 743 O 70.3007 -0.732383 1.81479 0
M  V30 744 C 70.5997 2.70252 2.33878 0
M  V30 745 C 70.2657 4.11644 1.84012 0
M  V30 746 C 68.9277 4.50121 1.70132 0
M  V30 747 C 71.2797 5.00121 1.46725 0
M  V30 748 C 68.6077 5.74845 1.17348 0
M  V30 749 C 70.9597 6.25366 0.95392 0
M  V30 750 C 69.6237 6.6267 0.801538 0
M  V30 751 H 68.8937 0.582478 0.45804 0
M  V30 752 H 71.5407 1.83373 0.551948 0
M  V30 753 H 69.8457 2.40041 3.09657 0
M  V30 754 H 71.5427 2.74925 2.9192 0
M  V30 755 H 68.1327 3.81274 1.95775 0
M  V30 756 H 72.3167 4.71048 1.56294 0
M  V30 757 H 67.5727 6.02444 1.04264 0
M  V30 758 H 71.7467 6.93301 0.656225 0
M  V30 759 H 69.3737 7.59197 0.390351 0
M  V30 760 N 70.9488 -0.749086 1.3866 0
M  V30 761 C 71.8788 -1.8764 1.38973 0
M  V30 762 C 72.8598 -1.68178 0.255004 0
M  V30 763 O 74.0448 -1.88704 0.458754 0
M  V30 764 C 71.1748 -3.25222 1.21851 0
M  V30 765 C 70.1288 -3.59295 2.32575 0
M  V30 766 C 69.4548 -4.95663 2.00555 0
M  V30 767 C 70.7548 -3.63709 3.7485 0
M  V30 768 H 72.4488 -1.87635 2.3331 0
M  V30 769 H 69.9948 -0.901329 1.12303 0
M  V30 770 H 71.9478 -4.03746 1.20695 0
M  V30 771 H 70.6718 -3.25719 0.239775 0
M  V30 772 H 69.3308 -2.83093 2.32925 0
M  V30 773 H 68.9788 -4.92724 1.01154 0
M  V30 774 H 68.6788 -5.19429 2.74714 0
M  V30 775 H 70.2028 -5.7656 2.01024 0
M  V30 776 H 71.6168 -4.32338 3.76506 0
M  V30 777 H 70.0138 -3.98986 4.48252 0
M  V30 778 H 71.0838 -2.63834 4.06841 0
M  V30 779 N 72.4269 -1.23603 -0.977757 0
M  V30 780 C 73.3569 -1.04401 -2.0886 0
M  V30 781 C 74.3379 0.0399052 -1.70053 0
M  V30 782 O 75.5229 -0.125246 -1.93796 0
M  V30 783 C 72.6529 -0.637269 -3.41403 0
M  V30 784 C 71.6069 -1.66883 -3.94124 0
M  V30 785 C 70.9329 -1.11745 -5.22893 0
M  V30 786 C 72.2329 -3.06247 -4.23096 0
M  V30 787 H 73.9269 -1.97316 -2.25182 0
M  V30 788 H 71.4729 -0.950096 -1.08209 0
M  V30 789 H 73.4259 -0.48998 -4.18542 0
M  V30 790 H 72.1499 0.327557 -3.24953 0
M  V30 791 H 70.8089 -1.80416 -3.19133 0
M  V30 792 H 70.4569 -0.143527 -5.02795 0
M  V30 793 H 70.1569 -1.80672 -5.59134 0
M  V30 794 H 71.6809 -0.982067 -6.02651 0
M  V30 795 H 73.0949 -2.96001 -4.90975 0
M  V30 796 H 71.4919 -3.72436 -4.70544 0
M  V30 797 H 72.5619 -3.55041 -3.30263 0
M  V30 798 N 73.905 1.17692 -1.04816 0
M  V30 799 C 74.835 2.23777 -0.666791 0
M  V30 800 C 75.816 1.66796 0.33361 0
M  V30 801 O 77.001 1.93039 0.212042 0
M  V30 802 C 74.131 3.47281 -0.0367933 0
M  V30 803 C 73.085 4.17059 -0.961546 0
M  V30 804 C 72.411 5.34342 -0.195626 0
M  V30 805 C 73.711 4.69713 -2.28402 0
M  V30 806 H 75.405 2.55933 -1.55367 0
M  V30 807 H 72.951 1.23019 -0.748484 0
M  V30 808 H 74.904 4.20706 0.241775 0
M  V30 809 H 73.628 3.14381 0.885004 0
M  V30 810 H 72.287 3.45541 -1.22462 0
M  V30 811 H 71.935 4.97692 0.728816 0
M  V30 812 H 71.635 5.81966 -0.811775 0
M  V30 813 H 73.159 6.10553 0.0757473 0
M  V30 814 H 74.573 5.34794 -2.06563 0
M  V30 815 H 72.97 5.279 -2.8538 0
M  V30 816 H 74.04 3.86726 -2.92525 0
M  V30 817 N 75.3831 0.828654 1.34056 0
M  V30 818 C 76.3331 0.226828 2.26869 0
M  V30 819 C 77.3171 -0.612243 1.48796 0
M  V30 820 O 78.5091 -0.465884 1.70759 0
M  V30 821 C 75.6381 -0.605654 3.37915 0
M  V30 822 C 74.7241 0.244361 4.23395 0
M  V30 823 N 75.1151 1.31815 4.88322 0
M  V30 824 C 73.4131 0.0296616 4.4599 0
M  V30 825 C 74.1141 1.83895 5.51867 0
M  V30 826 N 73.0901 1.14196 5.3147 0
M  V30 827 H 76.8921 1.04811 2.74576 0
M  V30 828 H 74.4061 0.67205 1.47842 0
M  V30 829 H 76.4031 -1.05302 4.03382 0
M  V30 830 H 75.0631 -1.42504 2.91758 0
M  V30 831 H 76.0741 1.70099 4.8917 0
M  V30 832 H 72.7511 -0.757097 4.10578 0
M  V30 833 H 74.1411 2.7376 6.136 0
M  V30 834 N 76.8612 -1.46375 0.584142 0
M  V30 835 C 78.1092 -2.01978 0.0701287 0
M  V30 836 C 78.4302 -1.4579 -1.295 0
M  V30 837 O 77.7002 -0.64314 -1.85042 0
M  V30 838 H 76.2802 -0.746648 0.0229345 0
M  V30 839 H 78.9422 -1.79461 0.760245 0
M  V30 840 H 78.0382 -3.121 0.0022064 0
M  V30 841 N 78.3393 -0.321999 -1.54275 0
M  V30 842 C 79.7553 0.0306999 -1.5957 0
M  V30 843 C 79.9553 1.50614 -1.33857 0
M  V30 844 O 79.0113 2.2619 -1.12223 0
M  V30 845 C 80.3243 -0.386122 -2.98211 0
M  V30 846 C 81.8723 -0.336647 -3.11184 0
M  V30 847 C 82.3473 -0.728607 -4.52167 0
M  V30 848 N 83.8383 -0.681952 -4.58152 0
M  V30 849 C 84.5733 -0.957449 -5.6535 0
M  V30 850 N 84.0693 -1.3 -6.80494 0
M  V30 851 N 85.8623 -0.883113 -5.55119 0
M  V30 852 H 78.0133 -1.28332 -1.69247 0
M  V30 853 H 80.2763 -0.521716 -0.791528 0
M  V30 854 H 79.9823 -1.41404 -3.22022 0
M  V30 855 H 79.8563 0.249662 -3.76373 0
M  V30 856 H 82.2433 0.682058 -2.8711 0
M  V30 857 H 82.3243 -1.00734 -2.3513 0
M  V30 858 H 81.9683 -1.74522 -4.76974 0
M  V30 859 H 81.8983 -0.0356152 -5.26588 0
M  V30 860 H 84.3893 -0.428985 -3.75457 0
M  V30 861 H 84.7023 -1.49563 -7.58189 0
M  V30 862 H 83.0473 -1.33824 -6.81994 0
M  V30 863 H 86.2383 -0.615001 -4.64042 0
M  V30 864 H 86.4113 -1.10118 -6.38575 0
M  V30 865 N 79.8174 1.5752 -0.0501392 0
M  V30 866 C 80.7474 2.14502 0.922566 0
M  V30 867 C 81.7284 1.06642 1.3252 0
M  V30 868 O 82.9134 1.34577 1.4001 0
M  V30 869 C 80.0434 2.68916 2.19776 0
M  V30 870 C 78.9974 3.8175 1.93523 0
M  V30 871 C 78.3234 4.22677 3.27487 0
M  V30 872 C 79.6234 5.06932 1.25765 0
M  V30 873 H 81.3174 2.9603 0.447952 0
M  V30 874 H 78.8634 1.42401 0.214024 0
M  V30 875 H 80.8164 3.07419 2.88222 0
M  V30 876 H 79.5404 1.84578 2.69441 0
M  V30 877 H 78.1994 3.43718 1.27489 0
M  V30 878 H 77.8474 3.35291 3.74952 0
M  V30 879 H 77.5474 4.98725 3.1072 0
M  V30 880 H 79.0714 4.63779 3.97166 0
M  V30 881 H 80.4854 5.42888 1.84244 0
M  V30 882 H 78.8824 5.88116 1.19328 0
M  V30 883 H 79.9524 4.84337 0.233536 0
M  V30 884 N 81.2955 -0.223234 1.56011 0
M  V30 885 C 82.7065 -0.790368 1.69145 0
M  V30 886 C 83.0575 -1.85055 0.651845 0
M  V30 887 O 82.1825 -2.15498 -0.197359 0
M  V30 888 C 82.7775 -1.4404 3.06656 0
M  V30 889 C 81.3365 -1.95494 3.2165 0
M  V30 890 C 80.4835 -0.814506 2.65068 0
M  V30 891 H 83.4345 0.00139011 1.587 0
M  V30 892 H 83.4555 -2.30916 3.0242 0
M  V30 893 H 82.9675 -0.668543 3.82298 0
M  V30 894 H 81.0685 -2.75487 2.50874 0
M  V30 895 H 81.1815 -2.13607 4.28846 0
M  V30 896 H 79.5455 -1.22137 2.23505 0
M  V30 897 H 80.3285 -0.0553515 3.43255 0
M  V30 898 N 82.7736 -1.49793 -0.48987 0
M  V30 899 C 84.1896 -1.36803 -0.822022 0
M  V30 900 C 84.3896 -0.409652 -1.97292 0
M  V30 901 O 83.4456 0.154614 -2.52026 0
M  V30 902 C 84.7586 -2.77768 -1.15175 0
M  V30 903 C 86.3066 -2.86549 -1.25931 0
M  V30 904 C 86.7816 -4.28306 -1.62228 0
M  V30 905 N 88.2726 -4.31169 -1.69256 0
M  V30 906 C 89.0076 -5.37832 -1.98807 0
M  V30 907 N 88.5036 -6.54726 -2.26507 0
M  V30 908 N 90.2966 -5.25258 -2.00152 0
M  V30 909 H 82.4476 -2.10691 0.268881 0
M  V30 910 H 84.7106 -0.946241 0.057728 0
M  V30 911 H 84.4166 -3.49648 -0.379335 0
M  V30 912 H 84.2906 -3.13836 -2.09253 0
M  V30 913 H 86.6776 -2.14899 -2.02243 0
M  V30 914 H 86.7586 -2.54049 -0.298776 0
M  V30 915 H 86.4026 -5.00486 -0.864622 0
M  V30 916 H 86.3326 -4.58279 -2.594 0
M  V30 917 H 88.8236 -3.4687 -1.49965 0
M  V30 918 H 89.1366 -7.31833 -2.48276 0
M  V30 919 H 87.4816 -6.57933 -2.23939 0
M  V30 920 H 90.6726 -4.32938 -1.77996 0
M  V30 921 H 90.8456 -6.08476 -2.22848 0
M  V30 922 N 84.2517 0.741722 -1.39055 0
M  V30 923 C 85.6677 1.04638 -1.20512 0
M  V30 924 C 85.8677 2.01405 -0.0620218 0
M  V30 925 O 84.9237 2.45547 0.588457 0
M  V30 926 C 86.2367 1.6151 -2.53643 0
M  V30 927 C 87.7847 1.73623 -2.6043 0
M  V30 928 C 88.2597 2.33906 -3.93767 0
M  V30 929 N 89.7507 2.41323 -3.9537 0
M  V30 930 C 90.4857 2.88888 -4.95309 0
M  V30 931 N 89.9817 3.36401 -6.05645 0
M  V30 932 N 91.7747 2.88037 -4.82692 0
M  V30 933 H 83.9257 0.0998155 -2.12165 0
M  V30 934 H 86.1887 0.106907 -0.941953 0
M  V30 935 H 85.8947 0.978739 -3.37807 0
M  V30 936 H 85.7687 2.60411 -2.72885 0
M  V30 937 H 88.1557 2.36384 -1.76655 0
M  V30 938 H 88.2367 0.733945 -2.45045 0
M  V30 939 H 87.8807 1.71776 -4.7797 0
M  V30 940 H 87.8107 3.34799 -4.06469 0
M  V30 941 H 90.3017 2.07734 -3.15682 0
M  V30 942 H 90.6147 3.71186 -6.77821 0
M  V30 943 H 88.9597 3.34427 -6.09248 0
M  V30 944 H 92.1507 2.50237 -3.95599 0
M  V30 945 H 92.3237 3.24792 -5.60726 0
M  V30 946 N 85.7298 1.2412 0.971189 0
M  V30 947 C 86.6618 0.988349 2.06795 0
M  V30 948 C 87.6748 -0.0409541 1.62748 0
M  V30 949 O 88.8638 0.195673 1.77424 0
M  V30 950 C 85.9638 0.469023 3.35639 0
M  V30 951 C 85.1368 1.56065 4.08611 0
M  V30 952 C 84.1958 1.04458 5.15728 0
M  V30 953 O 83.2218 1.73553 5.42096 0
M  V30 954 N 84.4238 -0.122817 5.8037 0
M  V30 955 H 87.1888 1.93265 2.29061 0
M  V30 956 H 84.7498 1.15102 1.13856 0
M  V30 957 H 86.7418 0.108613 4.04554 0
M  V30 958 H 85.3118 -0.380919 3.1027 0
M  V30 959 H 84.5318 2.09341 3.34021 0
M  V30 960 H 85.8198 2.29449 4.54126 0
M  V30 961 H 85.2178 -0.700563 5.61345 0
M  V30 962 H 83.7748 -0.424404 6.50417 0
M  V30 963 N 87.2079 -1.17134 1.05439 0
M  V30 964 C 88.1179 -2.24878 0.668365 0
M  V30 965 C 89.1339 -1.71186 -0.311687 0
M  V30 966 O 90.3099 -2.00738 -0.163161 0
M  V30 967 C 87.3749 -3.46662 0.051648 0
M  V30 968 C 86.4359 -4.15429 1.08246 0
M  V30 969 C 85.6689 -5.31399 0.495082 0
M  V30 970 O 85.8919 -5.66153 -0.694743 0
M  V30 971 O 84.8259 -5.89187 1.23056 0
M  V30 972 H 88.6519 -2.60189 1.56637 0
M  V30 973 H 86.2369 -1.24482 0.826104 0
M  V30 974 H 88.1189 -4.20394 -0.290966 0
M  V30 975 H 86.7939 -3.13142 -0.819971 0
M  V30 976 H 85.7009 -3.43704 1.47711 0
M  V30 977 H 87.0339 -4.52982 1.92532 0
M  V30 978 N 88.686 -0.835752 -1.33615 0
M  V30 979 C 89.616 -0.281739 -2.31794 0
M  V30 980 C 90.597 0.608833 -1.58831 0
M  V30 981 O 91.782 0.533035 -1.86741 0
M  V30 982 C 88.912 0.546612 -3.42971 0
M  V30 983 C 87.866 -0.247904 -4.27281 0
M  V30 984 C 87.192 0.704001 -5.30045 0
M  V30 985 C 88.492 -1.46324 -5.01385 0
M  V30 986 H 90.186 -1.10206 -2.78379 0
M  V30 987 H 87.732 -0.531388 -1.33837 0
M  V30 988 H 89.685 0.944467 -4.1068 0
M  V30 989 H 88.409 1.40011 -2.95067 0
M  V30 990 H 87.068 -0.627281 -3.61194 0
M  V30 991 H 86.716 1.55381 -4.78399 0
M  V30 992 H 86.416 0.176524 -5.87335 0
M  V30 993 H 87.94 1.09944 -6.0062 0
M  V30 994 H 89.354 -1.13871 -5.61877 0
M  V30 995 H 87.751 -1.92728 -5.6831 0
M  V30 996 H 88.821 -2.23467 -4.30338 0
M  V30 997 N 90.1641 1.46063 -0.591896 0
M  V30 998 C 91.0741 2.34192 0.13831 0
M  V30 999 C 92.0901 1.50305 0.876608 0
M  V30 1000 O 93.2661 1.8315 0.837728 0
M  V30 1001 C 90.3311 3.27656 1.13326 0
M  V30 1002 C 89.3921 4.27445 0.39863 0
M  V30 1003 C 88.6251 5.16443 1.34618 0
M  V30 1004 O 88.8481 5.08553 2.58321 0
M  V30 1005 O 87.7821 5.95843 0.851768 0
M  V30 1006 H 91.6081 2.98002 -0.58552 0
M  V30 1007 H 89.1931 1.45188 -0.352239 0
M  V30 1008 H 91.0751 3.85291 1.70671 0
M  V30 1009 H 89.7501 2.6643 1.83839 0
M  V30 1010 H 88.6571 3.73471 -0.216895 0
M  V30 1011 H 89.9901 4.91482 -0.265709 0
M  V30 1012 N 91.6422 0.330177 1.54103 0
M  V30 1013 C 92.5522 -0.541534 2.28264 0
M  V30 1014 C 93.5682 -1.12351 1.32866 0
M  V30 1015 O 94.7442 -1.14206 1.65888 0
M  V30 1016 C 91.8092 -1.68322 3.03098 0
M  V30 1017 C 90.8702 -1.13238 4.14096 0
M  V30 1018 C 90.1032 -2.21966 4.85352 0
M  V30 1019 O 90.3262 -3.42437 4.56172 0
M  V30 1020 O 89.2602 -1.87013 5.7211 0
M  V30 1021 H 93.0862 0.060938 3.03639 0
M  V30 1022 H 90.6712 0.09565 1.49093 0
M  V30 1023 H 92.5532 -2.34777 3.49939 0
M  V30 1024 H 91.2282 -2.27176 2.30593 0
M  V30 1025 H 90.1352 -0.432736 3.71589 0
M  V30 1026 H 91.4682 -0.588898 4.88664 0
M  V30 1027 N 93.1203 -1.57491 0.0584922 0
M  V30 1028 C 94.3673 -1.92978 -0.613648 0
M  V30 1029 C 94.6953 -0.937461 -1.70417 0
M  V30 1030 O 93.9503 0.049078 -1.95638 0
M  V30 1031 C 94.2493 -3.3513 -1.24188 0
M  V30 1032 C 93.9153 -4.50037 -0.278826 0
M  V30 1033 C 92.5773 -4.81198 -0.0138447 0
M  V30 1034 C 94.9293 -5.19807 0.380777 0
M  V30 1035 C 92.2573 -5.79473 0.918052 0
M  V30 1036 C 94.6093 -6.19079 1.30091 0
M  V30 1037 C 93.2733 -6.48665 1.57449 0
M  V30 1038 H 92.5433 -0.706157 -0.22455 0
M  V30 1039 H 95.1903 -1.91082 0.126533 0
M  V30 1040 H 93.4953 -3.33429 -2.05749 0
M  V30 1041 H 95.1923 -3.59871 -1.769 0
M  V30 1042 H 91.7823 -4.25726 -0.495539 0
M  V30 1043 H 95.9663 -4.95939 0.189158 0
M  V30 1044 H 91.2223 -6.00727 1.1374 0
M  V30 1045 H 95.3963 -6.7225 1.81804 0
M  V30 1046 H 93.0233 -7.24628 2.29822 0
M  V30 1047 N 94.5984 0.214957 -1.56127 0
M  V30 1048 C 95.8234 0.95924 -1.83884 0
M  V30 1049 C 96.2484 1.7689 -0.639644 0
M  V30 1050 O 95.6064 1.76566 0.411601 0
M  V30 1051 C 95.6544 1.84723 -3.09693 0
M  V30 1052 O 94.7584 2.94346 -2.8885 0
M  V30 1053 H 94.0994 0.27125 -0.606069 0
M  V30 1054 H 96.6294 0.226276 -2.03345 0
M  V30 1055 H 96.6394 2.25576 -3.39969 0
M  V30 1056 H 95.3144 1.25218 -3.96602 0
M  V30 1057 H 93.8914 2.57391 -2.69823 0
M  V30 1058 N 96.0765 1.50051 0.48192 0
M  V30 1059 C 97.0395 1.67584 1.5636 0
M  V30 1060 C 98.0395 0.546894 1.51214 0
M  V30 1061 O 99.2295 0.813725 1.54026 0
M  V30 1062 C 96.3615 1.691 2.96003 0
M  V30 1063 H 97.5545 2.64078 1.42136 0
M  V30 1064 H 95.1075 1.39369 0.707533 0
M  V30 1065 H 95.8425 0.742589 3.15684 0
M  V30 1066 H 95.6275 2.51105 3.01146 0
M  V30 1067 H 97.1175 1.84656 3.74556 0
M  V30 1068 N 97.5546 -0.734337 1.39446 0
M  V30 1069 C 98.5176 -1.83004 1.37994 0
M  V30 1070 C 99.5176 -1.58397 0.276938 0
M  V30 1071 O 100.708 -1.65785 0.534875 0
M  V30 1072 C 97.8396 -3.20802 1.1532 0
M  V30 1073 H 99.0326 -1.85694 2.35494 0
M  V30 1074 H 96.5856 -0.938059 1.25021 0
M  V30 1075 H 97.3206 -3.23772 0.185036 0
M  V30 1076 H 97.1056 -3.4006 1.95197 0
M  V30 1077 H 98.5956 -4.00862 1.17046 0
M  V30 1078 N 99.0327 -1.24633 -0.964593 0
M  V30 1079 C 99.9627 -1.06611 -2.07741 0
M  V30 1080 C 100.944 0.0218666 -1.70086 0
M  V30 1081 O 102.129 -0.145793 -1.93652 0
M  V30 1082 C 99.2587 -0.673444 -3.40708 0
M  V30 1083 C 98.2127 -1.71054 -3.92332 0
M  V30 1084 C 97.5387 -1.17285 -5.21678 0
M  V30 1085 C 98.8387 -3.10718 -4.19824 0
M  V30 1086 H 100.533 -1.99693 -2.23076 0
M  V30 1087 H 98.0787 -0.96152 -1.07195 0
M  V30 1088 H 100.032 -0.534345 -4.17998 0
M  V30 1089 H 98.7557 0.293073 -3.25282 0
M  V30 1090 H 97.4147 -1.83791 -3.17201 0
M  V30 1091 H 97.0627 -0.196847 -5.02615 0
M  V30 1092 H 96.7627 -1.86592 -5.57187 0
M  V30 1093 H 98.2867 -1.04593 -6.01575 0
M  V30 1094 H 99.7007 -3.01192 -4.87808 0
M  V30 1095 H 98.0977 -3.77406 -4.66567 0
M  V30 1096 H 99.1677 -3.58524 -3.26479 0
M  V30 1097 N 100.511 1.16574 -1.06058 0
M  V30 1098 C 101.474 2.19085 -0.673392 0
M  V30 1099 C 102.474 1.5835 0.279648 0
M  V30 1100 O 103.664 1.74088 0.0623488 0
M  V30 1101 C 100.796 3.40899 0.00954234 0
M  V30 1102 H 101.989 2.54853 -1.58081 0
M  V30 1103 H 99.5418 1.30808 -0.855516 0
M  V30 1104 H 100.277 3.10684 0.929826 0
M  V30 1105 H 100.062 3.86233 -0.67573 0
M  V30 1106 H 101.552 4.1675 0.266245 0
M  V30 1107 N 101.989 0.842826 1.3317 0
M  V30 1108 C 103.405 0.531128 1.50503 0
M  V30 1109 C 103.605 -0.940734 1.78192 0
M  V30 1110 O 102.661 -1.72436 1.84451 0
M  V30 1111 C 103.974 1.40789 2.65705 0
M  V30 1112 C 105.522 1.40708 2.79589 0
M  V30 1113 C 105.997 2.26878 3.97857 0
M  V30 1114 N 107.488 2.24609 4.05099 0
M  V30 1115 C 108.223 2.88019 4.95815 0
M  V30 1116 N 107.719 3.60496 5.9162 0
M  V30 1117 N 109.512 2.77469 4.88843 0
M  V30 1118 H 101.663 1.79557 1.1346 0
M  V30 1119 H 103.926 0.766267 0.558156 0
M  V30 1120 H 103.632 2.454 2.51936 0
M  V30 1121 H 103.506 1.08677 3.61205 0
M  V30 1122 H 105.893 0.368668 2.92788 0
M  V30 1123 H 105.974 1.76829 1.84838 0
M  V30 1124 H 105.618 3.3078 3.85418 0
M  V30 1125 H 105.548 1.88096 4.91861 0
M  V30 1126 H 108.039 1.71906 3.36536 0
M  V30 1127 H 108.352 4.06076 6.57512 0
M  V30 1128 H 106.697 3.64604 5.91683 0
M  V30 1129 H 109.888 2.20406 4.12963 0
M  V30 1130 H 110.061 3.2717 5.59342 0
M  V30 1131 N 103.467 -1.45747 0.599634 0
M  V30 1132 C 104.883 -1.57424 0.26264 0
M  V30 1133 C 105.083 -1.59222 -1.23493 0
M  V30 1134 O 104.139 -1.51825 -2.01756 0
M  V30 1135 C 105.452 -2.86061 0.926795 0
M  V30 1136 C 107 -2.99722 0.901967 0
M  V30 1137 C 107.475 -4.31119 1.54598 0
M  V30 1138 N 108.966 -4.37858 1.5111 0
M  V30 1139 C 109.701 -5.3818 1.97863 0
M  V30 1140 N 109.197 -6.45083 2.52666 0
M  V30 1141 N 110.99 -5.29487 1.88679 0
M  V30 1142 H 103.141 -1.42823 1.57211 0
M  V30 1143 H 105.404 -0.68235 0.658105 0
M  V30 1144 H 105.11 -2.90605 1.98095 0
M  V30 1145 H 104.984 -3.74563 0.445238 0
M  V30 1146 H 107.371 -2.9475 -0.143617 0
M  V30 1147 H 107.452 -2.12652 1.42171 0
M  V30 1148 H 107.096 -4.36849 2.59085 0
M  V30 1149 H 107.026 -5.16992 1.00132 0
M  V30 1150 H 109.517 -3.61209 1.11068 0
M  V30 1151 H 109.83 -7.17869 2.86155 0
M  V30 1152 H 108.175 -6.45856 2.56701 0
M  V30 1153 H 111.366 -4.44877 1.4561 0
M  V30 1154 H 111.539 -6.07524 2.25429 0
M  V30 1155 N 104.945 -0.338344 -1.53925 0
M  V30 1156 C 106.361 0.0137736 -1.59594 0
M  V30 1157 C 106.561 1.49186 -1.35447 0
M  V30 1158 O 105.617 2.24987 -1.14616 0
M  V30 1159 C 106.93 -0.41773 -2.97784 0
M  V30 1160 C 108.478 -0.369633 -3.1081 0
M  V30 1161 C 108.953 -0.776524 -4.51369 0
M  V30 1162 N 110.444 -0.730506 -4.57403 0
M  V30 1163 C 111.179 -1.01736 -5.64303 0
M  V30 1164 N 110.675 -1.3721 -6.79077 0
M  V30 1165 N 112.468 -0.941942 -5.54151 0
M  V30 1166 H 104.619 -1.3012 -1.67876 0
M  V30 1167 H 106.882 -0.530082 -0.78595 0
M  V30 1168 H 106.588 -1.44811 -3.20504 0
M  V30 1169 H 106.462 0.209729 -3.76616 0
M  V30 1170 H 108.849 0.651568 -2.87817 0
M  V30 1171 H 108.93 -1.03223 -2.34049 0
M  V30 1172 H 108.574 -1.79571 -4.75096 0
M  V30 1173 H 108.504 -0.0914649 -5.26521 0
M  V30 1174 H 110.995 -0.468783 -3.74981 0
M  V30 1175 H 111.308 -1.57597 -7.5656 0
M  V30 1176 H 109.653 -1.4105 -6.80536 0
M  V30 1177 H 112.844 -0.664184 -4.63364 0
M  V30 1178 H 113.017 -1.16884 -6.37371 0
M  V30 1179 N 106.423 1.57458 -0.0668435 0
M  V30 1180 C 107.386 2.11323 0.887422 0
M  V30 1181 C 108.386 1.03618 1.22964 0
M  V30 1182 O 109.576 1.29626 1.16373 0
M  V30 1183 C 106.708 2.61048 2.19242 0
M  V30 1184 H 107.901 2.96942 0.420194 0
M  V30 1185 H 105.454 1.55239 0.181793 0
M  V30 1186 H 106.189 1.78868 2.70512 0
M  V30 1187 H 105.974 3.39769 1.95702 0
M  V30 1188 H 107.464 3.02814 2.87565 0
M  V30 1189 N 107.901 -0.206675 1.56239 0
M  V30 1190 C 108.834 -1.28383 1.88661 0
M  V30 1191 C 109.812 -1.44504 0.745481 0
M  V30 1192 O 110.996 -1.60079 0.995336 0
M  V30 1193 C 108.123 -2.65211 2.10667 0
M  V30 1194 C 107.169 -2.66025 3.33366 0
M  V30 1195 S 108.002 -2.18609 4.88846 0
M  V30 1196 C 109.158 -3.57283 5.13906 0
M  V30 1197 H 109.391 -1.00691 2.7973 0
M  V30 1198 H 106.924 -0.409627 1.48867 0
M  V30 1199 H 108.882 -3.43979 2.24029 0
M  V30 1200 H 107.543 -2.90121 1.20369 0
M  V30 1201 H 106.736 -3.66607 3.45855 0
M  V30 1202 H 106.338 -1.95331 3.18938 0
M  V30 1203 H 108.63 -4.53074 5.03717 0
M  V30 1204 H 109.573 -3.49699 6.15724 0
M  V30 1205 H 109.981 -3.51659 4.41583 0
M  V30 1206 N 109.379 -1.50304 -0.473955 0
M  V30 1207 C 110.79 -1.54042 -1.0549 0
M  V30 1208 C 111.141 -0.342248 -1.93192 0
M  V30 1209 O 110.266 0.545157 -2.09421 0
M  V30 1210 C 110.861 -2.79152 -1.91989 0
M  V30 1211 C 109.42 -2.8558 -2.45196 0
M  V30 1212 C 108.567 -2.48295 -1.2347 0
M  V30 1213 H 111.518 -1.5661 -0.256693 0
M  V30 1214 H 111.539 -2.60845 -2.7702 0
M  V30 1215 H 111.051 -3.66339 -1.28131 0
M  V30 1216 H 109.152 -2.02738 -3.12615 0
M  V30 1217 H 109.265 -3.88403 -2.80499 0
M  V30 1218 H 107.629 -2.00669 -1.56856 0
M  V30 1219 H 108.412 -3.37787 -0.612789 0
M  V30 1220 N 110.857 0.726932 -1.39834 0
M  V30 1221 C 111.82 1.82269 -1.38962 0
M  V30 1222 C 112.82 1.58248 -0.285334 0
M  V30 1223 O 114.01 1.65499 -0.54366 0
M  V30 1224 C 111.142 3.20186 -1.17019 0
M  V30 1225 H 112.335 1.84443 -2.36476 0
M  V30 1226 H 109.888 0.931416 -1.25516 0
M  V30 1227 H 110.623 3.23669 -0.202204 0
M  V30 1228 H 110.408 3.3902 -1.96998 0
M  V30 1229 H 111.898 4.00235 -1.1917 0
M  V30 1230 N 112.336 1.25143 0.95797 0
M  V30 1231 C 113.286 1.01924 2.0395 0
M  V30 1232 C 114.27 -0.0427175 1.60843 0
M  V30 1233 O 115.462 0.17221 1.7616 0
M  V30 1234 C 112.591 0.636373 3.3735 0
M  V30 1235 C 111.677 1.73492 3.8699 0
M  V30 1236 N 112.068 2.96945 4.0946 0
M  V30 1237 C 110.366 1.61467 4.15746 0
M  V30 1238 C 111.067 3.68228 4.50315 0
M  V30 1239 N 110.043 2.95833 4.56053 0
M  V30 1240 H 113.845 1.95653 2.19311 0
M  V30 1241 H 111.359 1.15413 1.14253 0
M  V30 1242 H 113.356 0.451233 4.14451 0
M  V30 1243 H 112.016 -0.293621 3.2337 0
M  V30 1244 H 113.027 3.33025 3.96629 0
M  V30 1245 H 109.704 0.753394 4.10646 0
M  V30 1246 H 111.094 4.74178 4.76031 0
M  V30 1247 N 113.814 -1.1601 1.06675 0
M  V30 1248 C 114.744 -2.22688 0.702307 0
M  V30 1249 C 115.725 -1.67306 -0.307032 0
M  V30 1250 O 116.91 -1.93352 -0.181305 0
M  V30 1251 C 114.04 -3.47178 0.092038 0
M  V30 1252 C 112.994 -4.15477 1.02777 0
M  V30 1253 C 112.32 -5.33963 0.28061 0
M  V30 1254 C 113.62 -4.66019 2.35846 0
M  V30 1255 H 115.314 -2.53429 1.59419 0
M  V30 1256 H 112.86 -1.21813 0.767961 0
M  V30 1257 H 114.813 -4.21037 -0.174814 0
M  V30 1258 H 113.537 -3.15749 -0.834877 0
M  V30 1259 H 112.196 -3.43549 1.27944 0
M  V30 1260 H 111.844 -4.98788 -0.649545 0
M  V30 1261 H 111.544 -5.806 0.904258 0
M  V30 1262 H 113.068 -6.10596 0.021396 0
M  V30 1263 H 114.482 -5.3144 2.15045 0
M  V30 1264 H 112.879 -5.23293 2.93743 0
M  V30 1265 H 113.949 -3.82023 2.98641 0
M  V30 1266 N 115.292 -0.849877 -1.32721 0
M  V30 1267 C 116.222 -0.306308 -2.31482 0
M  V30 1268 C 117.203 0.591952 -1.59468 0
M  V30 1269 O 118.388 0.513199 -1.87296 0
M  V30 1270 C 115.518 0.510204 -3.43532 0
M  V30 1271 C 114.472 -0.293209 -4.26994 0
M  V30 1272 C 113.798 0.647743 -5.30762 0
M  V30 1273 C 115.098 -1.51634 -4.99804 0
M  V30 1274 H 116.792 -1.13153 -2.77195 0
M  V30 1275 H 114.338 -0.545553 -1.33266 0
M  V30 1276 H 116.291 0.900856 -4.11658 0
M  V30 1277 H 115.015 1.36874 -2.96535 0
M  V30 1278 H 113.674 -0.665555 -3.60508 0
M  V30 1279 H 113.322 1.50299 -4.8002 0
M  V30 1280 H 113.022 0.11422 -5.87489 0
M  V30 1281 H 114.546 1.03567 -6.01753 0
M  V30 1282 H 115.96 -1.19824 -5.60638 0
M  V30 1283 H 114.357 -1.98745 -5.66234 0
M  V30 1284 H 115.427 -2.28018 -4.27943 0
M  V30 1285 N 116.77 1.45427 -0.607355 0
M  V30 1286 C 117.68 2.34325 0.113463 0
M  V30 1287 C 118.696 1.51226 0.860617 0
M  V30 1288 O 119.872 1.84029 0.818255 0
M  V30 1289 C 116.937 3.28839 1.09844 0
M  V30 1290 C 115.998 4.27844 0.353271 0
M  V30 1291 C 115.231 5.17842 1.29133 0
M  V30 1292 O 115.454 5.11264 2.52913 0
M  V30 1293 O 114.388 5.96713 0.788523 0
M  V30 1294 H 118.214 2.97364 -0.617094 0
M  V30 1295 H 115.799 1.44807 -0.367619 0
M  V30 1296 H 117.681 3.8708 1.66575 0
M  V30 1297 H 116.356 2.68365 1.81003 0
M  V30 1298 H 115.263 3.7322 -0.256494 0
M  V30 1299 H 116.596 4.91173 -0.317822 0
M  V30 1300 N 118.248 0.346503 1.53744 0
M  V30 1301 C 119.473 -0.253074 2.0585 0
M  V30 1302 C 119.898 -1.43202 1.21962 0
M  V30 1303 O 119.256 -1.79783 0.234073 0
M  V30 1304 C 119.304 -0.643193 3.54817 0
M  V30 1305 O 118.408 -1.74286 3.73762 0
M  V30 1306 H 117.749 -0.0413583 0.662711 0
M  V30 1307 H 120.279 0.501574 1.98357 0
M  V30 1308 H 120.289 -0.919526 3.97503 0
M  V30 1309 H 118.964 0.218966 4.15323 0
M  V30 1310 H 117.541 -1.46356 3.42979 0
M  V30 1311 N 119.726 -1.57421 0.075193 0
M  V30 1312 C 120.973 -1.93618 -0.593146 0
M  V30 1313 C 121.301 -0.955484 -1.69413 0
M  V30 1314 O 120.556 0.0283251 -1.9568 0
M  V30 1315 C 120.855 -3.36428 -1.20626 0
M  V30 1316 C 120.521 -4.50307 -0.231078 0
M  V30 1317 C 119.183 -4.81186 0.0371936 0
M  V30 1318 C 121.535 -5.19374 0.435888 0
M  V30 1319 C 118.863 -5.78466 0.979461 0
M  V30 1320 C 121.215 -6.17665 1.3665 0
M  V30 1321 C 119.879 -6.46958 1.6432 0
M  V30 1322 H 119.149 -0.708499 -0.217047 0
M  V30 1323 H 121.796 -1.90937 0.146793 0
M  V30 1324 H 120.101 -3.35592 -2.02201 0
M  V30 1325 H 121.798 -3.61727 -1.73073 0
M  V30 1326 H 118.388 -4.26227 -0.450357 0
M  V30 1327 H 122.572 -4.95711 0.241748 0
M  V30 1328 H 117.828 -5.99487 1.20106 0
M  V30 1329 H 122.002 -6.70284 1.88924 0
M  V30 1330 H 119.629 -7.2215 2.37494 0
M  V30 1331 N 121.204 0.198386 -1.56346 0
M  V30 1332 C 122.151 1.24589 -1.94284 0
M  V30 1333 C 123.121 1.454 -0.802997 0
M  V30 1334 O 124.306 1.58588 -1.06087 0
M  V30 1335 C 121.446 2.58631 -2.28482 0
M  V30 1336 C 120.559 2.45426 -3.55514 0
M  V30 1337 C 119.694 3.7215 -3.79049 0
M  V30 1338 C 118.733 3.53763 -4.99518 0
M  V30 1339 N 117.87 4.72491 -5.19323 0
M  V30 1340 H 122.71 0.915356 -2.83593 0
M  V30 1341 H 120.247 0.440629 -1.40346 0
M  V30 1342 H 122.205 3.3672 -2.46324 0
M  V30 1343 H 120.835 2.89734 -1.42317 0
M  V30 1344 H 119.887 1.58652 -3.45737 0
M  V30 1345 H 121.199 2.27772 -4.43758 0
M  V30 1346 H 120.353 4.58679 -3.97113 0
M  V30 1347 H 119.092 3.92754 -2.89129 0
M  V30 1348 H 118.097 2.65619 -4.8138 0
M  V30 1349 H 119.322 3.34607 -5.90944 0
M  V30 1350 H 117.268 4.93365 -4.3235 0
M  V30 1351 H 117.185 4.5765 -6.01741 0
M  V30 1352 H 118.453 5.6038 -5.41843 0
M  V30 1353 N 122.682 1.50554 0.465978 0
M  V30 1354 C 124.098 1.38093 0.800154 0
M  V30 1355 C 124.298 0.440988 1.96615 0
M  V30 1356 O 123.354 -0.114499 2.5224 0
M  V30 1357 C 124.667 2.79565 1.10742 0
M  V30 1358 C 126.215 2.88516 1.21357 0
M  V30 1359 C 126.69 4.30833 1.55393 0
M  V30 1360 N 128.181 4.33807 1.62375 0
M  V30 1361 C 128.916 5.40927 1.90225 0
M  V30 1362 N 128.412 6.58247 2.16062 0
M  V30 1363 N 130.205 5.28376 1.9177 0
M  V30 1364 H 122.356 2.10237 -0.302366 0
M  V30 1365 H 124.619 0.945203 -0.0727746 0
M  V30 1366 H 124.325 3.50208 0.323661 0
M  V30 1367 H 124.199 3.17125 2.04234 0
M  V30 1368 H 126.586 2.1809 1.98799 0
M  V30 1369 H 126.667 2.54492 0.258321 0
M  V30 1370 H 126.311 5.01799 0.784889 0
M  V30 1371 H 126.241 4.62347 2.52076 0
M  V30 1372 H 128.732 3.49212 1.44427 0
M  V30 1373 H 129.045 7.3569 2.36601 0
M  V30 1374 H 127.39 6.61413 2.13444 0
M  V30 1375 H 130.581 4.35715 1.71085 0
M  V30 1376 H 130.754 6.11944 2.13139 0
M  V30 1377 N 124.16 -0.719506 1.40217 0
M  V30 1378 C 125.39 -1.50646 1.41384 0
M  V30 1379 C 125.798 -1.89197 0.0107743 0
M  V30 1380 O 125.141 -1.55709 -0.974708 0
M  V30 1381 C 125.203 -2.81405 2.23722 0
M  V30 1382 C 124.867 -2.65199 3.72181 0
M  V30 1383 C 125.864 -2.32717 4.64907 0
M  V30 1384 C 123.549 -2.81586 4.1595 0
M  V30 1385 C 125.543 -2.16827 5.99387 0
M  V30 1386 C 123.23 -2.65313 5.50502 0
M  V30 1387 C 124.228 -2.32981 6.42035 0
M  V30 1388 O 123.916 -2.16827 7.74107 0
M  V30 1389 H 123.648 -0.471606 0.484318 0
M  V30 1390 H 126.202 -0.895456 1.84853 0
M  V30 1391 H 124.432 -3.44823 1.75026 0
M  V30 1392 H 126.121 -3.43102 2.16878 0
M  V30 1393 H 126.887 -2.19694 4.32388 0
M  V30 1394 H 122.766 -3.0574 3.45027 0
M  V30 1395 H 126.31 -1.91513 6.70797 0
M  V30 1396 H 122.207 -2.7792 5.82607 0
M  V30 1397 H 122.975 -2.31778 7.84998 0
M  V30 1398 N 125.638 -1.25649 -0.95132 0
M  V30 1399 C 127.049 -1.09654 -1.51106 0
M  V30 1400 C 127.4 0.326615 -1.93462 0
M  V30 1401 O 126.525 1.21697 -1.78938 0
M  V30 1402 C 127.12 -1.98437 -2.74605 0
M  V30 1403 C 125.679 -1.86618 -3.2688 0
M  V30 1404 C 124.826 -1.9239 -1.99703 0
M  V30 1405 H 127.777 -1.38887 -0.767865 0
M  V30 1406 H 127.798 -1.5263 -3.48546 0
M  V30 1407 H 127.31 -3.02009 -2.43746 0
M  V30 1408 H 125.411 -0.859421 -3.62553 0
M  V30 1409 H 125.524 -2.71607 -3.94673 0
M  V30 1410 H 123.888 -1.36317 -2.15151 0
M  V30 1411 H 124.671 -2.97573 -1.71188 0
M  V30 1412 N 127.117 1.15442 -1.07289 0
M  V30 1413 C 128.363 1.86489 -0.796846 0
M  V30 1414 C 128.696 1.82078 0.675371 0
M  V30 1415 O 127.971 1.24346 1.4956 0
M  V30 1416 C 128.254 3.35626 -1.30489 0
M  V30 1417 C 128.107 3.48673 -2.84161 0
M  V30 1418 C 129.426 4.30357 -0.920907 0
M  V30 1419 H 126.545 0.677144 -0.290939 0
M  V30 1420 H 129.187 1.35633 -1.33056 0
M  V30 1421 H 127.337 3.79068 -0.850883 0
M  V30 1422 H 129.009 3.14099 -3.37846 0
M  V30 1423 H 127.252 2.90253 -3.22391 0
M  V30 1424 H 127.923 4.53453 -3.14777 0
M  V30 1425 H 130.399 3.94871 -1.3121 0
M  V30 1426 H 129.275 5.33193 -1.30372 0
M  V30 1427 H 129.536 4.4176 0.173226 0
M  V30 1428 N 128.595 0.856903 1.32268 0
M  V30 1429 C 129.82 0.474569 2.01897 0
M  V30 1430 C 130.245 -0.921766 1.63967 0
M  V30 1431 O 129.603 -1.60589 0.84148 0
M  V30 1432 C 129.651 0.623799 3.55164 0
M  V30 1433 O 128.755 -0.342459 4.10976 0
M  V30 1434 H 128.096 0.190422 0.63611 0
M  V30 1435 H 130.626 1.15672 1.68764 0
M  V30 1436 H 130.636 0.512169 4.04773 0
M  V30 1437 H 129.311 1.64202 3.82113 0
M  V30 1438 H 127.888 -0.18688 3.72431 0
M  V30 1439 N 130.073 -1.45103 0.615059 0
M  V30 1440 C 131.036 -2.29025 -0.0895485 0
M  V30 1441 C 132.036 -1.40174 -0.787906 0
M  V30 1442 O 133.226 -1.62217 -0.634933 0
M  V30 1443 C 130.358 -3.21376 -1.13711 0
M  V30 1444 H 131.551 -2.92807 0.648382 0
M  V30 1445 H 129.104 -1.51749 0.374444 0
M  V30 1446 H 129.839 -2.6241 -1.90556 0
M  V30 1447 H 129.624 -3.86834 -0.640475 0
M  V30 1448 H 131.114 -3.84459 -1.63036 0
M  V30 1449 N 131.551 -0.354651 -1.53558 0
M  V30 1450 C 132.501 0.513179 -2.2215 0
M  V30 1451 C 133.485 1.05734 -1.21281 0
M  V30 1452 O 134.677 0.989202 -1.46778 0
M  V30 1453 C 131.806 1.65798 -3.00609 0
M  V30 1454 C 130.892 1.12722 -4.08845 0
M  V30 1455 N 131.283 0.318563 -5.04796 0
M  V30 1456 C 129.581 1.40307 -4.23356 0
M  V30 1457 C 130.282 0.0292224 -5.81693 0
M  V30 1458 N 129.258 0.623891 -5.40008 0
M  V30 1459 H 133.06 -0.111586 -2.93688 0
M  V30 1460 H 130.574 -0.162091 -1.61589 0
M  V30 1461 H 132.571 2.29176 -3.48258 0
M  V30 1462 H 131.231 2.28591 -2.306 0
M  V30 1463 H 132.242 -0.0413091 -5.17884 0
M  V30 1464 H 128.919 2.03458 -3.6457 0
M  V30 1465 H 130.309 -0.623808 -6.68998 0
M  V30 1466 N 133.029 1.57378 -0.0835403 0
M  V30 1467 C 134.44 1.81261 0.447358 0
M  V30 1468 C 134.791 0.998331 1.68902 0
M  V30 1469 O 133.916 0.224282 2.15235 0
M  V30 1470 C 134.511 3.28767 0.818386 0
M  V30 1471 C 133.07 3.53455 1.29409 0
M  V30 1472 C 132.217 2.75831 0.285024 0
M  V30 1473 H 135.168 1.5566 -0.309115 0
M  V30 1474 H 135.189 3.41459 1.67887 0
M  V30 1475 H 134.701 3.88006 -0.0855019 0
M  V30 1476 H 132.802 2.99534 2.21608 0
M  V30 1477 H 132.915 4.62128 1.2639 0
M  V30 1478 H 131.279 2.42947 0.764767 0
M  V30 1479 H 132.062 3.37813 -0.611341 0
M  V30 1480 N 134.507 -0.190092 1.56449 0
M  V30 1481 C 135.44 -1.26375 1.90012 0
M  V30 1482 C 136.418 -1.43705 0.760765 0
M  V30 1483 O 137.602 -1.59014 1.01226 0
M  V30 1484 C 134.729 -2.62962 2.13468 0
M  V30 1485 C 133.775 -2.62474 3.36169 0
M  V30 1486 S 134.608 -2.13412 4.91137 0
M  V30 1487 C 135.764 -3.51812 5.17667 0
M  V30 1488 H 135.997 -0.977181 2.80782 0
M  V30 1489 H 133.53 -0.393814 1.49293 0
M  V30 1490 H 135.488 -3.41583 2.27664 0
M  V30 1491 H 134.149 -2.88828 1.23439 0
M  V30 1492 H 133.342 -3.62918 3.49723 0
M  V30 1493 H 132.944 -1.91937 3.20992 0
M  V30 1494 H 135.236 -4.47706 5.08494 0
M  V30 1495 H 136.179 -3.43148 6.19399 0
M  V30 1496 H 136.587 -3.46956 4.45288 0
M  V30 1497 N 135.985 -1.50799 -0.457987 0
M  V30 1498 C 137.21 -1.66496 -1.23668 0
M  V30 1499 C 137.635 -0.353288 -1.84752 0
M  V30 1500 O 136.993 0.684346 -1.67888 0
M  V30 1501 C 137.041 -2.76763 -2.3116 0
M  V30 1502 O 136.145 -2.38928 -3.36136 0
M  V30 1503 H 135.486 -0.555828 -0.363252 0
M  V30 1504 H 138.016 -1.9725 -0.543474 0
M  V30 1505 H 138.026 -3.00232 -2.76269 0
M  V30 1506 H 136.701 -3.71954 -1.86073 0
M  V30 1507 H 135.278 -2.25953 -2.96647 0
M  V30 1508 N 137.463 0.71206 -1.40597 0
M  V30 1509 C 138.71 1.47197 -1.39065 0
M  V30 1510 C 139.038 1.94499 0.00583891 0
M  V30 1511 O 138.293 1.68752 0.99102 0
M  V30 1512 C 138.592 2.71039 -2.32965 0
M  V30 1513 C 138.258 2.42484 -3.80148 0
M  V30 1514 C 136.92 2.34406 -4.20247 0
M  V30 1515 C 139.272 2.18598 -4.73143 0
M  V30 1516 C 136.6 2.00516 -5.51371 0
M  V30 1517 C 138.952 1.8622 -6.0457 0
M  V30 1518 C 137.616 1.76626 -6.43708 0
M  V30 1519 H 136.886 0.538634 -0.508876 0
M  V30 1520 H 139.533 0.815325 -1.73276 0
M  V30 1521 H 137.838 3.41558 -1.91951 0
M  V30 1522 H 139.535 3.29138 -2.29061 0
M  V30 1523 H 136.125 2.49659 -3.4838 0
M  V30 1524 H 140.309 2.23793 -4.42979 0
M  V30 1525 H 135.565 1.91628 -5.80593 0
M  V30 1526 H 139.739 1.66752 -6.76141 0
M  V30 1527 H 137.366 1.50133 -7.45228 0
M  V30 1528 N 138.941 1.26152 0.944643 0
M  V30 1529 C 139.871 1.09902 2.06019 0
M  V30 1530 C 140.852 0.00519538 1.70099 0
M  V30 1531 O 142.037 0.176583 1.93396 0
M  V30 1532 C 139.167 0.727562 3.39594 0
M  V30 1533 C 138.121 1.77274 3.89561 0
M  V30 1534 C 137.447 1.25569 5.19747 0
M  V30 1535 C 138.747 3.17357 4.14827 0
M  V30 1536 H 140.441 2.03217 2.19871 0
M  V30 1537 H 137.987 0.978452 1.05652 0
M  V30 1538 H 139.94 0.600777 4.17095 0
M  V30 1539 H 138.664 -0.241287 3.25707 0
M  V30 1540 H 137.323 1.88814 3.14237 0
M  V30 1541 H 136.971 0.276783 5.02238 0
M  V30 1542 H 136.671 1.95433 5.54148 0
M  V30 1543 H 138.195 1.1415 5.99835 0
M  V30 1544 H 139.609 3.08914 4.82954 0
M  V30 1545 H 138.006 3.84781 4.60504 0
M  V30 1546 H 139.076 3.63673 3.20734 0
M  V30 1547 N 140.419 -1.14872 1.07899 0
M  V30 1548 C 141.835 -1.37776 0.805606 0
M  V30 1549 C 142.035 -1.92743 -0.587555 0
M  V30 1550 O 141.091 -2.13678 -1.34528 0
M  V30 1551 C 142.404 -2.34361 1.88402 0
M  V30 1552 C 143.952 -2.48012 1.90942 0
M  V30 1553 C 144.427 -3.47893 2.97883 0
M  V30 1554 N 145.918 -3.55433 2.97021 0
M  V30 1555 C 146.653 -4.32553 3.76412 0
M  V30 1556 N 146.149 -5.12959 4.65666 0
M  V30 1557 N 147.942 -4.27697 3.64735 0
M  V30 1558 H 140.093 -0.775365 1.97742 0
M  V30 1559 H 142.356 -0.403521 0.857831 0
M  V30 1560 H 142.062 -2.01098 2.88535 0
M  V30 1561 H 141.936 -3.34206 1.74889 0
M  V30 1562 H 144.323 -2.8057 0.914579 0
M  V30 1563 H 144.404 -1.48147 2.08534 0
M  V30 1564 H 144.048 -3.16069 3.97571 0
M  V30 1565 H 143.978 -4.47527 2.77538 0
M  V30 1566 H 146.469 -2.98048 2.32326 0
M  V30 1567 H 146.782 -5.69065 5.22862 0
M  V30 1568 H 145.127 -5.12245 4.69712 0
M  V30 1569 H 148.318 -3.63949 2.94378 0
M  V30 1570 H 148.491 -4.8755 4.26848 0
M  V30 1571 N 141.898 -0.863906 -1.31812 0
M  V30 1572 C 143.126 -0.486111 -2.01108 0
M  V30 1573 C 143.541 0.919755 -1.64882 0
M  V30 1574 O 142.898 1.60162 -0.874893 0
M  V30 1575 C 142.949 -0.626435 -3.56031 0
M  V30 1576 O 142.67 -1.97693 -3.90959 0
M  V30 1577 C 144.171 -0.248857 -4.42601 0
M  V30 1578 H 141.391 -0.190052 -0.643523 0
M  V30 1579 H 143.935 -1.1634 -1.68182 0
M  V30 1580 H 142.09 0.00322717 -3.874 0
M  V30 1581 H 142.504 -1.98034 -4.85678 0
M  V30 1582 H 143.978 -0.398016 -5.50563 0
M  V30 1583 H 144.455 0.811489 -4.31638 0
M  V30 1584 H 145.061 -0.853971 -4.16638 0
M  V30 1585 N 143.376 1.44774 -0.622745 0
M  V30 1586 C 144.339 2.29069 0.0774015 0
M  V30 1587 C 145.339 1.4059 0.780461 0
M  V30 1588 O 146.529 1.62551 0.626322 0
M  V30 1589 C 143.661 3.21974 1.12006 0
M  V30 1590 H 144.854 2.92459 -0.663901 0
M  V30 1591 H 142.407 1.51548 -0.382486 0
M  V30 1592 H 143.142 2.63417 1.89162 0
M  V30 1593 H 142.927 3.87168 0.619951 0
M  V30 1594 H 144.417 3.85318 1.60995 0
M  V30 1595 N 144.854 0.36279 1.53368 0
M  V30 1596 C 146.1 -0.228113 2.01513 0
M  V30 1597 C 146.433 -1.48648 1.2497 0
M  V30 1598 O 145.708 -1.91459 0.342616 0
M  V30 1599 C 145.991 -0.522884 3.56284 0
M  V30 1600 C 145.844 0.74892 4.43521 0
M  V30 1601 C 147.163 -1.32461 4.19693 0
M  V30 1602 H 144.282 -0.0814343 0.732487 0
M  V30 1603 H 146.924 0.48713 1.83649 0
M  V30 1604 H 145.074 -1.1322 3.71636 0
M  V30 1605 H 146.746 1.38648 4.39971 0
M  V30 1606 H 144.989 1.36986 4.11603 0
M  V30 1607 H 145.66 0.497667 5.49752 0
M  V30 1608 H 148.136 -0.809203 4.08156 0
M  V30 1609 H 147.012 -1.49961 5.28018 0
M  V30 1610 H 147.273 -2.33232 3.75573 0
M  V30 1611 N 146.332 -1.57332 0.0918853 0
M  V30 1612 C 147.557 -1.98995 -0.584442 0
M  V30 1613 C 147.982 -0.970528 -1.61128 0
M  V30 1614 O 147.34 0.0613904 -1.81196 0
M  V30 1615 C 147.388 -3.39636 -1.21161 0
M  V30 1616 O 146.492 -3.40447 -2.32744 0
M  V30 1617 H 145.833 -0.647165 -0.148572 0
M  V30 1618 H 148.363 -2.03873 0.172347 0
M  V30 1619 H 148.373 -3.7726 -1.55367 0
M  V30 1620 H 147.048 -4.13356 -0.459313 0
M  V30 1621 H 145.625 -3.14614 -2.0018 0
M  V30 1622 N 147.81 0.181792 -1.56548 0
M  V30 1623 C 148.72 1.24538 -1.98815 0
M  V30 1624 C 149.736 1.49045 -0.897861 0
M  V30 1625 O 150.912 1.61399 -1.20467 0
M  V30 1626 C 147.977 2.56683 -2.33055 0
M  V30 1627 C 147.038 2.40131 -3.55859 0
M  V30 1628 C 146.271 3.65975 -3.88456 0
M  V30 1629 O 146.494 4.70711 -3.22161 0
M  V30 1630 O 145.428 3.6071 -4.81842 0
M  V30 1631 H 149.254 0.916647 -2.89536 0
M  V30 1632 H 146.839 0.387842 -1.44278 0
M  V30 1633 H 148.721 3.34655 -2.56094 0
M  V30 1634 H 147.396 2.89157 -1.45498 0
M  V30 1635 H 146.303 1.60226 -3.38051 0
M  V30 1636 H 147.636 2.12585 -4.43924 0
M  V30 1637 N 149.288 1.51039 0.449983 0
M  V30 1638 C 150.535 1.63081 1.20045 0
M  V30 1639 C 150.863 0.341024 1.91487 0
M  V30 1640 O 150.118 -0.674276 1.83717 0
M  V30 1641 C 150.417 2.77556 2.25161 0
M  V30 1642 C 150.083 4.17289 1.70823 0
M  V30 1643 C 148.745 4.55305 1.55725 0
M  V30 1644 C 151.097 5.04536 1.3074 0
M  V30 1645 C 148.425 5.78287 0.989999 0
M  V30 1646 C 150.777 6.28085 0.754482 0
M  V30 1647 C 149.441 6.64885 0.590308 0
M  V30 1648 H 148.711 0.596755 0.439277 0
M  V30 1649 H 151.358 1.85037 0.49333 0
M  V30 1650 H 149.663 2.49771 3.01863 0
M  V30 1651 H 151.36 2.84073 2.83026 0
M  V30 1652 H 147.95 3.8731 1.83546 0
M  V30 1653 H 152.134 4.75782 1.41229 0
M  V30 1654 H 147.39 6.05456 0.850451 0
M  V30 1655 H 151.564 6.95038 0.435324 0
M  V30 1656 H 149.191 7.60055 0.14862 0
M  V30 1657 N 150.766 -0.704594 1.40972 0
M  V30 1658 C 152.014 -1.46169 1.39568 0
M  V30 1659 C 152.335 -1.95 0.00253745 0
M  V30 1660 O 151.605 -1.71095 -0.954114 0
M  V30 1661 H 150.185 -0.542326 0.513704 0
M  V30 1662 H 152.847 -0.834553 1.76128 0
M  V30 1663 H 151.943 -2.32922 2.07735 0
M  V30 1664 N 152.244 -1.26651 -0.937939 0
M  V30 1665 C 153.177 -1.02811 -2.03728 0
M  V30 1666 C 154.155 0.0481915 -1.62529 0
M  V30 1667 O 155.339 -0.0948839 -1.88261 0
M  V30 1668 C 152.466 -0.557517 -3.3408 0
M  V30 1669 C 151.512 -1.62686 -3.94253 0
M  V30 1670 S 152.345 -3.21667 -4.28125 0
M  V30 1671 C 153.501 -2.76384 -5.61572 0
M  V30 1672 H 153.734 -1.95891 -2.23638 0
M  V30 1673 H 151.267 -1.10367 -1.07974 0
M  V30 1674 H 153.225 -0.292674 -4.09455 0
M  V30 1675 H 151.886 0.353062 -3.12109 0
M  V30 1676 H 151.079 -1.24866 -4.88287 0
M  V30 1677 H 150.681 -1.84324 -3.25424 0
M  V30 1678 H 152.973 -2.2105 -6.40424 0
M  V30 1679 H 153.916 -3.69123 -6.0428 0
M  V30 1680 H 154.324 -2.15847 -5.21604 0
M  V30 1681 N 153.722 1.14298 -1.08507 0
M  V30 1682 C 154.652 2.21542 -0.737646 0
M  V30 1683 C 155.633 1.67773 0.280377 0
M  V30 1684 O 156.818 1.93616 0.150521 0
M  V30 1685 C 153.948 3.46988 -0.147259 0
M  V30 1686 C 152.902 4.13789 -1.09374 0
M  V30 1687 C 152.228 5.33449 -0.365524 0
M  V30 1688 C 153.528 4.62208 -2.4323 0
M  V30 1689 H 155.222 2.5086 -1.6343 0
M  V30 1690 H 152.768 1.20576 -0.787243 0
M  V30 1691 H 154.721 4.21262 0.107808 0
M  V30 1692 H 153.445 3.17037 0.784538 0
M  V30 1693 H 152.104 3.4147 -1.33393 0
M  V30 1694 H 151.752 4.99759 0.57011 0
M  V30 1695 H 151.452 5.79088 -0.996512 0
M  V30 1696 H 152.976 6.10485 -0.118534 0
M  V30 1697 H 154.39 5.27952 -2.23472 0
M  V30 1698 H 152.787 5.18553 -3.02031 0
M  V30 1699 H 153.857 3.77224 -3.04681 0
M  V30 1700 N 155.201 0.870884 1.31352 0
M  V30 1701 C 156.478 0.402907 1.91405 0
M  V30 1702 C 156.858 -1.11512 1.79244 0
M  V30 1703 O 156.206 -1.94411 1.2007 0
M  V30 1704 C 156.416 0.885301 3.37585 0
M  V30 1705 C 157.764 0.911971 4.14691 0
M  V30 1706 O 158.788 0.831016 3.46371 0
M  V30 1707 O 157.647 1.02927 5.3672 0
M  V30 1708 H 154.741 0.120698 0.818145 0
M  V30 1709 H 157.287 0.958857 1.40014 0
M  V30 1710 H 156.059 1.92889 3.40455 0
M  V30 1711 H 155.682 0.307714 3.96407 0
M  V30 1712 N 156.679 -1.44442 0.630414 0
M  V30 1713 C 158.09 -1.85434 0.217063 0
M  V30 1714 C 158.441 -1.52748 -1.23136 0
M  V30 1715 O 157.566 -0.965205 -1.93682 0
M  V30 1716 C 158.161 -3.36581 0.387168 0
M  V30 1717 C 156.72 -3.76389 0.0283297 0
M  V30 1718 C 155.867 -2.68296 0.700889 0
M  V30 1719 H 158.818 -1.34919 0.83562 0
M  V30 1720 H 158.839 -3.78657 -0.374086 0
M  V30 1721 H 158.351 -3.60339 1.44144 0
M  V30 1722 H 156.452 -3.58246 -1.02423 0
M  V30 1723 H 156.565 -4.77095 0.437892 0
M  V30 1724 H 154.929 -2.54335 0.136267 0
M  V30 1725 H 155.712 -2.94887 1.75774 0
M  V30 1726 N 158.157 -0.370918 -1.53173 0
M  V30 1727 C 159.385 0.217704 -2.05751 0
M  V30 1728 C 159.8 1.42018 -1.24404 0
M  V30 1729 O 159.157 1.80245 -0.286033 0
M  V30 1730 C 159.208 0.605954 -3.56385 0
M  V30 1731 O 158.929 -0.548734 -4.3465 0
M  V30 1732 C 160.43 1.2524 -4.25241 0
M  V30 1733 H 157.65 0.0371659 -0.66997 0
M  V30 1734 H 160.194 -0.530832 -1.9749 0
M  V30 1735 H 158.349 1.3044 -3.6478 0
M  V30 1736 H 158.763 -0.23376 -5.23979 0
M  V30 1737 H 160.237 1.47458 -5.3194 0
M  V30 1738 H 160.714 2.2143 -3.79296 0
M  V30 1739 H 161.32 0.595233 -4.21114 0
M  V30 1740 N 159.635 1.57281 -0.100228 0
M  V30 1741 C 160.545 2.17833 0.870965 0
M  V30 1742 C 161.561 1.14921 1.30649 0
M  V30 1743 O 162.737 1.47313 1.37335 0
M  V30 1744 C 159.802 2.75085 2.1102 0
M  V30 1745 C 158.863 3.9297 1.72838 0
M  V30 1746 C 158.096 4.47482 2.90854 0
M  V30 1747 O 158.319 4.00922 4.05731 0
M  V30 1748 O 157.253 5.38433 2.69023 0
M  V30 1749 H 161.079 3.0124 0.38575 0
M  V30 1750 H 158.664 1.48881 0.124397 0
M  V30 1751 H 160.546 3.11656 2.83634 0
M  V30 1752 H 159.221 1.94721 2.58584 0
M  V30 1753 H 158.128 3.61201 0.973883 0
M  V30 1754 H 159.461 4.74713 1.30033 0
M  V30 1755 N 161.113 -0.173488 1.56642 0
M  V30 1756 C 162.361 -0.888706 1.81512 0
M  V30 1757 C 162.682 -1.82875 0.676872 0
M  V30 1758 O 161.952 -1.93536 -0.303414 0
M  V30 1759 H 160.532 -0.331164 0.669582 0
M  V30 1760 H 163.194 -0.173823 1.94123 0
M  V30 1761 H 162.29 -1.46691 2.75478 0
M  V30 1762 N 162.591 -1.51276 -0.441967 0
M  V30 1763 C 163.868 -1.54252 -1.20273 0
M  V30 1764 C 164.248 -0.30408 -2.08898 0
M  V30 1765 O 163.596 0.711084 -2.17154 0
M  V30 1766 C 163.806 -2.85406 -2.00859 0
M  V30 1767 C 165.154 -3.37181 -2.58059 0
M  V30 1768 O 166.178 -2.86925 -2.11074 0
M  V30 1769 O 165.037 -4.24858 -3.43741 0
M  V30 1770 H 162.131 -0.619969 -0.547328 0
M  V30 1771 H 164.677 -1.63586 -0.451413 0
M  V30 1772 H 163.449 -3.67003 -1.35736 0
M  V30 1773 H 163.072 -2.79213 -2.83065 0
M  V30 1774 N 164.069 0.697108 -1.41344 0
M  V30 1775 C 165.318 1.45279 -1.39918 0
M  V30 1776 C 165.631 1.95597 -0.0109624 0
M  V30 1777 O 166.837 2.71208 0.125919 0
M  V30 1778 C 165.293 2.62695 -2.46007 0
M  V30 1779 C 164.901 2.19169 -3.90729 0
M  V30 1780 C 166.645 3.40336 -2.53715 0
M  V30 1781 C 164.552 3.33535 -4.88373 0
M  V30 1782 H 163.482 0.545692 -0.520323 0
M  V30 1783 H 166.133 0.756929 -1.67161 0
M  V30 1784 H 164.515 3.34541 -2.11892 0
M  V30 1785 H 165.689 1.54623 -4.34083 0
M  V30 1786 H 164.004 1.54525 -3.86666 0
M  V30 1787 H 166.601 4.2547 -3.2385 0
M  V30 1788 H 166.944 3.85418 -1.5735 0
M  V30 1789 H 167.477 2.75546 -2.86913 0
M  V30 1790 H 164.216 2.93468 -5.86137 0
M  V30 1791 H 163.736 3.96936 -4.49668 0
M  V30 1792 H 165.415 3.99335 -5.09059 0
M  V30 1793 N 165.547 1.27147 0.931209 0
M  V30 1794 C 166.772 1.16191 1.71797 0
M  V30 1795 C 167.197 -0.278004 1.86034 0
M  V30 1796 O 166.555 -1.20137 1.35782 0
M  V30 1797 C 166.603 1.84673 3.09723 0
M  V30 1798 O 165.707 1.14231 3.96264 0
M  V30 1799 H 165.048 0.404303 0.526721 0
M  V30 1800 H 167.578 1.68152 1.1656 0
M  V30 1801 H 167.588 1.91893 3.60057 0
M  V30 1802 H 166.263 2.89421 2.98677 0
M  V30 1803 H 164.84 1.15056 3.54706 0
M  V30 1804 N 167.025 -1.13721 1.09112 0
M  V30 1805 C 168.441 -1.36914 0.820174 0
M  V30 1806 C 168.641 -1.93356 -0.567079 0
M  V30 1807 O 167.697 -2.15093 -1.32255 0
M  V30 1808 C 169.01 -2.3235 1.90877 0
M  V30 1809 C 170.558 -2.45973 1.93562 0
M  V30 1810 C 171.033 -3.44714 3.01556 0
M  V30 1811 N 172.524 -3.52263 3.00775 0
M  V30 1812 C 173.259 -4.28536 3.80978 0
M  V30 1813 N 172.755 -5.07991 4.71081 0
M  V30 1814 N 174.548 -4.23804 3.69251 0
M  V30 1815 H 166.699 -0.754348 1.98553 0
M  V30 1816 H 168.962 -0.3944 0.862063 0
M  V30 1817 H 168.668 -1.98027 2.90651 0
M  V30 1818 H 168.542 -3.32332 1.78424 0
M  V30 1819 H 170.929 -2.79584 0.944286 0
M  V30 1820 H 171.01 -1.45926 2.10093 0
M  V30 1821 H 170.654 -3.11835 4.00901 0
M  V30 1822 H 170.584 -4.44558 2.82269 0
M  V30 1823 H 173.075 -2.95567 2.35475 0
M  V30 1824 H 173.388 -5.63487 5.28869 0
M  V30 1825 H 171.733 -5.07235 4.75119 0
M  V30 1826 H 174.924 -3.60806 2.98222 0
M  V30 1827 H 175.097 -4.82995 4.31995 0
M  V30 1828 N 168.503 -0.877838 -1.30888 0
M  V30 1829 C 169.413 -0.343096 -2.32078 0
M  V30 1830 C 170.429 0.551022 -1.65045 0
M  V30 1831 O 171.605 0.445854 -1.96403 0
M  V30 1832 C 168.67 0.439905 -3.43898 0
M  V30 1833 C 167.731 -0.483111 -4.26573 0
M  V30 1834 C 166.964 0.262616 -5.33053 0
M  V30 1835 O 167.187 1.48967 -5.50604 0
M  V30 1836 O 166.121 -0.383593 -6.00676 0
M  V30 1837 H 169.947 -1.18203 -2.79753 0
M  V30 1838 H 167.532 -0.64145 -1.34929 0
M  V30 1839 H 169.414 0.883504 -4.12034 0
M  V30 1840 H 168.089 1.25526 -2.98371 0
M  V30 1841 H 166.996 -0.975374 -3.61161 0
M  V30 1842 H 168.329 -1.26427 -4.75686 0
M  V30 1843 N 169.982 1.44106 -0.638065 0
M  V30 1844 C 170.945 2.29138 0.0531013 0
M  V30 1845 C 171.945 1.41409 0.765506 0
M  V30 1846 O 173.135 1.63206 0.609046 0
M  V30 1847 C 170.267 3.23144 1.08584 0
M  V30 1848 H 171.46 2.91739 -0.694883 0
M  V30 1849 H 169.013 1.51134 -0.398538 0
M  V30 1850 H 169.748 2.65408 1.86357 0
M  V30 1851 H 169.533 3.87804 0.578852 0
M  V30 1852 H 171.023 3.87004 1.56899 0
M  V30 1853 N 171.46 0.379036 1.52974 0
M  V30 1854 C 172.39 -0.452706 2.29069 0
M  V30 1855 C 173.371 -1.07237 1.32039 0
M  V30 1856 O 174.556 -1.08708 1.60923 0
M  V30 1857 C 171.686 -1.5856 3.08992 0
M  V30 1858 C 170.64 -1.0925 4.13822 0
M  V30 1859 C 169.966 -2.31668 4.81907 0
M  V30 1860 C 171.266 -0.167702 5.22031 0
M  V30 1861 H 172.96 0.182181 2.98845 0
M  V30 1862 H 170.506 0.0890592 1.43724 0
M  V30 1863 H 172.459 -2.1742 3.6098 0
M  V30 1864 H 171.183 -2.24792 2.36931 0
M  V30 1865 H 169.842 -0.526494 3.628 0
M  V30 1866 H 169.49 -2.96386 4.06404 0
M  V30 1867 H 169.19 -1.9934 5.52754 0
M  V30 1868 H 170.714 -2.91189 5.36695 0
M  V30 1869 H 172.128 -0.664186 5.6944 0
M  V30 1870 H 170.525 0.0653265 6.00064 0
M  V30 1871 H 171.595 0.786347 4.78482 0
M  V30 1872 N 172.938 -1.57226 0.108567 0
M  V30 1873 C 174.168 -1.9889 -0.559142 0
M  V30 1874 C 174.576 -0.986889 -1.61422 0
M  V30 1875 O 173.919 0.0298705 -1.83676 0
M  V30 1876 C 173.981 -3.36952 -1.25315 0
M  V30 1877 C 173.645 -4.55679 -0.347248 0
M  V30 1878 C 174.642 -5.18281 0.409996 0
M  V30 1879 C 172.327 -5.0162 -0.261367 0
M  V30 1880 C 174.321 -6.25203 1.24096 0
M  V30 1881 C 172.008 -6.08405 0.573238 0
M  V30 1882 C 173.006 -6.70063 1.32304 0
M  V30 1883 O 172.694 -7.74788 2.14381 0
M  V30 1884 H 172.426 -0.658343 -0.153492 0
M  V30 1885 H 174.98 -2.04532 0.188584 0
M  V30 1886 H 173.21 -3.28032 -2.04773 0
M  V30 1887 H 174.899 -3.62974 -1.81673 0
M  V30 1888 H 175.665 -4.8371 0.353457 0
M  V30 1889 H 171.544 -4.53381 -0.834656 0
M  V30 1890 H 175.088 -6.73259 1.82669 0
M  V30 1891 H 170.985 -6.42406 0.631208 0
M  V30 1892 H 171.753 -7.91837 2.07209 0
M  V30 1893 N 174.416 0.165178 -1.56732 0
M  V30 1894 C 175.326 1.22423 -2.00125 0
M  V30 1895 C 176.342 1.48084 -0.913619 0
M  V30 1896 O 177.518 1.60112 -1.22172 0
M  V30 1897 C 174.583 2.54197 -2.35764 0
M  V30 1898 C 173.644 2.36343 -3.58386 0
M  V30 1899 C 172.877 3.61834 -3.92316 0
M  V30 1900 O 173.1 4.67267 -3.27135 0
M  V30 1901 O 172.034 3.55579 -4.85641 0
M  V30 1902 H 175.86 0.885886 -2.90492 0
M  V30 1903 H 173.445 0.372518 -1.44681 0
M  V30 1904 H 175.327 3.3192 -2.59629 0
M  V30 1905 H 174.002 2.87598 -1.48557 0
M  V30 1906 H 172.909 1.56632 -3.39731 0
M  V30 1907 H 174.242 2.07865 -4.46154 0
M  V30 1908 N 175.894 1.51508 0.433938 0
M  V30 1909 C 176.841 1.73068 1.52696 0
M  V30 1910 C 177.811 0.572441 1.55924 0
M  V30 1911 O 178.996 0.807253 1.72882 0
M  V30 1912 C 176.136 1.86474 2.90381 0
M  V30 1913 C 175.249 3.14037 2.96656 0
M  V30 1914 C 174.384 3.18019 4.25485 0
M  V30 1915 C 173.423 4.39882 4.2564 0
M  V30 1916 N 172.56 4.41394 5.45999 0
M  V30 1917 H 177.4 2.66366 1.33615 0
M  V30 1918 H 174.937 1.32008 0.649018 0
M  V30 1919 H 176.895 1.92229 3.70275 0
M  V30 1920 H 175.525 0.965809 3.08013 0
M  V30 1921 H 174.577 3.17575 2.09404 0
M  V30 1922 H 175.889 4.0394 2.92633 0
M  V30 1923 H 175.043 3.22708 5.13755 0
M  V30 1924 H 173.782 2.2601 4.3217 0
M  V30 1925 H 172.787 4.35366 3.35763 0
M  V30 1926 H 174.012 5.33159 4.20617 0
M  V30 1927 H 171.958 3.52258 5.53399 0
M  V30 1928 H 171.875 5.25111 5.4387 0
M  V30 1929 H 173.143 4.50281 6.36292 0
M  V30 1930 N 177.372 -0.689602 1.41712 0
M  V30 1931 C 178.62 -1.4468 1.4111 0
M  V30 1932 C 178.941 -1.94986 0.0232196 0
M  V30 1933 O 178.211 -1.72097 -0.935913 0
M  V30 1934 H 176.791 -0.536847 0.519427 0
M  V30 1935 H 179.453 -0.815825 1.77004 0
M  V30 1936 H 178.549 -2.30706 2.10193 0
M  V30 1937 N 178.85 -1.27639 -0.924453 0
M  V30 1938 C 179.78 -1.13166 -2.04244 0
M  V30 1939 C 180.761 -0.032256 -1.70069 0
M  V30 1940 O 181.946 -0.207328 -1.9309 0
M  V30 1941 C 179.076 -0.781496 -3.38393 0
M  V30 1942 C 178.03 -1.83449 -3.86692 0
M  V30 1943 C 177.356 -1.33822 -5.17683 0
M  V30 1944 C 178.656 -3.23917 -4.09726 0
M  V30 1945 H 180.35 -2.06689 -2.1661 0
M  V30 1946 H 177.896 -0.995136 -1.04082 0
M  V30 1947 H 179.849 -0.667057 -4.16087 0
M  V30 1948 H 178.573 0.189439 -3.2605 0
M  V30 1949 H 177.232 -1.93789 -3.11193 0
M  V30 1950 H 176.88 -0.35665 -5.01734 0
M  V30 1951 H 176.58 -2.04224 -5.50968 0
M  V30 1952 H 178.104 -1.23679 -5.97943 0
M  V30 1953 H 179.518 -3.16559 -4.77978 0
M  V30 1954 H 177.915 -3.92059 -4.54324 0
M  V30 1955 H 178.985 -3.68729 -3.14908 0
M  V30 1956 N 180.328 1.1314 -1.09713 0
M  V30 1957 C 181.605 1.80762 -0.747302 0
M  V30 1958 C 181.985 1.96663 0.767265 0
M  V30 1959 O 181.333 1.53706 1.69076 0
M  V30 1960 C 181.543 3.15606 -1.48975 0
M  V30 1961 C 182.891 3.90914 -1.65746 0
M  V30 1962 O 183.915 3.25239 -1.45251 0
M  V30 1963 O 182.774 5.08718 -1.9967 0
M  V30 1964 H 179.868 0.782103 -0.268782 0
M  V30 1965 H 182.414 1.20041 -1.19951 0
M  V30 1966 H 181.186 2.99278 -2.52088 0
M  V30 1967 H 180.809 3.84029 -1.02991 0
M  V30 1968 N 181.806 0.884767 1.30421 0
M  V30 1969 C 182.736 0.367574 2.30589 0
M  V30 1970 C 183.717 -0.549464 1.60981 0
M  V30 1971 O 184.902 -0.46336 1.88591 0
M  V30 1972 C 182.032 -0.418944 3.44764 0
M  V30 1973 C 180.986 0.406316 4.26067 0
M  V30 1974 C 180.312 -0.506793 5.32293 0
M  V30 1975 C 181.612 1.64832 4.95608 0
M  V30 1976 H 183.306 1.20462 2.74097 0
M  V30 1977 H 180.852 0.580695 1.31772 0
M  V30 1978 H 182.805 -0.791395 4.13902 0
M  V30 1979 H 181.529 -1.28964 3.0006 0
M  V30 1980 H 180.188 0.760903 3.58617 0
M  V30 1981 H 179.836 -1.37519 4.83836 0
M  V30 1982 H 179.536 0.0415828 5.87585 0
M  V30 1983 H 181.06 -0.875764 6.04287 0
M  V30 1984 H 182.474 1.34646 5.57264 0
M  V30 1985 H 180.871 2.13688 5.60765 0
M  V30 1986 H 181.941 2.39284 4.21748 0
M  V30 1987 N 183.284 -1.43765 0.645699 0
M  V30 1988 C 184.533 -2.01116 0.153412 0
M  V30 1989 C 184.846 -1.51493 -1.23731 0
M  V30 1990 O 186.052 -2.01067 -1.8244 0
M  V30 1991 C 184.508 -3.59206 0.223473 0
M  V30 1992 C 184.116 -4.17823 1.61642 0
M  V30 1993 C 185.86 -4.23972 -0.211597 0
M  V30 1994 C 183.767 -5.68183 1.64081 0
M  V30 1995 H 182.697 -0.752093 0.0535891 0
M  V30 1996 H 185.348 -1.6482 0.806633 0
M  V30 1997 H 183.73 -3.92867 -0.497118 0
M  V30 1998 H 184.904 -3.95674 2.36176 0
M  V30 1999 H 183.219 -3.65399 1.99681 0
M  V30 2000 H 185.816 -5.34275 -0.213112 0
M  V30 2001 H 186.159 -3.97352 -1.24165 0
M  V30 2002 H 186.692 -3.95166 0.456988 0
M  V30 2003 H 183.431 -5.99559 2.64971 0
M  V30 2004 H 182.951 -5.9241 0.938611 0
M  V30 2005 H 184.63 -6.32085 1.3812 0
M  V30 2006 N 184.763 -0.387143 -1.52771 0
M  V30 2007 C 185.726 0.436939 -2.24997 0
M  V30 2008 C 186.726 0.991991 -1.26555 0
M  V30 2009 O 187.916 0.874335 -1.50669 0
M  V30 2010 C 185.048 1.61281 -3.00335 0
M  V30 2011 H 186.241 -0.195365 -2.99263 0
M  V30 2012 H 183.794 -0.139218 -1.55679 0
M  V30 2013 H 184.529 2.2826 -2.30364 0
M  V30 2014 H 184.314 1.22154 -3.72587 0
M  V30 2015 H 185.804 2.19629 -3.5518 0
M  V30 2016 N 186.241 1.57166 -0.116904 0
M  V30 2017 C 187.188 2.15202 0.83408 0
M  V30 2018 C 188.158 1.07644 1.26499 0
M  V30 2019 O 189.343 1.35541 1.34288 0
M  V30 2020 C 186.483 2.75405 2.07957 0
M  V30 2021 C 185.596 3.97264 1.69721 0
M  V30 2022 C 184.731 4.45561 2.89221 0
M  V30 2023 C 183.77 5.59956 2.47215 0
M  V30 2024 N 182.907 6.03006 3.59622 0
M  V30 2025 H 187.747 2.96141 0.332335 0
M  V30 2026 H 185.284 1.46309 0.152349 0
M  V30 2027 H 187.242 3.08439 2.80929 0
M  V30 2028 H 185.872 1.97159 2.55594 0
M  V30 2029 H 184.924 3.70404 0.866316 0
M  V30 2030 H 186.236 4.80226 1.34849 0
M  V30 2031 H 185.39 4.80493 3.7042 0
M  V30 2032 H 184.129 3.61544 3.27318 0
M  V30 2033 H 183.134 5.2463 1.64448 0
M  V30 2034 H 184.359 6.45738 2.10238 0
M  V30 2035 H 182.305 5.21931 3.97396 0
M  V30 2036 H 182.222 6.80819 3.28667 0
M  V30 2037 H 183.49 6.42576 4.41267 0
M  V30 2038 N 187.719 -0.156864 1.56817 0
M  V30 2039 C 188.966 -0.871125 1.82805 0
M  V30 2040 C 189.294 -1.81611 0.696262 0
M  V30 2041 O 188.549 -1.93141 -0.315459 0
M  V30 2042 C 188.848 -1.68737 3.1506 0
M  V30 2043 C 188.514 -0.890045 4.42028 0
M  V30 2044 C 187.176 -0.670042 4.76512 0
M  V30 2045 C 189.528 -0.331769 5.20143 0
M  V30 2046 C 186.856 0.119104 5.86579 0
M  V30 2047 C 189.208 0.444365 6.31037 0
M  V30 2048 C 187.872 0.675035 6.64078 0
M  V30 2049 H 187.142 -0.318767 0.668931 0
M  V30 2050 H 189.789 -0.135274 1.91022 0
M  V30 2051 H 188.094 -2.49304 3.0225 0
M  V30 2052 H 189.791 -2.24331 3.3238 0
M  V30 2053 H 186.381 -1.07157 4.14988 0
M  V30 2054 H 190.565 -0.489043 4.93885 0
M  V30 2055 H 185.821 0.307417 6.10627 0
M  V30 2056 H 189.995 0.884139 6.90765 0
M  V30 2057 H 187.622 1.28839 7.49203 0
M  V30 2058 N 189.197 -1.51736 -0.425897 0
M  V30 2059 C 190.16 -1.73271 -1.50032 0
M  V30 2060 C 191.16 -0.602639 -1.4908 0
M  V30 2061 O 192.35 -0.87033 -1.509 0
M  V30 2062 C 189.482 -1.79969 -2.89523 0
M  V30 2063 H 190.675 -2.69172 -1.32237 0
M  V30 2064 H 188.228 -1.41899 -0.65532 0
M  V30 2065 H 188.963 -0.859241 -3.1271 0
M  V30 2066 H 188.748 -2.62109 -2.91619 0
M  V30 2067 H 190.238 -1.9843 -3.67444 0
M  V30 2068 N 190.675 0.682077 -1.42076 0
M  V30 2069 C 191.903 1.47057 -1.4554 0
M  V30 2070 C 192.318 1.8869 -0.0645779 0
M  V30 2071 O 191.675 1.57666 0.919115 0
M  V30 2072 C 191.726 2.72442 -2.37609 0
M  V30 2073 O 191.447 2.32559 -3.71279 0
M  V30 2074 C 192.948 3.66069 -2.50017 0
M  V30 2075 H 190.168 0.452737 -0.495248 0
M  V30 2076 H 192.712 0.838695 -1.8651 0
M  V30 2077 H 190.867 3.31835 -1.9991 0
M  V30 2078 H 191.281 3.13475 -4.20516 0
M  V30 2079 H 192.755 4.50792 -3.18576 0
M  V30 2080 H 193.232 4.11476 -1.53572 0
M  V30 2081 H 193.838 3.12572 -2.88407 0
M  V30 2082 N 192.153 1.28127 0.917671 0
M  V30 2083 C 193.402 1.14432 1.66097 0
M  V30 2084 C 193.715 -0.307247 1.93172 0
M  V30 2085 O 194.921 -0.565259 2.65551 0
M  V30 2086 C 193.377 2.00015 2.99202 0
M  V30 2087 C 192.985 3.49889 2.79789 0
M  V30 2088 C 194.729 1.94996 3.77064 0
M  V30 2089 C 192.636 4.27636 4.08511 0
M  V30 2090 H 191.566 0.424662 0.62304 0
M  V30 2091 H 194.217 1.52628 1.01868 0
M  V30 2092 H 192.599 1.54672 3.64544 0
M  V30 2093 H 193.773 4.03162 2.23152 0
M  V30 2094 H 192.088 3.56392 2.15345 0
M  V30 2095 H 194.685 2.50354 4.72469 0
M  V30 2096 H 195.028 0.925819 4.05875 0
M  V30 2097 H 195.561 2.38287 3.18534 0
M  V30 2098 H 192.3 5.30615 3.84874 0
M  V30 2099 H 191.82 3.79137 4.64774 0
M  V30 2100 H 193.499 4.37346 4.76799 0
M  V30 2101 N 193.631 -1.12557 1.10312 0
M  V30 2102 C 194.877 -1.84311 0.846011 0
M  V30 2103 C 195.21 -1.83805 -0.626859 0
M  V30 2104 O 194.485 -1.28268 -1.46211 0
M  V30 2105 C 194.768 -3.32048 1.39341 0
M  V30 2106 C 194.621 -3.41016 2.93305 0
M  V30 2107 C 195.94 -4.27764 1.03468 0
M  V30 2108 H 193.059 -0.669192 0.30879 0
M  V30 2109 H 195.701 -1.32057 1.36605 0
M  V30 2110 H 193.851 -3.76678 0.951087 0
M  V30 2111 H 195.523 -3.05031 3.46055 0
M  V30 2112 H 193.766 -2.81603 3.29973 0
M  V30 2113 H 194.437 -4.44948 3.26689 0
M  V30 2114 H 196.913 -3.91253 1.41633 0
M  V30 2115 H 195.789 -5.29549 1.44463 0
M  V30 2116 H 196.05 -4.42064 -0.0560404 0
M  V30 2117 N 195.109 -0.891671 -1.2995 0
M  V30 2118 C 196.072 -0.36828 -2.26222 0
M  V30 2119 C 197.072 0.493014 -1.53056 0
M  V30 2120 O 198.262 0.299213 -1.71611 0
M  V30 2121 C 195.394 0.47442 -3.37583 0
M  V30 2122 H 196.587 -1.21844 -2.74033 0
M  V30 2123 H 194.14 -0.669107 -1.41254 0
M  V30 2124 H 194.875 1.34489 -2.95099 0
M  V30 2125 H 194.66 -0.142615 -3.91841 0
M  V30 2126 H 196.15 0.83218 -4.09224 0
M  V30 2127 N 196.587 1.43421 -0.653314 0
M  V30 2128 C 197.55 2.29182 0.0287951 0
M  V30 2129 C 198.55 1.42213 0.750465 0
M  V30 2130 O 199.74 1.63843 0.591701 0
M  V30 2131 C 196.872 3.24278 1.05151 0
M  V30 2132 H 198.065 2.90985 -0.725786 0
M  V30 2133 H 195.618 1.50702 -0.414545 0
M  V30 2134 H 196.353 2.6737 1.83532 0
M  V30 2135 H 196.138 3.88396 0.537687 0
M  V30 2136 H 197.628 3.88647 1.52786 0
M  V30 2137 N 198.065 0.39524 1.52563 0
M  V30 2138 C 199.013 -0.451859 2.28169 0
M  V30 2139 C 200.007 -1.05792 1.32304 0
M  V30 2140 O 201.213 -0.997718 1.49818 0
M  V30 2141 H 197.588 -0.164481 0.733792 0
M  V30 2142 H 199.559 0.207199 2.9768 0
M  V30 2143 C 198.308 -1.56385 3.10546 0
M  V30 2144 H 197.631 -1.10682 3.84174 0
M  V30 2145 H 199.071 -2.13067 3.66577 0
M  V30 2146 C 197.53 -2.52328 2.23231 0
M  V30 2147 O 198.06 -3.5588 1.86312 0
M  V30 2148 N 196.266 -2.22209 1.87274 0
M  V30 2149 H 195.813 -1.38033 2.17496 0
M  V30 2150 H 195.771 -2.86652 1.29143 0
M  V30 2151 N 199.544 -1.57102 0.125237 0
M  V30 2152 C 200.491 -2.15641 -0.822655 0
M  V30 2153 C 201.461 -1.08313 -1.25927 0
M  V30 2154 O 202.646 -1.36251 -1.33567 0
M  V30 2155 C 199.786 -2.76504 -2.06494 0
M  V30 2156 C 198.899 -3.98158 -1.67612 0
M  V30 2157 C 198.034 -4.47088 -2.86854 0
M  V30 2158 C 197.073 -5.6126 -2.44242 0
M  V30 2159 N 196.21 -6.04905 -3.56419 0
M  V30 2160 H 201.05 -2.96313 -0.316625 0
M  V30 2161 H 198.587 -1.46388 -0.144588 0
M  V30 2162 H 200.545 -3.09925 -2.79289 0
M  V30 2163 H 199.175 -1.98512 -2.54545 0
M  V30 2164 H 198.227 -3.70858 -0.846661 0
M  V30 2165 H 199.539 -4.80934 -1.32301 0
M  V30 2166 H 198.693 -4.82451 -3.67867 0
M  V30 2167 H 197.432 -3.63275 -3.25396 0
M  V30 2168 H 196.437 -5.25495 -1.61663 0
M  V30 2169 H 197.662 -6.46843 -2.0681 0
M  V30 2170 H 195.608 -5.24032 -3.94623 0
M  V30 2171 H 195.525 -6.82552 -3.25051 0
M  V30 2172 H 196.793 -6.44907 -4.37853 0
M  V30 2173 N 201.022 0.148545 -1.56898 0
M  V30 2174 C 202.438 0.501131 -1.51528 0
M  V30 2175 C 202.638 1.83458 -0.833399 0
M  V30 2176 O 201.694 2.49259 -0.40328 0
M  V30 2177 C 203.007 0.512864 -2.96294 0
M  V30 2178 C 204.555 0.598487 -3.07225 0
M  V30 2179 C 205.03 0.640897 -4.53494 0
M  V30 2180 N 206.521 0.703163 -4.57832 0
M  V30 2181 C 207.256 0.756935 -5.68382 0
M  V30 2182 N 206.752 0.770147 -6.88506 0
M  V30 2183 N 208.545 0.797698 -5.56411 0
M  V30 2184 H 200.696 -0.725532 -1.99624 0
M  V30 2185 H 202.959 -0.264358 -0.910395 0
M  V30 2186 H 202.665 -0.398691 -3.49433 0
M  V30 2187 H 202.539 1.35133 -3.52163 0
M  V30 2188 H 204.926 1.50046 -2.54106 0
M  V30 2189 H 205.007 -0.267093 -2.54402 0
M  V30 2190 H 204.651 -0.256915 -5.0725 0
M  V30 2191 H 204.581 1.52295 -5.04097 0
M  V30 2192 H 207.072 0.700314 -3.71354 0
M  V30 2193 H 207.385 0.812983 -7.68512 0
M  V30 2194 H 205.73 0.738049 -6.9107 0
M  V30 2195 H 208.921 0.784535 -4.61479 0
M  V30 2196 H 209.094 0.83614 -6.42583 0
M  V30 2197 N 202.5 1.5196 0.417844 0
M  V30 2198 C 203.43 1.77634 1.51554 0
M  V30 2199 C 204.411 0.626918 1.58126 0
M  V30 2200 O 205.596 0.871632 1.7354 0
M  V30 2201 C 202.726 1.91911 2.8946 0
M  V30 2202 C 201.68 3.07463 2.97743 0
M  V30 2203 C 201.006 3.06951 4.37819 0
M  V30 2204 C 202.306 4.47082 2.70027 0
M  V30 2205 H 204 2.6955 1.3032 0
M  V30 2206 H 201.546 1.29706 0.625492 0
M  V30 2207 H 203.499 2.08455 3.6623 0
M  V30 2208 H 202.223 0.966598 3.11969 0
M  V30 2209 H 200.882 2.90656 2.23416 0
M  V30 2210 H 200.53 2.09438 4.57323 0
M  V30 2211 H 200.23 3.84556 4.44286 0
M  V30 2212 H 201.754 3.25613 5.16535 0
M  V30 2213 H 203.168 4.6414 3.36522 0
M  V30 2214 H 201.565 5.2654 2.87881 0
M  V30 2215 H 202.635 4.55777 1.65514 0
M  V30 2216 N 203.978 -0.674533 1.42435 0
M  V30 2217 C 204.925 -1.78807 1.45934 0
M  V30 2218 C 205.895 -1.63157 0.311271 0
M  V30 2219 O 207.08 -1.83707 0.515383 0
M  V30 2220 C 204.22 -3.16839 1.36773 0
M  V30 2221 C 203.333 -3.43774 2.61617 0
M  V30 2222 C 202.468 -4.71536 2.44597 0
M  V30 2223 C 201.507 -4.91505 3.64814 0
M  V30 2224 N 200.644 -6.10508 3.46734 0
M  V30 2225 H 205.484 -1.75151 2.41093 0
M  V30 2226 H 203.021 -0.85504 1.19697 0
M  V30 2227 H 204.979 -3.96606 1.29459 0
M  V30 2228 H 203.609 -3.19619 0.452089 0
M  V30 2229 H 202.661 -2.58259 2.79297 0
M  V30 2230 H 203.973 -3.54423 3.50978 0
M  V30 2231 H 203.127 -5.59393 2.3487 0
M  V30 2232 H 201.866 -4.6317 1.52726 0
M  V30 2233 H 200.871 -4.0209 3.74972 0
M  V30 2234 H 202.096 -5.01716 4.57665 0
M  V30 2235 H 200.042 -6.03315 2.5758 0
M  V30 2236 H 199.959 -6.2202 4.29682 0
M  V30 2237 H 201.227 -7.01044 3.40819 0
M  V30 2238 N 205.456 -1.28612 -0.910864 0
M  V30 2239 C 206.366 -1.14643 -2.0468 0
M  V30 2240 C 207.382 -0.0723121 -1.7385 0
M  V30 2241 O 208.558 -0.282178 -1.99413 0
M  V30 2242 C 205.623 -0.812561 -3.37044 0
M  V30 2243 C 204.684 -1.96935 -3.81465 0
M  V30 2244 C 203.917 -1.65131 -5.07511 0
M  V30 2245 O 204.14 -0.567013 -5.67575 0
M  V30 2246 O 203.074 -2.49585 -5.47714 0
M  V30 2247 H 206.9 -2.1001 -2.19384 0
M  V30 2248 H 204.485 -1.07958 -1.03274 0
M  V30 2249 H 206.367 -0.640441 -4.16505 0
M  V30 2250 H 205.042 0.111426 -3.23508 0
M  V30 2251 H 203.949 -2.19664 -3.02818 0
M  V30 2252 H 205.282 -2.87414 -3.99567 0
M  V30 2253 N 206.934 1.1197 -1.10907 0
M  V30 2254 C 208.182 1.83225 -0.852819 0
M  V30 2255 C 208.503 1.84769 0.623341 0
M  V30 2256 O 207.773 1.3143 1.45269 0
M  V30 2257 H 206.353 0.67849 -0.312507 0
M  V30 2258 H 209.015 1.3556 -1.40033 0
M  V30 2259 H 208.111 2.87265 -1.22005 0
M  V30 2260 N 208.412 0.89855 1.29475 0
M  V30 2261 C 209.359 0.373819 2.27753 0
M  V30 2262 C 210.329 -0.543444 1.56958 0
M  V30 2263 O 211.514 -0.468934 1.84948 0
M  V30 2264 C 208.654 -0.393648 3.42848 0
M  V30 2265 C 207.767 0.554379 4.28428 0
M  V30 2266 C 206.902 -0.230026 5.30702 0
M  V30 2267 C 205.941 0.712599 6.07938 0
M  V30 2268 N 205.078 -0.0373283 7.0209 0
M  V30 2269 H 209.918 1.21699 2.72017 0
M  V30 2270 H 207.455 0.611456 1.33789 0
M  V30 2271 H 209.413 -0.85466 4.08352 0
M  V30 2272 H 208.043 -1.20128 2.99615 0
M  V30 2273 H 207.095 1.13391 3.63107 0
M  V30 2274 H 208.407 1.27597 4.82204 0
M  V30 2275 H 207.561 -0.752288 6.02018 0
M  V30 2276 H 206.3 -0.984758 4.77654 0
M  V30 2277 H 205.305 1.24637 5.35486 0
M  V30 2278 H 206.53 1.46664 6.63074 0
M  V30 2279 H 204.476 -0.774348 6.51414 0
M  V30 2280 H 204.393 0.624374 7.53417 0
M  V30 2281 H 205.661 -0.539891 7.77628 0
M  V30 2282 N 209.89 -1.43072 0.660911 0
M  V30 2283 C 210.8 -2.34585 -0.0264163 0
M  V30 2284 C 211.816 -1.54316 -0.803898 0
M  V30 2285 O 212.992 -1.86939 -0.749391 0
M  V30 2286 C 210.057 -3.32689 -0.975639 0
M  V30 2287 C 209.118 -4.2886 -0.194236 0
M  V30 2288 C 208.351 -5.22278 -1.09825 0
M  V30 2289 O 208.574 -5.20299 -2.33763 0
M  V30 2290 O 207.508 -5.99228 -0.566513 0
M  V30 2291 H 211.334 -2.94869 0.727034 0
M  V30 2292 H 208.919 -1.43342 0.42111 0
M  V30 2293 H 210.801 -3.92995 -1.52094 0
M  V30 2294 H 209.476 -2.74898 -1.70918 0
M  V30 2295 H 208.383 -3.72011 0.394835 0
M  V30 2296 H 209.716 -4.89655 0.499899 0
M  V30 2297 N 211.368 -0.403325 -1.52352 0
M  V30 2298 C 212.779 0.0675782 -1.86578 0
M  V30 2299 C 213.13 1.44941 -1.32236 0
M  V30 2300 O 212.255 2.06112 -0.659307 0
M  V30 2301 C 212.85 0.129404 -3.38553 0
M  V30 2302 C 211.409 0.544629 -3.72439 0
M  V30 2303 C 210.556 -0.284551 -2.75836 0
M  V30 2304 H 213.507 -0.620631 -1.46061 0
M  V30 2305 H 213.528 0.94581 -3.68558 0
M  V30 2306 H 213.04 -0.87645 -3.78074 0
M  V30 2307 H 211.141 1.55734 -3.38493 0
M  V30 2308 H 211.254 0.293046 -4.78203 0
M  V30 2309 H 209.618 0.252258 -2.53448 0
M  V30 2310 H 210.401 -1.28865 -3.18196 0
M  V30 2311 N 212.846 1.57033 -0.133567 0
M  V30 2312 C 214.095 1.94861 0.520768 0
M  V30 2313 C 214.408 1.02012 1.66892 0
M  V30 2314 O 215.614 1.29365 2.38699 0
M  V30 2315 C 214.07 3.46362 0.977809 0
M  V30 2316 C 213.678 4.47773 -0.142674 0
M  V30 2317 C 215.422 3.93083 1.60269 0
M  V30 2318 C 213.329 5.90468 0.331883 0
M  V30 2319 H 212.259 0.727453 0.198315 0
M  V30 2320 H 214.91 1.82227 -0.215759 0
M  V30 2321 H 213.292 3.54282 1.7692 0
M  V30 2322 H 214.466 4.51536 -0.919317 0
M  V30 2323 H 212.781 4.10891 -0.675124 0
M  V30 2324 H 215.378 4.97121 1.96914 0
M  V30 2325 H 215.721 3.33876 2.48662 0
M  V30 2326 H 216.254 3.88025 0.876453 0
M  V30 2327 H 212.993 6.53463 -0.516341 0
M  V30 2328 H 212.513 5.90094 1.07469 0
M  V30 2329 H 214.192 6.42179 0.788332 0
M  V30 2330 N 214.325 -0.140222 1.56975 0
M  V30 2331 C 215.736 -0.699596 1.73097 0
M  V30 2332 C 216.087 -1.8134 0.749022 0
M  V30 2333 O 215.212 -2.16241 -0.0828503 0
M  V30 2334 C 215.807 -1.27582 3.1386 0
M  V30 2335 C 214.366 -1.78169 3.31561 0
M  V30 2336 C 213.513 -0.672855 2.69013 0
M  V30 2337 H 216.464 0.0855115 1.58469 0
M  V30 2338 H 216.485 -2.14561 3.14235 0
M  V30 2339 H 215.997 -0.464955 3.85305 0
M  V30 2340 H 214.098 -2.61801 2.65124 0
M  V30 2341 H 214.211 -1.90574 4.39566 0
M  V30 2342 H 212.575 -1.10118 2.29665 0
M  V30 2343 H 213.358 0.126679 3.43066 0
M  V30 2344 N 215.803 -1.52179 -0.40978 0
M  V30 2345 C 217.214 -1.58377 -0.988615 0
M  V30 2346 C 217.565 -0.423879 -1.91566 0
M  V30 2347 O 216.69 0.455844 -2.11544 0
M  V30 2348 C 217.285 -2.87044 -1.79976 0
M  V30 2349 C 215.844 -2.95722 -2.32863 0
M  V30 2350 C 214.991 -2.53309 -1.12828 0
M  V30 2351 H 217.942 -1.57558 -0.190039 0
M  V30 2352 H 217.963 -2.7236 -2.65707 0
M  V30 2353 H 217.475 -3.71444 -1.12478 0
M  V30 2354 H 215.576 -2.15814 -3.03735 0
M  V30 2355 H 215.689 -3.99951 -2.63773 0
M  V30 2356 H 214.053 -2.07142 -1.48204 0
M  V30 2357 H 214.836 -3.40082 -0.46897 0
M  V30 2358 N 217.281 0.66697 -1.42791 0
M  V30 2359 C 218.697 0.981027 -1.25889 0
M  V30 2360 C 218.897 2.00793 -0.168695 0
M  V30 2361 O 217.953 2.48321 0.45747 0
M  V30 2362 C 219.266 1.47838 -2.61848 0
M  V30 2363 C 220.814 1.59575 -2.69267 0
M  V30 2364 C 221.289 2.12704 -4.05612 0
M  V30 2365 N 222.78 2.20026 -4.07606 0
M  V30 2366 C 223.515 2.62227 -5.09926 0
M  V30 2367 N 223.011 3.03824 -6.22626 0
M  V30 2368 N 224.804 2.62045 -4.97281 0
M  V30 2369 H 216.955 -0.0127891 -2.12396 0
M  V30 2370 H 219.218 0.0568258 -0.946295 0
M  V30 2371 H 218.924 0.798299 -3.4252 0
M  V30 2372 H 218.798 2.45579 -2.86305 0
M  V30 2373 H 221.185 2.26687 -1.88936 0
M  V30 2374 H 221.266 0.60302 -2.48591 0
M  V30 2375 H 220.91 1.46198 -4.86404 0
M  V30 2376 H 220.84 3.12782 -4.23645 0
M  V30 2377 H 223.331 1.90708 -3.2625 0
M  V30 2378 H 223.644 3.34734 -6.96544 0
M  V30 2379 H 221.989 3.01662 -6.26119 0
M  V30 2380 H 225.18 2.28916 -4.08308 0
M  V30 2381 H 225.353 2.94613 -5.77154 0
M  V30 2382 N 218.759 1.29093 0.90403 0
M  V30 2383 C 219.669 1.15727 2.0407 0
M  V30 2384 C 220.685 0.0815308 1.73809 0
M  V30 2385 O 221.861 0.292749 1.99261 0
M  V30 2386 C 218.926 0.830424 3.36608 0
M  V30 2387 C 217.987 1.98955 3.80415 0
M  V30 2388 C 217.22 1.6782 5.06628 0
M  V30 2389 O 217.443 0.597105 5.67266 0
M  V30 2390 O 216.377 2.52486 5.46383 0
M  V30 2391 H 220.203 2.11171 2.18267 0
M  V30 2392 H 217.788 1.08504 1.027 0
M  V30 2393 H 219.67 0.662521 4.16159 0
M  V30 2394 H 218.345 -0.0942678 3.23563 0
M  V30 2395 H 217.252 2.21267 3.01648 0
M  V30 2396 H 218.585 2.89529 3.98037 0
M  V30 2397 N 220.237 -1.11381 1.11499 0
M  V30 2398 C 221.514 -1.7955 0.775965 0
M  V30 2399 C 221.894 -1.97859 -0.73588 0
M  V30 2400 O 221.242 -1.56376 -1.66609 0
M  V30 2401 C 221.452 -3.13196 1.53977 0
M  V30 2402 C 222.8 -3.88227 1.71944 0
M  V30 2403 O 223.824 -3.22887 1.50407 0
M  V30 2404 O 222.683 -5.05477 2.07738 0
M  V30 2405 H 219.777 -0.777728 0.28119 0
M  V30 2406 H 222.323 -1.18118 1.21845 0
M  V30 2407 H 221.095 -2.95229 2.56818 0
M  V30 2408 H 220.718 -3.82342 1.09088 0
M  V30 2409 N 221.715 -0.905404 -1.28997 0
M  V30 2410 C 222.645 -0.404212 -2.29975 0
M  V30 2411 C 223.626 0.523784 -1.61835 0
M  V30 2412 O 224.811 0.433298 -1.89304 0
M  V30 2413 C 221.941 0.364042 -3.45387 0
M  V30 2414 C 220.895 -0.474048 -4.25367 0
M  V30 2415 C 220.221 0.422045 -5.33032 0
M  V30 2416 C 221.521 -1.72696 -4.92923 0
M  V30 2417 H 223.215 -1.24807 -2.72146 0
M  V30 2418 H 220.761 -0.601585 -1.30832 0
M  V30 2419 H 222.714 0.725447 -4.15109 0
M  V30 2420 H 221.438 1.24174 -3.02074 0
M  V30 2421 H 220.097 -0.81786 -3.57361 0
M  V30 2422 H 219.745 1.29804 -4.85963 0
M  V30 2423 H 219.445 -0.135057 -5.87445 0
M  V30 2424 H 220.969 0.779517 -6.05604 0
M  V30 2425 H 222.383 -1.43495 -5.55051 0
M  V30 2426 H 220.78 -2.22582 -5.57295 0
M  V30 2427 H 221.85 -2.45964 -4.17887 0
M  V30 2428 N 223.193 1.4272 -0.668489 0
M  V30 2429 C 224.418 2.06484 -0.194758 0
M  V30 2430 C 224.843 1.49862 1.13679 0
M  V30 2431 O 224.201 0.614582 1.70565 0
M  V30 2432 C 224.249 3.60353 -0.133546 0
M  V30 2433 O 223.353 4.02464 0.899806 0
M  V30 2434 H 222.694 0.656137 -0.10188 0
M  V30 2435 H 225.224 1.82964 -0.915722 0
M  V30 2436 H 225.234 4.07976 0.0447041 0
M  V30 2437 H 223.909 4.00938 -1.1055 0
M  V30 2438 H 222.486 3.66402 0.693109 0
M  V30 2439 N 224.671 0.411399 1.52136 0
M  V30 2440 C 225.621 -0.430376 2.23901 0
M  V30 2441 C 226.605 -1.0116 1.25121 0
M  V30 2442 O 227.797 -0.934044 1.50348 0
M  V30 2443 C 224.926 -1.54527 3.06556 0
M  V30 2444 C 224.012 -0.9747 4.12747 0
M  V30 2445 N 224.403 -0.130991 5.0563 0
M  V30 2446 C 222.701 -1.24497 4.28271 0
M  V30 2447 C 223.402 0.186689 5.814 0
M  V30 2448 N 222.378 -0.42304 5.41951 0
M  V30 2449 H 226.18 0.220509 2.93072 0
M  V30 2450 H 223.694 0.221952 1.60876 0
M  V30 2451 H 225.691 -2.16093 3.56524 0
M  V30 2452 H 224.351 -2.19875 2.38925 0
M  V30 2453 H 225.362 0.23349 5.17373 0
M  V30 2454 H 222.039 -1.89787 3.7187 0
M  V30 2455 H 223.429 0.871673 6.66222 0
M  V30 2456 N 226.149 -1.5696 0.141893 0
M  V30 2457 C 227.112 -2.15316 -0.785587 0
M  V30 2458 C 228.112 -1.09366 -1.1788 0
M  V30 2459 O 229.302 -1.35031 -1.10056 0
M  V30 2460 C 226.434 -2.71211 -2.06537 0
M  V30 2461 H 227.627 -2.98608 -0.278041 0
M  V30 2462 H 225.18 -1.5593 -0.107519 0
M  V30 2463 H 225.915 -1.91571 -2.6167 0
M  V30 2464 H 225.7 -3.4872 -1.79268 0
M  V30 2465 H 227.19 -3.16189 -2.72789 0
M  V30 2466 N 227.627 0.131896 -1.57047 0
M  V30 2467 C 228.59 1.14638 -1.98471 0
M  V30 2468 C 229.59 1.35029 -0.873148 0
M  V30 2469 O 230.78 1.31764 -1.13946 0
M  V30 2470 C 227.912 2.50358 -2.31373 0
M  V30 2471 H 229.105 0.79064 -2.8929 0
M  V30 2472 H 226.658 0.375761 -1.51716 0
M  V30 2473 H 227.393 2.90876 -1.43393 0
M  V30 2474 H 227.178 2.36915 -3.12432 0
M  V30 2475 H 228.668 3.23395 -2.64207 0
M  V30 2476 N 229.106 1.52395 0.401703 0
M  V30 2477 C 230.054 1.7689 1.51039 0
M  V30 2478 C 231.048 0.636298 1.56996 0
M  V30 2479 O 232.254 0.818507 1.60314 0
M  V30 2480 H 228.629 0.559502 0.502456 0
M  V30 2481 H 230.6 2.69757 1.27568 0
M  V30 2482 C 229.349 1.94331 2.88324 0
M  V30 2483 H 228.672 2.80905 2.84486 0
M  V30 2484 H 230.112 2.15466 3.65172 0
M  V30 2485 C 228.571 0.712396 3.29282 0
M  V30 2486 O 229.101 -0.116218 4.01532 0
M  V30 2487 N 227.307 0.546154 2.85422 0
M  V30 2488 H 226.854 1.22156 2.26794 0
M  V30 2489 H 226.812 -0.276113 3.13185 0
M  V30 2490 N 230.584 -0.659388 1.43143 0
M  V30 2491 C 231.831 -1.41935 1.44433 0
M  V30 2492 C 232.159 -1.94387 0.0663522 0
M  V30 2493 O 231.414 -1.72314 -0.927706 0
M  V30 2494 C 231.713 -2.62206 2.42864 0
M  V30 2495 C 231.379 -2.28208 3.88886 0
M  V30 2496 C 230.041 -2.18647 4.28657 0
M  V30 2497 C 232.393 -2.00887 4.8093 0
M  V30 2498 C 229.721 -1.79914 5.58433 0
M  V30 2499 C 232.073 -1.63653 6.11065 0
M  V30 2500 C 230.737 -1.52614 6.49819 0
M  V30 2501 H 230.007 -0.519376 0.528517 0
M  V30 2502 H 232.654 -0.750453 1.76183 0
M  V30 2503 H 230.959 -3.34199 2.04495 0
M  V30 2504 H 232.656 -3.2041 2.41119 0
M  V30 2505 H 229.246 -2.36557 3.57406 0
M  V30 2506 H 233.43 -2.07198 4.5098 0
M  V30 2507 H 228.686 -1.69948 5.87305 0
M  V30 2508 H 232.86 -1.41543 6.81864 0
M  V30 2509 H 230.487 -1.22371 7.50286 0
M  V30 2510 N 232.062 -1.29571 -0.897171 0
M  V30 2511 C 232.992 -1.17473 -2.01798 0
M  V30 2512 C 233.973 -0.068323 -1.69963 0
M  V30 2513 O 235.158 -0.248239 -1.92607 0
M  V30 2514 C 232.288 -0.853099 -3.36659 0
M  V30 2515 C 231.242 -1.9161 -3.82713 0
M  V30 2516 C 230.568 -1.44773 -5.14728 0
M  V30 2517 C 231.868 -3.32535 -4.02763 0
M  V30 2518 H 233.562 -2.11237 -2.12177 0
M  V30 2519 H 231.108 -1.01699 -1.01948 0
M  V30 2520 H 233.061 -0.755165 -4.14578 0
M  V30 2521 H 231.785 0.120236 -3.26379 0
M  V30 2522 H 230.444 -2.00346 -3.07013 0
M  V30 2523 H 230.092 -0.462995 -5.00865 0
M  V30 2524 H 229.792 -2.15865 -5.46513 0
M  V30 2525 H 231.316 -1.36334 -5.95185 0
M  V30 2526 H 232.73 -3.26626 -4.71156 0
M  V30 2527 H 231.127 -4.01607 -4.45905 0
M  V30 2528 H 232.197 -3.75326 -3.07016 0
M  V30 2529 N 233.54 1.10788 -1.12088 0
M  V30 2530 C 234.77 1.86191 -0.895351 0
M  V30 2531 C 235.178 1.80763 0.558702 0
M  V30 2532 O 234.521 1.19188 1.39785 0
M  V30 2533 C 234.583 3.35659 -1.28737 0
M  V30 2534 C 234.247 3.64849 -2.75198 0
M  V30 2535 C 235.244 3.61757 -3.734 0
M  V30 2536 C 232.929 3.93641 -3.12013 0
M  V30 2537 C 234.923 3.87045 -5.06434 0
M  V30 2538 C 232.61 4.18585 -4.4523 0
M  V30 2539 C 233.608 4.15277 -5.42249 0
M  V30 2540 O 233.296 4.3959 -6.73065 0
M  V30 2541 H 233.028 0.595425 -0.32007 0
M  V30 2542 H 235.582 1.40992 -1.49367 0
M  V30 2543 H 233.812 3.81497 -0.63224 0
M  V30 2544 H 235.501 3.92441 -1.03656 0
M  V30 2545 H 236.267 3.39557 -3.46303 0
M  V30 2546 H 232.146 3.95348 -2.37109 0
M  V30 2547 H 235.69 3.84378 -5.82151 0
M  V30 2548 H 231.587 4.40264 -4.72057 0
M  V30 2549 H 232.355 4.57123 -6.78956 0
M  V30 2550 N 235.018 0.912232 1.28515 0
M  V30 2551 C 235.951 0.343928 2.25593 0
M  V30 2552 C 236.929 -0.550994 1.5298 0
M  V30 2553 O 238.113 -0.494991 1.81885 0
M  V30 2554 C 235.24 -0.508525 3.34861 0
M  V30 2555 C 234.286 0.320808 4.25292 0
M  V30 2556 S 235.119 1.72658 5.06902 0
M  V30 2557 C 236.275 0.881394 6.19663 0
M  V30 2558 H 236.508 1.16674 2.73449 0
M  V30 2559 H 234.041 0.713384 1.36931 0
M  V30 2560 H 235.999 -0.994539 3.9827 0
M  V30 2561 H 234.66 -1.30571 2.85675 0
M  V30 2562 H 233.853 -0.330941 5.02912 0
M  V30 2563 H 233.455 0.74042 3.66598 0
M  V30 2564 H 235.747 0.110359 6.7741 0
M  V30 2565 H 236.69 1.63009 6.89082 0
M  V30 2566 H 237.098 0.430239 5.62858 0
M  V30 2567 N 236.496 -1.42363 0.676048 0
M  V30 2568 C 237.459 -2.29199 0.00766941 0
M  V30 2569 C 238.459 -1.43389 -0.727745 0
M  V30 2570 O 239.649 -1.64764 -0.56556 0
M  V30 2571 C 236.781 -3.2591 -0.999785 0
M  V30 2572 H 237.974 -2.89794 0.771988 0
M  V30 2573 H 235.527 -1.50024 0.438468 0
M  V30 2574 H 236.262 -2.70256 -1.79255 0
M  V30 2575 H 236.047 -3.89202 -0.475829 0
M  V30 2576 H 237.537 -3.91028 -1.46583 0
M  V30 2577 N 237.974 -0.419461 -1.51915 0
M  V30 2578 C 238.922 0.415502 -2.28859 0
M  V30 2579 C 239.916 1.03674 -1.3397 0
M  V30 2580 O 241.122 0.973757 -1.51387 0
M  V30 2581 H 237.497 0.152786 -0.736315 0
M  V30 2582 H 239.468 -0.254531 -2.97312 0
M  V30 2583 C 238.217 1.51425 -3.12995 0
M  V30 2584 H 237.54 1.04556 -3.85886 0
M  V30 2585 H 238.98 2.07208 -3.6992 0
M  V30 2586 C 237.439 2.48745 -2.27217 0
M  V30 2587 O 237.969 3.52871 -1.9195 0
M  V30 2588 N 236.175 2.19202 -1.90785 0
M  V30 2589 H 235.722 1.34556 -2.19664 0
M  V30 2590 H 235.68 2.84561 -1.33687 0
M  V30 2591 N 239.452 1.56882 -0.150215 0
M  V30 2592 C 240.7 1.9584 0.499105 0
M  V30 2593 C 241.021 1.03623 1.65188 0
M  V30 2594 O 240.291 0.0984084 1.95653 0
M  V30 2595 H 238.871 0.723119 0.187373 0
M  V30 2596 H 241.533 1.9358 -0.226466 0
M  V30 2597 H 240.629 2.99638 0.873122 0
M  V30 2598 N 240.93 -0.123565 1.57115 0
M  V30 2599 C 242.176 -0.833386 1.84885 0
M  V30 2600 C 242.509 -1.79742 0.735292 0
M  V30 2601 O 241.784 -1.92764 -0.25925 0
M  V30 2602 C 242.067 -1.5873 3.23228 0
M  V30 2603 C 241.92 -0.643183 4.45178 0
M  V30 2604 C 243.239 -2.54453 3.59085 0
M  V30 2605 H 240.358 -0.301518 0.6725 0
M  V30 2606 H 243 -0.097778 1.89748 0
M  V30 2607 H 241.15 -2.21438 3.19214 0
M  V30 2608 H 242.822 -0.0253015 4.61293 0
M  V30 2609 H 241.065 0.0456139 4.33776 0
M  V30 2610 H 241.736 -1.20724 5.38637 0
M  V30 2611 H 244.212 -2.01853 3.63861 0
M  V30 2612 H 243.088 -3.04238 4.5687 0
M  V30 2613 H 243.349 -3.36906 2.86264 0
M  V30 2614 N 242.408 -1.52605 -0.393616 0
M  V30 2615 C 243.318 -1.79971 -1.50492 0
M  V30 2616 C 244.334 -0.686181 -1.59899 0
M  V30 2617 O 245.51 -0.973274 -1.76322 0
M  V30 2618 C 242.575 -1.95867 -2.86072 0
M  V30 2619 C 241.636 -3.19781 -2.86424 0
M  V30 2620 C 240.869 -3.34909 -4.15538 0
M  V30 2621 O 241.092 -2.54948 -5.10253 0
M  V30 2622 O 240.026 -4.28141 -4.23059 0
M  V30 2623 H 243.852 -2.74328 -1.30299 0
M  V30 2624 H 241.437 -1.3764 -0.581005 0
M  V30 2625 H 243.319 -2.08056 -3.66457 0
M  V30 2626 H 241.994 -1.04699 -3.063 0
M  V30 2627 H 240.901 -3.13038 -2.04837 0
M  V30 2628 H 242.234 -4.1078 -2.71147 0
M  V30 2629 N 243.887 0.651787 -1.4349 0
M  V30 2630 C 245.298 1.233 -1.40193 0
M  V30 2631 C 245.649 1.9591 -0.106727 0
M  V30 2632 O 244.774 2.01316 0.793773 0
M  V30 2633 C 245.369 2.24257 -2.53957 0
M  V30 2634 C 243.928 2.77852 -2.5392 0
M  V30 2635 C 243.075 1.52517 -2.3159 0
M  V30 2636 H 246.026 0.443717 -1.52371 0
M  V30 2637 H 246.047 3.0646 -2.25528 0
M  V30 2638 H 245.559 1.71382 -3.4821 0
M  V30 2639 H 243.66 3.34786 -1.63551 0
M  V30 2640 H 243.773 3.25299 -3.51735 0
M  V30 2641 H 242.137 1.79915 -1.80285 0
M  V30 2642 H 242.92 1.01574 -3.27929 0
M  V30 2643 N 245.365 1.30045 0.890287 0
M  V30 2644 C 246.59 1.21598 1.68014 0
M  V30 2645 C 247.015 -0.218678 1.86825 0
M  V30 2646 O 246.373 -1.15756 1.39536 0
M  V30 2647 C 246.421 1.94434 3.03691 0
M  V30 2648 O 245.525 1.2678 3.92429 0
M  V30 2649 H 244.866 0.420856 0.513592 0
M  V30 2650 H 247.396 1.71775 1.11151 0
M  V30 2651 H 247.406 2.03251 3.5377 0
M  V30 2652 H 246.081 2.98777 2.89318 0
M  V30 2653 H 244.658 1.26282 3.50866 0
M  V30 2654 N 246.843 -1.10192 1.12674 0
M  V30 2655 C 248.254 -1.63707 0.897604 0
M  V30 2656 C 248.605 -1.87812 -0.567546 0
M  V30 2657 O 247.73 -1.62196 -1.43253 0
M  V30 2658 C 248.325 -2.974 1.62292 0
M  V30 2659 C 246.884 -3.47772 1.43986 0
M  V30 2660 C 246.031 -2.22332 1.65722 0
M  V30 2661 H 248.982 -0.936587 1.28116 0
M  V30 2662 H 249.003 -3.64986 1.07541 0
M  V30 2663 H 248.515 -2.79824 2.68924 0
M  V30 2664 H 246.616 -3.70487 0.396206 0
M  V30 2665 H 246.729 -4.25723 2.19765 0
M  V30 2666 H 245.093 -2.30599 1.08149 0
M  V30 2667 H 245.876 -2.07285 2.73657 0
M  V30 2668 N 248.321 -0.919034 -1.28029 0
M  V30 2669 C 249.231 -0.416756 -2.30869 0
M  V30 2670 C 250.247 0.498235 -1.66714 0
M  V30 2671 O 251.423 0.383144 -1.97722 0
M  V30 2672 C 248.488 0.330274 -3.45123 0
M  V30 2673 C 247.549 -0.618578 -4.2482 0
M  V30 2674 C 246.782 0.0928959 -5.33619 0
M  V30 2675 O 247.005 1.31375 -5.55065 0
M  V30 2676 O 245.939 -0.574499 -5.99152 0
M  V30 2677 H 249.765 -1.27043 -2.75851 0
M  V30 2678 H 247.35 -0.684052 -1.3282 0
M  V30 2679 H 249.232 0.751972 -4.14636 0
M  V30 2680 H 247.907 1.1597 -3.02213 0
M  V30 2681 H 246.814 -1.08978 -3.57875 0
M  V30 2682 H 248.147 -1.41497 -4.71423 0
M  V30 2683 N 249.799 1.42003 -0.683588 0
M  V30 2684 C 250.731 2.29183 0.0283068 0
M  V30 2685 C 251.744 1.4415 0.756611 0
M  V30 2686 O 252.933 1.67779 0.609306 0
M  V30 2687 C 250.033 3.21765 1.06398 0
M  V30 2688 C 249.206 4.35496 0.407723 0
M  V30 2689 C 248.265 5.08737 1.34437 0
M  V30 2690 O 247.291 5.62948 0.841318 0
M  V30 2691 N 248.493 5.15075 2.67728 0
M  V30 2692 H 251.258 2.9092 -0.720105 0
M  V30 2693 H 248.819 1.53025 -0.528682 0
M  V30 2694 H 250.811 3.6763 1.69204 0
M  V30 2695 H 249.381 2.61418 1.71404 0
M  V30 2696 H 248.601 3.92165 -0.400012 0
M  V30 2697 H 249.889 5.08776 -0.0490956 0
M  V30 2698 H 249.287 4.72457 3.11129 0
M  V30 2699 H 247.844 5.64556 3.2576 0
M  V30 2700 N 251.277 0.427512 1.51691 0
M  V30 2701 C 252.24 -0.377132 2.26076 0
M  V30 2702 C 253.24 -0.958089 1.29141 0
M  V30 2703 O 254.43 -0.83408 1.52934 0
M  V30 2704 C 251.562 -1.53262 3.04506 0
M  V30 2705 H 252.755 0.27464 2.9864 0
M  V30 2706 H 250.308 0.180445 1.55255 0
M  V30 2707 H 251.043 -2.22072 2.36335 0
M  V30 2708 H 250.828 -1.12232 3.75694 0
M  V30 2709 H 252.318 -2.10135 3.60878 0
M  V30 2710 N 252.755 -1.56801 0.158532 0
M  V30 2711 C 254.171 -1.5837 -0.197774 0
M  V30 2712 C 254.371 -1.17334 -1.63814 0
M  V30 2713 O 253.427 -0.878988 -2.36707 0
M  V30 2714 C 254.74 -3.00615 0.0714459 0
M  V30 2715 C 256.288 -3.12999 0.00864533 0
M  V30 2716 C 256.763 -4.57313 0.250685 0
M  V30 2717 N 258.254 -4.62777 0.198014 0
M  V30 2718 C 258.989 -5.72271 0.359642 0
M  V30 2719 N 258.485 -6.90371 0.579625 0
M  V30 2720 N 260.278 -5.61318 0.296438 0
M  V30 2721 H 252.429 -1.81765 1.09887 0
M  V30 2722 H 254.692 -0.841849 0.435884 0
M  V30 2723 H 254.398 -3.35068 1.06874 0
M  V30 2724 H 254.272 -3.71683 -0.642757 0
M  V30 2725 H 256.659 -2.7838 -0.979217 0
M  V30 2726 H 256.74 -2.44393 0.755359 0
M  V30 2727 H 256.384 -4.92639 1.2357 0
M  V30 2728 H 256.314 -5.24061 -0.516489 0
M  V30 2729 H 258.805 -3.77885 0.0331115 0
M  V30 2730 H 259.118 -7.69689 0.69275 0
M  V30 2731 H 257.463 -6.92264 0.616087 0
M  V30 2732 H 260.654 -4.67932 0.125258 0
M  V30 2733 H 260.827 -6.46599 0.425831 0
M  V30 2734 N 254.233 0.115231 -1.57178 0
M  V30 2735 C 255.163 1.1423 -2.03651 0
M  V30 2736 C 256.144 1.42967 -0.921655 0
M  V30 2737 O 257.329 1.53343 -1.19162 0
M  V30 2738 C 254.459 2.4675 -2.44401 0
M  V30 2739 C 253.413 2.32467 -3.59365 0
M  V30 2740 C 252.739 3.69984 -3.86026 0
M  V30 2741 C 254.039 1.78203 -4.90959 0
M  V30 2742 H 255.733 0.755749 -2.89705 0
M  V30 2743 H 253.279 0.362093 -1.39373 0
M  V30 2744 H 255.232 3.18854 -2.75517 0
M  V30 2745 H 253.956 2.87302 -1.55322 0
M  V30 2746 H 252.615 1.62811 -3.28463 0
M  V30 2747 H 252.263 4.08028 -2.94147 0
M  V30 2748 H 251.963 3.61279 -4.63412 0
M  V30 2749 H 253.487 4.43587 -4.19599 0
M  V30 2750 H 254.901 2.40128 -5.20587 0
M  V30 2751 H 253.298 1.8031 -5.72371 0
M  V30 2752 H 254.368 0.739876 -4.79222 0
M  V30 2753 N 255.711 1.52812 0.385517 0
M  V30 2754 C 256.644 1.72592 1.49289 0
M  V30 2755 C 257.622 0.573819 1.52138 0
M  V30 2756 O 258.806 0.80404 1.70492 0
M  V30 2757 C 255.933 1.78669 2.87741 0
M  V30 2758 C 254.979 3.00455 3.02703 0
M  V30 2759 S 255.812 4.60366 2.73538 0
M  V30 2760 C 256.968 4.69263 4.14177 0
M  V30 2761 H 257.201 2.66248 1.32285 0
M  V30 2762 H 254.734 1.43148 0.578611 0
M  V30 2763 H 256.692 1.82855 3.67524 0
M  V30 2764 H 255.353 0.861 3.02069 0
M  V30 2765 H 254.546 3.01258 4.04054 0
M  V30 2766 H 254.148 2.94278 2.30817 0
M  V30 2767 H 256.44 4.48092 5.08153 0
M  V30 2768 H 257.383 5.71276 4.18388 0
M  V30 2769 H 257.791 3.98072 4.00249 0
M  V30 2770 N 257.189 -0.644168 1.43834 0
M  V30 2771 C 258.466 -1.40188 1.36406 0
M  V30 2772 C 258.846 -2.11094 0.0163124 0
M  V30 2773 O 258.194 -2.05426 -1.00062 0
M  V30 2774 C 258.404 -2.3791 2.55343 0
M  V30 2775 C 259.752 -3.01637 2.98832 0
M  V30 2776 O 260.776 -2.48237 2.55455 0
M  V30 2777 O 259.635 -3.98477 3.74003 0
M  V30 2778 H 256.729 -0.626773 0.539523 0
M  V30 2779 H 259.275 -0.670317 1.559 0
M  V30 2780 H 258.047 -1.84525 3.4506 0
M  V30 2781 H 257.67 -3.18503 2.37995 0
M  V30 2782 N 258.668 -1.30515 -0.883378 0
M  V30 2783 C 259.631 -1.1701 -1.97082 0
M  V30 2784 C 260.631 -0.10089 -1.60483 0
M  V30 2785 O 261.821 -0.349127 -1.70666 0
M  V30 2786 C 258.953 -0.793045 -3.31547 0
M  V30 2787 H 260.146 -2.13622 -2.10489 0
M  V30 2788 H 257.699 -1.13935 -1.06998 0
M  V30 2789 H 258.434 0.172499 -3.23841 0
M  V30 2790 H 258.219 -1.56576 -3.5948 0
M  V30 2791 H 259.709 -0.722073 -4.1131 0
M  V30 2792 N 260.146 1.09593 -1.13257 0
M  V30 2793 C 261.109 2.14359 -0.811358 0
M  V30 2794 C 262.109 1.59808 0.178377 0
M  V30 2795 O 263.299 1.74132 -0.0484911 0
M  V30 2796 C 260.431 3.40269 -0.207276 0
M  V30 2797 H 261.624 2.44284 -1.73969 0
M  V30 2798 H 259.177 1.25102 -0.936973 0
M  V30 2799 H 259.912 3.15969 0.73036 0
M  V30 2800 H 259.697 3.81154 -0.919992 0
M  V30 2801 H 261.187 4.176 0.000667944 0
M  V30 2802 N 261.624 0.925811 1.2754 0
M  V30 2803 C 262.554 0.440748 2.29303 0
M  V30 2804 C 263.535 -0.497971 1.62648 0
M  V30 2805 O 264.72 -0.403126 1.8997 0
M  V30 2806 C 261.85 -0.309048 3.45922 0
M  V30 2807 C 260.804 0.54166 4.24559 0
M  V30 2808 C 260.13 -0.337191 5.33636 0
M  V30 2809 C 261.43 1.80516 4.90114 0
M  V30 2810 H 263.124 1.29121 2.70126 0
M  V30 2811 H 260.67 0.622323 1.29858 0
M  V30 2812 H 262.623 -0.659315 4.1621 0
M  V30 2813 H 261.347 -1.19352 3.04011 0
M  V30 2814 H 260.006 0.874609 3.56014 0
M  V30 2815 H 259.654 -1.22056 4.87966 0
M  V30 2816 H 259.354 0.228497 5.87156 0
M  V30 2817 H 260.878 -0.683072 6.06767 0
M  V30 2818 H 262.292 1.52307 5.52698 0
M  V30 2819 H 260.689 2.3142 5.53683 0
M  V30 2820 H 261.759 2.52581 4.13921 0
M  V30 2821 N 263.102 -1.41638 0.69111 0
M  V30 2822 C 264.351 -2.00526 0.217318 0
M  V30 2823 C 264.664 -1.55353 -1.18848 0
M  V30 2824 O 265.87 -2.06769 -1.75951 0
M  V30 2825 C 264.326 -3.58313 0.337639 0
M  V30 2826 C 263.934 -4.12469 1.74852 0
M  V30 2827 C 265.678 -4.24431 -0.0766066 0
M  V30 2828 C 263.585 -5.62675 1.82074 0
M  V30 2829 H 262.515 -0.750008 0.0774893 0
M  V30 2830 H 265.166 -1.6217 0.858661 0
M  V30 2831 H 263.548 -3.9425 -0.371879 0
M  V30 2832 H 264.722 -3.8796 2.48644 0
M  V30 2833 H 263.037 -3.58861 2.11205 0
M  V30 2834 H 265.634 -5.34683 -0.0430284 0
M  V30 2835 H 265.977 -4.01101 -1.1146 0
M  V30 2836 H 266.51 -3.93512 0.582476 0
M  V30 2837 H 263.249 -5.90826 2.83911 0
M  V30 2838 H 262.769 -5.89124 1.12661 0
M  V30 2839 H 264.448 -6.27371 1.58159 0
M  V30 2840 N 264.58 -0.43555 -1.51462 0
M  V30 2841 C 265.51 0.367376 -2.30592 0
M  V30 2842 C 266.491 1.02263 -1.35928 0
M  V30 2843 O 267.676 1.02661 -1.64847 0
M  V30 2844 C 264.806 1.46983 -3.14664 0
M  V30 2845 C 263.76 0.938161 -4.17591 0
M  V30 2846 C 263.086 2.13622 -4.90173 0
M  V30 2847 C 264.386 -0.0261621 -5.22293 0
M  V30 2848 H 266.08 -0.292969 -2.97963 0
M  V30 2849 H 263.626 -0.14234 -1.43295 0
M  V30 2850 H 265.579 2.03873 -3.688 0
M  V30 2851 H 264.303 2.15843 -2.4511 0
M  V30 2852 H 262.962 0.391481 -3.64504 0
M  V30 2853 H 262.61 2.81098 -4.17124 0
M  V30 2854 H 262.31 1.78688 -5.59772 0
M  V30 2855 H 263.834 2.7107 -5.47132 0
M  V30 2856 H 265.248 0.452384 -5.71512 0
M  V30 2857 H 263.645 -0.287992 -5.99409 0
M  V30 2858 H 264.715 -0.963391 -4.75233 0
M  V30 2859 N 266.058 1.56714 -0.166846 0
M  V30 2860 C 267.008 2.14338 0.777382 0
M  V30 2861 C 267.992 1.07642 1.19591 0
M  V30 2862 O 269.184 1.33775 1.15902 0
M  V30 2863 C 266.313 2.78417 2.00846 0
M  V30 2864 C 265.399 3.92264 1.61212 0
M  V30 2865 N 265.79 4.97268 0.925104 0
M  V30 2866 C 264.088 4.03342 1.90346 0
M  V30 2867 C 264.789 5.77093 0.730627 0
M  V30 2868 N 263.765 5.2854 1.27067 0
M  V30 2869 H 267.567 2.9289 0.243466 0
M  V30 2870 H 265.081 1.62364 0.0339954 0
M  V30 2871 H 267.078 3.18073 2.69509 0
M  V30 2872 H 265.738 2.01344 2.54736 0
M  V30 2873 H 266.749 5.14601 0.583646 0
M  V30 2874 H 263.426 3.37368 2.45946 0
M  V30 2875 H 264.816 6.71638 0.187668 0
M  V30 2876 N 267.536 -0.106894 1.57237 0
M  V30 2877 C 268.499 -1.11466 2.0027 0
M  V30 2878 C 269.499 -1.33623 0.894519 0
M  V30 2879 O 270.689 -1.29935 1.16028 0
M  V30 2880 C 267.821 -2.46646 2.35327 0
M  V30 2881 H 269.014 -0.744516 2.90512 0
M  V30 2882 H 266.567 -0.351576 1.52295 0
M  V30 2883 H 267.302 -2.88558 1.48003 0
M  V30 2884 H 267.087 -2.31915 3.16161 0
M  V30 2885 H 268.577 -3.19151 2.69318 0
M  V30 2886 N 269.014 -1.53014 -0.377408 0
M  V30 2887 C 269.924 -1.81557 -1.48574 0
M  V30 2888 C 270.94 -0.703102 -1.59162 0
M  V30 2889 O 272.116 -0.99192 -1.75279 0
M  V30 2890 C 269.181 -1.9889 -2.83978 0
M  V30 2891 C 268.242 -3.22801 -2.83016 0
M  V30 2892 C 267.475 -3.39298 -4.11962 0
M  V30 2893 O 267.698 -2.60345 -5.0752 0
M  V30 2894 O 266.632 -4.32604 -4.18494 0
M  V30 2895 H 270.458 -2.75695 -1.27382 0
M  V30 2896 H 268.043 -1.38248 -0.566373 0
M  V30 2897 H 269.925 -2.11931 -3.6423 0
M  V30 2898 H 268.6 -1.07942 -3.05172 0
M  V30 2899 H 267.507 -3.15193 -2.01505 0
M  V30 2900 H 268.84 -4.13632 -2.66775 0
M  V30 2901 N 270.492 0.636531 -1.44174 0
M  V30 2902 C 271.442 1.74233 -1.47061 0
M  V30 2903 C 272.426 1.57331 -0.337034 0
M  V30 2904 O 273.618 1.67159 -0.581973 0
M  V30 2905 C 270.747 3.12897 -1.41246 0
M  V30 2906 C 269.833 3.35288 -2.59698 0
M  V30 2907 N 270.224 3.2807 -3.84972 0
M  V30 2908 C 268.522 3.66065 -2.54778 0
M  V30 2909 C 269.223 3.51001 -4.63867 0
M  V30 2910 N 268.199 3.73616 -3.94857 0
M  V30 2911 H 272.001 1.67103 -2.41773 0
M  V30 2912 H 269.515 0.838806 -1.3906 0
M  V30 2913 H 271.512 3.92189 -1.41398 0
M  V30 2914 H 270.172 3.21197 -0.47569 0
M  V30 2915 H 271.183 3.07109 -4.17019 0
M  V30 2916 H 267.86 3.81379 -1.6987 0
M  V30 2917 H 269.25 3.51059 -5.72894 0
M  V30 2918 N 271.97 1.30982 0.876444 0
M  V30 2919 C 273.218 1.20058 1.62575 0
M  V30 2920 C 273.539 -0.242947 1.93481 0
M  V30 2921 O 272.809 -1.1619 1.57724 0
M  V30 2922 H 271.389 0.44135 0.602677 0
M  V30 2923 H 274.051 1.64222 1.04962 0
M  V30 2924 H 273.147 1.76762 2.57219 0
M  V30 2925 N 273.449 -1.08991 1.13837 0
M  V30 2926 C 274.696 -1.81258 0.902882 0
M  V30 2927 C 275.024 -1.85936 -0.570803 0
M  V30 2928 O 274.279 -1.3267 -1.43865 0
M  V30 2929 C 274.578 -3.27042 1.44147 0
M  V30 2930 C 274.244 -3.4249 2.93276 0
M  V30 2931 C 272.906 -3.46414 3.33992 0
M  V30 2932 C 275.258 -3.4666 3.892 0
M  V30 2933 C 272.586 -3.52091 4.69307 0
M  V30 2934 C 274.938 -3.53872 5.24364 0
M  V30 2935 C 273.602 -3.56066 5.646 0
M  V30 2936 H 272.872 -0.663268 0.330388 0
M  V30 2937 H 275.519 -1.28368 1.42105 0
M  V30 2938 H 273.824 -3.82599 0.844097 0
M  V30 2939 H 275.521 -3.81499 1.23528 0
M  V30 2940 H 272.111 -3.40124 2.60794 0
M  V30 2941 H 276.295 -3.42865 3.58828 0
M  V30 2942 H 271.551 -3.52079 4.9985 0
M  V30 2943 H 275.725 -3.56043 5.98503 0
M  V30 2944 H 273.352 -3.60218 6.69438 0
M  V30 2945 N 274.927 -0.932562 -1.27047 0
M  V30 2946 C 275.875 -0.42603 -2.28665 0
M  V30 2947 C 276.869 0.49219 -1.62092 0
M  V30 2948 O 278.075 0.371355 -1.76128 0
M  V30 2949 H 274.45 -0.119213 -0.742491 0
M  V30 2950 H 276.421 -1.29579 -2.68797 0
M  V30 2951 C 275.17 0.301426 -3.46391 0
M  V30 2952 H 274.493 -0.39595 -3.97834 0
M  V30 2953 H 275.933 0.6202 -4.1944 0
M  V30 2954 C 274.392 1.51616 -3.00856 0
M  V30 2955 O 274.922 2.61476 -3.04948 0
M  V30 2956 N 273.128 1.36969 -2.56296 0
M  V30 2957 H 272.675 0.475873 -2.53166 0
M  V30 2958 H 272.633 2.18368 -2.26192 0
M  V30 2959 N 276.405 1.4127 -0.698611 0
M  V30 2960 C 277.368 2.29158 -0.044132 0
M  V30 2961 C 278.368 1.44529 0.704841 0
M  V30 2962 O 279.558 1.65643 0.539276 0
M  V30 2963 C 276.69 3.27459 0.947809 0
M  V30 2964 H 277.883 2.88529 -0.817994 0
M  V30 2965 H 275.436 1.49307 -0.46228 0
M  V30 2966 H 276.171 2.73073 1.74933 0
M  V30 2967 H 275.956 3.8991 0.41385 0
M  V30 2968 H 277.446 3.93311 1.40344 0
M  V30 2969 N 277.883 0.443576 1.51229 0
M  V30 2970 C 279.108 -0.121648 2.07043 0
M  V30 2971 C 279.533 -1.35156 1.30823 0
M  V30 2972 O 278.891 -1.7793 0.347934 0
M  V30 2973 C 278.939 -0.41624 3.5819 0
M  V30 2974 O 278.043 -1.50163 3.8409 0
M  V30 2975 H 277.384 0.000871367 0.663999 0
M  V30 2976 H 279.914 0.626706 1.94765 0
M  V30 2977 H 279.924 -0.664867 4.02546 0
M  V30 2978 H 278.599 0.482653 4.1309 0
M  V30 2979 H 277.176 -1.24248 3.51592 0
M  V30 2980 N 279.361 -1.56624 0.175154 0
M  V30 2981 C 280.589 -2.01374 -0.474971 0
M  V30 2982 C 281.004 -1.05537 -1.56548 0
M  V30 2983 O 280.361 -0.0568668 -1.82411 0
M  V30 2984 C 280.412 -3.45923 -1.04975 0
M  V30 2985 O 280.133 -4.381 -0.00276605 0
M  V30 2986 C 281.634 -4.06093 -1.77773 0
M  V30 2987 H 278.854 -0.659962 -0.121206 0
M  V30 2988 H 281.398 -2.02601 0.27801 0
M  V30 2989 H 279.553 -3.45458 -1.75321 0
M  V30 2990 H 279.967 -5.22753 -0.427681 0
M  V30 2991 H 281.441 -5.09147 -2.13245 0
M  V30 2992 H 281.918 -3.48405 -2.67414 0
M  V30 2993 H 282.524 -4.10272 -1.12059 0
M  V30 2994 N 280.839 0.0985539 -1.57292 0
M  V30 2995 C 282.086 0.802678 -1.85912 0
M  V30 2996 C 282.414 1.78901 -0.763186 0
M  V30 2997 O 281.669 1.94178 0.243559 0
M  V30 2998 C 281.968 1.56927 -3.21105 0
M  V30 2999 C 281.634 0.725376 -4.45027 0
M  V30 3000 C 280.296 0.492726 -4.78671 0
M  V30 3001 C 282.648 0.138493 -5.21016 0
M  V30 3002 C 279.976 -0.336727 -5.85733 0
M  V30 3003 C 282.328 -0.678264 -6.28953 0
M  V30 3004 C 280.992 -0.921039 -6.61115 0
M  V30 3005 H 280.262 0.293721 -0.680301 0
M  V30 3006 H 282.909 0.0642841 -1.91392 0
M  V30 3007 H 281.214 2.37914 -3.11294 0
M  V30 3008 H 282.911 2.11841 -3.40477 0
M  V30 3009 H 279.501 0.916815 -4.18679 0
M  V30 3010 H 283.685 0.305404 -4.95359 0
M  V30 3011 H 278.941 -0.533836 -6.09065 0
M  V30 3012 H 283.115 -1.1399 -6.87007 0
M  V30 3013 H 280.742 -1.56556 -7.43905 0
M  V30 3014 N 282.317 1.53212 0.369288 0
M  V30 3015 C 283.545 1.73119 1.13303 0
M  V30 3016 C 283.96 0.458455 1.83149 0
M  V30 3017 O 283.317 -0.568403 1.73423 0
M  V30 3018 C 283.368 2.89413 2.16616 0
M  V30 3019 O 283.089 4.11761 1.49614 0
M  V30 3020 C 284.59 3.21161 3.05566 0
M  V30 3021 H 281.81 0.579107 0.338934 0
M  V30 3022 H 284.354 1.99942 0.429338 0
M  V30 3023 H 282.509 2.64994 2.82589 0
M  V30 3024 H 282.923 4.76858 2.18419 0
M  V30 3025 H 284.397 4.05949 3.74045 0
M  V30 3026 H 284.874 2.36369 3.70171 0
M  V30 3027 H 285.48 3.47492 2.45213 0
M  V30 3028 N 283.795 -0.628877 1.44509 0
M  V30 3029 C 284.758 -1.72263 1.51188 0
M  V30 3030 C 285.758 -1.55907 0.39367 0
M  V30 3031 O 286.948 -1.61361 0.656377 0
M  V30 3032 C 284.08 -3.11365 1.38798 0
M  V30 3033 H 285.273 -1.67714 2.4862 0
M  V30 3034 H 282.826 -0.842737 1.31634 0
M  V30 3035 H 283.561 -3.21507 0.424693 0
M  V30 3036 H 283.346 -3.24644 2.19884 0
M  V30 3037 H 284.836 -3.91075 1.46458 0
M  V30 3038 N 285.273 -1.31445 -0.869486 0
M  V30 3039 C 286.522 -1.20517 -1.61736 0
M  V30 3040 C 286.835 0.235341 -1.94179 0
M  V30 3041 O 288.041 0.466312 -2.67465 0
M  V30 3042 C 286.497 -2.10982 -2.91573 0
M  V30 3043 C 286.105 -3.60032 -2.66611 0
M  V30 3044 C 287.849 -2.08856 -3.69567 0
M  V30 3045 C 285.756 -4.42503 -3.92358 0
M  V30 3046 H 284.686 -0.447493 -0.606849 0
M  V30 3047 H 287.337 -1.56303 -0.96133 0
M  V30 3048 H 285.719 -1.68095 -3.58553 0
M  V30 3049 H 286.893 -4.11167 -2.08035 0
M  V30 3050 H 285.208 -3.64139 -2.0197 0
M  V30 3051 H 287.805 -2.67716 -4.62852 0
M  V30 3052 H 288.148 -1.07582 -4.02159 0
M  V30 3053 H 288.681 -2.49945 -3.09471 0
M  V30 3054 H 285.42 -5.44533 -3.64916 0
M  V30 3055 H 284.94 -3.96125 -4.50383 0
M  V30 3056 H 286.619 -4.54741 -4.60238 0
M  V30 3057 N 286.751 1.08385 -1.14413 0
M  V30 3058 C 287.714 2.13486 -0.834048 0
M  V30 3059 C 288.714 1.59988 0.161418 0
M  V30 3060 O 289.904 1.74071 -0.0669575 0
M  V30 3061 C 287.036 3.4003 -0.243354 0
M  V30 3062 H 288.229 2.42425 -1.7655 0
M  V30 3063 H 285.782 1.24101 -0.950189 0
M  V30 3064 H 286.517 3.16726 0.696807 0
M  V30 3065 H 286.302 3.80157 -0.960367 0
M  V30 3066 H 287.792 4.17577 -0.0436242 0
M  V30 3067 N 288.23 0.939286 1.26551 0
M  V30 3068 C 289.193 0.451987 2.24699 0
M  V30 3069 C 290.193 -0.435869 1.5478 0
M  V30 3070 O 291.383 -0.235314 1.72603 0
M  V30 3071 C 288.515 -0.348801 3.39111 0
M  V30 3072 H 289.708 1.3193 2.69322 0
M  V30 3073 H 287.261 0.721072 1.38673 0
M  V30 3074 H 287.996 -1.23444 2.99887 0
M  V30 3075 H 287.781 0.287945 3.91041 0
M  V30 3076 H 289.271 -0.679726 4.12031 0
M  V30 3077 N 289.708 -1.40897 0.706093 0
M  V30 3078 C 290.955 -2.01054 0.241531 0
M  V30 3079 C 291.283 -1.55956 -1.16223 0
M  V30 3080 O 290.538 -0.766336 -1.80072 0
M  V30 3081 C 290.837 -3.5646 0.259099 0
M  V30 3082 C 290.503 -4.21106 1.61184 0
M  V30 3083 C 289.165 -4.38479 1.98216 0
M  V30 3084 C 291.517 -4.57256 2.50132 0
M  V30 3085 C 288.845 -4.89282 3.2376 0
M  V30 3086 C 291.197 -5.09454 3.7502 0
M  V30 3087 C 289.861 -5.25037 4.12181 0
M  V30 3088 H 289.131 -0.73571 0.0883825 0
M  V30 3089 H 291.778 -1.68645 0.907257 0
M  V30 3090 H 290.083 -3.88721 -0.490189 0
M  V30 3091 H 291.78 -4.00826 -0.11804 0
M  V30 3092 H 288.37 -4.07966 1.31384 0
M  V30 3093 H 292.554 -4.43479 2.228 0
M  V30 3094 H 287.81 -4.99531 3.52532 0
M  V30 3095 H 291.984 -5.36404 4.44121 0
M  V30 3096 H 289.611 -5.64164 5.09532 0
M  V30 3097 N 291.186 -0.45159 -1.50991 0
M  V30 3098 C 292.411 0.110667 -2.07105 0
M  V30 3099 C 292.836 1.3446 -1.31538 0
M  V30 3100 O 292.194 1.77743 -0.357365 0
M  V30 3101 C 292.242 0.397238 -3.58405 0
M  V30 3102 O 291.346 1.48124 -3.84881 0
M  V30 3103 H 290.687 -0.00439271 -0.663985 0
M  V30 3104 H 293.217 -0.637026 -1.9443 0
M  V30 3105 H 293.227 0.64351 -4.02893 0
M  V30 3106 H 291.902 -0.504553 -4.12828 0
M  V30 3107 H 290.479 1.22381 -3.52246 0
M  V30 3108 N 292.664 1.56529 -0.183458 0
M  V30 3109 C 293.892 2.01623 0.464285 0
M  V30 3110 C 294.307 1.06366 1.55986 0
M  V30 3111 O 293.664 0.0665398 1.82379 0
M  V30 3112 C 293.715 3.46475 1.03139 0
M  V30 3113 O 293.436 4.38095 -0.0204675 0
M  V30 3114 C 294.937 4.0703 1.75617 0
M  V30 3115 H 292.157 0.660596 0.117704 0
M  V30 3116 H 294.701 2.02451 -0.288751 0
M  V30 3117 H 292.856 3.46383 1.73486 0
M  V30 3118 H 293.27 5.22973 0.399952 0
M  V30 3119 H 294.744 5.10271 2.10542 0
M  V30 3120 H 295.221 3.49819 2.65563 0
M  V30 3121 H 295.827 4.1086 1.09882 0
M  V30 3122 N 294.142 -0.090211 1.57342 0
M  V30 3123 C 295.052 -1.12735 2.05738 0
M  V30 3124 C 296.068 -1.43557 0.983231 0
M  V30 3125 O 297.244 -1.54101 1.29672 0
M  V30 3126 C 294.309 -2.42659 2.47624 0
M  V30 3127 C 293.37 -2.18975 3.69254 0
M  V30 3128 C 292.603 -3.42704 4.09133 0
M  V30 3129 O 292.826 -4.51127 3.49057 0
M  V30 3130 O 291.76 -3.32003 5.02053 0
M  V30 3131 H 295.586 -0.746279 2.94388 0
M  V30 3132 H 293.171 -0.303064 1.46294 0
M  V30 3133 H 295.053 -3.19155 2.7517 0
M  V30 3134 H 293.728 -2.80182 1.62109 0
M  V30 3135 H 292.635 -1.40244 3.46818 0
M  V30 3136 H 293.968 -1.86342 4.55563 0
M  V30 3137 N 295.62 -1.53406 -0.361157 0
M  V30 3138 C 296.848 -1.73717 -1.12383 0
M  V30 3139 C 297.263 -0.468161 -1.82904 0
M  V30 3140 O 296.62 0.559198 -1.73722 0
M  V30 3141 C 296.671 -2.90558 -2.15078 0
M  V30 3142 O 296.392 -4.12549 -1.47428 0
M  V30 3143 C 297.893 -3.22777 -3.03858 0
M  V30 3144 H 295.113 -0.580896 -0.335858 0
M  V30 3145 H 297.657 -2.00167 -0.418728 0
M  V30 3146 H 295.812 -2.66489 -2.8118 0
M  V30 3147 H 296.226 -4.78009 -2.15887 0
M  V30 3148 H 297.7 -4.07927 -3.71887 0
M  V30 3149 H 298.177 -2.38329 -3.68912 0
M  V30 3150 H 298.783 -3.48787 -2.43367 0
M  V30 3151 N 297.098 0.621204 -1.44841 0
M  V30 3152 C 298.375 1.38 -1.38619 0
M  V30 3153 C 298.755 2.11041 -0.0498935 0
M  V30 3154 O 298.103 2.06992 0.967816 0
M  V30 3155 C 298.313 2.33817 -2.59096 0
M  V30 3156 C 299.661 2.96844 -3.03593 0
M  V30 3157 O 300.685 2.44141 -2.59371 0
M  V30 3158 O 299.544 3.92476 -3.80296 0
M  V30 3159 H 296.638 0.61811 -0.549426 0
M  V30 3160 H 299.184 0.645429 -1.56947 0
M  V30 3161 H 297.956 1.79012 -3.47952 0
M  V30 3162 H 297.579 3.14676 -2.43032 0
M  V30 3163 N 298.576 1.31904 0.862503 0
M  V30 3164 C 299.506 1.22782 1.98612 0
M  V30 3165 C 300.487 0.113362 1.69722 0
M  V30 3166 O 301.672 0.299218 1.91881 0
M  V30 3167 C 298.802 0.942058 3.34279 0
M  V30 3168 C 297.756 2.0169 3.77499 0
M  V30 3169 C 297.082 1.58369 5.10709 0
M  V30 3170 C 298.382 3.43096 3.93805 0
M  V30 3171 H 300.076 2.16788 2.06502 0
M  V30 3172 H 297.622 1.04366 0.992154 0
M  V30 3173 H 299.575 0.864818 4.1243 0
M  V30 3174 H 298.299 -0.0336603 3.26583 0
M  V30 3175 H 296.958 2.08416 3.01593 0
M  V30 3176 H 296.606 0.595628 4.99461 0
M  V30 3177 H 296.306 2.30279 5.40597 0
M  V30 3178 H 297.83 1.52067 5.91361 0
M  V30 3179 H 299.244 3.39003 4.62331 0
M  V30 3180 H 297.641 4.13288 4.35101 0
M  V30 3181 H 298.711 3.83334 2.96957 0
M  V30 3182 N 300.054 -1.07777 1.14986 0
M  V30 3183 C 301.284 -1.83752 0.944402 0
M  V30 3184 C 301.692 -1.8218 -0.51058 0
M  V30 3185 O 301.035 -1.22852 -1.36576 0
M  V30 3186 C 301.097 -3.32128 1.37592 0
M  V30 3187 C 300.761 -3.57425 2.84775 0
M  V30 3188 C 301.758 -3.5173 3.8286 0
M  V30 3189 C 299.443 -3.8523 3.2234 0
M  V30 3190 C 301.437 -3.73482 5.16517 0
M  V30 3191 C 299.124 -4.06634 4.56171 0
M  V30 3192 C 300.122 -4.00754 5.53069 0
M  V30 3193 O 299.81 -4.2159 6.84483 0
M  V30 3194 H 299.542 -0.58673 0.335744 0
M  V30 3195 H 302.096 -1.36982 1.53052 0
M  V30 3196 H 300.326 -3.79686 0.733165 0
M  V30 3197 H 302.015 -3.89555 1.14024 0
M  V30 3198 H 302.781 -3.30256 3.55184 0
M  V30 3199 H 298.66 -3.88923 2.47508 0
M  V30 3200 H 302.204 -3.68808 5.92137 0
M  V30 3201 H 298.101 -4.27593 4.83564 0
M  V30 3202 H 298.869 -4.38961 6.90837 0
M  V30 3203 N 301.532 -0.945985 -1.26051 0
M  V30 3204 C 302.757 -0.612525 -1.98149 0
M  V30 3205 C 303.182 0.806623 -1.69927 0
M  V30 3206 O 302.54 1.54411 -0.950108 0
M  V30 3207 C 302.588 -0.866981 -3.50023 0
M  V30 3208 O 301.692 0.0585333 -4.12358 0
M  V30 3209 H 301.033 -0.23379 -0.621481 0
M  V30 3210 H 303.563 -1.27023 -1.60395 0
M  V30 3211 H 303.573 -0.789792 -4.00283 0
M  V30 3212 H 302.248 -1.90135 -3.69894 0
M  V30 3213 H 300.825 -0.0701241 -3.72834 0
M  V30 3214 N 303.011 1.40521 -0.713556 0
M  V30 3215 C 303.974 2.29098 -0.0684347 0
M  V30 3216 C 304.974 1.45268 0.689472 0
M  V30 3217 O 306.164 1.66205 0.521677 0
M  V30 3218 C 303.296 3.28446 0.913024 0
M  V30 3219 H 304.489 2.87645 -0.84855 0
M  V30 3220 H 302.042 1.48809 -0.47809 0
M  V30 3221 H 302.777 2.74913 1.72027 0
M  V30 3222 H 302.562 3.90327 0.372472 0
M  V30 3223 H 304.052 3.94777 1.36165 0
M  V30 3224 N 304.489 0.459591 1.5075 0
M  V30 3225 C 305.738 -0.100971 2.01447 0
M  V30 3226 C 306.051 -1.41816 1.34713 0
M  V30 3227 O 307.257 -2.06299 1.76502 0
M  V30 3228 C 305.713 -0.23047 3.59161 0
M  V30 3229 C 305.321 1.0776 4.34847 0
M  V30 3230 C 307.065 -0.743608 4.17936 0
M  V30 3231 C 304.972 0.91253 5.84317 0
M  V30 3232 H 303.902 -0.0415102 0.752856 0
M  V30 3233 H 306.553 0.592742 1.73663 0
M  V30 3234 H 304.935 -0.987703 3.83485 0
M  V30 3235 H 306.109 1.8449 4.22256 0
M  V30 3236 H 304.424 1.52097 3.87628 0
M  V30 3237 H 307.021 -0.883959 5.27343 0
M  V30 3238 H 307.364 -1.73196 3.78562 0
M  V30 3239 H 307.897 -0.04408 3.97776 0
M  V30 3240 H 304.636 1.87391 6.28144 0
M  V30 3241 H 304.156 0.185422 5.99513 0
M  V30 3242 H 305.835 0.574547 6.44444 0
M  V30 3243 N 305.967 -1.56429 0.191757 0
M  V30 3244 C 307.195 -2.01867 -0.453586 0
M  V30 3245 C 307.61 -1.07191 -1.5542 0
M  V30 3246 O 306.967 -0.0762108 -1.82341 0
M  V30 3247 C 307.018 -3.47017 -1.013 0
M  V30 3248 O 306.739 -4.38078 0.0437005 0
M  V30 3249 C 308.24 -4.07956 -1.73456 0
M  V30 3250 H 305.46 -0.661211 -0.114199 0
M  V30 3251 H 308.004 -2.02295 0.299483 0
M  V30 3252 H 306.159 -3.47298 -1.71647 0
M  V30 3253 H 306.573 -5.23178 -0.372212 0
M  V30 3254 H 308.047 -5.1138 -2.07833 0
M  V30 3255 H 308.524 -3.51222 -2.63704 0
M  V30 3256 H 309.13 -4.11437 -1.07702 0
M  V30 3257 N 307.445 0.0818655 -1.57387 0
M  V30 3258 C 308.408 1.08265 -2.02018 0
M  V30 3259 C 309.408 1.32183 -0.915664 0
M  V30 3260 O 310.598 1.28073 -1.18081 0
M  V30 3261 C 307.73 2.42871 -2.39221 0
M  V30 3262 H 308.923 0.698204 -2.91659 0
M  V30 3263 H 306.476 0.327303 -1.52835 0
M  V30 3264 H 307.211 2.86167 -1.52575 0
M  V30 3265 H 306.996 2.26855 -3.19811 0
M  V30 3266 H 308.486 3.14826 -2.74362 0
M  V30 3267 N 308.923 1.53595 0.353017 0
M  V30 3268 C 309.886 1.80232 1.41594 0
M  V30 3269 C 310.886 0.673081 1.46035 0
M  V30 3270 O 312.076 0.941335 1.46576 0
M  V30 3271 C 309.208 1.93578 2.80607 0
M  V30 3272 H 310.401 2.75174 1.19244 0
M  V30 3273 H 307.954 1.44864 0.586872 0
M  V30 3274 H 308.689 1.00746 3.08254 0
M  V30 3275 H 308.474 2.75724 2.78781 0
M  V30 3276 H 309.964 2.15735 3.57558 0
M  V30 3277 N 310.401 -0.613514 1.45168 0
M  V30 3278 C 311.647 -1.37471 1.49096 0
M  V30 3279 C 311.98 -1.93765 0.129901 0
M  V30 3280 O 311.255 -1.74707 -0.854858 0
M  V30 3281 C 311.538 -2.52701 2.56542 0
M  V30 3282 C 311.391 -2.01643 4.0207 0
M  V30 3283 C 312.71 -3.54849 2.60327 0
M  V30 3284 H 309.829 -0.498502 0.54283 0
M  V30 3285 H 312.471 -0.692125 1.76945 0
M  V30 3286 H 310.621 -3.10931 2.32926 0
M  V30 3287 H 312.293 -1.48108 4.36877 0
M  V30 3288 H 310.536 -1.32688 4.13009 0
M  V30 3289 H 311.207 -2.84681 4.72928 0
M  V30 3290 H 313.683 -3.0645 2.81474 0
M  V30 3291 H 312.559 -4.32973 3.37381 0
M  V30 3292 H 312.82 -4.10079 1.6519 0
M  V30 3293 N 311.879 -1.3236 -0.855495 0
M  V30 3294 C 312.842 -1.21164 -1.94556 0
M  V30 3295 C 313.842 -0.134908 -1.60233 0
M  V30 3296 O 315.032 -0.385249 -1.69887 0
M  V30 3297 C 312.164 -0.863192 -3.29791 0
M  V30 3298 H 313.357 -2.18038 -2.05911 0
M  V30 3299 H 310.91 -1.16179 -1.04557 0
M  V30 3300 H 311.645 0.103769 -3.24134 0
M  V30 3301 H 311.43 -1.64166 -3.56078 0
M  V30 3302 H 312.92 -0.809156 -4.09686 0
M  V30 3303 N 313.357 1.07166 -1.15556 0
M  V30 3304 C 314.582 1.84053 -0.955988 0
M  V30 3305 C 315.007 1.81586 0.490739 0
M  V30 3306 O 314.365 1.21018 1.34997 0
M  V30 3307 C 314.413 3.28957 -1.47714 0
M  V30 3308 O 313.517 4.06795 -0.677593 0
M  V30 3309 H 312.858 0.569842 -0.340847 0
M  V30 3310 H 315.388 1.35178 -1.53584 0
M  V30 3311 H 315.398 3.79788 -1.4908 0
M  V30 3312 H 314.073 3.30068 -2.53037 0
M  V30 3313 H 312.65 3.6561 -0.733721 0
M  V30 3314 N 314.835 0.952656 1.25548 0
M  V30 3315 C 315.765 0.489287 2.28316 0
M  V30 3316 C 316.746 -0.463359 1.63667 0
M  V30 3317 O 317.931 -0.36274 1.90782 0
M  V30 3318 C 315.061 -0.235603 3.465 0
M  V30 3319 C 314.015 0.631593 4.23314 0
M  V30 3320 C 313.341 -0.223923 5.34231 0
M  V30 3321 C 314.641 1.90871 4.86174 0
M  V30 3322 H 316.335 1.34822 2.67326 0
M  V30 3323 H 313.881 0.649728 1.28509 0
M  V30 3324 H 315.834 -0.570882 4.17515 0
M  V30 3325 H 314.558 -1.12877 3.06474 0
M  V30 3326 H 313.217 0.949929 3.54079 0
M  V30 3327 H 312.865 -1.11678 4.90446 0
M  V30 3328 H 312.565 0.35299 5.86539 0
M  V30 3329 H 314.089 -0.554214 6.0808 0
M  V30 3330 H 315.503 1.63997 5.49343 0
M  V30 3331 H 313.9 2.43112 5.4865 0
M  V30 3332 H 314.97 2.61304 4.08471 0
M  V30 3333 N 316.313 -1.40141 0.720998 0
M  V30 3334 C 317.26 -2.30688 0.071919 0
M  V30 3335 C 318.23 -1.48476 -0.744584 0
M  V30 3336 O 319.415 -1.77201 -0.707423 0
M  V30 3337 C 316.555 -3.34724 -0.839855 0
M  V30 3338 C 315.668 -4.31998 -0.0122438 0
M  V30 3339 C 314.803 -5.23102 -0.923995 0
M  V30 3340 C 313.842 -6.12033 -0.0907969 0
M  V30 3341 N 312.979 -6.95537 -0.957718 0
M  V30 3342 H 317.819 -2.85628 0.849755 0
M  V30 3343 H 315.356 -1.40653 0.430726 0
M  V30 3344 H 317.314 -3.93618 -1.38279 0
M  V30 3345 H 315.944 -2.81274 -1.58381 0
M  V30 3346 H 314.996 -3.74841 0.64794 0
M  V30 3347 H 316.308 -4.94772 0.632595 0
M  V30 3348 H 315.462 -5.86953 -1.53527 0
M  V30 3349 H 314.201 -4.60615 -1.60264 0
M  V30 3350 H 313.206 -5.47207 0.533377 0
M  V30 3351 H 314.431 -6.76581 0.584428 0
M  V30 3352 H 312.377 -6.35633 -1.62192 0
M  V30 3353 H 312.294 -7.55099 -0.36904 0
M  V30 3354 H 313.562 -7.63832 -1.555 0
M  V30 3355 N 317.792 -0.46758 -1.50504 0
M  V30 3356 C 319.04 0.0884469 -2.01906 0
M  V30 3357 C 319.361 1.40532 -1.35188 0
M  V30 3358 O 318.631 1.89515 -0.496079 0
M  V30 3359 H 317.211 0.0356765 -0.746148 0
M  V30 3360 H 319.873 -0.6172 -1.84869 0
M  V30 3361 H 318.969 0.2425 -3.11156 0
M  V30 3362 N 319.27 1.56325 -0.20005 0
M  V30 3363 C 320.681 1.8408 0.31167 0
M  V30 3364 C 321.032 1.12087 1.61031 0
M  V30 3365 O 320.157 0.38332 2.12978 0
M  V30 3366 C 320.752 3.33932 0.57226 0
M  V30 3367 C 319.311 3.6208 1.02834 0
M  V30 3368 C 318.458 2.77186 0.079634 0
M  V30 3369 H 321.409 1.52939 -0.423729 0
M  V30 3370 H 321.43 3.52971 1.42096 0
M  V30 3371 H 320.942 3.86303 -0.37308 0
M  V30 3372 H 319.043 3.15147 1.98778 0
M  V30 3373 H 319.156 4.7023 0.917624 0
M  V30 3374 H 317.52 2.47951 0.582448 0
M  V30 3375 H 318.303 3.32347 -0.860238 0
M  V30 3376 N 320.748 -0.0735177 1.57428 0
M  V30 3377 C 322.164 -0.428264 1.53747 0
M  V30 3378 C 322.364 -1.79272 0.91998 0
M  V30 3379 O 321.42 -2.47051 0.521745 0
M  V30 3380 C 322.733 -0.370914 2.98404 0
M  V30 3381 C 324.281 -0.451224 3.0973 0
M  V30 3382 C 324.756 -0.4238 4.56035 0
M  V30 3383 N 326.247 -0.483925 4.60665 0
M  V30 3384 C 326.982 -0.484891 5.71346 0
M  V30 3385 N 326.478 -0.440775 6.91396 0
M  V30 3386 N 328.271 -0.531319 5.59583 0
M  V30 3387 H 320.422 0.819949 1.95935 0
M  V30 3388 H 322.685 0.307493 0.896745 0
M  V30 3389 H 322.391 0.564956 3.47133 0
M  V30 3390 H 322.265 -1.18176 3.5821 0
M  V30 3391 H 324.652 -1.37752 2.60976 0
M  V30 3392 H 324.733 0.388167 2.52838 0
M  V30 3393 H 324.377 0.498638 5.05446 0
M  V30 3394 H 324.307 -1.2807 5.10789 0
M  V30 3395 H 326.798 -0.522338 3.74273 0
M  V30 3396 H 327.111 -0.44539 7.71515 0
M  V30 3397 H 325.456 -0.40749 6.93804 0
M  V30 3398 H 328.647 -0.563464 4.64696 0
M  V30 3399 H 328.82 -0.528603 6.4584 0
M  V30 3400 N 322.226 -1.5378 -0.344866 0
M  V30 3401 C 323.176 -1.78057 -1.42407 0
M  V30 3402 C 324.16 -0.635732 -1.47808 0
M  V30 3403 O 325.352 -0.89508 -1.527 0
M  V30 3404 C 322.481 -1.99242 -2.79566 0
M  V30 3405 C 321.567 -3.19787 -2.78562 0
M  V30 3406 N 321.958 -4.41284 -2.47189 0
M  V30 3407 C 320.256 -3.2093 -3.0971 0
M  V30 3408 C 320.957 -5.23128 -2.54385 0
M  V30 3409 N 319.933 -4.59813 -2.89953 0
M  V30 3410 H 323.735 -2.69588 -1.17046 0
M  V30 3411 H 321.249 -1.52687 -0.553217 0
M  V30 3412 H 323.246 -2.14768 -3.57324 0
M  V30 3413 H 321.906 -1.08953 -3.05875 0
M  V30 3414 H 322.917 -4.68657 -2.20411 0
M  V30 3415 H 319.594 -2.40603 -3.41199 0
M  V30 3416 H 320.984 -6.30096 -2.333 0
M  V30 3417 N 323.704 0.605807 -1.45491 0
M  V30 3418 C 324.952 1.36207 -1.49305 0
M  V30 3419 C 325.273 1.94519 -0.136863 0
M  V30 3420 O 324.543 1.77261 0.833983 0
M  V30 3421 H 323.123 0.50565 -0.549843 0
M  V30 3422 H 325.785 0.711239 -1.81459 0
M  V30 3423 H 324.881 2.18058 -2.23287 0
M  V30 3424 N 325.182 1.32811 0.848464 0
M  V30 3425 C 326.43 1.23479 1.59991 0
M  V30 3426 C 326.751 -0.201853 1.93952 0
M  V30 3427 O 326.021 -1.12818 1.60153 0
M  V30 3428 H 324.601 0.454034 0.593179 0
M  V30 3429 H 327.263 1.66412 1.01455 0
M  V30 3430 H 326.359 1.82178 2.53412 0
M  V30 3431 N 326.66 -1.06551 1.16123 0
M  V30 3432 C 327.623 -2.12132 0.867906 0
M  V30 3433 C 328.623 -1.60224 -0.135944 0
M  V30 3434 O 329.813 -1.73943 0.0946422 0
M  V30 3435 C 326.945 -3.396 0.297419 0
M  V30 3436 H 328.138 -2.39586 1.80385 0
M  V30 3437 H 325.691 -1.22574 0.969812 0
M  V30 3438 H 326.426 -3.17794 -0.64633 0
M  V30 3439 H 326.211 -3.78581 1.02073 0
M  V30 3440 H 327.701 -4.17455 0.110052 0
M  V30 3441 N 328.138 -0.959301 -1.25041 0
M  V30 3442 C 329.086 -0.474437 -2.2771 0
M  V30 3443 C 330.08 0.457697 -1.631 0
M  V30 3444 O 331.286 0.333912 -1.76876 0
M  V30 3445 H 327.661 -0.134936 -0.739795 0
M  V30 3446 H 329.632 -1.35251 -2.65988 0
M  V30 3447 C 328.381 0.227884 -3.46952 0
M  V30 3448 H 327.704 -0.480248 -3.96905 0
M  V30 3449 H 329.144 0.531091 -4.20661 0
M  V30 3450 C 327.603 1.452 -3.04004 0
M  V30 3451 O 328.133 2.54949 -3.10426 0
M  V30 3452 N 326.339 1.31502 -2.59144 0
M  V30 3453 H 325.886 0.422065 -2.54119 0
M  V30 3454 H 325.844 2.13521 -2.30773 0
M  V30 3455 N 329.616 1.39756 -0.72842 0
M  V30 3456 C 330.526 2.34444 -0.0855374 0
M  V30 3457 C 331.542 1.57976 0.729356 0
M  V30 3458 O 332.718 1.90301 0.659346 0
M  V30 3459 C 329.783 3.36965 0.815798 0
M  V30 3460 C 328.844 4.29299 -0.0105996 0
M  V30 3461 C 328.077 5.26923 0.84781 0
M  V30 3462 O 328.3 5.30859 2.08673 0
M  V30 3463 O 327.234 6.01249 0.279969 0
M  V30 3464 H 331.06 2.91065 -0.866892 0
M  V30 3465 H 328.645 1.4117 -0.48902 0
M  V30 3466 H 330.527 3.99804 1.33171 0
M  V30 3467 H 329.202 2.82739 1.57608 0
M  V30 3468 H 328.109 3.69703 -0.571877 0
M  V30 3469 H 329.442 4.86712 -0.73295 0
M  V30 3470 N 331.094 0.475555 1.50254 0
M  V30 3471 C 332.057 -0.305016 2.27161 0
M  V30 3472 C 333.057 -0.916519 1.32123 0
M  V30 3473 O 334.247 -0.785003 1.5551 0
M  V30 3474 C 331.379 -1.43496 3.09227 0
M  V30 3475 H 332.572 0.369511 2.97615 0
M  V30 3476 H 330.125 0.229747 1.54602 0
M  V30 3477 H 330.86 -2.14441 2.43281 0
M  V30 3478 H 330.645 -1.00223 3.79075 0
M  V30 3479 H 332.135 -1.98548 3.67381 0
M  V30 3480 N 332.573 -1.56217 0.208337 0
M  V30 3481 C 333.819 -1.98242 -0.427552 0
M  V30 3482 C 334.152 -1.09554 -1.60348 0
M  V30 3483 O 333.427 -0.15035 -1.93918 0
M  V30 3484 C 333.71 -3.4931 -0.874907 0
M  V30 3485 C 333.563 -4.48773 0.303751 0
M  V30 3486 C 334.882 -4.04424 -1.73577 0
M  V30 3487 H 332.001 -0.720744 -0.153936 0
M  V30 3488 H 334.643 -1.87586 0.30192 0
M  V30 3489 H 332.793 -3.58522 -1.49648 0
M  V30 3490 H 334.465 -4.51586 0.941682 0
M  V30 3491 H 332.708 -4.23194 0.953375 0
M  V30 3492 H 333.379 -5.51976 -0.0519883 0
M  V30 3493 H 335.855 -3.98075 -1.21143 0
M  V30 3494 H 334.731 -5.1047 -2.01771 0
M  V30 3495 H 334.992 -3.50494 -2.69456 0
M  V30 3496 N 334.051 0.0651679 -1.57465 0
M  V30 3497 C 334.984 1.10876 -1.99453 0
M  V30 3498 C 335.962 1.37205 -0.872555 0
M  V30 3499 O 337.146 1.50468 -1.13542 0
M  V30 3500 C 334.273 2.45167 -2.3369 0
M  V30 3501 C 333.319 2.3493 -3.55964 0
M  V30 3502 S 334.152 1.73708 -5.06543 0
M  V30 3503 C 335.308 3.09563 -5.43987 0
M  V30 3504 H 335.541 0.750967 -2.87659 0
M  V30 3505 H 333.074 0.273933 -1.51951 0
M  V30 3506 H 335.032 3.22412 -2.54088 0
M  V30 3507 H 333.693 2.78105 -1.46001 0
M  V30 3508 H 332.886 3.3398 -3.77457 0
M  V30 3509 H 332.488 1.65823 -3.3523 0
M  V30 3510 H 334.78 4.05882 -5.42463 0
M  V30 3511 H 335.723 2.92843 -6.44708 0
M  V30 3512 H 336.131 3.10474 -4.71451 0
M  V30 3513 N 335.529 1.53961 0.336706 0
M  V30 3514 C 336.945 1.44378 0.680241 0
M  V30 3515 C 337.145 0.606034 1.9217 0
M  V30 3516 O 336.201 0.099688 2.52303 0
M  V30 3517 C 337.514 2.87945 0.8665 0
M  V30 3518 C 339.062 2.97763 0.964682 0
M  V30 3519 C 339.537 4.42453 1.18321 0
M  V30 3520 N 341.028 4.46008 1.25025 0
M  V30 3521 C 341.763 5.55102 1.43697 0
M  V30 3522 N 341.259 6.7419 1.59498 0
M  V30 3523 N 343.052 5.42727 1.463 0
M  V30 3524 H 335.203 2.06918 -0.479455 0
M  V30 3525 H 337.466 0.935634 -0.152619 0
M  V30 3526 H 337.172 3.51691 0.0256937 0
M  V30 3527 H 337.046 3.33293 1.76623 0
M  V30 3528 H 339.433 2.34153 1.796 0
M  V30 3529 H 339.514 2.55766 0.041708 0
M  V30 3530 H 339.158 5.06645 0.356788 0
M  V30 3531 H 339.088 4.82048 2.11985 0
M  V30 3532 H 341.579 3.60196 1.14312 0
M  V30 3533 H 341.892 7.53095 1.734 0
M  V30 3534 H 340.237 6.77123 1.56621 0
M  V30 3535 H 343.428 4.48647 1.33543 0
M  V30 3536 H 343.601 6.27806 1.6051 0
M  V30 3537 N 337.007 -0.598083 1.45811 0
M  V30 3538 C 337.94 -1.7223 1.49706 0
M  V30 3539 C 338.918 -1.58732 0.352535 0
M  V30 3540 O 340.102 -1.80162 0.554438 0
M  V30 3541 C 337.229 -3.10148 1.3611 0
M  V30 3542 C 336.275 -3.42209 2.54549 0
M  V30 3543 S 337.108 -3.35989 4.16979 0
M  V30 3544 C 338.264 -4.76471 4.05865 0
M  V30 3545 H 338.497 -1.68665 2.44826 0
M  V30 3546 H 336.03 -0.775541 1.33509 0
M  V30 3547 H 337.988 -3.8972 1.28953 0
M  V30 3548 H 336.649 -3.11219 0.424451 0
M  V30 3549 H 335.842 -4.42652 2.40988 0
M  V30 3550 H 335.444 -2.70173 2.58617 0
M  V30 3551 H 337.736 -5.665 3.71596 0
M  V30 3552 H 338.679 -4.95089 5.06253 0
M  V30 3553 H 339.087 -4.52599 3.37364 0
M  V30 3554 N 338.485 -1.33259 -0.841409 0
M  V30 3555 C 339.734 -1.23921 -1.59143 0
M  V30 3556 C 340.047 0.1941 -1.94635 0
M  V30 3557 O 341.253 0.409474 -2.68394 0
M  V30 3558 C 339.709 -2.17119 -2.87032 0
M  V30 3559 C 339.317 -3.65606 -2.58914 0
M  V30 3560 C 341.061 -2.16648 -3.65053 0
M  V30 3561 C 338.968 -4.50726 -3.82884 0
M  V30 3562 H 337.898 -0.460264 -0.597221 0
M  V30 3563 H 340.549 -1.58307 -0.927959 0
M  V30 3564 H 338.931 -1.75663 -3.54906 0
M  V30 3565 H 340.105 -4.15487 -1.99267 0
M  V30 3566 H 338.42 -3.68341 -1.942 0
M  V30 3567 H 341.017 -2.77474 -4.57069 0
M  V30 3568 H 341.36 -1.16088 -3.99787 0
M  V30 3569 H 341.893 -2.56453 -3.041 0
M  V30 3570 H 338.632 -5.52151 -3.53283 0
M  V30 3571 H 338.152 -4.0559 -4.41879 0
M  V30 3572 H 339.831 -4.64401 -4.50489 0
M  V30 3573 N 339.963 1.05934 -1.16686 0
M  V30 3574 C 340.895 2.13468 -0.834503 0
M  V30 3575 C 341.908 1.62013 0.15984 0
M  V30 3576 O 343.097 1.7838 -0.0654228 0
M  V30 3577 C 340.197 3.3817 -0.222361 0
M  V30 3578 C 339.37 4.18928 -1.25771 0
M  V30 3579 C 338.429 5.21985 -0.664703 0
M  V30 3580 O 337.455 5.53334 -1.33453 0
M  V30 3581 N 338.657 5.77919 0.546834 0
M  V30 3582 H 341.422 2.42578 -1.75999 0
M  V30 3583 H 338.983 1.21967 -1.06469 0
M  V30 3584 H 340.975 4.04266 0.187472 0
M  V30 3585 H 339.545 3.06655 0.606758 0
M  V30 3586 H 338.765 3.48433 -1.84358 0
M  V30 3587 H 340.053 4.69687 -1.95631 0
M  V30 3588 H 339.451 5.54721 1.10912 0
M  V30 3589 H 338.008 6.45573 0.898829 0
M  V30 3590 N 341.441 0.965919 1.2453 0
M  V30 3591 C 342.351 0.502154 2.29163 0
M  V30 3592 C 343.367 -0.436017 1.68448 0
M  V30 3593 O 344.543 -0.309497 1.99008 0
M  V30 3594 C 341.608 -0.201956 3.46111 0
M  V30 3595 C 340.669 0.775821 4.22232 0
M  V30 3596 C 339.902 0.105217 5.33596 0
M  V30 3597 O 340.125 -1.10683 5.59558 0
M  V30 3598 O 339.059 0.796475 5.96607 0
M  V30 3599 H 342.885 1.37194 2.70946 0
M  V30 3600 H 340.47 0.732875 1.30189 0
M  V30 3601 H 342.352 -0.597564 4.17142 0
M  V30 3602 H 341.027 -1.04673 3.06309 0
M  V30 3603 H 339.934 1.22185 3.53584 0
M  V30 3604 H 341.267 1.58896 4.65846 0
M  V30 3605 N 342.919 -1.39368 0.735821 0
M  V30 3606 C 344.168 -1.99733 0.281004 0
M  V30 3607 C 344.481 -1.59055 -1.13846 0
M  V30 3608 O 345.687 -2.12262 -1.69284 0
M  V30 3609 C 344.143 -3.57057 0.451462 0
M  V30 3610 C 343.751 -4.06697 1.87886 0
M  V30 3611 C 345.495 -4.2446 0.0584616 0
M  V30 3612 C 343.402 -5.56598 1.99883 0
M  V30 3613 H 342.332 -0.747163 0.101311 0
M  V30 3614 H 344.983 -1.59357 0.909819 0
M  V30 3615 H 343.365 -3.95234 -0.246263 0
M  V30 3616 H 344.539 -3.79853 2.60861 0
M  V30 3617 H 342.854 -3.5196 2.22515 0
M  V30 3618 H 345.451 -5.34549 0.127099 0
M  V30 3619 H 345.794 -4.04444 -0.986433 0
M  V30 3620 H 346.327 -3.9146 0.707374 0
M  V30 3621 H 343.066 -5.81494 3.02564 0
M  V30 3622 H 342.586 -5.85242 1.31346 0
M  V30 3623 H 344.265 -6.22022 1.78039 0
M  V30 3624 N 344.397 -0.483516 -1.5 0
M  V30 3625 C 345.645 0.067027 -2.01989 0
M  V30 3626 C 345.966 1.3909 -1.36671 0
M  V30 3627 O 345.236 1.88978 -0.516152 0
M  V30 3628 H 343.816 0.0277606 -0.746484 0
M  V30 3629 H 346.478 -0.636773 -1.84204 0
M  V30 3630 H 345.574 0.209484 -3.11396 0
M  V30 3631 N 345.875 1.56104 -0.216619 0
M  V30 3632 C 347.103 2.02563 0.421413 0
M  V30 3633 C 347.518 1.0965 1.53695 0
M  V30 3634 O 346.875 0.10521 1.82196 0
M  V30 3635 C 346.926 3.48584 0.957665 0
M  V30 3636 O 346.647 4.37953 -0.113389 0
M  V30 3637 C 348.148 4.10664 1.66943 0
M  V30 3638 H 345.368 0.662944 0.103665 0
M  V30 3639 H 347.912 2.01793 -0.331629 0
M  V30 3640 H 346.067 3.49985 1.661 0
M  V30 3641 H 346.481 5.23704 0.288932 0
M  V30 3642 H 347.955 5.14622 1.99671 0
M  V30 3643 H 348.432 3.55373 2.58083 0
M  V30 3644 H 349.038 4.13098 1.01142 0
M  V30 3645 N 347.353 -0.0568162 1.57498 0
M  V30 3646 C 348.764 -0.606858 1.76562 0
M  V30 3647 C 349.115 -1.77114 0.844094 0
M  V30 3648 O 348.24 -2.16376 0.0318911 0
M  V30 3649 C 348.835 -1.10766 3.20182 0
M  V30 3650 C 347.394 -1.60344 3.40539 0
M  V30 3651 C 346.541 -0.529311 2.72201 0
M  V30 3652 H 349.492 0.169393 1.57793 0
M  V30 3653 H 349.513 -1.97602 3.25167 0
M  V30 3654 H 349.025 -0.26006 3.87228 0
M  V30 3655 H 347.126 -2.47379 2.78629 0
M  V30 3656 H 347.239 -1.67006 4.4905 0
M  V30 3657 H 345.603 -0.977893 2.35179 0
M  V30 3658 H 346.386 0.308352 3.41912 0
M  V30 3659 N 348.832 -1.54138 -0.328536 0
M  V30 3660 C 349.742 -1.86192 -1.42723 0
M  V30 3661 C 350.758 -0.753382 -1.56844 0
M  V30 3662 O 351.934 -1.04718 -1.72035 0
M  V30 3663 C 348.999 -2.07824 -2.77507 0
M  V30 3664 C 348.06 -3.31641 -2.72603 0
M  V30 3665 C 347.293 -3.52232 -4.00959 0
M  V30 3666 O 347.516 -2.7636 -4.9898 0
M  V30 3667 O 346.45 -4.45699 -4.0452 0
M  V30 3668 H 350.276 -2.79608 -1.18547 0
M  V30 3669 H 347.861 -1.3998 -0.522104 0
M  V30 3670 H 349.743 -2.23411 -3.57303 0
M  V30 3671 H 348.418 -1.17596 -3.01584 0
M  V30 3672 H 347.325 -3.21444 -1.91376 0
M  V30 3673 H 348.658 -4.2191 -2.53481 0
M  V30 3674 N 350.31 0.590341 -1.46126 0
M  V30 3675 C 351.726 0.912917 -1.30912 0
M  V30 3676 C 351.926 1.99616 -0.274893 0
M  V30 3677 O 350.982 2.50397 0.325197 0
M  V30 3678 C 352.295 1.3375 -2.69317 0
M  V30 3679 C 353.843 1.45077 -2.77348 0
M  V30 3680 C 354.318 1.90904 -4.16317 0
M  V30 3681 N 355.809 1.9811 -4.18696 0
M  V30 3682 C 356.544 2.34828 -5.23109 0
M  V30 3683 N 356.04 2.70393 -6.37856 0
M  V30 3684 N 357.833 2.35317 -5.10473 0
M  V30 3685 H 349.984 -0.125358 -2.1203 0
M  V30 3686 H 352.247 0.00658481 -0.947977 0
M  V30 3687 H 351.953 0.615614 -3.4627 0
M  V30 3688 H 351.827 2.30058 -2.9892 0
M  V30 3689 H 354.214 2.16353 -2.00687 0
M  V30 3690 H 354.295 0.4704 -2.51438 0
M  V30 3691 H 353.939 1.20209 -4.9347 0
M  V30 3692 H 353.869 2.89886 -4.39629 0
M  V30 3693 H 356.36 1.73146 -3.359 0
M  V30 3694 H 356.673 2.97341 -7.13308 0
M  V30 3695 H 355.018 2.68048 -6.41229 0
M  V30 3696 H 358.209 2.0695 -4.19868 0
M  V30 3697 H 358.382 2.63605 -5.9196 0
M  V30 3698 N 351.788 1.33704 0.83433 0
M  V30 3699 C 352.751 1.24244 1.92603 0
M  V30 3700 C 353.751 0.160383 1.59998 0
M  V30 3701 O 354.941 0.412228 1.69252 0
M  V30 3702 C 352.073 0.91555 3.28376 0
M  V30 3703 H 353.266 2.21287 2.02416 0
M  V30 3704 H 350.819 1.17827 1.02696 0
M  V30 3705 H 351.554 -0.0521886 3.24258 0
M  V30 3706 H 351.339 1.69811 3.53422 0
M  V30 3707 H 352.829 0.874231 4.08347 0
M  V30 3708 N 353.266 -1.05314 1.17247 0
M  V30 3709 C 354.682 -1.30452 0.919473 0
M  V30 3710 C 354.882 -1.9703 -0.42209 0
M  V30 3711 O 353.938 -2.24311 -1.15935 0
M  V30 3712 C 355.251 -2.17551 2.07586 0
M  V30 3713 C 356.799 -2.30937 2.11275 0
M  V30 3714 C 357.274 -3.21396 3.26296 0
M  V30 3715 N 358.765 -3.28981 3.26076 0
M  V30 3716 C 359.5 -3.99095 4.11716 0
M  V30 3717 N 358.996 -4.71648 5.07465 0
M  V30 3718 N 360.789 -3.95247 3.9967 0
M  V30 3719 H 352.94 -0.604988 2.03602 0
M  V30 3720 H 355.203 -0.329368 0.888944 0
M  V30 3721 H 354.909 -1.75921 3.0454 0
M  V30 3722 H 354.783 -3.18182 2.02584 0
M  V30 3723 H 357.17 -2.71809 1.14907 0
M  V30 3724 H 357.251 -1.2994 2.20339 0
M  V30 3725 H 356.895 -2.81238 4.22927 0
M  V30 3726 H 356.825 -4.22395 3.14467 0
M  V30 3727 H 359.316 -2.77286 2.5675 0
M  V30 3728 H 359.629 -5.22705 5.6921 0
M  V30 3729 H 357.974 -4.70594 5.11435 0
M  V30 3730 H 361.165 -3.37691 3.24164 0
M  V30 3731 H 361.338 -4.4962 4.66632 0
M  V30 3732 N 354.744 -0.972509 -1.24016 0
M  V30 3733 C 355.654 -0.5143 -2.28893 0
M  V30 3734 C 356.67 0.427078 -1.68677 0
M  V30 3735 O 357.846 0.298939 -1.99169 0
M  V30 3736 C 354.911 0.183598 -3.46214 0
M  V30 3737 C 353.972 -0.798202 -4.21814 0
M  V30 3738 C 353.205 -0.133514 -5.33533 0
M  V30 3739 O 353.428 1.07714 -5.60137 0
M  V30 3740 O 352.362 -0.828103 -5.96176 0
M  V30 3741 H 356.188 -1.38629 -2.70214 0
M  V30 3742 H 353.773 -0.739769 -1.29799 0
M  V30 3743 H 355.655 0.575433 -4.17453 0
M  V30 3744 H 354.33 1.03048 -3.0686 0
M  V30 3745 H 353.237 -1.24059 -3.52931 0
M  V30 3746 H 354.57 -1.61364 -4.64997 0
M  V30 3747 N 356.222 1.38976 -0.743202 0
M  V30 3748 C 357.468 2.01114 -0.304109 0
M  V30 3749 C 357.823 1.57929 1.09892 0
M  V30 3750 O 357.116 0.801983 1.74008 0
M  V30 3751 C 357.31 3.55647 -0.353517 0
M  V30 3752 C 357.139 4.13837 -1.75981 0
M  V30 3753 C 355.909 4.46062 -2.37395 0
M  V30 3754 C 358.107 4.36812 -2.71477 0
M  V30 3755 N 356.089 4.898 -3.70093 0
M  V30 3756 C 357.46 4.82844 -3.88923 0
M  V30 3757 C 359.515 4.18893 -2.69134 0
M  V30 3758 C 358.218 5.12837 -5.04371 0
M  V30 3759 C 360.244 4.50005 -3.83731 0
M  V30 3760 C 359.606 4.96251 -4.99914 0
M  V30 3761 H 355.705 0.765931 -0.157716 0
M  V30 3762 H 358.289 1.68763 -0.970931 0
M  V30 3763 H 356.46 3.87368 0.282987 0
M  V30 3764 H 358.192 4.04564 0.104904 0
M  V30 3765 H 354.947 4.34145 -1.89248 0
M  V30 3766 H 355.371 5.16016 -4.38242 0
M  V30 3767 H 360.013 3.82335 -1.80499 0
M  V30 3768 H 357.731 5.48297 -5.9363 0
M  V30 3769 H 361.317 4.37755 -3.83225 0
M  V30 3770 H 360.197 5.19867 -5.87118 0
M  V30 3771 N 357.7 0.491464 1.49741 0
M  V30 3772 C 358.946 -0.0565092 2.02721 0
M  V30 3773 C 359.279 -1.37522 1.37118 0
M  V30 3774 O 358.554 -1.87866 0.503645 0
M  V30 3775 C 358.837 -0.219051 3.59433 0
M  V30 3776 C 358.69 1.12211 4.35579 0
M  V30 3777 C 360.009 -0.964157 4.29409 0
M  V30 3778 H 357.128 -0.0190627 0.736753 0
M  V30 3779 H 359.77 0.641021 1.7886 0
M  V30 3780 H 357.92 -0.813165 3.79895 0
M  V30 3781 H 359.592 1.75437 4.26637 0
M  V30 3782 H 357.835 1.71377 3.98513 0
M  V30 3783 H 358.506 0.961794 5.43556 0
M  V30 3784 H 360.982 -0.460378 4.13545 0
M  V30 3785 H 359.858 -1.04671 5.38828 0
M  V30 3786 H 360.119 -2.00563 3.93988 0
M  V30 3787 N 359.178 -1.55987 0.224894 0
M  V30 3788 C 360.594 -1.59066 -0.130426 0
M  V30 3789 C 360.794 -1.24176 -1.5869 0
M  V30 3790 O 359.85 -0.978592 -2.32766 0
M  V30 3791 C 361.163 -3.00042 0.198883 0
M  V30 3792 C 362.711 -3.1268 0.141391 0
M  V30 3793 C 363.186 -4.55839 0.444422 0
M  V30 3794 N 364.677 -4.6152 0.394115 0
M  V30 3795 C 365.412 -5.70231 0.602038 0
M  V30 3796 N 364.908 -6.87291 0.871914 0
M  V30 3797 N 366.701 -5.59555 0.534245 0
M  V30 3798 H 358.852 -1.76941 1.17497 0
M  V30 3799 H 361.115 -0.822604 0.471197 0
M  V30 3800 H 360.821 -3.30234 1.2099 0
M  V30 3801 H 360.695 -3.74075 -0.484535 0
M  V30 3802 H 363.082 -2.82283 -0.860265 0
M  V30 3803 H 363.163 -2.40969 0.858335 0
M  V30 3804 H 362.807 -4.86954 1.44353 0
M  V30 3805 H 362.737 -5.2578 -0.293752 0
M  V30 3806 H 365.228 -3.77405 0.193356 0
M  V30 3807 H 365.541 -7.66058 1.01858 0
M  V30 3808 H 363.886 -6.89028 0.909145 0
M  V30 3809 H 367.077 -4.6698 0.323612 0
M  V30 3810 H 367.25 -6.44211 0.699693 0
M  V30 3811 N 360.656 0.0484629 -1.57525 0
M  V30 3812 C 361.566 1.07241 -2.08654 0
M  V30 3813 C 362.582 1.409 -1.02095 0
M  V30 3814 O 363.758 1.50609 -1.33712 0
M  V30 3815 C 360.823 2.36008 -2.5397 0
M  V30 3816 C 359.884 2.09108 -3.7493 0
M  V30 3817 C 359.117 3.31736 -4.18075 0
M  V30 3818 O 359.34 4.41714 -3.60895 0
M  V30 3819 O 358.274 3.18576 -5.10679 0
M  V30 3820 H 362.1 0.667965 -2.96263 0
M  V30 3821 H 359.685 0.26417 -1.47046 0
M  V30 3822 H 361.567 3.11747 -2.83535 0
M  V30 3823 H 360.242 2.75786 -1.69481 0
M  V30 3824 H 359.149 1.31 -3.50414 0
M  V30 3825 H 360.482 1.74198 -4.60343 0
M  V30 3826 N 362.134 1.5431 0.320358 0
M  V30 3827 C 363.081 1.83918 1.39438 0
M  V30 3828 C 364.051 0.686525 1.51248 0
M  V30 3829 O 365.236 0.933269 1.66417 0
M  V30 3830 C 362.376 2.075 2.75749 0
M  V30 3831 C 361.489 3.35177 2.72544 0
M  V30 3832 C 360.624 3.48704 4.00723 0
M  V30 3833 C 359.663 4.70244 3.91838 0
M  V30 3834 N 358.8 4.80679 5.11754 0
M  V30 3835 H 363.64 2.75544 1.13489 0
M  V30 3836 H 361.177 1.36459 0.549309 0
M  V30 3837 H 363.135 2.19166 3.54996 0
M  V30 3838 H 361.765 1.19163 3 0
M  V30 3839 H 360.817 3.32233 1.85271 0
M  V30 3840 H 362.129 4.24534 2.61863 0
M  V30 3841 H 361.283 3.59928 4.88402 0
M  V30 3842 H 360.022 2.57445 4.14214 0
M  V30 3843 H 359.027 4.59072 3.02544 0
M  V30 3844 H 360.252 5.6289 3.7991 0
M  V30 3845 H 358.198 3.92337 5.25745 0
M  V30 3846 H 358.115 5.64007 5.0342 0
M  V30 3847 H 359.383 4.96239 6.01138 0
M  V30 3848 N 363.613 -0.582584 1.46437 0
M  V30 3849 C 364.543 -1.70187 1.59871 0
M  V30 3850 C 365.524 -1.64066 0.449042 0
M  V30 3851 O 366.709 -1.82081 0.6753 0
M  V30 3852 C 363.839 -3.08827 1.58881 0
M  V30 3853 C 362.793 -3.29779 2.72819 0
M  V30 3854 C 362.119 -4.68947 2.5689 0
M  V30 3855 C 363.419 -3.17601 4.1464 0
M  V30 3856 H 365.113 -1.592 2.53566 0
M  V30 3857 H 362.659 -0.764472 1.22032 0
M  V30 3858 H 364.612 -3.86951 1.66873 0
M  V30 3859 H 363.336 -3.20713 0.617306 0
M  V30 3860 H 361.995 -2.54054 2.64296 0
M  V30 3861 H 361.643 -4.77599 1.57823 0
M  V30 3862 H 361.343 -4.83919 3.33312 0
M  V30 3863 H 362.867 -5.4924 2.66773 0
M  V30 3864 H 364.281 -3.8557 4.24274 0
M  V30 3865 H 362.678 -3.44094 4.9165 0
M  V30 3866 H 363.748 -2.14681 4.34788 0
M  V30 3867 N 365.091 -1.34144 -0.827227 0
M  V30 3868 C 366.054 -1.25264 -1.91942 0
M  V30 3869 C 367.054 -0.168866 -1.59911 0
M  V30 3870 O 368.244 -0.421198 -1.69031 0
M  V30 3871 C 365.376 -0.932952 -3.27885 0
M  V30 3872 H 366.569 -2.22357 -2.0124 0
M  V30 3873 H 364.122 -1.1837 -1.0207 0
M  V30 3874 H 364.857 0.0349917 -3.24281 0
M  V30 3875 H 364.642 -1.71682 -3.52516 0
M  V30 3876 H 366.132 -0.895874 -4.07877 0
M  V30 3877 N 366.569 1.04691 -1.17803 0
M  V30 3878 C 367.516 2.12557 -0.899343 0
M  V30 3879 C 368.486 1.65339 0.158771 0
M  V30 3880 O 369.671 1.90789 0.0204797 0
M  V30 3881 C 366.811 3.42481 -0.424315 0
M  V30 3882 C 365.924 4.03346 -1.54713 0
M  V30 3883 C 365.059 5.21208 -1.02546 0
M  V30 3884 C 364.098 5.74089 -2.12339 0
M  V30 3885 N 363.235 6.83247 -1.61612 0
M  V30 3886 H 368.075 2.35734 -1.823 0
M  V30 3887 H 365.612 1.1564 -0.909159 0
M  V30 3888 H 367.57 4.16996 -0.130421 0
M  V30 3889 H 366.2 3.19471 0.462377 0
M  V30 3890 H 365.252 3.2622 -1.95664 0
M  V30 3891 H 366.564 4.38628 -2.37501 0
M  V30 3892 H 365.718 6.02812 -0.685718 0
M  V30 3893 H 364.457 4.87414 -0.167084 0
M  V30 3894 H 363.462 4.91111 -2.47165 0
M  V30 3895 H 364.687 6.0993 -2.98601 0
M  V30 3896 H 362.633 6.5134 -0.780533 0
M  V30 3897 H 362.55 7.17559 -2.38003 0
M  V30 3898 H 363.818 7.68491 -1.30545 0
M  V30 3899 N 368.047 0.979072 1.23499 0
M  V30 3900 C 368.994 0.517904 2.24914 0
M  V30 3901 C 369.964 -0.442525 1.60097 0
M  V30 3902 O 371.149 -0.350365 1.87556 0
M  V30 3903 C 368.289 -0.174813 3.44657 0
M  V30 3904 C 367.402 0.825721 4.24035 0
M  V30 3905 C 366.537 0.107946 5.3109 0
M  V30 3906 C 365.576 1.09778 6.02175 0
M  V30 3907 N 364.713 0.40925 7.00906 0
M  V30 3908 H 369.553 1.38751 2.63727 0
M  V30 3909 H 367.09 0.695303 1.2963 0
M  V30 3910 H 369.048 -0.593233 4.12961 0
M  V30 3911 H 367.678 -1.0083 3.06648 0
M  V30 3912 H 366.73 1.36253 3.55161 0
M  V30 3913 H 368.042 1.58005 4.73113 0
M  V30 3914 H 367.196 -0.367904 6.05583 0
M  V30 3915 H 365.935 -0.678994 4.8295 0
M  V30 3916 H 364.94 1.5844 5.26476 0
M  V30 3917 H 366.165 1.88536 6.52404 0
M  V30 3918 H 364.111 -0.358506 6.5502 0
M  V30 3919 H 364.028 1.10226 7.47921 0
M  V30 3920 H 365.296 -0.0442557 7.79487 0
M  V30 3921 N 369.525 -1.3858 0.750561 0
M  V30 3922 C 370.435 -2.34278 0.122825 0
M  V30 3923 C 371.451 -1.59116 -0.704131 0
M  V30 3924 O 372.627 -1.91326 -0.628987 0
M  V30 3925 C 369.692 -3.38221 -0.762086 0
M  V30 3926 C 368.753 -4.29227 0.078896 0
M  V30 3927 C 367.986 -5.28205 -0.763874 0
M  V30 3928 O 368.209 -5.34112 -2.00201 0
M  V30 3929 O 367.143 -6.01618 -0.18428 0
M  V30 3930 H 370.969 -2.89649 0.913088 0
M  V30 3931 H 368.554 -1.40374 0.511417 0
M  V30 3932 H 370.436 -4.01872 -1.26793 0
M  V30 3933 H 369.111 -2.85211 -1.5309 0
M  V30 3934 H 368.018 -3.68747 0.630621 0
M  V30 3935 H 369.351 -4.85484 0.810289 0
M  V30 3936 N 371.003 -0.499398 -1.49478 0
M  V30 3937 C 372.419 -0.155261 -1.58843 0
M  V30 3938 C 372.619 1.34008 -1.50479 0
M  V30 3939 O 371.675 2.11589 -1.37791 0
M  V30 3940 C 372.988 -0.730636 -2.91689 0
M  V30 3941 C 374.536 -0.696599 -3.0515 0
M  V30 3942 C 375.011 -1.25001 -4.40612 0
M  V30 3943 N 376.502 -1.21064 -4.47099 0
M  V30 3944 C 377.237 -1.60905 -5.50361 0
M  V30 3945 N 376.733 -2.08331 -6.60735 0
M  V30 3946 N 378.526 -1.52331 -5.41065 0
M  V30 3947 H 370.677 -1.47162 -1.53158 0
M  V30 3948 H 372.94 -0.610309 -0.725415 0
M  V30 3949 H 372.646 -1.77928 -3.03372 0
M  V30 3950 H 372.52 -0.190161 -3.7672 0
M  V30 3951 H 374.907 0.343204 -2.93097 0
M  V30 3952 H 374.988 -1.2742 -2.21806 0
M  V30 3953 H 374.632 -2.28859 -4.53416 0
M  V30 3954 H 374.562 -0.64836 -5.22593 0
M  V30 3955 H 377.053 -0.863128 -3.67911 0
M  V30 3956 H 377.366 -2.36805 -7.35624 0
M  V30 3957 H 375.711 -2.12304 -6.6178 0
M  V30 3958 H 378.902 -1.151 -4.53729 0
M  V30 3959 H 379.075 -1.83704 -6.21415 0
M  V30 3960 N 372.481 1.55866 -0.233164 0
M  V30 3961 C 373.73 1.97779 0.39579 0
M  V30 3962 C 374.043 1.12419 1.60066 0
M  V30 3963 O 375.249 1.44283 2.29988 0
M  V30 3964 C 373.705 3.5188 0.755556 0
M  V30 3965 C 373.313 4.45959 -0.427152 0
M  V30 3966 C 375.057 4.02479 1.34946 0
M  V30 3967 C 372.964 5.91383 -0.0443043 0
M  V30 3968 H 371.894 0.738592 0.15165 0
M  V30 3969 H 374.545 1.80486 -0.331212 0
M  V30 3970 H 372.927 3.64816 1.5403 0
M  V30 3971 H 374.101 4.44776 -1.20462 0
M  V30 3972 H 372.416 4.05765 -0.935068 0
M  V30 3973 H 375.013 5.08637 1.649 0
M  V30 3974 H 375.356 3.49014 2.26925 0
M  V30 3975 H 375.889 3.92813 0.62791 0
M  V30 3976 H 372.628 6.48857 -0.930874 0
M  V30 3977 H 372.148 5.95734 0.697238 0
M  V30 3978 H 373.827 6.45893 0.378334 0
M  V30 3979 N 373.959 -0.0401083 1.57549 0
M  V30 3980 C 374.892 -1.07689 2.01192 0
M  V30 3981 C 375.87 -1.358 0.894273 0
M  V30 3982 O 377.054 -1.48642 1.15921 0
M  V30 3983 C 374.181 -2.41418 2.3756 0
M  V30 3984 C 373.227 -2.29237 3.59656 0
M  V30 3985 S 374.06 -1.65628 5.09242 0
M  V30 3986 C 375.216 -3.0087 5.48843 0
M  V30 3987 H 375.449 -0.705108 2.88817 0
M  V30 3988 H 372.982 -0.249724 1.52367 0
M  V30 3989 H 374.94 -3.18329 2.59186 0
M  V30 3990 H 373.601 -2.75747 1.50407 0
M  V30 3991 H 372.794 -3.27932 3.82722 0
M  V30 3992 H 372.396 -1.60469 3.37825 0
M  V30 3993 H 374.688 -3.97201 5.48851 0
M  V30 3994 H 375.631 -2.82549 6.49286 0
M  V30 3995 H 376.039 -3.02934 4.76331 0
M  V30 3996 N 375.437 -1.54477 -0.31217 0
M  V30 3997 C 376.685 -1.72884 -1.04668 0
M  V30 3998 C 377.006 -0.511477 -1.88173 0
M  V30 3999 O 376.276 0.474407 -1.90069 0
M  V30 4000 H 374.856 -0.637461 -0.389425 0
M  V30 4001 H 377.518 -1.91807 -0.345852 0
M  V30 4002 H 376.614 -2.61334 -1.70619 0
M  V30 4003 N 376.915 0.57481 -1.46744 0
M  V30 4004 C 377.848 1.69827 -1.52427 0
M  V30 4005 C 378.826 1.58151 -0.377744 0
M  V30 4006 O 380.01 1.79257 -0.58303 0
M  V30 4007 C 377.137 3.07943 -1.41027 0
M  V30 4008 C 376.183 3.38116 -2.59961 0
M  V30 4009 S 377.016 3.29313 -4.22272 0
M  V30 4010 C 378.172 4.69953 -4.13394 0
M  V30 4011 H 378.405 1.64748 -2.47478 0
M  V30 4012 H 375.938 0.754203 -1.34726 0
M  V30 4013 H 377.896 3.87619 -1.35137 0
M  V30 4014 H 376.557 3.10504 -0.473909 0
M  V30 4015 H 375.75 4.38762 -2.47999 0
M  V30 4016 H 375.352 2.66024 -2.62882 0
M  V30 4017 H 377.644 5.60517 -3.80562 0
M  V30 4018 H 378.587 4.86972 -5.14066 0
M  V30 4019 H 378.995 4.47174 -3.44522 0
M  V30 4020 N 378.394 1.34581 0.820102 0
M  V30 4021 C 379.642 1.26845 1.57336 0
M  V30 4022 C 379.963 -0.160667 1.94337 0
M  V30 4023 O 379.233 -1.09396 1.6251 0
M  V30 4024 H 377.813 0.466514 0.583415 0
M  V30 4025 H 380.475 1.68526 0.979027 0
M  V30 4026 H 379.571 1.87513 2.4949 0
M  V30 4027 N 379.872 -1.04064 1.18357 0
M  V30 4028 C 380.822 -2.10393 0.878561 0
M  V30 4029 C 381.806 -1.60183 -0.151713 0
M  V30 4030 O 382.998 -1.76923 0.0523303 0
M  V30 4031 C 380.127 -3.4089 0.406096 0
M  V30 4032 C 379.213 -3.97866 1.46844 0
M  V30 4033 N 379.604 -4.28657 2.68489 0
M  V30 4034 C 377.902 -4.2574 1.32896 0
M  V30 4035 C 378.603 -4.74253 3.36836 0
M  V30 4036 N 377.579 -4.75068 2.64219 0
M  V30 4037 H 381.381 -2.32076 1.80327 0
M  V30 4038 H 378.895 -1.21818 1.07397 0
M  V30 4039 H 380.892 -4.16557 0.169088 0
M  V30 4040 H 379.552 -3.20633 -0.512275 0
M  V30 4041 H 380.563 -4.18304 3.05356 0
M  V30 4042 H 377.24 -4.1481 0.473134 0
M  V30 4043 H 378.63 -5.07096 4.40798 0
M  V30 4044 N 381.35 -0.985608 -1.22978 0
M  V30 4045 C 382.766 -0.695104 -1.43668 0
M  V30 4046 C 382.966 0.736866 -1.87543 0
M  V30 4047 O 382.022 1.50868 -2.02473 0
M  V30 4048 C 383.335 -1.69447 -2.48412 0
M  V30 4049 C 384.883 -1.70909 -2.62219 0
M  V30 4050 C 385.358 -2.6969 -3.70178 0
M  V30 4051 N 386.849 -2.6824 -3.77626 0
M  V30 4052 C 387.584 -3.41339 -4.60733 0
M  V30 4053 N 387.08 -4.24015 -5.4789 0
M  V30 4054 N 388.873 -3.30079 -4.54977 0
M  V30 4055 H 381.024 -1.91054 -0.928016 0
M  V30 4056 H 383.287 -0.823553 -0.469536 0
M  V30 4057 H 382.993 -2.7188 -2.23102 0
M  V30 4058 H 382.867 -1.48147 -3.46889 0
M  V30 4059 H 385.254 -0.691785 -2.86877 0
M  V30 4060 H 385.335 -1.96276 -1.6404 0
M  V30 4061 H 384.979 -3.71566 -3.46268 0
M  V30 4062 H 384.909 -2.41595 -4.67909 0
M  V30 4063 H 387.4 -2.08243 -3.15346 0
M  V30 4064 H 387.713 -4.76636 -6.08308 0
M  V30 4065 H 386.058 -4.28104 -5.47496 0
M  V30 4066 H 389.249 -2.64937 -3.85909 0
M  V30 4067 H 389.422 -3.87308 -5.19516 0
M  V30 4068 N 382.828 1.3818 -0.7579 0
M  V30 4069 C 384.074 2.00316 -0.316453 0
M  V30 4070 C 384.407 1.60026 1.10025 0
M  V30 4071 O 383.682 0.839835 1.75434 0
M  V30 4072 C 383.965 3.57349 -0.444245 0
M  V30 4073 C 383.818 4.07591 -1.90236 0
M  V30 4074 C 385.137 4.3981 0.1598 0
M  V30 4075 H 382.256 0.727741 -0.116459 0
M  V30 4076 H 384.898 1.6406 -0.958352 0
M  V30 4077 H 383.048 3.88365 0.102233 0
M  V30 4078 H 384.72 3.87199 -2.50748 0
M  V30 4079 H 382.963 3.60297 -2.41595 0
M  V30 4080 H 383.634 5.16677 -1.94291 0
M  V30 4081 H 386.11 4.14971 -0.306314 0
M  V30 4082 H 384.986 5.48885 0.0401675 0
M  V30 4083 H 385.247 4.24102 1.24859 0
M  V30 4084 N 384.306 0.507319 1.49211 0
M  V30 4085 C 385.536 -0.0315292 2.06576 0
M  V30 4086 C 385.944 -1.30791 1.36713 0
M  V30 4087 O 385.287 -1.78324 0.441181 0
M  V30 4088 C 385.349 -0.349104 3.57801 0
M  V30 4089 C 385.013 0.830475 4.49391 0
M  V30 4090 C 386.01 1.72271 4.90529 0
M  V30 4091 C 383.695 1.03107 4.91604 0
M  V30 4092 C 385.689 2.79964 5.72625 0
M  V30 4093 C 383.376 2.11116 5.73475 0
M  V30 4094 C 384.374 2.99379 6.1389 0
M  V30 4095 O 384.062 4.05523 6.94123 0
M  V30 4096 H 383.794 0.0201002 0.675701 0
M  V30 4097 H 386.348 0.705737 1.92895 0
M  V30 4098 H 384.578 -1.14005 3.69513 0
M  V30 4099 H 386.267 -0.827319 3.97379 0
M  V30 4100 H 387.033 1.57958 4.58557 0
M  V30 4101 H 382.912 0.353417 4.59643 0
M  V30 4102 H 386.456 3.48884 6.04091 0
M  V30 4103 H 382.353 2.25421 6.0486 0
M  V30 4104 H 383.121 4.02953 7.1244 0
M  V30 4105 N 385.784 -1.5574 0.241426 0
M  V30 4106 C 386.731 -2.21149 -0.660432 0
M  V30 4107 C 387.701 -1.17356 -1.17545 0
M  V30 4108 O 388.886 -1.45784 -1.23093 0
M  V30 4109 C 386.026 -2.91059 -1.85414 0
M  V30 4110 C 385.139 -4.09495 -1.37616 0
M  V30 4111 C 384.274 -4.67135 -2.529 0
M  V30 4112 C 383.313 -5.77831 -2.01936 0
M  V30 4113 N 382.45 -6.29677 -3.10566 0
M  V30 4114 H 387.29 -2.97845 -0.095955 0
M  V30 4115 H 384.827 -1.47057 -0.0356024 0
M  V30 4116 H 386.785 -3.29788 -2.5553 0
M  V30 4117 H 385.415 -2.16846 -2.39118 0
M  V30 4118 H 384.467 -3.76117 -0.569235 0
M  V30 4119 H 385.779 -4.89423 -0.962618 0
M  V30 4120 H 384.933 -5.08409 -3.31067 0
M  V30 4121 H 383.672 -3.86411 -2.97553 0
M  V30 4122 H 382.677 -5.36039 -1.22238 0
M  V30 4123 H 383.902 -6.60402 -1.58259 0
M  V30 4124 H 381.848 -5.5186 -3.54664 0
M  V30 4125 H 381.765 -7.04783 -2.73526 0
M  V30 4126 H 383.033 -6.75609 -3.88809 0
M  V30 4127 N 387.262 0.0317525 -1.57568 0
M  V30 4128 C 388.225 1.01783 -2.0536 0
M  V30 4129 C 389.225 1.29203 -0.957253 0
M  V30 4130 O 390.415 1.24251 -1.22095 0
M  V30 4131 C 387.547 2.35137 -2.46827 0
M  V30 4132 H 388.74 0.605062 -2.93733 0
M  V30 4133 H 386.293 0.278514 -1.53799 0
M  V30 4134 H 387.028 2.81168 -1.61602 0
M  V30 4135 H 386.813 2.16566 -3.26866 0
M  V30 4136 H 388.303 3.05938 -2.84239 0
M  V30 4137 N 388.74 1.54641 0.303973 0
M  V30 4138 C 389.987 1.7378 1.03955 0
M  V30 4139 C 390.315 0.521986 1.87365 0
M  V30 4140 O 389.57 -0.496099 1.89308 0
M  V30 4141 C 389.869 2.97753 1.97681 0
M  V30 4142 C 389.535 4.31671 1.30271 0
M  V30 4143 C 388.197 4.68075 1.11619 0
M  V30 4144 C 390.549 5.147 0.82055 0
M  V30 4145 C 387.877 5.8509 0.434304 0
M  V30 4146 C 390.229 6.32416 0.152395 0
M  V30 4147 C 388.893 6.67484 -0.0461067 0
M  V30 4148 H 388.163 0.635908 0.380398 0
M  V30 4149 H 390.81 1.88896 0.314718 0
M  V30 4150 H 389.115 2.77406 2.76682 0
M  V30 4151 H 390.812 3.09756 2.54661 0
M  V30 4152 H 387.402 4.03041 1.45795 0
M  V30 4153 H 391.586 4.87077 0.952374 0
M  V30 4154 H 386.842 6.10806 0.269495 0
M  V30 4155 H 391.016 6.96023 -0.229126 0
M  V30 4156 H 388.643 7.58011 -0.576494 0
M  V30 4157 N 390.218 -0.567019 1.47046 0
M  V30 4158 C 391.495 -1.3276 1.43646 0
M  V30 4159 C 391.875 -2.1071 0.128186 0
M  V30 4160 O 391.223 -2.10441 -0.890326 0
M  V30 4161 C 391.433 -2.2404 2.67595 0
M  V30 4162 C 392.781 -2.85372 3.14401 0
M  V30 4163 O 393.805 -2.34346 2.68254 0
M  V30 4164 O 392.664 -3.78091 3.946 0
M  V30 4165 H 389.758 -0.597293 0.571988 0
M  V30 4166 H 392.304 -0.586735 1.59234 0
M  V30 4167 H 391.076 -1.65975 3.54356 0
M  V30 4168 H 390.699 -3.05439 2.54544 0
M  V30 4169 N 391.696 -1.35014 -0.812953 0
M  V30 4170 C 393.107 -1.25035 -1.38648 0
M  V30 4171 C 393.458 0.119967 -1.95833 0
M  V30 4172 O 392.583 1.02069 -1.90816 0
M  V30 4173 C 393.178 -2.26394 -2.52054 0
M  V30 4174 C 391.737 -2.20175 -3.05287 0
M  V30 4175 C 390.884 -2.12451 -1.78213 0
M  V30 4176 H 393.835 -1.46235 -0.616516 0
M  V30 4177 H 393.856 -1.88672 -3.30429 0
M  V30 4178 H 393.368 -3.26116 -2.10404 0
M  V30 4179 H 391.469 -1.23841 -3.51417 0
M  V30 4180 H 391.582 -3.11863 -3.63701 0
M  V30 4181 H 389.946 -1.58328 -1.9951 0
M  V30 4182 H 390.729 -3.14024 -1.38723 0
M  V30 4183 N 393.175 1.03435 -1.18907 0
M  V30 4184 C 394.591 1.28973 -0.940111 0
M  V30 4185 C 394.791 1.97676 0.390691 0
M  V30 4186 O 393.847 2.26127 1.12352 0
M  V30 4187 C 395.16 2.14221 -2.11021 0
M  V30 4188 C 396.708 2.27547 -2.14922 0
M  V30 4189 C 397.183 3.16164 -3.31367 0
M  V30 4190 N 398.674 3.23752 -3.31269 0
M  V30 4191 C 399.409 3.92495 -4.18014 0
M  V30 4192 N 398.905 4.63515 -5.14904 0
M  V30 4193 N 400.698 3.88838 -4.05908 0
M  V30 4194 H 392.849 0.57252 -2.04538 0
M  V30 4195 H 395.112 0.315184 -0.894071 0
M  V30 4196 H 394.818 1.71054 -3.073 0
M  V30 4197 H 394.692 3.14919 -2.0762 0
M  V30 4198 H 397.079 2.69947 -1.19217 0
M  V30 4199 H 397.16 1.26418 -2.22378 0
M  V30 4200 H 396.804 2.74474 -4.27348 0
M  V30 4201 H 396.734 4.17339 -3.21148 0
M  V30 4202 H 399.225 2.73167 -2.61129 0
M  V30 4203 H 399.538 5.13583 -5.77453 0
M  V30 4204 H 397.883 4.62398 -5.18857 0
M  V30 4205 H 401.074 3.32491 -3.29495 0
M  V30 4206 H 401.247 4.4214 -4.73726 0
M  V30 4207 N 394.653 0.992116 1.22453 0
M  V30 4208 C 395.616 0.546883 2.2258 0
M  V30 4209 C 396.616 -0.369829 1.56489 0
M  V30 4210 O 397.806 -0.161896 1.73446 0
M  V30 4211 C 394.938 -0.204659 3.40285 0
M  V30 4212 H 396.131 1.43234 2.63484 0
M  V30 4213 H 393.684 0.779239 1.3549 0
M  V30 4214 H 394.419 -1.10614 3.04853 0
M  V30 4215 H 394.204 0.45354 3.89468 0
M  V30 4216 H 395.694 -0.504358 4.14543 0
M  V30 4217 N 396.131 -1.37776 0.765217 0
M  V30 4218 C 397.379 -1.99454 0.325943 0
M  V30 4219 C 397.7 -1.61049 -1.09947 0
M  V30 4220 O 396.97 -0.872821 -1.75381 0
M  V30 4221 H 395.55 -0.737697 0.117525 0
M  V30 4222 H 398.212 -1.68359 0.981895 0
M  V30 4223 H 397.308 -3.09547 0.398353 0
M  V30 4224 N 397.609 -0.515225 -1.4894 0
M  V30 4225 C 398.855 0.0242508 -2.02785 0
M  V30 4226 C 399.188 1.35323 -1.39289 0
M  V30 4227 O 398.463 1.87041 -0.533469 0
M  V30 4228 C 398.746 0.16184 -3.59736 0
M  V30 4229 C 398.599 -1.19127 -4.33738 0
M  V30 4230 C 399.918 0.895719 -4.30888 0
M  V30 4231 H 397.037 0.00733914 -0.736963 0
M  V30 4232 H 399.679 -0.669395 -1.77818 0
M  V30 4233 H 397.829 0.752624 -3.8114 0
M  V30 4234 H 399.501 -1.82202 -4.23792 0
M  V30 4235 H 397.744 -1.77695 -3.95736 0
M  V30 4236 H 398.415 -1.04815 -5.41957 0
M  V30 4237 H 400.891 0.394528 -4.14225 0
M  V30 4238 H 399.767 0.960859 -5.40425 0
M  V30 4239 H 400.028 1.9427 -3.97129 0
M  V30 4240 N 399.087 1.5561 -0.249682 0
M  V30 4241 C 400.017 2.24477 0.642826 0
M  V30 4242 C 400.998 1.22601 1.17911 0
M  V30 4243 O 402.183 1.5126 1.21795 0
M  V30 4244 C 399.313 2.94638 1.83863 0
M  V30 4245 C 398.267 4.03227 1.435 0
M  V30 4246 C 397.593 4.60828 2.71186 0
M  V30 4247 C 398.893 5.18796 0.604002 0
M  V30 4248 H 400.587 2.99321 0.0685625 0
M  V30 4249 H 398.133 1.43965 0.0315363 0
M  V30 4250 H 400.086 3.41517 2.46868 0
M  V30 4251 H 398.81 2.17287 2.43832 0
M  V30 4252 H 397.469 3.57121 0.828275 0
M  V30 4253 H 397.117 3.80174 3.29358 0
M  V30 4254 H 396.817 5.34132 2.44901 0
M  V30 4255 H 398.341 5.10442 3.35084 0
M  V30 4256 H 399.755 5.61883 1.13842 0
M  V30 4257 H 398.152 5.98506 0.437097 0
M  V30 4258 H 399.222 4.83384 -0.383147 0
M  V30 4259 N 400.565 -0.0233959 1.57583 0
M  V30 4260 C 401.475 -1.03907 2.10334 0
M  V30 4261 C 402.491 -1.39257 1.04323 0
M  V30 4262 O 403.667 -1.48462 1.36091 0
M  V30 4263 C 400.732 -2.31938 2.57693 0
M  V30 4264 C 399.793 -2.03117 3.78209 0
M  V30 4265 C 399.026 -3.25043 4.233 0
M  V30 4266 O 399.249 -4.35916 3.67876 0
M  V30 4267 O 398.183 -3.10411 5.15683 0
M  V30 4268 H 402.009 -0.620748 2.97288 0
M  V30 4269 H 399.594 -0.240743 1.47448 0
M  V30 4270 H 401.476 -3.07196 2.88458 0
M  V30 4271 H 400.151 -2.73055 1.73847 0
M  V30 4272 H 399.058 -1.25408 3.52454 0
M  V30 4273 H 400.391 -1.66852 4.63056 0
M  V30 4274 N 402.043 -1.548 -0.295768 0
M  V30 4275 C 402.99 -1.86113 -1.36494 0
M  V30 4276 C 403.96 -0.7105 -1.50137 0
M  V30 4277 O 405.145 -0.959626 -1.64912 0
M  V30 4278 C 402.285 -2.11861 -2.72413 0
M  V30 4279 C 401.398 -3.39471 -2.67177 0
M  V30 4280 C 400.533 -3.55035 -3.95125 0
M  V30 4281 C 399.572 -4.76418 -3.84308 0
M  V30 4282 N 398.709 -4.8876 -5.04042 0
M  V30 4283 H 403.549 -2.77314 -1.09091 0
M  V30 4284 H 401.086 -1.37315 -0.52753 0
M  V30 4285 H 403.044 -2.24786 -3.51464 0
M  V30 4286 H 401.674 -1.2392 -2.98066 0
M  V30 4287 H 400.726 -3.35139 -1.79962 0
M  V30 4288 H 402.038 -4.28646 -2.55076 0
M  V30 4289 H 401.192 -3.67653 -4.82614 0
M  V30 4290 H 399.931 -2.64002 -4.10066 0
M  V30 4291 H 398.936 -4.63827 -2.95202 0
M  V30 4292 H 400.161 -5.68863 -3.70906 0
M  V30 4293 H 398.107 -4.00652 -5.19436 0
M  V30 4294 H 398.024 -5.71945 -4.94384 0
M  V30 4295 H 399.292 -5.0574 -5.93167 0
M  V30 4296 N 403.521 0.559213 -1.47345 0
M  V30 4297 C 404.451 1.67622 -1.62558 0
M  V30 4298 C 405.432 1.63331 -0.475087 0
M  V30 4299 O 406.617 1.80983 -0.704182 0
M  V30 4300 C 403.747 3.0626 -1.63774 0
M  V30 4301 C 402.701 3.25397 -2.7803 0
M  V30 4302 C 402.027 4.64801 -2.64318 0
M  V30 4303 C 403.327 3.10965 -4.19641 0
M  V30 4304 H 405.021 1.55146 -2.56067 0
M  V30 4305 H 402.567 0.744961 -1.23233 0
M  V30 4306 H 404.52 3.84247 -1.73008 0
M  V30 4307 H 403.244 3.1969 -0.66825 0
M  V30 4308 H 401.903 2.49817 -2.68304 0
M  V30 4309 H 401.551 4.75028 -1.65401 0
M  V30 4310 H 401.251 4.78555 -3.40968 0
M  V30 4311 H 402.775 5.44926 -2.75478 0
M  V30 4312 H 404.189 3.78772 -4.30354 0
M  V30 4313 H 402.586 3.36229 -4.97062 0
M  V30 4314 H 403.656 2.07736 -4.38148 0
M  V30 4315 N 404.999 1.35443 0.805782 0
M  V30 4316 C 405.962 1.28301 1.89925 0
M  V30 4317 C 406.962 0.194285 1.59622 0
M  V30 4318 O 408.152 0.448036 1.6834 0
M  V30 4319 C 405.284 0.984997 3.2636 0
M  V30 4320 H 406.477 2.2553 1.97677 0
M  V30 4321 H 404.03 1.19979 1.00173 0
M  V30 4322 H 404.765 0.016603 3.24296 0
M  V30 4323 H 404.55 1.77269 3.4974 0
M  V30 4324 H 406.04 0.960651 4.064 0
M  V30 4325 N 406.477 -1.02803 1.19454 0
M  V30 4326 C 407.893 -1.28473 0.946937 0
M  V30 4327 C 408.093 -1.97881 -0.380202 0
M  V30 4328 O 407.149 -2.26719 -1.11151 0
M  V30 4329 C 408.462 -2.13099 2.12154 0
M  V30 4330 C 410.01 -2.26404 2.16126 0
M  V30 4331 C 410.485 -3.14402 3.33039 0
M  V30 4332 N 411.976 -3.21991 3.32981 0
M  V30 4333 C 412.711 -3.90272 4.20089 0
M  V30 4334 N 412.207 -4.60777 5.17355 0
M  V30 4335 N 414 -3.8668 4.07964 0
M  V30 4336 H 406.151 -0.561665 2.04839 0
M  V30 4337 H 408.414 -0.310438 0.89573 0
M  V30 4338 H 408.12 -1.69422 3.08203 0
M  V30 4339 H 407.994 -3.13813 2.09287 0
M  V30 4340 H 410.381 -2.69311 1.20647 0
M  V30 4341 H 410.462 -1.25237 2.23045 0
M  V30 4342 H 410.106 -2.72204 4.28798 0
M  V30 4343 H 410.036 -4.1563 3.23356 0
M  V30 4344 H 412.527 -2.71778 2.62574 0
M  V30 4345 H 412.84 -5.10513 5.80169 0
M  V30 4346 H 411.185 -4.5964 5.21302 0
M  V30 4347 H 414.376 -3.30739 3.31254 0
M  V30 4348 H 414.549 -4.39621 4.76064 0
M  V30 4349 N 407.956 -0.998596 -1.21925 0
M  V30 4350 C 408.886 -0.573688 -2.26343 0
M  V30 4351 C 409.867 0.402296 -1.65274 0
M  V30 4352 O 411.052 0.291683 -1.91997 0
M  V30 4353 C 408.182 0.106839 -3.47136 0
M  V30 4354 C 407.136 -0.788269 -4.20678 0
M  V30 4355 C 406.462 0.0254927 -5.34694 0
M  V30 4356 C 407.762 -2.08784 -4.78755 0
M  V30 4357 H 409.456 -1.44651 -2.62138 0
M  V30 4358 H 407.002 -0.696975 -1.26009 0
M  V30 4359 H 408.955 0.415531 -4.19346 0
M  V30 4360 H 407.679 1.01424 -3.10452 0
M  V30 4361 H 406.338 -1.08069 -3.50309 0
M  V30 4362 H 405.986 0.933989 -4.94253 0
M  V30 4363 H 405.686 -0.570437 -5.84825 0
M  V30 4364 H 407.21 0.328147 -6.09718 0
M  V30 4365 H 408.624 -1.84272 -5.42878 0
M  V30 4366 H 407.021 -2.63307 -5.39249 0
M  V30 4367 H 408.091 -2.76284 -3.98491 0
M  V30 4368 N 409.434 1.37368 -0.772513 0
M  V30 4369 C 410.68 1.99969 -0.337681 0
M  V30 4370 C 411.013 1.61184 1.08321 0
M  V30 4371 O 410.288 0.858395 1.74533 0
M  V30 4372 C 410.571 3.56858 -0.482121 0
M  V30 4373 C 410.424 4.0555 -1.94549 0
M  V30 4374 C 411.743 4.39955 0.113143 0
M  V30 4375 H 408.862 0.726464 -0.124171 0
M  V30 4376 H 411.504 1.63034 -0.975699 0
M  V30 4377 H 409.654 3.88452 0.0610361 0
M  V30 4378 H 411.326 3.84518 -2.54841 0
M  V30 4379 H 409.569 3.57715 -2.45403 0
M  V30 4380 H 410.24 5.14587 -1.9976 0
M  V30 4381 H 412.716 4.14623 -0.35031 0
M  V30 4382 H 411.592 5.48897 -0.0180514 0
M  V30 4383 H 411.853 4.25403 1.20354 0
M  V30 4384 N 410.912 0.523116 1.48665 0
M  V30 4385 C 411.875 -0.232592 2.28017 0
M  V30 4386 C 412.875 -0.874021 1.34972 0
M  V30 4387 O 414.065 -0.735132 1.57929 0
M  V30 4388 C 411.197 -1.33586 3.13636 0
M  V30 4389 H 412.39 0.464008 2.96289 0
M  V30 4390 H 409.943 0.278816 1.53793 0
M  V30 4391 H 410.678 -2.06593 2.4998 0
M  V30 4392 H 410.463 -0.881125 3.82071 0
M  V30 4393 H 411.953 -1.86759 3.73511 0
M  V30 4394 N 412.39 -1.55475 0.257931 0
M  V30 4395 C 413.3 -2.2549 -0.647425 0
M  V30 4396 C 414.316 -1.2748 -1.18427 0
M  V30 4397 O 415.492 -1.6038 -1.2182 0
M  V30 4398 C 412.557 -2.94916 -1.82278 0
M  V30 4399 C 411.618 -4.08363 -1.32432 0
M  V30 4400 C 410.851 -4.74469 -2.44366 0
M  V30 4401 O 411.074 -4.39701 -3.63344 0
M  V30 4402 O 410.008 -5.62763 -2.13497 0
M  V30 4403 H 413.834 -3.03593 -0.0807707 0
M  V30 4404 H 411.419 -1.49377 0.0259962 0
M  V30 4405 H 413.301 -3.38606 -2.50846 0
M  V30 4406 H 411.976 -2.19744 -2.37685 0
M  V30 4407 H 410.883 -3.69166 -0.605605 0
M  V30 4408 H 412.216 -4.85385 -0.816211 0
M  V30 4409 N 413.868 0.0150385 -1.57593 0
M  V30 4410 C 414.815 1.01126 -2.07466 0
M  V30 4411 C 415.785 1.35064 -0.966794 0
M  V30 4412 O 416.97 1.4516 -1.23827 0
M  V30 4413 C 414.11 2.30276 -2.57035 0
M  V30 4414 C 413.223 2.02373 -3.81666 0
M  V30 4415 C 412.358 3.25496 -4.19793 0
M  V30 4416 C 411.397 2.93211 -5.37303 0
M  V30 4417 N 410.534 4.08826 -5.70794 0
M  V30 4418 H 415.374 0.57901 -2.92321 0
M  V30 4419 H 412.911 0.27426 -1.44521 0
M  V30 4420 H 414.869 3.05757 -2.83846 0
M  V30 4421 H 413.499 2.71197 -1.75077 0
M  V30 4422 H 412.551 1.17327 -3.61854 0
M  V30 4423 H 413.863 1.74567 -4.67256 0
M  V30 4424 H 413.017 4.09333 -4.47807 0
M  V30 4425 H 411.756 3.56428 -3.32882 0
M  V30 4426 H 410.761 2.07777 -5.09027 0
M  V30 4427 H 411.986 2.63542 -6.25877 0
M  V30 4428 H 409.932 4.39682 -4.86842 0
M  V30 4429 H 409.849 3.84491 -6.50924 0
M  V30 4430 H 411.117 4.93496 -6.03392 0
M  V30 4431 N 415.346 1.54954 0.287554 0
M  V30 4432 C 416.296 1.8322 1.357 0
M  V30 4433 C 417.28 0.690152 1.45347 0
M  V30 4434 O 418.472 0.951137 1.49273 0
M  V30 4435 C 415.601 2.09481 2.71979 0
M  V30 4436 C 414.687 3.29906 2.66502 0
M  V30 4437 N 415.078 4.50154 2.30641 0
M  V30 4438 C 413.376 3.32203 2.97585 0
M  V30 4439 C 414.077 5.32209 2.34794 0
M  V30 4440 N 413.053 4.70258 2.72688 0
M  V30 4441 H 416.855 2.73746 1.0696 0
M  V30 4442 H 414.369 1.54635 0.496167 0
M  V30 4443 H 416.366 2.27882 3.49107 0
M  V30 4444 H 415.026 1.2023 3.0162 0
M  V30 4445 H 416.037 4.76515 2.02865 0
M  V30 4446 H 412.714 2.53101 3.32034 0
M  V30 4447 H 414.104 6.38321 2.09753 0
M  V30 4448 N 416.824 -0.551391 1.4764 0
M  V30 4449 C 418.072 -1.30572 1.54258 0
M  V30 4450 C 418.393 -1.93877 0.208963 0
M  V30 4451 O 417.663 -1.80234 -0.767619 0
M  V30 4452 H 416.243 -0.484894 0.568231 0
M  V30 4453 H 418.905 -0.643402 1.83974 0
M  V30 4454 H 418.001 -2.09621 2.31226 0
M  V30 4455 N 418.302 -1.35869 -0.798587 0
M  V30 4456 C 419.252 -1.25982 -1.90033 0
M  V30 4457 C 420.236 -0.153303 -1.60168 0
M  V30 4458 O 421.428 -0.38527 -1.72756 0
M  V30 4459 C 418.557 -1.04211 -3.27101 0
M  V30 4460 C 417.643 -2.19289 -3.63006 0
M  V30 4461 N 418.034 -3.44559 -3.70287 0
M  V30 4462 C 416.332 -2.10852 -3.93011 0
M  V30 4463 C 417.033 -4.20283 -4.02166 0
M  V30 4464 N 416.009 -3.49124 -4.16669 0
M  V30 4465 H 419.811 -2.20883 -1.93876 0
M  V30 4466 H 417.325 -1.28457 -0.993614 0
M  V30 4467 H 419.322 -0.952155 -4.05881 0
M  V30 4468 H 417.982 -0.102013 -3.2454 0
M  V30 4469 H 418.993 -3.7881 -3.53162 0
M  V30 4470 H 415.67 -1.24744 -3.98428 0
M  V30 4471 H 417.06 -5.28575 -4.14799 0
M  V30 4472 N 419.78 1.02168 -1.19998 0
M  V30 4473 C 421.005 1.79833 -1.03319 0
M  V30 4474 C 421.43 1.83504 0.413281 0
M  V30 4475 O 420.788 1.26635 1.29743 0
M  V30 4476 C 420.836 3.22396 -1.61533 0
M  V30 4477 O 419.94 4.03555 -0.849519 0
M  V30 4478 H 419.281 0.554872 -0.364709 0
M  V30 4479 H 421.811 1.28542 -1.59179 0
M  V30 4480 H 421.821 3.73124 -1.65054 0
M  V30 4481 H 420.496 3.19039 -2.66809 0
M  V30 4482 H 419.073 3.62169 -0.888129 0
M  V30 4483 N 421.258 1.00505 1.21394 0
M  V30 4484 C 422.205 0.565496 2.23765 0
M  V30 4485 C 423.175 -0.408466 1.60999 0
M  V30 4486 O 424.36 -0.310503 1.88257 0
M  V30 4487 C 421.5 -0.101667 3.4495 0
M  V30 4488 C 420.613 0.915479 4.22188 0
M  V30 4489 C 419.748 0.220574 5.30742 0
M  V30 4490 C 418.787 1.22527 5.99711 0
M  V30 4491 N 417.924 0.557831 6.9988 0
M  V30 4492 H 422.764 1.44314 2.60725 0
M  V30 4493 H 420.301 0.722643 1.28126 0
M  V30 4494 H 422.259 -0.505504 4.14126 0
M  V30 4495 H 420.889 -0.94303 3.08718 0
M  V30 4496 H 419.941 1.43756 3.52191 0
M  V30 4497 H 421.253 1.68005 4.69655 0
M  V30 4498 H 420.407 -0.239368 6.06228 0
M  V30 4499 H 419.146 -0.576401 4.84282 0
M  V30 4500 H 418.151 1.69571 5.22997 0
M  V30 4501 H 419.376 2.02332 6.48258 0
M  V30 4502 H 417.322 -0.219486 6.55633 0
M  V30 4503 H 417.239 1.26065 7.45415 0
M  V30 4504 H 418.507 0.121095 7.79406 0
M  V30 4505 N 422.737 -1.36956 0.779787 0
M  V30 4506 C 423.647 -2.33965 0.172491 0
M  V30 4507 C 424.663 -1.60574 -0.670222 0
M  V30 4508 O 425.839 -1.92617 -0.588263 0
M  V30 4509 C 422.904 -3.39761 -0.690173 0
M  V30 4510 C 421.965 -4.28964 0.169924 0
M  V30 4511 C 421.198 -5.29707 -0.651662 0
M  V30 4512 O 421.421 -5.38238 -1.88827 0
M  V30 4513 O 420.355 -6.01873 -0.0566264 0
M  V30 4514 H 424.181 -2.87647 0.974321 0
M  V30 4515 H 421.766 -1.39258 0.541078 0
M  V30 4516 H 423.648 -4.04471 -1.1824 0
M  V30 4517 H 422.323 -2.88394 -1.47006 0
M  V30 4518 H 421.23 -3.67326 0.708696 0
M  V30 4519 H 422.563 -4.83656 0.913085 0
M  V30 4520 N 424.215 -0.530993 -1.48385 0
M  V30 4521 C 425.445 -0.00133928 -2.066 0
M  V30 4522 C 425.853 1.28599 -1.38777 0
M  V30 4523 O 425.196 1.77599 -0.469495 0
M  V30 4524 C 425.258 0.292137 -3.58311 0
M  V30 4525 C 424.922 -0.901864 -4.48013 0
M  V30 4526 C 425.919 -1.80053 -4.87726 0
M  V30 4527 C 423.604 -1.10915 -4.89901 0
M  V30 4528 C 425.598 -2.89038 -5.68098 0
M  V30 4529 C 423.285 -2.20213 -5.70043 0
M  V30 4530 C 424.283 -3.09107 -6.0905 0
M  V30 4531 O 423.971 -4.16514 -6.87583 0
M  V30 4532 H 423.703 -0.0308475 -0.675296 0
M  V30 4533 H 426.257 -0.736335 -1.91748 0
M  V30 4534 H 424.487 1.08112 -3.7128 0
M  V30 4535 H 426.176 0.763994 -3.98645 0
M  V30 4536 H 426.942 -1.65234 -4.55986 0
M  V30 4537 H 422.821 -0.426498 -4.59023 0
M  V30 4538 H 426.365 -3.58451 -5.98464 0
M  V30 4539 H 422.262 -2.35016 -6.01197 0
M  V30 4540 H 423.03 -4.14237 -7.05939 0
M  V30 4541 N 425.693 1.55336 -0.266172 0
M  V30 4542 C 426.625 2.19544 0.658247 0
M  V30 4543 C 427.638 1.17746 1.12427 0
M  V30 4544 O 428.827 1.44517 1.04772 0
M  V30 4545 C 425.927 2.80032 1.9088 0
M  V30 4546 C 425.1 4.07436 1.59106 0
M  V30 4547 C 424.159 4.52056 2.69317 0
M  V30 4548 O 423.185 5.18023 2.35883 0
M  V30 4549 N 424.387 4.21448 3.99201 0
M  V30 4550 H 427.152 2.99503 0.108754 0
M  V30 4551 H 424.713 1.61667 -0.0869059 0
M  V30 4552 H 426.705 3.06831 2.63888 0
M  V30 4553 H 425.275 2.04119 2.36758 0
M  V30 4554 H 424.495 3.88021 0.695243 0
M  V30 4555 H 425.783 4.90462 1.35367 0
M  V30 4556 H 425.181 3.68528 4.29189 0
M  V30 4557 H 423.738 4.53039 4.68614 0
M  V30 4558 N 427.171 -0.0066808 1.57599 0
M  V30 4559 C 428.42 -0.692078 1.89455 0
M  V30 4560 C 428.733 -1.75306 0.867586 0
M  V30 4561 O 429.939 -2.49262 1.07614 0
M  V30 4562 C 428.395 -1.2821 3.36289 0
M  V30 4563 C 428.003 -0.256291 4.47266 0
M  V30 4564 C 429.747 -1.94608 3.77264 0
M  V30 4565 C 427.654 -0.855927 5.85173 0
M  V30 4566 H 426.584 -0.262252 0.706923 0
M  V30 4567 H 429.235 0.052769 1.83424 0
M  V30 4568 H 427.617 -2.0774 3.37135 0
M  V30 4569 H 428.791 0.513923 4.57925 0
M  V30 4570 H 427.106 0.306862 4.15268 0
M  V30 4571 H 429.703 -2.40364 4.77629 0
M  V30 4572 H 430.046 -2.77382 3.10427 0
M  V30 4573 H 430.579 -1.21822 3.78688 0
M  V30 4574 H 427.318 -0.0671161 6.55466 0
M  V30 4575 H 426.838 -1.59546 5.78191 0
M  V30 4576 H 428.517 -1.35658 6.32618 0
M  V30 4577 N 428.649 -1.55105 -0.279332 0
M  V30 4578 C 429.579 -1.90557 -1.34945 0
M  V30 4579 C 430.56 -0.766738 -1.51839 0
M  V30 4580 O 431.745 -1.02434 -1.64988 0
M  V30 4581 C 428.875 -2.17193 -2.71006 0
M  V30 4582 C 427.829 -3.33021 -2.68851 0
M  V30 4583 C 427.155 -3.45123 -4.08405 0
M  V30 4584 C 428.455 -4.69578 -2.28678 0
M  V30 4585 H 430.149 -2.80188 -1.05522 0
M  V30 4586 H 427.695 -1.34811 -0.506173 0
M  V30 4587 H 429.648 -2.40581 -3.45975 0
M  V30 4588 H 428.372 -1.24355 -3.01999 0
M  V30 4589 H 427.031 -3.0959 -1.9634 0
M  V30 4590 H 426.679 -2.49762 -4.3661 0
M  V30 4591 H 426.379 -4.22995 -4.07859 0
M  V30 4592 H 427.903 -3.70796 -4.85121 0
M  V30 4593 H 429.317 -4.92553 -2.93368 0
M  V30 4594 H 427.714 -5.5032 -2.39306 0
M  V30 4595 H 428.784 -4.68828 -1.23807 0
M  V30 4596 N 430.127 0.543554 -1.4793 0
M  V30 4597 C 431.074 1.64942 -1.6144 0
M  V30 4598 C 432.044 1.59692 -0.456903 0
M  V30 4599 O 433.229 1.78321 -0.678688 0
M  V30 4600 C 430.369 3.03238 -1.64744 0
M  V30 4601 C 429.482 3.18823 -2.91506 0
M  V30 4602 C 428.617 4.47599 -2.86057 0
M  V30 4603 C 427.656 4.56664 -4.07584 0
M  V30 4604 N 426.793 5.76811 -4.00292 0
M  V30 4605 H 431.633 1.52733 -2.55884 0
M  V30 4606 H 429.17 0.7438 -1.2691 0
M  V30 4607 H 431.128 3.83339 -1.64641 0
M  V30 4608 H 429.758 3.1425 -0.738017 0
M  V30 4609 H 428.81 2.32064 -3.01414 0
M  V30 4610 H 430.122 3.21384 -3.81463 0
M  V30 4611 H 429.276 5.35975 -2.84281 0
M  V30 4612 H 428.015 4.47538 -1.93807 0
M  V30 4613 H 427.02 3.66697 -4.09651 0
M  V30 4614 H 428.245 4.58474 -5.00978 0
M  V30 4615 H 426.191 5.77673 -3.10853 0
M  V30 4616 H 426.108 5.80808 -4.8394 0
M  V30 4617 H 427.376 6.67512 -4.02553 0
M  V30 4618 N 431.605 1.3629 0.791371 0
M  V30 4619 C 432.854 1.29742 1.54434 0
M  V30 4620 C 433.167 -0.121729 1.95221 0
M  V30 4621 O 434.373 -0.309579 2.69729 0
M  V30 4622 C 432.829 2.27623 2.78776 0
M  V30 4623 C 432.437 3.74963 2.45166 0
M  V30 4624 C 434.181 2.30047 3.56761 0
M  V30 4625 C 432.088 4.64626 3.65891 0
M  V30 4626 H 431.018 0.482113 0.579727 0
M  V30 4627 H 433.669 1.61642 0.868565 0
M  V30 4628 H 432.051 1.88714 3.48142 0
M  V30 4629 H 433.225 4.22596 1.83709 0
M  V30 4630 H 431.54 3.75295 1.80396 0
M  V30 4631 H 434.137 2.94247 4.46456 0
M  V30 4632 H 434.48 1.30846 3.95203 0
M  V30 4633 H 435.013 2.67563 2.94372 0
M  V30 4634 H 431.752 5.64883 3.32547 0
M  V30 4635 H 431.272 4.2171 4.26521 0
M  V30 4636 H 432.951 4.80801 4.32943 0
M  V30 4637 N 433.083 -1.0153 1.20538 0
M  V30 4638 C 434.329 -1.75408 1.01783 0
M  V30 4639 C 434.662 -1.88943 -0.448814 0
M  V30 4640 O 433.937 -1.4162 -1.33319 0
M  V30 4641 C 434.22 -3.17255 1.70356 0
M  V30 4642 C 434.073 -3.11508 3.24473 0
M  V30 4643 C 435.392 -4.15955 1.43769 0
M  V30 4644 H 432.511 -0.636713 0.371167 0
M  V30 4645 H 435.153 -1.18436 1.4857 0
M  V30 4646 H 433.303 -3.65898 1.30578 0
M  V30 4647 H 434.975 -2.70658 3.73553 0
M  V30 4648 H 433.218 -2.4887 3.55311 0
M  V30 4649 H 433.889 -4.11784 3.67611 0
M  V30 4650 H 436.365 -3.75973 1.7828 0
M  V30 4651 H 435.241 -5.13368 1.94279 0
M  V30 4652 H 435.502 -4.40586 0.365564 0
M  V30 4653 N 434.561 -1.01147 -1.20859 0
M  V30 4654 C 435.471 -0.58686 -2.27141 0
M  V30 4655 C 436.487 0.373198 -1.69951 0
M  V30 4656 O 437.663 0.235423 -2.00019 0
M  V30 4657 C 434.728 0.0733602 -3.46622 0
M  V30 4658 C 433.789 -0.931995 -4.19061 0
M  V30 4659 C 433.022 -0.303186 -5.32838 0
M  V30 4660 O 433.245 0.898395 -5.63281 0
M  V30 4661 O 432.179 -1.01735 -5.9324 0
M  V30 4662 H 436.005 -1.47155 -2.65667 0
M  V30 4663 H 433.59 -0.780689 -1.2738 0
M  V30 4664 H 435.472 0.442333 -4.19072 0
M  V30 4665 H 434.147 0.932329 -3.09983 0
M  V30 4666 H 433.054 -1.35224 -3.48805 0
M  V30 4667 H 434.387 -1.76076 -4.59628 0
M  V30 4668 N 436.039 1.36541 -0.78704 0
M  V30 4669 C 436.949 2.3387 -0.184896 0
M  V30 4670 C 437.965 1.60927 0.661697 0
M  V30 4671 O 439.141 1.92927 0.57804 0
M  V30 4672 C 436.206 3.40122 0.672145 0
M  V30 4673 C 435.267 4.28867 -0.19267 0
M  V30 4674 C 434.5 5.30045 0.623561 0
M  V30 4675 O 434.723 5.39232 1.8597 0
M  V30 4676 O 433.657 6.01895 0.0247068 0
M  V30 4677 H 437.483 2.87126 -0.989562 0
M  V30 4678 H 435.068 1.38969 -0.548455 0
M  V30 4679 H 436.95 4.05093 1.16094 0
M  V30 4680 H 435.625 2.89169 1.45474 0
M  V30 4681 H 434.532 3.66945 -0.728166 0
M  V30 4682 H 435.865 4.83165 -0.938722 0
M  V30 4683 N 437.518 0.538854 1.48102 0
M  V30 4684 C 438.428 -0.222648 2.33541 0
M  V30 4685 C 439.444 -0.930225 1.47047 0
M  V30 4686 O 440.62 -0.903211 1.80011 0
M  V30 4687 C 437.685 -1.25064 3.23357 0
M  V30 4688 C 436.746 -0.552469 4.2573 0
M  V30 4689 C 435.979 -1.53149 5.11254 0
M  V30 4690 O 436.202 -2.76487 4.9891 0
M  V30 4691 O 435.136 -1.06602 5.92385 0
M  V30 4692 H 438.962 0.477707 2.99919 0
M  V30 4693 H 436.547 0.299669 1.46364 0
M  V30 4694 H 438.429 -1.8445 3.78888 0
M  V30 4695 H 437.104 -1.93325 2.59629 0
M  V30 4696 H 436.011 0.082114 3.7401 0
M  V30 4697 H 437.344 0.0883526 4.92121 0
M  V30 4698 N 438.996 -1.55193 0.274407 0
M  V30 4699 C 439.959 -2.212 -0.600279 0
M  V30 4700 C 440.959 -1.18963 -1.08187 0
M  V30 4701 O 442.149 -1.43873 -0.982158 0
M  V30 4702 C 439.281 -2.87739 -1.82809 0
M  V30 4703 H 440.474 -2.9989 -0.0239682 0
M  V30 4704 H 438.027 -1.5628 0.0250192 0
M  V30 4705 H 438.762 -2.13058 -2.44493 0
M  V30 4706 H 438.547 -3.62658 -1.49069 0
M  V30 4707 H 440.037 -3.38171 -2.45011 0
M  V30 4708 N 440.474 -0.00167713 -1.576 0
M  V30 4709 C 441.722 0.681471 -1.90264 0
M  V30 4710 C 442.043 1.7422 -0.875924 0
M  V30 4711 O 441.313 1.95709 0.0864412 0
M  V30 4712 H 439.893 0.254696 -0.702239 0
M  V30 4713 H 442.555 -0.0429996 -1.94853 0
M  V30 4714 H 441.651 1.15166 -2.90075 0
M  V30 4715 N 441.952 1.55251 0.271103 0
M  V30 4716 C 442.899 1.88261 1.33516 0
M  V30 4717 C 443.869 0.734296 1.48988 0
M  V30 4718 O 445.054 0.985741 1.63364 0
M  V30 4719 C 442.194 2.16168 2.69008 0
M  V30 4720 C 441.307 3.43678 2.61743 0
M  V30 4721 C 440.442 3.61276 3.89427 0
M  V30 4722 C 439.481 4.82472 3.7668 0
M  V30 4723 N 438.618 4.96717 4.96202 0
M  V30 4724 H 443.458 2.79015 1.04665 0
M  V30 4725 H 440.995 1.38137 0.505618 0
M  V30 4726 H 442.953 2.30349 3.47844 0
M  V30 4727 H 441.583 1.28646 2.96057 0
M  V30 4728 H 440.635 3.37959 1.74607 0
M  V30 4729 H 441.947 4.3265 2.48224 0
M  V30 4730 H 441.101 3.75284 4.76704 0
M  V30 4731 H 439.84 2.70492 4.05814 0
M  V30 4732 H 438.845 4.68465 2.87786 0
M  V30 4733 H 440.07 5.74692 3.61809 0
M  V30 4734 H 438.016 4.08865 5.12997 0
M  V30 4735 H 437.933 5.79738 4.85222 0
M  V30 4736 H 439.201 5.15113 5.85046 0
M  V30 4737 N 443.43 -0.535701 1.48216 0
M  V30 4738 C 444.676 -1.29375 1.56173 0
M  V30 4739 C 445.009 -1.92804 0.232429 0
M  V30 4740 O 444.284 -1.78992 -0.761048 0
M  V30 4741 C 444.567 -2.38747 2.69577 0
M  V30 4742 C 444.42 -1.80046 4.12193 0
M  V30 4743 C 445.739 -3.40551 2.78771 0
M  V30 4744 H 442.858 -0.469027 0.568491 0
M  V30 4745 H 445.5 -0.597358 1.80365 0
M  V30 4746 H 443.65 -2.98147 2.4908 0
M  V30 4747 H 445.322 -1.24742 4.44114 0
M  V30 4748 H 443.565 -1.10609 4.19462 0
M  V30 4749 H 444.236 -2.59212 4.87353 0
M  V30 4750 H 446.712 -2.91099 2.97322 0
M  V30 4751 H 445.588 -4.1448 3.59857 0
M  V30 4752 H 445.849 -4.00746 1.86696 0
M  V30 4753 N 444.908 -1.36708 -0.784132 0
M  V30 4754 C 445.838 -1.34153 -1.91116 0
M  V30 4755 C 446.819 -0.212121 -1.68772 0
M  V30 4756 O 448.004 -0.410581 -1.8981 0
M  V30 4757 C 445.134 -1.13535 -3.28218 0
M  V30 4758 C 444.088 -2.23356 -3.65097 0
M  V30 4759 C 443.414 -1.87875 -5.00607 0
M  V30 4760 C 444.714 -3.65473 -3.73131 0
M  V30 4761 H 446.408 -2.28459 -1.93512 0
M  V30 4762 H 443.954 -1.09973 -0.929618 0
M  V30 4763 H 445.907 -1.10381 -4.06687 0
M  V30 4764 H 444.631 -0.156804 -3.26223 0
M  V30 4765 H 443.29 -2.25645 -2.88929 0
M  V30 4766 H 442.938 -0.885814 -4.95139 0
M  V30 4767 H 442.638 -2.61406 -5.26252 0
M  V30 4768 H 444.162 -1.86286 -5.81489 0
M  V30 4769 H 445.576 -3.65382 -4.41779 0
M  V30 4770 H 443.973 -4.37953 -4.10265 0
M  V30 4771 H 445.043 -3.99995 -2.74102 0
M  V30 4772 N 446.386 1.0089 -1.21074 0
M  V30 4773 C 447.334 2.11707 -0.963476 0
M  V30 4774 C 448.328 1.69172 0.0879032 0
M  V30 4775 O 449.534 1.79889 -0.0631415 0
M  V30 4776 H 445.909 0.692026 -0.294287 0
M  V30 4777 H 447.88 2.29743 -1.90422 0
M  V30 4778 C 446.629 3.43473 -0.540509 0
M  V30 4779 H 445.952 3.76634 -1.34114 0
M  V30 4780 H 447.392 4.22044 -0.406777 0
M  V30 4781 C 445.851 3.2849 0.748079 0
M  V30 4782 O 446.381 3.58883 1.8046 0
M  V30 4783 N 444.587 2.81715 0.713081 0
M  V30 4784 H 444.134 2.5718 -0.146973 0
M  V30 4785 H 444.092 2.72071 1.57558 0
M  V30 4786 N 447.864 1.01787 1.20321 0
M  V30 4787 C 449.275 0.739307 1.71438 0
M  V30 4788 C 449.626 -0.742041 1.81627 0
M  V30 4789 O 448.751 -1.57903 1.47971 0
M  V30 4790 C 449.346 1.33538 3.11373 0
M  V30 4791 C 447.905 1.10566 3.59795 0
M  V30 4792 C 447.052 1.44028 2.36962 0
M  V30 4793 H 450.003 1.18718 1.05317 0
M  V30 4794 H 450.024 0.726611 3.73498 0
M  V30 4795 H 449.536 2.41352 3.03926 0
M  V30 4796 H 447.637 0.0452405 3.72573 0
M  V30 4797 H 447.75 1.78661 4.44542 0
M  V30 4798 H 446.114 0.85933 2.39766 0
M  V30 4799 H 446.897 2.52901 2.32155 0
M  V30 4800 N 449.342 -1.36122 0.79427 0
M  V30 4801 C 450.758 -1.5232 0.476525 0
M  V30 4802 C 450.958 -1.74685 -1.00436 0
M  V30 4803 O 450.014 -1.78115 -1.78973 0
M  V30 4804 C 451.327 -2.70607 1.31119 0
M  V30 4805 C 452.875 -2.8448 1.30537 0
M  V30 4806 C 453.35 -4.05778 2.12387 0
M  V30 4807 N 454.841 -4.12933 2.09859 0
M  V30 4808 C 455.576 -5.05876 2.69957 0
M  V30 4809 N 455.072 -6.04232 3.38934 0
M  V30 4810 N 456.865 -4.98528 2.59665 0
M  V30 4811 H 449.016 -1.1986 1.75349 0
M  V30 4812 H 451.279 -0.585418 0.745647 0
M  V30 4813 H 450.985 -2.60619 2.36158 0
M  V30 4814 H 450.859 -3.64888 0.955843 0
M  V30 4815 H 453.246 -2.93927 0.262876 0
M  V30 4816 H 453.327 -1.91093 1.70051 0
M  V30 4817 H 452.971 -3.97092 3.1667 0
M  V30 4818 H 452.901 -4.98323 1.70242 0
M  V30 4819 H 455.392 -3.42515 1.59662 0
M  V30 4820 H 455.705 -6.71724 3.82109 0
M  V30 4821 H 454.05 -6.04443 3.43036 0
M  V30 4822 H 457.241 -4.20641 2.05375 0
M  V30 4823 H 457.414 -5.70773 3.06793 0
M  V30 4824 N 450.82 -0.546701 -1.47814 0
M  V30 4825 C 452.068 -0.0187037 -2.02091 0
M  V30 4826 C 452.389 1.33168 -1.42447 0
M  V30 4827 O 451.659 1.86619 -0.595839 0
M  V30 4828 H 450.239 -0.00392531 -0.74699 0
M  V30 4829 H 452.901 -0.714327 -1.81338 0
M  V30 4830 H 451.997 0.0772219 -3.12004 0
M  V30 4831 N 452.299 1.55045 -0.282633 0
M  V30 4832 C 453.548 1.98938 0.332667 0
M  V30 4833 C 453.861 1.17455 1.56409 0
M  V30 4834 O 455.067 1.51527 2.25282 0
M  V30 4835 C 453.523 3.54105 0.643226 0
M  V30 4836 C 453.131 4.44374 -0.568814 0
M  V30 4837 C 454.875 4.06569 1.22074 0
M  V30 4838 C 452.782 5.90943 -0.232426 0
M  V30 4839 H 451.712 0.743043 0.128075 0
M  V30 4840 H 454.363 1.79341 -0.388464 0
M  V30 4841 H 452.745 3.69532 1.42346 0
M  V30 4842 H 453.919 4.40718 -1.34551 0
M  V30 4843 H 452.234 4.02585 -1.06369 0
M  V30 4844 H 454.831 5.13626 1.48635 0
M  V30 4845 H 455.174 3.56057 2.15707 0
M  V30 4846 H 455.707 3.94612 0.502621 0
M  V30 4847 H 452.446 6.45567 -1.13683 0
M  V30 4848 H 451.966 5.9765 0.507357 0
M  V30 4849 H 453.645 6.4677 0.172657 0
M  V30 4850 N 453.777 0.010035 1.57597 0
M  V30 4851 C 455.007 -0.682422 1.95004 0
M  V30 4852 C 455.415 -1.67278 0.884014 0
M  V30 4853 O 454.758 -1.83129 -0.144672 0
M  V30 4854 C 454.82 -1.46141 3.28456 0
M  V30 4855 C 454.484 -0.631523 4.52615 0
M  V30 4856 C 455.481 0.0850905 5.1983 0
M  V30 4857 C 453.166 -0.574539 4.99003 0
M  V30 4858 C 455.16 0.847566 6.3174 0
M  V30 4859 C 452.847 0.191655 6.10799 0
M  V30 4860 C 453.845 0.901432 6.77025 0
M  V30 4861 O 453.533 1.65511 7.86677 0
M  V30 4862 H 453.265 -0.194361 0.647456 0
M  V30 4863 H 455.819 0.060312 2.05311 0
M  V30 4864 H 454.049 -2.24885 3.14585 0
M  V30 4865 H 455.738 -2.04016 3.50902 0
M  V30 4866 H 456.504 0.0502812 4.84974 0
M  V30 4867 H 452.383 -1.11654 4.47274 0
M  V30 4868 H 455.927 1.4021 6.83364 0
M  V30 4869 H 451.824 0.228249 6.45096 0
M  V30 4870 H 452.592 1.57287 8.03245 0
M  V30 4871 N 455.255 -1.55392 -0.262866 0
M  V30 4872 C 456.666 -1.67079 -0.833158 0
M  V30 4873 C 457.017 -0.604539 -1.86654 0
M  V30 4874 O 456.142 0.252138 -2.14926 0
M  V30 4875 C 456.737 -3.02891 -1.51797 0
M  V30 4876 C 455.296 -3.16571 -2.03617 0
M  V30 4877 C 454.443 -2.62909 -0.881701 0
M  V30 4878 H 457.394 -1.58652 -0.0389986 0
M  V30 4879 H 457.415 -2.96445 -2.38538 0
M  V30 4880 H 456.927 -3.80473 -0.765619 0
M  V30 4881 H 455.028 -2.43782 -2.81782 0
M  V30 4882 H 455.141 -4.23271 -2.24452 0
M  V30 4883 H 453.505 -2.20324 -1.27786 0
M  V30 4884 H 454.288 -3.43003 -0.14269 0
M  V30 4885 N 456.733 0.527833 -1.48498 0
M  V30 4886 C 457.681 1.65313 -1.63628 0
M  V30 4887 C 458.675 1.6177 -0.502676 0
M  V30 4888 O 459.881 1.66601 -0.681469 0
M  V30 4889 H 456.256 0.547518 -0.515488 0
M  V30 4890 H 458.227 1.49696 -2.58135 0
M  V30 4891 C 456.976 3.03576 -1.6952 0
M  V30 4892 H 456.299 3.06997 -2.56111 0
M  V30 4893 H 457.739 3.81923 -1.84149 0
M  V30 4894 C 456.198 3.34089 -0.43432 0
M  V30 4895 O 456.728 3.99151 0.451852 0
M  V30 4896 N 454.934 2.88991 -0.305368 0
M  V30 4897 H 454.481 2.36222 -1.02747 0
M  V30 4898 H 454.439 3.09776 0.537249 0
M  V30 4899 N 458.211 1.37122 0.776871 0
M  V30 4900 C 459.457 1.32243 1.53752 0
M  V30 4901 C 459.79 -0.0944745 1.9397 0
M  V30 4902 O 459.065 -1.05068 1.6368 0
M  V30 4903 C 459.348 2.25681 2.80607 0
M  V30 4904 C 459.201 3.76127 2.46676 0
M  V30 4905 C 460.52 2.17657 3.82509 0
M  V30 4906 H 457.639 0.481704 0.557791 0
M  V30 4907 H 460.281 1.6778 0.891612 0
M  V30 4908 H 458.431 1.95505 3.35723 0
M  V30 4909 H 460.103 4.16877 1.97513 0
M  V30 4910 H 458.346 3.94946 1.79443 0
M  V30 4911 H 459.017 4.36933 3.37333 0
M  V30 4912 H 461.493 2.44245 3.36873 0
M  V30 4913 H 460.369 2.85185 4.69 0
M  V30 4914 H 460.63 1.16785 4.26396 0
M  V30 4915 N 459.689 -1.00246 1.21608 0
M  V30 4916 C 460.966 -1.71336 0.943568 0
M  V30 4917 C 461.346 -2.03972 -0.543943 0
M  V30 4918 O 460.694 -1.71545 -1.50946 0
M  V30 4919 C 460.904 -2.97094 1.83128 0
M  V30 4920 C 462.252 -3.70071 2.08165 0
M  V30 4921 O 463.276 -3.07081 1.80498 0
M  V30 4922 O 462.135 -4.83376 2.54971 0
M  V30 4923 H 459.229 -0.747386 0.354039 0
M  V30 4924 H 461.775 -1.05967 1.32549 0
M  V30 4925 H 460.547 -2.69407 2.83788 0
M  V30 4926 H 460.17 -3.70204 1.45034 0
M  V30 4927 N 461.167 -1.02423 -1.1978 0
M  V30 4928 C 462.414 -0.717988 -1.89344 0
M  V30 4929 C 462.742 0.753036 -1.79331 0
M  V30 4930 O 461.997 1.56355 -1.17692 0
M  V30 4931 C 462.296 -1.1088 -3.39765 0
M  V30 4932 C 461.962 -2.57731 -3.6998 0
M  V30 4933 C 460.624 -2.97854 -3.77937 0
M  V30 4934 C 462.976 -3.52763 -3.83677 0
M  V30 4935 C 460.304 -4.31931 -3.97054 0
M  V30 4936 C 462.656 -4.86538 -4.04306 0
M  V30 4937 C 461.32 -5.26356 -4.10494 0
M  V30 4938 H 460.59 -0.26273 -0.692859 0
M  V30 4939 H 463.237 -1.28623 -1.41875 0
M  V30 4940 H 461.542 -0.459094 -3.89101 0
M  V30 4941 H 463.239 -0.849432 -3.919 0
M  V30 4942 H 459.829 -2.25646 -3.64393 0
M  V30 4943 H 464.013 -3.2292 -3.76877 0
M  V30 4944 H 459.269 -4.62324 -4.00083 0
M  V30 4945 H 463.443 -5.60093 -4.13846 0
M  V30 4946 H 461.07 -6.3026 -4.2506 0
M  V30 4947 N 462.645 1.35699 -0.801477 0
M  V30 4948 C 463.875 2.02862 -0.3912 0
M  V30 4949 C 464.283 1.60552 1.00099 0
M  V30 4950 O 463.626 0.796215 1.65548 0
M  V30 4951 C 463.688 3.57386 -0.389299 0
M  V30 4952 C 463.352 4.22943 -1.73113 0
M  V30 4953 C 464.349 4.44984 -2.68859 0
M  V30 4954 C 462.034 4.60167 -2.01373 0
M  V30 4955 C 464.028 5.03345 -3.91053 0
M  V30 4956 C 461.715 5.18243 -3.23832 0
M  V30 4957 C 462.713 5.39773 -4.1849 0
M  V30 4958 O 462.401 5.96626 -5.38788 0
M  V30 4959 H 462.133 0.657341 -0.157732 0
M  V30 4960 H 464.687 1.74407 -1.08496 0
M  V30 4961 H 462.917 3.85011 0.361031 0
M  V30 4962 H 464.606 4.059 -0.0020365 0
M  V30 4963 H 465.372 4.1661 -2.48316 0
M  V30 4964 H 461.251 4.42726 -1.28508 0
M  V30 4965 H 464.795 5.20065 -4.64949 0
M  V30 4966 H 460.692 5.46044 -3.44248 0
M  V30 4967 H 461.46 6.15082 -5.40015 0
M  V30 4968 N 464.123 0.554532 1.47522 0
M  V30 4969 C 465.348 0.0322661 2.07375 0
M  V30 4970 C 465.773 -1.25079 1.40488 0
M  V30 4971 O 465.131 -1.74859 0.47896 0
M  V30 4972 C 465.179 -0.149397 3.6029 0
M  V30 4973 O 464.283 -1.21259 3.9417 0
M  V30 4974 H 463.624 0.0501228 0.662106 0
M  V30 4975 H 466.154 0.769452 1.8958 0
M  V30 4976 H 466.164 -0.364437 4.06369 0
M  V30 4977 H 464.839 0.787743 4.08372 0
M  V30 4978 H 463.416 -0.97825 3.5984 0
M  V30 4979 N 465.601 -1.54893 0.290851 0
M  V30 4980 C 466.849 -1.99538 -0.320756 0
M  V30 4981 C 467.17 -1.18075 -1.55188 0
M  V30 4982 O 466.44 -0.274162 -1.93972 0
M  V30 4983 H 465.02 -0.737052 -0.121507 0
M  V30 4984 H 467.682 -1.90755 0.399832 0
M  V30 4985 H 466.778 -3.06282 -0.599802 0
M  V30 4986 N 467.08 -0.0183926 -1.57589 0
M  V30 4987 C 468.326 0.663543 -1.91638 0
M  V30 4988 C 468.659 1.72392 -0.894134 0
M  V30 4989 O 467.934 1.94316 0.0846449 0
M  V30 4990 C 468.217 1.28984 -3.36207 0
M  V30 4991 C 468.07 0.239761 -4.49161 0
M  V30 4992 C 469.389 2.2109 -3.80536 0
M  V30 4993 H 466.508 0.239746 -0.696915 0
M  V30 4994 H 469.15 -0.073456 -1.89858 0
M  V30 4995 H 467.3 1.91799 -3.37854 0
M  V30 4996 H 468.972 -0.390119 -4.59647 0
M  V30 4997 H 467.215 -0.435972 -4.31604 0
M  V30 4998 H 467.886 0.717383 -5.47319 0
M  V30 4999 H 470.362 1.68273 -3.80557 0
M  V30 5000 H 469.238 2.61869 -4.82406 0
M  V30 5001 H 469.499 3.09764 -3.15434 0
M  V30 5002 N 468.558 1.5553 0.254621 0
M  V30 5003 C 469.804 1.77262 0.985193 0
M  V30 5004 C 470.137 0.582286 1.85265 0
M  V30 5005 O 469.412 -0.419666 1.89919 0
M  V30 5006 C 469.695 3.0881 1.85225 0
M  V30 5007 C 469.548 4.38233 1.0135 0
M  V30 5008 C 470.867 3.3653 2.83612 0
M  V30 5009 H 467.986 0.644906 0.356742 0
M  V30 5010 H 470.628 1.88264 0.256236 0
M  V30 5011 H 468.778 2.99562 2.47376 0
M  V30 5012 H 470.45 4.59463 0.411269 0
M  V30 5013 H 468.693 4.32636 0.317574 0
M  V30 5014 H 469.364 5.26644 1.65379 0
M  V30 5015 H 471.84 3.45691 2.31596 0
M  V30 5016 H 470.716 4.29805 3.41407 0
M  V30 5017 H 470.977 2.57064 3.59681 0
M  V30 5018 N 470.036 -0.519951 1.48776 0
M  V30 5019 C 471.266 -1.29783 1.60748 0
M  V30 5020 C 471.674 -1.87253 0.27072 0
M  V30 5021 O 471.017 -1.67628 -0.751438 0
M  V30 5022 C 471.079 -2.47984 2.60277 0
M  V30 5023 C 470.743 -2.11526 4.051 0
M  V30 5024 C 471.74 -1.66608 4.92481 0
M  V30 5025 C 469.425 -2.21742 4.50706 0
M  V30 5026 C 471.419 -1.32384 6.23501 0
M  V30 5027 C 469.106 -1.87129 5.81744 0
M  V30 5028 C 470.104 -1.42523 6.67964 0
M  V30 5029 O 469.792 -1.0837 7.96562 0
M  V30 5030 H 469.524 -0.400562 0.544542 0
M  V30 5031 H 472.078 -0.632879 1.95407 0
M  V30 5032 H 470.308 -3.17493 2.2076 0
M  V30 5033 H 471.997 -3.10036 2.61978 0
M  V30 5034 H 472.763 -1.58178 4.58481 0
M  V30 5035 H 468.642 -2.55415 3.83776 0
M  V30 5036 H 472.186 -0.974949 6.90754 0
M  V30 5037 H 468.083 -1.95204 6.15277 0
M  V30 5038 H 468.851 -1.21681 8.09405 0
M  V30 5039 N 471.514 -1.37532 -0.769588 0
M  V30 5040 C 472.739 -1.36231 -1.56384 0
M  V30 5041 C 473.164 0.0495849 -1.88035 0
M  V30 5042 O 472.522 1.02723 -1.49391 0
M  V30 5043 C 472.57 -2.20986 -2.84952 0
M  V30 5044 O 471.674 -1.61597 -3.79421 0
M  V30 5045 H 471.015 -0.465387 -0.473615 0
M  V30 5046 H 473.545 -1.81085 -0.952342 0
M  V30 5047 H 473.555 -2.34277 -3.34034 0
M  V30 5048 H 472.23 -3.23612 -2.61243 0
M  V30 5049 H 470.807 -1.57359 -3.38072 0
M  V30 5050 N 472.992 0.995999 -1.22138 0
M  V30 5051 C 474.269 1.70834 -0.952642 0
M  V30 5052 C 474.649 2.04257 0.533119 0
M  V30 5053 O 473.997 1.72343 1.50034 0
M  V30 5054 C 474.207 2.96119 -1.84701 0
M  V30 5055 C 475.555 3.68962 -2.10124 0
M  V30 5056 O 476.579 3.0612 -1.82124 0
M  V30 5057 O 475.438 4.82017 -2.57531 0
M  V30 5058 H 472.532 0.745498 -0.357997 0
M  V30 5059 H 475.078 1.05262 -1.33109 0
M  V30 5060 H 473.85 2.67898 -2.85213 0
M  V30 5061 H 473.473 3.6943 -1.46995 0
M  V30 5062 N 474.47 1.03057 1.19235 0
M  V30 5063 C 475.4 0.633497 2.24742 0
M  V30 5064 C 476.381 -0.358335 1.66283 0
M  V30 5065 O 477.566 -0.240676 1.92703 0
M  V30 5066 C 474.696 -0.0147648 3.47297 0
M  V30 5067 C 473.65 0.899527 4.18441 0
M  V30 5068 C 472.976 0.116281 5.34574 0
M  V30 5069 C 474.276 2.21404 4.73051 0
M  V30 5070 H 475.97 1.5155 2.58211 0
M  V30 5071 H 473.516 0.73014 1.24117 0
M  V30 5072 H 475.469 -0.304202 4.20301 0
M  V30 5073 H 474.193 -0.931577 3.13032 0
M  V30 5074 H 472.852 1.17319 3.47321 0
M  V30 5075 H 472.5 -0.802619 4.96555 0
M  V30 5076 H 472.2 0.725293 5.83107 0
M  V30 5077 H 473.724 -0.166376 6.10373 0
M  V30 5078 H 475.138 1.98601 5.37802 0
M  V30 5079 H 473.535 2.77512 5.32078 0
M  V30 5080 H 474.605 2.86752 3.91026 0
M  V30 5081 N 475.948 -1.35272 0.808662 0
M  V30 5082 C 477.196 -1.98316 0.389233 0
M  V30 5083 C 477.517 -1.64465 -1.04767 0
M  V30 5084 O 476.787 -0.928175 -1.72516 0
M  V30 5085 H 475.367 -0.733585 0.140935 0
M  V30 5086 H 478.029 -1.6515 1.03496 0
M  V30 5087 H 477.125 -3.08123 0.496631 0
M  V30 5088 N 477.426 -0.562348 -1.47226 0
M  V30 5089 C 478.673 -0.0402165 -2.0246 0
M  V30 5090 C 479.001 1.31169 -1.43614 0
M  V30 5091 O 478.256 1.86805 -0.5833 0
M  V30 5092 C 478.555 0.0969817 -3.57268 0
M  V30 5093 C 478.221 -1.1847 -4.35058 0
M  V30 5094 C 476.883 -1.53588 -4.56031 0
M  V30 5095 C 479.235 -2.03378 -4.79882 0
M  V30 5096 C 476.563 -2.73452 -5.19077 0
M  V30 5097 C 478.915 -3.2245 -5.44251 0
M  V30 5098 C 477.579 -3.57876 -5.63455 0
M  V30 5099 H 476.849 -0.0147163 -0.740854 0
M  V30 5100 H 479.496 -0.734895 -1.76838 0
M  V30 5101 H 477.801 0.87466 -3.81912 0
M  V30 5102 H 479.498 0.516408 -3.97661 0
M  V30 5103 H 476.088 -0.90126 -4.19017 0
M  V30 5104 H 480.272 -1.77553 -4.63453 0
M  V30 5105 H 475.528 -3.01062 -5.32139 0
M  V30 5106 H 479.702 -3.88526 -5.77945 0
M  V30 5107 H 477.329 -4.50849 -6.12078 0
M  V30 5108 N 478.904 1.54736 -0.299062 0
M  V30 5109 C 480.129 2.04975 0.316254 0
M  V30 5110 C 480.554 1.17501 1.46885 0
M  V30 5111 O 479.912 0.178678 1.80417 0
M  V30 5112 C 479.96 3.52672 0.751997 0
M  V30 5113 O 479.064 3.68226 1.85697 0
M  V30 5114 H 478.405 0.661126 0.0617175 0
M  V30 5115 H 480.935 1.99805 -0.440341 0
M  V30 5116 H 480.945 3.94488 1.04133 0
M  V30 5117 H 479.62 4.158 -0.0911482 0
M  V30 5118 H 478.197 3.38316 1.56834 0
M  V30 5119 N 480.382 0.0267497 1.57577 0
M  V30 5120 C 481.312 -0.954308 2.13108 0
M  V30 5121 C 482.293 -1.34088 1.04663 0
M  V30 5122 O 483.478 -1.41992 1.32484 0
M  V30 5123 C 480.608 -2.23744 2.65624 0
M  V30 5124 C 479.562 -1.99168 3.78835 0
M  V30 5125 C 478.888 -3.33726 4.17769 0
M  V30 5126 C 480.188 -1.33277 5.0501 0
M  V30 5127 H 481.882 -0.491848 2.95332 0
M  V30 5128 H 479.428 -0.23514 1.42067 0
M  V30 5129 H 481.381 -2.92754 3.03106 0
M  V30 5130 H 480.105 -2.72151 1.80558 0
M  V30 5131 H 478.764 -1.32577 3.41788 0
M  V30 5132 H 478.412 -3.79888 3.29688 0
M  V30 5133 H 478.112 -3.18089 4.94058 0
M  V30 5134 H 479.636 -4.04008 4.57832 0
M  V30 5135 H 481.05 -1.92283 5.40093 0
M  V30 5136 H 479.447 -1.28045 5.8628 0
M  V30 5137 H 480.517 -0.305411 4.83937 0
M  V30 5138 N 481.861 -1.55662 -0.24637 0
M  V30 5139 C 482.771 -1.93495 -1.32653 0
M  V30 5140 C 483.787 -0.835462 -1.5263 0
M  V30 5141 O 484.963 -1.1369 -1.66242 0
M  V30 5142 C 482.028 -2.22242 -2.66101 0
M  V30 5143 C 481.089 -3.45625 -2.54641 0
M  V30 5144 C 480.322 -3.72991 -3.81724 0
M  V30 5145 O 480.545 -3.02421 -4.8363 0
M  V30 5146 O 479.479 -4.66515 -3.80325 0
M  V30 5147 H 483.305 -2.85498 -1.03559 0
M  V30 5148 H 480.89 -1.42551 -0.44717 0
M  V30 5149 H 482.772 -2.42037 -3.44958 0
M  V30 5150 H 481.447 -1.33417 -2.94926 0
M  V30 5151 H 480.354 -3.31136 -1.74067 0
M  V30 5152 H 481.687 -4.34754 -2.3076 0
M  V30 5153 N 483.339 0.512053 -1.4905 0
M  V30 5154 C 484.586 1.26686 -1.57978 0
M  V30 5155 C 484.914 1.92733 -0.261553 0
M  V30 5156 O 484.169 1.80772 0.749667 0
M  V30 5157 C 484.468 2.36446 -2.68008 0
M  V30 5158 C 484.134 1.87932 -4.09869 0
M  V30 5159 C 482.796 1.74419 -4.48477 0
M  V30 5160 C 485.148 1.5149 -4.98698 0
M  V30 5161 C 482.476 1.22827 -5.73699 0
M  V30 5162 C 484.828 1.01355 -6.24428 0
M  V30 5163 C 483.492 0.864735 -6.61875 0
M  V30 5164 H 482.762 0.463577 -0.578081 0
M  V30 5165 H 485.409 0.569421 -1.82838 0
M  V30 5166 H 483.714 3.11933 -2.37076 0
M  V30 5167 H 485.411 2.9453 -2.72127 0
M  V30 5168 H 482.001 1.99405 -3.79389 0
M  V30 5169 H 486.185 1.60782 -4.69535 0
M  V30 5170 H 481.441 1.10008 -6.01422 0
M  V30 5171 H 485.615 0.722351 -6.92644 0
M  V30 5172 H 483.242 0.462777 -7.5879 0
M  V30 5173 N 484.817 1.37938 0.762283 0
M  V30 5174 C 486.064 1.33668 1.52115 0
M  V30 5175 C 486.392 -0.0759538 1.94352 0
M  V30 5176 O 485.647 -1.05121 1.6507 0
M  V30 5177 C 485.946 2.23042 2.79261 0
M  V30 5178 C 485.612 3.71159 2.56031 0
M  V30 5179 C 484.274 4.11523 2.49404 0
M  V30 5180 C 486.626 4.64955 2.35513 0
M  V30 5181 C 483.954 5.43784 2.20263 0
M  V30 5182 C 486.306 5.97464 2.07894 0
M  V30 5183 C 484.97 6.36922 1.99718 0
M  V30 5184 H 484.24 0.489127 0.556629 0
M  V30 5185 H 486.887 1.70224 0.877262 0
M  V30 5186 H 485.192 1.79512 3.48256 0
M  V30 5187 H 486.889 2.17047 3.37182 0
M  V30 5188 H 483.479 3.39153 2.62056 0
M  V30 5189 H 487.663 4.34623 2.39617 0
M  V30 5190 H 482.919 5.73307 2.12435 0
M  V30 5191 H 487.093 6.6969 1.91019 0
M  V30 5192 H 484.72 7.39331 1.76902 0
M  V30 5193 N 486.295 -0.989507 1.22664 0
M  V30 5194 C 487.523 -1.76496 1.07967 0
M  V30 5195 C 487.938 -1.85148 -0.369543 0
M  V30 5196 O 487.295 -1.32408 -1.25596 0
M  V30 5197 C 487.346 -3.19642 1.68853 0
M  V30 5198 O 487.067 -3.11453 3.08105 0
M  V30 5199 C 488.568 -4.13621 1.59475 0
M  V30 5200 H 485.788 -0.55418 0.378319 0
M  V30 5201 H 488.332 -1.24378 1.62328 0
M  V30 5202 H 486.487 -3.68816 1.18547 0
M  V30 5203 H 486.901 -4.01499 3.37489 0
M  V30 5204 H 488.375 -5.11801 2.06795 0
M  V30 5205 H 488.852 -4.35718 0.55191 0
M  V30 5206 H 489.458 -3.70346 2.09103 0
M  V30 5207 N 487.773 -1.03688 -1.18687 0
M  V30 5208 C 489.184 -0.766488 -1.70241 0
M  V30 5209 C 489.535 0.713052 -1.82784 0
M  V30 5210 O 488.66 1.55529 -1.50465 0
M  V30 5211 C 489.255 -1.38475 -3.09209 0
M  V30 5212 C 487.814 -1.16276 -3.5799 0
M  V30 5213 C 486.961 -1.4778 -2.34641 0
M  V30 5214 H 489.912 -1.20378 -1.03415 0
M  V30 5215 H 489.933 -0.785939 -3.72295 0
M  V30 5216 H 489.445 -2.46157 -3.00048 0
M  V30 5217 H 487.546 -0.104508 -3.72453 0
M  V30 5218 H 487.659 -1.8571 -4.41643 0
M  V30 5219 H 486.023 -0.897366 -2.38368 0
M  V30 5220 H 486.806 -2.56562 -2.28102 0
M  V30 5221 N 489.251 1.34841 -0.815825 0
M  V30 5222 C 490.5 1.97755 -0.396976 0
M  V30 5223 C 490.813 1.65422 1.04379 0
M  V30 5224 O 492.019 2.21771 1.5662 0
M  V30 5225 C 490.475 3.53818 -0.658869 0
M  V30 5226 C 490.083 3.95051 -2.11278 0
M  V30 5227 C 491.827 4.23397 -0.305834 0
M  V30 5228 C 489.734 5.43997 -2.31994 0
M  V30 5229 H 488.664 0.739985 -0.1447 0
M  V30 5230 H 491.315 1.53781 -1.00118 0
M  V30 5231 H 489.697 3.95997 0.0154112 0
M  V30 5232 H 490.871 3.63998 -2.82564 0
M  V30 5233 H 489.186 3.38388 -2.42657 0
M  V30 5234 H 491.783 5.32899 -0.43854 0
M  V30 5235 H 492.126 4.09508 0.748952 0
M  V30 5236 H 492.659 3.8667 -0.934403 0
M  V30 5237 H 489.398 5.62865 -3.35952 0
M  V30 5238 H 488.918 5.76589 -1.65244 0
M  V30 5239 H 490.597 6.10584 -2.14001 0
M  V30 5240 N 490.729 0.570148 1.46925 0
M  V30 5241 C 491.976 0.0509529 2.02436 0
M  V30 5242 C 492.304 -1.30405 1.44308 0
M  V30 5243 O 491.559 -1.86493 0.593198 0
M  V30 5244 C 491.858 -0.0780336 3.57315 0
M  V30 5245 C 491.524 1.20775 4.34424 0
M  V30 5246 C 490.186 1.56004 4.5521 0
M  V30 5247 C 492.538 2.0592 4.78797 0
M  V30 5248 C 489.866 2.76201 5.17619 0
M  V30 5249 C 492.218 3.25332 5.42533 0
M  V30 5250 C 490.882 3.60859 5.61549 0
M  V30 5251 H 490.152 0.018645 0.740765 0
M  V30 5252 H 492.799 0.744262 1.76445 0
M  V30 5253 H 491.104 -0.854394 3.82371 0
M  V30 5254 H 492.801 -0.495312 3.97929 0
M  V30 5255 H 489.391 0.923469 4.18533 0
M  V30 5256 H 493.575 1.80008 4.62505 0
M  V30 5257 H 488.831 3.0388 5.30535 0
M  V30 5258 H 493.005 3.91586 5.75876 0
M  V30 5259 H 490.632 4.54088 6.09678 0
M  V30 5260 N 492.207 -1.54576 0.307264 0
M  V30 5261 C 493.17 -2.22423 -0.553224 0
M  V30 5262 C 494.17 -1.21231 -1.05639 0
M  V30 5263 O 495.36 -1.45923 -0.951419 0
M  V30 5264 C 492.492 -2.91552 -1.76664 0
M  V30 5265 H 493.685 -2.99874 0.0396484 0
M  V30 5266 H 491.238 -1.56192 0.0581629 0
M  V30 5267 H 491.973 -2.18196 -2.39918 0
M  V30 5268 H 491.758 -3.65738 -1.41343 0
M  V30 5269 H 493.248 -3.43292 -2.37783 0
M  V30 5270 N 493.685 -0.035106 -1.57561 0
M  V30 5271 C 494.931 0.64318 -1.92331 0
M  V30 5272 C 495.264 1.71434 -0.912368 0
M  V30 5273 O 494.539 1.94395 0.0640303 0
M  V30 5274 C 494.822 1.25411 -3.37556 0
M  V30 5275 C 494.675 0.192109 -4.4939 0
M  V30 5276 C 495.994 2.17041 -3.82859 0
M  V30 5277 H 493.113 0.232341 -0.699419 0
M  V30 5278 H 495.755 -0.0935889 -1.89769 0
M  V30 5279 H 493.905 1.88205 -3.39869 0
M  V30 5280 H 495.577 -0.438849 -4.59208 0
M  V30 5281 H 493.82 -0.481725 -4.31117 0
M  V30 5282 H 494.491 0.659292 -5.48049 0
M  V30 5283 H 496.967 1.64228 -3.8232 0
M  V30 5284 H 495.843 2.56738 -4.85157 0
M  V30 5285 H 496.104 3.06401 -3.18702 0
M  V30 5286 N 495.163 1.55791 0.238111 0
M  V30 5287 C 496.126 1.90239 1.27835 0
M  V30 5288 C 497.126 0.779552 1.4064 0
M  V30 5289 O 498.316 1.04747 1.3919 0
M  V30 5290 C 495.448 2.13859 2.65475 0
M  V30 5291 H 496.641 2.83262 0.985034 0
M  V30 5292 H 494.194 1.48818 0.477799 0
M  V30 5293 H 494.929 1.23334 2.99932 0
M  V30 5294 H 494.714 2.95643 2.57561 0
M  V30 5295 H 496.204 2.41664 3.40571 0
M  V30 5296 N 496.642 -0.504142 1.49319 0
M  V30 5297 C 498.058 -0.835039 1.36012 0
M  V30 5298 C 498.258 -1.97674 0.390808 0
M  V30 5299 O 497.314 -2.51867 -0.178655 0
M  V30 5300 C 498.627 -1.17821 2.76656 0
M  V30 5301 C 500.175 -1.2866 2.85334 0
M  V30 5302 C 500.65 -1.66307 4.26739 0
M  V30 5303 N 502.141 -1.73362 4.29534 0
M  V30 5304 C 502.876 -2.0393 5.35911 0
M  V30 5305 N 502.372 -2.32744 6.52535 0
M  V30 5306 N 504.165 -2.05155 5.23324 0
M  V30 5307 H 496.316 0.248764 2.10938 0
M  V30 5308 H 498.579 0.0486962 0.946748 0
M  V30 5309 H 498.285 -0.412682 3.4927 0
M  V30 5310 H 498.159 -2.12239 3.11825 0
M  V30 5311 H 500.546 -2.04285 2.1296 0
M  V30 5312 H 500.627 -0.323004 2.53752 0
M  V30 5313 H 500.271 -0.91234 4.99639 0
M  V30 5314 H 500.201 -2.63761 4.55782 0
M  V30 5315 H 502.692 -1.53268 3.45424 0
M  V30 5316 H 503.005 -2.55248 7.2943 0
M  V30 5317 H 501.35 -2.30207 6.55767 0
M  V30 5318 H 504.541 -1.82119 4.3122 0
M  V30 5319 H 504.714 -2.28644 6.06322 0
M  V30 5320 N 498.12 -1.38341 -0.754957 0
M  V30 5321 C 499.369 -1.33791 -1.5094 0
M  V30 5322 C 499.682 0.0699267 -1.95475 0
M  V30 5323 O 500.888 0.237956 -2.70455 0
M  V30 5324 C 499.344 -2.34934 -2.72643 0
M  V30 5325 C 498.952 -3.81332 -2.35138 0
M  V30 5326 C 500.696 -2.39425 -3.50536 0
M  V30 5327 C 498.603 -4.74164 -3.53444 0
M  V30 5328 H 497.533 -0.497314 -0.566741 0
M  V30 5329 H 500.184 -1.63888 -0.825403 0
M  V30 5330 H 498.566 -1.97878 -3.43017 0
M  V30 5331 H 499.74 -4.27319 -1.7244 0
M  V30 5332 H 498.055 -3.79946 -1.70382 0
M  V30 5333 H 500.652 -3.0598 -4.38498 0
M  V30 5334 H 500.995 -1.41278 -3.91594 0
M  V30 5335 H 501.528 -2.75274 -2.87174 0
M  V30 5336 H 498.267 -5.73501 -3.17453 0
M  V30 5337 H 497.787 -4.3287 -4.15191 0
M  V30 5338 H 499.466 -4.92111 -4.20043 0
M  V30 5339 N 499.598 0.982988 -1.23187 0
M  V30 5340 C 500.823 1.76455 -1.08988 0
M  V30 5341 C 501.248 1.84726 0.354691 0
M  V30 5342 O 500.606 1.30699 1.25649 0
M  V30 5343 C 500.654 3.17094 -1.71708 0
M  V30 5344 O 499.758 4.00648 -0.977477 0
M  V30 5345 H 499.099 0.542988 -0.382177 0
M  V30 5346 H 501.629 1.23413 -1.63188 0
M  V30 5347 H 501.639 3.67684 -1.76841 0
M  V30 5348 H 500.314 3.10389 -2.76823 0
M  V30 5349 H 498.891 3.59161 -1.0029 0
M  V30 5350 N 501.076 1.04316 1.18135 0
M  V30 5351 C 502.324 0.746542 1.87806 0
M  V30 5352 C 502.645 -0.728082 1.80898 0
M  V30 5353 O 501.915 -1.52554 1.22899 0
M  V30 5354 H 500.495 0.273157 0.695265 0
M  V30 5355 H 503.157 1.32044 1.43354 0
M  V30 5356 H 502.253 1.05362 2.93778 0
M  V30 5357 N 502.554 -1.34406 0.822964 0
M  V30 5358 C 503.8 -1.98999 0.420847 0
M  V30 5359 C 504.155 -1.64067 -1.00498 0
M  V30 5360 O 503.448 -0.902071 -1.69036 0
M  V30 5361 C 503.642 -3.52981 0.560268 0
M  V30 5362 C 503.471 -4.02873 1.99809 0
M  V30 5363 C 502.241 -4.31463 2.62998 0
M  V30 5364 C 504.439 -4.20241 2.96483 0
M  V30 5365 N 502.421 -4.6739 3.9802 0
M  V30 5366 C 503.792 -4.59348 4.16413 0
M  V30 5367 C 505.847 -4.02489 2.93098 0
M  V30 5368 C 504.55 -4.82559 5.33413 0
M  V30 5369 C 506.576 -4.26866 4.09315 0
M  V30 5370 C 505.938 -4.6626 5.27997 0
M  V30 5371 H 502.037 -0.755432 0.202104 0
M  V30 5372 H 504.621 -1.62815 1.06767 0
M  V30 5373 H 502.792 -3.88359 -0.0566596 0
M  V30 5374 H 504.524 -4.04487 0.131146 0
M  V30 5375 H 501.279 -4.22373 2.14238 0
M  V30 5376 H 501.703 -4.89588 4.67582 0
M  V30 5377 H 506.345 -3.71161 2.02483 0
M  V30 5378 H 504.063 -5.12754 6.24587 0
M  V30 5379 H 507.649 -4.14667 4.08096 0
M  V30 5380 H 506.529 -4.84752 6.16429 0
M  V30 5381 N 504.032 -0.577932 -1.46621 0
M  V30 5382 C 505.278 -0.0617793 -2.02706 0
M  V30 5383 C 505.611 1.29294 -1.44903 0
M  V30 5384 O 504.886 1.8461 -0.61232 0
M  V30 5385 C 505.169 0.00911824 -3.60099 0
M  V30 5386 C 505.022 -1.37416 -4.28295 0
M  V30 5387 C 506.341 0.712159 -4.343 0
M  V30 5388 H 503.46 -0.0239246 -0.736612 0
M  V30 5389 H 506.102 -0.744211 -1.74818 0
M  V30 5390 H 504.252 0.590292 -3.83989 0
M  V30 5391 H 505.924 -2.00013 -4.15683 0
M  V30 5392 H 504.167 -1.94319 -3.87843 0
M  V30 5393 H 504.838 -1.27707 -5.37024 0
M  V30 5394 H 507.314 0.218486 -4.15526 0
M  V30 5395 H 506.19 0.730782 -5.44014 0
M  V30 5396 H 506.451 1.77251 -4.05012 0
M  V30 5397 N 505.51 1.54411 -0.315457 0
M  V30 5398 C 506.758 2.00023 0.288971 0
M  V30 5399 C 507.079 1.20529 1.5329 0
M  V30 5400 O 506.349 0.304986 1.93511 0
M  V30 5401 H 504.929 0.738891 0.109766 0
M  V30 5402 H 507.591 1.90094 -0.430129 0
M  V30 5403 H 506.687 3.07198 0.550999 0
M  V30 5404 N 506.988 0.0434614 1.5754 0
M  V30 5405 C 507.938 -0.943039 2.07583 0
M  V30 5406 C 508.922 -1.27662 0.979342 0
M  V30 5407 O 510.114 -1.26034 1.24276 0
M  V30 5408 C 507.243 -2.22056 2.61813 0
M  V30 5409 C 506.329 -1.91471 3.78417 0
M  V30 5410 N 506.72 -1.31214 4.88484 0
M  V30 5411 C 505.018 -2.21384 3.87176 0
M  V30 5412 C 505.719 -1.18084 5.69588 0
M  V30 5413 N 504.695 -1.68116 5.16951 0
M  V30 5414 H 508.497 -0.472354 2.90079 0
M  V30 5415 H 506.011 -0.161191 1.61598 0
M  V30 5416 H 508.008 -2.93618 2.95963 0
M  V30 5417 H 506.668 -2.69738 1.80752 0
M  V30 5418 H 507.679 -0.985318 5.08441 0
M  V30 5419 H 504.356 -2.7164 3.17046 0
M  V30 5420 H 505.746 -0.713684 6.68099 0
M  V30 5421 N 508.466 -1.55915 -0.229846 0
M  V30 5422 C 509.715 -1.77742 -0.953455 0
M  V30 5423 C 510.028 -0.610524 -1.85828 0
M  V30 5424 O 511.234 -0.712219 -2.61992 0
M  V30 5425 C 509.69 -3.14738 -1.74551 0
M  V30 5426 C 509.298 -4.39126 -0.887242 0
M  V30 5427 C 511.042 -3.45895 -2.46084 0
M  V30 5428 C 508.949 -5.67149 -1.67617 0
M  V30 5429 H 507.879 -0.662648 -0.359741 0
M  V30 5430 H 510.53 -1.82322 -0.207576 0
M  V30 5431 H 508.912 -3.04311 -2.53399 0
M  V30 5432 H 510.086 -4.60588 -0.139892 0
M  V30 5433 H 508.401 -4.15427 -0.284443 0
M  V30 5434 H 510.998 -4.38767 -3.05594 0
M  V30 5435 H 511.341 -2.68007 -3.18556 0
M  V30 5436 H 511.874 -3.57614 -1.74233 0
M  V30 5437 H 508.613 -6.47906 -0.994881 0
M  V30 5438 H 508.133 -5.49763 -2.39836 0
M  V30 5439 H 509.812 -6.07025 -2.23898 0
M  V30 5440 N 509.944 0.496216 -1.49584 0
M  V30 5441 C 510.874 1.60576 -1.69521 0
M  V30 5442 C 511.855 1.61169 -0.543933 0
M  V30 5443 O 513.04 1.77834 -0.78031 0
M  V30 5444 C 510.17 2.99038 -1.76616 0
M  V30 5445 C 509.124 3.13312 -2.91581 0
M  V30 5446 C 508.45 4.53172 -2.83794 0
M  V30 5447 C 509.75 2.92886 -4.32452 0
M  V30 5448 H 511.444 1.44146 -2.62416 0
M  V30 5449 H 508.99 0.692024 -1.26282 0
M  V30 5450 H 510.943 3.76564 -1.8915 0
M  V30 5451 H 509.667 3.16568 -0.80324 0
M  V30 5452 H 508.326 2.38213 -2.78658 0
M  V30 5453 H 507.974 4.67585 -1.854 0
M  V30 5454 H 507.674 4.63662 -3.60958 0
M  V30 5455 H 509.198 5.32752 -2.98342 0
M  V30 5456 H 510.612 3.60178 -4.46032 0
M  V30 5457 H 509.009 3.14844 -5.10875 0
M  V30 5458 H 510.079 1.88966 -4.46565 0
M  V30 5459 N 511.423 1.38739 0.74761 0
M  V30 5460 C 512.333 1.38696 1.89211 0
M  V30 5461 C 513.349 0.283303 1.71678 0
M  V30 5462 O 514.525 0.522713 1.94498 0
M  V30 5463 C 511.59 1.21662 3.24653 0
M  V30 5464 C 510.651 2.41886 3.54669 0
M  V30 5465 C 509.884 2.25655 4.83648 0
M  V30 5466 O 510.107 1.25339 5.56459 0
M  V30 5467 O 509.041 3.14372 5.13277 0
M  V30 5468 H 512.867 2.35143 1.92202 0
M  V30 5469 H 510.452 1.19721 0.893708 0
M  V30 5470 H 512.334 1.14246 4.05618 0
M  V30 5471 H 511.009 0.283024 3.2246 0
M  V30 5472 H 509.916 2.54877 2.73841 0
M  V30 5473 H 511.249 3.33895 3.61628 0
M  V30 5474 N 512.901 -0.976442 1.23707 0
M  V30 5475 C 514.131 -1.75087 1.09673 0
M  V30 5476 C 514.539 -1.85852 -0.354344 0
M  V30 5477 O 513.882 -1.33985 -1.25673 0
M  V30 5478 C 513.944 -3.19272 1.65245 0
M  V30 5479 C 513.608 -3.32004 3.14042 0
M  V30 5480 C 514.605 -3.18017 4.11292 0
M  V30 5481 C 512.29 -3.56525 3.53829 0
M  V30 5482 C 514.284 -3.28363 5.46312 0
M  V30 5483 C 511.971 -3.6651 4.88993 0
M  V30 5484 C 512.969 -3.52439 5.85043 0
M  V30 5485 O 512.657 -3.62063 7.1775 0
M  V30 5486 H 512.389 -0.556164 0.384262 0
M  V30 5487 H 514.943 -1.23518 1.64111 0
M  V30 5488 H 513.173 -3.72107 1.05231 0
M  V30 5489 H 514.862 -3.7849 1.46629 0
M  V30 5490 H 515.628 -2.98966 3.81896 0
M  V30 5491 H 511.507 -3.66547 2.79579 0
M  V30 5492 H 515.051 -3.17297 6.21263 0
M  V30 5493 H 510.948 -3.85072 5.18063 0
M  V30 5494 H 511.716 -3.78833 7.25553 0
M  V30 5495 N 514.379 -1.04941 -1.1758 0
M  V30 5496 C 515.311 -0.606174 -2.21039 0
M  V30 5497 C 516.324 0.328763 -1.59446 0
M  V30 5498 O 517.513 0.121895 -1.78083 0
M  V30 5499 C 514.613 0.133294 -3.38638 0
M  V30 5500 C 513.786 -0.811711 -4.29802 0
M  V30 5501 C 512.845 -0.113958 -5.26077 0
M  V30 5502 O 511.871 -0.747237 -5.64274 0
M  V30 5503 N 513.073 1.14953 -5.69004 0
M  V30 5504 H 515.838 -1.49606 -2.59689 0
M  V30 5505 H 513.399 -0.930997 -1.32454 0
M  V30 5506 H 515.391 0.610144 -4.00074 0
M  V30 5507 H 513.961 0.924816 -2.98607 0
M  V30 5508 H 513.181 -1.46824 -3.65837 0
M  V30 5509 H 514.469 -1.45326 -4.87604 0
M  V30 5510 H 513.867 1.68441 -5.40041 0
M  V30 5511 H 512.424 1.57049 -6.32597 0
M  V30 5512 N 515.857 1.33968 -0.830081 0
M  V30 5513 C 516.767 2.33164 -0.259207 0
M  V30 5514 C 517.783 1.62951 0.610164 0
M  V30 5515 O 518.959 1.94668 0.516369 0
M  V30 5516 C 516.024 3.42088 0.563598 0
M  V30 5517 C 515.085 4.28037 -0.329014 0
M  V30 5518 C 514.318 5.3176 0.454616 0
M  V30 5519 O 514.541 5.44876 1.6872 0
M  V30 5520 O 513.475 6.01669 -0.166794 0
M  V30 5521 H 517.301 2.83832 -1.08041 0
M  V30 5522 H 514.886 1.37154 -0.59239 0
M  V30 5523 H 516.768 4.08581 1.03147 0
M  V30 5524 H 515.443 2.93651 1.36201 0
M  V30 5525 H 514.35 3.64443 -0.844538 0
M  V30 5526 H 515.683 4.79934 -1.09196 0
M  V30 5527 N 517.335 0.585699 1.46312 0
M  V30 5528 C 518.265 -0.133556 2.33118 0
M  V30 5529 C 519.246 -0.880707 1.45525 0
M  V30 5530 O 520.431 -0.855579 1.74337 0
M  V30 5531 C 517.561 -1.14585 3.27853 0
M  V30 5532 C 516.515 -0.513341 4.2491 0
M  V30 5533 C 515.841 -1.63231 5.09175 0
M  V30 5534 C 517.141 0.551413 5.19381 0
M  V30 5535 H 518.835 0.59121 2.93505 0
M  V30 5536 H 516.381 0.285761 1.41136 0
M  V30 5537 H 518.334 -1.65741 3.87438 0
M  V30 5538 H 517.058 -1.90093 2.65579 0
M  V30 5539 H 515.717 -0.0228349 3.66593 0
M  V30 5540 H 515.365 -2.37713 4.43285 0
M  V30 5541 H 515.065 -1.21473 5.74907 0
M  V30 5542 H 516.589 -2.14658 5.71624 0
M  V30 5543 H 518.003 0.124804 5.73164 0
M  V30 5544 H 516.4 0.889486 5.93471 0
M  V30 5545 H 517.47 1.43655 4.63132 0
M  V30 5546 N 518.813 -1.54241 0.323641 0
M  V30 5547 C 520.09 -1.92741 -0.333181 0
M  V30 5548 C 520.47 -1.25326 -1.69872 0
M  V30 5549 O 519.818 -0.396991 -2.25025 0
M  V30 5550 C 520.028 -3.46399 -0.425322 0
M  V30 5551 C 521.376 -4.19029 -0.68557 0
M  V30 5552 O 522.4 -3.52555 -0.50824 0
M  V30 5553 O 521.259 -5.36751 -1.02767 0
M  V30 5554 H 518.353 -0.804811 -0.190286 0
M  V30 5555 H 520.899 -1.65542 0.373361 0
M  V30 5556 H 519.671 -3.87643 0.533737 0
M  V30 5557 H 519.294 -3.79704 -1.17944 0
M  V30 5558 N 520.291 -0.0518155 -1.57515 0
M  V30 5559 C 521.239 0.940195 -2.12751 0
M  V30 5560 C 522.233 1.3218 -1.05948 0
M  V30 5561 O 523.439 1.30138 -1.24355 0
M  V30 5562 H 519.814 0.321066 -0.680015 0
M  V30 5563 H 521.785 0.449217 -2.94999 0
M  V30 5564 C 520.534 2.2055 -2.68799 0
M  V30 5565 H 519.857 1.92066 -3.50643 0
M  V30 5566 H 521.297 2.88119 -3.11068 0
M  V30 5567 C 519.756 2.95061 -1.62605 0
M  V30 5568 O 520.286 3.88025 -1.03921 0
M  V30 5569 N 518.492 2.57804 -1.34111 0
M  V30 5570 H 518.039 1.82281 -1.8202 0
M  V30 5571 H 517.997 3.07964 -0.632872 0
M  V30 5572 N 521.769 1.56035 0.221574 0
M  V30 5573 C 523.185 1.49026 0.571271 0
M  V30 5574 C 523.385 0.746912 1.87146 0
M  V30 5575 O 522.441 0.286566 2.50869 0
M  V30 5576 C 523.754 2.93579 0.650522 0
M  V30 5577 C 525.302 3.04099 0.741151 0
M  V30 5578 C 525.777 4.5001 0.851747 0
M  V30 5579 N 527.268 4.54053 0.915968 0
M  V30 5580 C 528.003 5.64232 1.02125 0
M  V30 5581 N 527.499 6.84164 1.09049 0
M  V30 5582 N 529.292 5.52084 1.05639 0
M  V30 5583 H 521.443 2.02791 -0.63162 0
M  V30 5584 H 523.706 0.921736 -0.221602 0
M  V30 5585 H 523.412 3.50912 -0.235253 0
M  V30 5586 H 523.286 3.45476 1.51413 0
M  V30 5587 H 525.673 2.4683 1.61737 0
M  V30 5588 H 525.754 2.55371 -0.148128 0
M  V30 5589 H 525.398 5.07896 -0.0200117 0
M  V30 5590 H 525.328 4.96444 1.75644 0
M  V30 5591 H 527.819 3.67683 0.872782 0
M  V30 5592 H 528.132 7.63883 1.1706 0
M  V30 5593 H 526.477 6.86875 1.05962 0
M  V30 5594 H 529.668 4.57317 0.998953 0
M  V30 5595 H 529.841 6.37983 1.13498 0
M  V30 5596 N 523.247 -0.488276 1.49845 0
M  V30 5597 C 524.177 -1.59675 1.70371 0
M  V30 5598 C 525.158 -1.60878 0.552473 0
M  V30 5599 O 526.343 -1.77417 0.78973 0
M  V30 5600 C 523.473 -2.98098 1.782 0
M  V30 5601 C 522.427 -3.11761 2.93239 0
M  V30 5602 C 521.753 -4.51661 2.86193 0
M  V30 5603 C 523.053 -2.90589 4.33999 0
M  V30 5604 H 524.747 -1.42752 2.63177 0
M  V30 5605 H 522.293 -0.685317 1.26647 0
M  V30 5606 H 524.246 -3.75555 1.91144 0
M  V30 5607 H 522.97 -3.16138 0.820018 0
M  V30 5608 H 521.629 -2.36732 2.79917 0
M  V30 5609 H 521.277 -4.66595 1.87877 0
M  V30 5610 H 520.977 -4.61742 3.63412 0
M  V30 5611 H 522.501 -5.31162 3.01163 0
M  V30 5612 H 523.915 -3.57807 4.47936 0
M  V30 5613 H 522.312 -3.1213 5.12538 0
M  V30 5614 H 523.382 -1.86595 4.4756 0
M  V30 5615 N 524.725 -1.39134 -0.740242 0
M  V30 5616 C 525.655 -1.40165 -1.86751 0
M  V30 5617 C 526.636 -0.265708 -1.68012 0
M  V30 5618 O 527.821 -0.47076 -1.88408 0
M  V30 5619 C 524.951 -1.2392 -3.2444 0
M  V30 5620 C 523.905 -2.34858 -3.57807 0
M  V30 5621 C 523.231 -2.03707 -4.94376 0
M  V30 5622 C 524.531 -3.77159 -3.61315 0
M  V30 5623 H 526.225 -2.345 -1.86145 0
M  V30 5624 H 523.771 -1.12875 -0.89416 0
M  V30 5625 H 525.724 -1.23263 -4.02969 0
M  V30 5626 H 524.448 -0.26051 -3.25559 0
M  V30 5627 H 523.107 -2.34723 -2.81604 0
M  V30 5628 H 522.755 -1.04289 -4.9207 0
M  V30 5629 H 522.455 -2.78016 -5.17669 0
M  V30 5630 H 523.979 -2.04691 -5.75268 0
M  V30 5631 H 525.393 -3.79252 -4.29931 0
M  V30 5632 H 523.79 -4.50784 -3.96124 0
M  V30 5633 H 524.86 -4.08513 -2.61238 0
M  V30 5634 N 526.204 0.969867 -1.24223 0
M  V30 5635 C 527.62 1.23809 -1.00716 0
M  V30 5636 C 527.82 1.99469 0.285358 0
M  V30 5637 O 526.876 2.31764 1.00207 0
M  V30 5638 C 528.189 2.02734 -2.2208 0
M  V30 5639 C 529.737 2.15834 -2.26681 0
M  V30 5640 C 530.212 2.98154 -3.47661 0
M  V30 5641 N 531.703 3.05737 -3.47964 0
M  V30 5642 C 532.438 3.69785 -4.38231 0
M  V30 5643 N 531.934 4.35569 -5.3875 0
M  V30 5644 N 533.727 3.66775 -4.25949 0
M  V30 5645 H 525.878 0.463294 -2.07286 0
M  V30 5646 H 528.141 0.267348 -0.909521 0
M  V30 5647 H 527.847 1.54524 -3.15935 0
M  V30 5648 H 527.721 3.0347 -2.24021 0
M  V30 5649 H 530.108 2.63248 -1.33359 0
M  V30 5650 H 530.189 1.14453 -2.28767 0
M  V30 5651 H 529.833 2.51435 -4.41297 0
M  V30 5652 H 529.763 3.99729 -3.42818 0
M  V30 5653 H 532.254 2.58941 -2.75242 0
M  V30 5654 H 532.567 4.82251 -6.03866 0
M  V30 5655 H 530.912 4.34244 -5.42639 0
M  V30 5656 H 534.103 3.14558 -3.46657 0
M  V30 5657 H 534.276 4.16407 -4.96497 0
M  V30 5658 N 527.682 1.05563 1.17022 0
M  V30 5659 C 529.093 0.793475 1.69 0
M  V30 5660 C 529.444 -0.683882 1.83895 0
M  V30 5661 O 528.569 -1.53116 1.5292 0
M  V30 5662 C 529.164 1.43376 3.06967 0
M  V30 5663 C 527.723 1.21956 3.56095 0
M  V30 5664 C 526.87 1.51494 2.3226 0
M  V30 5665 H 529.821 1.22008 1.01487 0
M  V30 5666 H 529.842 0.845068 3.70997 0
M  V30 5667 H 529.354 2.50899 2.96093 0
M  V30 5668 H 527.455 0.163749 3.7224 0
M  V30 5669 H 527.568 1.92713 4.38633 0
M  V30 5670 H 525.932 0.935175 2.3691 0
M  V30 5671 H 526.715 2.60159 2.23992 0
M  V30 5672 N 529.16 -1.33526 0.837174 0
M  V30 5673 C 530.408 -1.97446 0.431211 0
M  V30 5674 C 530.729 -1.6665 -1.01255 0
M  V30 5675 O 529.999 -0.964559 -1.70508 0
M  V30 5676 H 528.579 -0.73043 0.156463 0
M  V30 5677 H 531.241 -1.62918 1.06976 0
M  V30 5678 H 530.337 -3.07001 0.561877 0
M  V30 5679 N 530.638 -0.59345 -1.46 0
M  V30 5680 C 531.601 0.123538 -2.28867 0
M  V30 5681 C 532.601 0.808628 -1.38989 0
M  V30 5682 O 533.791 0.658945 -1.61256 0
M  V30 5683 C 530.923 1.1847 -3.19653 0
M  V30 5684 H 532.116 -0.604843 -2.93737 0
M  V30 5685 H 529.669 -0.351875 -1.52288 0
M  V30 5686 H 530.404 1.94431 -2.59552 0
M  V30 5687 H 530.189 0.69783 -3.8584 0
M  V30 5688 H 531.679 1.68726 -3.81997 0
M  V30 5689 N 532.116 1.54067 -0.331816 0
M  V30 5690 C 533.063 2.24623 0.530372 0
M  V30 5691 C 534.033 1.24009 1.10503 0
M  V30 5692 O 535.218 1.52712 1.14384 0
M  V30 5693 C 532.358 3.01374 1.68129 0
M  V30 5694 C 531.471 4.16821 1.13507 0
M  V30 5695 C 530.606 4.81085 2.25234 0
M  V30 5696 C 529.645 5.88621 1.67903 0
M  V30 5697 N 528.782 6.46713 2.73326 0
M  V30 5698 H 533.622 2.97898 -0.0778607 0
M  V30 5699 H 531.159 1.47014 -0.0501965 0
M  V30 5700 H 533.117 3.44125 2.35868 0
M  V30 5701 H 531.747 2.30419 2.26069 0
M  V30 5702 H 530.799 3.78796 0.348979 0
M  V30 5703 H 532.111 4.94203 0.675633 0
M  V30 5704 H 531.265 5.26846 3.00862 0
M  V30 5705 H 530.004 4.03102 2.74518 0
M  V30 5706 H 529.009 5.42254 0.907773 0
M  V30 5707 H 530.234 6.68506 1.19487 0
M  V30 5708 H 528.18 5.71599 3.21886 0
M  V30 5709 H 528.097 7.19532 2.3197 0
M  V30 5710 H 529.365 6.97129 3.48758 0
M  V30 5711 N 533.594 0.0601682 1.57485 0
M  V30 5712 C 534.824 -0.620037 1.97076 0
M  V30 5713 C 535.232 -1.64381 0.936784 0
M  V30 5714 O 534.575 -1.83497 -0.0863377 0
M  V30 5715 C 534.637 -1.35617 3.32939 0
M  V30 5716 C 534.301 -0.487208 4.54396 0
M  V30 5717 C 535.298 0.250428 5.19297 0
M  V30 5718 C 532.983 -0.415494 5.00579 0
M  V30 5719 C 534.977 1.04812 6.28723 0
M  V30 5720 C 532.664 0.385879 6.0988 0
M  V30 5721 C 533.662 1.11637 6.73815 0
M  V30 5722 O 533.35 1.90454 7.81014 0
M  V30 5723 H 533.082 -0.173664 0.653312 0
M  V30 5724 H 535.636 0.1256 2.05016 0
M  V30 5725 H 533.866 -2.14763 3.2158 0
M  V30 5726 H 535.555 -1.92749 3.57215 0
M  V30 5727 H 536.321 0.204546 4.84568 0
M  V30 5728 H 532.2 -0.973679 4.506 0
M  V30 5729 H 535.744 1.6188 6.78558 0
M  V30 5730 H 531.641 0.433366 6.44044 0
M  V30 5731 H 532.409 1.82762 7.97835 0
M  V30 5732 N 535.072 -1.5615 -0.213296 0
M  V30 5733 C 536.318 -1.79812 -0.937849 0
M  V30 5734 C 536.651 -0.631201 -1.83656 0
M  V30 5735 O 535.926 0.369165 -1.90964 0
M  V30 5736 C 536.209 -3.13613 -1.76972 0
M  V30 5737 C 536.062 -4.40766 -0.89695 0
M  V30 5738 C 537.381 -3.43931 -2.7459 0
M  V30 5739 H 534.5 -0.654138 -0.339518 0
M  V30 5740 H 537.142 -1.88877 -0.20623 0
M  V30 5741 H 535.292 -3.06015 -2.39347 0
M  V30 5742 H 536.964 -4.60392 -0.289306 0
M  V30 5743 H 535.207 -4.33326 -0.202756 0
M  V30 5744 H 535.878 -5.30843 -1.51358 0
M  V30 5745 H 538.354 -3.5171 -2.22349 0
M  V30 5746 H 537.23 -4.38706 -3.29891 0
M  V30 5747 H 537.491 -2.6651 -3.52739 0
M  V30 5748 N 536.55 0.480323 -1.50102 0
M  V30 5749 C 537.798 1.23063 -1.60312 0
M  V30 5750 C 538.119 1.92659 -0.301226 0
M  V30 5751 O 537.389 1.83691 0.680753 0
M  V30 5752 H 535.969 0.457231 -0.590719 0
M  V30 5753 H 538.631 0.554893 -1.86834 0
M  V30 5754 H 537.727 1.9835 -2.40964 0
M  V30 5755 N 538.028 1.39524 0.732853 0
M  V30 5756 C 538.938 1.40695 1.87729 0
M  V30 5757 C 539.954 0.301496 1.71368 0
M  V30 5758 O 541.13 0.543313 1.93933 0
M  V30 5759 C 538.195 1.25098 3.23344 0
M  V30 5760 C 537.256 2.45634 3.52083 0
M  V30 5761 C 536.489 2.30772 4.81228 0
M  V30 5762 O 536.712 1.31233 5.55098 0
M  V30 5763 O 535.646 3.19799 5.09914 0
M  V30 5764 H 539.472 2.37168 1.89697 0
M  V30 5765 H 537.057 1.20663 0.880959 0
M  V30 5766 H 538.939 1.18541 4.04383 0
M  V30 5767 H 537.614 0.317209 3.22142 0
M  V30 5768 H 536.521 2.57767 2.71122 0
M  V30 5769 H 537.854 3.37712 3.58066 0
M  V30 5770 N 539.506 -0.963266 1.24736 0
M  V30 5771 C 540.436 -2.07628 1.06832 0
M  V30 5772 C 541.417 -1.70088 -0.0200566 0
M  V30 5773 O 542.602 -1.93636 0.147854 0
M  V30 5774 C 539.732 -3.40636 0.677069 0
M  V30 5775 C 538.686 -3.9215 1.71471 0
M  V30 5776 C 538.012 -5.21553 1.1784 0
M  V30 5777 C 539.312 -4.19493 3.11164 0
M  V30 5778 H 541.006 -2.22864 1.9993 0
M  V30 5779 H 538.552 -1.07093 0.96266 0
M  V30 5780 H 540.505 -4.17941 0.538792 0
M  V30 5781 H 539.229 -3.25313 -0.289612 0
M  V30 5782 H 537.888 -3.17005 1.84128 0
M  V30 5783 H 537.536 -5.02593 0.202195 0
M  V30 5784 H 537.236 -5.56988 1.87185 0
M  V30 5785 H 538.76 -6.01463 1.05233 0
M  V30 5786 H 540.174 -4.87487 3.01711 0
M  V30 5787 H 538.571 -4.66165 3.77902 0
M  V30 5788 H 539.641 -3.26097 3.58871 0
M  V30 5789 N 540.985 -1.06182 -1.16461 0
M  V30 5790 C 542.262 -0.691364 -1.82974 0
M  V30 5791 C 542.642 0.827377 -1.9421 0
M  V30 5792 O 541.99 1.73723 -1.48434 0
M  V30 5793 C 542.2 -1.39199 -3.20038 0
M  V30 5794 C 543.548 -1.53647 -3.95825 0
M  V30 5795 O 544.572 -1.35181 -3.29552 0
M  V30 5796 O 543.431 -1.83932 -5.14618 0
M  V30 5797 H 540.525 -0.244605 -0.789998 0
M  V30 5798 H 543.071 -1.16203 -1.23673 0
M  V30 5799 H 541.843 -2.42766 -3.06888 0
M  V30 5800 H 541.466 -0.911335 -3.87015 0
M  V30 5801 N 542.463 1.3308 -0.844243 0
M  V30 5802 C 543.709 1.97898 -0.443206 0
M  V30 5803 C 544.042 1.66699 0.99625 0
M  V30 5804 O 543.317 0.949704 1.69738 0
M  V30 5805 C 543.6 3.53801 -0.670606 0
M  V30 5806 C 543.453 3.94667 -2.15772 0
M  V30 5807 C 544.772 4.39936 -0.120226 0
M  V30 5808 H 541.891 0.718861 -0.162504 0
M  V30 5809 H 544.533 1.57633 -1.06075 0
M  V30 5810 H 542.683 3.88229 -0.14496 0
M  V30 5811 H 544.355 3.70469 -2.74865 0
M  V30 5812 H 542.598 3.44203 -2.6402 0
M  V30 5813 H 543.269 5.03275 -2.26757 0
M  V30 5814 H 545.745 4.12183 -0.5696 0
M  V30 5815 H 544.621 5.4803 -0.308984 0
M  V30 5816 H 544.882 4.31184 0.976347 0
M  V30 5817 N 543.941 0.601185 1.45683 0
M  V30 5818 C 545.352 0.179659 1.85834 0
M  V30 5819 C 545.703 -1.26189 1.50236 0
M  V30 5820 O 544.828 -1.95587 0.925987 0
M  V30 5821 C 545.423 0.319277 3.37292 0
M  V30 5822 C 543.982 -0.0475092 3.7637 0
M  V30 5823 C 543.129 0.646692 2.69654 0
M  V30 5824 H 546.08 0.808268 1.36575 0
M  V30 5825 H 546.101 -0.4503 3.77826 0
M  V30 5826 H 545.613 1.36855 3.6317 0
M  V30 5827 H 543.714 -1.0962 3.5611 0
M  V30 5828 H 543.827 0.34168 4.7788 0
M  V30 5829 H 542.191 0.0849971 2.54558 0
M  V30 5830 H 542.974 1.69797 2.98369 0
M  V30 5831 N 545.419 -1.53889 0.339982 0
M  V30 5832 C 546.649 -2.04973 -0.258738 0
M  V30 5833 C 547.057 -1.21485 -1.45045 0
M  V30 5834 O 546.4 -0.2422 -1.82096 0
M  V30 5835 C 546.462 -3.51783 -0.740853 0
M  V30 5836 C 546.126 -4.55802 0.330734 0
M  V30 5837 C 547.123 -5.06512 1.17226 0
M  V30 5838 C 544.808 -4.99966 0.483637 0
M  V30 5839 C 546.802 -5.99963 2.15227 0
M  V30 5840 C 544.489 -5.93229 1.46704 0
M  V30 5841 C 545.487 -6.43115 2.29981 0
M  V30 5842 O 545.175 -7.34545 3.26649 0
M  V30 5843 H 544.907 -0.673807 -0.0544037 0
M  V30 5844 H 547.461 -1.99492 0.489107 0
M  V30 5845 H 545.691 -3.54717 -1.53988 0
M  V30 5846 H 547.38 -3.85857 -1.25973 0
M  V30 5847 H 548.146 -4.73158 1.0652 0
M  V30 5848 H 544.025 -4.6074 -0.15471 0
M  V30 5849 H 547.569 -6.38825 2.80265 0
M  V30 5850 H 543.466 -6.25998 1.57468 0
M  V30 5851 H 544.234 -7.52468 3.22078 0
M  V30 5852 N 546.897 -0.0685191 -1.57451 0
M  V30 5853 C 548.143 0.602239 -1.93652 0
M  V30 5854 C 548.476 1.6946 -0.948526 0
M  V30 5855 O 547.751 1.94487 0.022782 0
M  V30 5856 C 548.034 1.18223 -3.4014 0
M  V30 5857 C 547.887 0.0967431 -4.49696 0
M  V30 5858 C 549.206 2.08872 -3.87377 0
M  V30 5859 H 546.325 0.217453 -0.70419 0
M  V30 5860 H 548.967 -0.133821 -1.89528 0
M  V30 5861 H 547.117 1.80953 -3.43785 0
M  V30 5862 H 548.789 -0.536155 -4.58174 0
M  V30 5863 H 547.032 -0.573063 -4.29998 0
M  V30 5864 H 547.703 0.542894 -5.49324 0
M  V30 5865 H 550.179 1.56081 -3.85717 0
M  V30 5866 H 549.055 2.46389 -4.90493 0
M  V30 5867 H 549.316 2.99572 -3.25129 0
M  V30 5868 N 548.375 1.56261 0.205012 0
M  V30 5869 C 549.786 1.70056 0.770574 0
M  V30 5870 C 550.137 0.673398 1.84282 0
M  V30 5871 O 549.262 -0.172196 2.15714 0
M  V30 5872 C 549.857 3.08316 1.40451 0
M  V30 5873 C 548.416 3.2391 1.91727 0
M  V30 5874 C 547.563 2.66001 0.783516 0
M  V30 5875 H 550.514 1.58688 -0.019911 0
M  V30 5876 H 550.535 3.05094 2.27371 0
M  V30 5877 H 550.047 3.83053 0.623882 0
M  V30 5878 H 548.148 2.54072 2.7254 0
M  V30 5879 H 548.261 4.3131 2.08588 0
M  V30 5880 H 546.625 2.24915 1.19521 0
M  V30 5881 H 547.408 3.43297 0.0152883 0
M  V30 5882 N 549.853 -0.472356 1.50355 0
M  V30 5883 C 550.783 -1.57859 1.72055 0
M  V30 5884 C 551.764 -1.60283 0.569505 0
M  V30 5885 O 552.949 -1.7657 0.808503 0
M  V30 5886 C 550.079 -2.96191 1.81351 0
M  V30 5887 C 549.033 -3.08633 2.96529 0
M  V30 5888 C 548.359 -4.486 2.90968 0
M  V30 5889 C 549.659 -2.85969 4.37057 0
M  V30 5890 H 551.353 -1.39953 2.64676 0
M  V30 5891 H 548.899 -0.671846 1.27367 0
M  V30 5892 H 550.852 -3.73507 1.95117 0
M  V30 5893 H 549.576 -3.15251 0.853502 0
M  V30 5894 H 548.235 -2.33749 2.82413 0
M  V30 5895 H 547.883 -4.64577 1.92815 0
M  V30 5896 H 547.583 -4.57861 3.68289 0
M  V30 5897 H 549.107 -5.27938 3.0678 0
M  V30 5898 H 550.521 -3.53036 4.51706 0
M  V30 5899 H 548.918 -3.06677 5.15819 0
M  V30 5900 H 549.988 -1.81838 4.49514 0
M  V30 5901 N 551.331 -1.39911 -0.725443 0
M  V30 5902 C 552.241 -1.41688 -1.8698 0
M  V30 5903 C 553.257 -0.310579 -1.71206 0
M  V30 5904 O 554.433 -0.55359 -1.93642 0
M  V30 5905 C 551.498 -1.26811 -3.22676 0
M  V30 5906 C 550.559 -2.47497 -3.50776 0
M  V30 5907 C 549.792 -2.3332 -4.79997 0
M  V30 5908 O 550.015 -1.34175 -5.54394 0
M  V30 5909 O 548.949 -3.22498 -5.08211 0
M  V30 5910 H 552.775 -2.38171 -1.88436 0
M  V30 5911 H 550.36 -1.21128 -0.874548 0
M  V30 5912 H 552.242 -1.20684 -4.03749 0
M  V30 5913 H 550.917 -0.334289 -3.21969 0
M  V30 5914 H 549.824 -2.59201 -2.69751 0
M  V30 5915 H 551.157 -3.39606 -3.5627 0
M  V30 5916 N 552.809 0.956637 -1.25245 0
M  V30 5917 C 553.772 2.03457 -1.05537 0
M  V30 5918 C 554.772 1.60798 -0.00886317 0
M  V30 5919 O 555.962 1.72384 -0.250865 0
M  V30 5920 C 553.094 3.35543 -0.601965 0
M  V30 5921 H 554.287 2.22372 -2.01223 0
M  V30 5922 H 551.84 1.13344 -1.07623 0
M  V30 5923 H 552.575 3.22323 0.357584 0
M  V30 5924 H 552.36 3.67854 -1.35743 0
M  V30 5925 H 553.85 4.14769 -0.485454 0
M  V30 5926 N 554.287 1.06798 1.15896 0
M  V30 5927 C 555.703 0.792423 1.38538 0
M  V30 5928 C 555.903 -0.60592 1.92174 0
M  V30 5929 O 554.959 -1.36561 2.12385 0
M  V30 5930 C 556.272 1.86157 2.36149 0
M  V30 5931 C 557.82 1.88567 2.49823 0
M  V30 5932 C 558.295 2.9455 3.5072 0
M  V30 5933 N 559.786 2.93616 3.58251 0
M  V30 5934 C 560.521 3.72267 4.36125 0
M  V30 5935 N 560.017 4.60751 5.17379 0
M  V30 5936 N 561.81 3.60637 4.31158 0
M  V30 5937 H 553.961 1.96993 0.794198 0
M  V30 5938 H 556.224 0.853942 0.411688 0
M  V30 5939 H 555.93 2.86603 2.03843 0
M  V30 5940 H 555.804 1.71692 3.3586 0
M  V30 5941 H 558.191 0.887765 2.8143 0
M  V30 5942 H 558.272 2.0711 1.5013 0
M  V30 5943 H 557.916 3.94537 3.19849 0
M  V30 5944 H 557.846 2.73255 4.50155 0
M  V30 5945 H 560.337 2.29472 3.00252 0
M  V30 5946 H 560.65 5.17408 5.74028 0
M  V30 5947 H 558.995 4.64803 5.16704 0
M  V30 5948 H 562.186 2.90892 3.66742 0
M  V30 5949 H 562.359 4.22176 4.91601 0
M  V30 5950 N 555.766 -1.3263 0.851289 0
M  V30 5951 C 556.676 -2.32722 0.296268 0
M  V30 5952 C 557.692 -1.63901 -0.584162 0
M  V30 5953 O 558.868 -1.95465 -0.485334 0
M  V30 5954 C 555.933 -3.42942 -0.509103 0
M  V30 5955 C 554.994 -4.2746 0.397069 0
M  V30 5956 C 554.227 -5.32416 -0.36996 0
M  V30 5957 O 554.45 -5.47491 -1.6003 0
M  V30 5958 O 553.384 -6.01327 0.262493 0
M  V30 5959 H 557.21 -2.82078 1.12543 0
M  V30 5960 H 554.795 -1.36194 0.614135 0
M  V30 5961 H 556.677 -4.1017 -0.96634 0
M  V30 5962 H 555.352 -2.95781 -1.31512 0
M  V30 5963 H 554.259 -3.63053 0.902411 0
M  V30 5964 H 555.592 -4.78136 1.16818 0
M  V30 5965 O 557.283 -0.749239 -1.43069 0
M  V30 5966 H 557.974 -0.305579 -1.91274 0
M  V30 END ATOM
M  V30 BEGIN BOND
M  V30 END BOND
M  V30 END CTAB
M  END
$$$$
