drugbank_target|O14578 Citron Rho-interacting kinase (DB12010)
 OpenBabel12092121153D

  0  0  0     0  0            999 V3000
M  V30 BEGIN CTAB
M  V30 COUNTS 32472 32742 0 0 0
M  V30 BEGIN ATOM
M  V30 1 H -0.908 1.98254 -0.117106 0
M  V30 2 N 0 1.576 0 0
M  V30 3 C 0.933 2.03868 1.02534 0
M  V30 4 C 1.911 0.928543 1.3348 0
M  V30 5 O 3.095 1.19667 1.45644 0
M  V30 6 C 0.222 2.43627 2.35294 0
M  V30 7 C -0.732 3.65373 2.2001 0
M  V30 8 S 0.101 5.13292 1.52614 0
M  V30 9 C 1.257 5.56322 2.86805 0
M  V30 10 H 1.49 2.90518 0.631377 0
M  V30 11 H -0.977 1.52953 0.210867 0
M  V30 12 H 0.981 2.67203 3.11629 0
M  V30 13 H -0.358 1.57376 2.7183 0
M  V30 14 H -1.165 3.90944 3.18086 0
M  V30 15 H -1.563 3.418 1.51819 0
M  V30 16 H 0.729 5.58782 3.83104 0
M  V30 17 H 1.672 6.56266 2.65933 0
M  V30 18 H 2.08 4.83886 2.90714 0
M  V30 19 N 1.4781 -0.272755 1.55222 0
M  V30 20 C 2.4081 -1.34136 1.91127 0
M  V30 21 C 3.3891 -1.51513 0.773168 0
M  V30 22 O 4.5741 -1.64552 1.03132 0
M  V30 23 C 1.7041 -2.70083 2.1834 0
M  V30 24 C 0.6581 -2.67437 3.34158 0
M  V30 25 C -0.0159 -4.06938 3.46851 0
M  V30 26 C 1.2841 -2.26686 4.70543 0
M  V30 27 H 2.9781 -1.04333 2.80633 0
M  V30 28 H 0.5241 -0.500454 1.35024 0
M  V30 29 H 2.4771 -3.44952 2.42046 0
M  V30 30 H 1.2011 -3.01469 1.25634 0
M  V30 31 H -0.1399 -1.95026 3.1042 0
M  V30 32 H -0.4919 -4.35547 2.51611 0
M  V30 33 H -0.7919 -4.06062 4.2472 0
M  V30 34 H 0.7321 -4.83545 3.72849 0
M  V30 35 H 2.1461 -2.91277 4.93792 0
M  V30 36 H 0.5431 -2.36971 5.5133 0
M  V30 37 H 1.6131 -1.21818 4.69349 0
M  V30 38 N 2.9562 -1.48159 -0.537278 0
M  V30 39 C 3.9032 -1.62138 -1.64256 0
M  V30 40 C 4.8732 -0.463668 -1.59497 0
M  V30 41 O 6.0582 -0.686241 -1.78032 0
M  V30 42 C 3.1982 -1.66028 -3.02537 0
M  V30 43 C 2.3112 -2.92855 -3.17585 0
M  V30 44 C 1.4462 -2.87952 -4.46382 0
M  V30 45 C 0.4852 -4.09516 -4.54932 0
M  V30 46 N -0.3778 -4.02733 -5.75109 0
M  V30 47 H 4.4622 -2.56529 -1.51647 0
M  V30 48 H 1.9992 -1.27224 -0.738414 0
M  V30 49 H 3.9572 -1.66265 -3.82638 0
M  V30 50 H 2.5872 -0.751331 -3.13934 0
M  V30 51 H 1.6392 -3.02395 -2.30784 0
M  V30 52 H 2.9512 -3.82822 -3.19764 0
M  V30 53 H 2.1052 -2.8655 -5.34765 0
M  V30 54 H 0.8442 -1.95702 -4.46712 0
M  V30 55 H -0.1508 -4.11201 -3.64957 0
M  V30 56 H 1.0742 -5.02917 -4.56346 0
M  V30 57 H -0.9798 -3.13299 -5.76351 0
M  V30 58 H -1.0628 -4.86397 -5.78752 0
M  V30 59 H 0.2052 -4.05379 -6.65799 0
M  V30 60 N 4.4343 0.785586 -1.36625 0
M  V30 61 C 5.6813 1.54362 -1.31067 0
M  V30 62 C 6.0093 1.94195 0.10893 0
M  V30 63 O 5.2643 1.63262 1.07908 0
M  V30 64 C 5.5633 2.83007 -2.1827 0
M  V30 65 C 5.2293 2.62294 -3.6676 0
M  V30 66 C 3.8913 2.56353 -4.0723 0
M  V30 67 C 6.2433 2.43371 -4.6089 0
M  V30 68 C 3.5713 2.29461 -5.39967 0
M  V30 69 C 5.9233 2.18005 -5.93849 0
M  V30 70 C 4.5873 2.105 -6.3344 0
M  V30 71 H 3.8573 0.564851 -0.479609 0
M  V30 72 H 6.5043 0.906028 -1.68711 0
M  V30 73 H 4.8093 3.51253 -1.73576 0
M  V30 74 H 6.5063 3.40817 -2.11292 0
M  V30 75 H 3.0963 2.67774 -3.34656 0
M  V30 76 H 7.2803 2.46959 -4.30494 0
M  V30 77 H 2.5363 2.22135 -5.69619 0
M  V30 78 H 6.7103 2.02359 -6.66351 0
M  V30 79 H 4.3373 1.89425 -7.36222 0
M  V30 80 N 5.9124 1.20967 1.01018 0
M  V30 81 C 6.8594 0.964281 2.09691 0
M  V30 82 C 7.8294 -0.107853 1.65749 0
M  V30 83 O 9.0144 0.0381987 1.90762 0
M  V30 84 C 6.1544 0.52943 3.41015 0
M  V30 85 C 5.2674 1.67043 3.98398 0
M  V30 86 C 4.4024 1.18525 5.17808 0
M  V30 87 C 3.4414 2.29892 5.67288 0
M  V30 88 N 2.5784 1.82546 6.77954 0
M  V30 89 H 7.4184 1.89463 2.30017 0
M  V30 90 H 4.9554 0.944289 1.1279 0
M  V30 91 H 6.9134 0.258588 4.16398 0
M  V30 92 H 5.5434 -0.363919 3.20742 0
M  V30 93 H 4.5954 2.05603 3.20049 0
M  V30 94 H 5.9074 2.50877 4.31117 0
M  V30 95 H 5.0614 0.870762 6.00419 0
M  V30 96 H 3.8004 0.316887 4.86669 0
M  V30 97 H 2.8054 2.6215 4.83278 0
M  V30 98 H 4.0304 3.17216 6.00459 0
M  V30 99 H 1.9764 0.980454 6.48632 0
M  V30 100 H 1.8934 2.59956 7.09901 0
M  V30 101 H 3.1614 1.54115 7.64113 0
M  V30 102 N 7.3905 -1.2043 1.01659 0
M  V30 103 C 8.6205 -1.93496 0.724081 0
M  V30 104 C 9.0285 -1.74998 -0.71918 0
M  V30 105 O 8.3715 -1.06118 -1.49949 0
M  V30 106 C 8.4335 -3.45886 0.97994 0
M  V30 107 C 8.0975 -3.88145 2.41232 0
M  V30 108 C 9.0945 -3.93907 3.39313 0
M  V30 109 C 6.7795 -4.20134 2.75305 0
M  V30 110 C 8.7735 -4.31069 4.6953 0
M  V30 111 C 6.4605 -4.56971 4.05735 0
M  V30 112 C 7.4585 -4.62411 5.02658 0
M  V30 113 O 7.1465 -4.98403 6.30754 0
M  V30 114 H 6.8785 -0.621824 0.265162 0
M  V30 115 H 9.4325 -1.53867 1.36066 0
M  V30 116 H 7.6625 -3.85639 0.286198 0
M  V30 117 H 9.3515 -4.0018 0.679021 0
M  V30 118 H 10.1175 -3.69357 3.14325 0
M  V30 119 H 5.9965 -4.1509 2.00551 0
M  V30 120 H 9.5405 -4.3523 5.45179 0
M  V30 121 H 5.4375 -4.80977 4.30502 0
M  V30 122 H 6.2055 -5.16395 6.35042 0
M  V30 123 N 8.8686 -0.792821 -1.36206 0
M  V30 124 C 10.1166 -0.366062 -1.98757 0
M  V30 125 C 10.4376 1.0668 -1.63231 0
M  V30 126 O 9.7076 1.73587 -0.907978 0
M  V30 127 H 8.2876 -0.132364 -0.735179 0
M  V30 128 H 10.9496 -1.01562 -1.66347 0
M  V30 129 H 10.0456 -0.460638 -3.08682 0
M  V30 130 N 10.3467 1.47872 -0.545128 0
M  V30 131 C 11.3097 2.28337 0.198717 0
M  V30 132 C 12.3097 1.36255 0.853888 0
M  V30 133 O 13.4997 1.59003 0.711606 0
M  V30 134 C 10.6317 3.15585 1.28915 0
M  V30 135 H 11.8247 2.95567 -0.507941 0
M  V30 136 H 9.3777 1.53362 -0.301616 0
M  V30 137 H 10.1127 2.53019 2.02859 0
M  V30 138 H 9.8977 3.83337 0.824309 0
M  V30 139 H 11.3877 3.76243 1.81194 0
M  V30 140 N 11.8248 0.280983 1.55075 0
M  V30 141 C 13.2408 -0.0729964 1.59433 0
M  V30 142 C 13.4408 -1.5411 1.29817 0
M  V30 143 O 12.4968 -2.29086 1.06187 0
M  V30 144 C 13.8098 0.306921 2.9913 0
M  V30 145 C 15.3578 0.254023 3.11968 0
M  V30 146 C 15.8328 0.608467 4.5394 0
M  V30 147 N 17.3238 0.560241 4.59799 0
M  V30 148 C 18.0588 0.80722 5.6769 0
M  V30 149 N 17.5548 1.11912 6.83701 0
M  V30 150 N 19.3478 0.735623 5.57266 0
M  V30 151 H 11.4988 1.238 1.7259 0
M  V30 152 H 13.7618 0.500547 0.805082 0
M  V30 153 H 13.4678 1.32816 3.25657 0
M  V30 154 H 13.3418 -0.349363 3.75579 0
M  V30 155 H 15.7288 -0.75794 2.852 0
M  V30 156 H 15.8098 0.944649 2.37718 0
M  V30 157 H 15.4538 1.61814 4.81434 0
M  V30 158 H 15.3838 -0.104013 5.26497 0
M  V30 159 H 17.8748 0.329288 3.76463 0
M  V30 160 H 18.1878 1.29409 7.61888 0
M  V30 161 H 16.5328 1.15695 6.85303 0
M  V30 162 H 19.7238 0.491752 4.6551 0
M  V30 163 H 19.8968 0.931482 6.4127 0
M  V30 164 N 13.3029 -1.57598 0.00835791 0
M  V30 165 C 14.2509 -2.10078 -0.998508 0
M  V30 166 C 15.2449 -1.02262 -1.35051 0
M  V30 167 O 16.4509 -1.20719 -1.33518 0
M  V30 168 H 12.8259 -0.670903 -0.339696 0
M  V30 169 H 14.7969 -2.93648 -0.530398 0
M  V30 170 C 13.5459 -2.62615 -2.27879 0
M  V30 171 H 12.8689 -3.45213 -2.01662 0
M  V30 172 H 14.3089 -3.03004 -2.96588 0
M  V30 173 C 12.7679 -1.54407 -2.99433 0
M  V30 174 O 13.2979 -0.931812 -3.90743 0
M  V30 175 N 11.5039 -1.2695 -2.61404 0
M  V30 176 H 11.0509 -1.76924 -1.87232 0
M  V30 177 H 11.0089 -0.547704 -3.09593 0
M  V30 178 N 14.781 0.264519 -1.55364 0
M  V30 179 C 16.192 0.834936 -1.6699 0
M  V30 180 C 16.543 1.86718 -0.602552 0
M  V30 181 O 15.668 2.14899 0.254425 0
M  V30 182 C 16.263 1.5212 -3.02729 0
M  V30 183 C 14.822 2.03954 -3.16354 0
M  V30 184 C 13.969 0.884498 -2.62815 0
M  V30 185 H 16.92 0.0406869 -1.58648 0
M  V30 186 H 16.941 2.38853 -2.96191 0
M  V30 187 H 16.453 0.769668 -3.80392 0
M  V30 188 H 14.554 2.82041 -2.43482 0
M  V30 189 H 14.667 2.24902 -4.23032 0
M  V30 190 H 13.031 1.2802 -2.20188 0
M  V30 191 H 13.814 0.14634 -3.42988 0
M  V30 192 N 16.2591 1.48442 0.529413 0
M  V30 193 C 17.1891 1.65902 1.64313 0
M  V30 194 C 18.1701 0.507897 1.6234 0
M  V30 195 O 19.3551 0.740503 1.79528 0
M  V30 196 C 16.4851 1.69911 3.02898 0
M  V30 197 C 15.4391 2.8453 3.19729 0
M  V30 198 C 14.7651 2.73629 4.59381 0
M  V30 199 C 16.0651 4.25821 3.02447 0
M  V30 200 H 17.7591 2.5914 1.49955 0
M  V30 201 H 15.3051 1.24709 0.719982 0
M  V30 202 H 17.2581 1.80715 3.80684 0
M  V30 203 H 15.9821 0.732524 3.18279 0
M  V30 204 H 14.6411 2.73283 2.44361 0
M  V30 205 H 14.2891 1.74938 4.71599 0
M  V30 206 H 13.9891 3.50541 4.71588 0
M  V30 207 H 15.5131 2.86401 5.39265 0
M  V30 208 H 16.9271 4.37898 3.70024 0
M  V30 209 H 15.3241 5.03735 3.26146 0
M  V30 210 H 16.3941 4.42244 1.98867 0
M  V30 211 N 17.7372 -0.778329 1.37039 0
M  V30 212 C 19.0142 -1.52551 1.22424 0
M  V30 213 C 19.3942 -2.10288 -0.184964 0
M  V30 214 O 18.7422 -1.94953 -1.19187 0
M  V30 215 C 18.9522 -2.61164 2.31504 0
M  V30 216 C 20.3002 -3.28746 2.68721 0
M  V30 217 O 21.3242 -2.71455 2.30631 0
M  V30 218 O 20.1832 -4.3231 3.3432 0
M  V30 219 H 17.2772 -0.675343 0.477326 0
M  V30 220 H 19.8232 -0.815859 1.48801 0
M  V30 221 H 18.5952 -2.16574 3.25901 0
M  V30 222 H 18.2182 -3.39737 2.06554 0
M  V30 223 N 19.2153 -1.21501 -1.00376 0
M  V30 224 C 20.1783 -0.976927 -2.07337 0
M  V30 225 C 21.1783 0.0525322 -1.60714 0
M  V30 226 O 22.3683 -0.184869 -1.73216 0
M  V30 227 C 19.5003 -0.473423 -3.37597 0
M  V30 228 H 20.6933 -1.92587 -2.29892 0
M  V30 229 H 18.2463 -1.03217 -1.17371 0
M  V30 230 H 18.9813 0.480379 -3.20722 0
M  V30 231 H 18.7663 -1.216 -3.72768 0
M  V30 232 H 20.2563 -0.32675 -4.1632 0
M  V30 233 N 20.6934 1.19889 -1.02296 0
M  V30 234 C 21.9414 1.89046 -0.714558 0
M  V30 235 C 22.2624 1.79636 0.758681 0
M  V30 236 O 21.5324 1.20292 1.54618 0
M  V30 237 H 20.1124 0.699802 -0.261317 0
M  V30 238 H 22.7744 1.45574 -1.29592 0
M  V30 239 H 21.8704 2.95524 -1.0036 0
M  V30 240 N 22.1715 0.800033 1.35784 0
M  V30 241 C 23.1345 0.211565 2.28221 0
M  V30 242 C 24.1345 -0.59728 1.49296 0
M  V30 243 O 25.3245 -0.416721 1.69142 0
M  V30 244 C 22.4565 -0.705846 3.33513 0
M  V30 245 H 23.6495 1.02677 2.81776 0
M  V30 246 H 21.2025 0.570211 1.45528 0
M  V30 247 H 21.9375 -1.54498 2.85133 0
M  V30 248 H 21.7225 -0.127655 3.91892 0
M  V30 249 H 23.2125 -1.11211 4.02519 0
M  V30 250 N 23.6496 -1.47581 0.552962 0
M  V30 251 C 24.6126 -2.28439 -0.186605 0
M  V30 252 C 25.6126 -1.36706 -0.84665 0
M  V30 253 O 26.8026 -1.59378 -0.703164 0
M  V30 254 C 23.9346 -3.16264 -1.2724 0
M  V30 255 H 25.1276 -2.95294 0.523609 0
M  V30 256 H 22.6806 -1.532 0.309745 0
M  V30 257 H 23.4156 -2.54091 -2.01514 0
M  V30 258 H 23.2006 -3.83769 -0.803968 0
M  V30 259 H 24.6906 -3.77198 -1.79196 0
M  V30 260 N 25.1277 -0.289203 -1.54924 0
M  V30 261 C 26.0377 0.601863 -2.26748 0
M  V30 262 C 27.0537 1.15834 -1.2984 0
M  V30 263 O 28.2297 1.18564 -1.62802 0
M  V30 264 C 25.2947 1.76299 -2.98529 0
M  V30 265 C 24.3557 1.24178 -4.10948 0
M  V30 266 C 23.5887 2.34757 -4.79296 0
M  V30 267 O 23.8117 3.54411 -4.46933 0
M  V30 268 O 22.7457 2.02115 -5.66951 0
M  V30 269 H 26.5717 0.0195879 -3.03694 0
M  V30 270 H 24.1567 -0.0560868 -1.49295 0
M  V30 271 H 26.0387 2.43973 -3.43592 0
M  V30 272 H 24.7137 2.33209 -2.24488 0
M  V30 273 H 23.6207 0.531104 -3.70311 0
M  V30 274 H 24.9537 0.718252 -4.86931 0
M  V30 275 N 26.6058 1.57591 -0.0167156 0
M  V30 276 C 28.0168 1.79201 0.523834 0
M  V30 277 C 28.3678 0.925796 1.72984 0
M  V30 278 O 27.4928 0.132792 2.15992 0
M  V30 279 C 28.0878 3.25 0.957091 0
M  V30 280 C 26.6468 3.47648 1.44283 0
M  V30 281 C 25.7938 2.74374 0.401757 0
M  V30 282 H 28.7448 1.56831 -0.242816 0
M  V30 283 H 28.7658 3.34031 1.82219 0
M  V30 284 H 28.2778 3.88019 0.0791415 0
M  V30 285 H 26.3788 2.89866 2.34113 0
M  V30 286 H 26.4918 4.56352 1.45877 0
M  V30 287 H 24.8558 2.39485 0.867121 0
M  V30 288 H 25.6388 3.40102 -0.467513 0
M  V30 289 N 28.0839 -0.256276 1.55502 0
M  V30 290 C 29.3329 -0.983486 1.76098 0
M  V30 291 C 29.6459 -1.86837 0.578896 0
M  V30 292 O 30.8519 -2.63163 0.667648 0
M  V30 293 C 29.3079 -1.79868 3.1173 0
M  V30 294 C 28.9159 -0.961648 4.37557 0
M  V30 295 C 30.6599 -2.51919 3.41668 0
M  V30 296 C 28.5669 -1.77219 5.64223 0
M  V30 297 H 27.4969 -0.370936 0.656447 0
M  V30 298 H 30.1479 -0.238492 1.81944 0
M  V30 299 H 28.5299 -2.58527 2.99966 0
M  V30 300 H 29.7039 -0.218048 4.60284 0
M  V30 301 H 28.0189 -0.354913 4.14885 0
M  V30 302 H 30.6159 -3.12998 4.33516 0
M  V30 303 H 30.9589 -3.23059 2.62562 0
M  V30 304 H 31.4919 -1.80278 3.54605 0
M  V30 305 H 28.2309 -1.10471 6.46124 0
M  V30 306 H 27.7509 -2.49132 5.45613 0
M  V30 307 H 29.4299 -2.34169 6.03137 0
M  V30 308 N 29.562 -1.4872 -0.521534 0
M  V30 309 C 30.525 -1.63379 -1.60748 0
M  V30 310 C 31.525 -0.50661 -1.52611 0
M  V30 311 O 32.715 -0.772601 -1.5613 0
M  V30 312 C 29.847 -1.61192 -3.00383 0
M  V30 313 H 31.04 -2.60217 -1.49087 0
M  V30 314 H 28.593 -1.37444 -0.744235 0
M  V30 315 H 29.328 -0.65863 -3.17541 0
M  V30 316 H 29.113 -2.43032 -3.07698 0
M  V30 317 H 30.603 -1.7466 -3.7932 0
M  V30 318 N 31.0401 0.771051 -1.3745 0
M  V30 319 C 32.2651 1.56529 -1.36065 0
M  V30 320 C 32.6901 1.88029 0.0515859 0
M  V30 321 O 32.0481 1.49282 1.02882 0
M  V30 322 C 32.0961 2.85187 -2.20683 0
M  V30 323 O 31.2001 3.79593 -1.61193 0
M  V30 324 H 30.5411 0.47411 -0.464883 0
M  V30 325 H 33.0711 0.954269 -1.80983 0
M  V30 326 H 33.0811 3.34283 -2.33921 0
M  V30 327 H 31.7561 2.61588 -3.23334 0
M  V30 328 H 30.3331 3.38239 -1.56999 0
M  V30 329 N 32.5182 1.22032 0.997298 0
M  V30 330 C 33.9342 0.979326 1.26021 0
M  V30 331 C 34.1342 -0.32972 1.98784 0
M  V30 332 O 33.1902 -1.05345 2.29475 0
M  V30 333 C 34.5032 2.17509 2.07631 0
M  V30 334 C 36.0512 2.21817 2.2083 0
M  V30 335 C 36.5262 3.40933 3.05825 0
M  V30 336 N 38.0172 3.41067 3.13412 0
M  V30 337 C 38.7522 4.29885 3.79455 0
M  V30 338 N 38.2482 5.28914 4.47462 0
M  V30 339 N 40.0412 4.17673 3.76173 0
M  V30 340 H 32.1922 2.06202 0.509352 0
M  V30 341 H 34.4552 0.90334 0.287541 0
M  V30 342 H 34.1612 3.12415 1.61524 0
M  V30 343 H 34.0352 2.17206 3.08385 0
M  V30 344 H 36.4222 1.27462 2.66153 0
M  V30 345 H 36.5032 2.2616 1.1952 0
M  V30 346 H 36.1472 4.35586 2.61203 0
M  V30 347 H 36.0772 3.33829 4.07266 0
M  V30 348 H 38.5682 2.69406 2.65007 0
M  V30 349 H 38.8812 5.92973 4.95583 0
M  V30 350 H 37.2262 5.32831 4.46224 0
M  V30 351 H 40.4172 3.39564 3.22202 0
M  V30 352 H 40.5902 4.87098 4.27363 0
M  V30 353 N 33.9963 -1.19345 1.0293 0
M  V30 354 C 34.9593 -2.20793 0.615069 0
M  V30 355 C 35.9593 -1.57553 -0.321533 0
M  V30 356 O 37.1493 -1.73862 -0.108483 0
M  V30 357 C 34.2813 -3.40754 -0.0999222 0
M  V30 358 H 35.4743 -2.58955 1.51269 0
M  V30 359 H 33.0273 -1.3303 0.820534 0
M  V30 360 H 33.7623 -3.0811 -1.01187 0
M  V30 361 H 33.5473 -3.87889 0.57309 0
M  V30 362 H 35.0373 -4.15898 -0.376645 0
M  V30 363 N 35.4744 -0.807222 -1.35358 0
M  V30 364 C 36.6994 -0.399309 -2.0352 0
M  V30 365 C 37.1244 0.981986 -1.60433 0
M  V30 366 O 36.4824 1.63601 -0.781299 0
M  V30 367 C 36.5304 -0.491552 -3.57234 0
M  V30 368 O 35.6344 0.494754 -4.09421 0
M  V30 369 H 34.9754 -0.166682 -0.642739 0
M  V30 370 H 37.5054 -1.09328 -1.72941 0
M  V30 371 H 37.5154 -0.361588 -4.06395 0
M  V30 372 H 36.1904 -1.49907 -3.87944 0
M  V30 373 H 34.7674 0.324977 -3.71481 0
M  V30 374 N 36.9525 1.47285 -0.560781 0
M  V30 375 C 38.3685 1.58065 -0.22081 0
M  V30 376 C 38.5685 1.55892 1.27671 0
M  V30 377 O 37.6245 1.46422 2.0571 0
M  V30 378 C 38.9375 2.88418 -0.850625 0
M  V30 379 C 40.4855 3.02009 -0.822184 0
M  V30 380 C 40.9605 4.35066 -1.43113 0
M  V30 381 N 42.4515 4.41711 -1.39448 0
M  V30 382 C 43.1865 5.43237 -1.83525 0
M  V30 383 N 42.6825 6.51555 -2.35474 0
M  V30 384 N 44.4755 5.34304 -1.74574 0
M  V30 385 H 36.6265 1.46941 -1.53369 0
M  V30 386 H 38.8895 0.699558 -0.639783 0
M  V30 387 H 38.5955 2.95755 -1.9032 0
M  V30 388 H 38.4695 3.75612 -0.345773 0
M  V30 389 H 40.8565 2.94266 0.221714 0
M  V30 390 H 40.9375 2.16347 -1.36483 0
M  V30 391 H 40.5815 4.43565 -2.47412 0
M  V30 392 H 40.5115 5.19465 -0.863899 0
M  V30 393 H 43.0025 3.64027 -1.01452 0
M  V30 394 H 43.3155 7.25203 -2.67021 0
M  V30 395 H 41.6605 6.52435 -2.39487 0
M  V30 396 H 44.8515 4.48581 -1.33763 0
M  V30 397 H 45.0245 6.13288 -2.09242 0
M  V30 398 N 38.4306 0.297415 1.54768 0
M  V30 399 C 39.3606 -0.573494 2.26348 0
M  V30 400 C 40.3416 -1.14085 1.26169 0
M  V30 401 O 41.5266 -1.17086 1.54934 0
M  V30 402 C 38.6566 -1.74716 3.00153 0
M  V30 403 C 37.6106 -1.31032 4.07449 0
M  V30 404 C 36.9366 -2.56887 4.68949 0
M  V30 405 C 38.2366 -0.444183 5.20408 0
M  V30 406 H 39.9306 0.0235131 2.99391 0
M  V30 407 H 37.4766 0.0127488 1.43994 0
M  V30 408 H 39.4296 -2.3625 3.48947 0
M  V30 409 H 38.1536 -2.37035 2.24682 0
M  V30 410 H 36.8126 -0.718066 3.59499 0
M  V30 411 H 36.4606 -3.17512 3.90122 0
M  V30 412 H 36.1606 -2.2836 5.41411 0
M  V30 413 H 37.6846 -3.19229 5.20505 0
M  V30 414 H 39.0986 -0.9651 5.65118 0
M  V30 415 H 37.4956 -0.252846 5.99567 0
M  V30 416 H 38.5656 0.531609 4.81977 0
M  V30 417 N 39.9087 -1.5758 0.0250728 0
M  V30 418 C 40.8567 -2.11125 -0.97617 0
M  V30 419 C 41.8507 -1.03689 -1.33959 0
M  V30 420 O 43.0567 -1.22128 -1.3223 0
M  V30 421 H 39.4317 -0.674468 -0.332561 0
M  V30 422 H 41.4027 -2.94194 -0.499223 0
M  V30 423 C 40.1517 -2.65017 -2.2508 0
M  V30 424 H 39.4747 -3.47333 -1.9799 0
M  V30 425 H 40.9147 -3.06133 -2.93357 0
M  V30 426 C 39.3737 -1.57574 -2.97779 0
M  V30 427 O 39.9037 -0.973203 -3.89733 0
M  V30 428 N 38.1097 -1.29716 -2.60043 0
M  V30 429 H 37.6567 -1.789 -1.85345 0
M  V30 430 H 37.6147 -0.58051 -3.08994 0
M  V30 431 N 41.3868 0.248026 -1.55636 0
M  V30 432 C 42.3168 1.31079 -1.93237 0
M  V30 433 C 43.2978 1.50264 -0.797174 0
M  V30 434 O 44.4828 1.62891 -1.05737 0
M  V30 435 C 41.6128 2.66575 -2.22609 0
M  V30 436 C 40.5668 2.62087 -3.3837 0
M  V30 437 C 39.8928 4.01369 -3.53281 0
M  V30 438 C 41.1928 2.19171 -4.7409 0
M  V30 439 H 42.8868 0.998556 -2.82257 0
M  V30 440 H 40.4328 0.47891 -1.35803 0
M  V30 441 H 42.3858 3.41057 -2.47503 0
M  V30 442 H 41.1098 2.99432 -1.30414 0
M  V30 443 H 39.7688 1.90063 -3.13483 0
M  V30 444 H 39.4168 4.31489 -2.58508 0
M  V30 445 H 39.1168 3.99254 -4.31127 0
M  V30 446 H 40.6408 4.77552 -3.80495 0
M  V30 447 H 42.0548 2.83384 -4.98363 0
M  V30 448 H 40.4518 2.2817 -5.5503 0
M  V30 449 H 41.5218 1.14336 -4.71227 0
M  V30 450 N 42.8649 1.48995 0.513639 0
M  V30 451 C 44.1119 1.57843 1.26854 0
M  V30 452 C 44.4399 0.259501 1.92761 0
M  V30 453 O 43.6949 -0.75159 1.80692 0
M  V30 454 C 43.9939 2.67756 2.36731 0
M  V30 455 C 43.6599 4.09669 1.88368 0
M  V30 456 C 42.3219 4.48291 1.74896 0
M  V30 457 C 44.6739 4.98537 1.52021 0
M  V30 458 C 42.0019 5.73568 1.23438 0
M  V30 459 C 44.3539 6.24319 1.0202 0
M  V30 460 C 43.0179 6.61783 0.871778 0
M  V30 461 H 42.2879 0.577587 0.464192 0
M  V30 462 H 44.9349 1.82778 0.571366 0
M  V30 463 H 43.2399 2.36743 3.12185 0
M  V30 464 H 44.9369 2.71813 2.9482 0
M  V30 465 H 41.5269 3.79176 1.99808 0
M  V30 466 H 45.7109 4.69363 1.61281 0
M  V30 467 H 40.9669 6.01304 1.10648 0
M  V30 468 H 45.1409 6.92566 0.729722 0
M  V30 469 H 42.7679 7.5874 0.470852 0
M  V30 470 N 44.343 -0.763751 1.37857 0
M  V30 471 C 45.59 -1.52257 1.33506 0
M  V30 472 C 45.918 -1.94343 -0.078022 0
M  V30 473 O 45.173 -1.64958 -1.05297 0
M  V30 474 C 45.472 -2.79499 2.22745 0
M  V30 475 C 45.138 -2.56426 3.70886 0
M  V30 476 C 43.8 -2.49842 4.11257 0
M  V30 477 C 46.152 -2.36008 4.64704 0
M  V30 478 C 43.48 -2.20841 5.43549 0
M  V30 479 C 45.832 -2.0853 5.97242 0
M  V30 480 C 44.496 -2.00396 6.36709 0
M  V30 481 H 43.766 -0.557149 0.488534 0
M  V30 482 H 46.413 -0.879073 1.70131 0
M  V30 483 H 44.718 -3.48447 1.79142 0
M  V30 484 H 46.415 -3.37413 2.16688 0
M  V30 485 H 43.005 -2.62416 3.38874 0
M  V30 486 H 47.189 -2.40079 4.34368 0
M  V30 487 H 42.445 -2.13045 5.73081 0
M  V30 488 H 46.619 -1.91732 6.69486 0
M  V30 489 H 44.246 -1.77688 7.39142 0
M  V30 490 N 45.8211 -1.22559 -0.990812 0
M  V30 491 C 46.7531 -0.955325 -2.08342 0
M  V30 492 C 47.7661 0.0668408 -1.62663 0
M  V30 493 O 48.9551 -0.167421 -1.77713 0
M  V30 494 C 46.0551 -0.415566 -3.36342 0
M  V30 495 C 45.2281 -1.49544 -4.11042 0
M  V30 496 C 44.2871 -0.962399 -5.17324 0
M  V30 497 O 43.3131 -1.64907 -5.44788 0
M  V30 498 N 44.5151 0.215134 -5.80101 0
M  V30 499 H 47.2801 -1.89596 -2.32106 0
M  V30 500 H 44.8411 -1.13276 -1.15673 0
M  V30 501 H 46.8331 -0.0442386 -4.04676 0
M  V30 502 H 45.4031 0.430232 -3.09625 0
M  V30 503 H 44.6231 -2.04 -3.37309 0
M  V30 504 H 45.9111 -2.22195 -4.57719 0
M  V30 505 H 45.3091 0.789779 -5.6016 0
M  V30 506 H 43.8661 0.527826 -6.49659 0
M  V30 507 N 47.2992 1.18797 -1.03562 0
M  V30 508 C 48.5472 1.88278 -0.734569 0
M  V30 509 C 48.8682 1.8043 0.739586 0
M  V30 510 O 48.1382 1.21925 1.53333 0
M  V30 511 H 46.7182 0.696991 -0.268725 0
M  V30 512 H 49.3802 1.44192 -1.31129 0
M  V30 513 H 48.4762 2.94443 -1.03489 0
M  V30 514 N 48.7773 0.814389 1.34928 0
M  V30 515 C 49.7243 0.22822 2.29669 0
M  V30 516 C 50.6943 -0.642164 1.53184 0
M  V30 517 O 51.8793 -0.585605 1.81591 0
M  V30 518 C 49.0193 -0.61089 3.3965 0
M  V30 519 C 48.1323 0.280792 4.31086 0
M  V30 520 C 47.2673 -0.567067 5.28165 0
M  V30 521 C 46.3063 0.324531 6.11239 0
M  V30 522 N 45.4433 -0.483756 7.00431 0
M  V30 523 H 50.2833 1.04153 2.79206 0
M  V30 524 H 47.8203 0.525133 1.37407 0
M  V30 525 H 49.7783 -1.11263 4.0209 0
M  V30 526 H 48.4083 -1.38939 2.91369 0
M  V30 527 H 47.4603 0.900688 3.69583 0
M  V30 528 H 48.7723 0.966723 4.89342 0
M  V30 529 H 47.9263 -1.13363 5.96015 0
M  V30 530 H 46.6653 -1.28654 4.70425 0
M  V30 531 H 45.6703 0.903298 5.42329 0
M  V30 532 H 46.8953 1.04198 6.71059 0
M  V30 533 H 44.8413 -1.18706 6.45171 0
M  V30 534 H 44.7583 0.143965 7.55863 0
M  V30 535 H 46.0263 -1.03334 7.7262 0
M  V30 536 N 50.2554 -1.46986 0.568584 0
M  V30 537 C 51.6664 -1.86188 0.138219 0
M  V30 538 C 52.0174 -1.47388 -1.29504 0
M  V30 539 O 51.1424 -0.88219 -1.97602 0
M  V30 540 C 51.7374 -3.3792 0.244065 0
M  V30 541 C 50.2964 -3.76171 -0.131335 0
M  V30 542 C 49.4434 -2.71027 0.586465 0
M  V30 543 H 52.3944 -1.38342 0.777645 0
M  V30 544 H 52.4154 -3.76729 -0.534351 0
M  V30 545 H 51.9274 -3.66128 1.28731 0
M  V30 546 H 50.0284 -3.5358 -1.17526 0
M  V30 547 H 50.1414 -4.78523 0.235146 0
M  V30 548 H 48.5054 -2.54684 0.0282722 0
M  V30 549 H 49.2884 -3.02077 1.63109 0
M  V30 550 N 51.7335 -0.305618 -1.54608 0
M  V30 551 C 53.1445 0.186098 -1.8577 0
M  V30 552 C 53.4955 1.53058 -1.22751 0
M  V30 553 O 52.6205 2.09888 -0.526893 0
M  V30 554 C 53.2155 0.344449 -3.37044 0
M  V30 555 C 51.7745 0.780384 -3.68221 0
M  V30 556 C 50.9215 -0.108554 -2.77087 0
M  V30 557 H 53.8725 -0.526485 -1.49712 0
M  V30 558 H 53.8935 1.17828 -3.61796 0
M  V30 559 H 53.4055 -0.634235 -3.82883 0
M  V30 560 H 51.5065 1.76945 -3.27904 0
M  V30 561 H 51.6195 0.596572 -4.75371 0
M  V30 562 H 49.9835 0.412931 -2.5133 0
M  V30 563 H 50.7665 -1.08368 -3.25747 0
M  V30 564 N 53.2116 1.57565 -0.0334293 0
M  V30 565 C 54.4586 1.91978 0.644272 0
M  V30 566 C 54.7866 0.910231 1.71887 0
M  V30 567 O 54.0416 -0.0801961 1.95536 0
M  V30 568 C 54.3406 3.33112 1.29504 0
M  V30 569 C 54.0066 4.49537 0.350388 0
M  V30 570 C 52.6686 4.81115 0.0903974 0
M  V30 571 C 55.0206 5.20347 -0.298032 0
M  V30 572 C 52.3486 5.8086 -0.825746 0
M  V30 573 C 54.7006 6.2107 -1.20226 0
M  V30 574 C 53.3646 6.51088 -1.4711 0
M  V30 575 H 52.6346 0.702496 0.235756 0
M  V30 576 H 55.2816 1.91259 -0.0961176 0
M  V30 577 H 53.5866 3.30113 2.11028 0
M  V30 578 H 55.2836 3.57011 1.82603 0
M  V30 579 H 51.8736 4.24883 0.563205 0
M  V30 580 H 56.0576 4.96178 -0.110234 0
M  V30 581 H 51.3136 6.02461 -1.04169 0
M  V30 582 H 55.4876 6.75057 -1.71086 0
M  V30 583 H 53.1146 7.28193 -2.18264 0
M  V30 584 N 54.6897 -0.239769 1.55765 0
M  V30 585 C 55.6227 -1.32356 1.85895 0
M  V30 586 C 56.6007 -1.46053 0.714662 0
M  V30 587 O 57.7847 -1.62154 0.961157 0
M  V30 588 C 54.9117 -2.6962 2.04994 0
M  V30 589 C 53.9577 -2.73036 3.27648 0
M  V30 590 S 54.7907 -2.28929 4.84099 0
M  V30 591 C 55.9467 -3.68103 5.06212 0
M  V30 592 H 56.1797 -1.06601 2.77531 0
M  V30 593 H 53.7127 -0.441112 1.47965 0
M  V30 594 H 55.6707 -3.48653 2.16682 0
M  V30 595 H 54.3317 -2.92609 1.14188 0
M  V30 596 H 53.5247 -3.7386 3.38 0
M  V30 597 H 53.1267 -2.02052 3.14723 0
M  V30 598 H 55.4187 -4.63656 4.93993 0
M  V30 599 H 56.3617 -3.6268 6.08168 0
M  V30 600 H 56.7697 -3.60947 4.34025 0
M  V30 601 N 56.1678 -1.49265 -0.50573 0
M  V30 602 C 57.3958 -1.62215 -1.28429 0
M  V30 603 C 57.8108 -0.291697 -1.86533 0
M  V30 604 O 57.1678 0.722233 -1.67601 0
M  V30 605 C 57.2188 -2.68735 -2.41793 0
M  V30 606 O 56.9398 -3.96619 -1.86078 0
M  V30 607 C 58.4408 -2.92346 -3.3324 0
M  V30 608 H 55.6608 -0.546239 -0.389697 0
M  V30 609 H 58.2048 -1.95265 -0.607609 0
M  V30 610 H 56.3598 -2.38476 -3.053 0
M  V30 611 H 56.7738 -4.55256 -2.60465 0
M  V30 612 H 58.2478 -3.70623 -4.09075 0
M  V30 613 H 58.7248 -2.02081 -3.89948 0
M  V30 614 H 59.3308 -3.24003 -2.75503 0
M  V30 615 N 57.6459 0.756429 -1.3826 0
M  V30 616 C 58.5779 1.87971 -1.31147 0
M  V30 617 C 59.5909 1.61248 -0.224239 0
M  V30 618 O 60.7799 1.71881 -0.481581 0
M  V30 619 C 57.8799 3.23545 -1.00857 0
M  V30 620 C 57.0529 3.77794 -2.20432 0
M  V30 621 C 56.1119 4.91877 -1.86931 0
M  V30 622 O 55.1379 5.06659 -2.59395 0
M  V30 623 N 56.3399 5.74643 -0.822568 0
M  V30 624 H 59.1049 1.94585 -2.2794 0
M  V30 625 H 56.6659 0.936234 -1.32084 0
M  V30 626 H 58.6579 3.97403 -0.765021 0
M  V30 627 H 57.2279 3.12335 -0.128687 0
M  V30 628 H 56.4479 2.95534 -2.6087 0
M  V30 629 H 57.7359 4.10771 -3.00241 0
M  V30 630 H 57.1339 5.65266 -0.221575 0
M  V30 631 H 55.6909 6.48661 -0.638899 0
M  V30 632 N 59.124 1.23083 0.984299 0
M  V30 633 C 60.056 0.96636 2.07832 0
M  V30 634 C 61.069 -0.0582135 1.62696 0
M  V30 635 O 62.258 0.176843 1.77622 0
M  V30 636 C 59.358 0.433397 3.36117 0
M  V30 637 C 58.531 1.51722 4.10243 0
M  V30 638 C 57.59 0.989821 5.16807 0
M  V30 639 O 56.616 1.67794 5.43906 0
M  V30 640 N 57.818 -0.184367 5.80207 0
M  V30 641 H 60.583 1.90824 2.31098 0
M  V30 642 H 58.144 1.13888 1.1507 0
M  V30 643 H 60.136 0.065699 4.04647 0
M  V30 644 H 58.706 -0.413806 3.09849 0
M  V30 645 H 57.926 2.05786 3.36223 0
M  V30 646 H 59.214 2.24619 4.56534 0
M  V30 647 H 58.612 -0.760062 5.60571 0
M  V30 648 H 57.169 -0.493366 6.4993 0
M  V30 649 N 60.6021 -1.18246 1.0419 0
M  V30 650 C 61.5341 -2.2142 0.592088 0
M  V30 651 C 62.5471 -1.59233 -0.338909 0
M  V30 652 O 63.7361 -1.78002 -0.133231 0
M  V30 653 C 60.8361 -3.38546 -0.154854 0
M  V30 654 C 60.0091 -4.3031 0.784328 0
M  V30 655 C 59.0681 -5.26138 0.0804583 0
M  V30 656 O 58.0941 -5.64738 0.711292 0
M  V30 657 N 59.2961 -5.68261 -1.18574 0
M  V30 658 H 62.0611 -2.60636 1.47949 0
M  V30 659 H 59.6221 -1.33044 0.922544 0
M  V30 660 H 61.6141 -3.99678 -0.635606 0
M  V30 661 H 60.1841 -2.98012 -0.943811 0
M  V30 662 H 59.4041 -3.66764 1.44491 0
M  V30 663 H 60.6921 -4.8852 1.42218 0
M  V30 664 H 60.0901 -5.38957 -1.71876 0
M  V30 665 H 58.6471 -6.31584 -1.61074 0
M  V30 666 N 62.0802 -0.821533 -1.34494 0
M  V30 667 C 63.0132 -0.187704 -2.27427 0
M  V30 668 C 63.9912 0.65507 -1.48821 0
M  V30 669 O 65.1752 0.619111 -1.78043 0
M  V30 670 C 62.3022 0.737996 -3.30562 0
M  V30 671 C 61.3482 -0.0270713 -4.26491 0
M  V30 672 S 62.1812 -1.37329 -5.17592 0
M  V30 673 C 63.3372 -0.452427 -6.24263 0
M  V30 674 H 63.5702 -0.975598 -2.80837 0
M  V30 675 H 61.1032 -0.61736 -1.4152 0
M  V30 676 H 63.0612 1.26654 -3.90473 0
M  V30 677 H 61.7222 1.4994 -2.76001 0
M  V30 678 H 60.9152 0.6766 -4.99438 0
M  V30 679 H 60.5172 -0.48612 -3.70827 0
M  V30 680 H 62.8092 0.356557 -6.76561 0
M  V30 681 H 63.7522 -1.15153 -6.98674 0
M  V30 682 H 64.1602 -0.0414755 -5.64485 0
M  V30 683 N 63.5583 1.46682 -0.576371 0
M  V30 684 C 64.7833 2.07304 -0.0630475 0
M  V30 685 C 65.2083 1.42329 1.2298 0
M  V30 686 O 64.5663 0.504865 1.74129 0
M  V30 687 C 64.6143 3.60472 0.095895 0
M  V30 688 O 63.7183 3.95927 1.15394 0
M  V30 689 H 63.0593 0.661288 -0.0599463 0
M  V30 690 H 65.5893 1.88417 -0.797511 0
M  V30 691 H 65.5993 4.06865 0.304071 0
M  V30 692 H 64.2743 4.07157 -0.84828 0
M  V30 693 H 62.8513 3.61252 0.924724 0
M  V30 694 N 65.0364 0.313813 1.54444 0
M  V30 695 C 66.4474 -0.176243 1.85866 0
M  V30 696 C 66.7984 -1.52405 1.23561 0
M  V30 697 O 65.9234 -2.09605 0.538016 0
M  V30 698 C 66.5184 -0.32657 3.37222 0
M  V30 699 C 65.0774 -0.760846 3.6863 0
M  V30 700 C 64.2244 0.123247 2.77026 0
M  V30 701 H 67.1754 0.534418 1.49431 0
M  V30 702 H 67.1964 -1.15908 3.62416 0
M  V30 703 H 66.7084 0.654531 3.82541 0
M  V30 704 H 64.8094 -1.75204 3.28838 0
M  V30 705 H 64.9224 -0.571353 4.75681 0
M  V30 706 H 63.2864 -0.399597 2.51546 0
M  V30 707 H 64.0694 1.10094 3.25168 0
M  V30 708 N 66.5145 -1.57545 0.0417849 0
M  V30 709 C 67.4445 -2.14009 -0.933929 0
M  V30 710 C 68.4255 -1.05938 -1.33083 0
M  V30 711 O 69.6105 -1.33833 -1.40721 0
M  V30 712 C 66.7405 -2.67747 -2.21199 0
M  V30 713 C 65.6945 -3.80718 -1.95544 0
M  V30 714 C 65.0205 -4.20935 -3.29724 0
M  V30 715 C 66.3205 -5.06258 -1.28452 0
M  V30 716 H 68.0145 -2.95788 -0.463645 0
M  V30 717 H 65.5605 -1.42285 -0.221573 0
M  V30 718 H 67.5135 -3.05886 -2.89848 0
M  V30 719 H 66.2375 -1.83147 -2.70416 0
M  V30 720 H 64.8965 -3.43037 -1.2931 0
M  V30 721 H 64.5445 -3.33298 -3.76724 0
M  V30 722 H 64.2445 -4.9707 -3.13361 0
M  V30 723 H 65.7685 -4.61666 -3.9962 0
M  V30 724 H 67.1825 -5.41903 -1.8712 0
M  V30 725 H 65.5795 -5.87475 -1.22445 0
M  V30 726 H 66.6495 -4.84207 -0.259219 0
M  V30 727 N 67.9926 0.231505 -1.5589 0
M  V30 728 C 69.2176 0.978689 -1.82856 0
M  V30 729 C 69.6426 1.77559 -0.620846 0
M  V30 730 O 69.0006 1.76119 0.430305 0
M  V30 731 C 69.0486 1.87997 -3.07716 0
M  V30 732 O 68.1526 2.97393 -2.85712 0
M  V30 733 H 67.4936 0.277663 -0.603158 0
M  V30 734 H 70.0236 0.24783 -2.03093 0
M  V30 735 H 70.0336 2.2917 -3.37558 0
M  V30 736 H 68.7086 1.29417 -3.95252 0
M  V30 737 H 67.2856 2.60238 -2.67078 0
M  V30 738 N 69.4707 1.49531 0.497807 0
M  V30 739 C 70.8867 1.36365 0.829266 0
M  V30 740 C 71.0867 0.399184 1.97506 0
M  V30 741 O 70.1427 -0.167977 2.51941 0
M  V30 742 C 71.4557 2.77153 1.16647 0
M  V30 743 C 73.0037 2.85877 1.27449 0
M  V30 744 C 73.4787 4.2744 1.64497 0
M  V30 745 N 74.9697 4.30265 1.7154 0
M  V30 746 C 75.7047 5.3677 2.01656 0
M  V30 747 N 75.2007 6.53516 2.29976 0
M  V30 748 N 76.9937 5.24189 2.02934 0
M  V30 749 H 69.1447 2.10831 -0.257703 0
M  V30 750 H 71.4077 0.946534 -0.0527091 0
M  V30 751 H 71.1137 3.49442 0.397872 0
M  V30 752 H 70.9877 3.12722 2.10915 0
M  V30 753 H 73.3747 2.13824 2.0338 0
M  V30 754 H 73.4557 2.53887 0.312244 0
M  V30 755 H 73.0997 5.00021 0.891151 0
M  V30 756 H 73.0297 4.56896 2.61827 0
M  V30 757 H 75.5207 3.4607 1.51802 0
M  V30 758 H 75.8337 7.30506 2.52153 0
M  V30 759 H 74.1787 6.56737 2.27425 0
M  V30 760 H 77.3697 4.31988 1.80289 0
M  V30 761 H 77.5427 6.07286 2.26071 0
M  V30 762 N 70.9488 -0.749086 1.3866 0
M  V30 763 C 71.8588 -1.89358 1.38494 0
M  V30 764 C 72.8748 -1.71708 0.281476 0
M  V30 765 O 74.0508 -1.94554 0.520643 0
M  V30 766 C 71.1158 -3.24782 1.21316 0
M  V30 767 C 70.1768 -3.54926 2.41508 0
M  V30 768 C 69.4098 -4.83888 2.2514 0
M  V30 769 O 69.6328 -5.56592 1.24746 0
M  V30 770 O 68.5668 -5.13612 3.13826 0
M  V30 771 H 72.3928 -1.92452 2.34938 0
M  V30 772 H 69.9778 -0.894981 1.19626 0
M  V30 773 H 71.8598 -4.05739 1.13814 0
M  V30 774 H 70.5348 -3.2249 0.279592 0
M  V30 775 H 69.4418 -2.74112 2.54585 0
M  V30 776 H 70.7748 -3.61983 3.3351 0
M  V30 777 N 72.4269 -1.23603 -0.977757 0
M  V30 778 C 73.6749 -1.06759 -1.71601 0
M  V30 779 C 73.9959 0.395929 -1.90938 0
M  V30 780 O 73.2659 1.28356 -1.47992 0
M  V30 781 H 71.8459 -0.392062 -0.635843 0
M  V30 782 H 74.5079 -1.55362 -1.1768 0
M  V30 783 H 73.6039 -1.55763 -2.70452 0
M  V30 784 N 73.905 1.17692 -1.04816 0
M  V30 785 C 75.154 1.87192 -0.751132 0
M  V30 786 C 75.467 1.8169 0.724441 0
M  V30 787 O 76.673 2.46625 1.13527 0
M  V30 788 C 75.129 3.35857 -1.29338 0
M  V30 789 C 74.737 3.4987 -2.79812 0
M  V30 790 C 76.481 4.10709 -1.07322 0
M  V30 791 C 74.388 4.92536 -3.27356 0
M  V30 792 H 73.318 0.701162 -0.277288 0
M  V30 793 H 75.969 1.32932 -1.26496 0
M  V30 794 H 74.351 3.89631 -0.707376 0
M  V30 795 H 75.525 3.06332 -3.44235 0
M  V30 796 H 73.84 2.88433 -3.00325 0
M  V30 797 H 76.437 5.15952 -1.4035 0
M  V30 798 H 76.78 4.16299 -0.0108001 0
M  V30 799 H 77.313 3.6313 -1.62423 0
M  V30 800 H 74.052 4.92119 -4.33012 0
M  V30 801 H 73.572 5.3676 -2.67673 0
M  V30 802 H 75.251 5.61288 -3.21815 0
M  V30 803 N 75.3831 0.828654 1.34056 0
M  V30 804 C 76.3131 0.269443 2.3194 0
M  V30 805 C 77.2941 -0.617247 1.58506 0
M  V30 806 O 78.4791 -0.542931 1.86456 0
M  V30 807 C 75.6091 -0.564793 3.42677 0
M  V30 808 C 74.5631 0.225241 4.27407 0
M  V30 809 C 73.8891 -0.7321 5.29664 0
M  V30 810 C 75.1891 1.43663 5.02154 0
M  V30 811 H 76.8831 1.08728 2.7896 0
M  V30 812 H 74.4291 0.524283 1.34117 0
M  V30 813 H 76.3821 -0.966233 4.10173 0
M  V30 814 H 75.1061 -1.41574 2.9432 0
M  V30 815 H 73.7651 0.608117 3.61521 0
M  V30 816 H 73.4131 -1.57916 4.77568 0
M  V30 817 H 73.1131 -0.20767 5.87233 0
M  V30 818 H 74.6371 -1.13128 6.00029 0
M  V30 819 H 76.0511 1.1089 5.62473 0
M  V30 820 H 74.4481 1.89711 5.69324 0
M  V30 821 H 75.5181 2.21181 4.31517 0
M  V30 822 N 76.8612 -1.46375 0.584142 0
M  V30 823 C 78.1382 -1.956 0.0033388 0
M  V30 824 C 78.5182 -1.52679 -1.45782 0
M  V30 825 O 77.8662 -0.77816 -2.14842 0
M  V30 826 C 78.0762 -3.48551 0.176891 0
M  V30 827 C 79.4242 -4.24576 0.0454609 0
M  V30 828 O 80.4482 -3.56043 0.105801 0
M  V30 829 O 79.3072 -5.46427 -0.0890376 0
M  V30 830 H 76.4012 -0.825547 -0.0490066 0
M  V30 831 H 78.9472 -1.56652 0.65256 0
M  V30 832 H 77.7192 -3.72683 1.1926 0
M  V30 833 H 77.3422 -3.94332 -0.508695 0
M  V30 834 N 78.3393 -0.321999 -1.54275 0
M  V30 835 C 79.3023 0.531975 -2.22941 0
M  V30 836 C 80.3023 1.04478 -1.22234 0
M  V30 837 O 81.4923 0.937452 -1.46825 0
M  V30 838 C 78.6243 1.73874 -2.93224 0
M  V30 839 H 79.8173 -0.0682612 -2.99822 0
M  V30 840 H 77.3703 -0.0730644 -1.56129 0
M  V30 841 H 78.1053 2.37825 -2.20476 0
M  V30 842 H 77.8903 1.37847 -3.6707 0
M  V30 843 H 79.3803 2.34496 -3.45545 0
M  V30 844 N 79.8174 1.5752 -0.0501392 0
M  V30 845 C 80.7474 2.14502 0.922566 0
M  V30 846 C 81.7284 1.06642 1.3252 0
M  V30 847 O 82.9134 1.34577 1.4001 0
M  V30 848 C 80.0434 2.68916 2.19776 0
M  V30 849 C 78.9974 3.8175 1.93523 0
M  V30 850 C 78.3234 4.22677 3.27487 0
M  V30 851 C 79.6234 5.06932 1.25765 0
M  V30 852 H 81.3174 2.9603 0.447952 0
M  V30 853 H 78.8634 1.42401 0.214024 0
M  V30 854 H 80.8164 3.07419 2.88222 0
M  V30 855 H 79.5404 1.84578 2.69441 0
M  V30 856 H 78.1994 3.43718 1.27489 0
M  V30 857 H 77.8474 3.35291 3.74952 0
M  V30 858 H 77.5474 4.98725 3.1072 0
M  V30 859 H 79.0714 4.63779 3.97166 0
M  V30 860 H 80.4854 5.42888 1.84244 0
M  V30 861 H 78.8824 5.88116 1.19328 0
M  V30 862 H 79.9524 4.84337 0.233536 0
M  V30 863 N 81.2955 -0.223234 1.56011 0
M  V30 864 C 82.5425 -0.947875 1.78946 0
M  V30 865 C 82.8705 -1.844 0.618608 0
M  V30 866 O 82.1255 -1.91629 -0.397093 0
M  V30 867 C 82.4245 -1.81948 3.0762 0
M  V30 868 C 82.0905 -1.07672 4.37856 0
M  V30 869 C 80.7525 -0.871544 4.73242 0
M  V30 870 C 83.1045 -0.552081 5.18268 0
M  V30 871 C 80.4325 -0.129791 5.86556 0
M  V30 872 C 82.7845 0.17632 6.32354 0
M  V30 873 C 81.4485 0.39277 6.66343 0
M  V30 874 H 80.7185 -0.346852 0.654809 0
M  V30 875 H 83.3655 -0.216171 1.90276 0
M  V30 876 H 81.6705 -2.61899 2.91404 0
M  V30 877 H 83.3675 -2.38227 3.22566 0
M  V30 878 H 79.9575 -1.24662 4.1007 0
M  V30 879 H 84.1415 -0.698076 4.91366 0
M  V30 880 H 79.3975 0.048153 6.11381 0
M  V30 881 H 83.5715 0.590367 6.93893 0
M  V30 882 H 81.1985 0.969466 7.53993 0
M  V30 883 N 82.7736 -1.49793 -0.48987 0
M  V30 884 C 84.0196 -1.60078 -1.24511 0
M  V30 885 C 84.3526 -0.291608 -1.91998 0
M  V30 886 O 83.6276 0.705647 -1.81248 0
M  V30 887 C 83.9106 -2.76791 -2.30345 0
M  V30 888 C 83.7636 -4.17535 -1.67286 0
M  V30 889 C 85.0826 -2.89111 -3.31817 0
M  V30 890 H 82.2016 -0.582645 -0.451324 0
M  V30 891 H 84.8436 -1.82117 -0.541612 0
M  V30 892 H 82.9936 -2.5813 -2.90346 0
M  V30 893 H 84.6656 -4.4774 -1.11026 0
M  V30 894 H 82.9086 -4.22665 -0.976577 0
M  V30 895 H 83.5796 -4.95094 -2.44103 0
M  V30 896 H 86.0556 -3.06133 -2.81819 0
M  V30 897 H 84.9316 -3.72433 -4.03219 0
M  V30 898 H 85.1926 -1.9893 -3.94815 0
M  V30 899 N 84.2517 0.741722 -1.39055 0
M  V30 900 C 85.1817 1.869 -1.39966 0
M  V30 901 C 86.1627 1.6804 -0.26392 0
M  V30 902 O 87.3477 1.88458 -0.468755 0
M  V30 903 C 84.4777 3.24572 -1.23574 0
M  V30 904 C 83.4317 3.58056 -2.34477 0
M  V30 905 C 82.7577 4.94593 -2.0318 0
M  V30 906 C 84.0577 3.61716 -3.76774 0
M  V30 907 H 85.7517 1.86395 -2.34302 0
M  V30 908 H 83.2977 0.895361 -1.1278 0
M  V30 909 H 85.2507 4.031 -1.22834 0
M  V30 910 H 83.9747 3.25587 -0.257045 0
M  V30 911 H 82.6337 2.81854 -2.34423 0
M  V30 912 H 82.2817 4.92181 -1.03765 0
M  V30 913 H 81.9817 5.17964 -2.77465 0
M  V30 914 H 83.5057 5.75486 -2.04079 0
M  V30 915 H 84.9197 4.30335 -3.78794 0
M  V30 916 H 83.3167 3.96603 -4.50362 0
M  V30 917 H 84.3867 2.61672 -4.08235 0
M  V30 918 N 85.7298 1.2412 0.971189 0
M  V30 919 C 86.9768 1.07881 1.71371 0
M  V30 920 C 87.3048 -0.382901 1.90694 0
M  V30 921 O 86.5598 -1.29945 1.46331 0
M  V30 922 C 86.8588 1.75983 3.11071 0
M  V30 923 C 86.5248 3.25909 3.11599 0
M  V30 924 C 85.1868 3.66813 3.11451 0
M  V30 925 C 87.5388 4.21771 3.062 0
M  V30 926 C 84.8668 5.02021 3.03631 0
M  V30 927 C 87.2188 5.56982 2.99923 0
M  V30 928 C 85.8828 5.97237 2.98102 0
M  V30 929 H 85.1528 0.394764 0.62709 0
M  V30 930 H 87.7998 1.54176 1.13587 0
M  V30 931 H 86.1048 1.22072 3.72298 0
M  V30 932 H 87.8018 1.60887 3.6731 0
M  V30 933 H 84.3918 2.93353 3.12477 0
M  V30 934 H 88.5758 3.91172 3.05447 0
M  V30 935 H 83.8318 5.32411 3.0058 0
M  V30 936 H 88.0058 6.30969 2.94704 0
M  V30 937 H 85.6328 7.01967 2.91798 0
M  V30 938 N 87.2079 -1.17134 1.05439 0
M  V30 939 C 88.1179 -2.24878 0.668365 0
M  V30 940 C 89.1339 -1.71186 -0.311687 0
M  V30 941 O 90.3099 -2.00738 -0.163161 0
M  V30 942 C 87.3749 -3.46662 0.051648 0
M  V30 943 C 86.4359 -4.15429 1.08246 0
M  V30 944 C 85.6689 -5.31399 0.495082 0
M  V30 945 O 85.8919 -5.66153 -0.694743 0
M  V30 946 O 84.8259 -5.89187 1.23056 0
M  V30 947 H 88.6519 -2.60189 1.56637 0
M  V30 948 H 86.2369 -1.24482 0.826104 0
M  V30 949 H 88.1189 -4.20394 -0.290966 0
M  V30 950 H 86.7939 -3.13142 -0.819971 0
M  V30 951 H 85.7009 -3.43704 1.47711 0
M  V30 952 H 87.0339 -4.52982 1.92532 0
M  V30 953 N 88.686 -0.835752 -1.33615 0
M  V30 954 C 89.596 -0.269088 -2.33052 0
M  V30 955 C 90.612 0.603251 -1.63208 0
M  V30 956 O 91.788 0.508112 -1.94885 0
M  V30 957 C 88.853 0.549091 -3.42324 0
M  V30 958 C 87.914 -0.347156 -4.27894 0
M  V30 959 C 87.147 0.43207 -5.31948 0
M  V30 960 O 87.37 1.66409 -5.45586 0
M  V30 961 O 86.304 -0.192298 -6.01593 0
M  V30 962 H 90.13 -1.09243 -2.83372 0
M  V30 963 H 87.715 -0.598198 -1.36901 0
M  V30 964 H 89.597 1.01414 -4.09015 0
M  V30 965 H 88.272 1.34955 -2.94226 0
M  V30 966 H 87.179 -0.859979 -3.64081 0
M  V30 967 H 88.512 -1.1123 -4.79467 0
M  V30 968 N 90.1641 1.46063 -0.591896 0
M  V30 969 C 91.4041 2.04228 -0.0838014 0
M  V30 970 C 91.7681 1.45231 1.25587 0
M  V30 971 O 92.9691 1.94653 1.85375 0
M  V30 972 C 91.2401 3.57389 -0.0286282 0
M  V30 973 S 92.7991 4.3678 0.420557 0
M  V30 974 H 89.6171 0.709762 -0.0419319 0
M  V30 975 H 92.2191 1.78983 -0.786465 0
M  V30 976 H 90.9231 3.97843 -1.00743 0
M  V30 977 H 90.4541 3.87185 0.69652 0
M  V30 978 H 92.4691 4.67131 1.67341 0
M  V30 979 N 91.6422 0.330177 1.54103 0
M  V30 980 C 92.8672 -0.274893 2.0557 0
M  V30 981 C 93.2922 -1.44487 1.20437 0
M  V30 982 O 92.6502 -1.80021 0.214991 0
M  V30 983 C 92.6982 -0.68079 3.54115 0
M  V30 984 O 91.8022 -1.7824 3.71893 0
M  V30 985 H 91.1432 -0.0483849 0.662235 0
M  V30 986 H 93.6732 0.480508 1.98878 0
M  V30 987 H 93.6832 -0.961635 3.96505 0
M  V30 988 H 92.3582 0.174903 4.15532 0
M  V30 989 H 90.9352 -1.49985 3.41407 0
M  V30 990 N 93.1203 -1.57491 0.0584922 0
M  V30 991 C 94.0523 -2.08916 -0.942694 0
M  V30 992 C 95.0653 -1.0185 -1.27006 0
M  V30 993 O 96.2543 -1.29398 -1.22957 0
M  V30 994 C 93.3543 -2.52341 -2.26224 0
M  V30 995 C 92.5273 -3.82827 -2.1157 0
M  V30 996 C 91.5863 -4.12487 -3.26712 0
M  V30 997 O 90.6123 -4.82295 -3.02292 0
M  V30 998 N 91.8143 -3.64978 -4.5141 0
M  V30 999 H 94.5793 -2.95437 -0.503722 0
M  V30 1000 H 92.1403 -1.61397 -0.12757 0
M  V30 1001 H 94.1323 -2.69254 -3.02133 0
M  V30 1002 H 92.7023 -1.7103 -2.61663 0
M  V30 1003 H 91.9223 -3.75425 -1.20208 0
M  V30 1004 H 93.2103 -4.68263 -1.99015 0
M  V30 1005 H 92.6083 -3.08558 -4.7414 0
M  V30 1006 H 91.1653 -3.87115 -5.2439 0
M  V30 1007 N 94.5984 0.214957 -1.56127 0
M  V30 1008 C 96.0094 0.781386 -1.69562 0
M  V30 1009 C 96.3604 1.84707 -0.66165 0
M  V30 1010 O 95.4854 2.156 0.185927 0
M  V30 1011 C 96.0804 1.42411 -3.07416 0
M  V30 1012 C 94.6394 1.93786 -3.22683 0
M  V30 1013 C 93.7864 0.800438 -2.65496 0
M  V30 1014 H 96.7374 -0.00980633 -1.58697 0
M  V30 1015 H 96.7584 2.29309 -3.0364 0
M  V30 1016 H 96.2704 0.64826 -3.82648 0
M  V30 1017 H 94.3714 2.74152 -2.52332 0
M  V30 1018 H 94.4844 2.1133 -4.29973 0
M  V30 1019 H 92.8484 1.2095 -2.2415 0
M  V30 1020 H 93.6314 0.0371471 -3.4328 0
M  V30 1021 N 96.0765 1.50051 0.48192 0
M  V30 1022 C 97.0395 1.67584 1.5636 0
M  V30 1023 C 98.0395 0.546894 1.51214 0
M  V30 1024 O 99.2295 0.813725 1.54026 0
M  V30 1025 C 96.3615 1.691 2.96003 0
M  V30 1026 H 97.5545 2.64078 1.42136 0
M  V30 1027 H 95.1075 1.39369 0.707533 0
M  V30 1028 H 95.8425 0.742589 3.15684 0
M  V30 1029 H 95.6275 2.51105 3.01146 0
M  V30 1030 H 97.1175 1.84656 3.74556 0
M  V30 1031 N 97.5546 -0.734337 1.39446 0
M  V30 1032 C 98.4846 -1.86155 1.40955 0
M  V30 1033 C 99.4656 -1.67898 0.272827 0
M  V30 1034 O 100.651 -1.88207 0.478743 0
M  V30 1035 C 97.7806 -3.23912 1.25294 0
M  V30 1036 C 96.7346 -3.56808 2.36373 0
M  V30 1037 C 96.0606 -4.93508 2.058 0
M  V30 1038 C 97.3606 -3.59713 3.78687 0
M  V30 1039 H 99.0546 -1.8515 2.35287 0
M  V30 1040 H 96.6006 -0.889367 1.13253 0
M  V30 1041 H 98.5536 -4.02443 1.2497 0
M  V30 1042 H 97.2776 -3.25446 0.274308 0
M  V30 1043 H 95.9366 -2.80606 2.35914 0
M  V30 1044 H 95.5846 -4.91623 1.06374 0
M  V30 1045 H 95.2846 -5.16486 2.80208 0
M  V30 1046 H 96.8086 -5.74396 2.07128 0
M  V30 1047 H 98.2226 -4.2832 3.81071 0
M  V30 1048 H 96.6196 -3.94209 4.52459 0
M  V30 1049 H 97.6896 -2.59504 4.09617 0
M  V30 1050 N 99.0327 -1.24633 -0.964593 0
M  V30 1051 C 99.9657 -0.984662 -2.05863 0
M  V30 1052 C 100.944 0.0826554 -1.6239 0
M  V30 1053 O 102.128 -0.0549296 -1.8842 0
M  V30 1054 C 99.2547 -0.486529 -3.35187 0
M  V30 1055 C 98.3007 -1.54286 -3.97615 0
M  V30 1056 S 99.1337 -3.12513 -4.34851 0
M  V30 1057 C 100.29 -2.6441 -5.67308 0
M  V30 1058 H 100.523 -1.91104 -2.27743 0
M  V30 1059 H 98.0557 -1.08052 -1.10291 0
M  V30 1060 H 100.014 -0.205757 -4.09984 0
M  V30 1061 H 98.6747 0.419186 -3.1129 0
M  V30 1062 H 97.8677 -1.14481 -4.90826 0
M  V30 1063 H 97.4697 -1.7738 -3.2926 0
M  V30 1064 H 99.7617 -2.07416 -6.44969 0
M  V30 1065 H 100.705 -3.56222 -6.11973 0
M  V30 1066 H 101.113 -2.04734 -5.26065 0
M  V30 1067 N 100.511 1.16574 -1.06058 0
M  V30 1068 C 101.458 2.20883 -0.669263 0
M  V30 1069 C 102.428 1.62729 0.332918 0
M  V30 1070 O 103.613 1.895 0.222346 0
M  V30 1071 C 100.753 3.45049 -0.0593572 0
M  V30 1072 C 99.8658 4.17458 -1.11143 0
M  V30 1073 C 99.0008 5.29135 -0.467916 0
M  V30 1074 C 98.0398 5.93343 -1.50369 0
M  V30 1075 N 97.1768 6.96516 -0.883706 0
M  V30 1076 H 102.017 2.53709 -1.5632 0
M  V30 1077 H 99.5538 1.24616 -0.781625 0
M  V30 1078 H 101.512 4.16033 0.311771 0
M  V30 1079 H 100.142 3.12781 0.797992 0
M  V30 1080 H 99.1938 3.45101 -1.60029 0
M  V30 1081 H 100.506 4.61307 -1.89731 0
M  V30 1082 H 99.6598 6.06684 -0.0436871 0
M  V30 1083 H 98.3988 4.86443 0.349864 0
M  V30 1084 H 97.4038 5.14517 -1.93784 0
M  V30 1085 H 98.6288 6.38114 -2.32352 0
M  V30 1086 H 96.5748 6.55943 -0.086595 0
M  V30 1087 H 96.4918 7.38723 -1.607 0
M  V30 1088 H 97.7598 7.77993 -0.484543 0
M  V30 1089 N 101.989 0.842826 1.3317 0
M  V30 1090 C 103.238 0.436738 1.96915 0
M  V30 1091 C 103.551 -1.01025 1.67491 0
M  V30 1092 O 104.757 -1.5212 2.24881 0
M  V30 1093 C 103.213 0.730021 3.52418 0
M  V30 1094 C 102.821 2.19195 3.90714 0
M  V30 1095 C 104.565 0.391076 4.22695 0
M  V30 1096 C 102.472 2.42907 5.39212 0
M  V30 1097 H 101.402 0.15958 0.736919 0
M  V30 1098 H 104.053 1.03196 1.51733 0
M  V30 1099 H 102.435 0.0643755 3.95948 0
M  V30 1100 H 103.609 2.8984 3.58231 0
M  V30 1101 H 101.924 2.49425 3.33431 0
M  V30 1102 H 104.521 0.545817 5.31907 0
M  V30 1103 H 104.864 -0.666294 4.10933 0
M  V30 1104 H 105.397 1.01212 3.84709 0
M  V30 1105 H 102.136 3.47224 5.55982 0
M  V30 1106 H 101.656 1.76827 5.73142 0
M  V30 1107 H 103.335 2.2626 6.06148 0
M  V30 1108 N 103.467 -1.45747 0.599634 0
M  V30 1109 C 104.414 -2.30467 -0.123849 0
M  V30 1110 C 105.384 -1.41632 -0.86774 0
M  V30 1111 O 106.569 -1.70568 -0.855056 0
M  V30 1112 C 103.709 -3.26402 -1.12051 0
M  V30 1113 C 102.822 -4.3034 -0.37832 0
M  V30 1114 C 101.957 -5.13389 -1.364 0
M  V30 1115 C 100.996 -6.09061 -0.609171 0
M  V30 1116 N 100.133 -6.84918 -1.54374 0
M  V30 1117 H 104.973 -2.91802 0.604627 0
M  V30 1118 H 102.51 -1.43797 0.309972 0
M  V30 1119 H 104.468 -3.80482 -1.7114 0
M  V30 1120 H 103.098 -2.66839 -1.8165 0
M  V30 1121 H 102.15 -3.78984 0.327929 0
M  V30 1122 H 103.462 -4.98354 0.210997 0
M  V30 1123 H 102.616 -5.7183 -2.02719 0
M  V30 1124 H 101.355 -4.45376 -1.98725 0
M  V30 1125 H 100.36 -5.49758 0.0676979 0
M  V30 1126 H 101.585 -6.79099 0.00891991 0
M  V30 1127 H 99.531 -6.19601 -2.15478 0
M  V30 1128 H 99.448 -7.49254 -1.00766 0
M  V30 1129 H 100.716 -7.47906 -2.19676 0
M  V30 1130 N 104.945 -0.338344 -1.53925 0
M  V30 1131 C 105.895 0.536712 -2.21593 0
M  V30 1132 C 106.879 1.07015 -1.20153 0
M  V30 1133 O 108.071 1.00471 -1.45721 0
M  V30 1134 C 105.2 1.68977 -2.98834 0
M  V30 1135 C 104.286 1.17052 -4.07627 0
M  V30 1136 N 104.677 0.372085 -5.0443 0
M  V30 1137 C 102.975 1.44789 -4.21844 0
M  V30 1138 C 103.676 0.0909171 -5.81629 0
M  V30 1139 N 102.652 0.681131 -5.39316 0
M  V30 1140 H 106.454 -0.0804298 -2.9379 0
M  V30 1141 H 103.968 -0.144943 -1.61752 0
M  V30 1142 H 105.965 2.32857 -3.45808 0
M  V30 1143 H 104.625 2.31024 -2.28162 0
M  V30 1144 H 105.636 0.0136217 -5.17898 0
M  V30 1145 H 102.313 2.07313 -3.62391 0
M  V30 1146 H 103.703 -0.552817 -6.69622 0
M  V30 1147 N 106.423 1.57458 -0.0668435 0
M  V30 1148 C 107.669 1.93587 0.6043 0
M  V30 1149 C 108.002 0.946722 1.69561 0
M  V30 1150 O 107.277 -0.0248516 1.94484 0
M  V30 1151 C 107.56 3.40014 1.18585 0
M  V30 1152 C 107.413 4.49685 0.101529 0
M  V30 1153 C 108.732 3.87154 2.09284 0
M  V30 1154 H 105.851 0.703958 0.218202 0
M  V30 1155 H 108.493 1.89542 -0.131804 0
M  V30 1156 H 106.643 3.43592 1.81319 0
M  V30 1157 H 108.315 4.5823 -0.531279 0
M  V30 1158 H 106.558 4.30059 -0.568487 0
M  V30 1159 H 107.229 5.49266 0.54874 0
M  V30 1160 H 109.705 3.85551 1.56491 0
M  V30 1161 H 108.581 4.90231 2.46911 0
M  V30 1162 H 108.842 3.2481 2.99918 0
M  V30 1163 N 107.901 -0.206675 1.56239 0
M  V30 1164 C 109.126 -0.949474 1.8439 0
M  V30 1165 C 109.551 -1.76549 0.649016 0
M  V30 1166 O 108.909 -1.76782 -0.402231 0
M  V30 1167 C 108.957 -1.83078 3.10668 0
M  V30 1168 O 108.061 -2.9281 2.90407 0
M  V30 1169 H 107.402 -0.268033 0.607499 0
M  V30 1170 H 109.932 -0.215488 2.03462 0
M  V30 1171 H 109.942 -2.2377 3.41161 0
M  V30 1172 H 108.617 -1.23112 3.97261 0
M  V30 1173 H 107.194 -2.55956 2.71184 0
M  V30 1174 N 109.379 -1.50304 -0.473955 0
M  V30 1175 C 110.327 -1.69482 -1.59307 0
M  V30 1176 C 111.321 -0.560669 -1.59853 0
M  V30 1177 O 112.527 -0.741087 -1.64036 0
M  V30 1178 H 108.902 -0.534892 -0.528578 0
M  V30 1179 H 110.873 -2.63364 -1.40293 0
M  V30 1180 C 109.622 -1.80354 -2.97267 0
M  V30 1181 H 108.945 -2.67012 -2.97564 0
M  V30 1182 H 110.385 -1.97798 -3.75036 0
M  V30 1183 C 108.844 -0.55448 -3.32306 0
M  V30 1184 O 109.374 0.307661 -4.0052 0
M  V30 1185 N 107.58 -0.409354 -2.87702 0
M  V30 1186 H 107.127 -1.11196 -2.32364 0
M  V30 1187 H 107.085 0.425223 -3.11511 0
M  V30 1188 N 110.857 0.726932 -1.39834 0
M  V30 1189 C 112.104 1.48664 -1.37496 0
M  V30 1190 C 112.432 1.94482 0.0264678 0
M  V30 1191 O 111.687 1.67692 1.00886 0
M  V30 1192 C 111.986 2.73495 -2.30077 0
M  V30 1193 C 111.652 2.46502 -3.77555 0
M  V30 1194 C 110.314 2.3885 -4.17737 0
M  V30 1195 C 112.666 2.23604 -4.70798 0
M  V30 1196 C 109.994 2.06352 -5.49214 0
M  V30 1197 C 112.346 1.92622 -6.02561 0
M  V30 1198 C 111.01 1.83444 -6.41798 0
M  V30 1199 H 110.28 0.544001 -0.503135 0
M  V30 1200 H 112.927 0.833657 -1.72402 0
M  V30 1201 H 111.232 3.43575 -1.88317 0
M  V30 1202 H 112.929 3.31549 -2.25558 0
M  V30 1203 H 109.519 2.5334 -3.45712 0
M  V30 1204 H 113.703 2.28479 -4.40581 0
M  V30 1205 H 108.959 1.97776 -5.78528 0
M  V30 1206 H 113.133 1.73914 -6.74334 0
M  V30 1207 H 110.76 1.58029 -7.43593 0
M  V30 1208 N 112.336 1.25143 0.95797 0
M  V30 1209 C 113.582 1.09855 1.70469 0
M  V30 1210 C 113.915 -0.360187 1.90831 0
M  V30 1211 O 113.19 -1.26568 1.47685 0
M  V30 1212 C 113.473 1.8497 3.08963 0
M  V30 1213 C 113.326 3.38652 2.96032 0
M  V30 1214 C 114.645 1.63016 4.08795 0
M  V30 1215 H 111.764 0.400465 0.618706 0
M  V30 1216 H 114.406 1.53933 1.11376 0
M  V30 1217 H 112.556 1.47505 3.59409 0
M  V30 1218 H 114.228 3.85772 2.52938 0
M  V30 1219 H 112.471 3.66534 2.32025 0
M  V30 1220 H 113.142 3.8642 3.94187 0
M  V30 1221 H 115.618 1.95625 3.67247 0
M  V30 1222 H 114.494 2.18015 5.03747 0
M  V30 1223 H 114.755 0.570692 4.38401 0
M  V30 1224 N 113.814 -1.1601 1.06675 0
M  V30 1225 C 115.23 -1.38622 0.790948 0
M  V30 1226 C 115.43 -1.92109 -0.607965 0
M  V30 1227 O 114.486 -2.12239 -1.36787 0
M  V30 1228 C 115.799 -2.36347 1.85905 0
M  V30 1229 C 117.347 -2.50023 1.88301 0
M  V30 1230 C 117.822 -3.51033 2.94176 0
M  V30 1231 N 119.313 -3.58563 2.93235 0
M  V30 1232 C 120.048 -4.36521 3.71803 0
M  V30 1233 N 119.544 -5.17869 4.602 0
M  V30 1234 N 121.337 -4.31541 3.60178 0
M  V30 1235 H 113.488 -0.796294 1.96908 0
M  V30 1236 H 115.751 -0.412597 0.853503 0
M  V30 1237 H 115.457 -2.04147 2.86386 0
M  V30 1238 H 115.331 -3.36042 1.71334 0
M  V30 1239 H 117.718 -2.81524 0.884769 0
M  V30 1240 H 117.799 -1.5035 2.06951 0
M  V30 1241 H 117.443 -3.20268 3.94196 0
M  V30 1242 H 117.373 -4.50445 2.72776 0
M  V30 1243 H 119.864 -3.00496 2.29152 0
M  V30 1244 H 120.177 -5.74578 5.16797 0
M  V30 1245 H 118.522 -5.17199 4.64253 0
M  V30 1246 H 121.713 -3.67051 2.90502 0
M  V30 1247 H 121.886 -4.9205 4.21653 0
M  V30 1248 N 115.292 -0.849877 -1.32721 0
M  V30 1249 C 116.239 -0.289033 -2.28983 0
M  V30 1250 C 117.209 0.601324 -1.54833 0
M  V30 1251 O 118.394 0.537253 -1.8308 0
M  V30 1252 C 115.534 0.520623 -3.4115 0
M  V30 1253 C 114.647 -0.394989 -4.3019 0
M  V30 1254 C 113.782 0.426834 -5.29482 0
M  V30 1255 C 112.821 -0.486476 -6.10164 0
M  V30 1256 N 111.958 0.297879 -7.01468 0
M  V30 1257 H 116.798 -1.11519 -2.76347 0
M  V30 1258 H 114.335 -0.56138 -1.35967 0
M  V30 1259 H 116.293 1.00563 -4.04899 0
M  V30 1260 H 114.923 1.31165 -2.9495 0
M  V30 1261 H 113.975 -0.99836 -3.67065 0
M  V30 1262 H 115.287 -1.09612 -4.86607 0
M  V30 1263 H 114.441 0.975205 -5.98811 0
M  V30 1264 H 113.18 1.16136 -4.73671 0
M  V30 1265 H 112.185 -1.04677 -5.39743 0
M  V30 1266 H 113.41 -1.21953 -6.6806 0
M  V30 1267 H 111.356 1.01558 -6.48091 0
M  V30 1268 H 111.273 -0.344318 -7.55216 0
M  V30 1269 H 112.541 0.828131 -7.75089 0
M  V30 1270 N 116.77 1.45427 -0.607355 0
M  V30 1271 C 118 2.06314 -0.108656 0
M  V30 1272 C 118.408 1.45269 1.21217 0
M  V30 1273 O 117.751 0.561115 1.74921 0
M  V30 1274 C 117.813 3.59345 0.105618 0
M  V30 1275 C 117.477 4.42723 -1.13337 0
M  V30 1276 C 118.474 4.77715 -2.05145 0
M  V30 1277 C 116.159 4.83478 -1.36213 0
M  V30 1278 C 118.153 5.52317 -3.18158 0
M  V30 1279 C 115.84 5.57835 -2.49527 0
M  V30 1280 C 116.838 5.92171 -3.40327 0
M  V30 1281 O 116.526 6.65019 -4.51669 0
M  V30 1282 H 116.258 0.672782 -0.0658842 0
M  V30 1283 H 118.812 1.87664 -0.834945 0
M  V30 1284 H 117.042 3.76394 0.886796 0
M  V30 1285 H 118.731 4.02076 0.555886 0
M  V30 1286 H 119.497 4.46787 -1.88697 0
M  V30 1287 H 115.376 4.56188 -0.664362 0
M  V30 1288 H 118.92 5.79036 -3.89054 0
M  V30 1289 H 114.817 5.88177 -2.65928 0
M  V30 1290 H 115.585 6.83469 -4.50348 0
M  V30 1291 N 118.248 0.346503 1.53744 0
M  V30 1292 C 119.473 -0.253074 2.0585 0
M  V30 1293 C 119.898 -1.43202 1.21962 0
M  V30 1294 O 119.256 -1.79783 0.234073 0
M  V30 1295 C 119.304 -0.643193 3.54817 0
M  V30 1296 O 118.408 -1.74286 3.73762 0
M  V30 1297 H 117.749 -0.0413583 0.662711 0
M  V30 1298 H 120.279 0.501574 1.98357 0
M  V30 1299 H 120.289 -0.919526 3.97503 0
M  V30 1300 H 118.964 0.218966 4.15323 0
M  V30 1301 H 117.541 -1.46356 3.42979 0
M  V30 1302 N 119.726 -1.57421 0.075193 0
M  V30 1303 C 121.003 -1.85029 -0.634329 0
M  V30 1304 C 121.383 -0.968305 -1.87582 0
M  V30 1305 O 120.731 -0.0354749 -2.28472 0
M  V30 1306 C 120.941 -3.35286 -0.968742 0
M  V30 1307 C 122.289 -4.02875 -1.34077 0
M  V30 1308 O 123.313 -3.40051 -1.06037 0
M  V30 1309 O 122.172 -5.13691 -1.86506 0
M  V30 1310 H 119.266 -0.7645 -0.315387 0
M  V30 1311 H 121.812 -1.69366 0.106382 0
M  V30 1312 H 120.584 -3.91203 -0.0871376 0
M  V30 1313 H 120.207 -3.56223 -1.7661 0
M  V30 1314 N 121.204 0.198386 -1.56346 0
M  V30 1315 C 122.432 0.935572 -1.84539 0
M  V30 1316 C 122.847 1.76989 -0.657281 0
M  V30 1317 O 122.204 1.78626 0.374043 0
M  V30 1318 C 122.255 1.8344 -3.11499 0
M  V30 1319 O 121.976 1.03377 -4.25728 0
M  V30 1320 C 123.477 2.68355 -3.52846 0
M  V30 1321 H 120.697 0.273126 -0.612897 0
M  V30 1322 H 123.241 0.20663 -2.03453 0
M  V30 1323 H 121.396 2.51701 -2.94492 0
M  V30 1324 H 121.81 1.64599 -4.98003 0
M  V30 1325 H 123.284 3.27085 -4.44657 0
M  V30 1326 H 123.761 3.41901 -2.75681 0
M  V30 1327 H 124.367 2.05471 -3.72373 0
M  V30 1328 N 122.682 1.50554 0.465978 0
M  V30 1329 C 123.931 1.61038 1.21448 0
M  V30 1330 C 124.244 0.31865 1.92987 0
M  V30 1331 O 125.45 0.302469 2.6981 0
M  V30 1332 C 123.906 2.84283 2.20706 0
M  V30 1333 C 123.514 4.20352 1.54946 0
M  V30 1334 C 125.258 3.04115 2.96166 0
M  V30 1335 C 123.165 5.34778 2.5252 0
M  V30 1336 H 122.095 0.599718 0.457005 0
M  V30 1337 H 124.746 1.7699 0.484424 0
M  V30 1338 H 123.128 2.61901 2.97025 0
M  V30 1339 H 124.302 4.53008 0.843811 0
M  V30 1340 H 122.617 4.06167 0.917475 0
M  V30 1341 H 125.214 3.86774 3.69202 0
M  V30 1342 H 125.557 2.16045 3.55852 0
M  V30 1343 H 126.09 3.26702 2.26959 0
M  V30 1344 H 122.829 6.25018 1.97566 0
M  V30 1345 H 122.349 5.06534 3.21222 0
M  V30 1346 H 124.028 5.65561 3.14245 0
M  V30 1347 N 124.16 -0.719506 1.40217 0
M  V30 1348 C 125.123 -1.8153 1.39927 0
M  V30 1349 C 126.123 -1.58095 0.293723 0
M  V30 1350 O 127.313 -1.65209 0.552429 0
M  V30 1351 C 124.445 -3.19561 1.18716 0
M  V30 1352 H 125.638 -1.83186 2.37451 0
M  V30 1353 H 123.191 -0.924746 1.26008 0
M  V30 1354 H 123.926 -3.23557 0.219366 0
M  V30 1355 H 123.711 -3.3797 1.98793 0
M  V30 1356 H 125.201 -3.99598 1.21291 0
M  V30 1357 N 125.638 -1.25649 -0.95132 0
M  V30 1358 C 126.548 -1.08073 -2.08224 0
M  V30 1359 C 127.564 -0.0169666 -1.73992 0
M  V30 1360 O 128.74 -0.218593 -2.0021 0
M  V30 1361 C 125.805 -0.704922 -3.39458 0
M  V30 1362 C 124.866 -1.84699 -3.87537 0
M  V30 1363 C 124.099 -1.48902 -5.12508 0
M  V30 1364 O 124.322 -0.386156 -5.69091 0
M  V30 1365 O 123.256 -2.32033 -5.55378 0
M  V30 1366 H 127.082 -2.02924 -2.25954 0
M  V30 1367 H 124.667 -1.04618 -1.06656 0
M  V30 1368 H 126.549 -0.507609 -4.18332 0
M  V30 1369 H 125.224 0.214291 -3.2299 0
M  V30 1370 H 124.131 -2.09919 -3.09653 0
M  V30 1371 H 125.464 -2.74557 -4.08509 0
M  V30 1372 N 127.117 1.15442 -1.07289 0
M  V30 1373 C 128.047 2.22312 -0.714107 0
M  V30 1374 C 129.028 1.67467 0.298155 0
M  V30 1375 O 130.213 1.93445 0.171048 0
M  V30 1376 C 127.343 3.47124 -0.110448 0
M  V30 1377 C 126.297 4.14926 -1.04979 0
M  V30 1378 C 125.623 5.33807 -0.308924 0
M  V30 1379 C 126.923 4.64762 -2.38314 0
M  V30 1380 H 128.617 2.5258 -1.6076 0
M  V30 1381 H 126.163 1.21404 -0.77441 0
M  V30 1382 H 128.116 4.21124 0.152482 0
M  V30 1383 H 126.84 3.16187 0.81812 0
M  V30 1384 H 125.499 3.42866 -1.29764 0
M  V30 1385 H 125.147 4.99126 0.623084 0
M  V30 1386 H 124.847 5.80113 -0.935036 0
M  V30 1387 H 126.371 6.10576 -0.0537771 0
M  V30 1388 H 127.785 5.30292 -2.1786 0
M  V30 1389 H 126.182 5.21728 -2.96514 0
M  V30 1390 H 127.252 3.80434 -3.00663 0
M  V30 1391 N 128.595 0.856903 1.32268 0
M  V30 1392 C 129.527 0.260412 2.27716 0
M  V30 1393 C 130.54 -0.569137 1.52528 0
M  V30 1394 O 131.729 -0.39326 1.74114 0
M  V30 1395 C 128.829 -0.650477 3.32599 0
M  V30 1396 C 128.002 0.14372 4.37164 0
M  V30 1397 C 127.061 -0.69328 5.21613 0
M  V30 1398 O 126.087 -0.12599 5.69061 0
M  V30 1399 N 127.289 -2.00761 5.44679 0
M  V30 1400 H 130.054 1.08059 2.79541 0
M  V30 1401 H 127.615 0.717103 1.45152 0
M  V30 1402 H 129.607 -1.21581 3.86005 0
M  V30 1403 H 128.177 -1.37133 2.80915 0
M  V30 1404 H 127.397 0.890486 3.8401 0
M  V30 1405 H 128.685 0.68915 5.04111 0
M  V30 1406 H 128.083 -2.49181 5.07863 0
M  V30 1407 H 126.64 -2.52103 6.01072 0
M  V30 1408 N 130.073 -1.45103 0.615059 0
M  V30 1409 C 130.983 -2.34382 -0.101034 0
M  V30 1410 C 131.999 -1.51681 -0.852585 0
M  V30 1411 O 133.175 -1.8446 -0.808484 0
M  V30 1412 C 130.24 -3.29417 -1.08099 0
M  V30 1413 C 129.301 -4.28025 -0.330577 0
M  V30 1414 C 128.534 -5.1852 -1.26385 0
M  V30 1415 O 128.757 -5.12598 -2.50198 0
M  V30 1416 O 127.691 -5.97122 -0.756866 0
M  V30 1417 H 131.517 -2.97033 0.632855 0
M  V30 1418 H 129.102 -1.4461 0.375293 0
M  V30 1419 H 130.984 -3.87958 -1.6452 0
M  V30 1420 H 129.659 -2.69321 -1.79577 0
M  V30 1421 H 128.566 -3.73078 0.276283 0
M  V30 1422 H 129.899 -4.90997 0.343866 0
M  V30 1423 N 131.551 -0.354651 -1.53558 0
M  V30 1424 C 132.481 0.489091 -2.2832 0
M  V30 1425 C 133.462 1.09324 -1.30316 0
M  V30 1426 O 134.647 1.11255 -1.59173 0
M  V30 1427 C 131.777 1.63456 -3.0643 0
M  V30 1428 C 130.731 1.1582 -4.12031 0
M  V30 1429 C 130.057 2.39305 -4.7816 0
M  V30 1430 C 131.357 0.250731 -5.21698 0
M  V30 1431 H 133.051 -0.134614 -2.99097 0
M  V30 1432 H 130.597 -0.0661826 -1.43848 0
M  V30 1433 H 132.55 2.23136 -3.57475 0
M  V30 1434 H 131.274 2.28533 -2.33325 0
M  V30 1435 H 129.933 0.584146 -3.61916 0
M  V30 1436 H 129.581 3.02814 -4.01637 0
M  V30 1437 H 129.281 2.08109 -5.49513 0
M  V30 1438 H 130.805 2.99691 -5.31994 0
M  V30 1439 H 132.219 0.754695 -5.68311 0
M  V30 1440 H 130.616 0.0301468 -6.00092 0
M  V30 1441 H 131.686 -0.710125 -4.79672 0
M  V30 1442 N 133.029 1.57378 -0.0835403 0
M  V30 1443 C 133.961 2.10389 0.909338 0
M  V30 1444 C 134.974 1.03858 1.25369 0
M  V30 1445 O 136.163 1.31338 1.20882 0
M  V30 1446 C 133.263 2.55908 2.2218 0
M  V30 1447 C 132.436 3.86145 2.05453 0
M  V30 1448 C 131.495 4.17633 3.20108 0
M  V30 1449 O 130.521 4.87043 2.94581 0
M  V30 1450 N 131.723 3.72113 4.45547 0
M  V30 1451 H 134.488 2.962 0.456657 0
M  V30 1452 H 132.049 1.61579 0.101877 0
M  V30 1453 H 134.041 2.74027 2.97811 0
M  V30 1454 H 132.611 1.75171 2.58909 0
M  V30 1455 H 131.831 3.7729 1.1422 0
M  V30 1456 H 133.119 4.7137 1.91541 0
M  V30 1457 H 132.517 3.16062 4.69171 0
M  V30 1458 H 131.074 3.95409 5.18165 0
M  V30 1459 N 134.507 -0.190092 1.56449 0
M  V30 1460 C 135.918 -0.754312 1.70784 0
M  V30 1461 C 136.269 -1.83631 0.690951 0
M  V30 1462 O 135.394 -2.15868 -0.151604 0
M  V30 1463 C 135.989 -1.37503 3.09642 0
M  V30 1464 C 134.548 -1.88628 3.25725 0
M  V30 1465 C 133.695 -0.758098 2.66736 0
M  V30 1466 H 136.646 0.0350524 1.58661 0
M  V30 1467 H 136.667 -2.2445 3.0725 0
M  V30 1468 H 136.179 -0.587302 3.83631 0
M  V30 1469 H 134.28 -2.70103 2.56661 0
M  V30 1470 H 134.393 -2.04462 4.3328 0
M  V30 1471 H 132.757 -1.17369 2.26046 0
M  V30 1472 H 133.54 0.0174705 3.43296 0
M  V30 1473 N 135.985 -1.50799 -0.457987 0
M  V30 1474 C 137.21 -1.66496 -1.23668 0
M  V30 1475 C 137.635 -0.353288 -1.84752 0
M  V30 1476 O 136.993 0.684346 -1.67888 0
M  V30 1477 C 137.041 -2.76763 -2.3116 0
M  V30 1478 O 136.145 -2.38928 -3.36136 0
M  V30 1479 H 135.486 -0.555828 -0.363252 0
M  V30 1480 H 138.016 -1.9725 -0.543474 0
M  V30 1481 H 138.026 -3.00232 -2.76269 0
M  V30 1482 H 136.701 -3.71954 -1.86073 0
M  V30 1483 H 135.278 -2.25953 -2.96647 0
M  V30 1484 N 137.463 0.71206 -1.40597 0
M  V30 1485 C 138.426 1.80785 -1.40888 0
M  V30 1486 C 139.426 1.57937 -0.302103 0
M  V30 1487 O 140.616 1.64913 -0.561182 0
M  V30 1488 C 137.748 3.18927 -1.20409 0
M  V30 1489 H 138.941 1.81924 -2.38419 0
M  V30 1490 H 136.494 0.91805 -1.26497 0
M  V30 1491 H 137.229 3.23436 -0.236522 0
M  V30 1492 H 137.014 3.36911 -2.00582 0
M  V30 1493 H 138.504 3.98949 -1.23408 0
M  V30 1494 N 138.941 1.26152 0.944643 0
M  V30 1495 C 139.888 1.07408 2.04285 0
M  V30 1496 C 140.858 -0.0198413 1.66088 0
M  V30 1497 O 142.043 0.139264 1.90291 0
M  V30 1498 C 139.183 0.70945 3.37729 0
M  V30 1499 C 138.296 1.87926 3.88983 0
M  V30 1500 C 137.431 1.45807 5.10797 0
M  V30 1501 C 136.47 2.5964 5.54305 0
M  V30 1502 N 135.607 2.18226 6.67324 0
M  V30 1503 H 140.447 2.01389 2.1965 0
M  V30 1504 H 137.984 1.00275 1.07626 0
M  V30 1505 H 139.942 0.478948 4.14442 0
M  V30 1506 H 138.572 -0.193389 3.2222 0
M  V30 1507 H 137.624 2.22279 3.08701 0
M  V30 1508 H 138.936 2.73377 4.17213 0
M  V30 1509 H 138.09 1.18781 5.94959 0
M  V30 1510 H 136.829 0.574414 4.84305 0
M  V30 1511 H 135.834 2.87399 4.68702 0
M  V30 1512 H 137.059 3.48599 5.828 0
M  V30 1513 H 135.005 1.3229 6.42523 0
M  V30 1514 H 134.922 2.97221 6.95123 0
M  V30 1515 H 136.19 1.94403 7.54869 0
M  V30 1516 N 140.419 -1.14872 1.07899 0
M  V30 1517 C 141.696 -1.81928 0.71845 0
M  V30 1518 C 142.076 -1.95417 -0.798455 0
M  V30 1519 O 141.424 -1.50997 -1.715 0
M  V30 1520 C 141.634 -3.17937 1.43935 0
M  V30 1521 C 142.982 -3.93501 1.59506 0
M  V30 1522 O 144.006 -3.27509 1.40058 0
M  V30 1523 O 142.865 -5.1183 1.91551 0
M  V30 1524 H 139.959 -0.78628 0.256305 0
M  V30 1525 H 142.505 -1.21934 1.18026 0
M  V30 1526 H 141.277 -3.0325 2.47295 0
M  V30 1527 H 140.9 -3.85619 0.968687 0
M  V30 1528 N 141.898 -0.863906 -1.31812 0
M  V30 1529 C 143.145 -0.471836 -1.96926 0
M  V30 1530 C 143.473 0.974578 -1.68322 0
M  V30 1531 O 142.728 1.7003 -0.968933 0
M  V30 1532 C 143.027 -0.668547 -3.51091 0
M  V30 1533 C 142.693 -2.08683 -3.99703 0
M  V30 1534 C 141.355 -2.47471 -4.12688 0
M  V30 1535 C 143.707 -3.01207 -4.25351 0
M  V30 1536 C 141.035 -3.78037 -4.4867 0
M  V30 1537 C 143.387 -4.31282 -4.62794 0
M  V30 1538 C 142.051 -4.69992 -4.73987 0
M  V30 1539 H 141.321 -0.172657 -0.720604 0
M  V30 1540 H 143.968 -1.09573 -1.57054 0
M  V30 1541 H 142.273 0.0385252 -3.91781 0
M  V30 1542 H 143.97 -0.345102 -3.99512 0
M  V30 1543 H 140.56 -1.77566 -3.90087 0
M  V30 1544 H 144.744 -2.72469 -4.14819 0
M  V30 1545 H 140 -4.078 -4.55532 0
M  V30 1546 H 144.174 -5.03031 -4.81594 0
M  V30 1547 H 141.801 -5.71207 -5.01624 0
M  V30 1548 N 143.376 1.44774 -0.622745 0
M  V30 1549 C 144.286 2.34433 0.0886031 0
M  V30 1550 C 145.302 1.52131 0.844529 0
M  V30 1551 O 146.478 1.84886 0.798691 0
M  V30 1552 C 143.543 3.29986 1.0635 0
M  V30 1553 C 142.604 4.28195 0.307873 0
M  V30 1554 C 141.837 5.19183 1.23633 0
M  V30 1555 O 142.06 5.13918 2.47476 0
M  V30 1556 O 140.994 5.97515 0.725189 0
M  V30 1557 H 144.82 2.96693 -0.648599 0
M  V30 1558 H 142.405 1.44408 -0.382957 0
M  V30 1559 H 144.287 3.88825 1.6246 0
M  V30 1560 H 142.962 2.70269 1.78146 0
M  V30 1561 H 141.869 3.72927 -0.296064 0
M  V30 1562 H 143.202 4.90808 -0.3699 0
M  V30 1563 N 144.854 0.36279 1.53368 0
M  V30 1564 C 146.1 -0.228113 2.01513 0
M  V30 1565 C 146.433 -1.48648 1.2497 0
M  V30 1566 O 145.708 -1.91459 0.342616 0
M  V30 1567 C 145.991 -0.522884 3.56284 0
M  V30 1568 C 145.844 0.74892 4.43521 0
M  V30 1569 C 147.163 -1.32461 4.19693 0
M  V30 1570 H 144.282 -0.0814343 0.732487 0
M  V30 1571 H 146.924 0.48713 1.83649 0
M  V30 1572 H 145.074 -1.1322 3.71636 0
M  V30 1573 H 146.746 1.38648 4.39971 0
M  V30 1574 H 144.989 1.36986 4.11603 0
M  V30 1575 H 145.66 0.497667 5.49752 0
M  V30 1576 H 148.136 -0.809203 4.08156 0
M  V30 1577 H 147.012 -1.49961 5.28018 0
M  V30 1578 H 147.273 -2.33232 3.75573 0
M  V30 1579 N 146.332 -1.57332 0.0918853 0
M  V30 1580 C 147.748 -1.57389 -0.264766 0
M  V30 1581 C 147.948 -1.10281 -1.68643 0
M  V30 1582 O 147.004 -0.777801 -2.40222 0
M  V30 1583 C 148.317 -3.00648 -0.0561195 0
M  V30 1584 C 149.865 -3.12754 -0.124116 0
M  V30 1585 C 150.34 -4.57965 0.0564972 0
M  V30 1586 N 151.831 -4.632 0.00155611 0
M  V30 1587 C 152.566 -5.73281 0.116598 0
M  V30 1588 N 152.062 -6.92208 0.286294 0
M  V30 1589 N 153.855 -5.6207 0.0580973 0
M  V30 1590 H 146.006 -1.86262 1.02079 0
M  V30 1591 H 148.269 -0.859579 0.399786 0
M  V30 1592 H 147.975 -3.393 0.925669 0
M  V30 1593 H 147.849 -3.68623 -0.799823 0
M  V30 1594 H 150.236 -2.73976 -1.09641 0
M  V30 1595 H 150.317 -2.47377 0.651024 0
M  V30 1596 H 149.961 -4.97436 1.02564 0
M  V30 1597 H 149.891 -5.21399 -0.738297 0
M  V30 1598 H 152.382 -3.77686 -0.127192 0
M  V30 1599 H 152.695 -7.71934 0.365676 0
M  V30 1600 H 151.04 -6.94254 0.32192 0
M  V30 1601 H 154.231 -4.68043 -0.0733204 0
M  V30 1602 H 154.404 -6.47824 0.151203 0
M  V30 1603 N 147.81 0.181792 -1.56548 0
M  V30 1604 C 149.035 0.920019 -1.85877 0
M  V30 1605 C 149.46 1.75494 -0.677021 0
M  V30 1606 O 148.818 1.77399 0.374056 0
M  V30 1607 C 148.866 1.78112 -3.13542 0
M  V30 1608 O 147.97 2.88152 -2.95029 0
M  V30 1609 H 147.311 0.258334 -0.611686 0
M  V30 1610 H 149.841 0.183092 -2.03779 0
M  V30 1611 H 149.851 2.18314 -3.44678 0
M  V30 1612 H 148.526 1.16777 -3.99169 0
M  V30 1613 H 147.103 2.51609 -2.75222 0
M  V30 1614 N 149.288 1.51039 0.449983 0
M  V30 1615 C 150.218 1.74379 1.55288 0
M  V30 1616 C 151.199 0.593236 1.5942 0
M  V30 1617 O 152.384 0.834625 1.7535 0
M  V30 1618 C 149.514 1.85728 2.93466 0
M  V30 1619 C 148.468 3.01078 3.04197 0
M  V30 1620 C 147.794 2.97595 4.44231 0
M  V30 1621 C 149.094 4.41254 2.7945 0
M  V30 1622 H 150.788 2.66725 1.36008 0
M  V30 1623 H 148.334 1.2835 0.652864 0
M  V30 1624 H 150.287 2.0064 3.70569 0
M  V30 1625 H 149.011 0.900207 3.13949 0
M  V30 1626 H 147.67 2.85851 2.29531 0
M  V30 1627 H 147.318 1.99691 4.61663 0
M  V30 1628 H 147.018 3.75046 4.52343 0
M  V30 1629 H 148.542 3.14583 5.23326 0
M  V30 1630 H 149.956 4.56897 3.46292 0
M  V30 1631 H 148.353 5.20315 2.98985 0
M  V30 1632 H 149.423 4.52164 1.75144 0
M  V30 1633 N 150.766 -0.704594 1.40972 0
M  V30 1634 C 152.012 -1.46675 1.40051 0
M  V30 1635 C 152.345 -1.94199 0.00641102 0
M  V30 1636 O 151.62 -1.68916 -0.964235 0
M  V30 1637 C 151.903 -2.68505 2.39952 0
M  V30 1638 C 151.756 -2.26805 3.88432 0
M  V30 1639 C 153.075 -3.70686 2.37233 0
M  V30 1640 H 150.194 -0.532015 0.510028 0
M  V30 1641 H 152.836 -0.803255 1.72185 0
M  V30 1642 H 150.986 -3.25114 2.1268 0
M  V30 1643 H 152.658 -1.75592 4.26574 0
M  V30 1644 H 150.901 -1.58685 4.03734 0
M  V30 1645 H 151.572 -3.14181 4.53866 0
M  V30 1646 H 154.048 -3.23731 2.61415 0
M  V30 1647 H 152.924 -4.53553 3.09162 0
M  V30 1648 H 153.185 -4.19754 1.38777 0
M  V30 1649 N 152.244 -1.26651 -0.937939 0
M  V30 1650 C 153.492 -1.12165 -1.68118 0
M  V30 1651 C 153.813 0.334983 -1.92101 0
M  V30 1652 O 153.083 1.23583 -1.52 0
M  V30 1653 H 151.663 -0.412093 -0.623048 0
M  V30 1654 H 154.325 -1.59027 -1.12678 0
M  V30 1655 H 153.421 -1.64289 -2.6536 0
M  V30 1656 N 153.722 1.14298 -1.08507 0
M  V30 1657 C 154.962 1.87016 -0.824894 0
M  V30 1658 C 155.326 1.81099 0.637735 0
M  V30 1659 O 156.527 2.48963 1.01345 0
M  V30 1660 C 154.798 3.31584 -1.33368 0
M  V30 1661 S 156.357 4.21903 -1.20596 0
M  V30 1662 H 153.175 0.645259 -0.2986 0
M  V30 1663 H 155.777 1.37822 -1.38656 0
M  V30 1664 H 154.481 3.33439 -2.39262 0
M  V30 1665 H 154.012 3.85836 -0.767734 0
M  V30 1666 H 156.027 4.95971 -0.150891 0
M  V30 1667 N 155.201 0.870884 1.31352 0
M  V30 1668 C 156.449 0.48132 1.96285 0
M  V30 1669 C 156.77 -0.969813 1.69173 0
M  V30 1670 O 156.04 -1.67998 1.00764 0
M  V30 1671 H 154.62 0.175002 0.726212 0
M  V30 1672 H 157.282 1.11087 1.60143 0
M  V30 1673 H 156.378 0.639825 3.05471 0
M  V30 1674 N 156.679 -1.44442 0.630414 0
M  V30 1675 C 157.629 -2.27794 -0.0968103 0
M  V30 1676 C 158.613 -1.38624 -0.816834 0
M  V30 1677 O 159.805 -1.62438 -0.70306 0
M  V30 1678 C 156.934 -3.25929 -1.07819 0
M  V30 1679 C 156.02 -4.22588 -0.357826 0
M  V30 1680 N 156.411 -5.0207 0.613169 0
M  V30 1681 C 154.709 -4.41914 -0.602365 0
M  V30 1682 C 155.41 -5.72351 1.03871 0
M  V30 1683 N 154.386 -5.42287 0.377642 0
M  V30 1684 H 158.188 -2.86653 0.648621 0
M  V30 1685 H 155.702 -1.55871 0.455862 0
M  V30 1686 H 157.699 -3.84399 -1.61378 0
M  V30 1687 H 156.359 -2.68631 -1.82393 0
M  V30 1688 H 157.37 -5.08331 0.990947 0
M  V30 1689 H 154.047 -3.95714 -1.33103 0
M  V30 1690 H 155.437 -6.4619 1.84086 0
M  V30 1691 N 158.157 -0.370918 -1.53173 0
M  V30 1692 C 159.404 0.217102 -2.01333 0
M  V30 1693 C 159.732 1.48338 -1.25802 0
M  V30 1694 O 158.987 1.92698 -0.34146 0
M  V30 1695 C 159.286 0.549696 -3.53147 0
M  V30 1696 C 158.952 -0.622872 -4.46577 0
M  V30 1697 C 157.614 -0.944595 -4.71838 0
M  V30 1698 C 159.966 -1.40819 -5.01816 0
M  V30 1699 C 157.294 -2.05351 -5.49589 0
M  V30 1700 C 159.646 -2.50757 -5.80778 0
M  V30 1701 C 158.31 -2.83458 -6.04324 0
M  V30 1702 H 157.58 0.0794431 -0.736729 0
M  V30 1703 H 160.227 -0.504481 -1.84736 0
M  V30 1704 H 158.532 1.35237 -3.6772 0
M  V30 1705 H 160.229 1.017 -3.87889 0
M  V30 1706 H 156.819 -0.36209 -4.27068 0
M  V30 1707 H 161.003 -1.17289 -4.82242 0
M  V30 1708 H 156.259 -2.3108 -5.6605 0
M  V30 1709 H 160.433 -3.12022 -6.22588 0
M  V30 1710 H 158.06 -3.69508 -6.64355 0
M  V30 1711 N 159.635 1.57281 -0.100228 0
M  V30 1712 C 160.598 2.13158 0.842398 0
M  V30 1713 C 161.598 1.06202 1.20738 0
M  V30 1714 O 162.788 1.32066 1.13597 0
M  V30 1715 C 159.92 2.65639 2.13655 0
M  V30 1716 H 161.113 2.97766 0.357114 0
M  V30 1717 H 158.666 1.5559 0.148823 0
M  V30 1718 H 159.401 1.84566 2.66657 0
M  V30 1719 H 159.186 3.43844 1.88451 0
M  V30 1720 H 160.676 3.08846 2.81077 0
M  V30 1721 N 161.113 -0.173488 1.56642 0
M  V30 1722 C 162.023 -1.23482 1.99473 0
M  V30 1723 C 163.039 -1.48567 0.905752 0
M  V30 1724 O 164.215 -1.60758 1.21321 0
M  V30 1725 C 161.28 -2.55444 2.34413 0
M  V30 1726 C 160.341 -2.38241 3.57127 0
M  V30 1727 C 159.574 -3.63909 3.90392 0
M  V30 1728 O 159.797 -4.68996 3.24653 0
M  V30 1729 O 158.731 -3.58149 4.83749 0
M  V30 1730 H 162.557 -0.901279 2.90018 0
M  V30 1731 H 160.142 -0.380185 1.44482 0
M  V30 1732 H 162.024 -3.33292 2.57865 0
M  V30 1733 H 160.699 -2.88382 1.4703 0
M  V30 1734 H 159.606 -1.58431 3.38896 0
M  V30 1735 H 160.939 -2.10228 4.45045 0
M  V30 1736 N 162.591 -1.51276 -0.441967 0
M  V30 1737 C 163.837 -1.63958 -1.19355 0
M  V30 1738 C 164.17 -0.352543 -1.90973 0
M  V30 1739 O 163.445 0.647627 -1.83401 0
M  V30 1740 C 163.728 -2.83979 -2.21422 0
M  V30 1741 C 163.581 -4.22646 -1.53918 0
M  V30 1742 C 164.9 -2.99521 -3.22451 0
M  V30 1743 H 162.019 -0.596709 -0.432559 0
M  V30 1744 H 164.661 -1.83748 -0.483398 0
M  V30 1745 H 162.811 -2.67237 -2.81987 0
M  V30 1746 H 164.483 -4.51045 -0.967256 0
M  V30 1747 H 162.726 -4.25558 -0.841615 0
M  V30 1748 H 163.397 -5.02609 -2.28229 0
M  V30 1749 H 165.873 -3.14944 -2.71937 0
M  V30 1750 H 164.749 -3.85072 -3.91166 0
M  V30 1751 H 165.01 -2.11391 -3.88287 0
M  V30 1752 N 164.069 0.697108 -1.41344 0
M  V30 1753 C 165.001 1.8224 -1.39001 0
M  V30 1754 C 166.014 1.60152 -0.292428 0
M  V30 1755 O 167.203 1.69684 -0.554048 0
M  V30 1756 C 164.303 3.18976 -1.14489 0
M  V30 1757 C 163.476 3.68105 -2.36258 0
M  V30 1758 C 162.535 4.83506 -2.07625 0
M  V30 1759 O 161.561 4.95201 -2.8065 0
M  V30 1760 N 162.763 5.70637 -1.06555 0
M  V30 1761 H 165.528 1.84742 -2.35988 0
M  V30 1762 H 163.089 0.87937 -1.35936 0
M  V30 1763 H 165.081 3.93801 -0.932885 0
M  V30 1764 H 163.651 3.11508 -0.261043 0
M  V30 1765 H 162.871 2.84204 -2.7317 0
M  V30 1766 H 164.159 3.97667 -3.17393 0
M  V30 1767 H 163.557 5.63817 -0.461125 0
M  V30 1768 H 162.114 6.45368 -0.913444 0
M  V30 1769 N 165.547 1.27147 0.931209 0
M  V30 1770 C 166.793 1.13446 1.68101 0
M  V30 1771 C 167.126 -0.319628 1.91552 0
M  V30 1772 O 166.401 -1.23407 1.50336 0
M  V30 1773 C 166.684 1.91482 3.0497 0
M  V30 1774 C 166.537 3.44855 2.88782 0
M  V30 1775 C 167.856 1.71651 4.05246 0
M  V30 1776 H 164.975 0.413498 0.610072 0
M  V30 1777 H 167.617 1.56261 1.08086 0
M  V30 1778 H 165.767 1.55095 3.56199 0
M  V30 1779 H 167.439 3.9105 2.44698 0
M  V30 1780 H 165.682 3.71373 2.24198 0
M  V30 1781 H 166.353 3.94694 3.85902 0
M  V30 1782 H 168.829 2.0337 3.63015 0
M  V30 1783 H 167.705 2.28651 4.99009 0
M  V30 1784 H 167.966 0.663555 4.37092 0
M  V30 1785 N 167.025 -1.13721 1.09112 0
M  V30 1786 C 168.271 -1.85198 0.826414 0
M  V30 1787 C 168.604 -1.83129 -0.646319 0
M  V30 1788 O 167.879 -1.2671 -1.47563 0
M  V30 1789 C 168.162 -3.33507 1.35812 0
M  V30 1790 C 168.015 -3.44108 2.89672 0
M  V30 1791 C 169.334 -4.28838 0.989256 0
M  V30 1792 H 166.453 -0.67243 0.301675 0
M  V30 1793 H 169.095 -1.33499 1.35197 0
M  V30 1794 H 167.245 -3.77666 0.911082 0
M  V30 1795 H 168.917 -3.08684 3.428 0
M  V30 1796 H 167.16 -2.85087 3.26967 0
M  V30 1797 H 167.831 -4.48388 3.21951 0
M  V30 1798 H 170.307 -3.92734 1.37475 0
M  V30 1799 H 169.183 -5.31051 1.38838 0
M  V30 1800 H 169.444 -4.4198 -0.102924 0
M  V30 1801 N 168.503 -0.877838 -1.30888 0
M  V30 1802 C 169.919 -0.570844 -1.49042 0
M  V30 1803 C 170.119 0.893159 -1.80624 0
M  V30 1804 O 169.175 1.67485 -1.88958 0
M  V30 1805 C 170.488 -1.47784 -2.61878 0
M  V30 1806 C 172.036 -1.48071 -2.75761 0
M  V30 1807 C 172.511 -2.37347 -3.91702 0
M  V30 1808 N 174.002 -2.35271 -3.99001 0
M  V30 1809 C 174.737 -3.01063 -4.88004 0
M  V30 1810 N 174.233 -3.76055 -5.81854 0
M  V30 1811 N 176.026 -2.90332 -4.81315 0
M  V30 1812 H 168.177 -1.82502 -1.0866 0
M  V30 1813 H 170.44 -0.780797 -0.537644 0
M  V30 1814 H 170.146 -2.51993 -2.45341 0
M  V30 1815 H 170.02 -1.18215 -3.58197 0
M  V30 1816 H 172.407 -0.446166 -2.91708 0
M  V30 1817 H 172.488 -1.81668 -1.80085 0
M  V30 1818 H 172.132 -3.40883 -3.76512 0
M  V30 1819 H 172.062 -2.01071 -4.86701 0
M  V30 1820 H 174.553 -1.80768 -3.3186 0
M  V30 1821 H 174.866 -4.23366 -6.46514 0
M  V30 1822 H 173.211 -3.80163 -5.81808 0
M  V30 1823 H 176.402 -2.31278 -4.06974 0
M  V30 1824 H 176.575 -3.41885 -5.50471 0
M  V30 1825 N 169.982 1.44106 -0.638065 0
M  V30 1826 C 170.892 2.34513 0.0637334 0
M  V30 1827 C 171.908 1.53018 0.828346 0
M  V30 1828 O 173.084 1.85723 0.779036 0
M  V30 1829 C 170.149 3.31095 1.02844 0
M  V30 1830 C 169.21 4.28497 0.26244 0
M  V30 1831 C 168.443 5.20465 1.1812 0
M  V30 1832 O 168.666 5.16514 2.42011 0
M  V30 1833 O 167.6 5.98251 0.661774 0
M  V30 1834 H 171.426 2.95989 -0.68003 0
M  V30 1835 H 169.011 1.43994 -0.398252 0
M  V30 1836 H 170.893 3.90526 1.58327 0
M  V30 1837 H 169.568 2.72144 1.7527 0
M  V30 1838 H 168.475 3.72592 -0.335602 0
M  V30 1839 H 169.808 4.90388 -0.421936 0
M  V30 1840 N 171.46 0.379036 1.52974 0
M  V30 1841 C 172.407 -0.461048 2.26148 0
M  V30 1842 C 173.377 -1.06637 1.27349 0
M  V30 1843 O 174.562 -1.09633 1.56157 0
M  V30 1844 C 171.702 -1.58782 3.06402 0
M  V30 1845 C 170.815 -1.00636 4.20115 0
M  V30 1846 C 169.95 -2.10334 4.87784 0
M  V30 1847 C 168.989 -1.49724 5.93506 0
M  V30 1848 N 168.126 -2.5331 6.54812 0
M  V30 1849 H 172.966 0.169429 2.97518 0
M  V30 1850 H 170.503 0.0953806 1.4679 0
M  V30 1851 H 172.461 -2.25174 3.51215 0
M  V30 1852 H 171.091 -2.18876 2.37261 0
M  V30 1853 H 170.143 -0.232332 3.7969 0
M  V30 1854 H 171.455 -0.523343 4.96047 0
M  V30 1855 H 170.609 -2.84519 5.35849 0
M  V30 1856 H 169.348 -2.61992 4.11353 0
M  V30 1857 H 168.353 -0.740598 5.44789 0
M  V30 1858 H 169.578 -0.988732 6.71864 0
M  V30 1859 H 167.524 -3.04156 5.81227 0
M  V30 1860 H 167.441 -2.09734 7.26325 0
M  V30 1861 H 168.709 -3.27155 7.07524 0
M  V30 1862 N 172.938 -1.57226 0.108567 0
M  V30 1863 C 173.901 -2.13602 -0.831082 0
M  V30 1864 C 174.901 -1.06841 -1.20173 0
M  V30 1865 O 176.091 -1.32666 -1.12895 0
M  V30 1866 C 173.223 -2.66769 -2.12243 0
M  V30 1867 H 174.416 -2.97951 -0.341317 0
M  V30 1868 H 171.969 -1.55667 -0.14057 0
M  V30 1869 H 172.704 -1.85977 -2.65675 0
M  V30 1870 H 172.489 -3.44839 -1.86625 0
M  V30 1871 H 173.979 -3.10332 -2.79435 0
M  V30 1872 N 174.416 0.165178 -1.56732 0
M  V30 1873 C 175.644 0.896218 -1.86482 0
M  V30 1874 C 176.059 1.75555 -0.694675 0
M  V30 1875 O 175.416 1.79379 0.33607 0
M  V30 1876 C 175.467 1.76792 -3.1532 0
M  V30 1877 O 175.188 0.943239 -4.27825 0
M  V30 1878 C 176.689 2.6081 -3.58459 0
M  V30 1879 H 173.909 0.260064 -0.618553 0
M  V30 1880 H 176.453 0.163428 -2.03846 0
M  V30 1881 H 174.608 2.45398 -2.99764 0
M  V30 1882 H 175.022 1.53998 -5.01383 0
M  V30 1883 H 176.496 3.17579 -4.51495 0
M  V30 1884 H 176.973 3.35977 -2.82872 0
M  V30 1885 H 177.579 1.97526 -3.76648 0
M  V30 1886 N 175.894 1.51508 0.433938 0
M  V30 1887 C 177.142 1.6402 1.18075 0
M  V30 1888 C 177.463 0.360328 1.91642 0
M  V30 1889 O 176.733 -0.623945 1.85698 0
M  V30 1890 H 175.313 0.6045 0.43885 0
M  V30 1891 H 177.975 1.88452 0.497178 0
M  V30 1892 H 177.071 2.46949 1.90847 0
M  V30 1893 N 177.372 -0.689602 1.41712 0
M  V30 1894 C 178.649 -1.44457 1.31877 0
M  V30 1895 C 179.029 -2.11039 -0.0508537 0
M  V30 1896 O 178.377 -2.02138 -1.06547 0
M  V30 1897 C 178.587 -2.45913 2.47645 0
M  V30 1898 C 179.935 -3.10991 2.89084 0
M  V30 1899 O 180.959 -2.56238 2.47428 0
M  V30 1900 O 179.818 -4.10174 3.61137 0
M  V30 1901 H 176.912 -0.64362 0.519309 0
M  V30 1902 H 179.458 -0.719576 1.53689 0
M  V30 1903 H 178.23 -1.95409 3.39015 0
M  V30 1904 H 177.853 -3.25913 2.27742 0
M  V30 1905 N 178.85 -1.27639 -0.924453 0
M  V30 1906 C 180.099 -1.13549 -1.66702 0
M  V30 1907 C 180.412 0.317487 -1.93006 0
M  V30 1908 O 181.618 0.579333 -2.65247 0
M  V30 1909 C 180.074 -1.98426 -3.00259 0
M  V30 1910 C 179.682 -3.484 -2.81641 0
M  V30 1911 C 181.426 -1.92993 -3.78092 0
M  V30 1912 C 179.333 -4.25464 -4.10773 0
M  V30 1913 H 178.263 -0.421351 -0.625283 0
M  V30 1914 H 180.914 -1.52085 -1.02676 0
M  V30 1915 H 179.296 -1.52736 -3.6536 0
M  V30 1916 H 180.47 -4.01973 -2.25287 0
M  V30 1917 H 178.785 -3.55245 -2.17232 0
M  V30 1918 H 181.382 -2.47844 -4.7379 0
M  V30 1919 H 181.725 -0.904281 -4.0636 0
M  V30 1920 H 182.258 -2.36595 -3.19793 0
M  V30 1921 H 178.997 -5.28566 -3.87683 0
M  V30 1922 H 178.517 -3.76667 -4.66779 0
M  V30 1923 H 180.196 -4.34812 -4.79111 0
M  V30 1924 N 180.328 1.1314 -1.09713 0
M  V30 1925 C 181.558 1.88048 -0.855656 0
M  V30 1926 C 181.966 1.79537 0.596919 0
M  V30 1927 O 181.309 1.16196 1.42282 0
M  V30 1928 C 181.371 3.38314 -1.21589 0
M  V30 1929 C 181.035 3.70605 -2.67397 0
M  V30 1930 C 182.032 3.69596 -3.65643 0
M  V30 1931 C 179.717 4.0017 -3.03593 0
M  V30 1932 C 181.711 3.977 -4.9811 0
M  V30 1933 C 179.398 4.27935 -4.36251 0
M  V30 1934 C 180.396 4.26685 -5.33318 0
M  V30 1935 O 180.084 4.53767 -6.63589 0
M  V30 1936 H 179.816 0.60208 -0.307368 0
M  V30 1937 H 182.37 1.44128 -1.46343 0
M  V30 1938 H 180.6 3.82752 -0.551177 0
M  V30 1939 H 182.289 3.94552 -0.953083 0
M  V30 1940 H 183.055 3.46826 -3.39023 0
M  V30 1941 H 178.934 4.00289 -2.2867 0
M  V30 1942 H 182.478 3.9664 -5.73866 0
M  V30 1943 H 178.375 4.50178 -4.62613 0
M  V30 1944 H 179.143 4.71422 -6.69107 0
M  V30 1945 N 181.806 0.884767 1.30421 0
M  V30 1946 C 182.769 0.356277 2.26414 0
M  V30 1947 C 183.769 -0.501124 1.52792 0
M  V30 1948 O 184.959 -0.30831 1.7145 0
M  V30 1949 C 182.091 -0.492316 3.37326 0
M  V30 1950 H 183.284 1.20389 2.74675 0
M  V30 1951 H 180.837 0.661607 1.41607 0
M  V30 1952 H 181.572 -1.36052 2.94381 0
M  V30 1953 H 181.357 0.121832 3.91911 0
M  V30 1954 H 182.847 -0.853871 4.08777 0
M  V30 1955 N 183.284 -1.43765 0.645699 0
M  V30 1956 C 184.217 -2.2798 -0.100072 0
M  V30 1957 C 185.195 -1.39391 -0.837194 0
M  V30 1958 O 186.379 -1.68833 -0.838306 0
M  V30 1959 C 183.506 -3.18643 -1.14823 0
M  V30 1960 C 182.552 -4.2344 -0.510009 0
M  V30 1961 S 183.385 -5.30761 0.710824 0
M  V30 1962 C 184.541 -6.24992 -0.33699 0
M  V30 1963 H 184.774 -2.90884 0.614322 0
M  V30 1964 H 182.307 -1.48166 0.434304 0
M  V30 1965 H 184.265 -3.71424 -1.74799 0
M  V30 1966 H 182.926 -2.54932 -1.8349 0
M  V30 1967 H 182.119 -4.86948 -1.29991 0
M  V30 1968 H 181.721 -3.73997 0.0154577 0
M  V30 1969 H 184.013 -6.66691 -1.20537 0
M  V30 1970 H 184.956 -7.07612 0.262879 0
M  V30 1971 H 185.364 -5.60517 -0.669425 0
M  V30 1972 N 184.763 -0.387143 -1.52771 0
M  V30 1973 C 185.71 0.449048 -2.26389 0
M  V30 1974 C 186.68 1.05961 -1.27912 0
M  V30 1975 O 187.865 1.08804 -1.56737 0
M  V30 1976 C 185.005 1.57155 -3.0724 0
M  V30 1977 C 184.118 0.984066 -4.20643 0
M  V30 1978 C 183.253 2.07745 -4.88892 0
M  V30 1979 C 182.292 1.46574 -5.94292 0
M  V30 1980 N 181.429 2.49834 -6.56146 0
M  V30 1981 H 186.269 -0.185205 -2.97424 0
M  V30 1982 H 183.806 -0.103164 -1.46738 0
M  V30 1983 H 185.764 2.23309 -3.52405 0
M  V30 1984 H 184.394 2.17615 -2.38419 0
M  V30 1985 H 183.446 0.212193 -3.79808 0
M  V30 1986 H 184.758 0.497029 -4.96318 0
M  V30 1987 H 183.912 2.81673 -5.3735 0
M  V30 1988 H 182.651 2.59807 -4.12737 0
M  V30 1989 H 181.656 0.711696 -5.45174 0
M  V30 1990 H 182.881 0.953088 -6.72379 0
M  V30 1991 H 180.827 3.0107 -5.82832 0
M  V30 1992 H 180.744 2.05879 -7.27427 0
M  V30 1993 H 182.012 3.23399 -7.09249 0
M  V30 1994 N 186.241 1.57166 -0.116904 0
M  V30 1995 C 187.487 1.95412 0.542405 0
M  V30 1996 C 187.82 1.00019 1.66463 0
M  V30 1997 O 187.095 0.0370346 1.94465 0
M  V30 1998 C 187.378 3.43615 1.07708 0
M  V30 1999 C 187.231 4.49781 -0.0415868 0
M  V30 2000 C 188.55 3.93616 1.96861 0
M  V30 2001 H 185.669 0.710543 0.195696 0
M  V30 2002 H 188.311 1.89027 -0.192038 0
M  V30 2003 H 186.461 3.49187 1.70296 0
M  V30 2004 H 188.133 4.56308 -0.676793 0
M  V30 2005 H 186.376 4.28033 -0.705019 0
M  V30 2006 H 187.047 5.50733 0.373717 0
M  V30 2007 H 189.523 3.90335 1.44146 0
M  V30 2008 H 188.399 4.97838 2.3119 0
M  V30 2009 H 188.66 3.34188 2.89432 0
M  V30 2010 N 187.719 -0.156864 1.56817 0
M  V30 2011 C 188.652 -1.22316 1.9265 0
M  V30 2012 C 189.63 -1.42059 0.791076 0
M  V30 2013 O 190.814 -1.56831 1.04576 0
M  V30 2014 C 187.941 -2.58375 2.18998 0
M  V30 2015 C 186.987 -2.55284 3.41661 0
M  V30 2016 S 187.82 -2.02946 4.95553 0
M  V30 2017 C 188.976 -3.40753 5.25013 0
M  V30 2018 H 189.209 -0.917403 2.82791 0
M  V30 2019 H 186.742 -0.362059 1.50095 0
M  V30 2020 H 188.7 -3.36677 2.34859 0
M  V30 2021 H 187.361 -2.86145 1.29538 0
M  V30 2022 H 186.554 -3.55418 3.57343 0
M  V30 2023 H 186.156 -1.85086 3.24991 0
M  V30 2024 H 188.448 -4.36819 5.17876 0
M  V30 2025 H 189.391 -3.29933 6.26538 0
M  V30 2026 H 189.799 -3.37433 4.52548 0
M  V30 2027 N 189.197 -1.51736 -0.425897 0
M  V30 2028 C 190.144 -1.73875 -1.51776 0
M  V30 2029 C 191.114 -0.580702 -1.55618 0
M  V30 2030 O 192.299 -0.81641 -1.72451 0
M  V30 2031 C 189.439 -1.88012 -2.89388 0
M  V30 2032 C 188.552 -3.15606 -2.94986 0
M  V30 2033 C 187.687 -3.20271 -4.23793 0
M  V30 2034 C 186.726 -4.42134 -4.23302 0
M  V30 2035 N 185.863 -4.44284 -5.43651 0
M  V30 2036 H 190.703 -2.67071 -1.32201 0
M  V30 2037 H 188.24 -1.32351 -0.642008 0
M  V30 2038 H 190.198 -1.9419 -3.69251 0
M  V30 2039 H 188.828 -0.98213 -3.07496 0
M  V30 2040 H 187.88 -3.18681 -2.07717 0
M  V30 2041 H 189.192 -4.05486 -2.90486 0
M  V30 2042 H 188.346 -3.25428 -5.12036 0
M  V30 2043 H 187.085 -2.28299 -4.30965 0
M  V30 2044 H 186.09 -4.3714 -3.3345 0
M  V30 2045 H 187.315 -5.35382 -4.17783 0
M  V30 2046 H 185.261 -3.55188 -5.51523 0
M  V30 2047 H 185.178 -5.27988 -5.41078 0
M  V30 2048 H 186.446 -4.53649 -6.33895 0
M  V30 2049 N 190.675 0.682077 -1.42076 0
M  V30 2050 C 191.622 1.79578 -1.44984 0
M  V30 2051 C 192.592 1.6332 -0.302614 0
M  V30 2052 O 193.777 1.83978 -0.505633 0
M  V30 2053 C 190.917 3.1756 -1.35091 0
M  V30 2054 C 190.03 3.45156 -2.59791 0
M  V30 2055 C 189.165 4.72826 -2.42093 0
M  V30 2056 C 188.204 4.93433 -3.62202 0
M  V30 2057 N 187.341 6.12338 -3.43491 0
M  V30 2058 H 192.181 1.76427 -2.40161 0
M  V30 2059 H 189.718 0.861376 -1.19242 0
M  V30 2060 H 191.676 3.97287 -1.27354 0
M  V30 2061 H 190.306 3.19854 -0.435133 0
M  V30 2062 H 189.358 2.59736 -2.77923 0
M  V30 2063 H 190.67 3.5628 -3.49094 0
M  V30 2064 H 189.824 5.60631 -2.319 0
M  V30 2065 H 188.563 4.63973 -1.50268 0
M  V30 2066 H 187.568 4.04073 -3.72834 0
M  V30 2067 H 188.793 5.04136 -4.54998 0
M  V30 2068 H 186.739 6.04672 -2.54377 0
M  V30 2069 H 186.656 6.2429 -4.26377 0
M  V30 2070 H 187.924 7.02841 -3.37097 0
M  V30 2071 N 192.153 1.28127 0.917671 0
M  V30 2072 C 193.1 1.11717 2.0196 0
M  V30 2073 C 194.07 0.0153929 1.66093 0
M  V30 2074 O 195.255 0.179596 1.89953 0
M  V30 2075 C 192.395 0.780927 3.36148 0
M  V30 2076 C 191.508 1.96135 3.84909 0
M  V30 2077 C 190.643 1.56609 5.0759 0
M  V30 2078 C 189.682 2.71339 5.48673 0
M  V30 2079 N 188.819 2.32332 6.62545 0
M  V30 2080 H 193.659 2.06003 2.15329 0
M  V30 2081 H 191.196 1.02535 1.05475 0
M  V30 2082 H 193.154 0.56675 4.13333 0
M  V30 2083 H 191.784 -0.124998 3.22558 0
M  V30 2084 H 190.836 2.28777 3.03916 0
M  V30 2085 H 192.148 2.82165 4.1132 0
M  V30 2086 H 191.302 1.31374 5.92305 0
M  V30 2087 H 190.041 0.677014 4.82978 0
M  V30 2088 H 189.046 2.97276 4.62501 0
M  V30 2089 H 190.271 3.60882 5.75274 0
M  V30 2090 H 188.217 1.45889 6.39572 0
M  V30 2091 H 188.134 3.11899 6.88662 0
M  V30 2092 H 189.402 2.10371 7.50576 0
M  V30 2093 N 193.631 -1.12557 1.10312 0
M  V30 2094 C 194.594 -2.16434 0.75424 0
M  V30 2095 C 195.594 -1.59278 -0.220685 0
M  V30 2096 O 196.784 -1.742 0.00230591 0
M  V30 2097 C 193.916 -3.40699 0.116987 0
M  V30 2098 H 195.109 -2.48811 1.67431 0
M  V30 2099 H 192.662 -1.27542 0.903475 0
M  V30 2100 H 193.397 -3.13921 -0.813877 0
M  V30 2101 H 193.182 -3.83459 0.818613 0
M  V30 2102 H 194.672 -4.17451 -0.111387 0
M  V30 2103 N 195.109 -0.891671 -1.2995 0
M  V30 2104 C 196.039 -0.379797 -2.30391 0
M  V30 2105 C 197.02 0.540919 -1.6127 0
M  V30 2106 O 198.205 0.453352 -1.88834 0
M  V30 2107 C 195.335 0.400654 -3.44981 0
M  V30 2108 C 194.289 -0.428905 -4.25846 0
M  V30 2109 C 193.615 0.478557 -5.32554 0
M  V30 2110 C 194.915 -1.67458 -4.94727 0
M  V30 2111 H 196.609 -1.21914 -2.73454 0
M  V30 2112 H 194.155 -0.587675 -1.31462 0
M  V30 2113 H 196.108 0.769434 -4.14316 0
M  V30 2114 H 194.832 1.27371 -3.0074 0
M  V30 2115 H 193.491 -0.779911 -3.58208 0
M  V30 2116 H 193.139 1.34951 -4.84559 0
M  V30 2117 H 192.839 -0.0727433 -5.87555 0
M  V30 2118 H 194.363 0.843705 -6.04743 0
M  V30 2119 H 195.777 -1.376 -5.56542 0
M  V30 2120 H 194.174 -2.16659 -5.59624 0
M  V30 2121 H 195.244 -2.41518 -4.20473 0
M  V30 2122 N 196.587 1.43421 -0.653314 0
M  V30 2123 C 197.517 2.33487 0.0246656 0
M  V30 2124 C 198.498 1.49475 0.811863 0
M  V30 2125 O 199.683 1.78139 0.773322 0
M  V30 2126 C 196.813 3.32841 0.99166 0
M  V30 2127 C 195.767 4.26842 0.314568 0
M  V30 2128 C 195.093 5.16236 1.39302 0
M  V30 2129 C 196.393 5.16243 -0.793095 0
M  V30 2130 H 198.087 2.90427 -0.727481 0
M  V30 2131 H 195.633 1.39649 -0.351287 0
M  V30 2132 H 197.586 3.94747 1.47487 0
M  V30 2133 H 196.31 2.74158 1.77497 0
M  V30 2134 H 194.969 3.663 -0.148199 0
M  V30 2135 H 194.617 4.53891 2.16776 0
M  V30 2136 H 194.317 5.79948 0.945223 0
M  V30 2137 H 195.841 5.81015 1.87759 0
M  V30 2138 H 197.255 5.71958 -0.392039 0
M  V30 2139 H 195.652 5.88676 -1.16536 0
M  V30 2140 H 196.722 4.55927 -1.65103 0
M  V30 2141 N 198.065 0.39524 1.52563 0
M  V30 2142 C 199.028 -0.425001 2.25225 0
M  V30 2143 C 200.028 -0.985266 1.27079 0
M  V30 2144 O 201.218 -0.866332 1.5113 0
M  V30 2145 C 198.35 -1.59686 3.01186 0
M  V30 2146 H 199.543 0.211233 2.99155 0
M  V30 2147 H 197.096 0.147472 1.55603 0
M  V30 2148 H 197.831 -2.27035 2.31572 0
M  V30 2149 H 197.616 -1.20176 3.73229 0
M  V30 2150 H 199.106 -2.17743 3.5634 0
M  V30 2151 N 199.544 -1.57102 0.125237 0
M  V30 2152 C 200.476 -2.12726 -0.853237 0
M  V30 2153 C 201.489 -1.07145 -1.22571 0
M  V30 2154 O 202.678 -1.34497 -1.17358 0
M  V30 2155 C 199.778 -2.61709 -2.15317 0
M  V30 2156 C 198.951 -3.91456 -1.95143 0
M  V30 2157 C 198.01 -4.25973 -3.08923 0
M  V30 2158 O 197.036 -4.94682 -2.81564 0
M  V30 2159 N 198.238 -3.83795 -4.35524 0
M  V30 2160 H 201.003 -2.97307 -0.377964 0
M  V30 2161 H 198.564 -1.61792 -0.0590011 0
M  V30 2162 H 200.556 -2.81826 -2.90441 0
M  V30 2163 H 199.126 -1.81974 -2.54174 0
M  V30 2164 H 198.346 -3.80185 -1.04177 0
M  V30 2165 H 199.634 -4.76283 -1.78976 0
M  V30 2166 H 199.032 -3.2839 -4.60626 0
M  V30 2167 H 197.589 -4.09008 -5.07499 0
M  V30 2168 N 201.022 0.148545 -1.56898 0
M  V30 2169 C 201.932 1.20293 -2.01412 0
M  V30 2170 C 202.948 1.47107 -0.929273 0
M  V30 2171 O 204.124 1.58807 -1.23863 0
M  V30 2172 C 201.189 2.51682 -2.38447 0
M  V30 2173 C 200.25 2.32529 -3.60872 0
M  V30 2174 C 199.483 3.57653 -3.96132 0
M  V30 2175 O 199.706 4.63771 -3.32073 0
M  V30 2176 O 198.64 3.50408 -4.89385 0
M  V30 2177 H 202.466 0.855025 -2.91416 0
M  V30 2178 H 200.051 0.357151 -1.45068 0
M  V30 2179 H 201.933 3.29147 -2.63135 0
M  V30 2180 H 200.608 2.86006 -1.51599 0
M  V30 2181 H 199.515 1.53019 -3.41373 0
M  V30 2182 H 200.848 2.03121 -4.48333 0
M  V30 2183 N 202.5 1.5196 0.417844 0
M  V30 2184 C 203.432 1.70895 1.52733 0
M  V30 2185 C 204.445 0.589405 1.51756 0
M  V30 2186 O 205.634 0.864312 1.56179 0
M  V30 2187 C 202.734 1.72627 2.91639 0
M  V30 2188 C 201.907 3.01479 3.16905 0
M  V30 2189 C 200.966 2.95139 4.35637 0
M  V30 2190 O 199.992 3.69059 4.3334 0
M  V30 2191 N 201.194 2.12328 5.40275 0
M  V30 2192 H 203.959 2.66612 1.36888 0
M  V30 2193 H 201.52 1.50089 0.607037 0
M  V30 2194 H 203.512 1.65928 3.6912 0
M  V30 2195 H 202.082 0.844216 3.00985 0
M  V30 2196 H 201.302 3.21895 2.27546 0
M  V30 2197 H 202.59 3.86736 3.30625 0
M  V30 2198 H 201.988 1.51685 5.44985 0
M  V30 2199 H 200.545 2.11494 6.16534 0
M  V30 2200 N 203.978 -0.674533 1.42435 0
M  V30 2201 C 205.224 -1.43671 1.43131 0
M  V30 2202 C 205.557 -1.94142 0.0476021 0
M  V30 2203 O 204.832 -1.70924 -0.928188 0
M  V30 2204 C 205.115 -2.63355 2.45594 0
M  V30 2205 C 204.968 -2.18514 3.93156 0
M  V30 2206 C 206.287 -3.65571 2.45043 0
M  V30 2207 H 203.406 -0.521077 0.521198 0
M  V30 2208 H 206.048 -0.766551 1.7385 0
M  V30 2209 H 204.198 -3.2053 2.19528 0
M  V30 2210 H 205.87 -1.66504 4.30202 0
M  V30 2211 H 204.113 -1.50086 4.07009 0
M  V30 2212 H 204.784 -3.04484 4.60428 0
M  V30 2213 H 207.26 -3.18113 2.68223 0
M  V30 2214 H 206.136 -4.46893 3.18713 0
M  V30 2215 H 206.397 -4.16716 1.47649 0
M  V30 2216 N 205.456 -1.28612 -0.910864 0
M  V30 2217 C 206.681 -1.1891 -1.69927 0
M  V30 2218 C 207.106 0.248372 -1.86453 0
M  V30 2219 O 206.464 1.17961 -1.37676 0
M  V30 2220 C 206.512 -1.89578 -3.06745 0
M  V30 2221 O 205.616 -1.20521 -3.94396 0
M  V30 2222 H 204.957 -0.412632 -0.520222 0
M  V30 2223 H 207.487 -1.69985 -1.1387 0
M  V30 2224 H 207.497 -1.97597 -3.56958 0
M  V30 2225 H 206.172 -2.94136 -2.94035 0
M  V30 2226 H 204.749 -1.20684 -3.52831 0
M  V30 2227 N 206.934 1.1197 -1.10907 0
M  V30 2228 C 208.181 1.83588 -0.854507 0
M  V30 2229 C 208.509 1.84357 0.6199 0
M  V30 2230 O 207.764 1.28809 1.47332 0
M  V30 2231 C 208.063 3.30749 -1.35425 0
M  V30 2232 C 207.729 3.50146 -2.84093 0
M  V30 2233 C 206.391 3.55148 -3.2469 0
M  V30 2234 C 208.743 3.56857 -3.79872 0
M  V30 2235 C 206.071 3.6441 -4.59806 0
M  V30 2236 C 208.423 3.6765 -5.14797 0
M  V30 2237 C 207.087 3.7091 -5.54961 0
M  V30 2238 H 206.357 0.671795 -0.312686 0
M  V30 2239 H 209.004 1.32091 -1.38652 0
M  V30 2240 H 207.309 3.84703 -0.742361 0
M  V30 2241 H 209.006 3.8464 -1.1337 0
M  V30 2242 H 205.596 3.46919 -2.51685 0
M  V30 2243 H 209.78 3.52258 -3.49611 0
M  V30 2244 H 205.036 3.65208 -4.9034 0
M  V30 2245 H 209.21 3.71786 -5.88853 0
M  V30 2246 H 206.837 3.7784 -6.59652 0
M  V30 2247 N 208.412 0.89855 1.29475 0
M  V30 2248 C 209.659 0.523882 1.95606 0
M  V30 2249 C 209.987 -0.929608 1.70847 0
M  V30 2250 O 209.242 -1.67401 1.01367 0
M  V30 2251 C 209.541 0.761398 3.49195 0
M  V30 2252 C 209.207 2.19207 3.94029 0
M  V30 2253 C 207.869 2.58326 4.05982 0
M  V30 2254 C 210.221 3.12379 4.17216 0
M  V30 2255 C 207.549 3.898 4.38489 0
M  V30 2256 C 209.901 4.43401 4.51197 0
M  V30 2257 C 208.565 4.82394 4.61359 0
M  V30 2258 H 207.835 0.191702 0.715773 0
M  V30 2259 H 210.482 1.13699 1.54094 0
M  V30 2260 H 208.787 0.0653622 3.91745 0
M  V30 2261 H 210.484 0.450904 3.98457 0
M  V30 2262 H 207.074 1.87846 3.85242 0
M  V30 2263 H 211.258 2.83371 4.07449 0
M  V30 2264 H 206.514 4.19734 4.44559 0
M  V30 2265 H 210.688 5.15623 4.68087 0
M  V30 2266 H 208.315 5.84306 4.86303 0
M  V30 2267 N 209.89 -1.43072 0.660911 0
M  V30 2268 C 210.8 -2.34585 -0.0264163 0
M  V30 2269 C 211.816 -1.54316 -0.803898 0
M  V30 2270 O 212.992 -1.86939 -0.749391 0
M  V30 2271 C 210.057 -3.32689 -0.975639 0
M  V30 2272 C 209.118 -4.2886 -0.194236 0
M  V30 2273 C 208.351 -5.22278 -1.09825 0
M  V30 2274 O 208.574 -5.20299 -2.33763 0
M  V30 2275 O 207.508 -5.99228 -0.566513 0
M  V30 2276 H 211.334 -2.94869 0.727034 0
M  V30 2277 H 208.919 -1.43342 0.42111 0
M  V30 2278 H 210.801 -3.92995 -1.52094 0
M  V30 2279 H 209.476 -2.74898 -1.70918 0
M  V30 2280 H 208.383 -3.72011 0.394835 0
M  V30 2281 H 209.716 -4.89655 0.499899 0
M  V30 2282 N 211.368 -0.403325 -1.52352 0
M  V30 2283 C 212.278 0.432009 -2.30588 0
M  V30 2284 C 213.294 1.05884 -1.38075 0
M  V30 2285 O 214.47 1.06161 -1.71148 0
M  V30 2286 C 211.535 1.53669 -3.10784 0
M  V30 2287 C 210.596 0.933525 -4.19027 0
M  V30 2288 C 209.829 1.98557 -4.9539 0
M  V30 2289 O 210.052 3.20283 -4.71991 0
M  V30 2290 O 208.986 1.59504 -5.80381 0
M  V30 2291 H 212.812 -0.205739 -3.03002 0
M  V30 2292 H 210.397 -0.166675 -1.48467 0
M  V30 2293 H 212.279 2.17814 -3.60742 0
M  V30 2294 H 210.954 2.15915 -2.41169 0
M  V30 2295 H 209.861 0.254954 -3.7323 0
M  V30 2296 H 211.194 0.35508 -4.90918 0
M  V30 2297 N 212.846 1.57033 -0.133567 0
M  V30 2298 C 213.756 2.19632 0.824564 0
M  V30 2299 C 214.772 1.17666 1.28182 0
M  V30 2300 O 215.948 1.50193 1.3418 0
M  V30 2301 C 213.013 2.79499 2.05137 0
M  V30 2302 C 212.074 3.96548 1.64464 0
M  V30 2303 C 211.307 4.5355 2.81297 0
M  V30 2304 O 211.53 4.09438 3.97136 0
M  V30 2305 O 210.464 5.44018 2.57542 0
M  V30 2306 H 214.29 3.01991 0.321766 0
M  V30 2307 H 211.875 1.49112 0.0927889 0
M  V30 2308 H 213.757 3.17602 2.7696 0
M  V30 2309 H 212.432 2.00162 2.54395 0
M  V30 2310 H 211.339 3.63186 0.897048 0
M  V30 2311 H 212.672 4.77364 1.19934 0
M  V30 2312 N 214.325 -0.140222 1.56975 0
M  V30 2313 C 215.741 -0.493088 1.51792 0
M  V30 2314 C 215.941 -1.83013 0.843116 0
M  V30 2315 O 214.997 -2.49041 0.416493 0
M  V30 2316 C 216.31 -0.497144 2.96562 0
M  V30 2317 C 217.858 -0.582186 3.07538 0
M  V30 2318 C 218.333 -0.616838 4.53827 0
M  V30 2319 N 219.824 -0.678873 4.58198 0
M  V30 2320 C 220.559 -0.726782 5.68775 0
M  V30 2321 N 220.055 -0.733623 6.88905 0
M  V30 2322 N 221.848 -0.768179 5.56826 0
M  V30 2323 H 213.999 0.736108 1.99237 0
M  V30 2324 H 216.262 0.269182 0.90898 0
M  V30 2325 H 215.968 0.417217 3.49217 0
M  V30 2326 H 215.842 -1.33263 3.52875 0
M  V30 2327 H 218.229 -1.48697 2.54899 0
M  V30 2328 H 218.31 0.280581 2.54257 0
M  V30 2329 H 217.954 0.283812 5.07106 0
M  V30 2330 H 217.884 -1.49619 5.04898 0
M  V30 2331 H 220.375 -0.68061 3.7172 0
M  V30 2332 H 220.688 -0.772215 7.68932 0
M  V30 2333 H 219.033 -0.701389 6.91452 0
M  V30 2334 H 222.224 -0.760051 4.61888 0
M  V30 2335 H 222.397 -0.80205 6.43017 0
M  V30 2336 N 215.803 -1.52179 -0.40978 0
M  V30 2337 C 216.751 -1.76086 -1.51975 0
M  V30 2338 C 217.745 -0.627964 -1.57331 0
M  V30 2339 O 218.951 -0.809993 -1.60745 0
M  V30 2340 H 215.326 -0.556829 -0.505416 0
M  V30 2341 H 217.297 -2.69077 -1.28996 0
M  V30 2342 C 216.046 -1.92799 -2.8935 0
M  V30 2343 H 215.369 -2.79392 -2.85972 0
M  V30 2344 H 216.809 -2.13527 -3.66309 0
M  V30 2345 C 215.268 -0.694923 -3.29655 0
M  V30 2346 O 215.798 0.13751 -4.01465 0
M  V30 2347 N 214.004 -0.53101 -2.85707 0
M  V30 2348 H 213.551 -1.20952 -2.27439 0
M  V30 2349 H 213.509 0.292718 -3.13034 0
M  V30 2350 N 217.281 0.66697 -1.42791 0
M  V30 2351 C 218.53 1.42278 -1.42968 0
M  V30 2352 C 218.843 1.9553 -0.0524489 0
M  V30 2353 O 220.049 2.71414 0.068363 0
M  V30 2354 C 218.505 2.57418 -2.51524 0
M  V30 2355 C 218.113 2.10832 -3.9529 0
M  V30 2356 C 219.857 3.34878 -2.60877 0
M  V30 2357 C 217.764 3.23101 -4.95338 0
M  V30 2358 H 216.694 0.534533 -0.531781 0
M  V30 2359 H 219.345 0.721302 -1.68729 0
M  V30 2360 H 217.727 3.29971 -2.18941 0
M  V30 2361 H 218.901 1.4538 -4.37266 0
M  V30 2362 H 217.216 1.46289 -3.89857 0
M  V30 2363 H 219.813 4.18505 -3.32802 0
M  V30 2364 H 220.156 3.81993 -1.6549 0
M  V30 2365 H 220.689 2.69398 -2.92693 0
M  V30 2366 H 217.428 2.80969 -5.9223 0
M  V30 2367 H 216.948 3.87309 -4.57987 0
M  V30 2368 H 218.627 3.88447 -5.17415 0
M  V30 2369 N 218.759 1.29093 0.90403 0
M  V30 2370 C 219.689 1.16401 2.02418 0
M  V30 2371 C 220.67 0.0593085 1.69997 0
M  V30 2372 O 221.855 0.238021 1.92736 0
M  V30 2373 C 218.985 0.835233 3.37107 0
M  V30 2374 C 217.939 1.89578 3.83724 0
M  V30 2375 C 217.265 1.42041 5.15489 0
M  V30 2376 C 218.565 3.30394 4.04521 0
M  V30 2377 H 220.259 2.10109 2.13295 0
M  V30 2378 H 217.805 1.01157 1.02486 0
M  V30 2379 H 219.758 0.733169 4.14973 0
M  V30 2380 H 218.482 -0.137543 3.2631 0
M  V30 2381 H 217.141 1.98715 3.08071 0
M  V30 2382 H 216.789 0.436426 5.01103 0
M  V30 2383 H 216.489 2.12964 5.4765 0
M  V30 2384 H 218.013 1.33176 5.959 0
M  V30 2385 H 219.427 3.24123 4.72882 0
M  V30 2386 H 217.824 3.99237 4.48029 0
M  V30 2387 H 218.894 3.73692 3.09002 0
M  V30 2388 N 220.237 -1.11381 1.11499 0
M  V30 2389 C 221.462 -1.87475 0.887019 0
M  V30 2390 C 221.887 -1.79639 -0.557796 0
M  V30 2391 O 221.245 -1.15924 -1.39396 0
M  V30 2392 C 221.293 -3.34213 1.35403 0
M  V30 2393 O 220.397 -4.0903 0.526146 0
M  V30 2394 H 219.738 -0.582099 0.319463 0
M  V30 2395 H 222.268 -1.40785 1.48461 0
M  V30 2396 H 222.278 -3.8506 1.34881 0
M  V30 2397 H 220.953 -3.39232 2.40612 0
M  V30 2398 H 219.53 -3.68082 0.597522 0
M  V30 2399 N 221.715 -0.905404 -1.28997 0
M  V30 2400 C 223.131 -0.60233 -1.47798 0
M  V30 2401 C 223.331 0.854645 -1.82478 0
M  V30 2402 O 222.387 1.63439 -1.92468 0
M  V30 2403 C 223.7 -1.53306 -2.58685 0
M  V30 2404 C 225.248 -1.53887 -2.72558 0
M  V30 2405 C 225.723 -2.45602 -3.86579 0
M  V30 2406 N 227.214 -2.43681 -3.93921 0
M  V30 2407 C 227.949 -3.11347 -4.81509 0
M  V30 2408 N 227.445 -3.88313 -5.73746 0
M  V30 2409 N 229.238 -3.00476 -4.75048 0
M  V30 2410 H 221.389 -1.84765 -1.04764 0
M  V30 2411 H 223.652 -0.792025 -0.520961 0
M  V30 2412 H 223.358 -2.57141 -2.39941 0
M  V30 2413 H 223.232 -1.25787 -3.55609 0
M  V30 2414 H 225.619 -0.507941 -2.90696 0
M  V30 2415 H 225.7 -1.85447 -1.76191 0
M  V30 2416 H 225.344 -3.48792 -3.69197 0
M  V30 2417 H 225.274 -2.11349 -4.82327 0
M  V30 2418 H 227.765 -1.87767 -3.27951 0
M  V30 2419 H 228.078 -4.36985 -6.37389 0
M  V30 2420 H 226.423 -3.92419 -5.73614 0
M  V30 2421 H 229.614 -2.39858 -4.01977 0
M  V30 2422 H 229.787 -3.53485 -5.43095 0
M  V30 2423 N 223.193 1.4272 -0.668489 0
M  V30 2424 C 224.418 2.06484 -0.194758 0
M  V30 2425 C 224.843 1.49862 1.13679 0
M  V30 2426 O 224.201 0.614582 1.70565 0
M  V30 2427 C 224.249 3.60353 -0.133546 0
M  V30 2428 O 223.353 4.02464 0.899806 0
M  V30 2429 H 222.694 0.656137 -0.10188 0
M  V30 2430 H 225.224 1.82964 -0.915722 0
M  V30 2431 H 225.234 4.07976 0.0447041 0
M  V30 2432 H 223.909 4.00938 -1.1055 0
M  V30 2433 H 222.486 3.66402 0.693109 0
M  V30 2434 N 224.671 0.411399 1.52136 0
M  V30 2435 C 225.899 -0.163076 2.06256 0
M  V30 2436 C 226.314 -1.3867 1.28125 0
M  V30 2437 O 225.671 -1.79423 0.333721 0
M  V30 2438 C 225.722 -0.511252 3.57867 0
M  V30 2439 O 225.443 0.66378 4.33042 0
M  V30 2440 C 226.944 -1.13921 4.28412 0
M  V30 2441 H 224.164 -0.0193897 0.67072 0
M  V30 2442 H 226.708 0.583007 1.96013 0
M  V30 2443 H 224.863 -1.20723 3.6811 0
M  V30 2444 H 225.277 0.372601 5.23175 0
M  V30 2445 H 226.751 -1.33302 5.35663 0
M  V30 2446 H 227.228 -2.11296 3.85033 0
M  V30 2447 H 227.834 -0.483373 4.22544 0
M  V30 2448 N 226.149 -1.5696 0.141893 0
M  V30 2449 C 227.374 -2.00754 -0.520838 0
M  V30 2450 C 227.799 -1.0213 -1.57959 0
M  V30 2451 O 227.157 0.00371324 -1.813 0
M  V30 2452 C 227.205 -3.43318 -1.10294 0
M  V30 2453 O 226.309 -3.47679 -2.21795 0
M  V30 2454 H 225.65 -0.651564 -0.127908 0
M  V30 2455 H 228.18 -2.03221 0.23712 0
M  V30 2456 H 228.19 -3.82012 -1.43287 0
M  V30 2457 H 226.865 -4.14608 -0.327574 0
M  V30 2458 H 225.442 -3.20824 -1.9007 0
M  V30 2459 N 227.627 0.131896 -1.57047 0
M  V30 2460 C 229.038 0.690407 -1.73465 0
M  V30 2461 C 229.389 1.8094 -0.758629 0
M  V30 2462 O 228.514 2.16282 0.0713813 0
M  V30 2463 C 229.109 1.25916 -3.14532 0
M  V30 2464 C 227.668 1.76409 -3.32501 0
M  V30 2465 C 226.815 0.658579 -2.69366 0
M  V30 2466 H 229.766 -0.0939144 -1.58422 0
M  V30 2467 H 229.787 2.12892 -3.15369 0
M  V30 2468 H 229.299 0.444515 -3.85546 0
M  V30 2469 H 227.4 2.60391 -2.66509 0
M  V30 2470 H 227.513 1.88241 -4.4057 0
M  V30 2471 H 225.877 1.08899 -2.30246 0
M  V30 2472 H 226.66 -0.14487 -3.42994 0
M  V30 2473 N 229.106 1.52395 0.401703 0
M  V30 2474 C 230.352 1.68019 1.14635 0
M  V30 2475 C 230.707 0.408722 1.88009 0
M  V30 2476 O 230 -0.597133 1.82057 0
M  V30 2477 C 230.194 2.84578 2.16217 0
M  V30 2478 C 230.023 4.22938 1.5282 0
M  V30 2479 C 228.793 4.88352 1.29772 0
M  V30 2480 C 230.991 5.04778 0.985094 0
M  V30 2481 N 228.973 6.10726 0.623455 0
M  V30 2482 C 230.344 6.1845 0.438172 0
M  V30 2483 C 232.399 4.90057 0.880275 0
M  V30 2484 C 231.102 7.19013 -0.203306 0
M  V30 2485 C 233.128 5.9086 0.252639 0
M  V30 2486 C 232.49 7.03829 -0.283573 0
M  V30 2487 H 228.589 0.668413 0.405892 0
M  V30 2488 H 231.173 1.89717 0.437674 0
M  V30 2489 H 229.344 2.64483 2.84435 0
M  V30 2490 H 231.076 2.89202 2.83098 0
M  V30 2491 H 227.831 4.46846 1.56926 0
M  V30 2492 H 228.255 6.76323 0.302733 0
M  V30 2493 H 232.897 4.02938 1.28065 0
M  V30 2494 H 230.615 8.05751 -0.615726 0
M  V30 2495 H 234.201 5.81543 0.172954 0
M  V30 2496 H 233.081 7.80493 -0.761575 0
M  V30 2497 N 230.584 -0.659388 1.43143 0
M  V30 2498 C 231.833 -1.41518 1.43721 0
M  V30 2499 C 232.146 -1.95499 0.0628176 0
M  V30 2500 O 233.352 -2.71446 -0.0539683 0
M  V30 2501 C 231.808 -2.5608 2.52885 0
M  V30 2502 C 231.416 -2.08733 3.96402 0
M  V30 2503 C 233.16 -3.3349 2.62649 0
M  V30 2504 C 231.067 -3.20469 4.97045 0
M  V30 2505 H 229.997 -0.531705 0.534608 0
M  V30 2506 H 232.648 -0.712343 1.69109 0
M  V30 2507 H 231.03 -3.28805 2.20688 0
M  V30 2508 H 232.204 -1.43059 4.3803 0
M  V30 2509 H 230.519 -1.44219 3.90627 0
M  V30 2510 H 233.116 -4.16734 3.35017 0
M  V30 2511 H 233.459 -3.8111 1.67513 0
M  V30 2512 H 233.992 -2.67842 2.94118 0
M  V30 2513 H 230.731 -2.77824 5.93712 0
M  V30 2514 H 230.251 -3.84874 4.60034 0
M  V30 2515 H 231.93 -3.85698 5.19467 0
M  V30 2516 N 232.062 -1.29571 -0.897171 0
M  V30 2517 C 233.473 -1.15964 -1.46319 0
M  V30 2518 C 233.824 0.244267 -1.94674 0
M  V30 2519 O 232.949 1.13998 -1.83939 0
M  V30 2520 C 233.544 -2.09906 -2.65942 0
M  V30 2521 C 232.103 -2.00314 -3.18671 0
M  V30 2522 C 231.25 -2.00687 -1.91363 0
M  V30 2523 H 234.201 -1.42019 -0.708268 0
M  V30 2524 H 234.222 -1.67276 -3.41759 0
M  V30 2525 H 233.734 -3.12075 -2.30718 0
M  V30 2526 H 231.835 -1.01242 -3.58582 0
M  V30 2527 H 231.948 -2.88102 -3.82798 0
M  V30 2528 H 230.312 -1.45319 -2.09175 0
M  V30 2529 H 231.095 -3.04566 -1.58413 0
M  V30 2530 N 233.54 1.10788 -1.12088 0
M  V30 2531 C 234.472 2.16816 -0.743213 0
M  V30 2532 C 235.485 1.6119 0.228412 0
M  V30 2533 O 236.674 1.78497 0.0102931 0
M  V30 2534 C 233.774 3.38809 -0.0787313 0
M  V30 2535 C 232.947 4.23885 -1.0789 0
M  V30 2536 C 232.006 5.24334 -0.442713 0
M  V30 2537 O 231.032 5.58497 -1.09864 0
M  V30 2538 N 232.234 5.75079 0.791457 0
M  V30 2539 H 234.999 2.49825 -1.65552 0
M  V30 2540 H 232.56 1.26373 -1.012 0
M  V30 2541 H 234.552 4.03107 0.358766 0
M  V30 2542 H 233.122 3.03805 0.736275 0
M  V30 2543 H 232.342 3.55939 -1.69414 0
M  V30 2544 H 233.63 4.77562 -1.75533 0
M  V30 2545 H 233.028 5.49517 1.3434 0
M  V30 2546 H 231.585 6.4118 1.17183 0
M  V30 2547 N 235.018 0.912232 1.28515 0
M  V30 2548 C 235.948 0.416403 2.29757 0
M  V30 2549 C 236.929 -0.515194 1.6211 0
M  V30 2550 O 238.114 -0.423253 1.89532 0
M  V30 2551 C 235.244 -0.34572 3.45575 0
M  V30 2552 C 234.198 0.496599 4.25109 0
M  V30 2553 C 233.524 -0.393771 5.33248 0
M  V30 2554 C 234.824 1.75307 4.92001 0
M  V30 2555 H 236.518 1.26249 2.7148 0
M  V30 2556 H 234.064 0.608515 1.30511 0
M  V30 2557 H 236.017 -0.703422 4.15488 0
M  V30 2558 H 234.741 -1.2257 3.02728 0
M  V30 2559 H 233.4 0.8368 3.56922 0
M  V30 2560 H 233.048 -1.27225 4.86644 0
M  V30 2561 H 232.748 0.166209 5.87365 0
M  V30 2562 H 234.272 -0.747389 6.06009 0
M  V30 2563 H 235.686 1.46437 5.54283 0
M  V30 2564 H 234.083 2.25534 5.56106 0
M  V30 2565 H 235.153 2.48176 4.16577 0
M  V30 2566 N 236.496 -1.42363 0.676048 0
M  V30 2567 C 237.428 -2.29164 -0.0404605 0
M  V30 2568 C 238.441 -1.43747 -0.764245 0
M  V30 2569 O 239.63 -1.67453 -0.618195 0
M  V30 2570 C 236.73 -3.21196 -1.08103 0
M  V30 2571 C 235.903 -4.35273 -0.430812 0
M  V30 2572 C 234.962 -5.08017 -1.37133 0
M  V30 2573 O 233.988 -5.62494 -0.87116 0
M  V30 2574 N 235.19 -5.13647 -2.70456 0
M  V30 2575 H 237.955 -2.91298 0.704667 0
M  V30 2576 H 235.516 -1.53303 0.520559 0
M  V30 2577 H 237.508 -3.66728 -1.71152 0
M  V30 2578 H 236.078 -2.60505 -1.72788 0
M  V30 2579 H 235.298 -3.92372 0.379209 0
M  V30 2580 H 236.586 -5.08795 0.0221132 0
M  V30 2581 H 235.984 -4.708 -3.1363 0
M  V30 2582 H 234.541 -5.62821 -3.28749 0
M  V30 2583 N 237.974 -0.419461 -1.51915 0
M  V30 2584 C 239.204 0.151915 -2.06041 0
M  V30 2585 C 239.612 1.38539 -1.28855 0
M  V30 2586 O 238.955 1.80592 -0.336463 0
M  V30 2587 C 239.017 0.557119 -3.55157 0
M  V30 2588 C 238.681 -0.567054 -4.53468 0
M  V30 2589 C 239.678 -1.43379 -4.99738 0
M  V30 2590 C 237.363 -0.742693 -4.96779 0
M  V30 2591 C 239.357 -2.46102 -5.87973 0
M  V30 2592 C 237.044 -1.77322 -5.84808 0
M  V30 2593 C 238.042 -2.63078 -6.30301 0
M  V30 2594 O 237.73 -3.64364 -7.16585 0
M  V30 2595 H 237.462 0.0193293 -0.675724 0
M  V30 2596 H 240.016 -0.592073 -1.96682 0
M  V30 2597 H 238.246 1.35355 -3.62238 0
M  V30 2598 H 239.935 1.05759 -3.9188 0
M  V30 2599 H 240.701 -1.30954 -4.66986 0
M  V30 2600 H 236.58 -0.0848307 -4.60922 0
M  V30 2601 H 240.124 -3.13071 -6.23404 0
M  V30 2602 H 236.021 -1.89773 -6.16974 0
M  V30 2603 H 236.789 -3.60731 -7.34721 0
M  V30 2604 N 239.452 1.56882 -0.150215 0
M  V30 2605 C 240.415 2.1573 0.774157 0
M  V30 2606 C 241.415 1.0999 1.17298 0
M  V30 2607 O 242.605 1.35613 1.09338 0
M  V30 2608 C 239.737 2.72302 2.05096 0
M  V30 2609 H 240.93 2.98752 0.262201 0
M  V30 2610 H 238.483 1.55985 0.099248 0
M  V30 2611 H 239.218 1.92956 2.6065 0
M  V30 2612 H 239.003 3.49665 1.77416 0
M  V30 2613 H 240.493 3.17632 2.71109 0
M  V30 2614 N 240.93 -0.123565 1.57115 0
M  V30 2615 C 242.177 -0.832153 1.84612 0
M  V30 2616 C 242.505 -1.80093 0.734627 0
M  V30 2617 O 241.76 -1.93766 -0.27442 0
M  V30 2618 C 242.059 -1.62016 3.18568 0
M  V30 2619 C 241.725 -0.796084 4.43817 0
M  V30 2620 C 240.387 -0.568816 4.77826 0
M  V30 2621 C 242.739 -0.221364 5.2073 0
M  V30 2622 C 240.067 0.243499 5.86194 0
M  V30 2623 C 242.419 0.578117 6.29953 0
M  V30 2624 C 241.083 0.815744 6.62497 0
M  V30 2625 H 240.353 -0.304507 0.675542 0
M  V30 2626 H 243 -0.0947248 1.91266 0
M  V30 2627 H 241.305 -2.42837 3.0747 0
M  V30 2628 H 243.002 -2.17231 3.37064 0
M  V30 2629 H 239.592 -0.983307 4.17168 0
M  V30 2630 H 243.776 -0.384173 4.94811 0
M  V30 2631 H 239.032 0.436871 6.09837 0
M  V30 2632 H 243.206 1.03046 6.88734 0
M  V30 2633 H 240.833 1.44701 7.46301 0
M  V30 2634 N 242.408 -1.52605 -0.393616 0
M  V30 2635 C 243.34 -1.73303 -1.49995 0
M  V30 2636 C 244.353 -0.613473 -1.50799 0
M  V30 2637 O 245.542 -0.889049 -1.54784 0
M  V30 2638 C 242.642 -1.77245 -2.88855 0
M  V30 2639 C 241.815 -3.06483 -3.12069 0
M  V30 2640 C 240.874 -3.02033 -4.30886 0
M  V30 2641 O 239.9 -3.75907 -4.27414 0
M  V30 2642 N 241.102 -2.20897 -5.36828 0
M  V30 2643 H 243.867 -2.68756 -1.32629 0
M  V30 2644 H 241.428 -1.51036 -0.583083 0
M  V30 2645 H 243.42 -1.7178 -3.66434 0
M  V30 2646 H 241.99 -0.891993 -2.99603 0
M  V30 2647 H 241.21 -3.25474 -2.22396 0
M  V30 2648 H 242.498 -3.91947 -3.2443 0
M  V30 2649 H 241.896 -1.60336 -5.42502 0
M  V30 2650 H 240.453 -2.21275 -6.13091 0
M  V30 2651 N 243.887 0.651787 -1.4349 0
M  V30 2652 C 245.164 1.40909 -1.35661 0
M  V30 2653 C 245.544 2.11099 -0.00511733 0
M  V30 2654 O 244.892 2.04892 1.0115 0
M  V30 2655 C 245.102 2.3926 -2.54078 0
M  V30 2656 C 246.45 3.03217 -2.97228 0
M  V30 2657 O 247.474 2.49588 -2.54135 0
M  V30 2658 O 246.333 4.00455 -3.71885 0
M  V30 2659 H 243.427 0.629625 -0.536191 0
M  V30 2660 H 245.973 0.678575 -1.55542 0
M  V30 2661 H 244.745 1.86352 -3.44076 0
M  V30 2662 H 244.368 3.1976 -2.36303 0
M  V30 2663 N 245.365 1.30045 0.890287 0
M  V30 2664 C 246.312 1.15976 1.99545 0
M  V30 2665 C 247.282 0.0506202 1.66023 0
M  V30 2666 O 248.467 0.219847 1.89529 0
M  V30 2667 C 245.607 0.852054 3.34416 0
M  V30 2668 C 244.72 2.04255 3.80662 0
M  V30 2669 C 243.855 1.6734 5.04154 0
M  V30 2670 C 242.894 2.82916 5.42794 0
M  V30 2671 N 242.031 2.46333 6.57468 0
M  V30 2672 H 246.871 2.10524 2.10911 0
M  V30 2673 H 244.408 1.04749 1.03276 0
M  V30 2674 H 246.366 0.654296 4.12037 0
M  V30 2675 H 244.996 -0.0565502 3.2275 0
M  V30 2676 H 244.048 2.35172 2.98995 0
M  V30 2677 H 245.36 2.90826 4.05242 0
M  V30 2678 H 244.514 1.43908 5.89386 0
M  V30 2679 H 243.253 0.779308 4.81433 0
M  V30 2680 H 242.258 3.0702 4.56091 0
M  V30 2681 H 243.483 3.73004 5.6749 0
M  V30 2682 H 241.429 1.59423 6.36334 0
M  V30 2683 H 241.346 3.26436 6.81891 0
M  V30 2684 H 242.614 2.26244 7.45945 0
M  V30 2685 N 246.843 -1.10192 1.12674 0
M  V30 2686 C 247.791 -2.18694 0.792196 0
M  V30 2687 C 248.785 -1.67938 -0.222058 0
M  V30 2688 O 249.991 -1.79822 -0.0800074 0
M  V30 2689 H 246.366 -0.713223 0.238364 0
M  V30 2690 H 248.337 -2.44149 1.71564 0
M  V30 2691 C 247.086 -3.46682 0.265859 0
M  V30 2692 H 246.409 -3.86101 1.03761 0
M  V30 2693 H 247.849 -4.23942 0.0701128 0
M  V30 2694 C 246.308 -3.21506 -1.00675 0
M  V30 2695 O 246.838 -3.43408 -2.08408 0
M  V30 2696 N 245.044 -2.75158 -0.934692 0
M  V30 2697 H 244.591 -2.57535 -0.0578604 0
M  V30 2698 H 244.549 -2.58691 -1.7868 0
M  V30 2699 N 248.321 -0.919034 -1.28029 0
M  V30 2700 C 249.271 -0.382574 -2.24767 0
M  V30 2701 C 250.255 0.508286 -1.52661 0
M  V30 2702 O 251.447 0.347145 -1.73562 0
M  V30 2703 C 248.576 0.371432 -3.41285 0
M  V30 2704 C 247.662 -0.535449 -4.20706 0
M  V30 2705 N 248.053 -1.65141 -4.78082 0
M  V30 2706 C 246.351 -0.336824 -4.44726 0
M  V30 2707 C 247.052 -2.21475 -5.37888 0
M  V30 2708 N 246.028 -1.50537 -5.22341 0
M  V30 2709 H 249.83 -1.23477 -2.66703 0
M  V30 2710 H 247.344 -0.772299 -1.42861 0
M  V30 2711 H 249.341 0.772638 -4.09678 0
M  V30 2712 H 248.001 1.22066 -3.00882 0
M  V30 2713 H 249.012 -2.03392 -4.7629 0
M  V30 2714 H 245.689 0.47246 -4.14818 0
M  V30 2715 H 247.079 -3.15379 -5.93284 0
M  V30 2716 N 249.799 1.42003 -0.683588 0
M  V30 2717 C 250.729 2.33487 -0.024866 0
M  V30 2718 C 251.71 1.51163 0.779975 0
M  V30 2719 O 252.895 1.79739 0.735362 0
M  V30 2720 C 250.025 3.3487 0.920836 0
M  V30 2721 C 248.979 4.27414 0.223958 0
M  V30 2722 C 248.305 5.19074 1.2832 0
M  V30 2723 C 249.605 5.14445 -0.90242 0
M  V30 2724 H 251.299 2.88819 -0.788921 0
M  V30 2725 H 248.845 1.38873 -0.38083 0
M  V30 2726 H 250.798 3.97787 1.39081 0
M  V30 2727 H 249.522 2.77861 1.71642 0
M  V30 2728 H 248.181 3.65904 -0.225864 0
M  V30 2729 H 247.829 4.58387 2.071 0
M  V30 2730 H 247.529 5.81822 0.821995 0
M  V30 2731 H 249.053 5.84867 1.75392 0
M  V30 2732 H 250.467 5.70998 -0.513272 0
M  V30 2733 H 248.864 5.86072 -1.28997 0
M  V30 2734 H 249.934 4.52322 -1.74737 0
M  V30 2735 N 251.277 0.427512 1.51691 0
M  V30 2736 C 252.507 -0.140986 2.06118 0
M  V30 2737 C 252.915 -1.37854 1.29588 0
M  V30 2738 O 252.258 -1.80411 0.346036 0
M  V30 2739 C 252.32 -0.538276 3.55447 0
M  V30 2740 C 251.984 0.591095 4.53161 0
M  V30 2741 C 252.981 1.46027 4.98971 0
M  V30 2742 C 250.666 0.769028 4.96378 0
M  V30 2743 C 252.66 2.49216 5.8666 0
M  V30 2744 C 250.347 1.80421 5.83859 0
M  V30 2745 C 251.345 2.66417 6.28897 0
M  V30 2746 O 251.033 3.68159 7.14643 0
M  V30 2747 H 250.765 -0.0157455 0.675817 0
M  V30 2748 H 253.319 0.602495 1.96365 0
M  V30 2749 H 251.549 -1.33432 3.6295 0
M  V30 2750 H 253.238 -1.0368 3.92435 0
M  V30 2751 H 254.004 1.33429 4.66285 0
M  V30 2752 H 249.883 0.109273 4.6087 0
M  V30 2753 H 253.427 3.16372 6.21735 0
M  V30 2754 H 249.324 1.93042 6.15959 0
M  V30 2755 H 250.092 3.64622 7.32798 0
M  V30 2756 N 252.755 -1.56801 0.158532 0
M  V30 2757 C 253.685 -2.20347 -0.772609 0
M  V30 2758 C 254.666 -1.15518 -1.24859 0
M  V30 2759 O 255.851 -1.43902 -1.30406 0
M  V30 2760 C 252.981 -2.83417 -2.00729 0
M  V30 2761 C 251.935 -3.94174 -1.66765 0
M  V30 2762 C 251.261 -4.44233 -2.97592 0
M  V30 2763 C 252.561 -5.14392 -0.905447 0
M  V30 2764 H 254.255 -2.98413 -0.242959 0
M  V30 2765 H 251.801 -1.43537 -0.115419 0
M  V30 2766 H 253.754 -3.26543 -2.6636 0
M  V30 2767 H 252.478 -2.02701 -2.56086 0
M  V30 2768 H 251.137 -3.51684 -1.03508 0
M  V30 2769 H 250.785 -3.60325 -3.50963 0
M  V30 2770 H 250.485 -5.18945 -2.75626 0
M  V30 2771 H 252.009 -4.90037 -3.64274 0
M  V30 2772 H 253.423 -5.5429 -1.46408 0
M  V30 2773 H 251.82 -5.9494 -0.7853 0
M  V30 2774 H 252.89 -4.84795 0.100668 0
M  V30 2775 N 254.233 0.115231 -1.57178 0
M  V30 2776 C 255.479 0.82357 -1.85325 0
M  V30 2777 C 255.812 1.79349 -0.744814 0
M  V30 2778 O 255.087 1.92899 0.249024 0
M  V30 2779 C 255.37 1.57014 -3.24066 0
M  V30 2780 C 255.223 0.619565 -4.45513 0
M  V30 2781 C 256.542 2.52545 -3.60429 0
M  V30 2782 H 253.661 0.297948 -0.674089 0
M  V30 2783 H 256.303 0.0877138 -1.89797 0
M  V30 2784 H 254.453 2.19742 -3.20383 0
M  V30 2785 H 256.125 0.000837639 -4.613 0
M  V30 2786 H 254.368 -0.0686174 -4.33746 0
M  V30 2787 H 255.039 1.17866 -5.3927 0
M  V30 2788 H 257.515 1.9992 -3.64926 0
M  V30 2789 H 256.391 3.01811 -4.58477 0
M  V30 2790 H 256.652 3.35383 -2.88047 0
M  V30 2791 N 255.711 1.52812 0.385517 0
M  V30 2792 C 256.644 1.72592 1.49289 0
M  V30 2793 C 257.622 0.573819 1.52138 0
M  V30 2794 O 258.806 0.80404 1.70492 0
M  V30 2795 C 255.933 1.78669 2.87741 0
M  V30 2796 C 254.979 3.00455 3.02703 0
M  V30 2797 S 255.812 4.60366 2.73538 0
M  V30 2798 C 256.968 4.69263 4.14177 0
M  V30 2799 H 257.201 2.66248 1.32285 0
M  V30 2800 H 254.734 1.43148 0.578611 0
M  V30 2801 H 256.692 1.82855 3.67524 0
M  V30 2802 H 255.353 0.861 3.02069 0
M  V30 2803 H 254.546 3.01258 4.04054 0
M  V30 2804 H 254.148 2.94278 2.30817 0
M  V30 2805 H 256.44 4.48092 5.08153 0
M  V30 2806 H 257.383 5.71276 4.18388 0
M  V30 2807 H 257.791 3.98072 4.00249 0
M  V30 2808 N 257.189 -0.644168 1.43834 0
M  V30 2809 C 258.099 -1.78563 1.52159 0
M  V30 2810 C 259.115 -1.69147 0.408069 0
M  V30 2811 O 260.291 -1.90156 0.663524 0
M  V30 2812 C 257.356 -3.14888 1.45073 0
M  V30 2813 C 256.417 -3.36034 2.6717 0
M  V30 2814 C 255.65 -4.65855 2.60413 0
M  V30 2815 O 255.873 -5.45805 1.65689 0
M  V30 2816 O 254.807 -4.88918 3.5106 0
M  V30 2817 H 258.633 -1.74494 2.48567 0
M  V30 2818 H 256.218 -0.80378 1.25935 0
M  V30 2819 H 258.1 -3.96179 1.43597 0
M  V30 2820 H 256.775 -3.19528 0.518037 0
M  V30 2821 H 255.682 -2.54472 2.74217 0
M  V30 2822 H 257.015 -3.36247 3.59442 0
M  V30 2823 N 258.668 -1.30515 -0.883378 0
M  V30 2824 C 259.898 -1.22182 -1.66599 0
M  V30 2825 C 260.306 0.217507 -1.87946 0
M  V30 2826 O 259.649 1.1554 -1.42815 0
M  V30 2827 C 259.711 -1.88146 -3.06335 0
M  V30 2828 C 259.375 -3.37476 -3.08154 0
M  V30 2829 C 260.372 -4.33443 -2.87094 0
M  V30 2830 C 258.057 -3.7895 -3.29701 0
M  V30 2831 C 260.051 -5.68858 -2.8754 0
M  V30 2832 C 257.738 -5.14482 -3.29776 0
M  V30 2833 C 258.736 -6.09246 -3.0872 0
M  V30 2834 O 258.424 -7.42302 -3.08615 0
M  V30 2835 H 258.156 -0.423898 -0.52658 0
M  V30 2836 H 260.71 -1.72703 -1.11188 0
M  V30 2837 H 258.94 -1.32157 -3.63416 0
M  V30 2838 H 260.629 -1.7391 -3.66756 0
M  V30 2839 H 261.395 -4.02733 -2.70243 0
M  V30 2840 H 257.274 -3.05631 -3.45124 0
M  V30 2841 H 260.818 -6.428 -2.71024 0
M  V30 2842 H 256.715 -5.44832 -3.46163 0
M  V30 2843 H 257.483 -7.5131 -3.24769 0
M  V30 2844 N 260.146 1.09593 -1.13257 0
M  V30 2845 C 261.078 2.16015 -0.766167 0
M  V30 2846 C 262.091 1.61423 0.211303 0
M  V30 2847 O 263.28 1.78498 -0.00863946 0
M  V30 2848 C 260.38 3.38706 -0.114662 0
M  V30 2849 C 259.553 4.22717 -1.12379 0
M  V30 2850 C 258.612 5.23835 -0.498301 0
M  V30 2851 O 257.638 5.573 -1.15781 0
M  V30 2852 N 258.84 5.75886 0.730417 0
M  V30 2853 H 261.605 2.48055 -1.68193 0
M  V30 2854 H 259.166 1.25292 -1.02535 0
M  V30 2855 H 261.158 4.03464 0.315991 0
M  V30 2856 H 259.728 3.04569 0.704011 0
M  V30 2857 H 258.948 3.54122 -1.73179 0
M  V30 2858 H 260.236 4.75673 -1.80589 0
M  V30 2859 H 259.634 5.50911 1.28504 0
M  V30 2860 H 258.191 6.42387 1.10376 0
M  V30 2861 N 261.624 0.925811 1.2754 0
M  V30 2862 C 263.035 0.610102 1.7645 0
M  V30 2863 C 263.386 -0.874723 1.75622 0
M  V30 2864 O 262.511 -1.68444 1.35851 0
M  V30 2865 C 263.106 1.10073 3.20421 0
M  V30 2866 C 261.665 0.835723 3.67005 0
M  V30 2867 C 260.812 1.26054 2.46993 0
M  V30 2868 H 263.763 1.10579 1.13833 0
M  V30 2869 H 263.784 0.447557 3.77859 0
M  V30 2870 H 263.296 2.18143 3.20991 0
M  V30 2871 H 261.397 -0.231249 3.71882 0
M  V30 2872 H 261.51 1.45193 4.56569 0
M  V30 2873 H 259.874 0.679111 2.45479 0
M  V30 2874 H 260.657 2.34984 2.50275 0
M  V30 2875 N 263.102 -1.41638 0.69111 0
M  V30 2876 C 264.35 -2.00902 0.219758 0
M  V30 2877 C 264.671 -1.54994 -1.18329 0
M  V30 2878 O 263.941 -0.778628 -1.79762 0
M  V30 2879 H 262.521 -0.74289 0.0782558 0
M  V30 2880 H 265.183 -1.73327 0.891271 0
M  V30 2881 H 264.279 -3.11224 0.233708 0
M  V30 2882 N 264.58 -0.43555 -1.51462 0
M  V30 2883 C 265.828 0.131254 -2.01673 0
M  V30 2884 C 266.149 1.43368 -1.32177 0
M  V30 2885 O 265.419 1.90524 -0.455769 0
M  V30 2886 H 263.999 0.0514954 -0.745223 0
M  V30 2887 H 266.661 -0.577847 -1.86137 0
M  V30 2888 H 265.757 0.308446 -3.10572 0
M  V30 2889 N 266.058 1.56714 -0.166846 0
M  V30 2890 C 267.335 1.88412 0.525373 0
M  V30 2891 C 267.715 1.07602 1.81618 0
M  V30 2892 O 267.063 0.168621 2.27877 0
M  V30 2893 C 267.273 3.40363 0.771613 0
M  V30 2894 C 268.621 4.10007 1.1036 0
M  V30 2895 O 269.645 3.45655 0.860304 0
M  V30 2896 O 268.504 5.2369 1.56239 0
M  V30 2897 H 265.598 0.781587 0.270278 0
M  V30 2898 H 268.144 1.68458 -0.204946 0
M  V30 2899 H 266.916 3.91046 -0.141093 0
M  V30 2900 H 266.539 3.65914 1.55541 0
M  V30 2901 N 267.536 -0.106894 1.57237 0
M  V30 2902 C 268.466 -1.13148 2.04254 0
M  V30 2903 C 269.447 -1.42476 0.929224 0
M  V30 2904 O 270.632 -1.52709 1.19973 0
M  V30 2905 C 267.762 -2.4545 2.45706 0
M  V30 2906 C 266.716 -2.30558 3.60592 0
M  V30 2907 C 266.042 -3.67931 3.87983 0
M  V30 2908 C 267.342 -1.75597 4.91897 0
M  V30 2909 H 269.036 -0.740374 2.90101 0
M  V30 2910 H 266.582 -0.354696 1.39563 0
M  V30 2911 H 268.535 -3.17389 2.77205 0
M  V30 2912 H 267.259 -2.86475 1.56843 0
M  V30 2913 H 265.918 -1.61067 3.29322 0
M  V30 2914 H 265.566 -4.06462 2.96306 0
M  V30 2915 H 265.266 -3.58817 4.65322 0
M  V30 2916 H 266.79 -4.41356 4.21945 0
M  V30 2917 H 268.204 -2.37364 5.21854 0
M  V30 2918 H 266.601 -1.77272 5.73319 0
M  V30 2919 H 267.671 -0.714451 4.79608 0
M  V30 2920 N 269.014 -1.53014 -0.377408 0
M  V30 2921 C 269.944 -1.81589 -1.46791 0
M  V30 2922 C 270.925 -0.668622 -1.56408 0
M  V30 2923 O 272.11 -0.917337 -1.71168 0
M  V30 2924 C 269.24 -1.99519 -2.8427 0
M  V30 2925 C 268.194 -3.15249 -2.89486 0
M  V30 2926 C 267.52 -3.18451 -4.29527 0
M  V30 2927 C 268.82 -4.54084 -2.58079 0
M  V30 2928 H 270.514 -2.7291 -1.23127 0
M  V30 2929 H 268.06 -1.31319 -0.590883 0
M  V30 2930 H 270.013 -2.18092 -3.60575 0
M  V30 2931 H 268.737 -1.04897 -3.09296 0
M  V30 2932 H 267.396 -2.96477 -2.15631 0
M  V30 2933 H 267.044 -2.2149 -4.5161 0
M  V30 2934 H 266.744 -3.962 -4.33934 0
M  V30 2935 H 268.268 -3.39193 -5.07721 0
M  V30 2936 H 269.682 -4.72899 -3.24098 0
M  V30 2937 H 268.079 -5.33987 -2.7382 0
M  V30 2938 H 269.149 -4.60006 -1.53372 0
M  V30 2939 N 270.492 0.636531 -1.44174 0
M  V30 2940 C 271.717 1.42847 -1.50364 0
M  V30 2941 C 272.142 1.87665 -0.127867 0
M  V30 2942 O 271.5 1.58408 0.88185 0
M  V30 2943 C 271.548 2.62854 -2.4686 0
M  V30 2944 O 270.652 3.62501 -1.9664 0
M  V30 2945 H 269.993 0.427642 -0.507955 0
M  V30 2946 H 272.523 0.777422 -1.89255 0
M  V30 2947 H 272.533 3.10465 -2.64718 0
M  V30 2948 H 271.208 2.29578 -3.46795 0
M  V30 2949 H 269.785 3.21735 -1.88523 0
M  V30 2950 N 271.97 1.30982 0.876444 0
M  V30 2951 C 272.9 1.20668 1.99903 0
M  V30 2952 C 273.881 0.095354 1.69833 0
M  V30 2953 O 275.066 0.27885 1.92188 0
M  V30 2954 C 272.196 0.90655 3.3526 0
M  V30 2955 C 271.15 1.97675 3.79617 0
M  V30 2956 C 270.476 1.52943 5.1236 0
M  V30 2957 C 271.776 3.389 3.97422 0
M  V30 2958 H 273.47 2.14586 2.0879 0
M  V30 2959 H 271.016 1.03308 1.00317 0
M  V30 2960 H 272.969 0.821025 4.13324 0
M  V30 2961 H 271.693 -0.0682969 3.26529 0
M  V30 2962 H 270.352 2.05205 3.03787 0
M  V30 2963 H 270 0.54262 5.00065 0
M  V30 2964 H 269.7 2.24532 5.43009 0
M  V30 2965 H 271.224 1.45786 5.92941 0
M  V30 2966 H 272.638 3.34081 4.659 0
M  V30 2967 H 271.035 4.0865 4.3946 0
M  V30 2968 H 272.105 3.80163 3.01006 0
M  V30 2969 N 273.449 -1.08991 1.13837 0
M  V30 2970 C 274.379 -2.17771 0.842507 0
M  V30 2971 C 275.36 -1.6892 -0.20001 0
M  V30 2972 O 276.545 -1.94113 -0.0579731 0
M  V30 2973 C 273.675 -3.4589 0.312644 0
M  V30 2974 C 272.629 -4.08099 1.28992 0
M  V30 2975 C 271.955 -5.31098 0.619623 0
M  V30 2976 C 273.255 -4.50077 2.65005 0
M  V30 2977 H 274.949 -2.42777 1.75213 0
M  V30 2978 H 272.495 -1.16682 0.843875 0
M  V30 2979 H 274.448 -4.21297 0.0933043 0
M  V30 2980 H 273.172 -3.20419 -0.632382 0
M  V30 2981 H 271.831 -3.34717 1.49533 0
M  V30 2982 H 271.479 -5.0191 -0.33102 0
M  V30 2983 H 271.179 -5.73674 1.27167 0
M  V30 2984 H 272.703 -6.09224 0.409669 0
M  V30 2985 H 274.117 -5.16688 2.48407 0
M  V30 2986 H 272.514 -5.03553 3.26427 0
M  V30 2987 H 273.584 -3.62257 3.22332 0
M  V30 2988 N 274.927 -0.932562 -1.27047 0
M  V30 2989 C 275.875 -0.42603 -2.28665 0
M  V30 2990 C 276.869 0.49219 -1.62092 0
M  V30 2991 O 278.075 0.371355 -1.76128 0
M  V30 2992 H 274.45 -0.119213 -0.742491 0
M  V30 2993 H 276.421 -1.29579 -2.68797 0
M  V30 2994 C 275.17 0.301426 -3.46391 0
M  V30 2995 H 274.493 -0.39595 -3.97834 0
M  V30 2996 H 275.933 0.6202 -4.1944 0
M  V30 2997 C 274.392 1.51616 -3.00856 0
M  V30 2998 O 274.922 2.61476 -3.04948 0
M  V30 2999 N 273.128 1.36969 -2.56296 0
M  V30 3000 H 272.675 0.475873 -2.53166 0
M  V30 3001 H 272.633 2.18368 -2.26192 0
M  V30 3002 N 276.405 1.4127 -0.698611 0
M  V30 3003 C 277.821 1.55241 -0.370462 0
M  V30 3004 C 278.021 1.67351 1.12231 0
M  V30 3005 O 277.077 1.65363 1.90818 0
M  V30 3006 C 278.39 2.78997 -1.12165 0
M  V30 3007 C 279.938 2.92797 -1.1063 0
M  V30 3008 C 280.413 4.19445 -1.8393 0
M  V30 3009 N 281.904 4.26409 -1.80914 0
M  V30 3010 C 282.639 5.23271 -2.34467 0
M  V30 3011 N 282.135 6.26145 -2.96504 0
M  V30 3012 N 283.928 5.15232 -2.24706 0
M  V30 3013 H 276.079 1.31654 -1.66676 0
M  V30 3014 H 278.342 0.635393 -0.703548 0
M  V30 3015 H 278.048 2.76268 -2.17644 0
M  V30 3016 H 277.922 3.70606 -0.702209 0
M  V30 3017 H 280.309 2.95039 -0.0597713 0
M  V30 3018 H 280.39 2.02353 -1.56483 0
M  V30 3019 H 280.034 4.17964 -2.88563 0
M  V30 3020 H 279.964 5.08866 -1.35509 0
M  V30 3021 H 282.455 3.527 -1.35687 0
M  V30 3022 H 282.768 6.96451 -3.34927 0
M  V30 3023 H 281.113 6.26638 -3.00583 0
M  V30 3024 H 284.304 4.33789 -1.7591 0
M  V30 3025 H 284.477 5.90552 -2.66745 0
M  V30 3026 N 277.883 0.443576 1.51229 0
M  V30 3027 C 279.113 -0.119117 2.06256 0
M  V30 3028 C 279.521 -1.36471 1.31043 0
M  V30 3029 O 278.864 -1.80034 0.365151 0
M  V30 3030 C 278.926 -0.500546 3.55998 0
M  V30 3031 C 278.59 0.639125 4.52509 0
M  V30 3032 C 279.587 1.51311 4.97394 0
M  V30 3033 C 277.272 0.821632 4.95535 0
M  V30 3034 C 279.266 2.55425 5.83984 0
M  V30 3035 C 276.953 1.86603 5.81913 0
M  V30 3036 C 277.951 2.73072 6.26036 0
M  V30 3037 O 277.639 3.75718 7.10698 0
M  V30 3038 H 277.371 -0.00857665 0.675946 0
M  V30 3039 H 279.925 0.623288 1.95715 0
M  V30 3040 H 278.155 -1.29575 3.64345 0
M  V30 3041 H 279.844 -0.995116 3.93513 0
M  V30 3042 H 280.61 1.38367 4.64844 0
M  V30 3043 H 276.489 0.158149 4.60729 0
M  V30 3044 H 280.033 3.22949 6.18344 0
M  V30 3045 H 275.93 1.99564 6.13876 0
M  V30 3046 H 276.698 3.72374 7.2889 0
M  V30 3047 N 279.361 -1.56624 0.175154 0
M  V30 3048 C 280.271 -2.21741 -0.766042 0
M  V30 3049 C 281.287 -1.21023 -1.25018 0
M  V30 3050 O 282.463 -1.53697 -1.3015 0
M  V30 3051 C 279.528 -2.84839 -1.97655 0
M  V30 3052 C 278.589 -4.00769 -1.53892 0
M  V30 3053 C 277.822 -4.60849 -2.69173 0
M  V30 3054 O 278.045 -4.19823 -3.86141 0
M  V30 3055 O 276.979 -5.50655 -2.43028 0
M  V30 3056 H 280.805 -3.02738 -0.241585 0
M  V30 3057 H 278.39 -1.49305 -0.053222 0
M  V30 3058 H 280.272 -3.24834 -2.68442 0
M  V30 3059 H 278.947 -2.06836 -2.48999 0
M  V30 3060 H 277.854 -3.65436 -0.80044 0
M  V30 3061 H 279.187 -4.80376 -1.07236 0
M  V30 3062 N 280.839 0.0985539 -1.57292 0
M  V30 3063 C 282.116 0.834155 -1.76921 0
M  V30 3064 C 282.496 1.97101 -0.755928 0
M  V30 3065 O 281.844 2.27474 0.216245 0
M  V30 3066 C 282.054 1.33194 -3.22584 0
M  V30 3067 C 283.402 1.77611 -3.85668 0
M  V30 3068 O 284.426 1.42825 -3.26312 0
M  V30 3069 O 283.285 2.4192 -4.90038 0
M  V30 3070 H 280.379 0.397628 -0.725135 0
M  V30 3071 H 282.925 0.0807044 -1.69508 0
M  V30 3072 H 281.697 0.517248 -3.87866 0
M  V30 3073 H 281.32 2.1475 -3.34616 0
M  V30 3074 N 282.317 1.53212 0.369288 0
M  V30 3075 C 283.249 1.75668 1.47219 0
M  V30 3076 C 284.262 0.637387 1.49804 0
M  V30 3077 O 285.451 0.913561 1.5335 0
M  V30 3078 C 282.551 1.81818 2.85999 0
M  V30 3079 C 281.724 3.11409 3.07153 0
M  V30 3080 C 280.783 3.08849 4.26026 0
M  V30 3081 O 279.809 3.82659 4.2138 0
M  V30 3082 N 281.011 2.29409 5.33246 0
M  V30 3083 H 283.776 2.70832 1.28337 0
M  V30 3084 H 281.337 1.51944 0.55898 0
M  V30 3085 H 283.329 1.77588 3.63655 0
M  V30 3086 H 281.899 0.939544 2.98146 0
M  V30 3087 H 281.119 3.28971 2.1719 0
M  V30 3088 H 282.407 3.97059 3.18154 0
M  V30 3089 H 281.805 1.68946 5.39883 0
M  V30 3090 H 280.362 2.31001 6.09493 0
M  V30 3091 N 283.795 -0.628877 1.44509 0
M  V30 3092 C 284.725 -1.75187 1.54376 0
M  V30 3093 C 285.706 -1.65411 0.396618 0
M  V30 3094 O 286.891 -1.84137 0.617031 0
M  V30 3095 C 284.021 -3.13725 1.48976 0
M  V30 3096 C 282.975 -3.38291 2.62189 0
M  V30 3097 C 282.301 -4.76883 2.41841 0
M  V30 3098 C 283.601 -3.30632 4.04326 0
M  V30 3099 H 285.295 -1.67187 2.48373 0
M  V30 3100 H 282.841 -0.802909 1.19538 0
M  V30 3101 H 284.794 -3.92064 1.54478 0
M  V30 3102 H 283.518 -3.22515 0.514961 0
M  V30 3103 H 282.177 -2.62334 2.56079 0
M  V30 3104 H 281.825 -4.82378 1.42548 0
M  V30 3105 H 281.525 -4.94278 3.17747 0
M  V30 3106 H 283.049 -5.57449 2.49165 0
M  V30 3107 H 284.463 -3.98873 4.11793 0
M  V30 3108 H 282.86 -3.59561 4.80454 0
M  V30 3109 H 283.93 -2.28404 4.27738 0
M  V30 3110 N 285.273 -1.31445 -0.869486 0
M  V30 3111 C 286.55 -1.11795 -1.60503 0
M  V30 3112 C 286.93 0.327168 -2.08549 0
M  V30 3113 O 286.278 1.32135 -1.8642 0
M  V30 3114 C 286.488 -2.13258 -2.76265 0
M  V30 3115 C 287.836 -2.45805 -3.46215 0
M  V30 3116 O 288.86 -2.11688 -2.86473 0
M  V30 3117 O 287.719 -3.04228 -4.5399 0
M  V30 3118 H 284.813 -0.430421 -0.706163 0
M  V30 3119 H 287.359 -1.42925 -0.914907 0
M  V30 3120 H 286.131 -3.10461 -2.3818 0
M  V30 3121 H 285.754 -1.83035 -3.52964 0
M  V30 3122 N 286.751 1.08385 -1.14413 0
M  V30 3123 C 287.661 2.18856 -0.844951 0
M  V30 3124 C 288.677 1.73121 0.174668 0
M  V30 3125 O 289.853 2.014 0.00312857 0
M  V30 3126 C 286.918 3.45155 -0.32696 0
M  V30 3127 C 285.979 4.05513 -1.40916 0
M  V30 3128 C 285.212 5.25784 -0.915793 0
M  V30 3129 O 285.435 5.69884 0.242651 0
M  V30 3130 O 284.369 5.77545 -1.69487 0
M  V30 3131 H 288.195 2.46919 -1.76818 0
M  V30 3132 H 285.78 1.17524 -0.922411 0
M  V30 3133 H 287.662 4.21377 -0.0440211 0
M  V30 3134 H 286.337 3.18668 0.568539 0
M  V30 3135 H 285.244 3.30879 -1.74556 0
M  V30 3136 H 286.577 4.3625 -2.27919 0
M  V30 3137 N 288.23 0.939286 1.26551 0
M  V30 3138 C 289.178 0.43815 2.28436 0
M  V30 3139 C 290.172 -0.483587 1.62351 0
M  V30 3140 O 291.378 -0.362009 1.76322 0
M  V30 3141 H 287.753 0.123149 0.741848 0
M  V30 3142 H 289.724 1.31002 2.68106 0
M  V30 3143 C 288.473 -0.283052 3.46546 0
M  V30 3144 H 287.796 0.417043 3.97619 0
M  V30 3145 H 289.236 -0.597948 4.19763 0
M  V30 3146 C 287.695 -1.50018 3.01656 0
M  V30 3147 O 288.225 -2.59855 3.0633 0
M  V30 3148 N 286.431 -1.35608 2.57019 0
M  V30 3149 H 285.978 -0.46244 2.53415 0
M  V30 3150 H 285.936 -2.17165 2.27347 0
M  V30 3151 N 289.708 -1.40897 0.706093 0
M  V30 3152 C 290.638 -2.33418 0.0620085 0
M  V30 3153 C 291.619 -1.52385 -0.755827 0
M  V30 3154 O 292.804 -1.80886 -0.706674 0
M  V30 3155 C 289.934 -3.36293 -0.867445 0
M  V30 3156 C 288.888 -4.27716 -0.155932 0
M  V30 3157 C 288.214 -5.2105 -1.20046 0
M  V30 3158 C 289.514 -5.12944 0.984149 0
M  V30 3159 H 291.208 -2.87527 0.83477 0
M  V30 3160 H 288.754 -1.38249 0.402875 0
M  V30 3161 H 290.707 -3.99949 -1.32735 0
M  V30 3162 H 289.431 -2.80556 -1.67199 0
M  V30 3163 H 288.09 -3.65498 0.284047 0
M  V30 3164 H 287.738 -4.61624 -1.99781 0
M  V30 3165 H 287.438 -5.83056 -0.729328 0
M  V30 3166 H 288.962 -5.87584 -1.66066 0
M  V30 3167 H 290.376 -5.70109 0.604048 0
M  V30 3168 H 288.773 -5.83945 1.38304 0
M  V30 3169 H 289.843 -4.49485 1.81911 0
M  V30 3170 N 291.186 -0.45159 -1.50991 0
M  V30 3171 C 292.435 0.111653 -2.01391 0
M  V30 3172 C 292.748 1.42529 -1.33959 0
M  V30 3173 O 293.954 2.07232 -1.75405 0
M  V30 3174 C 292.41 0.249514 -3.59034 0
M  V30 3175 C 292.018 -1.05453 -4.35412 0
M  V30 3176 C 293.762 0.765762 -4.17536 0
M  V30 3177 C 291.669 -0.881529 -5.84793 0
M  V30 3178 H 290.599 0.0455022 -0.752626 0
M  V30 3179 H 293.25 -0.583524 -1.73975 0
M  V30 3180 H 291.632 1.00803 -3.82955 0
M  V30 3181 H 292.806 -1.82248 -4.23229 0
M  V30 3182 H 291.121 -1.50039 -3.88429 0
M  V30 3183 H 293.718 0.911913 -5.26866 0
M  V30 3184 H 294.061 1.75201 -3.77638 0
M  V30 3185 H 294.594 0.0651744 -3.97747 0
M  V30 3186 H 291.333 -1.84057 -6.29129 0
M  V30 3187 H 290.853 -0.153625 -5.99603 0
M  V30 3188 H 292.532 -0.540363 -6.4474 0
M  V30 3189 N 292.664 1.56529 -0.183458 0
M  V30 3190 C 293.596 2.15747 0.773697 0
M  V30 3191 C 294.609 1.1162 1.1851 0
M  V30 3192 O 295.798 1.3876 1.12285 0
M  V30 3193 C 292.898 2.6952 2.05456 0
M  V30 3194 C 292.071 3.98429 1.8048 0
M  V30 3195 C 291.13 4.37145 2.92901 0
M  V30 3196 O 290.156 5.04791 2.6301 0
M  V30 3197 N 291.358 3.99695 4.2098 0
M  V30 3198 H 294.123 2.98505 0.26736 0
M  V30 3199 H 291.684 1.619 -0.0010878 0
M  V30 3200 H 293.676 2.92412 2.79781 0
M  V30 3201 H 292.246 1.91282 2.47245 0
M  V30 3202 H 291.466 3.8379 0.899947 0
M  V30 3203 H 292.754 4.82597 1.61175 0
M  V30 3204 H 292.152 3.4526 4.48121 0
M  V30 3205 H 290.709 4.27562 4.9197 0
M  V30 3206 N 294.142 -0.090211 1.57342 0
M  V30 3207 C 295.389 -0.792807 1.86335 0
M  V30 3208 C 295.717 -1.78494 0.772662 0
M  V30 3209 O 294.972 -1.94305 -0.233258 0
M  V30 3210 C 295.271 -1.55222 3.21933 0
M  V30 3211 C 294.937 -0.701765 4.45406 0
M  V30 3212 C 293.599 -0.467334 4.78925 0
M  V30 3213 C 295.951 -0.11086 5.21082 0
M  V30 3214 C 293.279 0.367785 5.85546 0
M  V30 3215 C 295.631 0.711609 6.28585 0
M  V30 3216 C 294.295 0.956086 6.60617 0
M  V30 3217 H 293.565 -0.290109 0.681849 0
M  V30 3218 H 296.212 -0.0541332 1.91423 0
M  V30 3219 H 294.517 -2.3626 3.12551 0
M  V30 3220 H 296.214 -2.10032 3.41595 0
M  V30 3221 H 292.804 -0.894598 4.1916 0
M  V30 3222 H 296.988 -0.279129 4.95514 0
M  V30 3223 H 292.244 0.566128 6.08773 0
M  V30 3224 H 296.418 1.17632 6.86393 0
M  V30 3225 H 294.045 1.60499 7.43064 0
M  V30 3226 N 295.62 -1.53406 -0.361157 0
M  V30 3227 C 296.85 -1.73465 -1.1222 0
M  V30 3228 C 297.258 -0.465486 -1.83384 0
M  V30 3229 O 296.601 0.571611 -1.7458 0
M  V30 3230 C 296.663 -2.84834 -2.19339 0
M  V30 3231 C 296.327 -4.25038 -1.67903 0
M  V30 3232 C 297.324 -5.07231 -1.14074 0
M  V30 3233 C 295.009 -4.71464 -1.73282 0
M  V30 3234 C 297.003 -6.33942 -0.663068 0
M  V30 3235 C 294.69 -5.98153 -1.25127 0
M  V30 3236 C 295.688 -6.79223 -0.717296 0
M  V30 3237 O 295.376 -8.03533 -0.242865 0
M  V30 3238 H 295.108 -0.583526 -0.341283 0
M  V30 3239 H 297.662 -2.00964 -0.424591 0
M  V30 3240 H 295.892 -2.5282 -2.92607 0
M  V30 3241 H 297.581 -2.9303 -2.80871 0
M  V30 3242 H 298.347 -4.72534 -1.09254 0
M  V30 3243 H 294.226 -4.08432 -2.13786 0
M  V30 3244 H 297.77 -6.97167 -0.245612 0
M  V30 3245 H 293.667 -6.32347 -1.29642 0
M  V30 3246 H 294.435 -8.177 -0.361786 0
M  V30 3247 N 297.098 0.621204 -1.44841 0
M  V30 3248 C 298.028 1.74366 -1.55303 0
M  V30 3249 C 299.009 1.65199 -0.405385 0
M  V30 3250 O 300.194 1.83807 -0.626787 0
M  V30 3251 C 297.324 3.12931 -1.50637 0
M  V30 3252 C 296.278 3.36896 -2.63979 0
M  V30 3253 C 295.604 4.75594 -2.44366 0
M  V30 3254 C 296.904 3.28483 -4.06074 0
M  V30 3255 H 298.598 1.65867 -2.49256 0
M  V30 3256 H 296.144 0.796558 -1.19962 0
M  V30 3257 H 298.097 3.9124 -1.56555 0
M  V30 3258 H 296.821 3.22237 -0.532057 0
M  V30 3259 H 295.48 2.60972 -2.57467 0
M  V30 3260 H 295.128 4.81616 -1.45105 0
M  V30 3261 H 294.828 4.92586 -3.20364 0
M  V30 3262 H 296.352 5.5612 -2.52117 0
M  V30 3263 H 297.766 3.96684 -4.13902 0
M  V30 3264 H 296.163 3.57008 -4.82354 0
M  V30 3265 H 297.233 2.26133 -4.28943 0
M  V30 3266 N 298.576 1.31904 0.862503 0
M  V30 3267 C 299.539 1.20131 1.95195 0
M  V30 3268 C 300.539 0.126409 1.60302 0
M  V30 3269 O 301.729 0.376234 1.70089 0
M  V30 3270 C 298.861 0.845691 3.30244 0
M  V30 3271 H 300.054 2.16943 2.07064 0
M  V30 3272 H 297.607 1.15622 1.05172 0
M  V30 3273 H 298.342 -0.120957 3.24074 0
M  V30 3274 H 298.127 1.62276 3.56944 0
M  V30 3275 H 299.617 0.787418 4.10109 0
M  V30 3276 N 300.054 -1.07777 1.14986 0
M  V30 3277 C 300.964 -2.18404 0.856546 0
M  V30 3278 C 301.98 -1.73211 -0.165485 0
M  V30 3279 O 303.156 -2.01399 0.00755219 0
M  V30 3280 C 300.221 -3.44977 0.34526 0
M  V30 3281 C 299.282 -4.0476 1.43065 0
M  V30 3282 C 298.515 -5.25291 0.943663 0
M  V30 3283 O 298.738 -5.70004 -0.212426 0
M  V30 3284 O 297.672 -5.76638 1.72547 0
M  V30 3285 H 301.498 -2.45978 1.78125 0
M  V30 3286 H 299.083 -1.17033 0.928631 0
M  V30 3287 H 300.965 -4.21348 0.0663671 0
M  V30 3288 H 299.64 -3.18965 -0.551631 0
M  V30 3289 H 298.547 -3.29949 1.76309 0
M  V30 3290 H 299.88 -4.35035 2.30229 0
M  V30 3291 N 301.532 -0.945985 -1.26051 0
M  V30 3292 C 302.462 -0.477172 -2.28572 0
M  V30 3293 C 303.443 0.472032 -1.63419 0
M  V30 3294 O 304.628 0.372853 -1.90587 0
M  V30 3295 C 301.758 0.253975 -3.4637 0
M  V30 3296 C 300.712 -0.609135 -4.23643 0
M  V30 3297 C 300.038 0.252252 -5.34105 0
M  V30 3298 C 301.338 -1.8829 -4.8718 0
M  V30 3299 H 303.032 -1.33402 -2.68038 0
M  V30 3300 H 300.578 -0.642904 -1.28852 0
M  V30 3301 H 302.531 0.593016 -4.17207 0
M  V30 3302 H 301.255 1.145 -3.05871 0
M  V30 3303 H 299.914 -0.931138 -3.54578 0
M  V30 3304 H 299.562 1.14278 -4.89846 0
M  V30 3305 H 299.262 -0.32188 -5.86718 0
M  V30 3306 H 300.786 0.586454 -6.07777 0
M  V30 3307 H 302.2 -1.61081 -5.50205 0
M  V30 3308 H 300.597 -2.40199 -5.49931 0
M  V30 3309 H 301.667 -2.59134 -4.09851 0
M  V30 3310 N 303.011 1.40521 -0.713556 0
M  V30 3311 C 304.26 2.00155 -0.249192 0
M  V30 3312 C 304.573 1.57224 1.16362 0
M  V30 3313 O 305.779 2.09542 1.72639 0
M  V30 3314 C 304.235 3.5773 -0.3946 0
M  V30 3315 C 303.843 4.09635 -1.81392 0
M  V30 3316 C 305.587 4.24499 0.00907364 0
M  V30 3317 C 303.494 5.59707 -1.91003 0
M  V30 3318 H 302.424 0.74868 -0.0894114 0
M  V30 3319 H 305.075 1.60784 -0.884352 0
M  V30 3320 H 303.457 3.94792 0.30911 0
M  V30 3321 H 304.631 3.83955 -2.54785 0
M  V30 3322 H 302.946 3.55456 -2.16888 0
M  V30 3323 H 305.543 5.34683 -0.0420404 0
M  V30 3324 H 305.886 4.02824 1.05065 0
M  V30 3325 H 306.419 3.92536 -0.645007 0
M  V30 3326 H 303.158 5.86234 -2.93275 0
M  V30 3327 H 302.678 5.87258 -1.22019 0
M  V30 3328 H 304.357 6.24776 -1.6812 0
M  V30 3329 N 304.489 0.459591 1.5075 0
M  V30 3330 C 305.419 -0.330644 2.31147 0
M  V30 3331 C 306.4 -1.00087 1.37538 0
M  V30 3332 O 307.585 -1.00025 1.66459 0
M  V30 3333 C 304.715 -1.41958 3.16962 0
M  V30 3334 C 303.669 -0.871608 4.19031 0
M  V30 3335 C 302.995 -2.05797 4.9351 0
M  V30 3336 C 304.295 0.109251 5.22186 0
M  V30 3337 H 305.989 0.340336 2.97459 0
M  V30 3338 H 303.535 0.165119 1.4305 0
M  V30 3339 H 305.488 -1.9798 3.71997 0
M  V30 3340 H 304.212 -2.11917 2.48513 0
M  V30 3341 H 302.871 -0.333442 3.6508 0
M  V30 3342 H 302.519 -2.74427 4.21544 0
M  V30 3343 H 302.219 -1.6976 5.62544 0
M  V30 3344 H 303.743 -2.62331 5.51375 0
M  V30 3345 H 305.157 -0.361405 5.7216 0
M  V30 3346 H 303.554 0.383316 5.98875 0
M  V30 3347 H 304.624 1.03887 4.73641 0
M  V30 3348 N 305.967 -1.56429 0.191757 0
M  V30 3349 C 306.93 -2.17707 -0.716688 0
M  V30 3350 C 307.93 -1.13061 -1.14341 0
M  V30 3351 O 309.12 -1.38464 -1.05704 0
M  V30 3352 C 306.252 -2.77644 -1.97804 0
M  V30 3353 H 307.445 -2.99342 -0.1829 0
M  V30 3354 H 304.998 -1.56193 -0.0578566 0
M  V30 3355 H 305.733 -1.99799 -2.55443 0
M  V30 3356 H 305.518 -3.54246 -1.68083 0
M  V30 3357 H 307.008 -3.24708 -2.62592 0
M  V30 3358 N 307.445 0.0818655 -1.57387 0
M  V30 3359 C 308.691 0.784074 -1.8703 0
M  V30 3360 C 309.024 1.77729 -0.782689 0
M  V30 3361 O 308.299 1.93384 0.208051 0
M  V30 3362 C 308.582 1.50105 -3.27323 0
M  V30 3363 C 308.435 0.524925 -4.46727 0
M  V30 3364 C 309.754 2.44843 -3.65705 0
M  V30 3365 H 306.873 0.283582 -0.680257 0
M  V30 3366 H 309.515 0.0474352 -1.89941 0
M  V30 3367 H 307.665 2.12897 -3.24972 0
M  V30 3368 H 309.337 -0.0970111 -4.61198 0
M  V30 3369 H 307.58 -0.160606 -4.33503 0
M  V30 3370 H 308.251 1.064 -5.41648 0
M  V30 3371 H 310.727 1.92135 -3.69085 0
M  V30 3372 H 309.603 2.92018 -4.64776 0
M  V30 3373 H 309.864 3.29197 -2.95096 0
M  V30 3374 N 308.923 1.53595 0.353017 0
M  V30 3375 C 309.873 1.77299 1.43349 0
M  V30 3376 C 310.857 0.627884 1.48143 0
M  V30 3377 O 312.049 0.88697 1.53173 0
M  V30 3378 C 309.178 1.97757 2.80619 0
M  V30 3379 C 308.264 3.18305 2.80254 0
M  V30 3380 N 308.655 4.39967 2.49526 0
M  V30 3381 C 306.953 3.19283 3.11407 0
M  V30 3382 C 307.654 5.21772 2.57156 0
M  V30 3383 N 306.63 4.58269 2.92388 0
M  V30 3384 H 310.432 2.68963 1.18474 0
M  V30 3385 H 307.946 1.52391 0.561306 0
M  V30 3386 H 309.943 2.1287 3.58458 0
M  V30 3387 H 308.603 1.07329 3.06448 0
M  V30 3388 H 309.614 4.67482 2.22893 0
M  V30 3389 H 306.291 2.3879 3.4247 0
M  V30 3390 H 307.681 6.2885 2.36638 0
M  V30 3391 N 310.401 -0.613514 1.45168 0
M  V30 3392 C 311.626 -1.40437 1.52618 0
M  V30 3393 C 312.051 -1.87438 0.157707 0
M  V30 3394 O 311.409 -1.59791 -0.856537 0
M  V30 3395 C 311.457 -2.58894 2.51011 0
M  V30 3396 O 310.561 -3.59326 2.02382 0
M  V30 3397 H 309.902 -0.419506 0.514695 0
M  V30 3398 H 312.432 -0.747215 1.90467 0
M  V30 3399 H 312.442 -3.06214 2.69624 0
M  V30 3400 H 311.117 -2.24032 3.50403 0
M  V30 3401 H 309.694 -3.18695 1.93618 0
M  V30 3402 N 311.879 -1.3236 -0.855495 0
M  V30 3403 C 313.125 -1.23054 -1.612 0
M  V30 3404 C 313.458 0.207404 -1.93089 0
M  V30 3405 O 312.733 1.14432 -1.57275 0
M  V30 3406 C 313.016 -2.08937 -2.93287 0
M  V30 3407 C 312.869 -3.61105 -2.68185 0
M  V30 3408 C 314.188 -1.94986 -3.94549 0
M  V30 3409 H 311.307 -0.448364 -0.584926 0
M  V30 3410 H 313.949 -1.62297 -0.987917 0
M  V30 3411 H 312.099 -1.75599 -3.46551 0
M  V30 3412 H 313.771 -4.04652 -2.21483 0
M  V30 3413 H 312.014 -3.83813 -2.02164 0
M  V30 3414 H 312.685 -4.16522 -3.62234 0
M  V30 3415 H 315.161 -2.24189 -3.5054 0
M  V30 3416 H 314.037 -2.57356 -4.84829 0
M  V30 3417 H 314.298 -0.917263 -4.3248 0
M  V30 3418 N 313.357 1.07166 -1.15556 0
M  V30 3419 C 314.307 2.12649 -0.82247 0
M  V30 3420 C 315.291 1.59725 0.194129 0
M  V30 3421 O 316.483 1.76999 -0.00540402 0
M  V30 3422 C 313.612 3.41847 -0.315572 0
M  V30 3423 C 312.698 4.0162 -1.36244 0
M  V30 3424 N 313.089 4.35625 -2.5703 0
M  V30 3425 C 311.387 4.29114 -1.21562 0
M  V30 3426 C 312.088 4.83017 -3.24144 0
M  V30 3427 N 311.064 4.81906 -2.51531 0
M  V30 3428 H 314.866 2.36776 -1.74111 0
M  V30 3429 H 312.38 1.24622 -1.0413 0
M  V30 3430 H 314.377 4.16859 -0.0585855 0
M  V30 3431 H 313.037 3.19163 0.597105 0
M  V30 3432 H 314.048 4.26253 -2.94158 0
M  V30 3433 H 310.725 4.15919 -0.362988 0
M  V30 3434 H 312.115 5.18605 -4.27198 0
M  V30 3435 N 314.835 0.952656 1.25548 0
M  V30 3436 C 315.765 0.489287 2.28316 0
M  V30 3437 C 316.746 -0.463359 1.63667 0
M  V30 3438 O 317.931 -0.36274 1.90782 0
M  V30 3439 C 315.061 -0.235603 3.465 0
M  V30 3440 C 314.015 0.631593 4.23314 0
M  V30 3441 C 313.341 -0.223923 5.34231 0
M  V30 3442 C 314.641 1.90871 4.86174 0
M  V30 3443 H 316.335 1.34822 2.67326 0
M  V30 3444 H 313.881 0.649728 1.28509 0
M  V30 3445 H 315.834 -0.570882 4.17515 0
M  V30 3446 H 314.558 -1.12877 3.06474 0
M  V30 3447 H 313.217 0.949929 3.54079 0
M  V30 3448 H 312.865 -1.11678 4.90446 0
M  V30 3449 H 312.565 0.35299 5.86539 0
M  V30 3450 H 314.089 -0.554214 6.0808 0
M  V30 3451 H 315.503 1.63997 5.49343 0
M  V30 3452 H 313.9 2.43112 5.4865 0
M  V30 3453 H 314.97 2.61304 4.08471 0
M  V30 3454 N 316.313 -1.40141 0.720998 0
M  V30 3455 C 317.246 -2.2819 0.020916 0
M  V30 3456 C 318.224 -1.43633 -0.762129 0
M  V30 3457 O 319.408 -1.7304 -0.747633 0
M  V30 3458 C 316.535 -3.24281 -0.977715 0
M  V30 3459 C 315.581 -4.25548 -0.284836 0
M  V30 3460 S 316.414 -5.26247 0.991169 0
M  V30 3461 C 317.57 -6.259 -0.0052214 0
M  V30 3462 H 317.803 -2.87218 0.767649 0
M  V30 3463 H 315.336 -1.45656 0.512233 0
M  V30 3464 H 317.294 -3.80167 -1.54865 0
M  V30 3465 H 315.955 -2.643 -1.69719 0
M  V30 3466 H 315.148 -4.93154 -1.03996 0
M  V30 3467 H 314.75 -3.73389 0.213684 0
M  V30 3468 H 317.042 -6.72143 -0.850279 0
M  V30 3469 H 317.985 -7.05224 0.637599 0
M  V30 3470 H 318.393 -5.63277 -0.371366 0
M  V30 3471 N 317.792 -0.46758 -1.50504 0
M  V30 3472 C 319.04 0.0884469 -2.01906 0
M  V30 3473 C 319.361 1.40532 -1.35188 0
M  V30 3474 O 318.631 1.89515 -0.496079 0
M  V30 3475 H 317.211 0.0356765 -0.746148 0
M  V30 3476 H 319.873 -0.6172 -1.84869 0
M  V30 3477 H 318.969 0.2425 -3.11156 0
M  V30 3478 N 319.27 1.56325 -0.20005 0
M  V30 3479 C 320.5 2.01811 0.442232 0
M  V30 3480 C 320.908 1.07932 1.55394 0
M  V30 3481 O 320.251 0.0772685 1.83537 0
M  V30 3482 C 320.313 3.43685 1.05457 0
M  V30 3483 C 319.977 4.56928 0.0809833 0
M  V30 3484 C 320.974 5.15009 -0.711471 0
M  V30 3485 C 318.659 5.0229 -0.0315364 0
M  V30 3486 C 320.653 6.16904 -1.60336 0
M  V30 3487 C 318.34 6.04028 -0.926981 0
M  V30 3488 C 319.338 6.6121 -1.71146 0
M  V30 3489 O 319.026 7.60971 -2.59189 0
M  V30 3490 H 318.758 0.666173 0.114848 0
M  V30 3491 H 321.312 2.03085 -0.307511 0
M  V30 3492 H 319.542 3.39413 1.85299 0
M  V30 3493 H 321.231 3.72948 1.60201 0
M  V30 3494 H 321.997 4.80827 -0.634873 0
M  V30 3495 H 317.876 4.57476 0.568902 0
M  V30 3496 H 321.42 6.61464 -2.21611 0
M  V30 3497 H 317.317 6.37634 -1.00468 0
M  V30 3498 H 318.085 7.7841 -2.53023 0
M  V30 3499 N 320.748 -0.0735177 1.57428 0
M  V30 3500 C 321.994 -0.774145 1.87443 0
M  V30 3501 C 322.327 -1.77311 0.792103 0
M  V30 3502 O 321.602 -1.93492 -0.197793 0
M  V30 3503 C 321.885 -1.48367 3.28115 0
M  V30 3504 C 321.738 -0.501227 4.46999 0
M  V30 3505 C 323.057 -2.429 3.66998 0
M  V30 3506 H 320.176 -0.279971 0.681752 0
M  V30 3507 H 322.818 -0.0373616 1.89963 0
M  V30 3508 H 320.968 -2.11171 3.26097 0
M  V30 3509 H 322.64 0.121468 4.6114 0
M  V30 3510 H 320.883 0.183593 4.33411 0
M  V30 3511 H 321.554 -1.03526 5.42205 0
M  V30 3512 H 324.03 -1.90175 3.70098 0
M  V30 3513 H 322.906 -2.89549 4.66318 0
M  V30 3514 H 323.167 -3.27628 2.96837 0
M  V30 3515 N 322.226 -1.5378 -0.344866 0
M  V30 3516 C 323.176 -1.78057 -1.42407 0
M  V30 3517 C 324.16 -0.635732 -1.47808 0
M  V30 3518 O 325.352 -0.89508 -1.527 0
M  V30 3519 C 322.481 -1.99242 -2.79566 0
M  V30 3520 C 321.567 -3.19787 -2.78562 0
M  V30 3521 N 321.958 -4.41284 -2.47189 0
M  V30 3522 C 320.256 -3.2093 -3.0971 0
M  V30 3523 C 320.957 -5.23128 -2.54385 0
M  V30 3524 N 319.933 -4.59813 -2.89953 0
M  V30 3525 H 323.735 -2.69588 -1.17046 0
M  V30 3526 H 321.249 -1.52687 -0.553217 0
M  V30 3527 H 323.246 -2.14768 -3.57324 0
M  V30 3528 H 321.906 -1.08953 -3.05875 0
M  V30 3529 H 322.917 -4.68657 -2.20411 0
M  V30 3530 H 319.594 -2.40603 -3.41199 0
M  V30 3531 H 320.984 -6.30096 -2.333 0
M  V30 3532 N 323.704 0.605807 -1.45491 0
M  V30 3533 C 325.12 0.926751 -1.29936 0
M  V30 3534 C 325.32 1.99896 -0.253706 0
M  V30 3535 O 324.376 2.50038 0.351737 0
M  V30 3536 C 325.689 1.36599 -2.67883 0
M  V30 3537 C 327.237 1.4801 -2.75793 0
M  V30 3538 C 327.712 1.95309 -4.14268 0
M  V30 3539 N 329.203 2.0254 -4.16571 0
M  V30 3540 C 329.938 2.40363 -5.20589 0
M  V30 3541 N 329.434 2.77143 -6.34952 0
M  V30 3542 N 331.227 2.40718 -5.07948 0
M  V30 3543 H 323.378 -0.102862 -2.12151 0
M  V30 3544 H 325.641 0.016639 -0.947854 0
M  V30 3545 H 325.347 0.652306 -3.45598 0
M  V30 3546 H 325.221 2.33215 -2.96463 0
M  V30 3547 H 327.608 2.1847 -1.98381 0
M  V30 3548 H 327.689 0.497041 -2.50925 0
M  V30 3549 H 327.333 1.25436 -4.92167 0
M  V30 3550 H 327.263 2.94532 -4.3653 0
M  V30 3551 H 329.754 1.76699 -3.34045 0
M  V30 3552 H 330.067 3.0489 -7.10114 0
M  V30 3553 H 328.412 2.74834 -6.3835 0
M  V30 3554 H 331.603 2.11392 -4.1765 0
M  V30 3555 H 331.776 2.69869 -5.89131 0
M  V30 3556 N 325.182 1.32811 0.848464 0
M  V30 3557 C 326.459 1.14334 1.58704 0
M  V30 3558 C 326.839 -0.293948 2.09043 0
M  V30 3559 O 326.187 -1.29153 1.88499 0
M  V30 3560 C 326.397 2.17626 2.72837 0
M  V30 3561 C 327.745 2.51282 3.42261 0
M  V30 3562 O 328.769 2.16219 2.83068 0
M  V30 3563 O 327.628 3.11413 4.49093 0
M  V30 3564 H 324.722 0.441601 0.699226 0
M  V30 3565 H 327.268 1.44362 0.892053 0
M  V30 3566 H 326.04 3.14211 2.3321 0
M  V30 3567 H 325.663 1.88628 3.50008 0
M  V30 3568 N 326.66 -1.06551 1.16123 0
M  V30 3569 C 327.909 -1.78687 0.935622 0
M  V30 3570 C 328.222 -1.88056 -0.538001 0
M  V30 3571 O 329.428 -2.56794 -0.88143 0
M  V30 3572 C 327.884 -3.21143 1.62466 0
M  V30 3573 C 327.492 -3.19949 3.13587 0
M  V30 3574 C 329.236 -3.9783 1.48092 0
M  V30 3575 C 327.143 -4.57108 3.75241 0
M  V30 3576 H 326.073 -0.669712 0.346412 0
M  V30 3577 H 328.724 -1.19534 1.39226 0
M  V30 3578 H 327.106 -3.80539 1.09572 0
M  V30 3579 H 328.28 -2.70151 3.73303 0
M  V30 3580 H 326.595 -2.5676 3.27816 0
M  V30 3581 H 329.192 -4.99217 1.91538 0
M  V30 3582 H 329.535 -4.14078 0.429507 0
M  V30 3583 H 330.068 -3.4495 1.98127 0
M  V30 3584 H 326.807 -4.46065 4.80319 0
M  V30 3585 H 326.327 -5.07111 3.20309 0
M  V30 3586 H 328.006 -5.26069 3.76644 0
M  V30 3587 N 328.138 -0.959301 -1.25041 0
M  V30 3588 C 329.085 -0.482057 -2.2571 0
M  V30 3589 C 330.055 0.467939 -1.59372 0
M  V30 3590 O 331.24 0.380159 -1.86974 0
M  V30 3591 C 328.38 0.229623 -3.44335 0
M  V30 3592 C 327.493 -0.758156 -4.25295 0
M  V30 3593 C 326.628 -0.0234403 -5.31195 0
M  V30 3594 C 325.667 -1.00184 -6.03846 0
M  V30 3595 N 324.804 -0.29769 -7.01469 0
M  V30 3596 H 329.644 -1.34538 -2.65901 0
M  V30 3597 H 327.181 -0.674592 -1.3072 0
M  V30 3598 H 329.139 0.658856 -4.11965 0
M  V30 3599 H 327.769 1.05696 -3.05005 0
M  V30 3600 H 326.821 -1.30586 -3.57284 0
M  V30 3601 H 328.133 -1.50458 -4.75567 0
M  V30 3602 H 327.287 0.464201 -6.04922 0
M  V30 3603 H 326.026 0.755741 -4.81809 0
M  V30 3604 H 325.031 -1.50044 -5.2893 0
M  V30 3605 H 326.256 -1.78133 -6.55321 0
M  V30 3606 H 324.202 0.462668 -6.54366 0
M  V30 3607 H 324.119 -0.983128 -7.4958 0
M  V30 3608 H 325.387 0.16826 -7.79318 0
M  V30 3609 N 329.616 1.39756 -0.72842 0
M  V30 3610 C 331.027 1.83498 -0.344289 0
M  V30 3611 C 331.378 1.60868 1.12321 0
M  V30 3612 O 330.503 1.09634 1.86573 0
M  V30 3613 C 331.098 3.33114 -0.618112 0
M  V30 3614 C 329.657 3.753 -0.287549 0
M  V30 3615 C 328.804 2.62831 -0.884048 0
M  V30 3616 H 331.755 1.28842 -0.926578 0
M  V30 3617 H 331.776 3.80334 0.112349 0
M  V30 3618 H 331.288 3.49553 -1.68625 0
M  V30 3619 H 329.389 3.64451 0.775012 0
M  V30 3620 H 329.502 4.72945 -0.765512 0
M  V30 3621 H 327.866 2.52792 -0.311149 0
M  V30 3622 H 328.649 2.82078 -1.95671 0
M  V30 3623 N 331.094 0.475555 1.50254 0
M  V30 3624 C 332.004 -0.321501 2.32387 0
M  V30 3625 C 333.02 -0.991755 1.42969 0
M  V30 3626 O 334.196 -0.978747 1.76018 0
M  V30 3627 C 331.261 -1.38667 3.17762 0
M  V30 3628 C 330.322 -0.732538 4.23004 0
M  V30 3629 C 329.555 -1.74695 5.04299 0
M  V30 3630 O 329.778 -2.97399 4.86734 0
M  V30 3631 O 328.712 -1.31631 5.8733 0
M  V30 3632 H 332.538 0.350071 3.01676 0
M  V30 3633 H 330.123 0.237321 1.47503 0
M  V30 3634 H 332.005 -2.00354 3.70724 0
M  V30 3635 H 330.68 -2.04163 2.51196 0
M  V30 3636 H 329.587 -0.0765902 3.74022 0
M  V30 3637 H 330.92 -0.120452 4.92053 0
M  V30 3638 N 332.573 -1.56217 0.208337 0
M  V30 3639 C 333.521 -2.21053 -0.723769 0
M  V30 3640 C 334.515 -1.18578 -1.20978 0
M  V30 3641 O 335.721 -1.36691 -1.17114 0
M  V30 3642 H 332.096 -0.708595 -0.251788 0
M  V30 3643 H 334.067 -2.98006 -0.153365 0
M  V30 3644 C 332.816 -2.89417 -1.927 0
M  V30 3645 H 332.139 -3.68019 -1.56212 0
M  V30 3646 H 333.579 -3.38201 -2.55727 0
M  V30 3647 C 332.038 -1.91166 -2.77411 0
M  V30 3648 O 332.568 -1.42026 -3.75754 0
M  V30 3649 N 330.774 -1.59105 -2.43175 0
M  V30 3650 H 330.321 -1.99259 -1.63259 0
M  V30 3651 H 330.279 -0.936255 -3.00136 0
M  V30 3652 N 334.051 0.0651679 -1.57465 0
M  V30 3653 C 335.3 0.761916 -1.86756 0
M  V30 3654 C 335.613 1.78406 -0.801925 0
M  V30 3655 O 336.819 2.53084 -0.982885 0
M  V30 3656 C 335.275 1.40603 -3.31299 0
M  V30 3657 C 334.883 0.422115 -4.46007 0
M  V30 3658 C 336.627 2.08476 -3.69781 0
M  V30 3659 C 334.534 1.07252 -5.81593 0
M  V30 3660 H 333.464 0.288308 -0.696702 0
M  V30 3661 H 336.115 0.015344 -1.83494 0
M  V30 3662 H 334.497 2.20109 -3.29193 0
M  V30 3663 H 335.671 -0.343613 -4.59517 0
M  V30 3664 H 333.986 -0.152527 -4.16121 0
M  V30 3665 H 336.583 2.57925 -4.68379 0
M  V30 3666 H 336.926 2.88712 -2.99919 0
M  V30 3667 H 337.459 1.35792 -3.73905 0
M  V30 3668 H 334.198 0.310342 -6.54765 0
M  V30 3669 H 333.718 1.80895 -5.71872 0
M  V30 3670 H 335.397 1.59043 -6.27148 0
M  V30 3671 N 335.529 1.53961 0.336706 0
M  V30 3672 C 336.459 1.85417 1.41925 0
M  V30 3673 C 337.44 0.709856 1.5458 0
M  V30 3674 O 338.625 0.962396 1.68676 0
M  V30 3675 C 335.755 2.06985 2.78881 0
M  V30 3676 C 334.709 3.22813 2.81026 0
M  V30 3677 C 334.035 3.29727 4.20932 0
M  V30 3678 C 335.335 4.60767 2.45949 0
M  V30 3679 H 337.029 2.76079 1.15848 0
M  V30 3680 H 334.575 1.32839 0.555859 0
M  V30 3681 H 336.528 2.27575 3.54665 0
M  V30 3682 H 335.252 1.13061 3.06406 0
M  V30 3683 H 333.911 3.0209 2.07695 0
M  V30 3684 H 333.559 2.33385 4.45579 0
M  V30 3685 H 333.259 4.07566 4.23277 0
M  V30 3686 H 334.783 3.52536 4.98549 0
M  V30 3687 H 336.197 4.81325 3.11446 0
M  V30 3688 H 334.594 5.4106 2.59566 0
M  V30 3689 H 335.664 4.6391 1.41122 0
M  V30 3690 N 337.007 -0.598083 1.45811 0
M  V30 3691 C 338.253 -1.35882 1.50545 0
M  V30 3692 C 338.586 -1.93616 0.150445 0
M  V30 3693 O 337.861 -1.75604 -0.83628 0
M  V30 3694 C 338.144 -2.49966 2.59208 0
M  V30 3695 C 337.997 -1.97367 4.04186 0
M  V30 3696 C 339.316 -3.52068 2.64076 0
M  V30 3697 H 336.435 -0.492717 0.548087 0
M  V30 3698 H 339.077 -0.673319 1.77669 0
M  V30 3699 H 337.227 -3.08443 2.3621 0
M  V30 3700 H 338.899 -1.43466 4.38423 0
M  V30 3701 H 337.142 -1.283 4.14393 0
M  V30 3702 H 337.813 -2.79649 4.75921 0
M  V30 3703 H 340.289 -3.03448 2.84708 0
M  V30 3704 H 339.165 -4.2937 3.41954 0
M  V30 3705 H 339.426 -4.08304 1.69531 0
M  V30 3706 N 338.485 -1.33259 -0.841409 0
M  V30 3707 C 339.762 -1.15174 -1.58096 0
M  V30 3708 C 340.142 0.282858 -2.09196 0
M  V30 3709 O 339.49 1.28151 -1.89181 0
M  V30 3710 C 339.7 -2.1907 -2.71679 0
M  V30 3711 C 341.048 -2.53093 -3.40924 0
M  V30 3712 O 342.072 -2.17717 -2.81918 0
M  V30 3713 O 340.931 -3.1379 -4.47435 0
M  V30 3714 H 338.025 -0.445303 -0.696875 0
M  V30 3715 H 340.571 -1.44833 -0.884385 0
M  V30 3716 H 339.343 -3.15443 -2.31541 0
M  V30 3717 H 338.966 -1.90481 -3.49002 0
M  V30 3718 N 339.963 1.05934 -1.16686 0
M  V30 3719 C 341.379 1.30938 -0.912542 0
M  V30 3720 C 341.579 1.96803 0.432533 0
M  V30 3721 O 340.635 2.23693 1.17123 0
M  V30 3722 C 341.948 2.18649 -2.06429 0
M  V30 3723 C 343.496 2.32055 -2.10047 0
M  V30 3724 C 343.971 3.23122 -3.24586 0
M  V30 3725 N 345.462 3.30706 -3.24327 0
M  V30 3726 C 346.197 4.01273 -4.09594 0
M  V30 3727 N 345.693 4.74332 -5.04956 0
M  V30 3728 N 347.486 3.97361 -3.97569 0
M  V30 3729 H 339.637 0.615777 -2.03278 0
M  V30 3730 H 341.9 0.334077 -0.887185 0
M  V30 3731 H 341.606 1.77534 -3.03603 0
M  V30 3732 H 341.48 3.19252 -2.00894 0
M  V30 3733 H 343.867 2.72415 -1.13464 0
M  V30 3734 H 343.948 1.31107 -2.19647 0
M  V30 3735 H 343.592 2.83477 -4.2143 0
M  V30 3736 H 343.522 4.24057 -3.12223 0
M  V30 3737 H 346.013 2.78644 -2.55276 0
M  V30 3738 H 346.326 5.25716 -5.6643 0
M  V30 3739 H 344.671 4.733 -5.08933 0
M  V30 3740 H 347.862 3.39405 -3.22369 0
M  V30 3741 H 348.035 4.52089 -4.64241 0
M  V30 3742 N 341.441 0.965919 1.2453 0
M  V30 3743 C 342.669 0.644385 1.96609 0
M  V30 3744 C 343.084 -0.785823 1.71669 0
M  V30 3745 O 342.441 -1.52703 0.999399 0
M  V30 3746 C 342.492 0.907375 3.49927 0
M  V30 3747 O 342.213 2.28136 3.74013 0
M  V30 3748 C 343.714 0.599784 4.39224 0
M  V30 3749 H 340.934 0.240588 0.626385 0
M  V30 3750 H 343.478 1.29337 1.58405 0
M  V30 3751 H 341.633 0.304631 3.862 0
M  V30 3752 H 342.047 2.36002 4.68405 0
M  V30 3753 H 343.521 0.834263 5.45659 0
M  V30 3754 H 343.998 -0.465921 4.36722 0
M  V30 3755 H 344.604 1.18235 4.08535 0
M  V30 3756 N 342.919 -1.39368 0.735821 0
M  V30 3757 C 344.167 -2.00101 0.283562 0
M  V30 3758 C 344.488 -1.5868 -1.13338 0
M  V30 3759 O 343.758 -0.835423 -1.77193 0
M  V30 3760 H 342.338 -0.740024 0.101851 0
M  V30 3761 H 345 -1.70404 0.945962 0
M  V30 3762 H 344.096 -3.10323 0.332604 0
M  V30 3763 N 344.397 -0.483516 -1.5 0
M  V30 3764 C 345.347 0.32306 -2.257 0
M  V30 3765 C 346.331 0.950755 -1.29805 0
M  V30 3766 O 347.523 0.861247 -1.54634 0
M  V30 3767 C 344.652 1.39724 -3.13579 0
M  V30 3768 C 343.738 0.776663 -4.16928 0
M  V30 3769 N 344.129 -0.1104 -5.0568 0
M  V30 3770 C 342.427 1.03922 -4.33724 0
M  V30 3771 C 343.128 -0.46387 -5.79848 0
M  V30 3772 N 342.104 0.163987 -5.43353 0
M  V30 3773 H 345.906 -0.360086 -2.91686 0
M  V30 3774 H 343.42 -0.298456 -1.59634 0
M  V30 3775 H 345.417 1.98837 -3.66428 0
M  V30 3776 H 344.077 2.08225 -2.49143 0
M  V30 3777 H 345.088 -0.480069 -5.1567 0
M  V30 3778 H 341.765 1.71829 -3.80501 0
M  V30 3779 H 343.155 -1.18854 -6.61304 0
M  V30 3780 N 345.875 1.56104 -0.216619 0
M  V30 3781 C 347.124 1.97348 0.416744 0
M  V30 3782 C 347.437 1.10715 1.6125 0
M  V30 3783 O 348.643 1.41836 2.31506 0
M  V30 3784 C 347.099 3.51059 0.792835 0
M  V30 3785 C 346.707 4.46387 -0.379828 0
M  V30 3786 C 348.451 4.01026 1.39208 0
M  V30 3787 C 346.358 5.91397 0.0184223 0
M  V30 3788 H 345.288 0.736942 0.159475 0
M  V30 3789 H 347.939 1.80827 -0.31205 0
M  V30 3790 H 346.321 3.63162 1.57891 0
M  V30 3791 H 347.495 4.46029 -1.15737 0
M  V30 3792 H 345.81 4.06734 -0.891979 0
M  V30 3793 H 348.407 5.0686 1.70286 0
M  V30 3794 H 348.75 3.46587 2.30614 0
M  V30 3795 H 349.283 3.92125 0.669537 0
M  V30 3796 H 346.022 6.49807 -0.862002 0
M  V30 3797 H 345.542 5.94961 0.760384 0
M  V30 3798 H 347.221 6.45455 0.446818 0
M  V30 3799 N 347.353 -0.0568162 1.57498 0
M  V30 3800 C 348.3 -1.06591 2.04712 0
M  V30 3801 C 349.27 -1.3758 0.930644 0
M  V30 3802 O 350.455 -1.48392 1.19935 0
M  V30 3803 C 347.595 -2.3701 2.50839 0
M  V30 3804 C 346.708 -2.12421 3.76167 0
M  V30 3805 C 345.843 -3.36511 4.11015 0
M  V30 3806 C 344.882 -3.07353 5.2934 0
M  V30 3807 N 344.019 -4.23816 5.59754 0
M  V30 3808 H 348.859 -0.65631 2.90683 0
M  V30 3809 H 346.396 -0.312481 1.43743 0
M  V30 3810 H 348.354 -3.13175 2.7564 0
M  V30 3811 H 346.984 -2.75744 1.67825 0
M  V30 3812 H 346.036 -1.2688 3.58616 0
M  V30 3813 H 347.348 -1.86894 4.62463 0
M  V30 3814 H 346.502 -4.21062 4.36797 0
M  V30 3815 H 345.241 -3.65128 3.23315 0
M  V30 3816 H 344.246 -2.212 5.03339 0
M  V30 3817 H 345.471 -2.80043 6.1867 0
M  V30 3818 H 343.417 -4.52436 4.75014 0
M  V30 3819 H 343.334 -4.01614 6.40501 0
M  V30 3820 H 344.602 -5.0932 5.90096 0
M  V30 3821 N 348.832 -1.54138 -0.328536 0
M  V30 3822 C 349.762 -1.86167 -1.40939 0
M  V30 3823 C 350.743 -0.718044 -1.54202 0
M  V30 3824 O 351.928 -0.971328 -1.68163 0
M  V30 3825 C 349.058 -2.08461 -2.77779 0
M  V30 3826 C 348.012 -3.24299 -2.7931 0
M  V30 3827 C 347.338 -3.31955 -4.19178 0
M  V30 3828 C 348.638 -4.62065 -2.43502 0
M  V30 3829 H 350.332 -2.76689 -1.14383 0
M  V30 3830 H 347.878 -1.33132 -0.548806 0
M  V30 3831 H 349.831 -2.29453 -3.53454 0
M  V30 3832 H 348.555 -1.14684 -3.05802 0
M  V30 3833 H 347.214 -3.03187 -2.0609 0
M  V30 3834 H 346.862 -2.35745 -4.44335 0
M  V30 3835 H 346.562 -4.09805 -4.2111 0
M  V30 3836 H 348.086 -3.55175 -4.96672 0
M  V30 3837 H 349.5 -4.8297 -3.08889 0
M  V30 3838 H 347.897 -5.42429 -2.56693 0
M  V30 3839 H 348.967 -4.64652 -1.38659 0
M  V30 3840 N 350.31 0.590341 -1.46126 0
M  V30 3841 C 351.556 1.35082 -1.51264 0
M  V30 3842 C 351.889 1.93534 -0.160711 0
M  V30 3843 O 351.164 1.76045 0.826956 0
M  V30 3844 C 351.447 2.48588 -2.6053 0
M  V30 3845 C 351.3 1.95221 -4.05227 0
M  V30 3846 C 352.619 3.50662 -2.6594 0
M  V30 3847 H 349.738 0.489803 -0.550692 0
M  V30 3848 H 352.38 0.663887 -1.78024 0
M  V30 3849 H 350.53 3.07186 -2.37843 0
M  V30 3850 H 352.202 1.41139 -4.39178 0
M  V30 3851 H 350.445 1.26101 -4.15068 0
M  V30 3852 H 351.116 2.77121 -4.77397 0
M  V30 3853 H 353.592 3.01934 -2.86313 0
M  V30 3854 H 352.468 4.27551 -3.44226 0
M  V30 3855 H 352.729 4.07399 -1.71694 0
M  V30 3856 N 351.788 1.33704 0.83433 0
M  V30 3857 C 353.065 1.16011 1.57483 0
M  V30 3858 C 353.445 -0.27176 2.09343 0
M  V30 3859 O 352.793 -1.27146 1.89858 0
M  V30 3860 C 353.003 2.20507 2.70514 0
M  V30 3861 C 354.351 2.54898 3.39577 0
M  V30 3862 O 355.375 2.19209 2.80759 0
M  V30 3863 O 354.234 3.16158 4.45765 0
M  V30 3864 H 351.328 0.448992 0.694503 0
M  V30 3865 H 353.874 1.453 0.876691 0
M  V30 3866 H 352.646 3.16667 2.29865 0
M  V30 3867 H 352.269 1.92329 3.47987 0
M  V30 3868 N 353.266 -1.05314 1.17247 0
M  V30 3869 C 354.513 -1.78293 0.960091 0
M  V30 3870 C 354.841 -1.87658 -0.51136 0
M  V30 3871 O 354.096 -1.3718 -1.39571 0
M  V30 3872 C 354.395 -3.2229 1.54479 0
M  V30 3873 C 354.061 -3.32987 3.04024 0
M  V30 3874 C 352.723 -3.35613 3.44844 0
M  V30 3875 C 355.075 -3.34102 4.00031 0
M  V30 3876 C 352.403 -3.36982 4.8027 0
M  V30 3877 C 354.755 -3.3701 5.35357 0
M  V30 3878 C 353.419 -3.37923 5.75642 0
M  V30 3879 H 352.689 -0.652422 0.351322 0
M  V30 3880 H 355.336 -1.23782 1.46117 0
M  V30 3881 H 353.641 -3.7972 0.965391 0
M  V30 3882 H 355.338 -3.77376 1.35603 0
M  V30 3883 H 351.928 -3.31655 2.71483 0
M  V30 3884 H 356.112 -3.31276 3.69554 0
M  V30 3885 H 351.368 -3.35999 5.10798 0
M  V30 3886 H 355.542 -3.36822 6.09528 0
M  V30 3887 H 353.169 -3.38738 6.80559 0
M  V30 3888 N 354.744 -0.972509 -1.24016 0
M  V30 3889 C 355.992 -0.635776 -1.91839 0
M  V30 3890 C 356.313 0.832312 -1.76345 0
M  V30 3891 O 355.583 1.5946 -1.13795 0
M  V30 3892 H 354.163 -0.232157 -0.710009 0
M  V30 3893 H 356.825 -1.23462 -1.50809 0
M  V30 3894 H 355.921 -0.880545 -2.99421 0
M  V30 3895 N 356.222 1.38976 -0.743202 0
M  V30 3896 C 357.447 2.05161 -0.303936 0
M  V30 3897 C 357.872 1.55677 1.05576 0
M  V30 3898 O 357.23 0.704131 1.67068 0
M  V30 3899 C 357.278 3.59138 -0.324373 0
M  V30 3900 O 356.382 4.06668 0.685204 0
M  V30 3901 H 355.723 0.649815 -0.136518 0
M  V30 3902 H 358.253 1.77852 -1.01142 0
M  V30 3903 H 358.263 4.07639 -0.171618 0
M  V30 3904 H 356.938 3.94515 -1.31647 0
M  V30 3905 H 355.515 3.69561 0.497913 0
M  V30 3906 N 357.7 0.491464 1.49741 0
M  V30 3907 C 358.663 -0.280906 2.27472 0
M  V30 3908 C 359.663 -0.902454 1.33088 0
M  V30 3909 O 360.853 -0.768465 1.56334 0
M  V30 3910 C 357.985 -1.40209 3.10732 0
M  V30 3911 H 359.178 0.401056 2.97206 0
M  V30 3912 H 356.731 0.246131 1.5435 0
M  V30 3913 H 357.466 -2.11849 2.45541 0
M  V30 3914 H 357.251 -0.961969 3.80117 0
M  V30 3915 H 358.741 -1.9464 3.69466 0
M  V30 3916 N 359.178 -1.55987 0.224894 0
M  V30 3917 C 360.141 -2.19178 -0.670348 0
M  V30 3918 C 361.141 -1.15461 -1.11917 0
M  V30 3919 O 362.331 -1.40675 -1.02743 0
M  V30 3920 C 359.463 -2.81777 -1.9187 0
M  V30 3921 H 360.656 -2.99662 -0.119364 0
M  V30 3922 H 358.209 -1.5628 -0.0247128 0
M  V30 3923 H 358.944 -2.05172 -2.51147 0
M  V30 3924 H 358.729 -3.57732 -1.60531 0
M  V30 3925 H 360.219 -3.30205 -2.55645 0
M  V30 3926 N 360.656 0.0484629 -1.57525 0
M  V30 3927 C 361.603 1.05504 -2.05275 0
M  V30 3928 C 362.573 1.37084 -0.937927 0
M  V30 3929 O 363.758 1.47754 -1.2072 0
M  V30 3930 C 360.898 2.35676 -2.52093 0
M  V30 3931 C 360.011 2.10423 -3.77288 0
M  V30 3932 C 359.146 3.34327 -4.12794 0
M  V30 3933 C 358.185 3.04542 -5.30962 0
M  V30 3934 N 357.322 4.20841 -5.61994 0
M  V30 3935 H 362.162 0.640885 -2.91027 0
M  V30 3936 H 359.699 0.304854 -1.43906 0
M  V30 3937 H 361.657 3.11709 -2.77297 0
M  V30 3938 H 360.287 2.7485 -1.69285 0
M  V30 3939 H 359.339 1.24976 -3.59284 0
M  V30 3940 H 360.651 1.84438 -4.63448 0
M  V30 3941 H 359.805 4.1874 -4.39024 0
M  V30 3942 H 358.544 3.63408 -3.25247 0
M  V30 3943 H 357.549 2.18528 -5.04505 0
M  V30 3944 H 358.774 2.76758 -6.20146 0
M  V30 3945 H 356.72 4.4991 -4.77406 0
M  V30 3946 H 356.637 3.98212 -6.42622 0
M  V30 3947 H 357.905 5.06184 -5.92789 0
M  V30 3948 N 362.134 1.5431 0.320358 0
M  V30 3949 C 363.067 1.78769 1.41834 0
M  V30 3950 C 364.045 0.63783 1.49568 0
M  V30 3951 O 365.229 0.875628 1.66928 0
M  V30 3952 C 362.356 1.90712 2.79905 0
M  V30 3953 C 361.402 3.13023 2.89687 0
M  V30 3954 S 362.235 4.71554 2.53766 0
M  V30 3955 C 363.391 4.86408 3.93902 0
M  V30 3956 H 363.624 2.71619 1.20874 0
M  V30 3957 H 361.157 1.45474 0.517377 0
M  V30 3958 H 363.115 1.98279 3.59438 0
M  V30 3959 H 361.776 0.988343 2.98145 0
M  V30 3960 H 360.969 3.18124 3.90913 0
M  V30 3961 H 360.571 3.03803 2.18128 0
M  V30 3962 H 362.863 4.69241 4.88691 0
M  V30 3963 H 363.806 5.88508 3.93782 0
M  V30 3964 H 364.214 4.14689 3.83005 0
M  V30 3965 N 363.613 -0.582584 1.46437 0
M  V30 3966 C 364.561 -1.71272 1.5738 0
M  V30 3967 C 365.555 -1.63524 0.44229 0
M  V30 3968 O 366.761 -1.69016 0.619166 0
M  V30 3969 H 363.136 -0.566273 0.494813 0
M  V30 3970 H 365.107 -1.59174 2.52401 0
M  V30 3971 C 363.856 -3.09658 1.58136 0
M  V30 3972 H 363.179 -3.16291 2.44541 0
M  V30 3973 H 364.619 -3.88494 1.69847 0
M  V30 3974 C 363.078 -3.3547 0.310026 0
M  V30 3975 O 363.608 -3.97199 -0.599683 0
M  V30 3976 N 361.814 -2.89925 0.197901 0
M  V30 3977 H 361.361 -2.39873 0.93909 0
M  V30 3978 H 361.319 -3.07568 -0.65185 0
M  V30 3979 N 365.091 -1.34144 -0.827227 0
M  V30 3980 C 366.316 -1.29476 -1.62021 0
M  V30 3981 C 366.741 0.129292 -1.87655 0
M  V30 3982 O 366.099 1.08967 -1.449 0
M  V30 3983 C 366.147 -2.08702 -2.94068 0
M  V30 3984 O 365.251 -1.45359 -3.85933 0
M  V30 3985 H 364.592 -0.444881 -0.492927 0
M  V30 3986 H 367.122 -1.76882 -1.02829 0
M  V30 3987 H 367.132 -2.19898 -3.43669 0
M  V30 3988 H 365.807 -3.12241 -2.74734 0
M  V30 3989 H 364.384 -1.42879 -3.44442 0
M  V30 3990 N 366.569 1.04691 -1.17803 0
M  V30 3991 C 367.517 2.14665 -0.895635 0
M  V30 3992 C 368.511 1.68806 0.141679 0
M  V30 3993 O 369.717 1.79999 -0.00587914 0
M  V30 3994 H 366.092 0.701038 -0.272121 0
M  V30 3995 H 368.063 2.35685 -1.83017 0
M  V30 3996 C 366.812 3.45019 -0.430962 0
M  V30 3997 H 366.135 3.8071 -1.22064 0
M  V30 3998 H 367.575 4.23125 -0.272301 0
M  V30 3999 C 366.034 3.25943 0.852207 0
M  V30 4000 O 366.564 3.5296 1.91786 0
M  V30 4001 N 364.77 2.79304 0.802346 0
M  V30 4002 H 364.317 2.57518 -0.0650788 0
M  V30 4003 H 364.275 2.66921 1.66134 0
M  V30 4004 N 368.047 0.979072 1.23499 0
M  V30 4005 C 368.994 0.517904 2.24914 0
M  V30 4006 C 369.964 -0.442525 1.60097 0
M  V30 4007 O 371.149 -0.350365 1.87556 0
M  V30 4008 C 368.289 -0.174813 3.44657 0
M  V30 4009 C 367.402 0.825721 4.24035 0
M  V30 4010 C 366.537 0.107946 5.3109 0
M  V30 4011 C 365.576 1.09778 6.02175 0
M  V30 4012 N 364.713 0.40925 7.00906 0
M  V30 4013 H 369.553 1.38751 2.63727 0
M  V30 4014 H 367.09 0.695303 1.2963 0
M  V30 4015 H 369.048 -0.593233 4.12961 0
M  V30 4016 H 367.678 -1.0083 3.06648 0
M  V30 4017 H 366.73 1.36253 3.55161 0
M  V30 4018 H 368.042 1.58005 4.73113 0
M  V30 4019 H 367.196 -0.367904 6.05583 0
M  V30 4020 H 365.935 -0.678994 4.8295 0
M  V30 4021 H 364.94 1.5844 5.26476 0
M  V30 4022 H 366.165 1.88536 6.52404 0
M  V30 4023 H 364.111 -0.358506 6.5502 0
M  V30 4024 H 364.028 1.10226 7.47921 0
M  V30 4025 H 365.296 -0.0442557 7.79487 0
M  V30 4026 N 369.525 -1.3858 0.750561 0
M  V30 4027 C 370.458 -2.28095 0.0693139 0
M  V30 4028 C 371.436 -1.45217 -0.731491 0
M  V30 4029 O 372.62 -1.74587 -0.71076 0
M  V30 4030 C 369.747 -3.26282 -0.90871 0
M  V30 4031 C 368.793 -4.26056 -0.194507 0
M  V30 4032 S 369.626 -5.24026 1.10257 0
M  V30 4033 C 370.782 -6.2577 0.127542 0
M  V30 4034 H 371.015 -2.85526 0.8284 0
M  V30 4035 H 368.548 -1.44536 0.543014 0
M  V30 4036 H 370.506 -3.83367 -1.46766 0
M  V30 4037 H 369.167 -2.6784 -1.64075 0
M  V30 4038 H 368.36 -4.95249 -0.93512 0
M  V30 4039 H 367.962 -3.72852 0.292837 0
M  V30 4040 H 370.254 -6.73796 -0.707516 0
M  V30 4041 H 371.197 -7.03712 0.787044 0
M  V30 4042 H 371.605 -5.63938 -0.251803 0
M  V30 4043 N 371.003 -0.499398 -1.49478 0
M  V30 4044 C 372.249 0.0457576 -2.02748 0
M  V30 4045 C 372.582 1.36793 -1.37846 0
M  V30 4046 O 371.857 1.87596 -0.513601 0
M  V30 4047 C 372.14 0.199986 -3.59544 0
M  V30 4048 C 371.993 -1.1452 -4.34977 0
M  V30 4049 C 373.312 0.94137 -4.29914 0
M  V30 4050 H 370.431 0.0151552 -0.736844 0
M  V30 4051 H 373.073 -0.650498 -1.78518 0
M  V30 4052 H 371.223 0.793007 -3.8032 0
M  V30 4053 H 372.895 -1.77697 -4.25701 0
M  V30 4054 H 371.138 -1.73488 -3.97598 0
M  V30 4055 H 371.809 -0.990607 -5.43039 0
M  V30 4056 H 374.285 0.43844 -4.13784 0
M  V30 4057 H 373.161 1.01812 -5.39375 0
M  V30 4058 H 373.422 1.98471 -3.95046 0
M  V30 4059 N 372.481 1.55866 -0.233164 0
M  V30 4060 C 373.429 2.22176 0.68851 0
M  V30 4061 C 374.423 1.20487 1.19076 0
M  V30 4062 O 375.629 1.38536 1.14925 0
M  V30 4063 H 372.004 0.712511 0.240483 0
M  V30 4064 H 373.975 2.98212 0.105935 0
M  V30 4065 C 372.724 2.92446 1.88071 0
M  V30 4066 H 372.047 3.70458 1.50337 0
M  V30 4067 H 373.487 3.42226 2.50314 0
M  V30 4068 C 371.946 1.95555 2.74335 0
M  V30 4069 O 372.476 1.47986 3.73447 0
M  V30 4070 N 370.682 1.62953 2.40613 0
M  V30 4071 H 370.229 2.01831 1.60069 0
M  V30 4072 H 370.187 0.983886 2.98609 0
M  V30 4073 N 373.959 -0.0401083 1.57549 0
M  V30 4074 C 374.922 -1.02871 2.04817 0
M  V30 4075 C 375.922 -1.29708 0.950388 0
M  V30 4076 O 377.112 -1.24897 1.21435 0
M  V30 4077 C 374.244 -2.36443 2.45576 0
M  V30 4078 H 375.437 -0.620631 2.93408 0
M  V30 4079 H 372.99 -0.286667 1.53649 0
M  V30 4080 H 373.725 -2.82021 1.60108 0
M  V30 4081 H 373.51 -2.18296 3.25713 0
M  V30 4082 H 375 -3.07441 2.82612 0
M  V30 4083 N 375.437 -1.54477 -0.31217 0
M  V30 4084 C 376.384 -1.84655 -1.38461 0
M  V30 4085 C 377.354 -0.694536 -1.50882 0
M  V30 4086 O 378.539 -0.942081 -1.6592 0
M  V30 4087 C 375.679 -2.0896 -2.74645 0
M  V30 4088 C 374.792 -3.36618 -2.70763 0
M  V30 4089 C 373.927 -3.50824 -3.98868 0
M  V30 4090 C 372.966 -4.72315 -3.89339 0
M  V30 4091 N 372.103 -4.83387 -5.09197 0
M  V30 4092 H 376.943 -2.76142 -1.12026 0
M  V30 4093 H 374.48 -1.36748 -0.542065 0
M  V30 4094 H 376.438 -2.21045 -3.53829 0
M  V30 4095 H 375.068 -1.20752 -2.99364 0
M  V30 4096 H 374.12 -3.33211 -1.83506 0
M  V30 4097 H 375.432 -4.25917 -2.59608 0
M  V30 4098 H 374.586 -3.62513 -4.86486 0
M  V30 4099 H 373.325 -2.59638 -4.12843 0
M  V30 4100 H 372.33 -4.6067 -3.00105 0
M  V30 4101 H 373.555 -5.64897 -3.76919 0
M  V30 4102 H 371.501 -3.9512 -5.23657 0
M  V30 4103 H 371.418 -5.66669 -5.00422 0
M  V30 4104 H 372.686 -4.9942 -5.98498 0
M  V30 4105 N 376.915 0.57481 -1.46744 0
M  V30 4106 C 377.845 1.69337 -1.60771 0
M  V30 4107 C 378.826 1.63825 -0.457736 0
M  V30 4108 O 380.011 1.8172 -0.684947 0
M  V30 4109 C 377.141 3.0798 -1.60517 0
M  V30 4110 C 376.095 3.28327 -2.74564 0
M  V30 4111 C 375.421 4.67578 -2.59373 0
M  V30 4112 C 376.721 3.15398 -4.16319 0
M  V30 4113 H 378.415 1.57853 -2.54407 0
M  V30 4114 H 375.961 0.75799 -1.22436 0
M  V30 4115 H 377.914 3.86061 -1.68923 0
M  V30 4116 H 376.638 3.20381 -0.634305 0
M  V30 4117 H 375.297 2.52649 -2.65639 0
M  V30 4118 H 374.945 4.76755 -1.60353 0
M  V30 4119 H 374.645 4.82144 -3.35873 0
M  V30 4120 H 376.169 5.47817 -2.69682 0
M  V30 4121 H 377.583 3.83315 -4.26313 0
M  V30 4122 H 375.98 3.41482 -4.93468 0
M  V30 4123 H 377.05 2.12372 -4.3592 0
M  V30 4124 N 378.394 1.34581 0.820102 0
M  V30 4125 C 379.805 1.24298 1.39309 0
M  V30 4126 C 380.156 -0.130351 1.95767 0
M  V30 4127 O 379.281 -1.0308 1.90272 0
M  V30 4128 C 379.876 2.25054 2.53251 0
M  V30 4129 C 378.435 2.18552 3.0645 0
M  V30 4130 C 377.582 2.11503 1.79337 0
M  V30 4131 H 380.533 1.45906 0.624262 0
M  V30 4132 H 380.554 1.86917 3.31425 0
M  V30 4133 H 380.066 3.24996 2.1213 0
M  V30 4134 H 378.167 1.21976 3.52069 0
M  V30 4135 H 378.28 3.0993 3.65349 0
M  V30 4136 H 376.644 1.57268 2.00347 0
M  V30 4137 H 377.427 3.13284 1.40386 0
M  V30 4138 N 379.872 -1.04064 1.18357 0
M  V30 4139 C 381.121 -1.76662 0.973313 0
M  V30 4140 C 381.434 -1.89154 -0.497991 0
M  V30 4141 O 382.64 -2.58606 -0.826762 0
M  V30 4142 C 381.096 -3.17624 1.69242 0
M  V30 4143 C 380.704 -3.13225 3.20303 0
M  V30 4144 C 382.448 -3.946 1.56497 0
M  V30 4145 C 380.355 -4.49046 3.84853 0
M  V30 4146 H 379.285 -0.662214 0.36054 0
M  V30 4147 H 381.936 -1.16553 1.41731 0
M  V30 4148 H 380.318 -3.78129 1.1762 0
M  V30 4149 H 381.492 -2.62172 3.78949 0
M  V30 4150 H 379.807 -2.49749 3.33189 0
M  V30 4151 H 382.404 -4.95042 2.02084 0
M  V30 4152 H 382.747 -4.13074 0.517243 0
M  V30 4153 H 383.28 -3.4067 2.05399 0
M  V30 4154 H 380.019 -4.35777 4.89672 0
M  V30 4155 H 379.539 -5.00203 3.30994 0
M  V30 4156 H 381.218 -5.17961 3.87718 0
M  V30 4157 N 381.35 -0.985608 -1.22978 0
M  V30 4158 C 382.598 -0.656087 -1.91154 0
M  V30 4159 C 382.919 0.813561 -1.77218 0
M  V30 4160 O 382.189 1.58244 -1.1548 0
M  V30 4161 H 380.769 -0.239674 -0.707506 0
M  V30 4162 H 383.431 -1.25054 -1.49491 0
M  V30 4163 H 382.527 -0.912253 -2.9847 0
M  V30 4164 N 382.828 1.3818 -0.7579 0
M  V30 4165 C 384.056 2.04301 -0.326937 0
M  V30 4166 C 384.471 1.57163 1.0462 0
M  V30 4167 O 383.828 0.746626 1.66529 0
M  V30 4168 C 383.879 3.59846 -0.345363 0
M  V30 4169 O 383.6 4.05256 -1.66432 0
M  V30 4170 C 385.101 4.4319 0.098927 0
M  V30 4171 H 382.321 0.656443 -0.139012 0
M  V30 4172 H 384.865 1.76786 -1.02796 0
M  V30 4173 H 383.02 3.86182 0.306955 0
M  V30 4174 H 383.434 4.99709 -1.59345 0
M  V30 4175 H 384.908 5.51989 0.0348745 0
M  V30 4176 H 385.385 4.23947 1.14741 0
M  V30 4177 H 385.991 4.22051 -0.52468 0
M  V30 4178 N 384.306 0.507319 1.49211 0
M  V30 4179 C 385.717 0.0611118 1.866 0
M  V30 4180 C 386.068 -1.35488 1.41907 0
M  V30 4181 O 385.193 -2.0108 0.799726 0
M  V30 4182 C 385.788 0.104125 3.3864 0
M  V30 4183 C 384.347 -0.28677 3.75306 0
M  V30 4184 C 383.494 0.473893 2.73221 0
M  V30 4185 H 386.445 0.719775 1.41439 0
M  V30 4186 H 386.466 -0.689672 3.74198 0
M  V30 4187 H 385.978 1.13482 3.71138 0
M  V30 4188 H 384.079 -1.32046 3.48417 0
M  V30 4189 H 384.192 0.0370745 4.79086 0
M  V30 4190 H 382.556 -0.0770644 2.54583 0
M  V30 4191 H 383.339 1.50478 3.08563 0
M  V30 4192 N 385.784 -1.5574 0.241426 0
M  V30 4193 C 387.061 -1.90704 -0.434881 0
M  V30 4194 C 387.441 -1.16145 -1.76277 0
M  V30 4195 O 386.789 -0.277152 -2.26813 0
M  V30 4196 C 386.999 -3.43657 -0.608343 0
M  V30 4197 C 388.347 -4.14806 -0.906725 0
M  V30 4198 O 389.371 -3.49366 -0.694408 0
M  V30 4199 O 388.23 -5.30548 -1.31075 0
M  V30 4200 H 385.324 -0.793592 -0.23268 0
M  V30 4201 H 387.87 -1.67288 0.285086 0
M  V30 4202 H 386.642 -3.89927 0.327505 0
M  V30 4203 H 386.265 -3.72918 -1.37906 0
M  V30 4204 N 387.262 0.0317525 -1.57568 0
M  V30 4205 C 388.492 0.733884 -1.93126 0
M  V30 4206 C 388.9 1.69563 -0.839352 0
M  V30 4207 O 388.243 1.82681 0.193175 0
M  V30 4208 C 388.305 1.54798 -3.24465 0
M  V30 4209 C 387.969 0.751304 -4.50782 0
M  V30 4210 C 388.966 0.0527632 -5.19873 0
M  V30 4211 C 386.651 0.706639 -4.97305 0
M  V30 4212 C 388.645 -0.679774 -6.33765 0
M  V30 4213 C 386.332 -0.0296449 -6.11093 0
M  V30 4214 C 387.33 -0.721614 -6.79177 0
M  V30 4215 O 387.018 -1.44595 -7.90789 0
M  V30 4216 H 386.75 0.211459 -0.642076 0
M  V30 4217 H 389.304 -0.00585615 -2.05399 0
M  V30 4218 H 387.534 2.33147 -3.08512 0
M  V30 4219 H 389.223 2.13247 -3.4537 0
M  V30 4220 H 389.989 0.0783188 -4.84937 0
M  V30 4221 H 385.868 1.23474 -4.44157 0
M  V30 4222 H 389.412 -1.22042 -6.86842 0
M  V30 4223 H 385.309 -0.0571331 -6.45475 0
M  V30 4224 H 386.077 -1.35935 -8.07133 0
M  V30 4225 N 388.74 1.54641 0.303973 0
M  V30 4226 C 389.673 1.80263 1.3993 0
M  V30 4227 C 390.651 0.653657 1.48883 0
M  V30 4228 O 391.835 0.893284 1.6599 0
M  V30 4229 C 388.962 1.9367 2.77866 0
M  V30 4230 C 388.008 3.16078 2.86351 0
M  V30 4231 S 388.841 4.74219 2.4875 0
M  V30 4232 C 389.997 4.90558 3.88721 0
M  V30 4233 H 390.23 2.72886 1.17986 0
M  V30 4234 H 387.763 1.46014 0.501918 0
M  V30 4235 H 389.721 2.0208 3.57315 0
M  V30 4236 H 388.382 1.01991 2.9708 0
M  V30 4237 H 387.575 3.22252 3.87517 0
M  V30 4238 H 387.177 3.06099 2.14893 0
M  V30 4239 H 389.469 4.74398 4.83687 0
M  V30 4240 H 390.412 5.92651 3.87518 0
M  V30 4241 H 390.82 4.18728 3.78585 0
M  V30 4242 N 390.218 -0.567019 1.47046 0
M  V30 4243 C 391.181 -1.65696 1.58359 0
M  V30 4244 C 392.181 -1.54097 0.459441 0
M  V30 4245 O 393.371 -1.58432 0.724225 0
M  V30 4246 C 390.503 -3.05197 1.51879 0
M  V30 4247 H 391.696 -1.57019 2.5551 0
M  V30 4248 H 389.249 -0.786148 1.3509 0
M  V30 4249 H 389.984 -3.19417 0.560673 0
M  V30 4250 H 389.769 -3.15025 2.33455 0
M  V30 4251 H 391.259 -3.84511 1.62913 0
M  V30 4252 N 391.696 -1.35014 -0.812953 0
M  V30 4253 C 393.107 -1.25035 -1.38648 0
M  V30 4254 C 393.458 0.119967 -1.95833 0
M  V30 4255 O 392.583 1.02069 -1.90816 0
M  V30 4256 C 393.178 -2.26394 -2.52054 0
M  V30 4257 C 391.737 -2.20175 -3.05287 0
M  V30 4258 C 390.884 -2.12451 -1.78213 0
M  V30 4259 H 393.835 -1.46235 -0.616516 0
M  V30 4260 H 393.856 -1.88672 -3.30429 0
M  V30 4261 H 393.368 -3.26116 -2.10404 0
M  V30 4262 H 391.469 -1.23841 -3.51417 0
M  V30 4263 H 391.582 -3.11863 -3.63701 0
M  V30 4264 H 389.946 -1.58328 -1.9951 0
M  V30 4265 H 390.729 -3.14024 -1.38723 0
M  V30 4266 N 393.175 1.03435 -1.18907 0
M  V30 4267 C 394.085 2.15075 -0.937015 0
M  V30 4268 C 395.101 1.73706 0.101085 0
M  V30 4269 O 396.277 2.01232 -0.0822948 0
M  V30 4270 C 393.342 3.43458 -0.473057 0
M  V30 4271 C 392.403 3.99172 -1.57989 0
M  V30 4272 C 391.636 5.21427 -1.13797 0
M  V30 4273 O 391.859 5.704 0.000725941 0
M  V30 4274 O 390.793 5.69837 -1.9383 0
M  V30 4275 H 394.619 2.39198 -1.87131 0
M  V30 4276 H 392.204 1.13506 -0.971427 0
M  V30 4277 H 394.086 4.20811 -0.222702 0
M  V30 4278 H 392.761 3.20793 0.432869 0
M  V30 4279 H 391.668 3.23178 -1.88433 0
M  V30 4280 H 393.001 4.2619 -2.46217 0
M  V30 4281 N 394.653 0.992116 1.22453 0
M  V30 4282 C 395.899 0.668523 1.91464 0
M  V30 4283 C 396.232 -0.797313 1.77078 0
M  V30 4284 O 395.507 -1.5765 1.13916 0
M  V30 4285 C 395.79 1.07424 3.43703 0
M  V30 4286 C 395.643 2.59857 3.67143 0
M  V30 4287 C 396.962 0.626891 4.35612 0
M  V30 4288 H 394.081 0.244341 0.695318 0
M  V30 4289 H 396.723 1.2355 1.44345 0
M  V30 4290 H 394.873 0.591816 3.83966 0
M  V30 4291 H 396.545 3.15764 3.3629 0
M  V30 4292 H 394.788 3.01961 3.11451 0
M  V30 4293 H 395.459 2.83296 4.73759 0
M  V30 4294 H 397.935 1.04125 4.02861 0
M  V30 4295 H 396.811 0.939076 5.40807 0
M  V30 4296 H 397.072 -0.472457 4.39568 0
M  V30 4297 N 396.131 -1.37776 0.765217 0
M  V30 4298 C 397.061 -2.32945 0.160953 0
M  V30 4299 C 398.042 -1.55454 -0.690516 0
M  V30 4300 O 399.227 -1.83721 -0.629318 0
M  V30 4301 C 396.357 -3.39669 -0.724031 0
M  V30 4302 C 395.311 -4.27992 0.0256173 0
M  V30 4303 C 394.637 -5.25673 -0.978383 0
M  V30 4304 C 395.937 -5.08309 1.20082 0
M  V30 4305 H 397.631 -2.83728 0.955969 0
M  V30 4306 H 395.177 -1.36416 0.461149 0
M  V30 4307 H 397.13 -4.05219 -1.15652 0
M  V30 4308 H 395.854 -2.87396 -1.5515 0
M  V30 4309 H 394.513 -3.63964 0.438812 0
M  V30 4310 H 394.161 -4.69682 -1.80022 0
M  V30 4311 H 393.861 -5.85625 -0.481378 0
M  V30 4312 H 395.385 -5.94098 -1.40995 0
M  V30 4313 H 396.799 -5.67034 0.845307 0
M  V30 4314 H 395.196 -5.77554 1.62947 0
M  V30 4315 H 396.266 -4.41365 2.00811 0
M  V30 4316 N 397.609 -0.515225 -1.4894 0
M  V30 4317 C 398.837 0.0206034 -2.0689 0
M  V30 4318 C 399.252 1.29514 -1.37374 0
M  V30 4319 O 398.609 1.76698 -0.456529 0
M  V30 4320 C 398.66 0.26351 -3.60538 0
M  V30 4321 O 398.381 -0.960517 -4.27441 0
M  V30 4322 C 399.882 0.841383 -4.35242 0
M  V30 4323 H 397.102 -0.0268608 -0.670462 0
M  V30 4324 H 399.646 -0.716651 -1.91532 0
M  V30 4325 H 397.801 0.950777 -3.75552 0
M  V30 4326 H 398.215 -0.73212 -5.19365 0
M  V30 4327 H 399.689 0.96085 -5.43573 0
M  V30 4328 H 400.166 1.8427 -3.98674 0
M  V30 4329 H 400.772 0.191143 -4.2487 0
M  V30 4330 N 399.087 1.5561 -0.249682 0
M  V30 4331 C 400.333 1.99306 0.374841 0
M  V30 4332 C 400.666 1.13767 1.57387 0
M  V30 4333 O 399.941 0.201711 1.93451 0
M  V30 4334 C 400.224 3.51507 0.781986 0
M  V30 4335 C 400.077 4.4781 -0.422629 0
M  V30 4336 C 401.396 4.08884 1.62793 0
M  V30 4337 H 398.515 0.724572 0.134773 0
M  V30 4338 H 401.157 1.86719 -0.351549 0
M  V30 4339 H 399.307 3.62363 1.4009 0
M  V30 4340 H 400.979 4.48931 -1.06108 0
M  V30 4341 H 399.222 4.20518 -1.06524 0
M  V30 4342 H 399.893 5.51919 -0.0943766 0
M  V30 4343 H 402.369 4.01147 1.10547 0
M  V30 4344 H 401.245 5.1564 1.88166 0
M  V30 4345 H 401.506 3.57515 2.60068 0
M  V30 4346 N 400.565 -0.0233959 1.57583 0
M  V30 4347 C 401.498 -1.05549 2.02323 0
M  V30 4348 C 402.476 -1.34843 0.908626 0
M  V30 4349 O 403.66 -1.47404 1.17491 0
M  V30 4350 C 400.787 -2.38885 2.40108 0
M  V30 4351 C 399.833 -2.2541 3.62067 0
M  V30 4352 S 400.666 -1.60217 5.1097 0
M  V30 4353 C 401.822 -2.95032 5.52003 0
M  V30 4354 H 402.055 -0.674435 2.89549 0
M  V30 4355 H 399.588 -0.23355 1.52623 0
M  V30 4356 H 401.546 -3.15562 2.62547 0
M  V30 4357 H 400.207 -2.74137 1.53323 0
M  V30 4358 H 399.4 -3.23854 3.86179 0
M  V30 4359 H 399.002 -1.56876 3.39508 0
M  V30 4360 H 401.294 -3.91357 5.53033 0
M  V30 4361 H 402.237 -2.75646 6.52246 0
M  V30 4362 H 402.645 -2.97865 4.79517 0
M  V30 4363 N 402.043 -1.548 -0.295768 0
M  V30 4364 C 402.991 -1.86874 -1.38495 0
M  V30 4365 C 403.985 -0.742938 -1.52239 0
M  V30 4366 O 405.191 -0.926999 -1.54294 0
M  V30 4367 H 401.566 -0.592786 -0.462719 0
M  V30 4368 H 403.537 -2.77904 -1.08682 0
M  V30 4369 C 402.286 -2.13732 -2.74252 0
M  V30 4370 H 401.609 -2.99835 -2.64459 0
M  V30 4371 H 403.049 -2.4011 -3.49461 0
M  V30 4372 C 401.508 -0.937539 -3.23592 0
M  V30 4373 O 402.038 -0.160665 -4.01379 0
M  V30 4374 N 400.244 -0.741478 -2.80981 0
M  V30 4375 H 399.791 -1.37489 -2.1784 0
M  V30 4376 H 399.749 0.0597103 -3.14343 0
M  V30 4377 N 403.521 0.559213 -1.47345 0
M  V30 4378 C 404.769 1.31388 -1.53563 0
M  V30 4379 C 405.09 1.93985 -0.198678 0
M  V30 4380 O 404.36 1.79825 0.777167 0
M  V30 4381 H 402.94 0.487901 -0.565652 0
M  V30 4382 H 405.602 0.65315 -1.8363 0
M  V30 4383 H 404.698 2.10844 -2.30111 0
M  V30 4384 N 404.999 1.35443 0.805782 0
M  V30 4385 C 406.276 1.19325 1.54987 0
M  V30 4386 C 406.656 -0.227294 2.09873 0
M  V30 4387 O 406.004 -1.2309 1.92512 0
M  V30 4388 C 406.214 2.26196 2.65775 0
M  V30 4389 C 407.562 2.62043 3.34094 0
M  V30 4390 O 408.586 2.25115 2.76046 0
M  V30 4391 O 407.445 3.25542 4.38958 0
M  V30 4392 H 404.539 0.463623 0.684823 0
M  V30 4393 H 407.085 1.47127 0.845674 0
M  V30 4394 H 405.857 3.21471 2.23096 0
M  V30 4395 H 405.48 1.99667 3.43829 0
M  V30 4396 N 406.477 -1.02803 1.19454 0
M  V30 4397 C 407.725 -1.75869 0.995722 0
M  V30 4398 C 408.046 -1.89138 -0.474543 0
M  V30 4399 O 407.316 -1.42558 -1.34366 0
M  V30 4400 H 405.896 -0.651511 0.365435 0
M  V30 4401 H 408.558 -1.24004 1.50363 0
M  V30 4402 H 407.654 -2.76661 1.44447 0
M  V30 4403 N 407.956 -0.998596 -1.21925 0
M  V30 4404 C 408.903 -0.553621 -2.24062 0
M  V30 4405 C 409.873 0.416999 -1.6078 0
M  V30 4406 O 411.058 0.320482 -1.88089 0
M  V30 4407 C 408.198 0.119959 -3.44891 0
M  V30 4408 C 407.311 -0.893077 -4.22668 0
M  V30 4409 C 406.446 -0.192424 -5.30851 0
M  V30 4410 C 405.485 -1.19344 -6.00353 0
M  V30 4411 N 404.622 -0.520707 -7.00166 0
M  V30 4412 H 409.462 -1.4293 -2.61486 0
M  V30 4413 H 406.999 -0.715838 -1.28507 0
M  V30 4414 H 408.957 0.527459 -4.13852 0
M  V30 4415 H 407.587 0.959389 -3.08214 0
M  V30 4416 H 406.639 -1.41886 -3.52948 0
M  V30 4417 H 407.951 -1.65512 -4.70539 0
M  V30 4418 H 407.105 0.271515 -6.06092 0
M  V30 4419 H 405.844 0.602075 -4.83969 0
M  V30 4420 H 404.849 -1.66795 -5.23889 0
M  V30 4421 H 406.074 -1.98891 -6.49322 0
M  V30 4422 H 404.02 0.254252 -6.55507 0
M  V30 4423 H 403.937 -1.2211 -7.46073 0
M  V30 4424 H 405.205 -0.0797596 -7.79459 0
M  V30 4425 N 409.434 1.37368 -0.772513 0
M  V30 4426 C 410.682 1.99279 -0.336516 0
M  V30 4427 C 411.003 1.6163 1.09091 0
M  V30 4428 O 410.273 0.882109 1.74916 0
M  V30 4429 H 408.853 0.737063 -0.121435 0
M  V30 4430 H 411.515 1.67836 -0.990809 0
M  V30 4431 H 410.611 3.09332 -0.414763 0
M  V30 4432 N 410.912 0.523116 1.48665 0
M  V30 4433 C 412.14 -0.0096312 2.06898 0
M  V30 4434 C 412.555 -1.28784 1.38059 0
M  V30 4435 O 411.912 -1.76453 0.465893 0
M  V30 4436 C 411.963 -0.244386 3.60673 0
M  V30 4437 O 411.684 0.983172 4.26925 0
M  V30 4438 C 413.185 -0.818289 4.35682 0
M  V30 4439 H 410.405 0.0304161 0.67031 0
M  V30 4440 H 412.949 0.726799 1.91149 0
M  V30 4441 H 411.104 -0.930847 3.76051 0
M  V30 4442 H 411.518 0.759653 5.1897 0
M  V30 4443 H 412.992 -0.93201 5.44075 0
M  V30 4444 H 413.469 -1.82153 3.99646 0
M  V30 4445 H 414.075 -0.168609 4.24966 0
M  V30 4446 N 412.39 -1.55475 0.257931 0
M  V30 4447 C 413.62 -2.03314 -0.367026 0
M  V30 4448 C 414.028 -1.13625 -1.51281 0
M  V30 4449 O 413.371 -0.145334 -1.83124 0
M  V30 4450 C 413.433 -3.47362 -0.926284 0
M  V30 4451 C 413.097 -4.56914 0.0886584 0
M  V30 4452 C 414.094 -5.12013 0.902123 0
M  V30 4453 C 411.779 -5.01827 0.217936 0
M  V30 4454 C 413.773 -6.10529 1.83122 0
M  V30 4455 C 411.46 -6.00172 1.15052 0
M  V30 4456 C 412.458 -6.54402 1.95568 0
M  V30 4457 O 412.146 -7.50827 2.87253 0
M  V30 4458 H 411.878 -0.669976 -0.0900443 0
M  V30 4459 H 414.432 -2.01804 0.382673 0
M  V30 4460 H 412.662 -3.46056 -1.72575 0
M  V30 4461 H 414.351 -3.78637 -1.46249 0
M  V30 4462 H 415.117 -4.78139 0.812891 0
M  V30 4463 H 410.996 -4.59272 -0.398721 0
M  V30 4464 H 414.54 -6.52783 2.46008 0
M  V30 4465 H 410.437 -6.33465 1.24064 0
M  V30 4466 H 411.205 -7.68483 2.81739 0
M  V30 4467 N 413.868 0.0150385 -1.57593 0
M  V30 4468 C 415.116 0.701613 -1.8953 0
M  V30 4469 C 415.437 1.75139 -0.857396 0
M  V30 4470 O 414.707 1.95607 0.107194 0
M  V30 4471 H 413.287 0.26213 -0.699498 0
M  V30 4472 H 415.949 -0.0223304 -1.94887 0
M  V30 4473 H 415.045 1.18236 -2.88837 0
M  V30 4474 N 415.346 1.54954 0.287554 0
M  V30 4475 C 416.276 1.89839 1.35954 0
M  V30 4476 C 417.257 0.758675 1.52244 0
M  V30 4477 O 418.442 1.01557 1.65529 0
M  V30 4478 C 415.572 2.15753 2.72154 0
M  V30 4479 C 414.526 3.3159 2.70614 0
M  V30 4480 C 413.852 3.42952 4.10229 0
M  V30 4481 C 415.152 4.68359 2.31165 0
M  V30 4482 H 416.846 2.79625 1.07007 0
M  V30 4483 H 414.392 1.3454 0.513316 0
M  V30 4484 H 416.345 2.38743 3.47246 0
M  V30 4485 H 415.069 1.22752 3.02654 0
M  V30 4486 H 413.728 3.08545 1.97979 0
M  V30 4487 H 413.376 2.47443 4.37928 0
M  V30 4488 H 413.076 4.20826 4.10097 0
M  V30 4489 H 414.6 3.68218 4.87081 0
M  V30 4490 H 416.014 4.9099 2.95976 0
M  V30 4491 H 414.411 5.49044 2.42221 0
M  V30 4492 H 415.481 4.68165 1.26291 0
M  V30 4493 N 416.824 -0.551391 1.4764 0
M  V30 4494 C 418.101 -1.31229 1.45046 0
M  V30 4495 C 418.481 -2.10563 0.150527 0
M  V30 4496 O 417.829 -2.11374 -0.867956 0
M  V30 4497 C 418.039 -2.21189 2.69956 0
M  V30 4498 C 419.387 -2.82021 3.1741 0
M  V30 4499 O 420.411 -2.31488 2.70724 0
M  V30 4500 O 419.27 -3.73885 3.98588 0
M  V30 4501 H 416.364 -0.591193 0.578291 0
M  V30 4502 H 418.91 -0.569813 1.59847 0
M  V30 4503 H 417.682 -1.62207 3.56096 0
M  V30 4504 H 417.305 -3.02722 2.57769 0
M  V30 4505 N 418.302 -1.35869 -0.798587 0
M  V30 4506 C 419.542 -1.30961 -1.56935 0
M  V30 4507 C 419.906 0.112404 -1.91671 0
M  V30 4508 O 421.107 0.285937 -2.67275 0
M  V30 4509 C 419.378 -2.19811 -2.81811 0
M  V30 4510 S 420.937 -2.32498 -3.72143 0
M  V30 4511 H 417.755 -0.465297 -0.537606 0
M  V30 4512 H 420.357 -1.71344 -0.941346 0
M  V30 4513 H 419.061 -3.22095 -2.54329 0
M  V30 4514 H 418.592 -1.80415 -3.49591 0
M  V30 4515 H 420.607 -1.5157 -4.72484 0
M  V30 4516 N 419.78 1.02168 -1.19998 0
M  V30 4517 C 421.057 1.72816 -0.916191 0
M  V30 4518 C 421.437 2.03081 0.576325 0
M  V30 4519 O 420.785 1.69122 1.53656 0
M  V30 4520 C 420.995 2.9997 -1.78378 0
M  V30 4521 C 422.343 3.73336 -2.02251 0
M  V30 4522 O 423.367 3.09914 -1.75589 0
M  V30 4523 O 422.226 4.87371 -2.47249 0
M  V30 4524 H 419.32 0.752924 -0.342103 0
M  V30 4525 H 421.866 1.08062 -1.30846 0
M  V30 4526 H 420.638 2.73888 -2.79466 0
M  V30 4527 H 420.261 3.72464 -1.39126 0
M  V30 4528 N 421.258 1.00505 1.21394 0
M  V30 4529 C 422.504 0.698477 1.91031 0
M  V30 4530 C 422.859 -0.762448 1.76648 0
M  V30 4531 O 422.152 -1.54554 1.13241 0
M  V30 4532 C 422.346 1.0546 3.41486 0
M  V30 4533 C 422.175 2.5486 3.70508 0
M  V30 4534 C 420.945 3.21461 3.8986 0
M  V30 4535 C 423.143 3.53019 3.74008 0
M  V30 4536 N 421.125 4.60211 4.06299 0
M  V30 4537 C 422.496 4.77279 3.95733 0
M  V30 4538 C 424.551 3.47154 3.56915 0
M  V30 4539 C 423.254 5.96388 4.02137 0
M  V30 4540 C 425.28 4.65652 3.64585 0
M  V30 4541 C 424.642 5.88717 3.86771 0
M  V30 4542 H 420.741 0.30707 0.719189 0
M  V30 4543 H 423.325 1.28753 1.46051 0
M  V30 4544 H 421.496 0.494007 3.85246 0
M  V30 4545 H 423.228 0.702765 3.98552 0
M  V30 4546 H 419.983 2.71906 3.87768 0
M  V30 4547 H 420.407 5.32216 4.1842 0
M  V30 4548 H 425.049 2.53015 3.38738 0
M  V30 4549 H 422.767 6.90919 4.19114 0
M  V30 4550 H 426.353 4.62717 3.52681 0
M  V30 4551 H 425.233 6.78877 3.92549 0
M  V30 4552 N 422.737 -1.36956 0.779787 0
M  V30 4553 C 423.983 -2.00237 0.357324 0
M  V30 4554 C 424.338 -1.60787 -1.05666 0
M  V30 4555 O 423.631 -0.847836 -1.71821 0
M  V30 4556 C 423.825 -3.54585 0.447686 0
M  V30 4557 C 423.654 -4.09025 1.86891 0
M  V30 4558 C 422.424 -4.39612 2.49138 0
M  V30 4559 C 424.622 -4.29461 2.82963 0
M  V30 4560 N 422.604 -4.79816 3.82949 0
M  V30 4561 C 423.975 -4.72363 4.01588 0
M  V30 4562 C 426.03 -4.1161 2.80145 0
M  V30 4563 C 424.733 -4.99284 5.17791 0
M  V30 4564 C 426.759 -4.39672 3.95528 0
M  V30 4565 C 426.121 -4.82822 5.12896 0
M  V30 4566 H 422.22 -0.76148 0.177968 0
M  V30 4567 H 424.804 -1.6613 1.01533 0
M  V30 4568 H 422.975 -3.87982 -0.180184 0
M  V30 4569 H 424.707 -4.047 0.0023955 0
M  V30 4570 H 421.462 -4.28975 2.00693 0
M  V30 4571 H 421.886 -5.04216 4.51769 0
M  V30 4572 H 426.528 -3.77415 1.90572 0
M  V30 4573 H 424.246 -5.32365 6.07958 0
M  V30 4574 H 427.832 -4.27441 3.94697 0
M  V30 4575 H 426.712 -5.04118 6.00695 0
M  V30 4576 N 424.215 -0.530993 -1.48385 0
M  V30 4577 C 425.44 0.000729535 -2.074 0
M  V30 4578 C 425.865 1.27298 -1.3848 0
M  V30 4579 O 425.223 1.75599 -0.451081 0
M  V30 4580 C 425.271 0.206697 -3.60007 0
M  V30 4581 O 424.375 1.27514 -3.92191 0
M  V30 4582 H 423.716 -0.039583 -0.662819 0
M  V30 4583 H 426.246 -0.739194 -1.9078 0
M  V30 4584 H 426.256 0.42904 -4.05738 0
M  V30 4585 H 424.931 -0.722675 -4.09573 0
M  V30 4586 H 423.508 1.03537 -3.58238 0
M  V30 4587 N 425.693 1.55336 -0.266172 0
M  V30 4588 C 426.939 1.99692 0.353681 0
M  V30 4589 C 427.272 1.1543 1.56172 0
M  V30 4590 O 426.547 0.222218 1.93226 0
M  V30 4591 C 426.83 3.52316 0.74466 0
M  V30 4592 C 426.683 4.47337 -0.470101 0
M  V30 4593 C 428.002 4.10588 1.58447 0
M  V30 4594 H 425.121 0.725961 0.12708 0
M  V30 4595 H 427.763 1.86336 -0.371333 0
M  V30 4596 H 425.913 3.63829 1.36239 0
M  V30 4597 H 427.585 4.4778 -1.10864 0
M  V30 4598 H 425.828 4.19364 -1.10978 0
M  V30 4599 H 426.499 5.51788 -0.15291 0
M  V30 4600 H 428.975 4.02297 1.06286 0
M  V30 4601 H 427.851 5.17607 1.82686 0
M  V30 4602 H 428.112 3.60253 2.56262 0
M  V30 4603 N 427.171 -0.0066808 1.57599 0
M  V30 4604 C 428.419 -0.691552 1.899 0
M  V30 4605 C 428.74 -1.74682 0.866672 0
M  V30 4606 O 428.01 -1.95661 -0.0968189 0
M  V30 4607 H 426.59 -0.258416 0.700878 0
M  V30 4608 H 429.252 0.0326655 1.94873 0
M  V30 4609 H 428.348 -1.16702 2.8946 0
M  V30 4610 N 428.649 -1.55105 -0.279332 0
M  V30 4611 C 429.895 -1.75672 -1.01327 0
M  V30 4612 C 430.228 -0.552739 -1.86168 0
M  V30 4613 O 429.503 0.449827 -1.89227 0
M  V30 4614 C 429.786 -3.05825 -1.90114 0
M  V30 4615 C 429.639 -4.36565 -1.08309 0
M  V30 4616 C 430.958 -3.31975 -2.8893 0
M  V30 4617 H 428.077 -0.639149 -0.366957 0
M  V30 4618 H 430.719 -1.87833 -0.286154 0
M  V30 4619 H 428.869 -2.95588 -2.52111 0
M  V30 4620 H 430.541 -4.58751 -0.484314 0
M  V30 4621 H 428.784 -4.32076 -0.386362 0
M  V30 4622 H 429.455 -5.23946 -1.73737 0
M  V30 4623 H 431.931 -3.41963 -2.37067 0
M  V30 4624 H 430.807 -4.2432 -3.48201 0
M  V30 4625 H 431.068 -2.51309 -3.63725 0
M  V30 4626 N 430.127 0.543554 -1.4793 0
M  V30 4627 C 431.376 1.29649 -1.54512 0
M  V30 4628 C 431.689 1.94382 -0.217973 0
M  V30 4629 O 432.895 2.71017 -0.161908 0
M  V30 4630 C 431.351 2.35175 -2.72435 0
M  V30 4631 C 430.959 1.76572 -4.11736 0
M  V30 4632 C 432.703 3.11564 -2.8832 0
M  V30 4633 C 430.61 2.79958 -5.20939 0
M  V30 4634 H 429.54 0.487541 -0.57517 0
M  V30 4635 H 432.191 0.575708 -1.74235 0
M  V30 4636 H 430.573 3.10229 -2.46118 0
M  V30 4637 H 431.747 1.07799 -4.48013 0
M  V30 4638 H 430.062 1.12722 -4.00852 0
M  V30 4639 H 432.659 3.88794 -3.67074 0
M  V30 4640 H 433.002 3.66594 -1.97268 0
M  V30 4641 H 433.535 2.43623 -3.14472 0
M  V30 4642 H 430.274 2.29766 -6.13912 0
M  V30 4643 H 429.794 3.47101 -4.89164 0
M  V30 4644 H 431.473 3.43198 -5.48474 0
M  V30 4645 N 431.605 1.3629 0.791371 0
M  V30 4646 C 432.568 1.30309 1.88553 0
M  V30 4647 C 433.568 0.211204 1.59407 0
M  V30 4648 O 434.758 0.465865 1.67855 0
M  V30 4649 C 431.89 1.01956 3.25297 0
M  V30 4650 H 433.083 2.27614 1.95273 0
M  V30 4651 H 430.636 1.21035 0.988953 0
M  V30 4652 H 431.371 0.050998 3.2426 0
M  V30 4653 H 431.156 1.80968 3.4784 0
M  V30 4654 H 432.646 1.0037 4.05359 0
M  V30 4655 N 433.083 -1.0153 1.20538 0
M  V30 4656 C 434.313 -1.78487 1.04048 0
M  V30 4657 C 434.721 -1.84631 -0.413292 0
M  V30 4658 O 434.064 -1.29919 -1.29872 0
M  V30 4659 C 434.126 -3.24367 1.55003 0
M  V30 4660 C 433.79 -3.41827 3.0332 0
M  V30 4661 C 434.787 -3.30941 4.00966 0
M  V30 4662 C 432.472 -3.67602 3.42307 0
M  V30 4663 C 434.466 -3.45577 5.35589 0
M  V30 4664 C 432.153 -3.81881 4.77085 0
M  V30 4665 C 433.151 -3.70874 5.73534 0
M  V30 4666 O 432.839 -3.84714 7.05868 0
M  V30 4667 H 432.571 -0.568108 0.366373 0
M  V30 4668 H 435.125 -1.28677 1.60098 0
M  V30 4669 H 433.355 -3.75266 0.933397 0
M  V30 4670 H 435.044 -3.82963 1.34514 0
M  V30 4671 H 435.81 -3.10964 3.72191 0
M  V30 4672 H 431.689 -3.75256 2.67776 0
M  V30 4673 H 435.233 -3.36902 6.10854 0
M  V30 4674 H 431.13 -4.01359 5.0555 0
M  V30 4675 H 431.898 -4.01724 7.13134 0
M  V30 4676 N 434.561 -1.01147 -1.20859 0
M  V30 4677 C 435.471 -0.58686 -2.27141 0
M  V30 4678 C 436.487 0.373198 -1.69951 0
M  V30 4679 O 437.663 0.235423 -2.00019 0
M  V30 4680 C 434.728 0.0733602 -3.46622 0
M  V30 4681 C 433.789 -0.931995 -4.19061 0
M  V30 4682 C 433.022 -0.303186 -5.32838 0
M  V30 4683 O 433.245 0.898395 -5.63281 0
M  V30 4684 O 432.179 -1.01735 -5.9324 0
M  V30 4685 H 436.005 -1.47155 -2.65667 0
M  V30 4686 H 433.59 -0.780689 -1.2738 0
M  V30 4687 H 435.472 0.442333 -4.19072 0
M  V30 4688 H 434.147 0.932329 -3.09983 0
M  V30 4689 H 433.054 -1.35224 -3.48805 0
M  V30 4690 H 434.387 -1.76076 -4.59628 0
M  V30 4691 N 436.039 1.36541 -0.78704 0
M  V30 4692 C 436.972 2.27831 -0.129765 0
M  V30 4693 C 437.95 1.47105 0.692732 0
M  V30 4694 O 439.134 1.7641 0.664222 0
M  V30 4695 C 436.261 3.28577 0.821883 0
M  V30 4696 C 435.307 4.26422 0.0814771 0
M  V30 4697 S 436.14 5.20919 -1.24112 0
M  V30 4698 C 437.296 6.25212 -0.293409 0
M  V30 4699 H 437.529 2.83229 -0.903811 0
M  V30 4700 H 435.062 1.43046 -0.581144 0
M  V30 4701 H 437.02 3.87123 1.3655 0
M  V30 4702 H 435.681 2.72096 1.56916 0
M  V30 4703 H 434.874 4.97554 0.803485 0
M  V30 4704 H 434.476 3.71944 -0.391589 0
M  V30 4705 H 436.768 6.75435 0.528622 0
M  V30 4706 H 437.711 7.01378 -0.973344 0
M  V30 4707 H 438.119 5.64407 0.102196 0
M  V30 4708 N 437.518 0.538854 1.48102 0
M  V30 4709 C 438.767 0.0059532 2.01699 0
M  V30 4710 C 439.08 -1.34476 1.42041 0
M  V30 4711 O 440.286 -1.96653 1.87189 0
M  V30 4712 C 438.742 -0.0397627 3.59878 0
M  V30 4713 C 438.35 1.30659 4.28523 0
M  V30 4714 C 440.094 -0.521024 4.2129 0
M  V30 4715 C 438.001 1.22098 5.78659 0
M  V30 4716 H 436.931 -0.00154456 0.753998 0
M  V30 4717 H 439.582 0.683963 1.70277 0
M  V30 4718 H 437.964 -0.783037 3.88181 0
M  V30 4719 H 439.138 2.06613 4.11883 0
M  V30 4720 H 437.453 1.7243 3.79021 0
M  V30 4721 H 440.05 -0.603184 5.31287 0
M  V30 4722 H 440.393 -1.52885 3.8721 0
M  V30 4723 H 440.926 0.166834 3.9745 0
M  V30 4724 H 437.665 2.20424 6.17328 0
M  V30 4725 H 437.185 0.50295 5.97688 0
M  V30 4726 H 438.864 0.915345 6.40492 0
M  V30 4727 N 438.996 -1.55193 0.274407 0
M  V30 4728 C 440.226 -2.03692 -0.345442 0
M  V30 4729 C 440.634 -1.15224 -1.50067 0
M  V30 4730 O 439.977 -0.164749 -1.8296 0
M  V30 4731 C 440.039 -3.48325 -0.88939 0
M  V30 4732 C 439.703 -4.56794 0.137115 0
M  V30 4733 C 440.7 -5.11028 0.956378 0
M  V30 4734 C 438.385 -5.01568 0.27115 0
M  V30 4735 C 440.379 -6.08552 1.89587 0
M  V30 4736 C 438.066 -5.98918 1.21412 0
M  V30 4737 C 439.064 -6.52291 2.02498 0
M  V30 4738 O 438.752 -7.47738 2.952 0
M  V30 4739 H 438.484 -0.670893 -0.0829332 0
M  V30 4740 H 441.038 -2.01387 0.404056 0
M  V30 4741 H 439.268 -3.47867 -1.68895 0
M  V30 4742 H 440.957 -3.80167 -1.42225 0
M  V30 4743 H 441.723 -4.7725 0.863559 0
M  V30 4744 H 437.602 -4.5967 -0.349987 0
M  V30 4745 H 441.146 -6.50137 2.52918 0
M  V30 4746 H 437.043 -6.32114 1.30776 0
M  V30 4747 H 437.811 -7.65451 2.89874 0
M  V30 4748 N 440.474 -0.00167713 -1.576 0
M  V30 4749 C 441.722 0.681471 -1.90264 0
M  V30 4750 C 442.043 1.7422 -0.875924 0
M  V30 4751 O 441.313 1.95709 0.0864412 0
M  V30 4752 H 439.893 0.254696 -0.702239 0
M  V30 4753 H 442.555 -0.0429996 -1.94853 0
M  V30 4754 H 441.651 1.15166 -2.90075 0
M  V30 4755 N 441.952 1.55251 0.271103 0
M  V30 4756 C 443.368 1.47133 0.618393 0
M  V30 4757 C 443.568 0.686994 1.89427 0
M  V30 4758 O 442.624 0.206609 2.51653 0
M  V30 4759 C 443.937 2.91361 0.743593 0
M  V30 4760 C 445.485 3.01587 0.837522 0
M  V30 4761 C 445.96 4.47073 0.994483 0
M  V30 4762 N 447.451 4.50909 1.05996 0
M  V30 4763 C 448.186 5.60698 1.20024 0
M  V30 4764 N 447.682 6.80348 1.30759 0
M  V30 4765 N 449.475 5.48444 1.23149 0
M  V30 4766 H 441.626 2.04698 -0.566784 0
M  V30 4767 H 443.889 0.928319 -0.192165 0
M  V30 4768 H 443.595 3.51483 -0.123493 0
M  V30 4769 H 443.469 3.40484 1.62328 0
M  V30 4770 H 445.856 2.4156 1.69507 0
M  V30 4771 H 445.937 2.55713 -0.0668086 0
M  V30 4772 H 445.581 5.07703 0.141582 0
M  V30 4773 H 445.511 4.90605 1.91349 0
M  V30 4774 H 448.002 3.6472 0.989316 0
M  V30 4775 H 448.315 7.59772 1.41303 0
M  V30 4776 H 446.66 6.83156 1.27761 0
M  V30 4777 H 449.851 4.53907 1.14394 0
M  V30 4778 H 450.024 6.34049 1.33738 0
M  V30 4779 N 443.43 -0.535701 1.48216 0
M  V30 4780 C 444.655 -1.32149 1.59848 0
M  V30 4781 C 445.08 -1.86338 0.256842 0
M  V30 4782 O 444.438 -1.64107 -0.770632 0
M  V30 4783 C 444.486 -2.45224 2.64381 0
M  V30 4784 O 443.59 -3.48093 2.21144 0
M  V30 4785 H 442.931 -0.391634 0.536208 0
M  V30 4786 H 445.461 -0.645202 1.94161 0
M  V30 4787 H 445.471 -2.91491 2.85476 0
M  V30 4788 H 444.146 -2.05143 3.61786 0
M  V30 4789 H 442.723 -3.07984 2.10239 0
M  V30 4790 N 444.908 -1.36708 -0.784132 0
M  V30 4791 C 446.319 -1.27947 -1.35965 0
M  V30 4792 C 446.67 0.0784013 -1.96043 0
M  V30 4793 O 445.795 0.979989 -1.92938 0
M  V30 4794 C 446.39 -2.31689 -2.47195 0
M  V30 4795 C 444.949 -2.26601 -3.00548 0
M  V30 4796 C 444.096 -2.16184 -1.73666 0
M  V30 4797 H 447.047 -1.4751 -0.585358 0
M  V30 4798 H 447.068 -1.95638 -3.26352 0
M  V30 4799 H 446.58 -3.30506 -2.03439 0
M  V30 4800 H 444.681 -1.31268 -3.48711 0
M  V30 4801 H 444.794 -3.19508 -3.57004 0
M  V30 4802 H 443.158 -1.62524 -1.96107 0
M  V30 4803 H 443.941 -3.16896 -1.32031 0
M  V30 4804 N 446.386 1.0089 -1.21074 0
M  V30 4805 C 447.633 1.74607 -1.0256 0
M  V30 4806 C 447.961 1.89426 0.44136 0
M  V30 4807 O 447.216 1.42266 1.34384 0
M  V30 4808 C 447.515 3.16335 -1.66334 0
M  V30 4809 C 447.181 3.21474 -3.16173 0
M  V30 4810 C 445.843 3.22583 -3.57062 0
M  V30 4811 C 448.195 3.19025 -4.12156 0
M  V30 4812 C 445.523 3.18925 -4.92446 0
M  V30 4813 C 447.875 3.16909 -5.47496 0
M  V30 4814 C 446.539 3.16326 -5.87787 0
M  V30 4815 H 445.809 0.638933 -0.375294 0
M  V30 4816 H 448.456 1.18274 -1.50611 0
M  V30 4817 H 446.761 3.75876 -1.10566 0
M  V30 4818 H 448.458 3.72083 -1.49516 0
M  V30 4819 H 445.048 3.2135 -2.83605 0
M  V30 4820 H 449.232 3.17332 -3.81595 0
M  V30 4821 H 444.488 3.16809 -5.22917 0
M  V30 4822 H 448.662 3.13968 -6.21609 0
M  V30 4823 H 446.289 3.13246 -6.92662 0
M  V30 4824 N 447.864 1.01787 1.20321 0
M  V30 4825 C 448.827 0.593972 2.2137 0
M  V30 4826 C 449.827 -0.336553 1.57239 0
M  V30 4827 O 451.017 -0.125069 1.7375 0
M  V30 4828 C 448.149 -0.132433 3.40643 0
M  V30 4829 H 449.342 1.48791 2.60387 0
M  V30 4830 H 446.895 0.807803 1.33807 0
M  V30 4831 H 447.63 -1.04123 3.0713 0
M  V30 4832 H 447.415 0.53605 3.88418 0
M  V30 4833 H 448.905 -0.416314 4.1552 0
M  V30 4834 N 449.342 -1.36122 0.79427 0
M  V30 4835 C 450.252 -2.33769 0.197296 0
M  V30 4836 C 451.268 -1.61276 -0.653153 0
M  V30 4837 O 452.444 -1.9323 -0.5678 0
M  V30 4838 C 449.509 -3.40474 -0.654098 0
M  V30 4839 C 448.57 -4.28759 0.215411 0
M  V30 4840 C 447.803 -5.30368 -0.595443 0
M  V30 4841 O 448.026 -5.40211 -1.83107 0
M  V30 4842 O 446.96 -6.019 0.00721351 0
M  V30 4843 H 450.786 -2.86597 1.00478 0
M  V30 4844 H 448.371 -1.38676 0.555818 0
M  V30 4845 H 450.253 -4.05703 -1.13944 0
M  V30 4846 H 448.928 -2.89937 -1.43938 0
M  V30 4847 H 447.835 -3.66554 0.747615 0
M  V30 4848 H 449.168 -4.82661 0.964332 0
M  V30 4849 N 450.82 -0.546701 -1.47814 0
M  V30 4850 C 452.068 -0.0187037 -2.02091 0
M  V30 4851 C 452.389 1.33168 -1.42447 0
M  V30 4852 O 451.659 1.86619 -0.595839 0
M  V30 4853 H 450.239 -0.00392531 -0.74699 0
M  V30 4854 H 452.901 -0.714327 -1.81338 0
M  V30 4855 H 451.997 0.0772219 -3.12004 0
M  V30 4856 N 452.299 1.55045 -0.282633 0
M  V30 4857 C 453.527 2.04168 0.33512 0
M  V30 4858 C 453.942 1.16071 1.48906 0
M  V30 4859 O 453.299 0.182391 1.81586 0
M  V30 4860 C 453.35 3.52332 0.808957 0
M  V30 4861 O 453.071 4.37078 -0.299038 0
M  V30 4862 C 454.572 4.17375 1.49375 0
M  V30 4863 H 451.792 0.666744 0.0754543 0
M  V30 4864 H 454.336 2.00205 -0.416918 0
M  V30 4865 H 452.491 3.56715 1.51106 0
M  V30 4866 H 452.905 5.24458 0.0665514 0
M  V30 4867 H 454.379 5.22627 1.77664 0
M  V30 4868 H 454.856 3.65999 2.42778 0
M  V30 4869 H 455.462 4.17016 0.835305 0
M  V30 4870 N 453.777 0.010035 1.57597 0
M  V30 4871 C 455.002 -0.687021 1.95691 0
M  V30 4872 C 455.427 -1.65952 0.885519 0
M  V30 4873 O 454.785 -1.80633 -0.15543 0
M  V30 4874 C 454.833 -1.3864 3.32884 0
M  V30 4875 O 453.937 -2.50115 3.27897 0
M  V30 4876 H 453.278 -0.181989 0.638573 0
M  V30 4877 H 455.808 0.0662122 2.04493 0
M  V30 4878 H 455.818 -1.74754 3.6868 0
M  V30 4879 H 454.493 -0.673411 4.10412 0
M  V30 4880 H 453.07 -2.16253 3.03791 0
M  V30 4881 N 455.255 -1.55392 -0.262866 0
M  V30 4882 C 456.218 -1.88181 -1.30846 0
M  V30 4883 C 457.218 -0.757079 -1.41862 0
M  V30 4884 O 458.408 -1.02519 -1.40838 0
M  V30 4885 C 455.54 -2.09609 -2.68844 0
M  V30 4886 H 456.733 -2.81659 -1.02997 0
M  V30 4887 H 454.286 -1.48039 -0.501414 0
M  V30 4888 H 455.021 -1.18547 -3.01856 0
M  V30 4889 H 454.806 -2.91508 -2.62231 0
M  V30 4890 H 456.296 -2.36215 -3.44372 0
M  V30 4891 N 456.733 0.527833 -1.48498 0
M  V30 4892 C 458.149 0.856571 -1.34666 0
M  V30 4893 C 458.349 1.98271 -0.35931 0
M  V30 4894 O 457.405 2.51551 0.218703 0
M  V30 4895 C 458.718 1.22207 -2.74747 0
M  V30 4896 C 460.266 1.33183 -2.83251 0
M  V30 4897 C 460.741 1.73075 -4.24039 0
M  V30 4898 N 462.232 1.80174 -4.26722 0
M  V30 4899 C 462.967 2.1243 -5.32598 0
M  V30 4900 N 462.463 2.43096 -6.4875 0
M  V30 4901 N 464.256 2.13454 -5.19994 0
M  V30 4902 H 456.407 -0.215174 -2.11307 0
M  V30 4903 H 458.67 -0.0336281 -0.947403 0
M  V30 4904 H 458.376 0.468195 -3.4857 0
M  V30 4905 H 458.25 2.17173 -3.08409 0
M  V30 4906 H 460.637 2.07647 -2.09683 0
M  V30 4907 H 460.718 0.363333 -2.53206 0
M  V30 4908 H 460.362 0.991712 -4.98124 0
M  V30 4909 H 460.292 2.70979 -4.51529 0
M  V30 4910 H 462.783 1.58744 -3.42942 0
M  V30 4911 H 463.096 2.6682 -7.25277 0
M  V30 4912 H 461.441 2.40611 -6.52021 0
M  V30 4913 H 464.632 1.88956 -4.28268 0
M  V30 4914 H 464.805 2.38261 -6.02608 0
M  V30 4915 N 458.211 1.37122 0.776871 0
M  V30 4916 C 459.439 1.3523 1.5659 0
M  V30 4917 C 459.854 -0.0635518 1.88693 0
M  V30 4918 O 459.211 -1.02394 1.51069 0
M  V30 4919 C 459.262 2.18583 2.8793 0
M  V30 4920 O 458.983 3.5465 2.57206 0
M  V30 4921 C 460.484 2.24612 3.82183 0
M  V30 4922 H 457.704 0.4634 0.485285 0
M  V30 4923 H 460.248 1.80392 0.963266 0
M  V30 4924 H 458.403 1.76943 3.4463 0
M  V30 4925 H 458.817 3.98286 3.41275 0
M  V30 4926 H 460.291 2.87267 4.71361 0
M  V30 4927 H 460.768 1.25309 4.20944 0
M  V30 4928 H 461.374 2.66543 3.31414 0
M  V30 4929 N 459.689 -1.00246 1.21608 0
M  V30 4930 C 460.936 -1.74061 1.03485 0
M  V30 4931 C 461.264 -1.89658 -0.431308 0
M  V30 4932 O 460.519 -1.42976 -1.33627 0
M  V30 4933 C 460.818 -3.15448 1.68009 0
M  V30 4934 C 460.484 -3.19792 3.17874 0
M  V30 4935 C 459.146 -3.20685 3.58768 0
M  V30 4936 C 461.498 -3.16835 4.13842 0
M  V30 4937 C 458.826 -3.16309 4.94131 0
M  V30 4938 C 461.178 -3.14001 5.49169 0
M  V30 4939 C 459.842 -3.13204 5.89457 0
M  V30 4940 H 459.112 -0.636934 0.378677 0
M  V30 4941 H 461.759 -1.17473 1.51236 0
M  V30 4942 H 460.064 -3.75284 1.12557 0
M  V30 4943 H 461.761 -3.71285 1.51487 0
M  V30 4944 H 458.351 -3.19842 2.85305 0
M  V30 4945 H 462.535 -3.15303 3.83272 0
M  V30 4946 H 457.791 -3.14032 5.24589 0
M  V30 4947 H 461.965 -3.10667 6.23265 0
M  V30 4948 H 459.592 -3.09568 6.94314 0
M  V30 4949 N 461.167 -1.02423 -1.1978 0
M  V30 4950 C 462.115 -0.594474 -2.24875 0
M  V30 4951 C 463.109 0.370598 -1.65296 0
M  V30 4952 O 464.315 0.239684 -1.78397 0
M  V30 4953 H 460.69 -0.173961 -0.731602 0
M  V30 4954 H 462.661 -1.4916 -2.58445 0
M  V30 4955 C 461.41 0.0436512 -3.47673 0
M  V30 4956 H 460.733 -0.689963 -3.93801 0
M  V30 4957 H 462.173 0.307362 -4.22884 0
M  V30 4958 C 460.632 1.28881 -3.11274 0
M  V30 4959 O 461.162 2.38135 -3.23503 0
M  V30 4960 N 459.368 1.1758 -2.6575 0
M  V30 4961 H 458.915 0.286769 -2.55999 0
M  V30 4962 H 458.873 2.00988 -2.41767 0
M  V30 4963 N 462.645 1.35699 -0.801477 0
M  V30 4964 C 463.593 2.3177 -0.196317 0
M  V30 4965 C 464.587 1.56388 0.651081 0
M  V30 4966 O 465.793 1.71557 0.544815 0
M  V30 4967 H 462.168 0.750669 -0.0447189 0
M  V30 4968 H 464.139 2.8036 -1.02181 0
M  V30 4969 C 462.888 3.41671 0.644702 0
M  V30 4970 H 462.211 3.998 0.0019921 0
M  V30 4971 H 463.651 4.11184 1.0346 0
M  V30 4972 C 462.11 2.84271 1.80808 0
M  V30 4973 O 462.64 2.77408 2.9053 0
M  V30 4974 N 460.846 2.41391 1.61799 0
M  V30 4975 H 460.393 2.47173 0.725493 0
M  V30 4976 H 460.351 2.03334 2.39797 0
M  V30 4977 N 464.123 0.554532 1.47522 0
M  V30 4978 C 465.372 0.0273458 2.01681 0
M  V30 4979 C 465.685 -1.32962 1.43459 0
M  V30 4980 O 466.891 -1.94657 1.89265 0
M  V30 4981 C 465.347 -0.00159057 3.599 0
M  V30 4982 C 464.955 1.35197 4.27113 0
M  V30 4983 C 466.699 -0.476311 4.21819 0
M  V30 4984 C 464.606 1.28229 5.77331 0
M  V30 4985 H 463.536 0.00645269 0.753972 0
M  V30 4986 H 466.187 0.701985 1.69542 0
M  V30 4987 H 464.569 -0.741821 3.8899 0
M  V30 4988 H 465.743 2.1097 4.09668 0
M  V30 4989 H 464.058 1.76441 3.77171 0
M  V30 4990 H 466.655 -0.5468 5.31897 0
M  V30 4991 H 466.998 -1.4877 3.8881 0
M  V30 4992 H 467.531 0.20898 3.97251 0
M  V30 4993 H 464.27 2.26959 6.14955 0
M  V30 4994 H 463.79 0.566314 5.97121 0
M  V30 4995 H 465.469 0.983226 6.39485 0
M  V30 4996 N 465.601 -1.54893 0.290851 0
M  V30 4997 C 466.534 -2.19289 -0.631489 0
M  V30 4998 C 467.512 -1.15893 -1.14051 0
M  V30 4999 O 468.696 -1.4449 -1.21058 0
M  V30 5000 C 465.823 -2.82866 -1.86291 0
M  V30 5001 C 464.869 -3.997 -1.48801 0
M  V30 5002 S 465.702 -5.32641 -0.552644 0
M  V30 5003 C 466.858 -5.99696 -1.79209 0
M  V30 5004 H 467.091 -2.9718 -0.0843791 0
M  V30 5005 H 464.624 -1.54218 0.075031 0
M  V30 5006 H 466.582 -3.20124 -2.56964 0
M  V30 5007 H 465.243 -2.04839 -2.38117 0
M  V30 5008 H 464.436 -4.42932 -2.40473 0
M  V30 5009 H 464.038 -3.63947 -0.861321 0
M  V30 5010 H 466.33 -6.19886 -2.734 0
M  V30 5011 H 467.273 -6.94071 -1.40251 0
M  V30 5012 H 467.681 -5.29226 -1.96419 0
M  V30 5013 N 467.08 -0.0183926 -1.57589 0
M  V30 5014 C 468.028 0.985111 -2.10709 0
M  V30 5015 C 469.022 1.34397 -1.0312 0
M  V30 5016 O 470.228 1.32746 -1.21567 0
M  V30 5017 H 466.603 0.335418 -0.673052 0
M  V30 5018 H 468.574 0.511689 -2.9398 0
M  V30 5019 C 467.323 2.26202 -2.64061 0
M  V30 5020 H 466.646 1.9946 -3.4649 0
M  V30 5021 H 468.086 2.94652 -3.04887 0
M  V30 5022 C 466.545 2.98444 -1.5631 0
M  V30 5023 O 467.075 3.90142 -0.956674 0
M  V30 5024 N 465.281 2.6059 -1.28612 0
M  V30 5025 H 464.828 1.86101 -1.78112 0
M  V30 5026 H 464.786 3.09238 -0.567406 0
M  V30 5027 N 468.558 1.5553 0.254621 0
M  V30 5028 C 469.805 1.77 0.983736 0
M  V30 5029 C 470.133 0.58133 1.85609 0
M  V30 5030 O 469.388 -0.435621 1.9079 0
M  V30 5031 C 469.687 3.03891 1.88109 0
M  V30 5032 C 469.353 4.35597 1.16472 0
M  V30 5033 C 468.015 4.7139 0.966714 0
M  V30 5034 C 470.367 5.1705 0.656387 0
M  V30 5035 C 467.695 5.86176 0.247942 0
M  V30 5036 C 470.047 6.32581 -0.0488807 0
M  V30 5037 C 468.711 6.67 -0.258438 0
M  V30 5038 H 467.981 0.647688 0.359974 0
M  V30 5039 H 470.628 1.89802 0.254463 0
M  V30 5040 H 468.933 2.86068 2.67717 0
M  V30 5041 H 470.63 3.17701 2.44677 0
M  V30 5042 H 467.22 4.07475 1.32899 0
M  V30 5043 H 471.404 4.8986 0.796933 0
M  V30 5044 H 466.66 6.11354 0.075035 0
M  V30 5045 H 470.834 6.94942 -0.450444 0
M  V30 5046 H 468.461 7.55793 -0.817358 0
M  V30 5047 N 470.036 -0.519951 1.48776 0
M  V30 5048 C 470.968 -1.63973 1.60142 0
M  V30 5049 C 471.981 -1.55404 0.485117 0
M  V30 5050 O 473.17 -1.61682 0.756391 0
M  V30 5051 C 470.27 -3.02676 1.52449 0
M  V30 5052 C 469.443 -3.36624 2.79291 0
M  V30 5053 C 468.502 -4.54652 2.64912 0
M  V30 5054 O 467.528 -4.57374 3.38818 0
M  V30 5055 N 468.73 -5.53432 1.75195 0
M  V30 5056 H 471.495 -1.54656 2.56713 0
M  V30 5057 H 469.056 -0.707439 1.45626 0
M  V30 5058 H 471.048 -3.79525 1.4051 0
M  V30 5059 H 469.618 -3.06018 0.638125 0
M  V30 5060 H 468.838 -2.48855 3.0572 0
M  V30 5061 H 470.126 -3.56094 3.6342 0
M  V30 5062 H 469.524 -5.54018 1.14371 0
M  V30 5063 H 468.081 -6.29459 1.69189 0
M  V30 5064 N 471.514 -1.37532 -0.769588 0
M  V30 5065 C 472.93 -1.18379 -1.07045 0
M  V30 5066 C 473.13 -0.0214312 -2.01489 0
M  V30 5067 O 472.186 0.637809 -2.44312 0
M  V30 5068 C 473.499 -2.50338 -1.66588 0
M  V30 5069 C 475.047 -2.56879 -1.78835 0
M  V30 5070 C 475.522 -3.88974 -2.41792 0
M  V30 5071 N 477.013 -3.90428 -2.4924 0
M  V30 5072 C 477.748 -4.89388 -2.98809 0
M  V30 5073 N 477.244 -5.98745 -3.48535 0
M  V30 5074 N 479.037 -4.76791 -2.97703 0
M  V30 5075 H 471.188 -2.11921 -0.142541 0
M  V30 5076 H 473.451 -0.939608 -0.125863 0
M  V30 5077 H 473.157 -3.35767 -1.0466 0
M  V30 5078 H 473.031 -2.67583 -2.65856 0
M  V30 5079 H 475.418 -1.71856 -2.39895 0
M  V30 5080 H 475.499 -2.43516 -0.783166 0
M  V30 5081 H 475.143 -4.74412 -1.81371 0
M  V30 5082 H 475.073 -3.99641 -3.4292 0
M  V30 5083 H 477.564 -3.11433 -2.14052 0
M  V30 5084 H 477.877 -6.70205 -3.84767 0
M  V30 5085 H 476.222 -6.02387 -3.46634 0
M  V30 5086 H 479.413 -3.90478 -2.58157 0
M  V30 5087 H 479.586 -5.54069 -3.36024 0
M  V30 5088 N 472.992 0.995999 -1.22138 0
M  V30 5089 C 474.239 1.7351 -1.04406 0
M  V30 5090 C 474.567 1.89884 0.421244 0
M  V30 5091 O 473.822 1.43683 1.32867 0
M  V30 5092 C 474.121 3.14553 -1.6968 0
M  V30 5093 C 473.787 3.18102 -3.19565 0
M  V30 5094 C 472.449 3.18778 -3.60464 0
M  V30 5095 C 474.801 3.14636 -4.15516 0
M  V30 5096 C 472.129 3.13684 -4.95801 0
M  V30 5097 C 474.481 3.11084 -5.50826 0
M  V30 5098 C 473.145 3.10074 -5.91109 0
M  V30 5099 H 472.415 0.634916 -0.38205 0
M  V30 5100 H 475.062 1.1667 -1.51857 0
M  V30 5101 H 473.367 3.74682 -1.14546 0
M  V30 5102 H 475.064 3.70477 -1.53454 0
M  V30 5103 H 471.654 3.18324 -2.86998 0
M  V30 5104 H 475.838 3.13266 -3.84939 0
M  V30 5105 H 471.094 3.11245 -5.26247 0
M  V30 5106 H 475.268 3.07357 -6.24904 0
M  V30 5107 H 472.895 3.05882 -6.95946 0
M  V30 5108 N 474.47 1.03057 1.19235 0
M  V30 5109 C 475.4 0.633497 2.24742 0
M  V30 5110 C 476.381 -0.358335 1.66283 0
M  V30 5111 O 477.566 -0.240676 1.92703 0
M  V30 5112 C 474.696 -0.0147648 3.47297 0
M  V30 5113 C 473.65 0.899527 4.18441 0
M  V30 5114 C 472.976 0.116281 5.34574 0
M  V30 5115 C 474.276 2.21404 4.73051 0
M  V30 5116 H 475.97 1.5155 2.58211 0
M  V30 5117 H 473.516 0.73014 1.24117 0
M  V30 5118 H 475.469 -0.304202 4.20301 0
M  V30 5119 H 474.193 -0.931577 3.13032 0
M  V30 5120 H 472.852 1.17319 3.47321 0
M  V30 5121 H 472.5 -0.802619 4.96555 0
M  V30 5122 H 472.2 0.725293 5.83107 0
M  V30 5123 H 473.724 -0.166376 6.10373 0
M  V30 5124 H 475.138 1.98601 5.37802 0
M  V30 5125 H 473.535 2.77512 5.32078 0
M  V30 5126 H 474.605 2.86752 3.91026 0
M  V30 5127 N 475.948 -1.35272 0.808662 0
M  V30 5128 C 476.895 -2.29764 0.218482 0
M  V30 5129 C 477.865 -1.52911 -0.648652 0
M  V30 5130 O 479.05 -1.81341 -0.593297 0
M  V30 5131 C 476.19 -3.39388 -0.625282 0
M  V30 5132 C 475.303 -4.31202 0.262516 0
M  V30 5133 C 474.438 -5.27919 -0.589451 0
M  V30 5134 C 473.477 -6.11371 0.298617 0
M  V30 5135 N 472.614 -7.0022 -0.513443 0
M  V30 5136 H 477.454 -2.79645 1.02968 0
M  V30 5137 H 474.991 -1.37629 0.519303 0
M  V30 5138 H 476.949 -4.01615 -1.12966 0
M  V30 5139 H 475.579 -2.90777 -1.40173 0
M  V30 5140 H 474.631 -3.69962 0.885013 0
M  V30 5141 H 475.943 -4.89748 0.945971 0
M  V30 5142 H 475.097 -5.95529 -1.15888 0
M  V30 5143 H 473.836 -4.69875 -1.30647 0
M  V30 5144 H 472.841 -5.42707 0.880301 0
M  V30 5145 H 474.066 -6.71494 1.01352 0
M  V30 5146 H 472.012 -6.44662 -1.21439 0
M  V30 5147 H 471.929 -7.55917 0.111922 0
M  V30 5148 H 473.197 -7.72175 -1.06608 0
M  V30 5149 N 477.426 -0.562348 -1.47226 0
M  V30 5150 C 478.673 -0.0402165 -2.0246 0
M  V30 5151 C 479.001 1.31169 -1.43614 0
M  V30 5152 O 478.256 1.86805 -0.5833 0
M  V30 5153 C 478.555 0.0969817 -3.57268 0
M  V30 5154 C 478.221 -1.1847 -4.35058 0
M  V30 5155 C 476.883 -1.53588 -4.56031 0
M  V30 5156 C 479.235 -2.03378 -4.79882 0
M  V30 5157 C 476.563 -2.73452 -5.19077 0
M  V30 5158 C 478.915 -3.2245 -5.44251 0
M  V30 5159 C 477.579 -3.57876 -5.63455 0
M  V30 5160 H 476.849 -0.0147163 -0.740854 0
M  V30 5161 H 479.496 -0.734895 -1.76838 0
M  V30 5162 H 477.801 0.87466 -3.81912 0
M  V30 5163 H 479.498 0.516408 -3.97661 0
M  V30 5164 H 476.088 -0.90126 -4.19017 0
M  V30 5165 H 480.272 -1.77553 -4.63453 0
M  V30 5166 H 475.528 -3.01062 -5.32139 0
M  V30 5167 H 479.702 -3.88526 -5.77945 0
M  V30 5168 H 477.329 -4.50849 -6.12078 0
M  V30 5169 N 478.904 1.54736 -0.299062 0
M  V30 5170 C 480.315 1.8569 0.193971 0
M  V30 5171 C 480.666 1.22101 1.53577 0
M  V30 5172 O 479.791 0.51799 2.10109 0
M  V30 5173 C 480.386 3.36895 0.358733 0
M  V30 5174 C 478.945 3.67887 0.795986 0
M  V30 5175 C 478.092 2.77131 -0.096807 0
M  V30 5176 H 481.043 1.49934 -0.520134 0
M  V30 5177 H 481.064 3.61294 1.19361 0
M  V30 5178 H 480.576 3.83148 -0.617998 0
M  V30 5179 H 478.677 3.27151 1.78334 0
M  V30 5180 H 478.79 4.75114 0.616718 0
M  V30 5181 H 477.154 2.51153 0.423581 0
M  V30 5182 H 477.937 3.26204 -1.06986 0
M  V30 5183 N 480.382 0.0267497 1.57577 0
M  V30 5184 C 481.659 -0.690926 1.82991 0
M  V30 5185 C 482.039 -1.90471 0.910164 0
M  V30 5186 O 481.387 -2.28474 -0.0347985 0
M  V30 5187 C 481.597 -1.07139 3.32148 0
M  V30 5188 C 482.945 -1.46402 3.98562 0
M  V30 5189 O 483.969 -1.16443 3.36629 0
M  V30 5190 O 482.828 -2.02214 5.07712 0
M  V30 5191 H 479.922 -0.338747 0.75444 0
M  V30 5192 H 482.468 0.0542506 1.69613 0
M  V30 5193 H 481.24 -0.207394 3.9075 0
M  V30 5194 H 480.863 -1.87481 3.50623 0
M  V30 5195 N 481.861 -1.55662 -0.24637 0
M  V30 5196 C 483.138 -1.68272 -0.997198 0
M  V30 5197 C 483.518 -0.566785 -2.03349 0
M  V30 5198 O 482.866 0.429688 -2.24424 0
M  V30 5199 C 483.076 -3.08594 -1.63006 0
M  V30 5200 C 484.424 -3.6721 -2.13171 0
M  V30 5201 O 485.448 -3.11397 -1.72946 0
M  V30 5202 O 484.307 -4.65054 -2.87031 0
M  V30 5203 H 481.401 -0.684429 -0.464205 0
M  V30 5204 H 483.947 -1.67993 -0.240114 0
M  V30 5205 H 482.719 -3.81264 -0.880527 0
M  V30 5206 H 482.342 -3.12886 -2.45333 0
M  V30 5207 N 483.339 0.512053 -1.4905 0
M  V30 5208 C 484.75 1.09376 -1.51307 0
M  V30 5209 C 485.101 1.94 -0.292971 0
M  V30 5210 O 484.226 2.07965 0.598277 0
M  V30 5211 C 484.821 1.99031 -2.74176 0
M  V30 5212 C 483.38 2.52385 -2.79247 0
M  V30 5213 C 482.527 1.29749 -2.45073 0
M  V30 5214 H 485.478 0.296467 -1.55906 0
M  V30 5215 H 485.499 2.83569 -2.53711 0
M  V30 5216 H 485.011 1.37412 -3.62959 0
M  V30 5217 H 483.112 3.17673 -1.94716 0
M  V30 5218 H 483.225 2.90293 -3.81139 0
M  V30 5219 H 481.589 1.61912 -1.96612 0
M  V30 5220 H 482.372 0.698555 -3.36118 0
M  V30 5221 N 484.817 1.37938 0.762283 0
M  V30 5222 C 485.764 1.34467 1.87583 0
M  V30 5223 C 486.734 0.208633 1.64785 0
M  V30 5224 O 487.919 0.399494 1.86571 0
M  V30 5225 C 485.059 1.16692 3.24772 0
M  V30 5226 C 484.172 2.39608 3.59461 0
M  V30 5227 C 483.307 2.14631 4.85908 0
M  V30 5228 C 482.346 3.33364 5.13357 0
M  V30 5229 N 481.483 3.07877 6.30996 0
M  V30 5230 H 486.323 2.29669 1.89885 0
M  V30 5231 H 483.86 1.14116 0.928219 0
M  V30 5232 H 485.818 1.04405 4.03925 0
M  V30 5233 H 484.448 0.251333 3.2182 0
M  V30 5234 H 483.5 2.626 2.75219 0
M  V30 5235 H 484.812 3.28128 3.75678 0
M  V30 5236 H 483.966 1.99429 5.72986 0
M  V30 5237 H 482.705 1.23463 4.71814 0
M  V30 5238 H 481.71 3.49094 4.24751 0
M  V30 5239 H 482.935 4.25395 5.29354 0
M  V30 5240 H 480.881 2.19348 6.18241 0
M  V30 5241 H 480.798 3.89944 6.47673 0
M  V30 5242 H 482.066 2.96313 7.20985 0
M  V30 5243 N 486.295 -0.989507 1.22664 0
M  V30 5244 C 487.541 -1.7321 1.05481 0
M  V30 5245 C 487.874 -1.89852 -0.408635 0
M  V30 5246 O 487.149 -1.44416 -1.30285 0
M  V30 5247 C 487.432 -3.1357 1.77047 0
M  V30 5248 C 487.285 -3.04555 3.31008 0
M  V30 5249 C 488.604 -4.12812 1.5256 0
M  V30 5250 H 485.723 -0.628697 0.384589 0
M  V30 5251 H 488.365 -1.15258 1.51049 0
M  V30 5252 H 486.515 -3.63046 1.3831 0
M  V30 5253 H 488.187 -2.62674 3.7921 0
M  V30 5254 H 486.43 -2.41278 3.6051 0
M  V30 5255 H 487.101 -4.03894 3.76263 0
M  V30 5256 H 489.577 -3.72106 1.86215 0
M  V30 5257 H 488.453 -5.09132 2.05124 0
M  V30 5258 H 488.714 -4.39711 0.458936 0
M  V30 5259 N 487.773 -1.03688 -1.18687 0
M  V30 5260 C 488.998 -0.757819 -1.93059 0
M  V30 5261 C 489.423 0.678353 -1.75442 0
M  V30 5262 O 488.781 1.46938 -1.06203 0
M  V30 5263 C 488.829 -1.12423 -3.42627 0
M  V30 5264 O 487.933 -0.247505 -4.11657 0
M  V30 5265 H 487.274 -0.279245 -0.602427 0
M  V30 5266 H 489.804 -1.3857 -1.5053 0
M  V30 5267 H 489.814 -1.08454 -3.93322 0
M  V30 5268 H 488.489 -2.17049 -3.54771 0
M  V30 5269 H 487.066 -0.34649 -3.71287 0
M  V30 5270 N 489.251 1.34841 -0.815825 0
M  V30 5271 C 490.476 2.03261 -0.41226 0
M  V30 5272 C 490.901 1.61055 0.971751 0
M  V30 5273 O 490.259 0.7917 1.63101 0
M  V30 5274 C 490.307 3.56914 -0.514289 0
M  V30 5275 O 489.411 4.09728 0.468675 0
M  V30 5276 H 488.752 0.641664 -0.170771 0
M  V30 5277 H 491.282 1.72241 -1.10427 0
M  V30 5278 H 491.292 4.06156 -0.387457 0
M  V30 5279 H 489.967 3.86982 -1.52375 0
M  V30 5280 H 488.544 3.71681 0.301316 0
M  V30 5281 N 490.729 0.570148 1.46925 0
M  V30 5282 C 492.006 -0.0153259 1.95594 0
M  V30 5283 C 492.386 -1.47232 1.51281 0
M  V30 5284 O 491.734 -2.15574 0.757624 0
M  V30 5285 C 491.944 0.143624 3.48704 0
M  V30 5286 C 493.292 0.00494484 4.246 0
M  V30 5287 O 494.316 0.0718214 3.56128 0
M  V30 5288 O 493.175 -0.141175 5.46318 0
M  V30 5289 H 490.269 -0.0568819 0.825041 0
M  V30 5290 H 492.815 0.637583 1.57267 0
M  V30 5291 H 491.587 1.15699 3.73804 0
M  V30 5292 H 491.21 -0.5463 3.93829 0
M  V30 5293 N 492.207 -1.54576 0.307264 0
M  V30 5294 C 493.454 -2.00263 -0.300167 0
M  V30 5295 C 493.782 -1.19561 -1.53413 0
M  V30 5296 O 493.037 -0.261487 -1.93945 0
M  V30 5297 C 493.336 -3.50572 -0.695253 0
M  V30 5298 C 493.002 -4.48771 0.437679 0
M  V30 5299 C 491.664 -4.7534 0.748681 0
M  V30 5300 C 494.016 -5.0721 1.19949 0
M  V30 5301 C 491.344 -5.5761 1.8245 0
M  V30 5302 C 493.696 -5.90651 2.26527 0
M  V30 5303 C 492.36 -6.15528 2.58227 0
M  V30 5304 H 491.63 -0.732814 -0.109839 0
M  V30 5305 H 494.277 -1.86664 0.427661 0
M  V30 5306 H 492.582 -3.61814 -1.50326 0
M  V30 5307 H 494.279 -3.83352 -1.17653 0
M  V30 5308 H 490.869 -4.282 0.185187 0
M  V30 5309 H 495.053 -4.86679 0.972474 0
M  V30 5310 H 490.309 -5.75121 2.07476 0
M  V30 5311 H 494.483 -6.34957 2.86011 0
M  V30 5312 H 492.11 -6.79066 3.4172 0
M  V30 5313 N 493.685 -0.035106 -1.57561 0
M  V30 5314 C 494.615 0.942993 -2.13612 0
M  V30 5315 C 495.596 1.33531 -1.05373 0
M  V30 5316 O 496.781 1.41287 -1.33235 0
M  V30 5317 C 493.911 2.22332 -2.66807 0
M  V30 5318 C 492.865 1.97156 -3.79886 0
M  V30 5319 C 492.191 3.31506 -4.19533 0
M  V30 5320 C 493.491 1.30596 -5.05709 0
M  V30 5321 H 495.185 0.476179 -2.95589 0
M  V30 5322 H 492.731 0.227602 -1.4219 0
M  V30 5323 H 494.684 2.91142 -3.04654 0
M  V30 5324 H 493.408 2.7119 -1.81999 0
M  V30 5325 H 492.067 1.30763 -3.42486 0
M  V30 5326 H 491.715 3.78134 -3.31698 0
M  V30 5327 H 491.415 3.15465 -4.95738 0
M  V30 5328 H 492.939 4.01574 -4.59968 0
M  V30 5329 H 494.353 1.89416 -5.41105 0
M  V30 5330 H 492.75 1.24934 -5.86951 0
M  V30 5331 H 493.82 0.279742 -4.84092 0
M  V30 5332 N 495.163 1.55791 0.238111 0
M  V30 5333 C 496.44 1.68798 0.98826 0
M  V30 5334 C 496.82 0.577562 2.03045 0
M  V30 5335 O 496.168 -0.41778 2.24648 0
M  V30 5336 C 496.378 3.09454 1.61367 0
M  V30 5337 C 497.726 3.68335 2.11221 0
M  V30 5338 O 498.75 3.1231 1.71292 0
M  V30 5339 O 497.609 4.6657 2.84561 0
M  V30 5340 H 494.703 0.686881 0.460568 0
M  V30 5341 H 497.249 1.68118 0.231202 0
M  V30 5342 H 496.021 3.81726 0.860295 0
M  V30 5343 H 495.644 3.14182 2.4367 0
M  V30 5344 N 496.642 -0.504142 1.49319 0
M  V30 5345 C 497.572 -1.61473 1.68667 0
M  V30 5346 C 498.553 -1.61455 0.535378 0
M  V30 5347 O 499.738 -1.78245 0.770868 0
M  V30 5348 C 496.868 -2.99971 1.75028 0
M  V30 5349 C 495.822 -3.14854 2.89916 0
M  V30 5350 C 495.148 -4.54671 2.81387 0
M  V30 5351 C 496.448 -2.95176 4.30893 0
M  V30 5352 H 498.142 -1.45535 2.61648 0
M  V30 5353 H 495.688 -0.698711 1.25913 0
M  V30 5354 H 497.641 -3.77562 1.8715 0
M  V30 5355 H 496.365 -3.1699 0.786441 0
M  V30 5356 H 495.024 -2.39687 2.77391 0
M  V30 5357 H 494.672 -4.68562 1.82917 0
M  V30 5358 H 494.372 -4.6557 3.58494 0
M  V30 5359 H 495.896 -5.34327 2.95512 0
M  V30 5360 H 497.31 -3.62538 4.44116 0
M  V30 5361 H 495.707 -3.17549 5.09198 0
M  V30 5362 H 496.777 -1.91332 4.45556 0
M  V30 5363 N 498.12 -1.38341 -0.754957 0
M  V30 5364 C 499.369 -1.33791 -1.5094 0
M  V30 5365 C 499.682 0.0699267 -1.95475 0
M  V30 5366 O 500.888 0.237956 -2.70455 0
M  V30 5367 C 499.344 -2.34934 -2.72643 0
M  V30 5368 C 498.952 -3.81332 -2.35138 0
M  V30 5369 C 500.696 -2.39425 -3.50536 0
M  V30 5370 C 498.603 -4.74164 -3.53444 0
M  V30 5371 H 497.533 -0.497314 -0.566741 0
M  V30 5372 H 500.184 -1.63888 -0.825403 0
M  V30 5373 H 498.566 -1.97878 -3.43017 0
M  V30 5374 H 499.74 -4.27319 -1.7244 0
M  V30 5375 H 498.055 -3.79946 -1.70382 0
M  V30 5376 H 500.652 -3.0598 -4.38498 0
M  V30 5377 H 500.995 -1.41278 -3.91594 0
M  V30 5378 H 501.528 -2.75274 -2.87174 0
M  V30 5379 H 498.267 -5.73501 -3.17453 0
M  V30 5380 H 497.787 -4.3287 -4.15191 0
M  V30 5381 H 499.466 -4.92111 -4.20043 0
M  V30 5382 N 499.598 0.982988 -1.23187 0
M  V30 5383 C 500.53 2.07729 -0.968572 0
M  V30 5384 C 501.543 1.62702 0.0564821 0
M  V30 5385 O 502.732 1.77603 -0.178733 0
M  V30 5386 C 499.832 3.36071 -0.436974 0
M  V30 5387 C 499.005 4.10081 -1.52159 0
M  V30 5388 C 498.064 5.16701 -0.99532 0
M  V30 5389 O 497.09 5.43727 -1.68373 0
M  V30 5390 N 498.292 5.80226 0.178192 0
M  V30 5391 H 501.057 2.30894 -1.9107 0
M  V30 5392 H 498.618 1.14949 -1.1401 0
M  V30 5393 H 500.61 4.04639 -0.0700051 0
M  V30 5394 H 499.18 3.09893 0.410509 0
M  V30 5395 H 498.4 3.36004 -2.06144 0
M  V30 5396 H 499.688 4.56295 -2.25105 0
M  V30 5397 H 499.086 5.60651 0.754096 0
M  V30 5398 H 497.643 6.49982 0.486449 0
M  V30 5399 N 501.076 1.04316 1.18135 0
M  V30 5400 C 502.301 0.768047 1.92655 0
M  V30 5401 C 502.726 -0.66904 1.758 0
M  V30 5402 O 502.084 -1.46372 1.06981 0
M  V30 5403 C 502.132 1.14239 3.42026 0
M  V30 5404 O 501.236 0.269333 4.1152 0
M  V30 5405 H 500.577 0.282436 0.600937 0
M  V30 5406 H 503.107 1.39367 1.49793 0
M  V30 5407 H 503.117 1.10538 3.92741 0
M  V30 5408 H 501.792 2.18928 3.53615 0
M  V30 5409 H 500.369 0.366175 3.71098 0
M  V30 5410 N 502.554 -1.34406 0.822964 0
M  V30 5411 C 503.484 -2.32052 0.259608 0
M  V30 5412 C 504.465 -1.58243 -0.623961 0
M  V30 5413 O 505.65 -1.86224 -0.55083 0
M  V30 5414 C 502.78 -3.42434 -0.579314 0
M  V30 5415 C 501.734 -4.27499 0.20712 0
M  V30 5416 C 501.06 -5.29349 -0.754547 0
M  V30 5417 C 502.36 -5.02758 1.41533 0
M  V30 5418 H 504.054 -2.79418 1.07545 0
M  V30 5419 H 501.6 -1.34338 0.518593 0
M  V30 5420 H 503.553 -4.0976 -0.983612 0
M  V30 5421 H 502.277 -2.93717 -1.4282 0
M  V30 5422 H 500.936 -3.61776 0.592787 0
M  V30 5423 H 500.584 -4.76895 -1.59939 0
M  V30 5424 H 500.284 -5.8714 -0.232561 0
M  V30 5425 H 501.808 -5.99544 -1.1567 0
M  V30 5426 H 503.222 -5.62938 1.08504 0
M  V30 5427 H 501.619 -5.70123 1.87296 0
M  V30 5428 H 502.689 -4.32451 2.1935 0
M  V30 5429 N 504.032 -0.577932 -1.46621 0
M  V30 5430 C 504.962 0.145917 -2.33044 0
M  V30 5431 C 505.943 0.888412 -1.45056 0
M  V30 5432 O 507.128 0.864812 -1.73881 0
M  V30 5433 C 504.258 1.16322 -3.27241 0
M  V30 5434 C 503.212 0.535868 -4.24632 0
M  V30 5435 C 502.538 1.65929 -5.08303 0
M  V30 5436 C 503.838 -0.523861 -5.19666 0
M  V30 5437 H 505.532 -0.575636 -2.93814 0
M  V30 5438 H 503.078 -0.278272 -1.41286 0
M  V30 5439 H 505.031 1.67793 -3.86553 0
M  V30 5440 H 503.755 1.91498 -2.64567 0
M  V30 5441 H 502.414 0.0422759 -3.66576 0
M  V30 5442 H 502.062 2.40061 -4.42018 0
M  V30 5443 H 501.762 1.2452 -5.74255 0
M  V30 5444 H 503.286 2.17686 -5.70478 0
M  V30 5445 H 504.7 -0.0944059 -5.73222 0
M  V30 5446 H 503.097 -0.858 -5.93935 0
M  V30 5447 H 504.167 -1.41197 -4.63887 0
M  V30 5448 N 505.51 1.54411 -0.315457 0
M  V30 5449 C 506.75 2.02329 0.290236 0
M  V30 5450 C 507.114 1.19878 1.49977 0
M  V30 5451 O 508.315 1.57562 2.17779 0
M  V30 5452 C 506.586 3.51912 0.623937 0
M  V30 5453 S 508.145 4.21775 1.21044 0
M  V30 5454 H 504.963 0.705499 0.0882739 0
M  V30 5455 H 507.565 1.90328 -0.446694 0
M  V30 5456 H 506.269 4.09546 -0.264624 0
M  V30 5457 H 505.8 3.67977 1.39128 0
M  V30 5458 H 507.815 4.28757 2.49764 0
M  V30 5459 N 506.988 0.0434614 1.5754 0
M  V30 5460 C 508.236 -0.630786 1.92004 0
M  V30 5461 C 508.557 -1.71836 0.921807 0
M  V30 5462 O 507.827 -1.9587 -0.034522 0
M  V30 5463 H 506.407 -0.235988 0.708745 0
M  V30 5464 H 509.069 0.0946462 1.9467 0
M  V30 5465 H 508.165 -1.07434 2.93026 0
M  V30 5466 N 508.466 -1.55915 -0.229846 0
M  V30 5467 C 509.398 -1.88209 -1.30805 0
M  V30 5468 C 510.411 -0.769672 -1.43457 0
M  V30 5469 O 511.6 -1.04792 -1.44502 0
M  V30 5470 C 508.7 -2.06829 -2.68468 0
M  V30 5471 C 507.873 -3.37798 -2.77869 0
M  V30 5472 C 506.932 -3.45952 -3.96489 0
M  V30 5473 O 505.958 -4.19043 -3.85216 0
M  V30 5474 N 507.16 -2.76488 -5.10426 0
M  V30 5475 H 509.925 -2.81286 -1.03431 0
M  V30 5476 H 507.486 -1.5636 -0.41991 0
M  V30 5477 H 509.478 -2.09608 -3.46189 0
M  V30 5478 H 508.048 -1.20416 -2.88477 0
M  V30 5479 H 507.268 -3.4719 -1.86689 0
M  V30 5480 H 508.556 -4.24091 -2.81113 0
M  V30 5481 H 507.954 -2.16868 -5.2248 0
M  V30 5482 H 506.511 -2.84938 -5.8622 0
M  V30 5483 N 509.944 0.496216 -1.49584 0
M  V30 5484 C 510.891 1.59722 -1.66606 0
M  V30 5485 C 511.861 1.58158 -0.507477 0
M  V30 5486 O 513.046 1.76072 -0.735076 0
M  V30 5487 C 510.186 2.97844 -1.74308 0
M  V30 5488 C 509.299 3.09388 -3.01502 0
M  V30 5489 C 508.434 4.38271 -3.00153 0
M  V30 5490 C 507.473 4.43466 -4.21906 0
M  V30 5491 N 506.61 5.63784 -4.1844 0
M  V30 5492 H 511.45 1.44515 -2.60613 0
M  V30 5493 H 508.987 0.703048 -1.29212 0
M  V30 5494 H 510.945 3.77907 -1.76754 0
M  V30 5495 H 509.575 3.11743 -0.837619 0
M  V30 5496 H 508.627 2.22357 -3.08645 0
M  V30 5497 H 509.939 3.09085 -3.91494 0
M  V30 5498 H 509.093 5.2666 -3.01188 0
M  V30 5499 H 507.832 4.41146 -2.07947 0
M  V30 5500 H 506.837 3.53478 -4.21109 0
M  V30 5501 H 508.062 4.42303 -5.1531 0
M  V30 5502 H 506.008 5.67491 -3.29074 0
M  V30 5503 H 505.925 5.65118 -5.02173 0
M  V30 5504 H 507.193 6.54367 -4.23585 0
M  V30 5505 N 511.423 1.38739 0.74761 0
M  V30 5506 C 512.333 1.38696 1.89211 0
M  V30 5507 C 513.349 0.283303 1.71678 0
M  V30 5508 O 514.525 0.522713 1.94498 0
M  V30 5509 C 511.59 1.21662 3.24653 0
M  V30 5510 C 510.651 2.41886 3.54669 0
M  V30 5511 C 509.884 2.25655 4.83648 0
M  V30 5512 O 510.107 1.25339 5.56459 0
M  V30 5513 O 509.041 3.14372 5.13277 0
M  V30 5514 H 512.867 2.35143 1.92202 0
M  V30 5515 H 510.452 1.19721 0.893708 0
M  V30 5516 H 512.334 1.14246 4.05618 0
M  V30 5517 H 511.009 0.283024 3.2246 0
M  V30 5518 H 509.916 2.54877 2.73841 0
M  V30 5519 H 511.249 3.33895 3.61628 0
M  V30 5520 N 512.901 -0.976442 1.23707 0
M  V30 5521 C 514.317 -1.24341 1.00058 0
M  V30 5522 C 514.517 -1.99315 -0.295932 0
M  V30 5523 O 513.573 -2.3123 -1.01435 0
M  V30 5524 C 514.886 -2.03909 2.21001 0
M  V30 5525 C 516.434 -2.17034 2.25534 0
M  V30 5526 C 516.909 -2.99994 3.46075 0
M  V30 5527 N 518.4 -3.07578 3.46338 0
M  V30 5528 C 519.135 -3.72104 4.36264 0
M  V30 5529 N 518.631 -4.3842 5.36432 0
M  V30 5530 N 520.424 -3.69029 4.23998 0
M  V30 5531 H 512.575 -0.47428 2.07037 0
M  V30 5532 H 514.838 -0.272167 0.908091 0
M  V30 5533 H 514.544 -1.56198 3.15111 0
M  V30 5534 H 514.418 -3.04654 2.22409 0
M  V30 5535 H 516.805 -2.63951 1.31961 0
M  V30 5536 H 516.886 -1.15664 2.28156 0
M  V30 5537 H 516.53 -2.53772 4.39957 0
M  V30 5538 H 516.46 -4.01541 3.40694 0
M  V30 5539 H 518.951 -2.60397 2.73865 0
M  V30 5540 H 519.264 -4.85447 6.013 0
M  V30 5541 H 517.609 -4.37116 5.40328 0
M  V30 5542 H 520.8 -3.16392 3.44984 0
M  V30 5543 H 520.973 -4.19034 4.94282 0
M  V30 5544 N 514.379 -1.04941 -1.1758 0
M  V30 5545 C 515.309 -0.669172 -2.23706 0
M  V30 5546 C 516.29 0.331835 -1.66832 0
M  V30 5547 O 517.475 0.209988 -1.93061 0
M  V30 5548 C 514.605 -0.0404889 -3.47276 0
M  V30 5549 C 513.559 -0.965983 -4.16957 0
M  V30 5550 C 512.885 -0.201312 -5.34321 0
M  V30 5551 C 514.185 -2.28902 -4.69469 0
M  V30 5552 H 515.879 -1.55639 -2.55767 0
M  V30 5553 H 513.425 -0.749793 -1.22939 0
M  V30 5554 H 515.378 0.237298 -4.20731 0
M  V30 5555 H 514.102 0.881658 -3.14475 0
M  V30 5556 H 512.761 -1.22829 -3.45411 0
M  V30 5557 H 512.409 0.723519 -4.97769 0
M  V30 5558 H 512.109 -0.817968 -5.81879 0
M  V30 5559 H 513.633 0.0692499 -6.10561 0
M  V30 5560 H 515.047 -2.07132 -5.34574 0
M  V30 5561 H 513.444 -2.85942 -5.27596 0
M  V30 5562 H 514.514 -2.92937 -3.86414 0
M  V30 5563 N 515.857 1.33968 -0.830081 0
M  V30 5564 C 516.804 2.29387 -0.255008 0
M  V30 5565 C 517.774 1.53923 0.624243 0
M  V30 5566 O 518.959 1.82262 0.564372 0
M  V30 5567 C 516.099 3.4034 0.571209 0
M  V30 5568 C 515.212 4.30729 -0.331083 0
M  V30 5569 C 514.347 5.2879 0.505389 0
M  V30 5570 C 513.386 6.10819 -0.395843 0
M  V30 5571 N 512.523 7.00948 0.401979 0
M  V30 5572 H 517.363 2.77972 -1.07404 0
M  V30 5573 H 514.9 1.36785 -0.541133 0
M  V30 5574 H 516.858 4.03361 1.06562 0
M  V30 5575 H 515.488 2.9297 1.35529 0
M  V30 5576 H 514.54 3.68507 -0.943759 0
M  V30 5577 H 515.852 4.88181 -1.02377 0
M  V30 5578 H 515.006 5.97297 1.06399 0
M  V30 5579 H 513.745 4.71894 1.23155 0
M  V30 5580 H 512.75 5.41238 -0.966529 0
M  V30 5581 H 513.975 6.69797 -1.12023 0
M  V30 5582 H 511.921 6.46512 1.11168 0
M  V30 5583 H 511.838 7.55643 -0.232167 0
M  V30 5584 H 513.106 7.73774 0.943102 0
M  V30 5585 N 517.335 0.585699 1.46312 0
M  V30 5586 C 518.582 0.0724211 2.0237 0
M  V30 5587 C 518.91 -1.28868 1.45683 0
M  V30 5588 O 518.165 -1.85853 0.612945 0
M  V30 5589 C 518.464 -0.0401312 3.57377 0
M  V30 5590 C 518.13 1.25376 4.33119 0
M  V30 5591 C 516.792 1.60824 4.5353 0
M  V30 5592 C 519.144 2.10987 4.76586 0
M  V30 5593 C 516.472 2.81676 5.14661 0
M  V30 5594 C 518.824 3.31068 5.39052 0
M  V30 5595 C 517.488 3.66794 5.5769 0
M  V30 5596 H 516.758 0.0265007 0.740526 0
M  V30 5597 H 519.405 0.762935 1.75646 0
M  V30 5598 H 517.71 -0.813791 3.83255 0
M  V30 5599 H 519.407 -0.453078 3.98432 0
M  V30 5600 H 515.997 0.967808 4.1753 0
M  V30 5601 H 520.181 1.84904 4.60569 0
M  V30 5602 H 515.437 3.0949 5.27282 0
M  V30 5603 H 519.611 3.97672 5.71691 0
M  V30 5604 H 517.238 4.60529 6.04828 0
M  V30 5605 N 518.813 -1.54241 0.323641 0
M  V30 5606 C 519.723 -2.28033 -0.551205 0
M  V30 5607 C 520.739 -1.32388 -1.12913 0
M  V30 5608 O 521.915 -1.65403 -1.14908 0
M  V30 5609 C 518.98 -3.02382 -1.69606 0
M  V30 5610 C 518.041 -4.13612 -1.14993 0
M  V30 5611 C 517.274 -4.84407 -2.24022 0
M  V30 5612 O 517.497 -4.54716 -3.44368 0
M  V30 5613 O 516.431 -5.71312 -1.89436 0
M  V30 5614 H 520.257 -3.03662 0.048066 0
M  V30 5615 H 517.842 -1.49133 0.0893289 0
M  V30 5616 H 519.724 -3.48941 -2.36259 0
M  V30 5617 H 518.399 -2.29628 -2.28151 0
M  V30 5618 H 517.306 -3.71402 -0.448484 0
M  V30 5619 H 518.639 -4.8841 -0.609608 0
M  V30 5620 N 520.291 -0.0518155 -1.57515 0
M  V30 5621 C 521.539 0.620595 -1.92336 0
M  V30 5622 C 521.86 1.71345 -0.930907 0
M  V30 5623 O 521.13 1.95885 0.0241341 0
M  V30 5624 H 519.71 0.232226 -0.709986 0
M  V30 5625 H 522.372 -0.104969 -1.94617 0
M  V30 5626 H 521.468 1.05879 -2.93592 0
M  V30 5627 N 521.769 1.56035 0.221574 0
M  V30 5628 C 522.699 1.95434 1.2778 0
M  V30 5629 C 523.68 0.822564 1.48889 0
M  V30 5630 O 524.865 1.08486 1.61072 0
M  V30 5631 C 521.995 2.27102 2.62759 0
M  V30 5632 C 520.949 3.4277 2.56306 0
M  V30 5633 C 520.275 3.60043 3.95314 0
M  V30 5634 C 521.575 4.77742 2.11093 0
M  V30 5635 H 523.269 2.83912 0.950504 0
M  V30 5636 H 520.815 1.36596 0.455791 0
M  V30 5637 H 522.768 2.53256 3.36807 0
M  V30 5638 H 521.492 1.35478 2.97176 0
M  V30 5639 H 520.151 3.16664 1.84715 0
M  V30 5640 H 519.799 2.65794 4.27039 0
M  V30 5641 H 519.499 4.37841 3.91879 0
M  V30 5642 H 521.023 3.88545 4.71025 0
M  V30 5643 H 522.437 5.03102 2.74885 0
M  V30 5644 H 520.834 5.58823 2.18716 0
M  V30 5645 H 521.904 4.731 1.06321 0
M  V30 5646 N 523.247 -0.488276 1.49845 0
M  V30 5647 C 524.487 -1.2516 1.61599 0
M  V30 5648 C 524.851 -1.89615 0.301706 0
M  V30 5649 O 526.052 -2.67182 0.29453 0
M  V30 5650 C 524.323 -2.2805 2.75187 0
M  V30 5651 S 525.882 -3.13552 3.0697 0
M  V30 5652 H 522.7 -0.425178 0.569864 0
M  V30 5653 H 525.302 -0.551545 1.87559 0
M  V30 5654 H 524.006 -1.7925 3.69185 0
M  V30 5655 H 523.537 -3.02708 2.5126 0
M  V30 5656 H 525.552 -4.28927 2.49471 0
M  V30 5657 N 524.725 -1.39134 -0.740242 0
M  V30 5658 C 525.965 -1.37499 -1.51239 0
M  V30 5659 C 526.329 0.0310084 -1.91975 0
M  V30 5660 O 527.53 0.172319 -2.68247 0
M  V30 5661 C 525.801 -2.31566 -2.72235 0
M  V30 5662 S 527.36 -2.48073 -3.61947 0
M  V30 5663 H 524.178 -0.48768 -0.517387 0
M  V30 5664 H 526.78 -1.75183 -0.867826 0
M  V30 5665 H 525.484 -3.32592 -2.40439 0
M  V30 5666 H 525.015 -1.9508 -3.41625 0
M  V30 5667 H 527.03 -1.71473 -4.6563 0
M  V30 5668 N 526.204 0.969867 -1.24223 0
M  V30 5669 C 527.154 2.04913 -0.999732 0
M  V30 5670 C 528.138 1.60795 0.0580636 0
M  V30 5671 O 529.33 1.76317 -0.155392 0
M  V30 5672 C 526.459 3.37942 -0.604154 0
M  V30 5673 C 525.545 3.88628 -1.69791 0
M  V30 5674 N 525.936 4.12274 -2.93025 0
M  V30 5675 C 524.234 4.17268 -1.57492 0
M  V30 5676 C 524.935 4.53808 -3.63914 0
M  V30 5677 N 523.911 4.58855 -2.91468 0
M  V30 5678 H 527.713 2.21168 -1.93551 0
M  V30 5679 H 525.227 1.15349 -1.14317 0
M  V30 5680 H 527.224 4.14863 -0.411665 0
M  V30 5681 H 525.884 3.23075 0.324465 0
M  V30 5682 H 526.895 3.99789 -3.29225 0
M  V30 5683 H 523.572 4.11346 -0.714175 0
M  V30 5684 H 524.962 4.80534 -4.69614 0
M  V30 5685 N 527.682 1.05563 1.17022 0
M  V30 5686 C 529.093 0.793475 1.69 0
M  V30 5687 C 529.444 -0.683882 1.83895 0
M  V30 5688 O 528.569 -1.53116 1.5292 0
M  V30 5689 C 529.164 1.43376 3.06967 0
M  V30 5690 C 527.723 1.21956 3.56095 0
M  V30 5691 C 526.87 1.51494 2.3226 0
M  V30 5692 H 529.821 1.22008 1.01487 0
M  V30 5693 H 529.842 0.845068 3.70997 0
M  V30 5694 H 529.354 2.50899 2.96093 0
M  V30 5695 H 527.455 0.163749 3.7224 0
M  V30 5696 H 527.568 1.92713 4.38633 0
M  V30 5697 H 525.932 0.935175 2.3691 0
M  V30 5698 H 526.715 2.60159 2.23992 0
M  V30 5699 N 529.16 -1.33526 0.837174 0
M  V30 5700 C 530.407 -1.97837 0.432064 0
M  V30 5701 C 530.735 -1.66324 -1.00829 0
M  V30 5702 O 529.99 -0.93448 -1.71948 0
M  V30 5703 C 530.289 -3.52367 0.597675 0
M  V30 5704 C 529.955 -4.03826 2.00587 0
M  V30 5705 C 528.617 -4.1759 2.39106 0
M  V30 5706 C 530.969 -4.31333 2.92576 0
M  V30 5707 C 528.297 -4.56195 3.68921 0
M  V30 5708 C 530.649 -4.7139 4.2187 0
M  V30 5709 C 529.313 -4.8336 4.60347 0
M  V30 5710 H 528.583 -0.723937 0.158104 0
M  V30 5711 H 531.23 -1.5923 1.06387 0
M  V30 5712 H 529.535 -3.91624 -0.117452 0
M  V30 5713 H 531.232 -4.00126 0.26454 0
M  V30 5714 H 527.822 -3.93586 1.69671 0
M  V30 5715 H 532.006 -4.20224 2.64056 0
M  V30 5716 H 527.262 -4.63655 3.9854 0
M  V30 5717 H 531.436 -4.91631 4.93226 0
M  V30 5718 H 529.063 -5.1303 5.60985 0
M  V30 5719 N 530.638 -0.59345 -1.46 0
M  V30 5720 C 531.885 -0.0831523 -2.02329 0
M  V30 5721 C 532.213 1.28093 -1.46364 0
M  V30 5722 O 531.468 1.85526 -0.622793 0
M  V30 5723 C 531.767 0.021178 -3.57394 0
M  V30 5724 C 531.433 -1.27671 -4.32448 0
M  V30 5725 C 530.095 -1.63227 -4.5267 0
M  V30 5726 C 532.447 -2.13511 -4.7546 0
M  V30 5727 C 529.775 -2.84401 -5.1316 0
M  V30 5728 C 532.127 -3.33922 -5.37289 0
M  V30 5729 C 530.791 -3.69747 -5.55737 0
M  V30 5730 H 530.061 -0.0304276 -0.740375 0
M  V30 5731 H 532.708 -0.772239 -1.75239 0
M  V30 5732 H 531.013 0.793454 -3.83682 0
M  V30 5733 H 532.71 0.431942 -3.98667 0
M  V30 5734 H 529.3 -0.989937 -4.17011 0
M  V30 5735 H 533.484 -1.87344 -4.59582 0
M  V30 5736 H 528.74 -3.12282 -5.25633 0
M  V30 5737 H 532.914 -4.00698 -5.69574 0
M  V30 5738 H 530.541 -4.6373 -6.02377 0
M  V30 5739 N 532.116 1.54067 -0.331816 0
M  V30 5740 C 533.341 2.05599 0.272705 0
M  V30 5741 C 533.766 1.2059 1.44359 0
M  V30 5742 O 533.124 0.216907 1.79998 0
M  V30 5743 C 533.172 3.54188 0.677021 0
M  V30 5744 O 532.276 3.72082 1.77844 0
M  V30 5745 H 531.617 0.662286 0.0476801 0
M  V30 5746 H 534.147 1.98826 -0.482624 0
M  V30 5747 H 534.157 3.96608 0.957415 0
M  V30 5748 H 532.832 4.15513 -0.179325 0
M  V30 5749 H 531.409 3.41566 1.49622 0
M  V30 5750 N 533.594 0.0601682 1.57485 0
M  V30 5751 C 534.541 -0.91112 2.12055 0
M  V30 5752 C 535.511 -1.30298 1.03013 0
M  V30 5753 O 536.696 -1.39087 1.30612 0
M  V30 5754 C 533.836 -2.1775 2.67729 0
M  V30 5755 C 532.949 -1.83933 3.90887 0
M  V30 5756 C 532.084 -3.05096 4.34845 0
M  V30 5757 C 531.123 -2.67241 5.5068 0
M  V30 5758 N 530.26 -3.81127 5.8965 0
M  V30 5759 H 535.1 -0.43888 2.9475 0
M  V30 5760 H 532.637 -0.204995 1.45665 0
M  V30 5761 H 534.595 -2.91866 2.98111 0
M  V30 5762 H 533.225 -2.62535 1.87816 0
M  V30 5763 H 532.277 -0.999287 3.6704 0
M  V30 5764 H 533.589 -1.52074 4.75052 0
M  V30 5765 H 532.743 -3.87502 4.66827 0
M  V30 5766 H 531.482 -3.40139 3.49509 0
M  V30 5767 H 530.487 -1.83254 5.18361 0
M  V30 5768 H 531.712 -2.3338 6.37738 0
M  V30 5769 H 529.658 -4.15954 5.07266 0
M  V30 5770 H 529.575 -3.52997 6.68528 0
M  V30 5771 H 530.843 -4.64145 6.2625 0
M  V30 5772 N 535.072 -1.5615 -0.213296 0
M  V30 5773 C 536.321 -1.78743 -0.93455 0
M  V30 5774 C 536.634 -0.630199 -1.8517 0
M  V30 5775 O 537.84 -0.739966 -2.61222 0
M  V30 5776 C 536.296 -3.16571 -1.71203 0
M  V30 5777 C 535.904 -4.40043 -0.840617 0
M  V30 5778 C 537.648 -3.48485 -2.42401 0
M  V30 5779 C 535.555 -5.68895 -1.61592 0
M  V30 5780 H 534.485 -0.666426 -0.352692 0
M  V30 5781 H 537.136 -1.82532 -0.188227 0
M  V30 5782 H 535.518 -3.06981 -2.50157 0
M  V30 5783 H 536.692 -4.6071 -0.0910326 0
M  V30 5784 H 535.007 -4.15706 -0.240365 0
M  V30 5785 H 537.604 -4.41983 -3.00924 0
M  V30 5786 H 537.947 -2.71371 -3.15695 0
M  V30 5787 H 538.48 -3.59442 -1.7043 0
M  V30 5788 H 535.219 -6.48925 -0.926106 0
M  V30 5789 H 534.739 -5.52275 -2.33991 0
M  V30 5790 H 536.418 -6.09365 -2.17447 0
M  V30 5791 N 536.55 0.480323 -1.50102 0
M  V30 5792 C 537.827 1.24159 -1.51142 0
M  V30 5793 C 538.207 2.09605 -0.250818 0
M  V30 5794 O 537.555 2.15274 0.766118 0
M  V30 5795 C 537.765 2.08057 -2.80202 0
M  V30 5796 C 539.113 2.66556 -3.30504 0
M  V30 5797 O 540.137 2.18308 -2.81461 0
M  V30 5798 O 538.996 3.54442 -4.15973 0
M  V30 5799 H 536.09 0.562928 -0.605839 0
M  V30 5800 H 538.636 0.492899 -1.62384 0
M  V30 5801 H 537.408 1.45032 -3.6343 0
M  V30 5802 H 537.031 2.90079 -2.71919 0
M  V30 5803 N 538.028 1.39524 0.732853 0
M  V30 5804 C 539.274 1.38072 1.49358 0
M  V30 5805 C 539.629 -0.0227943 1.92386 0
M  V30 5806 O 538.922 -0.98976 1.64056 0
M  V30 5807 C 539.116 2.28916 2.74468 0
M  V30 5808 C 538.945 3.7796 2.43673 0
M  V30 5809 C 537.715 4.46874 2.35863 0
M  V30 5810 C 539.913 4.69886 2.09074 0
M  V30 5811 N 537.895 5.81242 1.97561 0
M  V30 5812 C 539.266 5.9292 1.81234 0
M  V30 5813 C 541.321 4.57887 1.95561 0
M  V30 5814 C 540.024 7.05297 1.41242 0
M  V30 5815 C 542.05 5.70187 1.56972 0
M  V30 5816 C 541.412 6.92297 1.30018 0
M  V30 5817 H 537.511 0.56051 0.5453 0
M  V30 5818 H 540.095 1.75093 0.85151 0
M  V30 5819 H 538.266 1.9405 3.36451 0
M  V30 5820 H 539.998 2.18441 3.40684 0
M  V30 5821 H 536.753 4.00341 2.5303 0
M  V30 5822 H 537.177 6.52356 1.80997 0
M  V30 5823 H 541.819 3.64014 2.15067 0
M  V30 5824 H 539.537 7.99069 1.20476 0
M  V30 5825 H 543.123 5.62892 1.47119 0
M  V30 5826 H 542.003 7.7772 1.00605 0
M  V30 5827 N 539.506 -0.963266 1.24736 0
M  V30 5828 C 540.454 -2.07985 1.04139 0
M  V30 5829 C 541.448 -1.69381 -0.0250556 0
M  V30 5830 O 542.654 -1.79531 0.129863 0
M  V30 5831 H 539.029 -0.680627 0.319768 0
M  V30 5832 H 541 -2.22517 1.98818 0
M  V30 5833 C 539.749 -3.4123 0.667615 0
M  V30 5834 H 539.072 -3.71397 1.48 0
M  V30 5835 H 540.512 -4.20244 0.563136 0
M  V30 5836 C 538.971 -3.3104 -0.625647 0
M  V30 5837 O 539.501 -3.65334 -1.67016 0
M  V30 5838 N 537.707 -2.84168 -0.608033 0
M  V30 5839 H 537.254 -2.56458 0.242323 0
M  V30 5840 H 537.212 -2.77732 -1.47352 0
M  V30 5841 N 540.985 -1.06182 -1.16461 0
M  V30 5842 C 541.933 -0.665716 -2.2287 0
M  V30 5843 C 542.927 0.317822 -1.66392 0
M  V30 5844 O 544.133 0.182807 -1.79069 0
M  V30 5845 H 540.508 -0.197148 -0.725697 0
M  V30 5846 H 542.479 -1.57307 -2.53569 0
M  V30 5847 C 541.228 -0.0669803 -3.47635 0
M  V30 5848 H 540.551 -0.814899 -3.91407 0
M  V30 5849 H 541.991 0.172669 -4.23648 0
M  V30 5850 C 540.45 1.18913 -3.15216 0
M  V30 5851 O 540.98 2.27723 -3.30916 0
M  V30 5852 N 539.186 1.09066 -2.69357 0
M  V30 5853 H 538.733 0.20518 -2.56782 0
M  V30 5854 H 538.691 1.93195 -2.48039 0
M  V30 5855 N 542.463 1.3308 -0.844243 0
M  V30 5856 C 543.712 1.96868 -0.438833 0
M  V30 5857 C 544.025 1.67599 1.00846 0
M  V30 5858 O 545.231 2.25043 1.51881 0
M  V30 5859 C 543.687 3.5234 -0.73377 0
M  V30 5860 C 543.295 3.90481 -2.1961 0
M  V30 5861 C 545.039 4.22653 -0.395574 0
M  V30 5862 C 542.946 5.38954 -2.43481 0
M  V30 5863 H 541.876 0.736749 -0.160364 0
M  V30 5864 H 544.527 1.51623 -1.03358 0
M  V30 5865 H 542.909 3.95941 -0.068589 0
M  V30 5866 H 544.083 3.57922 -2.90221 0
M  V30 5867 H 542.398 3.33165 -2.4978 0
M  V30 5868 H 544.995 5.31848 -0.551477 0
M  V30 5869 H 545.338 4.11004 0.661921 0
M  V30 5870 H 545.871 3.84601 -1.01621 0
M  V30 5871 H 542.61 5.55612 -3.47816 0
M  V30 5872 H 542.13 5.72954 -1.77437 0
M  V30 5873 H 543.809 6.05907 -2.26905 0
M  V30 5874 N 543.941 0.601185 1.45683 0
M  V30 5875 C 545.357 0.264315 1.57396 0
M  V30 5876 C 545.557 -1.23324 1.59353 0
M  V30 5877 O 544.613 -2.01594 1.52039 0
M  V30 5878 C 545.926 0.929839 2.85962 0
M  V30 5879 C 547.474 0.905156 2.99626 0
M  V30 5880 C 547.949 1.55057 4.30954 0
M  V30 5881 N 549.44 1.51576 4.37697 0
M  V30 5882 C 550.175 1.98436 5.37969 0
M  V30 5883 N 549.671 2.53352 6.44813 0
M  V30 5884 N 551.464 1.89242 5.29286 0
M  V30 5885 H 543.615 1.57363 1.42656 0
M  V30 5886 H 545.878 0.658831 0.681649 0
M  V30 5887 H 545.584 1.98404 2.90394 0
M  V30 5888 H 545.458 0.449224 3.74515 0
M  V30 5889 H 547.845 -0.14048 2.94765 0
M  V30 5890 H 547.926 1.42397 2.12501 0
M  V30 5891 H 547.57 2.5955 4.36573 0
M  V30 5892 H 547.5 1.00682 5.16886 0
M  V30 5893 H 549.991 1.11452 3.61091 0
M  V30 5894 H 550.304 2.86918 7.17564 0
M  V30 5895 H 548.649 2.57388 6.45582 0
M  V30 5896 H 551.84 1.46083 4.44722 0
M  V30 5897 H 552.013 2.26075 6.07284 0
M  V30 5898 N 545.419 -1.53889 0.339982 0
M  V30 5899 C 546.367 -2.26391 -0.533822 0
M  V30 5900 C 547.361 -1.28404 -1.10493 0
M  V30 5901 O 548.567 -1.46124 -1.05108 0
M  V30 5902 H 544.942 -0.727385 -0.190828 0
M  V30 5903 H 546.913 -2.98233 0.0997484 0
M  V30 5904 C 545.662 -3.04707 -1.67479 0
M  V30 5905 H 544.985 -3.79934 -1.2446 0
M  V30 5906 H 546.425 -3.58657 -2.26144 0
M  V30 5907 C 544.884 -2.13989 -2.60212 0
M  V30 5908 O 545.414 -1.73361 -3.62366 0
M  V30 5909 N 543.62 -1.79141 -2.28816 0
M  V30 5910 H 543.167 -2.12378 -1.45785 0
M  V30 5911 H 543.125 -1.18725 -2.91121 0
M  V30 5912 N 546.897 -0.0685191 -1.57451 0
M  V30 5913 C 548.122 0.613919 -1.98106 0
M  V30 5914 C 548.547 1.62551 -0.946501 0
M  V30 5915 O 547.905 1.81085 0.0882824 0
M  V30 5916 C 547.953 1.26189 -3.378 0
M  V30 5917 O 547.057 2.37773 -3.36954 0
M  V30 5918 H 546.398 0.158163 -0.644888 0
M  V30 5919 H 548.928 -0.142063 -2.04106 0
M  V30 5920 H 548.938 1.60951 -3.74912 0
M  V30 5921 H 547.613 0.520625 -4.12629 0
M  V30 5922 H 546.19 2.04829 -3.11608 0
M  V30 5923 N 548.375 1.56261 0.205012 0
M  V30 5924 C 549.786 1.70056 0.770574 0
M  V30 5925 C 550.137 0.673398 1.84282 0
M  V30 5926 O 549.262 -0.172196 2.15714 0
M  V30 5927 C 549.857 3.08316 1.40451 0
M  V30 5928 C 548.416 3.2391 1.91727 0
M  V30 5929 C 547.563 2.66001 0.783516 0
M  V30 5930 H 550.514 1.58688 -0.019911 0
M  V30 5931 H 550.535 3.05094 2.27371 0
M  V30 5932 H 550.047 3.83053 0.623882 0
M  V30 5933 H 548.148 2.54072 2.7254 0
M  V30 5934 H 548.261 4.3131 2.08588 0
M  V30 5935 H 546.625 2.24915 1.19521 0
M  V30 5936 H 547.408 3.43297 0.0152883 0
M  V30 5937 N 549.853 -0.472356 1.50355 0
M  V30 5938 C 551.264 -1.05326 1.54154 0
M  V30 5939 C 551.615 -1.93155 0.344303 0
M  V30 5940 O 550.74 -2.09479 -0.542928 0
M  V30 5941 C 551.335 -1.91691 2.79356 0
M  V30 5942 C 549.894 -2.44892 2.8584 0
M  V30 5943 C 549.041 -1.23205 2.48426 0
M  V30 5944 H 551.992 -0.255027 1.56637 0
M  V30 5945 H 552.013 -2.76742 2.6114 0
M  V30 5946 H 551.525 -1.27741 3.66475 0
M  V30 5947 H 549.626 -3.12399 2.0307 0
M  V30 5948 H 549.739 -2.80086 3.88701 0
M  V30 5949 H 548.103 -1.56643 2.00836 0
M  V30 5950 H 548.886 -0.609194 3.37852 0
M  V30 5951 N 551.331 -1.39911 -0.725443 0
M  V30 5952 C 552.742 -1.33599 -1.30415 0
M  V30 5953 C 553.093 -0.00481792 -1.96199 0
M  V30 5954 O 552.218 0.897275 -1.96921 0
M  V30 5955 C 552.813 -2.41965 -2.37146 0
M  V30 5956 C 551.372 -2.39144 -2.90667 0
M  V30 5957 C 550.519 -2.23355 -1.64341 0
M  V30 5958 H 553.47 -1.4986 -0.522267 0
M  V30 5959 H 553.491 -2.09304 -3.17761 0
M  V30 5960 H 553.003 -3.38837 -1.89238 0
M  V30 5961 H 551.104 -1.4594 -3.4283 0
M  V30 5962 H 551.217 -3.34362 -3.43131 0
M  V30 5963 H 549.581 -1.70696 -1.89037 0
M  V30 5964 H 550.364 -3.2221 -1.18471 0
M  V30 5965 N 552.809 0.956637 -1.25245 0
M  V30 5966 C 554.056 1.701 -1.09874 0
M  V30 5967 C 554.384 1.91128 0.36062 0
M  V30 5968 O 553.639 1.47837 1.28229 0
M  V30 5969 C 553.938 3.08996 -1.79601 0
M  V30 5970 C 553.604 3.07774 -3.29523 0
M  V30 5971 C 552.266 3.07149 -3.70423 0
M  V30 5972 C 554.618 3.01257 -4.25316 0
M  V30 5973 C 551.946 2.97752 -5.0553 0
M  V30 5974 C 554.298 2.93403 -5.60444 0
M  V30 5975 C 552.962 2.91111 -6.00675 0
M  V30 5976 H 552.232 0.62244 -0.402056 0
M  V30 5977 H 554.879 1.1178 -1.55491 0
M  V30 5978 H 553.184 3.70848 -1.26408 0
M  V30 5979 H 554.881 3.65407 -1.65162 0
M  V30 5980 H 551.471 3.09032 -2.9698 0
M  V30 5981 H 555.655 3.00861 -3.9471 0
M  V30 5982 H 550.911 2.94346 -5.35883 0
M  V30 5983 H 555.085 2.87321 -6.34366 0
M  V30 5984 H 552.712 2.83586 -7.05325 0
M  V30 5985 N 554.287 1.06798 1.15896 0
M  V30 5986 C 555.533 0.788934 1.86825 0
M  V30 5987 C 555.866 -0.683084 1.8179 0
M  V30 5988 O 555.141 -1.50086 1.23711 0
M  V30 5989 C 555.424 1.29065 3.36176 0
M  V30 5990 C 555.277 2.8268 3.49874 0
M  V30 5991 C 556.596 0.902655 4.30744 0
M  V30 5992 H 553.715 0.288066 0.678371 0
M  V30 5993 H 556.357 1.32479 1.36195 0
M  V30 5994 H 554.507 0.834806 3.79425 0
M  V30 5995 H 556.179 3.36511 3.15528 0
M  V30 5996 H 554.422 3.21157 2.91617 0
M  V30 5997 H 555.093 3.12852 4.54783 0
M  V30 5998 H 557.569 1.29535 3.95424 0
M  V30 5999 H 556.445 1.28111 5.3374 0
M  V30 6000 H 556.706 -0.191951 4.41683 0
M  V30 6001 N 555.766 -1.3263 0.851289 0
M  V30 6002 C 557.177 -1.79653 0.5081 0
M  V30 6003 C 557.528 -1.70327 -0.973815 0
M  V30 6004 O 556.653 -1.25986 -1.75944 0
M  V30 6005 C 557.248 -3.26196 0.915515 0
M  V30 6006 C 555.807 -3.71187 0.624277 0
M  V30 6007 C 554.954 -2.53804 1.11709 0
M  V30 6008 H 557.905 -1.19976 1.03882 0
M  V30 6009 H 557.926 -3.79801 0.230535 0
M  V30 6010 H 557.438 -3.32952 1.99411 0
M  V30 6011 H 555.539 -3.69948 -0.443737 0
M  V30 6012 H 555.652 -4.64132 1.18821 0
M  V30 6013 H 554.016 -2.48964 0.537484 0
M  V30 6014 H 554.799 -2.63315 2.20272 0
M  V30 6015 N 557.244 -0.608902 -1.45362 0
M  V30 6016 C 558.472 -0.111013 -2.06602 0
M  V30 6017 C 558.887 1.20516 -1.45332 0
M  V30 6018 O 558.244 1.73437 -0.567978 0
M  V30 6019 C 558.295 0.033688 -3.61484 0
M  V30 6020 O 558.016 -1.23041 -4.20467 0
M  V30 6021 C 559.517 0.562882 -4.39712 0
M  V30 6022 H 556.737 -0.0694453 -0.667397 0
M  V30 6023 H 559.281 -0.837008 -1.86586 0
M  V30 6024 H 557.436 0.710016 -3.80838 0
M  V30 6025 H 557.85 -1.06094 -5.13658 0
M  V30 6026 H 559.324 0.613213 -5.48583 0
M  V30 6027 H 559.801 1.58543 -4.09586 0
M  V30 6028 H 560.407 -0.0794454 -4.25226 0
M  V30 6029 N 558.722 1.53707 -0.348139 0
M  V30 6030 C 559.652 2.28111 0.498766 0
M  V30 6031 C 560.633 1.29851 1.09876 0
M  V30 6032 O 561.818 1.587 1.11928 0
M  V30 6033 C 558.948 3.05735 1.64753 0
M  V30 6034 C 557.902 4.11537 1.17565 0
M  V30 6035 C 557.228 4.77142 2.4133 0
M  V30 6036 C 558.528 5.21587 0.272844 0
M  V30 6037 H 560.222 2.99152 -0.121934 0
M  V30 6038 H 557.768 1.43875 -0.0600842 0
M  V30 6039 H 559.721 3.56526 2.24649 0
M  V30 6040 H 558.445 2.32354 2.2952 0
M  V30 6041 H 557.104 3.61665 0.599483 0
M  V30 6042 H 556.752 4.0035 3.04514 0
M  V30 6043 H 556.452 5.48626 2.10436 0
M  V30 6044 H 557.976 5.30719 3.01943 0
M  V30 6045 H 559.39 5.67986 0.778779 0
M  V30 6046 H 557.787 6.00074 0.0555849 0
M  V30 6047 H 558.857 4.79969 -0.689785 0
M  V30 6048 N 560.2 0.0768682 1.57412 0
M  V30 6049 C 561.147 -0.888577 2.13009 0
M  V30 6050 C 562.117 -1.29198 1.0439 0
M  V30 6051 O 563.302 -1.37694 1.3208 0
M  V30 6052 C 560.442 -2.14899 2.70023 0
M  V30 6053 C 559.555 -1.79777 3.92816 0
M  V30 6054 C 558.69 -3.00467 4.38056 0
M  V30 6055 C 557.729 -2.61385 5.53484 0
M  V30 6056 N 556.866 -3.74851 5.93659 0
M  V30 6057 H 561.706 -0.407593 2.95199 0
M  V30 6058 H 559.243 -0.189534 1.45874 0
M  V30 6059 H 561.201 -2.88688 3.0119 0
M  V30 6060 H 559.831 -2.60529 1.9059 0
M  V30 6061 H 558.883 -0.960301 3.68079 0
M  V30 6062 H 560.195 -1.47027 4.76639 0
M  V30 6063 H 559.349 -3.82529 4.7091 0
M  V30 6064 H 558.088 -3.36413 3.53097 0
M  V30 6065 H 557.093 -1.77746 5.20275 0
M  V30 6066 H 558.318 -2.26603 6.40178 0
M  V30 6067 H 556.264 -4.1055 5.11649 0
M  V30 6068 H 556.181 -3.45887 6.72234 0
M  V30 6069 H 557.449 -4.57477 6.31138 0
M  V30 6070 N 561.678 -1.56367 -0.196722 0
M  V30 6071 C 562.903 -1.84991 -0.937714 0
M  V30 6072 C 563.328 -0.660244 -1.76132 0
M  V30 6073 O 562.686 0.390967 -1.77034 0
M  V30 6074 C 562.734 -3.11828 -1.81096 0
M  V30 6075 O 561.838 -2.92266 -2.90955 0
M  V30 6076 H 561.179 -0.609193 -0.264159 0
M  V30 6077 H 563.709 -2.03595 -0.202529 0
M  V30 6078 H 563.719 -3.42579 -2.21594 0
M  V30 6079 H 562.394 -3.98037 -1.2058 0
M  V30 6080 H 560.971 -2.72809 -2.54224 0
M  V30 6081 N 563.156 0.464375 -1.50603 0
M  V30 6082 C 564.433 1.22549 -1.5245 0
M  V30 6083 C 564.813 2.09327 -0.273035 0
M  V30 6084 O 564.161 2.16074 0.743242 0
M  V30 6085 C 564.371 2.05074 -2.82393 0
M  V30 6086 C 565.719 2.63036 -3.33313 0
M  V30 6087 O 566.743 2.1531 -2.8376 0
M  V30 6088 O 565.602 3.5001 -4.19709 0
M  V30 6089 H 562.696 0.556471 -0.611775 0
M  V30 6090 H 565.242 0.475648 -1.62898 0
M  V30 6091 H 564.014 1.41169 -3.64948 0
M  V30 6092 H 563.637 2.87179 -2.7498 0
M  V30 6093 N 564.634 1.40294 0.718013 0
M  V30 6094 C 565.911 1.2894 1.47084 0
M  V30 6095 C 566.291 -0.0933625 2.10893 0
M  V30 6096 O 565.639 -1.10598 1.99951 0
M  V30 6097 C 565.849 2.4264 2.50852 0
M  V30 6098 C 567.197 2.8276 3.16752 0
M  V30 6099 O 568.221 2.42215 2.61171 0
M  V30 6100 O 567.08 3.528 4.17366 0
M  V30 6101 H 564.174 0.506236 0.653952 0
M  V30 6102 H 566.72 1.52208 0.750394 0
M  V30 6103 H 565.492 3.35009 2.022 0
M  V30 6104 H 565.115 2.21129 3.30435 0
M  V30 6105 N 566.112 -0.949982 1.2575 0
M  V30 6106 C 567.389 -1.6718 1.01539 0
M  V30 6107 C 567.769 -2.06095 -0.456942 0
M  V30 6108 O 567.117 -1.77792 -1.43534 0
M  V30 6109 C 567.327 -2.8906 1.95564 0
M  V30 6110 C 568.675 -3.60909 2.23673 0
M  V30 6111 O 569.699 -2.9915 1.9336 0
M  V30 6112 O 568.558 -4.72127 2.75243 0
M  V30 6113 H 565.652 -0.731697 0.385419 0
M  V30 6114 H 568.198 -1.00249 1.36924 0
M  V30 6115 H 566.97 -2.57128 2.94959 0
M  V30 6116 H 566.593 -3.63719 1.60605 0
M  V30 6117 N 567.59 -1.07411 -1.15328 0
M  V30 6118 C 568.818 -0.818782 -1.90009 0
M  V30 6119 C 569.233 0.628072 -1.78047 0
M  V30 6120 O 568.59 1.43085 -1.13282 0
M  V30 6121 C 568.641 -1.21874 -3.40337 0
M  V30 6122 O 568.362 -2.60883 -3.51954 0
M  V30 6123 C 569.863 -0.992796 -4.3204 0
M  V30 6124 H 567.083 -0.296007 -0.60218 0
M  V30 6125 H 569.627 -1.43073 -1.46117 0
M  V30 6126 H 567.782 -0.651103 -3.81889 0
M  V30 6127 H 568.196 -2.77216 -4.45255 0
M  V30 6128 H 569.67 -1.32215 -5.35932 0
M  V30 6129 H 570.147 0.0708331 -4.39143 0
M  V30 6130 H 570.753 -1.54537 -3.9623 0
M  V30 6131 N 569.068 1.32177 -0.85831 0
M  V30 6132 C 570.293 2.01847 -0.476718 0
M  V30 6133 C 570.718 1.64065 0.920021 0
M  V30 6134 O 570.076 0.843189 1.60499 0
M  V30 6135 C 570.124 3.55097 -0.627578 0
M  V30 6136 O 569.228 4.11012 0.338086 0
M  V30 6137 H 568.569 0.635907 -0.191099 0
M  V30 6138 H 571.099 1.68641 -1.15851 0
M  V30 6139 H 571.109 4.04718 -0.516476 0
M  V30 6140 H 569.784 3.81938 -1.64609 0
M  V30 6141 H 568.361 3.72451 0.182917 0
M  V30 6142 N 570.547 0.616602 1.45037 0
M  V30 6143 C 571.495 -0.109318 2.32343 0
M  V30 6144 C 572.489 -0.850543 1.465 0
M  V30 6145 O 573.695 -0.765088 1.62931 0
M  V30 6146 H 570.07 -0.0541091 0.750051 0
M  V30 6147 H 572.041 0.645326 2.91338 0
M  V30 6148 C 570.79 -1.0872 3.30266 0
M  V30 6149 H 570.113 -0.526267 3.96321 0
M  V30 6150 H 571.553 -1.56489 3.94065 0
M  V30 6151 C 570.012 -2.16525 2.58105 0
M  V30 6152 O 570.542 -3.244 2.36913 0
M  V30 6153 N 568.748 -1.92057 2.18088 0
M  V30 6154 H 568.295 -1.04337 2.35524 0
M  V30 6155 H 568.253 -2.64391 1.70131 0
M  V30 6156 N 572.025 -1.5352 0.356285 0
M  V30 6157 C 573.272 -2.01117 -0.236303 0
M  V30 6158 C 573.6 -1.24381 -1.49531 0
M  V30 6159 O 572.855 -0.323057 -1.93015 0
M  V30 6160 C 573.154 -3.52607 -0.583369 0
M  V30 6161 C 572.82 -4.47151 0.58023 0
M  V30 6162 C 571.482 -4.72718 0.899528 0
M  V30 6163 C 573.834 -5.03137 1.36024 0
M  V30 6164 C 571.162 -5.51523 2.00098 0
M  V30 6165 C 573.514 -5.83145 2.45204 0
M  V30 6166 C 572.178 -6.07001 2.77679 0
M  V30 6167 H 571.448 -0.735938 -0.0864695 0
M  V30 6168 H 574.095 -1.85209 0.48683 0
M  V30 6169 H 572.4 -3.66413 -1.38739 0
M  V30 6170 H 574.097 -3.86901 -1.05397 0
M  V30 6171 H 570.687 -4.27394 0.321322 0
M  V30 6172 H 574.871 -4.83339 1.12682 0
M  V30 6173 H 570.127 -5.68229 2.25668 0
M  V30 6174 H 574.301 -6.25537 3.06067 0
M  V30 6175 H 571.928 -6.67851 3.63151 0
M  V30 6176 N 573.503 -0.0852151 -1.57369 0
M  V30 6177 C 574.78 0.622534 -1.85429 0
M  V30 6178 C 575.16 1.86962 -0.980229 0
M  V30 6179 O 574.508 2.28445 -0.0500219 0
M  V30 6180 C 574.718 0.947374 -3.35896 0
M  V30 6181 C 576.066 1.31509 -4.03721 0
M  V30 6182 O 577.09 1.03869 -3.40719 0
M  V30 6183 O 575.949 1.83231 -5.14868 0
M  V30 6184 H 573.043 0.310513 -0.766492 0
M  V30 6185 H 575.589 -0.117164 -1.69295 0
M  V30 6186 H 574.361 0.0622264 -3.91251 0
M  V30 6187 H 573.984 1.74338 -3.5734 0
M  V30 6188 N 574.981 1.5647 0.188427 0
M  V30 6189 C 575.891 1.98285 1.2538 0
M  V30 6190 C 576.907 0.891535 1.49424 0
M  V30 6191 O 578.083 1.19782 1.61908 0
M  V30 6192 C 575.148 2.31965 2.57669 0
M  V30 6193 C 574.209 3.54838 2.41638 0
M  V30 6194 C 573.442 3.86901 3.67618 0
M  V30 6195 O 573.665 3.20163 4.72072 0
M  V30 6196 O 572.599 4.80309 3.62749 0
M  V30 6197 H 576.425 2.89145 0.928912 0
M  V30 6198 H 574.01 1.44112 0.393955 0
M  V30 6199 H 575.892 2.54673 3.35737 0
M  V30 6200 H 574.567 1.44271 2.89771 0
M  V30 6201 H 573.474 3.37369 1.61658 0
M  V30 6202 H 574.807 4.43019 2.14465 0
M  V30 6203 N 576.459 -0.456382 1.50847 0
M  V30 6204 C 577.87 -1.03685 1.55262 0
M  V30 6205 C 578.221 -1.92779 0.364771 0
M  V30 6206 O 577.346 -2.10043 -0.52068 0
M  V30 6207 C 577.941 -1.88718 2.81374 0
M  V30 6208 C 576.5 -2.41847 2.88422 0
M  V30 6209 C 575.647 -1.20564 2.49719 0
M  V30 6210 H 578.598 -0.238399 1.56899 0
M  V30 6211 H 578.619 -2.73957 2.6406 0
M  V30 6212 H 578.131 -1.23847 3.67809 0
M  V30 6213 H 576.232 -3.10228 2.06372 0
M  V30 6214 H 576.345 -2.75947 3.9165 0
M  V30 6215 H 574.709 -1.54504 2.02486 0
M  V30 6216 H 575.492 -0.573326 3.38479 0
M  V30 6217 N 577.937 -1.40673 -0.710563 0
M  V30 6218 C 578.847 -1.43663 -1.85467 0
M  V30 6219 C 579.863 -0.328721 -1.70867 0
M  V30 6220 O 581.039 -0.574098 -1.93044 0
M  V30 6221 C 578.104 -1.30226 -3.21313 0
M  V30 6222 C 577.165 -2.51204 -3.48131 0
M  V30 6223 C 576.398 -2.38398 -4.77495 0
M  V30 6224 O 576.621 -1.40048 -5.5294 0
M  V30 6225 O 575.555 -3.2787 -5.04762 0
M  V30 6226 H 579.381 -2.40156 -1.859 0
M  V30 6227 H 576.966 -1.22049 -0.861652 0
M  V30 6228 H 578.848 -1.2496 -4.02446 0
M  V30 6229 H 577.523 -0.368419 -3.21597 0
M  V30 6230 H 576.43 -2.62048 -2.66987 0
M  V30 6231 H 577.763 -3.43366 -3.52648 0
M  V30 6232 N 579.415 0.9433 -1.26252 0
M  V30 6233 C 580.362 2.0417 -1.07625 0
M  V30 6234 C 581.332 1.6609 0.0180738 0
M  V30 6235 O 582.517 1.90276 -0.141289 0
M  V30 6236 C 579.657 3.37653 -0.713043 0
M  V30 6237 C 578.77 3.88783 -1.8834 0
M  V30 6238 C 577.905 5.10642 -1.4635 0
M  V30 6239 C 576.944 5.54028 -2.60229 0
M  V30 6240 N 576.081 6.67092 -2.18936 0
M  V30 6241 H 580.921 2.19436 -2.01623 0
M  V30 6242 H 578.458 1.07519 -1.00389 0
M  V30 6243 H 580.416 4.14391 -0.483358 0
M  V30 6244 H 579.046 3.22241 0.18996 0
M  V30 6245 H 578.098 3.08464 -2.22608 0
M  V30 6246 H 579.41 4.16922 -2.73821 0
M  V30 6247 H 578.564 5.94832 -1.19414 0
M  V30 6248 H 577.303 4.84244 -0.579568 0
M  V30 6249 H 576.308 4.68396 -2.87898 0
M  V30 6250 H 577.533 5.82429 -3.49219 0
M  V30 6251 H 575.479 6.42381 -1.32974 0
M  V30 6252 H 575.396 6.94806 -2.97961 0
M  V30 6253 H 576.664 7.54662 -1.95206 0
M  V30 6254 N 580.893 1.08022 1.14757 0
M  V30 6255 C 581.841 0.701088 2.21783 0
M  V30 6256 C 582.835 -0.291311 1.66876 0
M  V30 6257 O 584.041 -0.154296 1.79337 0
M  V30 6258 H 580.416 0.208668 0.722469 0
M  V30 6259 H 582.387 1.61321 2.51034 0
M  V30 6260 C 581.136 0.122278 3.47485 0
M  V30 6261 H 580.459 0.877065 3.90061 0
M  V30 6262 H 581.899 -0.105248 4.23869 0
M  V30 6263 C 580.358 -1.13883 3.17068 0
M  V30 6264 O 580.888 -2.22429 3.34497 0
M  V30 6265 N 579.094 -1.04767 2.71058 0
M  V30 6266 H 578.641 -0.164302 2.57075 0
M  V30 6267 H 578.599 -1.89224 2.51081 0
M  V30 6268 N 582.371 -1.3172 0.865308 0
M  V30 6269 C 583.596 -2.01591 0.487415 0
M  V30 6270 C 584.021 -1.6455 -0.911307 0
M  V30 6271 O 583.379 -0.851689 -1.6005 0
M  V30 6272 C 583.427 -3.54759 0.646401 0
M  V30 6273 O 582.531 -4.11185 -0.316284 0
M  V30 6274 H 581.872 -0.634884 0.194468 0
M  V30 6275 H 584.402 -1.68024 1.16744 0
M  V30 6276 H 584.412 -4.04438 0.537932 0
M  V30 6277 H 583.087 -3.8106 1.66632 0
M  V30 6278 H 581.664 -3.72543 -0.163162 0
M  V30 6279 N 583.85 -0.624285 -1.44708 0
M  V30 6280 C 585.096 -0.13473 -2.02953 0
M  V30 6281 C 585.451 1.22724 -1.48178 0
M  V30 6282 O 584.744 1.80109 -0.653542 0
M  V30 6283 C 584.938 -0.0546353 -3.57358 0
M  V30 6284 C 584.767 -1.40729 -4.27113 0
M  V30 6285 C 583.537 -1.99231 -4.64365 0
M  V30 6286 C 585.735 -2.33968 -4.58 0
M  V30 6287 N 583.716 -3.27803 -5.19055 0
M  V30 6288 C 585.088 -3.47149 -5.137 0
M  V30 6289 C 587.143 -2.33132 -4.39948 0
M  V30 6290 C 585.846 -4.59682 -5.53249 0
M  V30 6291 C 587.872 -3.44724 -4.8054 0
M  V30 6292 C 587.234 -4.56629 -5.36348 0
M  V30 6293 H 583.332 -0.0930617 -0.776443 0
M  V30 6294 H 585.917 -0.826286 -1.76297 0
M  V30 6295 H 584.088 0.606183 -3.8364 0
M  V30 6296 H 585.82 0.443116 -4.02267 0
M  V30 6297 H 582.575 -1.52251 -4.4846 0
M  V30 6298 H 582.999 -3.93519 -5.50883 0
M  V30 6299 H 587.641 -1.47868 -3.961 0
M  V30 6300 H 585.359 -5.4566 -5.96054 0
M  V30 6301 H 588.945 -3.45245 -4.68291 0
M  V30 6302 H 587.825 -5.41551 -5.67179 0
M  V30 6303 N 585.328 1.53329 -0.364422 0
M  V30 6304 C 586.574 2.01537 0.225969 0
M  V30 6305 C 586.907 1.25128 1.48515 0
M  V30 6306 O 586.182 0.344653 1.91422 0
M  V30 6307 C 586.465 3.56339 0.519092 0
M  V30 6308 C 586.318 4.43441 -0.753639 0
M  V30 6309 C 587.637 4.19833 1.32015 0
M  V30 6310 H 584.756 0.732573 0.0806548 0
M  V30 6311 H 587.398 1.83597 -0.489084 0
M  V30 6312 H 585.548 3.71756 1.12825 0
M  V30 6313 H 587.22 4.39823 -1.39116 0
M  V30 6314 H 585.463 4.11457 -1.37424 0
M  V30 6315 H 586.134 5.49699 -0.503517 0
M  V30 6316 H 588.61 4.08242 0.804859 0
M  V30 6317 H 587.486 5.28177 1.49399 0
M  V30 6318 H 587.747 3.75821 2.32832 0
M  V30 6319 N 586.806 0.0935595 1.57322 0
M  V30 6320 C 588.031 -0.582324 1.99057 0
M  V30 6321 C 588.456 -1.61025 0.972242 0
M  V30 6322 O 587.814 -1.81202 -0.0594622 0
M  V30 6323 C 587.862 -1.20799 3.39765 0
M  V30 6324 O 586.966 -2.32382 3.40694 0
M  V30 6325 H 586.307 -0.147884 0.647323 0
M  V30 6326 H 588.837 0.174516 2.03854 0
M  V30 6327 H 588.847 -1.54966 3.77425 0
M  V30 6328 H 587.522 -0.454914 4.13405 0
M  V30 6329 H 586.099 -1.99845 3.14827 0
M  V30 6330 N 588.284 -1.56567 -0.180126 0
M  V30 6331 C 589.509 -1.85975 -0.918041 0
M  V30 6332 C 589.934 -0.678888 -1.75422 0
M  V30 6333 O 589.292 0.372168 -1.77439 0
M  V30 6334 C 589.34 -3.13731 -1.77779 0
M  V30 6335 O 588.444 -2.95335 -2.87838 0
M  V30 6336 H 587.785 -0.61196 -0.257683 0
M  V30 6337 H 590.315 -2.03798 -0.180923 0
M  V30 6338 H 590.325 -3.4491 -2.17948 0
M  V30 6339 H 589 -3.99293 -1.16352 0
M  V30 6340 H 587.577 -2.7549 -2.51316 0
M  V30 6341 N 589.762 0.448376 -1.51087 0
M  V30 6342 C 590.987 1.22605 -1.6728 0
M  V30 6343 C 591.412 1.84524 -0.365045 0
M  V30 6344 O 590.77 1.6832 0.673642 0
M  V30 6345 C 590.818 2.29393 -2.78229 0
M  V30 6346 O 589.922 3.34608 -2.41063 0
M  V30 6347 H 589.263 0.359705 -0.558129 0
M  V30 6348 H 591.793 0.530903 -1.97592 0
M  V30 6349 H 591.803 2.74352 -3.01986 0
M  V30 6350 H 590.478 1.83701 -3.73131 0
M  V30 6351 H 589.055 2.95202 -2.27838 0
M  V30 6352 N 591.24 1.41047 0.703093 0
M  V30 6353 C 592.651 1.35657 1.28274 0
M  V30 6354 C 593.002 0.0360309 1.96167 0
M  V30 6355 O 592.127 -0.865833 1.98324 0
M  V30 6356 C 592.722 2.45707 2.33267 0
M  V30 6357 C 591.281 2.43738 2.86825 0
M  V30 6358 C 590.428 2.25941 1.60767 0
M  V30 6359 H 593.379 1.50672 0.49836 0
M  V30 6360 H 593.4 2.14333 3.14391 0
M  V30 6361 H 592.912 3.41805 1.83824 0
M  V30 6362 H 591.013 1.51375 3.40465 0
M  V30 6363 H 591.126 3.39779 3.37768 0
M  V30 6364 H 589.49 1.73681 1.86298 0
M  V30 6365 H 590.273 3.24054 1.1333 0
M  V30 6366 N 592.718 -0.936591 1.26751 0
M  V30 6367 C 593.958 -1.69796 1.13792 0
M  V30 6368 C 594.322 -1.89437 -0.312671 0
M  V30 6369 O 595.523 -2.62806 -0.564489 0
M  V30 6370 C 593.794 -3.03297 1.89065 0
M  V30 6371 S 595.353 -3.94461 1.92214 0
M  V30 6372 H 592.171 -0.583412 0.406389 0
M  V30 6373 H 594.773 -1.11575 1.60535 0
M  V30 6374 H 593.477 -2.86687 2.93665 0
M  V30 6375 H 593.008 -3.66575 1.42781 0
M  V30 6376 H 595.023 -4.85767 1.01215 0
M  V30 6377 N 594.196 -1.08629 -1.14182 0
M  V30 6378 C 595.128 -0.676189 -2.18998 0
M  V30 6379 C 596.141 0.277871 -1.60411 0
M  V30 6380 O 597.33 0.0651771 -1.78381 0
M  V30 6381 C 594.43 0.0254916 -3.3889 0
M  V30 6382 C 593.603 -0.948039 -4.27002 0
M  V30 6383 C 592.662 -0.281268 -5.25448 0
M  V30 6384 O 591.688 -0.926378 -5.61611 0
M  V30 6385 N 592.89 0.967923 -5.72374 0
M  V30 6386 H 595.655 -1.57792 -2.54798 0
M  V30 6387 H 593.216 -0.972665 -1.29425 0
M  V30 6388 H 595.208 0.482554 -4.01813 0
M  V30 6389 H 593.778 0.829348 -3.01398 0
M  V30 6390 H 592.998 -1.58388 -3.6098 0
M  V30 6391 H 594.286 -1.60765 -4.82734 0
M  V30 6392 H 593.684 1.51175 -5.45126 0
M  V30 6393 H 592.241 1.36844 -6.37273 0
M  V30 6394 N 595.674 1.31259 -0.872281 0
M  V30 6395 C 596.604 2.30929 -0.345554 0
M  V30 6396 C 597.585 1.60449 0.5648 0
M  V30 6397 O 598.77 1.8814 0.481335 0
M  V30 6398 C 595.9 3.44348 0.451823 0
M  V30 6399 C 594.854 4.26435 -0.365641 0
M  V30 6400 C 594.18 5.31785 0.557562 0
M  V30 6401 C 595.48 4.97159 -1.60095 0
M  V30 6402 H 597.174 2.75234 -1.17841 0
M  V30 6403 H 594.72 1.3232 -0.568094 0
M  V30 6404 H 596.673 4.13128 0.830854 0
M  V30 6405 H 595.397 2.98816 1.31821 0
M  V30 6406 H 594.056 3.59326 -0.726649 0
M  V30 6407 H 593.704 4.82502 1.4213 0
M  V30 6408 H 593.404 5.87598 0.0144878 0
M  V30 6409 H 594.928 6.03424 0.933387 0
M  V30 6410 H 596.342 5.58523 -1.29323 0
M  V30 6411 H 594.739 5.62779 -2.08327 0
M  V30 6412 H 595.809 4.24012 -2.35249 0
M  V30 6413 N 597.152 0.631951 1.44375 0
M  V30 6414 C 598.377 0.142146 2.06912 0
M  V30 6415 C 598.802 -1.17456 1.4692 0
M  V30 6416 O 598.16 -1.72074 0.570975 0
M  V30 6417 C 598.208 0.0417952 3.60576 0
M  V30 6418 O 597.312 -1.00194 4.00044 0
M  V30 6419 H 596.653 0.0851491 0.658518 0
M  V30 6420 H 599.183 0.868863 1.85235 0
M  V30 6421 H 599.193 -0.148517 4.0773 0
M  V30 6422 H 597.868 1.0031 4.03622 0
M  V30 6423 H 596.445 -0.786131 3.64519 0
M  V30 6424 N 598.631 -1.53133 0.372548 0
M  V30 6425 C 600.042 -1.86404 -0.105155 0
M  V30 6426 C 600.393 -1.29289 -1.47576 0
M  V30 6427 O 599.518 -0.617646 -2.07398 0
M  V30 6428 C 600.113 -3.38223 -0.197588 0
M  V30 6429 C 598.672 -3.71266 -0.619556 0
M  V30 6430 C 597.819 -2.76353 0.228919 0
M  V30 6431 H 600.77 -1.47282 0.591077 0
M  V30 6432 H 600.791 -3.66577 -1.01987 0
M  V30 6433 H 600.303 -3.79763 0.800099 0
M  V30 6434 H 598.404 -3.35287 -1.62522 0
M  V30 6435 H 598.517 -4.77515 -0.389332 0
M  V30 6436 H 596.881 -2.52888 -0.303271 0
M  V30 6437 H 597.664 -3.20728 1.22428 0
M  V30 6438 N 600.109 -0.101901 -1.5727 0
M  V30 6439 C 601.334 0.571759 -1.99363 0
M  V30 6440 C 601.759 1.60507 -0.980768 0
M  V30 6441 O 601.117 1.81231 0.0498517 0
M  V30 6442 C 601.165 1.18996 -3.404 0
M  V30 6443 O 600.269 2.30572 -3.41922 0
M  V30 6444 H 599.61 0.144449 -0.648098 0
M  V30 6445 H 602.14 -0.185325 -2.03759 0
M  V30 6446 H 602.15 1.52962 -3.78241 0
M  V30 6447 H 600.825 0.432984 -4.1364 0
M  V30 6448 H 599.402 1.98173 -3.15883 0
M  V30 6449 N 601.587 1.56661 0.17182 0
M  V30 6450 C 602.835 1.81606 0.886774 0
M  V30 6451 C 603.156 0.678818 1.82803 0
M  V30 6452 O 602.426 -0.301354 1.93568 0
M  V30 6453 H 601.006 0.669934 0.330451 0
M  V30 6454 H 603.668 1.94142 0.171757 0
M  V30 6455 H 602.764 2.75634 1.46398 0
M  V30 6456 N 603.065 -0.440357 1.51323 0
M  V30 6457 C 604.312 -1.19004 1.63842 0
M  V30 6458 C 604.64 -1.91266 0.35321 0
M  V30 6459 O 603.895 -1.84143 -0.662565 0
M  V30 6460 C 604.194 -2.2339 2.78984 0
M  V30 6461 C 603.86 -1.68162 4.18369 0
M  V30 6462 C 602.522 -1.52823 4.56288 0
M  V30 6463 C 604.874 -1.27524 5.05358 0
M  V30 6464 C 602.202 -0.953157 5.78906 0
M  V30 6465 C 604.554 -0.714474 6.28552 0
M  V30 6466 C 603.218 -0.547961 6.65247 0
M  V30 6467 H 602.488 -0.435468 0.59954 0
M  V30 6468 H 605.135 -0.481538 1.85347 0
M  V30 6469 H 603.44 -3.00267 2.51688 0
M  V30 6470 H 605.137 -2.81211 2.85869 0
M  V30 6471 H 601.727 -1.81077 3.8847 0
M  V30 6472 H 605.911 -1.38197 4.76671 0
M  V30 6473 H 601.167 -0.811882 6.05986 0
M  V30 6474 H 605.341 -0.391059 6.95301 0
M  V30 6475 H 602.968 -0.100222 7.60134 0
M  V30 6476 N 604.543 -1.41418 -0.695603 0
M  V30 6477 C 605.768 -1.44329 -1.48942 0
M  V30 6478 C 606.193 -0.0501579 -1.88033 0
M  V30 6479 O 605.551 0.946598 -1.54626 0
M  V30 6480 C 605.599 -2.3578 -2.72837 0
M  V30 6481 O 604.703 -1.81482 -3.70322 0
M  V30 6482 H 604.044 -0.489838 -0.44828 0
M  V30 6483 H 606.574 -1.85878 -0.855014 0
M  V30 6484 H 606.584 -2.51654 -3.21145 0
M  V30 6485 H 605.259 -3.37005 -2.43722 0
M  V30 6486 H 603.836 -1.75058 -3.29255 0
M  V30 6487 N 606.021 0.929856 -1.27246 0
M  V30 6488 C 607.269 1.674 -1.13233 0
M  V30 6489 C 607.59 1.92311 0.322744 0
M  V30 6490 O 606.86 1.52784 1.22612 0
M  V30 6491 H 605.44 0.620411 -0.416052 0
M  V30 6492 H 608.102 1.11663 -1.59741 0
M  V30 6493 H 607.198 2.64308 -1.65975 0
M  V30 6494 N 607.499 1.09233 1.13605 0
M  V30 6495 C 608.409 0.741939 2.22559 0
M  V30 6496 C 609.425 -0.255236 1.72118 0
M  V30 6497 O 610.601 -0.0970747 2.01166 0
M  V30 6498 C 607.666 0.165595 3.46304 0
M  V30 6499 C 606.727 1.21846 4.11645 0
M  V30 6500 C 605.96 0.669526 5.29484 0
M  V30 6501 O 606.183 -0.508228 5.68131 0
M  V30 6502 O 605.117 1.42361 5.84822 0
M  V30 6503 H 608.943 1.65107 2.54899 0
M  V30 6504 H 606.528 0.866584 1.21699 0
M  V30 6505 H 608.41 -0.152592 4.21124 0
M  V30 6506 H 607.085 -0.716573 3.15669 0
M  V30 6507 H 605.992 1.58931 3.38662 0
M  V30 6508 H 607.325 2.07321 4.46407 0
M  V30 6509 N 608.977 -1.30795 0.87923 0
M  V30 6510 C 609.887 -2.32041 0.345565 0
M  V30 6511 C 610.903 -1.65103 -0.549265 0
M  V30 6512 O 612.079 -1.9645 -0.443763 0
M  V30 6513 C 609.144 -3.43944 -0.436245 0
M  V30 6514 C 608.205 -4.26521 0.48765 0
M  V30 6515 C 607.438 -5.33081 -0.256943 0
M  V30 6516 O 607.661 -5.50762 -1.48381 0
M  V30 6517 O 606.595 -6.00635 0.389985 0
M  V30 6518 H 610.421 -2.79627 1.18501 0
M  V30 6519 H 608.006 -1.3486 0.642885 0
M  V30 6520 H 609.888 -4.12128 -0.879119 0
M  V30 6521 H 608.563 -2.98504 -1.25208 0
M  V30 6522 H 607.47 -3.61057 0.979216 0
M  V30 6523 H 608.803 -4.75551 1.26933 0
M  V30 6524 N 610.455 -0.639598 -1.44038 0
M  V30 6525 C 611.385 0.0469443 -2.33453 0
M  V30 6526 C 612.366 0.82609 -1.48694 0
M  V30 6527 O 613.551 0.790285 -1.77393 0
M  V30 6528 C 610.681 1.02338 -3.3188 0
M  V30 6529 C 609.635 0.355284 -4.26523 0
M  V30 6530 C 608.961 1.44221 -5.14883 0
M  V30 6531 C 610.261 -0.743798 -5.16977 0
M  V30 6532 H 611.955 -0.699735 -2.91108 0
M  V30 6533 H 609.501 -0.337946 -1.39978 0
M  V30 6534 H 611.454 1.51247 -3.93322 0
M  V30 6535 H 610.178 1.80105 -2.72451 0
M  V30 6536 H 608.837 -0.113239 -3.66425 0
M  V30 6537 H 608.485 2.21097 -4.51802 0
M  V30 6538 H 608.185 1.00052 -5.79019 0
M  V30 6539 H 609.709 1.93295 -5.79197 0
M  V30 6540 H 611.123 -0.337444 -5.72306 0
M  V30 6541 H 609.52 -1.10914 -5.89761 0
M  V30 6542 H 610.59 -1.60745 -4.57481 0
M  V30 6543 N 611.933 1.52934 -0.380664 0
M  V30 6544 C 613.344 1.86457 0.0952684 0
M  V30 6545 C 613.695 1.3007 1.46889 0
M  V30 6546 O 612.82 0.628636 2.07068 0
M  V30 6547 C 613.415 3.38323 0.179648 0
M  V30 6548 C 611.974 3.71589 0.599858 0
M  V30 6549 C 611.121 2.76228 -0.243572 0
M  V30 6550 H 614.072 1.46966 -0.59888 0
M  V30 6551 H 614.093 3.67113 1.00042 0
M  V30 6552 H 613.605 3.79333 -0.820228 0
M  V30 6553 H 611.706 3.36144 1.60742 0
M  V30 6554 H 611.819 4.77715 0.364003 0
M  V30 6555 H 610.183 2.53045 0.289855 0
M  V30 6556 H 610.966 3.20074 -1.24127 0
M  V30 6557 N 613.412 0.11024 1.57214 0
M  V30 6558 C 614.659 -0.54987 1.94891 0
M  V30 6559 C 614.987 -1.67243 0.992984 0
M  V30 6560 O 614.242 -1.95694 0.0152703 0
M  V30 6561 C 614.541 -1.13102 3.39032 0
M  V30 6562 C 614.207 -0.130713 4.5071 0
M  V30 6563 C 612.869 0.14437 4.80983 0
M  V30 6564 C 615.221 0.551472 5.18274 0
M  V30 6565 C 612.549 1.10807 5.76141 0
M  V30 6566 C 614.901 1.50375 6.14467 0
M  V30 6567 C 613.565 1.78691 6.43138 0
M  V30 6568 H 612.835 -0.201212 0.713158 0
M  V30 6569 H 615.482 0.189288 1.90562 0
M  V30 6570 H 613.787 -1.94675 3.40013 0
M  V30 6571 H 615.484 -1.64973 3.65493 0
M  V30 6572 H 612.074 -0.355301 4.27125 0
M  V30 6573 H 616.258 0.35211 4.95049 0
M  V30 6574 H 611.514 1.3343 5.96663 0
M  V30 6575 H 615.688 2.03808 6.65909 0
M  V30 6576 H 613.315 2.53522 7.1668 0
M  V30 6577 N 614.89 -1.56749 -0.16351 0
M  V30 6578 C 616.136 -1.82704 -0.880168 0
M  V30 6579 C 616.469 -0.689311 -1.81555 0
M  V30 6580 O 615.744 0.308224 -1.92042 0
M  V30 6581 C 616.027 -3.19084 -1.66905 0
M  V30 6582 C 615.88 -4.43397 -0.756269 0
M  V30 6583 C 617.199 -3.52493 -2.63509 0
M  V30 6584 H 614.318 -0.664608 -0.318535 0
M  V30 6585 H 616.96 -1.89438 -0.146036 0
M  V30 6586 H 615.11 -3.13475 -2.2949 0
M  V30 6587 H 616.782 -4.61079 -0.14269 0
M  V30 6588 H 615.025 -4.33752 -0.0647944 0
M  V30 6589 H 615.696 -5.3539 -1.34393 0
M  V30 6590 H 618.172 -3.58606 -2.11047 0
M  V30 6591 H 617.048 -4.48979 -3.15767 0
M  V30 6592 H 617.309 -2.77597 -3.44082 0
M  V30 6593 N 616.368 0.432326 -1.51554 0
M  V30 6594 C 617.616 1.17901 -1.64146 0
M  V30 6595 C 617.937 1.91604 -0.362367 0
M  V30 6596 O 617.207 1.85764 0.621968 0
M  V30 6597 H 615.787 0.438206 -0.604966 0
M  V30 6598 H 618.449 0.495172 -1.88505 0
M  V30 6599 H 617.545 1.90584 -2.47152 0
M  V30 6600 N 617.846 1.41785 0.688094 0
M  V30 6601 C 619.093 1.41544 1.44816 0
M  V30 6602 C 619.421 0.0271746 1.94481 0
M  V30 6603 O 618.676 -0.962235 1.7041 0
M  V30 6604 C 618.975 2.37532 2.67046 0
M  V30 6605 C 618.641 3.84209 2.35996 0
M  V30 6606 C 617.303 4.24165 2.27239 0
M  V30 6607 C 619.655 4.76785 2.10536 0
M  V30 6608 C 616.983 5.54695 1.91128 0
M  V30 6609 C 619.335 6.07644 1.75931 0
M  V30 6610 C 617.999 6.46613 1.65675 0
M  V30 6611 H 617.269 0.517945 0.529919 0
M  V30 6612 H 619.916 1.74635 0.785797 0
M  V30 6613 H 618.221 1.9772 3.38251 0
M  V30 6614 H 619.918 2.34615 3.25203 0
M  V30 6615 H 616.508 3.52567 2.4371 0
M  V30 6616 H 620.692 4.46714 2.16242 0
M  V30 6617 H 615.948 5.83762 1.81746 0
M  V30 6618 H 620.122 6.78874 1.55252 0
M  V30 6619 H 617.749 7.47668 1.37463 0
M  V30 6620 N 619.324 -0.923095 1.27737 0
M  V30 6621 C 620.549 -1.71054 1.17283 0
M  V30 6622 C 620.974 -1.86208 -0.266153 0
M  V30 6623 O 620.332 -1.36545 -1.1927 0
M  V30 6624 C 620.38 -3.0854 1.86642 0
M  V30 6625 O 619.484 -3.95528 1.16752 0
M  V30 6626 H 618.825 -0.524136 0.407649 0
M  V30 6627 H 621.355 -1.15487 1.6889 0
M  V30 6628 H 621.365 -3.58828 1.94182 0
M  V30 6629 H 620.04 -2.96828 2.91317 0
M  V30 6630 H 618.617 -3.53967 1.17312 0
M  V30 6631 N 620.802 -1.09834 -1.13024 0
M  V30 6632 C 622.032 -0.857657 -1.87957 0
M  V30 6633 C 622.44 0.595008 -1.796 0
M  V30 6634 O 621.783 1.42158 -1.16347 0
M  V30 6635 C 621.845 -1.21949 -3.38185 0
M  V30 6636 C 621.509 -2.67791 -3.7032 0
M  V30 6637 C 622.506 -3.66036 -3.69207 0
M  V30 6638 C 620.191 -3.04019 -3.99847 0
M  V30 6639 C 622.185 -4.98533 -3.9717 0
M  V30 6640 C 619.872 -4.36706 -4.27471 0
M  V30 6641 C 620.87 -5.33772 -4.26118 0
M  V30 6642 O 620.558 -6.64072 -4.53061 0
M  V30 6643 H 620.29 -0.308009 -0.601753 0
M  V30 6644 H 622.844 -1.46496 -1.43973 0
M  V30 6645 H 621.074 -0.555249 -3.82693 0
M  V30 6646 H 622.763 -0.957281 -3.9445 0
M  V30 6647 H 623.529 -3.39392 -3.46465 0
M  V30 6648 H 619.408 -2.29096 -4.00045 0
M  V30 6649 H 622.952 -5.74288 -3.96029 0
M  V30 6650 H 618.849 -4.63091 -4.49685 0
M  V30 6651 H 619.617 -6.69608 -4.7071 0
M  V30 6652 N 622.28 1.30327 -0.886154 0
M  V30 6653 C 623.505 2.0079 -0.519425 0
M  V30 6654 C 623.93 1.65979 0.885013 0
M  V30 6655 O 623.288 0.877043 1.58675 0
M  V30 6656 C 623.336 3.53686 -0.702758 0
M  V30 6657 O 622.44 4.11637 0.250828 0
M  V30 6658 H 621.781 0.63171 -0.204544 0
M  V30 6659 H 624.311 1.66145 -1.19402 0
M  V30 6660 H 624.321 4.03531 -0.602207 0
M  V30 6661 H 622.996 3.78361 -1.72673 0
M  V30 6662 H 621.573 3.72755 0.103873 0
M  V30 6663 N 623.758 0.647228 1.43697 0
M  V30 6664 C 624.705 -0.0480092 2.3075 0
M  V30 6665 C 625.675 -0.820705 1.44408 0
M  V30 6666 O 626.86 -0.798515 1.73287 0
M  V30 6667 C 624 -1.01259 3.2991 0
M  V30 6668 C 623.113 -0.236629 4.31351 0
M  V30 6669 C 622.248 -1.19447 5.17596 0
M  V30 6670 C 621.287 -0.408595 6.10735 0
M  V30 6671 N 620.424 -1.31772 6.89623 0
M  V30 6672 H 625.264 0.700238 2.89656 0
M  V30 6673 H 622.801 0.357082 1.427 0
M  V30 6674 H 624.759 -1.58538 3.85903 0
M  V30 6675 H 623.389 -1.72778 2.72667 0
M  V30 6676 H 622.441 0.452353 3.77701 0
M  V30 6677 H 623.753 0.374731 4.9739 0
M  V30 6678 H 622.907 -1.83809 5.78186 0
M  V30 6679 H 621.646 -1.83975 4.51669 0
M  V30 6680 H 620.651 0.24841 5.49239 0
M  V30 6681 H 621.876 0.232188 6.78703 0
M  V30 6682 H 619.822 -1.94991 6.2635 0
M  V30 6683 H 619.739 -0.760779 7.52162 0
M  V30 6684 H 621.007 -1.94967 7.54724 0
M  V30 6685 N 625.236 -1.5273 0.388769 0
M  V30 6686 C 626.199 -2.25043 -0.434544 0
M  V30 6687 C 627.199 -1.26661 -0.990644 0
M  V30 6688 O 628.389 -1.50762 -0.872731 0
M  V30 6689 C 625.521 -3.00507 -1.60961 0
M  V30 6690 H 626.714 -2.99242 0.198549 0
M  V30 6691 H 624.267 -1.55664 0.140875 0
M  V30 6692 H 625.002 -2.30607 -2.28015 0
M  V30 6693 H 624.787 -3.72716 -1.21757 0
M  V30 6694 H 626.277 -3.55413 -2.19251 0
M  V30 6695 N 626.714 -0.118576 -1.57153 0
M  V30 6696 C 627.644 0.828436 -2.1831 0
M  V30 6697 C 628.625 1.27758 -1.12303 0
M  V30 6698 O 629.81 1.34026 -1.40537 0
M  V30 6699 C 626.94 2.07876 -2.78217 0
M  V30 6700 C 625.894 1.76742 -3.89803 0
M  V30 6701 C 625.22 3.08801 -4.36516 0
M  V30 6702 C 626.52 1.03606 -5.11921 0
M  V30 6703 H 628.214 0.318824 -2.97698 0
M  V30 6704 H 625.76 0.151911 -1.43196 0
M  V30 6705 H 627.713 2.74584 -3.19659 0
M  V30 6706 H 626.437 2.61161 -1.96118 0
M  V30 6707 H 625.096 1.12424 -3.48936 0
M  V30 6708 H 624.744 3.6002 -3.51276 0
M  V30 6709 H 624.444 2.88743 -5.11763 0
M  V30 6710 H 625.968 3.76627 -4.80608 0
M  V30 6711 H 627.382 1.60467 -5.50385 0
M  V30 6712 H 625.779 0.936454 -5.92748 0
M  V30 6713 H 626.849 0.0227421 -4.84895 0
M  V30 6714 N 628.193 1.56834 0.155195 0
M  V30 6715 C 629.441 1.82536 0.867462 0
M  V30 6716 C 629.762 0.698168 1.82073 0
M  V30 6717 O 629.032 -0.280807 1.93877 0
M  V30 6718 H 627.612 0.673401 0.323327 0
M  V30 6719 H 630.274 1.94313 0.151156 0
M  V30 6720 H 629.37 2.77171 1.43466 0
M  V30 6721 N 629.671 -0.424282 1.51781 0
M  V30 6722 C 630.92 -1.16961 1.64326 0
M  V30 6723 C 631.233 -1.92035 0.371749 0
M  V30 6724 O 632.439 -2.68873 0.37676 0
M  V30 6725 C 630.895 -2.12782 2.90262 0
M  V30 6726 C 630.503 -1.43295 4.24465 0
M  V30 6727 C 632.247 -2.87667 3.12166 0
M  V30 6728 C 630.154 -2.37676 5.41538 0
M  V30 6729 H 629.084 -0.440293 0.612093 0
M  V30 6730 H 631.735 -0.435431 1.78259 0
M  V30 6731 H 630.117 -2.8969 2.69992 0
M  V30 6732 H 631.291 -0.718564 4.55163 0
M  V30 6733 H 629.606 -0.805118 4.08542 0
M  V30 6734 H 632.203 -3.58395 3.96808 0
M  V30 6735 H 632.546 -3.49758 2.25776 0
M  V30 6736 H 633.079 -2.17863 3.32837 0
M  V30 6737 H 629.818 -1.80255 6.30229 0
M  V30 6738 H 629.338 -3.07132 5.15199 0
M  V30 6739 H 631.017 -2.98529 5.74012 0
M  V30 6740 N 631.149 -1.42148 -0.680565 0
M  V30 6741 C 632.079 -1.4796 -1.80638 0
M  V30 6742 C 633.06 -0.336728 -1.66734 0
M  V30 6743 O 634.245 -0.550247 -1.86242 0
M  V30 6744 C 631.375 -1.37569 -3.18892 0
M  V30 6745 C 630.329 -2.49823 -3.47524 0
M  V30 6746 C 629.655 -2.24491 -4.85291 0
M  V30 6747 C 630.955 -3.92144 -3.44994 0
M  V30 6748 H 632.649 -2.42184 -1.76032 0
M  V30 6749 H 630.195 -1.16566 -0.845481 0
M  V30 6750 H 632.148 -1.40243 -3.97379 0
M  V30 6751 H 630.872 -0.398357 -3.24162 0
M  V30 6752 H 629.531 -2.46455 -2.71395 0
M  V30 6753 H 629.179 -1.25066 -4.87204 0
M  V30 6754 H 628.879 -2.99722 -5.05411 0
M  V30 6755 H 630.403 -2.28906 -5.66069 0
M  V30 6756 H 631.817 -3.97145 -4.13459 0
M  V30 6757 H 630.214 -4.67179 -3.76648 0
M  V30 6758 H 631.284 -4.19225 -2.43676 0
M  V30 6759 N 632.627 0.916307 -1.28225 0
M  V30 6760 C 633.875 1.6619 -1.15002 0
M  V30 6761 C 634.196 1.92642 0.302329 0
M  V30 6762 O 633.466 1.54076 1.20985 0
M  V30 6763 H 632.046 0.615964 -0.422608 0
M  V30 6764 H 634.708 1.09963 -1.60917 0
M  V30 6765 H 633.804 2.62533 -1.68769 0
M  V30 6766 N 634.105 1.10431 1.1244 0
M  V30 6767 C 635.521 0.836096 1.35947 0
M  V30 6768 C 635.721 -0.544475 1.94004 0
M  V30 6769 O 634.777 -1.29735 2.16622 0
M  V30 6770 C 636.09 1.93575 2.30107 0
M  V30 6771 C 637.638 1.9642 2.43697 0
M  V30 6772 C 638.113 3.05559 3.41171 0
M  V30 6773 N 639.604 3.04865 3.48728 0
M  V30 6774 C 640.339 3.85954 4.24061 0
M  V30 6775 N 639.835 4.76977 5.02458 0
M  V30 6776 N 641.628 3.74172 4.19466 0
M  V30 6777 H 633.779 1.9942 0.731124 0
M  V30 6778 H 636.042 0.866607 0.384312 0
M  V30 6779 H 635.748 2.92943 1.94621 0
M  V30 6780 H 635.622 1.8229 3.30227 0
M  V30 6781 H 638.009 0.97685 2.78463 0
M  V30 6782 H 638.09 2.11782 1.43465 0
M  V30 6783 H 637.734 4.04513 3.07135 0
M  V30 6784 H 637.664 2.87438 4.41234 0
M  V30 6785 H 640.155 2.38908 2.92799 0
M  V30 6786 H 640.468 5.35409 5.57277 0
M  V30 6787 H 638.813 4.81006 5.01655 0
M  V30 6788 H 642.004 3.02412 3.57302 0
M  V30 6789 H 642.177 4.37602 4.77921 0
M  V30 6790 N 635.583 -1.29855 0.893053 0
M  V30 6791 C 636.808 -2.00512 0.530066 0
M  V30 6792 C 637.233 -1.66446 -0.876199 0
M  V30 6793 O 636.591 -0.885446 -1.58207 0
M  V30 6794 C 636.639 -3.53308 0.721505 0
M  V30 6795 O 635.743 -4.11764 -0.228994 0
M  V30 6796 H 635.084 -0.630617 0.207891 0
M  V30 6797 H 637.614 -1.6551 1.20282 0
M  V30 6798 H 637.624 -4.03206 0.623599 0
M  V30 6799 H 636.299 -3.77439 1.74678 0
M  V30 6800 H 634.876 -3.72805 -0.0841034 0
M  V30 6801 N 637.061 -0.65484 -1.43351 0
M  V30 6802 C 637.971 0.0363603 -2.34572 0
M  V30 6803 C 638.987 0.810432 -1.53974 0
M  V30 6804 O 640.163 0.757308 -1.86619 0
M  V30 6805 C 637.228 0.989733 -3.32273 0
M  V30 6806 C 636.289 0.212414 -4.28774 0
M  V30 6807 C 635.522 1.12038 -5.21808 0
M  V30 6808 O 635.745 2.35967 -5.19303 0
M  V30 6809 O 634.679 0.59191 -5.98982 0
M  V30 6810 H 638.505 -0.714527 -2.95175 0
M  V30 6811 H 636.09 -0.415029 -1.4352 0
M  V30 6812 H 637.972 1.53759 -3.92347 0
M  V30 6813 H 636.647 1.72082 -2.74171 0
M  V30 6814 H 635.554 -0.379062 -3.72175 0
M  V30 6815 H 636.887 -0.479138 -4.89862 0
M  V30 6816 N 638.539 1.52521 -0.396863 0
M  V30 6817 C 639.764 2.06571 0.185258 0
M  V30 6818 C 640.189 1.26605 1.39115 0
M  V30 6819 O 639.547 0.293055 1.78916 0
M  V30 6820 C 639.595 3.5674 0.526189 0
M  V30 6821 O 638.699 3.7929 1.61903 0
M  V30 6822 H 638.04 0.663712 0.0195474 0
M  V30 6823 H 640.57 1.966 -0.566519 0
M  V30 6824 H 640.58 4.00311 0.788338 0
M  V30 6825 H 639.255 4.14379 -0.355397 0
M  V30 6826 H 637.832 3.47605 1.35 0
M  V30 6827 N 640.017 0.126909 1.57088 0
M  V30 6828 C 641.263 -0.529952 1.95753 0
M  V30 6829 C 641.596 -1.65823 1.01077 0
M  V30 6830 O 640.871 -1.94437 0.0494162 0
M  V30 6831 C 641.154 -1.05517 3.44294 0
M  V30 6832 C 641.007 0.0702253 4.49745 0
M  V30 6833 C 642.326 -1.9435 3.94862 0
M  V30 6834 H 639.445 -0.191168 0.711775 0
M  V30 6835 H 642.087 0.204071 1.88901 0
M  V30 6836 H 640.237 -1.68069 3.50264 0
M  V30 6837 H 641.909 0.705834 4.55868 0
M  V30 6838 H 640.152 0.732259 4.27575 0
M  V30 6839 H 640.823 -0.338642 5.5096 0
M  V30 6840 H 643.299 -1.41658 3.91244 0
M  V30 6841 H 642.175 -2.28015 4.993 0
M  V30 6842 H 642.436 -2.87299 3.36024 0
M  V30 6843 N 641.495 -1.56914 -0.146875 0
M  V30 6844 C 642.741 -1.83628 -0.860741 0
M  V30 6845 C 643.074 -0.708528 -1.80813 0
M  V30 6846 O 642.349 0.287838 -1.92358 0
M  V30 6847 C 642.632 -3.20836 -1.63511 0
M  V30 6848 C 642.485 -4.44174 -0.709199 0
M  V30 6849 C 643.804 -3.55268 -2.59756 0
M  V30 6850 H 640.923 -0.667949 -0.311468 0
M  V30 6851 H 643.565 -1.89582 -0.125936 0
M  V30 6852 H 641.715 -3.15891 -2.26153 0
M  V30 6853 H 643.387 -4.61205 -0.0937781 0
M  V30 6854 H 641.63 -4.33796 -0.0187856 0
M  V30 6855 H 642.301 -5.36785 -1.28707 0
M  V30 6856 H 644.777 -3.60824 -2.07232 0
M  V30 6857 H 643.653 -4.52303 -3.10987 0
M  V30 6858 H 643.914 -2.81231 -3.41118 0
M  V30 6859 N 642.974 0.416227 -1.52004 0
M  V30 6860 C 644.199 1.19029 -1.69843 0
M  V30 6861 C 644.624 1.83708 -0.404103 0
M  V30 6862 O 643.982 1.69711 0.637787 0
M  V30 6863 C 644.03 2.23439 -2.83032 0
M  V30 6864 O 643.134 3.29419 -2.48106 0
M  V30 6865 H 642.475 0.347785 -0.565634 0
M  V30 6866 H 645.005 0.488871 -1.98674 0
M  V30 6867 H 645.015 2.67884 -3.07737 0
M  V30 6868 H 643.69 1.75745 -3.76944 0
M  V30 6869 H 642.267 2.90303 -2.34048 0
M  V30 6870 N 644.452 1.42507 0.673017 0
M  V30 6871 C 645.7 1.42789 1.43023 0
M  V30 6872 C 646.021 0.0459738 1.94946 0
M  V30 6873 O 645.291 -0.915765 1.73178 0
M  V30 6874 H 643.871 0.525657 0.530748 0
M  V30 6875 H 646.533 1.77944 0.795113 0
M  V30 6876 H 645.629 2.12872 2.28237 0
M  V30 6877 N 645.93 -0.909495 1.28709 0
M  V30 6878 C 646.86 -2.0291 1.15542 0
M  V30 6879 C 647.841 -1.7002 0.0521017 0
M  V30 6880 O 649.026 -1.92835 0.229849 0
M  V30 6881 C 646.156 -3.37458 0.820935 0
M  V30 6882 C 645.11 -3.84524 1.87949 0
M  V30 6883 C 644.436 -5.16086 1.39854 0
M  V30 6884 C 645.736 -4.05918 3.28676 0
M  V30 6885 H 647.43 -2.14183 2.09203 0
M  V30 6886 H 644.976 -1.02913 1.00722 0
M  V30 6887 H 646.929 -4.1528 0.715571 0
M  V30 6888 H 645.653 -3.26249 -0.151374 0
M  V30 6889 H 644.312 -3.08911 1.97408 0
M  V30 6890 H 643.96 -5.01284 0.41518 0
M  V30 6891 H 643.66 -5.48547 2.1064 0
M  V30 6892 H 645.184 -5.96459 1.30649 0
M  V30 6893 H 646.598 -4.74252 3.22115 0
M  V30 6894 H 644.995 -4.49717 3.97334 0
M  V30 6895 H 646.065 -3.10583 3.72379 0
M  V30 6896 N 647.408 -1.11026 -1.11852 0
M  V30 6897 C 648.685 -0.768347 -1.79877 0
M  V30 6898 C 649.065 0.744261 -1.97545 0
M  V30 6899 O 648.413 1.67271 -1.55669 0
M  V30 6900 C 648.623 -1.52648 -3.13846 0
M  V30 6901 C 649.971 -1.70297 -3.88953 0
M  V30 6902 O 650.995 -1.49037 -3.23522 0
M  V30 6903 O 649.854 -2.05593 -5.06353 0
M  V30 6904 H 646.948 -0.277891 -0.778913 0
M  V30 6905 H 649.494 -1.21343 -1.18633 0
M  V30 6906 H 648.266 -2.55564 -2.96315 0
M  V30 6907 H 647.889 -1.07466 -3.82801 0
M  V30 6908 N 648.886 1.2938 -0.899927 0
M  V30 6909 C 650.111 2.00228 -0.540692 0
M  V30 6910 C 650.536 1.66909 0.867359 0
M  V30 6911 O 649.894 0.893824 1.57735 0
M  V30 6912 C 649.942 3.52921 -0.740232 0
M  V30 6913 O 649.046 4.11879 0.207154 0
M  V30 6914 H 648.387 0.629505 -0.211233 0
M  V30 6915 H 650.917 1.6487 -1.21158 0
M  V30 6916 H 650.927 4.0287 -0.644973 0
M  V30 6917 H 649.602 3.76508 -1.76677 0
M  V30 6918 H 648.179 3.72845 0.0643315 0
M  V30 6919 N 650.364 0.662433 1.43002 0
M  V30 6920 C 651.775 0.258315 1.84904 0
M  V30 6921 C 652.126 -1.19703 1.55453 0
M  V30 6922 O 651.251 -1.91484 1.00811 0
M  V30 6923 C 651.846 0.462047 3.35635 0
M  V30 6924 C 650.405 0.112165 3.76233 0
M  V30 6925 C 649.552 0.760479 2.66668 0
M  V30 6926 H 652.503 0.865467 1.33024 0
M  V30 6927 H 652.524 -0.289646 3.79396 0
M  V30 6928 H 652.036 1.52135 3.57039 0
M  V30 6929 H 650.137 -0.944179 3.60439 0
M  V30 6930 H 650.25 0.544058 4.76001 0
M  V30 6931 H 648.614 0.192887 2.53969 0
M  V30 6932 H 649.397 1.82299 2.90898 0
M  V30 6933 N 651.842 -1.52309 0.404946 0
M  V30 6934 C 652.805 -2.25491 -0.410651 0
M  V30 6935 C 653.805 -1.27704 -0.977154 0
M  V30 6936 O 654.995 -1.51679 -0.856691 0
M  V30 6937 C 652.127 -3.02197 -1.57765 0
M  V30 6938 H 653.32 -2.99015 0.230277 0
M  V30 6939 H 650.873 -1.55506 0.157377 0
M  V30 6940 H 651.608 -2.33013 -2.25556 0
M  V30 6941 H 651.393 -3.73987 -1.17797 0
M  V30 6942 H 652.883 -3.57719 -2.15469 0
M  V30 6943 N 653.32 -0.135238 -1.57019 0
M  V30 6944 C 654.267 0.808908 -2.1616 0
M  V30 6945 C 655.237 1.25234 -1.09113 0
M  V30 6946 O 656.422 1.32697 -1.37099 0
M  V30 6947 C 653.562 2.04729 -2.77813 0
M  V30 6948 C 652.675 1.65074 -3.99218 0
M  V30 6949 C 651.81 2.84002 -4.48906 0
M  V30 6950 C 650.849 2.40663 -5.62803 0
M  V30 6951 N 649.986 3.5256 -6.07162 0
M  V30 6952 H 654.826 0.297751 -2.96509 0
M  V30 6953 H 652.363 0.135264 -1.46477 0
M  V30 6954 H 654.321 2.7731 -3.11697 0
M  V30 6955 H 652.951 2.53275 -2.00128 0
M  V30 6956 H 652.003 0.823029 -3.7139 0
M  V30 6957 H 653.315 1.29236 -4.81767 0
M  V30 6958 H 652.469 3.64788 -4.84783 0
M  V30 6959 H 651.208 3.23076 -3.65339 0
M  V30 6960 H 650.213 1.58314 -5.26514 0
M  V30 6961 H 651.438 2.02687 -6.48147 0
M  V30 6962 H 649.384 3.91278 -5.26534 0
M  V30 6963 H 649.301 3.20699 -6.84608 0
M  V30 6964 H 650.569 4.33738 -6.47682 0
M  V30 6965 N 654.798 1.5699 0.138552 0
M  V30 6966 C 656.026 1.87976 0.864437 0
M  V30 6967 C 656.441 0.724372 1.74351 0
M  V30 6968 O 655.798 -0.305575 1.79924 0
M  V30 6969 C 655.849 3.18276 1.71414 0
M  V30 6970 O 655.57 4.29365 0.870487 0
M  V30 6971 C 657.071 3.62834 2.54688 0
M  V30 6972 H 654.291 0.622878 0.249528 0
M  V30 6973 H 656.835 2.04094 0.128805 0
M  V30 6974 H 654.99 3.03886 2.40274 0
M  V30 6975 H 655.404 5.03924 1.45466 0
M  V30 6976 H 656.878 4.5682 3.0987 0
M  V30 6977 H 657.355 2.88533 3.31127 0
M  V30 6978 H 657.961 3.79946 1.91105 0
M  V30 6979 N 656.276 -0.40816 1.52223 0
M  V30 6980 C 657.501 -1.18127 1.70472 0
M  V30 6981 C 657.926 -1.83491 0.41384 0
M  V30 6982 O 657.284 -1.70047 -0.628778 0
M  V30 6983 C 657.332 -2.21935 2.84213 0
M  V30 6984 O 656.436 -3.28099 2.4985 0
M  V30 6985 H 655.777 -0.344781 0.56747 0
M  V30 6986 H 658.307 -0.478328 1.9893 0
M  V30 6987 H 658.317 -2.66248 3.09153 0
M  V30 6988 H 656.992 -1.73744 3.7787 0
M  V30 6989 H 655.569 -2.89058 2.35584 0
M  V30 6990 N 657.755 -1.42862 -0.66545 0
M  V30 6991 C 658.98 -1.47456 -1.45848 0
M  V30 6992 C 659.405 -0.0900312 -1.87884 0
M  V30 6993 O 658.763 0.913587 -1.56599 0
M  V30 6994 C 658.811 -2.41514 -2.67774 0
M  V30 6995 O 657.915 -1.89296 -3.66389 0
M  V30 6996 H 657.256 -0.499236 -0.437789 0
M  V30 6997 H 659.786 -1.8765 -0.815394 0
M  V30 6998 H 659.796 -2.58409 -3.15735 0
M  V30 6999 H 658.471 -3.42099 -2.36519 0
M  V30 7000 H 657.048 -1.82003 -3.25468 0
M  V30 7001 N 659.233 0.902656 -1.29189 0
M  V30 7002 C 660.166 2.00816 -1.0839 0
M  V30 7003 C 661.144 1.626 0.00335266 0
M  V30 7004 O 662.328 1.87928 -0.146765 0
M  V30 7005 C 659.455 3.32415 -0.649435 0
M  V30 7006 C 658.501 3.89617 -1.73496 0
M  V30 7007 S 659.334 4.19091 -3.33351 0
M  V30 7008 C 660.49 5.53736 -2.91766 0
M  V30 7009 H 660.723 2.18151 -2.01984 0
M  V30 7010 H 658.256 1.0489 -1.13303 0
M  V30 7011 H 660.214 4.08492 -0.405479 0
M  V30 7012 H 658.875 3.12964 0.266857 0
M  V30 7013 H 658.068 4.84658 -1.38284 0
M  V30 7014 H 657.67 3.20217 -1.93229 0
M  V30 7015 H 659.962 6.34085 -2.38627 0
M  V30 7016 H 660.905 5.93871 -3.85647 0
M  V30 7017 H 661.313 5.15453 -2.30149 0
M  V30 7018 N 660.711 1.11618 1.11262 0
M  V30 7019 C 661.621 0.78898 2.20935 0
M  V30 7020 C 662.637 -0.21867 1.7262 0
M  V30 7021 O 663.813 -0.0543826 2.01327 0
M  V30 7022 C 660.878 0.239014 3.45875 0
M  V30 7023 C 659.939 1.3055 4.08968 0
M  V30 7024 C 659.172 0.781687 5.27944 0
M  V30 7025 O 659.395 -0.387605 5.69082 0
M  V30 7026 O 658.329 1.54734 5.81671 0
M  V30 7027 H 662.155 1.70477 2.51339 0
M  V30 7028 H 659.74 0.892203 1.19834 0
M  V30 7029 H 661.622 -0.0632312 4.21353 0
M  V30 7030 H 660.297 -0.649454 3.17118 0
M  V30 7031 H 659.204 1.66079 3.35214 0
M  V30 7032 H 660.537 2.16743 4.41909 0
M  V30 7033 N 662.189 -1.289 0.906776 0
M  V30 7034 C 663.136 -2.2751 0.388313 0
M  V30 7035 C 664.106 -1.57301 -0.533439 0
M  V30 7036 O 665.291 -1.85243 -0.457148 0
M  V30 7037 C 662.431 -3.43091 -0.37181 0
M  V30 7038 C 661.544 -4.28066 0.581647 0
M  V30 7039 C 660.679 -5.30837 -0.19623 0
M  V30 7040 C 659.718 -6.07472 0.751294 0
M  V30 7041 N 658.855 -7.021 0.00737727 0
M  V30 7042 H 663.695 -2.71237 1.23428 0
M  V30 7043 H 661.232 -1.33397 0.619962 0
M  V30 7044 H 663.19 -4.08888 -0.828641 0
M  V30 7045 H 661.82 -3.00374 -1.18218 0
M  V30 7046 H 660.872 -3.62378 1.157 0
M  V30 7047 H 662.184 -4.81382 1.30665 0
M  V30 7048 H 661.338 -6.02485 -0.71394 0
M  V30 7049 H 660.077 -4.78272 -0.954324 0
M  V30 7050 H 659.082 -5.34682 1.28044 0
M  V30 7051 H 660.307 -6.62126 1.50883 0
M  V30 7052 H 658.253 -6.51894 -0.732854 0
M  V30 7053 H 658.17 -7.53004 0.672334 0
M  V30 7054 H 659.438 -7.77956 -0.490365 0
M  V30 7055 N 663.667 -0.670007 -1.42649 0
M  V30 7056 C 664.614 0.0112928 -2.30797 0
M  V30 7057 C 665.584 0.797627 -1.45695 0
M  V30 7058 O 666.769 0.770845 -1.74535 0
M  V30 7059 C 663.909 0.95998 -3.31479 0
M  V30 7060 C 663.022 0.167975 -4.31673 0
M  V30 7061 C 662.157 1.11198 -5.19431 0
M  V30 7062 C 661.196 0.311381 -6.11307 0
M  V30 7063 N 660.333 1.20784 -6.91633 0
M  V30 7064 H 665.173 -0.746231 -2.88505 0
M  V30 7065 H 662.71 -0.379739 -1.42114 0
M  V30 7066 H 664.668 1.52379 -3.88377 0
M  V30 7067 H 663.298 1.68419 -2.75382 0
M  V30 7068 H 662.35 -0.512385 -3.76933 0
M  V30 7069 H 663.662 -0.453814 -4.96731 0
M  V30 7070 H 662.816 1.74587 -5.81037 0
M  V30 7071 H 661.555 1.76766 -4.54538 0
M  V30 7072 H 660.56 -0.335758 -5.48774 0
M  V30 7073 H 661.785 -0.340135 -6.78248 0
M  V30 7074 H 659.731 1.85001 -6.29373 0
M  V30 7075 H 659.648 0.64102 -7.53277 0
M  V30 7076 H 660.916 1.82936 -7.5773 0
M  V30 7077 N 665.145 1.52092 -0.413018 0
M  V30 7078 C 666.075 2.30021 0.401567 0
M  V30 7079 C 667.056 1.34395 1.04269 0
M  V30 7080 O 668.241 1.63304 1.05097 0
M  V30 7081 C 665.371 3.12447 1.51638 0
M  V30 7082 C 664.325 4.16153 1.00005 0
M  V30 7083 C 663.651 4.86948 2.20875 0
M  V30 7084 C 664.951 5.22275 0.0513757 0
M  V30 7085 H 666.645 2.98365 -0.248704 0
M  V30 7086 H 664.191 1.4349 -0.121052 0
M  V30 7087 H 666.144 3.65733 2.09326 0
M  V30 7088 H 664.868 2.41879 2.19458 0
M  V30 7089 H 663.527 3.63882 0.445549 0
M  V30 7090 H 663.175 4.12905 2.8726 0
M  V30 7091 H 662.875 5.57057 1.86978 0
M  V30 7092 H 664.399 5.43048 2.79162 0
M  V30 7093 H 665.813 5.70778 0.537176 0
M  V30 7094 H 664.21 5.9977 -0.198977 0
M  V30 7095 H 665.28 4.76611 -0.892736 0
M  V30 7096 N 666.623 0.143563 1.56945 0
M  V30 7097 C 667.553 -0.7936 2.196 0
M  V30 7098 C 668.534 -1.25955 1.14321 0
M  V30 7099 O 669.719 -1.31773 1.42651 0
M  V30 7100 C 666.849 -2.03424 2.81489 0
M  V30 7101 C 665.803 -1.70519 3.92565 0
M  V30 7102 C 665.129 -3.01817 4.41373 0
M  V30 7103 C 666.429 -0.95449 5.13504 0
M  V30 7104 H 668.123 -0.271423 2.98167 0
M  V30 7105 H 665.669 -0.12911 1.4342 0
M  V30 7106 H 667.622 -2.69463 3.23987 0
M  V30 7107 H 666.346 -2.58008 2.00248 0
M  V30 7108 H 665.005 -1.06859 3.5068 0
M  V30 7109 H 664.653 -3.54386 3.56959 0
M  V30 7110 H 664.353 -2.80565 5.16292 0
M  V30 7111 H 665.877 -3.68934 4.86539 0
M  V30 7112 H 667.291 -1.5169 5.52868 0
M  V30 7113 H 665.688 -0.842035 5.94163 0
M  V30 7114 H 666.758 0.0544033 4.84869 0
M  V30 7115 N 668.101 -1.57061 -0.130224 0
M  V30 7116 C 669.35 -1.83446 -0.838488 0
M  V30 7117 C 669.663 -0.727468 -1.81569 0
M  V30 7118 O 670.869 -0.877394 -2.56932 0
M  V30 7119 C 669.325 -3.25201 -1.54182 0
M  V30 7120 C 668.933 -4.4388 -0.606178 0
M  V30 7121 C 670.677 -3.60844 -2.23588 0
M  V30 7122 C 668.584 -5.76661 -1.31209 0
M  V30 7123 H 667.514 -0.684185 -0.316871 0
M  V30 7124 H 670.165 -1.83273 -0.0912059 0
M  V30 7125 H 668.547 -3.1981 -2.33533 0
M  V30 7126 H 669.721 -4.60545 0.153308 0
M  V30 7127 H 668.036 -4.16395 -0.0196705 0
M  V30 7128 H 670.633 -4.57313 -2.77072 0
M  V30 7129 H 670.976 -2.87724 -3.00867 0
M  V30 7130 H 671.509 -3.67971 -1.51137 0
M  V30 7131 H 668.248 -6.52922 -0.580823 0
M  V30 7132 H 667.768 -5.63902 -2.04387 0
M  V30 7133 H 669.447 -6.20035 -1.8484 0
M  V30 7134 N 669.579 0.400081 -1.52437 0
M  V30 7135 C 670.526 1.48803 -1.76426 0
M  V30 7136 C 671.496 1.5461 -0.607032 0
M  V30 7137 O 672.681 1.71041 -0.845563 0
M  V30 7138 C 669.821 2.86156 -1.92896 0
M  V30 7139 C 668.934 2.89587 -3.20567 0
M  V30 7140 C 668.069 4.18296 -3.27417 0
M  V30 7141 C 667.108 4.15736 -4.49255 0
M  V30 7142 N 666.245 5.36032 -4.53447 0
M  V30 7143 H 671.085 1.27649 -2.69276 0
M  V30 7144 H 668.622 0.619451 -1.33421 0
M  V30 7145 H 670.58 3.65901 -2.00429 0
M  V30 7146 H 669.21 3.05785 -1.03418 0
M  V30 7147 H 668.262 2.02278 -3.22161 0
M  V30 7148 H 669.574 2.83562 -4.10358 0
M  V30 7149 H 668.728 5.06439 -3.34072 0
M  V30 7150 H 667.467 4.27028 -2.35581 0
M  V30 7151 H 666.472 3.25982 -4.42737 0
M  V30 7152 H 667.697 4.08636 -5.42396 0
M  V30 7153 H 665.643 5.45415 -3.64498 0
M  V30 7154 H 665.56 5.32038 -5.37096 0
M  V30 7155 H 666.828 6.26104 -4.64343 0
M  V30 7156 N 671.057 1.43213 0.657864 0
M  V30 7157 C 672.282 1.48227 1.45064 0
M  V30 7158 C 672.707 0.0999939 1.87834 0
M  V30 7159 O 672.065 -0.905269 1.57081 0
M  V30 7160 C 672.113 2.42931 2.6649 0
M  V30 7161 O 671.217 1.91237 3.6538 0
M  V30 7162 H 670.558 0.501551 0.435135 0
M  V30 7163 H 673.088 1.8808 0.805431 0
M  V30 7164 H 673.098 2.6008 3.1436 0
M  V30 7165 H 671.773 3.43348 2.34701 0
M  V30 7166 H 670.35 1.83726 3.24498 0
M  V30 7167 N 672.536 -0.895792 1.29666 0
M  V30 7168 C 673.483 -2.00035 1.15129 0
M  V30 7169 C 674.453 -1.66043 0.0435819 0
M  V30 7170 O 675.638 -1.89621 0.211811 0
M  V30 7171 C 672.778 -3.34774 0.83787 0
M  V30 7172 C 671.891 -3.81525 2.0264 0
M  V30 7173 C 671.026 -5.04858 1.65201 0
M  V30 7174 C 670.065 -5.43988 2.80612 0
M  V30 7175 N 669.202 -6.58507 2.43544 0
M  V30 7176 H 674.042 -2.11802 2.09628 0
M  V30 7177 H 671.579 -1.03719 1.04311 0
M  V30 7178 H 673.537 -4.12311 0.636824 0
M  V30 7179 H 672.167 -3.22724 -0.0702314 0
M  V30 7180 H 671.219 -2.9999 2.33903 0
M  V30 7181 H 672.531 -4.06472 2.89106 0
M  V30 7182 H 671.685 -5.8999 1.41408 0
M  V30 7183 H 670.424 -4.81759 0.758893 0
M  V30 7184 H 669.429 -4.57388 3.05083 0
M  V30 7185 H 670.654 -5.69066 3.70595 0
M  V30 7186 H 668.6 -6.37004 1.56724 0
M  V30 7187 H 668.517 -6.83269 3.23542 0
M  V30 7188 H 669.785 -7.46897 2.2308 0
M  V30 7189 N 674.014 -1.12206 -1.10668 0
M  V30 7190 C 674.924 -0.800686 -2.20513 0
M  V30 7191 C 675.94 0.209512 -1.72734 0
M  V30 7192 O 677.116 0.043705 -2.01353 0
M  V30 7193 C 674.181 -0.257353 -3.45744 0
M  V30 7194 C 673.242 -1.32718 -4.0827 0
M  V30 7195 C 672.475 -0.809674 -5.27522 0
M  V30 7196 O 672.698 0.35742 -5.69279 0
M  V30 7197 O 671.632 -1.57816 -5.80842 0
M  V30 7198 H 675.458 -1.71807 -2.50432 0
M  V30 7199 H 673.043 -0.898546 -1.19359 0
M  V30 7200 H 674.925 0.0408849 -4.2138 0
M  V30 7201 H 673.6 0.632627 -3.17458 0
M  V30 7202 H 672.507 -1.67855 -3.34329 0
M  V30 7203 H 673.84 -2.19083 -4.40753 0
M  V30 7204 N 675.492 1.28418 -0.913599 0
M  V30 7205 C 676.422 2.29713 -0.418847 0
M  V30 7206 C 677.403 1.62165 0.513469 0
M  V30 7207 O 678.588 1.89576 0.421235 0
M  V30 7208 C 675.718 3.45612 0.342042 0
M  V30 7209 C 674.672 4.25056 -0.501123 0
M  V30 7210 C 673.998 5.3329 0.388097 0
M  V30 7211 C 675.298 4.91814 -1.75831 0
M  V30 7212 H 676.992 2.71346 -1.26538 0
M  V30 7213 H 674.538 1.30446 -0.609903 0
M  V30 7214 H 676.491 4.15562 0.699 0
M  V30 7215 H 675.215 3.02858 1.22248 0
M  V30 7216 H 673.874 3.56833 -0.840598 0
M  V30 7217 H 673.522 4.8678 1.26707 0
M  V30 7218 H 673.222 5.87347 -0.172459 0
M  V30 7219 H 674.746 6.06088 0.74094 0
M  V30 7220 H 676.16 5.54126 -1.47026 0
M  V30 7221 H 674.557 5.55866 -2.26126 0
M  V30 7222 H 675.627 4.16313 -2.4862 0
M  V30 7223 N 676.97 0.677563 1.42291 0
M  V30 7224 C 677.902 -0.0380218 2.29168 0
M  V30 7225 C 678.915 -0.762714 1.43828 0
M  V30 7226 O 680.104 -0.616413 1.67519 0
M  V30 7227 C 677.204 -1.07761 3.21311 0
M  V30 7228 C 676.377 -0.42618 4.35319 0
M  V30 7229 C 675.436 -1.36592 5.08162 0
M  V30 7230 O 674.462 -0.865174 5.62586 0
M  V30 7231 N 675.664 -2.69909 5.13935 0
M  V30 7232 H 678.429 0.707766 2.91223 0
M  V30 7233 H 675.99 0.52219 1.53247 0
M  V30 7234 H 677.982 -1.70761 3.6691 0
M  V30 7235 H 676.552 -1.72511 2.60689 0
M  V30 7236 H 675.772 0.383385 3.92331 0
M  V30 7237 H 677.06 0.0275277 5.08793 0
M  V30 7238 H 676.458 -3.13129 4.71134 0
M  V30 7239 H 675.015 -3.2815 5.6317 0
M  V30 7240 N 678.448 -1.51871 0.421078 0
M  V30 7241 C 679.725 -1.9447 -0.20993 0
M  V30 7242 C 680.105 -1.35875 -1.61558 0
M  V30 7243 O 679.453 -0.539294 -2.22045 0
M  V30 7244 C 679.663 -3.48402 -0.204165 0
M  V30 7245 C 681.011 -4.2254 -0.417696 0
M  V30 7246 O 682.035 -3.55074 -0.282999 0
M  V30 7247 O 680.894 -5.422 -0.684239 0
M  V30 7248 H 677.988 -0.815283 -0.138718 0
M  V30 7249 H 680.534 -1.62832 0.477884 0
M  V30 7250 H 679.306 -3.83464 0.779183 0
M  V30 7251 H 678.929 -3.86436 -0.935576 0
M  V30 7252 N 679.926 -0.151884 -1.56866 0
M  V30 7253 C 681.151 0.508044 -2.01081 0
M  V30 7254 C 681.576 1.57306 -1.03134 0
M  V30 7255 O 680.934 1.81298 -0.0078309 0
M  V30 7256 C 680.982 1.08106 -3.44014 0
M  V30 7257 O 680.086 2.19577 -3.49084 0
M  V30 7258 H 679.427 0.123757 -0.652365 0
M  V30 7259 H 681.957 -0.250055 -2.03066 0
M  V30 7260 H 681.967 1.40851 -3.82916 0
M  V30 7261 H 680.642 0.301168 -4.14808 0
M  V30 7262 H 679.219 1.88023 -3.22027 0
M  V30 7263 N 681.404 1.57128 0.121893 0
M  V30 7264 C 682.336 1.96773 1.17529 0
M  V30 7265 C 683.349 0.866668 1.37814 0
M  V30 7266 O 684.538 1.14497 1.3694 0
M  V30 7267 C 681.638 2.24832 2.53582 0
M  V30 7268 C 680.811 3.56138 2.53939 0
M  V30 7269 C 679.87 3.72443 3.71716 0
M  V30 7270 O 678.896 4.44584 3.55434 0
M  V30 7271 N 680.098 3.10993 4.90167 0
M  V30 7272 H 682.863 2.87743 0.838086 0
M  V30 7273 H 680.424 1.58881 0.311199 0
M  V30 7274 H 682.416 2.32958 3.30927 0
M  V30 7275 H 680.986 1.40002 2.79496 0
M  V30 7276 H 680.206 3.59226 1.62329 0
M  V30 7277 H 681.494 4.42448 2.51231 0
M  V30 7278 H 680.892 2.52345 5.06299 0
M  V30 7279 H 679.449 3.24644 5.65198 0
M  V30 7280 N 682.882 -0.391992 1.52647 0
M  V30 7281 C 684.159 -1.15136 1.58123 0
M  V30 7282 C 684.539 -2.07786 0.372597 0
M  V30 7283 O 683.887 -2.19374 -0.639304 0
M  V30 7284 C 684.097 -1.91367 2.91856 0
M  V30 7285 C 685.445 -2.46833 3.45483 0
M  V30 7286 O 686.469 -2.01527 2.9371 0
M  V30 7287 O 685.328 -3.29587 4.3593 0
M  V30 7288 H 682.422 -0.526649 0.637629 0
M  V30 7289 H 684.968 -0.397386 1.64982 0
M  V30 7290 H 683.74 -1.23597 3.71268 0
M  V30 7291 H 683.363 -2.73732 2.88369 0
M  V30 7292 N 684.36 -1.4356 -0.65026 0
M  V30 7293 C 685.307 -1.48948 -1.76304 0
M  V30 7294 C 686.277 -0.338919 -1.62605 0
M  V30 7295 O 687.462 -0.54649 -1.82806 0
M  V30 7296 C 684.602 -1.42131 -3.14472 0
M  V30 7297 C 683.715 -2.67415 -3.39284 0
M  V30 7298 C 682.85 -2.52565 -4.67316 0
M  V30 7299 C 681.889 -3.73103 -4.85243 0
M  V30 7300 N 681.026 -3.57046 -6.04535 0
M  V30 7301 H 685.866 -2.44032 -1.71034 0
M  V30 7302 H 683.403 -1.21131 -0.834601 0
M  V30 7303 H 685.361 -1.36172 -3.94351 0
M  V30 7304 H 683.991 -0.506273 -3.18805 0
M  V30 7305 H 683.043 -2.8364 -2.53481 0
M  V30 7306 H 684.355 -3.56943 -3.48415 0
M  V30 7307 H 683.509 -2.44331 -5.55326 0
M  V30 7308 H 682.248 -1.60566 -4.60511 0
M  V30 7309 H 681.253 -3.81743 -3.95667 0
M  V30 7310 H 682.478 -4.66115 -4.93876 0
M  V30 7311 H 680.424 -2.67783 -5.98856 0
M  V30 7312 H 680.341 -4.40178 -6.14638 0
M  V30 7313 H 681.609 -3.52669 -6.95158 0
M  V30 7314 N 685.838 0.888903 -1.30139 0
M  V30 7315 C 687.078 1.65456 -1.20015 0
M  V30 7316 C 687.442 1.90467 0.242148 0
M  V30 7317 O 688.643 2.6472 0.466561 0
M  V30 7318 C 686.914 2.96071 -2.00191 0
M  V30 7319 S 688.473 3.87055 -2.06721 0
M  V30 7320 H 685.291 0.567927 -0.427761 0
M  V30 7321 H 687.893 1.05539 -1.64565 0
M  V30 7322 H 686.597 2.7559 -3.04103 0
M  V30 7323 H 686.128 3.61023 -1.56288 0
M  V30 7324 H 688.143 4.81676 -1.19174 0
M  V30 7325 N 687.317 1.12792 1.10072 0
M  V30 7326 C 688.267 0.768086 2.14673 0
M  V30 7327 C 689.251 -0.234716 1.59179 0
M  V30 7328 O 690.443 -0.039643 1.76956 0
M  V30 7329 C 687.572 0.228472 3.42539 0
M  V30 7330 C 686.658 1.25979 4.04957 0
M  V30 7331 N 687.049 2.4586 4.42025 0
M  V30 7332 C 685.347 1.10602 4.32069 0
M  V30 7333 C 686.048 3.11747 4.9111 0
M  V30 7334 N 685.024 2.39185 4.88151 0
M  V30 7335 H 688.826 1.68029 2.4113 0
M  V30 7336 H 686.34 1.00925 1.27232 0
M  V30 7337 H 688.337 -0.0475216 4.16873 0
M  V30 7338 H 686.997 -0.678136 3.1754 0
M  V30 7339 H 688.008 2.83215 4.33601 0
M  V30 7340 H 684.685 0.257021 4.16708 0
M  V30 7341 H 686.075 4.13862 5.29309 0
M  V30 7342 N 688.795 -1.27931 0.920396 0
M  V30 7343 C 689.742 -2.27085 0.412422 0
M  V30 7344 C 690.712 -1.57858 -0.516725 0
M  V30 7345 O 691.897 -1.85717 -0.437475 0
M  V30 7346 C 689.037 -3.43466 -0.335399 0
M  V30 7347 C 688.15 -4.27425 0.627017 0
M  V30 7348 C 687.285 -5.31016 -0.139916 0
M  V30 7349 C 686.324 -6.06641 0.815683 0
M  V30 7350 N 685.461 -7.02052 0.0818439 0
M  V30 7351 H 690.301 -2.69913 1.26298 0
M  V30 7352 H 687.838 -1.32732 0.634076 0
M  V30 7353 H 689.796 -4.09744 -0.785226 0
M  V30 7354 H 688.426 -3.01611 -1.15025 0
M  V30 7355 H 687.478 -3.6113 1.19537 0
M  V30 7356 H 688.79 -4.79969 1.35763 0
M  V30 7357 H 687.944 -6.03208 -0.649998 0
M  V30 7358 H 686.683 -4.79257 -0.903543 0
M  V30 7359 H 685.688 -5.33294 1.33708 0
M  V30 7360 H 686.913 -6.60489 1.57897 0
M  V30 7361 H 684.859 -6.52634 -0.663671 0
M  V30 7362 H 684.776 -7.52249 0.752163 0
M  V30 7363 H 686.044 -7.78432 -0.407825 0
M  V30 7364 N 690.273 -0.685099 -1.4193 0
M  V30 7365 C 691.206 0.0371639 -2.2817 0
M  V30 7366 C 692.184 0.798436 -1.41647 0
M  V30 7367 O 693.368 0.791428 -1.71081 0
M  V30 7368 C 690.495 1.05993 -3.21688 0
M  V30 7369 C 689.541 0.393043 -4.24685 0
M  V30 7370 S 690.374 -0.856921 -5.28599 0
M  V30 7371 C 691.53 0.164508 -6.25684 0
M  V30 7372 H 691.763 -0.694305 -2.89079 0
M  V30 7373 H 689.296 -0.474999 -1.46912 0
M  V30 7374 H 691.254 1.64489 -3.76103 0
M  V30 7375 H 689.915 1.7639 -2.59895 0
M  V30 7376 H 689.108 1.16513 -4.90348 0
M  V30 7377 H 688.71 -0.118589 -3.73812 0
M  V30 7378 H 691.002 1.02106 -6.69762 0
M  V30 7379 H 691.945 -0.457917 -7.06618 0
M  V30 7380 H 692.353 0.514596 -5.6215 0
M  V30 7381 N 691.751 1.51645 -0.429126 0
M  V30 7382 C 692.661 2.31288 0.392809 0
M  V30 7383 C 693.677 1.39852 1.03525 0
M  V30 7384 O 694.853 1.72926 1.03241 0
M  V30 7385 C 691.918 3.13347 1.48372 0
M  V30 7386 C 690.979 4.20551 0.862268 0
M  V30 7387 C 690.212 4.98688 1.9012 0
M  V30 7388 O 690.435 4.77359 3.12225 0
M  V30 7389 O 689.369 5.83005 1.4963 0
M  V30 7390 H 693.195 3.02609 -0.257138 0
M  V30 7391 H 690.78 1.48163 -0.191851 0
M  V30 7392 H 692.662 3.64387 2.1166 0
M  V30 7393 H 691.337 2.44799 2.1179 0
M  V30 7394 H 690.244 3.73609 0.191568 0
M  V30 7395 H 691.577 4.91449 0.271704 0
M  V30 7396 N 693.229 0.160201 1.56784 0
M  V30 7397 C 694.161 -0.80564 2.14574 0
M  V30 7398 C 695.174 -1.20154 1.09849 0
M  V30 7399 O 696.363 -1.14333 1.37078 0
M  V30 7400 C 693.463 -2.09434 2.6644 0
M  V30 7401 C 692.636 -1.86375 3.95706 0
M  V30 7402 C 691.695 -2.99358 4.32749 0
M  V30 7403 O 690.721 -2.70475 5.00831 0
M  V30 7404 N 691.923 -4.26867 3.93402 0
M  V30 7405 H 694.688 -0.311644 2.98075 0
M  V30 7406 H 692.249 -0.0229465 1.61884 0
M  V30 7407 H 694.241 -2.84091 2.88226 0
M  V30 7408 H 692.811 -2.50057 1.8759 0
M  V30 7409 H 692.031 -0.956821 3.82412 0
M  V30 7410 H 693.319 -1.68322 4.80151 0
M  V30 7411 H 692.717 -4.53197 3.38569 0
M  V30 7412 H 691.274 -4.98263 4.20211 0
M  V30 7413 N 694.707 -1.5719 -0.113559 0
M  V30 7414 C 695.617 -2.04041 -1.15777 0
M  V30 7415 C 696.633 -0.961812 -1.45001 0
M  V30 7416 O 697.809 -1.2737 -1.56009 0
M  V30 7417 C 694.874 -2.43994 -2.46308 0
M  V30 7418 C 693.935 -3.65962 -2.24433 0
M  V30 7419 C 693.168 -4.04 -3.4874 0
M  V30 7420 O 693.391 -3.42321 -4.56259 0
M  V30 7421 O 692.325 -4.97069 -3.3942 0
M  V30 7422 H 696.151 -2.93248 -0.789899 0
M  V30 7423 H 693.736 -1.45828 -0.324748 0
M  V30 7424 H 695.618 -2.70401 -3.23204 0
M  V30 7425 H 694.293 -1.57932 -2.82558 0
M  V30 7426 H 693.2 -3.44697 -1.45377 0
M  V30 7427 H 694.533 -4.52746 -1.93084 0
M  V30 7428 N 696.185 0.383891 -1.52853 0
M  V30 7429 C 697.118 1.49105 -1.72751 0
M  V30 7430 C 698.096 1.52077 -0.575438 0
M  V30 7431 O 699.28 1.70406 -0.805854 0
M  V30 7432 C 696.407 2.87551 -1.78975 0
M  V30 7433 C 695.453 3.02383 -3.00777 0
M  V30 7434 S 696.286 2.73048 -4.60657 0
M  V30 7435 C 697.442 4.13678 -4.69704 0
M  V30 7436 H 697.675 1.32002 -2.66388 0
M  V30 7437 H 695.208 0.577088 -1.4321 0
M  V30 7438 H 697.166 3.6733 -1.83246 0
M  V30 7439 H 695.827 3.01977 -0.864215 0
M  V30 7440 H 695.02 4.03733 -3.01688 0
M  V30 7441 H 694.622 2.30504 -2.94523 0
M  V30 7442 H 696.914 5.07676 -4.48633 0
M  V30 7443 H 697.857 4.1778 -5.71721 0
M  V30 7444 H 698.265 3.99825 -3.98497 0
M  V30 7445 N 697.663 1.43903 0.642637 0
M  V30 7446 C 698.891 1.4954 1.42988 0
M  V30 7447 C 699.306 0.116588 1.8844 0
M  V30 7448 O 698.663 -0.875285 1.60141 0
M  V30 7449 C 698.714 2.45031 2.65785 0
M  V30 7450 O 698.435 3.77551 2.22232 0
M  V30 7451 C 699.936 2.60017 3.59035 0
M  V30 7452 H 697.156 0.507544 0.438907 0
M  V30 7453 H 699.7 1.88752 0.786942 0
M  V30 7454 H 697.855 2.08985 3.26196 0
M  V30 7455 H 698.269 4.29001 3.01759 0
M  V30 7456 H 699.743 3.30887 4.41835 0
M  V30 7457 H 700.22 1.64861 4.07084 0
M  V30 7458 H 700.826 2.96918 3.045 0
M  V30 7459 N 699.141 -0.881989 1.30609 0
M  V30 7460 C 700.557 -1.16576 1.09005 0
M  V30 7461 C 700.757 -2.00961 -0.14727 0
M  V30 7462 O 699.813 -2.38117 -0.840036 0
M  V30 7463 C 701.126 -1.86954 2.35518 0
M  V30 7464 C 702.674 -1.99706 2.41011 0
M  V30 7465 C 703.149 -2.73497 3.67374 0
M  V30 7466 N 704.64 -2.8104 3.68199 0
M  V30 7467 C 705.375 -3.38718 4.62664 0
M  V30 7468 N 704.871 -3.97421 5.67475 0
M  V30 7469 N 706.664 -3.36561 4.50203 0
M  V30 7470 H 698.815 -0.319398 2.09985 0
M  V30 7471 H 701.078 -0.204058 0.925778 0
M  V30 7472 H 700.784 -1.32393 3.2583 0
M  V30 7473 H 700.658 -2.87317 2.44395 0
M  V30 7474 H 703.045 -2.53436 1.51176 0
M  V30 7475 H 703.126 -0.984218 2.36108 0
M  V30 7476 H 702.77 -2.20438 4.57569 0
M  V30 7477 H 702.7 -3.75163 3.6954 0
M  V30 7478 H 705.191 -2.39365 2.92426 0
M  V30 7479 H 705.504 -4.39507 6.35652 0
M  V30 7480 H 703.849 -3.95832 5.71264 0
M  V30 7481 H 707.04 -2.8993 3.67503 0
M  V30 7482 H 707.213 -3.81215 5.24003 0
M  V30 7483 N 700.619 -1.13374 -1.09472 0
M  V30 7484 C 701.549 -0.833268 -2.18126 0
M  V30 7485 C 702.53 0.207169 -1.68834 0
M  V30 7486 O 703.715 0.0662012 -1.94087 0
M  V30 7487 C 700.845 -0.297979 -3.46019 0
M  V30 7488 C 699.799 -1.27261 -4.08642 0
M  V30 7489 C 699.125 -0.597104 -5.31356 0
M  V30 7490 C 700.425 -2.63095 -4.51197 0
M  V30 7491 H 702.119 -1.74182 -2.43518 0
M  V30 7492 H 699.665 -0.838921 -1.17039 0
M  V30 7493 H 701.618 -0.0754444 -4.21332 0
M  V30 7494 H 700.342 0.645959 -3.20148 0
M  V30 7495 H 699.001 -1.48113 -3.35348 0
M  V30 7496 H 698.649 0.352293 -5.01765 0
M  V30 7497 H 698.349 -1.24734 -5.74208 0
M  V30 7498 H 699.873 -0.38384 -6.09392 0
M  V30 7499 H 701.287 -2.46214 -5.17737 0
M  V30 7500 H 699.684 -3.2429 -5.04932 0
M  V30 7501 H 700.754 -3.20793 -3.6362 0
M  V30 7502 N 702.098 1.27442 -0.927168 0
M  V30 7503 C 703.048 2.24519 -0.396878 0
M  V30 7504 C 704.032 1.52981 0.498555 0
M  V30 7505 O 705.224 1.7378 0.336087 0
M  V30 7506 C 702.353 3.41514 0.349694 0
M  V30 7507 C 701.439 4.20357 -0.562226 0
M  V30 7508 N 701.83 4.7702 -1.68182 0
M  V30 7509 C 700.128 4.44503 -0.365135 0
M  V30 7510 C 700.829 5.36467 -2.24895 0
M  V30 7511 N 699.805 5.21371 -1.5386 0
M  V30 7512 H 703.607 2.65911 -1.25173 0
M  V30 7513 H 701.121 1.42366 -0.78138 0
M  V30 7514 H 703.118 4.10161 0.746536 0
M  V30 7515 H 701.778 3.01653 1.20148 0
M  V30 7516 H 702.789 4.74985 -2.06421 0
M  V30 7517 H 699.466 4.15111 0.446037 0
M  V30 7518 H 700.856 5.91264 -3.1915 0
M  V30 7519 N 703.576 0.692616 1.41565 0
M  V30 7520 C 704.992 0.363878 1.55397 0
M  V30 7521 C 705.192 -1.1294 1.66874 0
M  V30 7522 O 704.248 -1.91517 1.64552 0
M  V30 7523 C 705.561 1.10982 2.7947 0
M  V30 7524 C 707.109 1.09387 2.93263 0
M  V30 7525 C 707.584 1.8215 4.20221 0
M  V30 7526 N 709.075 1.79105 4.27172 0
M  V30 7527 C 709.81 2.32247 5.2426 0
M  V30 7528 N 709.306 2.93847 6.27396 0
M  V30 7529 N 711.099 2.22519 5.1618 0
M  V30 7530 H 703.25 1.66116 1.3236 0
M  V30 7531 H 705.513 0.700848 0.63837 0
M  V30 7532 H 705.219 2.1647 2.77188 0
M  V30 7533 H 705.093 0.686492 3.709 0
M  V30 7534 H 707.48 0.0472638 2.95062 0
M  V30 7535 H 707.561 1.55623 2.03015 0
M  V30 7536 H 707.205 2.86789 4.19183 0
M  V30 7537 H 707.135 1.33351 5.09436 0
M  V30 7538 H 709.626 1.34191 3.53272 0
M  V30 7539 H 709.939 3.31972 6.97864 0
M  V30 7540 H 708.284 2.97924 6.27906 0
M  V30 7541 H 711.475 1.7407 4.34531 0
M  V30 7542 H 711.648 2.64239 5.91677 0
M  V30 7543 N 705.054 -1.51416 0.437162 0
M  V30 7544 C 706.47 -1.59349 0.0894459 0
M  V30 7545 C 706.67 -1.44809 -1.40116 0
M  V30 7546 O 705.726 -1.28924 -2.17106 0
M  V30 7547 C 707.039 -2.9446 0.609398 0
M  V30 7548 C 708.587 -3.07769 0.569824 0
M  V30 7549 C 709.062 -4.45404 1.06675 0
M  V30 7550 N 710.553 -4.51723 1.02473 0
M  V30 7551 C 711.288 -5.56544 1.3801 0
M  V30 7552 N 710.784 -6.68784 1.80831 0
M  V30 7553 N 712.577 -5.46901 1.29828 0
M  V30 7554 H 704.728 -1.59112 1.40703 0
M  V30 7555 H 706.991 -0.750031 0.579791 0
M  V30 7556 H 706.697 -3.1047 1.65231 0
M  V30 7557 H 706.571 -3.77184 0.0342236 0
M  V30 7558 H 708.958 -2.91428 -0.464107 0
M  V30 7559 H 709.039 -2.26885 1.1814 0
M  V30 7560 H 708.683 -4.62492 2.09914 0
M  V30 7561 H 708.613 -5.24827 0.431712 0
M  V30 7562 H 711.104 -3.71165 0.710258 0
M  V30 7563 H 711.417 -7.44787 2.06185 0
M  V30 7564 H 709.762 -6.69992 1.84757 0
M  V30 7565 H 712.953 -4.581 0.962397 0
M  V30 7566 H 713.126 -6.2848 1.57851 0
M  V30 7567 N 706.532 -0.168513 -1.56696 0
M  V30 7568 C 707.778 0.477865 -1.9709 0
M  V30 7569 C 708.111 1.63084 -1.05438 0
M  V30 7570 O 707.386 1.94238 -0.10095 0
M  V30 7571 C 707.669 0.963521 -3.4697 0
M  V30 7572 C 707.522 -0.189443 -4.49401 0
M  V30 7573 C 708.841 1.83813 -3.99876 0
M  V30 7574 H 705.96 0.172229 -0.716593 0
M  V30 7575 H 708.602 -0.254083 -1.88293 0
M  V30 7576 H 706.752 1.58724 -3.54597 0
M  V30 7577 H 708.424 -0.826451 -4.53836 0
M  V30 7578 H 706.667 -0.845366 -4.25483 0
M  V30 7579 H 707.338 0.192446 -5.51664 0
M  V30 7580 H 709.814 1.31235 -3.94863 0
M  V30 7581 H 708.69 2.14697 -5.0517 0
M  V30 7582 H 708.951 2.78289 -3.43523 0
M  V30 7583 N 708.01 1.57248 0.105221 0
M  V30 7584 C 709.235 1.90143 0.828264 0
M  V30 7585 C 709.66 0.761811 1.71983 0
M  V30 7586 O 709.018 -0.287086 1.79013 0
M  V30 7587 C 709.066 3.21856 1.62608 0
M  V30 7588 O 708.17 3.08732 2.7342 0
M  V30 7589 H 707.511 0.623558 0.228192 0
M  V30 7590 H 710.041 2.0443 0.0834826 0
M  V30 7591 H 710.051 3.54916 2.01243 0
M  V30 7592 H 708.726 4.0439 0.971687 0
M  V30 7593 H 707.303 2.87167 2.37886 0
M  V30 7594 N 709.488 -0.375779 1.53054 0
M  V30 7595 C 710.398 -1.48381 1.81715 0
M  V30 7596 C 711.414 -1.59087 0.704795 0
M  V30 7597 O 712.59 -1.75174 0.993785 0
M  V30 7598 C 709.655 -2.83767 1.99192 0
M  V30 7599 C 708.716 -2.82673 3.23102 0
M  V30 7600 C 707.949 -4.11601 3.39736 0
M  V30 7601 O 708.172 -5.07243 2.60885 0
M  V30 7602 O 707.106 -4.18034 4.33049 0
M  V30 7603 H 710.932 -1.27089 2.7583 0
M  V30 7604 H 708.517 -0.564902 1.38308 0
M  V30 7605 H 710.399 -3.64004 2.12318 0
M  V30 7606 H 709.074 -3.05057 1.08267 0
M  V30 7607 H 707.981 -2.0117 3.15407 0
M  V30 7608 H 709.314 -2.66335 4.13916 0
M  V30 7609 N 710.966 -1.44241 -0.634997 0
M  V30 7610 C 712.212 -1.47038 -1.39669 0
M  V30 7611 C 712.545 -0.101122 -1.93937 0
M  V30 7612 O 711.82 0.880699 -1.73418 0
M  V30 7613 C 712.103 -2.52763 -2.56482 0
M  V30 7614 C 711.956 -3.99032 -2.07589 0
M  V30 7615 C 713.275 -2.55031 -3.58674 0
M  V30 7616 H 710.394 -0.53537 -0.506506 0
M  V30 7617 H 713.036 -1.75898 -0.718317 0
M  V30 7618 H 711.186 -2.28284 -3.14354 0
M  V30 7619 H 712.858 -4.3463 -1.54577 0
M  V30 7620 H 711.101 -4.10994 -1.38804 0
M  V30 7621 H 711.772 -4.68649 -2.91671 0
M  V30 7622 H 714.248 -2.76893 -3.10595 0
M  V30 7623 H 713.124 -3.30916 -4.37934 0
M  V30 7624 H 713.385 -1.59085 -4.12486 0
M  V30 7625 N 712.444 0.87505 -1.31075 0
M  V30 7626 C 713.354 2.01441 -1.20244 0
M  V30 7627 C 714.37 1.73584 -0.120227 0
M  V30 7628 O 715.546 1.98559 -0.337063 0
M  V30 7629 C 712.611 3.34675 -0.905199 0
M  V30 7630 C 711.672 3.75889 -2.0738 0
M  V30 7631 C 710.905 5.02764 -1.79064 0
M  V30 7632 O 711.128 5.65795 -0.723318 0
M  V30 7633 O 710.062 5.40623 -2.64594 0
M  V30 7634 H 713.888 2.13509 -2.1598 0
M  V30 7635 H 711.473 1.00257 -1.10765 0
M  V30 7636 H 713.355 4.1458 -0.755057 0
M  V30 7637 H 712.03 3.23692 0.0221695 0
M  V30 7638 H 710.937 2.96645 -2.27931 0
M  V30 7639 H 712.27 3.91489 -2.98324 0
M  V30 7640 N 713.922 1.13953 1.08869 0
M  V30 7641 C 714.885 0.824991 2.13838 0
M  V30 7642 C 715.885 -0.168198 1.59918 0
M  V30 7643 O 717.075 0.0595778 1.74098 0
M  V30 7644 C 714.207 0.228938 3.4013 0
M  V30 7645 H 715.4 1.75521 2.43171 0
M  V30 7646 H 712.953 0.94492 1.24503 0
M  V30 7647 H 713.688 -0.710227 3.16427 0
M  V30 7648 H 713.473 0.944243 3.80561 0
M  V30 7649 H 714.963 0.0259223 4.17592 0
M  V30 7650 N 715.4 -1.26948 0.933913 0
M  V30 7651 C 716.646 -1.94374 0.57848 0
M  V30 7652 C 716.979 -1.73166 -0.879048 0
M  V30 7653 O 716.254 -1.06438 -1.62792 0
M  V30 7654 C 716.537 -3.4834 0.912739 0
M  V30 7655 C 716.39 -3.78866 2.42448 0
M  V30 7656 C 717.709 -4.38062 0.423003 0
M  V30 7657 H 714.828 -0.705959 0.211639 0
M  V30 7658 H 717.47 -1.49951 1.16682 0
M  V30 7659 H 715.62 -3.86309 0.412058 0
M  V30 7660 H 717.292 -3.50654 2.99733 0
M  V30 7661 H 715.535 -3.25198 2.87104 0
M  V30 7662 H 716.206 -4.86458 2.60887 0
M  V30 7663 H 718.682 -4.0728 0.852191 0
M  V30 7664 H 717.558 -5.44599 0.685776 0
M  V30 7665 H 717.819 -4.36886 -0.676994 0
M  V30 7666 N 716.879 -0.700114 -1.41195 0
M  V30 7667 C 717.809 -0.0521132 -2.33442 0
M  V30 7668 C 718.79 0.76228 -1.52063 0
M  V30 7669 O 719.975 0.714336 -1.80585 0
M  V30 7670 C 717.105 0.881693 -3.35922 0
M  V30 7671 C 716.059 0.174062 -4.27646 0
M  V30 7672 C 715.385 1.22254 -5.20536 0
M  V30 7673 C 716.685 -0.962396 -5.13357 0
M  V30 7674 H 718.379 -0.822574 -2.87879 0
M  V30 7675 H 715.925 -0.397011 -1.38419 0
M  V30 7676 H 717.878 1.34429 -3.99383 0
M  V30 7677 H 716.602 1.68387 -2.79845 0
M  V30 7678 H 715.261 -0.268551 -3.65615 0
M  V30 7679 H 714.909 2.01736 -4.60773 0
M  V30 7680 H 714.609 0.754038 -5.82742 0
M  V30 7681 H 716.133 1.68555 -5.86874 0
M  V30 7682 H 717.547 -0.579875 -5.7036 0
M  V30 7683 H 715.944 -1.35828 -5.84526 0
M  V30 7684 H 717.014 -1.80003 -4.50252 0
M  V30 7685 N 718.357 1.51182 -0.445186 0
M  V30 7686 C 719.582 2.07056 0.119445 0
M  V30 7687 C 720.007 1.30966 1.35016 0
M  V30 7688 O 719.365 0.349827 1.77893 0
M  V30 7689 C 719.413 3.58234 0.412428 0
M  V30 7690 O 718.517 3.84249 1.49754 0
M  V30 7691 H 717.858 0.663998 -0.00157797 0
M  V30 7692 H 720.388 1.94699 -0.628779 0
M  V30 7693 H 720.398 4.02617 0.660583 0
M  V30 7694 H 719.073 4.13038 -0.487049 0
M  V30 7695 H 717.65 3.51724 1.23873 0
M  V30 7696 N 719.835 0.176821 1.56605 0
M  V30 7697 C 720.767 -0.782836 2.15417 0
M  V30 7698 C 721.78 -1.18982 1.11117 0
M  V30 7699 O 722.969 -1.12872 1.38283 0
M  V30 7700 C 720.069 -2.06596 2.68647 0
M  V30 7701 C 719.242 -1.82167 3.9766 0
M  V30 7702 C 718.301 -2.94751 4.35899 0
M  V30 7703 O 717.327 -2.65148 5.03672 0
M  V30 7704 N 718.529 -4.2267 3.97907 0
M  V30 7705 H 721.294 -0.280012 2.98389 0
M  V30 7706 H 718.855 -0.00577529 1.61899 0
M  V30 7707 H 720.847 -2.81018 2.91223 0
M  V30 7708 H 719.417 -2.48054 1.90232 0
M  V30 7709 H 718.637 -0.916208 3.83405 0
M  V30 7710 H 719.925 -1.6322 4.81909 0
M  V30 7711 H 719.323 -4.4958 3.43357 0
M  V30 7712 H 717.88 -4.93778 4.25472 0
M  V30 7713 N 721.313 -1.57302 -0.09688 0
M  V30 7714 C 722.26 -2.01933 -1.11766 0
M  V30 7715 C 723.23 -0.895329 -1.39904 0
M  V30 7716 O 724.415 -1.16119 -1.51397 0
M  V30 7717 C 721.555 -2.44726 -2.43317 0
M  V30 7718 C 720.668 -3.70639 -2.21925 0
M  V30 7719 C 719.803 -4.02318 -3.46862 0
M  V30 7720 C 718.842 -5.21346 -3.20725 0
M  V30 7721 N 717.979 -5.48787 -4.37924 0
M  V30 7722 H 722.819 -2.88919 -0.730075 0
M  V30 7723 H 720.356 -1.42901 -0.348962 0
M  V30 7724 H 722.314 -2.6758 -3.20088 0
M  V30 7725 H 720.944 -1.60753 -2.79926 0
M  V30 7726 H 719.996 -3.55271 -1.35965 0
M  V30 7727 H 721.308 -4.57557 -1.98603 0
M  V30 7728 H 720.462 -4.25939 -4.32042 0
M  V30 7729 H 719.201 -3.13918 -3.73238 0
M  V30 7730 H 718.206 -4.97547 -2.33938 0
M  V30 7731 H 719.431 -6.11343 -2.95697 0
M  V30 7732 H 717.377 -4.63346 -4.64378 0
M  V30 7733 H 717.294 -6.30073 -4.17785 0
M  V30 7734 H 718.562 -5.76943 -5.24173 0
M  V30 7735 N 722.791 0.367657 -1.53252 0
M  V30 7736 C 723.701 1.47415 -1.82499 0
M  V30 7737 C 724.717 1.58711 -0.713222 0
M  V30 7738 O 725.893 1.74644 -1.00306 0
M  V30 7739 C 722.958 2.82706 -2.00694 0
M  V30 7740 C 722.019 2.80955 -3.24596 0
M  V30 7741 C 721.252 4.09793 -3.41914 0
M  V30 7742 O 721.475 5.05852 -2.63572 0
M  V30 7743 O 720.409 4.15731 -4.3526 0
M  V30 7744 H 724.235 1.25624 -2.765 0
M  V30 7745 H 721.82 0.557559 -1.38606 0
M  V30 7746 H 723.702 3.62873 -2.14246 0
M  V30 7747 H 722.377 3.04479 -1.09883 0
M  V30 7748 H 721.284 1.99494 -3.16469 0
M  V30 7749 H 722.617 2.64136 -4.15323 0
M  V30 7750 N 724.269 1.44576 0.627338 0
M  V30 7751 C 725.515 1.47777 1.38888 0
M  V30 7752 C 725.848 0.111406 1.9388 0
M  V30 7753 O 725.123 -0.87149 1.73883 0
M  V30 7754 C 725.406 2.54119 2.55138 0
M  V30 7755 C 725.259 4.00128 2.0547 0
M  V30 7756 C 726.578 2.56929 3.57317 0
M  V30 7757 H 723.697 0.538048 0.50366 0
M  V30 7758 H 726.339 1.76277 0.708978 0
M  V30 7759 H 724.489 2.29948 3.13139 0
M  V30 7760 H 726.161 4.35444 1.5227 0
M  V30 7761 H 724.404 4.11724 1.36623 0
M  V30 7762 H 725.075 4.7019 2.89181 0
M  V30 7763 H 727.551 2.78536 3.09122 0
M  V30 7764 H 726.427 3.33234 4.36173 0
M  V30 7765 H 726.688 1.6127 4.11636 0
M  V30 7766 N 725.747 -0.868086 1.31537 0
M  V30 7767 C 726.657 -2.00801 1.21311 0
M  V30 7768 C 727.673 -1.73518 0.129431 0
M  V30 7769 O 728.849 -1.98378 0.347588 0
M  V30 7770 C 725.914 -3.3419 0.922935 0
M  V30 7771 C 724.975 -3.74783 2.0937 0
M  V30 7772 C 724.208 -5.01807 1.81728 0
M  V30 7773 O 724.431 -5.65404 0.753313 0
M  V30 7774 O 723.365 -5.39213 2.67457 0
M  V30 7775 H 727.191 -2.12361 2.17109 0
M  V30 7776 H 724.776 -0.996684 1.11295 0
M  V30 7777 H 726.658 -4.14174 0.777033 0
M  V30 7778 H 725.333 -3.237 -0.00500301 0
M  V30 7779 H 724.24 -2.95432 2.29501 0
M  V30 7780 H 725.573 -3.89902 3.00396 0
M  V30 7781 N 727.225 -1.14528 -1.08264 0
M  V30 7782 C 728.155 -0.856356 -2.1723 0
M  V30 7783 C 729.136 0.189251 -1.69044 0
M  V30 7784 O 730.321 0.0456119 -1.94146 0
M  V30 7785 C 727.451 -0.334662 -3.45684 0
M  V30 7786 C 726.405 -1.31588 -4.0727 0
M  V30 7787 C 725.731 -0.653428 -5.30692 0
M  V30 7788 C 727.031 -2.67866 -4.48381 0
M  V30 7789 H 728.725 -1.76755 -2.41657 0
M  V30 7790 H 726.271 -0.851287 -1.16143 0
M  V30 7791 H 728.224 -0.120128 -4.21229 0
M  V30 7792 H 726.948 0.611967 -3.20815 0
M  V30 7793 H 725.607 -1.51661 -3.33758 0
M  V30 7794 H 725.255 0.299054 -5.0211 0
M  V30 7795 H 724.955 -1.30817 -5.72853 0
M  V30 7796 H 726.479 -0.448453 -6.08951 0
M  V30 7797 H 727.893 -2.51692 -5.15096 0
M  V30 7798 H 726.29 -3.29627 -5.01464 0
M  V30 7799 H 727.36 -3.24632 -3.60198 0
M  V30 7800 N 728.703 1.26451 -0.940633 0
M  V30 7801 C 729.65 2.264 -0.448497 0
M  V30 7802 C 730.62 1.5866 0.491546 0
M  V30 7803 O 731.805 1.86389 0.407874 0
M  V30 7804 C 728.945 3.43956 0.280715 0
M  V30 7805 C 728.058 4.26374 -0.694937 0
M  V30 7806 C 727.193 5.31171 0.0554186 0
M  V30 7807 C 726.232 6.05266 -0.912091 0
M  V30 7808 N 725.369 7.01833 -0.193524 0
M  V30 7809 H 730.209 2.67869 -1.30576 0
M  V30 7810 H 727.746 1.31707 -0.655112 0
M  V30 7811 H 729.704 4.10941 0.71994 0
M  V30 7812 H 728.334 3.03403 1.10212 0
M  V30 7813 H 727.386 3.59183 -1.25267 0
M  V30 7814 H 728.698 4.77748 -1.43382 0
M  V30 7815 H 727.852 6.04166 0.553951 0
M  V30 7816 H 726.591 4.80634 0.827183 0
M  V30 7817 H 725.596 5.31099 -1.42175 0
M  V30 7818 H 726.821 6.57893 -1.68385 0
M  V30 7819 H 724.767 6.53607 0.559758 0
M  V30 7820 H 724.684 7.50957 -0.871744 0
M  V30 7821 H 725.952 7.78983 0.283932 0
M  V30 7822 N 730.181 0.707592 1.40822 0
M  V30 7823 C 731.144 0.0587224 2.29125 0
M  V30 7824 C 732.144 -0.695624 1.44975 0
M  V30 7825 O 733.334 -0.528718 1.65983 0
M  V30 7826 C 730.466 -0.926939 3.28056 0
M  V30 7827 H 731.659 0.836349 2.88002 0
M  V30 7828 H 729.212 0.471778 1.4901 0
M  V30 7829 H 729.947 -1.7319 2.74182 0
M  V30 7830 H 729.732 -0.389015 3.90165 0
M  V30 7831 H 731.222 -1.37837 3.94196 0
M  V30 7832 N 731.66 -1.50943 0.453197 0
M  V30 7833 C 732.885 -2.07116 -0.108463 0
M  V30 7834 C 733.31 -1.31681 -1.3432 0
M  V30 7835 O 732.668 -0.359256 -1.77705 0
M  V30 7836 C 732.716 -3.58447 -0.393424 0
M  V30 7837 O 731.82 -3.85038 -1.47714 0
M  V30 7838 H 731.161 -0.66398 0.0050993 0
M  V30 7839 H 733.691 -1.94362 0.639095 0
M  V30 7840 H 733.701 -4.02961 -0.639222 0
M  V30 7841 H 732.376 -4.12774 0.508946 0
M  V30 7842 H 730.953 -3.52376 -1.22006 0
M  V30 7843 N 733.138 -0.185124 -1.56509 0
M  V30 7844 C 734.048 0.751908 -2.22224 0
M  V30 7845 C 735.064 1.24244 -1.21817 0
M  V30 7846 O 736.24 1.29169 -1.54523 0
M  V30 7847 C 733.305 1.95837 -2.86092 0
M  V30 7848 C 732.366 1.51337 -4.01741 0
M  V30 7849 C 731.599 2.66233 -4.62554 0
M  V30 7850 O 731.822 3.8346 -4.22273 0
M  V30 7851 O 730.756 2.39517 -5.52191 0
M  V30 7852 H 734.582 0.222304 -3.02885 0
M  V30 7853 H 732.167 0.0437141 -1.49336 0
M  V30 7854 H 734.049 2.66368 -3.26536 0
M  V30 7855 H 732.724 2.47677 -2.08417 0
M  V30 7856 H 731.631 0.777155 -3.65939 0
M  V30 7857 H 732.964 1.04175 -4.81049 0
M  V30 7858 N 734.616 1.57351 0.0885366 0
M  V30 7859 C 735.844 1.90631 0.804196 0
M  V30 7860 C 736.259 0.779474 1.71958 0
M  V30 7861 O 735.616 -0.248179 1.80805 0
M  V30 7862 C 735.667 3.23568 1.61202 0
M  V30 7863 O 735.388 4.31917 0.733447 0
M  V30 7864 C 736.889 3.70753 2.43016 0
M  V30 7865 H 734.109 0.630501 0.229585 0
M  V30 7866 H 736.653 2.044 0.0638092 0
M  V30 7867 H 734.808 3.11377 2.30485 0
M  V30 7868 H 735.222 5.08297 1.29361 0
M  V30 7869 H 736.696 4.66447 2.9518 0
M  V30 7870 H 737.173 2.98922 3.2178 0
M  V30 7871 H 737.779 3.85834 1.7892 0
M  V30 7872 N 736.094 -0.359525 1.53444 0
M  V30 7873 C 737.026 -1.46098 1.76602 0
M  V30 7874 C 738.039 -1.49395 0.646912 0
M  V30 7875 O 739.228 -1.52765 0.923307 0
M  V30 7876 C 736.328 -2.84836 1.83635 0
M  V30 7877 C 735.501 -3.05164 3.13358 0
M  V30 7878 C 734.56 -4.24051 3.11556 0
M  V30 7879 O 733.586 -4.18935 3.85334 0
M  V30 7880 N 734.788 -5.31775 2.328 0
M  V30 7881 H 737.553 -1.2661 2.71643 0
M  V30 7882 H 735.114 -0.549294 1.52297 0
M  V30 7883 H 737.106 -3.62516 1.799 0
M  V30 7884 H 735.676 -2.97542 0.958509 0
M  V30 7885 H 734.896 -2.15091 3.30348 0
M  V30 7886 H 736.184 -3.15619 3.99076 0
M  V30 7887 H 735.582 -5.38796 1.7238 0
M  V30 7888 H 734.139 -6.0801 2.34877 0
M  V30 7889 N 737.572 -1.44907 -0.619662 0
M  V30 7890 C 738.988 -1.29046 -0.939107 0
M  V30 7891 C 739.188 -0.23462 -2.00129 0
M  V30 7892 O 738.244 0.37558 -2.49691 0
M  V30 7893 C 739.557 -2.66567 -1.39149 0
M  V30 7894 C 741.105 -2.74368 -1.50635 0
M  V30 7895 C 741.58 -4.12386 -1.99253 0
M  V30 7896 N 743.071 -4.1462 -2.06506 0
M  V30 7897 C 743.806 -5.18272 -2.4532 0
M  V30 7898 N 743.302 -6.32278 -2.83189 0
M  V30 7899 N 745.095 -5.05628 -2.45554 0
M  V30 7900 H 737.246 -2.12239 0.0826135 0
M  V30 7901 H 739.509 -0.947652 -0.0256829 0
M  V30 7902 H 739.215 -3.4496 -0.685254 0
M  V30 7903 H 739.089 -2.94224 -2.36034 0
M  V30 7904 H 741.476 -1.96287 -2.20353 0
M  V30 7905 H 741.557 -2.50439 -0.520963 0
M  V30 7906 H 741.201 -4.90947 -1.30127 0
M  V30 7907 H 741.131 -4.33699 -2.98684 0
M  V30 7908 H 743.622 -3.32343 -1.79878 0
M  V30 7909 H 743.935 -7.07172 -3.11652 0
M  V30 7910 H 742.28 -6.35699 -2.80913 0
M  V30 7911 H 745.471 -4.15613 -2.15367 0
M  V30 7912 H 745.644 -5.86529 -2.75478 0
M  V30 7913 N 739.05 0.861098 -1.31996 0
M  V30 7914 C 740.275 1.65264 -1.2531 0
M  V30 7915 C 740.7 1.87265 0.177007 0
M  V30 7916 O 740.058 1.4208 1.12619 0
M  V30 7917 C 740.106 2.99284 -2.0115 0
M  V30 7918 O 739.21 3.89508 -1.3549 0
M  V30 7919 H 738.551 0.50409 -0.432192 0
M  V30 7920 H 741.081 1.07297 -1.74208 0
M  V30 7921 H 741.091 3.49154 -2.11081 0
M  V30 7922 H 739.766 2.82591 -3.05148 0
M  V30 7923 H 738.343 3.47966 -1.34066 0
M  V30 7924 N 740.528 1.15101 1.07655 0
M  V30 7925 C 741.458 0.867864 2.16773 0
M  V30 7926 C 742.439 -0.180283 1.69142 0
M  V30 7927 O 743.624 -0.0353152 1.94168 0
M  V30 7928 C 740.754 0.35299 3.45501 0
M  V30 7929 C 739.708 1.33746 4.06566 0
M  V30 7930 C 739.034 0.681562 5.30338 0
M  V30 7931 C 740.334 2.7024 4.46954 0
M  V30 7932 H 742.028 1.78034 2.40716 0
M  V30 7933 H 739.574 0.857435 1.15689 0
M  V30 7934 H 741.527 0.142465 4.21159 0
M  V30 7935 H 740.251 -0.594945 3.21135 0
M  V30 7936 H 738.91 1.53429 3.32949 0
M  V30 7937 H 738.558 -0.272422 5.02262 0
M  V30 7938 H 738.258 1.33853 5.72151 0
M  V30 7939 H 739.782 0.48074 6.08705 0
M  V30 7940 H 741.196 2.5442 5.13754 0
M  V30 7941 H 739.593 3.32282 4.99709 0
M  V30 7942 H 740.663 3.26537 3.58471 0
M  V30 7943 N 742.006 -1.2595 0.947325 0
M  V30 7944 C 742.936 -2.28521 0.479604 0
M  V30 7945 C 743.917 -1.63469 -0.470293 0
M  V30 7946 O 745.102 -1.90627 -0.370824 0
M  V30 7947 C 742.232 -3.46397 -0.250289 0
M  V30 7948 C 741.186 -4.23578 0.613643 0
M  V30 7949 C 740.512 -5.34131 -0.246568 0
M  V30 7950 C 741.812 -4.86979 1.88809 0
M  V30 7951 H 743.506 -2.67895 1.33688 0
M  V30 7952 H 741.052 -1.28783 0.644274 0
M  V30 7953 H 743.005 -4.17269 -0.588576 0
M  V30 7954 H 741.729 -3.05993 -1.14175 0
M  V30 7955 H 740.388 -3.54478 0.93491 0
M  V30 7956 H 740.036 -4.89968 -1.13756 0
M  V30 7957 H 739.736 -5.86683 0.328123 0
M  V30 7958 H 741.26 -6.07839 -0.579986 0
M  V30 7959 H 742.674 -5.50034 1.61666 0
M  V30 7960 H 741.071 -5.49675 2.40784 0
M  V30 7961 H 742.141 -4.09575 2.5957 0
M  V30 7962 N 743.484 -0.715051 -1.40445 0
M  V30 7963 C 744.394 -0.0631624 -2.34515 0
M  V30 7964 C 745.41 0.744397 -1.57273 0
M  V30 7965 O 746.586 0.677475 -1.89663 0
M  V30 7966 C 743.651 0.847915 -3.36172 0
M  V30 7967 C 742.712 0.0303655 -4.29289 0
M  V30 7968 C 741.945 0.898051 -5.2609 0
M  V30 7969 O 742.168 2.13729 -5.28844 0
M  V30 7970 O 741.102 0.337328 -6.00954 0
M  V30 7971 H 744.928 -0.839078 -2.91879 0
M  V30 7972 H 742.513 -0.475527 -1.4163 0
M  V30 7973 H 744.395 1.3698 -3.98515 0
M  V30 7974 H 743.07 1.60299 -2.81222 0
M  V30 7975 H 741.977 -0.536573 -3.70232 0
M  V30 7976 H 743.31 -0.686474 -4.87389 0
M  V30 7977 N 744.962 1.50701 -0.461195 0
M  V30 7978 C 745.894 2.26124 0.374244 0
M  V30 7979 C 746.907 1.31064 0.965715 0
M  V30 7980 O 748.096 1.56647 0.855801 0
M  V30 7981 C 745.196 3.01996 1.5379 0
M  V30 7982 C 744.369 4.24336 1.06101 0
M  V30 7983 C 743.428 4.82585 2.09756 0
M  V30 7984 O 742.454 5.43775 1.68219 0
M  V30 7985 N 743.656 4.68712 3.42475 0
M  V30 7986 H 746.421 2.9846 -0.2723 0
M  V30 7987 H 743.982 1.59256 -0.291415 0
M  V30 7988 H 745.974 3.37846 2.22806 0
M  V30 7989 H 744.544 2.32521 2.08933 0
M  V30 7990 H 743.764 3.93707 0.197085 0
M  V30 7991 H 745.052 5.03678 0.720156 0
M  V30 7992 H 744.45 4.20026 3.78938 0
M  V30 7993 H 743.007 5.08858 4.07317 0
M  V30 7994 N 746.441 0.193421 1.56409 0
M  V30 7995 C 747.718 -0.493318 1.89277 0
M  V30 7996 C 748.098 -1.79765 1.10669 0
M  V30 7997 O 747.446 -2.27558 0.207274 0
M  V30 7998 C 747.656 -0.713732 3.41624 0
M  V30 7999 C 749.004 -1.03385 4.11821 0
M  V30 8000 O 750.028 -0.801511 3.47065 0
M  V30 8001 O 748.887 -1.47327 5.26267 0
M  V30 8002 H 745.981 -0.256973 0.786062 0
M  V30 8003 H 748.527 0.23351 1.68086 0
M  V30 8004 H 747.299 0.207446 3.9075 0
M  V30 8005 H 746.922 -1.49308 3.68501 0
M  V30 8006 N 747.919 -1.57396 -0.0801906 0
M  V30 8007 C 748.849 -2.06145 -1.09665 0
M  V30 8008 C 749.83 -0.953273 -1.40878 0
M  V30 8009 O 751.015 -1.22548 -1.50651 0
M  V30 8010 C 748.145 -2.49836 -2.41245 0
M  V30 8011 C 747.099 -3.64454 -2.24405 0
M  V30 8012 C 746.425 -3.94172 -3.61293 0
M  V30 8013 C 747.725 -4.94807 -1.67223 0
M  V30 8014 H 749.419 -2.91316 -0.691028 0
M  V30 8015 H 746.965 -1.40145 -0.330957 0
M  V30 8016 H 748.918 -2.82552 -3.12638 0
M  V30 8017 H 747.642 -1.61683 -2.83771 0
M  V30 8018 H 746.301 -3.32008 -1.55454 0
M  V30 8019 H 745.949 -3.03163 -4.01374 0
M  V30 8020 H 745.649 -4.71345 -3.50867 0
M  V30 8021 H 747.173 -4.29376 -4.3413 0
M  V30 8022 H 748.587 -5.25807 -2.28472 0
M  V30 8023 H 746.984 -5.76245 -1.67515 0
M  V30 8024 H 748.054 -4.80751 -0.632944 0
M  V30 8025 N 749.397 0.351382 -1.53633 0
M  V30 8026 C 750.36 1.41403 -1.80383 0
M  V30 8027 C 751.36 1.45963 -0.674635 0
M  V30 8028 O 752.55 1.46476 -0.942895 0
M  V30 8029 C 749.682 2.80401 -1.93876 0
M  V30 8030 H 750.875 1.18951 -2.75301 0
M  V30 8031 H 748.428 0.58533 -1.44926 0
M  V30 8032 H 749.163 3.08147 -1.01074 0
M  V30 8033 H 748.948 2.78488 -2.7602 0
M  V30 8034 H 750.438 3.57329 -2.16116 0
M  V30 8035 N 750.875 1.45233 0.611969 0
M  V30 8036 C 752.103 1.52539 1.39784 0
M  V30 8037 C 752.518 0.156533 1.8815 0
M  V30 8038 O 751.875 -0.84112 1.61961 0
M  V30 8039 C 751.926 2.50614 2.60528 0
M  V30 8040 O 751.647 3.8218 2.14173 0
M  V30 8041 C 753.148 2.67574 3.53439 0
M  V30 8042 H 750.368 0.51674 0.428043 0
M  V30 8043 H 752.912 1.90379 0.746727 0
M  V30 8044 H 751.067 2.15858 3.2169 0
M  V30 8045 H 751.481 4.35305 2.92592 0
M  V30 8046 H 752.955 3.40184 4.34717 0
M  V30 8047 H 753.432 1.73458 4.03496 0
M  V30 8048 H 754.038 3.0331 2.98133 0
M  V30 8049 N 752.353 -0.854086 1.3245 0
M  V30 8050 C 753.583 -1.63836 1.25862 0
M  V30 8051 C 753.991 -1.88383 -0.175588 0
M  V30 8052 O 753.334 -1.45353 -1.1233 0
M  V30 8053 C 753.396 -3.02068 1.94923 0
M  V30 8054 C 753.06 -3.0056 3.44257 0
M  V30 8055 C 754.057 -2.77368 4.39731 0
M  V30 8056 C 751.742 -3.21177 3.862 0
M  V30 8057 C 753.736 -2.74797 5.75122 0
M  V30 8058 C 751.423 -3.18234 5.217 0
M  V30 8059 C 752.421 -2.95072 6.15972 0
M  V30 8060 O 752.109 -2.92003 7.48992 0
M  V30 8061 H 751.841 -0.517007 0.435523 0
M  V30 8062 H 754.395 -1.07314 1.75137 0
M  V30 8063 H 752.625 -3.60382 1.40219 0
M  V30 8064 H 754.314 -3.62791 1.82037 0
M  V30 8065 H 755.08 -2.61205 4.08653 0
M  V30 8066 H 750.959 -3.38231 3.13243 0
M  V30 8067 H 754.503 -2.56638 6.48678 0
M  V30 8068 H 750.4 -3.33941 5.52407 0
M  V30 8069 H 751.168 -3.07953 7.58358 0
M  V30 8070 N 753.831 -1.1567 -1.07043 0
M  V30 8071 C 755.08 -0.928039 -1.79082 0
M  V30 8072 C 755.393 0.545968 -1.87826 0
M  V30 8073 O 756.599 0.892308 -2.56418 0
M  V30 8074 C 755.055 -1.61103 -3.21829 0
M  V30 8075 C 754.663 -3.12228 -3.21275 0
M  V30 8076 C 756.407 -1.46404 -3.98455 0
M  V30 8077 C 754.314 -3.733 -4.58695 0
M  V30 8078 H 753.244 -0.34357 -0.671175 0
M  V30 8079 H 755.895 -1.38718 -1.20123 0
M  V30 8080 H 754.277 -1.07958 -3.81 0
M  V30 8081 H 755.451 -3.72155 -2.71731 0
M  V30 8082 H 753.766 -3.26725 -2.58147 0
M  V30 8083 H 756.363 -1.8942 -5.00024 0
M  V30 8084 H 756.706 -0.41195 -4.14257 0
M  V30 8085 H 757.239 -1.96663 -3.45787 0
M  V30 8086 H 753.978 -4.78423 -4.48098 0
M  V30 8087 H 753.498 -3.18157 -5.08465 0
M  V30 8088 H 755.177 -3.7441 -5.27661 0
M  V30 8089 N 755.309 1.25446 -0.953992 0
M  V30 8090 C 756.537 1.97215 -0.625595 0
M  V30 8091 C 756.952 1.70911 0.802168 0
M  V30 8092 O 756.309 0.984782 1.5365 0
M  V30 8093 C 756.36 3.50777 -0.873943 0
M  V30 8094 O 756.081 3.76173 -2.24556 0
M  V30 8095 C 757.582 4.39776 -0.557845 0
M  V30 8096 H 754.802 0.628652 -0.2346 0
M  V30 8097 H 757.346 1.59632 -1.27819 0
M  V30 8098 H 755.501 3.86474 -0.267765 0
M  V30 8099 H 755.915 4.70636 -2.31522 0
M  V30 8100 H 757.389 5.46431 -0.782157 0
M  V30 8101 H 757.866 4.36257 0.507573 0
M  V30 8102 H 758.472 4.09644 -1.14332 0
M  V30 8103 N 756.787 0.722489 1.40064 0
M  V30 8104 C 757.697 0.0755984 2.34478 0
M  V30 8105 C 758.713 -0.736046 1.57665 0
M  V30 8106 O 759.889 -0.667407 1.9002 0
M  V30 8107 C 756.954 -0.830075 3.36616 0
M  V30 8108 C 756.015 -0.00759884 4.29299 0
M  V30 8109 C 755.248 -0.870139 5.26559 0
M  V30 8110 O 755.471 -2.10921 5.2997 0
M  V30 8111 O 754.405 -0.305454 6.01124 0
M  V30 8112 H 758.231 0.854545 2.9143 0
M  V30 8113 H 755.816 0.483032 1.41376 0
M  V30 8114 H 757.698 -1.34864 3.99236 0
M  V30 8115 H 756.373 -1.58805 2.82069 0
M  V30 8116 H 755.28 0.556199 3.69942 0
M  V30 8117 H 756.613 0.712312 4.87018 0
M  V30 8118 N 758.265 -1.50454 0.469181 0
M  V30 8119 C 759.505 -2.04222 -0.0852381 0
M  V30 8120 C 759.869 -1.34357 -1.37158 0
M  V30 8121 O 761.07 -1.78669 -2.00825 0
M  V30 8122 C 759.341 -3.56403 -0.266778 0
M  V30 8123 S 760.9 -4.31811 -0.780028 0
M  V30 8124 H 757.718 -0.7108 -0.0168589 0
M  V30 8125 H 760.32 -1.8487 0.635883 0
M  V30 8126 H 759.024 -4.04807 0.67525 0
M  V30 8127 H 758.555 -3.80106 -1.01407 0
M  V30 8128 H 760.57 -4.51706 -2.05368 0
M  V30 8129 N 759.743 -0.201713 -1.56304 0
M  V30 8130 C 760.968 0.443815 -2.02596 0
M  V30 8131 C 761.393 1.53945 -1.08086 0
M  V30 8132 O 760.751 1.81182 -0.0655056 0
M  V30 8133 C 760.799 0.971066 -3.47279 0
M  V30 8134 O 759.903 2.0836 -3.55893 0
M  V30 8135 H 759.244 0.10294 -0.655972 0
M  V30 8136 H 761.774 -0.314533 -2.02168 0
M  V30 8137 H 761.784 1.28598 -3.87204 0
M  V30 8138 H 760.459 0.169048 -4.15556 0
M  V30 8139 H 759.036 1.77683 -3.27846 0
M  V30 8140 N 761.222 1.57436 0.0718424 0
M  V30 8141 C 762.447 1.91858 0.787745 0
M  V30 8142 C 762.872 0.798119 1.70328 0
M  V30 8143 O 762.23 -0.24905 1.79581 0
M  V30 8144 C 762.278 3.25232 1.55744 0
M  V30 8145 O 761.382 3.14462 2.6681 0
M  V30 8146 H 760.723 0.628258 0.214914 0
M  V30 8147 H 763.253 2.04561 0.0401012 0
M  V30 8148 H 763.263 3.59105 1.9367 0
M  V30 8149 H 761.938 4.0636 0.885691 0
M  V30 8150 H 760.515 2.92148 2.31741 0
M  V30 8151 N 762.7 -0.34323 1.53817 0
M  V30 8152 C 763.63 -1.42709 1.84814 0
M  V30 8153 C 764.611 -1.5488 0.703297 0
M  V30 8154 O 765.796 -1.69082 0.955237 0
M  V30 8155 C 762.926 -2.79756 2.05801 0
M  V30 8156 C 761.88 -2.82392 3.21619 0
M  V30 8157 C 761.206 -4.22326 3.2794 0
M  V30 8158 C 762.506 -2.479 4.59721 0
M  V30 8159 H 764.2 -1.17018 2.75585 0
M  V30 8160 H 761.746 -0.561485 1.32602 0
M  V30 8161 H 763.699 -3.55627 2.26069 0
M  V30 8162 H 762.423 -3.06883 1.11761 0
M  V30 8163 H 761.082 -2.08974 3.01207 0
M  V30 8164 H 760.73 -4.46564 2.31494 0
M  V30 8165 H 760.43 -4.25001 4.05768 0
M  V30 8166 H 761.954 -5.00039 3.50419 0
M  V30 8167 H 763.368 -3.13484 4.80001 0
M  V30 8168 H 761.765 -2.61857 5.39954 0
M  V30 8169 H 762.835 -1.43087 4.63308 0
M  V30 8170 N 764.178 -1.45556 -0.604258 0
M  V30 8171 C 765.125 -1.54482 -1.71476 0
M  V30 8172 C 766.095 -0.390479 -1.61445 0
M  V30 8173 O 767.28 -0.604371 -1.80975 0
M  V30 8174 C 764.42 -1.52064 -3.09791 0
M  V30 8175 C 763.533 -2.78073 -3.30604 0
M  V30 8176 C 762.668 -2.67304 -4.59044 0
M  V30 8177 C 761.707 -3.88352 -4.73127 0
M  V30 8178 N 760.844 -3.76098 -5.9287 0
M  V30 8179 H 765.684 -2.49349 -1.63184 0
M  V30 8180 H 763.221 -1.23725 -0.795641 0
M  V30 8181 H 765.179 -1.48649 -3.89819 0
M  V30 8182 H 763.809 -0.607442 -3.17033 0
M  V30 8183 H 762.861 -2.91561 -2.44329 0
M  V30 8184 H 764.173 -3.67847 -3.36883 0
M  V30 8185 H 763.327 -2.61875 -5.47272 0
M  V30 8186 H 762.066 -1.75135 -4.55169 0
M  V30 8187 H 761.071 -3.94137 -3.83322 0
M  V30 8188 H 762.296 -4.81591 -4.78797 0
M  V30 8189 H 760.242 -2.867 -5.90033 0
M  V30 8190 H 760.159 -4.59509 -6.00323 0
M  V30 8191 H 761.427 -3.74607 -6.83586 0
M  V30 8192 N 765.656 0.84705 -1.32902 0
M  V30 8193 C 767.072 1.13645 -1.12058 0
M  V30 8194 C 767.272 2.01281 0.093937 0
M  V30 8195 O 766.328 2.4026 0.776608 0
M  V30 8196 C 767.641 1.80644 -2.40392 0
M  V30 8197 C 769.189 1.93246 -2.46221 0
M  V30 8198 C 769.664 2.6366 -3.74496 0
M  V30 8199 N 771.155 2.71179 -3.75521 0
M  V30 8200 C 771.89 3.26332 -4.71482 0
M  V30 8201 N 771.386 3.82236 -5.77813 0
M  V30 8202 N 773.179 3.24507 -4.58968 0
M  V30 8203 H 765.33 0.263612 -2.10758 0
M  V30 8204 H 767.593 0.17944 -0.930863 0
M  V30 8205 H 767.299 1.23708 -3.29225 0
M  V30 8206 H 767.173 2.80736 -2.51926 0
M  V30 8207 H 769.56 2.49338 -1.57843 0
M  V30 8208 H 769.641 0.921272 -2.38634 0
M  V30 8209 H 769.285 2.08229 -4.63253 0
M  V30 8210 H 769.215 3.65234 -3.79357 0
M  V30 8211 H 771.706 2.31527 -2.9867 0
M  V30 8212 H 772.019 4.22499 -6.47082 0
M  V30 8213 H 770.364 3.80546 -5.81558 0
M  V30 8214 H 773.555 2.80085 -3.7506 0
M  V30 8215 H 773.728 3.67188 -5.33926 0
M  V30 8216 N 767.134 1.16236 1.06428 0
M  V30 8217 C 768.359 0.967688 1.83441 0
M  V30 8218 C 768.784 -0.479167 1.81894 0
M  V30 8219 O 768.142 -1.34224 1.21875 0
M  V30 8220 C 768.19 1.49806 3.2801 0
M  V30 8221 O 767.294 0.703481 4.06356 0
M  V30 8222 H 766.635 0.344468 0.56766 0
M  V30 8223 H 769.165 1.54442 1.34197 0
M  V30 8224 H 769.175 1.51495 3.78831 0
M  V30 8225 H 767.85 2.55133 3.2845 0
M  V30 8226 H 766.427 0.756986 3.65136 0
M  V30 8227 N 768.612 -1.24939 0.960631 0
M  V30 8228 C 769.542 -2.28 0.503815 0
M  V30 8229 C 770.523 -1.63959 -0.452928 0
M  V30 8230 O 771.708 -1.91009 -0.350585 0
M  V30 8231 C 768.838 -3.46643 -0.213535 0
M  V30 8232 C 767.792 -4.22903 0.658535 0
M  V30 8233 C 767.118 -5.34363 -0.189902 0
M  V30 8234 C 768.418 -4.84949 1.93963 0
M  V30 8235 H 770.112 -2.66462 1.36521 0
M  V30 8236 H 767.658 -1.28093 0.657897 0
M  V30 8237 H 769.611 -4.1787 -0.544286 0
M  V30 8238 H 768.335 -3.07187 -1.10923 0
M  V30 8239 H 766.994 -3.53467 0.972455 0
M  V30 8240 H 766.642 -4.91147 -1.08553 0
M  V30 8241 H 766.342 -5.86302 0.390331 0
M  V30 8242 H 767.866 -6.0842 -0.515484 0
M  V30 8243 H 769.28 -5.48288 1.67491 0
M  V30 8244 H 767.677 -5.47091 2.46601 0
M  V30 8245 H 768.747 -4.06799 2.639 0
M  V30 8246 N 770.09 -0.729906 -1.39679 0
M  V30 8247 C 771 -0.0880322 -2.34435 0
M  V30 8248 C 772.016 0.727674 -1.58053 0
M  V30 8249 O 773.192 0.657321 -1.90371 0
M  V30 8250 C 770.257 0.812211 -3.37052 0
M  V30 8251 C 769.318 -0.0151681 -4.29297 0
M  V30 8252 C 768.551 0.842202 -5.27013 0
M  V30 8253 O 768.774 2.08108 -5.31081 0
M  V30 8254 O 767.708 0.27357 -6.01278 0
M  V30 8255 H 771.534 -0.869989 -2.90972 0
M  V30 8256 H 769.119 -0.490522 -1.41118 0
M  V30 8257 H 771.001 1.32745 -3.99946 0
M  V30 8258 H 769.676 1.57307 -2.82907 0
M  V30 8259 H 768.583 -0.575811 -3.69642 0
M  V30 8260 H 769.916 -0.738129 -4.86634 0
M  V30 8261 N 771.568 1.50203 -0.477153 0
M  V30 8262 C 772.5 2.26508 0.350239 0
M  V30 8263 C 773.513 1.32081 0.95176 0
M  V30 8264 O 774.702 1.57546 0.839139 0
M  V30 8265 C 771.802 3.0361 1.50579 0
M  V30 8266 C 770.975 4.25438 1.01595 0
M  V30 8267 C 770.034 4.84783 2.04626 0
M  V30 8268 O 769.06 5.45528 1.62442 0
M  V30 8269 N 770.262 4.72318 3.37485 0
M  V30 8270 H 773.027 2.98155 -0.30394 0
M  V30 8271 H 770.588 1.58938 -0.308289 0
M  V30 8272 H 772.58 3.4019 2.1921 0
M  V30 8273 H 771.15 2.34724 2.06455 0
M  V30 8274 H 770.37 3.93894 0.155316 0
M  V30 8275 H 771.658 5.04413 0.666694 0
M  V30 8276 H 771.056 4.24022 3.74462 0
M  V30 8277 H 769.613 5.13149 4.01897 0
M  V30 8278 N 773.046 0.209999 1.56195 0
M  V30 8279 C 774.009 -0.691232 2.18528 0
M  V30 8280 C 775.009 -1.13013 1.14388 0
M  V30 8281 O 776.199 -1.04081 1.39688 0
M  V30 8282 C 773.331 -1.94551 2.79934 0
M  V30 8283 H 774.524 -0.147953 2.99535 0
M  V30 8284 H 772.077 -0.0396243 1.5625 0
M  V30 8285 H 772.812 -2.53094 2.02766 0
M  V30 8286 H 772.597 -1.63938 3.56184 0
M  V30 8287 H 774.087 -2.58785 3.2775 0
M  V30 8288 N 774.524 -1.57472 -0.0634922 0
M  V30 8289 C 775.94 -1.54016 -0.418466 0
M  V30 8290 C 776.14 -0.931376 -1.78683 0
M  V30 8291 O 775.196 -0.537465 -2.46714 0
M  V30 8292 C 776.509 -2.98634 -0.351906 0
M  V30 8293 C 778.057 -3.10012 -0.431494 0
M  V30 8294 C 778.532 -4.56296 -0.394754 0
M  V30 8295 N 780.023 -4.60964 -0.454583 0
M  V30 8296 C 780.758 -5.71643 -0.448501 0
M  V30 8297 N 780.254 -6.91663 -0.396742 0
M  V30 8298 N 782.047 -5.5991 -0.495677 0
M  V30 8299 H 774.198 -1.95409 0.832408 0
M  V30 8300 H 776.461 -0.894769 0.313197 0
M  V30 8301 H 776.167 -3.46766 0.587048 0
M  V30 8302 H 776.041 -3.58955 -1.15893 0
M  V30 8303 H 778.428 -2.61848 -1.36087 0
M  V30 8304 H 778.509 -2.52585 0.404258 0
M  V30 8305 H 778.153 -5.05119 0.530811 0
M  V30 8306 H 778.083 -5.11594 -1.24815 0
M  V30 8307 H 780.574 -3.74598 -0.498496 0
M  V30 8308 H 780.887 -7.71783 -0.396256 0
M  V30 8309 H 779.232 -6.9405 -0.363304 0
M  V30 8310 H 782.423 -4.65046 -0.533864 0
M  V30 8311 H 782.596 -6.46164 -0.487469 0
M  V30 8312 N 776.003 0.335068 -1.53997 0
M  V30 8313 C 776.936 1.43533 -1.77407 0
M  V30 8314 C 777.914 1.5017 -0.623529 0
M  V30 8315 O 779.098 1.67756 -0.85966 0
M  V30 8316 C 776.225 2.81712 -1.88033 0
M  V30 8317 C 775.271 2.92661 -3.10245 0
M  V30 8318 S 776.104 2.58254 -4.69111 0
M  V30 8319 C 777.26 3.98525 -4.82627 0
M  V30 8320 H 777.493 1.2346 -2.70453 0
M  V30 8321 H 775.026 0.531234 -1.44973 0
M  V30 8322 H 776.984 3.61314 -1.9484 0
M  V30 8323 H 775.645 2.99075 -0.959849 0
M  V30 8324 H 774.838 3.93931 -3.14379 0
M  V30 8325 H 774.44 2.21017 -3.01708 0
M  V30 8326 H 776.732 4.93146 -4.64557 0
M  V30 8327 H 777.675 3.9938 -5.84723 0
M  V30 8328 H 778.083 3.86945 -4.11016 0
M  V30 8329 N 777.481 1.45874 0.596531 0
M  V30 8330 C 778.391 1.57947 1.73464 0
M  V30 8331 C 779.407 0.463461 1.67714 0
M  V30 8332 O 780.583 0.725685 1.87872 0
M  V30 8333 C 777.648 1.55348 3.09948 0
M  V30 8334 C 776.709 2.78074 3.27068 0
M  V30 8335 C 775.942 2.75589 4.57041 0
M  V30 8336 O 776.165 1.83545 5.40063 0
M  V30 8337 O 775.099 3.66945 4.77111 0
M  V30 8338 H 778.925 2.54169 1.66228 0
M  V30 8339 H 776.51 1.2851 0.76194 0
M  V30 8340 H 778.392 1.56545 3.91244 0
M  V30 8341 H 777.067 0.622811 3.17652 0
M  V30 8342 H 775.974 2.82435 2.45319 0
M  V30 8343 H 777.307 3.70303 3.24248 0
M  V30 8344 N 778.959 -0.83999 1.33349 0
M  V30 8345 C 780.205 -1.59753 1.24927 0
M  V30 8346 C 780.538 -1.93318 -0.184855 0
M  V30 8347 O 779.813 -1.586 -1.12589 0
M  V30 8348 C 780.096 -2.90829 2.12345 0
M  V30 8349 C 779.949 -2.63953 3.6421 0
M  V30 8350 C 781.268 -3.92246 1.99577 0
M  V30 8351 H 778.387 -0.579654 0.45516 0
M  V30 8352 H 781.029 -0.968909 1.63439 0
M  V30 8353 H 779.179 -3.44478 1.79631 0
M  V30 8354 H 780.851 -2.16745 4.07209 0
M  V30 8355 H 779.094 -1.97671 3.86146 0
M  V30 8356 H 779.765 -3.57348 4.20721 0
M  V30 8357 H 782.241 -3.479 2.28265 0
M  V30 8358 H 781.117 -4.81793 2.62996 0
M  V30 8359 H 781.378 -4.3138 0.967673 0
M  V30 8360 N 780.437 -1.16799 -1.0581 0
M  V30 8361 C 781.662 -0.977402 -1.82925 0
M  V30 8362 C 782.087 0.469514 -1.82146 0
M  V30 8363 O 781.445 1.33576 -1.22585 0
M  V30 8364 C 781.493 -1.51543 -3.27211 0
M  V30 8365 O 780.597 -0.725021 -4.05977 0
M  V30 8366 H 779.938 -0.347474 -0.565825 0
M  V30 8367 H 782.468 -1.55151 -1.33376 0
M  V30 8368 H 782.478 -1.53502 -3.78023 0
M  V30 8369 H 781.153 -2.56872 -3.27093 0
M  V30 8370 H 779.73 -0.77634 -3.64729 0
M  V30 8371 N 781.915 1.24427 -0.967243 0
M  V30 8372 C 782.847 2.24641 -0.454856 0
M  V30 8373 C 783.86 1.56849 0.436152 0
M  V30 8374 O 785.049 1.76846 0.242401 0
M  V30 8375 C 782.149 3.36954 0.362672 0
M  V30 8376 C 781.322 4.34318 -0.518324 0
M  V30 8377 C 780.381 5.25638 0.243122 0
M  V30 8378 O 779.407 5.68043 -0.362791 0
M  V30 8379 N 780.609 5.59897 1.53282 0
M  V30 8380 H 783.374 2.69238 -1.31648 0
M  V30 8381 H 780.935 1.38464 -0.839015 0
M  V30 8382 H 782.927 3.95014 0.880094 0
M  V30 8383 H 781.497 2.91646 1.12522 0
M  V30 8384 H 780.717 3.74953 -1.21672 0
M  V30 8385 H 782.005 4.96338 -1.11919 0
M  V30 8386 H 781.403 5.27373 2.04682 0
M  V30 8387 H 779.96 6.20488 1.99594 0
M  V30 8388 N 783.393 0.737304 1.3929 0
M  V30 8389 C 784.303 0.100464 2.34385 0
M  V30 8390 C 785.319 -0.719282 1.58437 0
M  V30 8391 O 786.495 -0.647216 1.90717 0
M  V30 8392 C 783.56 -0.794325 3.37478 0
M  V30 8393 C 782.621 0.0379345 4.29283 0
M  V30 8394 C 781.854 -0.814241 5.27452 0
M  V30 8395 O 782.077 -2.05288 5.32177 0
M  V30 8396 O 781.011 -0.241679 6.01415 0
M  V30 8397 H 784.837 0.885407 2.90507 0
M  V30 8398 H 782.422 0.497999 1.40856 0
M  V30 8399 H 784.304 -1.30622 4.00644 0
M  V30 8400 H 782.979 -1.55804 2.83737 0
M  V30 8401 H 781.886 0.595405 3.69331 0
M  V30 8402 H 783.219 0.763926 4.86236 0
M  V30 8403 N 784.871 -1.49948 0.485112 0
M  V30 8404 C 786.148 -1.95186 -0.12726 0
M  V30 8405 C 786.528 -1.42605 -1.5565 0
M  V30 8406 O 785.876 -0.632986 -2.19558 0
M  V30 8407 C 786.086 -3.48955 -0.0562117 0
M  V30 8408 C 787.434 -4.23932 -0.238106 0
M  V30 8409 O 788.458 -3.55955 -0.132145 0
M  V30 8410 O 787.317 -5.44614 -0.453658 0
M  V30 8411 H 784.411 -0.820433 -0.104014 0
M  V30 8412 H 786.957 -1.60659 0.546517 0
M  V30 8413 H 785.729 -3.79814 0.941122 0
M  V30 8414 H 785.352 -3.90056 -0.770834 0
M  V30 8415 N 786.349 -0.21828 -1.56081 0
M  V30 8416 C 787.626 0.463143 -1.90038 0
M  V30 8417 C 788.006 1.77982 -1.13515 0
M  V30 8418 O 787.354 2.27199 -0.24345 0
M  V30 8419 C 787.564 0.659292 -3.42716 0
M  V30 8420 C 788.912 0.968203 -4.13414 0
M  V30 8421 O 789.936 0.746195 -3.48296 0
M  V30 8422 O 788.795 1.38936 -5.28544 0
M  V30 8423 H 785.889 0.244435 -0.790051 0
M  V30 8424 H 788.435 -0.260221 -1.67693 0
M  V30 8425 H 787.207 -0.269584 -3.9037 0
M  V30 8426 H 786.83 1.43426 -3.7083 0
M  V30 8427 N 787.827 1.57504 0.0551401 0
M  V30 8428 C 788.774 2.04825 1.06373 0
M  V30 8429 C 789.744 0.932108 1.37481 0
M  V30 8430 O 790.929 1.20093 1.48265 0
M  V30 8431 C 788.069 2.51091 2.36743 0
M  V30 8432 C 787.182 3.76392 2.12021 0
M  V30 8433 C 786.317 4.11373 3.36074 0
M  V30 8434 C 785.356 5.29666 3.0679 0
M  V30 8435 N 784.493 5.60205 4.2322 0
M  V30 8436 H 789.333 2.90753 0.653216 0
M  V30 8437 H 786.87 1.43776 0.310951 0
M  V30 8438 H 788.828 2.75973 3.12881 0
M  V30 8439 H 787.458 1.68118 2.75565 0
M  V30 8440 H 786.51 3.58751 1.26498 0
M  V30 8441 H 787.822 4.62662 1.86401 0
M  V30 8442 H 786.976 4.37245 4.20597 0
M  V30 8443 H 785.715 3.23704 3.64784 0
M  V30 8444 H 784.72 5.03574 2.20664 0
M  V30 8445 H 785.945 6.18968 2.79385 0
M  V30 8446 H 783.891 4.75495 4.5193 0
M  V30 8447 H 783.808 6.40928 4.00933 0
M  V30 8448 H 785.076 5.90637 5.08692 0
M  V30 8449 N 789.305 -0.326896 1.54172 0
M  V30 8450 C 790.268 -1.38515 1.8261 0
M  V30 8451 C 791.268 -1.44872 0.697771 0
M  V30 8452 O 792.458 -1.44957 0.966078 0
M  V30 8453 C 789.59 -2.77281 1.98313 0
M  V30 8454 H 790.783 -1.14556 2.77159 0
M  V30 8455 H 788.336 -0.562199 1.45839 0
M  V30 8456 H 789.071 -3.065 1.05964 0
M  V30 8457 H 788.856 -2.74061 2.80416 0
M  V30 8458 H 790.346 -3.53845 2.21773 0
M  V30 8459 N 790.784 -1.46188 -0.588786 0
M  V30 8460 C 791.714 -1.59148 -1.70863 0
M  V30 8461 C 792.695 -0.442083 -1.64255 0
M  V30 8462 O 793.88 -0.667575 -1.82365 0
M  V30 8463 C 791.01 -1.5757 -3.09498 0
M  V30 8464 C 789.964 -2.71418 -3.30932 0
M  V30 8465 C 789.29 -2.549 -4.70032 0
M  V30 8466 C 790.59 -4.1329 -3.19356 0
M  V30 8467 H 792.284 -2.52889 -1.60274 0
M  V30 8468 H 789.83 -1.21707 -0.769638 0
M  V30 8469 H 791.783 -1.65231 -3.87655 0
M  V30 8470 H 790.507 -0.603705 -3.20972 0
M  V30 8471 H 789.166 -2.63216 -2.55172 0
M  V30 8472 H 788.814 -1.55797 -4.78264 0
M  V30 8473 H 788.514 -3.31257 -4.85327 0
M  V30 8474 H 790.038 -2.64443 -5.50366 0
M  V30 8475 H 791.452 -4.22636 -3.87365 0
M  V30 8476 H 789.849 -4.90187 -3.46175 0
M  V30 8477 H 790.919 -4.33874 -2.16522 0
M  V30 8478 N 792.262 0.832906 -1.33792 0
M  V30 8479 C 793.194 1.95042 -1.2038 0
M  V30 8480 C 794.207 1.62253 -0.133299 0
M  V30 8481 O 795.396 1.74315 -0.384261 0
M  V30 8482 C 792.496 3.287 -0.825215 0
M  V30 8483 C 791.669 3.89581 -1.98861 0
M  V30 8484 C 790.728 5.01602 -1.59003 0
M  V30 8485 O 789.754 5.20431 -2.30522 0
M  V30 8486 N 790.956 5.78356 -0.498446 0
M  V30 8487 H 793.721 2.07083 -2.16649 0
M  V30 8488 H 791.282 1.00896 -1.26616 0
M  V30 8489 H 793.274 4.01074 -0.540559 0
M  V30 8490 H 791.844 3.12565 0.0469796 0
M  V30 8491 H 791.064 3.09723 -2.43856 0
M  V30 8492 H 792.352 4.26989 -2.76691 0
M  V30 8493 H 791.75 5.65618 0.0963297 0
M  V30 8494 H 790.307 6.51226 -0.273485 0
M  V30 8495 N 793.74 1.17359 1.05189 0
M  V30 8496 C 794.67 0.91365 2.14883 0
M  V30 8497 C 795.651 -0.144365 1.69486 0
M  V30 8498 O 796.836 0.00587861 1.94199 0
M  V30 8499 C 793.966 0.426196 3.44675 0
M  V30 8500 C 792.92 1.4234 4.03638 0
M  V30 8501 C 792.246 0.793902 5.28773 0
M  V30 8502 C 793.546 2.7966 4.41121 0
M  V30 8503 H 795.24 1.831 2.36885 0
M  V30 8504 H 792.786 0.881781 1.13845 0
M  V30 8505 H 794.739 0.231767 4.20762 0
M  V30 8506 H 793.463 -0.526693 3.22325 0
M  V30 8507 H 792.122 1.60457 3.2962 0
M  V30 8508 H 791.77 -0.165824 5.02727 0
M  V30 8509 H 791.47 1.45959 5.69183 0
M  V30 8510 H 792.994 0.609747 6.07548 0
M  V30 8511 H 794.408 2.6526 5.08242 0
M  V30 8512 H 792.805 3.42807 4.92548 0
M  V30 8513 H 793.875 3.34068 3.51464 0
M  V30 8514 N 795.218 -1.23913 0.973828 0
M  V30 8515 C 796.148 -2.27453 0.527969 0
M  V30 8516 C 797.129 -1.6443 -0.435513 0
M  V30 8517 O 798.314 -1.9137 -0.330306 0
M  V30 8518 C 795.444 -3.4685 -0.176757 0
M  V30 8519 C 794.398 -4.22181 0.703352 0
M  V30 8520 C 793.724 -5.34534 -0.133215 0
M  V30 8521 C 795.024 -4.82865 1.99096 0
M  V30 8522 H 796.718 -2.65 1.3934 0
M  V30 8523 H 794.264 -1.27388 0.671446 0
M  V30 8524 H 796.217 -4.18424 -0.499934 0
M  V30 8525 H 794.941 -3.08346 -1.07659 0
M  V30 8526 H 793.6 -3.52416 1.00989 0
M  V30 8527 H 793.248 -4.92271 -1.03338 0
M  V30 8528 H 792.948 -5.85855 0.452494 0
M  V30 8529 H 794.472 -6.08933 -0.450924 0
M  V30 8530 H 795.886 -5.46481 1.73297 0
M  V30 8531 H 794.283 -5.44444 2.52389 0
M  V30 8532 H 795.353 -4.03977 2.68199 0
M  V30 8533 N 796.696 -0.74468 -1.38897 0
M  V30 8534 C 797.646 -0.0869375 -2.27834 0
M  V30 8535 C 798.63 0.702553 -1.44751 0
M  V30 8536 O 799.822 0.569972 -1.67572 0
M  V30 8537 C 796.951 0.812232 -3.33553 0
M  V30 8538 C 796.037 0.0163713 -4.24097 0
M  V30 8539 N 796.428 -1.01547 -4.95502 0
M  V30 8540 C 794.726 0.244554 -4.45329 0
M  V30 8541 C 795.427 -1.49622 -5.62128 0
M  V30 8542 N 794.403 -0.813097 -5.37485 0
M  V30 8543 H 798.205 -0.877345 -2.80499 0
M  V30 8544 H 795.719 -0.579898 -1.51694 0
M  V30 8545 H 797.716 1.299 -3.96146 0
M  V30 8546 H 796.376 1.60169 -2.82446 0
M  V30 8547 H 797.387 -1.39707 -4.98701 0
M  V30 8548 H 794.064 1.00806 -4.05147 0
M  V30 8549 H 795.454 -2.35523 -6.29268 0
M  V30 8550 N 798.174 1.49689 -0.493057 0
M  V30 8551 C 799.451 1.9525 0.116907 0
M  V30 8552 C 799.831 1.43429 1.54892 0
M  V30 8553 O 799.179 0.644621 2.19219 0
M  V30 8554 C 799.389 3.4898 0.037705 0
M  V30 8555 C 800.737 4.24052 0.215621 0
M  V30 8556 O 801.761 3.5602 0.113266 0
M  V30 8557 O 800.62 5.44847 0.42477 0
M  V30 8558 H 797.714 0.820973 0.099662 0
M  V30 8559 H 800.26 1.60367 -0.555029 0
M  V30 8560 H 799.032 3.79309 -0.961251 0
M  V30 8561 H 798.655 3.9046 0.750137 0
M  V30 8562 N 799.652 0.226554 1.55963 0
M  V30 8563 C 800.901 -0.40417 1.97609 0
M  V30 8564 C 801.214 -1.60541 1.1174 0
M  V30 8565 O 802.42 -2.30598 1.43307 0
M  V30 8566 C 800.876 -0.770466 3.51556 0
M  V30 8567 C 800.484 0.408244 4.46136 0
M  V30 8568 C 802.228 -1.36651 4.01904 0
M  V30 8569 C 800.135 0.0192347 5.91397 0
M  V30 8570 H 799.065 -0.15478 0.737943 0
M  V30 8571 H 801.716 0.323558 1.80625 0
M  V30 8572 H 800.098 -1.55575 3.6416 0
M  V30 8573 H 801.272 1.18575 4.45283 0
M  V30 8574 H 799.587 0.917859 4.06158 0
M  V30 8575 H 802.184 -1.67055 5.07934 0
M  V30 8576 H 802.527 -2.28403 3.48049 0
M  V30 8577 H 803.06 -0.644556 3.92543 0
M  V30 8578 H 799.799 0.90336 6.49245 0
M  V30 8579 H 799.319 -0.722485 5.95433 0
M  V30 8580 H 800.998 -0.405711 6.45727 0
M  V30 8581 N 801.13 -1.57531 -0.0467866 0
M  V30 8582 C 802.546 -1.54451 -0.402107 0
M  V30 8583 C 802.746 -0.950275 -1.77685 0
M  V30 8584 O 801.802 -0.563602 -2.4613 0
M  V30 8585 C 803.115 -2.9899 -0.320212 0
M  V30 8586 C 804.663 -3.10452 -0.398588 0
M  V30 8587 C 805.138 -4.56689 -0.346335 0
M  V30 8588 N 806.629 -4.6142 -0.405666 0
M  V30 8589 C 807.364 -5.72087 -0.387845 0
M  V30 8590 N 806.86 -6.92045 -0.32336 0
M  V30 8591 N 808.653 -5.60404 -0.436263 0
M  V30 8592 H 800.804 -1.94515 0.853087 0
M  V30 8593 H 803.067 -0.891397 0.322669 0
M  V30 8594 H 802.773 -3.46124 0.623794 0
M  V30 8595 H 802.647 -3.60164 -1.1208 0
M  V30 8596 H 805.034 -2.63276 -1.33302 0
M  V30 8597 H 805.115 -2.52142 0.431026 0
M  V30 8598 H 804.759 -5.04527 0.584356 0
M  V30 8599 H 804.689 -5.12889 -1.19382 0
M  V30 8600 H 807.18 -3.75105 -0.458737 0
M  V30 8601 H 807.493 -7.7216 -0.314375 0
M  V30 8602 H 805.838 -6.94396 -0.28967 0
M  V30 8603 H 809.029 -4.65586 -0.48451 0
M  V30 8604 H 809.202 -6.46645 -0.418907 0
M  V30 8605 N 802.608 0.318715 -1.54344 0
M  V30 8606 C 803.518 1.41535 -1.87097 0
M  V30 8607 C 804.534 1.56361 -0.763353 0
M  V30 8608 O 805.71 1.71365 -1.05811 0
M  V30 8609 C 802.775 2.76178 -2.09587 0
M  V30 8610 C 801.836 2.70486 -3.3337 0
M  V30 8611 C 801.069 3.98708 -3.54778 0
M  V30 8612 O 801.292 4.9721 -2.79532 0
M  V30 8613 O 800.226 4.01674 -4.48266 0
M  V30 8614 H 804.052 1.16764 -2.80357 0
M  V30 8615 H 801.637 0.51318 -1.4031 0
M  V30 8616 H 803.519 3.55873 -2.25682 0
M  V30 8617 H 802.194 3.00829 -1.19514 0
M  V30 8618 H 801.101 1.89325 -3.22656 0
M  V30 8619 H 802.434 2.50789 -4.23516 0
M  V30 8620 N 804.086 1.46499 0.581025 0
M  V30 8621 C 805.018 1.53225 1.70455 0
M  V30 8622 C 806.031 0.420443 1.57277 0
M  V30 8623 O 807.22 0.688888 1.64671 0
M  V30 8624 C 804.32 1.39803 3.08721 0
M  V30 8625 C 803.493 2.65132 3.47884 0
M  V30 8626 C 802.552 2.45886 4.65217 0
M  V30 8627 O 801.578 3.19615 4.70993 0
M  V30 8628 N 802.78 1.5216 5.60203 0
M  V30 8629 H 805.545 2.50098 1.65139 0
M  V30 8630 H 803.106 1.42576 0.76705 0
M  V30 8631 H 805.098 1.24697 3.8501 0
M  V30 8632 H 803.668 0.51104 3.08394 0
M  V30 8633 H 802.888 2.95169 2.61284 0
M  V30 8634 H 804.176 3.48385 3.70817 0
M  V30 8635 H 803.574 0.913646 5.58273 0
M  V30 8636 H 802.131 1.43017 6.35916 0
M  V30 8637 N 805.565 -0.825799 1.34232 0
M  V30 8638 C 806.79 -1.61883 1.29648 0
M  V30 8639 C 807.215 -1.87669 -0.127295 0
M  V30 8640 O 806.573 -1.45016 -1.08813 0
M  V30 8641 C 806.621 -2.93846 2.09014 0
M  V30 8642 O 805.725 -3.85778 1.4577 0
M  V30 8643 H 805.066 -0.492454 0.445405 0
M  V30 8644 H 807.596 -1.02641 1.76992 0
M  V30 8645 H 807.606 -3.43435 2.20264 0
M  V30 8646 H 806.281 -2.74401 3.12533 0
M  V30 8647 H 804.858 -3.4429 1.43245 0
M  V30 8648 N 807.043 -1.17915 -1.04565 0
M  V30 8649 C 808.459 -0.927761 -1.29864 0
M  V30 8650 C 808.659 0.409536 -1.97294 0
M  V30 8651 O 807.715 1.14505 -2.25044 0
M  V30 8652 C 809.028 -2.08967 -2.16225 0
M  V30 8653 C 810.576 -2.12741 -2.29587 0
M  V30 8654 C 811.051 -3.28335 -3.19312 0
M  V30 8655 N 812.542 -3.28164 -3.26898 0
M  V30 8656 C 813.277 -4.14249 -3.96466 0
M  V30 8657 N 812.773 -5.10457 -4.68407 0
M  V30 8658 N 814.566 -4.02179 -3.92694 0
M  V30 8659 H 806.717 -2.03983 -0.592011 0
M  V30 8660 H 808.98 -0.891023 -0.323701 0
M  V30 8661 H 808.686 -3.05654 -1.73979 0
M  V30 8662 H 808.56 -2.04606 -3.16885 0
M  V30 8663 H 810.947 -1.16636 -2.71072 0
M  V30 8664 H 811.028 -2.21162 -1.28535 0
M  V30 8665 H 810.672 -4.2471 -2.78539 0
M  V30 8666 H 810.602 -3.17151 -4.20384 0
M  V30 8667 H 813.093 -2.58511 -2.75646 0
M  V30 8668 H 813.406 -5.72526 -5.1907 0
M  V30 8669 H 811.751 -5.14422 -4.67328 0
M  V30 8670 H 814.942 -3.26308 -3.3562 0
M  V30 8671 H 815.115 -4.69486 -4.4664 0
M  V30 8672 N 808.521 1.23394 -0.980386 0
M  V30 8673 C 809.468 2.24859 -0.520298 0
M  V30 8674 C 810.438 1.60144 0.440821 0
M  V30 8675 O 811.623 1.87593 0.348369 0
M  V30 8676 C 808.763 3.44675 0.171145 0
M  V30 8677 C 807.876 4.23947 -0.830233 0
M  V30 8678 C 807.011 5.31079 -0.113597 0
M  V30 8679 C 806.05 6.02058 -1.10419 0
M  V30 8680 N 805.187 7.00862 -0.416709 0
M  V30 8681 H 810.027 2.63579 -1.39032 0
M  V30 8682 H 807.564 1.29556 -0.696682 0
M  V30 8683 H 809.522 4.13024 0.588838 0
M  V30 8684 H 808.152 3.06755 1.00504 0
M  V30 8685 H 807.204 3.55016 -1.36631 0
M  V30 8686 H 808.516 4.72945 -1.58508 0
M  V30 8687 H 807.67 6.05622 0.36146 0
M  V30 8688 H 806.409 4.83022 0.673854 0
M  V30 8689 H 805.414 5.26307 -1.59 0
M  V30 8690 H 806.639 6.52203 -1.8923 0
M  V30 8691 H 804.585 6.55057 0.351535 0
M  V30 8692 H 804.502 7.47804 -1.11021 0
M  V30 8693 H 805.77 7.79492 0.0359606 0
M  V30 8694 N 809.999 0.752036 1.385 0
M  V30 8695 C 810.929 0.138718 2.33088 0
M  V30 8696 C 811.91 -0.705318 1.54788 0
M  V30 8697 O 813.095 -0.646821 1.83112 0
M  V30 8698 C 810.225 -0.75641 3.38963 0
M  V30 8699 C 809.179 -0.0152239 4.27997 0
M  V30 8700 C 808.505 -1.0285 5.24715 0
M  V30 8701 C 809.805 1.15226 5.09431 0
M  V30 8702 H 811.499 0.928852 2.84627 0
M  V30 8703 H 809.045 0.448111 1.3685 0
M  V30 8704 H 810.998 -1.19513 4.04097 0
M  V30 8705 H 809.722 -1.57885 2.85902 0
M  V30 8706 H 808.381 0.404061 3.64366 0
M  V30 8707 H 808.029 -1.84496 4.67943 0
M  V30 8708 H 807.729 -0.537238 5.85139 0
M  V30 8709 H 809.253 -1.46657 5.92726 0
M  V30 8710 H 810.667 0.791161 5.67815 0
M  V30 8711 H 809.064 1.57428 5.79082 0
M  V30 8712 H 810.134 1.9659 4.43261 0
M  V30 8713 N 811.477 -1.49425 0.500989 0
M  V30 8714 C 812.409 -2.27037 -0.314159 0
M  V30 8715 C 813.422 -1.33578 -0.930626 0
M  V30 8716 O 814.611 -1.58861 -0.813968 0
M  V30 8717 C 811.711 -3.05968 -1.45729 0
M  V30 8718 C 810.884 -4.27 -0.948135 0
M  V30 8719 C 809.943 -4.87977 -1.96888 0
M  V30 8720 O 808.969 -5.48044 -1.53743 0
M  V30 8721 N 810.171 -4.77627 -3.29928 0
M  V30 8722 H 812.936 -2.97634 0.351336 0
M  V30 8723 H 810.497 -1.58427 0.333536 0
M  V30 8724 H 812.489 -3.43634 -2.1377 0
M  V30 8725 H 811.059 -2.37978 -2.02695 0
M  V30 8726 H 810.279 -3.94091 -0.0926311 0
M  V30 8727 H 811.567 -5.0541 -0.586362 0
M  V30 8728 H 810.965 -4.29926 -3.67669 0
M  V30 8729 H 809.522 -5.19478 -3.93682 0
M  V30 8730 N 812.955 -0.234822 -1.55841 0
M  V30 8731 C 813.865 0.680828 -2.24504 0
M  V30 8732 C 814.881 1.20306 -1.25708 0
M  V30 8733 O 816.057 1.24188 -1.58554 0
M  V30 8734 C 813.122 1.86636 -2.92178 0
M  V30 8735 C 812.183 1.3848 -4.06352 0
M  V30 8736 C 811.416 2.51382 -4.70789 0
M  V30 8737 O 811.639 3.69831 -4.34259 0
M  V30 8738 O 810.573 2.21828 -5.59532 0
M  V30 8739 H 814.399 0.12583 -3.03439 0
M  V30 8740 H 811.984 -0.00381817 -1.494 0
M  V30 8741 H 813.866 2.55845 -3.34845 0
M  V30 8742 H 812.541 2.40921 -2.16192 0
M  V30 8743 H 811.448 0.660341 -3.68226 0
M  V30 8744 H 812.781 0.888177 -4.8412 0
M  V30 8745 N 814.433 1.57553 0.0384317 0
M  V30 8746 C 815.682 1.88022 0.730108 0
M  V30 8747 C 815.995 0.83209 1.77019 0
M  V30 8748 O 817.201 1.0257 2.51379 0
M  V30 8749 C 815.657 3.33637 1.3496 0
M  V30 8750 C 815.265 4.46659 0.346352 0
M  V30 8751 C 817.009 3.73266 2.02169 0
M  V30 8752 C 814.916 5.8333 0.973652 0
M  V30 8753 H 813.846 0.701496 0.276442 0
M  V30 8754 H 816.497 1.83493 -0.0158028 0
M  V30 8755 H 814.879 3.32882 2.1449 0
M  V30 8756 H 816.053 4.58868 -0.421558 0
M  V30 8757 H 814.368 4.15802 -0.223133 0
M  V30 8758 H 816.965 4.72689 2.49938 0
M  V30 8759 H 817.308 3.04776 2.8358 0
M  V30 8760 H 817.841 3.76156 1.29427 0
M  V30 8761 H 814.58 6.55197 0.199163 0
M  V30 8762 H 814.1 5.7486 1.71162 0
M  V30 8763 H 815.779 6.29757 1.48376 0
M  V30 8764 N 815.911 -0.310526 1.54511 0
M  V30 8765 C 816.858 -1.38264 1.84802 0
M  V30 8766 C 817.828 -1.50808 0.696141 0
M  V30 8767 O 819.013 -1.6582 0.943846 0
M  V30 8768 C 816.153 -2.74422 2.09252 0
M  V30 8769 C 815.266 -2.70405 3.36906 0
M  V30 8770 C 814.401 -3.98495 3.51248 0
M  V30 8771 C 813.44 -3.88836 4.72729 0
M  V30 8772 N 812.577 -5.08683 4.83928 0
M  V30 8773 H 817.417 -1.11732 2.76261 0
M  V30 8774 H 814.954 -0.540609 1.36806 0
M  V30 8775 H 816.912 -3.53593 2.21422 0
M  V30 8776 H 815.542 -2.99235 1.2107 0
M  V30 8777 H 814.594 -1.83151 3.33406 0
M  V30 8778 H 815.906 -2.59155 4.26193 0
M  V30 8779 H 815.06 -4.861 3.63031 0
M  V30 8780 H 813.799 -4.12567 2.60077 0
M  V30 8781 H 812.804 -2.99615 4.60989 0
M  V30 8782 H 814.029 -3.76318 5.65298 0
M  V30 8783 H 811.975 -5.23236 3.95677 0
M  V30 8784 H 811.892 -4.99819 5.67201 0
M  V30 8785 H 813.16 -5.97966 5.00057 0
M  V30 8786 N 817.389 -1.46805 -0.573248 0
M  V30 8787 C 818.299 -1.60687 -1.70929 0
M  V30 8788 C 819.315 -0.490084 -1.66956 0
M  V30 8789 O 820.491 -0.755482 -1.86693 0
M  V30 8790 C 817.556 -1.60259 -3.07438 0
M  V30 8791 C 816.617 -2.83242 -3.22603 0
M  V30 8792 C 815.85 -2.82825 -4.52599 0
M  V30 8793 O 816.073 -1.92113 -5.37074 0
M  V30 8794 O 815.007 -3.74489 -4.71213 0
M  V30 8795 H 818.833 -2.56782 -1.62163 0
M  V30 8796 H 816.418 -1.29706 -0.741399 0
M  V30 8797 H 818.3 -1.6275 -3.88704 0
M  V30 8798 H 816.975 -0.673268 -3.16621 0
M  V30 8799 H 815.882 -2.86302 -2.40794 0
M  V30 8800 H 817.215 -3.75415 -3.18315 0
M  V30 8801 N 818.867 0.818669 -1.34668 0
M  V30 8802 C 819.799 1.93754 -1.22442 0
M  V30 8803 C 820.812 1.62103 -0.150501 0
M  V30 8804 O 822.001 1.73898 -0.402728 0
M  V30 8805 C 819.101 3.27806 -0.860031 0
M  V30 8806 C 818.274 3.8745 -2.02981 0
M  V30 8807 C 817.333 4.99887 -1.64314 0
M  V30 8808 O 816.359 5.17957 -2.36029 0
M  V30 8809 N 817.561 5.77795 -0.55976 0
M  V30 8810 H 820.326 2.04773 -2.18833 0
M  V30 8811 H 817.887 0.995472 -1.27679 0
M  V30 8812 H 819.879 4.00478 -0.583068 0
M  V30 8813 H 818.449 3.12597 0.0138253 0
M  V30 8814 H 817.669 3.07119 -2.47127 0
M  V30 8815 H 818.957 4.2403 -2.81204 0
M  V30 8816 H 818.355 5.65688 0.0363329 0
M  V30 8817 H 816.912 6.50899 -0.342541 0
M  V30 8818 N 820.346 1.18468 1.03938 0
M  V30 8819 C 821.256 0.927889 2.1547 0
M  V30 8820 C 822.272 -0.108447 1.73662 0
M  V30 8821 O 823.448 0.0737636 2.01265 0
M  V30 8822 C 820.513 0.458494 3.43655 0
M  V30 8823 C 819.574 1.56295 3.99838 0
M  V30 8824 C 818.807 1.11586 5.21904 0
M  V30 8825 O 819.03 -0.0249057 5.70395 0
M  V30 8826 O 817.964 1.91412 5.70653 0
M  V30 8827 H 821.79 1.86116 2.39989 0
M  V30 8828 H 819.375 0.966607 1.13917 0
M  V30 8829 H 821.257 0.204861 4.20902 0
M  V30 8830 H 819.932 -0.446464 3.20606 0
M  V30 8831 H 818.839 1.87061 3.23974 0
M  V30 8832 H 820.172 2.44408 4.2723 0
M  V30 8833 N 821.824 -1.22873 0.986916 0
M  V30 8834 C 823.054 -1.95204 0.67668 0
M  V30 8835 C 823.462 -1.73193 -0.761641 0
M  V30 8836 O 822.805 -1.0243 -1.52492 0
M  V30 8837 C 822.867 -3.48173 0.895302 0
M  V30 8838 C 822.531 -3.93912 2.31695 0
M  V30 8839 C 823.528 -4.02064 3.29607 0
M  V30 8840 C 821.213 -4.26722 2.64978 0
M  V30 8841 C 823.207 -4.42391 4.58878 0
M  V30 8842 C 820.894 -4.66729 3.94471 0
M  V30 8843 C 821.892 -4.74531 4.91232 0
M  V30 8844 O 821.58 -5.13636 6.18412 0
M  V30 8845 H 821.312 -0.628105 0.24992 0
M  V30 8846 H 823.866 -1.5714 1.32274 0
M  V30 8847 H 822.096 -3.86223 0.192072 0
M  V30 8848 H 823.785 -4.01717 0.581233 0
M  V30 8849 H 824.551 -3.76912 3.05225 0
M  V30 8850 H 820.43 -4.19858 1.9037 0
M  V30 8851 H 823.974 -4.48395 5.34404 0
M  V30 8852 H 819.871 -4.91332 4.18645 0
M  V30 8853 H 820.639 -5.31728 6.2226 0
M  V30 8854 N 823.302 -0.75937 -1.38099 0
M  V30 8855 C 824.234 -0.0956547 -2.29 0
M  V30 8856 C 825.247 0.677561 -1.4803 0
M  V30 8857 O 826.436 0.517696 -1.70828 0
M  V30 8858 C 823.536 0.88844 -3.27047 0
M  V30 8859 C 822.709 0.171652 -4.37063 0
M  V30 8860 C 821.768 1.06733 -5.15262 0
M  V30 8861 O 820.794 0.535698 -5.66674 0
M  V30 8862 N 821.996 2.39486 -5.28797 0
M  V30 8863 H 824.761 -0.876354 -2.86601 0
M  V30 8864 H 822.322 -0.61065 -1.49942 0
M  V30 8865 H 824.314 1.49079 -3.76241 0
M  V30 8866 H 822.884 1.57018 -2.70304 0
M  V30 8867 H 822.104 -0.611473 -3.89429 0
M  V30 8868 H 823.392 -0.324121 -5.07767 0
M  V30 8869 H 822.79 2.85127 -4.88589 0
M  V30 8870 H 821.347 2.94758 -5.81344 0
M  V30 8871 N 824.78 1.49157 -0.508906 0
M  V30 8872 C 825.743 2.27784 0.25434 0
M  V30 8873 C 826.743 1.34132 0.88686 0
M  V30 8874 O 827.933 1.5722 0.750168 0
M  V30 8875 C 825.065 3.12347 1.36573 0
M  V30 8876 H 826.258 2.96718 -0.435714 0
M  V30 8877 H 823.811 1.54052 -0.264128 0
M  V30 8878 H 824.546 2.47997 2.08969 0
M  V30 8879 H 824.331 3.81213 0.917543 0
M  V30 8880 H 825.821 3.71712 1.90315 0
M  V30 8881 N 826.258 0.243083 1.55714 0
M  V30 8882 C 827.19 -0.690766 2.18543 0
M  V30 8883 C 828.203 -1.14163 1.16064 0
M  V30 8884 O 829.392 -1.06906 1.42946 0
M  V30 8885 C 826.492 -1.95016 2.77168 0
M  V30 8886 C 825.665 -1.65137 4.05029 0
M  V30 8887 C 824.724 -2.75998 4.48009 0
M  V30 8888 O 823.75 -2.43547 5.14464 0
M  V30 8889 N 824.952 -4.05414 4.15476 0
M  V30 8890 H 827.717 -0.153203 2.99308 0
M  V30 8891 H 825.278 0.0628968 1.61778 0
M  V30 8892 H 827.27 -2.68414 3.0288 0
M  V30 8893 H 825.84 -2.39762 2.00582 0
M  V30 8894 H 825.06 -0.752768 3.86946 0
M  V30 8895 H 826.348 -1.42633 4.88399 0
M  V30 8896 H 825.746 -4.34613 3.62116 0
M  V30 8897 H 824.303 -4.75288 4.46032 0
M  V30 8898 N 827.736 -1.57571 -0.0300757 0
M  V30 8899 C 828.982 -1.89506 -0.722159 0
M  V30 8900 C 829.315 -0.840699 -1.7506 0
M  V30 8901 O 828.59 0.144358 -1.93964 0
M  V30 8902 C 828.873 -3.32081 -1.39262 0
M  V30 8903 C 828.726 -4.48211 -0.377768 0
M  V30 8904 C 830.045 -3.73557 -2.32687 0
M  V30 8905 H 827.164 -0.689213 -0.261064 0
M  V30 8906 H 829.806 -1.89994 0.0150388 0
M  V30 8907 H 827.956 -3.31796 -2.02098 0
M  V30 8908 H 829.628 -4.6063 0.248591 0
M  V30 8909 H 827.871 -4.3274 0.303045 0
M  V30 8910 H 828.542 -5.44854 -0.885347 0
M  V30 8911 H 831.018 -3.75202 -1.79896 0
M  V30 8912 H 829.894 -4.74125 -2.7658 0
M  V30 8913 H 830.155 -3.05759 -3.19317 0
M  V30 8914 N 829.214 0.302327 -1.54673 0
M  V30 8915 C 830.124 1.39542 -1.88587 0
M  V30 8916 C 831.14 1.55543 -0.779895 0
M  V30 8917 O 832.316 1.70233 -1.07623 0
M  V30 8918 C 829.381 2.7394 -2.12504 0
M  V30 8919 C 828.442 2.66935 -3.3622 0
M  V30 8920 C 827.675 3.94923 -3.58987 0
M  V30 8921 O 827.898 4.94218 -2.84789 0
M  V30 8922 O 826.832 3.96896 -4.52501 0
M  V30 8923 H 830.658 1.13784 -2.81579 0
M  V30 8924 H 828.243 0.49827 -1.40846 0
M  V30 8925 H 830.125 3.5346 -2.29443 0
M  V30 8926 H 828.8 2.99544 -1.22698 0
M  V30 8927 H 827.707 1.85892 -3.24646 0
M  V30 8928 H 829.04 2.46283 -4.26152 0
M  V30 8929 N 830.692 1.47107 0.565454 0
M  V30 8930 C 831.602 1.61591 1.70075 0
M  V30 8931 C 832.618 0.498931 1.66693 0
M  V30 8932 O 833.794 0.765372 1.8629 0
M  V30 8933 C 830.859 1.61887 3.06583 0
M  V30 8934 C 829.92 2.84949 3.21096 0
M  V30 8935 C 829.153 2.85221 4.51093 0
M  V30 8936 O 829.376 1.94959 5.36048 0
M  V30 8937 O 828.31 3.76982 4.69221 0
M  V30 8938 H 832.136 2.57638 1.60799 0
M  V30 8939 H 829.721 1.30097 0.73451 0
M  V30 8940 H 831.603 1.64809 3.87835 0
M  V30 8941 H 830.278 0.69005 3.16259 0
M  V30 8942 H 829.185 2.87575 2.39273 0
M  V30 8943 H 830.518 3.77098 3.1632 0
M  V30 8944 N 832.17 -0.811516 1.35101 0
M  V30 8945 C 833.103 -1.92872 1.21966 0
M  V30 8946 C 834.081 -1.62236 0.108667 0
M  V30 8947 O 835.265 -1.8647 0.275875 0
M  V30 8948 C 832.392 -3.27152 0.876886 0
M  V30 8949 C 831.438 -3.7674 1.99924 0
M  V30 8950 S 832.271 -3.95132 3.61429 0
M  V30 8951 C 833.427 -5.32322 3.29218 0
M  V30 8952 H 833.66 -2.03718 2.16532 0
M  V30 8953 H 831.193 -0.968352 1.20259 0
M  V30 8954 H 833.151 -4.04729 0.685917 0
M  V30 8955 H 831.812 -3.14059 -0.0506289 0
M  V30 8956 H 831.005 -4.73981 1.71343 0
M  V30 8957 H 830.607 -3.06145 2.14829 0
M  V30 8958 H 832.899 -6.1614 2.8174 0
M  V30 8959 H 833.842 -5.65893 4.25641 0
M  V30 8960 H 834.25 -4.98374 2.65111 0
M  V30 8961 N 833.648 -1.19017 -1.03309 0
M  V30 8962 C 835.064 -0.941483 -1.28873 0
M  V30 8963 C 835.264 0.388587 -1.97718 0
M  V30 8964 O 834.32 1.12111 -2.26246 0
M  V30 8965 C 835.633 -2.11249 -2.13996 0
M  V30 8966 C 837.181 -2.15164 -2.27318 0
M  V30 8967 C 837.656 -3.31704 -3.15811 0
M  V30 8968 N 839.147 -3.31613 -3.23399 0
M  V30 8969 C 839.882 -4.18431 -3.9205 0
M  V30 8970 N 839.378 -5.15397 -4.62966 0
M  V30 8971 N 841.171 -4.06321 -3.88406 0
M  V30 8972 H 833.322 -2.04599 -0.570343 0
M  V30 8973 H 835.585 -0.894406 -0.314232 0
M  V30 8974 H 835.291 -3.07482 -1.70727 0
M  V30 8975 H 835.165 -2.07955 -3.14697 0
M  V30 8976 H 837.552 -1.19504 -2.6982 0
M  V30 8977 H 837.633 -2.22513 -1.26182 0
M  V30 8978 H 837.277 -4.2764 -2.74019 0
M  V30 8979 H 837.207 -3.21592 -4.16997 0
M  V30 8980 H 839.698 -2.6142 -2.72888 0
M  V30 8981 H 840.011 -5.78 -5.12968 0
M  V30 8982 H 838.356 -5.19349 -4.61846 0
M  V30 8983 H 841.547 -3.29849 -3.3214 0
M  V30 8984 H 841.72 -4.74196 -4.41635 0
M  V30 8985 N 835.127 1.22348 -0.993418 0
M  V30 8986 C 836.057 2.26584 -0.564088 0
M  V30 8987 C 837.038 1.65102 0.409298 0
M  V30 8988 O 838.223 1.91872 0.299819 0
M  V30 8989 C 835.353 3.47087 0.121554 0
M  V30 8990 C 834.307 4.21009 -0.770429 0
M  V30 8991 C 833.633 5.34678 0.0481586 0
M  V30 8992 C 834.933 4.79636 -2.06752 0
M  V30 8993 H 836.627 2.62749 -1.43538 0
M  V30 8994 H 834.173 1.26303 -0.691628 0
M  V30 8995 H 836.126 4.19166 0.433303 0
M  V30 8996 H 834.85 3.1002 1.0274 0
M  V30 8997 H 833.509 3.50764 -1.06583 0
M  V30 8998 H 833.157 4.93852 0.954933 0
M  V30 8999 H 832.857 5.85061 -0.545641 0
M  V30 9000 H 834.381 6.09573 0.353991 0
M  V30 9001 H 835.795 5.43654 -1.81969 0
M  V30 9002 H 834.192 5.4036 -2.61019 0
M  V30 9003 H 835.262 3.99659 -2.74592 0
M  V30 9004 N 836.605 0.766683 1.37694 0
M  V30 9005 C 837.538 0.0959288 2.27998 0
M  V30 9006 C 838.516 -0.714493 1.46061 0
M  V30 9007 O 839.7 -0.690337 1.75404 0
M  V30 9008 C 836.827 -0.87057 3.27321 0
M  V30 9009 C 835.873 -0.144771 4.26254 0
M  V30 9010 S 836.706 1.16365 5.22704 0
M  V30 9011 C 837.862 0.200564 6.25579 0
M  V30 9012 H 838.095 0.861666 2.84539 0
M  V30 9013 H 835.628 0.559845 1.43893 0
M  V30 9014 H 837.586 -1.42282 3.85053 0
M  V30 9015 H 836.247 -1.60938 2.69737 0
M  V30 9016 H 835.44 -0.877259 4.96307 0
M  V30 9017 H 835.042 0.33633 3.72485 0
M  V30 9018 H 837.334 -0.628833 6.74575 0
M  V30 9019 H 838.277 0.869117 7.02746 0
M  V30 9020 H 838.685 -0.185972 5.64194 0
M  V30 9021 N 838.083 -1.48885 0.516809 0
M  V30 9022 C 839.016 -2.26218 -0.30011 0
M  V30 9023 C 839.994 -1.31491 -0.956496 0
M  V30 9024 O 841.178 -1.6081 -0.983488 0
M  V30 9025 C 838.305 -3.07315 -1.42392 0
M  V30 9026 C 837.351 -4.17316 -0.880295 0
M  V30 9027 S 838.184 -5.34955 0.24146 0
M  V30 9028 C 839.34 -6.1961 -0.885138 0
M  V30 9029 H 839.573 -2.95158 0.356217 0
M  V30 9030 H 837.106 -1.5141 0.302365 0
M  V30 9031 H 839.064 -3.54619 -2.06775 0
M  V30 9032 H 837.725 -2.37813 -2.05192 0
M  V30 9033 H 836.918 -4.73635 -1.72297 0
M  V30 9034 H 836.52 -3.72685 -0.313396 0
M  V30 9035 H 838.812 -6.53513 -1.78682 0
M  V30 9036 H 839.755 -7.07183 -0.360226 0
M  V30 9037 H 840.163 -5.52461 -1.1596 0
M  V30 9038 N 839.561 -0.251338 -1.55583 0
M  V30 9039 C 840.509 0.662534 -2.22965 0
M  V30 9040 C 841.503 1.17662 -1.21869 0
M  V30 9041 O 842.709 1.133 -1.39868 0
M  V30 9042 H 839.084 0.232151 -0.715269 0
M  V30 9043 H 841.055 0.0711252 -2.98315 0
M  V30 9044 C 839.804 1.84646 -2.94621 0
M  V30 9045 H 839.127 1.46003 -3.72187 0
M  V30 9046 H 840.567 2.46303 -3.45124 0
M  V30 9047 C 839.026 2.72034 -1.98744 0
M  V30 9048 O 839.556 3.71695 -1.52335 0
M  V30 9049 N 837.762 2.38695 -1.6575 0
M  V30 9050 H 837.309 1.57702 -2.03685 0
M  V30 9051 H 837.267 2.9744 -1.01867 0
M  V30 9052 N 841.039 1.57585 0.0217189 0
M  V30 9053 C 841.971 2.03849 1.04777 0
M  V30 9054 C 842.984 0.952558 1.32023 0
M  V30 9055 O 844.173 1.22974 1.29381 0
M  V30 9056 C 841.273 2.40504 2.3877 0
M  V30 9057 C 840.446 3.71566 2.30775 0
M  V30 9058 C 839.505 3.95329 3.47277 0
M  V30 9059 O 838.531 4.66289 3.26441 0
M  V30 9060 N 839.733 3.41536 4.69397 0
M  V30 9061 H 842.498 2.92491 0.653395 0
M  V30 9062 H 840.059 1.60538 0.209527 0
M  V30 9063 H 842.051 2.53532 3.15442 0
M  V30 9064 H 840.621 1.57494 2.70027 0
M  V30 9065 H 839.841 3.68822 1.39155 0
M  V30 9066 H 841.129 4.5753 2.22584 0
M  V30 9067 H 840.527 2.84033 4.89226 0
M  V30 9068 H 839.084 3.59932 5.43408 0
M  V30 9069 N 842.517 -0.29412 1.54831 0
M  V30 9070 C 843.447 -1.36757 1.89261 0
M  V30 9071 C 844.428 -1.52564 0.752214 0
M  V30 9072 O 845.613 -1.65958 1.00855 0
M  V30 9073 C 842.743 -2.73066 2.14597 0
M  V30 9074 C 841.697 -2.72017 3.3044 0
M  V30 9075 C 841.023 -4.11679 3.4121 0
M  V30 9076 C 842.323 -2.33149 4.67375 0
M  V30 9077 H 844.017 -1.08191 2.79169 0
M  V30 9078 H 841.563 -0.519014 1.34321 0
M  V30 9079 H 843.516 -3.48255 2.37269 0
M  V30 9080 H 842.24 -3.03172 1.21467 0
M  V30 9081 H 840.899 -1.99285 3.07703 0
M  V30 9082 H 840.547 -4.38973 2.45584 0
M  V30 9083 H 840.247 -4.11877 4.19084 0
M  V30 9084 H 841.771 -4.88637 3.6615 0
M  V30 9085 H 843.185 -2.98054 4.89731 0
M  V30 9086 H 841.582 -2.44546 5.48012 0
M  V30 9087 H 842.652 -1.28275 4.67626 0
M  V30 9088 N 843.995 -1.47404 -0.557645 0
M  V30 9089 C 844.905 -1.62491 -1.69216 0
M  V30 9090 C 845.921 -0.507764 -1.66426 0
M  V30 9091 O 847.097 -0.775241 -1.85882 0
M  V30 9092 C 844.162 -1.63511 -3.05721 0
M  V30 9093 C 843.223 -2.86648 -3.1958 0
M  V30 9094 C 842.456 -2.87609 -4.49574 0
M  V30 9095 O 842.679 -1.97799 -5.35006 0
M  V30 9096 O 841.613 -3.79465 -4.67215 0
M  V30 9097 H 845.439 -2.58487 -1.59431 0
M  V30 9098 H 843.024 -1.30485 -0.7276 0
M  V30 9099 H 844.906 -1.66863 -3.86956 0
M  V30 9100 H 843.581 -0.706812 -3.15889 0
M  V30 9101 H 842.488 -2.8884 -2.37744 0
M  V30 9102 H 843.821 -3.7877 -3.14316 0
M  V30 9103 N 845.473 0.80434 -1.35529 0
M  V30 9104 C 846.383 1.94784 -1.30753 0
M  V30 9105 C 847.399 1.72703 -0.212071 0
M  V30 9106 O 848.575 1.96494 -0.441841 0
M  V30 9107 C 845.64 3.29406 -1.08133 0
M  V30 9108 C 844.701 3.64367 -2.27013 0
M  V30 9109 C 843.934 4.92566 -2.05463 0
M  V30 9110 O 844.157 5.61166 -1.02222 0
M  V30 9111 O 843.091 5.25838 -2.92879 0
M  V30 9112 H 846.917 2.01761 -2.26994 0
M  V30 9113 H 844.502 0.942448 -1.15924 0
M  V30 9114 H 846.384 4.09995 -0.973756 0
M  V30 9115 H 845.059 3.23355 -0.149444 0
M  V30 9116 H 843.966 2.84146 -2.43335 0
M  V30 9117 H 845.299 3.75125 -3.18656 0
M  V30 9118 N 846.951 1.19563 1.02676 0
M  V30 9119 C 848.228 0.908857 1.73203 0
M  V30 9120 C 848.608 -0.584928 2.02834 0
M  V30 9121 O 847.956 -1.54372 1.68469 0
M  V30 9122 C 848.166 1.77105 3.00724 0
M  V30 9123 C 849.514 2.00667 3.7419 0
M  V30 9124 O 850.538 1.74274 3.10656 0
M  V30 9125 O 849.397 2.4518 4.88415 0
M  V30 9126 H 846.491 0.338909 0.754367 0
M  V30 9127 H 849.037 1.30387 1.08616 0
M  V30 9128 H 847.809 2.78303 2.7507 0
M  V30 9129 H 847.432 1.37546 3.73051 0
M  V30 9130 N 848.429 -1.21819 0.999893 0
M  V30 9131 C 849.359 -2.26282 0.576096 0
M  V30 9132 C 850.34 -1.65317 -0.400537 0
M  V30 9133 O 851.525 -1.92028 -0.28964 0
M  V30 9134 C 848.655 -3.47147 -0.103145 0
M  V30 9135 C 847.609 -4.20594 0.792745 0
M  V30 9136 C 846.935 -5.34696 -0.0198026 0
M  V30 9137 C 848.235 -4.78533 2.09293 0
M  V30 9138 H 849.929 -2.61984 1.4493 0
M  V30 9139 H 847.475 -1.25935 0.698316 0
M  V30 9140 H 849.428 -4.1939 -0.411068 0
M  V30 9141 H 848.152 -3.1056 -1.01094 0
M  V30 9142 H 846.811 -3.50194 1.08442 0
M  V30 9143 H 846.459 -4.94352 -0.928729 0
M  V30 9144 H 846.159 -5.84764 0.576661 0
M  V30 9145 H 847.683 -6.09752 -0.321659 0
M  V30 9146 H 849.097 -5.42682 1.8485 0
M  V30 9147 H 847.494 -5.38968 2.63881 0
M  V30 9148 H 848.564 -3.98197 2.76708 0
M  V30 9149 N 849.908 -0.773975 -1.37286 0
M  V30 9150 C 851.154 -0.339809 -1.99933 0
M  V30 9151 C 851.487 1.0815 -1.61299 0
M  V30 9152 O 850.762 1.74442 -0.860252 0
M  V30 9153 C 851.045 -0.485919 -3.56806 0
M  V30 9154 C 850.898 -1.9498 -4.05343 0
M  V30 9155 C 852.217 0.108461 -4.39966 0
M  V30 9156 H 849.336 -0.124944 -0.726332 0
M  V30 9157 H 851.978 -0.977433 -1.6293 0
M  V30 9158 H 850.128 0.0569023 -3.88458 0
M  V30 9159 H 851.8 -2.5525 -3.84246 0
M  V30 9160 H 850.043 -2.45784 -3.57453 0
M  V30 9161 H 850.714 -2.00308 -5.14374 0
M  V30 9162 H 853.19 -0.354722 -4.14585 0
M  V30 9163 H 852.066 -0.0238926 -5.48895 0
M  V30 9164 H 852.327 1.19901 -4.25531 0
M  V30 9165 N 851.386 1.48609 -0.524698 0
M  V30 9166 C 852.611 2.07398 0.00952139 0
M  V30 9167 C 853.036 1.37939 1.27884 0
M  V30 9168 O 852.394 0.443633 1.75788 0
M  V30 9169 C 852.442 3.59916 0.221956 0
M  V30 9170 O 851.546 3.91647 1.29175 0
M  V30 9171 H 850.887 0.662981 -0.0367729 0
M  V30 9172 H 853.417 1.91092 -0.7311 0
M  V30 9173 H 853.427 4.05552 0.446236 0
M  V30 9174 H 852.102 4.09876 -0.705306 0
M  V30 9175 H 850.679 3.57796 1.05055 0
M  V30 9176 N 852.864 0.259585 1.55447 0
M  V30 9177 C 853.827 -0.621359 2.20617 0
M  V30 9178 C 854.827 -1.09317 1.17925 0
M  V30 9179 O 856.017 -0.995842 1.42929 0
M  V30 9180 C 853.149 -1.85546 2.85982 0
M  V30 9181 H 854.342 -0.0525833 2.99854 0
M  V30 9182 H 851.895 0.0101055 1.56297 0
M  V30 9183 H 852.63 -2.46515 2.10715 0
M  V30 9184 H 852.415 -1.52523 3.61219 0
M  V30 9185 H 853.905 -2.48227 3.35817 0
M  V30 9186 N 854.342 -1.57594 -0.0133615 0
M  V30 9187 C 855.758 -1.5527 -0.369255 0
M  V30 9188 C 855.958 -0.987751 -1.7563 0
M  V30 9189 O 855.014 -0.615683 -2.44879 0
M  V30 9190 C 856.327 -2.99602 -0.25672 0
M  V30 9191 C 857.875 -3.11227 -0.332647 0
M  V30 9192 C 858.35 -4.57321 -0.249387 0
M  V30 9193 N 859.841 -4.62177 -0.3077 0
M  V30 9194 C 860.576 -5.72781 -0.26641 0
M  V30 9195 N 860.072 -6.92575 -0.176494 0
M  V30 9196 N 861.865 -5.61204 -0.317295 0
M  V30 9197 H 854.016 -1.92662 0.894154 0
M  V30 9198 H 856.279 -0.884352 0.341505 0
M  V30 9199 H 855.985 -3.44723 0.697072 0
M  V30 9200 H 855.859 -3.6246 -1.04415 0
M  V30 9201 H 858.246 -2.66045 -1.27688 0
M  V30 9202 H 858.327 -2.51171 0.484412 0
M  V30 9203 H 857.971 -5.03174 0.691242 0
M  V30 9204 H 857.901 -5.15306 -1.08476 0
M  V30 9205 H 860.392 -3.75994 -0.379069 0
M  V30 9206 H 860.705 -7.72653 -0.150518 0
M  V30 9207 H 859.05 -6.94854 -0.142314 0
M  V30 9208 H 862.241 -4.66509 -0.385643 0
M  V30 9209 H 862.414 -6.47388 -0.28165 0
M  V30 9210 N 855.82 0.285905 -1.54985 0
M  V30 9211 C 857.236 0.632405 -1.46536 0
M  V30 9212 C 857.436 1.90074 -0.668888 0
M  V30 9213 O 856.492 2.51839 -0.182586 0
M  V30 9214 C 857.805 0.771361 -2.90638 0
M  V30 9215 C 859.353 0.866262 -3.00774 0
M  V30 9216 C 859.828 1.0371 -4.46103 0
M  V30 9217 N 861.319 1.10294 -4.49877 0
M  V30 9218 C 862.054 1.25369 -5.59527 0
M  V30 9219 N 861.55 1.37246 -6.7907 0
M  V30 9220 N 863.343 1.28377 -5.47244 0
M  V30 9221 H 855.494 -0.547226 -2.0523 0
M  V30 9222 H 857.757 -0.183298 -0.930111 0
M  V30 9223 H 857.463 -0.0899485 -3.51585 0
M  V30 9224 H 857.337 1.65569 -3.3892 0
M  V30 9225 H 859.724 1.71805 -2.39931 0
M  V30 9226 H 859.805 -0.0424049 -2.55765 0
M  V30 9227 H 859.449 0.190021 -5.07544 0
M  V30 9228 H 859.379 1.96022 -4.88757 0
M  V30 9229 H 861.87 1.02407 -3.6376 0
M  V30 9230 H 862.183 1.48546 -7.58389 0
M  V30 9231 H 860.528 1.34274 -6.81906 0
M  V30 9232 H 863.719 1.1872 -4.52795 0
M  V30 9233 H 863.892 1.39782 -6.32744 0
M  V30 9234 N 857.298 1.47698 0.54982 0
M  V30 9235 C 858.714 1.3338 0.876468 0
M  V30 9236 C 858.914 0.329837 1.98782 0
M  V30 9237 O 857.97 -0.256022 2.51199 0
M  V30 9238 C 859.283 2.72903 1.26272 0
M  V30 9239 C 860.831 2.81243 1.37373 0
M  V30 9240 C 861.306 4.21423 1.79351 0
M  V30 9241 N 862.797 4.24 1.86489 0
M  V30 9242 C 863.532 5.29386 2.20313 0
M  V30 9243 N 863.028 6.4507 2.527 0
M  V30 9244 N 864.821 5.16768 2.2115 0
M  V30 9245 H 856.972 2.11603 -0.183781 0
M  V30 9246 H 859.235 0.947798 -0.0195601 0
M  V30 9247 H 858.941 3.47836 0.519889 0
M  V30 9248 H 858.815 3.05151 2.21727 0
M  V30 9249 H 861.202 2.06577 2.10737 0
M  V30 9250 H 861.283 2.52639 0.400882 0
M  V30 9251 H 860.927 4.96597 1.06555 0
M  V30 9252 H 860.857 4.47456 2.77652 0
M  V30 9253 H 863.348 3.40547 1.63817 0
M  V30 9254 H 863.661 7.21236 2.77557 0
M  V30 9255 H 862.006 6.48377 2.50263 0
M  V30 9256 H 865.197 4.25416 1.95293 0
M  V30 9257 H 865.37 5.99004 2.4718 0
M  V30 9258 N 858.776 -0.797141 1.35954 0
M  V30 9259 C 860.001 -1.59097 1.33053 0
M  V30 9260 C 860.426 -1.87897 -0.0874592 0
M  V30 9261 O 859.784 -1.47291 -1.05712 0
M  V30 9262 C 859.832 -2.89346 2.152 0
M  V30 9263 O 858.936 -3.826 1.5392 0
M  V30 9264 H 858.277 -0.482895 0.45575 0
M  V30 9265 H 860.807 -0.988633 1.79129 0
M  V30 9266 H 860.817 -3.38686 2.27499 0
M  V30 9267 H 859.492 -2.6771 3.18283 0
M  V30 9268 H 858.069 -3.41174 1.50516 0
M  V30 9269 N 860.254 -1.20106 -1.0204 0
M  V30 9270 C 861.531 -0.918029 -1.72718 0
M  V30 9271 C 861.911 0.574163 -2.03142 0
M  V30 9272 O 861.259 1.53476 -1.69285 0
M  V30 9273 C 861.469 -1.78698 -2.9978 0
M  V30 9274 C 862.817 -2.02648 -3.7312 0
M  V30 9275 O 863.841 -1.75919 -3.09727 0
M  V30 9276 O 862.7 -2.47767 -4.87107 0
M  V30 9277 H 859.794 -0.342904 -0.752559 0
M  V30 9278 H 862.34 -1.30961 -1.07923 0
M  V30 9279 H 861.112 -2.79757 -2.7359 0
M  V30 9280 H 860.735 -1.39522 -3.72316 0
M  V30 9281 N 861.732 1.21287 -1.00634 0
M  V30 9282 C 862.662 2.25973 -0.588089 0
M  V30 9283 C 863.643 1.65527 0.391764 0
M  V30 9284 O 864.828 1.92179 0.279452 0
M  V30 9285 C 861.958 3.47197 0.0847336 0
M  V30 9286 C 860.912 4.20168 -0.815039 0
M  V30 9287 C 860.238 5.34699 -0.00855393 0
M  V30 9288 C 861.538 4.77416 -2.11828 0
M  V30 9289 H 863.232 2.61212 -1.46317 0
M  V30 9290 H 860.778 1.25563 -0.704985 0
M  V30 9291 H 862.731 4.19602 0.388821 0
M  V30 9292 H 861.455 3.11092 0.994456 0
M  V30 9293 H 860.114 3.49614 -1.10297 0
M  V30 9294 H 859.762 4.94837 0.902499 0
M  V30 9295 H 859.462 5.84449 -0.607664 0
M  V30 9296 H 860.986 6.09914 0.289317 0
M  V30 9297 H 862.4 5.41694 -1.87725 0
M  V30 9298 H 860.797 5.37561 -2.66736 0
M  V30 9299 H 861.867 3.96724 -2.78816 0
M  V30 9300 N 863.21 0.781244 1.36873 0
M  V30 9301 C 864.44 0.361042 2.03421 0
M  V30 9302 C 864.848 -1.02471 1.59048 0
M  V30 9303 O 864.191 -1.66712 0.771552 0
M  V30 9304 C 864.253 0.336202 3.57924 0
M  V30 9305 C 863.917 1.66815 4.25467 0
M  V30 9306 C 864.914 2.62224 4.48926 0
M  V30 9307 C 862.599 1.9452 4.63106 0
M  V30 9308 C 864.593 3.83538 5.09095 0
M  V30 9309 C 862.28 3.16103 5.22994 0
M  V30 9310 C 863.278 4.10431 5.45926 0
M  V30 9311 O 862.966 5.29871 6.04559 0
M  V30 9312 H 862.698 0.147956 0.65961 0
M  V30 9313 H 865.252 1.05895 1.75998 0
M  V30 9314 H 863.482 -0.418147 3.84433 0
M  V30 9315 H 865.171 -0.0582199 4.05858 0
M  V30 9316 H 865.937 2.42104 4.20251 0
M  V30 9317 H 861.816 1.21921 4.44585 0
M  V30 9318 H 865.36 4.57178 5.2691 0
M  V30 9319 H 861.257 3.36104 5.51094 0
M  V30 9320 H 862.025 5.30825 6.23031 0
M  V30 9321 N 864.689 -1.48329 0.532571 0
M  V30 9322 C 865.599 -2.33445 -0.232546 0
M  V30 9323 C 866.615 -1.46651 -0.93645 0
M  V30 9324 O 867.791 -1.79627 -0.910834 0
M  V30 9325 C 864.856 -3.22824 -1.26434 0
M  V30 9326 C 863.917 -4.25492 -0.570511 0
M  V30 9327 C 863.15 -5.10601 -1.55315 0
M  V30 9328 O 863.373 -4.97733 -2.78599 0
M  V30 9329 O 862.307 -5.91927 -1.09112 0
M  V30 9330 H 866.133 -3.00119 0.464988 0
M  V30 9331 H 863.718 -1.46489 0.293462 0
M  V30 9332 H 865.6 -3.78103 -1.86055 0
M  V30 9333 H 864.275 -2.58807 -1.94424 0
M  V30 9334 H 863.182 -3.74041 0.0662587 0
M  V30 9335 H 864.515 -4.92154 0.0674904 0
M  V30 9336 N 866.167 -0.267825 -1.55308 0
M  V30 9337 C 867.392 0.357487 -2.04296 0
M  V30 9338 C 867.817 1.49222 -1.14518 0
M  V30 9339 O 867.175 1.80741 -0.142292 0
M  V30 9340 C 867.223 0.822899 -3.51085 0
M  V30 9341 O 866.327 1.93078 -3.6441 0
M  V30 9342 H 865.668 0.075025 -0.659748 0
M  V30 9343 H 868.198 -0.399996 -2.00652 0
M  V30 9344 H 868.208 1.12059 -3.92309 0
M  V30 9345 H 866.883 -0.0073562 -4.15899 0
M  V30 9346 H 865.46 1.63618 -3.35087 0
M  V30 9347 N 867.645 1.57599 0.00500368 0
M  V30 9348 C 868.555 2.11532 1.01446 0
M  V30 9349 C 869.571 1.05941 1.3803 0
M  V30 9350 O 870.747 1.37815 1.46864 0
M  V30 9351 C 867.812 2.60382 2.28915 0
M  V30 9352 C 866.873 3.80554 1.98689 0
M  V30 9353 C 866.106 4.27064 3.20081 0
M  V30 9354 O 866.329 3.72939 4.31593 0
M  V30 9355 O 865.263 5.1927 3.04371 0
M  V30 9356 H 869.089 2.97993 0.586011 0
M  V30 9357 H 866.674 1.47718 0.223519 0
M  V30 9358 H 868.556 2.92024 3.03809 0
M  V30 9359 H 867.231 1.77022 2.71007 0
M  V30 9360 H 866.138 3.53893 1.21286 0
M  V30 9361 H 867.471 4.64972 1.61437 0
M  V30 9362 N 869.123 -0.277682 1.55134 0
M  V30 9363 C 870.053 -1.34742 1.90701 0
M  V30 9364 C 871.034 -1.51757 0.768354 0
M  V30 9365 O 872.219 -1.64879 1.02609 0
M  V30 9366 C 869.349 -2.70775 2.17481 0
M  V30 9367 C 868.303 -2.68497 3.33307 0
M  V30 9368 C 867.629 -4.08037 3.45557 0
M  V30 9369 C 868.929 -2.28178 4.69821 0
M  V30 9370 H 870.623 -1.05224 2.803 0
M  V30 9371 H 868.169 -0.504738 1.34864 0
M  V30 9372 H 870.122 -3.45719 2.40949 0
M  V30 9373 H 868.846 -3.01867 1.24676 0
M  V30 9374 H 867.505 -1.9601 3.09799 0
M  V30 9375 H 867.153 -4.36344 2.50226 0
M  V30 9376 H 866.853 -4.07409 4.23429 0
M  V30 9377 H 868.377 -4.84726 3.71312 0
M  V30 9378 H 869.791 -2.92843 4.92865 0
M  V30 9379 H 868.188 -2.3872 5.50575 0
M  V30 9380 H 869.258 -1.23308 4.6896 0
M  V30 9381 N 870.601 -1.47988 -0.541979 0
M  V30 9382 C 872.017 -1.33843 -0.869383 0
M  V30 9383 C 872.217 -0.340374 -1.98604 0
M  V30 9384 O 871.273 0.242696 -2.51331 0
M  V30 9385 C 872.586 -2.73568 -1.24823 0
M  V30 9386 C 874.134 -2.81967 -1.3588 0
M  V30 9387 C 874.609 -4.22368 -1.77114 0
M  V30 9388 N 876.1 -4.24983 -1.84237 0
M  V30 9389 C 876.835 -5.30547 -2.17503 0
M  V30 9390 N 876.331 -6.46401 -2.49275 0
M  V30 9391 N 878.124 -5.17933 -2.18406 0
M  V30 9392 H 870.275 -2.11503 0.195001 0
M  V30 9393 H 872.538 -0.947681 0.0245862 0
M  V30 9394 H 872.244 -3.48107 -0.501435 0
M  V30 9395 H 872.118 -3.06322 -2.20106 0
M  V30 9396 H 874.505 -2.07692 -2.09638 0
M  V30 9397 H 874.586 -2.52848 -0.387478 0
M  V30 9398 H 874.23 -4.97155 -1.0392 0
M  V30 9399 H 874.16 -4.48922 -2.75275 0
M  V30 9400 H 876.651 -3.41411 -1.62009 0
M  V30 9401 H 876.964 -7.22698 -2.73729 0
M  V30 9402 H 875.309 -6.49696 -2.46821 0
M  V30 9403 H 878.5 -4.26445 -1.93034 0
M  V30 9404 H 878.673 -6.00307 -2.44 0
M  V30 9405 N 872.079 0.78992 -1.36375 0
M  V30 9406 C 872.989 1.93386 -1.32812 0
M  V30 9407 C 874.005 1.72468 -0.230377 0
M  V30 9408 O 875.181 1.96014 -0.462657 0
M  V30 9409 C 872.246 3.2824 -1.11621 0
M  V30 9410 C 871.307 3.61939 -2.30865 0
M  V30 9411 C 870.54 4.90359 -2.10675 0
M  V30 9412 O 870.763 5.6005 -1.08168 0
M  V30 9413 O 869.697 5.22702 -2.9844 0
M  V30 9414 H 873.523 1.99342 -2.29121 0
M  V30 9415 H 871.108 0.9301 -1.16917 0
M  V30 9416 H 872.99 4.08939 -1.01719 0
M  V30 9417 H 871.665 3.23178 -0.183732 0
M  V30 9418 H 870.572 2.81549 -2.46335 0
M  V30 9419 H 871.905 3.71725 -3.22617 0
M  V30 9420 N 873.557 1.20646 1.01402 0
M  V30 9421 C 874.782 1.04462 1.79172 0
M  V30 9422 C 875.207 -0.401588 1.83763 0
M  V30 9423 O 874.565 -1.28934 1.27459 0
M  V30 9424 C 874.613 1.63583 3.21361 0
M  V30 9425 O 873.717 0.875198 4.03006 0
M  V30 9426 H 873.058 0.368235 0.552539 0
M  V30 9427 H 875.588 1.59994 1.27526 0
M  V30 9428 H 875.598 1.67426 3.72065 0
M  V30 9429 H 874.273 2.68835 3.17334 0
M  V30 9430 H 872.85 0.911172 3.61597 0
M  V30 9431 N 875.035 -1.20752 1.01276 0
M  V30 9432 C 876.451 -1.42084 0.726934 0
M  V30 9433 C 876.651 -1.89138 -0.694907 0
M  V30 9434 O 875.707 -2.05783 -1.4632 0
M  V30 9435 C 877.02 -2.44575 1.74938 0
M  V30 9436 C 878.568 -2.58347 1.76708 0
M  V30 9437 C 879.043 -3.64078 2.77869 0
M  V30 9438 N 880.534 -3.71558 2.76585 0
M  V30 9439 C 881.269 -4.53016 3.51517 0
M  V30 9440 N 880.765 -5.38309 4.36114 0
M  V30 9441 N 882.558 -4.47512 3.40132 0
M  V30 9442 H 874.709 -0.885228 1.93074 0
M  V30 9443 H 876.972 -0.451075 0.833808 0
M  V30 9444 H 876.678 -2.1699 2.76782 0
M  V30 9445 H 876.552 -3.43503 1.55838 0
M  V30 9446 H 878.939 -2.85265 0.755516 0
M  V30 9447 H 879.02 -1.59628 1.99882 0
M  V30 9448 H 878.664 -3.37905 3.79187 0
M  V30 9449 H 878.594 -4.62412 2.51958 0
M  V30 9450 H 881.085 -3.10629 2.15216 0
M  V30 9451 H 881.398 -5.9754 4.90068 0
M  V30 9452 H 879.743 -5.37824 4.40194 0
M  V30 9453 H 882.934 -3.79912 2.73467 0
M  V30 9454 H 883.107 -5.10759 3.98784 0
M  V30 9455 N 876.513 -0.788492 -1.36457 0
M  V30 9456 C 877.443 -0.200468 -2.32638 0
M  V30 9457 C 878.424 0.664031 -1.56603 0
M  V30 9458 O 879.609 0.598045 -1.84762 0
M  V30 9459 C 876.739 0.666274 -3.40849 0
M  V30 9460 C 875.693 -0.0982574 -4.27887 0
M  V30 9461 C 875.019 0.889018 -5.27258 0
M  V30 9462 C 876.319 -1.28692 -5.06197 0
M  V30 9463 H 878.013 -1.00399 -2.82065 0
M  V30 9464 H 875.559 -0.484237 -1.35614 0
M  V30 9465 H 877.512 1.08757 -4.07124 0
M  V30 9466 H 876.236 1.50249 -2.89987 0
M  V30 9467 H 874.895 -0.500525 -3.63167 0
M  V30 9468 H 874.543 1.72024 -4.7267 0
M  V30 9469 H 874.243 0.381909 -5.86358 0
M  V30 9470 H 875.767 1.30891 -5.96406 0
M  V30 9471 H 877.181 -0.941429 -5.65517 0
M  V30 9472 H 875.578 -1.72726 -5.74705 0
M  V30 9473 H 876.648 -2.08273 -4.37893 0
M  V30 9474 N 877.991 1.48044 -0.54043 0
M  V30 9475 C 878.954 2.28273 0.205966 0
M  V30 9476 C 879.954 1.35983 0.858209 0
M  V30 9477 O 881.144 1.58776 0.716651 0
M  V30 9478 C 878.276 3.15174 1.29917 0
M  V30 9479 H 879.469 2.95727 -0.498555 0
M  V30 9480 H 877.022 1.53457 -0.296745 0
M  V30 9481 H 877.757 2.52374 2.03661 0
M  V30 9482 H 877.542 3.83074 0.836475 0
M  V30 9483 H 879.032 3.75666 1.82387 0
M  V30 9484 N 879.47 0.276058 1.55163 0
M  V30 9485 C 880.433 -0.597924 2.21263 0
M  V30 9486 C 881.433 -1.0806 1.19078 0
M  V30 9487 O 882.623 -0.980626 1.43977 0
M  V30 9488 C 879.755 -1.82503 2.87933 0
M  V30 9489 H 880.948 -0.0207769 2.99893 0
M  V30 9490 H 878.501 0.0266823 1.56277 0
M  V30 9491 H 879.236 -2.44266 2.13318 0
M  V30 9492 H 879.021 -1.48683 3.62816 0
M  V30 9493 H 880.511 -2.44651 3.38431 0
M  V30 9494 N 880.948 -1.576 0.00335426 0
M  V30 9495 C 881.858 -2.12067 -1.00322 0
M  V30 9496 C 882.874 -1.06672 -1.37467 0
M  V30 9497 O 884.05 -1.38592 -1.46131 0
M  V30 9498 C 881.115 -2.61593 -2.27531 0
M  V30 9499 C 880.176 -3.81602 -1.96668 0
M  V30 9500 C 879.409 -4.28756 -3.17811 0
M  V30 9501 O 879.632 -3.75222 -4.2961 0
M  V30 9502 O 878.566 -5.20877 -3.01613 0
M  V30 9503 H 882.392 -2.98299 -0.570199 0
M  V30 9504 H 879.977 -1.47835 -0.215682 0
M  V30 9505 H 881.859 -2.93631 -3.02256 0
M  V30 9506 H 880.534 -1.78457 -2.70065 0
M  V30 9507 H 879.441 -3.54531 -1.19408 0
M  V30 9508 H 880.774 -4.65822 -1.58968 0
M  V30 9509 N 882.426 0.269451 -1.5528 0
M  V30 9510 C 883.336 1.35511 -1.91505 0
M  V30 9511 C 884.352 1.53854 -0.812712 0
M  V30 9512 O 885.528 1.67912 -1.1121 0
M  V30 9513 C 882.593 2.6937 -2.18267 0
M  V30 9514 C 881.654 2.59743 -3.41807 0
M  V30 9515 C 880.887 3.87219 -3.67283 0
M  V30 9516 O 881.11 4.88066 -2.95208 0
M  V30 9517 O 880.044 3.87209 -4.60818 0
M  V30 9518 H 883.87 1.07785 -2.8393 0
M  V30 9519 H 881.455 0.468282 -1.41871 0
M  V30 9520 H 883.337 3.48513 -2.36889 0
M  V30 9521 H 882.012 2.96874 -1.29024 0
M  V30 9522 H 880.919 1.78964 -3.28516 0
M  V30 9523 H 882.252 2.37188 -4.3128 0
M  V30 9524 N 883.904 1.48273 0.534124 0
M  V30 9525 C 885.151 1.56079 1.29017 0
M  V30 9526 C 885.479 0.232912 1.931 0
M  V30 9527 O 884.734 -0.77642 1.79639 0
M  V30 9528 C 885.033 2.64468 2.40398 0
M  V30 9529 C 884.699 4.07034 1.93995 0
M  V30 9530 C 883.361 4.45838 1.81058 0
M  V30 9531 C 885.713 4.96395 1.58877 0
M  V30 9532 C 883.041 5.71812 1.31331 0
M  V30 9533 C 885.393 6.22854 1.10614 0
M  V30 9534 C 884.057 6.60518 0.962895 0
M  V30 9535 H 883.327 0.571135 0.472108 0
M  V30 9536 H 885.974 1.81973 0.5965 0
M  V30 9537 H 884.279 2.32419 3.15418 0
M  V30 9538 H 885.976 2.67725 2.98537 0
M  V30 9539 H 882.566 3.76387 2.05015 0
M  V30 9540 H 886.75 4.67096 1.67734 0
M  V30 9541 H 882.006 5.99722 1.18924 0
M  V30 9542 H 886.18 6.91495 0.825095 0
M  V30 9543 H 883.807 7.58019 0.575369 0
M  V30 9544 N 885.382 -0.782676 1.36792 0
M  V30 9545 C 886.329 -1.89558 1.31667 0
M  V30 9546 C 887.299 -1.65076 0.184147 0
M  V30 9547 O 888.484 -1.87143 0.371753 0
M  V30 9548 C 885.624 -3.26469 1.11858 0
M  V30 9549 C 884.737 -3.62978 2.34245 0
M  V30 9550 C 883.872 -4.89041 2.07394 0
M  V30 9551 C 882.911 -5.18249 3.25706 0
M  V30 9552 N 882.048 -6.35497 2.98476 0
M  V30 9553 H 886.888 -1.93274 2.26824 0
M  V30 9554 H 884.425 -0.945057 1.12726 0
M  V30 9555 H 886.383 -4.05431 0.983968 0
M  V30 9556 H 885.013 -3.22158 0.203531 0
M  V30 9557 H 884.065 -2.79087 2.58485 0
M  V30 9558 H 885.377 -3.80507 3.22514 0
M  V30 9559 H 884.531 -5.75883 1.90901 0
M  V30 9560 H 883.27 -4.73594 1.16446 0
M  V30 9561 H 882.275 -4.29887 3.4275 0
M  V30 9562 H 883.5 -5.35611 4.1749 0
M  V30 9563 H 881.446 -6.21429 2.10146 0
M  V30 9564 H 881.363 -6.5339 3.80286 0
M  V30 9565 H 882.631 -7.25304 2.85577 0
M  V30 9566 N 886.86 -1.21182 -1.00761 0
M  V30 9567 C 888.276 -0.968607 -1.26847 0
M  V30 9568 C 888.476 0.346561 -1.98497 0
M  V30 9569 O 887.532 1.07287 -2.28573 0
M  V30 9570 C 888.845 -2.1574 -2.09467 0
M  V30 9571 C 890.393 -2.19937 -2.22703 0
M  V30 9572 C 890.868 -3.38328 -3.08704 0
M  V30 9573 N 892.359 -3.38398 -3.16293 0
M  V30 9574 C 893.094 -4.26653 -3.83086 0
M  V30 9575 N 892.59 -5.25101 -4.5193 0
M  V30 9576 N 894.383 -4.14469 -3.797 0
M  V30 9577 H 886.534 -2.05763 -0.526816 0
M  V30 9578 H 888.797 -0.90087 -0.29519 0
M  V30 9579 H 888.503 -3.11034 -1.64167 0
M  V30 9580 H 888.377 -2.14584 -3.10216 0
M  V30 9581 H 890.764 -1.25201 -2.67224 0
M  V30 9582 H 890.845 -2.25139 -1.21433 0
M  V30 9583 H 890.489 -4.33356 -2.64886 0
M  V30 9584 H 890.419 -3.30364 -4.10082 0
M  V30 9585 H 892.91 -2.67149 -2.67282 0
M  V30 9586 H 893.223 -5.8875 -5.00592 0
M  V30 9587 H 891.568 -5.29029 -4.50726 0
M  V30 9588 H 894.759 -3.3682 -3.25069 0
M  V30 9589 H 894.932 -4.83458 -4.31477 0
M  V30 9590 N 888.338 1.20213 -1.01915 0
M  V30 9591 C 889.285 2.2309 -0.591571 0
M  V30 9592 C 890.255 1.61465 0.389649 0
M  V30 9593 O 891.44 1.88606 0.288511 0
M  V30 9594 C 888.58 3.45045 0.0614028 0
M  V30 9595 C 887.693 4.21091 -0.964688 0
M  V30 9596 C 886.828 5.30448 -0.282499 0
M  V30 9597 C 885.867 5.98241 -1.29517 0
M  V30 9598 N 885.004 6.99182 -0.639472 0
M  V30 9599 H 889.844 2.59023 -1.47347 0
M  V30 9600 H 887.381 1.27274 -0.737547 0
M  V30 9601 H 889.339 4.14688 0.45714 0
M  V30 9602 H 887.969 3.09797 0.906937 0
M  V30 9603 H 887.021 3.50489 -1.47857 0
M  V30 9604 H 888.333 4.67662 -1.73475 0
M  V30 9605 H 887.487 6.06466 0.168603 0
M  V30 9606 H 886.226 4.84922 0.519843 0
M  V30 9607 H 885.231 5.20982 -1.75663 0
M  V30 9608 H 886.456 6.45853 -2.09884 0
M  V30 9609 H 884.402 6.55844 0.142955 0
M  V30 9610 H 884.319 7.43893 -1.34756 0
M  V30 9611 H 885.587 7.79212 -0.212047 0
M  V30 9612 N 889.816 0.795718 1.36037 0
M  V30 9613 C 890.779 0.204318 2.28287 0
M  V30 9614 C 891.779 -0.602017 1.49105 0
M  V30 9615 O 892.969 -0.422089 1.69009 0
M  V30 9616 C 890.101 -0.716431 3.33287 0
M  V30 9617 H 891.294 1.01781 2.821 0
M  V30 9618 H 888.847 0.565588 1.45708 0
M  V30 9619 H 889.582 -1.55403 2.84641 0
M  V30 9620 H 889.367 -0.140096 3.9185 0
M  V30 9621 H 890.857 -1.12488 4.02164 0
M  V30 9622 N 891.294 -1.47756 0.548274 0
M  V30 9623 C 892.522 -2.06884 0.0254873 0
M  V30 9624 C 892.937 -1.40225 -1.26422 0
M  V30 9625 O 892.294 -0.495776 -1.75637 0
M  V30 9626 C 892.345 -3.61036 -0.183134 0
M  V30 9627 O 892.066 -4.25195 1.05549 0
M  V30 9628 C 893.567 -4.37008 -0.744222 0
M  V30 9629 H 890.787 -0.669697 0.041789 0
M  V30 9630 H 893.331 -1.89888 0.759138 0
M  V30 9631 H 891.486 -3.77576 -0.866886 0
M  V30 9632 H 891.9 -5.17606 0.847629 0
M  V30 9633 H 893.374 -5.45579 -0.839529 0
M  V30 9634 H 893.851 -4.0268 -1.75344 0
M  V30 9635 H 894.457 -4.25191 -0.0964542 0
M  V30 9636 N 892.772 -0.284283 -1.55015 0
M  V30 9637 C 893.682 0.60906 -2.26556 0
M  V30 9638 C 894.698 1.16246 -1.29472 0
M  V30 9639 O 895.874 1.1908 -1.62425 0
M  V30 9640 C 892.939 1.77246 -2.97968 0
M  V30 9641 C 892 1.25482 -4.10552 0
M  V30 9642 C 891.233 2.36277 -4.78549 0
M  V30 9643 O 891.456 3.55829 -4.45805 0
M  V30 9644 O 890.39 2.03914 -5.66306 0
M  V30 9645 H 894.216 0.0292298 -3.03686 0
M  V30 9646 H 891.801 -0.0513466 -1.49312 0
M  V30 9647 H 893.683 2.45062 -3.42815 0
M  V30 9648 H 892.358 2.33921 -2.23747 0
M  V30 9649 H 891.265 0.542859 -3.7014 0
M  V30 9650 H 892.598 0.733708 -4.86701 0
M  V30 9651 N 894.251 1.57596 -0.0117121 0
M  V30 9652 C 895.491 1.92932 0.675031 0
M  V30 9653 C 895.855 0.887004 1.70283 0
M  V30 9654 O 897.056 1.12599 2.4408 0
M  V30 9655 C 895.327 3.3327 1.29098 0
M  V30 9656 S 896.886 3.90509 2.00121 0
M  V30 9657 H 893.704 0.675226 0.22269 0
M  V30 9658 H 896.306 1.9537 -0.071208 0
M  V30 9659 H 895.01 4.0696 0.530262 0
M  V30 9660 H 894.541 3.34233 2.0749 0
M  V30 9661 H 896.556 3.72532 3.27771 0
M  V30 9662 N 895.729 -0.261212 1.5542 0
M  V30 9663 C 896.661 -1.34571 1.85535 0
M  V30 9664 C 897.674 -1.44979 0.740612 0
M  V30 9665 O 898.863 -1.46584 1.01859 0
M  V30 9666 C 895.963 -2.7258 2.01378 0
M  V30 9667 C 895.136 -2.84618 3.32131 0
M  V30 9668 C 894.195 -4.03379 3.37893 0
M  V30 9669 O 893.221 -3.93581 4.11197 0
M  V30 9670 N 894.423 -5.15893 2.66148 0
M  V30 9671 H 897.188 -1.09078 2.79145 0
M  V30 9672 H 894.749 -0.451327 1.55482 0
M  V30 9673 H 896.741 -3.50342 2.0259 0
M  V30 9674 H 895.311 -2.90844 1.14579 0
M  V30 9675 H 894.531 -1.93647 3.43358 0
M  V30 9676 H 895.819 -2.896 4.18341 0
M  V30 9677 H 895.217 -5.26743 2.06297 0
M  V30 9678 H 893.774 -5.91842 2.73069 0
M  V30 9679 N 897.207 -1.48554 -0.526253 0
M  V30 9680 C 898.157 -1.59753 -1.62674 0
M  V30 9681 C 899.141 -0.454452 -1.54349 0
M  V30 9682 O 900.333 -0.706091 -1.62306 0
M  V30 9683 C 897.462 -1.64388 -3.01383 0
M  V30 9684 C 896.548 -2.84188 -3.14798 0
M  V30 9685 N 896.939 -4.08564 -2.98176 0
M  V30 9686 C 895.237 -2.81599 -3.45859 0
M  V30 9687 C 895.938 -4.88961 -3.15106 0
M  V30 9688 N 894.914 -4.21848 -3.42849 0
M  V30 9689 H 898.716 -2.5366 -1.48438 0
M  V30 9690 H 896.23 -1.44977 -0.731801 0
M  V30 9691 H 898.227 -1.70505 -3.80439 0
M  V30 9692 H 896.887 -0.716006 -3.16707 0
M  V30 9693 H 897.898 -4.38943 -2.74862 0
M  V30 9694 H 894.575 -1.98083 -3.67518 0
M  V30 9695 H 895.965 -5.97683 -3.0696 0
M  V30 9696 N 898.685 0.775411 -1.37205 0
M  V30 9697 C 899.632 1.88857 -1.32671 0
M  V30 9698 C 900.602 1.64976 -0.192899 0
M  V30 9699 O 901.787 1.86944 -0.381673 0
M  V30 9700 C 898.927 3.25871 -1.13588 0
M  V30 9701 C 898.04 3.61731 -2.36167 0
M  V30 9702 C 897.175 4.87934 -2.09985 0
M  V30 9703 C 896.214 5.16514 -3.2845 0
M  V30 9704 N 895.351 6.33905 -3.01842 0
M  V30 9705 H 900.191 1.92068 -2.27846 0
M  V30 9706 H 897.728 0.939066 -1.13225 0
M  V30 9707 H 899.686 4.04903 -1.00546 0
M  V30 9708 H 898.316 3.22045 -0.220613 0
M  V30 9709 H 897.368 2.77712 -2.59962 0
M  V30 9710 H 898.68 3.78792 -3.24528 0
M  V30 9711 H 897.834 5.74863 -1.93953 0
M  V30 9712 H 896.573 4.7297 -1.18956 0
M  V30 9713 H 895.578 4.28063 -3.45025 0
M  V30 9714 H 896.803 5.33389 -4.20325 0
M  V30 9715 H 894.749 6.20306 -2.13439 0
M  V30 9716 H 894.666 6.51364 -3.83746 0
M  V30 9717 H 895.934 7.23779 -2.8942 0
M  V30 9718 N 900.163 1.21714 1.00117 0
M  V30 9719 C 901.093 1.00397 2.10815 0
M  V30 9720 C 902.074 -0.0723502 1.69946 0
M  V30 9721 O 903.259 0.0882398 1.93999 0
M  V30 9722 C 900.389 0.572001 3.42557 0
M  V30 9723 C 899.343 1.59331 3.97237 0
M  V30 9724 C 898.669 1.01746 5.2493 0
M  V30 9725 C 899.969 2.98117 4.28863 0
M  V30 9726 H 901.663 1.92983 2.28906 0
M  V30 9727 H 899.209 0.929273 1.10002 0
M  V30 9728 H 901.162 0.410018 4.19401 0
M  V30 9729 H 899.886 -0.38951 3.24269 0
M  V30 9730 H 898.545 1.74293 3.22518 0
M  V30 9731 H 898.193 0.0475491 5.02978 0
M  V30 9732 H 897.893 1.69969 5.62481 0
M  V30 9733 H 899.417 0.866881 6.04415 0
M  V30 9734 H 900.831 2.86578 4.96534 0
M  V30 9735 H 899.228 3.63389 4.77565 0
M  V30 9736 H 900.298 3.48674 3.36979 0
M  V30 9737 N 901.641 -1.19671 1.02551 0
M  V30 9738 C 902.571 -2.25009 0.623965 0
M  V30 9739 C 903.552 -1.66129 -0.36538 0
M  V30 9740 O 904.737 -1.92599 -0.248842 0
M  V30 9741 C 901.867 -3.47287 -0.0294869 0
M  V30 9742 C 900.821 -4.18818 0.881781 0
M  V30 9743 C 900.147 -5.34618 0.0936189 0
M  V30 9744 C 901.447 -4.73986 2.19396 0
M  V30 9745 H 903.141 -2.58851 1.50454 0
M  V30 9746 H 900.687 -1.24425 0.724872 0
M  V30 9747 H 902.64 -4.20168 -0.322016 0
M  V30 9748 H 901.364 -3.12635 -0.944838 0
M  V30 9749 H 900.023 -3.47815 1.15845 0
M  V30 9750 H 899.671 -4.9621 -0.823661 0
M  V30 9751 H 899.371 -5.83409 0.700568 0
M  V30 9752 H 900.895 -6.10297 -0.192249 0
M  V30 9753 H 902.309 -5.38639 1.96319 0
M  V30 9754 H 900.706 -5.3325 2.75254 0
M  V30 9755 H 901.776 -3.92238 2.85092 0
M  V30 9756 N 903.119 -0.802921 -1.35613 0
M  V30 9757 C 904.066 -0.20874 -2.29854 0
M  V30 9758 C 905.036 0.655128 -1.52634 0
M  V30 9759 O 906.221 0.600979 -1.81088 0
M  V30 9760 C 903.361 0.639663 -3.3912 0
M  V30 9761 C 902.474 -0.244234 -4.31309 0
M  V30 9762 C 901.609 0.611825 -5.27665 0
M  V30 9763 C 900.648 -0.272698 -6.11492 0
M  V30 9764 N 899.785 0.543122 -6.99996 0
M  V30 9765 H 904.625 -1.01782 -2.80079 0
M  V30 9766 H 902.162 -0.513465 -1.37848 0
M  V30 9767 H 904.12 1.14668 -4.01132 0
M  V30 9768 H 902.75 1.41404 -2.9018 0
M  V30 9769 H 901.802 -0.869322 -3.70334 0
M  V30 9770 H 903.114 -0.925202 -4.90144 0
M  V30 9771 H 902.268 1.18412 -5.95032 0
M  V30 9772 H 901.007 1.32637 -4.69317 0
M  V30 9773 H 900.012 -0.857287 -5.43075 0
M  V30 9774 H 901.237 -0.985051 -6.71918 0
M  V30 9775 H 899.183 1.24171 -6.44141 0
M  V30 9776 H 899.1 -0.0798767 -7.55958 0
M  V30 9777 H 900.368 1.09881 -7.71717 0
M  V30 9778 N 904.597 1.47463 -0.556102 0
M  V30 9779 C 905.56 2.28478 0.181743 0
M  V30 9780 C 906.56 1.36886 0.843738 0
M  V30 9781 O 907.75 1.59527 0.69977 0
M  V30 9782 C 904.882 3.16534 1.26566 0
M  V30 9783 H 906.075 2.95182 -0.529892 0
M  V30 9784 H 903.628 1.53134 -0.313005 0
M  V30 9785 H 904.363 2.5452 2.00973 0
M  V30 9786 H 904.148 3.83939 0.795798 0
M  V30 9787 H 905.638 3.77579 1.78393 0
M  V30 9788 N 906.075 0.2925 1.54862 0
M  V30 9789 C 907.022 -0.587365 2.23201 0
M  V30 9790 C 907.992 -1.13623 1.21157 0
M  V30 9791 O 909.177 -1.18233 1.49752 0
M  V30 9792 C 906.317 -1.75745 2.96998 0
M  V30 9793 C 905.43 -1.24078 4.13798 0
M  V30 9794 C 904.565 -2.37405 4.75197 0
M  V30 9795 C 903.604 -1.82829 5.84157 0
M  V30 9796 N 902.741 -2.89696 6.39547 0
M  V30 9797 H 907.581 0.00202207 2.98 0
M  V30 9798 H 905.118 0.012766 1.47094 0
M  V30 9799 H 907.076 -2.44549 3.38011 0
M  V30 9800 H 905.706 -2.3186 2.24591 0
M  V30 9801 H 904.758 -0.445268 3.77785 0
M  V30 9802 H 906.07 -0.801186 4.92324 0
M  V30 9803 H 905.224 -3.14172 5.19019 0
M  V30 9804 H 903.963 -2.84688 3.95985 0
M  V30 9805 H 902.968 -1.04548 5.39768 0
M  V30 9806 H 904.193 -1.36461 6.65248 0
M  V30 9807 H 902.139 -3.36328 5.63222 0
M  V30 9808 H 902.056 -2.50206 7.13395 0
M  V30 9809 H 903.324 -3.66386 6.88027 0
M  V30 9810 N 907.553 -1.57587 0.0200696 0
M  V30 9811 C 908.83 -1.82696 -0.698677 0
M  V30 9812 C 909.21 -0.902082 -1.90855 0
M  V30 9813 O 908.558 0.0444834 -2.28457 0
M  V30 9814 C 908.768 -3.31691 -1.08546 0
M  V30 9815 C 910.116 -3.97938 -1.4809 0
M  V30 9816 O 911.14 -3.36133 -1.17869 0
M  V30 9817 O 909.999 -5.06851 -2.04364 0
M  V30 9818 H 907.093 -0.752997 -0.341942 0
M  V30 9819 H 909.639 -1.69635 0.04706 0
M  V30 9820 H 908.411 -3.90659 -0.223956 0
M  V30 9821 H 908.034 -3.49825 -1.88965 0
M  V30 9822 N 909.032 0.252966 -1.55557 0
M  V30 9823 C 909.964 1.33585 -1.86246 0
M  V30 9824 C 910.977 1.44584 -0.748291 0
M  V30 9825 O 912.166 1.46042 -1.02635 0
M  V30 9826 C 909.266 2.71509 -2.02821 0
M  V30 9827 C 908.439 2.82853 -3.33636 0
M  V30 9828 C 907.498 4.01581 -3.40028 0
M  V30 9829 O 906.524 3.91394 -4.13278 0
M  V30 9830 N 907.726 5.14474 -2.6888 0
M  V30 9831 H 910.491 1.07596 -2.7972 0
M  V30 9832 H 908.052 0.443075 -1.55719 0
M  V30 9833 H 910.044 3.49262 -2.04445 0
M  V30 9834 H 908.614 2.90232 -1.1612 0
M  V30 9835 H 907.834 1.91823 -3.4438 0
M  V30 9836 H 909.122 2.87378 -4.19871 0
M  V30 9837 H 908.52 5.25641 -2.09087 0
M  V30 9838 H 907.077 5.90385 -2.76204 0
M  V30 9839 N 910.51 1.48831 0.518367 0
M  V30 9840 C 911.758 1.57128 1.27103 0
M  V30 9841 C 912.079 0.252098 1.93364 0
M  V30 9842 O 911.349 -0.727281 1.819 0
M  V30 9843 H 909.929 0.578891 0.472116 0
M  V30 9844 H 912.591 1.85361 0.602262 0
M  V30 9845 H 911.687 2.35838 2.04418 0
M  V30 9846 N 911.988 -0.768124 1.37614 0
M  V30 9847 C 912.935 -1.88151 1.33671 0
M  V30 9848 C 913.905 -1.64871 0.201645 0
M  V30 9849 O 915.09 -1.86739 0.391582 0
M  V30 9850 C 912.23 -3.25264 1.15314 0
M  V30 9851 C 911.343 -3.60473 2.38082 0
M  V30 9852 C 910.478 -4.86814 2.12569 0
M  V30 9853 C 909.517 -5.14765 3.31184 0
M  V30 9854 N 908.654 -6.32295 3.052 0
M  V30 9855 H 913.494 -1.90857 2.28862 0
M  V30 9856 H 911.031 -0.933048 1.13722 0
M  V30 9857 H 912.989 -4.04364 1.02691 0
M  V30 9858 H 911.619 -3.21924 0.237689 0
M  V30 9859 H 910.671 -2.7633 2.61431 0
M  V30 9860 H 911.983 -3.77065 3.26532 0
M  V30 9861 H 911.137 -5.73826 1.96999 0
M  V30 9862 H 909.876 -4.72333 1.21462 0
M  V30 9863 H 908.881 -4.26227 3.4729 0
M  V30 9864 H 910.106 -5.31153 4.23147 0
M  V30 9865 H 908.052 -6.19166 2.16726 0
M  V30 9866 H 907.969 -6.4932 3.87195 0
M  V30 9867 H 909.237 -7.22234 2.93254 0
M  V30 9868 N 913.466 -1.22244 -0.994698 0
M  V30 9869 C 914.877 -1.043 -1.5485 0
M  V30 9870 C 915.228 0.394102 -1.92201 0
M  V30 9871 O 914.353 1.27883 -1.74571 0
M  V30 9872 C 914.948 -1.88708 -2.8138 0
M  V30 9873 C 913.507 -1.75067 -3.3321 0
M  V30 9874 C 912.654 -1.85286 -2.06312 0
M  V30 9875 H 915.605 -1.36115 -0.815988 0
M  V30 9876 H 915.626 -1.40342 -3.53673 0
M  V30 9877 H 915.138 -2.93296 -2.54164 0
M  V30 9878 H 913.239 -0.732047 -3.65338 0
M  V30 9879 H 913.352 -2.57632 -4.03934 0
M  V30 9880 H 911.716 -1.28706 -2.19788 0
M  V30 9881 H 912.499 -2.91401 -1.81494 0
M  V30 9882 N 914.944 1.19125 -1.03184 0
M  V30 9883 C 915.854 2.26112 -0.625329 0
M  V30 9884 C 916.87 1.7056 0.344298 0
M  V30 9885 O 918.046 2.0039 0.20144 0
M  V30 9886 C 915.111 3.46697 0.0145169 0
M  V30 9887 C 914.172 4.17419 -1.00299 0
M  V30 9888 C 913.405 5.32247 -0.393581 0
M  V30 9889 O 913.628 5.64724 0.802659 0
M  V30 9890 O 912.562 5.91428 -1.1179 0
M  V30 9891 H 916.388 2.63131 -1.51643 0
M  V30 9892 H 913.973 1.26036 -0.802197 0
M  V30 9893 H 915.855 4.19762 0.371139 0
M  V30 9894 H 914.53 3.11521 0.879581 0
M  V30 9895 H 913.437 3.4646 -1.41125 0
M  V30 9896 H 914.77 4.56573 -1.83852 0
M  V30 9897 N 916.422 0.810101 1.35185 0
M  V30 9898 C 917.668 0.392698 1.98962 0
M  V30 9899 C 918.001 -1.03835 1.64109 0
M  V30 9900 O 917.276 -1.721 0.9062 0
M  V30 9901 C 917.559 0.580349 3.55393 0
M  V30 9902 C 917.412 2.05658 4.00031 0
M  V30 9903 C 918.731 0.00822618 4.40099 0
M  V30 9904 H 915.85 0.144157 0.722764 0
M  V30 9905 H 918.492 1.02029 1.60281 0
M  V30 9906 H 916.642 0.0461106 3.88473 0
M  V30 9907 H 918.314 2.65348 3.77344 0
M  V30 9908 H 916.557 2.55174 3.50811 0
M  V30 9909 H 917.228 2.13875 5.08883 0
M  V30 9910 H 919.704 0.464517 4.13499 0
M  V30 9911 H 918.58 0.169414 5.48638 0
M  V30 9912 H 918.841 -1.08576 4.2856 0
M  V30 9913 N 917.9 -1.47166 0.563914 0
M  V30 9914 C 919.148 -2.02056 0.0422873 0
M  V30 9915 C 919.469 -1.43992 -1.31497 0
M  V30 9916 O 918.739 -0.617578 -1.85911 0
M  V30 9917 H 917.319 -0.746893 0.0126427 0
M  V30 9918 H 919.981 -1.80492 0.735441 0
M  V30 9919 H 919.077 -3.12073 -0.0408044 0
M  V30 9920 N 919.378 -0.300708 -1.54705 0
M  V30 9921 C 920.288 0.584996 -2.27189 0
M  V30 9922 C 921.304 1.14866 -1.30697 0
M  V30 9923 O 922.48 1.17351 -1.63679 0
M  V30 9924 C 919.545 1.74076 -2.99831 0
M  V30 9925 C 918.606 1.2112 -4.1186 0
M  V30 9926 C 917.839 2.31188 -4.81028 0
M  V30 9927 O 918.062 3.5108 -4.49554 0
M  V30 9928 O 916.996 1.97897 -5.68437 0
M  V30 9929 H 920.822 -0.00298177 -3.037 0
M  V30 9930 H 918.407 -0.0671802 -1.49249 0
M  V30 9931 H 920.289 2.41413 -3.45395 0
M  V30 9932 H 918.964 2.31535 -2.26215 0
M  V30 9933 H 917.871 0.50357 -3.70695 0
M  V30 9934 H 919.204 0.682046 -4.87452 0
M  V30 9935 N 920.856 1.57574 -0.0284266 0
M  V30 9936 C 922.086 1.95787 0.659617 0
M  V30 9937 C 922.494 0.903475 1.66235 0
M  V30 9938 O 921.837 -0.12329 1.83286 0
M  V30 9939 C 921.899 3.30139 1.42298 0
M  V30 9940 C 921.563 4.53322 0.578658 0
M  V30 9941 C 922.56 5.19696 -0.145751 0
M  V30 9942 C 920.245 4.9964 0.516264 0
M  V30 9943 C 922.239 6.30708 -0.921235 0
M  V30 9944 C 919.926 6.10534 -0.262925 0
M  V30 9945 C 920.924 6.75927 -0.980382 0
M  V30 9946 O 920.612 7.84692 -1.7468 0
M  V30 9947 H 920.344 0.649681 0.186792 0
M  V30 9948 H 922.898 2.05227 -0.0842687 0
M  V30 9949 H 921.128 3.17188 2.21199 0
M  V30 9950 H 922.817 3.53259 1.99906 0
M  V30 9951 H 923.583 4.84882 -0.106876 0
M  V30 9952 H 919.462 4.48547 1.06427 0
M  V30 9953 H 923.006 6.81682 -1.48176 0
M  V30 9954 H 918.903 6.44786 -0.303519 0
M  V30 9955 H 919.671 8.01355 -1.6665 0
M  V30 9956 N 922.334 -0.244713 1.55689 0
M  V30 9957 C 923.297 -1.2864 1.89695 0
M  V30 9958 C 924.297 -1.40969 0.773583 0
M  V30 9959 O 925.487 -1.39632 1.04156 0
M  V30 9960 C 922.619 -2.66379 2.12732 0
M  V30 9961 H 923.812 -0.997033 2.82841 0
M  V30 9962 H 921.365 -0.484103 1.48614 0
M  V30 9963 H 922.1 -3.00452 1.22062 0
M  V30 9964 H 921.885 -2.58812 2.94549 0
M  V30 9965 H 923.375 -3.41592 2.40218 0
M  V30 9966 N 923.813 -1.49104 -0.510467 0
M  V30 9967 C 924.76 -1.65074 -1.61305 0
M  V30 9968 C 925.73 -0.492362 -1.58635 0
M  V30 9969 O 926.915 -0.718241 -1.76765 0
M  V30 9970 C 924.055 -1.71457 -2.99493 0
M  V30 9971 C 923.168 -2.98536 -3.12251 0
M  V30 9972 C 922.303 -2.95957 -4.41116 0
M  V30 9973 C 921.342 -4.17655 -4.47471 0
M  V30 9974 N 920.479 -4.13041 -5.67751 0
M  V30 9975 H 925.319 -2.59222 -1.46996 0
M  V30 9976 H 922.856 -1.28535 -0.715346 0
M  V30 9977 H 924.814 -1.7314 -3.79577 0
M  V30 9978 H 923.444 -0.807834 -3.12528 0
M  V30 9979 H 922.496 -3.06509 -2.25292 0
M  V30 9980 H 923.808 -3.88527 -3.12807 0
M  V30 9981 H 922.962 -2.96149 -5.2951 0
M  V30 9982 H 921.701 -2.03728 -4.4311 0
M  V30 9983 H 920.706 -4.17717 -3.57481 0
M  V30 9984 H 921.931 -5.11066 -4.472 0
M  V30 9985 H 919.877 -3.23643 -5.70606 0
M  V30 9986 H 919.794 -4.96757 -5.69884 0
M  V30 9987 H 921.062 -4.17322 -6.58379 0
M  V30 9988 N 925.291 0.760815 -1.38019 0
M  V30 9989 C 926.221 1.88811 -1.37377 0
M  V30 9990 C 927.202 1.68388 -0.240737 0
M  V30 9991 O 928.387 1.89086 -0.442739 0
M  V30 9992 C 925.517 3.26244 -1.1909 0
M  V30 9993 C 924.471 3.61254 -2.29521 0
M  V30 9994 C 923.797 4.97346 -1.96345 0
M  V30 9995 C 925.097 3.66874 -3.71753 0
M  V30 9996 H 926.791 1.89606 -2.31711 0
M  V30 9997 H 924.337 0.910818 -1.11535 0
M  V30 9998 H 926.29 4.04755 -1.17267 0
M  V30 9999 H 925.014 3.2591 -0.212152 0
M  V30 10000 H 923.673 2.85057 -2.30517 0
M  V30 10001 H 923.321 4.93564 -0.969728 0
M  V30 10002 H 923.021 5.21739 -2.703 0
M  V30 10003 H 924.545 5.78244 -1.96129 0
M  V30 10004 H 925.959 4.35514 -3.72828 0
M  V30 10005 H 924.356 4.02772 -4.44853 0
M  V30 10006 H 925.426 2.67273 -4.0459 0
M  V30 10007 N 926.769 1.22769 0.988202 0
M  V30 10008 C 927.679 1.01844 2.11341 0
M  V30 10009 C 928.695 -0.0346937 1.73965 0
M  V30 10010 O 929.871 0.159061 2.00771 0
M  V30 10011 C 926.936 0.603837 3.41401 0
M  V30 10012 C 925.997 1.73113 3.92849 0
M  V30 10013 C 925.23 1.33621 5.16702 0
M  V30 10014 O 925.453 0.217041 5.69987 0
M  V30 10015 O 924.387 2.15444 5.62021 0
M  V30 10016 H 928.213 1.96127 2.31879 0
M  V30 10017 H 925.798 1.01405 1.09715 0
M  V30 10018 H 927.68 0.383196 4.19654 0
M  V30 10019 H 926.355 -0.310082 3.22211 0
M  V30 10020 H 925.262 2.00634 3.15748 0
M  V30 10021 H 926.595 2.62308 4.1648 0
M  V30 10022 N 928.247 -1.18576 1.03814 0
M  V30 10023 C 929.194 -2.2212 0.626988 0
M  V30 10024 C 930.164 -1.62064 -0.363912 0
M  V30 10025 O 931.349 -1.89041 -0.258469 0
M  V30 10026 C 928.489 -3.45099 -0.00650133 0
M  V30 10027 C 927.602 -4.19503 1.03156 0
M  V30 10028 C 926.737 -5.29932 0.366852 0
M  V30 10029 C 925.776 -5.96104 1.39018 0
M  V30 10030 N 924.913 -6.98076 0.750625 0
M  V30 10031 H 929.753 -2.56646 1.51449 0
M  V30 10032 H 927.29 -1.26084 0.757702 0
M  V30 10033 H 929.248 -4.15363 -0.391108 0
M  V30 10034 H 927.878 -3.11201 -0.857536 0
M  V30 10035 H 926.93 -3.48092 1.53414 0
M  V30 10036 H 928.242 -4.64843 1.80893 0
M  V30 10037 H 927.396 -6.06657 -0.0720979 0
M  V30 10038 H 926.135 -4.85687 -0.442631 0
M  V30 10039 H 925.14 -5.18122 1.8393 0
M  V30 10040 H 926.365 -6.42432 2.20132 0
M  V30 10041 H 924.311 -6.55989 -0.0385981 0
M  V30 10042 H 924.228 -7.41655 1.46574 0
M  V30 10043 H 925.496 -7.78776 0.335986 0
M  V30 10044 N 929.725 -0.817259 -1.34754 0
M  V30 10045 C 930.974 -0.39908 -1.97713 0
M  V30 10046 C 931.287 1.04203 -1.65533 0
M  V30 10047 O 932.493 1.56384 -2.21937 0
M  V30 10048 C 930.949 -0.662634 -3.53747 0
M  V30 10049 C 930.557 -2.11699 -3.94826 0
M  V30 10050 C 932.301 -0.31034 -4.23364 0
M  V30 10051 C 930.208 -2.32573 -5.4375 0
M  V30 10052 H 929.138 -0.145488 -0.739831 0
M  V30 10053 H 931.789 -1.00282 -1.53674 0
M  V30 10054 H 930.171 0.0111972 -3.95998 0
M  V30 10055 H 931.345 -2.82951 -3.63697 0
M  V30 10056 H 929.66 -2.43017 -3.3813 0
M  V30 10057 H 932.257 -0.44421 -5.32852 0
M  V30 10058 H 932.6 0.744594 -4.09587 0
M  V30 10059 H 933.133 -0.938518 -3.8657 0
M  V30 10060 H 929.872 -3.36551 -5.62507 0
M  V30 10061 H 929.392 -1.65858 -5.76412 0
M  V30 10062 H 931.071 -2.14651 -6.10356 0
M  V30 10063 N 931.203 1.46865 -0.571711 0
M  V30 10064 C 932.151 2.31897 0.180714 0
M  V30 10065 C 933.145 1.43815 0.895191 0
M  V30 10066 O 934.351 1.60501 0.814828 0
M  V30 10067 H 930.726 0.748032 0.077148 0
M  V30 10068 H 932.697 2.93185 -0.555432 0
M  V30 10069 C 931.446 3.26766 1.18824 0
M  V30 10070 H 930.769 3.94515 0.64789 0
M  V30 10071 H 932.209 3.89067 1.68532 0
M  V30 10072 C 930.668 2.51325 2.2436 0
M  V30 10073 O 931.198 2.26825 3.31532 0
M  V30 10074 N 929.404 2.12079 1.98673 0
M  V30 10075 H 928.951 2.32204 1.1153 0
M  V30 10076 H 928.909 1.61921 2.69498 0
M  V30 10077 N 932.681 0.308908 1.54543 0
M  V30 10078 C 933.644 -0.550857 2.22482 0
M  V30 10079 C 934.644 -1.0551 1.21344 0
M  V30 10080 O 935.834 -0.949866 1.46025 0
M  V30 10081 C 932.966 -1.76354 2.9174 0
M  V30 10082 H 934.159 0.0428395 2.99869 0
M  V30 10083 H 931.712 0.059825 1.56185 0
M  V30 10084 H 932.447 -2.39686 2.18451 0
M  V30 10085 H 932.232 -1.40954 3.65889 0
M  V30 10086 H 933.722 -2.37417 3.43545 0
M  V30 10087 N 934.159 -1.57557 0.0367827 0
M  V30 10088 C 935.069 -2.14148 -0.958017 0
M  V30 10089 C 936.085 -1.09564 -1.35173 0
M  V30 10090 O 937.261 -1.4166 -1.43158 0
M  V30 10091 C 934.326 -2.6636 -2.21931 0
M  V30 10092 C 933.387 -3.85688 -1.8853 0
M  V30 10093 C 932.62 -4.35401 -3.08645 0
M  V30 10094 O 932.843 -3.8425 -4.21554 0
M  V30 10095 O 931.777 -5.27158 -2.90497 0
M  V30 10096 H 935.603 -2.99442 -0.506797 0
M  V30 10097 H 933.188 -1.48259 -0.184275 0
M  V30 10098 H 935.07 -2.99976 -2.9596 0
M  V30 10099 H 933.745 -1.84145 -2.66219 0
M  V30 10100 H 932.652 -3.56985 -1.11861 0
M  V30 10101 H 933.985 -4.69089 -1.49052 0
M  V30 10102 N 935.637 0.236453 -1.55816 0
M  V30 10103 C 936.569 1.31602 -1.87653 0
M  V30 10104 C 937.582 1.43782 -0.763584 0
M  V30 10105 O 938.771 1.44945 -1.04178 0
M  V30 10106 C 935.871 2.69342 -2.05689 0
M  V30 10107 C 935.044 2.79298 -3.36617 0
M  V30 10108 C 934.103 3.97952 -3.44268 0
M  V30 10109 O 933.129 3.86989 -4.17406 0
M  V30 10110 N 934.331 5.11594 -2.74321 0
M  V30 10111 H 937.096 1.04623 -2.80845 0
M  V30 10112 H 934.657 0.426534 -1.5618 0
M  V30 10113 H 936.649 3.47074 -2.08138 0
M  V30 10114 H 935.219 2.88984 -1.19192 0
M  V30 10115 H 934.439 1.8816 -3.46395 0
M  V30 10116 H 935.727 2.82908 -4.22895 0
M  V30 10117 H 935.125 5.23394 -2.14651 0
M  V30 10118 H 933.682 5.87422 -2.8245 0
M  V30 10119 N 937.115 1.49373 0.502552 0
M  V30 10120 C 938.047 1.62045 1.62093 0
M  V30 10121 C 939.06 0.503221 1.54827 0
M  V30 10122 O 940.249 0.775208 1.60788 0
M  V30 10123 C 937.349 1.55971 3.00876 0
M  V30 10124 C 936.522 2.832 3.33341 0
M  V30 10125 C 935.581 2.702 4.51529 0
M  V30 10126 O 934.607 3.44132 4.53389 0
M  V30 10127 N 935.809 1.81642 5.5135 0
M  V30 10128 H 938.574 2.58501 1.51649 0
M  V30 10129 H 936.135 1.46442 0.690396 0
M  V30 10130 H 938.127 1.4493 3.77859 0
M  V30 10131 H 936.697 0.673795 3.05252 0
M  V30 10132 H 935.917 3.08604 2.4527 0
M  V30 10133 H 937.205 3.67551 3.51829 0
M  V30 10134 H 936.603 1.20829 5.52645 0
M  V30 10135 H 935.16 1.76524 6.27441 0
M  V30 10136 N 938.594 -0.753485 1.38421 0
M  V30 10137 C 939.524 -1.8808 1.38377 0
M  V30 10138 C 940.505 -1.68258 0.249664 0
M  V30 10139 O 941.69 -1.88848 0.45276 0
M  V30 10140 C 938.82 -3.25608 1.20818 0
M  V30 10141 C 937.774 -3.60032 2.31433 0
M  V30 10142 C 937.1 -4.96297 1.9898 0
M  V30 10143 C 938.4 -3.64898 3.73694 0
M  V30 10144 H 940.094 -1.88375 2.32713 0
M  V30 10145 H 937.64 -0.90489 1.12017 0
M  V30 10146 H 939.593 -4.04127 1.19412 0
M  V30 10147 H 938.317 -3.25793 0.229433 0
M  V30 10148 H 936.976 -2.83831 2.32025 0
M  V30 10149 H 936.624 -4.93043 0.995889 0
M  V30 10150 H 936.324 -5.20298 2.73063 0
M  V30 10151 H 937.848 -5.77196 1.99193 0
M  V30 10152 H 939.262 -4.33531 3.75132 0
M  V30 10153 H 937.659 -4.00407 4.46983 0
M  V30 10154 H 938.729 -2.65124 4.06002 0
M  V30 10155 N 940.072 -1.23292 -0.981677 0
M  V30 10156 C 941.019 -1.01296 -2.07383 0
M  V30 10157 C 941.989 0.069139 -1.65956 0
M  V30 10158 O 943.174 -0.0827108 -1.90621 0
M  V30 10159 C 940.314 -0.608876 -3.39686 0
M  V30 10160 C 939.427 -1.76296 -3.9439 0
M  V30 10161 C 938.562 -1.30578 -5.14901 0
M  V30 10162 C 937.601 -2.4307 -5.61768 0
M  V30 10163 N 936.738 -1.98319 -6.73509 0
M  V30 10164 H 941.578 -1.9478 -2.25532 0
M  V30 10165 H 939.115 -0.970356 -1.10555 0
M  V30 10166 H 941.073 -0.355702 -4.15681 0
M  V30 10167 H 939.703 0.288961 -3.21504 0
M  V30 10168 H 938.755 -2.13017 -3.15163 0
M  V30 10169 H 940.067 -2.60871 -4.25145 0
M  V30 10170 H 939.221 -1.01066 -5.98223 0
M  V30 10171 H 937.96 -0.430386 -4.85797 0
M  V30 10172 H 936.965 -2.73358 -4.77028 0
M  V30 10173 H 938.19 -3.31144 -5.92892 0
M  V30 10174 H 936.136 -1.13157 -6.46167 0
M  V30 10175 H 936.053 -2.76454 -7.0364 0
M  V30 10176 H 937.321 -1.71907 -7.60308 0
M  V30 10177 N 941.55 1.18024 -1.04442 0
M  V30 10178 C 942.799 1.8743 -0.745185 0
M  V30 10179 C 943.112 1.81459 0.730206 0
M  V30 10180 O 944.318 2.46263 1.1431 0
M  V30 10181 C 942.774 3.36266 -1.28271 0
M  V30 10182 C 942.382 3.50757 -2.787 0
M  V30 10183 C 944.126 4.11048 -1.06018 0
M  V30 10184 C 942.033 4.93573 -3.25791 0
M  V30 10185 H 940.963 0.702038 -0.27506 0
M  V30 10186 H 943.614 1.33333 -1.26073 0
M  V30 10187 H 941.996 3.89853 -0.695002 0
M  V30 10188 H 943.17 3.07423 -3.43261 0
M  V30 10189 H 941.485 2.89385 -2.99408 0
M  V30 10190 H 944.082 5.16395 -1.38711 0
M  V30 10191 H 944.425 4.163 0.00241716 0
M  V30 10192 H 944.958 3.63644 -1.61269 0
M  V30 10193 H 941.697 4.93491 -4.31447 0
M  V30 10194 H 941.217 5.37607 -2.65968 0
M  V30 10195 H 942.896 5.62307 -3.20031 0
M  V30 10196 N 943.028 0.824394 1.34319 0
M  V30 10197 C 943.96 0.204805 2.28283 0
M  V30 10198 C 944.973 -0.606162 1.51094 0
M  V30 10199 O 946.162 -0.435602 1.73103 0
M  V30 10200 C 943.262 -0.73139 3.30914 0
M  V30 10201 C 942.435 0.0370723 4.37384 0
M  V30 10202 C 941.494 -0.820272 5.19767 0
M  V30 10203 O 940.52 -0.264721 5.68584 0
M  V30 10204 N 941.722 -2.13984 5.39621 0
M  V30 10205 H 944.487 1.0121 2.82093 0
M  V30 10206 H 942.048 0.681494 1.46858 0
M  V30 10207 H 944.04 -1.30958 3.82926 0
M  V30 10208 H 942.61 -1.43943 2.77487 0
M  V30 10209 H 941.83 0.796578 3.86068 0
M  V30 10210 H 943.118 0.566014 5.05642 0
M  V30 10211 H 942.516 -2.61492 5.01636 0
M  V30 10212 H 941.073 -2.66685 5.94746 0
M  V30 10213 N 944.506 -1.46559 0.579492 0
M  V30 10214 C 945.416 -2.34066 -0.15816 0
M  V30 10215 C 946.432 -1.49556 -0.88932 0
M  V30 10216 O 947.608 -1.82434 -0.853226 0
M  V30 10217 C 944.673 -3.26683 -1.161 0
M  V30 10218 C 943.734 -4.27092 -0.434855 0
M  V30 10219 C 942.967 -5.15283 -1.38992 0
M  V30 10220 O 943.19 -5.06345 -2.62623 0
M  V30 10221 O 942.124 -5.95099 -0.902253 0
M  V30 10222 H 945.95 -2.98488 0.560234 0
M  V30 10223 H 943.535 -1.45482 0.339918 0
M  V30 10224 H 945.417 -3.8383 -1.73932 0
M  V30 10225 H 944.092 -2.64862 -1.86091 0
M  V30 10226 H 942.999 -3.73641 0.185224 0
M  V30 10227 H 944.332 -4.9169 0.224031 0
M  V30 10228 N 945.984 -0.3171 -1.54377 0
M  V30 10229 C 946.914 0.544623 -2.2706 0
M  V30 10230 C 947.895 1.12469 -1.27611 0
M  V30 10231 O 949.08 1.15103 -1.56413 0
M  V30 10232 C 946.21 1.70879 -3.02353 0
M  V30 10233 C 945.164 1.25833 -4.09084 0
M  V30 10234 C 944.49 2.50894 -4.72182 0
M  V30 10235 C 945.79 0.377876 -5.20931 0
M  V30 10236 H 947.484 -0.0616372 -2.99337 0
M  V30 10237 H 945.03 -0.0310848 -1.43966 0
M  V30 10238 H 946.983 2.31787 -3.51927 0
M  V30 10239 H 945.707 2.34155 -2.27682 0
M  V30 10240 H 944.366 0.672228 -3.60384 0
M  V30 10241 H 944.014 3.12518 -3.94134 0
M  V30 10242 H 943.714 2.21447 -5.44275 0
M  V30 10243 H 945.238 3.12575 -5.24528 0
M  V30 10244 H 946.652 0.893056 -5.66302 0
M  V30 10245 H 945.049 0.176474 -5.9984 0
M  V30 10246 H 946.119 -0.592943 -4.81261 0
M  V30 10247 N 947.462 1.57535 -0.0451378 0
M  V30 10248 C 948.394 2.08109 0.960372 0
M  V30 10249 C 949.407 1.0077 1.27864 0
M  V30 10250 O 950.596 1.28351 1.24049 0
M  V30 10251 C 947.696 2.50414 2.28355 0
M  V30 10252 C 946.869 3.8102 2.14808 0
M  V30 10253 C 945.928 4.09702 3.30198 0
M  V30 10254 O 944.954 4.79715 3.0637 0
M  V30 10255 N 946.156 3.61138 4.54489 0
M  V30 10256 H 948.921 2.94999 0.528752 0
M  V30 10257 H 946.482 1.61283 0.141248 0
M  V30 10258 H 948.474 2.66683 3.04405 0
M  V30 10259 H 947.044 1.68805 2.63104 0
M  V30 10260 H 946.264 3.74392 1.23387 0
M  V30 10261 H 947.552 4.66559 2.02978 0
M  V30 10262 H 946.95 3.04527 4.76739 0
M  V30 10263 H 945.507 3.82656 5.27653 0
M  V30 10264 N 948.94 -0.228186 1.55939 0
M  V30 10265 C 949.85 -1.30386 1.9503 0
M  V30 10266 C 950.866 -1.51645 0.853218 0
M  V30 10267 O 952.042 -1.64904 1.15623 0
M  V30 10268 C 949.107 -2.63489 2.25332 0
M  V30 10269 C 948.168 -2.5059 3.48573 0
M  V30 10270 C 947.401 -3.77345 3.7742 0
M  V30 10271 O 947.624 -4.80067 3.08045 0
M  V30 10272 O 946.558 -3.74855 4.70922 0
M  V30 10273 H 950.384 -1.0022 2.86687 0
M  V30 10274 H 947.969 -0.430503 1.43063 0
M  V30 10275 H 949.851 -3.4211 2.46046 0
M  V30 10276 H 948.526 -2.93349 1.3685 0
M  V30 10277 H 947.433 -1.70191 3.33145 0
M  V30 10278 H 948.766 -2.2567 4.37417 0
M  V30 10279 N 950.418 -1.49637 -0.494624 0
M  V30 10280 C 951.365 -1.66776 -1.59545 0
M  V30 10281 C 952.335 -0.509159 -1.58104 0
M  V30 10282 O 953.52 -0.736949 -1.75993 0
M  V30 10283 C 950.66 -1.74624 -2.97658 0
M  V30 10284 C 949.773 -3.01831 -3.09067 0
M  V30 10285 C 948.908 -3.00619 -4.37952 0
M  V30 10286 C 947.947 -4.22378 -4.43016 0
M  V30 10287 N 947.084 -4.1904 -5.63339 0
M  V30 10288 H 951.924 -2.60767 -1.44238 0
M  V30 10289 H 949.461 -1.29286 -0.701673 0
M  V30 10290 H 951.419 -1.77156 -3.77719 0
M  V30 10291 H 950.049 -0.840936 -3.11654 0
M  V30 10292 H 949.101 -3.08881 -2.22029 0
M  V30 10293 H 950.413 -3.91823 -3.08669 0
M  V30 10294 H 949.567 -3.01749 -5.26339 0
M  V30 10295 H 948.306 -2.08416 -4.40924 0
M  V30 10296 H 947.311 -4.21485 -3.5303 0
M  V30 10297 H 948.536 -5.15781 -4.41755 0
M  V30 10298 H 946.482 -3.29677 -5.67141 0
M  V30 10299 H 946.399 -5.02774 -5.64583 0
M  V30 10300 H 947.667 -4.24281 -6.53916 0
M  V30 10301 N 951.896 0.746133 -1.38819 0
M  V30 10302 C 952.826 1.87344 -1.39372 0
M  V30 10303 C 953.807 1.68123 -0.258583 0
M  V30 10304 O 954.992 1.88606 -0.462769 0
M  V30 10305 C 952.122 3.24962 -1.22543 0
M  V30 10306 C 951.076 3.58799 -2.33339 0
M  V30 10307 C 950.402 4.95235 -2.01609 0
M  V30 10308 C 951.702 3.62911 -3.75624 0
M  V30 10309 H 953.396 1.87138 -2.33709 0
M  V30 10310 H 950.942 0.898937 -1.12495 0
M  V30 10311 H 952.895 4.03488 -1.21554 0
M  V30 10312 H 951.619 3.25667 -0.246707 0
M  V30 10313 H 950.278 2.82596 -2.33527 0
M  V30 10314 H 949.926 4.92508 -1.02202 0
M  V30 10315 H 949.626 5.18843 -2.75819 0
M  V30 10316 H 951.15 5.76131 -2.02251 0
M  V30 10317 H 952.564 4.31535 -3.77426 0
M  V30 10318 H 950.961 3.98031 -4.491 0
M  V30 10319 H 952.031 2.62967 -4.07402 0
M  V30 10320 N 953.375 1.23811 0.975125 0
M  V30 10321 C 954.285 1.0408 2.10249 0
M  V30 10322 C 955.301 -0.0162404 1.73992 0
M  V30 10323 O 956.477 0.180346 2.00591 0
M  V30 10324 C 953.542 0.640013 3.40741 0
M  V30 10325 C 952.603 1.7727 3.90991 0
M  V30 10326 C 951.836 1.39094 5.15256 0
M  V30 10327 O 952.059 0.277483 5.69725 0
M  V30 10328 O 950.993 2.21392 5.59704 0
M  V30 10329 H 954.819 1.98575 2.29786 0
M  V30 10330 H 952.404 1.02563 1.08633 0
M  V30 10331 H 954.286 0.427684 4.19224 0
M  V30 10332 H 952.961 -0.27589 3.22522 0
M  V30 10333 H 951.868 2.03971 3.13602 0
M  V30 10334 H 953.201 2.66711 4.13674 0
M  V30 10335 N 954.853 -1.17469 1.05066 0
M  V30 10336 C 955.8 -2.21443 0.650512 0
M  V30 10337 C 956.77 -1.62441 -0.346702 0
M  V30 10338 O 957.955 -1.89305 -0.238404 0
M  V30 10339 C 955.095 -3.45087 0.0301014 0
M  V30 10340 C 954.208 -4.18385 1.07599 0
M  V30 10341 C 953.343 -5.29513 0.423038 0
M  V30 10342 C 952.382 -5.94596 1.45333 0
M  V30 10343 N 951.519 -6.97241 0.824623 0
M  V30 10344 H 956.359 -2.55025 1.54163 0
M  V30 10345 H 953.896 -1.25274 0.771032 0
M  V30 10346 H 955.854 -4.15754 -0.347032 0
M  V30 10347 H 954.484 -3.12093 -0.824481 0
M  V30 10348 H 953.536 -3.46446 1.57097 0
M  V30 10349 H 954.848 -4.62899 1.85813 0
M  V30 10350 H 954.002 -6.067 -0.00774975 0
M  V30 10351 H 952.741 -4.86129 -0.391092 0
M  V30 10352 H 951.746 -5.16142 1.89415 0
M  V30 10353 H 952.971 -6.40061 2.26934 0
M  V30 10354 H 950.917 -6.55993 0.0309804 0
M  V30 10355 H 950.834 -7.40059 1.54432 0
M  V30 10356 H 952.102 -7.78375 0.418567 0
M  V30 10357 N 956.331 -0.831506 -1.3388 0
M  V30 10358 C 957.294 -0.264773 -2.27666 0
M  V30 10359 C 958.294 0.562273 -1.50649 0
M  V30 10360 O 959.484 0.377131 -1.70069 0
M  V30 10361 C 956.616 0.627814 -3.35069 0
M  V30 10362 H 957.809 -1.09225 -2.79303 0
M  V30 10363 H 955.362 -0.604021 -1.44157 0
M  V30 10364 H 956.097 1.47802 -2.88661 0
M  V30 10365 H 955.882 0.0361552 -3.92083 0
M  V30 10366 H 957.372 1.01786 -4.05005 0
M  V30 10367 N 957.809 1.4625 -0.587256 0
M  V30 10368 C 959.055 2.02662 -0.0746851 0
M  V30 10369 C 959.388 1.45723 1.28368 0
M  V30 10370 O 958.663 0.624062 1.84216 0
M  V30 10371 C 958.946 3.60097 -0.0138109 0
M  V30 10372 C 958.799 4.27412 -1.4014 0
M  V30 10373 C 960.118 4.34744 0.684491 0
M  V30 10374 H 957.237 0.736444 -0.0286144 0
M  V30 10375 H 959.879 1.74341 -0.755328 0
M  V30 10376 H 958.029 3.84357 0.56583 0
M  V30 10377 H 959.701 4.14401 -2.02656 0
M  V30 10378 H 957.944 3.86598 -1.96785 0
M  V30 10379 H 958.615 5.362 -1.31124 0
M  V30 10380 H 961.091 4.15657 0.192023 0
M  V30 10381 H 959.967 5.44468 0.696127 0
M  V30 10382 H 960.228 4.06132 1.74669 0
M  V30 10383 N 959.287 0.325282 1.54207 0
M  V30 10384 C 960.234 -0.539889 2.24397 0
M  V30 10385 C 961.204 -1.11028 1.2354 0
M  V30 10386 O 962.389 -1.1503 1.52226 0
M  V30 10387 C 959.529 -1.69405 3.00659 0
M  V30 10388 C 958.642 -1.15273 4.16337 0
M  V30 10389 C 957.777 -2.27272 4.80126 0
M  V30 10390 C 956.816 -1.70397 5.87904 0
M  V30 10391 N 955.953 -2.76065 6.45548 0
M  V30 10392 H 960.793 0.0652318 2.97929 0
M  V30 10393 H 958.33 0.043964 1.47034 0
M  V30 10394 H 960.288 -2.37325 3.43122 0
M  V30 10395 H 958.918 -2.27043 2.29458 0
M  V30 10396 H 957.97 -0.365034 3.78645 0
M  V30 10397 H 959.282 -0.696576 4.93912 0
M  V30 10398 H 958.436 -3.03092 5.25566 0
M  V30 10399 H 957.175 -2.76224 4.01935 0
M  V30 10400 H 956.18 -0.930752 5.41864 0
M  V30 10401 H 957.405 -1.22319 6.67993 0
M  V30 10402 H 955.351 -3.24306 5.7023 0
M  V30 10403 H 955.268 -2.35018 7.18542 0
M  V30 10404 H 956.536 -3.5171 6.95644 0
M  V30 10405 N 960.765 -1.57509 0.0534917 0
M  V30 10406 C 961.728 -2.10563 -0.905307 0
M  V30 10407 C 962.728 -1.02571 -1.23838 0
M  V30 10408 O 963.918 -1.28635 -1.17468 0
M  V30 10409 C 961.05 -2.5918 -2.21447 0
M  V30 10410 H 962.243 -2.96575 -0.445354 0
M  V30 10411 H 959.796 -1.55079 -0.194947 0
M  V30 10412 H 960.531 -1.76568 -2.72019 0
M  V30 10413 H 960.316 -3.38098 -1.98575 0
M  V30 10414 H 961.806 -3.00365 -2.90122 0
M  V30 10415 N 962.243 0.219913 -1.56058 0
M  V30 10416 C 963.468 0.965073 -1.83579 0
M  V30 10417 C 963.893 1.77092 -0.634024 0
M  V30 10418 O 963.251 1.76434 0.417205 0
M  V30 10419 C 963.299 1.85705 -3.09105 0
M  V30 10420 O 962.403 2.95261 -2.87914 0
M  V30 10421 H 961.744 0.273173 -0.605204 0
M  V30 10422 H 964.274 0.23273 -2.03272 0
M  V30 10423 H 964.284 2.26655 -3.39252 0
M  V30 10424 H 962.959 1.26476 -3.96203 0
M  V30 10425 H 961.536 2.58246 -2.69005 0
M  V30 10426 N 963.721 1.49897 0.486681 0
M  V30 10427 C 964.949 1.63837 1.26353 0
M  V30 10428 C 965.364 0.315428 1.86146 0
M  V30 10429 O 964.721 -0.700831 1.68507 0
M  V30 10430 C 964.772 2.71792 2.38351 0
M  V30 10431 O 964.493 3.98956 1.81013 0
M  V30 10432 C 965.994 2.96566 3.2949 0
M  V30 10433 H 963.214 0.551158 0.382709 0
M  V30 10434 H 965.758 1.96023 0.582694 0
M  V30 10435 H 963.913 2.42344 3.02238 0
M  V30 10436 H 964.327 4.58536 2.54647 0
M  V30 10437 H 965.801 3.75803 4.04322 0
M  V30 10438 H 966.278 2.07031 3.87343 0
M  V30 10439 H 966.884 3.27485 2.71355 0
M  V30 10440 N 965.199 -0.738761 1.39212 0
M  V30 10441 C 966.109 -1.88324 1.39897 0
M  V30 10442 C 967.125 -1.71494 0.294229 0
M  V30 10443 O 968.301 -1.94162 0.535087 0
M  V30 10444 C 965.366 -3.23871 1.23726 0
M  V30 10445 C 964.427 -3.53121 2.44139 0
M  V30 10446 C 963.66 -4.82202 2.2873 0
M  V30 10447 O 963.883 -5.55649 1.28879 0
M  V30 10448 O 962.817 -5.11265 3.17634 0
M  V30 10449 H 966.643 -1.90701 2.36362 0
M  V30 10450 H 964.228 -0.886067 1.20288 0
M  V30 10451 H 966.11 -4.04882 1.16826 0
M  V30 10452 H 964.785 -3.22274 0.303551 0
M  V30 10453 H 963.692 -2.72212 2.56615 0
M  V30 10454 H 965.025 -3.59495 3.36191 0
M  V30 10455 N 966.677 -1.24326 -0.968545 0
M  V30 10456 C 967.64 -1.03591 -2.04454 0
M  V30 10457 C 968.64 0.0064809 -1.60799 0
M  V30 10458 O 969.83 -0.234404 -1.72616 0
M  V30 10459 C 966.962 -0.56992 -3.36102 0
M  V30 10460 H 968.155 -1.99092 -2.24282 0
M  V30 10461 H 965.708 -1.06537 -1.14366 0
M  V30 10462 H 966.443 0.388325 -3.21967 0
M  V30 10463 H 966.228 -1.32227 -3.69132 0
M  V30 10464 H 967.718 -0.445854 -4.15213 0
M  V30 10465 N 968.156 1.1691 -1.05688 0
M  V30 10466 C 969.384 1.91204 -0.790485 0
M  V30 10467 C 969.799 1.77095 0.654434 0
M  V30 10468 O 969.156 1.11146 1.44751 0
M  V30 10469 C 969.207 3.42108 -1.16808 0
M  V30 10470 O 968.928 3.55788 -2.55629 0
M  V30 10471 C 970.429 4.33466 -0.92855 0
M  V30 10472 H 967.649 0.606508 -0.287035 0
M  V30 10473 H 970.193 1.48225 -1.40888 0
M  V30 10474 H 968.348 3.82814 -0.59434 0
M  V30 10475 H 968.762 4.49321 -2.70575 0
M  V30 10476 H 970.236 5.37836 -1.24245 0
M  V30 10477 H 970.713 4.38989 0.136016 0
M  V30 10478 H 971.319 3.98481 -1.48638 0
M  V30 10479 N 969.634 0.838594 1.33437 0
M  V30 10480 C 970.544 0.274048 2.32994 0
M  V30 10481 C 971.56 -0.599776 1.63336 0
M  V30 10482 O 972.736 -0.503963 1.94993 0
M  V30 10483 C 969.801 -0.541804 3.4244 0
M  V30 10484 C 968.862 0.356262 4.27819 0
M  V30 10485 C 968.095 -0.420747 5.32039 0
M  V30 10486 O 968.318 -1.65247 5.45939 0
M  V30 10487 O 967.252 0.205101 6.0155 0
M  V30 10488 H 971.078 1.09846 2.83139 0
M  V30 10489 H 968.663 0.601111 1.36774 0
M  V30 10490 H 970.545 -1.00544 4.0923 0
M  V30 10491 H 969.22 -1.34328 2.94513 0
M  V30 10492 H 968.127 0.867726 3.63897 0
M  V30 10493 H 969.46 1.1225 4.79229 0
M  V30 10494 N 971.112 -1.45937 0.595003 0
M  V30 10495 C 972.042 -2.33198 -0.11871 0
M  V30 10496 C 973.023 -1.46083 -0.871423 0
M  V30 10497 O 974.208 -1.74879 -0.844461 0
M  V30 10498 C 971.338 -3.28576 -1.12495 0
M  V30 10499 C 970.292 -4.25229 -0.486275 0
M  V30 10500 C 969.618 -5.10204 -1.59986 0
M  V30 10501 C 970.918 -5.19019 0.584473 0
M  V30 10502 H 972.612 -2.93122 0.609886 0
M  V30 10503 H 970.158 -1.40951 0.294742 0
M  V30 10504 H 972.111 -3.88485 -1.6327 0
M  V30 10505 H 970.835 -2.66784 -1.88398 0
M  V30 10506 H 969.494 -3.666 0.000507962 0
M  V30 10507 H 969.142 -4.44789 -2.34886 0
M  V30 10508 H 968.842 -5.75669 -1.1781 0
M  V30 10509 H 970.366 -5.7298 -2.11014 0
M  V30 10510 H 971.78 -5.73073 0.161297 0
M  V30 10511 H 970.177 -5.92893 0.927256 0
M  V30 10512 H 971.247 -4.62208 1.46601 0
M  V30 10513 N 972.59 -0.333456 -1.54032 0
M  V30 10514 C 973.52 0.52051 -2.27625 0
M  V30 10515 C 974.501 1.1111 -1.28797 0
M  V30 10516 O 975.686 1.13438 -1.57625 0
M  V30 10517 C 972.816 1.67663 -3.04149 0
M  V30 10518 C 971.77 1.21487 -4.10396 0
M  V30 10519 C 971.096 2.45872 -4.74817 0
M  V30 10520 C 972.396 0.322603 -5.21303 0
M  V30 10521 H 974.09 -0.0933823 -2.99254 0
M  V30 10522 H 971.636 -0.0463526 -1.43925 0
M  V30 10523 H 973.589 2.28041 -3.54366 0
M  V30 10524 H 972.313 2.31727 -2.30153 0
M  V30 10525 H 970.972 0.633966 -3.61077 0
M  V30 10526 H 970.62 3.0832 -3.97426 0
M  V30 10527 H 970.32 2.15662 -5.46593 0
M  V30 10528 H 971.844 3.06994 -5.27814 0
M  V30 10529 H 973.258 0.832942 -5.67217 0
M  V30 10530 H 971.655 0.112843 -5.99994 0
M  V30 10531 H 972.725 -0.643954 -4.80605 0
M  V30 10532 N 974.068 1.57479 -0.061844 0
M  V30 10533 C 975 2.09116 0.938245 0
M  V30 10534 C 976.013 1.0212 1.26788 0
M  V30 10535 O 977.202 1.2966 1.22681 0
M  V30 10536 C 974.302 2.52822 2.25686 0
M  V30 10537 C 973.475 3.83277 2.10755 0
M  V30 10538 C 972.534 4.13182 3.25833 0
M  V30 10539 O 971.56 4.82937 3.01265 0
M  V30 10540 N 972.762 3.65938 4.50633 0
M  V30 10541 H 975.527 2.95543 0.497433 0
M  V30 10542 H 973.088 1.61423 0.124134 0
M  V30 10543 H 975.08 2.69896 3.01559 0
M  V30 10544 H 973.65 1.71586 2.61299 0
M  V30 10545 H 972.87 3.7568 1.19409 0
M  V30 10546 H 974.158 4.68686 1.98018 0
M  V30 10547 H 973.556 3.09566 4.73482 0
M  V30 10548 H 972.113 3.8823 5.23565 0
M  V30 10549 N 975.546 -0.211634 1.56173 0
M  V30 10550 C 976.494 -1.28188 1.94089 0
M  V30 10551 C 977.488 -1.47999 0.824167 0
M  V30 10552 O 978.694 -1.49056 1.00907 0
M  V30 10553 H 975.069 -0.42999 0.616938 0
M  V30 10554 H 977.04 -0.934962 2.83374 0
M  V30 10555 C 975.789 -2.62294 2.28248 0
M  V30 10556 H 975.112 -2.4786 3.13696 0
M  V30 10557 H 976.552 -3.35967 2.58655 0
M  V30 10558 C 975.011 -3.18049 1.11113 0
M  V30 10559 O 975.541 -3.99923 0.377458 0
M  V30 10560 N 973.747 -2.76561 0.892321 0
M  V30 10561 H 973.294 -2.10088 1.49067 0
M  V30 10562 H 973.252 -3.14206 0.110344 0
M  V30 10563 N 977.024 -1.50153 -0.478725 0
M  V30 10564 C 978.273 -1.60002 -1.22809 0
M  V30 10565 C 978.586 -0.302277 -1.9325 0
M  V30 10566 O 979.792 -0.279583 -2.70057 0
M  V30 10567 C 978.248 -2.82402 -2.23108 0
M  V30 10568 C 977.856 -4.19023 -1.58505 0
M  V30 10569 C 979.6 -3.01593 -2.98734 0
M  V30 10570 C 977.507 -5.32618 -2.57045 0
M  V30 10571 H 976.437 -0.595822 -0.462073 0
M  V30 10572 H 979.088 -1.76573 -0.499412 0
M  V30 10573 H 977.47 -2.59373 -2.99235 0
M  V30 10574 H 978.644 -4.52277 -0.882187 0
M  V30 10575 H 976.959 -4.05374 -0.951877 0
M  V30 10576 H 979.556 -3.8363 -3.72468 0
M  V30 10577 H 979.899 -2.1302 -3.57671 0
M  V30 10578 H 980.432 -3.24766 -2.29721 0
M  V30 10579 H 977.171 -6.23321 -2.02858 0
M  V30 10580 H 976.691 -5.03792 -3.25505 0
M  V30 10581 H 978.37 -5.62877 -3.19028 0
M  V30 10582 N 978.502 0.731368 -1.39602 0
M  V30 10583 C 979.918 1.03739 -1.21286 0
M  V30 10584 C 980.118 2.01353 -0.0769875 0
M  V30 10585 O 979.174 2.45978 0.570193 0
M  V30 10586 C 980.487 1.59621 -2.54837 0
M  V30 10587 C 982.035 1.71683 -2.61713 0
M  V30 10588 C 982.51 2.30973 -3.95494 0
M  V30 10589 N 984.001 2.38378 -3.97153 0
M  V30 10590 C 984.736 2.852 -4.97442 0
M  V30 10591 N 984.232 3.31891 -6.08129 0
M  V30 10592 N 986.025 2.84441 -4.84819 0
M  V30 10593 H 978.176 0.0840456 -2.12234 0
M  V30 10594 H 980.439 0.0999038 -0.942721 0
M  V30 10595 H 980.145 0.953608 -3.38525 0
M  V30 10596 H 980.019 2.58375 -2.74813 0
M  V30 10597 H 982.406 2.35064 -1.78406 0
M  V30 10598 H 982.487 0.715714 -2.45583 0
M  V30 10599 H 982.131 1.68219 -4.79234 0
M  V30 10600 H 982.061 3.31769 -4.08946 0
M  V30 10601 H 984.552 2.05382 -3.17217 0
M  V30 10602 H 984.865 3.66138 -6.8056 0
M  V30 10603 H 983.21 3.2989 -6.11717 0
M  V30 10604 H 986.401 2.4729 -3.97448 0
M  V30 10605 H 986.574 3.20616 -5.63124 0
M  V30 10606 N 979.98 1.24838 0.961938 0
M  V30 10607 C 980.912 1.00369 2.06055 0
M  V30 10608 C 981.925 -0.0288583 1.62774 0
M  V30 10609 O 983.114 0.208853 1.77274 0
M  V30 10610 C 980.214 0.493953 3.35281 0
M  V30 10611 C 979.387 1.59097 4.07439 0
M  V30 10612 C 978.446 1.08288 5.14937 0
M  V30 10613 O 977.472 1.77577 5.40791 0
M  V30 10614 N 978.674 -0.0796836 5.80445 0
M  V30 10615 H 981.439 1.94962 2.27618 0
M  V30 10616 H 979 1.15945 1.12997 0
M  V30 10617 H 980.992 0.138675 4.04462 0
M  V30 10618 H 979.562 -0.357851 3.10545 0
M  V30 10619 H 978.782 2.11817 3.32456 0
M  V30 10620 H 980.07 2.32817 4.52409 0
M  V30 10621 H 979.468 -0.658827 5.6185 0
M  V30 10622 H 978.025 -0.376057 6.50714 0
M  V30 10623 N 981.458 -1.16348 1.06306 0
M  V30 10624 C 982.421 -2.18941 0.678053 0
M  V30 10625 C 983.421 -1.58409 -0.276277 0
M  V30 10626 O 984.611 -1.74101 -0.0586435 0
M  V30 10627 C 981.743 -3.409 -0.00228684 0
M  V30 10628 H 982.936 -2.54516 1.58624 0
M  V30 10629 H 980.489 -1.30625 0.858298 0
M  V30 10630 H 981.224 -3.10881 -0.923212 0
M  V30 10631 H 981.009 -3.86089 0.683949 0
M  V30 10632 H 982.499 -4.16806 -0.257374 0
M  V30 10633 N 982.937 -0.845659 -1.3299 0
M  V30 10634 C 983.884 -0.281761 -2.29074 0
M  V30 10635 C 984.854 0.606237 -1.54641 0
M  V30 10636 O 986.039 0.543063 -1.82908 0
M  V30 10637 C 983.179 0.531451 -3.40983 0
M  V30 10638 C 982.292 -0.381328 -4.30314 0
M  V30 10639 C 981.427 0.443643 -5.29344 0
M  V30 10640 C 980.466 -0.467101 -6.10315 0
M  V30 10641 N 979.603 0.320148 -7.0137 0
M  V30 10642 H 984.443 -1.10641 -2.76699 0
M  V30 10643 H 981.98 -0.55706 -1.36144 0
M  V30 10644 H 983.938 1.01848 -4.04577 0
M  V30 10645 H 982.568 1.32101 -2.94532 0
M  V30 10646 H 981.62 -0.986701 -3.6738 0
M  V30 10647 H 982.932 -1.08067 -4.86953 0
M  V30 10648 H 982.086 0.994212 -5.98498 0
M  V30 10649 H 980.825 1.17639 -4.73299 0
M  V30 10650 H 979.83 -1.02963 -5.40073 0
M  V30 10651 H 981.055 -1.19832 -6.68444 0
M  V30 10652 H 979.001 1.03615 -6.47765 0
M  V30 10653 H 978.918 -0.320338 -7.55321 0
M  V30 10654 H 980.186 0.852735 -7.74822 0
M  V30 10655 N 984.415 1.45619 -0.602734 0
M  V30 10656 C 985.325 2.34288 0.120902 0
M  V30 10657 C 986.341 1.50952 0.865414 0
M  V30 10658 O 987.517 1.83768 0.824094 0
M  V30 10659 C 984.582 3.28489 1.10888 0
M  V30 10660 C 983.643 4.2773 0.366853 0
M  V30 10661 C 982.876 5.17429 1.30776 0
M  V30 10662 O 983.099 5.10459 2.54535 0
M  V30 10663 O 982.033 5.96459 0.807464 0
M  V30 10664 H 985.859 2.97559 -0.60765 0
M  V30 10665 H 983.444 1.44922 -0.363019 0
M  V30 10666 H 985.326 3.86549 1.67803 0
M  V30 10667 H 984.001 2.67789 1.81854 0
M  V30 10668 H 982.908 3.73299 -0.244643 0
M  V30 10669 H 984.241 4.91271 -0.302226 0
M  V30 10670 N 985.893 0.34162 1.53853 0
M  V30 10671 C 987.309 -0.0103769 1.59597 0
M  V30 10672 C 987.509 -1.48897 1.35764 0
M  V30 10673 O 986.565 -2.24743 1.15095 0
M  V30 10674 C 987.878 0.424067 2.97695 0
M  V30 10675 C 989.426 0.376247 3.1073 0
M  V30 10676 C 989.901 0.786129 4.51203 0
M  V30 10677 N 991.392 0.74024 4.57247 0
M  V30 10678 C 992.127 1.02937 5.64085 0
M  V30 10679 N 991.623 1.38655 6.78783 0
M  V30 10680 N 993.416 0.953734 5.5395 0
M  V30 10681 H 985.567 1.30477 1.67599 0
M  V30 10682 H 987.83 0.531753 0.78482 0
M  V30 10683 H 987.536 1.45493 3.20195 0
M  V30 10684 H 987.41 -0.201713 3.7666 0
M  V30 10685 H 989.797 -0.645441 2.87955 0
M  V30 10686 H 989.878 1.0372 2.33828 0
M  V30 10687 H 989.522 1.80582 4.74713 0
M  V30 10688 H 989.452 0.102671 5.265 0
M  V30 10689 H 991.943 0.476763 3.7488 0
M  V30 10690 H 992.256 1.59206 7.56223 0
M  V30 10691 H 990.601 1.42498 6.80235 0
M  V30 10692 H 993.792 0.674044 4.63222 0
M  V30 10693 H 993.965 1.18241 6.37121 0
M  V30 10694 N 987.371 -1.57444 0.0701946 0
M  V30 10695 C 988.334 -2.11511 -0.882923 0
M  V30 10696 C 989.334 -1.03879 -1.22743 0
M  V30 10697 O 990.524 -1.29874 -1.16097 0
M  V30 10698 C 987.656 -2.61514 -2.18686 0
M  V30 10699 H 988.849 -2.9703 -0.413873 0
M  V30 10700 H 986.402 -1.55278 -0.178488 0
M  V30 10701 H 987.137 -1.79443 -2.70131 0
M  V30 10702 H 986.922 -3.40185 -1.94978 0
M  V30 10703 H 988.412 -3.03425 -2.86919 0
M  V30 10704 N 988.849 0.203349 -1.56283 0
M  V30 10705 C 989.759 1.27266 -1.9708 0
M  V30 10706 C 990.775 1.50268 -0.877236 0
M  V30 10707 O 991.951 1.63044 -1.18231 0
M  V30 10708 C 989.016 2.59871 -2.29495 0
M  V30 10709 C 988.077 2.45012 -3.52516 0
M  V30 10710 C 987.31 3.71293 -3.83376 0
M  V30 10711 O 987.533 4.75106 -3.15643 0
M  V30 10712 O 986.467 3.67316 -4.76826 0
M  V30 10713 H 990.293 0.956461 -2.88246 0
M  V30 10714 H 987.878 0.407688 -1.4373 0
M  V30 10715 H 989.76 3.38152 -2.51458 0
M  V30 10716 H 988.435 2.91135 -1.415 0
M  V30 10717 H 987.342 1.6487 -3.35811 0
M  V30 10718 H 988.675 2.18683 -4.40952 0
M  V30 10719 N 990.327 1.50405 0.470755 0
M  V30 10720 C 991.743 1.37838 0.804534 0
M  V30 10721 C 991.943 0.434743 1.96754 0
M  V30 10722 O 990.999 -0.122507 2.52203 0
M  V30 10723 C 992.312 2.79212 1.11629 0
M  V30 10724 C 993.86 2.88129 1.22272 0
M  V30 10725 C 994.335 4.30337 1.5676 0
M  V30 10726 N 995.826 4.3329 1.63751 0
M  V30 10727 C 996.561 5.4032 1.91942 0
M  V30 10728 N 996.057 6.57558 2.18151 0
M  V30 10729 N 997.85 5.27764 1.93446 0
M  V30 10730 H 990.001 2.10332 -0.295689 0
M  V30 10731 H 992.264 0.945429 -0.0697733 0
M  V30 10732 H 991.97 3.50103 0.334778 0
M  V30 10733 H 991.844 3.16475 2.0524 0
M  V30 10734 H 994.231 2.17457 1.9949 0
M  V30 10735 H 994.312 2.54409 0.2664 0
M  V30 10736 H 993.956 5.01547 0.800817 0
M  V30 10737 H 993.886 4.61545 2.53543 0
M  V30 10738 H 996.377 3.48752 1.45535 0
M  V30 10739 H 996.69 7.34935 2.38936 0
M  V30 10740 H 995.035 6.60732 2.15542 0
M  V30 10741 H 998.226 4.35169 1.72468 0
M  V30 10742 H 998.399 6.11264 2.15081 0
M  V30 10743 N 991.805 -0.723954 1.39988 0
M  V30 10744 C 992.715 -1.86829 1.41887 0
M  V30 10745 C 993.731 -1.71173 0.312401 0
M  V30 10746 O 994.907 -1.93583 0.555651 0
M  V30 10747 C 991.972 -3.22541 1.27154 0
M  V30 10748 C 991.033 -3.50512 2.47871 0
M  V30 10749 C 990.266 -4.79749 2.33831 0
M  V30 10750 O 990.489 -5.54251 1.34765 0
M  V30 10751 O 989.423 -5.07868 3.23039 0
M  V30 10752 H 993.249 -1.88183 2.38371 0
M  V30 10753 H 990.834 -0.873259 1.21221 0
M  V30 10754 H 992.716 -4.0362 1.21114 0
M  V30 10755 H 991.391 -3.21933 0.337715 0
M  V30 10756 H 990.298 -2.69475 2.59488 0
M  V30 10757 H 991.631 -3.55909 3.39985 0
M  V30 10758 N 993.283 -1.25346 -0.955304 0
M  V30 10759 C 994.213 -1.08152 -2.06943 0
M  V30 10760 C 995.194 0.00922598 -1.70097 0
M  V30 10761 O 996.379 -0.160181 -1.93538 0
M  V30 10762 C 993.509 -0.698745 -3.40198 0
M  V30 10763 C 992.463 -1.73965 -3.9105 0
M  V30 10764 C 991.789 -1.21158 -5.20792 0
M  V30 10765 C 993.089 -3.13829 -4.17503 0
M  V30 10766 H 994.783 -2.01345 -2.21586 0
M  V30 10767 H 992.329 -0.969459 -1.06478 0
M  V30 10768 H 994.282 -0.565394 -4.1759 0
M  V30 10769 H 993.006 0.268892 -3.25491 0
M  V30 10770 H 991.665 -1.86143 -3.15827 0
M  V30 10771 H 991.313 -0.234193 -5.02455 0
M  V30 10772 H 991.013 -1.90728 -5.55785 0
M  V30 10773 H 992.537 -1.09061 -6.00781 0
M  V30 10774 H 993.951 -3.04809 -4.85556 0
M  V30 10775 H 992.348 -3.80863 -4.63749 0
M  V30 10776 H 993.418 -3.6094 -3.23806 0
M  V30 10777 N 994.761 1.15782 -1.06922 0
M  V30 10778 C 995.671 2.24008 -0.696948 0
M  V30 10779 C 996.687 1.71569 0.289862 0
M  V30 10780 O 997.863 2.00929 0.137585 0
M  V30 10781 C 994.928 3.46568 -0.0957895 0
M  V30 10782 C 993.989 4.14017 -1.13528 0
M  V30 10783 C 993.222 5.30725 -0.562713 0
M  V30 10784 O 993.445 5.66992 0.62259 0
M  V30 10785 O 992.379 5.87572 -1.30549 0
M  V30 10786 H 996.205 2.58174 -1.59938 0
M  V30 10787 H 993.79 1.2342 -0.841889 0
M  V30 10788 H 995.672 4.20731 0.237407 0
M  V30 10789 H 994.347 3.14161 0.780027 0
M  V30 10790 H 993.254 3.41795 -1.52076 0
M  V30 10791 H 994.587 4.50493 -1.98285 0
M  V30 10792 N 996.239 0.8527 1.3254 0
M  V30 10793 C 997.186 0.293905 2.28921 0
M  V30 10794 C 998.156 -0.598027 1.54961 0
M  V30 10795 O 999.341 -0.533355 1.83194 0
M  V30 10796 C 996.481 -0.513361 3.4126 0
M  V30 10797 C 995.594 0.404144 4.30105 0
M  V30 10798 C 994.729 -0.415564 5.29572 0
M  V30 10799 C 993.768 0.499461 6.10059 0
M  V30 10800 N 992.905 -0.282949 7.0153 0
M  V30 10801 H 997.745 1.12107 2.76109 0
M  V30 10802 H 995.282 0.564272 1.35847 0
M  V30 10803 H 997.24 -0.997008 4.05112 0
M  V30 10804 H 995.87 -1.30537 2.95229 0
M  V30 10805 H 994.922 1.00617 3.66852 0
M  V30 10806 H 996.234 1.10648 4.86373 0
M  V30 10807 H 995.388 -0.962458 5.99017 0
M  V30 10808 H 994.127 -1.15127 4.73917 0
M  V30 10809 H 993.132 1.05825 5.39519 0
M  V30 10810 H 994.357 1.23375 6.67799 0
M  V30 10811 H 992.303 -1.00179 6.48306 0
M  V30 10812 H 992.22 0.36039 7.55141 0
M  V30 10813 H 993.488 -0.811632 7.75263 0
M  V30 10814 N 997.718 -1.45297 0.610449 0
M  V30 10815 C 998.648 -2.33311 -0.0939698 0
M  V30 10816 C 999.629 -1.46999 -0.85588 0
M  V30 10817 O 1000.81 -1.75764 -0.825865 0
M  V30 10818 C 997.944 -3.29751 -1.09003 0
M  V30 10819 C 996.898 -4.2572 -0.441146 0
M  V30 10820 C 996.224 -5.11873 -1.54566 0
M  V30 10821 C 997.524 -5.1837 0.639489 0
M  V30 10822 H 999.218 -2.92459 0.640941 0
M  V30 10823 H 996.764 -1.40631 0.309675 0
M  V30 10824 H 998.717 -3.90195 -1.59141 0
M  V30 10825 H 997.441 -2.68768 -1.85557 0
M  V30 10826 H 996.1 -3.66579 0.0393908 0
M  V30 10827 H 995.748 -4.47256 -2.30155 0
M  V30 10828 H 995.448 -5.76886 -1.11698 0
M  V30 10829 H 996.972 -5.75185 -2.04925 0
M  V30 10830 H 998.386 -5.7287 0.22207 0
M  V30 10831 H 996.783 -5.91876 0.990089 0
M  V30 10832 H 997.853 -4.60627 1.51495 0
M  V30 10833 N 999.196 -0.349774 -1.5367 0
M  V30 10834 C 1000.13 0.538575 -2.22782 0
M  V30 10835 C 1001.14 1.05896 -1.23652 0
M  V30 10836 O 1002.33 0.968045 -1.4997 0
M  V30 10837 C 999.43 1.7546 -2.89943 0
M  V30 10838 C 998.603 1.36843 -4.15443 0
M  V30 10839 C 997.662 2.4448 -4.65957 0
M  V30 10840 O 996.688 2.07528 -5.3002 0
M  V30 10841 N 997.89 3.75829 -4.42417 0
M  V30 10842 H 1000.65 -0.053348 -2.99653 0
M  V30 10843 H 998.216 -0.174193 -1.6096 0
M  V30 10844 H 1000.21 2.46911 -3.20651 0
M  V30 10845 H 998.778 2.25375 -2.16622 0
M  V30 10846 H 997.998 0.484421 -3.91212 0
M  V30 10847 H 999.286 1.0865 -4.97064 0
M  V30 10848 H 998.684 4.08635 -3.91196 0
M  V30 10849 H 997.241 4.43432 -4.77714 0
M  V30 10850 N 1000.67 1.57404 -0.0785433 0
M  V30 10851 C 1001.62 2.14316 0.903949 0
M  V30 10852 C 1002.62 1.08176 1.30362 0
M  V30 10853 O 1003.82 1.26546 1.28008 0
M  V30 10854 H 1000.2 0.685367 0.309477 0
M  V30 10855 H 1002.17 2.95719 0.399081 0
M  V30 10856 C 1000.92 2.72504 2.15956 0
M  V30 10857 H 1000.24 3.53853 1.86087 0
M  V30 10858 H 1001.68 3.15914 2.82798 0
M  V30 10859 C 1000.14 1.6759 2.92259 0
M  V30 10860 O 1000.67 1.10492 3.86205 0
M  V30 10861 N 998.875 1.38467 2.5549 0
M  V30 10862 H 998.422 1.85088 1.79166 0
M  V30 10863 H 998.38 0.685053 3.06846 0
M  V30 10864 N 1002.15 -0.195058 1.56388 0
M  V30 10865 C 1003.57 -0.545894 1.49974 0
M  V30 10866 C 1003.77 -1.85851 0.778568 0
M  V30 10867 O 1002.82 -2.50346 0.329105 0
M  V30 10868 C 1004.14 -0.600599 2.94641 0
M  V30 10869 C 1005.68 -0.689429 3.05313 0
M  V30 10870 C 1006.16 -0.775243 4.51391 0
M  V30 10871 N 1007.65 -0.838769 4.55542 0
M  V30 10872 C 1008.39 -0.925337 5.65884 0
M  V30 10873 N 1007.88 -0.974204 6.85916 0
M  V30 10874 N 1009.67 -0.962528 5.53798 0
M  V30 10875 H 1001.83 0.66595 2.0169 0
M  V30 10876 H 1004.09 0.237215 0.917842 0
M  V30 10877 H 1003.79 0.29478 3.50462 0
M  V30 10878 H 1003.67 -1.45528 3.47996 0
M  V30 10879 H 1006.06 -1.57524 2.4954 0
M  V30 10880 H 1006.14 0.191451 2.55083 0
M  V30 10881 H 1005.78 0.106215 5.07789 0
M  V30 10882 H 1005.71 -1.67193 4.99354 0
M  V30 10883 H 1008.2 -0.810249 3.69112 0
M  V30 10884 H 1008.51 -1.04077 7.6576 0
M  V30 10885 H 1006.86 -0.942881 6.88574 0
M  V30 10886 H 1010.05 -0.921188 4.58946 0
M  V30 10887 H 1010.22 -1.02653 6.39817 0
M  V30 10888 N 1003.63 -1.50653 -0.462772 0
M  V30 10889 C 1004.54 -1.72923 -1.58539 0
M  V30 10890 C 1005.56 -0.612577 -1.6286 0
M  V30 10891 O 1006.73 -0.891885 -1.80575 0
M  V30 10892 C 1003.8 -1.82623 -2.94703 0
M  V30 10893 C 1002.86 -3.06392 -3.00704 0
M  V30 10894 C 1002.09 -3.15618 -4.30373 0
M  V30 10895 O 1002.31 -2.31423 -5.21344 0
M  V30 10896 O 1001.25 -4.0841 -4.42136 0
M  V30 10897 H 1005.07 -2.68103 -1.42669 0
M  V30 10898 H 1002.66 -1.34848 -0.643144 0
M  V30 10899 H 1004.54 -1.91134 -3.7556 0
M  V30 10900 H 1003.22 -0.906275 -3.10754 0
M  V30 10901 H 1002.12 -3.03375 -2.18894 0
M  V30 10902 H 1003.46 -3.97992 -2.89591 0
M  V30 10903 N 1005.11 0.71652 -1.4037 0
M  V30 10904 C 1006.39 1.46947 -1.29097 0
M  V30 10905 C 1006.77 2.10903 0.0911182 0
M  V30 10906 O 1006.11 2.00068 1.10385 0
M  V30 10907 C 1006.32 2.50594 -2.42907 0
M  V30 10908 C 1007.67 3.16451 -2.83097 0
M  V30 10909 O 1008.7 2.60913 -2.42493 0
M  V30 10910 O 1007.55 4.16991 -3.53244 0
M  V30 10911 H 1004.65 0.653413 -0.506932 0
M  V30 10912 H 1007.19 0.748774 -1.52287 0
M  V30 10913 H 1005.97 2.01843 -3.35224 0
M  V30 10914 H 1005.59 3.302 -2.21481 0
M  V30 10915 N 1006.59 1.25851 0.948643 0
M  V30 10916 C 1007.81 1.13813 1.73382 0
M  V30 10917 C 1008.24 -0.303615 1.85633 0
M  V30 10918 O 1007.59 -1.21997 1.34114 0
M  V30 10919 C 1007.64 1.80388 3.12238 0
M  V30 10920 O 1006.75 1.08759 3.978 0
M  V30 10921 H 1006.09 0.397006 0.532243 0
M  V30 10922 H 1008.62 1.66529 1.18866 0
M  V30 10923 H 1008.63 1.86913 3.62667 0
M  V30 10924 H 1007.3 2.85278 3.02637 0
M  V30 10925 H 1005.88 1.10157 3.56258 0
M  V30 10926 N 1008.06 -1.15214 1.07534 0
M  V30 10927 C 1009.29 -1.90463 0.820883 0
M  V30 10928 C 1009.71 -1.77578 -0.620305 0
M  V30 10929 O 1009.07 -1.10976 -1.43366 0
M  V30 10930 C 1009.12 -3.38746 1.23627 0
M  V30 10931 O 1008.22 -4.1062 0.382715 0
M  V30 10932 H 1007.57 -0.59292 0.298901 0
M  V30 10933 H 1010.1 -1.45893 1.43445 0
M  V30 10934 H 1010.11 -3.89543 1.21327 0
M  V30 10935 H 1008.78 -3.47443 2.28596 0
M  V30 10936 H 1007.36 -3.69947 0.468374 0
M  V30 10937 N 1009.54 -0.859717 -1.32086 0
M  V30 10938 C 1010.45 -0.31108 -2.32528 0
M  V30 10939 C 1011.47 0.573714 -1.6427 0
M  V30 10940 O 1012.64 0.472878 -1.9577 0
M  V30 10941 C 1009.71 0.487256 -3.43259 0
M  V30 10942 C 1008.77 -0.424279 -4.27198 0
M  V30 10943 C 1008 0.336051 -5.32641 0
M  V30 10944 O 1008.23 1.56541 -5.48499 0
M  V30 10945 O 1007.16 -0.300777 -6.01148 0
M  V30 10946 H 1010.99 -1.14336 -2.81355 0
M  V30 10947 H 1008.57 -0.622794 -1.358 0
M  V30 10948 H 1010.45 0.940203 -4.10777 0
M  V30 10949 H 1009.13 1.29626 -2.96612 0
M  V30 10950 H 1008.04 -0.925509 -3.62471 0
M  V30 10951 H 1009.37 -1.1986 -4.77383 0
M  V30 10952 N 1011.02 1.44971 -0.618145 0
M  V30 10953 C 1012.27 2.0176 -0.11725 0
M  V30 10954 C 1012.59 1.48773 1.26062 0
M  V30 10955 O 1011.86 0.686152 1.83491 0
M  V30 10956 H 1010.44 0.745909 -0.0403545 0
M  V30 10957 H 1013.1 1.77638 -0.801923 0
M  V30 10958 H 1012.2 3.1201 -0.0750477 0
M  V30 10959 N 1012.5 0.357919 1.53482 0
M  V30 10960 C 1013.75 -0.235241 2.00324 0
M  V30 10961 C 1014.06 -1.50494 1.24944 0
M  V30 10962 O 1015.27 -2.17623 1.62335 0
M  V30 10963 C 1013.72 -0.469748 3.56821 0
M  V30 10964 C 1013.33 0.784877 4.41071 0
M  V30 10965 C 1015.07 -1.02098 4.12039 0
M  V30 10966 C 1012.98 0.520377 5.89106 0
M  V30 10967 H 1011.91 -0.0916816 0.748405 0
M  V30 10968 H 1014.56 0.475474 1.77233 0
M  V30 10969 H 1012.94 -1.24153 3.76035 0
M  V30 10970 H 1014.12 1.55886 4.33631 0
M  V30 10971 H 1012.43 1.25878 3.96918 0
M  V30 10972 H 1015.03 -1.23406 5.20264 0
M  V30 10973 H 1015.37 -1.98084 3.66154 0
M  V30 10974 H 1015.91 -0.309554 3.96594 0
M  V30 10975 H 1012.65 1.45035 6.39254 0
M  V30 10976 H 1012.17 -0.215254 5.99414 0
M  V30 10977 H 1013.84 0.143006 6.46842 0
M  V30 10978 N 1013.98 -1.5736 0.0868897 0
M  V30 10979 C 1015.39 -1.57304 -0.269762 0
M  V30 10980 C 1015.59 -1.09745 -1.68992 0
M  V30 10981 O 1014.65 -0.77017 -2.40468 0
M  V30 10982 C 1015.96 -3.00628 -0.0656646 0
M  V30 10983 C 1017.51 -3.12713 -0.134045 0
M  V30 10984 C 1017.98 -4.57981 0.0419569 0
M  V30 10985 N 1019.48 -4.63198 -0.0131501 0
M  V30 10986 C 1020.21 -5.73316 0.0983964 0
M  V30 10987 N 1019.71 -6.92296 0.264315 0
M  V30 10988 N 1021.5 -5.62086 0.0402517 0
M  V30 10989 H 1013.65 -1.86585 1.01487 0
M  V30 10990 H 1015.91 -0.860843 0.397055 0
M  V30 10991 H 1015.62 -3.39592 0.914891 0
M  V30 10992 H 1015.49 -3.68367 -0.811522 0
M  V30 10993 H 1017.88 -2.73627 -1.1051 0
M  V30 10994 H 1017.96 -2.47582 0.643167 0
M  V30 10995 H 1017.61 -4.9776 1.00984 0
M  V30 10996 H 1017.54 -5.21162 -0.754847 0
M  V30 10997 H 1020.03 -3.77644 -0.139183 0
M  V30 10998 H 1020.34 -7.72047 0.341165 0
M  V30 10999 H 1018.68 -6.94353 0.299876 0
M  V30 11000 H 1021.88 -4.68017 -0.0881801 0
M  V30 11001 H 1022.05 -6.47868 0.130635 0
M  V30 11002 N 1015.45 0.186762 -1.56489 0
M  V30 11003 C 1016.4 1.23141 -1.95205 0
M  V30 11004 C 1017.37 1.44799 -0.81378 0
M  V30 11005 O 1018.56 1.57795 -1.07263 0
M  V30 11006 C 1015.7 2.56926 -2.30397 0
M  V30 11007 C 1014.81 2.42777 -3.57328 0
M  V30 11008 C 1013.94 3.69323 -3.81804 0
M  V30 11009 C 1012.98 3.50041 -5.02133 0
M  V30 11010 N 1012.12 4.68619 -5.2282 0
M  V30 11011 H 1016.96 0.894256 -2.84266 0
M  V30 11012 H 1014.5 0.430187 -1.40669 0
M  V30 11013 H 1016.46 3.3488 -2.4882 0
M  V30 11014 H 1015.09 2.88668 -1.44466 0
M  V30 11015 H 1014.14 1.56078 -3.46906 0
M  V30 11016 H 1015.45 2.24468 -4.45439 0
M  V30 11017 H 1014.6 4.55715 -4.00511 0
M  V30 11018 H 1013.34 3.90595 -2.92039 0
M  V30 11019 H 1012.35 2.62034 -4.8334 0
M  V30 11020 H 1013.57 3.30206 -5.93414 0
M  V30 11021 H 1011.52 4.90139 -4.36005 0
M  V30 11022 H 1011.44 4.53165 -6.05126 0
M  V30 11023 H 1012.7 5.56338 -5.45993 0
M  V30 11024 N 1016.93 1.50896 0.454776 0
M  V30 11025 C 1017.88 1.70947 1.55067 0
M  V30 11026 C 1018.85 0.550899 1.56698 0
M  V30 11027 O 1020.03 0.783352 1.73978 0
M  V30 11028 C 1017.17 1.82455 2.92924 0
M  V30 11029 C 1016.29 3.09919 3.00956 0
M  V30 11030 C 1015.42 3.12125 4.29827 0
M  V30 11031 C 1014.46 4.33975 4.31662 0
M  V30 11032 N 1013.6 4.33828 5.5203 0
M  V30 11033 H 1018.44 2.645 1.37273 0
M  V30 11034 H 1015.98 1.31101 0.667148 0
M  V30 11035 H 1017.93 1.87108 3.72889 0
M  V30 11036 H 1016.56 0.92327 3.09315 0
M  V30 11037 H 1015.62 3.14659 2.13761 0
M  V30 11038 H 1016.93 3.99869 2.98172 0
M  V30 11039 H 1016.08 3.15598 5.18154 0
M  V30 11040 H 1014.82 2.20033 4.35243 0
M  V30 11041 H 1013.83 4.30697 3.41731 0
M  V30 11042 H 1015.05 5.27312 4.27924 0
M  V30 11043 H 1013 3.44598 5.58201 0
M  V30 11044 H 1012.91 5.17566 5.51055 0
M  V30 11045 H 1014.18 4.4147 6.42437 0
M  V30 11046 N 1018.41 -0.709066 1.40748 0
M  V30 11047 C 1019.34 -1.83583 1.4429 0
M  V30 11048 C 1020.32 -1.67378 0.303067 0
M  V30 11049 O 1021.51 -1.87312 0.512612 0
M  V30 11050 C 1018.64 -3.21599 1.31116 0
M  V30 11051 C 1017.59 -3.52486 2.4277 0
M  V30 11052 C 1016.92 -4.89716 2.14668 0
M  V30 11053 C 1018.22 -3.52824 3.85113 0
M  V30 11054 H 1019.91 -1.80876 2.38588 0
M  V30 11055 H 1017.46 -0.868795 1.14839 0
M  V30 11056 H 1019.41 -4.00123 1.32209 0
M  V30 11057 H 1018.13 -3.24898 0.332965 0
M  V30 11058 H 1016.79 -2.76305 2.40937 0
M  V30 11059 H 1016.44 -4.89625 1.15224 0
M  V30 11060 H 1016.14 -5.11347 2.89478 0
M  V30 11061 H 1017.66 -5.70566 2.17455 0
M  V30 11062 H 1019.08 -4.21377 3.88734 0
M  V30 11063 H 1017.48 -3.85984 4.59496 0
M  V30 11064 H 1018.55 -2.52073 4.14231 0
M  V30 11065 N 1019.89 -1.26353 -0.941956 0
M  V30 11066 C 1021.14 -1.12017 -1.69056 0
M  V30 11067 C 1021.47 0.335856 -1.91274 0
M  V30 11068 O 1020.74 1.24677 -1.49285 0
M  V30 11069 C 1021.03 -1.88889 -3.06583 0
M  V30 11070 C 1020.88 -3.42394 -2.91696 0
M  V30 11071 C 1022.2 -1.68209 -4.06686 0
M  V30 11072 H 1019.32 -0.408311 -0.613556 0
M  V30 11073 H 1021.96 -1.55339 -1.09407 0
M  V30 11074 H 1020.11 -1.5207 -3.57501 0
M  V30 11075 H 1021.78 -3.88962 -2.48005 0
M  V30 11076 H 1020.02 -3.69459 -2.27338 0
M  V30 11077 H 1020.7 -3.91408 -3.89235 0
M  V30 11078 H 1023.17 -2.00286 -3.64726 0
M  V30 11079 H 1022.05 -2.24412 -5.00929 0
M  V30 11080 H 1022.31 -0.626474 -4.37639 0
M  V30 11081 N 1021.37 1.14642 -1.08144 0
M  V30 11082 C 1022.28 2.23257 -0.720668 0
M  V30 11083 C 1023.29 1.71866 0.271648 0
M  V30 11084 O 1024.47 2.01064 0.116266 0
M  V30 11085 C 1021.53 3.46447 -0.132542 0
M  V30 11086 C 1020.6 4.12789 -1.17913 0
M  V30 11087 C 1019.83 5.30099 -0.618971 0
M  V30 11088 O 1020.05 5.6762 0.562418 0
M  V30 11089 O 1018.99 5.86154 -1.36774 0
M  V30 11090 H 1022.81 2.56463 -1.62667 0
M  V30 11091 H 1020.4 1.22521 -0.854932 0
M  V30 11092 H 1022.28 4.20959 0.19277 0
M  V30 11093 H 1020.95 3.14971 0.746662 0
M  V30 11094 H 1019.86 3.40163 -1.55693 0
M  V30 11095 H 1021.19 4.48365 -2.03051 0
M  V30 11096 N 1022.85 0.866709 1.31628 0
M  V30 11097 C 1023.81 0.325041 2.26883 0
M  V30 11098 C 1024.81 -0.522133 1.52087 0
M  V30 11099 O 1026 -0.331908 1.71009 0
M  V30 11100 C 1023.13 -0.538756 3.36616 0
M  V30 11101 H 1024.32 1.16592 2.76308 0
M  V30 11102 H 1021.88 0.642029 1.42505 0
M  V30 11103 H 1022.61 -1.40096 2.92478 0
M  V30 11104 H 1022.4 0.0678115 3.92041 0
M  V30 11105 H 1023.89 -0.910123 4.07562 0
M  V30 11106 N 1024.32 -1.44642 0.625825 0
M  V30 11107 C 1025.23 -2.34451 -0.0836134 0
M  V30 11108 C 1026.25 -1.5231 -0.841289 0
M  V30 11109 O 1027.43 -1.85056 -0.794754 0
M  V30 11110 C 1024.49 -3.30211 -1.05648 0
M  V30 11111 C 1023.55 -4.28259 -0.298759 0
M  V30 11112 C 1022.78 -5.19444 -1.22528 0
M  V30 11113 O 1023.01 -5.14444 -2.46382 0
M  V30 11114 O 1021.94 -5.97668 -0.71247 0
M  V30 11115 H 1025.77 -2.96555 0.654912 0
M  V30 11116 H 1023.35 -1.44327 0.386029 0
M  V30 11117 H 1025.23 -3.8917 -1.61632 0
M  V30 11118 H 1023.91 -2.70648 -1.77571 0
M  V30 11119 H 1022.82 -3.72863 0.304001 0
M  V30 11120 H 1024.15 -4.90728 0.380345 0
M  V30 11121 N 1025.8 -0.366053 -1.5329 0
M  V30 11122 C 1026.71 0.488111 -2.29466 0
M  V30 11123 C 1027.73 1.09219 -1.35452 0
M  V30 11124 O 1028.9 1.10303 -1.68509 0
M  V30 11125 C 1025.97 1.61202 -3.06944 0
M  V30 11126 C 1025.03 1.03543 -4.16626 0
M  V30 11127 C 1024.26 2.10578 -4.904 0
M  V30 11128 O 1024.49 3.31697 -4.6404 0
M  V30 11129 O 1023.42 1.73609 -5.76319 0
M  V30 11130 H 1027.25 -0.131789 -3.03414 0
M  V30 11131 H 1024.83 -0.130421 -1.4883 0
M  V30 11132 H 1026.71 2.26546 -3.55324 0
M  V30 11133 H 1025.39 2.21732 -2.35832 0
M  V30 11134 H 1024.29 0.345892 -3.72498 0
M  V30 11135 H 1025.63 0.474687 -4.89906 0
M  V30 11136 N 1027.28 1.57312 -0.0952337 0
M  V30 11137 C 1028.21 2.17056 0.860753 0
M  V30 11138 C 1029.19 1.10394 1.29411 0
M  V30 11139 O 1030.38 1.38532 1.36098 0
M  V30 11140 C 1027.51 2.751 2.11984 0
M  V30 11141 C 1026.46 3.87136 1.8251 0
M  V30 11142 C 1025.79 4.31883 3.15247 0
M  V30 11143 C 1027.09 5.10326 1.11194 0
M  V30 11144 H 1028.78 2.97192 0.362983 0
M  V30 11145 H 1026.33 1.42955 0.173151 0
M  V30 11146 H 1028.28 3.15547 2.79299 0
M  V30 11147 H 1027 1.92219 2.64044 0
M  V30 11148 H 1025.66 3.47229 1.17592 0
M  V30 11149 H 1025.31 3.45893 3.65195 0
M  V30 11150 H 1025.01 5.0742 2.96309 0
M  V30 11151 H 1026.53 4.74964 3.83721 0
M  V30 11152 H 1027.95 5.47942 1.6862 0
M  V30 11153 H 1026.34 5.91293 1.02435 0
M  V30 11154 H 1027.41 4.84807 0.0947227 0
M  V30 11155 N 1028.76 -0.17846 1.56586 0
M  V30 11156 C 1029.67 -1.24115 1.9908 0
M  V30 11157 C 1030.68 -1.48854 0.901031 0
M  V30 11158 O 1031.86 -1.61142 1.2081 0
M  V30 11159 C 1028.92 -2.56187 2.33601 0
M  V30 11160 C 1027.99 -2.39373 3.56369 0
M  V30 11161 C 1027.22 -3.65147 3.89234 0
M  V30 11162 O 1027.44 -4.70024 3.23162 0
M  V30 11163 O 1026.38 -3.59683 4.82609 0
M  V30 11164 H 1030.2 -0.910482 2.89731 0
M  V30 11165 H 1027.79 -0.38477 1.4436 0
M  V30 11166 H 1029.67 -3.34109 2.56806 0
M  V30 11167 H 1028.34 -2.88847 1.46113 0
M  V30 11168 H 1027.25 -1.59506 3.38391 0
M  V30 11169 H 1028.58 -2.1164 4.44375 0
M  V30 11170 N 1030.24 -1.51135 -0.446768 0
M  V30 11171 C 1031.15 -1.74595 -1.56696 0
M  V30 11172 C 1032.16 -0.629816 -1.62201 0
M  V30 11173 O 1033.34 -0.910987 -1.79619 0
M  V30 11174 C 1030.4 -1.85738 -2.9275 0
M  V30 11175 C 1029.46 -3.09564 -2.97437 0
M  V30 11176 C 1028.7 -3.20165 -4.27001 0
M  V30 11177 O 1028.92 -2.36939 -5.1886 0
M  V30 11178 O 1027.85 -4.13077 -4.3778 0
M  V30 11179 H 1031.68 -2.69601 -1.39817 0
M  V30 11180 H 1029.26 -1.35523 -0.628805 0
M  V30 11181 H 1031.15 -1.95107 -3.73512 0
M  V30 11182 H 1029.82 -0.939184 -3.09776 0
M  V30 11183 H 1028.73 -3.05679 -2.15664 0
M  V30 11184 H 1030.06 -4.01041 -2.85353 0
M  V30 11185 N 1031.71 0.701592 -1.41122 0
M  V30 11186 C 1032.66 1.81559 -1.42495 0
M  V30 11187 C 1033.63 1.63722 -0.280078 0
M  V30 11188 O 1034.82 1.84658 -0.480231 0
M  V30 11189 C 1031.96 3.19392 -1.30702 0
M  V30 11190 C 1031.07 3.48704 -2.55009 0
M  V30 11191 C 1030.2 4.76118 -2.35554 0
M  V30 11192 C 1029.24 4.98378 -3.55367 0
M  V30 11193 N 1028.38 6.17014 -3.3502 0
M  V30 11194 H 1033.22 1.7972 -2.37707 0
M  V30 11195 H 1030.76 0.877727 -1.18044 0
M  V30 11196 H 1032.71 3.99004 -1.21867 0
M  V30 11197 H 1031.34 3.20423 -0.391012 0
M  V30 11198 H 1030.4 2.63542 -2.74317 0
M  V30 11199 H 1031.71 3.61057 -3.44151 0
M  V30 11200 H 1030.86 5.63774 -2.24152 0
M  V30 11201 H 1029.6 4.66 -1.43859 0
M  V30 11202 H 1028.61 4.09172 -3.6723 0
M  V30 11203 H 1029.83 5.10359 -4.48007 0
M  V30 11204 H 1027.78 6.0812 -2.4602 0
M  V30 11205 H 1027.69 6.30107 -4.17733 0
M  V30 11206 H 1028.96 7.0742 -3.27379 0
M  V30 11207 N 1033.19 1.2685 0.935242 0
M  V30 11208 C 1034.14 1.05586 2.02078 0
M  V30 11209 C 1035.13 -0.013699 1.60894 0
M  V30 11210 O 1036.32 0.203956 1.75821 0
M  V30 11211 C 1033.45 0.697118 3.36148 0
M  V30 11212 C 1032.53 1.80444 3.83798 0
M  V30 11213 N 1032.92 3.04283 4.04037 0
M  V30 11214 C 1031.22 1.68939 4.12766 0
M  V30 11215 C 1031.92 3.7629 4.436 0
M  V30 11216 N 1030.9 3.04011 4.50642 0
M  V30 11217 H 1034.7 1.99577 2.15746 0
M  V30 11218 H 1032.21 1.17455 1.12153 0
M  V30 11219 H 1034.21 0.525915 4.1357 0
M  V30 11220 H 1032.87 -0.235247 3.23847 0
M  V30 11221 H 1033.88 3.40125 3.90558 0
M  V30 11222 H 1030.56 0.827341 4.0922 0
M  V30 11223 H 1031.95 4.82687 4.67401 0
M  V30 11224 N 1034.67 -1.14067 1.0875 0
M  V30 11225 C 1036.09 -1.37173 0.815823 0
M  V30 11226 C 1036.29 -1.93175 -0.573215 0
M  V30 11227 O 1035.34 -2.14672 -1.32937 0
M  V30 11228 C 1036.66 -2.32955 1.90138 0
M  V30 11229 C 1038.2 -2.46586 1.9278 0
M  V30 11230 C 1038.68 -3.4567 3.0046 0
M  V30 11231 N 1040.17 -3.53216 2.99655 0
M  V30 11232 C 1040.9 -4.29743 3.79616 0
M  V30 11233 N 1040.4 -5.09484 4.69466 0
M  V30 11234 N 1042.19 -4.24975 3.67903 0
M  V30 11235 H 1034.34 -0.760648 1.98313 0
M  V30 11236 H 1036.61 -0.397135 0.860807 0
M  V30 11237 H 1036.31 -1.98949 2.90021 0
M  V30 11238 H 1036.19 -3.32897 1.77368 0
M  V30 11239 H 1038.57 -2.79882 0.935404 0
M  V30 11240 H 1038.66 -1.46593 2.09629 0
M  V30 11241 H 1038.3 -3.13106 3.99909 0
M  V30 11242 H 1038.23 -4.45452 2.80856 0
M  V30 11243 H 1040.72 -2.96314 2.34535 0
M  V30 11244 H 1041.03 -5.65163 5.27077 0
M  V30 11245 H 1039.38 -5.08741 4.73506 0
M  V30 11246 H 1042.57 -3.61751 2.97075 0
M  V30 11247 H 1042.74 -4.84364 4.30459 0
M  V30 11248 N 1036.15 -0.873678 -1.31166 0
M  V30 11249 C 1037.06 -0.335726 -2.32185 0
M  V30 11250 C 1038.07 0.556259 -1.64869 0
M  V30 11251 O 1039.25 0.452087 -1.9626 0
M  V30 11252 C 1036.32 0.450822 -3.43756 0
M  V30 11253 C 1035.38 -0.469565 -4.26724 0
M  V30 11254 C 1034.61 0.279538 -5.32967 0
M  V30 11255 O 1034.83 1.50715 -5.50128 0
M  V30 11256 O 1033.77 -0.36452 -6.00795 0
M  V30 11257 H 1037.59 -1.17314 -2.80127 0
M  V30 11258 H 1035.18 -0.637163 -1.35132 0
M  V30 11259 H 1037.06 0.896582 -4.11752 0
M  V30 11260 H 1035.73 1.26472 -2.9797 0
M  V30 11261 H 1034.64 -0.963902 -3.61469 0
M  V30 11262 H 1035.97 -1.24916 -4.76085 0
M  V30 11263 N 1037.63 1.44308 -0.633487 0
M  V30 11264 C 1038.59 2.2912 0.060376 0
M  V30 11265 C 1039.59 1.41166 0.769992 0
M  V30 11266 O 1040.78 1.63012 0.614224 0
M  V30 11267 C 1037.91 3.22798 1.0961 0
M  V30 11268 H 1039.1 2.91958 -0.685617 0
M  V30 11269 H 1036.66 1.51259 -0.393738 0
M  V30 11270 H 1037.39 2.64815 1.87199 0
M  V30 11271 H 1037.18 3.87618 0.591161 0
M  V30 11272 H 1038.67 3.86504 1.58127 0
M  V30 11273 N 1039.1 0.374177 1.53094 0
M  V30 11274 C 1040.04 -0.503065 2.23611 0
M  V30 11275 C 1041.05 -1.03915 1.25321 0
M  V30 11276 O 1042.24 -0.944064 1.51492 0
M  V30 11277 C 1039.34 -1.70825 2.92698 0
M  V30 11278 C 1038.51 -1.30217 4.17567 0
M  V30 11279 C 1037.57 -2.37036 4.69788 0
M  V30 11280 O 1036.6 -1.99069 5.33254 0
M  V30 11281 N 1037.8 -3.68743 4.4834 0
M  V30 11282 H 1040.56 0.101013 2.9953 0
M  V30 11283 H 1038.12 0.199778 1.60663 0
M  V30 11284 H 1040.12 -2.41779 3.24538 0
M  V30 11285 H 1038.69 -2.219 2.2018 0
M  V30 11286 H 1037.91 -0.422121 3.91933 0
M  V30 11287 H 1039.19 -1.00728 4.9873 0
M  V30 11288 H 1038.59 -4.0236 3.97647 0
M  V30 11289 H 1037.15 -4.35776 4.84709 0
M  V30 11290 N 1040.58 -1.57259 0.103575 0
M  V30 11291 C 1041.83 -1.94945 -0.558953 0
M  V30 11292 C 1042.16 -0.986038 -1.67305 0
M  V30 11293 O 1041.44 -0.0205464 -1.94489 0
M  V30 11294 C 1041.72 -3.42689 -1.10617 0
M  V30 11295 C 1041.57 -4.498 0.00345246 0
M  V30 11296 C 1042.89 -3.91933 -2.00191 0
M  V30 11297 H 1040.01 -0.708859 -0.201713 0
M  V30 11298 H 1042.65 -1.89183 0.176006 0
M  V30 11299 H 1040.8 -3.4773 -1.73251 0
M  V30 11300 H 1042.47 -4.56866 0.638082 0
M  V30 11301 H 1040.72 -4.28615 0.668705 0
M  V30 11302 H 1041.39 -5.50397 -0.420396 0
M  V30 11303 H 1043.86 -3.89098 -1.4745 0
M  V30 11304 H 1042.74 -4.9586 -2.35402 0
M  V30 11305 H 1043 -3.31722 -2.92255 0
M  V30 11306 N 1042.06 0.170153 -1.56679 0
M  V30 11307 C 1043.29 0.90618 -1.86556 0
M  V30 11308 C 1043.71 1.74986 -0.690044 0
M  V30 11309 O 1043.07 1.77672 0.360862 0
M  V30 11310 C 1043.12 1.75777 -3.14857 0
M  V30 11311 O 1042.22 2.85952 -2.97162 0
M  V30 11312 H 1041.56 0.253781 -0.613589 0
M  V30 11313 H 1044.09 0.167943 -2.0391 0
M  V30 11314 H 1044.1 2.15747 -3.46291 0
M  V30 11315 H 1042.78 1.13807 -4.00026 0
M  V30 11316 H 1041.35 2.49557 -2.77084 0
M  V30 11317 N 1043.54 1.5137 0.438746 0
M  V30 11318 C 1044.5 1.71993 1.51496 0
M  V30 11319 C 1045.5 0.589978 1.49586 0
M  V30 11320 O 1046.69 0.857505 1.51633 0
M  V30 11321 C 1043.82 1.77508 2.91039 0
M  V30 11322 H 1045.02 2.68041 1.34514 0
M  V30 11323 H 1042.57 1.41338 0.667326 0
M  V30 11324 H 1043.3 0.832698 3.13427 0
M  V30 11325 H 1043.09 2.59627 2.9383 0
M  V30 11326 H 1044.58 1.95308 3.69113 0
M  V30 11327 N 1045.02 -0.694098 1.41492 0
M  V30 11328 C 1045.95 -1.81943 1.39389 0
M  V30 11329 C 1046.96 -1.6009 0.295836 0
M  V30 11330 O 1048.15 -1.69565 0.557658 0
M  V30 11331 C 1045.25 -3.18731 1.15167 0
M  V30 11332 C 1044.42 -3.67601 2.37041 0
M  V30 11333 C 1043.48 -4.83063 2.08654 0
M  V30 11334 O 1042.51 -4.94603 2.81704 0
M  V30 11335 N 1043.71 -5.70409 1.0777 0
M  V30 11336 H 1046.48 -1.84239 2.36381 0
M  V30 11337 H 1044.04 -0.876475 1.36123 0
M  V30 11338 H 1046.03 -3.93602 0.941264 0
M  V30 11339 H 1044.6 -3.11452 0.267673 0
M  V30 11340 H 1043.82 -2.83622 2.73774 0
M  V30 11341 H 1045.11 -3.96991 3.18239 0
M  V30 11342 H 1044.5 -5.63718 0.473123 0
M  V30 11343 H 1043.06 -6.45172 0.927177 0
M  V30 11344 N 1046.49 -1.27344 -0.928501 0
M  V30 11345 C 1047.44 -1.06656 -2.01515 0
M  V30 11346 C 1048.43 0.00516619 -1.60899 0
M  V30 11347 O 1049.62 -0.213277 -1.7571 0
M  V30 11348 C 1046.75 -0.714935 -3.35773 0
M  V30 11349 C 1045.84 -1.82476 -3.82836 0
M  V30 11350 N 1046.23 -3.06421 -4.02417 0
M  V30 11351 C 1044.52 -1.71126 -4.11864 0
M  V30 11352 C 1045.23 -3.78637 -4.41598 0
M  V30 11353 N 1044.2 -3.06396 -4.49024 0
M  V30 11354 H 1048 -2.00718 -2.14685 0
M  V30 11355 H 1045.52 -1.18048 -1.11528 0
M  V30 11356 H 1047.51 -0.54784 -4.13285 0
M  V30 11357 H 1046.17 0.218069 -3.23967 0
M  V30 11358 H 1047.19 -3.42191 -3.88749 0
M  V30 11359 H 1043.86 -0.849031 -4.08776 0
M  V30 11360 H 1045.25 -4.85159 -4.64834 0
M  V30 11361 N 1047.97 1.13488 -1.09353 0
M  V30 11362 C 1048.9 2.20988 -0.75409 0
M  V30 11363 C 1049.88 1.67977 0.267901 0
M  V30 11364 O 1051.07 1.93722 0.136128 0
M  V30 11365 C 1048.2 3.46869 -0.173042 0
M  V30 11366 C 1047.15 4.12965 -1.12446 0
M  V30 11367 C 1046.48 5.33163 -0.405157 0
M  V30 11368 C 1047.78 4.60388 -2.46658 0
M  V30 11369 H 1049.47 2.49639 -1.6529 0
M  V30 11370 H 1047.02 1.19987 -0.796182 0
M  V30 11371 H 1048.97 4.21331 0.0764988 0
M  V30 11372 H 1047.7 3.17611 0.760956 0
M  V30 11373 H 1046.35 3.40469 -1.35927 0
M  V30 11374 H 1046 5.00169 0.532955 0
M  V30 11375 H 1045.7 5.78332 -1.03952 0
M  V30 11376 H 1047.23 6.1038 -0.163899 0
M  V30 11377 H 1048.64 5.26276 -2.27389 0
M  V30 11378 H 1047.04 5.16294 -3.05876 0
M  V30 11379 H 1048.11 3.74949 -3.07476 0
M  V30 11380 N 1049.45 0.880621 1.30701 0
M  V30 11381 C 1050.36 0.348034 2.32004 0
M  V30 11382 C 1051.38 -0.547508 1.65162 0
M  V30 11383 O 1052.55 -0.441673 1.96497 0
M  V30 11384 C 1049.62 -0.432585 3.43991 0
M  V30 11385 C 1048.68 0.492189 4.26469 0
M  V30 11386 C 1047.91 -0.25127 5.33108 0
M  V30 11387 O 1048.14 -1.47795 5.5092 0
M  V30 11388 O 1047.07 0.396376 6.00593 0
M  V30 11389 H 1050.9 1.18798 2.79501 0
M  V30 11390 H 1048.48 0.64432 1.34792 0
M  V30 11391 H 1050.36 -0.874733 4.12221 0
M  V30 11392 H 1049.04 -1.2489 2.98637 0
M  V30 11393 H 1047.94 0.983058 3.60953 0
M  V30 11394 H 1049.28 1.27439 4.75416 0
M  V30 11395 N 1050.93 -1.4397 0.641131 0
M  V30 11396 C 1052.18 -2.02246 0.14985 0
M  V30 11397 C 1052.51 -1.50387 -1.22871 0
M  V30 11398 O 1051.78 -0.692003 -1.81773 0
M  V30 11399 C 1052.07 -3.59798 0.147449 0
M  V30 11400 C 1051.92 -4.21916 1.55907 0
M  V30 11401 C 1053.24 -4.36985 -0.522667 0
M  V30 11402 H 1050.36 -0.734875 0.0559274 0
M  V30 11403 H 1053 -1.71418 0.819513 0
M  V30 11404 H 1051.15 -3.86193 -0.422789 0
M  V30 11405 H 1052.82 -4.06594 2.17896 0
M  V30 11406 H 1051.06 -3.79028 2.10998 0
M  V30 11407 H 1051.74 -5.30964 1.50934 0
M  V30 11408 H 1054.21 -4.16083 -0.0376226 0
M  V30 11409 H 1053.09 -5.46676 -0.493572 0
M  V30 11410 H 1053.35 -4.12335 -1.59475 0
M  V30 11411 N 1052.41 -0.382291 -1.52893 0
M  V30 11412 C 1053.36 0.473026 -2.23039 0
M  V30 11413 C 1054.34 1.0353 -1.23168 0
M  V30 11414 O 1055.53 0.962566 -1.48538 0
M  V30 11415 C 1052.66 1.60349 -3.03551 0
M  V30 11416 C 1051.75 1.05329 -4.10812 0
M  V30 11417 N 1052.14 0.22746 -5.05288 0
M  V30 11418 C 1050.44 1.32648 -4.25818 0
M  V30 11419 C 1051.14 -0.0757032 -5.81651 0
M  V30 11420 N 1050.11 0.526387 -5.41045 0
M  V30 11421 H 1053.92 -0.164541 -2.93439 0
M  V30 11422 H 1051.43 -0.191211 -1.6127 0
M  V30 11423 H 1053.43 2.22858 -3.52335 0
M  V30 11424 H 1052.09 2.24394 -2.34685 0
M  V30 11425 H 1053.1 -0.134714 -5.17725 0
M  V30 11426 H 1049.78 1.96849 -3.6818 0
M  V30 11427 H 1051.17 -0.744375 -6.67764 0
M  V30 11428 N 1053.89 1.57202 -0.111913 0
M  V30 11429 C 1054.82 2.17957 0.837683 0
M  V30 11430 C 1055.8 1.1176 1.28233 0
M  V30 11431 O 1056.98 1.39967 1.34621 0
M  V30 11432 C 1054.11 2.77333 2.09054 0
M  V30 11433 C 1053.07 3.8905 1.78393 0
M  V30 11434 C 1052.39 4.35203 3.10649 0
M  V30 11435 C 1053.69 5.11477 1.05775 0
M  V30 11436 H 1055.39 2.9756 0.331441 0
M  V30 11437 H 1052.93 1.43131 0.157979 0
M  V30 11438 H 1054.88 3.18492 2.75936 0
M  V30 11439 H 1053.61 1.95009 2.6199 0
M  V30 11440 H 1052.27 3.48456 1.13903 0
M  V30 11441 H 1051.92 3.49747 3.61506 0
M  V30 11442 H 1051.62 5.10534 2.9091 0
M  V30 11443 H 1053.14 4.79007 3.78661 0
M  V30 11444 H 1054.55 5.497 1.62798 0
M  V30 11445 H 1052.95 5.92346 0.961573 0
M  V30 11446 H 1054.02 4.84881 0.043297 0
M  V30 11447 N 1055.36 -0.161842 1.56767 0
M  V30 11448 C 1056.31 -1.2002 1.97139 0
M  V30 11449 C 1057.28 -1.43486 0.836713 0
M  V30 11450 O 1058.47 -1.56069 1.0976 0
M  V30 11451 C 1055.61 -2.53228 2.34456 0
M  V30 11452 C 1054.72 -2.37062 3.61145 0
M  V30 11453 C 1053.85 -3.63202 3.87631 0
M  V30 11454 C 1052.89 -3.42008 5.07638 0
M  V30 11455 N 1052.03 -4.60242 5.30209 0
M  V30 11456 H 1056.87 -0.848918 2.85653 0
M  V30 11457 H 1054.41 -0.407753 1.41336 0
M  V30 11458 H 1056.36 -3.30879 2.54116 0
M  V30 11459 H 1054.99 -2.86333 1.4904 0
M  V30 11460 H 1054.05 -1.50539 3.49345 0
M  V30 11461 H 1055.36 -2.17353 4.48953 0
M  V30 11462 H 1054.51 -4.49285 4.0771 0
M  V30 11463 H 1053.25 -3.85899 2.98216 0
M  V30 11464 H 1052.26 -2.54312 4.87448 0
M  V30 11465 H 1053.48 -3.20724 5.98593 0
M  V30 11466 H 1051.43 -4.8314 4.43747 0
M  V30 11467 H 1051.34 -4.43481 6.12259 0
M  V30 11468 H 1052.61 -5.47581 5.54775 0
M  V30 11469 N 1056.84 -1.516 -0.430713 0
M  V30 11470 C 1057.77 -1.69594 -1.54177 0
M  V30 11471 C 1058.79 -0.576518 -1.5225 0
M  V30 11472 O 1059.98 -0.85104 -1.56906 0
M  V30 11473 C 1057.08 -1.70148 -2.93092 0
M  V30 11474 C 1056.25 -2.98782 -3.1945 0
M  V30 11475 C 1055.31 -2.91435 -4.38123 0
M  V30 11476 O 1054.33 -3.65372 -4.36454 0
M  V30 11477 N 1055.54 -2.0774 -5.42056 0
M  V30 11478 H 1058.3 -2.65442 -1.39143 0
M  V30 11479 H 1055.86 -1.49569 -0.61974 0
M  V30 11480 H 1057.85 -1.62793 -3.70514 0
M  V30 11481 H 1056.42 -0.818667 -3.0169 0
M  V30 11482 H 1055.64 -3.19954 -2.30267 0
M  V30 11483 H 1056.93 -3.83919 -3.33892 0
M  V30 11484 H 1056.33 -1.47059 -5.46251 0
M  V30 11485 H 1054.89 -2.06259 -6.18305 0
M  V30 11486 N 1058.32 0.686584 -1.41858 0
M  V30 11487 C 1059.27 1.80038 -1.44413 0
M  V30 11488 C 1060.24 1.63415 -0.297427 0
M  V30 11489 O 1061.42 1.84138 -0.499789 0
M  V30 11490 C 1058.56 3.17988 -1.34082 0
M  V30 11491 C 1057.67 3.45979 -2.58693 0
M  V30 11492 C 1056.81 4.73592 -2.4059 0
M  V30 11493 C 1055.85 4.94581 -3.60633 0
M  V30 11494 N 1054.99 6.13426 -3.41545 0
M  V30 11495 H 1059.83 1.77189 -2.396 0
M  V30 11496 H 1057.36 0.865158 -1.18968 0
M  V30 11497 H 1059.32 3.97689 -1.26092 0
M  V30 11498 H 1057.95 3.1999 -0.424975 0
M  V30 11499 H 1057 2.60617 -2.77097 0
M  V30 11500 H 1058.31 3.57386 -3.47961 0
M  V30 11501 H 1057.47 5.61364 -2.30119 0
M  V30 11502 H 1056.21 4.64448 -1.48794 0
M  V30 11503 H 1055.21 4.05254 -3.71549 0
M  V30 11504 H 1056.44 5.05578 -4.53395 0
M  V30 11505 H 1054.38 6.05477 -2.52456 0
M  V30 11506 H 1054.3 6.25641 -4.24393 0
M  V30 11507 H 1055.57 7.03908 -3.34864 0
M  V30 11508 N 1059.8 1.27835 0.921735 0
M  V30 11509 C 1060.71 1.12904 2.05645 0
M  V30 11510 C 1061.72 0.0575704 1.73905 0
M  V30 11511 O 1062.9 0.265261 1.99645 0
M  V30 11512 C 1059.96 0.783957 3.3772 0
M  V30 11513 C 1059.03 1.93694 3.8312 0
M  V30 11514 C 1058.26 1.60823 5.08893 0
M  V30 11515 O 1058.48 0.518873 5.68035 0
M  V30 11516 O 1057.42 2.44932 5.49811 0
M  V30 11517 H 1061.24 2.08143 2.21157 0
M  V30 11518 H 1058.83 1.07078 1.04185 0
M  V30 11519 H 1060.71 0.605107 4.17033 0
M  V30 11520 H 1059.38 -0.138849 3.23402 0
M  V30 11521 H 1058.29 2.17089 3.04669 0
M  V30 11522 H 1059.62 2.84016 4.0199 0
M  V30 11523 N 1061.28 -1.12907 1.09954 0
M  V30 11524 C 1062.21 -2.18194 0.701701 0
M  V30 11525 C 1063.22 -1.60724 -0.259131 0
M  V30 11526 O 1064.41 -1.78445 -0.0443549 0
M  V30 11527 C 1061.51 -3.38897 0.0140602 0
M  V30 11528 C 1060.68 -4.25867 0.997807 0
M  V30 11529 C 1059.74 -5.25084 0.34257 0
M  V30 11530 O 1058.77 -5.60492 0.991857 0
M  V30 11531 N 1059.97 -5.73464 -0.901058 0
M  V30 11532 H 1062.73 -2.52939 1.60755 0
M  V30 11533 H 1060.3 -1.28281 0.987703 0
M  V30 11534 H 1062.29 -4.02349 -0.435628 0
M  V30 11535 H 1060.86 -3.02345 -0.794118 0
M  V30 11536 H 1060.08 -3.59107 1.6259 0
M  V30 11537 H 1061.37 -4.80825 1.66388 0
M  V30 11538 H 1060.76 -5.46854 -1.44802 0
M  V30 11539 H 1059.32 -6.38827 -1.29398 0
M  V30 11540 N 1062.75 -0.88754 -1.30232 0
M  V30 11541 C 1063.7 -0.327649 -2.25633 0
M  V30 11542 C 1064.69 0.545362 -1.51376 0
M  V30 11543 O 1065.88 0.389366 -1.72664 0
M  V30 11544 C 1063.01 0.454546 -3.40277 0
M  V30 11545 C 1062.09 -0.432698 -4.21887 0
M  V30 11546 N 1062.49 -1.53434 -4.81966 0
M  V30 11547 C 1060.78 -0.228275 -4.45415 0
M  V30 11548 C 1061.48 -2.08292 -5.43129 0
M  V30 11549 N 1060.46 -1.37754 -5.25856 0
M  V30 11550 H 1064.26 -1.16937 -2.69635 0
M  V30 11551 H 1061.78 -0.737232 -1.44702 0
M  V30 11552 H 1063.77 0.87231 -4.07672 0
M  V30 11553 H 1062.43 1.29367 -2.97816 0
M  V30 11554 H 1063.44 -1.91717 -4.81108 0
M  V30 11555 H 1060.12 0.573475 -4.13543 0
M  V30 11556 H 1061.51 -3.00818 -6.00798 0
M  V30 11557 N 1064.23 1.43628 -0.648757 0
M  V30 11558 C 1065.46 2.05918 -0.167701 0
M  V30 11559 C 1065.87 1.48681 1.17006 0
M  V30 11560 O 1065.21 0.610984 1.73242 0
M  V30 11561 C 1065.28 3.595 0.00265514 0
M  V30 11562 C 1064.94 4.39295 -1.2597 0
M  V30 11563 C 1065.94 4.71643 -2.18743 0
M  V30 11564 C 1063.62 4.79379 -1.50004 0
M  V30 11565 C 1065.62 5.42978 -3.33846 0
M  V30 11566 C 1063.3 5.50459 -2.65401 0
M  V30 11567 C 1064.3 5.82181 -3.57148 0
M  V30 11568 O 1063.99 6.5181 -4.7053 0
M  V30 11569 H 1063.72 0.670619 -0.0851261 0
M  V30 11570 H 1066.27 1.85196 -0.888351 0
M  V30 11571 H 1064.5 3.7878 0.77863 0
M  V30 11572 H 1066.19 4.03503 0.440501 0
M  V30 11573 H 1066.96 4.41199 -2.01416 0
M  V30 11574 H 1062.84 4.54098 -0.794745 0
M  V30 11575 H 1066.38 5.67656 -4.05479 0
M  V30 11576 H 1062.28 5.8032 -2.82664 0
M  V30 11577 H 1063.05 6.7029 -4.69738 0
M  V30 11578 N 1065.71 0.390394 1.52688 0
M  V30 11579 C 1066.62 -0.451543 2.30213 0
M  V30 11580 C 1067.64 -1.07051 1.37172 0
M  V30 11581 O 1068.81 -1.07609 1.70242 0
M  V30 11582 C 1065.88 -1.56299 3.0947 0
M  V30 11583 C 1064.94 -0.969017 4.18221 0
M  V30 11584 C 1064.17 -2.0275 4.93688 0
M  V30 11585 O 1064.39 -3.24273 4.69258 0
M  V30 11586 O 1063.33 -1.64418 5.79008 0
M  V30 11587 H 1067.15 0.180042 3.03166 0
M  V30 11588 H 1064.74 0.154082 1.48603 0
M  V30 11589 H 1066.62 -2.20864 3.58883 0
M  V30 11590 H 1065.3 -2.17952 2.3933 0
M  V30 11591 H 1064.2 -0.286587 3.73001 0
M  V30 11592 H 1065.54 -0.396687 4.90599 0
M  V30 11593 N 1067.19 -1.57141 0.120249 0
M  V30 11594 C 1068.1 -2.18925 -0.843155 0
M  V30 11595 C 1069.11 -1.16575 -1.29175 0
M  V30 11596 O 1070.29 -1.4905 -1.35448 0
M  V30 11597 C 1067.36 -2.7775 -2.075 0
M  V30 11598 C 1066.42 -3.95139 -1.6782 0
M  V30 11599 C 1065.65 -4.51149 -2.85132 0
M  V30 11600 O 1065.87 -4.06056 -4.00593 0
M  V30 11601 O 1064.81 -5.41815 -2.62145 0
M  V30 11602 H 1068.63 -3.01707 -0.347357 0
M  V30 11603 H 1066.22 -1.49028 -0.105427 0
M  V30 11604 H 1068.1 -3.15243 -2.79643 0
M  V30 11605 H 1066.77 -1.97998 -2.56083 0
M  V30 11606 H 1065.68 -3.62412 -0.927807 0
M  V30 11607 H 1067.01 -4.7633 -1.23977 0
M  V30 11608 N 1068.67 0.153526 -1.5685 0
M  V30 11609 C 1069.61 1.18973 -1.97773 0
M  V30 11610 C 1070.58 1.43041 -0.844311 0
M  V30 11611 O 1071.77 1.55484 -1.10586 0
M  V30 11612 C 1068.91 2.51981 -2.35795 0
M  V30 11613 C 1068.02 2.35143 -3.62397 0
M  V30 11614 C 1067.16 3.61141 -3.89552 0
M  V30 11615 C 1066.2 3.39311 -5.09445 0
M  V30 11616 N 1065.33 4.57423 -5.32643 0
M  V30 11617 H 1070.17 0.833758 -2.86099 0
M  V30 11618 H 1067.71 0.400252 -1.4155 0
M  V30 11619 H 1069.67 3.29527 -2.55867 0
M  V30 11620 H 1068.3 2.85539 -1.50557 0
M  V30 11621 H 1067.35 1.48684 -3.50139 0
M  V30 11622 H 1068.66 2.14969 -4.501 0
M  V30 11623 H 1067.82 4.47117 -4.10087 0
M  V30 11624 H 1066.55 3.84312 -3.00259 0
M  V30 11625 H 1065.56 2.51723 -4.8879 0
M  V30 11626 H 1066.78 3.17545 -6.00285 0
M  V30 11627 H 1064.73 4.8078 -4.46303 0
M  V30 11628 H 1064.65 4.40228 -6.14602 0
M  V30 11629 H 1065.92 5.44632 -5.57671 0
M  V30 11630 N 1070.14 1.51827 0.422667 0
M  V30 11631 C 1071.39 1.6445 1.16786 0
M  V30 11632 C 1071.71 0.373792 1.91995 0
M  V30 11633 O 1072.91 0.379621 2.68833 0
M  V30 11634 C 1071.37 2.90488 2.12473 0
M  V30 11635 C 1070.98 4.24617 1.42844 0
M  V30 11636 C 1072.72 3.12472 2.87335 0
M  V30 11637 C 1070.63 5.41791 2.371 0
M  V30 11638 H 1069.56 0.612561 0.439641 0
M  V30 11639 H 1072.21 1.78305 0.433534 0
M  V30 11640 H 1070.59 2.703 2.89402 0
M  V30 11641 H 1071.76 4.55239 0.71372 0
M  V30 11642 H 1070.08 4.08628 0.800769 0
M  V30 11643 H 1072.68 3.9719 3.57973 0
M  V30 11644 H 1073.02 2.26148 3.49518 0
M  V30 11645 H 1073.55 3.33069 2.17509 0
M  V30 11646 H 1070.29 6.3042 1.79584 0
M  V30 11647 H 1069.81 5.15526 3.06583 0
M  V30 11648 H 1071.49 5.74329 2.97918 0
M  V30 11649 N 1071.62 -0.679052 1.4222 0
M  V30 11650 C 1072.57 -1.79269 1.45366 0
M  V30 11651 C 1073.54 -1.63255 0.306089 0
M  V30 11652 O 1074.72 -1.8387 0.509548 0
M  V30 11653 C 1071.86 -3.17272 1.35766 0
M  V30 11654 C 1070.98 -3.44603 2.60525 0
M  V30 11655 C 1070.11 -4.7231 2.43098 0
M  V30 11656 C 1069.15 -4.92661 3.63251 0
M  V30 11657 N 1068.29 -6.11606 3.44794 0
M  V30 11658 H 1073.13 -1.75916 2.40536 0
M  V30 11659 H 1070.67 -0.858836 1.19425 0
M  V30 11660 H 1072.62 -3.97015 1.282 0
M  V30 11661 H 1071.25 -3.1976 0.441939 0
M  V30 11662 H 1070.31 -2.59144 2.78475 0
M  V30 11663 H 1071.62 -3.55536 3.49851 0
M  V30 11664 H 1070.77 -5.60136 2.33093 0
M  V30 11665 H 1069.51 -4.63652 1.51255 0
M  V30 11666 H 1068.52 -4.03278 3.73693 0
M  V30 11667 H 1069.74 -5.03167 4.5607 0
M  V30 11668 H 1067.69 -6.04129 2.55663 0
M  V30 11669 H 1067.6 -6.23381 4.27705 0
M  V30 11670 H 1068.87 -7.02122 3.38592 0
M  V30 11671 N 1073.1 -1.28322 -0.914942 0
M  V30 11672 C 1074.35 -1.15578 -1.66642 0
M  V30 11673 C 1074.68 0.295209 -1.91943 0
M  V30 11674 O 1073.95 1.21482 -1.51896 0
M  V30 11675 C 1074.24 -1.9535 -3.02507 0
M  V30 11676 C 1074.09 -3.48504 -2.84367 0
M  V30 11677 C 1075.41 -1.76798 -4.03027 0
M  V30 11678 H 1072.53 -0.421234 -0.604757 0
M  V30 11679 H 1075.17 -1.57625 -1.06087 0
M  V30 11680 H 1073.32 -1.59619 -3.54195 0
M  V30 11681 H 1074.99 -3.94135 -2.39699 0
M  V30 11682 H 1073.24 -3.74198 -2.1945 0
M  V30 11683 H 1073.91 -3.99576 -3.80845 0
M  V30 11684 H 1076.38 -2.07977 -3.60395 0
M  V30 11685 H 1075.26 -2.34987 -4.96057 0
M  V30 11686 H 1075.52 -0.719162 -4.36211 0
M  V30 11687 N 1074.58 1.12322 -1.10551 0
M  V30 11688 C 1075.51 2.20176 -0.777486 0
M  V30 11689 C 1076.49 1.68252 0.250069 0
M  V30 11690 O 1077.67 1.93856 0.115574 0
M  V30 11691 C 1074.8 3.46666 -0.209822 0
M  V30 11692 C 1073.76 4.11749 -1.1682 0
M  V30 11693 C 1073.08 5.32703 -0.461684 0
M  V30 11694 C 1074.38 4.57746 -2.51527 0
M  V30 11695 H 1076.08 2.47872 -1.67928 0
M  V30 11696 H 1073.62 1.19136 -0.808863 0
M  V30 11697 H 1075.58 4.21388 0.0318068 0
M  V30 11698 H 1074.3 3.18401 0.727226 0
M  V30 11699 H 1072.96 3.39009 -1.3953 0
M  V30 11700 H 1072.61 5.00706 0.479875 0
M  V30 11701 H 1072.31 5.77197 -1.1008 0
M  V30 11702 H 1073.83 6.10172 -0.228629 0
M  V30 11703 H 1075.25 5.23835 -2.32958 0
M  V30 11704 H 1073.64 5.13021 -3.11335 0
M  V30 11705 H 1074.71 3.71667 -3.11435 0
M  V30 11706 N 1076.06 0.894434 1.2976 0
M  V30 11707 C 1077.33 0.437365 1.90648 0
M  V30 11708 C 1077.71 -1.08261 1.81226 0
M  V30 11709 O 1077.06 -1.92213 1.23557 0
M  V30 11710 C 1077.27 0.946047 3.35933 0
M  V30 11711 C 1078.62 0.986621 4.12978 0
M  V30 11712 O 1079.64 0.893356 3.44815 0
M  V30 11713 O 1078.5 1.12591 5.34776 0
M  V30 11714 H 1075.6 0.135436 0.815835 0
M  V30 11715 H 1078.14 0.983955 1.38262 0
M  V30 11716 H 1076.91 1.98998 3.3692 0
M  V30 11717 H 1076.54 0.379164 3.95788 0
M  V30 11718 N 1077.53 -1.43282 0.656365 0
M  V30 11719 C 1078.48 -2.32556 -0.0452037 0
M  V30 11720 C 1079.48 -1.48789 -0.80982 0
M  V30 11721 O 1080.68 -1.64979 -0.719865 0
M  V30 11722 H 1077.06 -0.751258 -0.0334043 0
M  V30 11723 H 1079.03 -2.89448 0.725423 0
M  V30 11724 C 1077.78 -3.33138 -0.995706 0
M  V30 11725 H 1077.1 -3.97622 -0.416774 0
M  V30 11726 H 1078.54 -3.98231 -1.45562 0
M  V30 11727 C 1077 -2.63978 -2.09325 0
M  V30 11728 O 1077.53 -2.45769 -3.17743 0
M  V30 11729 N 1075.74 -2.23301 -1.8597 0
M  V30 11730 H 1075.28 -2.38312 -0.97802 0
M  V30 11731 H 1075.24 -1.77358 -2.59599 0
M  V30 11732 N 1079.01 -0.398486 -1.52479 0
M  V30 11733 C 1079.95 0.467426 -2.24383 0
M  V30 11734 C 1080.96 1.01908 -1.26959 0
M  V30 11735 O 1082.15 0.919843 -1.52974 0
M  V30 11736 C 1079.25 1.66146 -2.95379 0
M  V30 11737 C 1078.42 1.23557 -4.19586 0
M  V30 11738 C 1077.48 2.29532 -4.73499 0
M  V30 11739 O 1076.51 1.90561 -5.36354 0
M  V30 11740 N 1077.71 3.61564 -4.5415 0
M  V30 11741 H 1080.47 -0.148653 -2.99331 0
M  V30 11742 H 1078.03 -0.225313 -1.60325 0
M  V30 11743 H 1080.03 2.36585 -3.28344 0
M  V30 11744 H 1078.6 2.18369 -2.23682 0
M  V30 11745 H 1077.82 0.359715 -3.92555 0
M  V30 11746 H 1079.1 0.927812 -5.00269 0
M  V30 11747 H 1078.5 3.95983 -4.03998 0
M  V30 11748 H 1077.06 4.2801 -4.9158 0
M  V30 11749 N 1080.49 1.57075 -0.12858 0
M  V30 11750 C 1081.74 1.94695 0.526952 0
M  V30 11751 C 1082.05 1.01482 1.67215 0
M  V30 11752 O 1083.26 1.28606 2.39108 0
M  V30 11753 C 1081.72 3.4605 0.988801 0
M  V30 11754 C 1081.32 4.47816 -0.128457 0
M  V30 11755 C 1083.07 3.92572 1.61517 0
M  V30 11756 C 1080.97 5.9036 0.350628 0
M  V30 11757 H 1079.9 0.726819 0.200623 0
M  V30 11758 H 1082.56 1.82295 -0.209972 0
M  V30 11759 H 1080.94 3.53718 1.78043 0
M  V30 11760 H 1082.11 4.51826 -0.904976 0
M  V30 11761 H 1080.43 4.11103 -0.662075 0
M  V30 11762 H 1083.02 4.96493 1.98491 0
M  V30 11763 H 1083.37 3.33085 2.49721 0
M  V30 11764 H 1083.9 3.87744 0.888768 0
M  V30 11765 H 1080.64 6.53624 -0.495592 0
M  V30 11766 H 1080.16 5.89749 1.09342 0
M  V30 11767 H 1081.84 6.41926 0.808717 0
M  V30 11768 N 1081.97 -0.145205 1.5693 0
M  V30 11769 C 1082.92 -1.17923 1.98401 0
M  V30 11770 C 1083.89 -1.42591 0.851885 0
M  V30 11771 O 1085.07 -1.54896 1.11409 0
M  V30 11772 C 1082.21 -2.50727 2.37128 0
M  V30 11773 C 1081.32 -2.33218 3.63639 0
M  V30 11774 C 1080.46 -3.5907 3.91462 0
M  V30 11775 C 1079.5 -3.36605 5.11237 0
M  V30 11776 N 1078.64 -4.54592 5.35061 0
M  V30 11777 H 1083.48 -0.818573 2.86537 0
M  V30 11778 H 1081.01 -0.392739 1.4176 0
M  V30 11779 H 1082.97 -3.28165 2.57611 0
M  V30 11780 H 1081.6 -2.84736 1.52069 0
M  V30 11781 H 1080.65 -1.46826 3.50922 0
M  V30 11782 H 1081.96 -2.12579 4.51234 0
M  V30 11783 H 1081.12 -4.44936 4.12453 0
M  V30 11784 H 1079.86 -3.82715 3.02293 0
M  V30 11785 H 1078.86 -2.49127 4.90118 0
M  V30 11786 H 1080.09 -3.14357 6.01961 0
M  V30 11787 H 1078.03 -4.78406 4.48847 0
M  V30 11788 H 1077.95 -4.36962 6.16928 0
M  V30 11789 H 1079.22 -5.41666 5.60551 0
M  V30 11790 N 1083.45 -1.52049 -0.414609 0
M  V30 11791 C 1084.39 -1.74998 -1.5048 0
M  V30 11792 C 1085.36 -0.592251 -1.55182 0
M  V30 11793 O 1086.55 -0.829203 -1.7184 0
M  V30 11794 C 1083.69 -1.90157 -2.87983 0
M  V30 11795 C 1082.8 -3.17789 -2.92633 0
M  V30 11796 C 1081.94 -3.23411 -4.21401 0
M  V30 11797 C 1080.98 -4.45267 -4.20004 0
M  V30 11798 N 1080.11 -4.48312 -5.40334 0
M  V30 11799 H 1084.95 -2.68046 -1.30212 0
M  V30 11800 H 1082.49 -1.32824 -0.632154 0
M  V30 11801 H 1084.45 -1.96929 -3.67797 0
M  V30 11802 H 1083.08 -1.00496 -3.06758 0
M  V30 11803 H 1082.13 -3.20216 -2.05343 0
M  V30 11804 H 1083.44 -4.07634 -2.87465 0
M  V30 11805 H 1082.6 -3.29224 -5.09604 0
M  V30 11806 H 1081.34 -2.31495 -4.29257 0
M  V30 11807 H 1080.34 -4.39606 -3.30192 0
M  V30 11808 H 1081.57 -5.38472 -4.13793 0
M  V30 11809 H 1079.51 -3.59277 -5.48868 0
M  V30 11810 H 1079.43 -5.31994 -5.37139 0
M  V30 11811 H 1080.7 -4.58347 -6.30506 0
M  V30 11812 N 1084.93 0.6715 -1.42579 0
M  V30 11813 C 1086.2 1.42766 -1.33706 0
M  V30 11814 C 1086.58 2.11086 0.0239748 0
M  V30 11815 O 1085.93 2.03479 1.03964 0
M  V30 11816 C 1086.14 2.42739 -2.50756 0
M  V30 11817 C 1087.49 3.07284 -2.93021 0
M  V30 11818 O 1088.51 2.53066 -2.50671 0
M  V30 11819 O 1087.37 4.05541 -3.66331 0
M  V30 11820 H 1084.47 0.636955 -0.527463 0
M  V30 11821 H 1087.01 0.699946 -1.54593 0
M  V30 11822 H 1085.78 1.91076 -3.41476 0
M  V30 11823 H 1085.41 3.22986 -2.31874 0
M  V30 11824 N 1086.4 1.28806 0.908124 0
M  V30 11825 C 1087.33 1.15758 2.02787 0
M  V30 11826 C 1088.31 0.053911 1.70015 0
M  V30 11827 O 1089.5 0.231901 1.9281 0
M  V30 11828 C 1086.63 0.824526 3.37371 0
M  V30 11829 C 1085.58 1.88359 3.84324 0
M  V30 11830 C 1084.91 1.40404 5.15937 0
M  V30 11831 C 1086.21 3.29108 4.05568 0
M  V30 11832 H 1087.9 2.09431 2.13961 0
M  V30 11833 H 1085.45 1.00831 1.02806 0
M  V30 11834 H 1087.4 0.71999 4.15204 0
M  V30 11835 H 1086.13 -0.147902 3.26265 0
M  V30 11836 H 1084.79 1.97736 3.087 0
M  V30 11837 H 1084.43 0.420515 5.01239 0
M  V30 11838 H 1084.13 2.11224 5.48323 0
M  V30 11839 H 1085.66 1.31283 5.9632 0
M  V30 11840 H 1087.07 3.2262 4.73909 0
M  V30 11841 H 1085.47 3.97812 4.49294 0
M  V30 11842 H 1086.54 3.72709 3.10187 0
M  V30 11843 N 1087.88 -1.11734 1.11145 0
M  V30 11844 C 1088.84 -2.15868 0.770303 0
M  V30 11845 C 1089.84 -1.59438 -0.208842 0
M  V30 11846 O 1091.03 -1.74193 0.0152516 0
M  V30 11847 C 1088.17 -3.40603 0.142303 0
M  V30 11848 H 1089.36 -2.4756 1.69276 0
M  V30 11849 H 1086.91 -1.26867 0.912929 0
M  V30 11850 H 1087.65 -3.14517 -0.790526 0
M  V30 11851 H 1087.43 -3.8284 0.847087 0
M  V30 11852 H 1088.92 -4.17523 -0.0803608 0
M  V30 11853 N 1089.36 -0.901303 -1.29284 0
M  V30 11854 C 1090.64 -0.44747 -1.90413 0
M  V30 11855 C 1091.02 1.07298 -1.81797 0
M  V30 11856 O 1090.36 1.91555 -1.24574 0
M  V30 11857 C 1090.57 -0.963849 -3.35427 0
M  V30 11858 C 1091.92 -1.00851 -4.12449 0
M  V30 11859 O 1092.95 -0.91163 -3.44337 0
M  V30 11860 O 1091.81 -1.15426 -5.34171 0
M  V30 11861 H 1088.9 -0.13976 -0.815105 0
M  V30 11862 H 1091.45 -0.991274 -1.37738 0
M  V30 11863 H 1090.22 -2.00782 -3.3586 0
M  V30 11864 H 1089.84 -0.400149 -3.95581 0
M  V30 11865 N 1090.84 1.42931 -0.663954 0
M  V30 11866 C 1091.78 2.3079 0.0210764 0
M  V30 11867 C 1092.75 1.45356 0.803796 0
M  V30 11868 O 1093.94 1.74207 0.778237 0
M  V30 11869 C 1091.08 3.31069 0.974023 0
M  V30 11870 C 1090.19 4.31598 0.186273 0
M  V30 11871 C 1089.33 5.18955 1.13399 0
M  V30 11872 C 1088.37 6.1117 0.337292 0
M  V30 11873 N 1087.5 6.91114 1.23715 0
M  V30 11874 H 1092.34 2.88819 -0.733995 0
M  V30 11875 H 1089.88 1.42274 -0.373711 0
M  V30 11876 H 1091.84 3.87727 1.54024 0
M  V30 11877 H 1090.47 2.74665 1.69585 0
M  V30 11878 H 1089.52 3.77147 -0.496402 0
M  V30 11879 H 1090.83 4.96919 -0.432753 0
M  V30 11880 H 1089.99 5.80292 1.77049 0
M  V30 11881 H 1088.73 4.53785 1.78691 0
M  V30 11882 H 1087.73 5.48911 -0.312492 0
M  V30 11883 H 1088.96 6.78386 -0.31138 0
M  V30 11884 H 1086.9 6.28583 1.87668 0
M  V30 11885 H 1086.82 7.52999 0.672946 0
M  V30 11886 H 1088.09 7.56948 1.86146 0
M  V30 11887 N 1092.32 0.406567 1.52266 0
M  V30 11888 C 1093.23 -0.4271 2.30679 0
M  V30 11889 C 1094.24 -1.0559 1.383 0
M  V30 11890 O 1095.42 -1.05797 1.71374 0
M  V30 11891 C 1092.48 -1.53008 3.1111 0
M  V30 11892 C 1091.54 -0.924604 4.19225 0
M  V30 11893 C 1090.78 -1.97502 4.95811 0
M  V30 11894 O 1091 -3.19277 4.72671 0
M  V30 11895 O 1089.93 -1.58268 5.80719 0
M  V30 11896 H 1093.76 0.212187 3.02958 0
M  V30 11897 H 1091.34 0.169835 1.48432 0
M  V30 11898 H 1093.23 -2.17046 3.61205 0
M  V30 11899 H 1091.9 -2.15401 2.41628 0
M  V30 11900 H 1090.81 -0.247009 3.73284 0
M  V30 11901 H 1092.14 -0.34463 4.90992 0
M  V30 11902 N 1093.79 -1.57004 0.136909 0
M  V30 11903 C 1095.02 -2.00156 -0.523936 0
M  V30 11904 C 1095.44 -1.01688 -1.59075 0
M  V30 11905 O 1094.79 -0.0123678 -1.82496 0
M  V30 11906 C 1094.85 -3.4326 -1.13379 0
M  V30 11907 O 1094.57 -4.37963 -0.109598 0
M  V30 11908 C 1096.07 -4.01637 -1.87623 0
M  V30 11909 H 1093.29 -0.65681 -0.137263 0
M  V30 11910 H 1095.83 -2.03219 0.228522 0
M  V30 11911 H 1093.99 -3.4108 -1.83693 0
M  V30 11912 H 1094.4 -5.21555 -0.55503 0
M  V30 11913 H 1095.87 -5.03795 -2.25597 0
M  V30 11914 H 1096.35 -3.41781 -2.75831 0
M  V30 11915 H 1096.96 -4.07417 -1.22031 0
M  V30 11916 N 1095.27 0.136881 -1.57004 0
M  V30 11917 C 1096.2 1.17026 -2.02057 0
M  V30 11918 C 1097.18 1.44223 -0.901866 0
M  V30 11919 O 1098.37 1.54971 -1.17037 0
M  V30 11920 C 1095.5 2.50095 -2.40977 0
M  V30 11921 C 1094.45 2.37398 -3.56127 0
M  V30 11922 C 1093.78 3.75268 -3.80891 0
M  V30 11923 C 1095.08 1.84952 -4.88457 0
M  V30 11924 H 1096.77 0.795601 -2.88636 0
M  V30 11925 H 1094.32 0.381266 -1.38861 0
M  V30 11926 H 1096.27 3.22621 -2.71097 0
M  V30 11927 H 1095 2.89416 -1.51348 0
M  V30 11928 H 1093.65 1.67322 -3.26188 0
M  V30 11929 H 1093.3 4.12043 -2.88496 0
M  V30 11930 H 1093 3.67631 -4.5839 0
M  V30 11931 H 1094.53 4.49327 -4.13446 0
M  V30 11932 H 1095.94 2.4728 -5.17229 0
M  V30 11933 H 1094.34 1.88181 -5.69832 0
M  V30 11934 H 1095.41 0.805848 -4.78157 0
M  V30 11935 N 1096.75 1.52266 0.40654 0
M  V30 11936 C 1097.66 1.78688 1.52012 0
M  V30 11937 C 1098.68 0.6726 1.60475 0
M  V30 11938 O 1099.85 0.95829 1.77141 0
M  V30 11939 C 1096.92 1.93434 2.87722 0
M  V30 11940 C 1095.98 3.17341 2.89125 0
M  V30 11941 C 1095.21 3.31374 4.18362 0
M  V30 11942 O 1095.43 2.50613 5.12396 0
M  V30 11943 O 1094.37 4.24539 4.26674 0
M  V30 11944 H 1098.19 2.73213 1.3262 0
M  V30 11945 H 1095.78 1.37142 0.592653 0
M  V30 11946 H 1097.66 2.04941 3.68208 0
M  V30 11947 H 1096.34 1.02099 3.07177 0
M  V30 11948 H 1095.24 3.1129 2.07483 0
M  V30 11949 H 1096.58 4.08466 2.7462 0
M  V30 11950 N 1098.23 -0.663929 1.42933 0
M  V30 11951 C 1099.18 -1.79843 1.4751 0
M  V30 11952 C 1100.17 -1.65751 0.349727 0
M  V30 11953 O 1101.38 -1.72227 0.523239 0
M  V30 11954 H 1097.75 -0.593176 0.462219 0
M  V30 11955 H 1099.72 -1.73102 2.4306 0
M  V30 11956 C 1098.47 -3.18053 1.4049 0
M  V30 11957 H 1097.79 -3.29529 2.26386 0
M  V30 11958 H 1099.23 -3.97423 1.47754 0
M  V30 11959 C 1097.69 -3.36682 0.121076 0
M  V30 11960 O 1098.22 -3.93202 -0.821874 0
M  V30 11961 N 1096.43 -2.90579 0.0347141 0
M  V30 11962 H 1095.98 -2.44769 0.802852 0
M  V30 11963 H 1095.93 -3.03421 -0.823607 0
M  V30 11964 N 1099.71 -1.29285 -0.901281 0
M  V30 11965 C 1100.64 -1.08603 -2.007 0
M  V30 11966 C 1101.62 0.00162233 -1.626 0
M  V30 11967 O 1102.8 -0.148764 -1.87912 0
M  V30 11968 C 1099.93 -0.652972 -3.32346 0
M  V30 11969 C 1098.97 -1.73911 -3.89432 0
M  V30 11970 S 1099.81 -3.33797 -4.18736 0
M  V30 11971 C 1100.96 -2.92355 -5.53425 0
M  V30 11972 H 1101.2 -2.02216 -2.17936 0
M  V30 11973 H 1098.73 -1.13414 -1.04769 0
M  V30 11974 H 1100.69 -0.409825 -4.08449 0
M  V30 11975 H 1099.35 0.263527 -3.12993 0
M  V30 11976 H 1098.54 -1.388 -4.84511 0
M  V30 11977 H 1098.14 -1.93569 -3.20011 0
M  V30 11978 H 1100.44 -2.39301 -6.33831 0
M  V30 11979 H 1101.38 -3.86278 -5.9346 0
M  V30 11980 H 1101.79 -2.30697 -5.15208 0
M  V30 11981 N 1101.18 1.11143 -1.11736 0
M  V30 11982 C 1102.12 2.16467 -0.722299 0
M  V30 11983 C 1103.1 1.60118 0.283006 0
M  V30 11984 O 1104.28 1.87651 0.178696 0
M  V30 11985 C 1101.41 3.38632 -0.0679339 0
M  V30 11986 C 1100.45 4.13654 -1.03888 0
M  V30 11987 S 1101.29 4.70187 -2.5629 0
M  V30 11988 C 1102.44 5.95671 -1.92163 0
M  V30 11989 H 1102.67 2.49644 -1.61447 0
M  V30 11990 H 1100.21 1.22816 -0.935708 0
M  V30 11991 H 1102.17 4.09378 0.303253 0
M  V30 11992 H 1100.83 3.03709 0.80124 0
M  V30 11993 H 1100.02 5.01221 -0.528522 0
M  V30 11994 H 1099.62 3.48683 -1.35265 0
M  V30 11995 H 1101.91 6.65681 -1.25994 0
M  V30 11996 H 1102.86 6.51357 -2.77741 0
M  V30 11997 H 1103.26 5.47359 -1.3805 0
M  V30 11998 N 1102.66 0.908147 1.28804 0
M  V30 11999 C 1103.59 0.34957 2.26519 0
M  V30 12000 C 1104.61 -0.508845 1.54643 0
M  V30 12001 O 1105.8 -0.324633 1.75523 0
M  V30 12002 C 1102.9 -0.519461 3.34895 0
M  V30 12003 C 1102.07 0.315157 4.36263 0
M  V30 12004 C 1101.13 -0.488059 5.23932 0
M  V30 12005 O 1100.15 0.0974133 5.69117 0
M  V30 12006 N 1101.36 -1.79233 5.52137 0
M  V30 12007 H 1104.12 1.18945 2.75086 0
M  V30 12008 H 1101.68 0.77351 1.42227 0
M  V30 12009 H 1103.67 -1.0634 3.90479 0
M  V30 12010 H 1102.24 -1.26004 2.8608 0
M  V30 12011 H 1101.46 1.04049 3.8022 0
M  V30 12012 H 1102.75 0.886438 5.01019 0
M  V30 12013 H 1102.15 -2.2906 5.1725 0
M  V30 12014 H 1100.71 -2.28322 6.10502 0
M  V30 12015 N 1104.14 -1.42577 0.671525 0
M  V30 12016 C 1105.56 -1.5592 0.340769 0
M  V30 12017 C 1105.76 -1.65179 -1.15405 0
M  V30 12018 O 1104.81 -1.61691 -1.93939 0
M  V30 12019 C 1106.13 -2.81087 1.06821 0
M  V30 12020 C 1107.67 -2.94855 1.05022 0
M  V30 12021 C 1108.15 -4.22878 1.75892 0
M  V30 12022 N 1109.64 -4.29783 1.72744 0
M  V30 12023 C 1110.37 -5.2765 2.24439 0
M  V30 12024 N 1109.87 -6.31689 2.84501 0
M  V30 12025 N 1111.66 -5.19426 2.14832 0
M  V30 12026 H 1103.81 -1.34811 1.64133 0
M  V30 12027 H 1106.08 -0.648704 0.691294 0
M  V30 12028 H 1105.78 -2.80371 2.12332 0
M  V30 12029 H 1105.66 -3.71879 0.631356 0
M  V30 12030 H 1108.04 -2.951 0.00345633 0
M  V30 12031 H 1108.13 -2.05303 1.52592 0
M  V30 12032 H 1107.77 -4.23394 2.80535 0
M  V30 12033 H 1107.7 -5.1136 1.25773 0
M  V30 12034 H 1110.19 -3.55225 1.28932 0
M  V30 12035 H 1110.5 -7.02715 3.21575 0
M  V30 12036 H 1108.85 -6.3226 2.88569 0
M  V30 12037 H 1112.04 -4.37067 1.676 0
M  V30 12038 H 1112.21 -5.95535 2.55426 0
M  V30 12039 N 1105.62 -0.414636 -1.52048 0
M  V30 12040 C 1106.57 0.42561 -2.23992 0
M  V30 12041 C 1107.55 1.00894 -1.25337 0
M  V30 12042 O 1108.74 0.930842 -1.50547 0
M  V30 12043 C 1105.87 1.53874 -3.06884 0
M  V30 12044 C 1104.96 0.965913 -4.12954 0
M  V30 12045 N 1105.35 0.12023 -5.05657 0
M  V30 12046 C 1103.65 1.23586 -4.28535 0
M  V30 12047 C 1104.35 -0.199063 -5.81359 0
M  V30 12048 N 1103.33 0.411505 -5.4204 0
M  V30 12049 H 1107.13 -0.226746 -2.93024 0
M  V30 12050 H 1104.64 -0.225376 -1.60829 0
M  V30 12051 H 1106.64 2.15334 -3.56983 0
M  V30 12052 H 1105.3 2.19366 -2.39392 0
M  V30 12053 H 1106.31 -0.244501 -5.17323 0
M  V30 12054 H 1102.99 1.88995 -3.72273 0
M  V30 12055 H 1104.38 -0.88585 -6.66035 0
M  V30 12056 N 1107.1 1.56929 -0.145233 0
M  V30 12057 C 1108.01 2.20238 0.808219 0
M  V30 12058 C 1109.02 1.18615 1.27304 0
M  V30 12059 O 1110.2 1.51186 1.3306 0
M  V30 12060 C 1107.26 2.81016 2.03055 0
M  V30 12061 C 1106.32 3.97759 1.61512 0
M  V30 12062 C 1105.56 4.55628 2.77918 0
M  V30 12063 O 1105.78 4.12378 3.94082 0
M  V30 12064 O 1104.71 5.45917 2.53492 0
M  V30 12065 H 1108.54 3.02221 0.299314 0
M  V30 12066 H 1106.13 1.49176 0.0817051 0
M  V30 12067 H 1108.01 3.19652 2.74592 0
M  V30 12068 H 1106.68 2.02047 2.52901 0
M  V30 12069 H 1105.59 3.63842 0.870033 0
M  V30 12070 H 1106.92 4.78242 1.16383 0
M  V30 12071 N 1108.58 -0.128553 1.57075 0
M  V30 12072 C 1109.49 -1.17718 2.02927 0
M  V30 12073 C 1110.5 -1.45912 0.947932 0
M  V30 12074 O 1111.68 -1.57217 1.25876 0
M  V30 12075 C 1108.74 -2.48625 2.41633 0
M  V30 12076 C 1107.8 -2.27914 3.63804 0
M  V30 12077 C 1107.04 -3.52579 4.00654 0
M  V30 12078 O 1107.26 -4.59505 3.37952 0
M  V30 12079 O 1106.19 -3.44147 4.93808 0
M  V30 12080 H 1110.02 -0.817846 2.92481 0
M  V30 12081 H 1107.6 -0.338649 1.45511 0
M  V30 12082 H 1109.49 -3.2577 2.67305 0
M  V30 12083 H 1108.16 -2.84052 1.55229 0
M  V30 12084 H 1107.07 -1.4866 3.43294 0
M  V30 12085 H 1108.4 -1.97395 4.50883 0
M  V30 12086 N 1110.05 -1.5248 -0.398459 0
M  V30 12087 C 1110.96 -1.79492 -1.51062 0
M  V30 12088 C 1111.98 -0.681101 -1.60116 0
M  V30 12089 O 1113.16 -0.967671 -1.7663 0
M  V30 12090 C 1110.22 -1.94958 -2.86692 0
M  V30 12091 C 1109.28 -3.1887 -2.87438 0
M  V30 12092 C 1108.51 -3.33588 -4.16599 0
M  V30 12093 O 1108.74 -2.53327 -5.11059 0
M  V30 12094 O 1107.67 -4.26795 -4.24416 0
M  V30 12095 H 1111.5 -2.73913 -1.31169 0
M  V30 12096 H 1109.08 -1.37455 -0.585372 0
M  V30 12097 H 1110.96 -2.06891 -3.67116 0
M  V30 12098 H 1109.64 -1.03726 -3.06631 0
M  V30 12099 H 1108.55 -3.12386 -2.0583 0
M  V30 12100 H 1109.88 -4.09917 -2.7245 0
M  V30 12101 N 1111.53 0.65634 -1.43283 0
M  V30 12102 C 1112.49 1.75117 -1.47874 0
M  V30 12103 C 1113.49 1.56629 -0.363846 0
M  V30 12104 O 1114.68 1.62584 -0.625464 0
M  V30 12105 C 1111.82 3.13957 -1.32831 0
M  V30 12106 H 1113.01 1.72429 -2.45374 0
M  V30 12107 H 1110.56 0.867704 -1.30002 0
M  V30 12108 H 1111.3 3.22259 -0.36326 0
M  V30 12109 H 1111.08 3.28781 -2.13649 0
M  V30 12110 H 1112.57 3.93799 -1.38969 0
M  V30 12111 N 1113.01 1.29761 0.894412 0
M  V30 12112 C 1113.96 1.11962 1.98617 0
M  V30 12113 C 1114.94 0.0374952 1.60856 0
M  V30 12114 O 1116.14 0.259789 1.75083 0
M  V30 12115 C 1113.26 0.803708 3.3376 0
M  V30 12116 C 1112.35 1.92563 3.77863 0
M  V30 12117 N 1112.74 3.16983 3.94152 0
M  V30 12118 C 1111.04 1.81986 4.07182 0
M  V30 12119 C 1111.74 3.90212 4.31404 0
M  V30 12120 N 1110.72 3.18194 4.40742 0
M  V30 12121 H 1114.52 2.06339 2.09287 0
M  V30 12122 H 1112.03 1.20963 1.08359 0
M  V30 12123 H 1114.03 0.657223 4.11687 0
M  V30 12124 H 1112.69 -0.132098 3.24431 0
M  V30 12125 H 1113.7 3.52378 3.79539 0
M  V30 12126 H 1110.38 0.957112 4.06381 0
M  V30 12127 H 1111.77 4.97312 4.51808 0
M  V30 12128 N 1114.49 -1.10549 1.12324 0
M  V30 12129 C 1115.4 -2.20428 0.803032 0
M  V30 12130 C 1116.41 -1.72756 -0.207674 0
M  V30 12131 O 1117.59 -2.01357 -0.0415623 0
M  V30 12132 C 1114.65 -3.45716 0.261032 0
M  V30 12133 C 1113.72 -4.08129 1.33152 0
M  V30 12134 C 1112.95 -5.27436 0.815288 0
M  V30 12135 O 1113.17 -5.69317 -0.351361 0
M  V30 12136 O 1112.11 -5.80674 1.58434 0
M  V30 12137 H 1115.93 -2.50249 1.72073 0
M  V30 12138 H 1113.52 -1.19263 0.899815 0
M  V30 12139 H 1115.4 -4.21384 -0.0364007 0
M  V30 12140 H 1114.07 -3.17525 -0.629249 0
M  V30 12141 H 1112.98 -3.3415 1.6821 0
M  V30 12142 H 1114.31 -4.4052 2.19552 0
M  V30 12143 N 1115.97 -0.914965 -1.28321 0
M  V30 12144 C 1116.91 -0.402792 -2.27258 0
M  V30 12145 C 1117.88 0.523412 -1.57638 0
M  V30 12146 O 1119.07 0.445344 -1.8553 0
M  V30 12147 C 1116.21 0.349956 -3.43321 0
M  V30 12148 C 1115.32 -0.608892 -4.27687 0
M  V30 12149 C 1114.46 0.162425 -5.30952 0
M  V30 12150 C 1113.49 -0.789959 -6.06981 0
M  V30 12151 N 1112.63 -0.0520826 -7.02081 0
M  V30 12152 H 1117.47 -1.25153 -2.70446 0
M  V30 12153 H 1115.01 -0.628444 -1.33 0
M  V30 12154 H 1116.97 0.802589 -4.09407 0
M  V30 12155 H 1115.6 1.16303 -3.01121 0
M  V30 12156 H 1114.65 -1.18005 -3.61634 0
M  V30 12157 H 1115.96 -1.33727 -4.8054 0
M  V30 12158 H 1115.11 0.675563 -6.02927 0
M  V30 12159 H 1113.85 0.923851 -4.7887 0
M  V30 12160 H 1112.86 -1.31446 -5.33856 0
M  V30 12161 H 1114.08 -1.55096 -6.61152 0
M  V30 12162 H 1112.03 0.691331 -6.52347 0
M  V30 12163 H 1111.95 -0.720267 -7.52561 0
M  V30 12164 H 1113.21 0.44082 -7.78253 0
M  V30 12165 N 1117.44 1.42219 -0.679077 0
M  V30 12166 C 1118.69 2.01081 -0.202718 0
M  V30 12167 C 1119.01 1.53986 1.19639 0
M  V30 12168 O 1118.28 0.763359 1.80415 0
M  V30 12169 H 1116.86 0.743526 -0.0719547 0
M  V30 12170 H 1119.52 1.74077 -0.876544 0
M  V30 12171 H 1118.62 3.11411 -0.207314 0
M  V30 12172 N 1118.92 0.422693 1.51826 0
M  V30 12173 C 1119.87 -0.396088 2.27376 0
M  V30 12174 C 1120.84 -1.02946 1.30351 0
M  V30 12175 O 1122.02 -1.05116 1.59233 0
M  V30 12176 C 1119.16 -1.49942 3.10824 0
M  V30 12177 C 1118.28 -0.885623 4.22825 0
M  V30 12178 C 1117.41 -1.96278 4.93608 0
M  V30 12179 C 1116.45 -1.32664 5.97551 0
M  V30 12180 N 1115.59 -2.34452 6.61798 0
M  V30 12181 H 1120.43 0.254571 2.96911 0
M  V30 12182 H 1117.96 0.137383 1.46457 0
M  V30 12183 H 1119.92 -2.15023 3.57521 0
M  V30 12184 H 1118.55 -2.11991 2.43433 0
M  V30 12185 H 1117.6 -0.123491 3.80199 0
M  V30 12186 H 1118.92 -0.381057 4.97342 0
M  V30 12187 H 1118.07 -2.69055 5.43778 0
M  V30 12188 H 1116.81 -2.50103 4.18688 0
M  V30 12189 H 1115.81 -0.584262 5.46687 0
M  V30 12190 H 1117.04 -0.7959 6.7442 0
M  V30 12191 H 1114.99 -2.87385 5.897 0
M  V30 12192 H 1114.9 -1.88845 7.32034 0
M  V30 12193 H 1116.17 -3.06757 7.16603 0
M  V30 12194 N 1120.4 -1.5685 0.153553 0
M  V30 12195 C 1121.65 -1.95509 -0.495911 0
M  V30 12196 C 1121.96 -1.04129 -1.65579 0
M  V30 12197 O 1123.17 -1.32394 -2.37032 0
M  V30 12198 C 1121.62 -3.47579 -0.933622 0
M  V30 12199 C 1121.23 -4.47555 0.199684 0
M  V30 12200 C 1122.98 -3.95092 -1.55251 0
M  V30 12201 C 1120.88 -5.90843 -0.256663 0
M  V30 12202 H 1119.81 -0.729919 -0.189035 0
M  V30 12203 H 1122.46 -1.81938 0.238947 0
M  V30 12204 H 1120.85 -3.56506 -1.72394 0
M  V30 12205 H 1122.02 -4.50329 0.976744 0
M  V30 12206 H 1120.33 -4.09997 0.727394 0
M  V30 12207 H 1122.93 -4.99588 -1.90567 0
M  V30 12208 H 1123.27 -3.37015 -2.4439 0
M  V30 12209 H 1123.81 -3.89109 -0.826969 0
M  V30 12210 H 1120.55 -6.52753 0.599515 0
M  V30 12211 H 1120.07 -5.91414 -0.999458 0
M  V30 12212 H 1121.75 -6.43131 -0.70649 0
M  V30 12213 N 1121.88 0.120221 -1.57141 0
M  V30 12214 C 1122.81 1.14876 -2.03287 0
M  V30 12215 C 1123.79 1.43259 -0.917112 0
M  V30 12216 O 1124.97 1.53721 -1.18674 0
M  V30 12217 C 1122.1 2.47525 -2.43616 0
M  V30 12218 C 1121.06 2.33607 -3.58625 0
M  V30 12219 C 1120.38 3.71207 -3.84849 0
M  V30 12220 C 1121.68 1.79761 -4.90391 0
M  V30 12221 H 1123.38 0.764943 -2.89463 0
M  V30 12222 H 1120.92 0.366516 -1.39258 0
M  V30 12223 H 1122.88 3.19728 -2.74504 0
M  V30 12224 H 1121.6 2.87794 -1.54409 0
M  V30 12225 H 1120.26 1.63853 -3.27945 0
M  V30 12226 H 1119.91 4.0896 -2.9285 0
M  V30 12227 H 1119.61 3.62749 -4.62263 0
M  V30 12228 H 1121.13 4.44917 -4.18188 0
M  V30 12229 H 1122.55 2.4178 -5.19822 0
M  V30 12230 H 1120.94 1.82126 -5.71795 0
M  V30 12231 H 1122.01 0.755087 -4.78985 0
M  V30 12232 N 1123.36 1.52689 0.390367 0
M  V30 12233 C 1124.58 1.71839 1.16129 0
M  V30 12234 C 1125.01 0.435226 1.82996 0
M  V30 12235 O 1124.36 -0.60889 1.70769 0
M  V30 12236 C 1124.41 2.86784 2.18603 0
M  V30 12237 O 1123.52 2.53662 3.25161 0
M  V30 12238 H 1122.86 0.571455 0.338135 0
M  V30 12239 H 1125.39 1.99475 0.45508 0
M  V30 12240 H 1125.4 3.12239 2.62622 0
M  V30 12241 H 1124.07 3.79872 1.69322 0
M  V30 12242 H 1122.65 2.38942 2.86289 0
M  V30 12243 N 1124.83 -0.648732 1.43629 0
M  V30 12244 C 1125.74 -1.79046 1.51591 0
M  V30 12245 C 1126.76 -1.69276 0.402697 0
M  V30 12246 O 1127.94 -1.90366 0.657484 0
M  V30 12247 C 1125 -3.15347 1.44073 0
M  V30 12248 C 1124.06 -3.3688 2.66102 0
M  V30 12249 C 1123.3 -4.66679 2.58933 0
M  V30 12250 O 1123.52 -5.46328 1.63956 0
M  V30 12251 O 1122.45 -4.9003 3.49506 0
M  V30 12252 H 1126.28 -1.75283 2.48011 0
M  V30 12253 H 1123.86 -0.807774 1.2568 0
M  V30 12254 H 1125.75 -3.96633 1.42339 0
M  V30 12255 H 1124.42 -3.19691 0.50789 0
M  V30 12256 H 1123.33 -2.55341 2.73407 0
M  V30 12257 H 1124.66 -3.37386 3.58373 0
M  V30 12258 N 1126.31 -1.30234 -0.887518 0
M  V30 12259 C 1127.24 -1.12212 -1.99853 0
M  V30 12260 C 1128.26 -0.0660929 -1.62666 0
M  V30 12261 O 1129.45 -0.311853 -1.75755 0
M  V30 12262 C 1126.55 -0.688591 -3.31831 0
M  V30 12263 C 1125.72 -1.82581 -3.97471 0
M  V30 12264 C 1124.78 -1.38126 -5.07748 0
M  V30 12265 O 1123.8 -2.08805 -5.29518 0
M  V30 12266 N 1125.01 -0.258868 -5.79923 0
M  V30 12267 H 1127.77 -2.07901 -2.15864 0
M  V30 12268 H 1125.33 -1.22336 -1.06045 0
M  V30 12269 H 1127.32 -0.374252 -4.02966 0
M  V30 12270 H 1125.89 0.176185 -3.12103 0
M  V30 12271 H 1125.11 -2.3084 -3.19541 0
M  V30 12272 H 1126.4 -2.58798 -4.38065 0
M  V30 12273 H 1125.8 0.330131 -5.64736 0
M  V30 12274 H 1124.36 -0.00396813 -6.518 0
M  V30 12275 N 1127.79 1.09952 -1.12909 0
M  V30 12276 C 1128.74 2.16436 -0.801514 0
M  V30 12277 C 1129.71 1.64444 0.233976 0
M  V30 12278 O 1130.89 1.90497 0.10743 0
M  V30 12279 C 1128.03 3.4406 -0.267753 0
M  V30 12280 C 1127.15 4.09979 -1.36165 0
M  V30 12281 C 1126.28 5.25341 -0.786803 0
M  V30 12282 C 1125.32 5.83172 -1.85948 0
M  V30 12283 N 1124.46 6.89904 -1.30298 0
M  V30 12284 H 1129.3 2.43799 -1.71365 0
M  V30 12285 H 1126.83 1.19665 -0.855499 0
M  V30 12286 H 1128.79 4.17157 0.0598031 0
M  V30 12287 H 1127.42 3.17031 0.607528 0
M  V30 12288 H 1126.47 3.34801 -1.8059 0
M  V30 12289 H 1127.79 4.48999 -2.17259 0
M  V30 12290 H 1126.94 6.05312 -0.410211 0
M  V30 12291 H 1125.68 4.87669 0.055279 0
M  V30 12292 H 1124.68 5.01867 -2.24521 0
M  V30 12293 H 1125.91 6.22907 -2.70487 0
M  V30 12294 H 1123.85 6.54221 -0.482806 0
M  V30 12295 H 1123.77 7.27662 -2.05046 0
M  V30 12296 H 1125.04 7.73643 -0.953779 0
M  V30 12297 N 1129.27 0.921757 1.27833 0
M  V30 12298 C 1130.23 0.420978 2.25301 0
M  V30 12299 C 1131.23 -0.457158 1.54165 0
M  V30 12300 O 1132.42 -0.259079 1.72263 0
M  V30 12301 C 1129.55 -0.395501 3.38598 0
M  V30 12302 H 1130.75 1.28206 2.71115 0
M  V30 12303 H 1128.3 0.701893 1.39654 0
M  V30 12304 H 1129.03 -1.27565 2.98157 0
M  V30 12305 H 1128.82 0.234029 3.91401 0
M  V30 12306 H 1130.31 -0.736444 4.11055 0
M  V30 12307 N 1130.75 -1.41857 0.686609 0
M  V30 12308 C 1131.68 -2.28174 -0.0347358 0
M  V30 12309 C 1132.66 -1.41732 -0.796928 0
M  V30 12310 O 1133.84 -1.71165 -0.789607 0
M  V30 12311 C 1130.97 -3.21801 -1.0565 0
M  V30 12312 C 1130.01 -4.24727 -0.388523 0
M  V30 12313 S 1130.85 -5.28508 0.862546 0
M  V30 12314 C 1132 -6.25701 -0.157849 0
M  V30 12315 H 1132.24 -2.89005 0.697381 0
M  V30 12316 H 1129.77 -1.46861 0.476562 0
M  V30 12317 H 1131.73 -3.76278 -1.64089 0
M  V30 12318 H 1130.39 -2.60082 -1.76114 0
M  V30 12319 H 1129.58 -4.90471 -1.15991 0
M  V30 12320 H 1129.18 -3.73799 0.122567 0
M  V30 12321 H 1131.48 -6.6987 -1.01393 0
M  V30 12322 H 1132.42 -7.06569 0.465437 0
M  V30 12323 H 1132.83 -5.62204 -0.508614 0
M  V30 12324 N 1132.22 -0.430739 -1.51599 0
M  V30 12325 C 1133.47 0.139396 -2.01218 0
M  V30 12326 C 1133.79 1.44361 -1.31982 0
M  V30 12327 O 1134.99 2.0963 -1.72533 0
M  V30 12328 C 1133.45 0.298969 -3.58656 0
M  V30 12329 C 1133.06 -0.994424 -4.36824 0
M  V30 12330 C 1134.8 0.82323 -4.16441 0
M  V30 12331 C 1132.71 -0.800855 -5.85952 0
M  V30 12332 H 1131.64 0.0558698 -0.751927 0
M  V30 12333 H 1134.29 -0.559493 -1.74762 0
M  V30 12334 H 1132.67 1.06071 -3.8153 0
M  V30 12335 H 1133.84 -1.76398 -4.257 0
M  V30 12336 H 1132.16 -1.44672 -3.9046 0
M  V30 12337 H 1134.76 0.984434 -5.2556 0
M  V30 12338 H 1135.1 1.80388 -3.75188 0
M  V30 12339 H 1135.63 0.119982 -3.97619 0
M  V30 12340 H 1132.37 -1.75369 -6.31606 0
M  V30 12341 H 1131.89 -0.0709793 -5.99758 0
M  V30 12342 H 1133.57 -0.451459 -6.45423 0
M  V30 12343 N 1133.7 1.56767 -0.161869 0
M  V30 12344 C 1134.65 2.18807 0.789074 0
M  V30 12345 C 1135.64 1.14934 1.24445 0
M  V30 12346 O 1136.85 1.33154 1.2112 0
M  V30 12347 H 1133.23 0.700808 0.272713 0
M  V30 12348 H 1135.2 2.97419 0.241766 0
M  V30 12349 C 1133.95 2.83568 2.01207 0
M  V30 12350 H 1133.27 3.63219 1.67068 0
M  V30 12351 H 1134.71 3.3046 2.65654 0
M  V30 12352 C 1133.17 1.82846 2.82964 0
M  V30 12353 O 1133.7 1.30809 3.79805 0
M  V30 12354 N 1131.9 1.51815 2.47791 0
M  V30 12355 H 1131.45 1.94325 1.69103 0
M  V30 12356 H 1131.41 0.846742 3.02783 0
M  V30 12357 N 1135.18 -0.111886 1.57202 0
M  V30 12358 C 1136.14 -1.12101 1.99915 0
M  V30 12359 C 1137.14 -1.33906 0.890272 0
M  V30 12360 O 1138.33 -1.30303 1.15615 0
M  V30 12361 C 1135.47 -2.47392 2.34543 0
M  V30 12362 H 1136.66 -0.753736 2.90274 0
M  V30 12363 H 1134.21 -0.35641 1.52182 0
M  V30 12364 H 1134.95 -2.89026 1.47086 0
M  V30 12365 H 1134.73 -2.32917 3.15423 0
M  V30 12366 H 1136.22 -3.20004 2.68304 0
M  V30 12367 N 1136.66 -1.52894 -0.382264 0
M  V30 12368 C 1137.59 -1.7291 -1.48921 0
M  V30 12369 C 1138.57 -0.577056 -1.52016 0
M  V30 12370 O 1139.75 -0.807667 -1.7032 0
M  V30 12371 C 1136.88 -1.79281 -2.87361 0
M  V30 12372 C 1135.93 -3.01099 -3.02063 0
M  V30 12373 S 1136.76 -4.60947 -2.72558 0
M  V30 12374 C 1137.92 -4.70144 -4.13178 0
M  V30 12375 H 1138.15 -2.66529 -1.31718 0
M  V30 12376 H 1135.68 -1.43271 -0.575563 0
M  V30 12377 H 1137.64 -1.83637 -3.67134 0
M  V30 12378 H 1136.3 -0.867428 -3.01885 0
M  V30 12379 H 1135.49 -3.02117 -4.03412 0
M  V30 12380 H 1135.1 -2.94769 -2.3019 0
M  V30 12381 H 1137.39 -4.49173 -5.07198 0
M  V30 12382 H 1138.33 -5.72166 -4.17172 0
M  V30 12383 H 1138.74 -3.98923 -3.99401 0
M  V30 12384 N 1138.14 0.641106 -1.43971 0
M  V30 12385 C 1139.41 1.39897 -1.36704 0
M  V30 12386 C 1139.79 2.1109 -0.0208051 0
M  V30 12387 O 1139.14 2.05638 0.99625 0
M  V30 12388 C 1139.35 2.37366 -2.55849 0
M  V30 12389 C 1140.7 3.01 -2.99473 0
M  V30 12390 O 1141.72 2.47692 -2.55982 0
M  V30 12391 O 1140.58 3.9768 -3.74851 0
M  V30 12392 H 1137.68 0.625623 -0.540855 0
M  V30 12393 H 1140.22 0.666997 -1.56042 0
M  V30 12394 H 1139 1.8379 -3.45452 0
M  V30 12395 H 1138.62 3.17995 -2.38673 0
M  V30 12396 N 1139.62 1.30703 0.880598 0
M  V30 12397 C 1140.84 1.22843 1.67106 0
M  V30 12398 C 1141.27 -0.204788 1.86982 0
M  V30 12399 O 1140.62 -1.14716 1.40392 0
M  V30 12400 C 1140.67 1.96685 3.02237 0
M  V30 12401 O 1139.78 1.29693 3.91476 0
M  V30 12402 H 1139.12 0.424661 0.51045 0
M  V30 12403 H 1141.65 1.72596 1.09871 0
M  V30 12404 H 1141.66 2.05874 3.52249 0
M  V30 12405 H 1140.33 3.00919 2.8709 0
M  V30 12406 H 1138.91 1.28886 3.49918 0
M  V30 12407 N 1141.09 -1.09351 1.1349 0
M  V30 12408 C 1142.04 -2.16008 0.812981 0
M  V30 12409 C 1143.01 -1.64566 -0.225252 0
M  V30 12410 O 1144.2 -1.90552 -0.0973261 0
M  V30 12411 C 1141.34 -3.43913 0.285996 0
M  V30 12412 C 1140.45 -4.09251 1.38338 0
M  V30 12413 C 1139.58 -5.24916 0.814652 0
M  V30 12414 C 1138.62 -5.82178 1.89038 0
M  V30 12415 N 1137.76 -6.89203 1.33955 0
M  V30 12416 H 1142.6 -2.42887 1.72655 0
M  V30 12417 H 1140.14 -1.19209 0.861833 0
M  V30 12418 H 1142.09 -4.17183 -0.0376794 0
M  V30 12419 H 1140.72 -3.17349 -0.590707 0
M  V30 12420 H 1139.78 -3.33838 1.82363 0
M  V30 12421 H 1141.09 -4.4784 2.19638 0
M  V30 12422 H 1140.24 -6.05086 0.442306 0
M  V30 12423 H 1138.98 -4.87691 -0.029416 0
M  V30 12424 H 1137.99 -5.00669 2.27179 0
M  V30 12425 H 1139.21 -6.21464 2.73787 0
M  V30 12426 H 1137.16 -6.53956 0.517494 0
M  V30 12427 H 1137.07 -7.26565 2.08902 0
M  V30 12428 H 1138.34 -7.73126 0.994793 0
M  V30 12429 N 1142.57 -0.928524 -1.27343 0
M  V30 12430 C 1143.82 -0.565207 -1.93619 0
M  V30 12431 C 1144.13 0.897988 -1.73769 0
M  V30 12432 O 1145.34 1.37012 -2.34393 0
M  V30 12433 C 1143.8 -0.960052 -3.46859 0
M  V30 12434 C 1143.4 -2.44399 -3.75464 0
M  V30 12435 C 1145.15 -0.668026 -4.19211 0
M  V30 12436 C 1143.05 -2.77819 -5.22083 0
M  V30 12437 H 1141.98 -0.207665 -0.724839 0
M  V30 12438 H 1144.64 -1.12945 -1.44623 0
M  V30 12439 H 1143.02 -0.324454 -3.94669 0
M  V30 12440 H 1144.19 -3.12756 -3.38408 0
M  V30 12441 H 1142.51 -2.70799 -3.16317 0
M  V30 12442 H 1145.1 -0.894207 -5.2717 0
M  V30 12443 H 1145.45 0.394788 -4.14424 0
M  V30 12444 H 1145.98 -1.26276 -3.77226 0
M  V30 12445 H 1142.72 -3.83013 -5.3196 0
M  V30 12446 H 1142.24 -2.14112 -5.60282 0
M  V30 12447 H 1143.92 -2.65607 -5.89968 0
M  V30 12448 N 1144.05 1.41491 -0.694123 0
M  V30 12449 C 1145.47 1.55358 -0.365532 0
M  V30 12450 C 1145.67 1.66994 1.12762 0
M  V30 12451 O 1144.72 1.64756 1.91342 0
M  V30 12452 C 1146.03 2.79352 -1.11279 0
M  V30 12453 C 1147.58 2.93147 -1.097 0
M  V30 12454 C 1148.06 4.20027 -1.82597 0
M  V30 12455 N 1149.55 4.26981 -1.7956 0
M  V30 12456 C 1150.28 5.24013 -2.32805 0
M  V30 12457 N 1149.78 6.27083 -2.94515 0
M  V30 12458 N 1151.57 5.15943 -2.23069 0
M  V30 12459 H 1143.72 1.32183 -1.66257 0
M  V30 12460 H 1145.99 0.637624 -0.701527 0
M  V30 12461 H 1145.69 2.76958 -2.16765 0
M  V30 12462 H 1145.57 3.70827 -0.690439 0
M  V30 12463 H 1147.95 2.95057 -0.0504037 0
M  V30 12464 H 1148.03 2.02849 -1.55839 0
M  V30 12465 H 1147.68 4.18878 -2.87235 0
M  V30 12466 H 1147.61 5.09294 -1.33893 0
M  V30 12467 H 1150.1 3.53129 -1.34567 0
M  V30 12468 H 1150.41 6.97511 -3.32714 0
M  V30 12469 H 1148.76 6.27589 -2.98592 0
M  V30 12470 H 1151.95 4.34346 -1.74532 0
M  V30 12471 H 1152.12 5.91396 -2.64868 0
M  V30 12472 N 1145.53 0.438773 1.51369 0
M  V30 12473 C 1146.75 -0.128221 2.07003 0
M  V30 12474 C 1147.18 -1.3557 1.30393 0
M  V30 12475 O 1146.54 -1.7804 0.342283 0
M  V30 12476 C 1146.58 -0.42761 3.58056 0
M  V30 12477 O 1145.69 -1.51382 3.83611 0
M  V30 12478 H 1145.03 -0.00123679 0.663999 0
M  V30 12479 H 1147.56 0.62052 1.94963 0
M  V30 12480 H 1147.57 -0.677645 4.02333 0
M  V30 12481 H 1146.24 0.469535 4.13241 0
M  V30 12482 H 1144.82 -1.25363 3.51196 0
M  V30 12483 N 1147.01 -1.56678 0.170181 0
M  V30 12484 C 1147.94 -2.20916 -0.756213 0
M  V30 12485 C 1148.92 -1.16442 -1.23997 0
M  V30 12486 O 1150.1 -1.44867 -1.29333 0
M  V30 12487 C 1147.23 -2.84901 -1.98617 0
M  V30 12488 C 1146.19 -3.95403 -1.63831 0
M  V30 12489 C 1145.51 -4.46432 -2.94282 0
M  V30 12490 C 1146.81 -5.15051 -0.867195 0
M  V30 12491 H 1148.51 -2.98585 -0.220776 0
M  V30 12492 H 1146.05 -1.43619 -0.104748 0
M  V30 12493 H 1148 -3.28514 -2.63926 0
M  V30 12494 H 1146.73 -2.04598 -2.54572 0
M  V30 12495 H 1145.39 -3.52444 -1.00891 0
M  V30 12496 H 1145.04 -3.62923 -3.48276 0
M  V30 12497 H 1144.74 -5.20979 -2.71762 0
M  V30 12498 H 1146.26 -4.92731 -3.60622 0
M  V30 12499 H 1147.67 -5.55363 -1.42285 0
M  V30 12500 H 1146.07 -5.95507 -0.741065 0
M  V30 12501 H 1147.14 -4.84707 0.136693 0
M  V30 12502 N 1148.48 0.103547 -1.57259 0
M  V30 12503 C 1149.39 1.14475 -2.04774 0
M  V30 12504 C 1150.41 1.44385 -0.971025 0
M  V30 12505 O 1151.59 1.55195 -1.28361 0
M  V30 12506 C 1148.65 2.4475 -2.45558 0
M  V30 12507 C 1147.71 2.22098 -3.67384 0
M  V30 12508 C 1146.94 3.4616 -4.06213 0
M  V30 12509 O 1147.17 4.5407 -3.45219 0
M  V30 12510 O 1146.1 3.36248 -4.9922 0
M  V30 12511 H 1149.93 0.771211 -2.93745 0
M  V30 12512 H 1147.51 0.315456 -1.46032 0
M  V30 12513 H 1149.39 3.21476 -2.72454 0
M  V30 12514 H 1148.07 2.81547 -1.59728 0
M  V30 12515 H 1146.98 1.43179 -3.45616 0
M  V30 12516 H 1148.31 1.90197 -4.53967 0
M  V30 12517 N 1149.96 1.53094 0.37415 0
M  V30 12518 C 1150.89 1.75199 1.47776 0
M  V30 12519 C 1151.91 0.632627 1.50006 0
M  V30 12520 O 1153.1 0.908688 1.5364 0
M  V30 12521 C 1150.2 1.80909 2.86575 0
M  V30 12522 C 1149.37 3.10432 3.08141 0
M  V30 12523 C 1148.43 3.07495 4.27005 0
M  V30 12524 O 1147.45 3.81319 4.22592 0
M  V30 12525 N 1148.66 2.27715 5.33972 0
M  V30 12526 H 1151.42 2.70423 1.29196 0
M  V30 12527 H 1148.98 1.51766 0.563802 0
M  V30 12528 H 1150.97 1.76432 3.64217 0
M  V30 12529 H 1149.54 0.930074 2.98443 0
M  V30 12530 H 1148.76 3.2828 2.18233 0
M  V30 12531 H 1150.05 3.96047 3.19413 0
M  V30 12532 H 1149.45 1.67231 5.40417 0
M  V30 12533 H 1148.01 2.29065 6.10223 0
M  V30 12534 N 1151.44 -0.633461 1.44309 0
M  V30 12535 C 1152.86 -0.951379 1.28144 0
M  V30 12536 C 1153.06 -2.00344 0.215512 0
M  V30 12537 O 1152.11 -2.49321 -0.399389 0
M  V30 12538 C 1153.42 -1.41686 2.65227 0
M  V30 12539 C 1154.97 -1.53247 2.72918 0
M  V30 12540 C 1155.45 -2.03179 4.10466 0
M  V30 12541 N 1156.94 -2.10453 4.1263 0
M  V30 12542 C 1157.67 -2.50254 5.15907 0
M  V30 12543 N 1157.17 -2.89209 6.29547 0
M  V30 12544 N 1158.96 -2.50368 5.03262 0
M  V30 12545 H 1151.11 0.0623574 2.12308 0
M  V30 12546 H 1153.38 -0.0347244 0.947364 0
M  V30 12547 H 1153.08 -0.71814 3.4429 0
M  V30 12548 H 1152.96 -2.3883 2.91959 0
M  V30 12549 H 1155.34 -2.22216 1.94176 0
M  V30 12550 H 1155.42 -0.544836 2.4993 0
M  V30 12551 H 1155.07 -1.34806 4.89683 0
M  V30 12552 H 1155 -3.02809 4.3083 0
M  V30 12553 H 1157.49 -1.83042 3.30612 0
M  V30 12554 H 1157.8 -3.18386 7.04166 0
M  V30 12555 H 1156.15 -2.86966 6.32989 0
M  V30 12556 H 1159.34 -2.19324 4.13539 0
M  V30 12557 H 1159.51 -2.81062 5.83873 0
M  V30 12558 N 1152.92 -1.31168 -0.873655 0
M  V30 12559 C 1154.17 -1.20003 -1.62118 0
M  V30 12560 C 1154.48 0.241505 -1.94103 0
M  V30 12561 O 1155.69 0.474801 -2.67316 0
M  V30 12562 C 1154.14 -2.10055 -2.92241 0
M  V30 12563 C 1153.75 -3.59183 -2.67752 0
M  V30 12564 C 1155.49 -2.07681 -3.70228 0
M  V30 12565 C 1153.4 -4.41255 -3.93761 0
M  V30 12566 H 1152.33 -0.445564 -0.608267 0
M  V30 12567 H 1154.98 -1.55997 -0.966287 0
M  V30 12568 H 1153.36 -1.66956 -3.59085 0
M  V30 12569 H 1154.54 -4.10504 -2.09339 0
M  V30 12570 H 1152.85 -3.63496 -2.03125 0
M  V30 12571 H 1155.45 -2.66246 -4.637 0
M  V30 12572 H 1155.79 -1.06304 -4.02499 0
M  V30 12573 H 1156.33 -2.48961 -3.10263 0
M  V30 12574 H 1153.07 -5.43372 -3.66643 0
M  V30 12575 H 1152.59 -3.94694 -4.51638 0
M  V30 12576 H 1154.26 -4.53278 -4.6168 0
M  V30 12577 N 1154.4 1.08748 -1.14068 0
M  V30 12578 C 1155.64 1.81333 -0.908081 0
M  V30 12579 C 1155.98 1.85826 0.564112 0
M  V30 12580 O 1155.25 1.33157 1.41773 0
M  V30 12581 C 1155.53 3.27127 -1.50531 0
M  V30 12582 C 1155.39 3.30865 -3.04711 0
M  V30 12583 C 1156.71 4.24006 -1.17928 0
M  V30 12584 H 1153.82 0.658326 -0.331325 0
M  V30 12585 H 1156.47 1.27345 -1.41008 0
M  V30 12586 H 1154.62 3.73233 -1.07839 0
M  V30 12587 H 1156.29 2.93109 -3.56209 0
M  V30 12588 H 1154.53 2.70241 -3.39341 0
M  V30 12589 H 1155.2 4.33603 -3.41603 0
M  V30 12590 H 1157.68 3.86221 -1.54831 0
M  V30 12591 H 1156.55 5.2434 -1.62353 0
M  V30 12592 H 1156.82 4.42 -0.0940349 0
M  V30 12593 N 1155.87 0.935264 1.26849 0
M  V30 12594 C 1156.78 0.446122 2.30319 0
M  V30 12595 C 1157.8 -0.476965 1.67335 0
M  V30 12596 O 1158.98 -0.357934 1.98194 0
M  V30 12597 C 1156.04 -0.286297 3.45516 0
M  V30 12598 C 1155.1 0.672626 4.23998 0
M  V30 12599 C 1154.34 -0.0249345 5.33694 0
M  V30 12600 O 1154.56 -1.24296 5.56693 0
M  V30 12601 O 1153.49 0.650752 5.98372 0
M  V30 12602 H 1157.32 1.30546 2.74211 0
M  V30 12603 H 1154.9 0.70091 1.31938 0
M  V30 12604 H 1156.79 -0.699109 4.1556 0
M  V30 12605 H 1155.46 -1.12112 3.03665 0
M  V30 12606 H 1154.37 1.13527 3.56458 0
M  V30 12607 H 1155.7 1.47489 4.69583 0
M  V30 12608 N 1157.35 -1.41121 0.701616 0
M  V30 12609 C 1158.28 -2.33436 0.0545974 0
M  V30 12610 C 1159.26 -1.52144 -0.760662 0
M  V30 12611 O 1160.45 -1.80661 -0.712414 0
M  V30 12612 C 1157.58 -3.36015 -0.878117 0
M  V30 12613 C 1156.53 -4.27664 -0.169511 0
M  V30 12614 C 1155.86 -5.20666 -1.21699 0
M  V30 12615 C 1157.16 -5.13254 0.967859 0
M  V30 12616 H 1158.85 -2.87791 0.825637 0
M  V30 12617 H 1156.4 -1.38377 0.398484 0
M  V30 12618 H 1158.35 -3.99526 -1.34004 0
M  V30 12619 H 1157.08 -2.80024 -1.68089 0
M  V30 12620 H 1155.73 -3.65586 0.272441 0
M  V30 12621 H 1155.38 -4.60987 -2.01246 0
M  V30 12622 H 1155.08 -5.82822 -0.747836 0
M  V30 12623 H 1156.61 -5.87053 -1.6793 0
M  V30 12624 H 1158.02 -5.70298 0.585944 0
M  V30 12625 H 1156.42 -5.84381 1.3645 0
M  V30 12626 H 1157.49 -4.5006 1.80483 0
M  V30 12627 N 1158.83 -0.446794 -1.51134 0
M  V30 12628 C 1160.06 0.117242 -2.07068 0
M  V30 12629 C 1160.48 1.34877 -1.3111 0
M  V30 12630 O 1159.84 1.77856 -0.35172 0
M  V30 12631 C 1159.89 0.408616 -3.58277 0
M  V30 12632 O 1158.99 1.49345 -3.84408 0
M  V30 12633 H 1158.33 -0.00228458 -0.663996 0
M  V30 12634 H 1160.86 -0.63085 -1.94632 0
M  V30 12635 H 1160.87 0.656298 -4.02687 0
M  V30 12636 H 1159.55 -0.491444 -4.12986 0
M  V30 12637 H 1158.12 1.23499 -3.51856 0
M  V30 12638 N 1160.31 1.56586 -0.178487 0
M  V30 12639 C 1161.22 2.21903 0.761321 0
M  V30 12640 C 1162.23 1.21289 1.2476 0
M  V30 12641 O 1163.41 1.53974 1.29823 0
M  V30 12642 C 1160.48 2.85259 1.97048 0
M  V30 12643 C 1159.54 4.01095 1.53039 0
M  V30 12644 C 1158.77 4.61421 2.68191 0
M  V30 12645 O 1158.99 4.20644 3.85247 0
M  V30 12646 O 1157.93 5.51171 2.41855 0
M  V30 12647 H 1161.75 3.02788 0.235141 0
M  V30 12648 H 1159.34 1.49316 0.0500442 0
M  V30 12649 H 1161.22 3.25404 2.6775 0
M  V30 12650 H 1159.89 2.07366 2.48558 0
M  V30 12651 H 1158.8 3.65606 0.792661 0
M  V30 12652 H 1160.13 4.80603 1.06213 0
M  V30 12653 N 1161.79 -0.095206 1.57312 0
M  V30 12654 C 1162.75 -1.09974 2.01093 0
M  V30 12655 C 1163.75 -1.32954 0.904424 0
M  V30 12656 O 1164.94 -1.29069 1.16991 0
M  V30 12657 C 1162.07 -2.4489 2.37153 0
M  V30 12658 H 1163.26 -0.722906 2.91057 0
M  V30 12659 H 1160.82 -0.340249 1.52552 0
M  V30 12660 H 1161.55 -2.8745 1.50143 0
M  V30 12661 H 1161.34 -2.29559 3.17876 0
M  V30 12662 H 1162.83 -3.17141 2.71683 0
M  V30 12663 N 1163.26 -1.53291 -0.366026 0
M  V30 12664 C 1164.21 -1.80367 -1.4687 0
M  V30 12665 C 1165.21 -0.672767 -1.55468 0
M  V30 12666 O 1166.41 -0.8557 -1.5836 0
M  V30 12667 H 1162.79 -0.571076 -0.48926 0
M  V30 12668 H 1164.76 -2.72661 -1.21237 0
M  V30 12669 C 1163.51 -2.01008 -2.8371 0
M  V30 12670 H 1162.83 -2.87468 -2.77853 0
M  V30 12671 H 1164.27 -2.2393 -3.60043 0
M  V30 12672 C 1162.73 -0.789054 -3.27529 0
M  V30 12673 O 1163.26 0.0224712 -4.01694 0
M  V30 12674 N 1161.47 -0.612621 -2.84069 0
M  V30 12675 H 1161.01 -1.27416 -2.23881 0
M  V30 12676 H 1160.97 0.202943 -3.13744 0
M  V30 12677 N 1164.74 0.6258 -1.44643 0
M  V30 12678 C 1165.69 1.73751 -1.51919 0
M  V30 12679 C 1166.66 1.62007 -0.36647 0
M  V30 12680 O 1167.84 1.81852 -0.577439 0
M  V30 12681 C 1164.98 3.12015 -1.47448 0
M  V30 12682 C 1164.1 3.34696 -2.73135 0
M  V30 12683 C 1163.23 4.62962 -2.6046 0
M  V30 12684 C 1162.27 4.7884 -3.81286 0
M  V30 12685 N 1161.41 5.98388 -3.67255 0
M  V30 12686 H 1166.25 1.66867 -2.46899 0
M  V30 12687 H 1163.79 0.813921 -1.22531 0
M  V30 12688 H 1165.74 3.91983 -1.42846 0
M  V30 12689 H 1164.37 3.179 -0.560312 0
M  V30 12690 H 1163.43 2.4863 -2.87901 0
M  V30 12691 H 1164.74 3.42306 -3.62806 0
M  V30 12692 H 1163.89 5.51099 -2.53722 0
M  V30 12693 H 1162.63 4.57719 -1.68359 0
M  V30 12694 H 1161.64 3.89131 -3.88403 0
M  V30 12695 H 1162.86 4.85893 -4.74431 0
M  V30 12696 H 1160.81 5.94224 -2.77909 0
M  V30 12697 H 1160.72 6.07078 -4.50547 0
M  V30 12698 H 1161.99 6.89072 -3.64417 0
M  V30 12699 N 1166.22 1.31629 0.866686 0
M  V30 12700 C 1167.15 1.22151 1.99001 0
M  V30 12701 C 1168.13 0.107972 1.69757 0
M  V30 12702 O 1169.32 0.293125 1.91975 0
M  V30 12703 C 1166.45 0.93144 3.34577 0
M  V30 12704 C 1165.4 2.0049 3.78137 0
M  V30 12705 C 1164.73 1.56747 5.11209 0
M  V30 12706 C 1166.03 3.41844 3.94892 0
M  V30 12707 H 1167.72 2.16132 2.0719 0
M  V30 12708 H 1165.27 1.04051 0.995463 0
M  V30 12709 H 1167.22 0.851719 4.12703 0
M  V30 12710 H 1165.94 -0.0440289 3.2657 0
M  V30 12711 H 1164.6 2.07457 3.02253 0
M  V30 12712 H 1164.25 0.579767 4.99648 0
M  V30 12713 H 1163.95 2.28562 5.41326 0
M  V30 12714 H 1165.47 1.50188 5.91841 0
M  V30 12715 H 1166.89 3.37534 4.63405 0
M  V30 12716 H 1165.29 4.11905 4.36411 0
M  V30 12717 H 1166.36 3.82389 2.98172 0
M  V30 12718 N 1167.7 -1.08142 1.14644 0
M  V30 12719 C 1168.66 -2.13308 0.83859 0
M  V30 12720 C 1169.66 -1.60022 -0.158012 0
M  V30 12721 O 1170.85 -1.74057 0.0706621 0
M  V30 12722 C 1167.98 -3.39978 0.250591 0
M  V30 12723 H 1169.18 -2.42049 1.77066 0
M  V30 12724 H 1166.73 -1.23899 0.952828 0
M  V30 12725 H 1167.47 -3.16873 -0.690064 0
M  V30 12726 H 1167.25 -3.79952 0.968456 0
M  V30 12727 H 1168.74 -4.17567 0.0525115 0
M  V30 12728 N 1169.18 -0.941978 -1.26351 0
M  V30 12729 C 1170.14 -0.456768 -2.24602 0
M  V30 12730 C 1171.14 0.432574 -1.54872 0
M  V30 12731 O 1172.33 0.23164 -1.72653 0
M  V30 12732 C 1169.46 0.341583 -3.39184 0
M  V30 12733 H 1170.66 -1.32503 -2.69041 0
M  V30 12734 H 1168.21 -0.724021 -1.38519 0
M  V30 12735 H 1168.94 1.22806 -3.00149 0
M  V30 12736 H 1168.73 -0.296268 -3.90979 0
M  V30 12737 H 1170.22 0.670955 -4.12175 0
M  V30 12738 N 1170.66 1.40747 -0.709091 0
M  V30 12739 C 1171.6 2.32564 -0.0411392 0
M  V30 12740 C 1172.6 1.51692 0.75404 0
M  V30 12741 O 1173.8 1.67537 0.658139 0
M  V30 12742 H 1170.18 0.75198 0.00549889 0
M  V30 12743 H 1172.15 2.86556 -0.83235 0
M  V30 12744 C 1170.9 3.36604 0.871378 0
M  V30 12745 H 1170.22 3.98895 0.268912 0
M  V30 12746 H 1171.66 4.03359 1.30682 0
M  V30 12747 C 1170.12 2.71566 1.99384 0
M  V30 12748 O 1170.65 2.57392 3.08403 0
M  V30 12749 N 1168.86 2.3005 1.77554 0
M  V30 12750 H 1168.4 2.41778 0.888898 0
M  V30 12751 H 1168.36 1.8687 2.52838 0
M  V30 12752 N 1172.13 0.454803 1.50895 0
M  V30 12753 C 1173.36 -0.106259 2.07128 0
M  V30 12754 C 1173.78 -1.3418 1.31823 0
M  V30 12755 O 1173.14 -1.77667 0.361147 0
M  V30 12756 C 1173.19 -0.389609 3.58489 0
M  V30 12757 O 1172.29 -1.47305 3.85195 0
M  V30 12758 H 1171.63 0.00580588 0.663975 0
M  V30 12759 H 1174.16 0.641163 1.94294 0
M  V30 12760 H 1174.17 -0.634934 4.03029 0
M  V30 12761 H 1172.85 0.513338 4.1272 0
M  V30 12762 H 1171.43 -1.21631 3.52506 0
M  V30 12763 N 1173.61 -1.56489 0.186789 0
M  V30 12764 C 1174.84 -2.02163 -0.463126 0
M  V30 12765 C 1175.26 -1.06612 -1.54969 0
M  V30 12766 O 1174.62 -0.0482139 -1.81236 0
M  V30 12767 C 1174.67 -3.46337 -1.00416 0
M  V30 12768 O 1173.77 -3.53889 -2.11747 0
M  V30 12769 H 1173.11 -0.65496 -0.109194 0
M  V30 12770 H 1175.64 -2.02459 0.295227 0
M  V30 12771 H 1175.65 -3.85959 -1.32287 0
M  V30 12772 H 1174.33 -4.15376 -0.208693 0
M  V30 12773 H 1172.9 -3.26136 -1.80803 0
M  V30 12774 N 1175.09 0.086862 -1.5736 0
M  V30 12775 C 1176.02 1.10538 -2.05678 0
M  V30 12776 C 1177 1.41281 -0.947293 0
M  V30 12777 O 1178.19 1.51169 -1.21908 0
M  V30 12778 C 1175.32 2.42302 -2.48812 0
M  V30 12779 C 1174.27 2.25948 -3.63499 0
M  V30 12780 C 1173.6 3.62961 -3.92637 0
M  V30 12781 C 1174.9 1.69319 -4.94094 0
M  V30 12782 H 1176.59 0.703371 -2.91021 0
M  V30 12783 H 1174.14 0.336895 -1.40004 0
M  V30 12784 H 1176.09 3.13833 -2.81224 0
M  V30 12785 H 1174.81 2.84454 -1.60479 0
M  V30 12786 H 1173.47 1.5686 -3.31347 0
M  V30 12787 H 1173.12 4.02656 -3.01459 0
M  V30 12788 H 1172.82 3.52862 -4.69853 0
M  V30 12789 H 1174.34 4.35946 -4.27531 0
M  V30 12790 H 1175.76 2.30699 -5.24834 0
M  V30 12791 H 1174.15 1.69957 -5.7553 0
M  V30 12792 H 1175.22 0.653318 -4.80479 0
M  V30 12793 N 1176.57 1.53483 0.357892 0
M  V30 12794 C 1177.81 1.70037 1.09971 0
M  V30 12795 C 1178.14 0.456112 1.89076 0
M  V30 12796 O 1177.4 -0.562029 1.87456 0
M  V30 12797 C 1177.7 2.90654 2.07978 0
M  V30 12798 C 1177.36 4.26849 1.45295 0
M  V30 12799 C 1176.02 4.63884 1.27928 0
M  V30 12800 C 1178.38 5.11514 1.00013 0
M  V30 12801 C 1175.7 5.83213 0.638745 0
M  V30 12802 C 1178.06 6.31496 0.373568 0
M  V30 12803 C 1176.72 6.67237 0.187457 0
M  V30 12804 H 1175.99 0.622209 0.402414 0
M  V30 12805 H 1178.64 1.87679 0.380615 0
M  V30 12806 H 1176.94 2.67556 2.86219 0
M  V30 12807 H 1178.64 3.00656 2.65343 0
M  V30 12808 H 1175.23 3.97693 1.59807 0
M  V30 12809 H 1179.41 4.83446 1.12221 0
M  V30 12810 H 1174.67 6.09489 0.483035 0
M  V30 12811 H 1178.84 6.96398 0.0145346 0
M  V30 12812 H 1176.47 7.59564 -0.310933 0
M  V30 12813 N 1178.05 -0.61812 1.44973 0
M  V30 12814 C 1179.27 -1.40429 1.51945 0
M  V30 12815 C 1179.69 -1.88215 0.148556 0
M  V30 12816 O 1179.05 -1.61603 -0.847978 0
M  V30 12817 C 1179.1 -2.61588 2.49507 0
M  V30 12818 O 1178.82 -2.15791 3.81269 0
M  V30 12819 C 1180.32 -3.5457 2.66074 0
M  V30 12820 H 1177.54 -0.43023 0.514921 0
M  V30 12821 H 1180.08 -0.754791 1.90061 0
M  V30 12822 H 1178.24 -3.22602 2.14492 0
M  V30 12823 H 1178.65 -2.94434 4.34061 0
M  V30 12824 H 1180.13 -4.36155 3.38338 0
M  V30 12825 H 1180.6 -4.04227 1.71746 0
M  V30 12826 H 1181.21 -2.99416 3.02043 0
M  V30 12827 N 1179.52 -1.32087 -0.859693 0
M  V30 12828 C 1180.46 -1.16426 -1.97428 0
M  V30 12829 C 1181.47 -0.100582 -1.62489 0
M  V30 12830 O 1182.66 -0.349063 -1.75054 0
M  V30 12831 C 1179.76 -0.758822 -3.30295 0
M  V30 12832 C 1178.93 -1.90971 -3.93508 0
M  V30 12833 C 1177.99 -1.48865 -5.04704 0
M  V30 12834 O 1177.02 -2.1999 -5.2497 0
M  V30 12835 N 1178.22 -0.38182 -5.79243 0
M  V30 12836 H 1180.98 -2.12433 -2.11406 0
M  V30 12837 H 1178.54 -1.24558 -1.03426 0
M  V30 12838 H 1180.54 -0.459643 -4.02081 0
M  V30 12839 H 1179.11 0.109944 -3.12407 0
M  V30 12840 H 1178.33 -2.37566 -3.14573 0
M  V30 12841 H 1179.61 -2.68032 -4.32477 0
M  V30 12842 H 1179.01 0.210268 -5.65309 0
M  V30 12843 H 1177.57 -0.142224 -6.51645 0
M  V30 12844 N 1181 1.07532 -1.15215 0
M  V30 12845 C 1182.42 1.32183 -0.894411 0
M  V30 12846 C 1182.62 1.96188 0.459614 0
M  V30 12847 O 1181.67 2.22057 1.20195 0
M  V30 12848 C 1182.99 2.21473 -2.03397 0
M  V30 12849 C 1184.53 2.34927 -2.06829 0
M  V30 12850 C 1185.01 3.27564 -3.20103 0
M  V30 12851 N 1186.5 3.35144 -3.19738 0
M  V30 12852 C 1187.24 4.0688 -4.04025 0
M  V30 12853 N 1186.73 4.81246 -4.98371 0
M  V30 12854 N 1188.52 4.02802 -3.92055 0
M  V30 12855 H 1180.68 0.643732 -2.0241 0
M  V30 12856 H 1182.94 0.346272 -0.882496 0
M  V30 12857 H 1182.64 1.81701 -3.01127 0
M  V30 12858 H 1182.52 3.2199 -1.96475 0
M  V30 12859 H 1184.91 2.73953 -1.09699 0
M  V30 12860 H 1184.99 1.34121 -2.17819 0
M  V30 12861 H 1184.63 2.89258 -4.17483 0
M  V30 12862 H 1184.56 4.2832 -3.06349 0
M  V30 12863 H 1187.05 2.82135 -2.51412 0
M  V30 12864 H 1187.36 5.33472 -5.59131 0
M  V30 12865 H 1185.71 4.80268 -5.02362 0
M  V30 12866 H 1188.9 3.43816 -3.17661 0
M  V30 12867 H 1189.07 4.58443 -4.57967 0
M  V30 12868 N 1182.48 0.948665 1.2585 0
M  V30 12869 C 1183.43 0.455115 2.28104 0
M  V30 12870 C 1184.42 -0.471508 1.62706 0
M  V30 12871 O 1185.63 -0.348895 1.76586 0
M  V30 12872 H 1182 0.128659 0.740912 0
M  V30 12873 H 1183.97 1.32991 2.67125 0
M  V30 12874 C 1182.72 -0.25729 3.46747 0
M  V30 12875 H 1182.05 0.44658 3.97298 0
M  V30 12876 H 1183.49 -0.566736 4.20195 0
M  V30 12877 C 1181.95 -1.47772 3.02762 0
M  V30 12878 O 1182.48 -2.57571 3.08253 0
M  V30 12879 N 1180.68 -1.33694 2.5802 0
M  V30 12880 H 1180.23 -0.443595 2.53752 0
M  V30 12881 H 1180.19 -2.1547 2.28954 0
M  V30 12882 N 1183.96 -1.40369 0.716545 0
M  V30 12883 C 1184.89 -2.28196 0.013671 0
M  V30 12884 C 1185.87 -1.4339 -0.766685 0
M  V30 12885 O 1187.05 -1.72801 -0.753123 0
M  V30 12886 C 1184.18 -3.23969 -0.988006 0
M  V30 12887 C 1183.23 -4.25455 -0.298345 0
M  V30 12888 S 1184.06 -5.26559 0.974456 0
M  V30 12889 C 1185.22 -6.25895 -0.0250932 0
M  V30 12890 H 1185.45 -2.87461 0.758526 0
M  V30 12891 H 1182.98 -1.45817 0.507606 0
M  V30 12892 H 1184.94 -3.79674 -1.56071 0
M  V30 12893 H 1183.6 -2.63759 -1.70557 0
M  V30 12894 H 1182.79 -4.92821 -1.05561 0
M  V30 12895 H 1182.4 -3.73455 0.201828 0
M  V30 12896 H 1184.69 -6.7187 -0.871615 0
M  V30 12897 H 1185.63 -7.05422 0.615206 0
M  V30 12898 H 1186.04 -5.63156 -0.389248 0
M  V30 12899 N 1185.44 -0.462799 -1.50652 0
M  V30 12900 C 1186.38 0.335664 -2.28346 0
M  V30 12901 C 1187.35 0.994541 -1.33034 0
M  V30 12902 O 1188.54 1.00857 -1.61964 0
M  V30 12903 C 1185.68 1.41648 -3.1469 0
M  V30 12904 C 1184.79 0.773207 -4.25024 0
M  V30 12905 C 1183.93 1.83121 -4.98638 0
M  V30 12906 C 1182.97 1.16774 -6.00858 0
M  V30 12907 N 1182.1 2.16823 -6.67782 0
M  V30 12908 H 1186.94 -0.333202 -2.96131 0
M  V30 12909 H 1184.48 -0.176166 -1.46041 0
M  V30 12910 H 1186.44 2.05468 -3.63096 0
M  V30 12911 H 1185.07 2.05462 -2.48968 0
M  V30 12912 H 1184.12 0.0226444 -3.80393 0
M  V30 12913 H 1185.43 0.249061 -4.98178 0
M  V30 12914 H 1184.59 2.54543 -5.5072 0
M  V30 12915 H 1183.32 2.38915 -4.25172 0
M  V30 12916 H 1182.33 0.439112 -5.48044 0
M  V30 12917 H 1183.55 0.616809 -6.76293 0
M  V30 12918 H 1181.5 2.71649 -5.97112 0
M  V30 12919 H 1181.42 1.69371 -7.36783 0
M  V30 12920 H 1182.69 2.8765 -7.24484 0
M  V30 12921 N 1186.91 1.56388 -0.195085 0
M  V30 12922 C 1187.88 2.17859 0.712053 0
M  V30 12923 C 1188.88 1.13304 1.141 0
M  V30 12924 O 1190.07 1.38689 1.05409 0
M  V30 12925 C 1187.2 2.78065 1.97213 0
M  V30 12926 H 1188.39 2.9938 0.176529 0
M  V30 12927 H 1185.95 1.56205 0.0545322 0
M  V30 12928 H 1186.68 2.00342 2.55017 0
M  V30 12929 H 1186.47 3.54603 1.67329 0
M  V30 12930 H 1187.96 3.25266 2.619 0
M  V30 12931 N 1188.39 -0.0785156 1.57404 0
M  V30 12932 C 1189.32 -1.12058 1.99939 0
M  V30 12933 C 1190.34 -1.35372 0.904343 0
M  V30 12934 O 1191.53 -1.33731 1.1823 0
M  V30 12935 C 1188.63 -2.47285 2.31739 0
M  V30 12936 C 1187.8 -2.44021 3.63005 0
M  V30 12937 C 1186.86 -3.61303 3.82552 0
M  V30 12938 O 1185.88 -3.43039 4.54217 0
M  V30 12939 N 1187.09 -4.81404 3.24392 0
M  V30 12940 H 1189.85 -0.758416 2.89945 0
M  V30 12941 H 1187.41 -0.267266 1.59679 0
M  V30 12942 H 1189.4 -3.24377 2.41995 0
M  V30 12943 H 1187.97 -2.75529 1.47657 0
M  V30 12944 H 1187.19 -1.52361 3.63565 0
M  V30 12945 H 1188.48 -2.38934 4.49208 0
M  V30 12946 H 1187.88 -4.99147 2.66211 0
M  V30 12947 H 1186.44 -5.56031 3.40107 0
M  V30 12948 N 1189.87 -1.5367 -0.349747 0
M  V30 12949 C 1190.78 -1.84207 -1.45275 0
M  V30 12950 C 1191.8 -0.731695 -1.57868 0
M  V30 12951 O 1192.97 -1.02337 -1.73462 0
M  V30 12952 C 1190.04 -2.0398 -2.80345 0
M  V30 12953 C 1189.1 -3.27853 -2.77148 0
M  V30 12954 C 1188.33 -3.46673 -4.05775 0
M  V30 12955 O 1188.55 -2.69457 -5.02741 0
M  V30 12956 O 1187.49 -4.40082 -4.10623 0
M  V30 12957 H 1191.31 -2.77947 -1.22389 0
M  V30 12958 H 1188.9 -1.39247 -0.541345 0
M  V30 12959 H 1190.78 -2.18466 -3.60348 0
M  V30 12960 H 1189.46 -1.13429 -3.03176 0
M  V30 12961 H 1188.36 -3.18776 -1.95787 0
M  V30 12962 H 1189.7 -4.18377 -2.59271 0
M  V30 12963 N 1191.35 0.610423 -1.45298 0
M  V30 12964 C 1192.26 1.74964 -1.56285 0
M  V30 12965 C 1193.27 1.68149 -0.447436 0
M  V30 12966 O 1194.45 1.88556 -0.707725 0
M  V30 12967 C 1191.52 3.11417 -1.52383 0
M  V30 12968 C 1190.58 3.29707 -2.7494 0
M  V30 12969 C 1189.81 4.5965 -2.71215 0
M  V30 12970 O 1190.03 5.41789 -1.78383 0
M  V30 12971 O 1188.97 4.80591 -3.62375 0
M  V30 12972 H 1192.79 1.68646 -2.52571 0
M  V30 12973 H 1190.38 0.774168 -1.27777 0
M  V30 12974 H 1192.26 3.9272 -1.52805 0
M  V30 12975 H 1190.93 3.18232 -0.592472 0
M  V30 12976 H 1189.84 2.48003 -2.80081 0
M  V30 12977 H 1191.17 3.27766 -3.67192 0
M  V30 12978 N 1192.83 1.32541 0.852676 0
M  V30 12979 C 1193.76 1.15977 1.96531 0
M  V30 12980 C 1194.74 0.0587267 1.62494 0
M  V30 12981 O 1195.92 0.218404 1.8723 0
M  V30 12982 C 1193.05 0.77587 3.29694 0
M  V30 12983 C 1192.09 1.88244 3.82709 0
M  V30 12984 S 1192.93 3.49108 4.06059 0
M  V30 12985 C 1194.08 3.12693 5.42193 0
M  V30 12986 H 1194.32 2.10165 2.1028 0
M  V30 12987 H 1191.85 1.17225 1.00487 0
M  V30 12988 H 1193.81 0.561136 4.06647 0
M  V30 12989 H 1192.47 -0.14718 3.13755 0
M  V30 12990 H 1191.66 1.56687 4.79025 0
M  V30 12991 H 1191.26 2.05313 3.12606 0
M  V30 12992 H 1193.56 2.62661 6.24512 0
M  V30 12993 H 1194.5 4.08038 5.78714 0
M  V30 12994 H 1194.91 2.4966 5.06291 0
M  V30 12995 N 1194.3 -1.0692 1.15784 0
M  V30 12996 C 1195.55 -1.78983 0.929944 0
M  V30 12997 C 1195.87 -1.87884 -0.543969 0
M  V30 12998 O 1197.07 -2.56513 -0.889578 0
M  V30 12999 C 1195.53 -3.21657 1.61446 0
M  V30 13000 C 1195.14 -3.20943 3.12569 0
M  V30 13001 C 1196.88 -3.98299 1.46828 0
M  V30 13002 C 1194.79 -4.58298 3.73788 0
M  V30 13003 H 1193.72 -0.670809 0.344284 0
M  V30 13004 H 1196.37 -1.19975 1.38846 0
M  V30 13005 H 1194.75 -3.80885 1.08364 0
M  V30 13006 H 1195.92 -2.71334 3.72444 0
M  V30 13007 H 1194.24 -2.57799 3.26999 0
M  V30 13008 H 1196.84 -4.99822 1.89952 0
M  V30 13009 H 1197.18 -4.14213 0.416358 0
M  V30 13010 H 1197.71 -3.45577 1.97031 0
M  V30 13011 H 1194.45 -4.47588 4.789 0
M  V30 13012 H 1193.97 -5.08126 3.18698 0
M  V30 13013 H 1195.65 -5.27262 3.74972 0
M  V30 13014 N 1195.78 -0.955326 -1.25345 0
M  V30 13015 C 1197.01 -0.627233 -1.97688 0
M  V30 13016 C 1197.43 0.793973 -1.70522 0
M  V30 13017 O 1196.79 1.537 -0.961556 0
M  V30 13018 C 1196.84 -0.892969 -3.49369 0
M  V30 13019 O 1195.94 0.0278871 -4.12391 0
M  V30 13020 H 1195.28 -0.238402 -0.619726 0
M  V30 13021 H 1197.81 -1.28211 -1.59446 0
M  V30 13022 H 1197.82 -0.819517 -3.99685 0
M  V30 13023 H 1196.5 -1.92879 -3.6847 0
M  V30 13024 H 1195.08 -0.0978295 -3.72772 0
M  V30 13025 N 1197.26 1.39987 -0.723979 0
M  V30 13026 C 1198.17 2.3447 -0.0780936 0
M  V30 13027 C 1199.19 1.57744 0.734368 0
M  V30 13028 O 1200.36 1.90091 0.665385 0
M  V30 13029 C 1197.43 3.36705 0.826492 0
M  V30 13030 C 1196.49 4.293 0.00303036 0
M  V30 13031 C 1195.72 5.26651 0.864535 0
M  V30 13032 O 1195.95 5.30194 2.10357 0
M  V30 13033 O 1194.88 6.01157 0.299057 0
M  V30 13034 H 1198.71 2.91338 -0.857646 0
M  V30 13035 H 1196.29 1.41324 -0.484536 0
M  V30 13036 H 1198.17 3.9938 1.34439 0
M  V30 13037 H 1196.85 2.82237 1.58505 0
M  V30 13038 H 1195.75 3.69883 -0.560136 0
M  V30 13039 H 1197.09 4.86942 -0.717494 0
M  V30 13040 N 1198.74 0.470782 1.50404 0
M  V30 13041 C 1199.67 -0.313458 2.31386 0
M  V30 13042 C 1200.65 -0.990623 1.38278 0
M  V30 13043 O 1201.84 -0.987854 1.67198 0
M  V30 13044 C 1198.97 -1.39599 3.18009 0
M  V30 13045 C 1197.92 -0.840443 4.19667 0
M  V30 13046 C 1197.25 -2.02124 4.95025 0
M  V30 13047 C 1198.55 0.148055 5.2209 0
M  V30 13048 H 1200.24 0.362432 2.97198 0
M  V30 13049 H 1197.79 0.175745 1.42924 0
M  V30 13050 H 1199.74 -1.9521 3.73458 0
M  V30 13051 H 1198.46 -2.10064 2.50081 0
M  V30 13052 H 1197.12 -0.306302 3.65318 0
M  V30 13053 H 1196.77 -2.71286 4.23571 0
M  V30 13054 H 1196.47 -1.65574 5.6379 0
M  V30 13055 H 1197.99 -2.58226 5.5331 0
M  V30 13056 H 1199.41 -0.318874 5.72413 0
M  V30 13057 H 1197.8 0.427811 5.98573 0
M  V30 13058 H 1198.87 1.07404 4.72855 0
M  V30 13059 N 1200.22 -1.56282 0.203376 0
M  V30 13060 C 1201.63 -1.58871 -0.152335 0
M  V30 13061 C 1201.83 -1.21978 -1.60386 0
M  V30 13062 O 1200.89 -0.946422 -2.34092 0
M  V30 13063 C 1202.2 -3.00287 0.157515 0
M  V30 13064 C 1203.75 -3.12846 0.098287 0
M  V30 13065 C 1204.23 -4.56408 0.38156 0
M  V30 13066 N 1205.72 -4.6202 0.330475 0
M  V30 13067 C 1206.45 -5.71006 0.523397 0
M  V30 13068 N 1205.95 -6.88428 0.777115 0
M  V30 13069 N 1207.74 -5.60238 0.457082 0
M  V30 13070 H 1199.89 -1.78543 1.15048 0
M  V30 13071 H 1202.15 -0.829019 0.459816 0
M  V30 13072 H 1201.86 -3.3187 1.16427 0
M  V30 13073 H 1201.73 -3.73372 -0.536041 0
M  V30 13074 H 1204.12 -2.8107 -0.899085 0
M  V30 13075 H 1204.2 -2.42129 0.825045 0
M  V30 13076 H 1203.85 -4.88897 1.37629 0
M  V30 13077 H 1203.78 -5.25325 -0.366182 0
M  V30 13078 H 1206.27 -3.77636 0.141327 0
M  V30 13079 H 1206.58 -7.67389 0.912911 0
M  V30 13080 H 1204.93 -6.90215 0.814104 0
M  V30 13081 H 1208.12 -4.67382 0.259226 0
M  V30 13082 H 1208.29 -6.45114 0.610848 0
M  V30 13083 N 1201.7 0.070167 -1.57444 0
M  V30 13084 C 1202.63 1.10996 -2.0053 0
M  V30 13085 C 1203.64 1.3489 -0.91151 0
M  V30 13086 O 1204.83 1.33102 -1.18938 0
M  V30 13087 C 1201.93 2.46053 -2.33048 0
M  V30 13088 C 1201.1 2.42092 -3.64294 0
M  V30 13089 C 1200.16 3.5927 -3.84463 0
M  V30 13090 O 1199.19 3.40625 -4.5603 0
M  V30 13091 N 1200.39 4.79677 -3.26941 0
M  V30 13092 H 1203.15 0.743029 -2.90343 0
M  V30 13093 H 1200.72 0.258794 -1.59818 0
M  V30 13094 H 1202.71 3.23089 -2.43712 0
M  V30 13095 H 1201.28 2.74742 -1.49116 0
M  V30 13096 H 1200.5 1.5043 -3.64368 0
M  V30 13097 H 1201.79 2.36548 -4.50469 0
M  V30 13098 H 1201.18 4.97729 -2.68855 0
M  V30 13099 H 1199.74 5.54219 -3.43051 0
M  V30 13100 N 1203.17 1.53854 0.341593 0
M  V30 13101 C 1204.11 1.78295 1.44027 0
M  V30 13102 C 1205.12 0.664303 1.4863 0
M  V30 13103 O 1206.31 0.941073 1.51678 0
M  V30 13104 C 1203.41 1.86947 2.82673 0
M  V30 13105 C 1202.58 3.16898 3.01487 0
M  V30 13106 C 1201.64 3.16483 4.20386 0
M  V30 13107 O 1200.67 3.90197 4.14409 0
M  V30 13108 N 1201.87 2.3899 5.29022 0
M  V30 13109 H 1204.63 2.73102 1.23431 0
M  V30 13110 H 1202.19 1.52928 0.531483 0
M  V30 13111 H 1204.19 1.84118 3.60392 0
M  V30 13112 H 1202.76 0.993169 2.96403 0
M  V30 13113 H 1201.98 3.32835 2.11221 0
M  V30 13114 H 1203.26 4.02733 3.1094 0
M  V30 13115 H 1202.66 1.78657 5.36748 0
M  V30 13116 H 1201.22 2.41957 6.05227 0
M  V30 13117 N 1204.65 -0.602709 1.4562 0
M  V30 13118 C 1205.6 -1.71312 1.54664 0
M  V30 13119 C 1206.57 -1.61403 0.392197 0
M  V30 13120 O 1207.75 -1.80911 0.606297 0
M  V30 13121 C 1204.89 -3.09629 1.52393 0
M  V30 13122 C 1204.01 -3.30308 2.78425 0
M  V30 13123 C 1203.14 -4.5876 2.67793 0
M  V30 13124 C 1202.18 -4.72713 3.88855 0
M  V30 13125 N 1201.32 -5.92469 3.76729 0
M  V30 13126 H 1206.16 -1.62918 2.49523 0
M  V30 13127 H 1203.69 -0.794324 1.2381 0
M  V30 13128 H 1205.65 -3.89661 1.49064 0
M  V30 13129 H 1204.28 -3.16968 0.610816 0
M  V30 13130 H 1203.33 -2.44018 2.9182 0
M  V30 13131 H 1204.65 -3.36491 3.68205 0
M  V30 13132 H 1203.8 -5.46993 2.62457 0
M  V30 13133 H 1202.54 -4.54983 1.75619 0
M  V30 13134 H 1201.54 -3.82903 3.94545 0
M  V30 13135 H 1202.77 -4.78284 4.82101 0
M  V30 13136 H 1200.72 -5.89728 2.87328 0
M  V30 13137 H 1200.63 -5.99833 4.60148 0
M  V30 13138 H 1201.9 -6.83187 3.75334 0
M  V30 13139 N 1206.13 -1.32992 -0.845635 0
M  V30 13140 C 1207.38 -1.24065 -1.60044 0
M  V30 13141 C 1207.7 0.195282 -1.93517 0
M  V30 13142 O 1206.96 1.1507 -1.58296 0
M  V30 13143 C 1207.26 -2.05454 -2.92444 0
M  V30 13144 C 1206.92 -3.54718 -2.78362 0
M  V30 13145 C 1205.59 -3.95413 -2.74229 0
M  V30 13146 C 1207.94 -4.49598 -2.63649 0
M  V30 13147 C 1205.27 -5.29216 -2.53274 0
M  V30 13148 C 1207.62 -5.83554 -2.44228 0
M  V30 13149 C 1206.28 -6.2344 -2.38493 0
M  V30 13150 H 1205.55 -0.453985 -0.585644 0
M  V30 13151 H 1208.2 -1.6451 -0.980244 0
M  V30 13152 H 1206.5 -1.57765 -3.58633 0
M  V30 13153 H 1208.2 -1.95909 -3.49887 0
M  V30 13154 H 1204.79 -3.22403 -2.82409 0
M  V30 13155 H 1208.98 -4.19072 -2.65881 0
M  V30 13156 H 1204.23 -5.59164 -2.47275 0
M  V30 13157 H 1208.41 -6.56681 -2.31825 0
M  V30 13158 H 1206.03 -7.27058 -2.22015 0
M  V30 13159 N 1207.61 1.06304 -1.1635 0
M  V30 13160 C 1208.84 1.82534 -0.967725 0
M  V30 13161 C 1209.25 1.82816 0.487338 0
M  V30 13162 O 1208.59 1.24581 1.35001 0
M  V30 13163 C 1208.65 3.30349 -1.4181 0
M  V30 13164 C 1208.31 3.53769 -2.89303 0
M  V30 13165 C 1209.31 3.46826 -3.87308 0
M  V30 13166 C 1207 3.81094 -3.2722 0
M  V30 13167 C 1208.99 3.66874 -5.21232 0
M  V30 13168 C 1206.68 4.00792 -4.61313 0
M  V30 13169 C 1207.68 3.93679 -5.58127 0
M  V30 13170 O 1207.36 4.12839 -6.89796 0
M  V30 13171 H 1207.1 0.582407 -0.343189 0
M  V30 13172 H 1209.65 1.35022 -1.54784 0
M  V30 13173 H 1207.88 3.78722 -0.781456 0
M  V30 13174 H 1209.57 3.88072 -1.18976 0
M  V30 13175 H 1210.33 3.25706 -3.59361 0
M  V30 13176 H 1206.21 3.85739 -2.5244 0
M  V30 13177 H 1209.76 3.61238 -5.96786 0
M  V30 13178 H 1205.65 4.214 -4.8897 0
M  V30 13179 H 1206.42 4.30128 -6.96371 0
M  V30 13180 N 1209.09 0.96196 1.24836 0
M  V30 13181 C 1210.02 0.506241 2.27946 0
M  V30 13182 C 1211 -0.451183 1.64007 0
M  V30 13183 O 1212.18 -0.348552 1.91046 0
M  V30 13184 C 1209.31 -0.209846 3.46665 0
M  V30 13185 C 1208.27 0.663035 4.22833 0
M  V30 13186 C 1207.59 -0.184216 5.34383 0
M  V30 13187 C 1208.89 1.94479 4.84742 0
M  V30 13188 H 1210.59 1.36805 2.66317 0
M  V30 13189 H 1208.13 0.65926 1.28023 0
M  V30 13190 H 1210.08 -0.539838 4.17928 0
M  V30 13191 H 1208.81 -1.10596 3.07305 0
M  V30 13192 H 1207.47 0.976216 3.53363 0
M  V30 13193 H 1207.12 -1.08031 4.91262 0
M  V30 13194 H 1206.82 0.39657 5.8626 0
M  V30 13195 H 1208.34 -0.509009 6.08475 0
M  V30 13196 H 1209.75 1.68074 5.48109 0
M  V30 13197 H 1208.15 2.47183 5.46828 0
M  V30 13198 H 1209.22 2.64332 4.06517 0
M  V30 13199 N 1210.56 -1.39601 0.731392 0
M  V30 13200 C 1211.47 -2.34425 0.090527 0
M  V30 13201 C 1212.49 -1.58131 -0.725992 0
M  V30 13202 O 1213.67 -1.90441 -0.655294 0
M  V30 13203 C 1210.73 -3.37138 -0.808624 0
M  V30 13204 C 1209.79 -4.29295 0.0197365 0
M  V30 13205 C 1209.02 -5.27102 -0.836593 0
M  V30 13206 O 1209.25 -5.31302 -2.07543 0
M  V30 13207 O 1208.18 -6.01307 -0.267172 0
M  V30 13208 H 1212.01 -2.9088 0.873084 0
M  V30 13209 H 1209.59 -1.41066 0.492024 0
M  V30 13210 H 1211.47 -4.00087 -1.32319 0
M  V30 13211 H 1210.15 -2.83074 -1.57006 0
M  V30 13212 H 1209.06 -3.69581 0.579744 0
M  V30 13213 H 1210.39 -4.86555 0.743308 0
M  V30 13214 N 1212.04 -0.478751 -1.50152 0
M  V30 13215 C 1213.27 0.0710485 -2.06778 0
M  V30 13216 C 1213.69 1.32826 -1.34174 0
M  V30 13217 O 1213.04 1.77758 -0.413304 0
M  V30 13218 C 1213.09 0.351351 -3.59789 0
M  V30 13219 O 1212.81 -0.855998 -4.29656 0
M  V30 13220 C 1214.32 0.947269 -4.33061 0
M  V30 13221 H 1211.54 -0.0105032 -0.670918 0
M  V30 13222 H 1214.08 -0.669732 -1.93222 0
M  V30 13223 H 1212.23 1.04207 -3.73121 0
M  V30 13224 H 1212.65 -0.605252 -5.20996 0
M  V30 13225 H 1214.12 1.09312 -5.41068 0
M  V30 13226 H 1214.6 1.93937 -3.94062 0
M  V30 13227 H 1215.21 0.294693 -4.24278 0
M  V30 13228 N 1213.52 1.56172 -0.211661 0
M  V30 13229 C 1214.45 2.17107 0.734657 0
M  V30 13230 C 1215.47 1.1374 1.16478 0
M  V30 13231 O 1216.65 1.40763 1.09764 0
M  V30 13232 C 1213.75 2.73182 2.00561 0
M  V30 13233 C 1212.93 4.0162 1.73264 0
M  V30 13234 C 1211.99 4.42357 2.84968 0
M  V30 13235 O 1211.01 5.09453 2.53863 0
M  V30 13236 N 1212.21 4.07223 4.13702 0
M  V30 13237 H 1214.98 2.98939 0.213475 0
M  V30 13238 H 1212.54 1.61872 -0.0302898 0
M  V30 13239 H 1214.53 2.97411 2.74461 0
M  V30 13240 H 1213.1 1.9571 2.43754 0
M  V30 13241 H 1212.32 3.85351 0.830575 0
M  V30 13242 H 1213.61 4.85426 1.52445 0
M  V30 13243 H 1213.01 3.53286 4.4182 0
M  V30 13244 H 1211.57 4.36366 4.84178 0
M  V30 13245 N 1215 -0.0618163 1.57479 0
M  V30 13246 C 1215.96 -1.05684 2.0338 0
M  V30 13247 C 1216.96 -1.31006 0.932423 0
M  V30 13248 O 1218.15 -1.26559 1.19702 0
M  V30 13249 C 1215.28 -2.39805 2.42294 0
M  V30 13250 H 1216.48 -0.661006 2.92525 0
M  V30 13251 H 1214.03 -0.307814 1.53239 0
M  V30 13252 H 1214.76 -2.84201 1.56207 0
M  V30 13253 H 1214.55 -2.22764 3.22674 0
M  V30 13254 H 1216.04 -3.11307 2.78349 0
M  V30 13255 N 1216.48 -1.54033 -0.333429 0
M  V30 13256 C 1217.72 -1.71426 -1.0704 0
M  V30 13257 C 1218.05 -0.485496 -1.8886 0
M  V30 13258 O 1217.32 0.500555 -1.89397 0
M  V30 13259 H 1215.9 -0.632034 -0.398173 0
M  V30 13260 H 1218.56 -1.91312 -0.372252 0
M  V30 13261 H 1217.65 -2.58958 -1.74205 0
M  V30 13262 N 1217.95 0.594978 -1.45938 0
M  V30 13263 C 1218.9 1.70489 -1.5557 0
M  V30 13264 C 1219.87 1.61193 -0.400751 0
M  V30 13265 O 1221.06 1.80587 -0.615882 0
M  V30 13266 C 1218.2 3.08817 -1.54033 0
M  V30 13267 C 1217.31 3.28827 -2.80173 0
M  V30 13268 C 1216.44 4.57333 -2.70222 0
M  V30 13269 C 1215.48 4.70644 -3.91357 0
M  V30 13270 N 1214.62 5.90463 -3.79865 0
M  V30 13271 H 1219.46 1.61593 -2.50383 0
M  V30 13272 H 1217 0.787747 -1.24229 0
M  V30 13273 H 1218.96 3.88865 -1.51129 0
M  V30 13274 H 1217.59 3.1664 -0.627617 0
M  V30 13275 H 1216.64 2.42467 -2.9311 0
M  V30 13276 H 1217.95 3.34534 -3.69985 0
M  V30 13277 H 1217.1 5.45593 -2.65354 0
M  V30 13278 H 1215.84 4.54045 -1.7803 0
M  V30 13279 H 1214.85 3.80805 -3.9657 0
M  V30 13280 H 1216.07 4.75721 -4.8463 0
M  V30 13281 H 1214.02 5.88196 -2.90451 0
M  V30 13282 H 1213.94 5.97385 -4.63322 0
M  V30 13283 H 1215.2 6.81187 -3.78952 0
M  V30 13284 N 1219.43 1.33438 0.838571 0
M  V30 13285 C 1220.36 1.26344 1.96365 0
M  V30 13286 C 1221.34 0.143956 1.6949 0
M  V30 13287 O 1222.53 0.333779 1.9131 0
M  V30 13288 C 1219.66 1.0022 3.32526 0
M  V30 13289 C 1218.61 2.08466 3.73799 0
M  V30 13290 C 1217.94 1.67555 5.07769 0
M  V30 13291 C 1219.24 3.50144 3.87552 0
M  V30 13292 H 1220.93 2.20478 2.02558 0
M  V30 13293 H 1218.48 1.06139 0.973168 0
M  V30 13294 H 1220.43 0.939068 4.10803 0
M  V30 13295 H 1219.16 0.0252514 3.2659 0
M  V30 13296 H 1217.81 2.13822 2.97785 0
M  V30 13297 H 1217.46 0.685619 4.98305 0
M  V30 13298 H 1217.16 2.39993 5.36356 0
M  V30 13299 H 1218.69 1.62708 5.88522 0
M  V30 13300 H 1220.1 3.47287 4.56141 0
M  V30 13301 H 1218.5 4.21069 4.27575 0
M  V30 13302 H 1219.57 3.88628 2.89994 0
M  V30 13303 N 1220.91 -1.05686 1.16912 0
M  V30 13304 C 1221.82 -2.16824 0.8958 0
M  V30 13305 C 1222.84 -1.73482 -0.134215 0
M  V30 13306 O 1224.01 -2.01352 0.0438776 0
M  V30 13307 C 1221.08 -3.44298 0.407427 0
M  V30 13308 C 1220.14 -4.02114 1.50342 0
M  V30 13309 C 1219.37 -5.23503 1.03826 0
M  V30 13310 O 1219.59 -5.70295 -0.109579 0
M  V30 13311 O 1218.53 -5.73432 1.8292 0
M  V30 13312 H 1222.35 -2.42725 1.82533 0
M  V30 13313 H 1219.94 -1.15339 0.949589 0
M  V30 13314 H 1221.82 -4.21159 0.142356 0
M  V30 13315 H 1220.5 -3.19908 -0.494009 0
M  V30 13316 H 1219.4 -3.26715 1.82231 0
M  V30 13317 H 1220.74 -4.30811 2.38039 0
M  V30 13318 N 1222.39 -0.968567 -1.24324 0
M  V30 13319 C 1223.35 -0.504307 -2.23583 0
M  V30 13320 C 1224.35 0.399626 -1.55755 0
M  V30 13321 O 1225.54 0.194966 -1.73106 0
M  V30 13322 C 1222.67 0.26956 -3.39833 0
M  V30 13323 H 1223.87 -1.3818 -2.6617 0
M  V30 13324 H 1221.42 -0.753241 -1.36952 0
M  V30 13325 H 1222.15 1.16411 -3.02686 0
M  V30 13326 H 1221.94 -0.379133 -3.90263 0
M  V30 13327 H 1223.43 0.583376 -4.13505 0
M  V30 13328 N 1223.87 1.39211 -0.738786 0
M  V30 13329 C 1224.8 2.29117 -0.0616489 0
M  V30 13330 C 1225.81 1.47008 0.699462 0
M  V30 13331 O 1227 1.70041 0.542998 0
M  V30 13332 C 1224.1 3.25692 0.936893 0
M  V30 13333 C 1223.27 4.3676 0.236515 0
M  V30 13334 C 1222.33 5.1362 1.1437 0
M  V30 13335 O 1221.36 5.65816 0.619762 0
M  V30 13336 N 1222.56 5.25184 2.4731 0
M  V30 13337 H 1225.33 2.8787 -0.833711 0
M  V30 13338 H 1222.89 1.50832 -0.588323 0
M  V30 13339 H 1224.88 3.73987 1.54648 0
M  V30 13340 H 1223.45 2.67943 1.61014 0
M  V30 13341 H 1222.67 3.90293 -0.553594 0
M  V30 13342 H 1223.96 5.08192 -0.248707 0
M  V30 13343 H 1223.35 4.84302 2.92349 0
M  V30 13344 H 1221.91 5.76905 3.03355 0
M  V30 13345 N 1225.34 0.486708 1.49896 0
M  V30 13346 C 1226.29 -0.313156 2.30482 0
M  V30 13347 C 1227.29 -0.976043 1.38455 0
M  V30 13348 O 1228.49 -0.905364 1.55574 0
M  V30 13349 H 1224.87 -0.119839 0.74239 0
M  V30 13350 H 1226.84 0.386701 2.95884 0
M  V30 13351 C 1225.59 -1.37334 3.19429 0
M  V30 13352 H 1224.91 -0.87265 3.9016 0
M  V30 13353 H 1226.35 -1.90526 3.78782 0
M  V30 13354 C 1224.81 -2.38378 2.38071 0
M  V30 13355 O 1225.34 -3.43972 2.07476 0
M  V30 13356 N 1223.55 -2.10486 2.00359 0
M  V30 13357 H 1223.09 -1.24638 2.2544 0
M  V30 13358 H 1223.05 -2.78324 1.46229 0
M  V30 13359 N 1226.82 -1.56058 0.219941 0
M  V30 13360 C 1228.24 -1.59024 -0.135476 0
M  V30 13361 C 1228.44 -1.23672 -1.59083 0
M  V30 13362 O 1227.5 -0.971197 -2.33075 0
M  V30 13363 C 1228.81 -3.00103 0.189356 0
M  V30 13364 C 1230.36 -3.12724 0.131463 0
M  V30 13365 C 1230.83 -4.55977 0.429947 0
M  V30 13366 N 1232.32 -4.61643 0.37946 0
M  V30 13367 C 1233.06 -5.70419 0.58393 0
M  V30 13368 N 1232.55 -6.87565 0.850088 0
M  V30 13369 N 1234.35 -5.59722 0.516477 0
M  V30 13370 H 1226.5 -1.77313 1.16935 0
M  V30 13371 H 1228.76 -0.824096 0.468583 0
M  V30 13372 H 1228.47 -3.30616 1.19941 0
M  V30 13373 H 1228.34 -3.73919 -0.49641 0
M  V30 13374 H 1230.73 -2.82008 -0.869223 0
M  V30 13375 H 1230.81 -2.41241 0.85068 0
M  V30 13376 H 1230.45 -4.8741 1.42806 0
M  V30 13377 H 1230.38 -5.25684 -0.310444 0
M  V30 13378 H 1232.87 -3.77465 0.181373 0
M  V30 13379 H 1233.19 -7.66378 0.994251 0
M  V30 13380 H 1231.53 -6.89313 0.887265 0
M  V30 13381 H 1234.72 -4.6708 0.308784 0
M  V30 13382 H 1234.9 -6.4443 0.679236 0
M  V30 13383 N 1228.3 0.053464 -1.57509 0
M  V30 13384 C 1229.25 1.06155 -2.04939 0
M  V30 13385 C 1230.22 1.37382 -0.93357 0
M  V30 13386 O 1231.4 1.48137 -1.2025 0
M  V30 13387 C 1228.54 2.36476 -2.51343 0
M  V30 13388 C 1227.66 2.1162 -3.76618 0
M  V30 13389 C 1226.79 3.35636 -4.11731 0
M  V30 13390 C 1225.83 3.06226 -5.29993 0
M  V30 13391 N 1224.97 4.22623 -5.60655 0
M  V30 13392 H 1229.81 0.650122 -2.90822 0
M  V30 13393 H 1227.34 0.309421 -1.43809 0
M  V30 13394 H 1229.3 3.12588 -2.76306 0
M  V30 13395 H 1227.93 2.75386 -1.68411 0
M  V30 13396 H 1226.98 1.26116 -3.58886 0
M  V30 13397 H 1228.3 1.85909 -4.6286 0
M  V30 13398 H 1227.45 4.20132 -4.37692 0
M  V30 13399 H 1226.19 3.64439 -3.24092 0
M  V30 13400 H 1225.19 2.20128 -5.03809 0
M  V30 13401 H 1226.42 2.78726 -6.19265 0
M  V30 13402 H 1224.37 4.51424 -4.75976 0
M  V30 13403 H 1224.28 4.0025 -6.41355 0
M  V30 13404 H 1225.55 5.08063 -5.91178 0
M  V30 13405 N 1229.78 1.54207 0.325255 0
M  V30 13406 C 1230.71 1.86467 1.40543 0
M  V30 13407 C 1231.69 0.721324 1.54048 0
M  V30 13408 O 1232.88 0.974905 1.67956 0
M  V30 13409 C 1230.01 2.09052 2.77335 0
M  V30 13410 C 1228.96 3.24893 2.78619 0
M  V30 13411 C 1228.29 3.32846 4.1847 0
M  V30 13412 C 1229.59 4.62582 2.42518 0
M  V30 13413 H 1231.28 2.76932 1.13794 0
M  V30 13414 H 1228.83 1.33248 0.545971 0
M  V30 13415 H 1230.78 2.30204 3.52964 0
M  V30 13416 H 1229.5 1.15335 3.05558 0
M  V30 13417 H 1228.16 3.03625 2.05444 0
M  V30 13418 H 1227.81 2.3669 4.43832 0
M  V30 13419 H 1227.51 4.10701 4.20237 0
M  V30 13420 H 1229.03 3.56231 4.95915 0
M  V30 13421 H 1230.45 4.83627 3.07861 0
M  V30 13422 H 1228.84 5.42974 2.55538 0
M  V30 13423 H 1229.91 4.64946 1.3767 0
M  V30 13424 N 1231.26 -0.58723 1.46251 0
M  V30 13425 C 1232.17 -1.72455 1.59048 0
M  V30 13426 C 1233.18 -1.67416 0.47413 0
M  V30 13427 O 1234.36 -1.87406 0.737633 0
M  V30 13428 C 1231.42 -3.08953 1.57318 0
M  V30 13429 C 1230.49 -3.25291 2.80151 0
M  V30 13430 C 1229.72 -4.55277 2.78493 0
M  V30 13431 O 1229.94 -5.38883 1.8698 0
M  V30 13432 O 1228.88 -4.74765 3.69975 0
M  V30 13433 H 1232.7 -1.64606 2.55223 0
M  V30 13434 H 1230.29 -0.753742 1.28993 0
M  V30 13435 H 1232.17 -3.90239 1.59033 0
M  V30 13436 H 1230.84 -3.17249 0.643025 0
M  V30 13437 H 1229.75 -2.43515 2.83991 0
M  V30 13438 H 1231.08 -3.21883 3.7236 0
M  V30 13439 N 1232.74 -1.33881 -0.831482 0
M  V30 13440 C 1233.65 -1.26802 -1.97379 0
M  V30 13441 C 1234.66 -0.177233 -1.73095 0
M  V30 13442 O 1235.84 -0.402163 -1.97344 0
M  V30 13443 C 1232.9 -1.01474 -3.31517 0
M  V30 13444 C 1231.96 -2.19626 -3.68867 0
M  V30 13445 C 1231.2 -1.95497 -4.96605 0
M  V30 13446 O 1231.42 -0.908948 -5.63111 0
M  V30 13447 O 1230.35 -2.82226 -5.31632 0
M  V30 13448 H 1234.18 -2.22883 -2.06293 0
M  V30 13449 H 1231.76 -1.14001 -0.965613 0
M  V30 13450 H 1233.65 -0.890954 -4.11874 0
M  V30 13451 H 1232.32 -0.0842656 -3.2359 0
M  V30 13452 H 1231.23 -2.37561 -2.88991 0
M  V30 13453 H 1232.56 -3.11034 -3.81469 0
M  V30 13454 N 1234.21 1.05064 -1.1747 0
M  V30 13455 C 1235.15 2.12842 -0.850344 0
M  V30 13456 C 1236.16 1.62128 0.147796 0
M  V30 13457 O 1237.35 1.78327 -0.0786774 0
M  V30 13458 C 1234.45 3.37995 -0.247486 0
M  V30 13459 C 1233.62 4.17981 -1.28881 0
M  V30 13460 C 1232.68 5.21476 -0.703476 0
M  V30 13461 O 1231.71 5.52327 -1.37561 0
M  V30 13462 N 1232.91 5.78309 0.50387 0
M  V30 13463 H 1235.67 2.41264 -1.77797 0
M  V30 13464 H 1233.23 1.21172 -1.07373 0
M  V30 13465 H 1235.23 4.04394 0.157424 0
M  V30 13466 H 1233.8 3.07097 0.583952 0
M  V30 13467 H 1233.02 3.47054 -1.86942 0
M  V30 13468 H 1234.3 4.6822 -1.99116 0
M  V30 13469 H 1233.7 5.5553 1.06787 0
M  V30 13470 H 1232.26 6.46223 0.850828 0
M  V30 13471 N 1235.69 0.975146 1.23809 0
M  V30 13472 C 1236.62 0.530389 2.27396 0
M  V30 13473 C 1237.6 -0.433763 1.64476 0
M  V30 13474 O 1238.79 -0.32827 1.91405 0
M  V30 13475 C 1235.92 -0.173066 3.46869 0
M  V30 13476 C 1234.87 0.707844 4.22106 0
M  V30 13477 C 1234.2 -0.127527 5.34548 0
M  V30 13478 C 1235.5 1.99609 4.82652 0
M  V30 13479 H 1237.19 1.39622 2.64851 0
M  V30 13480 H 1234.74 0.672802 1.27316 0
M  V30 13481 H 1236.69 -0.495481 4.18477 0
M  V30 13482 H 1235.41 -1.0733 3.0846 0
M  V30 13483 H 1234.07 1.01364 3.52308 0
M  V30 13484 H 1233.72 -1.02814 4.9238 0
M  V30 13485 H 1233.42 0.458728 5.85807 0
M  V30 13486 H 1234.95 -0.444443 6.0898 0
M  V30 13487 H 1236.36 1.73878 5.46296 0
M  V30 13488 H 1234.76 2.52969 5.44175 0
M  V30 13489 H 1235.83 2.68629 4.03691 0
M  V30 13490 N 1237.17 -1.38817 0.746158 0
M  V30 13491 C 1238.08 -2.34316 0.115386 0
M  V30 13492 C 1239.1 -1.58892 -0.709179 0
M  V30 13493 O 1240.27 -1.91126 -0.635059 0
M  V30 13494 C 1237.34 -3.37977 -0.772821 0
M  V30 13495 C 1236.4 -4.2925 0.0652679 0
M  V30 13496 C 1235.63 -5.2796 -0.78064 0
M  V30 13497 O 1235.85 -5.33474 -2.01896 0
M  V30 13498 O 1234.79 -6.01556 -0.20338 0
M  V30 13499 H 1238.61 -2.89937 0.903887 0
M  V30 13500 H 1236.2 -1.40536 0.506958 0
M  V30 13501 H 1238.08 -4.01468 -1.28068 0
M  V30 13502 H 1236.76 -2.84723 -1.53994 0
M  V30 13503 H 1235.66 -3.68945 0.61891 0
M  V30 13504 H 1237 -4.85739 0.794871 0
M  V30 13505 N 1238.65 -0.49465 -1.49636 0
M  V30 13506 C 1239.59 0.287153 -2.29007 0
M  V30 13507 C 1240.56 0.966099 -1.35114 0
M  V30 13508 O 1241.75 0.973991 -1.64067 0
M  V30 13509 C 1238.89 1.34941 -3.17624 0
M  V30 13510 C 1238 0.682879 -4.26569 0
M  V30 13511 C 1237.14 1.72503 -5.0241 0
M  V30 13512 C 1236.18 1.04003 -6.032 0
M  V30 13513 N 1235.31 2.0261 -6.7223 0
M  V30 13514 H 1240.15 -0.395941 -2.95358 0
M  V30 13515 H 1237.69 -0.207103 -1.45635 0
M  V30 13516 H 1239.65 1.9772 -3.67372 0
M  V30 13517 H 1238.28 2.00135 -2.5327 0
M  V30 13518 H 1237.33 -0.0580477 -3.80356 0
M  V30 13519 H 1238.64 0.143334 -4.98594 0
M  V30 13520 H 1237.8 2.42804 -5.55996 0
M  V30 13521 H 1236.54 2.29843 -4.30144 0
M  V30 13522 H 1235.54 0.322765 -5.48852 0
M  V30 13523 H 1236.77 0.473219 -6.77449 0
M  V30 13524 H 1234.71 2.58922 -6.0274 0
M  V30 13525 H 1234.63 1.53704 -7.4021 0
M  V30 13526 H 1235.9 2.72218 -7.30423 0
M  V30 13527 N 1240.13 1.55939 -0.228214 0
M  V30 13528 C 1241.37 1.97652 0.402067 0
M  V30 13529 C 1241.69 1.11911 1.60422 0
M  V30 13530 O 1242.89 1.43552 2.30445 0
M  V30 13531 C 1241.35 3.51638 0.766724 0
M  V30 13532 C 1240.96 4.46092 -0.412991 0
M  V30 13533 C 1242.7 4.02049 1.36224 0
M  V30 13534 C 1240.61 5.91394 -0.0255281 0
M  V30 13535 H 1239.54 0.738107 0.153994 0
M  V30 13536 H 1242.19 1.8059 -0.32548 0
M  V30 13537 H 1240.57 3.64325 1.55188 0
M  V30 13538 H 1241.75 4.45156 -1.19049 0
M  V30 13539 H 1240.06 4.0606 -0.92218 0
M  V30 13540 H 1242.66 5.08111 1.66514 0
M  V30 13541 H 1243 3.48292 2.28032 0
M  V30 13542 H 1243.53 3.92612 0.640378 0
M  V30 13543 H 1240.27 6.49149 -0.910269 0
M  V30 13544 H 1239.79 5.95509 0.716149 0
M  V30 13545 H 1241.47 6.4577 0.398839 0
M  V30 13546 N 1241.6 -0.0451101 1.57535 0
M  V30 13547 C 1242.83 -0.755068 1.93167 0
M  V30 13548 C 1243.25 -1.68949 0.826915 0
M  V30 13549 O 1242.61 -1.79978 -0.218534 0
M  V30 13550 C 1242.66 -1.50201 3.27829 0
M  V30 13551 O 1241.76 -2.61434 3.18945 0
M  V30 13552 H 1241.11 -0.204219 0.631815 0
M  V30 13553 H 1243.64 -0.00537504 2.04599 0
M  V30 13554 H 1243.65 -1.87547 3.6234 0
M  V30 13555 H 1242.32 -0.816591 4.07805 0
M  V30 13556 H 1240.9 -2.26749 2.96039 0
M  V30 13557 N 1243.08 -1.54377 -0.317073 0
M  V30 13558 C 1244.03 -1.80597 -1.39172 0
M  V30 13559 C 1245.02 -0.662289 -1.46637 0
M  V30 13560 O 1246.21 -0.922477 -1.51061 0
M  V30 13561 C 1243.34 -2.04252 -2.75927 0
M  V30 13562 C 1242.42 -3.2476 -2.72749 0
M  V30 13563 N 1242.81 -4.45671 -2.39189 0
M  V30 13564 C 1241.11 -3.26464 -3.03871 0
M  V30 13565 C 1241.81 -5.27631 -2.44908 0
M  V30 13566 N 1240.79 -4.64968 -2.81613 0
M  V30 13567 H 1244.59 -2.71655 -1.12164 0
M  V30 13568 H 1242.11 -1.5366 -0.525586 0
M  V30 13569 H 1244.1 -2.21178 -3.53392 0
M  V30 13570 H 1242.76 -1.14452 -3.0386 0
M  V30 13571 H 1243.77 -4.72556 -2.11922 0
M  V30 13572 H 1240.45 -2.46718 -3.36803 0
M  V30 13573 H 1241.84 -6.34202 -2.21896 0
M  V30 13574 N 1244.56 0.579466 -1.4656 0
M  V30 13575 C 1245.49 1.70291 -1.53406 0
M  V30 13576 C 1246.51 1.57232 -0.422116 0
M  V30 13577 O 1247.69 1.64598 -0.69064 0
M  V30 13578 C 1244.79 3.08572 -1.40131 0
M  V30 13579 C 1243.97 3.47602 -2.65502 0
M  V30 13580 C 1243.03 4.64955 -2.4638 0
M  V30 13581 O 1242.05 4.70653 -3.20116 0
M  V30 13582 N 1243.25 5.60041 -1.52756 0
M  V30 13583 H 1246.02 1.64873 -2.50274 0
M  V30 13584 H 1243.58 0.765533 -1.42658 0
M  V30 13585 H 1245.57 3.84877 -1.25106 0
M  V30 13586 H 1244.14 3.0834 -0.514322 0
M  V30 13587 H 1243.36 2.60969 -2.95446 0
M  V30 13588 H 1244.65 3.70446 -3.48779 0
M  V30 13589 H 1244.05 5.58176 -0.919587 0
M  V30 13590 H 1242.61 6.35764 -1.43693 0
M  V30 13591 N 1246.04 1.3432 0.824371 0
M  V30 13592 C 1247.32 1.17178 1.56616 0
M  V30 13593 C 1247.7 -0.256195 2.0954 0
M  V30 13594 O 1247.04 -1.25732 1.90798 0
M  V30 13595 C 1247.25 2.22511 2.68867 0
M  V30 13596 C 1248.6 2.57414 3.37673 0
M  V30 13597 O 1249.63 2.2129 2.79122 0
M  V30 13598 O 1248.48 3.19462 4.43403 0
M  V30 13599 H 1245.58 0.454141 0.691147 0
M  V30 13600 H 1248.12 1.45948 0.865869 0
M  V30 13601 H 1246.9 3.18366 2.27505 0
M  V30 13602 H 1246.52 1.9491 3.46548 0
M  V30 13603 N 1247.52 -1.0444 1.18026 0
M  V30 13604 C 1248.47 -2.10671 0.871877 0
M  V30 13605 C 1249.45 -1.60134 -0.156798 0
M  V30 13606 O 1250.64 -1.76938 0.0467129 0
M  V30 13607 C 1247.77 -3.41017 0.395271 0
M  V30 13608 C 1246.86 -3.98331 1.4558 0
M  V30 13609 N 1247.25 -4.29508 2.67127 0
M  V30 13610 C 1245.55 -4.2616 1.31544 0
M  V30 13611 C 1246.25 -4.7532 3.35329 0
M  V30 13612 N 1245.22 -4.75904 2.6271 0
M  V30 13613 H 1249.03 -2.32647 1.79589 0
M  V30 13614 H 1246.54 -1.22158 1.0701 0
M  V30 13615 H 1248.54 -4.16609 0.155861 0
M  V30 13616 H 1247.2 -3.20469 -0.522452 0
M  V30 13617 H 1248.21 -4.19271 3.04027 0
M  V30 13618 H 1244.88 -4.14959 0.459962 0
M  V30 13619 H 1246.27 -5.08493 4.39186 0
M  V30 13620 N 1248.99 -0.981699 -1.2329 0
M  V30 13621 C 1250.22 -0.669025 -1.96313 0
M  V30 13622 C 1250.64 0.757624 -1.72168 0
M  V30 13623 O 1250 1.51626 -0.993942 0
M  V30 13624 C 1250.05 -0.966875 -3.47396 0
M  V30 13625 O 1249.15 -0.0595933 -4.12357 0
M  V30 13626 H 1248.5 -0.251493 -0.61453 0
M  V30 13627 H 1251.03 -1.31564 -1.56691 0
M  V30 13628 H 1251.04 -0.904112 -3.97857 0
M  V30 13629 H 1249.71 -2.00651 -3.64296 0
M  V30 13630 H 1248.29 -0.176878 -3.7248 0
M  V30 13631 N 1250.47 1.3842 -0.753509 0
M  V30 13632 C 1251.75 1.94181 -0.235142 0
M  V30 13633 C 1252.13 1.68881 1.26659 0
M  V30 13634 O 1251.48 1.02731 2.04104 0
M  V30 13635 C 1251.69 3.43998 -0.588751 0
M  V30 13636 C 1253.04 4.21044 -0.548352 0
M  V30 13637 O 1254.06 3.52279 -0.52704 0
M  V30 13638 O 1252.92 5.43631 -0.559221 0
M  V30 13639 H 1250.01 0.825536 -0.0491834 0
M  V30 13640 H 1252.56 1.47813 -0.833626 0
M  V30 13641 H 1251.33 3.55921 -1.6259 0
M  V30 13642 H 1250.95 3.97582 0.0377429 0
M  V30 13643 N 1251.95 0.502579 1.49372 0
M  V30 13644 C 1252.9 -0.275004 2.29156 0
M  V30 13645 C 1253.87 -0.95892 1.35624 0
M  V30 13646 O 1255.05 -0.965276 1.64581 0
M  V30 13647 C 1252.19 -1.33255 3.18335 0
M  V30 13648 C 1251.31 -0.660248 4.26925 0
M  V30 13649 C 1250.44 -1.69837 5.03318 0
M  V30 13650 C 1249.48 -1.00802 6.03743 0
M  V30 13651 N 1248.62 -1.99042 6.73295 0
M  V30 13652 H 1253.46 0.411599 2.95144 0
M  V30 13653 H 1250.99 0.214824 1.45523 0
M  V30 13654 H 1252.95 -1.95769 3.68416 0
M  V30 13655 H 1251.58 -1.98789 2.54328 0
M  V30 13656 H 1250.63 0.0782181 3.8032 0
M  V30 13657 H 1251.95 -0.11689 4.98663 0
M  V30 13658 H 1251.1 -2.39852 5.57275 0
M  V30 13659 H 1249.84 -2.27558 4.31357 0
M  V30 13660 H 1248.84 -0.293654 5.49015 0
M  V30 13661 H 1250.07 -0.437285 6.77691 0
M  V30 13662 H 1248.01 -2.55722 6.04104 0
M  V30 13663 H 1247.93 -1.49776 7.41015 0
M  V30 13664 H 1249.2 -2.6834 7.31856 0
M  V30 13665 N 1253.43 -1.55816 0.23648 0
M  V30 13666 C 1254.38 -2.22322 -0.68378 0
M  V30 13667 C 1255.37 -1.2074 -1.1882 0
M  V30 13668 O 1256.58 -1.38781 -1.14629 0
M  V30 13669 H 1252.95 -0.713021 -0.238966 0
M  V30 13670 H 1254.92 -2.98234 -0.0995879 0
M  V30 13671 C 1253.67 -2.92845 -1.87449 0
M  V30 13672 H 1252.99 -3.70777 -1.49548 0
M  V30 13673 H 1254.43 -3.42758 -2.49585 0
M  V30 13674 C 1252.89 -1.96139 -2.73918 0
M  V30 13675 O 1253.42 -1.48781 -3.73132 0
M  V30 13676 N 1251.63 -1.63465 -2.40266 0
M  V30 13677 H 1251.18 -2.02171 -1.59639 0
M  V30 13678 H 1251.13 -0.990239 -2.98398 0
M  V30 13679 N 1254.91 0.036755 -1.57557 0
M  V30 13680 C 1256.32 0.392264 -1.54704 0
M  V30 13681 C 1256.52 1.77076 -0.96157 0
M  V30 13682 O 1255.58 2.45766 -0.579263 0
M  V30 13683 C 1256.89 0.301168 -2.99188 0
M  V30 13684 C 1258.44 0.378813 -3.10699 0
M  V30 13685 C 1258.91 0.317249 -4.569 0
M  V30 13686 N 1260.41 0.376277 -4.61669 0
M  V30 13687 C 1261.14 0.351411 -5.72322 0
M  V30 13688 N 1260.64 0.279288 -6.92237 0
M  V30 13689 N 1262.43 0.400571 -5.60671 0
M  V30 13690 H 1254.58 -0.865455 -1.93968 0
M  V30 13691 H 1256.84 -0.328339 -0.889324 0
M  V30 13692 H 1256.55 -0.64582 -3.4572 0
M  V30 13693 H 1256.42 1.09784 -3.6087 0
M  V30 13694 H 1258.81 1.31623 -2.6412 0
M  V30 13695 H 1258.89 -0.447072 -2.51863 0
M  V30 13696 H 1258.54 -0.616469 -5.04145 0
M  V30 13697 H 1258.47 1.16114 -5.13639 0
M  V30 13698 H 1260.96 0.434843 -3.7539 0
M  V30 13699 H 1261.27 0.265202 -7.72345 0
M  V30 13700 H 1259.61 0.24545 -6.94566 0
M  V30 13701 H 1262.81 0.454854 -4.65885 0
M  V30 13702 H 1262.98 0.377724 -6.46898 0
M  V30 13703 N 1256.39 1.54543 0.308881 0
M  V30 13704 C 1257.32 1.87947 1.38557 0
M  V30 13705 C 1258.3 0.737622 1.53275 0
M  V30 13706 O 1259.48 0.992664 1.66913 0
M  V30 13707 C 1256.61 2.11982 2.75102 0
M  V30 13708 C 1255.57 3.2783 2.75158 0
M  V30 13709 C 1254.89 3.37266 4.14917 0
M  V30 13710 C 1256.19 4.65129 2.37598 0
M  V30 13711 H 1257.89 2.78123 1.1085 0
M  V30 13712 H 1255.43 1.3382 0.531808 0
M  V30 13713 H 1257.38 2.33935 3.50503 0
M  V30 13714 H 1256.11 1.18569 3.04317 0
M  V30 13715 H 1254.77 3.05787 2.02212 0
M  V30 13716 H 1254.42 2.41384 4.41296 0
M  V30 13717 H 1254.12 4.15135 4.15857 0
M  V30 13718 H 1255.64 3.61471 4.92109 0
M  V30 13719 H 1257.05 4.86865 3.02714 0
M  V30 13720 H 1255.45 5.45653 2.49765 0
M  V30 13721 H 1256.52 4.6638 1.32731 0
M  V30 13722 N 1257.86 -0.571685 1.46866 0
M  V30 13723 C 1258.79 -1.68994 1.61131 0
M  V30 13724 C 1259.77 -1.63728 0.461222 0
M  V30 13725 O 1260.96 -1.81574 0.688813 0
M  V30 13726 C 1258.09 -3.07638 1.61172 0
M  V30 13727 C 1257.04 -3.27742 2.75262 0
M  V30 13728 C 1256.37 -4.67025 2.60368 0
M  V30 13729 C 1257.67 -3.14511 4.16989 0
M  V30 13730 H 1259.36 -1.57311 2.54742 0
M  V30 13731 H 1256.91 -0.755382 1.22597 0
M  V30 13732 H 1258.86 -3.857 1.69744 0
M  V30 13733 H 1257.59 -3.20245 0.641122 0
M  V30 13734 H 1256.25 -2.52083 2.66176 0
M  V30 13735 H 1255.89 -4.76413 1.61368 0
M  V30 13736 H 1255.59 -4.81428 3.36899 0
M  V30 13737 H 1257.12 -5.47242 2.70848 0
M  V30 13738 H 1258.53 -3.82407 4.27128 0
M  V30 13739 H 1256.93 -3.40431 4.94193 0
M  V30 13740 H 1258 -2.11443 4.36371 0
M  V30 13741 N 1259.34 -1.34755 -0.817236 0
M  V30 13742 C 1260.25 -1.28888 -1.96023 0
M  V30 13743 C 1261.27 -0.195582 -1.72897 0
M  V30 13744 O 1262.44 -0.423071 -1.96906 0
M  V30 13745 C 1259.51 -1.04985 -3.30423 0
M  V30 13746 C 1258.57 -2.23526 -3.66517 0
M  V30 13747 C 1257.8 -2.00753 -4.94504 0
M  V30 13748 O 1258.03 -0.968622 -5.62116 0
M  V30 13749 O 1256.96 -2.87848 -5.28608 0
M  V30 13750 H 1260.79 -2.25059 -2.03917 0
M  V30 13751 H 1258.37 -1.15019 -0.953467 0
M  V30 13752 H 1260.25 -0.934589 -4.10906 0
M  V30 13753 H 1258.93 -0.118582 -3.23483 0
M  V30 13754 H 1257.83 -2.40613 -2.86455 0
M  V30 13755 H 1259.17 -3.15062 -3.78149 0
M  V30 13756 N 1260.82 1.03812 -1.18578 0
M  V30 13757 C 1261.75 2.13802 -0.938665 0
M  V30 13758 C 1262.73 1.69643 0.124575 0
M  V30 13759 O 1263.92 1.94179 -0.0285421 0
M  V30 13760 C 1261.05 3.44154 -0.466392 0
M  V30 13761 C 1260 4.01949 -1.47041 0
M  V30 13762 C 1259.33 5.27811 -0.855558 0
M  V30 13763 C 1260.63 4.37827 -2.84789 0
M  V30 13764 H 1262.32 2.34732 -1.85852 0
M  V30 13765 H 1259.87 1.12808 -0.895007 0
M  V30 13766 H 1261.82 4.20463 -0.280856 0
M  V30 13767 H 1260.54 3.22918 0.489041 0
M  V30 13768 H 1259.2 3.27725 -1.64293 0
M  V30 13769 H 1258.85 5.02886 0.107142 0
M  V30 13770 H 1258.55 5.67441 -1.52592 0
M  V30 13771 H 1260.07 6.06795 -0.680609 0
M  V30 13772 H 1261.49 5.05112 -2.71173 0
M  V30 13773 H 1259.88 4.88514 -3.48532 0
M  V30 13774 H 1260.95 3.47541 -3.38147 0
M  V30 13775 N 1262.3 0.988223 1.22768 0
M  V30 13776 C 1263.21 0.543407 2.2822 0
M  V30 13777 C 1264.22 -0.405563 1.69208 0
M  V30 13778 O 1265.4 -0.273551 1.99534 0
M  V30 13779 C 1262.46 -0.139495 3.46419 0
M  V30 13780 C 1261.53 0.851853 4.20764 0
M  V30 13781 C 1260.76 0.201446 5.3332 0
M  V30 13782 O 1260.98 -1.00573 5.61464 0
M  V30 13783 O 1259.92 0.903956 5.95073 0
M  V30 13784 H 1263.74 1.42059 2.68427 0
M  V30 13785 H 1261.33 0.756239 1.28846 0
M  V30 13786 H 1263.21 -0.522226 4.18152 0
M  V30 13787 H 1261.88 -0.991315 3.08147 0
M  V30 13788 H 1260.79 1.28543 3.51322 0
M  V30 13789 H 1262.12 1.67273 4.62905 0
M  V30 13790 N 1263.78 -1.38018 0.760839 0
M  V30 13791 C 1265 -2.04231 0.331285 0
M  V30 13792 C 1265.42 -1.57385 -1.04285 0
M  V30 13793 O 1264.78 -0.750168 -1.66369 0
M  V30 13794 C 1264.83 -3.59772 0.353021 0
M  V30 13795 O 1264.55 -4.049 1.67294 0
M  V30 13796 C 1266.05 -4.4321 -0.0894942 0
M  V30 13797 H 1263.27 -0.656145 0.140408 0
M  V30 13798 H 1265.81 -1.76567 1.03172 0
M  V30 13799 H 1263.97 -3.86246 -0.298735 0
M  V30 13800 H 1264.38 -4.99369 1.60408 0
M  V30 13801 H 1265.86 -5.51995 -0.0231262 0
M  V30 13802 H 1266.33 -4.2419 -1.13839 0
M  V30 13803 H 1266.94 -4.21939 0.533661 0
M  V30 13804 N 1265.25 -0.510493 -1.49103 0
M  V30 13805 C 1266.67 -0.167061 -1.58723 0
M  V30 13806 C 1266.87 1.32886 -1.51471 0
M  V30 13807 O 1265.93 2.10559 -1.39359 0
M  V30 13808 C 1267.24 -0.752293 -2.91137 0
M  V30 13809 C 1268.79 -0.719258 -3.04624 0
M  V30 13810 C 1269.26 -1.28272 -4.39671 0
M  V30 13811 N 1270.75 -1.24383 -4.46187 0
M  V30 13812 C 1271.49 -1.6499 -5.4915 0
M  V30 13813 N 1270.98 -2.13235 -6.59168 0
M  V30 13814 N 1272.78 -1.56348 -5.39918 0
M  V30 13815 H 1264.93 -1.48296 -1.5206 0
M  V30 13816 H 1267.19 -0.615683 -0.72086 0
M  V30 13817 H 1266.9 -1.80178 -3.02041 0
M  V30 13818 H 1266.77 -0.218152 -3.76569 0
M  V30 13819 H 1269.16 0.321413 -2.93344 0
M  V30 13820 H 1269.24 -1.29065 -2.20852 0
M  V30 13821 H 1268.88 -2.32222 -4.51703 0
M  V30 13822 H 1268.81 -0.687179 -5.22097 0
M  V30 13823 H 1271.3 -0.890446 -3.67259 0
M  V30 13824 H 1271.62 -2.42266 -7.33844 0
M  V30 13825 H 1269.96 -2.17216 -6.60183 0
M  V30 13826 H 1273.15 -1.18469 -4.52861 0
M  V30 13827 H 1273.33 -1.88317 -6.20033 0
M  V30 13828 N 1266.73 1.55688 -0.24474 0
M  V30 13829 C 1267.66 2.24272 0.64995 0
M  V30 13830 C 1268.64 1.22226 1.183 0
M  V30 13831 O 1269.83 1.50873 1.22274 0
M  V30 13832 C 1266.96 2.94053 1.84798 0
M  V30 13833 C 1265.91 4.02769 1.44779 0
M  V30 13834 C 1265.24 4.59965 2.72647 0
M  V30 13835 C 1266.54 5.18601 0.62047 0
M  V30 13836 H 1268.23 2.99298 0.0780654 0
M  V30 13837 H 1265.78 1.43955 0.0361069 0
M  V30 13838 H 1267.73 3.40732 2.47951 0
M  V30 13839 H 1266.45 2.16511 2.44521 0
M  V30 13840 H 1265.11 3.56856 0.839609 0
M  V30 13841 H 1264.76 3.79126 3.30564 0
M  V30 13842 H 1264.46 5.33352 2.46596 0
M  V30 13843 H 1265.99 5.09376 3.36703 0
M  V30 13844 H 1267.4 5.61519 1.15625 0
M  V30 13845 H 1265.8 5.98364 0.456097 0
M  V30 13846 H 1266.87 4.83503 -0.367798 0
M  V30 13847 N 1268.21 -0.0283989 1.57574 0
M  V30 13848 C 1269.63 -0.384054 1.5491 0
M  V30 13849 C 1269.83 -1.76564 0.970947 0
M  V30 13850 O 1268.88 -2.45455 0.592288 0
M  V30 13851 C 1270.19 -0.285297 2.99344 0
M  V30 13852 C 1271.74 -0.36233 3.10896 0
M  V30 13853 C 1272.22 -0.293014 4.57062 0
M  V30 13854 N 1273.71 -0.351788 4.61862 0
M  V30 13855 C 1274.44 -0.321054 5.725 0
M  V30 13856 N 1273.94 -0.242573 6.92375 0
M  V30 13857 N 1275.73 -0.370832 5.60875 0
M  V30 13858 H 1267.88 0.87573 1.93506 0
M  V30 13859 H 1270.15 0.33305 0.887571 0
M  V30 13860 H 1269.85 0.664146 3.45372 0
M  V30 13861 H 1269.73 -1.07869 3.61447 0
M  V30 13862 H 1272.11 -1.30221 2.64814 0
M  V30 13863 H 1272.19 0.460422 2.51622 0
M  V30 13864 H 1271.84 0.643197 5.03811 0
M  V30 13865 H 1271.77 -1.13388 5.14248 0
M  V30 13866 H 1274.26 -0.414929 3.75615 0
M  V30 13867 H 1274.57 -0.224239 7.72475 0
M  V30 13868 H 1272.92 -0.208612 6.94687 0
M  V30 13869 H 1276.11 -0.430141 4.6612 0
M  V30 13870 H 1276.28 -0.343412 6.47089 0
M  V30 13871 N 1269.69 -1.54705 -0.300681 0
M  V30 13872 C 1270.6 -1.88736 -1.39341 0
M  V30 13873 C 1271.61 -0.78155 -1.5546 0
M  V30 13874 O 1272.79 -1.07804 -1.70118 0
M  V30 13875 C 1269.85 -2.12795 -2.73713 0
M  V30 13876 C 1268.92 -3.36504 -2.66577 0
M  V30 13877 C 1268.15 -3.59407 -3.94541 0
M  V30 13878 O 1268.37 -2.85315 -4.93914 0
M  V30 13879 O 1267.31 -4.52923 -3.96415 0
M  V30 13880 H 1271.13 -2.817 -1.13484 0
M  V30 13881 H 1268.72 -1.40899 -0.496771 0
M  V30 13882 H 1270.6 -2.29819 -3.53215 0
M  V30 13883 H 1269.27 -1.23017 -2.99414 0
M  V30 13884 H 1268.18 -3.24844 -1.85546 0
M  V30 13885 H 1269.51 -4.26414 -2.45829 0
M  V30 13886 N 1271.17 0.563888 -1.47167 0
M  V30 13887 C 1272.41 1.32331 -1.53676 0
M  V30 13888 C 1272.75 1.93213 -0.195593 0
M  V30 13889 O 1272.02 1.77508 0.795068 0
M  V30 13890 C 1272.3 2.43848 -2.64972 0
M  V30 13891 C 1272.16 1.8788 -4.08682 0
M  V30 13892 C 1273.48 3.45809 -2.72221 0
M  V30 13893 H 1270.59 0.479791 -0.559437 0
M  V30 13894 H 1273.24 0.631669 -1.79192 0
M  V30 13895 H 1271.39 3.02846 -2.43345 0
M  V30 13896 H 1273.06 1.33195 -4.41652 0
M  V30 13897 H 1271.3 1.18593 -4.17275 0
M  V30 13898 H 1271.97 2.68465 -4.82318 0
M  V30 13899 H 1274.45 2.9672 -2.91713 0
M  V30 13900 H 1273.32 4.21272 -3.51882 0
M  V30 13901 H 1273.59 4.04236 -1.79014 0
M  V30 13902 N 1272.64 1.35187 0.810078 0
M  V30 13903 C 1273.87 1.31528 1.60359 0
M  V30 13904 C 1274.29 -0.105385 1.87805 0
M  V30 13905 O 1273.65 -1.07113 1.46276 0
M  V30 13906 C 1273.7 2.12429 2.91386 0
M  V30 13907 O 1272.8 1.50262 3.84051 0
M  V30 13908 H 1272.15 0.451122 0.487222 0
M  V30 13909 H 1274.68 1.78178 1.00568 0
M  V30 13910 H 1274.69 2.24257 3.40841 0
M  V30 13911 H 1273.36 3.15714 2.70735 0
M  V30 13912 H 1271.94 1.47253 3.42594 0
M  V30 13913 N 1274.12 -1.03182 1.19127 0
M  V30 13914 C 1275.05 -2.13301 0.94999 0
M  V30 13915 C 1276.03 -1.69707 -0.115577 0
M  V30 13916 O 1277.22 -1.94161 0.0388395 0
M  V30 13917 C 1274.35 -3.43902 0.484637 0
M  V30 13918 C 1273.3 -4.01164 1.4917 0
M  V30 13919 C 1272.63 -5.2735 0.883537 0
M  V30 13920 C 1273.93 -4.36311 2.87107 0
M  V30 13921 H 1275.62 -2.33743 1.87095 0
M  V30 13922 H 1273.17 -1.12332 0.900977 0
M  V30 13923 H 1275.12 -4.20308 0.30315 0
M  V30 13924 H 1273.85 -3.23173 -0.471909 0
M  V30 13925 H 1272.5 -3.26849 1.66028 0
M  V30 13926 H 1272.15 -5.02936 -0.0804712 0
M  V30 13927 H 1271.85 -5.66624 1.55599 0
M  V30 13928 H 1273.38 -6.06425 0.71278 0
M  V30 13929 H 1274.79 -5.03666 2.73848 0
M  V30 13930 H 1273.19 -4.86659 3.51117 0
M  V30 13931 H 1274.26 -3.45743 3.39985 0
M  V30 13932 N 1275.6 -0.99472 -1.22242 0
M  V30 13933 C 1276.51 -0.555502 -2.27928 0
M  V30 13934 C 1277.53 0.396584 -1.6942 0
M  V30 13935 O 1278.7 0.262965 -1.99676 0
M  V30 13936 C 1275.77 0.121121 -3.46488 0
M  V30 13937 C 1274.83 -0.874155 -4.20306 0
M  V30 13938 C 1274.06 -0.229726 -5.33205 0
M  V30 13939 O 1274.28 0.975935 -5.61989 0
M  V30 13940 O 1273.22 -0.935501 -5.94586 0
M  V30 13941 H 1277.04 -1.4348 -2.6767 0
M  V30 13942 H 1274.63 -0.763061 -1.28444 0
M  V30 13943 H 1276.51 0.500043 -4.18423 0
M  V30 13944 H 1275.19 0.974959 -3.08668 0
M  V30 13945 H 1274.09 -1.30404 -3.50636 0
M  V30 13946 H 1275.43 -1.69725 -4.62011 0
M  V30 13947 N 1277.08 1.37613 -0.768148 0
M  V30 13948 C 1278.03 2.27654 -0.125596 0
M  V30 13949 C 1279.01 1.45923 0.677883 0
M  V30 13950 O 1280.2 1.68515 0.541448 0
M  V30 13951 C 1277.33 3.34884 0.7555 0
M  V30 13952 C 1276.42 4.24064 -0.0556137 0
M  V30 13953 N 1276.81 4.93707 -1.09943 0
M  V30 13954 C 1275.11 4.4568 0.168932 0
M  V30 13955 C 1275.81 5.59508 -1.59142 0
M  V30 13956 N 1274.79 5.36027 -0.904208 0
M  V30 13957 H 1278.59 2.7897 -0.924828 0
M  V30 13958 H 1276.1 1.50687 -0.605561 0
M  V30 13959 H 1278.1 3.98294 1.23157 0
M  V30 13960 H 1276.76 2.85124 1.55352 0
M  V30 13961 H 1277.77 4.96258 -1.48151 0
M  V30 13962 H 1274.45 4.068 0.939144 0
M  V30 13963 H 1275.84 6.2518 -2.4617 0
M  V30 13964 N 1278.56 0.518393 1.4883 0
M  V30 13965 C 1279.47 -0.254811 2.33212 0
M  V30 13966 C 1280.48 -0.950401 1.45751 0
M  V30 13967 O 1281.66 -0.927932 1.78749 0
M  V30 13968 C 1278.72 -1.29509 3.21603 0
M  V30 13969 C 1277.78 -0.611086 4.24928 0
M  V30 13970 C 1277.02 -1.6018 5.09095 0
M  V30 13971 O 1277.24 -2.83336 4.95052 0
M  V30 13972 O 1276.17 -1.14756 5.90859 0
M  V30 13973 H 1280 0.436329 3.00549 0
M  V30 13974 H 1277.59 0.27947 1.46763 0
M  V30 13975 H 1279.47 -1.89654 3.7631 0
M  V30 13976 H 1278.14 -1.96884 2.5694 0
M  V30 13977 H 1277.05 0.0305638 3.74088 0
M  V30 13978 H 1278.38 0.0205249 4.92196 0
M  V30 13979 N 1280.03 -1.55556 0.252993 0
M  V30 13980 C 1280.94 -2.25283 -0.654581 0
M  V30 13981 C 1281.96 -1.27103 -1.18831 0
M  V30 13982 O 1283.14 -1.59993 -1.22329 0
M  V30 13983 C 1280.2 -2.94336 -1.83214 0
M  V30 13984 C 1279.26 -4.0794 -1.33728 0
M  V30 13985 C 1278.5 -4.73691 -2.45871 0
M  V30 13986 O 1278.72 -4.38545 -3.64738 0
M  V30 13987 O 1277.65 -5.62083 -2.15283 0
M  V30 13988 H 1281.48 -3.03565 -0.0904091 0
M  V30 13989 H 1279.06 -1.49385 0.0212535 0
M  V30 13990 H 1280.95 -3.37808 -2.5192 0
M  V30 13991 H 1279.62 -2.18989 -2.38381 0
M  V30 13992 H 1278.53 -3.68971 -0.617323 0
M  V30 13993 H 1279.86 -4.85124 -0.831617 0
M  V30 13994 N 1281.51 0.0200419 -1.57587 0
M  V30 13995 C 1282.44 1.0456 -2.0396 0
M  V30 13996 C 1283.46 1.31922 -0.953962 0
M  V30 13997 O 1284.65 1.2925 -1.23112 0
M  V30 13998 C 1281.75 2.38514 -2.40758 0
M  V30 13999 C 1280.92 2.3038 -3.71812 0
M  V30 14000 C 1279.98 3.46856 -3.95698 0
M  V30 14001 O 1279 3.25944 -4.66636 0
M  V30 14002 N 1280.21 4.69033 -3.42036 0
M  V30 14003 H 1282.97 0.650282 -2.9256 0
M  V30 14004 H 1280.53 0.207818 -1.60561 0
M  V30 14005 H 1282.52 3.15172 -2.53868 0
M  V30 14006 H 1281.09 2.69859 -1.57781 0
M  V30 14007 H 1280.31 1.38762 -3.6897 0
M  V30 14008 H 1281.6 2.22097 -4.57767 0
M  V30 14009 H 1281 4.88923 -2.84553 0
M  V30 14010 H 1279.56 5.43025 -3.6051 0
M  V30 14011 N 1282.99 1.54862 0.292472 0
M  V30 14012 C 1283.94 1.86403 1.36098 0
M  V30 14013 C 1284.91 0.713694 1.49985 0
M  V30 14014 O 1286.09 0.963134 1.64707 0
M  V30 14015 C 1283.23 2.1244 2.71962 0
M  V30 14016 C 1282.35 3.40038 2.66454 0
M  V30 14017 C 1281.48 3.55875 3.94368 0
M  V30 14018 C 1280.52 4.77235 3.83293 0
M  V30 14019 N 1279.66 4.89832 5.03 0
M  V30 14020 H 1284.5 2.77546 1.085 0
M  V30 14021 H 1282.03 1.37427 0.524607 0
M  V30 14022 H 1283.99 2.25533 3.50985 0
M  V30 14023 H 1282.62 1.24554 2.97802 0
M  V30 14024 H 1281.67 3.35521 1.79248 0
M  V30 14025 H 1282.99 4.29188 2.54163 0
M  V30 14026 H 1282.14 3.68679 4.8183 0
M  V30 14027 H 1280.88 2.64874 4.09503 0
M  V30 14028 H 1279.88 4.64455 2.94214 0
M  V30 14029 H 1281.11 5.69651 3.69695 0
M  V30 14030 H 1279.05 4.01756 5.18582 0
M  V30 14031 H 1278.97 5.72996 4.93165 0
M  V30 14032 H 1280.24 5.07001 5.92089 0
M  V30 14033 N 1284.47 -0.556076 1.47464 0
M  V30 14034 C 1285.4 -1.67275 1.62915 0
M  V30 14035 C 1286.38 -1.63229 0.478562 0
M  V30 14036 O 1287.56 -1.80833 0.708032 0
M  V30 14037 C 1284.69 -3.05911 1.64426 0
M  V30 14038 C 1283.65 -3.24804 2.78722 0
M  V30 14039 C 1282.97 -4.64238 2.65307 0
M  V30 14040 C 1284.27 -3.10071 4.20302 0
M  V30 14041 H 1285.97 -1.54601 2.56396 0
M  V30 14042 H 1283.51 -0.742337 1.23391 0
M  V30 14043 H 1285.47 -3.83878 1.73826 0
M  V30 14044 H 1284.19 -3.19547 0.675053 0
M  V30 14045 H 1282.85 -2.49246 2.68835 0
M  V30 14046 H 1282.5 -4.74675 1.66412 0
M  V30 14047 H 1282.2 -4.77828 3.41986 0
M  V30 14048 H 1283.72 -5.44339 2.76637 0
M  V30 14049 H 1285.14 -3.77855 4.3116 0
M  V30 14050 H 1283.53 -3.3517 4.97776 0
M  V30 14051 H 1284.6 -2.06803 4.38589 0
M  V30 14052 N 1285.95 -1.35615 -0.802897 0
M  V30 14053 C 1286.86 -1.3096 -1.94645 0
M  V30 14054 C 1287.87 -0.213909 -1.7268 0
M  V30 14055 O 1289.05 -0.443932 -1.96446 0
M  V30 14056 C 1286.11 -1.08483 -3.2929 0
M  V30 14057 C 1285.18 -2.27401 -3.64126 0
M  V30 14058 C 1284.41 -2.05987 -4.92347 0
M  V30 14059 O 1284.63 -1.02819 -5.61057 0
M  V30 14060 O 1283.57 -2.93439 -5.25526 0
M  V30 14061 H 1287.39 -2.27209 -2.01519 0
M  V30 14062 H 1284.98 -1.16024 -0.941214 0
M  V30 14063 H 1286.86 -0.978118 -4.09891 0
M  V30 14064 H 1285.53 -0.152885 -3.23339 0
M  V30 14065 H 1284.44 -2.43638 -2.83886 0
M  V30 14066 H 1285.77 -3.19055 -3.74786 0
M  V30 14067 N 1287.43 1.02549 -1.19673 0
M  V30 14068 C 1288.36 2.12794 -0.961289 0
M  V30 14069 C 1289.34 1.69766 0.106575 0
M  V30 14070 O 1290.52 1.94138 -0.0491358 0
M  V30 14071 C 1287.65 3.4364 -0.502868 0
M  V30 14072 C 1286.61 4.00367 -1.51296 0
M  V30 14073 C 1285.93 5.26874 -0.911491 0
M  V30 14074 C 1287.23 4.34782 -2.89416 0
M  V30 14075 H 1288.93 2.32748 -1.88331 0
M  V30 14076 H 1286.47 1.11852 -0.906922 0
M  V30 14077 H 1288.42 4.20141 -0.325436 0
M  V30 14078 H 1287.15 3.23418 0.454764 0
M  V30 14079 H 1285.81 3.25964 -1.67759 0
M  V30 14080 H 1285.46 5.02971 0.0537982 0
M  V30 14081 H 1285.16 5.65791 -1.58602 0
M  V30 14082 H 1286.68 6.06039 -0.74493 0
M  V30 14083 H 1288.09 5.02207 -2.76516 0
M  V30 14084 H 1286.49 4.8479 -3.53693 0
M  V30 14085 H 1287.56 3.43935 -3.41814 0
M  V30 14086 N 1288.9 1.00119 1.21713 0
M  V30 14087 C 1289.85 0.558388 2.23943 0
M  V30 14088 C 1290.82 -0.413576 1.60869 0
M  V30 14089 O 1292.01 -0.316478 1.88157 0
M  V30 14090 C 1289.15 -0.112618 3.44916 0
M  V30 14091 C 1288.26 0.902071 4.22477 0
M  V30 14092 C 1287.39 0.203722 5.30809 0
M  V30 14093 C 1286.43 1.20622 6.00097 0
M  V30 14094 N 1285.57 0.535607 7.00054 0
M  V30 14095 H 1290.41 1.43486 2.61182 0
M  V30 14096 H 1287.95 0.718572 1.28355 0
M  V30 14097 H 1289.9 -0.51865 4.13964 0
M  V30 14098 H 1288.53 -0.952827 3.08417 0
M  V30 14099 H 1287.59 1.42637 3.52645 0
M  V30 14100 H 1288.9 1.66513 4.70186 0
M  V30 14101 H 1288.05 -0.258614 6.06149 0
M  V30 14102 H 1286.79 -0.591773 4.84096 0
M  V30 14103 H 1285.8 1.6791 5.23532 0
M  V30 14104 H 1287.02 2.00273 6.48897 0
M  V30 14105 H 1284.97 -0.2403 6.5556 0
M  V30 14106 H 1284.88 1.23698 7.45812 0
M  V30 14107 H 1286.15 0.0963489 7.7944 0
M  V30 14108 N 1290.38 -1.37203 0.775435 0
M  V30 14109 C 1291.8 -1.52962 0.455488 0
M  V30 14110 C 1292 -1.73284 -1.02834 0
M  V30 14111 O 1291.05 -1.75631 -1.81411 0
M  V30 14112 C 1292.37 -2.72389 1.27377 0
M  V30 14113 C 1293.91 -2.86252 1.26604 0
M  V30 14114 C 1294.39 -4.08666 2.06775 0
M  V30 14115 N 1295.88 -4.15786 2.04148 0
M  V30 14116 C 1296.62 -5.09548 2.6296 0
M  V30 14117 N 1296.11 -6.08845 3.30574 0
M  V30 14118 N 1297.9 -5.02059 2.5277 0
M  V30 14119 H 1290.06 -1.22265 1.73681 0
M  V30 14120 H 1292.32 -0.595638 0.737509 0
M  V30 14121 H 1292.02 -2.63849 2.32544 0
M  V30 14122 H 1291.9 -3.66171 0.905467 0
M  V30 14123 H 1294.29 -2.94261 0.222345 0
M  V30 14124 H 1294.37 -1.93418 1.67401 0
M  V30 14125 H 1294.01 -4.01419 3.11168 0
M  V30 14126 H 1293.94 -5.00621 1.63358 0
M  V30 14127 H 1296.43 -3.44683 1.54926 0
M  V30 14128 H 1296.74 -6.76926 3.72815 0
M  V30 14129 H 1295.09 -6.09113 3.34674 0
M  V30 14130 H 1298.28 -4.23431 1.99559 0
M  V30 14131 H 1298.45 -5.74947 2.98898 0
M  V30 14132 N 1291.86 -0.526279 -1.48553 0
M  V30 14133 C 1292.79 0.275579 -2.27537 0
M  V30 14134 C 1293.8 0.90782 -1.35139 0
M  V30 14135 O 1294.99 0.786887 -1.6022 0
M  V30 14136 C 1292.09 1.40515 -3.08397 0
M  V30 14137 C 1291.27 0.875523 -4.28548 0
M  V30 14138 C 1290.33 1.88577 -4.91249 0
M  V30 14139 O 1289.35 1.44419 -5.50574 0
M  V30 14140 N 1290.55 3.21774 -4.83158 0
M  V30 14141 H 1293.32 -0.401803 -2.96994 0
M  V30 14142 H 1290.88 -0.360378 -1.57838 0
M  V30 14143 H 1292.87 2.07907 -3.47213 0
M  V30 14144 H 1291.44 1.98626 -2.41384 0
M  V30 14145 H 1290.66 0.025728 -3.94192 0
M  V30 14146 H 1291.95 0.500493 -5.06332 0
M  V30 14147 H 1291.35 3.60319 -4.36104 0
M  V30 14148 H 1289.9 3.84808 -5.26085 0
M  V30 14149 N 1293.34 1.5542 -0.261239 0
M  V30 14150 C 1294.27 2.24949 0.626126 0
M  V30 14151 C 1295.25 1.23474 1.16997 0
M  V30 14152 O 1296.43 1.52161 1.20667 0
M  V30 14153 C 1293.56 2.95996 1.81669 0
M  V30 14154 C 1292.52 4.04282 1.40499 0
M  V30 14155 C 1291.84 4.62831 2.67753 0
M  V30 14156 C 1293.14 5.1923 0.56543 0
M  V30 14157 H 1294.84 2.99364 0.0463164 0
M  V30 14158 H 1292.38 1.43985 0.0208366 0
M  V30 14159 H 1294.34 3.43343 2.44323 0
M  V30 14160 H 1293.06 2.19093 2.42211 0
M  V30 14161 H 1291.72 3.57726 0.801712 0
M  V30 14162 H 1291.37 3.82611 3.26524 0
M  V30 14163 H 1291.07 5.35938 2.40925 0
M  V30 14164 H 1292.59 5.12918 3.31281 0
M  V30 14165 H 1294.01 5.62714 1.09663 0
M  V30 14166 H 1292.4 5.98814 0.392607 0
M  V30 14167 H 1293.47 4.83086 -0.419059 0
M  V30 14168 N 1294.82 -0.0116844 1.57596 0
M  V30 14169 C 1296.04 -0.71026 1.94327 0
M  V30 14170 C 1296.46 -1.67952 0.862418 0
M  V30 14171 O 1295.82 -1.818 -0.159698 0
M  V30 14172 C 1295.87 -1.45228 3.31045 0
M  V30 14173 O 1295.59 -0.52191 4.3498 0
M  V30 14174 C 1297.09 -2.24644 3.82165 0
M  V30 14175 H 1294.31 -0.198559 0.640949 0
M  V30 14176 H 1296.85 0.0359615 2.04468 0
M  V30 14177 H 1295.01 -2.15023 3.22248 0
M  V30 14178 H 1295.42 -1.04415 5.14002 0
M  V30 14179 H 1296.9 -2.72078 4.80289 0
M  V30 14180 H 1297.37 -3.06817 3.14261 0
M  V30 14181 H 1297.98 -1.59888 3.94101 0
M  V30 14182 N 1296.29 -1.55015 -0.284256 0
M  V30 14183 C 1297.2 -1.90203 -1.37332 0
M  V30 14184 C 1298.22 -0.797994 -1.54622 0
M  V30 14185 O 1299.4 -1.09602 -1.68965 0
M  V30 14186 C 1296.46 -2.15687 -2.71441 0
M  V30 14187 C 1295.52 -3.39313 -2.62993 0
M  V30 14188 C 1294.75 -3.63571 -3.90707 0
M  V30 14189 O 1294.98 -2.90538 -4.9086 0
M  V30 14190 O 1293.91 -4.57102 -3.91589 0
M  V30 14191 H 1297.74 -2.82888 -1.1049 0
M  V30 14192 H 1295.32 -1.41418 -0.481798 0
M  V30 14193 H 1297.2 -2.33553 -3.50758 0
M  V30 14194 H 1295.88 -1.26185 -2.98092 0
M  V30 14195 H 1294.79 -3.26793 -1.82091 0
M  V30 14196 H 1296.12 -4.28997 -2.41293 0
M  V30 14197 N 1297.77 0.548248 -1.47757 0
M  V30 14198 C 1298.7 1.66409 -1.63799 0
M  V30 14199 C 1299.68 1.62973 -0.487211 0
M  V30 14200 O 1300.87 1.80455 -0.717612 0
M  V30 14201 C 1298 3.05035 -1.66046 0
M  V30 14202 C 1296.95 3.23322 -2.80441 0
M  V30 14203 C 1296.28 4.62824 -2.67765 0
M  V30 14204 C 1297.58 3.07837 -4.2194 0
M  V30 14205 H 1299.27 1.53239 -2.57212 0
M  V30 14206 H 1296.82 0.735783 -1.23783 0
M  V30 14207 H 1298.77 3.82951 -1.75859 0
M  V30 14208 H 1297.49 3.19185 -0.69199 0
M  V30 14209 H 1296.15 2.47816 -2.70153 0
M  V30 14210 H 1295.8 4.73786 -1.68927 0
M  V30 14211 H 1295.5 4.76007 -3.44515 0
M  V30 14212 H 1297.03 5.42864 -2.7952 0
M  V30 14213 H 1298.44 3.75563 -4.33157 0
M  V30 14214 H 1296.84 3.32525 -4.99547 0
M  V30 14215 H 1297.91 2.04474 -4.3968 0
M  V30 14216 N 1299.25 1.36039 0.795694 0
M  V30 14217 C 1300.18 1.25713 1.91648 0
M  V30 14218 C 1301.19 0.177993 1.61824 0
M  V30 14219 O 1302.38 0.432186 1.73189 0
M  V30 14220 C 1299.48 0.915546 3.26299 0
M  V30 14221 C 1298.66 2.09528 3.83949 0
M  V30 14222 C 1297.72 1.72775 4.97026 0
M  V30 14223 O 1296.74 2.44786 5.13876 0
M  V30 14224 N 1297.94 0.65775 5.76762 0
M  V30 14225 H 1300.71 2.22277 2.01029 0
M  V30 14226 H 1298.27 1.2935 0.973657 0
M  V30 14227 H 1300.26 0.650958 3.9943 0
M  V30 14228 H 1298.83 0.0392343 3.12575 0
M  V30 14229 H 1298.05 2.52304 3.0288 0
M  V30 14230 H 1299.34 2.88361 4.19196 0
M  V30 14231 H 1298.74 0.0596875 5.65669 0
M  V30 14232 H 1297.29 0.45297 6.50224 0
M  V30 14233 N 1300.73 -1.01913 1.20215 0
M  V30 14234 C 1301.66 -2.12282 0.97256 0
M  V30 14235 C 1302.64 -1.6982 -0.0975709 0
M  V30 14236 O 1303.82 -1.94109 0.0594307 0
M  V30 14237 C 1300.95 -3.43369 0.521085 0
M  V30 14238 C 1299.91 -3.99559 1.53417 0
M  V30 14239 C 1299.23 -5.26383 0.93942 0
M  V30 14240 C 1300.53 -4.33241 2.91718 0
M  V30 14241 H 1302.23 -2.31746 1.89563 0
M  V30 14242 H 1299.77 -1.1137 0.912841 0
M  V30 14243 H 1301.73 -4.19963 0.347713 0
M  V30 14244 H 1300.45 -3.23655 -0.437605 0
M  V30 14245 H 1299.11 -3.25069 1.69486 0
M  V30 14246 H 1298.76 -5.02993 -0.0271236 0
M  V30 14247 H 1298.46 -5.64942 1.616 0
M  V30 14248 H 1299.98 -6.05635 0.777059 0
M  V30 14249 H 1301.4 -5.00734 2.79175 0
M  V30 14250 H 1299.79 -4.82907 3.56259 0
M  V30 14251 H 1300.86 -3.42118 3.43633 0
M  V30 14252 N 1302.21 -1.00763 -1.2118 0
M  V30 14253 C 1303.43 -0.710515 -1.9485 0
M  V30 14254 C 1303.86 0.720934 -1.73736 0
M  V30 14255 O 1303.21 1.49484 -1.02588 0
M  V30 14256 C 1303.26 -1.04035 -3.45267 0
M  V30 14257 O 1302.37 -0.147047 -4.12138 0
M  V30 14258 H 1301.71 -0.264472 -0.609057 0
M  V30 14259 H 1304.24 -1.34858 -1.53865 0
M  V30 14260 H 1304.25 -0.9883 -3.95849 0
M  V30 14261 H 1302.92 -2.08334 -3.59958 0
M  V30 14262 H 1301.5 -0.255847 -3.72021 0
M  V30 14263 N 1303.68 1.3679 -0.7827 0
M  V30 14264 C 1304.61 2.32721 -0.190604 0
M  V30 14265 C 1305.6 1.56321 0.670663 0
M  V30 14266 O 1306.78 1.84507 0.605871 0
M  V30 14267 C 1303.91 3.40564 0.680717 0
M  V30 14268 C 1302.86 4.27925 -0.080118 0
M  V30 14269 C 1302.19 5.26876 0.911361 0
M  V30 14270 C 1303.49 5.06738 -1.26545 0
M  V30 14271 H 1305.18 2.82488 -0.992023 0
M  V30 14272 H 1302.73 1.35818 -0.478484 0
M  V30 14273 H 1304.68 4.06659 1.10482 0
M  V30 14274 H 1303.41 2.89348 1.51477 0
M  V30 14275 H 1302.07 3.63376 -0.485125 0
M  V30 14276 H 1301.71 4.71936 1.74026 0
M  V30 14277 H 1301.41 5.8619 0.406762 0
M  V30 14278 H 1302.94 5.95846 1.33418 0
M  V30 14279 H 1304.35 5.65911 -0.917448 0
M  V30 14280 H 1302.75 5.75432 -1.70289 0
M  V30 14281 H 1303.82 4.38772 -2.06415 0
M  V30 14282 N 1305.16 0.53415 1.48272 0
M  V30 14283 C 1306.09 -0.263508 2.2768 0
M  V30 14284 C 1307.11 -0.90064 1.35618 0
M  V30 14285 O 1308.3 -0.778379 1.60635 0
M  V30 14286 C 1305.4 -1.38878 3.09138 0
M  V30 14287 C 1304.57 -0.852784 4.29006 0
M  V30 14288 C 1303.63 -1.85969 4.92242 0
M  V30 14289 O 1302.65 -1.41497 5.51332 0
M  V30 14290 N 1303.86 -3.19207 4.84858 0
M  V30 14291 H 1306.62 0.417548 2.96777 0
M  V30 14292 H 1304.18 0.368743 1.57645 0
M  V30 14293 H 1306.17 -2.06062 3.48311 0
M  V30 14294 H 1304.74 -1.97343 2.42434 0
M  V30 14295 H 1303.96 -0.0048227 3.942 0
M  V30 14296 H 1305.25 -0.473634 5.06591 0
M  V30 14297 H 1304.65 -3.58001 4.38009 0
M  V30 14298 H 1303.21 -3.82013 5.28119 0
M  V30 14299 N 1306.64 -1.55279 0.269478 0
M  V30 14300 C 1307.55 -2.25965 -0.63065 0
M  V30 14301 C 1308.57 -1.28357 -1.17476 0
M  V30 14302 O 1309.74 -1.61281 -1.20625 0
M  V30 14303 C 1306.81 -2.96263 -1.80081 0
M  V30 14304 C 1305.87 -4.09336 -1.29394 0
M  V30 14305 C 1305.1 -4.76272 -2.40833 0
M  V30 14306 O 1305.32 -4.42389 -3.60066 0
M  V30 14307 O 1304.26 -5.64334 -2.09309 0
M  V30 14308 H 1308.08 -3.03644 -0.0582069 0
M  V30 14309 H 1305.67 -1.49354 0.0370966 0
M  V30 14310 H 1307.55 -3.40461 -2.48322 0
M  V30 14311 H 1306.23 -2.21505 -2.36045 0
M  V30 14312 H 1305.13 -3.69605 -0.578154 0
M  V30 14313 H 1306.47 -4.85978 -0.780117 0
M  V30 14314 N 1308.12 0.00332656 -1.576 0
M  V30 14315 C 1309.53 0.359361 -1.55502 0
M  V30 14316 C 1309.73 1.74997 -0.998914 0
M  V30 14317 O 1308.79 2.44482 -0.631263 0
M  V30 14318 C 1310.1 0.237638 -2.9976 0
M  V30 14319 C 1311.65 0.312824 -3.11433 0
M  V30 14320 C 1312.13 0.220262 -4.5747 0
M  V30 14321 N 1313.62 0.278265 -4.62363 0
M  V30 14322 C 1314.35 0.229933 -5.72939 0
M  V30 14323 N 1313.85 0.132391 -6.92673 0
M  V30 14324 N 1315.64 0.281555 -5.61394 0
M  V30 14325 H 1307.79 -0.906404 -1.92089 0
M  V30 14326 H 1310.06 -0.347129 -0.88216 0
M  V30 14327 H 1309.76 -0.719007 -3.44272 0
M  V30 14328 H 1309.64 1.02105 -3.63118 0
M  V30 14329 H 1312.02 1.25991 -2.66852 0
M  V30 14330 H 1312.1 -0.500395 -2.50858 0
M  V30 14331 H 1311.75 -0.723267 -5.02724 0
M  V30 14332 H 1311.68 1.05192 -5.15987 0
M  V30 14333 H 1314.17 0.35512 -3.76228 0
M  V30 14334 H 1314.48 0.101317 -7.72734 0
M  V30 14335 H 1312.83 0.0980665 -6.94931 0
M  V30 14336 H 1316.02 0.355931 -4.66745 0
M  V30 14337 H 1316.19 0.240423 -6.47554 0
M  V30 14338 N 1309.6 1.55164 0.276031 0
M  V30 14339 C 1310.51 1.90928 1.36321 0
M  V30 14340 C 1311.52 0.806183 1.54197 0
M  V30 14341 O 1312.7 1.10497 1.68382 0
M  V30 14342 C 1309.76 2.17123 2.70293 0
M  V30 14343 C 1308.82 3.40703 2.6119 0
M  V30 14344 C 1308.06 3.65638 3.88773 0
M  V30 14345 O 1308.28 2.93137 4.89313 0
M  V30 14346 O 1307.21 4.59172 3.89159 0
M  V30 14347 H 1311.04 2.8347 1.08988 0
M  V30 14348 H 1308.63 1.41672 0.474292 0
M  V30 14349 H 1310.51 2.3541 3.49514 0
M  V30 14350 H 1309.18 1.27765 2.97419 0
M  V30 14351 H 1308.09 3.27754 1.80355 0
M  V30 14352 H 1309.42 4.30271 2.39014 0
M  V30 14353 N 1311.07 -0.540404 1.48045 0
M  V30 14354 C 1312.3 -1.32656 1.59427 0
M  V30 14355 C 1312.72 -1.86419 0.250924 0
M  V30 14356 O 1312.08 -1.63861 -0.775838 0
M  V30 14357 C 1312.13 -2.46062 2.63602 0
M  V30 14358 O 1311.23 -3.48794 2.20038 0
M  V30 14359 H 1310.58 -0.393334 0.534962 0
M  V30 14360 H 1313.11 -0.651363 1.93955 0
M  V30 14361 H 1313.12 -2.92396 2.84549 0
M  V30 14362 H 1311.79 -2.06291 3.61133 0
M  V30 14363 H 1310.37 -3.0865 2.0926 0
M  V30 14364 N 1312.55 -1.36459 -0.788468 0
M  V30 14365 C 1313.48 -1.26727 -1.90979 0
M  V30 14366 C 1314.5 -0.186572 -1.61727 0
M  V30 14367 O 1315.69 -0.441364 -1.72957 0
M  V30 14368 C 1312.79 -0.932838 -3.25809 0
M  V30 14369 C 1311.96 -2.11562 -3.82832 0
M  V30 14370 C 1311.02 -1.75409 -4.96103 0
M  V30 14371 O 1310.04 -2.47508 -5.1257 0
M  V30 14372 N 1311.25 -0.688327 -5.76405 0
M  V30 14373 H 1314.01 -2.2334 -1.99848 0
M  V30 14374 H 1311.57 -1.29865 -0.966784 0
M  V30 14375 H 1313.56 -0.672131 -3.9908 0
M  V30 14376 H 1312.13 -0.0558103 -3.1255 0
M  V30 14377 H 1311.35 -2.53907 -3.01538 0
M  V30 14378 H 1312.64 -2.9058 -4.17661 0
M  V30 14379 H 1312.04 -0.0896854 -5.65629 0
M  V30 14380 H 1310.6 -0.487446 -6.49975 0
M  V30 14381 N 1314.03 1.01274 -1.20754 0
M  V30 14382 C 1314.96 2.11763 -0.983805 0
M  V30 14383 C 1315.94 1.69869 0.0885635 0
M  V30 14384 O 1317.13 1.94075 -0.0697239 0
M  V30 14385 C 1314.26 3.43087 -0.539287 0
M  V30 14386 C 1313.21 3.9874 -1.55534 0
M  V30 14387 C 1312.54 5.25877 -0.967322 0
M  V30 14388 C 1313.84 4.31688 -2.94012 0
M  V30 14389 H 1315.53 2.30737 -1.90789 0
M  V30 14390 H 1313.08 1.10884 -0.918734 0
M  V30 14391 H 1315.03 4.19773 -0.369979 0
M  V30 14392 H 1313.75 3.23883 0.420435 0
M  V30 14393 H 1312.41 3.24166 -1.71207 0
M  V30 14394 H 1312.06 5.03 0.000448307 0
M  V30 14395 H 1311.76 5.64077 -1.64594 0
M  V30 14396 H 1313.28 6.05215 -0.809167 0
M  V30 14397 H 1314.7 4.99246 -2.81827 0
M  V30 14398 H 1313.1 4.81011 -3.58815 0
M  V30 14399 H 1314.17 3.4029 -3.45442 0
M  V30 14400 N 1315.51 1.01404 1.20644 0
M  V30 14401 C 1316.74 0.72104 1.93929 0
M  V30 14402 C 1317.15 -0.717853 1.7462 0
M  V30 14403 O 1316.51 -1.48664 1.05855 0
M  V30 14404 C 1316.56 1.04399 3.46097 0
M  V30 14405 O 1316.28 2.42637 3.64773 0
M  V30 14406 C 1317.78 0.771678 4.36532 0
M  V30 14407 H 1315 0.264983 0.616462 0
M  V30 14408 H 1317.55 1.35453 1.53208 0
M  V30 14409 H 1315.7 0.455946 3.84708 0
M  V30 14410 H 1316.12 2.54201 4.58783 0
M  V30 14411 H 1317.59 1.04774 5.41965 0
M  V30 14412 H 1318.07 -0.294188 4.38214 0
M  V30 14413 H 1318.67 1.34176 4.0358 0
M  V30 14414 N 1316.99 -1.36373 0.789944 0
M  V30 14415 C 1317.95 -2.28372 0.194639 0
M  V30 14416 C 1318.95 -1.48849 -0.608332 0
M  V30 14417 O 1320.14 -1.68829 -0.42925 0
M  V30 14418 C 1317.27 -3.3298 -0.730553 0
M  V30 14419 H 1318.47 -2.82529 1.00585 0
M  V30 14420 H 1316.02 -1.45946 0.559406 0
M  V30 14421 H 1316.75 -2.8398 -1.56608 0
M  V30 14422 H 1316.54 -3.91787 -0.156706 0
M  V30 14423 H 1318.03 -4.01684 -1.14192 0
M  V30 14424 N 1318.47 -0.542005 -1.47987 0
M  V30 14425 C 1319.4 0.202703 -2.32618 0
M  V30 14426 C 1320.38 0.923521 -1.42846 0
M  V30 14427 O 1321.56 0.906957 -1.7172 0
M  V30 14428 C 1318.69 1.24267 -3.24307 0
M  V30 14429 C 1317.65 0.639257 -4.23199 0
M  V30 14430 C 1316.97 1.78275 -5.04105 0
M  V30 14431 C 1318.27 -0.396982 -5.20789 0
M  V30 14432 H 1319.97 -0.503817 -2.95131 0
M  V30 14433 H 1317.51 -0.243736 -1.41922 0
M  V30 14434 H 1319.46 1.7717 -3.82347 0
M  V30 14435 H 1318.19 1.97893 -2.59819 0
M  V30 14436 H 1316.85 0.131655 -3.66364 0
M  V30 14437 H 1316.5 2.50768 -4.36032 0
M  V30 14438 H 1316.2 1.38487 -5.71047 0
M  V30 14439 H 1317.72 2.31533 -5.65 0
M  V30 14440 H 1319.13 0.0454057 -5.73282 0
M  V30 14441 H 1317.53 -0.712911 -5.9585 0
M  V30 14442 H 1318.6 -1.29843 -4.67193 0
M  V30 14443 N 1319.94 1.55134 -0.277709 0
M  V30 14444 C 1320.88 2.20028 0.641913 0
M  V30 14445 C 1321.89 1.18578 1.11549 0
M  V30 14446 O 1323.08 1.45291 1.03695 0
M  V30 14447 C 1320.18 2.81443 1.88794 0
M  V30 14448 C 1319.35 4.08607 1.56074 0
M  V30 14449 C 1318.41 4.54045 2.6595 0
M  V30 14450 O 1317.44 5.19762 2.32026 0
M  V30 14451 N 1318.64 4.24403 3.96058 0
M  V30 14452 H 1321.4 2.99575 0.0864929 0
M  V30 14453 H 1318.96 1.61598 -0.0989178 0
M  V30 14454 H 1320.96 3.08784 2.616 0
M  V30 14455 H 1319.53 2.05873 2.35234 0
M  V30 14456 H 1318.75 3.88527 0.666388 0
M  V30 14457 H 1320.03 4.91455 1.31719 0
M  V30 14458 H 1319.43 3.71708 4.26439 0
M  V30 14459 H 1317.99 4.56509 4.65234 0
M  V30 14460 N 1321.42 0.00503138 1.57599 0
M  V30 14461 C 1322.38 -0.969628 2.0768 0
M  V30 14462 C 1323.38 -1.26933 0.987148 0
M  V30 14463 O 1324.57 -1.21368 1.24962 0
M  V30 14464 C 1321.71 -2.29312 2.52247 0
M  V30 14465 H 1322.9 -0.536342 2.95065 0
M  V30 14466 H 1320.45 -0.242543 1.54407 0
M  V30 14467 H 1321.19 -2.7732 1.6812 0
M  V30 14468 H 1320.97 -2.08878 3.31832 0
M  V30 14469 H 1322.46 -2.99221 2.91302 0
M  V30 14470 N 1322.9 -1.55308 -0.267798 0
M  V30 14471 C 1323.86 -1.87765 -1.31442 0
M  V30 14472 C 1324.86 -0.752571 -1.42102 0
M  V30 14473 O 1326.05 -1.02072 -1.41163 0
M  V30 14474 C 1323.18 -2.08754 -2.69508 0
M  V30 14475 H 1324.38 -2.8133 -1.03891 0
M  V30 14476 H 1321.93 -1.47879 -0.506111 0
M  V30 14477 H 1322.67 -1.17588 -3.02231 0
M  V30 14478 H 1322.45 -2.90674 -2.63156 0
M  V30 14479 H 1323.94 -2.3512 -3.4512 0
M  V30 14480 N 1324.38 0.532545 -1.4833 0
M  V30 14481 C 1325.79 0.860843 -1.34394 0
M  V30 14482 C 1325.99 1.98384 -0.353013 0
M  V30 14483 O 1325.05 2.5148 0.226688 0
M  V30 14484 C 1326.36 1.23079 -2.74358 0
M  V30 14485 C 1327.91 1.34082 -2.82827 0
M  V30 14486 C 1328.39 1.74421 -4.23487 0
M  V30 14487 N 1329.88 1.81528 -4.26148 0
M  V30 14488 C 1330.61 2.1412 -5.31921 0
M  V30 14489 N 1330.11 2.45154 -6.47975 0
M  V30 14490 N 1331.9 2.15104 -5.19314 0
M  V30 14491 H 1324.05 -0.208464 -2.11375 0
M  V30 14492 H 1326.31 -0.03062 -0.947505 0
M  V30 14493 H 1326.02 0.47926 -3.48419 0
M  V30 14494 H 1325.89 2.18151 -3.07718 0
M  V30 14495 H 1328.28 2.08311 -2.09022 0
M  V30 14496 H 1328.36 0.37137 -2.5309 0
M  V30 14497 H 1328.01 1.00752 -4.97807 0
M  V30 14498 H 1327.94 2.72411 -4.50666 0
M  V30 14499 H 1330.43 1.59832 -3.42436 0
M  V30 14500 H 1330.74 2.69121 -7.24426 0
M  V30 14501 H 1329.09 2.42679 -6.51254 0
M  V30 14502 H 1332.28 1.90315 -4.27666 0
M  V30 14503 H 1332.45 2.40173 -6.01848 0
M  V30 14504 N 1325.86 1.36875 0.78122 0
M  V30 14505 C 1326.82 1.31706 1.8758 0
M  V30 14506 C 1327.82 0.223044 1.59246 0
M  V30 14507 O 1329.01 0.478327 1.67504 0
M  V30 14508 C 1326.14 1.0437 3.2453 0
M  V30 14509 H 1327.33 2.29059 1.93576 0
M  V30 14510 H 1324.89 1.21766 0.979931 0
M  V30 14511 H 1325.62 0.0750941 3.24213 0
M  V30 14512 H 1325.41 1.83548 3.46486 0
M  V30 14513 H 1326.9 1.0338 4.04602 0
M  V30 14514 N 1327.33 -1.00632 1.21289 0
M  V30 14515 C 1328.3 -2.07543 0.972548 0
M  V30 14516 C 1329.3 -1.60703 -0.0559244 0
M  V30 14517 O 1330.49 -1.73255 0.181213 0
M  V30 14518 C 1327.62 -3.37696 0.466297 0
M  V30 14519 H 1328.81 -2.30298 1.92101 0
M  V30 14520 H 1326.36 -1.17588 1.02969 0
M  V30 14521 H 1327.1 -3.2062 -0.487148 0
M  V30 14522 H 1326.88 -3.73024 1.20813 0
M  V30 14523 H 1328.37 -4.16388 0.317962 0
M  V30 14524 N 1328.81 -1.02043 -1.20104 0
M  V30 14525 C 1329.74 -0.614421 -2.25271 0
M  V30 14526 C 1330.72 0.37242 -1.65973 0
M  V30 14527 O 1331.91 0.257005 -1.92492 0
M  V30 14528 C 1329.04 0.0442085 -3.47272 0
M  V30 14529 C 1327.99 -0.864019 -4.19188 0
M  V30 14530 C 1327.32 -0.0709551 -5.34653 0
M  V30 14531 C 1328.62 -2.17385 -4.74912 0
M  V30 14532 H 1330.31 -1.49355 -2.59487 0
M  V30 14533 H 1327.86 -0.719591 -1.24731 0
M  V30 14534 H 1329.81 0.339825 -4.20028 0
M  V30 14535 H 1328.53 0.958082 -3.12231 0
M  V30 14536 H 1327.19 -1.1437 -3.48303 0
M  V30 14537 H 1326.84 0.844688 -4.95857 0
M  V30 14538 H 1326.54 -0.67583 -5.83701 0
M  V30 14539 H 1328.07 0.218118 -6.1021 0
M  V30 14540 H 1329.48 -1.94034 -5.39466 0
M  V30 14541 H 1327.88 -2.72991 -5.34412 0
M  V30 14542 H 1328.95 -2.83427 -3.93443 0
M  V30 14543 N 1330.29 1.35952 -0.797165 0
M  V30 14544 C 1331.2 2.33726 -0.202271 0
M  V30 14545 C 1332.22 1.61415 0.649719 0
M  V30 14546 O 1333.39 1.93351 0.563686 0
M  V30 14547 C 1330.46 3.40612 0.64685 0
M  V30 14548 C 1329.52 4.28712 -0.224536 0
M  V30 14549 C 1328.75 5.30493 0.584153 0
M  V30 14550 O 1328.97 5.40599 1.81957 0
M  V30 14551 O 1327.91 6.01897 -0.0200239 0
M  V30 14552 H 1331.73 2.86383 -1.01087 0
M  V30 14553 H 1329.32 1.38557 -0.558768 0
M  V30 14554 H 1331.2 4.05944 1.1308 0
M  V30 14555 H 1329.88 2.90243 1.43321 0
M  V30 14556 H 1328.78 3.66394 -0.755415 0
M  V30 14557 H 1330.12 4.82454 -0.974603 0
M  V30 14558 N 1331.77 0.549846 1.47697 0
M  V30 14559 C 1332.99 0.0256819 2.07384 0
M  V30 14560 C 1333.42 -1.25525 1.4009 0
M  V30 14561 O 1332.78 -1.7501 0.473406 0
M  V30 14562 C 1332.82 -0.160835 3.60241 0
M  V30 14563 O 1331.93 -1.22509 3.93783 0
M  V30 14564 H 1331.27 0.0480204 0.662261 0
M  V30 14565 H 1333.8 0.763429 1.89823 0
M  V30 14566 H 1333.81 -0.377337 4.06251 0
M  V30 14567 H 1332.48 0.774774 4.0862 0
M  V30 14568 H 1331.06 -0.98967 3.59527 0
M  V30 14569 N 1333.25 -1.54984 0.285932 0
M  V30 14570 C 1334.18 -2.20365 -0.630236 0
M  V30 14571 C 1335.19 -1.19168 -1.10918 0
M  V30 14572 O 1336.38 -1.45839 -1.02923 0
M  V30 14573 C 1333.48 -2.8244 -1.87299 0
M  V30 14574 C 1332.65 -4.09429 -1.53905 0
M  V30 14575 C 1331.71 -4.55449 -2.63538 0
M  V30 14576 O 1330.74 -5.20985 -2.29267 0
M  V30 14577 N 1331.94 -4.26498 -3.93802 0
M  V30 14578 H 1334.71 -2.99617 -0.0706044 0
M  V30 14579 H 1332.27 -1.61543 0.107486 0
M  V30 14580 H 1334.26 -3.10167 -2.59959 0
M  V30 14581 H 1332.83 -2.07117 -2.34139 0
M  V30 14582 H 1332.05 -3.88875 -0.645774 0
M  V30 14583 H 1333.34 -4.92146 -1.29111 0
M  V30 14584 H 1332.73 -3.73964 -4.24461 0
M  V30 14585 H 1331.29 -4.5897 -4.62807 0
M  V30 14586 N 1334.72 -0.0133892 -1.57594 0
M  V30 14587 C 1335.65 0.972341 -2.12292 0
M  V30 14588 C 1336.64 1.34971 -1.03522 0
M  V30 14589 O 1337.82 1.4311 -1.31275 0
M  V30 14590 C 1334.95 2.25988 -2.63717 0
M  V30 14591 C 1333.9 2.02373 -3.77133 0
M  V30 14592 C 1333.23 3.37256 -4.14925 0
M  V30 14593 C 1334.53 1.37553 -5.03861 0
M  V30 14594 H 1336.22 0.516869 -2.94905 0
M  V30 14595 H 1333.77 0.247176 -1.41863 0
M  V30 14596 H 1335.72 2.95313 -3.00613 0
M  V30 14597 H 1334.45 2.73672 -1.78244 0
M  V30 14598 H 1333.11 1.3547 -3.40651 0
M  V30 14599 H 1332.75 3.82669 -3.26456 0
M  V30 14600 H 1332.45 3.22267 -4.91343 0
M  V30 14601 H 1333.98 4.07875 -4.5439 0
M  V30 14602 H 1335.39 1.96855 -5.38443 0
M  V30 14603 H 1333.79 1.33011 -5.85174 0
M  V30 14604 H 1334.86 0.346429 -4.83661 0
M  V30 14605 N 1336.2 1.55448 0.259558 0
M  V30 14606 C 1337.62 1.47588 0.607442 0
M  V30 14607 C 1337.82 0.701053 1.88911 0
M  V30 14608 O 1336.87 0.225305 2.51493 0
M  V30 14609 C 1338.19 2.91905 0.72192 0
M  V30 14610 C 1339.74 3.02201 0.815087 0
M  V30 14611 C 1340.21 4.47799 0.961231 0
M  V30 14612 N 1341.7 4.51684 1.02642 0
M  V30 14613 C 1342.44 5.61574 1.15854 0
M  V30 14614 N 1341.93 6.81301 1.257 0
M  V30 14615 N 1343.73 5.49344 1.1907 0
M  V30 14616 H 1335.88 2.04271 -0.581981 0
M  V30 14617 H 1338.14 0.926865 -0.199059 0
M  V30 14618 H 1337.85 3.51382 -0.149611 0
M  V30 14619 H 1337.72 3.41681 1.59793 0
M  V30 14620 H 1340.11 2.42813 1.67708 0
M  V30 14621 H 1340.19 2.55656 -0.0858102 0
M  V30 14622 H 1339.83 5.07794 0.103848 0
M  V30 14623 H 1339.76 4.92013 1.87698 0
M  V30 14624 H 1342.25 3.65446 0.962184 0
M  V30 14625 H 1342.57 7.60801 1.35652 0
M  V30 14626 H 1340.91 6.84087 1.2268 0
M  V30 14627 H 1344.1 4.54745 1.11018 0
M  V30 14628 H 1344.27 6.35025 1.29022 0
M  V30 14629 N 1337.68 -0.524672 1.4861 0
M  V30 14630 C 1338.61 -1.64481 1.59621 0
M  V30 14631 C 1339.63 -1.55557 0.480181 0
M  V30 14632 O 1340.81 -1.61921 0.751254 0
M  V30 14633 C 1337.91 -3.03158 1.51487 0
M  V30 14634 C 1337.09 -3.37509 2.78221 0
M  V30 14635 C 1336.15 -4.5549 2.63467 0
M  V30 14636 O 1335.17 -4.58448 3.37364 0
M  V30 14637 N 1336.37 -5.53986 1.73437 0
M  V30 14638 H 1339.14 -1.5547 2.56221 0
M  V30 14639 H 1336.7 -0.712059 1.45401 0
M  V30 14640 H 1338.69 -3.79969 1.39305 0
M  V30 14641 H 1337.26 -3.06219 0.628406 0
M  V30 14642 H 1336.48 -2.49824 3.04929 0
M  V30 14643 H 1337.77 -3.57246 3.62288 0
M  V30 14644 H 1337.17 -5.54378 1.12612 0
M  V30 14645 H 1335.73 -6.29993 1.6719 0
M  V30 14646 N 1339.16 -1.37287 -0.77395 0
M  V30 14647 C 1340.12 -1.32699 -1.86878 0
M  V30 14648 C 1341.12 -0.231486 -1.59125 0
M  V30 14649 O 1342.31 -0.487203 -1.67248 0
M  V30 14650 C 1339.44 -1.0609 -3.23972 0
M  V30 14651 H 1340.64 -2.30083 -1.92359 0
M  V30 14652 H 1338.19 -1.22284 -0.973459 0
M  V30 14653 H 1338.92 -0.0922868 -3.24169 0
M  V30 14654 H 1338.71 -1.85383 -3.45508 0
M  V30 14655 H 1340.2 -1.05524 -4.04048 0
M  V30 14656 N 1340.64 0.999871 -1.21821 0
M  V30 14657 C 1341.58 2.08864 -0.98206 0
M  V30 14658 C 1342.55 1.65835 0.0937677 0
M  V30 14659 O 1343.74 1.90722 -0.0544038 0
M  V30 14660 C 1340.88 3.40553 -0.558382 0
M  V30 14661 C 1339.99 3.96964 -1.70422 0
M  V30 14662 C 1339.13 5.16782 -1.2292 0
M  V30 14663 C 1338.17 5.65315 -2.34703 0
M  V30 14664 N 1337.3 6.76379 -1.88299 0
M  V30 14665 H 1342.14 2.28399 -1.9141 0
M  V30 14666 H 1339.68 1.11984 -0.953837 0
M  V30 14667 H 1341.64 4.16163 -0.293955 0
M  V30 14668 H 1340.27 3.2104 0.336656 0
M  V30 14669 H 1339.32 3.18291 -2.08315 0
M  V30 14670 H 1340.63 4.2897 -2.54531 0
M  V30 14671 H 1339.79 5.99657 -0.92174 0
M  V30 14672 H 1338.52 4.86383 -0.358222 0
M  V30 14673 H 1337.53 4.81033 -2.66246 0
M  V30 14674 H 1338.75 5.97742 -3.22306 0
M  V30 14675 H 1336.7 6.47775 -1.03552 0
M  V30 14676 H 1336.62 7.07666 -2.65978 0
M  V30 14677 H 1337.89 7.62776 -1.60601 0
M  V30 14678 N 1342.11 1.02678 1.19562 0
M  V30 14679 C 1343.34 0.741569 1.93154 0
M  V30 14680 C 1343.76 -0.699292 1.75372 0
M  V30 14681 O 1343.11 -1.47533 1.07426 0
M  V30 14682 C 1343.17 1.08064 3.4497 0
M  V30 14683 O 1342.89 2.46492 3.62179 0
M  V30 14684 C 1344.39 0.817935 4.35689 0
M  V30 14685 H 1341.61 0.271506 0.613617 0
M  V30 14686 H 1344.15 1.3707 1.51763 0
M  V30 14687 H 1342.31 0.496723 3.84202 0
M  V30 14688 H 1342.72 2.59053 4.56061 0
M  V30 14689 H 1344.19 1.10517 5.40823 0
M  V30 14690 H 1344.67 -0.247693 4.38501 0
M  V30 14691 H 1345.28 1.38449 4.02134 0
M  V30 14692 N 1343.59 -1.35528 0.804364 0
M  V30 14693 C 1344.5 -2.33616 0.214663 0
M  V30 14694 C 1345.52 -1.61757 -0.64115 0
M  V30 14695 O 1346.69 -1.93647 -0.553424 0
M  V30 14696 C 1343.76 -3.40951 -0.628778 0
M  V30 14697 C 1342.82 -4.28587 0.247269 0
M  V30 14698 C 1342.05 -5.30796 -0.556012 0
M  V30 14699 O 1342.28 -5.41557 -1.79088 0
M  V30 14700 O 1341.21 -6.01878 0.0519437 0
M  V30 14701 H 1345.04 -2.85843 1.02605 0
M  V30 14702 H 1342.62 -1.38259 0.566108 0
M  V30 14703 H 1344.5 -4.06538 -1.10926 0
M  V30 14704 H 1343.18 -2.90999 -1.4178 0
M  V30 14705 H 1342.09 -3.65988 0.774835 0
M  V30 14706 H 1343.42 -4.81931 1.00017 0
M  V30 14707 N 1345.07 -0.557671 -1.47404 0
M  V30 14708 C 1346 0.178019 -2.3282 0
M  V30 14709 C 1346.98 0.908318 -1.43818 0
M  V30 14710 O 1348.17 0.888693 -1.72673 0
M  V30 14711 C 1345.3 1.2082 -3.25607 0
M  V30 14712 C 1344.25 0.594335 -4.23853 0
M  V30 14713 C 1343.58 1.72919 -5.05968 0
M  V30 14714 C 1344.88 -0.452196 -5.20339 0
M  V30 14715 H 1346.57 -0.535091 -2.9458 0
M  V30 14716 H 1344.12 -0.258775 -1.41656 0
M  V30 14717 H 1346.07 1.73104 -3.84204 0
M  V30 14718 H 1344.79 1.95126 -2.61903 0
M  V30 14719 H 1343.45 0.0927898 -3.66483 0
M  V30 14720 H 1343.1 2.4613 -4.38668 0
M  V30 14721 H 1342.8 1.32422 -5.72484 0
M  V30 14722 H 1344.33 2.25527 -5.67424 0
M  V30 14723 H 1345.74 -0.0154011 -5.73298 0
M  V30 14724 H 1344.14 -0.776068 -5.95061 0
M  V30 14725 H 1345.21 -1.34791 -4.65789 0
M  V30 14726 N 1346.55 1.54831 -0.294147 0
M  V30 14727 C 1347.46 2.26939 0.594621 0
M  V30 14728 C 1348.48 1.30209 1.15419 0
M  V30 14729 O 1349.65 1.6318 1.18044 0
M  V30 14730 C 1346.72 2.9909 1.75345 0
M  V30 14731 C 1345.78 4.11342 1.22865 0
M  V30 14732 C 1345.01 4.80043 2.33225 0
M  V30 14733 O 1345.23 4.48062 3.52983 0
M  V30 14734 O 1344.17 5.67593 2.00304 0
M  V30 14735 H 1347.99 3.03698 0.00989235 0
M  V30 14736 H 1345.58 1.49276 -0.0608528 0
M  V30 14737 H 1347.46 3.44369 2.42875 0
M  V30 14738 H 1346.14 2.25232 2.32492 0
M  V30 14739 H 1345.04 3.70478 0.519279 0
M  V30 14740 H 1346.38 4.87158 0.702703 0
M  V30 14741 N 1348.03 0.0217466 1.57585 0
M  V30 14742 C 1348.94 -0.978407 2.13224 0
M  V30 14743 C 1349.95 -1.36212 1.08269 0
M  V30 14744 O 1351.13 -1.44504 1.40288 0
M  V30 14745 C 1348.19 -2.24462 2.6423 0
M  V30 14746 C 1347.26 -1.92201 3.83871 0
M  V30 14747 C 1346.49 -3.12786 4.32436 0
M  V30 14748 O 1346.71 -4.25201 3.8021 0
M  V30 14749 O 1345.65 -2.95514 5.24362 0
M  V30 14750 H 1349.47 -0.535347 2.98944 0
M  V30 14751 H 1347.06 -0.198414 1.48077 0
M  V30 14752 H 1348.94 -2.98809 2.97138 0
M  V30 14753 H 1347.61 -2.67964 1.81596 0
M  V30 14754 H 1346.52 -1.15262 3.55901 0
M  V30 14755 H 1347.85 -1.53521 4.67645 0
M  V30 14756 N 1349.51 -1.55583 -0.251311 0
M  V30 14757 C 1350.73 -1.81259 -0.997636 0
M  V30 14758 C 1351.15 -0.596861 -1.79117 0
M  V30 14759 O 1350.51 0.434425 -1.77254 0
M  V30 14760 C 1350.56 -3.05097 -1.93902 0
M  V30 14761 O 1350.28 -4.21976 -1.1776 0
M  V30 14762 C 1351.78 -3.4354 -2.8017 0
M  V30 14763 H 1349 -0.603279 -0.29376 0
M  V30 14764 H 1351.54 -2.02635 -0.27553 0
M  V30 14765 H 1349.7 -2.85784 -2.61546 0
M  V30 14766 H 1350.11 -4.92133 -1.81398 0
M  V30 14767 H 1351.59 -4.33305 -3.41981 0
M  V30 14768 H 1352.06 -2.63924 -3.51057 0
M  V30 14769 H 1352.67 -3.65189 -2.17985 0
M  V30 14770 N 1350.98 0.516783 -1.48886 0
M  V30 14771 C 1352.21 1.29628 -1.61258 0
M  V30 14772 C 1352.63 1.86744 -0.27786 0
M  V30 14773 O 1351.98 1.67061 0.734639 0
M  V30 14774 C 1352.03 2.43779 -2.66935 0
M  V30 14775 O 1351.76 1.89014 -3.95228 0
M  V30 14776 C 1353.26 3.35398 -2.89867 0
M  V30 14777 H 1350.48 0.393736 -0.543335 0
M  V30 14778 H 1353.02 0.622069 -1.94809 0
M  V30 14779 H 1351.18 3.0706 -2.36206 0
M  V30 14780 H 1351.59 2.63833 -4.53312 0
M  V30 14781 H 1353.06 4.11812 -3.6758 0
M  V30 14782 H 1353.54 3.91436 -1.99185 0
M  V30 14783 H 1354.15 2.77898 -3.21952 0
M  V30 14784 N 1352.46 1.37696 0.766659 0
M  V30 14785 C 1353.42 1.33688 1.86172 0
M  V30 14786 C 1354.42 0.239922 1.59 0
M  V30 14787 O 1355.61 0.496066 1.66988 0
M  V30 14788 C 1352.75 1.07807 3.23405 0
M  V30 14789 H 1353.94 2.311 1.91136 0
M  V30 14790 H 1351.49 1.22799 0.966961 0
M  V30 14791 H 1352.23 0.109477 3.24115 0
M  V30 14792 H 1352.01 1.87213 3.4452 0
M  V30 14793 H 1353.5 1.07665 4.03482 0
M  V30 14794 N 1353.94 -0.993397 1.22349 0
M  V30 14795 C 1354.85 -2.11771 1.00947 0
M  V30 14796 C 1355.87 -1.73949 -0.0420679 0
M  V30 14797 O 1357.04 -2.00837 0.150548 0
M  V30 14798 C 1354.11 -3.41654 0.589359 0
M  V30 14799 C 1353.17 -3.93579 1.71446 0
M  V30 14800 C 1352.4 -5.17264 1.3143 0
M  V30 14801 O 1352.62 -5.70074 0.192876 0
M  V30 14802 O 1351.56 -5.62929 2.13059 0
M  V30 14803 H 1355.38 -2.32708 1.95142 0
M  V30 14804 H 1352.97 -1.10144 1.00939 0
M  V30 14805 H 1354.85 -4.19813 0.365403 0
M  V30 14806 H 1353.53 -3.22077 -0.323738 0
M  V30 14807 H 1352.43 -3.16596 1.99294 0
M  V30 14808 H 1353.77 -4.17588 2.6054 0
M  V30 14809 N 1355.42 -1.03311 -1.19015 0
M  V30 14810 C 1356.38 -0.622114 -2.20596 0
M  V30 14811 C 1357.38 0.316502 -1.57654 0
M  V30 14812 O 1358.57 0.102932 -1.73896 0
M  V30 14813 C 1355.7 0.0890432 -3.40784 0
M  V30 14814 H 1356.9 -1.52095 -2.58471 0
M  V30 14815 H 1354.45 -0.824777 -1.32767 0
M  V30 14816 H 1355.18 1.00203 -3.08431 0
M  V30 14817 H 1354.97 -0.58547 -3.87704 0
M  V30 14818 H 1356.46 0.363366 -4.16016 0
M  V30 14819 N 1356.9 1.35099 -0.81154 0
M  V30 14820 C 1357.81 2.33499 -0.22705 0
M  V30 14821 C 1358.82 1.62095 0.632562 0
M  V30 14822 O 1360 1.93938 0.543147 0
M  V30 14823 C 1357.06 3.41279 0.610687 0
M  V30 14824 C 1356.12 4.2845 -0.269994 0
M  V30 14825 C 1355.36 5.31083 0.527854 0
M  V30 14826 O 1355.58 5.42499 1.76213 0
M  V30 14827 O 1354.51 6.01842 -0.083862 0
M  V30 14828 H 1358.34 2.85294 -1.04119 0
M  V30 14829 H 1355.92 1.37957 -0.573432 0
M  V30 14830 H 1357.81 4.07121 1.08768 0
M  V30 14831 H 1356.48 2.91746 1.40235 0
M  V30 14832 H 1355.39 3.65572 -0.794234 0
M  V30 14833 H 1356.72 4.81394 -1.02572 0
M  V30 14834 N 1358.37 0.56548 1.47106 0
M  V30 14835 C 1359.28 -0.180488 2.33905 0
M  V30 14836 C 1360.3 -0.90355 1.48701 0
M  V30 14837 O 1361.48 -0.870595 1.81611 0
M  V30 14838 C 1358.54 -1.19212 3.2556 0
M  V30 14839 C 1357.6 -0.475589 4.26658 0
M  V30 14840 C 1356.83 -1.43902 5.13934 0
M  V30 14841 O 1357.06 -2.67443 5.03816 0
M  V30 14842 O 1355.99 -0.958998 5.94211 0
M  V30 14843 H 1359.82 0.531726 2.99009 0
M  V30 14844 H 1357.4 0.32602 1.45799 0
M  V30 14845 H 1359.28 -1.77586 3.82153 0
M  V30 14846 H 1357.96 -1.8861 2.63074 0
M  V30 14847 H 1356.87 0.149561 3.73801 0
M  V30 14848 H 1358.2 0.177103 4.91881 0
M  V30 14849 N 1359.85 -1.54672 0.302354 0
M  V30 14850 C 1360.76 -2.27251 -0.582578 0
M  V30 14851 C 1361.78 -1.30819 -1.14727 0
M  V30 14852 O 1362.95 -1.63803 -1.17177 0
M  V30 14853 C 1360.02 -3.00016 -1.73757 0
M  V30 14854 C 1359.08 -4.11988 -1.20682 0
M  V30 14855 C 1358.31 -4.81273 -2.30676 0
M  V30 14856 O 1358.54 -4.49927 -3.50602 0
M  V30 14857 O 1357.47 -5.68647 -1.97291 0
M  V30 14858 H 1361.3 -3.03699 0.00621365 0
M  V30 14859 H 1358.88 -1.49242 0.0687684 0
M  V30 14860 H 1360.76 -3.45652 -2.41045 0
M  V30 14861 H 1359.44 -2.26462 -2.31294 0
M  V30 14862 H 1358.35 -3.70749 -0.499625 0
M  V30 14863 H 1359.68 -4.87524 -0.676858 0
M  V30 14864 N 1361.33 -0.0301034 -1.57571 0
M  V30 14865 C 1362.58 0.647672 -1.91019 0
M  V30 14866 C 1362.89 1.73234 -0.908265 0
M  V30 14867 O 1364.1 2.46682 -1.13402 0
M  V30 14868 C 1362.55 1.20327 -3.3919 0
M  V30 14869 C 1362.16 0.151833 -4.47743 0
M  V30 14870 C 1363.91 1.8575 -3.81703 0
M  V30 14871 C 1361.81 0.719119 -5.87012 0
M  V30 14872 H 1360.74 0.245682 -0.712851 0
M  V30 14873 H 1363.39 -0.0955645 -1.83251 0
M  V30 14874 H 1361.78 1.99814 -3.41892 0
M  V30 14875 H 1362.95 -0.620659 -4.56601 0
M  V30 14876 H 1361.27 -0.403699 -4.14438 0
M  V30 14877 H 1363.86 2.29151 -4.83109 0
M  V30 14878 H 1364.21 2.70061 -3.16817 0
M  V30 14879 H 1364.74 1.1295 -3.81428 0
M  V30 14880 H 1361.48 -0.0858832 -6.55444 0
M  V30 14881 H 1361 1.46008 -5.81758 0
M  V30 14882 H 1362.68 1.20856 -6.35612 0
M  V30 14883 N 1362.81 1.55714 0.243056 0
M  V30 14884 C 1363.74 1.87093 1.32396 0
M  V30 14885 C 1364.75 0.757482 1.44104 0
M  V30 14886 O 1365.94 1.03563 1.45386 0
M  V30 14887 C 1363.04 2.04546 2.70212 0
M  V30 14888 C 1362.22 3.3543 2.80723 0
M  V30 14889 C 1361.27 3.42578 3.99408 0
M  V30 14890 O 1360.3 4.15762 3.88755 0
M  V30 14891 N 1361.5 2.7215 5.12752 0
M  V30 14892 H 1364.27 2.80399 1.05813 0
M  V30 14893 H 1361.83 1.55998 0.433151 0
M  V30 14894 H 1363.82 2.06665 3.47954 0
M  V30 14895 H 1362.39 1.17966 2.89487 0
M  V30 14896 H 1361.61 3.45594 1.89626 0
M  V30 14897 H 1362.9 4.21692 2.84698 0
M  V30 14898 H 1362.3 2.1243 5.24299 0
M  V30 14899 H 1360.85 2.79957 5.88615 0
M  V30 14900 N 1364.29 -0.50888 1.49158 0
M  V30 14901 C 1365.25 -1.59354 1.64739 0
M  V30 14902 C 1366.25 -1.52175 0.519557 0
M  V30 14903 O 1367.44 -1.55468 0.785838 0
M  V30 14904 C 1364.57 -2.99002 1.63739 0
M  V30 14905 H 1365.76 -1.46871 2.61474 0
M  V30 14906 H 1363.32 -0.732532 1.38071 0
M  V30 14907 H 1364.05 -3.1697 0.685583 0
M  V30 14908 H 1363.84 -3.05622 2.45637 0
M  V30 14909 H 1365.33 -3.77822 1.77877 0
M  V30 14910 N 1365.76 -1.381 -0.759346 0
M  V30 14911 C 1366.69 -1.37578 -1.88665 0
M  V30 14912 C 1367.68 -0.242529 -1.68362 0
M  V30 14913 O 1368.86 -0.444751 -1.89039 0
M  V30 14914 C 1365.99 -1.19437 -3.26117 0
M  V30 14915 C 1364.94 -2.29905 -3.61009 0
M  V30 14916 C 1364.27 -1.96874 -4.97136 0
M  V30 14917 C 1365.57 -3.72143 -3.66479 0
M  V30 14918 H 1367.26 -2.31912 -1.89359 0
M  V30 14919 H 1364.81 -1.11632 -0.909631 0
M  V30 14920 H 1366.76 -1.17698 -4.0463 0
M  V30 14921 H 1365.49 -0.21562 -3.25887 0
M  V30 14922 H 1364.15 -2.3082 -2.84812 0
M  V30 14923 H 1363.79 -0.974979 -4.9346 0
M  V30 14924 H 1363.49 -2.70855 -5.21451 0
M  V30 14925 H 1365.02 -1.96744 -5.78035 0
M  V30 14926 H 1366.43 -3.73291 -4.35117 0
M  V30 14927 H 1364.83 -4.45282 -4.02299 0
M  V30 14928 H 1365.9 -4.04874 -2.66843 0
M  V30 14929 N 1367.24 0.986894 -1.22875 0
M  V30 14930 C 1368.47 1.76266 -1.08342 0
M  V30 14931 C 1368.89 1.85226 0.365602 0
M  V30 14932 O 1368.24 1.32675 1.25314 0
M  V30 14933 C 1368.29 3.19282 -1.69533 0
M  V30 14934 O 1368.01 3.10796 -3.08768 0
M  V30 14935 C 1369.52 4.13281 -1.60355 0
M  V30 14936 H 1366.74 0.553374 -0.379497 0
M  V30 14937 H 1369.28 1.24033 -1.62592 0
M  V30 14938 H 1367.43 3.68563 -1.19332 0
M  V30 14939 H 1367.85 4.0078 -3.38343 0
M  V30 14940 H 1369.32 5.11359 -2.07884 0
M  V30 14941 H 1369.8 4.356 -0.561182 0
M  V30 14942 H 1370.41 3.699 -2.09891 0
M  V30 14943 N 1368.72 1.0394 1.18466 0
M  V30 14944 C 1369.68 0.633804 2.20262 0
M  V30 14945 C 1370.68 -0.308136 1.5782 0
M  V30 14946 O 1371.87 -0.0937087 1.73948 0
M  V30 14947 C 1369.01 -0.0709693 3.40826 0
M  V30 14948 H 1370.2 1.53463 2.57661 0
M  V30 14949 H 1367.75 0.831806 1.32328 0
M  V30 14950 H 1368.49 -0.985659 3.08958 0
M  V30 14951 H 1368.27 0.606023 3.87388 0
M  V30 14952 H 1369.76 -0.341298 4.16203 0
M  V30 14953 N 1370.2 -1.34667 0.818693 0
M  V30 14954 C 1371.15 -2.27031 0.210001 0
M  V30 14955 C 1372.13 -1.48338 -0.623258 0
M  V30 14956 O 1373.32 -1.70409 -0.478531 0
M  V30 14957 C 1370.45 -3.37457 -0.63069 0
M  V30 14958 C 1369.54 -4.23565 0.212964 0
M  V30 14959 N 1369.93 -4.89286 1.28191 0
M  V30 14960 C 1368.23 -4.46 -0.00340477 0
M  V30 14961 C 1368.93 -5.53216 1.79798 0
M  V30 14962 N 1367.91 -5.32302 1.10253 0
M  V30 14963 H 1371.71 -2.75345 1.02773 0
M  V30 14964 H 1369.22 -1.48336 0.661071 0
M  V30 14965 H 1371.22 -4.0259 -1.0829 0
M  V30 14966 H 1369.88 -2.90694 -1.44663 0
M  V30 14967 H 1370.89 -4.90417 1.66467 0
M  V30 14968 H 1367.57 -4.10005 -0.787516 0
M  V30 14969 H 1368.96 -6.15613 2.69203 0
M  V30 14970 N 1371.68 -0.573274 -1.46804 0
M  V30 14971 C 1373.09 -0.23423 -1.57872 0
M  V30 14972 C 1373.29 1.26342 -1.56971 0
M  V30 14973 O 1372.35 2.04459 -1.48165 0
M  V30 14974 C 1373.66 -0.875097 -2.87685 0
M  V30 14975 C 1375.21 -0.847812 -3.01299 0
M  V30 14976 C 1375.68 -1.46804 -4.33835 0
M  V30 14977 N 1377.18 -1.43196 -4.4051 0
M  V30 14978 C 1377.91 -1.88133 -5.41658 0
M  V30 14979 N 1377.41 -2.41001 -6.49531 0
M  V30 14980 N 1379.2 -1.79107 -5.32801 0
M  V30 14981 H 1371.35 -1.54612 -1.45633 0
M  V30 14982 H 1373.61 -0.645703 -0.694098 0
M  V30 14983 H 1373.32 -1.92826 -2.94127 0
M  V30 14984 H 1373.19 -0.377671 -3.75305 0
M  V30 14985 H 1375.58 0.196707 -2.94444 0
M  V30 14986 H 1375.66 -1.38316 -2.1518 0
M  V30 14987 H 1375.31 -2.51171 -4.41447 0
M  V30 14988 H 1375.24 -0.908 -5.18713 0
M  V30 14989 H 1377.73 -1.04541 -3.63152 0
M  V30 14990 H 1378.04 -2.73172 -7.22908 0
M  V30 14991 H 1376.38 -2.45021 -6.50377 0
M  V30 14992 H 1379.58 -1.37569 -4.47429 0
M  V30 14993 H 1379.75 -2.14445 -6.11488 0
M  V30 14994 N 1373.15 1.5451 -0.310553 0
M  V30 14995 C 1374.43 1.92452 0.34951 0
M  V30 14996 C 1374.81 1.23881 1.70929 0
M  V30 14997 O 1374.16 0.377898 2.25353 0
M  V30 14998 C 1374.37 3.46026 0.454675 0
M  V30 14999 C 1375.72 4.18432 0.721071 0
M  V30 15000 O 1376.74 3.52112 0.538112 0
M  V30 15001 O 1375.6 5.3586 1.07314 0
M  V30 15002 H 1372.69 0.803168 0.197103 0
M  V30 15003 H 1375.24 1.65852 -0.359313 0
M  V30 15004 H 1374.01 3.88081 -0.500853 0
M  V30 15005 H 1373.64 3.7869 1.21159 0
M  V30 15006 N 1374.63 0.0384594 1.57553 0
M  V30 15007 C 1375.54 -0.955737 2.14249 0
M  V30 15008 C 1376.56 -1.35056 1.09708 0
M  V30 15009 O 1377.74 -1.43008 1.41812 0
M  V30 15010 C 1374.8 -2.21647 2.66596 0
M  V30 15011 C 1373.86 -1.88119 3.85888 0
M  V30 15012 C 1373.09 -3.08182 4.35729 0
M  V30 15013 O 1373.32 -4.21145 3.84699 0
M  V30 15014 O 1372.25 -2.89936 5.27467 0
M  V30 15015 H 1376.08 -0.50361 2.99495 0
M  V30 15016 H 1373.66 -0.182698 1.48279 0
M  V30 15017 H 1375.54 -2.9564 3.00291 0
M  V30 15018 H 1374.22 -2.66022 1.84428 0
M  V30 15019 H 1373.13 -1.11481 3.57103 0
M  V30 15020 H 1374.46 -1.48553 4.69247 0
M  V30 15021 N 1376.11 -1.55841 -0.234795 0
M  V30 15022 C 1377.36 -1.77438 -0.959094 0
M  V30 15023 C 1377.67 -0.604621 -1.86021 0
M  V30 15024 O 1378.88 -0.703897 -2.62217 0
M  V30 15025 C 1377.34 -3.14182 -1.7555 0
M  V30 15026 C 1376.94 -4.38843 -0.90118 0
M  V30 15027 C 1378.69 -3.45112 -2.47181 0
M  V30 15028 C 1376.59 -5.66614 -1.69417 0
M  V30 15029 H 1375.52 -0.661503 -0.361843 0
M  V30 15030 H 1378.18 -1.82255 -0.213364 0
M  V30 15031 H 1376.56 -3.03505 -2.54364 0
M  V30 15032 H 1377.73 -4.60541 -0.154515 0
M  V30 15033 H 1376.05 -4.15335 -0.297631 0
M  V30 15034 H 1378.64 -4.37794 -3.06986 0
M  V30 15035 H 1378.99 -2.66995 -3.19405 0
M  V30 15036 H 1379.52 -3.57059 -1.75368 0
M  V30 15037 H 1376.26 -6.47587 -1.01545 0
M  V30 15038 H 1375.78 -5.48998 -2.4158 0
M  V30 15039 H 1377.46 -6.06311 -2.25824 0
M  V30 15040 N 1377.59 0.500963 -1.49426 0
M  V30 15041 C 1378.52 1.6192 -1.62217 0
M  V30 15042 C 1379.53 1.54774 -0.504868 0
M  V30 15043 O 1380.72 1.60705 -0.776919 0
M  V30 15044 C 1377.82 3.0071 -1.56291 0
M  V30 15045 C 1377 3.3304 -2.83555 0
M  V30 15046 C 1376.06 4.51241 -2.7068 0
M  V30 15047 O 1375.08 4.53023 -3.44615 0
M  V30 15048 N 1376.28 5.51156 -1.82228 0
M  V30 15049 H 1379.05 1.51374 -2.58662 0
M  V30 15050 H 1376.61 0.688837 -1.46515 0
M  V30 15051 H 1378.6 3.77705 -1.45332 0
M  V30 15052 H 1377.17 3.0518 -0.677043 0
M  V30 15053 H 1376.39 2.44942 -3.08865 0
M  V30 15054 H 1377.68 3.51437 -3.67926 0
M  V30 15055 H 1377.08 5.52516 -1.21417 0
M  V30 15056 H 1375.63 6.27253 -1.77192 0
M  V30 15057 N 1379.07 1.38501 0.752011 0
M  V30 15058 C 1380.48 1.19733 1.05529 0
M  V30 15059 C 1380.68 0.047088 2.01445 0
M  V30 15060 O 1379.74 -0.606645 2.45104 0
M  V30 15061 C 1381.05 2.52439 1.63386 0
M  V30 15062 C 1382.6 2.59136 1.7555 0
M  V30 15063 C 1383.08 3.92022 2.36819 0
M  V30 15064 N 1384.57 3.9357 2.44248 0
M  V30 15065 C 1385.3 4.93154 2.92553 0
M  V30 15066 N 1384.8 6.03135 3.40882 0
M  V30 15067 N 1386.59 4.80543 2.91607 0
M  V30 15068 H 1378.74 2.12085 0.115543 0
M  V30 15069 H 1381 0.941134 0.113888 0
M  V30 15070 H 1380.71 3.37072 1.00376 0
M  V30 15071 H 1380.58 2.70947 2.62427 0
M  V30 15072 H 1382.97 1.74897 2.37687 0
M  V30 15073 H 1383.05 2.44494 0.752092 0
M  V30 15074 H 1382.7 4.76684 1.75314 0
M  V30 15075 H 1382.63 4.03976 3.37803 0
M  V30 15076 H 1385.12 3.14133 2.10068 0
M  V30 15077 H 1385.43 6.7505 3.76201 0
M  V30 15078 H 1383.78 6.06752 3.38935 0
M  V30 15079 H 1386.97 3.93733 2.53163 0
M  V30 15080 H 1387.14 5.58303 3.28941 0
M  V30 15081 N 1380.55 -0.980364 1.23396 0
M  V30 15082 C 1381.49 -2.07275 1.01516 0
M  V30 15083 C 1382.46 -1.65963 -0.0673729 0
M  V30 15084 O 1383.65 -1.90612 0.0847392 0
M  V30 15085 C 1380.79 -3.39621 0.61249 0
M  V30 15086 C 1379.9 -3.94203 1.76715 0
M  V30 15087 C 1379.04 -5.14761 1.31126 0
M  V30 15088 C 1378.07 -5.61509 2.43667 0
M  V30 15089 N 1377.21 -6.73297 1.99035 0
M  V30 15090 H 1382.05 -2.25325 1.9502 0
M  V30 15091 H 1379.59 -1.10452 0.971532 0
M  V30 15092 H 1381.55 -4.15643 0.360126 0
M  V30 15093 H 1380.18 -3.21535 -0.285539 0
M  V30 15094 H 1379.23 -3.14937 2.13352 0
M  V30 15095 H 1380.54 -4.24867 2.61323 0
M  V30 15096 H 1379.69 -5.98115 1.01702 0
M  V30 15097 H 1378.43 -4.85751 0.435555 0
M  V30 15098 H 1377.44 -4.76737 2.73865 0
M  V30 15099 H 1378.66 -5.92539 3.31774 0
M  V30 15100 H 1376.61 -6.46046 1.13845 0
M  V30 15101 H 1376.53 -7.03345 2.77203 0
M  V30 15102 H 1377.79 -7.60125 1.72716 0
M  V30 15103 N 1382.02 -1.04567 -1.17913 0
M  V30 15104 C 1383.27 -0.752023 -1.88018 0
M  V30 15105 C 1383.6 0.720567 -1.8066 0
M  V30 15106 O 1382.85 1.54207 -1.20493 0
M  V30 15107 C 1383.15 -1.1699 -3.3771 0
M  V30 15108 C 1382.82 -2.64363 -3.65271 0
M  V30 15109 C 1381.48 -3.04622 -3.72503 0
M  V30 15110 C 1383.83 -3.59626 -3.77251 0
M  V30 15111 C 1381.16 -4.39023 -3.89199 0
M  V30 15112 C 1383.51 -4.93752 -3.95465 0
M  V30 15113 C 1382.18 -5.33675 -4.00933 0
M  V30 15114 H 1381.45 -0.275185 -0.688008 0
M  V30 15115 H 1384.09 -1.31161 -1.39532 0
M  V30 15116 H 1382.4 -0.529202 -3.8821 0
M  V30 15117 H 1384.1 -0.919981 -3.90304 0
M  V30 15118 H 1380.69 -2.32182 -3.60263 0
M  V30 15119 H 1384.87 -3.29665 -3.70992 0
M  V30 15120 H 1380.13 -4.69466 -3.91679 0
M  V30 15121 H 1384.3 -5.67467 -4.03676 0
M  V30 15122 H 1381.93 -6.37825 -4.13623 0
M  V30 15123 N 1383.5 1.34231 -0.825823 0
M  V30 15124 C 1384.78 1.92662 -0.337743 0
M  V30 15125 C 1385.16 1.75358 1.17529 0
M  V30 15126 O 1384.51 1.13405 1.98372 0
M  V30 15127 C 1384.72 3.40394 -0.770269 0
M  V30 15128 C 1386.06 4.17546 -0.770767 0
M  V30 15129 O 1387.09 3.4899 -0.713035 0
M  V30 15130 O 1385.95 5.39903 -0.846602 0
M  V30 15131 H 1383.04 0.821768 -0.0928741 0
M  V30 15132 H 1385.59 1.43187 -0.910807 0
M  V30 15133 H 1384.36 3.46802 -1.81228 0
M  V30 15134 H 1383.98 3.97223 -0.17306 0
M  V30 15135 N 1384.98 0.581051 1.46498 0
M  V30 15136 C 1385.94 -0.142937 2.28754 0
M  V30 15137 C 1386.94 -0.820383 1.38298 0
M  V30 15138 O 1388.13 -0.672592 1.60692 0
M  V30 15139 C 1385.26 -1.21176 3.18637 0
M  V30 15140 H 1386.46 0.579918 2.9424 0
M  V30 15141 H 1384.01 0.338951 1.52581 0
M  V30 15142 H 1384.75 -1.96624 2.57894 0
M  V30 15143 H 1384.53 -0.730517 3.85235 0
M  V30 15144 H 1386.02 -1.71958 3.80552 0
M  V30 15145 N 1386.46 -1.54343 0.318742 0
M  V30 15146 C 1387.39 -2.27118 -0.542206 0
M  V30 15147 C 1388.37 -1.27731 -1.12334 0
M  V30 15148 O 1389.55 -1.56535 -1.14937 0
M  V30 15149 C 1386.68 -3.02535 -1.70558 0
M  V30 15150 C 1385.64 -4.09218 -1.25398 0
M  V30 15151 C 1384.96 -4.72449 -2.50391 0
M  V30 15152 C 1386.26 -5.20971 -0.372332 0
M  V30 15153 H 1387.96 -2.9933 0.0648226 0
M  V30 15154 H 1385.5 -1.43963 0.0326168 0
M  V30 15155 H 1387.46 -3.52174 -2.31412 0
M  V30 15156 H 1386.18 -2.27931 -2.33912 0
M  V30 15157 H 1384.84 -3.60455 -0.668392 0
M  V30 15158 H 1384.49 -3.94466 -3.12099 0
M  V30 15159 H 1384.19 -5.4451 -2.20868 0
M  V30 15160 H 1385.71 -5.2486 -3.12016 0
M  V30 15161 H 1387.13 -5.66396 -0.887029 0
M  V30 15162 H 1385.52 -5.99859 -0.17009 0
M  V30 15163 H 1386.59 -4.81198 0.598064 0
M  V30 15164 N 1387.94 -0.0468143 -1.5753 0
M  V30 15165 C 1389.35 0.309707 -1.56566 0
M  V30 15166 C 1389.55 1.7173 -1.05408 0
M  V30 15167 O 1388.61 2.4235 -0.708723 0
M  V30 15168 C 1389.92 0.142151 -3.00364 0
M  V30 15169 C 1391.47 0.213585 -3.1227 0
M  V30 15170 C 1391.94 0.0746102 -4.57939 0
M  V30 15171 N 1393.43 0.131027 -4.63015 0
M  V30 15172 C 1394.17 0.0475409 -5.7338 0
M  V30 15173 N 1393.67 -0.0880445 -6.92744 0
M  V30 15174 N 1395.46 0.102809 -5.62006 0
M  V30 15175 H 1387.61 -0.967057 -1.89108 0
M  V30 15176 H 1389.87 -0.375018 -0.870669 0
M  V30 15177 H 1389.58 -0.828171 -3.4181 0
M  V30 15178 H 1389.45 0.905006 -3.66182 0
M  V30 15179 H 1391.84 1.17438 -2.70726 0
M  V30 15180 H 1391.92 -0.57995 -2.49139 0
M  V30 15181 H 1391.56 -0.882839 -5.00168 0
M  V30 15182 H 1391.49 0.887235 -5.19072 0
M  V30 15183 H 1393.99 0.235246 -3.77167 0
M  V30 15184 H 1394.3 -0.144574 -7.72665 0
M  V30 15185 H 1392.64 -0.12307 -6.94891 0
M  V30 15186 H 1395.83 0.207259 -4.67641 0
M  V30 15187 H 1396.01 0.0342865 -6.47991 0
M  V30 15188 N 1389.41 1.55964 0.226527 0
M  V30 15189 C 1390.36 1.92857 1.30034 0
M  V30 15190 C 1391.36 0.810008 1.48779 0
M  V30 15191 O 1392.56 0.994801 1.50012 0
M  V30 15192 H 1388.94 0.612807 0.435857 0
M  V30 15193 H 1390.91 2.82469 0.96196 0
M  V30 15194 C 1389.66 2.25735 2.6446 0
M  V30 15195 H 1388.98 3.11317 2.50842 0
M  V30 15196 H 1390.42 2.55437 3.3842 0
M  V30 15197 C 1388.88 1.08074 3.19095 0
M  V30 15198 O 1389.41 0.339279 4.00265 0
M  V30 15199 N 1387.62 0.86589 2.774 0
M  V30 15200 H 1387.16 1.47055 2.11501 0
M  V30 15201 H 1387.12 0.0803566 3.14297 0
M  V30 15202 N 1390.89 -0.493031 1.4969 0
M  V30 15203 C 1392.12 -1.27517 1.63567 0
M  V30 15204 C 1392.54 -1.85526 0.310105 0
M  V30 15205 O 1391.9 -1.66246 -0.723314 0
M  V30 15206 C 1391.95 -2.37551 2.71296 0
M  V30 15207 O 1391.05 -3.41617 2.31023 0
M  V30 15208 H 1390.39 -0.376116 0.547205 0
M  V30 15209 H 1392.92 -0.589328 1.95929 0
M  V30 15210 H 1392.93 -2.83196 2.93708 0
M  V30 15211 H 1391.61 -1.94697 3.67513 0
M  V30 15212 H 1390.19 -3.01836 2.18974 0
M  V30 15213 N 1392.37 -1.38898 -0.744656 0
M  V30 15214 C 1393.61 -1.37019 -1.51675 0
M  V30 15215 C 1393.97 0.0371033 -1.91964 0
M  V30 15216 O 1395.18 0.180835 -2.68191 0
M  V30 15217 C 1393.45 -2.30701 -2.72969 0
M  V30 15218 S 1395.01 -2.46922 -3.62733 0
M  V30 15219 H 1391.82 -0.486035 -0.518933 0
M  V30 15220 H 1394.43 -1.74906 -0.873384 0
M  V30 15221 H 1393.13 -3.31827 -2.41494 0
M  V30 15222 H 1392.66 -1.93994 -3.42242 0
M  V30 15223 H 1394.68 -1.69994 -4.66172 0
M  V30 15224 N 1393.85 0.973806 -1.23914 0
M  V30 15225 C 1395.08 1.75107 -1.10206 0
M  V30 15226 C 1395.49 1.85604 0.345935 0
M  V30 15227 O 1394.85 1.33996 1.239 0
M  V30 15228 C 1394.9 3.17466 -1.72909 0
M  V30 15229 O 1394.62 3.07504 -3.12047 0
M  V30 15230 C 1396.12 4.11557 -1.6473 0
M  V30 15231 H 1393.34 0.549318 -0.385345 0
M  V30 15232 H 1395.89 1.22301 -1.63898 0
M  V30 15233 H 1394.04 3.67277 -1.23234 0
M  V30 15234 H 1394.45 3.97169 -3.42575 0
M  V30 15235 H 1395.93 5.09126 -2.13295 0
M  V30 15236 H 1396.41 4.3498 -0.607352 0
M  V30 15237 H 1397.01 3.67653 -2.13802 0
M  V30 15238 N 1395.33 1.05191 1.17357 0
M  V30 15239 C 1396.57 0.763113 1.87895 0
M  V30 15240 C 1396.91 -0.708071 1.80831 0
M  V30 15241 O 1396.18 -1.51777 1.21631 0
M  V30 15242 C 1396.46 1.2442 3.37923 0
M  V30 15243 C 1396.32 2.77832 3.53737 0
M  V30 15244 C 1397.64 0.843209 4.31947 0
M  V30 15245 H 1394.75 0.27869 0.682276 0
M  V30 15246 H 1397.4 1.3059 1.38008 0
M  V30 15247 H 1395.55 0.782438 3.80539 0
M  V30 15248 H 1397.22 3.32131 3.20135 0
M  V30 15249 H 1395.46 3.17108 2.96015 0
M  V30 15250 H 1396.13 3.06555 4.59052 0
M  V30 15251 H 1398.61 1.24073 3.97171 0
M  V30 15252 H 1397.48 1.20743 5.35455 0
M  V30 15253 H 1397.75 -0.252802 4.41377 0
M  V30 15254 N 1396.8 -1.33791 0.83293 0
M  V30 15255 C 1398.05 -1.97233 0.422127 0
M  V30 15256 C 1398.37 -1.66738 -1.02264 0
M  V30 15257 O 1399.57 -2.23747 -1.53783 0
M  V30 15258 C 1398.03 -3.5295 0.703872 0
M  V30 15259 C 1397.64 -3.92329 2.16292 0
M  V30 15260 C 1399.38 -4.22973 0.359727 0
M  V30 15261 C 1397.29 -5.40999 2.38903 0
M  V30 15262 H 1396.22 -0.738082 0.154112 0
M  V30 15263 H 1398.87 -1.52494 1.02068 0
M  V30 15264 H 1397.25 -3.95985 0.0350184 0
M  V30 15265 H 1398.42 -3.6037 2.87176 0
M  V30 15266 H 1396.74 -3.35271 2.46947 0
M  V30 15267 H 1399.34 -5.32297 0.506366 0
M  V30 15268 H 1399.68 -4.10428 -0.696743 0
M  V30 15269 H 1400.21 -3.85449 0.983568 0
M  V30 15270 H 1396.95 -5.58541 3.43093 0
M  V30 15271 H 1396.47 -5.74438 1.72573 0
M  V30 15272 H 1398.15 -6.07809 2.2176 0
M  V30 15273 N 1398.28 -0.588812 -1.46187 0
M  V30 15274 C 1399.51 -0.0825301 -2.06735 0
M  V30 15275 C 1399.93 1.22507 -1.43658 0
M  V30 15276 O 1399.28 1.74203 -0.544022 0
M  V30 15277 C 1399.33 0.083501 -3.61404 0
M  V30 15278 O 1399.05 -1.17235 -4.22123 0
M  V30 15279 C 1400.56 0.623425 -4.38894 0
M  V30 15280 H 1397.78 -0.0602413 -0.66829 0
M  V30 15281 H 1400.32 -0.811215 -1.87722 0
M  V30 15282 H 1398.47 0.762432 -3.79823 0
M  V30 15283 H 1398.89 -0.990047 -5.15071 0
M  V30 15284 H 1400.36 0.688755 -5.47686 0
M  V30 15285 H 1400.84 1.64172 -4.07362 0
M  V30 15286 H 1401.45 -0.0208373 -4.25295 0
M  V30 15287 N 1399.76 1.54172 -0.326923 0
M  V30 15288 C 1401.04 1.92812 0.329078 0
M  V30 15289 C 1401.42 1.25687 1.69605 0
M  V30 15290 O 1400.77 0.401779 2.2494 0
M  V30 15291 C 1400.98 3.46488 0.417949 0
M  V30 15292 C 1402.32 4.19174 0.67665 0
M  V30 15293 O 1403.35 3.52663 0.500735 0
M  V30 15294 O 1402.21 5.36968 1.01625 0
M  V30 15295 H 1399.3 0.805214 0.188573 0
M  V30 15296 H 1401.85 1.65462 -0.376884 0
M  V30 15297 H 1400.62 3.87528 -0.541986 0
M  V30 15298 H 1400.24 3.79954 1.17136 0
M  V30 15299 N 1401.24 0.0551678 1.57503 0
M  V30 15300 C 1402.17 -0.915714 2.14795 0
M  V30 15301 C 1403.15 -1.32179 1.07065 0
M  V30 15302 O 1404.33 -1.39579 1.35023 0
M  V30 15303 C 1401.46 -2.18916 2.69616 0
M  V30 15304 C 1400.42 -1.92303 3.82366 0
M  V30 15305 C 1399.74 -3.26136 4.23721 0
M  V30 15306 C 1401.04 -1.24146 5.07331 0
M  V30 15307 H 1402.74 -0.438499 2.96171 0
M  V30 15308 H 1400.28 -0.209477 1.42468 0
M  V30 15309 H 1402.24 -2.87239 3.08337 0
M  V30 15310 H 1400.96 -2.6885 1.85437 0
M  V30 15311 H 1399.62 -1.26391 3.44123 0
M  V30 15312 H 1399.27 -3.73879 3.36487 0
M  V30 15313 H 1398.97 -3.09126 4.99715 0
M  V30 15314 H 1400.49 -3.95684 4.65045 0
M  V30 15315 H 1401.91 -1.8251 5.43473 0
M  V30 15316 H 1400.3 -1.17449 5.88494 0
M  V30 15317 H 1401.37 -0.218073 4.84409 0
M  V30 15318 N 1402.72 -1.56081 -0.218252 0
M  V30 15319 C 1403.63 -1.95856 -1.29141 0
M  V30 15320 C 1404.64 -0.862857 -1.51099 0
M  V30 15321 O 1405.82 -1.1667 -1.64165 0
M  V30 15322 C 1402.88 -2.27005 -2.62049 0
M  V30 15323 C 1401.94 -3.50162 -2.48365 0
M  V30 15324 C 1401.18 -3.79815 -3.74935 0
M  V30 15325 O 1401.4 -3.11095 -4.78096 0
M  V30 15326 O 1400.33 -4.73299 -3.71849 0
M  V30 15327 H 1404.16 -2.8732 -0.983922 0
M  V30 15328 H 1401.75 -1.43334 -0.421385 0
M  V30 15329 H 1403.63 -2.4822 -3.40536 0
M  V30 15330 H 1402.3 -1.38715 -2.92472 0
M  V30 15331 H 1401.21 -3.34222 -1.68066 0
M  V30 15332 H 1402.54 -4.38845 -2.22881 0
M  V30 15333 N 1404.2 0.485086 -1.49949 0
M  V30 15334 C 1405.11 1.61089 -1.70551 0
M  V30 15335 C 1406.12 1.63752 -0.588333 0
M  V30 15336 O 1407.3 1.81879 -0.86498 0
M  V30 15337 C 1404.36 2.97382 -1.78227 0
M  V30 15338 C 1403.42 3.05219 -3.01894 0
M  V30 15339 C 1402.66 4.35011 -3.09195 0
M  V30 15340 O 1402.88 5.24722 -2.23658 0
M  V30 15341 O 1401.81 4.48151 -4.01802 0
M  V30 15342 H 1405.64 1.46633 -2.65956 0
M  V30 15343 H 1403.22 0.663091 -1.33879 0
M  V30 15344 H 1405.11 3.78356 -1.85538 0
M  V30 15345 H 1403.78 3.12066 -0.860043 0
M  V30 15346 H 1402.69 2.23373 -3.00092 0
M  V30 15347 H 1404.02 2.95467 -3.93649 0
M  V30 15348 N 1405.67 1.39291 0.737279 0
M  V30 15349 C 1406.61 1.33728 1.86144 0
M  V30 15350 C 1407.62 0.246468 1.60924 0
M  V30 15351 O 1408.81 0.505252 1.712 0
M  V30 15352 C 1405.91 1.05312 3.22122 0
M  V30 15353 C 1405.08 2.25624 3.74716 0
M  V30 15354 C 1404.14 1.937 4.89251 0
M  V30 15355 O 1403.17 2.66361 5.03031 0
M  V30 15356 N 1404.37 0.901782 5.73453 0
M  V30 15357 H 1407.13 2.30604 1.91421 0
M  V30 15358 H 1404.69 1.33364 0.917919 0
M  V30 15359 H 1406.69 0.819784 3.9631 0
M  V30 15360 H 1405.26 0.171773 3.12128 0
M  V30 15361 H 1404.48 2.64923 2.91906 0
M  V30 15362 H 1405.76 3.05881 4.06589 0
M  V30 15363 H 1405.16 0.299553 5.64906 0
M  V30 15364 H 1403.72 0.728344 6.47718 0
M  V30 15365 N 1407.15 -0.967221 1.24429 0
M  V30 15366 C 1408.08 -2.07966 1.06172 0
M  V30 15367 C 1409.06 -1.70081 -0.0254566 0
M  V30 15368 O 1410.25 -1.93682 0.141705 0
M  V30 15369 C 1407.38 -3.4085 0.666251 0
M  V30 15370 C 1406.33 -3.92692 1.70225 0
M  V30 15371 C 1405.66 -5.21925 1.16183 0
M  V30 15372 C 1406.96 -4.20478 3.09831 0
M  V30 15373 H 1408.65 -2.23497 1.99222 0
M  V30 15374 H 1406.2 -1.07398 0.959255 0
M  V30 15375 H 1408.15 -4.1811 0.52552 0
M  V30 15376 H 1406.87 -3.2522 -0.299939 0
M  V30 15377 H 1405.53 -3.17588 1.83121 0
M  V30 15378 H 1405.18 -5.02655 0.186237 0
M  V30 15379 H 1404.88 -5.57579 1.85416 0
M  V30 15380 H 1406.41 -6.01795 1.03323 0
M  V30 15381 H 1407.82 -4.88442 3.00162 0
M  V30 15382 H 1406.22 -4.67362 3.7642 0
M  V30 15383 H 1407.29 -3.27235 3.57834 0
M  V30 15384 N 1408.63 -1.05812 -1.16797 0
M  V30 15385 C 1409.58 -0.658636 -2.2308 0
M  V30 15386 C 1410.57 0.323104 -1.6629 0
M  V30 15387 O 1411.78 0.188492 -1.7901 0
M  V30 15388 H 1408.15 -0.194843 -0.72632 0
M  V30 15389 H 1410.12 -1.56501 -2.54067 0
M  V30 15390 C 1408.87 -0.0559428 -3.47655 0
M  V30 15391 H 1408.2 -0.802468 -3.91664 0
M  V30 15392 H 1409.64 0.186118 -4.23591 0
M  V30 15393 C 1408.09 1.19913 -3.14837 0
M  V30 15394 O 1408.62 2.28772 -3.30191 0
M  V30 15395 N 1406.83 1.09921 -2.69009 0
M  V30 15396 H 1406.38 0.213331 -2.56715 0
M  V30 15397 H 1406.34 1.93981 -2.47424 0
M  V30 15398 N 1410.11 1.33347 -0.840014 0
M  V30 15399 C 1411.04 2.28029 -0.231432 0
M  V30 15400 C 1412.05 1.51792 0.588488 0
M  V30 15401 O 1413.24 1.736 0.415371 0
M  V30 15402 C 1410.34 3.31745 0.692721 0
M  V30 15403 C 1409.51 4.37311 -0.0881144 0
M  V30 15404 C 1408.57 5.20689 0.759557 0
M  V30 15405 O 1407.6 5.68854 0.198347 0
M  V30 15406 N 1408.8 5.42082 2.07672 0
M  V30 15407 H 1411.57 2.80893 -1.04495 0
M  V30 15408 H 1409.13 1.46053 -0.698586 0
M  V30 15409 H 1411.12 3.84428 1.2648 0
M  V30 15410 H 1409.69 2.79148 1.40695 0
M  V30 15411 H 1408.91 3.85112 -0.841579 0
M  V30 15412 H 1410.2 5.04947 -0.624986 0
M  V30 15413 H 1409.6 5.04654 2.55619 0
M  V30 15414 H 1408.15 5.97817 2.59726 0
M  V30 15415 N 1411.59 0.596556 1.45873 0
M  V30 15416 C 1412.52 -0.116229 2.33211 0
M  V30 15417 C 1413.5 -0.869868 1.46176 0
M  V30 15418 O 1414.68 -0.842599 1.74968 0
M  V30 15419 C 1411.81 -1.12145 3.28696 0
M  V30 15420 C 1410.77 -0.481749 4.2528 0
M  V30 15421 C 1410.09 -1.59443 5.10374 0
M  V30 15422 C 1411.39 0.589996 5.18957 0
M  V30 15423 H 1413.09 0.613005 2.93057 0
M  V30 15424 H 1410.63 0.296242 1.4092 0
M  V30 15425 H 1412.58 -1.62857 3.88659 0
M  V30 15426 H 1411.31 -1.88114 2.66985 0
M  V30 15427 H 1409.97 0.0044092 3.666 0
M  V30 15428 H 1409.62 -2.34413 4.45039 0
M  V30 15429 H 1409.32 -1.17197 5.75794 0
M  V30 15430 H 1410.84 -2.10404 5.73204 0
M  V30 15431 H 1412.25 0.167395 5.73056 0
M  V30 15432 H 1410.65 0.933565 5.92794 0
M  V30 15433 H 1411.72 1.47093 4.62052 0
M  V30 15434 N 1413.06 -1.53996 0.335095 0
M  V30 15435 C 1414.29 -2.05188 -0.26563 0
M  V30 15436 C 1414.71 -1.21058 -1.44881 0
M  V30 15437 O 1414.06 -0.243919 -1.80863 0
M  V30 15438 C 1414.11 -3.54875 -0.688904 0
M  V30 15439 O 1413.84 -4.35811 0.447217 0
M  V30 15440 C 1415.34 -4.22204 -1.35123 0
M  V30 15441 H 1412.56 -0.668921 -0.0527806 0
M  V30 15442 H 1415.1 -1.98675 0.48463 0
M  V30 15443 H 1413.26 -3.61638 -1.38912 0
M  V30 15444 H 1413.67 -5.24381 0.111495 0
M  V30 15445 H 1415.14 -5.28356 -1.59823 0
M  V30 15446 H 1415.62 -3.74029 -2.30216 0
M  V30 15447 H 1416.23 -4.19611 -0.693283 0
M  V30 15448 N 1414.54 -0.0635198 -1.57472 0
M  V30 15449 C 1415.45 0.921531 -2.15743 0
M  V30 15450 C 1416.47 1.33294 -1.11842 0
M  V30 15451 O 1417.64 1.40733 -1.4407 0
M  V30 15452 C 1414.71 2.17378 -2.70088 0
M  V30 15453 C 1413.77 1.81956 -3.88832 0
M  V30 15454 C 1413 3.01211 -4.40577 0
M  V30 15455 O 1413.23 4.14971 -3.9135 0
M  V30 15456 O 1412.16 2.81507 -5.32012 0
M  V30 15457 H 1415.99 0.455899 -3.00259 0
M  V30 15458 H 1413.57 0.159085 -1.48551 0
M  V30 15459 H 1415.45 2.90826 -3.04956 0
M  V30 15460 H 1414.13 2.63055 -1.88637 0
M  V30 15461 H 1413.03 1.05786 -3.58832 0
M  V30 15462 H 1414.37 1.41069 -4.71551 0
M  V30 15463 N 1416.02 1.56195 0.209972 0
M  V30 15464 C 1417.3 1.70553 0.957653 0
M  V30 15465 C 1417.68 0.614091 2.01971 0
M  V30 15466 O 1417.02 -0.377192 2.25365 0
M  V30 15467 C 1417.23 3.12314 1.55759 0
M  V30 15468 C 1418.58 3.72085 2.04543 0
M  V30 15469 O 1419.61 3.15349 1.65631 0
M  V30 15470 O 1418.47 4.71627 2.76099 0
M  V30 15471 H 1415.56 0.695077 0.448104 0
M  V30 15472 H 1418.11 1.68507 0.20084 0
M  V30 15473 H 1416.88 3.83215 0.791302 0
M  V30 15474 H 1416.5 3.18526 2.37964 0
M  V30 15475 N 1417.5 -0.477127 1.50204 0
M  V30 15476 C 1418.45 -1.59664 1.69145 0
M  V30 15477 C 1419.44 -1.59971 0.557294 0
M  V30 15478 O 1420.65 -1.64192 0.737623 0
M  V30 15479 H 1417.02 -0.529706 0.533775 0
M  V30 15480 H 1418.99 -1.40848 2.63067 0
M  V30 15481 C 1417.74 -2.97647 1.79726 0
M  V30 15482 H 1417.06 -2.98127 2.66383 0
M  V30 15483 H 1418.5 -3.75453 1.97006 0
M  V30 15484 C 1416.96 -3.32422 0.547464 0
M  V30 15485 O 1417.49 -4.00454 -0.316115 0
M  V30 15486 N 1415.7 -2.87788 0.40328 0
M  V30 15487 H 1415.25 -2.32598 1.10706 0
M  V30 15488 H 1415.2 -3.11421 -0.431797 0
M  V30 15489 N 1418.98 -1.3968 -0.729882 0
M  V30 15490 C 1419.94 -1.38577 -1.82562 0
M  V30 15491 C 1420.94 -0.281994 -1.58308 0
M  V30 15492 O 1422.13 -0.540165 -1.65614 0
M  V30 15493 C 1419.26 -1.16343 -3.20433 0
M  V30 15494 H 1420.45 -2.36086 -1.84942 0
M  V30 15495 H 1418.01 -1.25319 -0.934063 0
M  V30 15496 H 1418.74 -0.195372 -3.23711 0
M  V30 15497 H 1418.53 -1.96282 -3.39435 0
M  V30 15498 H 1420.02 -1.18325 -4.00486 0
M  V30 15499 N 1420.45 0.960609 -1.2494 0
M  V30 15500 C 1421.36 2.0902 -1.06527 0
M  V30 15501 C 1422.38 1.74 -0.00406641 0
M  V30 15502 O 1423.56 2.00367 -0.203744 0
M  V30 15503 C 1420.62 3.39971 -0.679736 0
M  V30 15504 C 1419.68 3.88895 -1.81821 0
M  V30 15505 C 1418.92 5.13597 -1.45098 0
M  V30 15506 O 1419.14 5.69362 -0.343954 0
M  V30 15507 O 1418.07 5.57083 -2.27909 0
M  V30 15508 H 1421.9 2.27453 -2.01243 0
M  V30 15509 H 1419.48 1.07429 -1.03824 0
M  V30 15510 H 1421.37 4.18696 -0.47658 0
M  V30 15511 H 1420.04 3.22822 0.238231 0
M  V30 15512 H 1418.95 3.11201 -2.07617 0
M  V30 15513 H 1420.28 4.10533 -2.7152 0
M  V30 15514 N 1421.93 1.0643 1.16234 0
M  V30 15515 C 1422.86 0.697605 2.22836 0
M  V30 15516 C 1423.84 -0.310563 1.67241 0
M  V30 15517 O 1425.03 -0.185385 1.93313 0
M  V30 15518 C 1422.16 0.0847097 3.47197 0
M  V30 15519 C 1421.11 1.019 4.15693 0
M  V30 15520 C 1420.44 0.269339 5.34021 0
M  V30 15521 C 1421.74 2.34861 4.66516 0
M  V30 15522 H 1423.43 1.58883 2.53765 0
M  V30 15523 H 1420.98 0.765388 1.21975 0
M  V30 15524 H 1422.93 -0.1837 4.20999 0
M  V30 15525 H 1421.66 -0.84154 3.15572 0
M  V30 15526 H 1420.31 1.27218 3.43818 0
M  V30 15527 H 1419.96 -0.660072 4.9865 0
M  V30 15528 H 1419.66 0.892001 5.8079 0
M  V30 15529 H 1421.19 0.00850775 6.10599 0
M  V30 15530 H 1422.6 2.13922 5.31893 0
M  V30 15531 H 1421 2.92637 5.23912 0
M  V30 15532 H 1422.07 2.97834 3.82653 0
M  V30 15533 N 1423.41 -1.329 0.847073 0
M  V30 15534 C 1424.36 -2.3097 0.27487 0
M  V30 15535 C 1425.35 -1.58508 -0.597625 0
M  V30 15536 O 1426.56 -1.73307 -0.486273 0
M  V30 15537 H 1422.93 -0.748719 0.0701719 0
M  V30 15538 H 1424.9 -2.7673 1.11638 0
M  V30 15539 C 1423.65 -3.43662 -0.528363 0
M  V30 15540 H 1422.98 -3.99576 0.133707 0
M  V30 15541 H 1424.42 -4.14458 -0.894443 0
M  V30 15542 C 1422.88 -2.90244 -1.71055 0
M  V30 15543 O 1423.41 -2.87109 -2.80947 0
M  V30 15544 N 1421.61 -2.46743 -1.53512 0
M  V30 15545 H 1421.16 -2.49493 -0.641181 0
M  V30 15546 H 1421.12 -2.11356 -2.32757 0
M  V30 15547 N 1424.89 -0.604284 -1.45555 0
M  V30 15548 C 1425.84 0.129013 -2.32242 0
M  V30 15549 C 1426.83 0.862933 -1.45773 0
M  V30 15550 O 1428.04 0.778874 -1.62276 0
M  V30 15551 H 1424.41 0.0604661 -0.749565 0
M  V30 15552 H 1426.38 -0.620603 -2.91875 0
M  V30 15553 C 1425.13 1.11516 -3.29332 0
M  V30 15554 H 1424.45 0.559849 -3.95861 0
M  V30 15555 H 1425.89 1.59824 -3.92724 0
M  V30 15556 C 1424.35 2.18706 -2.5626 0
M  V30 15557 O 1424.88 3.26397 -2.34154 0
M  V30 15558 N 1423.09 1.93899 -2.16452 0
M  V30 15559 H 1422.64 1.0633 -2.34631 0
M  V30 15560 H 1422.59 2.65824 -1.67884 0
M  V30 15561 N 1426.37 1.53816 -0.343257 0
M  V30 15562 C 1427.3 2.22552 0.548015 0
M  V30 15563 C 1428.31 1.23202 1.06419 0
M  V30 15564 O 1429.5 1.49559 0.974394 0
M  V30 15565 C 1426.6 2.89197 1.76687 0
M  V30 15566 C 1425.77 4.14859 1.38603 0
M  V30 15567 C 1424.83 4.64917 2.46453 0
M  V30 15568 O 1423.86 5.29135 2.09773 0
M  V30 15569 N 1425.06 4.4082 3.77701 0
M  V30 15570 H 1427.83 2.99672 -0.040645 0
M  V30 15571 H 1425.39 1.61033 -0.167368 0
M  V30 15572 H 1427.38 3.19601 2.48268 0
M  V30 15573 H 1425.95 2.15664 2.26291 0
M  V30 15574 H 1425.17 3.91003 0.501001 0
M  V30 15575 H 1426.46 4.96599 1.10756 0
M  V30 15576 H 1425.85 3.8946 4.1029 0
M  V30 15577 H 1424.41 4.7583 4.45453 0
M  V30 15578 N 1427.84 0.0718701 1.57436 0
M  V30 15579 C 1428.79 -0.913026 2.13931 0
M  V30 15580 C 1429.79 -1.3082 1.07622 0
M  V30 15581 O 1430.99 -1.28544 1.26002 0
M  V30 15582 H 1427.37 -0.31238 0.684049 0
M  V30 15583 H 1429.34 -0.411613 2.95547 0
M  V30 15584 C 1428.09 -2.17109 2.71586 0
M  V30 15585 H 1427.41 -1.87585 3.53061 0
M  V30 15586 H 1428.85 -2.84134 3.14712 0
M  V30 15587 C 1427.31 -2.92967 1.6635 0
M  V30 15588 O 1427.84 -3.8667 1.08854 0
M  V30 15589 N 1426.05 -2.56075 1.37383 0
M  V30 15590 H 1425.59 -1.79949 1.84326 0
M  V30 15591 H 1425.55 -3.07134 0.672039 0
M  V30 15592 N 1429.32 -1.56304 -0.201686 0
M  V30 15593 C 1430.57 -1.80237 -0.923093 0
M  V30 15594 C 1430.9 -0.643994 -1.83529 0
M  V30 15595 O 1430.15 0.370613 -1.92159 0
M  V30 15596 C 1430.45 -3.10101 -1.77686 0
M  V30 15597 C 1430.12 -4.393 -1.0162 0
M  V30 15598 C 1428.78 -4.74399 -0.806161 0
M  V30 15599 C 1431.13 -5.1898 -0.480515 0
M  V30 15600 C 1428.46 -5.8668 -0.0488423 0
M  V30 15601 C 1430.81 -6.32051 0.26356 0
M  V30 15602 C 1429.48 -6.65738 0.484679 0
M  V30 15603 H 1428.75 -0.659533 -0.337784 0
M  V30 15604 H 1431.39 -1.90556 -0.189895 0
M  V30 15605 H 1429.7 -2.9499 -2.57853 0
M  V30 15606 H 1431.39 -3.25823 -2.33753 0
M  V30 15607 H 1427.98 -4.11751 -1.18992 0
M  V30 15608 H 1432.17 -4.92283 -0.630208 0
M  V30 15609 H 1427.42 -6.11256 0.13251 0
M  V30 15610 H 1431.6 -6.93012 0.686058 0
M  V30 15611 H 1429.23 -7.52583 1.07341 0
M  V30 15612 N 1430.8 0.469154 -1.50455 0
M  V30 15613 C 1432.03 1.24252 -1.65061 0
M  V30 15614 C 1432.44 1.86226 -0.334121 0
M  V30 15615 O 1431.78 1.70082 0.694109 0
M  V30 15616 C 1431.84 2.39007 -2.68544 0
M  V30 15617 C 1431.51 1.97655 -4.12046 0
M  V30 15618 C 1432.5 1.49796 -4.97852 0
M  V30 15619 C 1430.19 2.06316 -4.57973 0
M  V30 15620 C 1432.18 1.11145 -6.27635 0
M  V30 15621 C 1429.87 1.67276 -5.8776 0
M  V30 15622 C 1430.87 1.19769 -6.72417 0
M  V30 15623 O 1430.56 0.812708 -7.99781 0
M  V30 15624 H 1430.29 0.381848 -0.557824 0
M  V30 15625 H 1432.84 0.566191 -1.97442 0
M  V30 15626 H 1431.07 3.09817 -2.31409 0
M  V30 15627 H 1432.76 3.00965 -2.7235 0
M  V30 15628 H 1433.53 1.42525 -4.63586 0
M  V30 15629 H 1429.41 2.42242 -3.92224 0
M  V30 15630 H 1432.95 0.739936 -6.93665 0
M  V30 15631 H 1428.85 1.74208 -6.21548 0
M  V30 15632 H 1429.62 0.941386 -8.13068 0
M  V30 15633 N 1432.28 1.40065 0.722464 0
M  V30 15634 C 1433.21 1.42532 1.84951 0
M  V30 15635 C 1434.19 0.287082 1.6766 0
M  V30 15636 O 1435.37 0.494715 1.87793 0
M  V30 15637 C 1432.5 1.28041 3.22836 0
M  V30 15638 C 1431.46 2.39396 3.54787 0
M  V30 15639 C 1430.78 2.09986 4.91742 0
M  V30 15640 C 1432.08 3.81729 3.56483 0
M  V30 15641 H 1433.78 2.36851 1.83144 0
M  V30 15642 H 1431.32 1.14005 0.879714 0
M  V30 15643 H 1433.28 1.28385 4.01367 0
M  V30 15644 H 1432 0.301947 3.25201 0
M  V30 15645 H 1430.66 2.3829 2.78592 0
M  V30 15646 H 1430.31 1.10547 4.90702 0
M  V30 15647 H 1430.01 2.84586 5.14086 0
M  V30 15648 H 1431.53 2.12 5.72615 0
M  V30 15649 H 1432.95 3.84696 4.25067 0
M  V30 15650 H 1431.34 4.55791 3.90351 0
M  V30 15651 H 1432.41 4.11807 2.56014 0
M  V30 15652 N 1433.76 -0.95397 1.25448 0
M  V30 15653 C 1434.98 -1.73863 1.13077 0
M  V30 15654 C 1435.41 -1.85503 -0.311481 0
M  V30 15655 O 1434.77 -1.33596 -1.22564 0
M  V30 15656 C 1434.81 -3.13 1.79062 0
M  V30 15657 O 1433.92 -3.98258 1.07072 0
M  V30 15658 H 1433.26 -0.533921 0.394746 0
M  V30 15659 H 1435.79 -1.19571 1.66024 0
M  V30 15660 H 1435.8 -3.63456 1.85374 0
M  V30 15661 H 1434.47 -3.03844 2.83992 0
M  V30 15662 H 1433.05 -3.56722 1.08645 0
M  V30 15663 N 1435.24 -1.07045 -1.15668 0
M  V30 15664 C 1436.18 -0.688004 -2.20307 0
M  V30 15665 C 1437.15 0.319081 -1.63006 0
M  V30 15666 O 1438.34 0.206239 -1.89682 0
M  V30 15667 C 1435.48 -0.0886692 -3.44986 0
M  V30 15668 C 1434.59 -1.14685 -4.16499 0
M  V30 15669 C 1433.73 -0.512852 -5.28719 0
M  V30 15670 C 1432.76 -1.55404 -5.92044 0
M  V30 15671 N 1431.9 -0.942848 -6.9574 0
M  V30 15672 H 1436.74 -1.58469 -2.52372 0
M  V30 15673 H 1434.28 -0.792184 -1.23947 0
M  V30 15674 H 1436.24 0.276415 -4.16283 0
M  V30 15675 H 1434.87 0.77139 -3.13448 0
M  V30 15676 H 1433.92 -1.62955 -3.43729 0
M  V30 15677 H 1435.23 -1.93643 -4.59678 0
M  V30 15678 H 1434.38 -0.0952274 -6.06625 0
M  V30 15679 H 1433.12 0.308524 -4.86723 0
M  V30 15680 H 1432.13 -1.98148 -5.12852 0
M  V30 15681 H 1433.35 -2.37765 -6.36117 0
M  V30 15682 H 1431.3 -0.142319 -6.55846 0
M  V30 15683 H 1431.22 -1.6697 -7.37331 0
M  V30 15684 H 1432.48 -0.550621 -7.77553 0
M  V30 15685 N 1436.71 1.32449 -0.85411 0
M  V30 15686 C 1437.65 2.2777 -0.255605 0
M  V30 15687 C 1438.66 1.52407 0.572355 0
M  V30 15688 O 1439.85 1.74031 0.396935 0
M  V30 15689 C 1436.95 3.32461 0.657496 0
M  V30 15690 C 1436.12 4.37193 -0.134492 0
M  V30 15691 C 1435.18 5.21465 0.704288 0
M  V30 15692 O 1434.21 5.69033 0.138001 0
M  V30 15693 N 1435.41 5.44254 2.01911 0
M  V30 15694 H 1438.17 2.79769 -1.07468 0
M  V30 15695 H 1435.73 1.45304 -0.714038 0
M  V30 15696 H 1437.73 3.85748 1.22396 0
M  V30 15697 H 1436.3 2.80625 1.37726 0
M  V30 15698 H 1435.52 3.84198 -0.882378 0
M  V30 15699 H 1436.8 5.04256 -0.678508 0
M  V30 15700 H 1436.2 5.07336 2.50252 0
M  V30 15701 H 1434.76 6.00538 2.53371 0
M  V30 15702 N 1438.19 0.611994 1.45232 0
M  V30 15703 C 1439.12 -0.0914869 2.33321 0
M  V30 15704 C 1440.1 -0.854315 1.4709 0
M  V30 15705 O 1441.29 -0.823994 1.75852 0
M  V30 15706 C 1438.42 -1.08652 3.29867 0
M  V30 15707 C 1437.37 -0.436615 4.25767 0
M  V30 15708 C 1436.7 -1.54021 5.12037 0
M  V30 15709 C 1438 0.645005 5.18302 0
M  V30 15710 H 1439.69 0.644053 2.92391 0
M  V30 15711 H 1437.24 0.311171 1.40598 0
M  V30 15712 H 1439.19 -1.58726 3.90364 0
M  V30 15713 H 1437.91 -1.85271 2.68965 0
M  V30 15714 H 1436.57 0.0432918 3.66574 0
M  V30 15715 H 1436.22 -2.29679 4.475 0
M  V30 15716 H 1435.92 -1.11084 5.77005 0
M  V30 15717 H 1437.45 -2.04313 5.75403 0
M  V30 15718 H 1438.86 0.228166 5.72846 0
M  V30 15719 H 1437.26 0.996387 5.9177 0
M  V30 15720 H 1438.33 1.51985 4.60466 0
M  V30 15721 N 1439.67 -1.53632 0.351409 0
M  V30 15722 C 1440.95 -1.93311 -0.298362 0
M  V30 15723 C 1441.33 -1.28369 -1.67584 0
M  V30 15724 O 1440.67 -0.437514 -2.24272 0
M  V30 15725 C 1440.88 -3.47109 -0.362773 0
M  V30 15726 C 1442.23 -4.20197 -0.609878 0
M  V30 15727 O 1443.26 -3.53415 -0.444566 0
M  V30 15728 O 1442.12 -5.38517 -0.930691 0
M  V30 15729 H 1439.21 -0.808112 -0.175739 0
M  V30 15730 H 1441.76 -1.64841 0.40316 0
M  V30 15731 H 1440.53 -3.86617 0.60357 0
M  V30 15732 H 1440.15 -3.81769 -1.11076 0
M  V30 15733 N 1441.15 -0.0802183 -1.57396 0
M  V30 15734 C 1442.06 0.898597 -2.16708 0
M  V30 15735 C 1443.07 1.321 -1.1325 0
M  V30 15736 O 1444.25 1.39197 -1.45554 0
M  V30 15737 C 1441.31 2.14501 -2.72379 0
M  V30 15738 C 1440.38 1.77822 -3.9074 0
M  V30 15739 C 1439.61 2.96521 -4.43747 0
M  V30 15740 O 1439.83 4.10797 -3.9573 0
M  V30 15741 O 1438.77 2.75849 -5.34968 0
M  V30 15742 H 1442.59 0.424027 -3.00725 0
M  V30 15743 H 1440.18 0.14332 -1.48711 0
M  V30 15744 H 1442.06 2.87575 -3.08024 0
M  V30 15745 H 1440.73 2.61039 -1.91416 0
M  V30 15746 H 1439.64 1.01974 -3.59934 0
M  V30 15747 H 1440.97 1.36059 -4.73021 0
M  V30 15748 N 1442.63 1.56409 0.193394 0
M  V30 15749 C 1443.59 1.93822 1.22334 0
M  V30 15750 C 1444.59 0.819513 1.3835 0
M  V30 15751 O 1445.78 1.0869 1.36132 0
M  V30 15752 C 1442.91 2.21375 2.59241 0
M  V30 15753 H 1444.1 2.85967 0.903502 0
M  V30 15754 H 1441.66 1.50125 0.43498 0
M  V30 15755 H 1442.39 1.31874 2.96277 0
M  V30 15756 H 1442.18 3.02899 2.48988 0
M  V30 15757 H 1443.67 2.51319 3.33509 0
M  V30 15758 N 1444.1 -0.461169 1.50702 0
M  V30 15759 C 1445.33 -1.24019 1.66235 0
M  V30 15760 C 1445.75 -1.84827 0.349388 0
M  V30 15761 O 1445.11 -1.67743 -0.687888 0
M  V30 15762 C 1445.16 -2.31743 2.76274 0
M  V30 15763 O 1444.26 -3.3664 2.38217 0
M  V30 15764 H 1443.6 -0.364424 0.55506 0
M  V30 15765 H 1446.13 -0.547636 1.97135 0
M  V30 15766 H 1446.14 -2.76902 2.99649 0
M  V30 15767 H 1444.82 -1.86858 3.7156 0
M  V30 15768 H 1443.4 -2.97123 2.25327 0
M  V30 15769 N 1445.58 -1.40446 -0.715026 0
M  V30 15770 C 1446.83 -1.3848 -1.47199 0
M  V30 15771 C 1447.15 0.0119198 -1.94996 0
M  V30 15772 O 1446.42 0.966772 -1.70383 0
M  V30 15773 H 1445 -0.509669 -0.54612 0
M  V30 15774 H 1447.66 -1.75505 -0.847588 0
M  V30 15775 H 1446.76 -2.06002 -2.34456 0
M  V30 15776 N 1447.06 0.947303 -1.25952 0
M  V30 15777 C 1448.02 2.02667 -1.07046 0
M  V30 15778 C 1449.02 1.60787 -0.0208127 0
M  V30 15779 O 1450.21 1.72193 -0.263668 0
M  V30 15780 C 1447.34 3.35087 -0.626885 0
M  V30 15781 H 1448.54 2.20871 -2.0287 0
M  V30 15782 H 1446.09 1.12541 -1.08462 0
M  V30 15783 H 1446.83 3.22579 0.333621 0
M  V30 15784 H 1446.61 3.66835 -1.38473 0
M  V30 15785 H 1448.1 4.14397 -0.516264 0
M  V30 15786 N 1448.54 1.07657 1.15099 0
M  V30 15787 C 1449.49 0.694043 2.22004 0
M  V30 15788 C 1450.48 -0.296607 1.66783 0
M  V30 15789 O 1451.69 -0.159989 1.79288 0
M  V30 15790 H 1448.06 0.206374 0.723128 0
M  V30 15791 H 1450.03 1.60523 2.51545 0
M  V30 15792 C 1448.78 0.111245 3.47522 0
M  V30 15793 H 1448.1 0.864677 3.90338 0
M  V30 15794 H 1449.54 -0.118705 4.23834 0
M  V30 15795 C 1448 -1.14889 3.16705 0
M  V30 15796 O 1448.53 -2.2349 3.33789 0
M  V30 15797 N 1446.74 -1.05627 2.70724 0
M  V30 15798 H 1446.29 -0.172463 2.57022 0
M  V30 15799 H 1446.24 -1.9002 2.50479 0
M  V30 15800 N 1450.02 -1.31994 0.861122 0
M  V30 15801 C 1451.29 -1.91699 0.388705 0
M  V30 15802 C 1451.67 -1.78412 -1.12838 0
M  V30 15803 O 1451.02 -1.18625 -1.95296 0
M  V30 15804 C 1451.23 -3.38232 0.860248 0
M  V30 15805 C 1452.58 -4.15355 0.881201 0
M  V30 15806 O 1453.6 -3.46977 0.805313 0
M  V30 15807 O 1452.46 -5.37468 0.98945 0
M  V30 15808 H 1449.56 -0.819017 0.114629 0
M  V30 15809 H 1452.1 -1.40721 0.94845 0
M  V30 15810 H 1450.87 -3.41876 1.9036 0
M  V30 15811 H 1450.5 -3.96625 0.278316 0
M  V30 15812 N 1451.49 -0.619688 -1.44906 0
M  V30 15813 C 1452.4 0.0935512 -2.34413 0
M  V30 15814 C 1453.42 0.847738 -1.51952 0
M  V30 15815 O 1454.6 0.802591 -1.84717 0
M  V30 15816 C 1451.66 1.07047 -3.2976 0
M  V30 15817 C 1450.72 0.31691 -4.28129 0
M  V30 15818 C 1449.96 1.24729 -5.1892 0
M  V30 15819 O 1450.18 2.4856 -5.13395 0
M  V30 15820 O 1449.11 0.737799 -5.97361 0
M  V30 15821 H 1452.94 -0.642335 -2.96829 0
M  V30 15822 H 1450.52 -0.379908 -1.44489 0
M  V30 15823 H 1452.41 1.63281 -3.88481 0
M  V30 15824 H 1451.08 1.78717 -2.69893 0
M  V30 15825 H 1449.99 -0.288192 -3.72988 0
M  V30 15826 H 1451.32 -0.359539 -4.90885 0
M  V30 15827 N 1452.97 1.53444 -0.359552 0
M  V30 15828 C 1454.22 2.00348 0.233109 0
M  V30 15829 C 1454.53 1.25104 1.50361 0
M  V30 15830 O 1455.74 1.62566 2.1745 0
M  V30 15831 C 1454.2 3.56871 0.465951 0
M  V30 15832 C 1453.8 4.40987 -0.789571 0
M  V30 15833 C 1455.55 4.12148 1.0166 0
M  V30 15834 C 1453.46 5.8905 -0.526646 0
M  V30 15835 H 1452.39 0.748502 0.0908851 0
M  V30 15836 H 1455.04 1.77182 -0.47736 0
M  V30 15837 H 1453.42 3.76167 1.23753 0
M  V30 15838 H 1454.59 4.33465 -1.56348 0
M  V30 15839 H 1452.91 3.96784 -1.263 0
M  V30 15840 H 1455.5 5.20395 1.22853 0
M  V30 15841 H 1455.85 3.66364 1.97694 0
M  V30 15842 H 1456.38 3.96626 0.305334 0
M  V30 15843 H 1453.12 6.39099 -1.45715 0
M  V30 15844 H 1452.64 5.99436 0.208875 0
M  V30 15845 H 1454.32 6.46826 -0.149889 0
M  V30 15846 N 1454.45 0.0885642 1.57351 0
M  V30 15847 C 1455.7 -0.57753 1.94403 0
M  V30 15848 C 1456.03 -1.68238 0.970029 0
M  V30 15849 O 1455.3 -1.945 0.00198684 0
M  V30 15850 C 1455.59 -1.13882 3.41618 0
M  V30 15851 C 1455.44 -0.0394686 4.49783 0
M  V30 15852 C 1456.76 -2.03922 3.90005 0
M  V30 15853 H 1453.88 -0.208468 0.706902 0
M  V30 15854 H 1456.52 0.157945 1.89342 0
M  V30 15855 H 1454.67 -1.76561 3.46061 0
M  V30 15856 H 1456.34 0.594458 4.57454 0
M  V30 15857 H 1454.59 0.627775 4.29234 0
M  V30 15858 H 1455.26 -0.472897 5.49971 0
M  V30 15859 H 1457.73 -1.51156 3.87674 0
M  V30 15860 H 1456.61 -2.40123 4.93591 0
M  V30 15861 H 1456.87 -2.95407 3.28918 0
M  V30 15862 N 1455.93 -1.56509 -0.185096 0
M  V30 15863 C 1456.86 -1.91878 -1.25361 0
M  V30 15864 C 1457.87 -0.810443 -1.41194 0
M  V30 15865 O 1459.06 -1.08887 -1.41442 0
M  V30 15866 C 1456.16 -2.14433 -2.62434 0
M  V30 15867 C 1455.34 -3.45618 -2.6808 0
M  V30 15868 C 1454.39 -3.57165 -3.86419 0
M  V30 15869 O 1453.42 -4.29904 -3.73056 0
M  V30 15870 N 1454.62 -2.90993 -5.02298 0
M  V30 15871 H 1457.39 -2.84133 -0.953328 0
M  V30 15872 H 1454.95 -1.57498 -0.374955 0
M  V30 15873 H 1456.94 -2.19437 -3.40044 0
M  V30 15874 H 1455.51 -1.28629 -2.84909 0
M  V30 15875 H 1454.73 -3.52394 -1.76669 0
M  V30 15876 H 1456.02 -4.31968 -2.68851 0
M  V30 15877 H 1455.42 -2.31743 -5.16054 0
M  V30 15878 H 1453.97 -3.01611 -5.77819 0
M  V30 15879 N 1457.41 0.45317 -1.50944 0
M  V30 15880 C 1458.34 1.55655 -1.74051 0
M  V30 15881 C 1459.32 1.59545 -0.58987 0
M  V30 15882 O 1460.5 1.75526 -0.830922 0
M  V30 15883 C 1457.63 2.93857 -1.85109 0
M  V30 15884 C 1456.59 3.04832 -3.00435 0
M  V30 15885 C 1455.91 4.44858 -2.96657 0
M  V30 15886 C 1457.21 2.80381 -4.40663 0
M  V30 15887 H 1458.91 1.36571 -2.66437 0
M  V30 15888 H 1456.45 0.655572 -1.28212 0
M  V30 15889 H 1458.41 3.70992 -1.99857 0
M  V30 15890 H 1457.13 3.14138 -0.893579 0
M  V30 15891 H 1455.79 2.30134 -2.85366 0
M  V30 15892 H 1455.44 4.62083 -1.98716 0
M  V30 15893 H 1455.14 4.53134 -3.7409 0
M  V30 15894 H 1456.66 5.23989 -3.13478 0
M  V30 15895 H 1458.07 3.47255 -4.56165 0
M  V30 15896 H 1456.47 3.00083 -5.19683 0
M  V30 15897 H 1457.54 1.76099 -4.51793 0
M  V30 15898 N 1458.88 1.40823 0.707568 0
M  V30 15899 C 1460.3 1.23029 1.01666 0
M  V30 15900 C 1460.5 0.111152 2.01193 0
M  V30 15901 O 1459.56 -0.52836 2.4691 0
M  V30 15902 C 1460.87 2.57509 1.55272 0
M  V30 15903 C 1462.42 2.6459 1.67216 0
M  V30 15904 C 1462.89 3.99357 2.24227 0
M  V30 15905 N 1464.38 4.01141 2.31603 0
M  V30 15906 C 1465.12 5.02211 2.76715 0
M  V30 15907 N 1464.61 6.13674 3.21521 0
M  V30 15908 N 1466.41 4.89577 2.76172 0
M  V30 15909 H 1458.56 2.12346 0.0480107 0
M  V30 15910 H 1460.82 0.944281 0.0838885 0
M  V30 15911 H 1460.53 3.40095 0.896012 0
M  V30 15912 H 1460.4 2.79158 2.53674 0
M  V30 15913 H 1462.79 1.8237 2.32002 0
M  V30 15914 H 1462.87 2.46763 0.673927 0
M  V30 15915 H 1462.51 4.8202 1.6006 0
M  V30 15916 H 1462.44 4.14518 3.2478 0
M  V30 15917 H 1464.93 3.20657 1.99968 0
M  V30 15918 H 1465.25 6.86677 3.54534 0
M  V30 15919 H 1463.59 6.17228 3.1946 0
M  V30 15920 H 1466.78 4.01588 2.40509 0
M  V30 15921 H 1466.96 5.68485 3.11012 0
M  V30 15922 N 1460.36 -0.94061 1.26453 0
M  V30 15923 C 1461.59 -1.72654 1.14914 0
M  V30 15924 C 1462.01 -1.85823 -0.291789 0
M  V30 15925 O 1461.37 -1.34888 -1.2114 0
M  V30 15926 C 1461.42 -3.11083 1.82372 0
M  V30 15927 O 1460.52 -3.971 1.1129 0
M  V30 15928 H 1459.86 -0.529704 0.400387 0
M  V30 15929 H 1462.39 -1.17803 1.67283 0
M  V30 15930 H 1462.4 -3.6147 1.89219 0
M  V30 15931 H 1461.08 -3.00815 2.87199 0
M  V30 15932 H 1459.66 -3.5555 1.12423 0
M  V30 15933 N 1461.84 -1.08266 -1.14527 0
M  V30 15934 C 1462.75 -0.723043 -2.2318 0
M  V30 15935 C 1463.77 0.269819 -1.71895 0
M  V30 15936 O 1464.94 0.114126 -2.01076 0
M  V30 15937 C 1462.01 -0.136229 -3.46432 0
M  V30 15938 C 1461.07 -1.18352 -4.12664 0
M  V30 15939 C 1460.3 -0.624612 -5.30032 0
M  V30 15940 O 1460.52 0.556377 -5.6768 0
M  V30 15941 O 1459.46 -1.37397 -5.86008 0
M  V30 15942 H 1463.28 -1.6294 -2.56289 0
M  V30 15943 H 1460.87 -0.856235 -1.22429 0
M  V30 15944 H 1462.75 0.18829 -4.20979 0
M  V30 15945 H 1461.43 0.74331 -3.1505 0
M  V30 15946 H 1460.33 -1.56054 -3.39997 0
M  V30 15947 H 1461.67 -2.03528 -4.48148 0
M  V30 15948 N 1463.32 1.31536 -0.86811 0
M  V30 15949 C 1464.57 1.97066 -0.478829 0
M  V30 15950 C 1464.9 1.68469 0.966021 0
M  V30 15951 O 1464.17 0.980166 1.67997 0
M  V30 15952 C 1464.46 3.52533 -0.734313 0
M  V30 15953 C 1464.31 3.90711 -2.22856 0
M  V30 15954 C 1465.63 4.39647 -0.199559 0
M  V30 15955 H 1462.75 0.715813 -0.175444 0
M  V30 15956 H 1465.39 1.55694 -1.08901 0
M  V30 15957 H 1463.54 3.87905 -0.214962 0
M  V30 15958 H 1465.21 3.65451 -2.81502 0
M  V30 15959 H 1463.45 3.39385 -2.70185 0
M  V30 15960 H 1464.13 4.99103 -2.35797 0
M  V30 15961 H 1466.6 4.11088 -0.643853 0
M  V30 15962 H 1465.48 5.47383 -0.407783 0
M  V30 15963 H 1465.74 4.32875 0.898414 0
M  V30 15964 N 1464.8 0.627364 1.44575 0
M  V30 15965 C 1466.07 0.0614392 1.95503 0
M  V30 15966 C 1466.45 -1.41182 1.56942 0
M  V30 15967 O 1465.8 -2.12435 0.841634 0
M  V30 15968 C 1466.01 0.280349 3.47872 0
M  V30 15969 C 1467.36 0.171559 4.24253 0
M  V30 15970 O 1468.38 0.211515 3.55571 0
M  V30 15971 O 1467.24 0.0733152 5.46451 0
M  V30 15972 H 1464.34 -0.0244626 0.826638 0
M  V30 15973 H 1466.88 0.698805 1.54644 0
M  V30 15974 H 1465.66 1.30278 3.68976 0
M  V30 15975 H 1465.28 -0.391336 3.95669 0
M  V30 15976 N 1466.28 -1.53251 0.367684 0
M  V30 15977 C 1467.23 -2.22578 -0.494287 0
M  V30 15978 C 1468.21 -1.22175 -1.047 0
M  V30 15979 O 1469.4 -1.47613 -0.976696 0
M  V30 15980 C 1466.53 -3.02007 -1.63238 0
M  V30 15981 C 1465.62 -4.09788 -1.09244 0
M  V30 15982 N 1466.01 -5.05048 -0.275665 0
M  V30 15983 C 1464.31 -4.24532 -1.36705 0
M  V30 15984 C 1465.01 -5.81696 0.0201973 0
M  V30 15985 N 1463.98 -5.40518 -0.577991 0
M  V30 15986 H 1467.78 -2.93583 0.136532 0
M  V30 15987 H 1465.3 -1.61446 0.175813 0
M  V30 15988 H 1467.3 -3.50193 -2.26209 0
M  V30 15989 H 1465.96 -2.32533 -2.26624 0
M  V30 15990 H 1466.97 -5.1783 0.0853053 0
M  V30 15991 H 1463.64 -3.66285 -2.00354 0
M  V30 15992 H 1465.03 -6.68444 0.680622 0
M  V30 15993 N 1467.75 -0.0969077 -1.57302 0
M  V30 15994 C 1468.68 0.858443 -2.17147 0
M  V30 15995 C 1469.66 1.29294 -1.10531 0
M  V30 15996 O 1470.85 1.3595 -1.38676 0
M  V30 15997 C 1467.98 2.11691 -2.75326 0
M  V30 15998 C 1466.93 1.82097 -3.8733 0
M  V30 15999 C 1466.26 3.14787 -4.32219 0
M  V30 16000 C 1467.56 1.10651 -5.10444 0
M  V30 16001 H 1469.25 0.35982 -2.9723 0
M  V30 16002 H 1466.8 0.17163 -1.42974 0
M  V30 16003 H 1468.75 2.78963 -3.15844 0
M  V30 16004 H 1467.48 2.63839 -1.925 0
M  V30 16005 H 1466.14 1.17222 -3.47354 0
M  V30 16006 H 1465.78 3.64826 -3.46281 0
M  V30 16007 H 1465.48 2.95769 -5.07735 0
M  V30 16008 H 1467.01 3.83215 -4.75372 0
M  V30 16009 H 1468.42 1.68036 -5.48121 0
M  V30 16010 H 1466.82 1.01805 -5.91401 0
M  V30 16011 H 1467.89 0.0895634 -4.84817 0
M  V30 16012 N 1469.23 1.56605 0.176793 0
M  V30 16013 C 1470.65 1.50601 0.528354 0
M  V30 16014 C 1470.85 0.800205 1.8493 0
M  V30 16015 O 1469.9 0.358299 2.49945 0
M  V30 16016 C 1471.22 2.95322 0.566172 0
M  V30 16017 C 1472.76 3.06097 0.653751 0
M  V30 16018 C 1473.24 4.52265 0.722511 0
M  V30 16019 N 1474.73 4.5649 0.785548 0
M  V30 16020 C 1475.47 5.66926 0.859232 0
M  V30 16021 N 1474.96 6.87006 0.894088 0
M  V30 16022 N 1476.75 5.54883 0.897832 0
M  V30 16023 H 1468.91 2.00899 -0.689442 0
M  V30 16024 H 1471.17 0.915011 -0.24791 0
M  V30 16025 H 1470.87 3.50095 -0.33566 0
M  V30 16026 H 1470.75 3.49671 1.41456 0
M  V30 16027 H 1473.14 2.51361 1.54601 0
M  V30 16028 H 1473.22 2.54842 -0.221207 0
M  V30 16029 H 1472.86 5.0763 -0.165469 0
M  V30 16030 H 1472.79 5.01271 1.61353 0
M  V30 16031 H 1475.28 3.70032 0.767117 0
M  V30 16032 H 1475.59 7.66922 0.951333 0
M  V30 16033 H 1473.94 6.89628 0.862457 0
M  V30 16034 H 1477.13 4.5999 0.867564 0
M  V30 16035 H 1477.3 6.40972 0.951795 0
M  V30 16036 N 1470.71 -0.445159 1.51182 0
M  V30 16037 C 1472.13 -0.781023 1.39184 0
M  V30 16038 C 1472.33 -1.95988 0.468076 0
M  V30 16039 O 1471.38 -2.52374 -0.0796822 0
M  V30 16040 C 1472.69 -1.06874 2.81067 0
M  V30 16041 C 1474.24 -1.17364 2.90163 0
M  V30 16042 C 1474.72 -1.49433 4.32936 0
M  V30 16043 N 1476.21 -1.56373 4.36006 0
M  V30 16044 C 1476.94 -1.82743 5.435 0
M  V30 16045 N 1476.44 -2.06958 6.61166 0
M  V30 16046 N 1478.23 -1.84461 5.30971 0
M  V30 16047 H 1470.38 0.331347 2.098 0
M  V30 16048 H 1472.65 0.0858102 0.944108 0
M  V30 16049 H 1472.35 -0.275306 3.50621 0
M  V30 16050 H 1472.23 -1.99839 3.19913 0
M  V30 16051 H 1474.61 -1.95771 2.20812 0
M  V30 16052 H 1474.69 -0.22318 2.54825 0
M  V30 16053 H 1474.34 -0.715573 5.02834 0
M  V30 16054 H 1474.27 -2.45673 4.65782 0
M  V30 16055 H 1476.76 -1.39595 3.51172 0
M  V30 16056 H 1477.07 -2.26427 7.38885 0
M  V30 16057 H 1475.42 -2.04297 6.64295 0
M  V30 16058 H 1478.61 -1.65057 4.38034 0
M  V30 16059 H 1478.78 -2.04675 6.14827 0
M  V30 16060 N 1472.19 -1.41197 -0.700089 0
M  V30 16061 C 1473.1 -1.45038 -1.84394 0
M  V30 16062 C 1474.11 -0.34141 -1.70618 0
M  V30 16063 O 1475.29 -0.588428 -1.92612 0
M  V30 16064 C 1472.35 -1.32611 -3.20336 0
M  V30 16065 C 1471.42 -2.53784 -3.46254 0
M  V30 16066 C 1470.65 -2.4194 -4.75711 0
M  V30 16067 O 1470.87 -1.44153 -5.51884 0
M  V30 16068 O 1469.81 -3.31613 -5.02311 0
M  V30 16069 H 1473.63 -2.41531 -1.8411 0
M  V30 16070 H 1471.22 -1.22686 -0.852558 0
M  V30 16071 H 1473.1 -1.27947 -4.01507 0
M  V30 16072 H 1471.77 -0.392309 -3.21314 0
M  V30 16073 H 1470.68 -2.64024 -2.65032 0
M  V30 16074 H 1472.01 -3.45977 -3.50087 0
M  V30 16075 N 1473.67 0.933891 -1.2695 0
M  V30 16076 C 1474.91 1.67539 -1.1231 0
M  V30 16077 C 1475.23 1.92765 0.331788 0
M  V30 16078 O 1476.43 2.6481 0.598983 0
M  V30 16079 C 1474.89 3.01722 -1.96194 0
M  V30 16080 C 1474.5 2.84216 -3.46302 0
M  V30 16081 C 1476.24 3.79513 -1.90185 0
M  V30 16082 C 1474.15 4.13916 -4.22407 0
M  V30 16083 H 1473.08 0.62839 -0.416704 0
M  V30 16084 H 1475.73 1.03801 -1.5132 0
M  V30 16085 H 1474.11 3.66482 -1.50023 0
M  V30 16086 H 1475.29 2.28261 -4.00292 0
M  V30 16087 H 1473.6 2.1986 -3.53625 0
M  V30 16088 H 1476.2 4.75615 -2.44325 0
M  V30 16089 H 1476.54 4.07019 -0.874129 0
M  V30 16090 H 1477.07 3.21539 -2.34217 0
M  V30 16091 H 1473.81 3.91591 -5.25677 0
M  V30 16092 H 1473.33 4.69558 -3.73196 0
M  V30 16093 H 1475.01 4.82322 -4.31248 0
M  V30 16094 N 1475.14 1.08871 1.13951 0
M  V30 16095 C 1476.37 0.842913 1.88951 0
M  V30 16096 C 1476.79 -0.605348 1.78832 0
M  V30 16097 O 1476.14 -1.41631 1.15095 0
M  V30 16098 C 1476.19 1.26198 3.38757 0
M  V30 16099 O 1475.92 2.65344 3.48603 0
M  V30 16100 C 1477.42 1.04773 4.30741 0
M  V30 16101 H 1474.64 0.303651 0.598362 0
M  V30 16102 H 1477.18 1.44922 1.44284 0
M  V30 16103 H 1475.34 0.699682 3.81029 0
M  V30 16104 H 1475.75 2.82863 4.41688 0
M  V30 16105 H 1477.22 1.39029 5.34205 0
M  V30 16106 H 1477.7 -0.0149046 4.39197 0
M  V30 16107 H 1478.31 1.5957 3.9423 0
M  V30 16108 N 1476.62 -1.31073 0.875073 0
M  V30 16109 C 1477.53 -2.3215 0.338196 0
M  V30 16110 C 1478.55 -1.64928 -0.554504 0
M  V30 16111 O 1479.72 -1.96308 -0.449998 0
M  V30 16112 C 1476.79 -3.43804 -0.447163 0
M  V30 16113 C 1475.85 -4.26674 0.474106 0
M  V30 16114 C 1475.08 -5.32997 -0.273867 0
M  V30 16115 O 1475.31 -5.50288 -1.50129 0
M  V30 16116 O 1474.24 -6.00756 0.370913 0
M  V30 16117 H 1478.07 -2.80002 1.17612 0
M  V30 16118 H 1475.65 -1.35064 0.6386 0
M  V30 16119 H 1477.53 -4.11847 -0.892199 0
M  V30 16120 H 1476.21 -2.98105 -1.26155 0
M  V30 16121 H 1475.11 -3.61366 0.967748 0
M  V30 16122 H 1476.45 -4.75952 1.25423 0
M  V30 16123 N 1478.1 -0.635022 -1.4424 0
M  V30 16124 C 1479.52 -0.300978 -1.56736 0
M  V30 16125 C 1479.72 1.19571 -1.62188 0
M  V30 16126 O 1478.77 1.97991 -1.56703 0
M  V30 16127 C 1480.09 -0.996327 -2.83714 0
M  V30 16128 C 1481.63 -0.97484 -2.97432 0
M  V30 16129 C 1482.11 -1.65073 -4.27218 0
M  V30 16130 N 1483.6 -1.6175 -4.3404 0
M  V30 16131 C 1484.33 -2.10938 -5.33191 0
M  V30 16132 N 1483.83 -2.68333 -6.38725 0
M  V30 16133 N 1485.62 -2.01544 -5.24725 0
M  V30 16134 H 1477.77 -1.60649 -1.38945 0
M  V30 16135 H 1480.04 -0.674561 -0.666087 0
M  V30 16136 H 1479.74 -2.05128 -2.85684 0
M  V30 16137 H 1479.62 -0.536511 -3.73365 0
M  V30 16138 H 1482 0.071646 -2.95013 0
M  V30 16139 H 1482.09 -1.47318 -2.0912 0
M  V30 16140 H 1481.73 -2.69669 -4.30397 0
M  V30 16141 H 1481.66 -1.12719 -5.14395 0
M  V30 16142 H 1484.15 -1.1985 -3.58392 0
M  V30 16143 H 1484.46 -3.03588 -7.10672 0
M  V30 16144 H 1482.81 -2.72385 -6.39399 0
M  V30 16145 H 1486 -1.56423 -4.41191 0
M  V30 16146 H 1486.17 -2.40187 -6.01842 0
M  V30 16147 N 1479.58 1.53054 -0.375806 0
M  V30 16148 C 1480.49 2.29772 0.47349 0
M  V30 16149 C 1481.5 1.36144 1.08355 0
M  V30 16150 O 1482.68 1.69208 1.09228 0
M  V30 16151 C 1479.75 3.07964 1.59245 0
M  V30 16152 C 1478.81 4.17277 1.00888 0
M  V30 16153 C 1478.04 4.91731 2.07451 0
M  V30 16154 O 1478.26 4.66143 3.28736 0
M  V30 16155 O 1477.2 5.77413 1.69936 0
M  V30 16156 H 1481.02 3.03324 -0.151105 0
M  V30 16157 H 1478.61 1.48744 -0.139895 0
M  V30 16158 H 1480.49 3.56759 2.24279 0
M  V30 16159 H 1479.16 2.37239 2.20226 0
M  V30 16160 H 1478.07 3.7271 0.322167 0
M  V30 16161 H 1479.4 4.90198 0.443483 0
M  V30 16162 N 1481.06 0.105248 1.57248 0
M  V30 16163 C 1481.99 -0.886904 2.1026 0
M  V30 16164 C 1482.97 -1.26981 1.01561 0
M  V30 16165 O 1484.15 -1.37327 1.29126 0
M  V30 16166 C 1481.28 -2.18499 2.58797 0
M  V30 16167 C 1480.32 -1.95119 3.79251 0
M  V30 16168 S 1481.16 -1.17995 5.22338 0
M  V30 16169 C 1482.31 -2.49012 5.74233 0
M  V30 16170 H 1482.55 -0.435954 2.94086 0
M  V30 16171 H 1480.08 -0.108251 1.5402 0
M  V30 16172 H 1482.04 -2.93089 2.87418 0
M  V30 16173 H 1480.7 -2.60714 1.75178 0
M  V30 16174 H 1479.89 -2.91268 4.11314 0
M  V30 16175 H 1479.49 -1.28654 3.51175 0
M  V30 16176 H 1481.79 -3.44932 5.83119 0
M  V30 16177 H 1482.73 -2.21513 6.7256 0
M  V30 16178 H 1483.14 -2.5775 5.0222 0
M  V30 16179 N 1482.53 -1.56697 -0.168486 0
M  V30 16180 C 1483.47 -1.93197 -1.23319 0
M  V30 16181 C 1484.48 -0.825373 -1.40326 0
M  V30 16182 O 1485.67 -1.10381 -1.40279 0
M  V30 16183 C 1482.77 -2.17205 -2.60145 0
M  V30 16184 C 1481.94 -3.48442 -2.64399 0
M  V30 16185 C 1481 -3.61244 -3.82609 0
M  V30 16186 O 1480.03 -4.33837 -3.68476 0
M  V30 16187 N 1481.23 -2.96304 -4.99183 0
M  V30 16188 H 1483.99 -2.85128 -0.923138 0
M  V30 16189 H 1481.55 -1.57887 -0.358229 0
M  V30 16190 H 1483.55 -2.23031 -3.37697 0
M  V30 16191 H 1482.12 -1.31643 -2.83529 0
M  V30 16192 H 1481.34 -3.54248 -1.72922 0
M  V30 16193 H 1482.62 -4.34795 -2.64255 0
M  V30 16194 H 1482.02 -2.37203 -5.13567 0
M  V30 16195 H 1480.58 -3.07722 -5.74587 0
M  V30 16196 N 1484.01 0.437135 -1.51416 0
M  V30 16197 C 1484.94 1.538 -1.75692 0
M  V30 16198 C 1485.92 1.5891 -0.606759 0
M  V30 16199 O 1487.11 1.74635 -0.849492 0
M  V30 16200 C 1484.24 2.91877 -1.88215 0
M  V30 16201 C 1483.19 3.01628 -3.03652 0
M  V30 16202 C 1482.52 4.41687 -3.01358 0
M  V30 16203 C 1483.82 2.75691 -4.43612 0
M  V30 16204 H 1485.51 1.33737 -2.67871 0
M  V30 16205 H 1483.06 0.641936 -1.289 0
M  V30 16206 H 1485.01 3.68851 -2.03781 0
M  V30 16207 H 1483.74 3.13173 -0.926847 0
M  V30 16208 H 1482.39 2.27094 -2.87791 0
M  V30 16209 H 1482.04 4.5995 -2.03605 0
M  V30 16210 H 1481.74 4.49141 -3.78875 0
M  V30 16211 H 1483.27 5.20634 -3.19018 0
M  V30 16212 H 1484.68 3.42398 -4.59822 0
M  V30 16213 H 1483.08 2.94554 -5.22836 0
M  V30 16214 H 1484.15 1.71297 -4.53636 0
M  V30 16215 N 1485.49 1.41566 0.692592 0
M  V30 16216 C 1486.72 1.44445 1.48132 0
M  V30 16217 C 1487.13 0.0505867 1.88732 0
M  V30 16218 O 1486.49 -0.930779 1.5698 0
M  V30 16219 C 1486.54 2.35582 2.74196 0
M  V30 16220 O 1486.26 3.69545 2.35305 0
M  V30 16221 C 1487.76 2.47296 3.67912 0
M  V30 16222 H 1484.98 0.491877 0.456396 0
M  V30 16223 H 1487.53 1.85884 0.852499 0
M  V30 16224 H 1485.68 1.97445 3.33308 0
M  V30 16225 H 1486.1 4.1818 3.16584 0
M  V30 16226 H 1487.57 3.15225 4.53141 0
M  V30 16227 H 1488.05 1.50517 4.12603 0
M  V30 16228 H 1488.65 2.86082 3.14702 0
M  V30 16229 N 1486.97 -0.927146 1.27443 0
M  V30 16230 C 1488.19 -1.71426 1.16739 0
M  V30 16231 C 1488.62 -1.86122 -0.272063 0
M  V30 16232 O 1487.98 -1.36165 -1.19703 0
M  V30 16233 C 1488.02 -3.09131 1.85661 0
M  V30 16234 O 1487.13 -3.95897 1.15495 0
M  V30 16235 H 1486.47 -0.525428 0.405983 0
M  V30 16236 H 1489 -1.16022 1.68523 0
M  V30 16237 H 1489.01 -3.59442 1.93042 0
M  V30 16238 H 1487.68 -2.97752 2.90373 0
M  V30 16239 H 1486.26 -3.54337 1.16187 0
M  V30 16240 N 1488.45 -1.09474 -1.13372 0
M  V30 16241 C 1489.38 -0.692446 -2.1849 0
M  V30 16242 C 1490.39 0.265942 -1.60613 0
M  V30 16243 O 1491.58 0.0519189 -1.78424 0
M  V30 16244 C 1488.68 0.000306083 -3.389 0
M  V30 16245 C 1487.85 -0.979745 -4.26286 0
M  V30 16246 C 1486.91 -0.320309 -5.25224 0
M  V30 16247 O 1485.94 -0.968089 -5.60907 0
M  V30 16248 N 1487.14 0.92536 -5.73077 0
M  V30 16249 H 1489.91 -1.59681 -2.53618 0
M  V30 16250 H 1487.47 -0.982256 -1.28699 0
M  V30 16251 H 1489.46 0.45268 -4.0216 0
M  V30 16252 H 1488.03 0.806927 -3.02006 0
M  V30 16253 H 1487.25 -1.61067 -3.59793 0
M  V30 16254 H 1488.54 -1.64348 -4.81526 0
M  V30 16255 H 1487.93 1.47119 -5.46235 0
M  V30 16256 H 1486.49 1.32105 -6.38272 0
M  V30 16257 N 1489.92 1.30607 -0.882012 0
M  V30 16258 C 1490.87 2.2821 -0.344826 0
M  V30 16259 C 1491.84 1.56254 0.563361 0
M  V30 16260 O 1493.03 1.84336 0.492416 0
M  V30 16261 C 1490.17 3.42319 0.437216 0
M  V30 16262 C 1489.28 4.29098 -0.499851 0
M  V30 16263 C 1488.41 5.30366 0.297497 0
M  V30 16264 C 1487.45 6.08795 -0.63523 0
M  V30 16265 N 1486.59 7.01986 0.12661 0
M  V30 16266 H 1491.43 2.73543 -1.18229 0
M  V30 16267 H 1488.97 1.34556 -0.594392 0
M  V30 16268 H 1490.93 4.07232 0.906521 0
M  V30 16269 H 1489.56 2.98063 1.23928 0
M  V30 16270 H 1488.61 3.6452 -1.08764 0
M  V30 16271 H 1489.92 4.83787 -1.21454 0
M  V30 16272 H 1489.07 6.01013 0.828786 0
M  V30 16273 H 1487.81 4.76364 1.04542 0
M  V30 16274 H 1486.82 5.37028 -1.17817 0
M  V30 16275 H 1488.04 6.64885 -1.3822 0
M  V30 16276 H 1485.99 6.50376 0.857125 0
M  V30 16277 H 1485.91 7.5415 -0.528512 0
M  V30 16278 H 1487.17 7.76879 0.638738 0
M  V30 16279 N 1491.4 0.642663 1.43901 0
M  V30 16280 C 1492.33 -0.0938945 2.29008 0
M  V30 16281 C 1493.35 -0.797561 1.41925 0
M  V30 16282 O 1494.54 -0.65708 1.65966 0
M  V30 16283 C 1491.64 -1.15564 3.18588 0
M  V30 16284 C 1490.81 -0.532208 4.3415 0
M  V30 16285 C 1489.87 -1.48943 5.0468 0
M  V30 16286 O 1488.89 -1.00211 5.60309 0
M  V30 16287 N 1490.1 -2.82362 5.072 0
M  V30 16288 H 1492.86 0.636539 2.92862 0
M  V30 16289 H 1490.42 0.484665 1.54475 0
M  V30 16290 H 1492.41 -1.79658 3.62636 0
M  V30 16291 H 1490.98 -1.78816 2.56405 0
M  V30 16292 H 1490.2 0.287598 3.93149 0
M  V30 16293 H 1491.49 -0.0965526 5.08708 0
M  V30 16294 H 1490.89 -3.24524 4.63358 0
M  V30 16295 H 1489.45 -3.41786 5.55001 0
M  V30 16296 N 1492.88 -1.52852 0.383918 0
M  V30 16297 C 1494.11 -2.05929 -0.200216 0
M  V30 16298 C 1494.52 -1.25606 -1.40956 0
M  V30 16299 O 1493.88 -0.301336 -1.79995 0
M  V30 16300 C 1493.93 -3.56887 -0.575655 0
M  V30 16301 O 1493.65 -4.34168 0.58564 0
M  V30 16302 C 1495.15 -4.2629 -1.21623 0
M  V30 16303 H 1492.37 -0.670261 -0.0314727 0
M  V30 16304 H 1494.92 -1.97032 0.547591 0
M  V30 16305 H 1493.07 -3.65875 -1.27336 0
M  V30 16306 H 1493.49 -5.23761 0.278267 0
M  V30 16307 H 1494.96 -5.33174 -1.42933 0
M  V30 16308 H 1495.44 -3.81163 -2.182 0
M  V30 16309 H 1496.04 -4.21605 -0.559435 0
M  V30 16310 N 1494.36 -0.113586 -1.5719 0
M  V30 16311 C 1495.29 0.875741 -2.10727 0
M  V30 16312 C 1496.27 1.2644 -1.02233 0
M  V30 16313 O 1497.45 1.36641 -1.29852 0
M  V30 16314 C 1494.58 2.17123 -2.59952 0
M  V30 16315 C 1493.63 1.93105 -3.8028 0
M  V30 16316 S 1494.46 1.15223 -5.22957 0
M  V30 16317 C 1495.62 2.45963 -5.75546 0
M  V30 16318 H 1495.85 0.420351 -2.94313 0
M  V30 16319 H 1493.38 0.100081 -1.54075 0
M  V30 16320 H 1495.34 2.91561 -2.88968 0
M  V30 16321 H 1494 2.59781 -1.76558 0
M  V30 16322 H 1493.19 2.89082 -4.12853 0
M  V30 16323 H 1492.8 1.2679 -3.51853 0
M  V30 16324 H 1495.09 3.41835 -5.8494 0
M  V30 16325 H 1496.03 2.17943 -6.73726 0
M  V30 16326 H 1496.44 2.55083 -5.0358 0
M  V30 16327 N 1495.84 1.56784 0.160173 0
M  V30 16328 C 1496.75 2.00514 1.21783 0
M  V30 16329 C 1497.76 0.918341 1.47792 0
M  V30 16330 O 1498.94 1.22683 1.59721 0
M  V30 16331 C 1496 2.36575 2.53443 0
M  V30 16332 C 1495.07 3.59138 2.35198 0
M  V30 16333 C 1494.3 3.93469 3.6058 0
M  V30 16334 O 1494.52 3.28625 4.6622 0
M  V30 16335 O 1493.46 4.86774 3.54027 0
M  V30 16336 H 1497.28 2.90774 0.876607 0
M  V30 16337 H 1494.87 1.44799 0.367897 0
M  V30 16338 H 1496.75 2.60687 3.31089 0
M  V30 16339 H 1495.42 1.49474 2.87122 0
M  V30 16340 H 1494.33 3.4023 1.55546 0
M  V30 16341 H 1495.66 4.46815 2.0644 0
M  V30 16342 N 1497.32 -0.429099 1.51646 0
M  V30 16343 C 1498.28 -1.50398 1.72954 0
M  V30 16344 C 1499.28 -1.49207 0.599491 0
M  V30 16345 O 1500.47 -1.51084 0.867143 0
M  V30 16346 C 1497.6 -2.89903 1.79358 0
M  V30 16347 H 1498.79 -1.32805 2.68892 0
M  V30 16348 H 1496.35 -0.658313 1.4176 0
M  V30 16349 H 1497.08 -3.12891 0.852639 0
M  V30 16350 H 1496.87 -2.92171 2.61492 0
M  V30 16351 H 1498.36 -3.67862 1.97654 0
M  V30 16352 N 1498.79 -1.41931 -0.685074 0
M  V30 16353 C 1499.72 -1.47385 -1.81107 0
M  V30 16354 C 1500.7 -0.331433 -1.6684 0
M  V30 16355 O 1501.89 -0.544331 -1.86415 0
M  V30 16356 C 1499.02 -1.36555 -3.19327 0
M  V30 16357 C 1497.97 -2.48718 -3.48315 0
M  V30 16358 C 1497.3 -2.2295 -4.86002 0
M  V30 16359 C 1498.6 -3.91047 -3.46237 0
M  V30 16360 H 1500.29 -2.41624 -1.768 0
M  V30 16361 H 1497.84 -1.16297 -0.849178 0
M  V30 16362 H 1499.79 -1.38981 -3.97822 0
M  V30 16363 H 1498.52 -0.388063 -3.24286 0
M  V30 16364 H 1497.18 -2.45592 -2.72176 0
M  V30 16365 H 1496.82 -1.23518 -4.87598 0
M  V30 16366 H 1496.52 -2.98116 -5.0636 0
M  V30 16367 H 1498.05 -2.27108 -5.66793 0
M  V30 16368 H 1499.46 -3.95831 -4.14718 0
M  V30 16369 H 1497.86 -4.65981 -3.7813 0
M  V30 16370 H 1498.93 -4.1845 -2.45006 0
M  V30 16371 N 1500.27 0.920374 -1.27933 0
M  V30 16372 C 1501.22 2.02196 -1.1129 0
M  V30 16373 C 1502.19 1.66096 -0.0118871 0
M  V30 16374 O 1503.37 1.8999 -0.175586 0
M  V30 16375 C 1500.51 3.36312 -0.77383 0
M  V30 16376 C 1499.63 3.85322 -1.95322 0
M  V30 16377 C 1498.76 5.07919 -1.55537 0
M  V30 16378 C 1497.8 5.49244 -2.7018 0
M  V30 16379 N 1496.94 6.63034 -2.30933 0
M  V30 16380 H 1501.78 2.15764 -2.05548 0
M  V30 16381 H 1499.31 1.05691 -1.02312 0
M  V30 16382 H 1501.27 4.13451 -0.558024 0
M  V30 16383 H 1499.9 3.22531 0.131806 0
M  V30 16384 H 1498.95 3.04399 -2.28135 0
M  V30 16385 H 1500.27 4.11915 -2.81296 0
M  V30 16386 H 1499.42 5.92581 -1.30123 0
M  V30 16387 H 1498.16 4.8312 -0.666818 0
M  V30 16388 H 1497.16 4.63127 -2.96299 0
M  V30 16389 H 1498.39 5.76035 -3.59667 0
M  V30 16390 H 1496.34 6.39878 -1.44539 0
M  V30 16391 H 1496.25 6.89319 -3.10444 0
M  V30 16392 H 1497.52 7.51018 -2.08786 0
M  V30 16393 N 1501.75 1.10074 1.1279 0
M  V30 16394 C 1502.98 0.862906 1.88047 0
M  V30 16395 C 1503.39 -0.586346 1.79464 0
M  V30 16396 O 1502.75 -1.40402 1.16591 0
M  V30 16397 C 1502.8 1.29784 3.37399 0
M  V30 16398 O 1502.52 2.69026 3.4577 0
M  V30 16399 C 1504.02 1.09336 4.29605 0
M  V30 16400 H 1501.24 0.309981 0.595108 0
M  V30 16401 H 1503.79 1.46444 1.42738 0
M  V30 16402 H 1501.94 0.740056 3.80266 0
M  V30 16403 H 1502.36 2.87532 4.38663 0
M  V30 16404 H 1503.83 1.44687 5.327 0
M  V30 16405 H 1504.31 0.031679 4.39189 0
M  V30 16406 H 1504.91 1.63743 3.92516 0
M  V30 16407 N 1503.23 -1.30138 0.888926 0
M  V30 16408 C 1504.46 -2.00143 0.524437 0
M  V30 16409 C 1504.87 -1.66608 -0.888093 0
M  V30 16410 O 1504.23 -0.905326 -1.58462 0
M  V30 16411 C 1504.28 -3.54769 0.694327 0
M  V30 16412 O 1504 -3.87112 2.05125 0
M  V30 16413 C 1505.5 -4.42045 0.333354 0
M  V30 16414 H 1502.72 -0.639775 0.202309 0
M  V30 16415 H 1505.26 -1.65929 1.19531 0
M  V30 16416 H 1503.42 -3.87335 0.0707712 0
M  V30 16417 H 1503.83 -4.81807 2.07275 0
M  V30 16418 H 1505.31 -5.49702 0.503107 0
M  V30 16419 H 1505.78 -4.33109 -0.728893 0
M  V30 16420 H 1506.39 -4.14931 0.933398 0
M  V30 16421 N 1504.71 -0.650285 -1.43559 0
M  V30 16422 C 1505.95 -0.166046 -2.03724 0
M  V30 16423 C 1506.31 1.19631 -1.50174 0
M  V30 16424 O 1507.51 1.77379 -2.01966 0
M  V30 16425 C 1505.78 -0.172648 -3.56983 0
M  V30 16426 S 1507.34 0.244173 -4.3812 0
M  V30 16427 H 1504.16 -0.0705044 -0.707496 0
M  V30 16428 H 1506.76 -0.857964 -1.75668 0
M  V30 16429 H 1505.46 -1.16696 -3.93459 0
M  V30 16430 H 1505 0.539902 -3.89678 0
M  V30 16431 H 1507.01 1.48378 -4.73496 0
M  V30 16432 N 1506.18 1.52647 -0.392018 0
M  V30 16433 C 1507.41 2.06032 0.189293 0
M  V30 16434 C 1507.83 1.26351 1.40288 0
M  V30 16435 O 1507.18 0.310877 1.79833 0
M  V30 16436 C 1507.23 3.57187 0.55672 0
M  V30 16437 O 1506.96 4.33851 -0.608657 0
M  V30 16438 C 1508.46 4.26929 1.1936 0
M  V30 16439 H 1505.68 0.670419 0.0279177 0
M  V30 16440 H 1508.22 1.96739 -0.558033 0
M  V30 16441 H 1506.38 3.66545 1.25394 0
M  V30 16442 H 1506.79 5.23606 -0.306039 0
M  V30 16443 H 1508.26 5.33924 1.40104 0
M  V30 16444 H 1508.74 3.82315 2.16175 0
M  V30 16445 H 1509.35 4.21895 0.537069 0
M  V30 16446 N 1507.66 0.121921 1.57128 0
M  V30 16447 C 1508.6 -0.864553 2.11189 0
M  V30 16448 C 1509.57 -1.25896 1.02902 0
M  V30 16449 O 1510.76 -1.3595 1.30575 0
M  V30 16450 C 1507.88 -2.15742 2.611 0
M  V30 16451 C 1506.93 -1.91085 3.81299 0
M  V30 16452 S 1507.76 -1.12448 5.23561 0
M  V30 16453 C 1508.92 -2.42908 5.76842 0
M  V30 16454 H 1509.15 -0.404737 2.94532 0
M  V30 16455 H 1506.69 -0.091909 1.54126 0
M  V30 16456 H 1508.64 -2.90024 2.9051 0
M  V30 16457 H 1507.3 -2.58841 1.77933 0
M  V30 16458 H 1506.5 -2.86889 4.1438 0
M  V30 16459 H 1506.1 -1.24922 3.5252 0
M  V30 16460 H 1508.39 -3.38728 5.86745 0
M  V30 16461 H 1509.33 -2.14367 6.74872 0
M  V30 16462 H 1509.74 -2.52409 5.04926 0
M  V30 16463 N 1509.14 -1.56867 -0.151857 0
M  V30 16464 C 1510.07 -2.00932 -1.18949 0
M  V30 16465 C 1511.05 -0.888062 -1.45077 0
M  V30 16466 O 1512.24 -1.15553 -1.56081 0
M  V30 16467 C 1509.37 -2.3858 -2.52383 0
M  V30 16468 C 1508.32 -3.53845 -2.40785 0
M  V30 16469 C 1507.65 -3.77292 -3.78886 0
M  V30 16470 C 1508.95 -4.8667 -1.89605 0
M  V30 16471 H 1510.64 -2.87863 -0.823107 0
M  V30 16472 H 1508.19 -1.38491 -0.394499 0
M  V30 16473 H 1510.14 -2.68006 -3.25193 0
M  V30 16474 H 1508.86 -1.48579 -2.90847 0
M  V30 16475 H 1507.52 -3.24577 -1.70427 0
M  V30 16476 H 1507.17 -2.84551 -4.14777 0
M  V30 16477 H 1506.87 -4.54861 -3.71989 0
M  V30 16478 H 1508.39 -4.09139 -4.53252 0
M  V30 16479 H 1509.81 -5.14846 -2.52204 0
M  V30 16480 H 1508.21 -5.6801 -1.93609 0
M  V30 16481 H 1509.28 -4.77366 -0.851438 0
M  V30 16482 N 1510.62 0.421051 -1.51871 0
M  V30 16483 C 1511.53 1.5371 -1.7723 0
M  V30 16484 C 1512.54 1.61109 -0.657256 0
M  V30 16485 O 1513.72 1.78047 -0.941343 0
M  V30 16486 C 1510.79 2.89555 -1.9068 0
M  V30 16487 C 1509.85 2.9214 -3.14567 0
M  V30 16488 C 1509.08 4.21505 -3.27367 0
M  V30 16489 O 1509.3 5.14764 -2.45712 0
M  V30 16490 O 1508.24 4.30706 -4.20448 0
M  V30 16491 H 1512.06 1.35221 -2.71935 0
M  V30 16492 H 1509.65 0.605712 -1.3657 0
M  V30 16493 H 1511.53 3.70147 -2.01418 0
M  V30 16494 H 1510.2 3.08137 -0.991627 0
M  V30 16495 H 1509.11 2.10444 -3.09296 0
M  V30 16496 H 1510.44 2.78505 -4.05827 0
M  V30 16497 N 1512.1 1.42293 0.677538 0
M  V30 16498 C 1513.01 1.47953 1.82063 0
M  V30 16499 C 1514.02 0.36851 1.70053 0
M  V30 16500 O 1515.2 0.618996 1.91652 0
M  V30 16501 C 1512.26 1.3769 3.18186 0
M  V30 16502 C 1511.32 2.59261 3.42173 0
M  V30 16503 C 1510.56 2.49478 4.71801 0
M  V30 16504 O 1510.78 1.52915 5.49521 0
M  V30 16505 O 1509.71 3.39562 4.96972 0
M  V30 16506 H 1513.54 2.4443 1.80244 0
M  V30 16507 H 1511.13 1.24027 0.832932 0
M  V30 16508 H 1513.01 1.34319 3.9942 0
M  V30 16509 H 1511.68 0.443377 3.20649 0
M  V30 16510 H 1510.59 2.68207 2.60798 0
M  V30 16511 H 1511.92 3.51503 3.44538 0
M  V30 16512 N 1513.57 -0.913576 1.28419 0
M  V30 16513 C 1514.51 -2.02073 1.08163 0
M  V30 16514 C 1515.52 -1.62766 0.0333064 0
M  V30 16515 O 1516.71 -1.76347 0.27638 0
M  V30 16516 C 1513.81 -3.33151 0.621596 0
M  V30 16517 C 1512.98 -4.01068 1.74536 0
M  V30 16518 C 1512.04 -5.10428 1.27868 0
M  V30 16519 O 1511.07 -5.33617 1.98094 0
M  V30 16520 N 1512.27 -5.80326 0.141976 0
M  V30 16521 H 1515.03 -2.20009 2.0351 0
M  V30 16522 H 1512.59 -1.08488 1.20174 0
M  V30 16523 H 1514.59 -4.03638 0.292989 0
M  V30 16524 H 1513.16 -3.11685 -0.239031 0
M  V30 16525 H 1512.38 -3.24127 2.24355 0
M  V30 16526 H 1513.66 -4.4319 2.49919 0
M  V30 16527 H 1513.06 -5.63956 -0.443845 0
M  V30 16528 H 1511.62 -6.51676 -0.127354 0
M  V30 16529 N 1515.05 -1.1067 -1.12204 0
M  V30 16530 C 1516.3 -0.85189 -1.8404 0
M  V30 16531 C 1516.63 0.620988 -1.84004 0
M  V30 16532 O 1515.91 1.45801 -1.28734 0
M  V30 16533 C 1516.19 -1.40401 -3.31602 0
M  V30 16534 C 1516.04 -2.94392 -3.40078 0
M  V30 16535 C 1517.36 -1.04834 -4.27432 0
M  V30 16536 H 1514.48 -0.310924 -0.668203 0
M  V30 16537 H 1517.12 -1.37026 -1.3162 0
M  V30 16538 H 1515.27 -0.963107 -3.76373 0
M  V30 16539 H 1516.94 -3.47027 -3.03924 0
M  V30 16540 H 1515.19 -3.3087 -2.80548 0
M  V30 16541 H 1515.86 -3.28107 -4.43903 0
M  V30 16542 H 1518.33 -1.42882 -3.90799 0
M  V30 16543 H 1517.21 -1.46153 -5.29085 0
M  V30 16544 H 1517.47 0.0419272 -4.4208 0
M  V30 16545 N 1516.53 1.29665 -0.895815 0
M  V30 16546 C 1517.46 2.26013 -0.315211 0
M  V30 16547 C 1518.44 1.52267 0.570404 0
M  V30 16548 O 1519.63 1.81241 0.518081 0
M  V30 16549 C 1516.75 3.34187 0.551068 0
M  V30 16550 C 1515.8 4.25665 -0.266698 0
M  V30 16551 S 1516.63 5.09056 -1.66198 0
M  V30 16552 C 1517.79 6.20734 -0.80252 0
M  V30 16553 H 1518.02 2.74911 -1.13187 0
M  V30 16554 H 1515.55 1.37827 -0.695913 0
M  V30 16555 H 1517.51 3.96973 1.04511 0
M  V30 16556 H 1516.17 2.83991 1.34193 0
M  V30 16557 H 1515.37 5.02451 0.394869 0
M  V30 16558 H 1514.97 3.6751 -0.69374 0
M  V30 16559 H 1517.26 6.77496 -0.0242039 0
M  V30 16560 H 1518.2 6.91099 -1.54233 0
M  V30 16561 H 1518.61 5.6336 -0.358625 0
M  V30 16562 N 1518.01 0.657889 1.43212 0
M  V30 16563 C 1519.29 0.102895 1.95329 0
M  V30 16564 C 1519.67 -1.37821 1.59901 0
M  V30 16565 O 1519.01 -2.10602 0.886505 0
M  V30 16566 C 1519.22 0.354075 3.47199 0
M  V30 16567 C 1520.57 0.261511 4.23794 0
M  V30 16568 O 1521.6 0.286889 3.55043 0
M  V30 16569 O 1520.45 0.189209 5.46172 0
M  V30 16570 H 1517.55 -0.00692284 0.826971 0
M  V30 16571 H 1520.09 0.73145 1.53127 0
M  V30 16572 H 1518.87 1.38075 3.6613 0
M  V30 16573 H 1518.49 -0.307321 3.96411 0
M  V30 16574 N 1519.49 -1.52437 0.400108 0
M  V30 16575 C 1520.42 -2.29672 -0.421054 0
M  V30 16576 C 1521.4 -1.33506 -1.05405 0
M  V30 16577 O 1522.58 -1.62408 -1.06477 0
M  V30 16578 C 1519.71 -3.1115 -1.54281 0
M  V30 16579 C 1518.67 -4.1529 -1.0353 0
M  V30 16580 C 1517.99 -4.85058 -2.24996 0
M  V30 16581 C 1519.29 -5.22212 -0.0956529 0
M  V30 16582 H 1520.99 -2.98565 0.2234 0
M  V30 16583 H 1518.53 -1.43588 0.108883 0
M  V30 16584 H 1520.49 -3.63945 -2.12419 0
M  V30 16585 H 1519.21 -2.4001 -2.21501 0
M  V30 16586 H 1517.87 -3.63492 -0.476383 0
M  V30 16587 H 1517.52 -4.10455 -2.9075 0
M  V30 16588 H 1517.22 -5.55452 -1.91694 0
M  V30 16589 H 1518.74 -5.40661 -2.83756 0
M  V30 16590 H 1520.15 -5.70302 -0.585548 0
M  V30 16591 H 1518.55 -5.99917 0.148121 0
M  V30 16592 H 1519.62 -4.77351 0.852296 0
M  V30 16593 N 1520.96 -0.130252 -1.57061 0
M  V30 16594 C 1521.87 0.829198 -2.19457 0
M  V30 16595 C 1522.89 1.2843 -1.17395 0
M  V30 16596 O 1524.07 1.34496 -1.49909 0
M  V30 16597 C 1521.13 2.05727 -2.79065 0
M  V30 16598 C 1520.19 1.65301 -3.962 0
M  V30 16599 C 1519.43 2.82253 -4.52956 0
M  V30 16600 O 1519.65 3.97999 -4.08598 0
M  V30 16601 O 1518.58 2.5869 -5.43473 0
M  V30 16602 H 1522.41 0.328139 -3.01922 0
M  V30 16603 H 1519.99 0.0959361 -1.49092 0
M  V30 16604 H 1521.88 2.7763 -3.17017 0
M  V30 16605 H 1520.55 2.54817 -1.99624 0
M  V30 16606 H 1519.46 0.904712 -3.62996 0
M  V30 16607 H 1520.79 1.20942 -4.7711 0
M  V30 16608 N 1522.44 1.56945 0.143535 0
M  V30 16609 C 1523.41 1.97616 1.16106 0
M  V30 16610 C 1524.41 0.863113 1.35672 0
M  V30 16611 O 1525.6 1.12966 1.32606 0
M  V30 16612 C 1522.73 2.29511 2.52067 0
M  V30 16613 H 1523.92 2.88696 0.812066 0
M  V30 16614 H 1521.47 1.51433 0.386999 0
M  V30 16615 H 1522.21 1.41233 2.91931 0
M  V30 16616 H 1521.99 3.10667 2.39225 0
M  V30 16617 H 1523.48 2.61802 3.25345 0
M  V30 16618 N 1523.92 -0.412991 1.52093 0
M  V30 16619 C 1524.85 -1.50986 1.78117 0
M  V30 16620 C 1525.83 -1.57925 0.631963 0
M  V30 16621 O 1527.02 -1.73261 0.877168 0
M  V30 16622 C 1524.15 -2.88846 1.92835 0
M  V30 16623 C 1523.1 -2.96759 3.08412 0
M  V30 16624 C 1522.43 -4.36837 3.08347 0
M  V30 16625 C 1523.73 -2.68599 4.47942 0
M  V30 16626 H 1525.42 -1.29459 2.69964 0
M  V30 16627 H 1522.97 -0.621348 1.29905 0
M  V30 16628 H 1524.92 -3.65563 2.09623 0
M  V30 16629 H 1523.64 -3.11658 0.976553 0
M  V30 16630 H 1522.3 -2.22487 2.91368 0
M  V30 16631 H 1521.95 -4.56652 2.10897 0
M  V30 16632 H 1521.65 -4.43056 3.85973 0
M  V30 16633 H 1523.18 -5.15493 3.2726 0
M  V30 16634 H 1524.59 -3.35039 4.65212 0
M  V30 16635 H 1522.99 -2.86199 5.27456 0
M  V30 16636 H 1524.06 -1.64058 4.56304 0
M  V30 16637 N 1525.4 -1.4265 -0.669982 0
M  V30 16638 C 1526.35 -1.46746 -1.80467 0
M  V30 16639 C 1527.34 -0.342698 -1.65897 0
M  V30 16640 O 1528.55 -0.515933 -1.72447 0
M  V30 16641 H 1524.92 -0.4597 -0.59513 0
M  V30 16642 H 1526.89 -2.42325 -1.7413 0
M  V30 16643 C 1525.64 -1.39141 -3.18646 0
M  V30 16644 H 1524.97 -2.24987 -3.30486 0
M  V30 16645 H 1526.41 -1.46068 -3.98045 0
M  V30 16646 C 1524.86 -0.106802 -3.36731 0
M  V30 16647 O 1525.39 0.838535 -3.9285 0
M  V30 16648 N 1523.6 -0.0223958 -2.90591 0
M  V30 16649 H 1523.15 -0.792469 -2.45108 0
M  V30 16650 H 1523.11 0.836462 -3.03069 0
M  V30 16651 N 1526.88 0.906753 -1.28902 0
M  V30 16652 C 1528.15 1.63637 -1.07155 0
M  V30 16653 C 1528.53 2.07527 0.386727 0
M  V30 16654 O 1527.88 1.82562 1.37417 0
M  V30 16655 C 1528.09 2.82256 -2.05263 0
M  V30 16656 C 1529.44 3.53109 -2.35794 0
M  V30 16657 O 1530.46 2.92414 -2.03402 0
M  V30 16658 O 1529.32 4.62512 -2.91109 0
M  V30 16659 H 1526.42 0.718194 -0.410032 0
M  V30 16660 H 1528.96 0.955442 -1.40248 0
M  V30 16661 H 1527.74 2.46968 -3.03517 0
M  V30 16662 H 1527.36 3.58059 -1.72857 0
M  V30 16663 N 1528.36 1.11264 1.11616 0
M  V30 16664 C 1529.27 0.781961 2.21184 0
M  V30 16665 C 1530.28 -0.224149 1.7255 0
M  V30 16666 O 1531.46 -0.0607743 2.01308 0
M  V30 16667 C 1528.52 0.228031 3.45949 0
M  V30 16668 C 1527.58 1.29251 4.09381 0
M  V30 16669 C 1526.82 0.764921 5.2819 0
M  V30 16670 O 1527.04 -0.405671 5.68956 0
M  V30 16671 O 1525.97 1.52886 5.82159 0
M  V30 16672 H 1529.8 1.69678 2.51879 0
M  V30 16673 H 1527.38 0.888394 1.20116 0
M  V30 16674 H 1529.27 -0.0766085 4.2133 0
M  V30 16675 H 1527.94 -0.659519 3.1691 0
M  V30 16676 H 1526.85 1.65014 3.3574 0
M  V30 16677 H 1528.18 2.15339 4.42595 0
M  V30 16678 N 1529.83 -1.29188 0.902679 0
M  V30 16679 C 1530.76 -2.3006 0.399357 0
M  V30 16680 C 1531.74 -1.61724 -0.527199 0
M  V30 16681 O 1532.93 -1.89213 -0.437293 0
M  V30 16682 C 1530.06 -3.45309 -0.371331 0
M  V30 16683 C 1529.01 -4.25466 0.465068 0
M  V30 16684 C 1528.34 -5.32941 -0.433295 0
M  V30 16685 C 1529.64 -4.93287 1.71655 0
M  V30 16686 H 1531.33 -2.72409 1.24233 0
M  V30 16687 H 1528.88 -1.30958 0.598822 0
M  V30 16688 H 1530.83 -4.14955 -0.734207 0
M  V30 16689 H 1529.56 -3.01811 -1.24811 0
M  V30 16690 H 1528.22 -3.57532 0.810315 0
M  V30 16691 H 1527.86 -4.85688 -1.3083 0
M  V30 16692 H 1527.56 -5.87472 0.122657 0
M  V30 16693 H 1529.09 -6.05438 -0.792298 0
M  V30 16694 H 1530.5 -5.55353 1.42323 0
M  V30 16695 H 1528.9 -5.57763 2.21405 0
M  V30 16696 H 1529.97 -4.18406 2.45081 0
M  V30 16697 N 1531.31 -0.665475 -1.42861 0
M  V30 16698 C 1532.24 0.00482845 -2.335 0
M  V30 16699 C 1533.22 0.799135 -1.50159 0
M  V30 16700 O 1534.41 0.75816 -1.78789 0
M  V30 16701 C 1531.54 0.963347 -3.33672 0
M  V30 16702 C 1530.49 0.278294 -4.27094 0
M  V30 16703 C 1529.82 1.34911 -5.174 0
M  V30 16704 C 1531.12 -0.836925 -5.15551 0
M  V30 16705 H 1532.81 -0.752129 -2.89799 0
M  V30 16706 H 1530.36 -0.363139 -1.39346 0
M  V30 16707 H 1532.31 1.44128 -3.95986 0
M  V30 16708 H 1531.03 1.75161 -2.75656 0
M  V30 16709 H 1529.69 -0.179314 -3.66161 0
M  V30 16710 H 1529.34 2.12912 -4.55716 0
M  V30 16711 H 1529.04 0.895919 -5.8073 0
M  V30 16712 H 1530.57 1.82816 -5.8259 0
M  V30 16713 H 1531.98 -0.440617 -5.71604 0
M  V30 16714 H 1530.38 -1.21533 -5.87665 0
M  V30 16715 H 1531.45 -1.6897 -4.54507 0
M  V30 16716 N 1532.79 1.52222 -0.408187 0
M  V30 16717 C 1533.7 2.30725 0.424645 0
M  V30 16718 C 1534.72 1.38412 1.05442 0
M  V30 16719 O 1535.89 1.71486 1.05614 0
M  V30 16720 C 1532.96 3.11273 1.52677 0
M  V30 16721 C 1532.02 4.19323 0.920143 0
M  V30 16722 C 1531.25 4.96021 1.96974 0
M  V30 16723 O 1531.47 4.73011 3.18774 0
M  V30 16724 O 1530.41 5.80887 1.5765 0
M  V30 16725 H 1534.23 3.02935 -0.215411 0
M  V30 16726 H 1531.82 1.48413 -0.171414 0
M  V30 16727 H 1533.7 3.61436 2.16661 0
M  V30 16728 H 1532.38 2.41857 2.15144 0
M  V30 16729 H 1531.28 3.7331 0.243037 0
M  V30 16730 H 1532.62 4.91028 0.339405 0
M  V30 16731 N 1534.27 0.138579 1.5699 0
M  V30 16732 C 1535.21 -0.804305 2.16332 0
M  V30 16733 C 1536.18 -1.25002 1.09379 0
M  V30 16734 O 1537.37 -1.32405 1.37381 0
M  V30 16735 C 1534.51 -2.04137 2.78248 0
M  V30 16736 C 1533.62 -1.64223 3.99568 0
M  V30 16737 C 1532.76 -2.83046 4.49509 0
M  V30 16738 C 1531.8 -2.39465 5.63314 0
M  V30 16739 N 1530.93 -3.51267 6.07911 0
M  V30 16740 H 1535.77 -0.29144 2.96571 0
M  V30 16741 H 1533.31 -0.132146 1.46505 0
M  V30 16742 H 1535.27 -2.76646 3.12286 0
M  V30 16743 H 1533.9 -2.52849 2.00667 0
M  V30 16744 H 1532.95 -0.815123 3.71564 0
M  V30 16745 H 1534.26 -1.2821 4.82041 0
M  V30 16746 H 1533.42 -3.63755 4.85559 0
M  V30 16747 H 1532.16 -3.22298 3.66026 0
M  V30 16748 H 1531.16 -1.57193 5.2685 0
M  V30 16749 H 1532.39 -2.01307 6.48577 0
M  V30 16750 H 1530.33 -3.90156 5.27365 0
M  V30 16751 H 1530.25 -3.19241 6.85289 0
M  V30 16752 H 1531.52 -4.32358 6.48604 0
M  V30 16753 N 1535.75 -1.57019 -0.13521 0
M  V30 16754 C 1536.66 -2.02427 -1.18578 0
M  V30 16755 C 1537.67 -0.941738 -1.46312 0
M  V30 16756 O 1538.85 -1.25208 -1.57749 0
M  V30 16757 C 1535.91 -2.40577 -2.49647 0
M  V30 16758 C 1534.97 -3.62835 -2.29455 0
M  V30 16759 C 1534.21 -3.99156 -3.54274 0
M  V30 16760 O 1534.43 -3.36001 -4.60933 0
M  V30 16761 O 1533.36 -4.92345 -3.46238 0
M  V30 16762 H 1537.19 -2.92131 -0.830237 0
M  V30 16763 H 1534.77 -1.45366 -0.344814 0
M  V30 16764 H 1536.66 -2.65922 -3.269 0
M  V30 16765 H 1535.33 -1.54023 -2.84708 0
M  V30 16766 H 1534.24 -3.42661 -1.50114 0
M  V30 16767 H 1535.57 -4.50043 -1.99305 0
M  V30 16768 N 1537.22 0.404919 -1.52309 0
M  V30 16769 C 1538.64 0.743846 -1.41206 0
M  V30 16770 C 1538.84 1.94678 -0.519874 0
M  V30 16771 O 1537.9 2.52497 0.0127417 0
M  V30 16772 C 1539.21 0.99384 -2.83802 0
M  V30 16773 C 1540.76 1.0963 -2.93173 0
M  V30 16774 C 1541.23 1.37902 -4.36746 0
M  V30 16775 N 1542.72 1.44758 -4.39999 0
M  V30 16776 C 1543.46 1.68269 -5.48154 0
M  V30 16777 N 1542.95 1.89356 -6.6642 0
M  V30 16778 N 1544.75 1.70318 -5.35675 0
M  V30 16779 H 1536.9 -0.386855 -2.08847 0
M  V30 16780 H 1539.16 -0.110811 -0.941501 0
M  V30 16781 H 1538.87 0.182249 -3.51227 0
M  V30 16782 H 1538.74 1.91287 -3.25099 0
M  V30 16783 H 1541.13 1.89847 -2.25925 0
M  V30 16784 H 1541.21 0.155539 -2.55327 0
M  V30 16785 H 1540.85 0.582004 -5.04554 0
M  V30 16786 H 1540.78 2.33237 -4.72132 0
M  V30 16787 H 1543.27 1.30235 -3.5475 0
M  V30 16788 H 1543.59 2.06758 -7.44628 0
M  V30 16789 H 1541.93 1.86612 -6.69478 0
M  V30 16790 H 1545.12 1.53385 -4.42256 0
M  V30 16791 H 1545.3 1.88302 -6.20037 0
M  V30 16792 N 1538.7 1.43003 0.662408 0
M  V30 16793 C 1539.63 1.43407 1.78793 0
M  V30 16794 C 1540.65 0.331423 1.59391 0
M  V30 16795 O 1541.84 0.595291 1.68281 0
M  V30 16796 C 1538.94 1.22239 3.16087 0
M  V30 16797 C 1538.11 2.4517 3.6223 0
M  V30 16798 C 1537.17 2.19362 4.78296 0
M  V30 16799 O 1536.19 2.92651 4.88205 0
M  V30 16800 N 1537.4 1.20449 5.67866 0
M  V30 16801 H 1540.16 2.40426 1.78928 0
M  V30 16802 H 1537.72 1.38042 0.845936 0
M  V30 16803 H 1539.71 1.02871 3.91407 0
M  V30 16804 H 1538.28 0.336983 3.10778 0
M  V30 16805 H 1537.5 2.80024 2.77453 0
M  V30 16806 H 1538.79 3.27003 3.89803 0
M  V30 16807 H 1538.19 0.598577 5.62524 0
M  V30 16808 H 1536.75 1.07066 6.42946 0
M  V30 16809 N 1540.18 -0.899904 1.29381 0
M  V30 16810 C 1541.43 -1.65298 1.18524 0
M  V30 16811 C 1541.78 -1.90625 -0.260731 0
M  V30 16812 O 1541.07 -1.50544 -1.1852 0
M  V30 16813 C 1541.27 -3.0069 1.93185 0
M  V30 16814 C 1541.1 -2.88578 3.44895 0
M  V30 16815 C 1539.87 -2.89358 4.14246 0
M  V30 16816 C 1542.07 -2.65623 4.40396 0
M  V30 16817 N 1540.05 -2.67981 5.52322 0
M  V30 16818 C 1541.42 -2.53225 5.6593 0
M  V30 16819 C 1543.47 -2.50729 4.30162 0
M  V30 16820 C 1542.18 -2.27449 6.82393 0
M  V30 16821 C 1544.2 -2.26336 5.46375 0
M  V30 16822 C 1543.56 -2.14702 6.70882 0
M  V30 16823 H 1539.66 -0.61048 0.48871 0
M  V30 16824 H 1542.25 -1.06167 1.63207 0
M  V30 16825 H 1540.42 -3.57881 1.50916 0
M  V30 16826 H 1542.15 -3.65101 1.74596 0
M  V30 16827 H 1538.91 -3.00634 3.65946 0
M  V30 16828 H 1539.33 -2.60346 6.24939 0
M  V30 16829 H 1543.97 -2.58467 3.34596 0
M  V30 16830 H 1541.69 -2.18449 7.78014 0
M  V30 16831 H 1545.28 -2.15656 5.40355 0
M  V30 16832 H 1544.16 -1.96088 7.59289 0
M  V30 16833 N 1541.66 -1.11854 -1.11024 0
M  V30 16834 C 1542.57 -0.79368 -2.20767 0
M  V30 16835 C 1543.58 0.214996 -1.72667 0
M  V30 16836 O 1544.76 0.0500976 -2.01338 0
M  V30 16837 C 1541.83 -0.246375 -3.45823 0
M  V30 16838 C 1540.89 -1.31421 -4.0869 0
M  V30 16839 C 1540.12 -0.792922 -5.27777 0
M  V30 16840 O 1540.34 0.375492 -5.69163 0
M  V30 16841 O 1539.28 -1.55971 -5.8134 0
M  V30 16842 H 1543.1 -1.71011 -2.50976 0
M  V30 16843 H 1540.69 -0.894752 -1.19643 0
M  V30 16844 H 1542.57 0.0542632 -4.21365 0
M  V30 16845 H 1541.24 0.642703 -3.17255 0
M  V30 16846 H 1540.15 -1.66792 -3.3486 0
M  V30 16847 H 1541.48 -2.17683 -4.41446 0
M  V30 16848 N 1543.14 1.28707 -0.909517 0
M  V30 16849 C 1544.1 2.25692 -0.39946 0
M  V30 16850 C 1545.1 1.53721 0.471848 0
M  V30 16851 O 1546.29 1.72008 0.275504 0
M  V30 16852 C 1543.42 3.38205 0.427793 0
M  V30 16853 H 1544.61 2.72326 -1.25613 0
M  V30 16854 H 1542.17 1.40317 -0.688535 0
M  V30 16855 H 1542.9 2.96926 1.30404 0
M  V30 16856 H 1542.69 3.91606 -0.19667 0
M  V30 16857 H 1544.18 4.10334 0.775634 0
M  V30 16858 N 1544.61 0.673042 1.42506 0
M  V30 16859 C 1545.86 0.203538 2.02379 0
M  V30 16860 C 1546.22 -1.17624 1.52258 0
M  V30 16861 O 1545.51 -1.77787 0.714297 0
M  V30 16862 C 1545.7 0.175896 3.56967 0
M  V30 16863 C 1545.53 1.55145 4.2209 0
M  V30 16864 C 1544.3 2.14878 4.57335 0
M  V30 16865 C 1546.5 2.49378 4.49794 0
M  V30 16866 N 1544.48 3.45232 5.0763 0
M  V30 16867 C 1545.85 3.64385 5.01621 0
M  V30 16868 C 1547.91 2.4793 4.31781 0
M  V30 16869 C 1546.61 4.78196 5.37328 0
M  V30 16870 C 1548.64 3.60836 4.68563 0
M  V30 16871 C 1548 4.74571 5.2054 0
M  V30 16872 H 1544.1 0.119362 0.772837 0
M  V30 16873 H 1546.68 0.885648 1.73391 0
M  V30 16874 H 1544.85 -0.475621 3.85477 0
M  V30 16875 H 1546.58 -0.306326 4.03539 0
M  V30 16876 H 1543.34 1.67385 4.43034 0
M  V30 16877 H 1543.76 4.1199 5.37209 0
M  V30 16878 H 1548.41 1.61227 3.90853 0
M  V30 16879 H 1546.12 5.65576 5.77191 0
M  V30 16880 H 1549.71 3.60941 4.56304 0
M  V30 16881 H 1548.59 5.6049 5.48471 0
M  V30 16882 N 1546.09 -1.52004 0.416254 0
M  V30 16883 C 1547.51 -1.59457 0.0674775 0
M  V30 16884 C 1547.71 -1.42865 -1.42098 0
M  V30 16885 O 1546.76 -1.2592 -2.18862 0
M  V30 16886 C 1548.08 -2.95272 0.56876 0
M  V30 16887 C 1549.63 -3.08525 0.527356 0
M  V30 16888 C 1550.1 -4.46832 1.00526 0
M  V30 16889 N 1551.59 -4.53092 0.962377 0
M  V30 16890 C 1552.33 -5.58393 1.30327 0
M  V30 16891 N 1551.82 -6.71212 1.71597 0
M  V30 16892 N 1553.62 -5.48639 1.22278 0
M  V30 16893 H 1545.77 -1.61036 1.38496 0
M  V30 16894 H 1548.03 -0.75795 0.569399 0
M  V30 16895 H 1547.74 -3.12717 1.60937 0
M  V30 16896 H 1547.61 -3.77196 -0.0177595 0
M  V30 16897 H 1550 -2.9076 -0.504225 0
M  V30 16898 H 1550.08 -2.28491 1.15002 0
M  V30 16899 H 1549.72 -4.6534 2.03521 0
M  V30 16900 H 1549.65 -5.25373 0.359345 0
M  V30 16901 H 1552.14 -3.72109 0.65904 0
M  V30 16902 H 1552.46 -7.47558 1.95901 0
M  V30 16903 H 1550.8 -6.72475 1.75507 0
M  V30 16904 H 1553.99 -4.59383 0.899175 0
M  V30 16905 H 1554.16 -6.30596 1.49175 0
M  V30 16906 N 1547.57 -0.146903 -1.56914 0
M  V30 16907 C 1548.8 0.514426 -2.00919 0
M  V30 16908 C 1549.22 1.57632 -1.02634 0
M  V30 16909 O 1548.58 1.813 -0.00207478 0
M  V30 16910 C 1548.63 1.09197 -3.43669 0
M  V30 16911 O 1547.73 2.20684 -3.48385 0
M  V30 16912 H 1547.07 0.125827 -0.651969 0
M  V30 16913 H 1549.6 -0.243607 -2.03145 0
M  V30 16914 H 1549.61 1.42066 -3.82467 0
M  V30 16915 H 1548.29 0.314336 -4.1471 0
M  V30 16916 H 1546.86 1.89045 -3.21429 0
M  V30 16917 N 1549.05 1.57088 0.126881 0
M  V30 16918 C 1550.29 1.84709 0.837287 0
M  V30 16919 C 1550.63 0.731496 1.79897 0
M  V30 16920 O 1549.9 -0.263319 1.92709 0
M  V30 16921 C 1550.19 3.22893 1.59412 0
M  V30 16922 C 1550.04 4.45041 0.652578 0
M  V30 16923 C 1551.36 3.58547 2.5521 0
M  V30 16924 H 1548.48 0.671862 0.302937 0
M  V30 16925 H 1551.12 1.89727 0.101783 0
M  V30 16926 H 1549.27 3.18746 2.22112 0
M  V30 16927 H 1550.94 4.61287 0.0350382 0
M  V30 16928 H 1549.18 4.33785 -0.0364578 0
M  V30 16929 H 1549.85 5.38381 1.21861 0
M  V30 16930 H 1552.33 3.63434 2.0262 0
M  V30 16931 H 1551.21 4.56227 3.05202 0
M  V30 16932 H 1551.47 2.85552 3.37509 0
M  V30 16933 N 1550.53 -0.396836 1.52522 0
M  V30 16934 C 1551.46 -1.49088 1.79708 0
M  V30 16935 C 1552.44 -1.57246 0.648678 0
M  V30 16936 O 1553.62 -1.72321 0.895495 0
M  V30 16937 C 1550.75 -2.86785 1.95887 0
M  V30 16938 C 1549.71 -2.93472 3.11542 0
M  V30 16939 C 1549.03 -4.33542 3.12963 0
M  V30 16940 C 1550.33 -2.63832 4.50766 0
M  V30 16941 H 1552.03 -1.26588 2.71322 0
M  V30 16942 H 1549.57 -0.607535 1.30557 0
M  V30 16943 H 1551.53 -3.63319 2.13489 0
M  V30 16944 H 1550.25 -3.10605 1.00955 0
M  V30 16945 H 1548.91 -2.19384 2.93711 0
M  V30 16946 H 1548.56 -4.5439 2.15729 0
M  V30 16947 H 1548.26 -4.38938 3.9065 0
M  V30 16948 H 1549.78 -5.11993 3.32709 0
M  V30 16949 H 1551.19 -3.30086 4.68739 0
M  V30 16950 H 1549.59 -2.80589 5.30462 0
M  V30 16951 H 1550.66 -1.59209 4.58018 0
M  V30 16952 N 1552.01 -1.43353 -0.654814 0
M  V30 16953 C 1553.25 -1.44599 -1.41193 0
M  V30 16954 C 1553.57 -0.0707955 -1.94871 0
M  V30 16955 O 1552.84 0.893637 -1.7433 0
M  V30 16956 H 1551.42 -0.532373 -0.524011 0
M  V30 16957 H 1554.09 -1.78942 -0.772388 0
M  V30 16958 H 1553.18 -2.15761 -2.25508 0
M  V30 16959 N 1553.48 0.89303 -1.29857 0
M  V30 16960 C 1554.76 1.62492 -1.08884 0
M  V30 16961 C 1555.14 2.07926 0.364695 0
M  V30 16962 O 1554.49 1.84009 1.35473 0
M  V30 16963 C 1554.7 2.80063 -2.08245 0
M  V30 16964 C 1556.05 3.50589 -2.39526 0
M  V30 16965 O 1557.07 2.90241 -2.06492 0
M  V30 16966 O 1555.93 4.59399 -2.95998 0
M  V30 16967 H 1553.02 0.713805 -0.417626 0
M  V30 16968 H 1555.57 0.940513 -1.41253 0
M  V30 16969 H 1554.34 2.43735 -3.06119 0
M  V30 16970 H 1553.96 3.56205 -1.76645 0
M  V30 16971 N 1554.96 1.12442 1.10429 0
M  V30 16972 C 1555.87 0.805377 2.20343 0
M  V30 16973 C 1556.89 -0.205836 1.72778 0
M  V30 16974 O 1558.06 -0.0394195 2.01361 0
M  V30 16975 C 1555.13 0.264711 3.45688 0
M  V30 16976 C 1554.19 1.33586 4.07987 0
M  V30 16977 C 1553.42 0.8209 5.27349 0
M  V30 16978 O 1553.65 -0.345303 5.69354 0
M  V30 16979 O 1552.58 1.59052 5.80505 0
M  V30 16980 H 1556.41 1.7234 2.50065 0
M  V30 16981 H 1553.99 0.901084 1.19167 0
M  V30 16982 H 1555.87 -0.0319164 4.21388 0
M  V30 16983 H 1554.55 -0.625869 3.17592 0
M  V30 16984 H 1553.45 1.68566 3.33971 0
M  V30 16985 H 1554.79 2.20021 4.40286 0
M  V30 16986 N 1556.44 -1.28223 0.91633 0
M  V30 16987 C 1557.39 -2.27215 0.40521 0
M  V30 16988 C 1558.36 -1.57693 -0.521734 0
M  V30 16989 O 1559.54 -1.85577 -0.443369 0
M  V30 16990 C 1556.68 -3.43358 -0.346303 0
M  V30 16991 C 1555.79 -4.27622 0.613443 0
M  V30 16992 C 1554.93 -5.30969 -0.156775 0
M  V30 16993 C 1553.97 -6.06897 0.796418 0
M  V30 16994 N 1553.11 -7.02075 0.0595539 0
M  V30 16995 H 1557.95 -2.70312 1.2544 0
M  V30 16996 H 1555.48 -1.32933 0.629859 0
M  V30 16997 H 1557.44 -4.09492 -0.798231 0
M  V30 16998 H 1556.07 -3.01244 -1.15982 0
M  V30 16999 H 1555.12 -3.61508 1.1839 0
M  V30 17000 H 1556.43 -4.80397 1.34239 0
M  V30 17001 H 1555.59 -6.02999 -0.669146 0
M  V30 17002 H 1554.33 -4.78968 -0.918755 0
M  V30 17003 H 1553.33 -5.33716 1.32014 0
M  V30 17004 H 1554.56 -6.60987 1.558 0
M  V30 17005 H 1552.5 -6.5242 -0.684388 0
M  V30 17006 H 1552.42 -7.52484 0.728275 0
M  V30 17007 H 1553.69 -7.78299 -0.432538 0
M  V30 17008 N 1557.92 -0.68059 -1.42147 0
M  V30 17009 C 1559.14 -0.212293 -2.06311 0
M  V30 17010 C 1559.57 1.12402 -1.50822 0
M  V30 17011 O 1558.93 1.70037 -0.629051 0
M  V30 17012 C 1558.97 -0.164156 -3.60226 0
M  V30 17013 O 1558.08 0.865582 -4.03214 0
M  V30 17014 H 1557.42 -0.107451 -0.655248 0
M  V30 17015 H 1559.95 -0.931233 -1.82179 0
M  V30 17016 H 1559.96 0.0100422 -4.07999 0
M  V30 17017 H 1558.63 -1.13952 -3.99985 0
M  V30 17018 H 1557.21 0.661955 -3.66978 0
M  V30 17019 N 1559.4 1.51781 -0.424309 0
M  V30 17020 C 1560.33 2.25144 0.429274 0
M  V30 17021 C 1561.34 1.2867 0.997389 0
M  V30 17022 O 1562.53 1.54514 0.893746 0
M  V30 17023 C 1559.63 2.98156 1.61109 0
M  V30 17024 C 1558.8 4.21623 1.16417 0
M  V30 17025 C 1557.86 4.77327 2.21462 0
M  V30 17026 O 1556.89 5.39511 1.8143 0
M  V30 17027 N 1558.09 4.60221 3.53803 0
M  V30 17028 H 1560.85 2.99036 -0.199438 0
M  V30 17029 H 1558.42 1.59919 -0.252492 0
M  V30 17030 H 1560.41 3.32312 2.30978 0
M  V30 17031 H 1558.98 2.27356 2.14541 0
M  V30 17032 H 1558.2 3.93109 0.293034 0
M  V30 17033 H 1559.49 5.01772 0.842767 0
M  V30 17034 H 1558.88 4.10661 3.89068 0
M  V30 17035 H 1557.44 4.98774 4.19604 0
M  V30 17036 N 1560.87 0.155222 1.56834 0
M  V30 17037 C 1562.12 -0.493826 1.96386 0
M  V30 17038 C 1562.45 -1.6433 1.04048 0
M  V30 17039 O 1561.7 -1.9557 0.0713123 0
M  V30 17040 C 1562 -1.03346 3.42132 0
M  V30 17041 C 1561.67 -0.00157215 4.509 0
M  V30 17042 C 1560.33 0.282068 4.80373 0
M  V30 17043 C 1562.68 0.699684 5.16482 0
M  V30 17044 C 1560.01 1.27263 5.72731 0
M  V30 17045 C 1562.36 1.67912 6.09908 0
M  V30 17046 C 1561.03 1.97037 6.37756 0
M  V30 17047 H 1560.3 -0.180704 0.718629 0
M  V30 17048 H 1562.94 0.243789 1.89942 0
M  V30 17049 H 1561.25 -1.84857 3.45449 0
M  V30 17050 H 1562.95 -1.54437 3.70068 0
M  V30 17051 H 1559.54 -0.232824 4.27967 0
M  V30 17052 H 1563.72 0.493751 4.93838 0
M  V30 17053 H 1558.98 1.50464 5.92597 0
M  V30 17054 H 1563.15 2.22796 6.59799 0
M  V30 17055 H 1560.78 2.73944 7.09125 0
M  V30 17056 N 1562.35 -1.57153 -0.118549 0
M  V30 17057 C 1563.26 -2.03673 -1.16424 0
M  V30 17058 C 1564.28 -0.957203 -1.45305 0
M  V30 17059 O 1565.45 -1.26874 -1.56413 0
M  V30 17060 C 1562.52 -2.43211 -2.47082 0
M  V30 17061 C 1561.58 -3.65248 -2.25593 0
M  V30 17062 C 1560.81 -4.02891 -3.50021 0
M  V30 17063 O 1561.04 -3.40871 -4.57344 0
M  V30 17064 O 1559.97 -4.95989 -3.40996 0
M  V30 17065 H 1563.8 -2.92996 -0.799206 0
M  V30 17066 H 1561.38 -1.45724 -0.329376 0
M  V30 17067 H 1563.26 -2.69374 -3.24061 0
M  V30 17068 H 1561.94 -1.57034 -2.83058 0
M  V30 17069 H 1560.84 -3.44234 -1.46471 0
M  V30 17070 H 1562.18 -4.52131 -1.94521 0
M  V30 17071 N 1563.83 0.388742 -1.5273 0
M  V30 17072 C 1565.07 1.14269 -1.69475 0
M  V30 17073 C 1565.43 1.87222 -0.425669 0
M  V30 17074 O 1566.63 2.64668 -0.469486 0
M  V30 17075 C 1564.91 2.09472 -2.8958 0
M  V30 17076 S 1566.46 2.927 -3.26913 0
M  V30 17077 H 1563.28 0.386807 -0.596574 0
M  V30 17078 H 1565.88 0.427089 -1.90778 0
M  V30 17079 H 1564.59 1.54599 -3.80167 0
M  V30 17080 H 1564.12 2.8554 -2.70611 0
M  V30 17081 H 1566.13 4.11605 -2.77121 0
M  V30 17082 N 1565.31 1.43698 0.647203 0
M  V30 17083 C 1566.72 1.27231 0.963563 0
M  V30 17084 C 1566.92 0.196385 2.00541 0
M  V30 17085 O 1565.98 -0.423162 2.48929 0
M  V30 17086 C 1567.29 2.63863 1.44211 0
M  V30 17087 C 1568.84 2.71444 1.55844 0
M  V30 17088 C 1569.32 4.08508 2.07087 0
M  V30 17089 N 1570.81 4.10603 2.14381 0
M  V30 17090 C 1571.54 5.13496 2.55166 0
M  V30 17091 N 1571.04 6.26759 2.95203 0
M  V30 17092 N 1572.83 5.0085 2.55158 0
M  V30 17093 H 1564.98 2.12358 -0.0420956 0
M  V30 17094 H 1567.24 0.946989 0.0437628 0
M  V30 17095 H 1566.95 3.43589 0.75096 0
M  V30 17096 H 1566.82 2.89666 2.41605 0
M  V30 17097 H 1569.21 1.92046 2.24058 0
M  V30 17098 H 1569.29 2.49399 0.56866 0
M  V30 17099 H 1568.94 4.88375 1.39472 0
M  V30 17100 H 1568.87 4.2792 3.06907 0
M  V30 17101 H 1571.36 3.2885 1.86188 0
M  V30 17102 H 1571.67 7.01096 3.25091 0
M  V30 17103 H 1570.02 6.30222 2.92993 0
M  V30 17104 H 1573.21 4.11428 2.2326 0
M  V30 17105 H 1573.38 5.81165 2.86621 0
M  V30 17106 N 1566.79 -0.886131 1.30328 0
M  V30 17107 C 1568.03 -1.64026 1.19261 0
M  V30 17108 C 1568.37 -1.92553 -0.252379 0
M  V30 17109 O 1567.64 -1.54564 -1.18069 0
M  V30 17110 C 1567.92 -2.9808 2.0204 0
M  V30 17111 C 1567.78 -2.76534 3.54752 0
M  V30 17112 C 1569.1 -3.98989 1.85731 0
M  V30 17113 H 1566.21 -0.595224 0.4346 0
M  V30 17114 H 1568.86 -1.0255 1.59949 0
M  V30 17115 H 1567.01 -3.50552 1.67469 0
M  V30 17116 H 1568.68 -2.3086 3.99376 0
M  V30 17117 H 1566.92 -2.1106 3.78993 0
M  V30 17118 H 1567.59 -3.71849 4.07961 0
M  V30 17119 H 1570.07 -3.55673 2.15953 0
M  V30 17120 H 1568.94 -4.90699 2.45979 0
M  V30 17121 H 1569.21 -4.34501 0.816152 0
M  V30 17122 N 1568.26 -1.13026 -1.09832 0
M  V30 17123 C 1569.68 -0.867598 -1.33959 0
M  V30 17124 C 1569.88 0.499047 -1.95222 0
M  V30 17125 O 1568.94 1.24644 -2.19591 0
M  V30 17126 C 1570.25 -1.98893 -2.25526 0
M  V30 17127 C 1571.8 -2.02054 -2.39047 0
M  V30 17128 C 1572.27 -3.13438 -3.33947 0
M  V30 17129 N 1573.76 -3.12921 -3.41518 0
M  V30 17130 C 1574.5 -3.95746 -4.14937 0
M  V30 17131 N 1573.99 -4.88574 -4.91189 0
M  V30 17132 N 1575.79 -3.8386 -4.10619 0
M  V30 17133 H 1567.94 -2.01072 -0.684382 0
M  V30 17134 H 1570.2 -0.875341 -0.363982 0
M  V30 17135 H 1569.91 -2.97405 -1.87731 0
M  V30 17136 H 1569.78 -1.89948 -3.25883 0
M  V30 17137 H 1572.17 -1.04158 -2.76107 0
M  V30 17138 H 1572.25 -2.15072 -1.38483 0
M  V30 17139 H 1571.89 -4.11571 -2.9761 0
M  V30 17140 H 1571.82 -2.97658 -4.34405 0
M  V30 17141 H 1574.31 -2.45677 -2.87144 0
M  V30 17142 H 1574.63 -5.48269 -5.44629 0
M  V30 17143 H 1572.97 -4.92583 -4.90292 0
M  V30 17144 H 1576.16 -3.10669 -3.50146 0
M  V30 17145 H 1576.34 -4.48637 -4.67577 0
M  V30 17146 N 1569.74 1.27735 -0.923117 0
M  V30 17147 C 1570.65 2.30734 -0.424124 0
M  V30 17148 C 1571.67 1.66872 0.49291 0
M  V30 17149 O 1572.84 1.97843 0.37683 0
M  V30 17150 C 1569.91 3.45227 0.319254 0
M  V30 17151 C 1568.97 4.2462 -0.632137 0
M  V30 17152 C 1568.2 5.33646 0.0758596 0
M  V30 17153 O 1568.43 5.55481 1.29602 0
M  V30 17154 O 1567.36 5.98966 -0.593624 0
M  V30 17155 H 1571.19 2.75444 -1.27923 0
M  V30 17156 H 1568.77 1.32601 -0.688288 0
M  V30 17157 H 1570.65 4.14874 0.73873 0
M  V30 17158 H 1569.33 3.02582 1.15004 0
M  V30 17159 H 1568.24 3.57525 -1.1012 0
M  V30 17160 H 1569.57 4.70969 -1.43001 0
M  V30 17161 N 1571.22 0.688118 1.41784 0
M  V30 17162 C 1572.15 0.0323199 2.33478 0
M  V30 17163 C 1573.13 -0.775145 1.51412 0
M  V30 17164 O 1574.32 -0.72962 1.79973 0
M  V30 17165 C 1571.45 -0.910141 3.35162 0
M  V30 17166 C 1570.4 -0.210312 4.27483 0
M  V30 17167 C 1569.73 -1.26662 5.19481 0
M  V30 17168 C 1571.03 0.918839 5.14154 0
M  V30 17169 H 1572.72 0.798138 2.88566 0
M  V30 17170 H 1570.27 0.385262 1.38751 0
M  V30 17171 H 1572.22 -1.3781 3.98229 0
M  V30 17172 H 1570.94 -1.70754 2.78408 0
M  V30 17173 H 1569.6 0.237544 3.6583 0
M  V30 17174 H 1569.25 -2.05635 4.59046 0
M  V30 17175 H 1568.95 -0.803416 5.82082 0
M  V30 17176 H 1570.47 -1.73524 5.85424 0
M  V30 17177 H 1571.89 0.531499 5.70831 0
M  V30 17178 H 1570.29 1.30867 5.85657 0
M  V30 17179 H 1571.36 1.7618 4.51762 0
M  V30 17180 N 1572.7 -1.51554 0.432352 0
M  V30 17181 C 1573.63 -2.25369 -0.417328 0
M  V30 17182 C 1574.64 -1.29197 -0.990551 0
M  V30 17183 O 1575.83 -1.54985 -0.885539 0
M  V30 17184 C 1572.93 -2.99006 -1.59526 0
M  V30 17185 C 1572.11 -4.22234 -1.1418 0
M  V30 17186 C 1571.16 -4.78495 -2.18928 0
M  V30 17187 O 1570.19 -5.40465 -1.78566 0
M  V30 17188 N 1571.39 -4.62091 -3.51358 0
M  V30 17189 H 1574.16 -2.98926 0.215294 0
M  V30 17190 H 1571.72 -1.59783 0.26097 0
M  V30 17191 H 1573.71 -3.33532 -2.29212 0
M  V30 17192 H 1572.28 -2.28491 -2.13332 0
M  V30 17193 H 1571.5 -3.93259 -0.272182 0
M  V30 17194 H 1572.79 -5.02212 -0.816145 0
M  V30 17195 H 1572.19 -4.12718 -3.86885 0
M  V30 17196 H 1570.74 -5.00992 -4.16953 0
M  V30 17197 N 1574.18 -0.163538 -1.56749 0
M  V30 17198 C 1575.59 0.192717 -1.58432 0
M  V30 17199 C 1575.79 1.63438 -1.17856 0
M  V30 17200 O 1574.85 2.36425 -0.88654 0
M  V30 17201 C 1576.16 -0.0810427 -3.00591 0
M  V30 17202 C 1577.71 -0.0186378 -3.12994 0
M  V30 17203 C 1578.18 -0.265283 -4.57231 0
M  V30 17204 N 1579.68 -0.212787 -4.62711 0
M  V30 17205 C 1580.41 -0.37791 -5.72153 0
M  V30 17206 N 1579.91 -0.601663 -6.90182 0
M  V30 17207 N 1581.7 -0.314357 -5.6122 0
M  V30 17208 H 1573.85 -1.10467 -1.81413 0
M  V30 17209 H 1576.11 -0.438569 -0.840453 0
M  V30 17210 H 1575.82 -1.07944 -3.34725 0
M  V30 17211 H 1575.69 0.630888 -3.71887 0
M  V30 17212 H 1578.08 0.970324 -2.78691 0
M  V30 17213 H 1578.16 -0.763158 -2.44151 0
M  V30 17214 H 1577.81 -1.25142 -4.92242 0
M  V30 17215 H 1577.74 0.499756 -5.24223 0
M  V30 17216 H 1580.23 -0.0451754 -3.77873 0
M  V30 17217 H 1580.54 -0.717319 -7.69464 0
M  V30 17218 H 1578.88 -0.638184 -6.92064 0
M  V30 17219 H 1582.08 -0.140197 -4.6789 0
M  V30 17220 H 1582.25 -0.446472 -6.4646 0
M  V30 17221 N 1575.65 1.57214 0.110213 0
M  V30 17222 C 1576.59 1.96198 1.1654 0
M  V30 17223 C 1577.57 0.832925 1.39646 0
M  V30 17224 O 1578.75 1.09188 1.53656 0
M  V30 17225 C 1575.88 2.26576 2.51756 0
M  V30 17226 C 1574.92 3.49093 2.45023 0
M  V30 17227 S 1575.76 5.01363 1.88136 0
M  V30 17228 C 1576.91 5.34903 3.25007 0
M  V30 17229 H 1577.14 2.85392 0.832996 0
M  V30 17230 H 1574.68 1.51104 0.317314 0
M  V30 17231 H 1576.64 2.44756 3.29552 0
M  V30 17232 H 1575.3 1.37981 2.8217 0
M  V30 17233 H 1574.49 3.67743 3.44647 0
M  V30 17234 H 1574.09 3.30346 1.7535 0
M  V30 17235 H 1576.38 5.30623 4.21243 0
M  V30 17236 H 1577.33 6.36062 3.11176 0
M  V30 17237 H 1577.73 4.62371 3.23841 0
M  V30 17238 N 1577.13 -0.380637 1.52934 0
M  V30 17239 C 1578.06 -1.47174 1.81279 0
M  V30 17240 C 1579.04 -1.56549 0.665319 0
M  V30 17241 O 1580.23 -1.71362 0.913722 0
M  V30 17242 C 1577.36 -2.84691 1.98918 0
M  V30 17243 C 1576.31 -2.90151 3.14637 0
M  V30 17244 C 1575.64 -4.30198 3.17544 0
M  V30 17245 C 1576.94 -2.59037 4.53539 0
M  V30 17246 H 1578.63 -1.23703 2.7265 0
M  V30 17247 H 1576.18 -0.593654 1.31194 0
M  V30 17248 H 1578.13 -3.61034 2.1733 0
M  V30 17249 H 1576.86 -3.09517 1.04244 0
M  V30 17250 H 1575.51 -2.16257 2.96021 0
M  V30 17251 H 1575.16 -4.52076 2.20536 0
M  V30 17252 H 1574.86 -4.3477 3.95284 0
M  V30 17253 H 1576.39 -5.08435 3.38121 0
M  V30 17254 H 1577.8 -3.25096 4.72214 0
M  V30 17255 H 1576.2 -2.74946 5.33408 0
M  V30 17256 H 1577.27 -1.54342 4.59681 0
M  V30 17257 N 1578.61 -1.44039 -0.639573 0
M  V30 17258 C 1579.89 -1.36853 -1.39752 0
M  V30 17259 C 1580.27 -0.0230515 -2.11087 0
M  V30 17260 O 1579.62 0.994061 -2.05744 0
M  V30 17261 C 1579.83 -2.56101 -2.37093 0
M  V30 17262 C 1581.17 -2.99793 -3.00681 0
M  V30 17263 O 1582.2 -2.56246 -2.4742 0
M  V30 17264 O 1581.06 -3.75274 -3.97281 0
M  V30 17265 H 1578.15 -0.541521 -0.625047 0
M  V30 17266 H 1580.7 -1.56113 -0.665336 0
M  V30 17267 H 1579.47 -3.45647 -1.83422 0
M  V30 17268 H 1579.09 -2.39011 -3.17741 0
M  V30 17269 N 1580.09 0.879207 -1.30796 0
M  V30 17270 C 1581.32 1.66449 -1.22891 0
M  V30 17271 C 1581.73 1.87658 0.207306 0
M  V30 17272 O 1581.09 1.42818 1.13619 0
M  V30 17273 C 1581.14 3.03765 -1.95982 0
M  V30 17274 O 1580.86 2.8351 -3.33997 0
M  V30 17275 C 1582.36 3.98204 -1.94804 0
M  V30 17276 H 1579.58 0.51922 -0.425031 0
M  V30 17277 H 1582.13 1.09807 -1.72519 0
M  V30 17278 H 1580.28 3.57124 -1.50138 0
M  V30 17279 H 1580.69 3.70663 -3.71092 0
M  V30 17280 H 1582.17 4.91901 -2.50474 0
M  V30 17281 H 1582.65 4.29277 -0.928336 0
M  V30 17282 H 1583.25 3.50781 -2.40485 0
M  V30 17283 N 1581.57 1.13606 1.09231 0
M  V30 17284 C 1582.48 0.828702 2.19476 0
M  V30 17285 C 1583.49 -0.187499 1.72987 0
M  V30 17286 O 1584.67 -0.0180602 2.01392 0
M  V30 17287 C 1581.73 0.301361 3.45388 0
M  V30 17288 C 1580.8 1.37906 4.06547 0
M  V30 17289 C 1580.03 0.876786 5.26449 0
M  V30 17290 O 1580.25 -0.284896 5.69688 0
M  V30 17291 O 1579.19 1.652 5.78785 0
M  V30 17292 H 1583.01 1.74982 2.48223 0
M  V30 17293 H 1580.6 0.913673 1.18205 0
M  V30 17294 H 1582.48 0.0127792 4.21398 0
M  V30 17295 H 1581.15 -0.592149 3.18238 0
M  V30 17296 H 1580.06 1.72098 3.32164 0
M  V30 17297 H 1581.39 2.24678 4.37927 0
M  V30 17298 N 1583.05 -1.27244 0.929878 0
M  V30 17299 C 1583.99 -2.26773 0.429287 0
M  V30 17300 C 1584.96 -1.58238 -0.50498 0
M  V30 17301 O 1586.15 -1.86037 -0.423661 0
M  V30 17302 C 1583.29 -3.43706 -0.309865 0
M  V30 17303 C 1582.4 -4.26948 0.658764 0
M  V30 17304 C 1581.54 -5.31105 -0.10045 0
M  V30 17305 C 1580.57 -6.06018 0.860743 0
M  V30 17306 N 1579.71 -7.01972 0.134015 0
M  V30 17307 H 1584.55 -2.68967 1.283 0
M  V30 17308 H 1582.09 -1.32257 0.643923 0
M  V30 17309 H 1584.05 -4.10316 -0.754754 0
M  V30 17310 H 1582.68 -3.02457 -1.1278 0
M  V30 17311 H 1581.73 -3.60232 1.22218 0
M  V30 17312 H 1583.04 -4.78946 1.39326 0
M  V30 17313 H 1582.19 -6.03674 -0.605153 0
M  V30 17314 H 1580.93 -4.79915 -0.867902 0
M  V30 17315 H 1579.94 -5.32285 1.37668 0
M  V30 17316 H 1581.16 -6.59297 1.62801 0
M  V30 17317 H 1579.11 -6.53109 -0.615152 0
M  V30 17318 H 1579.03 -7.51669 0.808045 0
M  V30 17319 H 1580.29 -7.78714 -0.349964 0
M  V30 17320 N 1584.52 -0.695628 -1.41417 0
M  V30 17321 C 1585.46 0.00883515 -2.29198 0
M  V30 17322 C 1586.47 0.744337 -1.44788 0
M  V30 17323 O 1587.66 0.59503 -1.6829 0
M  V30 17324 C 1584.76 1.0366 -3.22657 0
M  V30 17325 C 1583.93 0.37071 -4.35826 0
M  V30 17326 C 1582.99 1.3011 -5.09861 0
M  V30 17327 O 1582.02 0.793461 -5.63642 0
M  V30 17328 N 1583.22 2.63343 -5.1733 0
M  V30 17329 H 1585.98 -0.744795 -2.90298 0
M  V30 17330 H 1583.54 -0.541663 -1.5257 0
M  V30 17331 H 1585.54 1.66075 -3.69054 0
M  V30 17332 H 1584.11 1.69177 -2.62865 0
M  V30 17333 H 1583.33 -0.433315 -3.91811 0
M  V30 17334 H 1584.61 -0.0923178 -5.08716 0
M  V30 17335 H 1584.01 3.07103 -4.75083 0
M  V30 17336 H 1582.57 3.20952 -5.67303 0
M  V30 17337 N 1586 1.51322 -0.440383 0
M  V30 17338 C 1587.23 2.07017 0.126018 0
M  V30 17339 C 1587.65 1.30537 1.35431 0
M  V30 17340 O 1587.01 0.344178 1.78003 0
M  V30 17341 C 1587.06 3.58101 0.4238 0
M  V30 17342 O 1586.16 3.83772 1.50973 0
M  V30 17343 H 1585.5 0.664 0.000530178 0
M  V30 17344 H 1588.03 1.94897 -0.622594 0
M  V30 17345 H 1588.04 4.02405 0.673363 0
M  V30 17346 H 1586.72 4.13191 -0.473932 0
M  V30 17347 H 1585.29 3.51329 1.24989 0
M  V30 17348 N 1587.48 0.171848 1.5666 0
M  V30 17349 C 1588.9 -0.184312 1.58532 0
M  V30 17350 C 1589.1 -1.62811 1.18721 0
M  V30 17351 O 1588.15 -2.35951 0.899066 0
M  V30 17352 C 1589.46 0.0969826 3.00544 0
M  V30 17353 C 1591.01 0.0352364 3.1298 0
M  V30 17354 C 1591.49 0.289528 4.57084 0
M  V30 17355 N 1592.98 0.237322 4.62592 0
M  V30 17356 C 1593.71 0.408247 5.71945 0
M  V30 17357 N 1593.21 0.638256 6.89854 0
M  V30 17358 N 1595 0.344115 5.61046 0
M  V30 17359 H 1587.15 1.11427 1.80825 0
M  V30 17360 H 1589.42 0.44302 0.838115 0
M  V30 17361 H 1589.12 1.09717 3.34148 0
M  V30 17362 H 1589 -0.611157 3.72216 0
M  V30 17363 H 1591.38 -0.955531 2.79202 0
M  V30 17364 H 1591.46 0.776095 2.43743 0
M  V30 17365 H 1591.11 1.27751 4.91571 0
M  V30 17366 H 1591.04 -0.471948 5.24481 0
M  V30 17367 H 1593.53 0.0652142 3.77844 0
M  V30 17368 H 1593.84 0.758116 7.69072 0
M  V30 17369 H 1592.19 0.674877 6.91716 0
M  V30 17370 H 1595.38 0.165008 4.67809 0
M  V30 17371 H 1595.55 0.480749 6.46214 0
M  V30 17372 N 1588.96 -1.5727 -0.101874 0
M  V30 17373 C 1589.92 -2.00625 -1.10826 0
M  V30 17374 C 1590.92 -0.89878 -1.33336 0
M  V30 17375 O 1592.11 -1.16442 -1.29564 0
M  V30 17376 C 1589.24 -2.36113 -2.45893 0
M  V30 17377 H 1590.44 -2.90748 -0.735238 0
M  V30 17378 H 1587.99 -1.52406 -0.346713 0
M  V30 17379 H 1588.72 -1.48923 -2.88084 0
M  V30 17380 H 1588.51 -3.169 -2.30904 0
M  V30 17381 H 1590 -2.70336 -3.1829 0
M  V30 17382 N 1590.44 0.372521 -1.53134 0
M  V30 17383 C 1591.85 0.713727 -1.42752 0
M  V30 17384 C 1592.05 1.93532 -0.561051 0
M  V30 17385 O 1591.11 2.52467 -0.0408195 0
M  V30 17386 C 1592.42 0.933418 -2.85846 0
M  V30 17387 C 1593.97 1.03386 -2.95432 0
M  V30 17388 C 1594.44 1.28607 -4.39573 0
M  V30 17389 N 1595.93 1.35393 -4.42971 0
M  V30 17390 C 1596.67 1.56604 -5.516 0
M  V30 17391 N 1596.17 1.75178 -6.70287 0
M  V30 17392 N 1597.96 1.58917 -5.39168 0
M  V30 17393 H 1590.11 -0.431068 -2.0798 0
M  V30 17394 H 1592.37 -0.130757 -0.938939 0
M  V30 17395 H 1592.08 0.107707 -3.51535 0
M  V30 17396 H 1591.95 1.84348 -3.29083 0
M  V30 17397 H 1594.34 1.85012 -2.29901 0
M  V30 17398 H 1594.42 0.101346 -2.55599 0
M  V30 17399 H 1594.06 0.47485 -5.05675 0
M  V30 17400 H 1593.99 2.2317 -4.76973 0
M  V30 17401 H 1596.49 1.22681 -3.57432 0
M  V30 17402 H 1596.8 1.90916 -7.48846 0
M  V30 17403 H 1595.14 1.7237 -6.73286 0
M  V30 17404 H 1598.33 1.4397 -4.4541 0
M  V30 17405 H 1598.51 1.75108 -6.23892 0
M  V30 17406 N 1591.91 1.44376 0.631925 0
M  V30 17407 C 1592.88 1.50825 1.72582 0
M  V30 17408 C 1593.88 0.390379 1.55989 0
M  V30 17409 O 1595.07 0.65297 1.61499 0
M  V30 17410 C 1592.2 1.38141 3.11657 0
M  V30 17411 H 1593.39 2.48265 1.68239 0
M  V30 17412 H 1590.94 1.31456 0.845514 0
M  V30 17413 H 1591.68 0.417905 3.21596 0
M  V30 17414 H 1591.46 2.19198 3.25107 0
M  V30 17415 H 1592.95 1.45633 3.91383 0
M  V30 17416 N 1593.39 -0.872258 1.31261 0
M  V30 17417 C 1594.67 -1.60739 1.11456 0
M  V30 17418 C 1595.05 -2.0848 -0.331569 0
M  V30 17419 O 1594.4 -1.86141 -1.32528 0
M  V30 17420 C 1594.61 -2.76714 2.12674 0
M  V30 17421 C 1595.95 -3.46734 2.45074 0
M  V30 17422 O 1596.98 -2.86919 2.11083 0
M  V30 17423 O 1595.84 -4.54632 3.0327 0
M  V30 17424 H 1592.93 -0.70707 0.428929 0
M  V30 17425 H 1595.48 -0.917922 1.42732 0
M  V30 17426 H 1594.25 -2.38834 3.09958 0
M  V30 17427 H 1593.87 -3.5335 1.8229 0
M  V30 17428 N 1594.87 -1.14184 -1.08627 0
M  V30 17429 C 1595.8 -0.784492 -2.15356 0
M  V30 17430 C 1596.81 0.197581 -1.61597 0
M  V30 17431 O 1598 -0.0238037 -1.78484 0
M  V30 17432 C 1595.1 -0.143433 -3.38596 0
M  V30 17433 C 1594.28 -1.15967 -4.21747 0
M  V30 17434 C 1593.34 -0.542786 -5.23393 0
M  V30 17435 O 1592.36 -1.20512 -5.56296 0
M  V30 17436 N 1593.56 0.681466 -5.76486 0
M  V30 17437 H 1596.33 -1.70294 -2.46617 0
M  V30 17438 H 1593.89 -1.03596 -1.24417 0
M  V30 17439 H 1595.88 0.281703 -4.03718 0
M  V30 17440 H 1594.45 0.67811 -3.05156 0
M  V30 17441 H 1593.67 -1.76182 -3.52638 0
M  V30 17442 H 1594.96 -1.84623 -4.74122 0
M  V30 17443 H 1594.36 1.23819 -5.51983 0
M  V30 17444 H 1592.91 1.04914 -6.43301 0
M  V30 17445 N 1596.35 1.26749 -0.936613 0
M  V30 17446 C 1597.76 1.46284 -0.638218 0
M  V30 17447 C 1597.96 1.84509 0.80986 0
M  V30 17448 O 1597.02 1.96399 1.58693 0
M  V30 17449 C 1598.33 2.54867 -1.59573 0
M  V30 17450 C 1599.88 2.68721 -1.60493 0
M  V30 17451 C 1600.36 3.80471 -2.54963 0
M  V30 17452 N 1601.85 3.87857 -2.53221 0
M  V30 17453 C 1602.58 4.73767 -3.23005 0
M  V30 17454 N 1602.08 5.641 -4.02198 0
M  V30 17455 N 1603.87 4.67574 -3.11979 0
M  V30 17456 H 1596.02 1.00224 -1.87267 0
M  V30 17457 H 1598.29 0.501478 -0.804502 0
M  V30 17458 H 1597.99 2.33594 -2.62919 0
M  V30 17459 H 1597.87 3.52433 -1.34427 0
M  V30 17460 H 1600.25 2.8937 -0.578729 0
M  V30 17461 H 1600.33 1.71613 -1.89691 0
M  V30 17462 H 1599.98 3.60575 -3.57698 0
M  V30 17463 H 1599.91 4.77026 -2.23056 0
M  V30 17464 H 1602.4 3.23272 -1.95714 0
M  V30 17465 H 1602.71 6.26535 -4.52409 0
M  V30 17466 H 1601.06 5.63866 -4.063 0
M  V30 17467 H 1604.25 3.96004 -2.49596 0
M  V30 17468 H 1604.42 5.34308 -3.66633 0
M  V30 17469 N 1597.83 0.703118 1.41046 0
M  V30 17470 C 1599.08 0.234346 2.00334 0
M  V30 17471 C 1599.39 -1.17524 1.56357 0
M  V30 17472 O 1600.59 -1.74188 2.08257 0
M  V30 17473 C 1599.05 0.368067 3.58013 0
M  V30 17474 C 1598.66 1.7835 4.10969 0
M  V30 17475 C 1600.4 -0.0405456 4.24481 0
M  V30 17476 C 1598.31 1.86848 5.61108 0
M  V30 17477 H 1597.24 0.0838583 0.749322 0
M  V30 17478 H 1599.89 0.872407 1.61435 0
M  V30 17479 H 1598.27 -0.338371 3.94552 0
M  V30 17480 H 1599.45 2.51931 3.85833 0
M  V30 17481 H 1597.76 2.14246 3.57054 0
M  V30 17482 H 1600.36 0.00239803 5.347 0
M  V30 17483 H 1600.7 -1.08049 4.02034 0
M  V30 17484 H 1601.23 0.615887 3.93003 0
M  V30 17485 H 1597.97 2.8892 5.88392 0
M  V30 17486 H 1597.49 1.17662 5.88146 0
M  V30 17487 H 1599.17 1.63484 6.26005 0
M  V30 17488 N 1599.3 -1.51086 0.448402 0
M  V30 17489 C 1600.53 -2.06593 -0.112695 0
M  V30 17490 C 1600.95 -1.31471 -1.35502 0
M  V30 17491 O 1600.3 -0.377406 -1.78555 0
M  V30 17492 C 1600.36 -3.59008 -0.423769 0
M  V30 17493 O 1600.08 -4.31293 0.769259 0
M  V30 17494 C 1601.58 -4.31064 -1.03433 0
M  V30 17495 H 1598.8 -0.670993 -0.00301626 0
M  V30 17496 H 1601.34 -1.94532 0.630667 0
M  V30 17497 H 1599.5 -3.70946 -1.11704 0
M  V30 17498 H 1599.91 -5.2211 0.500162 0
M  V30 17499 H 1601.38 -5.38756 -1.20191 0
M  V30 17500 H 1601.86 -3.90075 -2.01837 0
M  V30 17501 H 1602.47 -4.23598 -0.380115 0
M  V30 17502 N 1600.78 -0.180154 -1.56567 0
M  V30 17503 C 1601.69 0.758959 -2.21984 0
M  V30 17504 C 1602.71 1.24631 -1.21422 0
M  V30 17505 O 1603.88 1.29659 -1.54112 0
M  V30 17506 C 1600.95 1.96744 -2.85469 0
M  V30 17507 C 1600.01 1.52612 -4.01258 0
M  V30 17508 C 1599.24 2.677 -4.61706 0
M  V30 17509 O 1599.47 3.84799 -4.21054 0
M  V30 17510 O 1598.4 2.41269 -5.51428 0
M  V30 17511 H 1602.23 0.231919 -3.02813 0
M  V30 17512 H 1599.81 0.0484552 -1.49321 0
M  V30 17513 H 1601.69 2.67404 -3.25689 0
M  V30 17514 H 1600.37 2.48337 -2.0763 0
M  V30 17515 H 1599.28 0.78877 -3.6569 0
M  V30 17516 H 1600.61 1.05701 -4.80716 0
M  V30 17517 N 1602.26 1.57322 0.0935319 0
M  V30 17518 C 1603.49 1.90754 0.814111 0
M  V30 17519 C 1603.91 0.774571 1.71412 0
M  V30 17520 O 1603.27 -0.273775 1.79221 0
M  V30 17521 C 1603.32 3.23055 1.60211 0
M  V30 17522 O 1602.42 3.10755 2.71118 0
M  V30 17523 H 1601.76 0.625237 0.223552 0
M  V30 17524 H 1604.29 2.04486 0.068288 0
M  V30 17525 H 1604.3 3.56401 1.986 0
M  V30 17526 H 1602.98 4.05101 0.941607 0
M  V30 17527 H 1601.55 2.88926 2.35745 0
M  V30 17528 N 1603.74 -0.364395 1.53329 0
M  V30 17529 C 1605.15 -0.706147 1.43128 0
M  V30 17530 C 1605.35 -1.93231 0.571307 0
M  V30 17531 O 1604.41 -2.52442 0.0542079 0
M  V30 17532 C 1605.72 -0.918245 2.86337 0
M  V30 17533 C 1607.27 -1.01818 2.95976 0
M  V30 17534 C 1607.75 -1.26274 4.40249 0
M  V30 17535 N 1609.24 -1.33042 4.43683 0
M  V30 17536 C 1609.97 -1.53677 5.52423 0
M  V30 17537 N 1609.47 -1.7162 6.71207 0
M  V30 17538 N 1611.26 -1.56056 5.40003 0
M  V30 17539 H 1603.41 0.442091 2.07748 0
M  V30 17540 H 1605.68 0.135735 0.938232 0
M  V30 17541 H 1605.38 -0.0890628 3.51587 0
M  V30 17542 H 1605.26 -1.826 3.30056 0
M  V30 17543 H 1607.64 -1.83791 2.30879 0
M  V30 17544 H 1607.72 -0.0877892 2.55649 0
M  V30 17545 H 1607.37 -0.448026 5.0592 0
M  V30 17546 H 1607.3 -2.20637 4.78149 0
M  V30 17547 H 1609.79 -1.20784 3.58078 0
M  V30 17548 H 1610.1 -1.86942 7.49848 0
M  V30 17549 H 1608.45 -1.68797 6.7419 0
M  V30 17550 H 1611.64 -1.41605 4.46168 0
M  V30 17551 H 1611.81 -1.71796 6.24812 0
M  V30 17552 N 1605.22 -1.44709 -0.62426 0
M  V30 17553 C 1606.15 -1.48097 -1.74928 0
M  V30 17554 C 1607.16 -0.373567 -1.58456 0
M  V30 17555 O 1608.35 -0.639699 -1.66644 0
M  V30 17556 C 1605.45 -1.30576 -3.12735 0
M  V30 17557 C 1604.62 -2.54688 -3.55602 0
M  V30 17558 C 1603.68 -2.31966 -4.72311 0
M  V30 17559 O 1602.71 -3.05492 -4.80274 0
M  V30 17560 N 1603.91 -1.35463 -5.64473 0
M  V30 17561 H 1606.68 -2.45086 -1.72491 0
M  V30 17562 H 1604.24 -1.40236 -0.809039 0
M  V30 17563 H 1606.23 -1.13212 -3.88542 0
M  V30 17564 H 1604.8 -0.419262 -3.09776 0
M  V30 17565 H 1604.02 -2.87282 -2.69931 0
M  V30 17566 H 1605.31 -3.37223 -3.80996 0
M  V30 17567 H 1604.7 -0.747509 -5.60739 0
M  V30 17568 H 1603.26 -1.24075 -6.39882 0
M  V30 17569 N 1606.69 0.865285 -1.31722 0
M  V30 17570 C 1607.94 1.62108 -1.21855 0
M  V30 17571 C 1608.27 1.9293 0.221714 0
M  V30 17572 O 1607.55 1.56423 1.15595 0
M  V30 17573 C 1607.83 2.94828 -2.06756 0
M  V30 17574 C 1607.68 2.70855 -3.59107 0
M  V30 17575 C 1609 3.95983 -1.92055 0
M  V30 17576 H 1606.12 0.588234 -0.444015 0
M  V30 17577 H 1608.76 0.999922 -1.6156 0
M  V30 17578 H 1606.91 3.47843 -1.73025 0
M  V30 17579 H 1608.59 2.24477 -4.02999 0
M  V30 17580 H 1606.83 2.05004 -3.82303 0
M  V30 17581 H 1607.5 3.65312 -4.13825 0
M  V30 17582 H 1609.98 3.52193 -2.21584 0
M  V30 17583 H 1608.85 4.86724 -2.53754 0
M  V30 17584 H 1609.11 4.33148 -0.885174 0
M  V30 17585 N 1608.17 1.14759 1.0802 0
M  V30 17586 C 1609.42 0.919609 1.80751 0
M  V30 17587 C 1609.75 -0.552268 1.86182 0
M  V30 17588 O 1609.03 -1.40922 1.34057 0
M  V30 17589 C 1609.31 1.52611 3.26162 0
M  V30 17590 C 1609.16 3.06811 3.28918 0
M  V30 17591 C 1610.48 1.20625 4.23246 0
M  V30 17592 H 1607.6 0.33551 0.656203 0
M  V30 17593 H 1610.24 1.41816 1.26444 0
M  V30 17594 H 1608.39 1.10213 3.72539 0
M  V30 17595 H 1610.06 3.58068 2.90835 0
M  V30 17596 H 1608.31 3.41055 2.68075 0
M  V30 17597 H 1608.98 3.44357 4.31419 0
M  V30 17598 H 1611.45 1.57287 3.85227 0
M  V30 17599 H 1610.33 1.65689 5.23296 0
M  V30 17600 H 1610.59 0.122177 4.41931 0
M  V30 17601 N 1609.65 -1.26251 0.943322 0
M  V30 17602 C 1610.56 -2.3003 0.460778 0
M  V30 17603 C 1611.58 -1.67635 -0.4663 0
M  V30 17604 O 1612.75 -1.98418 -0.345307 0
M  V30 17605 C 1609.82 -3.45691 -0.264291 0
M  V30 17606 C 1608.88 -4.23561 0.69961 0
M  V30 17607 C 1608.11 -5.33699 0.00904846 0
M  V30 17608 O 1608.33 -5.57473 -1.20748 0
M  V30 17609 O 1607.27 -5.97945 0.688839 0
M  V30 17610 H 1611.09 -2.73374 1.32289 0
M  V30 17611 H 1608.68 -1.31489 0.709297 0
M  V30 17612 H 1610.56 -4.15997 -0.672634 0
M  V30 17613 H 1609.24 -3.04373 -1.10176 0
M  V30 17614 H 1608.14 -3.55728 1.15794 0
M  V30 17615 H 1609.48 -4.68634 1.50476 0
M  V30 17616 N 1611.13 -0.710588 -1.40671 0
M  V30 17617 C 1612.06 -0.0694601 -2.33397 0
M  V30 17618 C 1613.04 0.750959 -1.52626 0
M  V30 17619 O 1614.23 0.700896 -1.81111 0
M  V30 17620 C 1611.36 0.856704 -3.36568 0
M  V30 17621 C 1610.31 0.142276 -4.27763 0
M  V30 17622 C 1609.64 1.18382 -5.21431 0
M  V30 17623 C 1610.94 -1.00052 -5.12627 0
M  V30 17624 H 1612.63 -0.843945 -2.87259 0
M  V30 17625 H 1610.18 -0.407287 -1.3812 0
M  V30 17626 H 1612.13 1.31457 -4.00371 0
M  V30 17627 H 1610.85 1.66303 -2.81089 0
M  V30 17628 H 1609.51 -0.295714 -3.65405 0
M  V30 17629 H 1609.16 1.98306 -4.62259 0
M  V30 17630 H 1608.86 0.71071 -5.83286 0
M  V30 17631 H 1610.38 1.64189 -5.88111 0
M  V30 17632 H 1611.8 -0.622246 -5.69913 0
M  V30 17633 H 1610.19 -1.40168 -5.83501 0
M  V30 17634 H 1611.26 -1.83345 -4.48902 0
M  V30 17635 N 1612.61 1.50847 -0.456408 0
M  V30 17636 C 1613.57 2.26755 0.33388 0
M  V30 17637 C 1614.57 1.30947 0.933247 0
M  V30 17638 O 1615.76 1.54499 0.804716 0
M  V30 17639 C 1612.89 3.07378 1.47417 0
M  V30 17640 H 1614.09 2.98061 -0.331634 0
M  V30 17641 H 1611.64 1.54882 -0.210067 0
M  V30 17642 H 1612.37 2.40534 2.17518 0
M  V30 17643 H 1612.16 3.7777 1.05036 0
M  V30 17644 H 1613.65 3.64826 2.03204 0
M  V30 17645 N 1614.09 0.188454 1.56469 0
M  V30 17646 C 1615.33 -0.452728 1.97682 0
M  V30 17647 C 1615.66 -1.61729 1.07506 0
M  V30 17648 O 1614.94 -1.94094 0.125677 0
M  V30 17649 C 1615.22 -0.919257 3.48169 0
M  V30 17650 C 1615.08 0.246656 4.49123 0
M  V30 17651 C 1616.39 -1.78706 4.02184 0
M  V30 17652 H 1613.51 -0.16309 0.718729 0
M  V30 17653 H 1616.16 0.27804 1.87955 0
M  V30 17654 H 1614.31 -1.54195 3.5659 0
M  V30 17655 H 1615.98 0.884178 4.52747 0
M  V30 17656 H 1614.22 0.89948 4.24372 0
M  V30 17657 H 1614.89 -0.122179 5.51865 0
M  V30 17658 H 1617.37 -1.26196 3.96502 0
M  V30 17659 H 1616.24 -2.08247 5.07863 0
M  V30 17660 H 1616.5 -2.73891 3.47039 0
M  V30 17661 N 1615.56 -1.5737 -0.0851874 0
M  V30 17662 C 1616.51 -2.02758 -1.10262 0
M  V30 17663 C 1617.48 -0.905702 -1.39235 0
M  V30 17664 O 1618.67 -1.17241 -1.50529 0
M  V30 17665 C 1615.81 -2.46528 -2.41492 0
M  V30 17666 C 1614.92 -3.72278 -2.19165 0
M  V30 17667 C 1614.05 -4.04885 -3.43863 0
M  V30 17668 C 1613.09 -5.23715 -3.16842 0
M  V30 17669 N 1612.23 -5.52026 -4.33833 0
M  V30 17670 H 1617.07 -2.89453 -0.708583 0
M  V30 17671 H 1614.61 -1.43156 -0.338332 0
M  V30 17672 H 1616.56 -2.69952 -3.18091 0
M  V30 17673 H 1615.19 -1.62829 -2.78723 0
M  V30 17674 H 1614.25 -3.56272 -1.33321 0
M  V30 17675 H 1615.56 -4.5902 -1.95197 0
M  V30 17676 H 1614.71 -4.29138 -4.28865 0
M  V30 17677 H 1613.45 -3.16683 -3.70895 0
M  V30 17678 H 1612.46 -4.99272 -2.30234 0
M  V30 17679 H 1613.68 -6.13523 -2.91146 0
M  V30 17680 H 1611.63 -4.66784 -4.60922 0
M  V30 17681 H 1611.54 -6.3316 -4.13091 0
M  V30 17682 H 1612.81 -5.80822 -5.19871 0
M  V30 17683 N 1617.04 0.356258 -1.53521 0
M  V30 17684 C 1617.95 1.46055 -1.83589 0
M  V30 17685 C 1618.97 1.58176 -0.724997 0
M  V30 17686 O 1620.14 1.73894 -1.01601 0
M  V30 17687 C 1617.21 2.81207 -2.0279 0
M  V30 17688 C 1616.27 2.78535 -3.26675 0
M  V30 17689 C 1615.5 4.07241 -3.4495 0
M  V30 17690 O 1615.73 5.03879 -2.67324 0
M  V30 17691 O 1614.66 4.12485 -4.38337 0
M  V30 17692 H 1618.49 1.23566 -2.77426 0
M  V30 17693 H 1616.07 0.547243 -1.39017 0
M  V30 17694 H 1617.95 3.61271 -2.16936 0
M  V30 17695 H 1616.63 3.03654 -1.12143 0
M  V30 17696 H 1615.53 1.97137 -3.17943 0
M  V30 17697 H 1616.87 2.61042 -4.17274 0
M  V30 17698 N 1618.52 1.45038 0.616577 0
M  V30 17699 C 1619.47 1.49451 1.72187 0
M  V30 17700 C 1620.45 0.358711 1.5685 0
M  V30 17701 O 1621.65 0.604983 1.6634 0
M  V30 17702 C 1618.77 1.45551 3.10918 0
M  V30 17703 C 1617.86 2.643 3.31672 0
M  V30 17704 N 1618.25 3.89462 3.22727 0
M  V30 17705 C 1616.55 2.59805 3.62515 0
M  V30 17706 C 1617.25 4.68667 3.44567 0
M  V30 17707 N 1616.23 3.99974 3.68132 0
M  V30 17708 H 1620.03 2.44055 1.6375 0
M  V30 17709 H 1617.54 1.40205 0.819538 0
M  V30 17710 H 1619.54 1.46797 3.902 0
M  V30 17711 H 1618.2 0.519966 3.2051 0
M  V30 17712 H 1619.21 4.21217 3.01325 0
M  V30 17713 H 1615.89 1.75117 3.78999 0
M  V30 17714 H 1617.28 5.77683 3.43121 0
M  V30 17715 N 1620 -0.858287 1.32179 0
M  V30 17716 C 1620.94 -1.96656 1.20811 0
M  V30 17717 C 1621.91 -1.6585 0.0911199 0
M  V30 17718 O 1623.1 -1.88936 0.266033 0
M  V30 17719 C 1620.24 -3.32237 0.933408 0
M  V30 17720 C 1619.35 -3.75564 2.13484 0
M  V30 17721 C 1618.49 -4.9992 1.79593 0
M  V30 17722 C 1617.53 -5.35728 2.96077 0
M  V30 17723 N 1616.66 -6.51261 2.62304 0
M  V30 17724 H 1621.5 -2.05711 2.15609 0
M  V30 17725 H 1619.04 -1.00689 1.07239 0
M  V30 17726 H 1621 -4.10318 0.754651 0
M  V30 17727 H 1619.63 -3.22792 0.0222279 0
M  V30 17728 H 1618.68 -2.93167 2.42399 0
M  V30 17729 H 1619.99 -3.98025 3.00629 0
M  V30 17730 H 1619.15 -5.85698 1.58248 0
M  V30 17731 H 1617.89 -4.79388 0.896561 0
M  V30 17732 H 1616.89 -4.48463 3.18058 0
M  V30 17733 H 1618.12 -5.58219 3.86741 0
M  V30 17734 H 1616.06 -6.32254 1.74904 0
M  V30 17735 H 1615.98 -6.73722 3.42979 0
M  V30 17736 H 1617.25 -7.40202 2.4438 0
M  V30 17737 N 1621.48 -1.1533 -1.07409 0
M  V30 17738 C 1622.44 -0.852155 -2.1277 0
M  V30 17739 C 1623.44 0.14782 -1.60119 0
M  V30 17740 O 1624.63 -0.0817436 -1.74008 0
M  V30 17741 C 1621.76 -0.272233 -3.39811 0
M  V30 17742 H 1622.95 -1.78604 -2.40917 0
M  V30 17743 H 1620.51 -0.960698 -1.23289 0
M  V30 17744 H 1621.24 0.669873 -3.17306 0
M  V30 17745 H 1621.03 -0.992629 -3.79327 0
M  V30 17746 H 1622.52 -0.0790986 -4.17525 0
M  V30 17747 N 1622.95 1.25748 -0.950004 0
M  V30 17748 C 1623.86 2.29783 -0.472971 0
M  V30 17749 C 1624.88 1.6788 0.457403 0
M  V30 17750 O 1626.06 1.98598 0.334779 0
M  V30 17751 C 1623.12 3.45826 0.245955 0
M  V30 17752 C 1622.18 4.23184 -0.722063 0
M  V30 17753 C 1621.41 5.33687 -0.0373517 0
M  V30 17754 O 1621.64 5.58105 1.1779 0
M  V30 17755 O 1620.57 5.97572 -0.72054 0
M  V30 17756 H 1624.4 2.72668 -1.33737 0
M  V30 17757 H 1621.98 1.31111 -0.71626 0
M  V30 17758 H 1623.86 4.16348 0.650563 0
M  V30 17759 H 1622.54 3.04953 1.0856 0
M  V30 17760 H 1621.45 3.55109 -1.17679 0
M  V30 17761 H 1622.78 4.67829 -1.52959 0
M  V30 17762 N 1624.43 0.718038 1.40292 0
M  V30 17763 C 1625.68 0.255581 2.00074 0
M  V30 17764 C 1625.99 -1.15859 1.57594 0
M  V30 17765 O 1627.2 -1.71969 2.10092 0
M  V30 17766 C 1625.66 0.406019 3.57602 0
M  V30 17767 C 1625.26 1.82699 4.09054 0
M  V30 17768 C 1627.01 0.00447854 4.245 0
M  V30 17769 C 1624.91 1.92788 5.59094 0
M  V30 17770 H 1623.84 0.0918012 0.748391 0
M  V30 17771 H 1626.5 0.88948 1.60501 0
M  V30 17772 H 1624.88 -0.296504 3.94888 0
M  V30 17773 H 1626.05 2.56009 3.8314 0
M  V30 17774 H 1624.37 2.18021 3.54761 0
M  V30 17775 H 1626.96 0.05911 5.34667 0
M  V30 17776 H 1627.31 -1.03779 4.03157 0
M  V30 17777 H 1627.84 0.657535 3.92328 0
M  V30 17778 H 1624.58 2.95145 5.85295 0
M  V30 17779 H 1624.1 1.23893 5.86865 0
M  V30 17780 H 1625.78 1.70114 6.24236 0
M  V30 17781 N 1625.91 -1.50602 0.464402 0
M  V30 17782 C 1626.84 -2.31252 -0.323263 0
M  V30 17783 C 1627.82 -1.37856 -0.996476 0
M  V30 17784 O 1629.01 -1.66777 -0.994933 0
M  V30 17785 C 1626.14 -3.17414 -1.40945 0
M  V30 17786 C 1625.09 -4.19307 -0.858226 0
M  V30 17787 C 1624.42 -4.94164 -2.0422 0
M  V30 17788 C 1625.72 -5.22148 0.125921 0
M  V30 17789 H 1627.41 -2.97349 0.34983 0
M  V30 17790 H 1624.96 -1.42997 0.169685 0
M  V30 17791 H 1626.91 -3.72627 -1.96791 0
M  V30 17792 H 1625.63 -2.49189 -2.11122 0
M  V30 17793 H 1624.29 -3.65185 -0.321785 0
M  V30 17794 H 1623.94 -4.22417 -2.7308 0
M  V30 17795 H 1623.64 -5.63083 -1.67963 0
M  V30 17796 H 1625.16 -5.5221 -2.60569 0
M  V30 17797 H 1626.58 -5.72272 -0.343136 0
M  V30 17798 H 1624.98 -5.98749 0.402433 0
M  V30 17799 H 1626.05 -4.73307 1.05399 0
M  V30 17800 N 1627.39 -0.19675 -1.56367 0
M  V30 17801 C 1628.35 0.709734 -2.17934 0
M  V30 17802 C 1629.35 1.13979 -1.13426 0
M  V30 17803 O 1630.54 1.05261 -1.38801 0
M  V30 17804 C 1627.67 1.96917 -2.78274 0
M  V30 17805 H 1628.87 0.173342 -2.99399 0
M  V30 17806 H 1626.42 0.0528698 -1.56211 0
M  V30 17807 H 1627.15 2.54804 -2.00613 0
M  V30 17808 H 1626.94 1.66951 -3.54781 0
M  V30 17809 H 1628.43 2.61554 -3.25545 0
M  V30 17810 N 1628.87 1.57413 0.0768405 0
M  V30 17811 C 1629.8 2.06378 1.09226 0
M  V30 17812 C 1630.78 0.956269 1.40675 0
M  V30 17813 O 1631.96 1.22868 1.5039 0
M  V30 17814 C 1629.09 2.50349 2.40712 0
M  V30 17815 C 1628.05 3.64931 2.23628 0
M  V30 17816 C 1627.37 3.9494 3.60453 0
M  V30 17817 C 1628.67 4.95162 1.66169 0
M  V30 17818 H 1630.37 2.91463 0.684827 0
M  V30 17819 H 1627.91 1.40215 0.327974 0
M  V30 17820 H 1629.87 2.83216 3.12036 0
M  V30 17821 H 1628.59 1.62287 2.83426 0
M  V30 17822 H 1627.25 3.32339 1.54747 0
M  V30 17823 H 1626.9 3.04016 4.00728 0
M  V30 17824 H 1626.6 4.72091 3.49863 0
M  V30 17825 H 1628.12 4.30299 4.33215 0
M  V30 17826 H 1629.53 5.26292 2.27353 0
M  V30 17827 H 1627.93 5.76601 1.66289 0
M  V30 17828 H 1629 4.80885 0.62271 0
M  V30 17829 N 1630.34 -0.348112 1.53707 0
M  V30 17830 C 1631.28 -1.44781 1.77682 0
M  V30 17831 C 1632.29 -1.4891 0.657997 0
M  V30 17832 O 1633.48 -1.52075 0.934635 0
M  V30 17833 C 1630.58 -2.83463 1.85747 0
M  V30 17834 C 1629.75 -3.02827 3.15618 0
M  V30 17835 C 1628.81 -4.21724 3.14698 0
M  V30 17836 O 1627.84 -4.16059 3.88437 0
M  V30 17837 N 1629.04 -5.3003 2.36746 0
M  V30 17838 H 1631.8 -1.24587 2.72577 0
M  V30 17839 H 1629.36 -0.537961 1.52701 0
M  V30 17840 H 1631.36 -3.6117 1.82589 0
M  V30 17841 H 1629.93 -2.96822 0.980595 0
M  V30 17842 H 1629.15 -2.1263 3.31937 0
M  V30 17843 H 1630.43 -3.12645 4.01411 0
M  V30 17844 H 1629.83 -5.375 1.7638 0
M  V30 17845 H 1628.39 -6.06247 2.39389 0
M  V30 17846 N 1631.82 -1.45363 -0.608876 0
M  V30 17847 C 1632.75 -1.49944 -1.73348 0
M  V30 17848 C 1633.77 -0.390352 -1.58051 0
M  V30 17849 O 1634.96 -0.657338 -1.65956 0
M  V30 17850 C 1632.06 -1.33886 -3.11332 0
M  V30 17851 C 1631.23 -2.58445 -3.52881 0
M  V30 17852 C 1630.29 -2.36963 -4.69825 0
M  V30 17853 O 1629.31 -3.10569 -4.77007 0
M  V30 17854 N 1630.52 -1.41442 -5.63005 0
M  V30 17855 H 1633.28 -2.46902 -1.69882 0
M  V30 17856 H 1630.84 -1.41086 -0.794119 0
M  V30 17857 H 1632.83 -1.17327 -3.8732 0
M  V30 17858 H 1631.4 -0.452095 -3.09314 0
M  V30 17859 H 1630.62 -2.90129 -2.66869 0
M  V30 17860 H 1631.91 -3.41245 -3.77398 0
M  V30 17861 H 1631.31 -0.806941 -5.59915 0
M  V30 17862 H 1629.87 -1.30855 -6.3853 0
M  V30 17863 N 1633.3 0.851265 -1.32632 0
M  V30 17864 C 1634.26 1.94168 -1.21785 0
M  V30 17865 C 1635.26 1.60189 -0.140023 0
M  V30 17866 O 1636.45 1.69763 -0.390671 0
M  V30 17867 C 1633.59 3.29513 -0.873717 0
M  V30 17868 H 1634.78 2.05214 -2.18695 0
M  V30 17869 H 1632.33 1.04186 -1.16512 0
M  V30 17870 H 1633.07 3.24165 0.0934202 0
M  V30 17871 H 1632.85 3.55552 -1.65302 0
M  V30 17872 H 1634.34 4.09425 -0.822231 0
M  V30 17873 N 1634.78 1.15898 1.06796 0
M  V30 17874 C 1635.71 0.88395 2.16122 0
M  V30 17875 C 1636.69 -0.167708 1.69271 0
M  V30 17876 O 1637.87 -0.0208846 1.94189 0
M  V30 17877 C 1635 0.378656 3.4523 0
M  V30 17878 C 1633.96 1.36764 4.05561 0
M  V30 17879 C 1633.28 0.720956 5.29817 0
M  V30 17880 C 1634.58 2.73554 4.44933 0
M  V30 17881 H 1636.28 1.79818 2.39386 0
M  V30 17882 H 1633.82 0.866008 1.15049 0
M  V30 17883 H 1635.78 0.17376 4.21042 0
M  V30 17884 H 1634.5 -0.571063 3.21569 0
M  V30 17885 H 1633.16 1.55899 3.318 0
M  V30 17886 H 1632.81 -0.235089 5.0245 0
M  V30 17887 H 1632.51 1.38101 5.71141 0
M  V30 17888 H 1634.03 0.525963 6.0833 0
M  V30 17889 H 1635.45 2.58231 5.11849 0
M  V30 17890 H 1633.84 3.35986 4.97226 0
M  V30 17891 H 1634.91 3.29192 3.56034 0
M  V30 17892 N 1636.26 -1.25243 0.956659 0
M  V30 17893 C 1637.2 -2.25811 0.477292 0
M  V30 17894 C 1638.17 -1.59273 -0.471301 0
M  V30 17895 O 1639.36 -1.86894 -0.384105 0
M  V30 17896 C 1636.5 -3.44286 -0.236891 0
M  V30 17897 C 1635.61 -4.25454 0.749177 0
M  V30 17898 C 1634.75 -5.31199 0.012228 0
M  V30 17899 C 1633.79 -6.04056 0.989094 0
M  V30 17900 N 1632.92 -7.0153 0.282883 0
M  V30 17901 H 1637.76 -2.66185 1.33977 0
M  V30 17902 H 1635.3 -1.30862 0.671832 0
M  V30 17903 H 1637.26 -4.11825 -0.66755 0
M  V30 17904 H 1635.89 -3.04781 -1.06339 0
M  V30 17905 H 1634.94 -3.57558 1.29831 0
M  V30 17906 H 1636.25 -4.75883 1.49454 0
M  V30 17907 H 1635.41 -6.04822 -0.476968 0
M  V30 17908 H 1634.14 -4.81648 -0.76591 0
M  V30 17909 H 1633.15 -5.29245 1.48927 0
M  V30 17910 H 1634.37 -6.55695 1.76749 0
M  V30 17911 H 1632.32 -6.54267 -0.476479 0
M  V30 17912 H 1632.24 -7.49786 0.967304 0
M  V30 17913 H 1633.51 -7.79281 -0.184709 0
M  V30 17914 N 1637.73 -0.725468 -1.3991 0
M  V30 17915 C 1638.64 -0.0805887 -2.34462 0
M  V30 17916 C 1639.66 0.732689 -1.57822 0
M  V30 17917 O 1640.84 0.663362 -1.90162 0
M  V30 17918 C 1637.9 0.822908 -3.36792 0
M  V30 17919 C 1636.96 -0.00153812 -4.293 0
M  V30 17920 C 1636.2 0.85893 -5.26743 0
M  V30 17921 O 1636.42 2.09793 -5.30418 0
M  V30 17922 O 1635.35 0.292659 -6.01188 0
M  V30 17923 H 1639.18 -0.860746 -2.91247 0
M  V30 17924 H 1636.76 -0.48604 -1.41273 0
M  V30 17925 H 1638.65 1.34014 -3.99522 0
M  V30 17926 H 1637.32 1.58204 -2.82406 0
M  V30 17927 H 1636.23 -0.564072 -3.69823 0
M  V30 17928 H 1637.56 -0.722675 -4.86866 0
M  V30 17929 N 1639.21 1.50354 -0.472382 0
M  V30 17930 C 1640.14 2.26396 0.357429 0
M  V30 17931 C 1641.16 1.31778 0.955949 0
M  V30 17932 O 1642.35 1.57279 0.844136 0
M  V30 17933 C 1639.45 3.03131 1.51542 0
M  V30 17934 C 1638.62 4.25113 1.02945 0
M  V30 17935 C 1637.68 4.84131 2.06164 0
M  V30 17936 O 1636.7 5.4501 1.64174 0
M  V30 17937 N 1637.91 4.71244 3.38983 0
M  V30 17938 H 1640.67 2.9825 -0.294473 0
M  V30 17939 H 1638.23 1.59035 -0.303242 0
M  V30 17940 H 1640.22 3.39492 2.20289 0
M  V30 17941 H 1638.79 2.34067 2.07199 0
M  V30 17942 H 1638.01 3.93843 0.167821 0
M  V30 17943 H 1639.3 5.04199 0.682705 0
M  V30 17944 H 1638.7 4.22831 3.75807 0
M  V30 17945 H 1637.26 5.11871 4.03524 0
M  V30 17946 N 1640.69 0.205039 1.56261 0
M  V30 17947 C 1641.64 -0.711828 2.19549 0
M  V30 17948 C 1642.61 -1.2025 1.14582 0
M  V30 17949 O 1643.79 -1.26459 1.42873 0
M  V30 17950 C 1640.93 -1.92152 2.86656 0
M  V30 17951 C 1640.05 -1.47129 4.06174 0
M  V30 17952 C 1639.18 -2.63726 4.6111 0
M  V30 17953 C 1638.22 -2.15357 5.72964 0
M  V30 17954 N 1637.36 -3.25167 6.22263 0
M  V30 17955 H 1642.2 -0.165392 2.97541 0
M  V30 17956 H 1639.73 -0.0698889 1.46934 0
M  V30 17957 H 1641.69 -2.63152 3.23739 0
M  V30 17958 H 1640.32 -2.4411 2.11211 0
M  V30 17959 H 1639.37 -0.656797 3.74687 0
M  V30 17960 H 1640.69 -1.0765 4.87045 0
M  V30 17961 H 1639.84 -3.42833 5.0055 0
M  V30 17962 H 1638.58 -3.06484 3.79367 0
M  V30 17963 H 1637.58 -1.34706 5.33043 0
M  V30 17964 H 1638.81 -1.73618 6.56532 0
M  V30 17965 H 1636.76 -3.67438 5.43439 0
M  V30 17966 H 1636.67 -2.89888 6.98213 0
M  V30 17967 H 1637.94 -4.0446 6.66358 0
M  V30 17968 N 1642.17 -1.57451 -0.0684915 0
M  V30 17969 C 1643.1 -2.06954 -1.0813 0
M  V30 17970 C 1644.08 -0.963716 -1.40166 0
M  V30 17971 O 1645.27 -1.23664 -1.49736 0
M  V30 17972 C 1642.4 -2.51622 -2.39381 0
M  V30 17973 C 1641.35 -3.66111 -2.2169 0
M  V30 17974 C 1640.68 -3.96846 -3.58354 0
M  V30 17975 C 1641.98 -4.96036 -1.63541 0
M  V30 17976 H 1643.67 -2.91822 -0.66936 0
M  V30 17977 H 1641.22 -1.40387 -0.320533 0
M  V30 17978 H 1643.17 -2.84867 -3.1053 0
M  V30 17979 H 1641.89 -1.63788 -2.82562 0
M  V30 17980 H 1640.55 -3.33155 -1.52982 0
M  V30 17981 H 1640.2 -3.06137 -3.9911 0
M  V30 17982 H 1639.9 -4.73939 -3.47354 0
M  V30 17983 H 1641.42 -4.3259 -4.30927 0
M  V30 17984 H 1642.84 -5.27491 -2.24559 0
M  V30 17985 H 1641.23 -5.77474 -1.63228 0
M  V30 17986 H 1642.3 -4.81208 -0.597199 0
M  V30 17987 N 1643.65 0.339955 -1.5389 0
M  V30 17988 C 1644.59 1.41765 -1.8213 0
M  V30 17989 C 1645.56 1.52109 -0.667235 0
M  V30 17990 O 1646.75 1.67591 -0.91203 0
M  V30 17991 C 1643.89 2.78366 -2.03977 0
M  V30 17992 C 1643 2.76785 -3.31684 0
M  V30 17993 C 1642.14 4.05125 -3.4358 0
M  V30 17994 C 1641.18 3.97787 -4.65223 0
M  V30 17995 N 1640.31 5.17825 -4.74133 0
M  V30 17996 H 1645.15 1.16984 -2.74078 0
M  V30 17997 H 1642.69 0.566618 -1.35749 0
M  V30 17998 H 1644.65 3.57755 -2.14633 0
M  V30 17999 H 1643.28 3.01491 -1.15338 0
M  V30 18000 H 1642.33 1.89481 -3.2985 0
M  V30 18001 H 1643.64 2.67241 -4.2117 0
M  V30 18002 H 1642.8 4.9294 -3.53688 0
M  V30 18003 H 1641.54 4.17455 -2.52157 0
M  V30 18004 H 1640.54 3.08357 -4.55188 0
M  V30 18005 H 1641.77 3.87037 -5.58014 0
M  V30 18006 H 1639.71 5.30691 -3.8562 0
M  V30 18007 H 1639.63 5.10552 -5.5756 0
M  V30 18008 H 1640.9 6.074 -4.88554 0
M  V30 18009 N 1645.13 1.45684 0.601159 0
M  V30 18010 C 1646.09 1.54451 1.69344 0
M  V30 18011 C 1647.09 0.423379 1.55126 0
M  V30 18012 O 1648.28 0.687079 1.60078 0
M  V30 18013 C 1645.41 1.4472 3.08657 0
M  V30 18014 H 1646.6 2.51778 1.62935 0
M  V30 18015 H 1644.16 1.3322 0.81744 0
M  V30 18016 H 1644.89 0.486027 3.20637 0
M  V30 18017 H 1644.68 2.26045 3.20384 0
M  V30 18018 H 1646.17 1.53902 3.88206 0
M  V30 18019 N 1646.6 -0.84422 1.33082 0
M  V30 18020 C 1647.51 -1.9858 1.24913 0
M  V30 18021 C 1648.53 -1.73256 0.160708 0
M  V30 18022 O 1649.71 -1.97719 0.383313 0
M  V30 18023 C 1646.77 -3.32471 0.983063 0
M  V30 18024 C 1645.83 -3.70946 2.16096 0
M  V30 18025 C 1645.06 -4.98448 1.90749 0
M  V30 18026 O 1645.29 -5.63953 0.855173 0
M  V30 18027 O 1644.22 -5.34301 2.7714 0
M  V30 18028 H 1648.05 -2.0841 2.20905 0
M  V30 18029 H 1645.63 -0.976447 1.13075 0
M  V30 18030 H 1647.51 -4.12705 0.851612 0
M  V30 18031 H 1646.19 -3.23656 0.053384 0
M  V30 18032 H 1645.1 -2.91244 2.34793 0
M  V30 18033 H 1646.43 -3.8442 3.07379 0
M  V30 18034 N 1648.08 -1.16463 -1.0618 0
M  V30 18035 C 1649.31 -0.97159 -1.83235 0
M  V30 18036 C 1649.73 0.475295 -1.81996 0
M  V30 18037 O 1649.09 1.33964 -1.22161 0
M  V30 18038 C 1649.14 -1.50504 -3.2769 0
M  V30 18039 O 1648.24 -0.712128 -4.06205 0
M  V30 18040 H 1647.58 -0.345676 -0.566925 0
M  V30 18041 H 1650.11 -1.54727 -1.33868 0
M  V30 18042 H 1650.12 -1.52301 -3.78508 0
M  V30 18043 H 1648.8 -2.55832 -3.27907 0
M  V30 18044 H 1647.37 -0.764756 -3.64974 0
M  V30 18045 N 1649.56 1.24734 -0.963288 0
M  V30 18046 C 1650.49 2.27892 -0.508667 0
M  V30 18047 C 1651.47 1.64055 0.449438 0
M  V30 18048 O 1652.66 1.91083 0.346519 0
M  V30 18049 C 1649.79 3.46688 0.206157 0
M  V30 18050 C 1648.74 4.22762 -0.667534 0
M  V30 18051 C 1648.07 5.34402 0.178529 0
M  V30 18052 C 1649.37 4.84535 -1.94995 0
M  V30 18053 H 1651.06 2.66171 -1.37088 0
M  V30 18054 H 1648.61 1.27952 -0.660622 0
M  V30 18055 H 1650.56 4.17985 0.535391 0
M  V30 18056 H 1649.28 3.07422 1.10269 0
M  V30 18057 H 1647.94 3.53259 -0.979976 0
M  V30 18058 H 1647.59 4.91377 1.07508 0
M  V30 18059 H 1647.29 5.86218 -0.402808 0
M  V30 18060 H 1648.81 6.08529 0.502533 0
M  V30 18061 H 1650.23 5.4793 -1.68658 0
M  V30 18062 H 1648.62 5.46564 -2.47765 0
M  V30 18063 H 1649.69 4.06236 -2.64765 0
M  V30 18064 N 1651.04 0.732878 1.39523 0
M  V30 18065 C 1652.26 0.288717 2.05381 0
M  V30 18066 C 1652.69 -1.06727 1.5489 0
M  V30 18067 O 1652.05 -1.67585 0.691726 0
M  V30 18068 C 1652.09 0.297738 3.59369 0
M  V30 18069 O 1651.2 -0.715335 4.06149 0
M  V30 18070 H 1650.54 0.131696 0.650809 0
M  V30 18071 H 1653.07 0.998206 1.78597 0
M  V30 18072 H 1653.08 0.141391 4.07755 0
M  V30 18073 H 1651.75 1.28719 3.9548 0
M  V30 18074 H 1650.33 -0.525298 3.69182 0
M  V30 18075 N 1652.52 -1.50101 0.480349 0
M  V30 18076 C 1653.79 -1.95144 -0.133456 0
M  V30 18077 C 1654.17 -1.4211 -1.56102 0
M  V30 18078 O 1653.52 -0.626012 -2.19757 0
M  V30 18079 C 1653.73 -3.48935 -0.0672904 0
M  V30 18080 C 1655.08 -4.23854 -0.251564 0
M  V30 18081 O 1656.1 -3.55911 -0.143446 0
M  V30 18082 O 1654.96 -5.44467 -0.470947 0
M  V30 18083 H 1652.06 -0.820098 -0.106619 0
M  V30 18084 H 1654.6 -1.60832 0.541413 0
M  V30 18085 H 1653.37 -3.80111 0.929058 0
M  V30 18086 H 1653 -3.8981 -0.783214 0
M  V30 18087 N 1653.99 -0.213323 -1.5615 0
M  V30 18088 C 1654.94 0.700175 -2.19923 0
M  V30 18089 C 1655.91 1.19641 -1.15218 0
M  V30 18090 O 1657.1 1.257 -1.43542 0
M  V30 18091 C 1654.24 1.90629 -2.87671 0
M  V30 18092 C 1653.35 1.44973 -4.06948 0
M  V30 18093 C 1652.48 2.61277 -4.62502 0
M  V30 18094 C 1651.52 2.12316 -5.74098 0
M  V30 18095 N 1650.66 3.21862 -6.23978 0
M  V30 18096 H 1655.5 0.14961 -2.97624 0
M  V30 18097 H 1653.04 0.0620957 -1.46969 0
M  V30 18098 H 1654.99 2.61431 -3.2513 0
M  V30 18099 H 1653.62 2.42987 -2.12502 0
M  V30 18100 H 1652.68 0.636917 -3.7503 0
M  V30 18101 H 1653.99 1.05065 -4.87609 0
M  V30 18102 H 1653.14 3.40174 -5.02361 0
M  V30 18103 H 1651.88 3.04468 -3.80987 0
M  V30 18104 H 1650.89 1.31877 -5.33749 0
M  V30 18105 H 1652.11 1.70134 -6.57443 0
M  V30 18106 H 1650.06 3.64551 -5.45379 0
M  V30 18107 H 1649.97 2.86181 -6.9974 0
M  V30 18108 H 1651.24 4.0092 -6.68493 0
M  V30 18109 N 1655.47 1.57485 0.0601405 0
M  V30 18110 C 1656.4 2.07525 1.07031 0
M  V30 18111 C 1657.38 0.971136 1.39653 0
M  V30 18112 O 1658.57 1.24456 1.49078 0
M  V30 18113 C 1655.7 2.52888 2.38044 0
M  V30 18114 C 1654.65 3.67282 2.19745 0
M  V30 18115 C 1653.98 3.98741 3.56244 0
M  V30 18116 C 1655.28 4.96896 1.60908 0
M  V30 18117 H 1656.97 2.92173 0.653875 0
M  V30 18118 H 1654.52 1.40555 0.313083 0
M  V30 18119 H 1656.47 2.8651 3.09014 0
M  V30 18120 H 1655.2 1.65284 2.81689 0
M  V30 18121 H 1653.85 3.33961 1.51213 0
M  V30 18122 H 1653.5 3.08249 3.97481 0
M  V30 18123 H 1653.2 4.75775 3.44836 0
M  V30 18124 H 1654.73 4.34869 4.28627 0
M  V30 18125 H 1656.14 5.28674 2.21758 0
M  V30 18126 H 1654.54 5.78332 1.60164 0
M  V30 18127 H 1655.61 4.81518 0.571671 0
M  V30 18128 N 1656.95 -0.331789 1.54068 0
M  V30 18129 C 1657.9 -1.42815 1.83593 0
M  V30 18130 C 1658.89 -1.53931 0.707231 0
M  V30 18131 O 1660.1 -1.56414 0.890763 0
M  V30 18132 H 1656.47 -0.476418 0.581833 0
M  V30 18133 H 1658.44 -1.15133 2.75294 0
M  V30 18134 C 1657.19 -2.79162 2.07277 0
M  V30 18135 H 1656.52 -2.7138 2.93586 0
M  V30 18136 H 1657.96 -3.54966 2.31895 0
M  V30 18137 C 1656.42 -3.25691 0.861816 0
M  V30 18138 O 1656.95 -4.01644 0.0670133 0
M  V30 18139 N 1655.15 -2.82634 0.675746 0
M  V30 18140 H 1654.7 -2.20988 1.32371 0
M  V30 18141 H 1654.66 -3.14119 -0.133004 0
M  V30 18142 N 1658.43 -1.46001 -0.593424 0
M  V30 18143 C 1659.71 -1.4123 -1.35327 0
M  V30 18144 C 1660.09 -0.0901956 -2.10907 0
M  V30 18145 O 1659.43 0.928102 -2.08803 0
M  V30 18146 C 1659.64 -2.63515 -2.28825 0
M  V30 18147 C 1660.99 -3.09208 -2.90991 0
M  V30 18148 O 1662.02 -2.63988 -2.39142 0
M  V30 18149 O 1660.87 -3.87723 -3.8514 0
M  V30 18150 H 1657.97 -0.561132 -0.607503 0
M  V30 18151 H 1660.51 -1.58151 -0.615333 0
M  V30 18152 H 1659.29 -3.51308 -1.72333 0
M  V30 18153 H 1658.91 -2.48999 -3.09976 0
M  V30 18154 N 1659.91 0.83715 -1.33527 0
M  V30 18155 C 1660.84 1.96231 -1.26553 0
M  V30 18156 C 1661.82 1.69474 -0.14576 0
M  V30 18157 O 1663 1.91274 -0.335815 0
M  V30 18158 C 1660.13 3.32419 -1.00574 0
M  V30 18159 C 1659.09 3.73577 -2.08864 0
M  V30 18160 C 1658.41 5.07591 -1.68095 0
M  V30 18161 C 1659.71 3.87179 -3.50556 0
M  V30 18162 H 1661.41 2.02324 -2.20693 0
M  V30 18163 H 1658.95 0.972038 -1.06242 0
M  V30 18164 H 1660.91 4.10703 -0.943439 0
M  V30 18165 H 1659.63 3.26587 -0.0287268 0
M  V30 18166 H 1658.29 2.97557 -2.14139 0
M  V30 18167 H 1657.94 4.98232 -0.690922 0
M  V30 18168 H 1657.64 5.361 -2.40563 0
M  V30 18169 H 1659.16 5.88349 -1.63334 0
M  V30 18170 H 1660.57 4.55771 -3.47772 0
M  V30 18171 H 1658.97 4.27127 -4.21524 0
M  V30 18172 H 1660.04 2.8958 -3.88936 0
M  V30 18173 N 1661.38 1.17024 1.05561 0
M  V30 18174 C 1662.29 0.898107 2.16728 0
M  V30 18175 C 1663.31 -0.132369 1.73496 0
M  V30 18176 O 1664.49 0.0460203 2.01347 0
M  V30 18177 C 1661.55 0.411091 3.44254 0
M  V30 18178 C 1660.61 1.5077 4.01954 0
M  V30 18179 C 1659.85 1.04383 5.23393 0
M  V30 18180 O 1660.07 -0.10351 5.70306 0
M  V30 18181 O 1659 1.8353 5.73237 0
M  V30 18182 H 1662.83 1.82791 2.42531 0
M  V30 18183 H 1660.41 0.950816 1.15238 0
M  V30 18184 H 1662.3 0.146837 4.21144 0
M  V30 18185 H 1660.97 -0.490605 3.19961 0
M  V30 18186 H 1659.88 1.82579 3.26521 0
M  V30 18187 H 1661.21 2.38497 4.30558 0
M  V30 18188 N 1662.86 -1.24221 0.969889 0
M  V30 18189 C 1663.81 -2.25292 0.501215 0
M  V30 18190 C 1664.78 -1.59764 -0.454382 0
M  V30 18191 O 1665.96 -1.87291 -0.364261 0
M  V30 18192 C 1663.1 -3.44518 -0.200361 0
M  V30 18193 C 1662.22 -4.24636 0.79426 0
M  V30 18194 C 1661.35 -5.31156 0.068568 0
M  V30 18195 C 1660.39 -6.02973 1.05311 0
M  V30 18196 N 1659.53 -7.0119 0.357274 0
M  V30 18197 H 1664.37 -2.64749 1.36792 0
M  V30 18198 H 1661.91 -1.30142 0.685673 0
M  V30 18199 H 1663.86 -4.1251 -0.623833 0
M  V30 18200 H 1662.49 -3.05892 -1.03101 0
M  V30 18201 H 1661.55 -3.56161 1.33616 0
M  V30 18202 H 1662.86 -4.74271 1.54493 0
M  V30 18203 H 1662.01 -6.05294 -0.412792 0
M  V30 18204 H 1660.75 -4.82434 -0.714781 0
M  V30 18205 H 1659.76 -5.27636 1.54532 0
M  V30 18206 H 1660.98 -6.53784 1.83694 0
M  V30 18207 H 1658.93 -6.54736 -0.407059 0
M  V30 18208 H 1658.84 -7.48718 1.04677 0
M  V30 18209 H 1660.11 -7.79433 -0.102045 0
M  V30 18210 N 1664.34 -0.740267 -1.39132 0
M  V30 18211 C 1665.29 -0.103744 -2.30567 0
M  V30 18212 C 1666.26 0.724026 -1.49489 0
M  V30 18213 O 1667.44 0.682904 -1.7816 0
M  V30 18214 C 1664.58 0.793587 -3.35851 0
M  V30 18215 C 1663.7 -0.0473671 -4.31974 0
M  V30 18216 C 1662.83 0.851726 -5.24327 0
M  V30 18217 C 1661.87 0.00633633 -6.121 0
M  V30 18218 N 1661.01 0.861652 -6.96793 0
M  V30 18219 H 1665.85 -0.889087 -2.84428 0
M  V30 18220 H 1663.38 -0.450093 -1.40045 0
M  V30 18221 H 1665.34 1.32834 -3.95488 0
M  V30 18222 H 1663.97 1.54485 -2.83433 0
M  V30 18223 H 1663.02 -0.699601 -3.73911 0
M  V30 18224 H 1664.34 -0.700806 -4.93852 0
M  V30 18225 H 1663.49 1.45413 -5.89016 0
M  V30 18226 H 1662.23 1.53893 -4.62783 0
M  V30 18227 H 1661.23 -0.608833 -5.46419 0
M  V30 18228 H 1662.46 -0.677731 -6.7571 0
M  V30 18229 H 1660.4 1.53405 -6.37811 0
M  V30 18230 H 1660.32 0.264812 -7.55536 0
M  V30 18231 H 1661.59 1.44945 -7.65905 0
M  V30 18232 N 1665.82 1.49844 -0.488302 0
M  V30 18233 C 1666.77 2.25802 0.315853 0
M  V30 18234 C 1667.75 1.30108 0.946606 0
M  V30 18235 O 1668.94 1.54908 0.856306 0
M  V30 18236 C 1666.07 3.14024 1.38723 0
M  V30 18237 C 1665.16 4.17174 0.763348 0
M  V30 18238 N 1665.55 5.05642 -0.126544 0
M  V30 18239 C 1663.85 4.34053 1.02537 0
M  V30 18240 C 1664.55 5.79696 -0.482379 0
M  V30 18241 N 1663.53 5.43402 0.146639 0
M  V30 18242 H 1667.33 2.91569 -0.369397 0
M  V30 18243 H 1664.84 1.59538 -0.30355 0
M  V30 18244 H 1666.84 3.67061 1.97666 0
M  V30 18245 H 1665.5 2.49807 2.07429 0
M  V30 18246 H 1666.51 5.15514 -0.49653 0
M  V30 18247 H 1663.19 3.81048 1.70613 0
M  V30 18248 H 1664.58 6.60921 -1.20965 0
M  V30 18249 N 1667.3 0.221601 1.56034 0
M  V30 18250 C 1668.26 -0.674973 2.19036 0
M  V30 18251 C 1669.26 -1.1216 1.15225 0
M  V30 18252 O 1670.45 -1.0304 1.40458 0
M  V30 18253 C 1667.58 -1.92465 2.81372 0
M  V30 18254 H 1668.77 -0.125689 2.99637 0
M  V30 18255 H 1666.33 -0.0280114 1.56275 0
M  V30 18256 H 1667.06 -2.5158 2.04641 0
M  V30 18257 H 1666.85 -1.61286 3.57392 0
M  V30 18258 H 1668.34 -2.56342 3.29664 0
M  V30 18259 N 1668.77 -1.57515 -0.0517878 0
M  V30 18260 C 1669.71 -2.00388 -1.09178 0
M  V30 18261 C 1670.69 -0.88418 -1.36459 0
M  V30 18262 O 1671.87 -1.14816 -1.49498 0
M  V30 18263 C 1669 -2.35764 -2.43173 0
M  V30 18264 C 1668.04 -3.57947 -2.31898 0
M  V30 18265 S 1668.88 -5.08 -1.69399 0
M  V30 18266 C 1670.03 -5.46597 -3.04931 0
M  V30 18267 H 1670.26 -2.88287 -0.726501 0
M  V30 18268 H 1667.8 -1.52178 -0.261014 0
M  V30 18269 H 1669.76 -2.56818 -3.20241 0
M  V30 18270 H 1668.42 -1.48358 -2.76855 0
M  V30 18271 H 1667.61 -3.80281 -3.30761 0
M  V30 18272 H 1667.21 -3.36626 -1.62969 0
M  V30 18273 H 1669.5 -5.45891 -4.01259 0
M  V30 18274 H 1670.45 -6.47173 -2.87355 0
M  V30 18275 H 1670.85 -4.74072 -3.06457 0
M  V30 18276 N 1670.25 0.323614 -1.54242 0
M  V30 18277 C 1671.18 1.40344 -1.86616 0
M  V30 18278 C 1672.16 1.53972 -0.722963 0
M  V30 18279 O 1673.35 1.67852 -0.976692 0
M  V30 18280 C 1670.48 2.77112 -2.09347 0
M  V30 18281 C 1669.43 2.78273 -3.25189 0
M  V30 18282 C 1668.76 4.18116 -3.33291 0
M  V30 18283 C 1670.06 2.42025 -4.6284 0
M  V30 18284 H 1671.75 1.13499 -2.77053 0
M  V30 18285 H 1669.3 0.544553 -1.33306 0
M  V30 18286 H 1671.25 3.52719 -2.3058 0
M  V30 18287 H 1669.98 3.05435 -1.1566 0
M  V30 18288 H 1668.64 2.05121 -3.03844 0
M  V30 18289 H 1668.28 4.4358 -2.37163 0
M  V30 18290 H 1667.98 4.19799 -4.11147 0
M  V30 18291 H 1669.51 4.95536 -3.56758 0
M  V30 18292 H 1670.92 3.07346 -4.83954 0
M  V30 18293 H 1669.32 2.5496 -5.43245 0
M  V30 18294 H 1670.39 1.37175 -4.65092 0
M  V30 18295 N 1671.73 1.46313 0.585673 0
M  V30 18296 C 1672.64 1.59232 1.72286 0
M  V30 18297 C 1673.66 0.475912 1.67365 0
M  V30 18298 O 1674.83 0.739627 1.87327 0
M  V30 18299 C 1671.9 1.57647 3.08785 0
M  V30 18300 C 1670.96 2.80497 3.24992 0
M  V30 18301 C 1670.19 2.78978 4.5498 0
M  V30 18302 O 1670.42 1.87553 5.38684 0
M  V30 18303 O 1669.35 3.7048 4.74371 0
M  V30 18304 H 1673.18 2.55398 1.64334 0
M  V30 18305 H 1670.76 1.29073 0.752369 0
M  V30 18306 H 1672.64 1.59448 3.90069 0
M  V30 18307 H 1671.32 0.6464 3.1718 0
M  V30 18308 H 1670.22 2.8425 2.43213 0
M  V30 18309 H 1671.56 3.72703 3.21487 0
M  V30 18310 N 1673.21 -0.830057 1.33969 0
M  V30 18311 C 1674.14 -1.94534 1.19297 0
M  V30 18312 C 1675.12 -1.62371 0.0862986 0
M  V30 18313 O 1676.3 -1.86833 0.250152 0
M  V30 18314 C 1673.43 -3.28329 0.831718 0
M  V30 18315 C 1672.48 -3.79459 1.94713 0
M  V30 18316 S 1673.31 -4.00075 3.5595 0
M  V30 18317 C 1674.47 -5.36808 3.21851 0
M  V30 18318 H 1674.7 -2.06683 2.13704 0
M  V30 18319 H 1672.23 -0.984833 1.18913 0
M  V30 18320 H 1674.19 -4.05636 0.630076 0
M  V30 18321 H 1672.85 -3.1396 -0.0939047 0
M  V30 18322 H 1672.04 -4.76297 1.64795 0
M  V30 18323 H 1671.65 -3.09076 2.10589 0
M  V30 18324 H 1673.94 -6.19964 2.73223 0
M  V30 18325 H 1674.88 -5.71705 4.17802 0
M  V30 18326 H 1675.29 -5.0198 2.58217 0
M  V30 18327 N 1674.69 -1.17582 -1.04939 0
M  V30 18328 C 1675.64 -0.891102 -2.14854 0
M  V30 18329 C 1676.63 0.145242 -1.68776 0
M  V30 18330 O 1677.84 -0.00207978 -1.8 0
M  V30 18331 H 1674.21 -0.270641 -0.701611 0
M  V30 18332 H 1676.18 -1.82519 -2.36071 0
M  V30 18333 C 1674.93 -0.423679 -3.45109 0
M  V30 18334 H 1674.25 -1.2126 -3.80967 0
M  V30 18335 H 1675.69 -0.263369 -4.23181 0
M  V30 18336 C 1674.15 0.859085 -3.25763 0
M  V30 18337 O 1674.68 1.9253 -3.52555 0
M  V30 18338 N 1672.89 0.80824 -2.79134 0
M  V30 18339 H 1672.44 -0.0596431 -2.57531 0
M  V30 18340 H 1672.39 1.66697 -2.6657 0
M  V30 18341 N 1676.17 1.23705 -0.976463 0
M  V30 18342 C 1677.13 2.23257 -0.518533 0
M  V30 18343 C 1678.13 1.56006 0.3897 0
M  V30 18344 O 1679.32 1.73226 0.18394 0
M  V30 18345 C 1676.45 3.39997 0.247916 0
M  V30 18346 H 1677.64 2.65284 -1.39872 0
M  V30 18347 H 1675.2 1.3647 -0.761946 0
M  V30 18348 H 1675.93 3.03421 1.14482 0
M  V30 18349 H 1675.72 3.90013 -0.403975 0
M  V30 18350 H 1677.21 4.13868 0.557034 0
M  V30 18351 N 1677.64 0.747635 1.38738 0
M  V30 18352 C 1679.06 0.424577 1.53849 0
M  V30 18353 C 1679.26 -1.06304 1.71177 0
M  V30 18354 O 1678.32 -1.84912 1.71941 0
M  V30 18355 C 1679.63 1.21863 2.749 0
M  V30 18356 C 1681.18 1.20811 2.88745 0
M  V30 18357 C 1681.65 1.985 4.12749 0
M  V30 18358 N 1683.14 1.9573 4.19814 0
M  V30 18359 C 1683.88 2.52641 5.14743 0
M  V30 18360 N 1683.37 3.18241 6.15382 0
M  V30 18361 N 1685.17 2.42604 5.0705 0
M  V30 18362 H 1677.32 1.71182 1.25739 0
M  V30 18363 H 1679.58 0.725358 0.610376 0
M  V30 18364 H 1679.29 2.27181 2.6848 0
M  V30 18365 H 1679.16 0.831509 3.67921 0
M  V30 18366 H 1681.55 0.163013 2.94649 0
M  V30 18367 H 1681.63 1.6347 1.96752 0
M  V30 18368 H 1681.27 3.03017 4.07606 0
M  V30 18369 H 1681.2 1.53239 5.03811 0
M  V30 18370 H 1683.69 1.4795 3.47734 0
M  V30 18371 H 1684.01 3.59101 6.843 0
M  V30 18372 H 1682.35 3.22334 6.15732 0
M  V30 18373 H 1685.54 1.90987 4.27366 0
M  V30 18374 H 1685.72 2.87253 5.80852 0
M  V30 18375 N 1679.12 -1.49583 0.496242 0
M  V30 18376 C 1680.35 -2.07342 -0.0490986 0
M  V30 18377 C 1680.77 -1.35474 -1.30493 0
M  V30 18378 O 1680.13 -0.410005 -1.76603 0
M  V30 18379 C 1680.18 -3.59427 -0.290601 0
M  V30 18380 O 1679.28 -3.89111 -1.36626 0
M  V30 18381 H 1678.62 -0.663562 0.0241141 0
M  V30 18382 H 1681.15 -1.92452 0.6945 0
M  V30 18383 H 1681.16 -4.04627 -0.523549 0
M  V30 18384 H 1679.84 -4.11147 0.626959 0
M  V30 18385 H 1678.41 -3.55726 -1.11864 0
M  V30 18386 N 1680.6 -0.229873 -1.55915 0
M  V30 18387 C 1681.53 0.671321 -2.23642 0
M  V30 18388 C 1682.51 1.19461 -1.21091 0
M  V30 18389 O 1683.7 1.23708 -1.49699 0
M  V30 18390 C 1680.83 1.87595 -2.92276 0
M  V30 18391 C 1679.78 1.48616 -4.01369 0
M  V30 18392 C 1679.11 2.77024 -4.57342 0
M  V30 18393 C 1680.41 0.669928 -5.17986 0
M  V30 18394 H 1682.1 0.106622 -2.9921 0
M  V30 18395 H 1679.65 0.0498418 -1.43914 0
M  V30 18396 H 1681.6 2.51191 -3.3835 0
M  V30 18397 H 1680.32 2.46576 -2.14168 0
M  V30 18398 H 1678.98 0.873623 -3.56038 0
M  V30 18399 H 1678.63 3.34166 -3.75955 0
M  V30 18400 H 1678.33 2.51674 -5.30975 0
M  V30 18401 H 1679.85 3.41548 -5.0614 0
M  V30 18402 H 1681.27 1.20978 -5.6039 0
M  V30 18403 H 1679.66 0.513174 -5.97902 0
M  V30 18404 H 1680.73 -0.321644 -4.83832 0
M  V30 18405 N 1682.08 1.5754 0.0434337 0
M  V30 18406 C 1683.01 2.02385 1.07577 0
M  V30 18407 C 1684.02 0.934273 1.33324 0
M  V30 18408 O 1685.21 1.2118 1.31064 0
M  V30 18409 C 1682.31 2.3719 2.42062 0
M  V30 18410 C 1681.48 3.68351 2.35874 0
M  V30 18411 C 1680.54 3.90506 3.52692 0
M  V30 18412 O 1679.57 4.61746 3.32836 0
M  V30 18413 N 1680.77 3.35035 4.74059 0
M  V30 18414 H 1683.54 2.91563 0.693641 0
M  V30 18415 H 1681.1 1.60234 0.231631 0
M  V30 18416 H 1683.09 2.49161 3.18906 0
M  V30 18417 H 1681.66 1.53758 2.72171 0
M  V30 18418 H 1680.88 3.66869 1.44224 0
M  V30 18419 H 1682.17 4.54419 2.28868 0
M  V30 18420 H 1681.57 2.77264 4.93094 0
M  V30 18421 H 1680.12 3.52409 5.48317 0
M  V30 18422 N 1683.56 -0.31543 1.54411 0
M  V30 18423 C 1684.49 -1.4098 1.80713 0
M  V30 18424 C 1685.5 -1.47481 0.689435 0
M  V30 18425 O 1686.69 -1.50058 0.966682 0
M  V30 18426 C 1683.79 -2.79459 1.91718 0
M  V30 18427 C 1682.96 -2.96064 3.2197 0
M  V30 18428 C 1682.02 -4.14954 3.23573 0
M  V30 18429 O 1681.05 -4.07726 3.97175 0
M  V30 18430 N 1682.25 -5.24889 2.47935 0
M  V30 18431 H 1685.01 -1.18778 2.75158 0
M  V30 18432 H 1682.58 -0.50545 1.53808 0
M  V30 18433 H 1684.57 -3.57215 1.90209 0
M  V30 18434 H 1683.14 -2.94675 1.04333 0
M  V30 18435 H 1682.36 -2.05541 3.36372 0
M  V30 18436 H 1683.65 -3.0406 4.07952 0
M  V30 18437 H 1683.04 -5.33638 1.87741 0
M  V30 18438 H 1681.6 -6.01033 2.52195 0
M  V30 18439 N 1685.03 -1.46622 -0.577906 0
M  V30 18440 C 1685.98 -1.57549 -1.68662 0
M  V30 18441 C 1686.95 -0.419536 -1.60714 0
M  V30 18442 O 1688.14 -0.636916 -1.79856 0
M  V30 18443 C 1685.28 -1.57627 -3.06998 0
M  V30 18444 C 1684.39 -2.83991 -3.25535 0
M  V30 18445 C 1683.52 -2.75541 -4.54148 0
M  V30 18446 C 1682.56 -3.96823 -4.66045 0
M  V30 18447 N 1681.7 -3.86731 -5.8599 0
M  V30 18448 H 1686.54 -2.52252 -1.58659 0
M  V30 18449 H 1684.08 -1.2514 -0.773195 0
M  V30 18450 H 1686.04 -1.55657 -3.87075 0
M  V30 18451 H 1684.67 -0.664527 -3.15886 0
M  V30 18452 H 1683.72 -2.9592 -2.3903 0
M  V30 18453 H 1685.03 -3.73864 -3.30193 0
M  V30 18454 H 1684.18 -2.71703 -5.42459 0
M  V30 18455 H 1682.92 -1.83317 -4.51936 0
M  V30 18456 H 1681.93 -4.00987 -3.76151 0
M  V30 18457 H 1683.15 -4.90149 -4.70033 0
M  V30 18458 H 1681.1 -2.97296 -5.84766 0
M  V30 18459 H 1681.02 -4.70263 -5.91937 0
M  V30 18460 H 1682.28 -3.86876 -6.76718 0
M  V30 18461 N 1686.51 0.822941 -1.34408 0
M  V30 18462 C 1687.44 1.94878 -1.28627 0
M  V30 18463 C 1688.42 1.6931 -0.163727 0
M  V30 18464 O 1689.61 1.90908 -0.356083 0
M  V30 18465 C 1686.74 3.31333 -1.04094 0
M  V30 18466 C 1685.69 3.71341 -2.12814 0
M  V30 18467 C 1685.02 5.05779 -1.73469 0
M  V30 18468 C 1686.32 3.83439 -3.54643 0
M  V30 18469 H 1688.01 1.99972 -2.22827 0
M  V30 18470 H 1685.56 0.960715 -1.07267 0
M  V30 18471 H 1687.51 4.0968 -0.986947 0
M  V30 18472 H 1686.24 3.26539 -0.0633642 0
M  V30 18473 H 1684.89 2.95269 -2.17282 0
M  V30 18474 H 1684.54 4.97471 -0.743727 0
M  V30 18475 H 1684.24 5.33518 -2.46236 0
M  V30 18476 H 1685.77 5.86583 -1.69566 0
M  V30 18477 H 1687.18 4.52057 -3.52587 0
M  V30 18478 H 1685.58 4.22632 -4.2603 0
M  V30 18479 H 1686.65 2.85439 -3.91986 0
M  V30 18480 N 1687.99 1.18137 1.04314 0
M  V30 18481 C 1688.9 0.921044 2.15764 0
M  V30 18482 C 1689.92 -0.11396 1.73626 0
M  V30 18483 O 1691.09 0.0673733 2.01287 0
M  V30 18484 C 1688.16 0.447581 3.43799 0
M  V30 18485 C 1687.22 1.55025 4.00332 0
M  V30 18486 C 1686.45 1.09928 5.22256 0
M  V30 18487 O 1686.67 -0.0430152 5.70384 0
M  V30 18488 O 1685.61 1.896 5.71258 0
M  V30 18489 H 1689.43 1.85353 2.40579 0
M  V30 18490 H 1687.02 0.962985 1.14223 0
M  V30 18491 H 1688.9 0.191497 4.20965 0
M  V30 18492 H 1687.58 -0.456641 3.20463 0
M  V30 18493 H 1686.48 1.86032 3.24566 0
M  V30 18494 H 1687.82 2.4305 4.28004 0
M  V30 18495 N 1689.47 -1.23186 0.98301 0
M  V30 18496 C 1690.7 -1.95702 0.671453 0
M  V30 18497 C 1691.11 -1.72737 -0.76206 0
M  V30 18498 O 1690.47 -1.02037 -1.5131 0
M  V30 18499 C 1690.52 -3.48642 0.955573 0
M  V30 18500 O 1690.24 -3.70829 2.33275 0
M  V30 18501 C 1691.74 -4.38354 0.660333 0
M  V30 18502 H 1688.96 -0.623006 0.249209 0
M  V30 18503 H 1691.51 -1.56606 1.3151 0
M  V30 18504 H 1689.66 -3.85743 0.357892 0
M  V30 18505 H 1690.07 -4.65104 2.42443 0
M  V30 18506 H 1691.55 -5.44456 0.909477 0
M  V30 18507 H 1692.03 -4.37323 -0.405615 0
M  V30 18508 H 1692.63 -4.06864 1.23861 0
M  V30 18509 N 1690.95 -0.754982 -1.38339 0
M  V30 18510 C 1691.86 -0.130303 -2.34238 0
M  V30 18511 C 1692.87 0.699048 -1.5934 0
M  V30 18512 O 1694.05 0.622876 -1.91526 0
M  V30 18513 C 1691.11 0.751285 -3.38462 0
M  V30 18514 C 1690.17 -0.0925987 -4.292 0
M  V30 18515 C 1689.41 0.747007 -5.28446 0
M  V30 18516 O 1689.63 1.98495 -5.34749 0
M  V30 18517 O 1688.56 0.165072 -6.01674 0
M  V30 18518 H 1692.39 -0.92233 -2.89356 0
M  V30 18519 H 1689.98 -0.515896 -1.4021 0
M  V30 18520 H 1691.86 1.2551 -4.02275 0
M  V30 18521 H 1690.53 1.52178 -2.85698 0
M  V30 18522 H 1689.44 -0.64239 -3.68543 0
M  V30 18523 H 1690.77 -0.825784 -4.85223 0
M  V30 18524 N 1692.42 1.49318 -0.504168 0
M  V30 18525 C 1693.84 1.58793 -0.160331 0
M  V30 18526 C 1694.04 1.50906 1.33527 0
M  V30 18527 O 1693.1 1.38466 2.11148 0
M  V30 18528 C 1694.41 2.91454 -0.739945 0
M  V30 18529 C 1695.96 3.04926 -0.706338 0
M  V30 18530 C 1696.43 4.4021 -1.26407 0
M  V30 18531 N 1697.92 4.46711 -1.22491 0
M  V30 18532 C 1698.66 5.49844 -1.62661 0
M  V30 18533 N 1698.15 6.60066 -2.10439 0
M  V30 18534 N 1699.95 5.40576 -1.54058 0
M  V30 18535 H 1692.1 1.52687 -1.4765 0
M  V30 18536 H 1694.36 0.723463 -0.612622 0
M  V30 18537 H 1694.07 3.02802 -1.78896 0
M  V30 18538 H 1693.94 3.76658 -0.202187 0
M  V30 18539 H 1696.33 2.93206 0.333845 0
M  V30 18540 H 1696.41 2.21398 -1.28128 0
M  V30 18541 H 1696.05 4.52683 -2.30305 0
M  V30 18542 H 1695.98 5.22384 -0.665041 0
M  V30 18543 H 1698.47 3.67634 -0.874869 0
M  V30 18544 H 1698.79 7.34865 -2.39153 0
M  V30 18545 H 1697.13 6.61098 -2.14415 0
M  V30 18546 H 1700.32 4.53359 -1.16548 0
M  V30 18547 H 1700.5 6.20826 -1.85687 0
M  V30 18548 N 1693.9 0.238138 1.5579 0
M  V30 18549 C 1694.81 -0.676049 2.24648 0
M  V30 18550 C 1695.83 -1.20038 1.25964 0
M  V30 18551 O 1697 -1.2385 1.58818 0
M  V30 18552 C 1694.07 -1.86014 2.92574 0
M  V30 18553 C 1693.13 -1.37615 4.06646 0
M  V30 18554 C 1692.36 -2.5038 4.71323 0
M  V30 18555 O 1692.59 -3.68906 4.35045 0
M  V30 18556 O 1691.52 -2.20636 5.60003 0
M  V30 18557 H 1695.35 -0.119372 3.03465 0
M  V30 18558 H 1692.93 0.00699789 1.49398 0
M  V30 18559 H 1694.81 -2.55132 3.35389 0
M  V30 18560 H 1693.49 -2.4046 2.16704 0
M  V30 18561 H 1692.4 -0.652503 3.68366 0
M  V30 18562 H 1693.73 -0.877871 4.84308 0
M  V30 18563 N 1695.38 -1.57561 -0.0350783 0
M  V30 18564 C 1696.31 -2.09201 -1.03716 0
M  V30 18565 C 1697.29 -0.993231 -1.3809 0
M  V30 18566 O 1698.48 -1.26812 -1.47079 0
M  V30 18567 C 1695.61 -2.56643 -2.3399 0
M  V30 18568 C 1694.56 -3.70731 -2.13874 0
M  V30 18569 C 1693.89 -4.04358 -3.49855 0
M  V30 18570 C 1695.19 -4.99393 -1.52982 0
M  V30 18571 H 1696.88 -2.93176 -0.60731 0
M  V30 18572 H 1694.43 -1.41036 -0.290683 0
M  V30 18573 H 1696.38 -2.9139 -3.04417 0
M  V30 18574 H 1695.1 -1.69744 -2.79024 0
M  V30 18575 H 1693.76 -3.36325 -1.45881 0
M  V30 18576 H 1693.41 -3.14534 -3.92527 0
M  V30 18577 H 1693.11 -4.81201 -3.37223 0
M  V30 18578 H 1694.63 -4.41633 -4.21654 0
M  V30 18579 H 1696.05 -5.32135 -2.13319 0
M  V30 18580 H 1694.45 -5.80807 -1.50943 0
M  V30 18581 H 1695.52 -4.82367 -0.494993 0
M  V30 18582 N 1696.86 0.307236 -1.54576 0
M  V30 18583 C 1697.81 1.3787 -1.85096 0
M  V30 18584 C 1698.78 1.5066 -0.69935 0
M  V30 18585 O 1699.96 1.65618 -0.947373 0
M  V30 18586 C 1697.1 2.73976 -2.09836 0
M  V30 18587 C 1696.21 2.69687 -3.3748 0
M  V30 18588 C 1695.35 3.97746 -3.52096 0
M  V30 18589 C 1694.39 3.87829 -4.73556 0
M  V30 18590 N 1693.52 5.07651 -4.8501 0
M  V30 18591 H 1698.36 1.11144 -2.76498 0
M  V30 18592 H 1695.9 0.537696 -1.36921 0
M  V30 18593 H 1697.86 3.53121 -2.22174 0
M  V30 18594 H 1696.49 2.98977 -1.21707 0
M  V30 18595 H 1695.54 1.82441 -3.33795 0
M  V30 18596 H 1696.85 2.58247 -4.26743 0
M  V30 18597 H 1696.01 4.85327 -3.64065 0
M  V30 18598 H 1694.75 4.12012 -2.60955 0
M  V30 18599 H 1693.75 2.98633 -4.61626 0
M  V30 18600 H 1694.98 3.75114 -5.66098 0
M  V30 18601 H 1692.92 5.22393 -3.9679 0
M  V30 18602 H 1692.84 4.9861 -5.68264 0
M  V30 18603 H 1694.11 5.969 -5.01328 0
M  V30 18604 N 1698.34 1.46926 0.570122 0
M  V30 18605 C 1699.27 1.54487 1.69311 0
M  V30 18606 C 1700.28 0.432119 1.5696 0
M  V30 18607 O 1701.47 0.701107 1.64155 0
M  V30 18608 C 1698.57 1.42093 3.07673 0
M  V30 18609 C 1697.74 2.6771 3.45905 0
M  V30 18610 C 1696.8 2.49336 4.63377 0
M  V30 18611 O 1695.83 3.23107 4.68605 0
M  V30 18612 N 1697.03 1.56319 5.59057 0
M  V30 18613 H 1699.8 2.51319 1.63276 0
M  V30 18614 H 1697.36 1.43142 0.756434 0
M  V30 18615 H 1699.35 1.27554 3.84073 0
M  V30 18616 H 1697.92 0.533945 3.08006 0
M  V30 18617 H 1697.14 2.97102 2.59083 0
M  V30 18618 H 1698.43 3.51131 3.68218 0
M  V30 18619 H 1697.82 0.955109 5.57579 0
M  V30 18620 H 1696.38 1.47738 6.34836 0
M  V30 18621 N 1699.82 -0.815801 1.34842 0
M  V30 18622 C 1701.23 -1.10999 1.1468 0
M  V30 18623 C 1701.43 -2.01445 -0.0469339 0
M  V30 18624 O 1700.49 -2.42007 -0.720322 0
M  V30 18625 C 1701.8 -1.74984 2.44543 0
M  V30 18626 C 1703.35 -1.87447 2.50665 0
M  V30 18627 C 1703.82 -2.54848 3.80548 0
M  V30 18628 N 1705.31 -2.62341 3.81748 0
M  V30 18629 C 1706.05 -3.15239 4.7897 0
M  V30 18630 N 1705.55 -3.68646 5.86577 0
M  V30 18631 N 1707.34 -3.13706 4.66417 0
M  V30 18632 H 1699.49 -0.214351 2.11316 0
M  V30 18633 H 1701.75 -0.157666 0.934797 0
M  V30 18634 H 1701.46 -1.1599 3.32023 0
M  V30 18635 H 1701.33 -2.7478 2.5841 0
M  V30 18636 H 1703.72 -2.45587 1.63619 0
M  V30 18637 H 1703.8 -0.865325 2.40719 0
M  V30 18638 H 1703.44 -1.9736 4.67987 0
M  V30 18639 H 1703.37 -3.5628 3.87778 0
M  V30 18640 H 1705.87 -2.24493 3.03992 0
M  V30 18641 H 1706.18 -4.07281 6.56766 0
M  V30 18642 H 1704.52 -3.6687 5.90281 0
M  V30 18643 H 1707.71 -2.71255 3.81495 0
M  V30 18644 H 1707.89 -3.54626 5.4235 0
M  V30 18645 N 1701.29 -1.18689 -1.03686 0
M  V30 18646 C 1702.22 -0.94094 -2.13702 0
M  V30 18647 C 1703.2 0.12277 -1.69656 0
M  V30 18648 O 1704.39 -0.0306085 -1.94176 0
M  V30 18649 C 1701.52 -0.470054 -3.44104 0
M  V30 18650 C 1700.47 -1.47468 -4.01792 0
M  V30 18651 C 1699.8 -0.861174 -5.2772 0
M  V30 18652 C 1701.1 -2.85254 -4.37524 0
M  V30 18653 H 1702.79 -1.86102 -2.34534 0
M  V30 18654 H 1700.34 -0.896207 -1.12713 0
M  V30 18655 H 1702.29 -0.28533 -4.20433 0
M  V30 18656 H 1701.02 0.485604 -3.2297 0
M  V30 18657 H 1699.68 -1.64641 -3.2755 0
M  V30 18658 H 1699.32 0.10179 -5.02897 0
M  V30 18659 H 1699.02 -1.53196 -5.67278 0
M  V30 18660 H 1700.55 -0.687066 -6.06722 0
M  V30 18661 H 1701.96 -2.71711 -5.04823 0
M  V30 18662 H 1700.36 -3.49051 -4.88143 0
M  V30 18663 H 1701.43 -3.38516 -3.47181 0
M  V30 18664 N 1702.77 1.22662 -0.989529 0
M  V30 18665 C 1703.7 2.26762 -0.556891 0
M  V30 18666 C 1704.68 1.64971 0.414538 0
M  V30 18667 O 1705.87 1.91775 0.305909 0
M  V30 18668 C 1703 3.47047 0.132573 0
M  V30 18669 C 1701.95 4.21251 -0.757058 0
M  V30 18670 C 1701.28 5.3466 0.065134 0
M  V30 18671 C 1702.58 4.8029 -2.05229 0
M  V30 18672 H 1704.27 2.63204 -1.42703 0
M  V30 18673 H 1701.82 1.26522 -0.687614 0
M  V30 18674 H 1703.77 4.19027 0.446609 0
M  V30 18675 H 1702.49 3.09692 1.03723 0
M  V30 18676 H 1701.15 3.51101 -1.05469 0
M  V30 18677 H 1700.8 4.93547 0.970607 0
M  V30 18678 H 1700.5 5.85231 -0.527063 0
M  V30 18679 H 1702.03 6.09458 0.373342 0
M  V30 18680 H 1703.44 5.44229 -1.80242 0
M  V30 18681 H 1701.84 5.41186 -2.59302 0
M  V30 18682 H 1702.91 4.00529 -2.73322 0
M  V30 18683 N 1704.25 0.762308 1.37937 0
M  V30 18684 C 1705.16 0.142724 2.34165 0
M  V30 18685 C 1706.18 -0.690588 1.59709 0
M  V30 18686 O 1707.35 -0.61271 1.91854 0
M  V30 18687 C 1704.42 -0.733325 3.38856 0
M  V30 18688 C 1703.48 0.115359 4.29145 0
M  V30 18689 C 1702.71 -0.718972 5.28835 0
M  V30 18690 O 1702.93 -1.95656 5.35794 0
M  V30 18691 O 1701.87 -0.133162 6.01753 0
M  V30 18692 H 1705.69 0.937662 2.88863 0
M  V30 18693 H 1703.28 0.523325 1.39935 0
M  V30 18694 H 1705.16 -1.23374 4.02935 0
M  V30 18695 H 1703.84 -1.50661 2.86501 0
M  V30 18696 H 1702.74 0.661926 3.68197 0
M  V30 18697 H 1704.08 0.851505 4.84779 0
M  V30 18698 N 1705.73 -1.49049 0.51208 0
M  V30 18699 C 1706.64 -2.33102 -0.264695 0
M  V30 18700 C 1707.65 -1.45347 -0.956571 0
M  V30 18701 O 1708.83 -1.78355 -0.935501 0
M  V30 18702 C 1705.89 -3.21051 -1.30871 0
M  V30 18703 C 1704.96 -4.24666 -0.629094 0
M  V30 18704 C 1704.19 -5.08412 -1.62337 0
M  V30 18705 O 1704.41 -4.93847 -2.85432 0
M  V30 18706 O 1703.35 -5.90368 -1.17259 0
M  V30 18707 H 1707.17 -3.00732 0.423585 0
M  V30 18708 H 1704.76 -1.4688 0.273246 0
M  V30 18709 H 1706.64 -3.75503 -1.91248 0
M  V30 18710 H 1705.31 -2.56103 -1.97972 0
M  V30 18711 H 1704.22 -3.74097 0.0147056 0
M  V30 18712 H 1705.55 -4.922 -0.000339859 0
M  V30 18713 N 1707.21 -0.246397 -1.55662 0
M  V30 18714 C 1708.14 0.686113 -2.1869 0
M  V30 18715 C 1709.15 1.13915 -1.16306 0
M  V30 18716 O 1710.34 1.06601 -1.43173 0
M  V30 18717 C 1707.44 1.94426 -2.77582 0
M  V30 18718 C 1706.61 1.64275 -4.0538 0
M  V30 18719 C 1705.67 2.75044 -4.48595 0
M  V30 18720 O 1704.7 2.42451 -5.14982 0
M  V30 18721 N 1705.9 4.04528 -4.16338 0
M  V30 18722 H 1708.66 0.146832 -2.9934 0
M  V30 18723 H 1706.23 -0.0663398 -1.61764 0
M  V30 18724 H 1708.22 2.67768 -3.0345 0
M  V30 18725 H 1706.79 2.39334 -2.01091 0
M  V30 18726 H 1706.01 0.744531 -3.87105 0
M  V30 18727 H 1707.3 1.41594 -4.88701 0
M  V30 18728 H 1706.69 4.33841 -3.6304 0
M  V30 18729 H 1705.25 4.74337 -4.47043 0
M  V30 18730 N 1708.68 1.57577 0.026722 0
M  V30 18731 C 1709.65 2.05684 1.01127 0
M  V30 18732 C 1710.65 0.961373 1.28896 0
M  V30 18733 O 1711.84 1.22491 1.23861 0
M  V30 18734 C 1708.97 2.47576 2.34348 0
M  V30 18735 H 1710.16 2.93925 0.595681 0
M  V30 18736 H 1707.71 1.53887 0.273603 0
M  V30 18737 H 1708.45 1.62498 2.80651 0
M  V30 18738 H 1708.23 3.27556 2.15521 0
M  V30 18739 H 1709.72 2.85214 3.05029 0
M  V30 18740 N 1710.16 -0.299034 1.54737 0
M  V30 18741 C 1711.11 -1.36887 1.85824 0
M  V30 18742 C 1712.08 -1.50287 0.70733 0
M  V30 18743 O 1713.26 -1.65114 0.956143 0
M  V30 18744 C 1710.4 -2.7286 2.11286 0
M  V30 18745 C 1709.52 -2.67893 3.38906 0
M  V30 18746 C 1708.65 -3.95873 3.542 0
M  V30 18747 C 1707.69 -3.85312 4.75606 0
M  V30 18748 N 1706.83 -5.05072 4.87695 0
M  V30 18749 H 1711.67 -1.09676 2.77083 0
M  V30 18750 H 1709.2 -0.530427 1.37204 0
M  V30 18751 H 1711.16 -3.51938 2.24043 0
M  V30 18752 H 1709.79 -2.98327 1.23291 0
M  V30 18753 H 1708.84 -1.80669 3.34758 0
M  V30 18754 H 1710.16 -2.5598 4.28107 0
M  V30 18755 H 1709.31 -4.83389 3.66633 0
M  V30 18756 H 1708.05 -4.10622 2.63136 0
M  V30 18757 H 1707.05 -2.9618 4.63203 0
M  V30 18758 H 1708.28 -3.72106 5.68079 0
M  V30 18759 H 1706.23 -5.20281 3.99554 0
M  V30 18760 H 1706.14 -4.9559 5.709 0
M  V30 18761 H 1707.41 -5.94233 5.04487 0
M  V30 18762 N 1711.64 -1.47227 -0.562322 0
M  V30 18763 C 1712.57 -1.62204 -1.67965 0
M  V30 18764 C 1713.55 -0.471638 -1.63431 0
M  V30 18765 O 1714.74 -0.70036 -1.81131 0
M  V30 18766 C 1711.87 -1.63127 -3.06605 0
M  V30 18767 C 1710.82 -2.77343 -3.25983 0
M  V30 18768 C 1710.15 -2.63336 -4.65358 0
M  V30 18769 C 1711.45 -4.18983 -3.1185 0
M  V30 18770 H 1713.14 -2.55739 -1.55686 0
M  V30 18771 H 1710.69 -1.23075 -0.747561 0
M  V30 18772 H 1712.64 -1.72197 -3.84612 0
M  V30 18773 H 1711.36 -0.661501 -3.19831 0
M  V30 18774 H 1710.02 -2.67776 -2.50383 0
M  V30 18775 H 1709.67 -1.64398 -4.75376 0
M  V30 18776 H 1709.37 -3.39957 -4.79273 0
M  V30 18777 H 1710.89 -2.74327 -5.45506 0
M  V30 18778 H 1712.31 -4.29554 -3.79679 0
M  V30 18779 H 1710.7 -4.96351 -3.37277 0
M  V30 18780 H 1711.77 -4.37709 -2.08661 0
M  V30 18781 N 1713.12 0.808639 -1.35273 0
M  V30 18782 C 1714.05 1.92839 -1.23878 0
M  V30 18783 C 1715.06 1.61987 -0.162543 0
M  V30 18784 O 1716.25 1.73593 -0.41564 0
M  V30 18785 C 1713.35 3.27158 -0.884369 0
M  V30 18786 C 1712.52 3.85931 -2.05855 0
M  V30 18787 C 1711.58 4.98652 -1.68025 0
M  V30 18788 O 1710.61 5.16188 -2.39871 0
M  V30 18789 N 1711.81 5.77363 -0.602684 0
M  V30 18790 H 1714.58 2.03141 -2.20349 0
M  V30 18791 H 1712.14 0.985956 -1.28415 0
M  V30 18792 H 1714.13 4.00033 -0.612814 0
M  V30 18793 H 1712.7 3.12599 -0.00940584 0
M  V30 18794 H 1711.92 3.05274 -2.49402 0
M  V30 18795 H 1713.21 4.21929 -2.84347 0
M  V30 18796 H 1712.61 5.657 -0.00570741 0
M  V30 18797 H 1711.16 6.50627 -0.390903 0
M  V30 18798 N 1714.6 1.19237 1.03055 0
M  V30 18799 C 1715.53 0.886348 2.11368 0
M  V30 18800 C 1716.54 -0.120256 1.62355 0
M  V30 18801 O 1717.73 0.108934 1.78167 0
M  V30 18802 C 1714.83 0.304819 3.37526 0
M  V30 18803 C 1714 1.35957 4.15734 0
M  V30 18804 C 1713.06 0.791885 5.20207 0
M  V30 18805 O 1712.09 1.46916 5.49913 0
M  V30 18806 N 1713.29 -0.40564 5.79081 0
M  V30 18807 H 1716.06 1.81867 2.38211 0
M  V30 18808 H 1713.62 1.09414 1.19332 0
M  V30 18809 H 1715.61 -0.0887629 4.04603 0
M  V30 18810 H 1714.18 -0.531744 3.08044 0
M  V30 18811 H 1713.4 1.92806 3.43831 0
M  V30 18812 H 1714.69 2.07034 4.64773 0
M  V30 18813 H 1714.08 -0.973423 5.57262 0
M  V30 18814 H 1712.64 -0.741021 6.47574 0
M  V30 18815 N 1716.07 -1.22136 0.99602 0
M  V30 18816 C 1717.01 -2.23518 0.507162 0
M  V30 18817 C 1718.02 -1.57824 -0.399426 0
M  V30 18818 O 1719.21 -1.77364 -0.20106 0
M  V30 18819 C 1716.31 -3.37709 -0.283931 0
M  V30 18820 C 1715.48 -4.3299 0.619549 0
M  V30 18821 C 1714.54 -5.26062 -0.120376 0
M  V30 18822 O 1713.57 -5.67041 0.495269 0
M  V30 18823 N 1714.77 -5.63322 -1.40172 0
M  V30 18824 H 1717.53 -2.66092 1.37896 0
M  V30 18825 H 1715.09 -1.36468 0.871102 0
M  V30 18826 H 1717.09 -3.96961 -0.787661 0
M  V30 18827 H 1715.66 -2.94193 -1.05685 0
M  V30 18828 H 1714.88 -3.72011 1.3039 0
M  V30 18829 H 1716.16 -4.93591 1.23473 0
M  V30 18830 H 1715.56 -5.32006 -1.92318 0
M  V30 18831 H 1714.12 -6.24977 -1.85058 0
M  V30 18832 N 1717.55 -0.769612 -1.37531 0
M  V30 18833 C 1718.49 -0.100781 -2.27977 0
M  V30 18834 C 1719.46 0.711383 -1.46213 0
M  V30 18835 O 1720.65 0.686602 -1.75551 0
M  V30 18836 C 1717.77 0.863601 -3.27505 0
M  V30 18837 C 1716.82 0.135698 -4.26284 0
M  V30 18838 S 1717.65 -1.17477 -5.22455 0
M  V30 18839 C 1718.81 -0.213878 -6.25534 0
M  V30 18840 H 1719.04 -0.86772 -2.84355 0
M  V30 18841 H 1716.58 -0.562906 -1.43773 0
M  V30 18842 H 1718.53 1.41462 -3.85355 0
M  V30 18843 H 1717.19 1.60363 -2.70079 0
M  V30 18844 H 1716.39 0.866694 -4.96492 0
M  V30 18845 H 1715.99 -0.344257 -3.72412 0
M  V30 18846 H 1718.28 0.614474 -6.74708 0
M  V30 18847 H 1719.22 -0.884072 -7.02559 0
M  V30 18848 H 1719.63 0.173963 -5.64232 0
M  V30 18849 N 1719.03 1.48775 -0.519977 0
M  V30 18850 C 1720.31 1.95429 0.0816701 0
M  V30 18851 C 1720.69 1.46199 1.52279 0
M  V30 18852 O 1720.04 0.684057 2.1802 0
M  V30 18853 C 1720.25 3.48991 -0.0252472 0
M  V30 18854 C 1721.59 4.24372 0.139099 0
M  V30 18855 O 1722.62 3.56166 0.0490322 0
M  V30 18856 O 1721.48 5.45524 0.326426 0
M  V30 18857 H 1718.57 0.822637 0.0848378 0
M  V30 18858 H 1721.12 1.5934 -0.583865 0
M  V30 18859 H 1719.89 3.77514 -1.02951 0
M  V30 18860 H 1719.51 3.91749 0.679588 0
M  V30 18861 N 1720.51 0.254649 1.55529 0
M  V30 18862 C 1721.44 -0.635656 2.24681 0
M  V30 18863 C 1722.42 -1.17519 1.22977 0
M  V30 18864 O 1723.6 -1.21311 1.51649 0
M  V30 18865 C 1720.73 -1.82922 2.95224 0
M  V30 18866 C 1719.69 -1.42212 4.03683 0
M  V30 18867 C 1719.01 -2.69713 4.61691 0
M  V30 18868 C 1720.31 -0.587436 5.18986 0
M  V30 18869 H 1722.01 -0.0590063 2.99342 0
M  V30 18870 H 1719.55 -0.02694 1.43975 0
M  V30 18871 H 1721.51 -2.45777 3.42304 0
M  V30 18872 H 1720.23 -2.43137 2.18064 0
M  V30 18873 H 1718.89 -0.81687 3.57383 0
M  V30 18874 H 1718.54 -3.28143 3.81223 0
M  V30 18875 H 1718.24 -2.43194 5.34911 0
M  V30 18876 H 1719.76 -3.33453 5.11509 0
M  V30 18877 H 1721.18 -1.12048 5.62244 0
M  V30 18878 H 1719.57 -0.417988 5.98643 0
M  V30 18879 H 1720.64 0.398577 4.83259 0
M  V30 18880 N 1721.99 -1.57589 -0.0183649 0
M  V30 18881 C 1722.92 -2.04071 -1.04343 0
M  V30 18882 C 1723.93 -0.955366 -1.3182 0
M  V30 18883 O 1725.12 -1.23249 -1.29119 0
M  V30 18884 C 1722.22 -2.41011 -2.38258 0
M  V30 18885 C 1721.39 -3.72057 -2.29984 0
M  V30 18886 C 1720.45 -3.96067 -3.46435 0
M  V30 18887 O 1719.48 -4.66982 -3.25447 0
M  V30 18888 N 1720.68 -3.42535 -4.68669 0
M  V30 18889 H 1723.45 -2.92629 -0.647168 0
M  V30 18890 H 1721.01 -1.60583 -0.20611 0
M  V30 18891 H 1723 -2.54203 -3.14902 0
M  V30 18892 H 1721.57 -1.58068 -2.69691 0
M  V30 18893 H 1720.79 -3.69117 -1.38369 0
M  V30 18894 H 1722.08 -4.58003 -2.2161 0
M  V30 18895 H 1721.47 -2.85073 -4.8862 0
M  V30 18896 H 1720.03 -3.61087 -5.42641 0
M  V30 18897 N 1723.46 0.290824 -1.54893 0
M  V30 18898 C 1724.41 1.35899 -1.86548 0
M  V30 18899 C 1725.38 1.49909 -0.71529 0
M  V30 18900 O 1726.57 1.64604 -0.964886 0
M  V30 18901 C 1723.71 2.71735 -2.1273 0
M  V30 18902 C 1722.82 2.66092 -3.40322 0
M  V30 18903 C 1721.95 3.93989 -3.56295 0
M  V30 18904 C 1720.99 3.82785 -4.77642 0
M  V30 18905 N 1720.13 5.02479 -4.90367 0
M  V30 18906 H 1724.97 1.08205 -2.77661 0
M  V30 18907 H 1722.51 0.523144 -1.37483 0
M  V30 18908 H 1724.47 3.50745 -2.25907 0
M  V30 18909 H 1723.1 2.97669 -1.24871 0
M  V30 18910 H 1722.15 1.78891 -3.35712 0
M  V30 18911 H 1723.46 2.53706 -4.29458 0
M  V30 18912 H 1722.61 4.81438 -3.69192 0
M  V30 18913 H 1721.35 4.09221 -2.6531 0
M  V30 18914 H 1720.36 2.9372 -4.64767 0
M  V30 18915 H 1721.58 3.69088 -5.70044 0
M  V30 18916 H 1719.53 5.18155 -4.02308 0
M  V30 18917 H 1719.45 4.92555 -5.7352 0
M  V30 18918 H 1720.71 5.9155 -5.07631 0
M  V30 18919 N 1724.94 1.47523 0.554506 0
M  V30 18920 C 1725.89 1.60623 1.68235 0
M  V30 18921 C 1726.88 0.473445 1.6265 0
M  V30 18922 O 1728.09 0.651337 1.67802 0
M  V30 18923 H 1724.47 0.505539 0.556718 0
M  V30 18924 H 1726.44 2.55395 1.54323 0
M  V30 18925 C 1725.19 1.64022 3.06581 0
M  V30 18926 H 1724.51 2.50537 3.11562 0
M  V30 18927 H 1725.95 1.77237 3.85179 0
M  V30 18928 C 1724.41 0.374048 3.34817 0
M  V30 18929 O 1724.94 -0.523704 3.98272 0
M  V30 18930 N 1723.14 0.253244 2.89494 0
M  V30 18931 H 1722.69 0.984738 2.38035 0
M  V30 18932 H 1722.65 -0.592982 3.08757 0
M  V30 18933 N 1726.42 -0.801453 1.357 0
M  V30 18934 C 1727.37 -1.90299 1.2558 0
M  V30 18935 C 1728.35 -1.602 0.149922 0
M  V30 18936 O 1729.55 -1.72837 0.381622 0
M  V30 18937 C 1726.68 -3.2732 1.0352 0
M  V30 18938 C 1725.76 -3.63468 2.18522 0
M  V30 18939 N 1726.15 -3.71014 3.43777 0
M  V30 18940 C 1724.45 -3.93455 2.10022 0
M  V30 18941 C 1725.15 -4.03052 4.19433 0
M  V30 18942 N 1724.13 -4.17405 3.48244 0
M  V30 18943 H 1727.93 -1.94341 2.20474 0
M  V30 18944 H 1725.44 -0.996323 1.28247 0
M  V30 18945 H 1727.44 -4.06081 0.943586 0
M  V30 18946 H 1726.1 -3.24561 0.095163 0
M  V30 18947 H 1727.11 -3.53961 3.78064 0
M  V30 18948 H 1723.79 -3.98691 1.23903 0
M  V30 18949 H 1725.18 -4.15914 5.27698 0
M  V30 18950 N 1727.9 -1.19782 -1.02421 0
M  V30 18951 C 1729.15 -0.997598 -1.75302 0
M  V30 18952 C 1729.46 0.471843 -1.89824 0
M  V30 18953 O 1730.67 0.790999 -2.59722 0
M  V30 18954 C 1729.12 -1.73608 -3.15259 0
M  V30 18955 C 1728.73 -3.24594 -3.08776 0
M  V30 18956 C 1730.47 -1.61927 -3.92403 0
M  V30 18957 C 1728.38 -3.91012 -4.43693 0
M  V30 18958 H 1727.31 -0.369643 -0.657176 0
M  V30 18959 H 1729.96 -1.43325 -1.14587 0
M  V30 18960 H 1728.34 -1.22826 -3.7647 0
M  V30 18961 H 1729.52 -3.82531 -2.56918 0
M  V30 18962 H 1727.83 -3.36603 -2.45127 0
M  V30 18963 H 1730.43 -2.08896 -4.92206 0
M  V30 18964 H 1730.77 -0.574192 -4.12321 0
M  V30 18965 H 1731.31 -2.10081 -3.37803 0
M  V30 18966 H 1728.05 -4.95639 -4.28979 0
M  V30 18967 H 1727.57 -3.37864 -4.95588 0
M  V30 18968 H 1729.24 -3.94828 -5.12562 0
M  V30 18969 N 1729.38 1.21606 -1.00248 0
M  V30 18970 C 1730.62 1.90607 -0.683752 0
M  V30 18971 C 1730.95 1.77945 0.785228 0
M  V30 18972 O 1730.21 1.14856 1.58451 0
M  V30 18973 C 1730.51 3.41708 -1.04739 0
M  V30 18974 C 1730.17 3.74565 -2.51022 0
M  V30 18975 C 1728.83 3.83243 -2.90995 0
M  V30 18976 C 1731.19 3.89971 -3.45792 0
M  V30 18977 C 1728.51 4.04773 -4.24707 0
M  V30 18978 C 1730.87 4.13008 -4.79174 0
M  V30 18979 C 1729.53 4.19912 -5.18874 0
M  V30 18980 H 1728.8 0.697481 -0.250203 0
M  V30 18981 H 1731.45 1.4417 -1.26045 0
M  V30 18982 H 1729.75 3.89865 -0.388905 0
M  V30 18983 H 1731.45 3.93367 -0.778675 0
M  V30 18984 H 1728.04 3.68399 -2.19043 0
M  V30 18985 H 1732.22 3.82635 -3.16076 0
M  V30 18986 H 1727.48 4.08349 -4.5504 0
M  V30 18987 H 1731.65 4.23871 -5.52545 0
M  V30 18988 H 1729.28 4.36348 -6.22499 0
M  V30 18989 N 1730.86 0.776895 1.37121 0
M  V30 18990 C 1732.27 0.457116 1.52914 0
M  V30 18991 C 1732.47 -1.0265 1.73394 0
M  V30 18992 O 1731.53 -1.81224 1.75824 0
M  V30 18993 C 1732.84 1.27667 2.72253 0
M  V30 18994 C 1734.39 1.26909 2.86117 0
M  V30 18995 C 1734.86 2.0721 4.08446 0
M  V30 18996 N 1736.35 2.04591 4.15568 0
M  V30 18997 C 1737.09 2.63502 5.09268 0
M  V30 18998 N 1736.59 3.31222 6.08493 0
M  V30 18999 N 1738.38 2.53304 5.0179 0
M  V30 19000 H 1730.53 1.73811 1.2208 0
M  V30 19001 H 1732.79 0.738142 0.594853 0
M  V30 19002 H 1732.5 2.32825 2.63601 0
M  V30 19003 H 1732.37 0.909363 3.66074 0
M  V30 19004 H 1734.76 0.225476 2.94237 0
M  V30 19005 H 1734.84 1.67607 1.9324 0
M  V30 19006 H 1734.48 3.11595 4.01087 0
M  V30 19007 H 1734.41 1.63891 5.00447 0
M  V30 19008 H 1736.91 1.55293 3.44518 0
M  V30 19009 H 1737.22 3.73535 6.76529 0
M  V30 19010 H 1735.56 3.35322 6.08756 0
M  V30 19011 H 1738.75 2.00009 4.23218 0
M  V30 19012 H 1738.93 2.99509 5.74629 0
M  V30 19013 N 1732.33 -1.48497 0.527859 0
M  V30 19014 C 1733.26 -2.32414 -0.224891 0
M  V30 19015 C 1734.24 -1.41959 -0.93711 0
M  V30 19016 O 1735.43 -1.70847 -0.923302 0
M  V30 19017 C 1732.56 -3.23106 -1.27356 0
M  V30 19018 C 1731.51 -4.2257 -0.679611 0
M  V30 19019 C 1730.84 -5.02381 -1.83077 0
M  V30 19020 C 1732.14 -5.21144 0.347269 0
M  V30 19021 H 1733.83 -2.95598 0.475632 0
M  V30 19022 H 1731.38 -1.42148 0.230182 0
M  V30 19023 H 1733.33 -3.80639 -1.8081 0
M  V30 19024 H 1732.06 -2.57919 -2.00363 0
M  V30 19025 H 1730.72 -3.66221 -0.166608 0
M  V30 19026 H 1730.36 -4.3362 -2.54918 0
M  V30 19027 H 1730.06 -5.697 -1.43929 0
M  V30 19028 H 1731.59 -5.62765 -2.36914 0
M  V30 19029 H 1733 -5.73213 -0.100107 0
M  V30 19030 H 1731.4 -5.96503 0.656021 0
M  V30 19031 H 1732.47 -4.6841 1.25379 0
M  V30 19032 N 1733.81 -0.262893 -1.55392 0
M  V30 19033 C 1735.04 0.361057 -2.03725 0
M  V30 19034 C 1735.45 1.5037 -1.14168 0
M  V30 19035 O 1734.81 1.81804 -0.159284 0
M  V30 19036 C 1734.86 0.853697 -3.51275 0
M  V30 19037 O 1734.58 -0.243431 -4.37423 0
M  V30 19038 C 1736.08 1.54671 -4.15442 0
M  V30 19039 H 1733.3 0.0839272 -0.665731 0
M  V30 19040 H 1735.85 -0.391424 -2.00719 0
M  V30 19041 H 1734 1.55631 -3.54765 0
M  V30 19042 H 1734.42 0.133241 -5.24331 0
M  V30 19043 H 1735.89 1.84296 -5.20326 0
M  V30 19044 H 1736.37 2.47413 -3.62882 0
M  V30 19045 H 1736.97 0.888269 -4.15921 0
M  V30 19046 N 1735.29 1.57597 0.0100073 0
M  V30 19047 C 1736.22 2.04622 1.0326 0
M  V30 19048 C 1737.23 0.962343 1.31312 0
M  V30 19049 O 1738.42 1.23933 1.28464 0
M  V30 19050 C 1735.52 2.42271 2.36976 0
M  V30 19051 C 1734.7 3.73271 2.28008 0
M  V30 19052 C 1733.76 3.97899 3.4433 0
M  V30 19053 O 1732.78 4.68702 3.22966 0
M  V30 19054 N 1733.98 3.45015 4.66846 0
M  V30 19055 H 1736.75 2.92968 0.63164 0
M  V30 19056 H 1734.31 1.6069 0.197591 0
M  V30 19057 H 1736.3 2.55869 3.13549 0
M  V30 19058 H 1734.87 1.59496 2.68849 0
M  V30 19059 H 1734.09 3.69846 1.3641 0
M  V30 19060 H 1735.38 4.59172 2.19178 0
M  V30 19061 H 1734.78 2.87661 4.87101 0
M  V30 19062 H 1733.33 3.6396 5.40718 0
M  V30 19063 N 1736.77 -0.282606 1.55045 0
M  V30 19064 C 1738.02 -1.01346 1.74852 0
M  V30 19065 C 1738.34 -1.87161 0.547327 0
M  V30 19066 O 1737.61 -1.9094 -0.438015 0
M  V30 19067 H 1736.19 -0.377178 0.644784 0
M  V30 19068 H 1738.85 -0.309152 1.92432 0
M  V30 19069 H 1737.94 -1.65596 2.64545 0
M  V30 19070 N 1738.25 -1.47815 -0.546675 0
M  V30 19071 C 1739.18 -1.63976 -1.66235 0
M  V30 19072 C 1740.16 -0.488945 -1.62921 0
M  V30 19073 O 1741.34 -0.719532 -1.80378 0
M  V30 19074 C 1738.47 -1.6637 -3.04858 0
M  V30 19075 C 1737.43 -2.80785 -3.23023 0
M  V30 19076 C 1736.75 -2.68257 -4.62539 0
M  V30 19077 C 1738.05 -4.22267 -3.07388 0
M  V30 19078 H 1739.75 -2.57375 -1.52965 0
M  V30 19079 H 1737.29 -1.23861 -0.734465 0
M  V30 19080 H 1739.24 -1.76266 -3.82764 0
M  V30 19081 H 1737.97 -0.695386 -3.19111 0
M  V30 19082 H 1736.63 -2.70417 -2.47529 0
M  V30 19083 H 1736.28 -1.69431 -4.73606 0
M  V30 19084 H 1735.98 -3.45022 -4.75641 0
M  V30 19085 H 1737.5 -2.80097 -5.42566 0
M  V30 19086 H 1738.91 -4.33557 -3.75102 0
M  V30 19087 H 1737.31 -4.999 -3.31994 0
M  V30 19088 H 1738.38 -4.39897 -2.04006 0
M  V30 19089 N 1739.72 0.794246 -1.36123 0
M  V30 19090 C 1740.66 1.91514 -1.25917 0
M  V30 19091 C 1741.67 1.61805 -0.179715 0
M  V30 19092 O 1742.86 1.73143 -0.434029 0
M  V30 19093 C 1739.96 3.26201 -0.919018 0
M  V30 19094 C 1739.13 3.83725 -2.09937 0
M  V30 19095 C 1738.19 4.96842 -1.73304 0
M  V30 19096 O 1737.22 5.13615 -2.45333 0
M  V30 19097 N 1738.42 5.76691 -0.663887 0
M  V30 19098 H 1741.18 2.00793 -2.22491 0
M  V30 19099 H 1738.74 0.97228 -1.29454 0
M  V30 19100 H 1740.74 3.99361 -0.655208 0
M  V30 19101 H 1739.31 3.12571 -0.0425606 0
M  V30 19102 H 1738.53 3.02611 -2.52626 0
M  V30 19103 H 1739.81 4.18889 -2.88806 0
M  V30 19104 H 1739.21 5.65662 -0.0657071 0
M  V30 19105 H 1737.77 6.50176 -0.459889 0
M  V30 19106 N 1741.2 1.20323 1.01785 0
M  V30 19107 C 1742.11 0.966603 2.13761 0
M  V30 19108 C 1743.13 -0.0771059 1.73829 0
M  V30 19109 O 1744.3 0.110054 2.01099 0
M  V30 19110 C 1741.37 0.520405 3.42772 0
M  V30 19111 C 1740.43 1.63482 3.96954 0
M  V30 19112 C 1739.66 1.20981 5.19807 0
M  V30 19113 O 1739.89 0.0779814 5.70347 0
M  V30 19114 O 1738.82 2.01674 5.67108 0
M  V30 19115 H 1742.65 1.90414 2.36593 0
M  V30 19116 H 1740.23 0.986997 1.12155 0
M  V30 19117 H 1742.11 0.280747 4.20464 0
M  V30 19118 H 1740.79 -0.388563 3.21359 0
M  V30 19119 H 1739.69 1.92874 3.20547 0
M  V30 19120 H 1741.03 2.52074 4.22752 0
M  V30 19121 N 1742.68 -1.21073 1.00892 0
M  V30 19122 C 1743.64 -2.21804 0.577543 0
M  V30 19123 C 1744.64 -1.56985 -0.348201 0
M  V30 19124 O 1745.83 -1.73653 -0.137947 0
M  V30 19125 C 1742.96 -3.40535 -0.157685 0
M  V30 19126 H 1744.16 -2.61483 1.46856 0
M  V30 19127 H 1741.71 -1.34402 0.79786 0
M  V30 19128 H 1742.45 -3.0635 -1.06397 0
M  V30 19129 H 1742.23 -3.88805 0.507238 0
M  V30 19130 H 1743.72 -4.152 -0.447109 0
M  V30 19131 N 1744.16 -0.784156 -1.36707 0
M  V30 19132 C 1745.09 -0.193081 -2.327 0
M  V30 19133 C 1746.07 0.668999 -1.56392 0
M  V30 19134 O 1747.25 0.603908 -1.84571 0
M  V30 19135 C 1744.38 0.677092 -3.40636 0
M  V30 19136 C 1743.34 -0.0846718 -4.27916 0
M  V30 19137 C 1742.66 0.905754 -5.26973 0
M  V30 19138 C 1743.96 -1.27085 -5.06603 0
M  V30 19139 H 1745.66 -0.995029 -2.82382 0
M  V30 19140 H 1743.2 -0.479929 -1.35767 0
M  V30 19141 H 1745.16 1.1005 -4.06776 0
M  V30 19142 H 1743.88 1.51169 -2.89509 0
M  V30 19143 H 1742.54 -0.488992 -3.63324 0
M  V30 19144 H 1742.19 1.73524 -4.72121 0
M  V30 19145 H 1741.89 0.400524 -5.86233 0
M  V30 19146 H 1743.41 1.32784 -5.95987 0
M  V30 19147 H 1744.83 -0.923469 -5.65814 0
M  V30 19148 H 1743.22 -1.70901 -5.7525 0
M  V30 19149 H 1744.29 -2.06882 -4.38552 0
M  V30 19150 N 1745.64 1.48215 -0.535727 0
M  V30 19151 C 1746.91 1.95505 0.0609376 0
M  V30 19152 C 1747.29 1.47806 1.5072 0
M  V30 19153 O 1746.64 0.707142 2.17283 0
M  V30 19154 C 1746.85 3.48944 -0.0622609 0
M  V30 19155 C 1748.2 4.24496 0.0940805 0
M  V30 19156 O 1749.22 3.56198 0.0112532 0
M  V30 19157 O 1748.08 5.4584 0.268547 0
M  V30 19158 H 1745.18 0.82349 0.0761079 0
M  V30 19159 H 1747.72 1.58711 -0.600732 0
M  V30 19160 H 1746.49 3.76401 -1.06949 0
M  V30 19161 H 1746.12 3.92448 0.637999 0
M  V30 19162 N 1747.11 0.27113 1.5525 0
M  V30 19163 C 1748.53 -0.0831186 1.59383 0
M  V30 19164 C 1748.73 -1.54931 1.28835 0
M  V30 19165 O 1747.79 -2.29756 1.0473 0
M  V30 19166 C 1749.1 0.287921 2.99318 0
M  V30 19167 C 1750.65 0.234209 3.12123 0
M  V30 19168 C 1751.12 0.57963 4.54317 0
M  V30 19169 N 1752.61 0.531033 4.60146 0
M  V30 19170 C 1753.35 0.771156 5.68191 0
M  V30 19171 N 1752.84 1.07569 6.84398 0
M  V30 19172 N 1754.64 0.700223 5.57722 0
M  V30 19173 H 1746.79 1.22702 1.73373 0
M  V30 19174 H 1749.05 0.495424 0.808244 0
M  V30 19175 H 1748.76 1.30746 3.26494 0
M  V30 19176 H 1748.63 -0.373205 3.75349 0
M  V30 19177 H 1751.02 -0.776035 2.84713 0
M  V30 19178 H 1751.1 0.929535 2.38313 0
M  V30 19179 H 1750.74 1.58754 4.82452 0
M  V30 19180 H 1750.67 -0.137442 5.26421 0
M  V30 19181 H 1753.16 0.305377 3.76664 0
M  V30 19182 H 1753.48 1.24568 7.62694 0
M  V30 19183 H 1751.82 1.11342 6.86023 0
M  V30 19184 H 1755.01 0.462183 4.65813 0
M  V30 19185 H 1755.19 0.890744 6.41849 0
M  V30 19186 N 1748.59 -1.576 -0.00164943 0
M  V30 19187 C 1749.56 -2.07267 -0.978423 0
M  V30 19188 C 1750.56 -0.981758 -1.27351 0
M  V30 19189 O 1751.75 -1.24446 -1.21896 0
M  V30 19190 C 1748.88 -2.51273 -2.30379 0
M  V30 19191 H 1750.07 -2.94835 -0.548845 0
M  V30 19192 H 1747.62 -1.54302 -0.249086 0
M  V30 19193 H 1748.36 -1.66943 -2.7803 0
M  V30 19194 H 1748.14 -3.30943 -2.10283 0
M  V30 19195 H 1749.63 -2.90031 -3.00453 0
M  V30 19196 N 1750.07 0.274379 -1.55193 0
M  V30 19197 C 1751.35 1.02736 -1.66447 0
M  V30 19198 C 1751.73 2.04337 -0.530051 0
M  V30 19199 O 1751.08 2.23613 0.470058 0
M  V30 19200 C 1751.29 1.6854 -3.05606 0
M  V30 19201 C 1752.63 2.19754 -3.63309 0
M  V30 19202 O 1753.66 1.78529 -3.0823 0
M  V30 19203 O 1752.52 2.95364 -4.59807 0
M  V30 19204 H 1749.61 0.476462 -0.675953 0
M  V30 19205 H 1752.16 0.270347 -1.67533 0
M  V30 19206 H 1750.93 0.949086 -3.79616 0
M  V30 19207 H 1750.55 2.50931 -3.08414 0
M  V30 19208 N 1751.55 1.48103 0.538828 0
M  V30 19209 C 1752.48 1.64856 1.65363 0
M  V30 19210 C 1753.46 0.497579 1.6266 0
M  V30 19211 O 1754.64 0.729088 1.79994 0
M  V30 19212 C 1751.77 1.67984 3.03971 0
M  V30 19213 C 1750.73 2.82494 3.21529 0
M  V30 19214 C 1750.05 2.70706 4.6111 0
M  V30 19215 C 1751.35 4.23892 3.05145 0
M  V30 19216 H 1753.05 2.58183 1.51598 0
M  V30 19217 H 1750.59 1.24249 0.727886 0
M  V30 19218 H 1752.55 1.78294 3.81824 0
M  V30 19219 H 1751.27 0.712299 3.18738 0
M  V30 19220 H 1749.93 2.71725 2.46091 0
M  V30 19221 H 1749.58 1.7194 4.727 0
M  V30 19222 H 1749.28 3.47539 4.73804 0
M  V30 19223 H 1750.8 2.82971 5.41073 0
M  V30 19224 H 1752.22 4.3554 3.72797 0
M  V30 19225 H 1750.61 5.01654 3.29338 0
M  V30 19226 H 1751.68 4.40973 2.01671 0
M  V30 19227 N 1753.03 -0.787016 1.36542 0
M  V30 19228 C 1753.96 -1.91399 1.33749 0
M  V30 19229 C 1754.94 -1.68817 0.208559 0
M  V30 19230 O 1756.12 -1.89896 0.406574 0
M  V30 19231 C 1753.25 -3.28457 1.12842 0
M  V30 19232 C 1752.21 -3.65568 2.22585 0
M  V30 19233 C 1751.53 -5.01002 1.86818 0
M  V30 19234 C 1752.83 -3.73902 3.64684 0
M  V30 19235 H 1754.53 -1.93993 2.2805 0
M  V30 19236 H 1752.07 -0.931937 1.09777 0
M  V30 19237 H 1754.03 -4.06919 1.09522 0
M  V30 19238 H 1752.75 -3.26256 0.149918 0
M  V30 19239 H 1751.41 -2.89405 2.25035 0
M  V30 19240 H 1751.06 -4.95325 0.875361 0
M  V30 19241 H 1750.76 -5.26802 2.60294 0
M  V30 19242 H 1752.28 -5.81881 1.85058 0
M  V30 19243 H 1753.69 -4.4255 3.64448 0
M  V30 19244 H 1752.09 -4.11188 4.37086 0
M  V30 19245 H 1753.16 -2.74946 3.99416 0
M  V30 19246 N 1754.5 -1.20861 -1.01145 0
M  V30 19247 C 1755.45 -0.962085 -2.09792 0
M  V30 19248 C 1756.42 0.109588 -1.65738 0
M  V30 19249 O 1757.61 -0.0362022 -1.90766 0
M  V30 19250 C 1754.75 -0.52586 -3.4107 0
M  V30 19251 C 1753.86 -1.66626 -3.98572 0
M  V30 19252 C 1752.99 -1.17983 -5.17932 0
M  V30 19253 C 1752.03 -2.29298 -5.67529 0
M  V30 19254 N 1751.17 -1.81836 -6.78145 0
M  V30 19255 H 1756.01 -1.89222 -2.30215 0
M  V30 19256 H 1753.55 -0.943108 -1.12889 0
M  V30 19257 H 1755.51 -0.25423 -4.16425 0
M  V30 19258 H 1754.14 0.367275 -3.20704 0
M  V30 19259 H 1753.19 -2.05268 -3.20264 0
M  V30 19260 H 1754.5 -2.50426 -4.3138 0
M  V30 19261 H 1753.65 -0.864477 -6.0051 0
M  V30 19262 H 1752.39 -0.311793 -4.86702 0
M  V30 19263 H 1751.4 -2.61644 -4.83552 0
M  V30 19264 H 1752.62 -3.16587 -6.00791 0
M  V30 19265 H 1750.57 -0.973665 -6.48734 0
M  V30 19266 H 1750.49 -2.59213 -7.10172 0
M  V30 19267 H 1751.75 -1.53315 -7.64274 0
M  V30 19268 N 1755.98 1.20536 -1.01532 0
M  V30 19269 C 1757.21 1.93853 -0.723104 0
M  V30 19270 C 1757.63 1.74697 0.715994 0
M  V30 19271 O 1756.98 1.06013 1.48551 0
M  V30 19272 C 1757.03 3.45986 -1.04767 0
M  V30 19273 O 1756.75 3.64514 -2.43025 0
M  V30 19274 C 1758.26 4.36449 -0.776323 0
M  V30 19275 H 1755.48 0.616179 -0.265639 0
M  V30 19276 H 1758.02 1.53064 -1.35616 0
M  V30 19277 H 1756.17 3.84659 -0.460039 0
M  V30 19278 H 1756.59 4.58513 -2.54689 0
M  V30 19279 H 1758.06 5.41853 -1.05351 0
M  V30 19280 H 1758.54 4.38245 0.289524 0
M  V30 19281 H 1759.15 4.03437 -1.34605 0
M  V30 19282 N 1757.46 0.791395 1.36289 0
M  V30 19283 C 1758.37 0.192362 2.3381 0
M  V30 19284 C 1759.39 -0.656556 1.61138 0
M  V30 19285 O 1760.56 -0.571877 1.9311 0
M  V30 19286 C 1757.63 -0.661283 3.40335 0
M  V30 19287 C 1756.69 0.206361 4.28804 0
M  V30 19288 C 1755.92 -0.606636 5.30241 0
M  V30 19289 O 1756.14 -1.84247 5.39823 0
M  V30 19290 O 1755.08 -0.00549116 6.019 0
M  V30 19291 H 1758.9 0.998723 2.86809 0
M  V30 19292 H 1756.49 0.552889 1.38793 0
M  V30 19293 H 1758.37 -1.148 4.05461 0
M  V30 19294 H 1757.05 -1.4455 2.89632 0
M  V30 19295 H 1755.95 0.739877 3.66711 0
M  V30 19296 H 1757.29 0.954142 4.82863 0
M  V30 19297 N 1758.94 -1.47929 0.54358 0
M  V30 19298 C 1760.36 -1.58312 0.202376 0
M  V30 19299 C 1760.56 -1.54394 -1.29479 0
M  V30 19300 O 1759.61 -1.44015 -2.07403 0
M  V30 19301 C 1760.92 -2.89389 0.816958 0
M  V30 19302 C 1762.47 -3.02946 0.786935 0
M  V30 19303 C 1762.95 -4.36704 1.38034 0
M  V30 19304 N 1764.44 -4.43306 1.34291 0
M  V30 19305 C 1765.17 -5.45339 1.77182 0
M  V30 19306 N 1764.67 -6.54255 2.27866 0
M  V30 19307 N 1766.46 -5.36302 1.68336 0
M  V30 19308 H 1758.61 -1.48719 1.51646 0
M  V30 19309 H 1760.88 -0.706966 0.631587 0
M  V30 19310 H 1760.58 -2.97953 1.86861 0
M  V30 19311 H 1760.46 -3.75989 0.30198 0
M  V30 19312 H 1762.84 -2.93988 -0.25599 0
M  V30 19313 H 1762.92 -2.17923 1.33953 0
M  V30 19314 H 1762.57 -4.46418 2.42226 0
M  V30 19315 H 1762.5 -5.20437 0.803308 0
M  V30 19316 H 1764.99 -3.65185 0.972033 0
M  V30 19317 H 1765.3 -7.28265 2.58552 0
M  V30 19318 H 1763.65 -6.55181 2.31868 0
M  V30 19319 H 1766.84 -4.50109 1.28527 0
M  V30 19320 H 1767.01 -6.15684 2.02082 0
M  V30 19321 N 1760.42 -0.27936 -1.55104 0
M  V30 19322 C 1761.64 0.342295 -2.04556 0
M  V30 19323 C 1762.07 1.48367 -1.15624 0
M  V30 19324 O 1761.43 1.8063 -0.15572 0
M  V30 19325 C 1761.47 0.796785 -3.51687 0
M  V30 19326 O 1760.58 1.90364 -3.65835 0
M  V30 19327 H 1759.92 0.07012 -0.660287 0
M  V30 19328 H 1762.45 -0.414896 -2.00349 0
M  V30 19329 H 1762.46 1.09141 -3.93131 0
M  V30 19330 H 1761.13 -0.0382637 -4.15882 0
M  V30 19331 H 1759.71 1.61123 -3.36294 0
M  V30 19332 N 1761.9 1.57599 -0.0067085 0
M  V30 19333 C 1763.17 1.82097 0.714141 0
M  V30 19334 C 1763.55 0.885868 1.91613 0
M  V30 19335 O 1762.9 -0.0638506 2.28411 0
M  V30 19336 C 1763.11 3.30759 1.11354 0
M  V30 19337 C 1764.46 3.96668 1.51459 0
M  V30 19338 O 1765.48 3.35121 1.20715 0
M  V30 19339 O 1764.34 5.051 2.08654 0
M  V30 19340 H 1761.44 0.750071 0.348314 0
M  V30 19341 H 1763.98 1.69669 -0.0326766 0
M  V30 19342 H 1762.75 3.90455 0.257068 0
M  V30 19343 H 1762.38 3.48211 1.91924 0
M  V30 19344 N 1763.37 -0.266145 1.55336 0
M  V30 19345 C 1764.3 -1.33322 1.91697 0
M  V30 19346 C 1765.28 -1.51182 0.77961 0
M  V30 19347 O 1766.47 -1.64112 1.03832 0
M  V30 19348 C 1763.6 -2.69151 2.19488 0
M  V30 19349 C 1762.55 -2.66012 3.35293 0
M  V30 19350 C 1761.88 -4.05458 3.4858 0
M  V30 19351 C 1763.18 -2.24681 4.71504 0
M  V30 19352 H 1764.87 -1.03138 2.81075 0
M  V30 19353 H 1762.42 -0.494702 1.35236 0
M  V30 19354 H 1764.37 -3.43918 2.43512 0
M  V30 19355 H 1763.1 -3.00932 1.26916 0
M  V30 19356 H 1761.76 -1.93703 3.11247 0
M  V30 19357 H 1761.4 -4.34472 2.53462 0
M  V30 19358 H 1761.1 -4.04251 4.26445 0
M  V30 19359 H 1762.63 -4.81954 3.74904 0
M  V30 19360 H 1764.04 -2.89173 4.95027 0
M  V30 19361 H 1762.44 -2.34622 5.52334 0
M  V30 19362 H 1763.51 -1.19819 4.69863 0
M  V30 19363 N 1764.85 -1.48386 -0.530967 0
M  V30 19364 C 1765.76 -1.65516 -1.66257 0
M  V30 19365 C 1766.78 -0.5377 -1.65483 0
M  V30 19366 O 1767.95 -0.808642 -1.84453 0
M  V30 19367 C 1765.02 -1.68999 -3.02722 0
M  V30 19368 C 1764.08 -2.92365 -3.14358 0
M  V30 19369 C 1763.31 -2.95672 -4.44313 0
M  V30 19370 O 1763.54 -2.07417 -5.31352 0
M  V30 19371 O 1762.47 -3.87831 -4.60294 0
M  V30 19372 H 1766.3 -2.61321 -1.54742 0
M  V30 19373 H 1763.88 -1.31776 -0.703946 0
M  V30 19374 H 1765.76 -1.73816 -3.83883 0
M  V30 19375 H 1764.44 -0.763675 -3.14563 0
M  V30 19376 H 1763.34 -2.93081 -2.32496 0
M  V30 19377 H 1764.68 -3.84378 -3.07433 0
M  V30 19378 N 1766.33 0.779763 -1.36958 0
M  V30 19379 C 1767.56 1.56648 -1.34704 0
M  V30 19380 C 1767.97 1.89065 0.071459 0
M  V30 19381 O 1767.31 1.51325 1.04146 0
M  V30 19382 C 1767.37 2.90862 -2.11281 0
M  V30 19383 C 1767.04 2.81123 -3.60304 0
M  V30 19384 C 1768.03 2.52702 -4.54354 0
M  V30 19385 C 1765.72 2.99397 -4.0332 0
M  V30 19386 C 1767.71 2.42671 -5.89398 0
M  V30 19387 C 1765.4 2.88987 -5.38451 0
M  V30 19388 C 1766.4 2.60663 -6.31303 0
M  V30 19389 O 1766.09 2.50264 -7.63952 0
M  V30 19390 H 1765.82 0.492209 -0.463364 0
M  V30 19391 H 1768.37 0.974946 -1.80787 0
M  V30 19392 H 1766.6 3.52104 -1.59875 0
M  V30 19393 H 1768.29 3.52203 -2.01762 0
M  V30 19394 H 1769.06 2.38277 -4.22432 0
M  V30 19395 H 1764.94 3.20446 -3.31414 0
M  V30 19396 H 1768.48 2.20484 -6.6184 0
M  V30 19397 H 1764.38 3.02977 -5.69978 0
M  V30 19398 H 1765.14 2.65674 -7.74183 0
M  V30 19399 N 1767.81 1.21396 1.00503 0
M  V30 19400 C 1768.74 0.930982 2.09441 0
M  V30 19401 C 1769.75 -0.0857912 1.62574 0
M  V30 19402 O 1770.94 0.146701 1.77896 0
M  V30 19403 C 1768.04 0.376344 3.36804 0
M  V30 19404 C 1767.21 1.44744 4.12756 0
M  V30 19405 C 1766.27 0.902051 5.18411 0
M  V30 19406 O 1765.3 1.58548 5.46673 0
M  V30 19407 N 1766.5 -0.282718 5.79811 0
M  V30 19408 H 1769.27 1.86879 2.343 0
M  V30 19409 H 1766.83 1.1192 1.16985 0
M  V30 19410 H 1768.82 -0.00292068 4.047 0
M  V30 19411 H 1767.39 -0.466283 3.09103 0
M  V30 19412 H 1766.61 2.00056 3.39664 0
M  V30 19413 H 1767.9 2.16846 4.60277 0
M  V30 19414 H 1767.3 -0.855 5.59201 0
M  V30 19415 H 1765.85 -0.603494 6.49 0
M  V30 19416 N 1769.29 -1.19996 1.0217 0
M  V30 19417 C 1770.22 -2.25206 0.616818 0
M  V30 19418 C 1771.2 -1.66013 -0.370653 0
M  V30 19419 O 1772.38 -1.92519 -0.254956 0
M  V30 19420 C 1769.51 -3.47276 -0.0405129 0
M  V30 19421 C 1768.47 -4.19096 0.868479 0
M  V30 19422 C 1767.79 -5.34645 0.0766447 0
M  V30 19423 C 1769.09 -4.7468 2.1789 0
M  V30 19424 H 1770.79 -2.59328 1.49632 0
M  V30 19425 H 1768.33 -1.24655 0.720917 0
M  V30 19426 H 1770.28 -4.20063 -0.335355 0
M  V30 19427 H 1769.01 -3.12333 -0.954759 0
M  V30 19428 H 1767.67 -3.48181 1.1474 0
M  V30 19429 H 1767.32 -4.95946 -0.839411 0
M  V30 19430 H 1767.02 -5.83628 0.682041 0
M  V30 19431 H 1768.54 -6.10233 -0.211624 0
M  V30 19432 H 1769.95 -5.39259 1.94608 0
M  V30 19433 H 1768.35 -5.34121 2.7356 0
M  V30 19434 H 1769.42 -3.93141 2.83845 0
M  V30 19435 N 1770.76 -0.798611 -1.35867 0
M  V30 19436 C 1771.67 -0.204758 -2.33705 0
M  V30 19437 C 1772.69 0.648001 -1.61484 0
M  V30 19438 O 1773.87 0.561628 -1.93411 0
M  V30 19439 C 1770.93 0.643225 -3.40681 0
M  V30 19440 C 1769.99 -0.229099 -4.28688 0
M  V30 19441 C 1769.22 0.578508 -5.30555 0
M  V30 19442 O 1769.45 1.81382 -5.40793 0
M  V30 19443 O 1768.38 -0.0264291 -6.01894 0
M  V30 19444 H 1772.21 -1.01392 -2.86275 0
M  V30 19445 H 1769.79 -0.560242 -1.38498 0
M  V30 19446 H 1771.67 1.12648 -4.06065 0
M  V30 19447 H 1770.35 1.43012 -2.90395 0
M  V30 19448 H 1769.26 -0.759314 -3.66313 0
M  V30 19449 H 1770.59 -0.979736 -4.82351 0
M  V30 19450 N 1772.24 1.47639 -0.551417 0
M  V30 19451 C 1773.19 2.31626 0.212654 0
M  V30 19452 C 1774.18 1.42567 0.914925 0
M  V30 19453 O 1775.39 1.59363 0.836869 0
M  V30 19454 H 1771.76 0.746898 0.0874493 0
M  V30 19455 H 1773.74 2.93923 -0.514976 0
M  V30 19456 C 1772.48 3.25098 1.23316 0
M  V30 19457 H 1771.81 3.93585 0.702196 0
M  V30 19458 H 1773.25 3.86707 1.73878 0
M  V30 19459 C 1771.71 2.48209 2.27802 0
M  V30 19460 O 1772.24 2.22235 3.34626 0
M  V30 19461 N 1770.44 2.09321 2.01577 0
M  V30 19462 H 1769.99 2.30645 1.14719 0
M  V30 19463 H 1769.95 1.58191 2.71704 0
M  V30 19464 N 1773.72 0.287581 1.54954 0
M  V30 19465 C 1774.97 -0.326315 1.99043 0
M  V30 19466 C 1775.28 -1.56033 1.17954 0
M  V30 19467 O 1776.49 -2.24797 1.52246 0
M  V30 19468 C 1774.94 -0.631918 3.54309 0
M  V30 19469 C 1774.55 0.582998 4.4419 0
M  V30 19470 C 1776.3 -1.20775 4.06957 0
M  V30 19471 C 1774.2 0.251291 5.90866 0
M  V30 19472 H 1773.13 -0.125703 0.743448 0
M  V30 19473 H 1775.78 0.394188 1.79216 0
M  V30 19474 H 1774.17 -1.41166 3.69984 0
M  V30 19475 H 1775.34 1.35957 4.40287 0
M  V30 19476 H 1773.66 1.07653 4.02243 0
M  V30 19477 H 1776.25 -1.46995 5.14098 0
M  V30 19478 H 1776.6 -2.14569 3.56743 0
M  V30 19479 H 1777.13 -0.490021 3.9477 0
M  V30 19480 H 1773.87 1.15744 6.452 0
M  V30 19481 H 1773.39 -0.488274 5.97809 0
M  V30 19482 H 1775.07 -0.152008 6.46821 0
M  V30 19483 N 1775.2 -1.57593 0.0150662 0
M  V30 19484 C 1776.13 -2.06239 -0.999912 0
M  V30 19485 C 1777.14 -0.983112 -1.29764 0
M  V30 19486 O 1778.33 -1.25961 -1.26476 0
M  V30 19487 C 1775.43 -2.46011 -2.33092 0
M  V30 19488 C 1774.61 -3.76851 -2.2204 0
M  V30 19489 C 1773.66 -4.03326 -3.37956 0
M  V30 19490 O 1772.69 -4.73781 -3.15469 0
M  V30 19491 N 1773.89 -3.52399 -4.61298 0
M  V30 19492 H 1776.66 -2.93936 -0.584952 0
M  V30 19493 H 1774.22 -1.60984 -0.172001 0
M  V30 19494 H 1776.21 -2.60825 -3.09439 0
M  V30 19495 H 1774.78 -1.63753 -2.66277 0
M  V30 19496 H 1774 -3.71969 -1.30509 0
M  V30 19497 H 1775.29 -4.626 -2.11845 0
M  V30 19498 H 1774.69 -2.95374 -4.82463 0
M  V30 19499 H 1773.24 -3.72516 -5.3486 0
M  V30 19500 N 1776.68 0.257904 -1.55475 0
M  V30 19501 C 1777.92 0.988933 -1.77054 0
M  V30 19502 C 1778.26 1.85387 -0.578375 0
M  V30 19503 O 1777.53 1.8983 0.423673 0
M  V30 19504 C 1777.81 1.85876 -3.08419 0
M  V30 19505 C 1777.67 1.02274 -4.38018 0
M  V30 19506 C 1778.99 2.84322 -3.3593 0
M  V30 19507 H 1776.1 0.358103 -0.644152 0
M  V30 19508 H 1778.75 0.260209 -1.8821 0
M  V30 19509 H 1776.9 2.48008 -2.99039 0
M  V30 19510 H 1778.57 0.420967 -4.59375 0
M  V30 19511 H 1776.81 0.326705 -4.32568 0
M  V30 19512 H 1777.48 1.6649 -5.26294 0
M  V30 19513 H 1779.96 2.32325 -3.45202 0
M  V30 19514 H 1778.83 3.42313 -4.29084 0
M  V30 19515 H 1779.1 3.60223 -2.56304 0
M  V30 19516 N 1778.15 1.48666 0.52309 0
M  V30 19517 C 1779.08 1.666 1.63605 0
M  V30 19518 C 1780.07 0.514803 1.62123 0
M  V30 19519 O 1781.25 0.748138 1.79211 0
M  V30 19520 C 1778.38 1.71199 3.02172 0
M  V30 19521 C 1777.33 2.85888 3.18515 0
M  V30 19522 C 1776.66 2.75582 4.58213 0
M  V30 19523 C 1777.96 4.27104 3.00631 0
M  V30 19524 H 1779.65 2.59776 1.48851 0
M  V30 19525 H 1777.2 1.25014 0.714667 0
M  V30 19526 H 1779.15 1.82333 3.79911 0
M  V30 19527 H 1777.88 0.746066 3.17964 0
M  V30 19528 H 1776.54 2.7432 2.43195 0
M  V30 19529 H 1776.18 1.76944 4.7085 0
M  V30 19530 H 1775.88 3.52545 4.70091 0
M  V30 19531 H 1777.41 2.88693 5.38041 0
M  V30 19532 H 1778.82 4.3947 3.68157 0
M  V30 19533 H 1777.22 5.05119 3.23999 0
M  V30 19534 H 1778.29 4.43087 1.96982 0
M  V30 19535 N 1779.63 -0.772489 1.37369 0
M  V30 19536 C 1780.86 -1.55931 1.35532 0
M  V30 19537 C 1781.27 -1.891 -0.0614314 0
M  V30 19538 O 1780.61 -1.51876 -1.03342 0
M  V30 19539 C 1780.68 -2.89737 2.1282 0
M  V30 19540 C 1780.34 -2.79208 3.6179 0
M  V30 19541 C 1781.34 -2.50289 4.55688 0
M  V30 19542 C 1779.02 -2.97253 4.04902 0
M  V30 19543 C 1781.02 -2.39542 5.90676 0
M  V30 19544 C 1778.7 -2.86127 5.39976 0
M  V30 19545 C 1779.7 -2.57311 6.32677 0
M  V30 19546 O 1779.39 -2.4621 7.65269 0
M  V30 19547 H 1779.12 -0.489744 0.465968 0
M  V30 19548 H 1781.67 -0.965344 1.81302 0
M  V30 19549 H 1779.9 -3.51251 1.6174 0
M  V30 19550 H 1781.59 -3.51128 2.03627 0
M  V30 19551 H 1782.36 -2.36034 4.2369 0
M  V30 19552 H 1778.24 -3.18684 3.33109 0
M  V30 19553 H 1781.78 -2.16971 6.63 0
M  V30 19554 H 1777.68 -2.9995 5.71577 0
M  V30 19555 H 1778.45 -2.61564 7.75581 0
M  V30 19556 N 1781.11 -1.21927 -0.998575 0
M  V30 19557 C 1782.34 -1.06735 -1.77827 0
M  V30 19558 C 1782.76 0.378154 -1.8426 0
M  V30 19559 O 1782.12 1.27301 -1.2909 0
M  V30 19560 C 1782.17 -1.67662 -3.19252 0
M  V30 19561 O 1781.27 -0.926448 -4.01859 0
M  V30 19562 H 1780.61 -0.375241 -0.547805 0
M  V30 19563 H 1783.14 -1.61605 -1.25478 0
M  V30 19564 H 1783.15 -1.72151 -3.69903 0
M  V30 19565 H 1781.83 -2.72854 -3.13885 0
M  V30 19566 H 1780.4 -0.957145 -3.60407 0
M  V30 19567 N 1782.59 1.19452 -1.02805 0
M  V30 19568 C 1783.54 2.20533 -0.578732 0
M  V30 19569 C 1784.52 1.56539 0.372081 0
M  V30 19570 O 1785.71 1.75943 0.193185 0
M  V30 19571 C 1782.84 3.43229 0.0698982 0
M  V30 19572 C 1781.93 4.14368 -0.903306 0
M  V30 19573 N 1782.32 4.61709 -2.0654 0
M  V30 19574 C 1780.62 4.40042 -0.726572 0
M  V30 19575 C 1781.32 5.1633 -2.67914 0
M  V30 19576 N 1780.3 5.0708 -1.95884 0
M  V30 19577 H 1784.1 2.54813 -1.46451 0
M  V30 19578 H 1781.61 1.35517 -0.894927 0
M  V30 19579 H 1783.61 4.14885 0.409411 0
M  V30 19580 H 1782.27 3.1045 0.951368 0
M  V30 19581 H 1783.28 4.5656 -2.44485 0
M  V30 19582 H 1779.96 4.17366 0.105875 0
M  V30 19583 H 1781.35 5.63254 -3.66326 0
M  V30 19584 N 1784.07 0.805805 1.35442 0
M  V30 19585 C 1784.98 0.217149 2.33593 0
M  V30 19586 C 1785.99 -0.639428 1.61825 0
M  V30 19587 O 1787.17 -0.551363 1.93706 0
M  V30 19588 C 1784.23 -0.625149 3.41017 0
M  V30 19589 C 1783.29 0.25183 4.28561 0
M  V30 19590 C 1782.53 -0.550363 5.30855 0
M  V30 19591 O 1782.75 -1.78511 5.41747 0
M  V30 19592 O 1781.68 0.0583487 6.01872 0
M  V30 19593 H 1785.51 1.02909 2.85733 0
M  V30 19594 H 1783.1 0.567579 1.38199 0
M  V30 19595 H 1784.98 -1.10493 4.06656 0
M  V30 19596 H 1783.65 -1.4147 2.91149 0
M  V30 19597 H 1782.56 0.77873 3.65905 0
M  V30 19598 H 1783.89 1.0053 4.81824 0
M  V30 19599 N 1785.54 -1.47344 0.559239 0
M  V30 19600 C 1786.49 -2.30039 -0.187317 0
M  V30 19601 C 1787.46 -1.39186 -0.906443 0
M  V30 19602 O 1788.65 -1.68147 -0.901739 0
M  V30 19603 C 1785.79 -3.2319 -1.21004 0
M  V30 19604 C 1784.9 -4.29134 -0.496776 0
M  V30 19605 C 1784.03 -5.09435 -1.50497 0
M  V30 19606 C 1783.07 -6.07151 -0.776794 0
M  V30 19607 N 1782.21 -6.80404 -1.73192 0
M  V30 19608 H 1787.05 -2.93357 0.523978 0
M  V30 19609 H 1784.59 -1.44597 0.270225 0
M  V30 19610 H 1786.55 -3.75621 -1.81561 0
M  V30 19611 H 1785.18 -2.61732 -1.88935 0
M  V30 19612 H 1784.23 -3.79744 0.223359 0
M  V30 19613 H 1785.54 -4.98746 0.0735731 0
M  V30 19614 H 1784.69 -5.66026 -2.18402 0
M  V30 19615 H 1783.43 -4.3973 -2.10924 0
M  V30 19616 H 1782.44 -5.49736 -0.0838382 0
M  V30 19617 H 1783.66 -6.78866 -0.178239 0
M  V30 19618 H 1781.61 -6.13427 -2.32472 0
M  V30 19619 H 1781.53 -7.46193 -1.21377 0
M  V30 19620 H 1782.79 -7.41567 -2.40204 0
M  V30 19621 N 1787.02 -0.295795 -1.54799 0
M  V30 19622 C 1788.27 0.315473 -2.00331 0
M  V30 19623 C 1788.6 1.53939 -1.18392 0
M  V30 19624 O 1787.88 1.92767 -0.259086 0
M  V30 19625 C 1788.16 0.677227 -3.53674 0
M  V30 19626 C 1788.01 -0.555462 -4.46357 0
M  V30 19627 C 1789.33 1.50576 -4.1354 0
M  V30 19628 H 1786.45 0.113191 -0.728256 0
M  V30 19629 H 1789.09 -0.406858 -1.85593 0
M  V30 19630 H 1787.24 1.29264 -3.66365 0
M  V30 19631 H 1788.91 -1.19397 -4.45581 0
M  V30 19632 H 1787.16 -1.18968 -4.17168 0
M  V30 19633 H 1787.83 -0.25828 -5.51395 0
M  V30 19634 H 1790.3 0.985819 -4.04253 0
M  V30 19635 H 1789.18 1.72766 -5.21002 0
M  V30 19636 H 1789.44 2.49334 -3.65082 0
M  V30 19637 N 1788.5 1.57583 -0.0234236 0
M  V30 19638 C 1789.45 2.09872 0.960327 0
M  V30 19639 C 1790.42 0.999466 1.32665 0
M  V30 19640 O 1791.6 1.27332 1.42095 0
M  V30 19641 C 1788.74 2.62578 2.23935 0
M  V30 19642 C 1787.86 3.86491 1.92999 0
M  V30 19643 C 1786.99 4.27611 3.15154 0
M  V30 19644 C 1786.03 5.44298 2.80011 0
M  V30 19645 N 1785.17 5.80601 3.94775 0
M  V30 19646 H 1790.01 2.93647 0.507502 0
M  V30 19647 H 1787.54 1.45147 0.238911 0
M  V30 19648 H 1789.5 2.91223 2.98739 0
M  V30 19649 H 1788.13 1.81643 2.66844 0
M  V30 19650 H 1787.18 3.6461 1.08462 0
M  V30 19651 H 1788.5 4.71377 1.63112 0
M  V30 19652 H 1787.65 4.57663 3.98284 0
M  V30 19653 H 1786.39 3.41481 3.48198 0
M  V30 19654 H 1785.39 5.13946 1.95293 0
M  V30 19655 H 1786.62 6.32122 2.4819 0
M  V30 19656 H 1784.57 4.97427 4.27671 0
M  V30 19657 H 1784.48 6.60113 3.68492 0
M  V30 19658 H 1785.75 6.15255 4.78624 0
M  V30 19659 N 1789.98 -0.249655 1.5561 0
M  V30 19660 C 1790.91 -1.33534 1.85051 0
M  V30 19661 C 1791.89 -1.46503 0.705373 0
M  V30 19662 O 1793.07 -1.62761 0.950841 0
M  V30 19663 C 1790.2 -2.70916 2.03278 0
M  V30 19664 C 1789.25 -2.75111 3.25908 0
M  V30 19665 S 1790.08 -2.31998 4.82636 0
M  V30 19666 C 1791.24 -3.7131 5.03865 0
M  V30 19667 H 1791.47 -1.08362 2.76848 0
M  V30 19668 H 1789 -0.450498 1.47682 0
M  V30 19669 H 1790.96 -3.50022 2.14464 0
M  V30 19670 H 1789.62 -2.93328 1.12328 0
M  V30 19671 H 1788.81 -3.75999 3.3562 0
M  V30 19672 H 1788.42 -2.04047 3.13434 0
M  V30 19673 H 1790.71 -4.66784 4.91039 0
M  V30 19674 H 1791.65 -3.66535 6.05853 0
M  V30 19675 H 1792.06 -3.63696 4.31724 0
M  V30 19676 N 1791.46 -1.48941 -0.515198 0
M  V30 19677 C 1792.37 -1.67271 -1.64492 0
M  V30 19678 C 1793.38 -0.555222 -1.64904 0
M  V30 19679 O 1794.56 -0.828161 -1.83585 0
M  V30 19680 C 1791.62 -1.722 -3.00912 0
M  V30 19681 C 1790.69 -2.95683 -3.11239 0
M  V30 19682 C 1789.92 -3.00368 -4.41152 0
M  V30 19683 O 1790.14 -2.13041 -5.29122 0
M  V30 19684 O 1789.08 -3.92691 -4.56155 0
M  V30 19685 H 1792.9 -2.62947 -1.51962 0
M  V30 19686 H 1790.49 -1.32515 -0.68993 0
M  V30 19687 H 1792.37 -1.77877 -3.82018 0
M  V30 19688 H 1791.04 -0.796995 -3.13735 0
M  V30 19689 H 1789.95 -2.95531 -2.29374 0
M  V30 19690 H 1791.28 -3.87617 -3.03338 0
M  V30 19691 N 1792.94 0.765193 -1.37777 0
M  V30 19692 C 1794.18 1.52096 -1.33084 0
M  V30 19693 C 1794.5 1.94827 0.08221 0
M  V30 19694 O 1793.77 1.66787 1.02757 0
M  V30 19695 H 1792.35 0.564139 -0.489649 0
M  V30 19696 H 1795.02 0.910308 -1.72335 0
M  V30 19697 H 1794.11 2.4173 -1.97416 0
M  V30 19698 N 1794.41 1.22455 0.992094 0
M  V30 19699 C 1795.64 1.07594 1.76723 0
M  V30 19700 C 1796.06 -0.37345 1.8507 0
M  V30 19701 O 1795.41 -1.25876 1.32142 0
M  V30 19702 C 1795.46 1.68178 3.19998 0
M  V30 19703 O 1795.19 3.07447 3.12102 0
M  V30 19704 C 1796.69 1.58602 4.13957 0
M  V30 19705 H 1793.91 0.377148 0.554978 0
M  V30 19706 H 1796.45 1.62065 1.24721 0
M  V30 19707 H 1794.61 1.17768 3.69066 0
M  V30 19708 H 1795.02 3.36641 4.0221 0
M  V30 19709 H 1796.49 2.05714 5.12236 0
M  V30 19710 H 1796.97 0.542712 4.35834 0
M  V30 19711 H 1797.58 2.08321 3.70786 0
M  V30 19712 N 1795.89 -1.18905 1.03437 0
M  V30 19713 C 1797.14 -1.88055 0.729268 0
M  V30 19714 C 1797.45 -1.80833 -0.745564 0
M  V30 19715 O 1798.66 -2.45285 -1.16393 0
M  V30 19716 C 1797.12 -3.37341 1.25415 0
M  V30 19717 C 1796.72 -3.53107 2.75716 0
M  V30 19718 C 1798.47 -4.11932 1.02529 0
M  V30 19719 C 1796.37 -4.96317 3.21595 0
M  V30 19720 H 1795.3 -0.704345 0.269098 0
M  V30 19721 H 1797.96 -1.34397 1.24938 0
M  V30 19722 H 1796.34 -3.90429 0.661925 0
M  V30 19723 H 1797.51 -3.10322 3.40642 0
M  V30 19724 H 1795.83 -2.91913 2.96944 0
M  V30 19725 H 1798.42 -5.17552 1.34328 0
M  V30 19726 H 1798.77 -4.16283 -0.0377114 0
M  V30 19727 H 1799.3 -3.64998 1.5818 0
M  V30 19728 H 1796.04 -4.97131 4.27248 0
M  V30 19729 H 1795.56 -5.39842 2.61401 0
M  V30 19730 H 1797.24 -5.65 3.15253 0
M  V30 19731 N 1797.37 -0.812977 -1.35013 0
M  V30 19732 C 1798.59 -0.407969 -2.03348 0
M  V30 19733 C 1799.02 0.975148 -1.60849 0
M  V30 19734 O 1798.38 1.63267 -0.788256 0
M  V30 19735 C 1798.43 -0.506754 -3.57022 0
M  V30 19736 O 1797.53 0.477322 -4.09628 0
M  V30 19737 H 1796.87 -0.169416 -0.642023 0
M  V30 19738 H 1799.4 -1.10064 -1.72474 0
M  V30 19739 H 1799.41 -0.378883 -4.06237 0
M  V30 19740 H 1798.09 -1.51557 -3.87302 0
M  V30 19741 H 1796.66 0.309161 -3.71616 0
M  V30 19742 N 1798.85 1.47045 -0.567045 0
M  V30 19743 C 1799.78 2.28211 0.212726 0
M  V30 19744 C 1800.79 1.37591 0.870207 0
M  V30 19745 O 1801.98 1.62329 0.742404 0
M  V30 19746 C 1799.08 3.12155 1.31957 0
M  V30 19747 C 1798.25 4.30799 0.75701 0
M  V30 19748 C 1797.31 4.96262 1.74958 0
M  V30 19749 O 1796.34 5.54347 1.29181 0
M  V30 19750 N 1797.54 4.91848 3.08327 0
M  V30 19751 H 1800.31 2.95773 -0.483552 0
M  V30 19752 H 1797.87 1.56784 -0.403768 0
M  V30 19753 H 1799.86 3.52815 1.98252 0
M  V30 19754 H 1798.43 2.4677 1.91894 0
M  V30 19755 H 1797.65 3.94113 -0.0829881 0
M  V30 19756 H 1798.94 5.0752 0.360671 0
M  V30 19757 H 1798.34 4.45875 3.48155 0
M  V30 19758 H 1796.89 5.36497 3.70154 0
M  V30 19759 N 1800.33 0.304 1.5464 0
M  V30 19760 C 1801.26 -0.604475 2.21085 0
M  V30 19761 C 1802.27 -1.0952 1.20454 0
M  V30 19762 O 1803.46 -1.01214 1.47031 0
M  V30 19763 C 1800.56 -1.8399 2.84607 0
M  V30 19764 C 1799.73 -1.49116 4.11197 0
M  V30 19765 C 1798.79 -2.58205 4.58494 0
M  V30 19766 O 1797.82 -2.23171 5.23625 0
M  V30 19767 N 1799.02 -3.88798 4.31065 0
M  V30 19768 H 1801.78 -0.035633 2.99679 0
M  V30 19769 H 1799.35 0.126332 1.61406 0
M  V30 19770 H 1801.34 -2.56322 3.13179 0
M  V30 19771 H 1799.91 -2.31706 2.09836 0
M  V30 19772 H 1799.13 -0.600347 3.89602 0
M  V30 19773 H 1800.42 -1.23358 4.93619 0
M  V30 19774 H 1799.81 -4.20068 3.78892 0
M  V30 19775 H 1798.37 -4.57419 4.6434 0
M  V30 19776 N 1801.8 -1.57568 0.0317802 0
M  V30 19777 C 1803.03 -1.96212 -0.656401 0
M  V30 19778 C 1803.45 -0.908406 -1.6551 0
M  V30 19779 O 1802.8 0.109502 -1.82171 0
M  V30 19780 C 1802.85 -3.34924 -1.36044 0
M  V30 19781 O 1802.58 -4.36254 -0.401757 0
M  V30 19782 C 1804.08 -3.88215 -2.14019 0
M  V30 19783 H 1801.3 -0.646181 -0.180808 0
M  V30 19784 H 1803.84 -2.04291 0.0923341 0
M  V30 19785 H 1802 -3.28055 -2.06055 0
M  V30 19786 H 1802.41 -5.16686 -0.902005 0
M  V30 19787 H 1803.88 -4.87609 -2.5873 0
M  V30 19788 H 1804.36 -3.22602 -2.98034 0
M  V30 19789 H 1804.97 -3.98361 -1.4896 0
M  V30 19790 N 1803.28 0.241399 -1.5574 0
M  V30 19791 C 1804.23 1.29896 -1.90777 0
M  V30 19792 C 1805.2 1.47558 -0.76262 0
M  V30 19793 O 1806.38 1.61451 -1.01677 0
M  V30 19794 C 1803.52 2.6483 -2.21267 0
M  V30 19795 C 1802.64 2.5513 -3.48615 0
M  V30 19796 C 1801.77 3.82455 -3.68649 0
M  V30 19797 C 1800.81 3.67395 -4.89579 0
M  V30 19798 N 1799.95 4.86624 -5.06105 0
M  V30 19799 H 1804.79 0.993166 -2.80963 0
M  V30 19800 H 1802.33 0.47914 -1.39078 0
M  V30 19801 H 1804.28 3.4338 -2.36951 0
M  V30 19802 H 1802.91 2.93546 -1.34278 0
M  V30 19803 H 1801.97 1.6812 -3.41233 0
M  V30 19804 H 1803.28 2.39915 -4.37312 0
M  V30 19805 H 1802.43 4.69449 -3.84321 0
M  V30 19806 H 1801.17 4.00573 -2.78195 0
M  V30 19807 H 1800.18 2.78785 -4.73877 0
M  V30 19808 H 1801.4 3.50766 -5.81498 0
M  V30 19809 H 1799.35 5.05093 -4.18589 0
M  V30 19810 H 1799.26 4.7406 -5.889 0
M  V30 19811 H 1800.53 5.751 -5.26194 0
M  V30 19812 N 1804.76 1.49212 0.507292 0
M  V30 19813 C 1805.69 1.68326 1.61829 0
M  V30 19814 C 1806.67 0.531969 1.61568 0
M  V30 19815 O 1807.86 0.767104 1.78407 0
M  V30 19816 C 1804.99 1.74394 3.0034 0
M  V30 19817 C 1803.94 2.89251 3.15465 0
M  V30 19818 C 1803.27 2.80426 4.55264 0
M  V30 19819 C 1804.57 4.30269 2.96085 0
M  V30 19820 H 1806.26 2.6134 1.46087 0
M  V30 19821 H 1803.81 1.25765 0.701367 0
M  V30 19822 H 1805.76 1.86353 3.77956 0
M  V30 19823 H 1804.48 0.779748 3.17155 0
M  V30 19824 H 1803.14 2.76884 2.40272 0
M  V30 19825 H 1802.79 1.81928 4.68947 0
M  V30 19826 H 1802.49 3.57511 4.66326 0
M  V30 19827 H 1804.01 2.94384 5.34949 0
M  V30 19828 H 1805.43 4.4335 3.63475 0
M  V30 19829 H 1803.83 5.08527 3.18623 0
M  V30 19830 H 1804.9 4.45151 1.92272 0
M  V30 19831 N 1806.24 -0.757876 1.38181 0
M  V30 19832 C 1807.49 -1.51222 1.33472 0
M  V30 19833 C 1807.8 -1.9546 -0.0740525 0
M  V30 19834 O 1809.01 -2.70404 -0.243664 0
M  V30 19835 C 1807.46 -2.73138 2.34358 0
M  V30 19836 C 1807.07 -2.35943 3.80835 0
M  V30 19837 C 1808.81 -3.51041 2.38685 0
M  V30 19838 C 1806.72 -3.54444 4.73417 0
M  V30 19839 H 1805.65 -0.567789 0.496116 0
M  V30 19840 H 1808.3 -0.828861 1.63714 0
M  V30 19841 H 1806.68 -3.43433 1.97153 0
M  V30 19842 H 1807.86 -1.73341 4.26954 0
M  V30 19843 H 1806.17 -1.71184 3.79585 0
M  V30 19844 H 1808.77 -4.39143 3.05054 0
M  V30 19845 H 1809.11 -3.91892 1.40451 0
M  V30 19846 H 1809.65 -2.87755 2.74667 0
M  V30 19847 H 1806.39 -3.18663 5.7283 0
M  V30 19848 H 1805.91 -4.16103 4.31993 0
M  V30 19849 H 1807.58 -4.21081 4.91223 0
M  V30 19850 N 1807.72 -1.22979 -0.985586 0
M  V30 19851 C 1808.99 -0.967121 -1.70018 0
M  V30 19852 C 1809.37 0.515746 -2.04703 0
M  V30 19853 O 1808.72 1.48564 -1.73611 0
M  V30 19854 C 1808.93 -1.8721 -2.94539 0
M  V30 19855 C 1810.28 -2.13251 -3.67163 0
M  V30 19856 O 1811.3 -1.84718 -3.04562 0
M  V30 19857 O 1810.16 -2.61617 -4.79811 0
M  V30 19858 H 1807.26 -0.364318 -0.74243 0
M  V30 19859 H 1809.8 -1.33998 -1.04127 0
M  V30 19860 H 1808.57 -2.87478 -2.65465 0
M  V30 19861 H 1808.2 -1.50128 -3.68167 0
M  V30 19862 N 1809.19 1.18355 -1.04066 0
M  V30 19863 C 1810.44 1.88335 -0.744046 0
M  V30 19864 C 1810.77 1.80353 0.728219 0
M  V30 19865 O 1810.02 1.19839 1.54717 0
M  V30 19866 C 1810.32 3.38203 -1.15557 0
M  V30 19867 C 1809.99 3.66389 -2.62812 0
M  V30 19868 C 1808.65 3.73791 -3.03041 0
M  V30 19869 C 1811 3.78773 -3.58023 0
M  V30 19870 C 1808.33 3.91056 -4.37369 0
M  V30 19871 C 1810.68 3.97554 -4.92071 0
M  V30 19872 C 1809.35 4.03192 -5.3197 0
M  V30 19873 H 1808.62 0.689168 -0.272266 0
M  V30 19874 H 1811.26 1.40087 -1.30568 0
M  V30 19875 H 1809.57 3.8843 -0.512741 0
M  V30 19876 H 1811.27 3.90691 -0.903428 0
M  V30 19877 H 1807.86 3.61244 -2.30652 0
M  V30 19878 H 1812.04 3.72386 -3.28089 0
M  V30 19879 H 1807.3 3.93665 -4.67801 0
M  V30 19880 H 1811.47 4.06078 -5.65751 0
M  V30 19881 H 1809.1 4.16323 -6.36066 0
M  V30 19882 N 1810.67 0.820125 1.3458 0
M  V30 19883 C 1811.6 0.254709 2.32107 0
M  V30 19884 C 1812.58 -0.6273 1.58111 0
M  V30 19885 O 1813.77 -0.554759 1.86108 0
M  V30 19886 C 1810.9 -0.586541 3.42311 0
M  V30 19887 C 1809.85 0.198096 4.27541 0
M  V30 19888 C 1809.18 -0.765718 5.29189 0
M  V30 19889 C 1810.48 1.40472 5.03056 0
M  V30 19890 H 1812.17 1.06955 2.79644 0
M  V30 19891 H 1809.72 0.515756 1.34447 0
M  V30 19892 H 1811.67 -0.992259 4.09551 0
M  V30 19893 H 1810.4 -1.4344 2.93415 0
M  V30 19894 H 1809.05 0.585149 3.619 0
M  V30 19895 H 1808.7 -1.60946 4.76556 0
M  V30 19896 H 1808.4 -0.244954 5.87089 0
M  V30 19897 H 1809.93 -1.16935 5.99298 0
M  V30 19898 H 1811.34 1.07316 5.63166 0
M  V30 19899 H 1809.74 1.86092 5.70517 0
M  V30 19900 H 1810.81 2.18437 4.32913 0
M  V30 19901 N 1812.15 -1.46743 0.574835 0
M  V30 19902 C 1813.08 -2.2832 -0.20062 0
M  V30 19903 C 1814.1 -1.3805 -0.862898 0
M  V30 19904 O 1815.28 -1.6272 -0.733785 0
M  V30 19905 C 1812.38 -3.1285 -1.303 0
M  V30 19906 C 1811.56 -4.31195 -0.734153 0
M  V30 19907 C 1810.62 -4.97183 -1.72324 0
M  V30 19908 O 1809.64 -5.55025 -1.26239 0
M  V30 19909 N 1810.84 -4.93476 -3.05714 0
M  V30 19910 H 1813.61 -2.95513 0.499231 0
M  V30 19911 H 1811.17 -1.56568 0.412077 0
M  V30 19912 H 1813.16 -3.53861 -1.96378 0
M  V30 19913 H 1811.73 -2.47784 -1.90583 0
M  V30 19914 H 1810.95 -3.94063 0.103888 0
M  V30 19915 H 1812.24 -5.07704 -0.333751 0
M  V30 19916 H 1811.64 -4.47715 -3.45786 0
M  V30 19917 H 1810.2 -5.38453 -3.67304 0
M  V30 19918 N 1813.63 -0.312197 -1.54477 0
M  V30 19919 C 1814.59 0.54612 -2.22599 0
M  V30 19920 C 1815.59 1.05252 -1.21568 0
M  V30 19921 O 1816.78 0.946756 -1.46226 0
M  V30 19922 C 1813.91 1.75733 -2.92114 0
M  V30 19923 H 1815.11 -0.0492216 -2.9986 0
M  V30 19924 H 1812.66 -0.063149 -1.56172 0
M  V30 19925 H 1813.39 2.39221 -2.18961 0
M  V30 19926 H 1813.18 1.40175 -3.66188 0
M  V30 19927 H 1814.67 2.36685 -3.44049 0
M  V30 19928 N 1815.11 1.57549 -0.040136 0
M  V30 19929 C 1816.05 2.10879 0.938013 0
M  V30 19930 C 1817.02 1.01348 1.31597 0
M  V30 19931 O 1818.21 1.28832 1.40737 0
M  V30 19932 C 1815.35 2.64938 2.21138 0
M  V30 19933 C 1814.46 3.88516 1.88889 0
M  V30 19934 C 1813.6 4.3093 3.10601 0
M  V30 19935 C 1812.64 5.47237 2.74223 0
M  V30 19936 N 1811.77 5.84755 3.88594 0
M  V30 19937 H 1816.61 2.94169 0.476328 0
M  V30 19938 H 1814.15 1.45392 0.223503 0
M  V30 19939 H 1816.11 2.94375 2.95633 0
M  V30 19940 H 1814.74 1.84463 2.64903 0
M  V30 19941 H 1813.79 3.6574 1.04588 0
M  V30 19942 H 1815.1 4.7308 1.58103 0
M  V30 19943 H 1814.26 4.61861 3.93407 0
M  V30 19944 H 1812.99 3.45155 3.44557 0
M  V30 19945 H 1812 5.15988 1.89831 0
M  V30 19946 H 1813.22 6.34719 2.41472 0
M  V30 19947 H 1811.17 5.01935 4.22371 0
M  V30 19948 H 1811.09 6.63984 3.6147 0
M  V30 19949 H 1812.36 6.20297 4.72072 0
M  V30 19950 N 1816.58 -0.233136 1.55866 0
M  V30 19951 C 1817.52 -1.31564 1.86457 0
M  V30 19952 C 1818.5 -1.45747 0.720872 0
M  V30 19953 O 1819.68 -1.61744 0.968051 0
M  V30 19954 C 1816.81 -2.68745 2.0614 0
M  V30 19955 C 1815.85 -2.71639 3.28808 0
M  V30 19956 S 1816.69 -2.26866 4.85069 0
M  V30 19957 C 1817.84 -3.65945 5.07774 0
M  V30 19958 H 1818.07 -1.05419 2.77982 0
M  V30 19959 H 1815.61 -0.434809 1.48151 0
M  V30 19960 H 1817.57 -3.47728 2.18164 0
M  V30 19961 H 1816.23 -2.9212 1.15433 0
M  V30 19962 H 1815.42 -3.72418 3.39589 0
M  V30 19963 H 1815.02 -2.00711 3.15581 0
M  V30 19964 H 1817.31 -4.61549 4.95962 0
M  V30 19965 H 1818.26 -3.60088 6.09706 0
M  V30 19966 H 1818.66 -3.59096 4.35557 0
M  V30 19967 N 1818.06 -1.49479 -0.499372 0
M  V30 19968 C 1819.34 -1.4955 -1.26071 0
M  V30 19969 C 1819.72 -0.224142 -2.09907 0
M  V30 19970 O 1819.07 0.793432 -2.14282 0
M  V30 19971 C 1819.28 -2.77534 -2.11604 0
M  V30 19972 C 1820.63 -3.27088 -2.70738 0
M  V30 19973 O 1821.65 -2.78662 -2.2187 0
M  V30 19974 O 1820.51 -4.11432 -3.59703 0
M  V30 19975 H 1817.6 -0.598631 -0.570587 0
M  V30 19976 H 1820.15 -1.61744 -0.513509 0
M  V30 19977 H 1818.92 -3.61556 -1.49642 0
M  V30 19978 H 1818.54 -2.68208 -2.93514 0
M  V30 19979 N 1819.54 0.750537 -1.38581 0
M  V30 19980 C 1820.47 1.87411 -1.31946 0
M  V30 19981 C 1821.49 1.61151 -0.231101 0
M  V30 19982 O 1822.68 1.71674 -0.488893 0
M  V30 19983 C 1819.78 3.23112 -1.02233 0
M  V30 19984 C 1818.95 3.76852 -2.22039 0
M  V30 19985 C 1818.01 4.91077 -1.89023 0
M  V30 19986 O 1817.03 5.0555 -2.61549 0
M  V30 19987 N 1818.24 5.74287 -0.847021 0
M  V30 19988 H 1821 1.93613 -2.28767 0
M  V30 19989 H 1818.56 0.930603 -1.32482 0
M  V30 19990 H 1820.55 3.97074 -0.78193 0
M  V30 19991 H 1819.12 3.12277 -0.141981 0
M  V30 19992 H 1818.34 2.94421 -2.62126 0
M  V30 19993 H 1819.63 4.09489 -3.01987 0
M  V30 19994 H 1819.03 5.65166 -0.245635 0
M  V30 19995 H 1817.59 6.48383 -0.666505 0
M  V30 19996 N 1821.02 1.235 0.979051 0
M  V30 19997 C 1822.43 1.06263 1.53509 0
M  V30 19998 C 1822.78 -0.369594 1.92687 0
M  V30 19999 O 1821.91 -1.25649 1.76185 0
M  V30 20000 C 1822.5 1.92276 2.78954 0
M  V30 20001 C 1821.06 1.79296 3.30953 0
M  V30 20002 C 1820.21 1.87898 2.03935 0
M  V30 20003 H 1823.16 1.37143 0.798588 0
M  V30 20004 H 1823.18 1.44835 3.51857 0
M  V30 20005 H 1822.69 2.96509 2.50408 0
M  V30 20006 H 1820.79 0.778512 3.64376 0
M  V30 20007 H 1820.91 2.62755 4.0062 0
M  V30 20008 H 1819.27 1.31494 2.18131 0
M  V30 20009 H 1820.05 2.93689 1.77769 0
M  V30 20010 N 1822.5 -1.17802 1.04693 0
M  V30 20011 C 1823.46 -2.19854 0.647816 0
M  V30 20012 C 1824.46 -1.58013 -0.298081 0
M  V30 20013 O 1825.65 -1.74004 -0.0826309 0
M  V30 20014 C 1822.78 -3.40864 -0.0492661 0
M  V30 20015 H 1823.98 -2.56678 1.55101 0
M  V30 20016 H 1821.53 -1.31796 0.840215 0
M  V30 20017 H 1822.26 -3.0958 -0.965967 0
M  V30 20018 H 1822.05 -3.86995 0.630677 0
M  V30 20019 H 1823.54 -4.16412 -0.31479 0
M  V30 20020 N 1823.98 -0.827251 -1.34143 0
M  V30 20021 C 1824.92 -0.250166 -2.2944 0
M  V30 20022 C 1825.89 0.62749 -1.53791 0
M  V30 20023 O 1827.08 0.568218 -1.82143 0
M  V30 20024 C 1824.22 0.578392 -3.40219 0
M  V30 20025 C 1823.33 -0.321991 -4.30798 0
M  V30 20026 C 1822.47 0.51655 -5.28683 0
M  V30 20027 C 1821.5 -0.382949 -6.10901 0
M  V30 20028 N 1820.64 0.416774 -7.00862 0
M  V30 20029 H 1825.48 -1.06817 -2.78198 0
M  V30 20030 H 1823.02 -0.538245 -1.36899 0
M  V30 20031 H 1824.98 1.07414 -4.03135 0
M  V30 20032 H 1823.61 1.36147 -2.92684 0
M  V30 20033 H 1822.66 -0.935979 -3.68705 0
M  V30 20034 H 1823.97 -1.01346 -4.88396 0
M  V30 20035 H 1823.12 1.0766 -5.97071 0
M  V30 20036 H 1821.86 1.2415 -4.71633 0
M  V30 20037 H 1820.87 -0.955103 -5.41441 0
M  V30 20038 H 1822.09 -1.10609 -6.70032 0
M  V30 20039 H 1820.04 1.12532 -6.46276 0
M  V30 20040 H 1819.96 -0.216217 -7.55691 0
M  V30 20041 H 1821.22 0.959432 -7.73573 0
M  V30 20042 N 1825.45 1.46436 -0.582609 0
M  V30 20043 C 1826.4 2.30308 0.150697 0
M  V30 20044 C 1827.37 1.40611 0.884185 0
M  V30 20045 O 1828.56 1.6956 0.874874 0
M  V30 20046 C 1825.7 3.25074 1.15847 0
M  V30 20047 C 1824.81 4.2987 0.428442 0
M  V30 20048 C 1823.94 5.11765 1.42373 0
M  V30 20049 C 1822.98 6.0831 0.680103 0
M  V30 20050 N 1822.12 6.83073 1.62345 0
M  V30 20051 H 1826.96 2.92487 -0.570583 0
M  V30 20052 H 1824.5 1.44148 -0.293195 0
M  V30 20053 H 1826.45 3.78462 1.75563 0
M  V30 20054 H 1825.08 2.64704 1.84747 0
M  V30 20055 H 1824.14 3.7934 -0.283744 0
M  V30 20056 H 1825.45 4.98566 -0.15291 0
M  V30 20057 H 1824.6 5.69429 2.09369 0
M  V30 20058 H 1823.34 4.4303 2.03902 0
M  V30 20059 H 1822.35 5.498 -0.00363067 0
M  V30 20060 H 1823.57 6.79064 0.0702152 0
M  V30 20061 H 1821.52 6.17048 2.22684 0
M  V30 20062 H 1821.43 7.48029 1.0949 0
M  V30 20063 H 1822.7 7.45295 2.28376 0
M  V30 20064 N 1826.93 0.320385 1.54309 0
M  V30 20065 C 1827.88 -0.547011 2.24224 0
M  V30 20066 C 1828.85 -1.11419 1.23187 0
M  V30 20067 O 1830.03 -1.15513 1.5186 0
M  V30 20068 C 1827.17 -1.70359 3.0012 0
M  V30 20069 C 1826.29 -1.16594 4.15968 0
M  V30 20070 C 1825.42 -2.28795 4.79402 0
M  V30 20071 C 1824.46 -1.72263 5.8736 0
M  V30 20072 N 1823.6 -2.78113 6.44668 0
M  V30 20073 H 1828.44 0.0557725 2.97948 0
M  V30 20074 H 1825.97 0.0392956 1.47048 0
M  V30 20075 H 1827.93 -2.38413 3.42367 0
M  V30 20076 H 1826.56 -2.27771 2.28736 0
M  V30 20077 H 1825.61 -0.377054 3.78527 0
M  V30 20078 H 1826.93 -0.712254 4.93689 0
M  V30 20079 H 1826.08 -3.04759 5.24601 0
M  V30 20080 H 1824.82 -2.77499 4.01056 0
M  V30 20081 H 1823.82 -0.947951 5.41566 0
M  V30 20082 H 1825.05 -1.2444 6.67601 0
M  V30 20083 H 1823 -3.26115 5.69197 0
M  V30 20084 H 1822.91 -2.37298 7.17792 0
M  V30 20085 H 1824.18 -3.53916 6.94524 0
M  V30 20086 N 1828.41 -1.57525 0.0484906 0
M  V30 20087 C 1829.36 -2.11374 -0.926816 0
M  V30 20088 C 1830.33 -1.02045 -1.31058 0
M  V30 20089 O 1831.51 -1.29577 -1.40052 0
M  V30 20090 C 1828.65 -2.66107 -2.19729 0
M  V30 20091 C 1827.76 -3.89513 -1.86826 0
M  V30 20092 C 1826.9 -4.32571 -3.08312 0
M  V30 20093 C 1825.94 -5.48684 -2.71317 0
M  V30 20094 N 1825.08 -5.86808 -3.85488 0
M  V30 20095 H 1829.92 -2.94417 -0.460721 0
M  V30 20096 H 1827.45 -1.45509 -0.215789 0
M  V30 20097 H 1829.41 -2.95939 -2.94068 0
M  V30 20098 H 1828.04 -1.85865 -2.63921 0
M  V30 20099 H 1827.09 -3.66289 -1.02647 0
M  V30 20100 H 1828.4 -4.73912 -1.55592 0
M  V30 20101 H 1827.56 -4.63941 -3.90952 0
M  V30 20102 H 1826.3 -3.46978 -3.42721 0
M  V30 20103 H 1825.3 -5.16988 -1.87092 0
M  V30 20104 H 1826.53 -6.35991 -2.38102 0
M  V30 20105 H 1824.47 -5.04168 -4.19703 0
M  V30 20106 H 1824.39 -6.65892 -3.57944 0
M  V30 20107 H 1825.66 -6.22792 -4.68776 0
M  V30 20108 N 1829.89 0.224867 -1.55988 0
M  V30 20109 C 1831.14 0.947871 -1.78493 0
M  V30 20110 C 1831.46 1.85001 -0.616413 0
M  V30 20111 O 1830.73 1.92435 0.366847 0
M  V30 20112 H 1829.31 0.352987 -0.658338 0
M  V30 20113 H 1831.97 0.237519 -1.93447 0
M  V30 20114 H 1831.06 1.55664 -2.70509 0
M  V30 20115 N 1831.37 1.49742 0.491438 0
M  V30 20116 C 1832.3 1.70033 1.60034 0
M  V30 20117 C 1833.28 0.549076 1.60994 0
M  V30 20118 O 1834.46 0.785983 1.77584 0
M  V30 20119 C 1831.59 1.7757 2.98473 0
M  V30 20120 C 1830.55 2.9258 3.12379 0
M  V30 20121 C 1829.87 2.85239 4.52264 0
M  V30 20122 C 1831.17 4.33385 2.91504 0
M  V30 20123 H 1832.87 2.62875 1.43307 0
M  V30 20124 H 1830.41 1.26502 0.687989 0
M  V30 20125 H 1832.36 1.90351 3.75958 0
M  V30 20126 H 1831.09 0.813343 3.1631 0
M  V30 20127 H 1829.75 2.79417 2.37322 0
M  V30 20128 H 1829.4 1.86892 4.66991 0
M  V30 20129 H 1829.1 3.62437 4.62508 0
M  V30 20130 H 1830.62 3.00041 5.31797 0
M  V30 20131 H 1832.03 4.4718 3.58752 0
M  V30 20132 H 1830.43 5.11878 3.13211 0
M  V30 20133 H 1831.5 4.47166 1.87539 0
M  V30 20134 N 1832.84 -0.743177 1.38977 0
M  V30 20135 C 1834.09 -1.50256 1.35755 0
M  V30 20136 C 1834.42 -1.94438 -0.0491287 0
M  V30 20137 O 1833.67 -1.66505 -1.02834 0
M  V30 20138 C 1833.97 -2.76157 2.26874 0
M  V30 20139 C 1833.64 -2.50885 3.74657 0
M  V30 20140 C 1832.3 -2.43702 4.14925 0
M  V30 20141 C 1834.65 -2.29075 4.6816 0
M  V30 20142 C 1831.98 -2.12738 5.46772 0
M  V30 20143 C 1834.33 -1.9963 6.00275 0
M  V30 20144 C 1833 -1.9091 6.39617 0
M  V30 20145 H 1832.27 -0.549827 0.496761 0
M  V30 20146 H 1834.91 -0.85369 1.71419 0
M  V30 20147 H 1833.22 -3.45746 1.84301 0
M  V30 20148 H 1834.92 -3.34155 2.21679 0
M  V30 20149 H 1831.51 -2.57351 3.42737 0
M  V30 20150 H 1835.69 -2.33597 4.37888 0
M  V30 20151 H 1830.95 -2.04504 5.76184 0
M  V30 20152 H 1835.12 -1.8176 6.72262 0
M  V30 20153 H 1832.75 -1.66683 7.41701 0
M  V30 20154 N 1834.32 -1.24018 -0.972487 0
M  V30 20155 C 1835.55 -1.10483 -1.75523 0
M  V30 20156 C 1835.97 0.338985 -1.8502 0
M  V30 20157 O 1835.33 1.24534 -1.31761 0
M  V30 20158 C 1835.38 -1.74396 -3.15624 0
M  V30 20159 O 1834.48 -1.01148 -3.99804 0
M  V30 20160 H 1833.82 -0.386777 -0.539722 0
M  V30 20161 H 1836.35 -1.64231 -1.22022 0
M  V30 20162 H 1836.36 -1.79958 -3.66168 0
M  V30 20163 H 1835.04 -2.7945 -3.08026 0
M  V30 20164 H 1833.62 -1.03338 -3.58296 0
M  V30 20165 N 1835.8 1.17245 -1.05316 0
M  V30 20166 C 1837.22 1.39535 -0.774741 0
M  V30 20167 C 1837.42 1.91388 0.63031 0
M  V30 20168 O 1836.47 2.10631 1.39251 0
M  V30 20169 C 1837.79 2.38497 -1.83139 0
M  V30 20170 C 1839.33 2.52201 -1.85375 0
M  V30 20171 C 1839.81 3.54437 -2.90066 0
M  V30 20172 N 1841.3 3.61956 -2.89037 0
M  V30 20173 C 1842.03 4.40824 -3.66691 0
M  V30 20174 N 1841.53 5.23196 -4.54134 0
M  V30 20175 N 1843.32 4.35709 -3.55125 0
M  V30 20176 H 1835.47 0.819186 -1.95967 0
M  V30 20177 H 1837.74 0.422515 -0.848637 0
M  V30 20178 H 1837.44 2.07471 -2.83987 0
M  V30 20179 H 1837.32 3.38016 -1.67407 0
M  V30 20180 H 1839.7 2.82536 -0.851904 0
M  V30 20181 H 1839.79 1.52751 -2.05184 0
M  V30 20182 H 1839.43 3.2484 -3.90437 0
M  V30 20183 H 1839.36 4.53593 -2.67508 0
M  V30 20184 H 1841.85 3.03146 -2.25635 0
M  V30 20185 H 1842.16 5.80562 -5.10067 0
M  V30 20186 H 1840.51 5.22573 -4.58194 0
M  V30 20187 H 1843.7 3.70411 -2.86205 0
M  V30 20188 H 1843.87 4.9693 -4.1589 0
M  V30 20189 N 1837.28 0.834353 1.33702 0
M  V30 20190 C 1838.69 0.52156 1.50837 0
M  V30 20191 C 1838.89 -0.95203 1.77591 0
M  V30 20192 O 1837.95 -1.73603 1.83353 0
M  V30 20193 C 1839.26 1.39099 2.66593 0
M  V30 20194 C 1840.81 1.3893 2.80477 0
M  V30 20195 C 1841.29 2.24347 3.9929 0
M  V30 20196 N 1842.78 2.22032 4.06517 0
M  V30 20197 C 1843.51 2.84865 4.97634 0
M  V30 20198 N 1843.01 3.56732 5.93897 0
M  V30 20199 N 1844.8 2.74359 4.90595 0
M  V30 20200 H 1836.95 1.78832 1.14598 0
M  V30 20201 H 1839.22 0.762708 0.563011 0
M  V30 20202 H 1838.92 2.43795 2.53489 0
M  V30 20203 H 1838.8 1.06381 3.61888 0
M  V30 20204 H 1841.18 0.350069 2.93016 0
M  V30 20205 H 1841.26 1.75652 1.85957 0
M  V30 20206 H 1840.91 3.28326 3.8751 0
M  V30 20207 H 1840.84 1.84969 4.93046 0
M  V30 20208 H 1843.33 1.69765 3.37621 0
M  V30 20209 H 1843.64 4.01893 6.60077 0
M  V30 20210 H 1841.99 3.6084 5.93986 0
M  V30 20211 H 1845.18 2.17779 4.14355 0
M  V30 20212 H 1845.35 3.23612 5.61408 0
M  V30 20213 N 1838.76 -1.46125 0.590367 0
M  V30 20214 C 1839.7 -2.30384 -0.138481 0
M  V30 20215 C 1840.67 -1.41078 -0.876715 0
M  V30 20216 O 1841.86 -1.70022 -0.86587 0
M  V30 20217 C 1839 -3.25684 -1.14122 0
M  V30 20218 C 1838.11 -4.30091 -0.405639 0
M  V30 20219 C 1837.25 -5.12513 -1.39657 0
M  V30 20220 C 1836.29 -6.08662 -0.647833 0
M  V30 20221 N 1835.42 -6.83924 -1.5872 0
M  V30 20222 H 1840.26 -2.9218 0.586086 0
M  V30 20223 H 1837.8 -1.43991 0.300835 0
M  V30 20224 H 1839.76 -3.79388 -1.73553 0
M  V30 20225 H 1838.39 -2.6568 -1.8334 0
M  V30 20226 H 1837.44 -3.79184 0.303858 0
M  V30 20227 H 1838.75 -4.98477 0.179348 0
M  V30 20228 H 1837.91 -5.70531 -2.06346 0
M  V30 20229 H 1836.64 -4.44105 -2.01549 0
M  V30 20230 H 1835.65 -5.4979 0.0327878 0
M  V30 20231 H 1836.87 -6.79091 -0.0342018 0
M  V30 20232 H 1834.82 -6.1822 -2.19408 0
M  V30 20233 H 1834.74 -7.48599 -1.05522 0
M  V30 20234 H 1836.01 -7.46496 -2.2442 0
M  V30 20235 N 1840.23 -0.328564 -1.54137 0
M  V30 20236 C 1841.14 0.543922 -2.28207 0
M  V30 20237 C 1842.16 1.1249 -1.32748 0
M  V30 20238 O 1843.34 1.1438 -1.65769 0
M  V30 20239 C 1840.4 1.6864 -3.02922 0
M  V30 20240 C 1839.46 1.13672 -4.13977 0
M  V30 20241 C 1838.7 2.22474 -4.85119 0
M  V30 20242 O 1838.92 3.42914 -4.55813 0
M  V30 20243 O 1837.85 1.87611 -5.71914 0
M  V30 20244 H 1841.68 -0.0577601 -3.03645 0
M  V30 20245 H 1839.26 -0.0940895 -1.49103 0
M  V30 20246 H 1841.15 2.35143 -3.49693 0
M  V30 20247 H 1839.82 2.27417 -2.30355 0
M  V30 20248 H 1838.73 0.436625 -3.71543 0
M  V30 20249 H 1840.06 0.594012 -4.88602 0
M  V30 20250 N 1841.71 1.57497 -0.0568439 0
M  V30 20251 C 1842.99 1.84277 0.655847 0
M  V30 20252 C 1843.37 0.94638 1.88698 0
M  V30 20253 O 1842.72 0.00884889 2.28498 0
M  V30 20254 C 1842.93 3.34134 1.00775 0
M  V30 20255 C 1844.28 4.01286 1.38763 0
M  V30 20256 O 1845.3 3.38792 1.09992 0
M  V30 20257 O 1844.16 5.11482 1.92479 0
M  V30 20258 H 1841.25 0.760773 0.324275 0
M  V30 20259 H 1843.8 1.69479 -0.0866388 0
M  V30 20260 H 1842.57 3.91075 0.132718 0
M  V30 20261 H 1842.19 3.5414 1.80749 0
M  V30 20262 N 1843.19 -0.216591 1.56105 0
M  V30 20263 C 1844.6 -0.783161 1.6948 0
M  V30 20264 C 1844.95 -1.84776 0.659716 0
M  V30 20265 O 1844.08 -2.1558 -0.188184 0
M  V30 20266 C 1844.67 -1.42733 3.07267 0
M  V30 20267 C 1843.23 -1.94123 3.2248 0
M  V30 20268 C 1842.38 -0.803216 2.65412 0
M  V30 20269 H 1845.33 0.00814542 1.58698 0
M  V30 20270 H 1845.35 -2.29627 3.034 0
M  V30 20271 H 1844.86 -0.652264 3.8258 0
M  V30 20272 H 1842.96 -2.74416 2.52045 0
M  V30 20273 H 1843.08 -2.1178 4.29751 0
M  V30 20274 H 1841.44 -1.21185 2.24023 0
M  V30 20275 H 1842.22 -0.0407398 3.43276 0
M  V30 20276 N 1844.67 -1.5 -0.48349 0
M  V30 20277 C 1845.63 -1.6742 -1.56535 0
M  V30 20278 C 1846.63 -0.545311 -1.51271 0
M  V30 20279 O 1847.82 -0.812112 -1.54112 0
M  V30 20280 C 1844.95 -1.6879 -2.9618 0
M  V30 20281 H 1846.15 -2.6393 -1.42412 0
M  V30 20282 H 1843.7 -1.39295 -0.708991 0
M  V30 20283 H 1844.43 -0.739285 -3.15761 0
M  V30 20284 H 1844.22 -2.50789 -3.01408 0
M  V30 20285 H 1845.71 -1.84264 -3.74749 0
M  V30 20286 N 1846.15 0.735796 -1.39369 0
M  V30 20287 C 1847.08 1.86303 -1.4076 0
M  V30 20288 C 1848.06 1.67926 -0.27107 0
M  V30 20289 O 1849.24 1.88257 -0.476773 0
M  V30 20290 C 1846.37 3.24043 -1.24955 0
M  V30 20291 C 1845.33 3.57055 -2.35999 0
M  V30 20292 C 1844.65 4.93723 -2.05284 0
M  V30 20293 C 1845.95 3.60109 -3.7831 0
M  V30 20294 H 1847.65 1.85396 -2.35093 0
M  V30 20295 H 1845.19 0.890552 -1.1316 0
M  V30 20296 H 1847.15 4.02574 -1.24549 0
M  V30 20297 H 1845.87 3.25475 -0.270902 0
M  V30 20298 H 1844.53 2.80853 -2.35621 0
M  V30 20299 H 1844.18 4.91734 -1.05859 0
M  V30 20300 H 1843.88 5.16779 -2.79667 0
M  V30 20301 H 1845.4 5.74612 -2.06527 0
M  V30 20302 H 1846.81 4.28718 -3.80622 0
M  V30 20303 H 1845.21 3.94683 -4.52046 0
M  V30 20304 H 1846.28 2.59932 -4.09345 0
M  V30 20305 N 1847.63 1.24532 0.965897 0
M  V30 20306 C 1849.04 1.07886 1.52373 0
M  V30 20307 C 1849.39 -0.349136 1.93069 0
M  V30 20308 O 1848.51 -1.23774 1.77508 0
M  V30 20309 C 1849.11 1.95224 2.76899 0
M  V30 20310 C 1847.67 1.82796 3.29033 0
M  V30 20311 C 1846.81 1.9005 2.01931 0
M  V30 20312 H 1849.76 1.37982 0.783997 0
M  V30 20313 H 1849.79 1.48558 3.50301 0
M  V30 20314 H 1849.3 2.99148 2.47249 0
M  V30 20315 H 1847.4 0.817115 3.6353 0
M  V30 20316 H 1847.51 2.66989 3.97811 0
M  V30 20317 H 1845.88 1.338 2.16725 0
M  V30 20318 H 1846.66 2.95558 1.74644 0
M  V30 20319 N 1849.1 -1.16685 1.05936 0
M  V30 20320 C 1850.33 -1.91035 0.794553 0
M  V30 20321 C 1850.75 -1.77234 -0.650663 0
M  V30 20322 O 1850.1 -1.11454 -1.44514 0
M  V30 20323 C 1850.15 -3.41859 1.17536 0
M  V30 20324 O 1849.88 -3.55243 2.56386 0
M  V30 20325 C 1851.38 -4.33267 0.937774 0
M  V30 20326 H 1848.6 -0.605896 0.288325 0
M  V30 20327 H 1851.14 -1.47925 1.41203 0
M  V30 20328 H 1849.3 -3.82686 0.602486 0
M  V30 20329 H 1849.71 -4.48744 2.71531 0
M  V30 20330 H 1851.18 -5.3757 1.25389 0
M  V30 20331 H 1851.66 -4.39017 -0.126673 0
M  V30 20332 H 1852.27 -3.98163 1.49486 0
M  V30 20333 N 1850.58 -0.841432 -1.33258 0
M  V30 20334 C 1851.51 -0.233859 -2.28004 0
M  V30 20335 C 1852.53 0.586872 -1.51854 0
M  V30 20336 O 1853.72 0.413523 -1.73644 0
M  V30 20337 C 1850.82 0.68919 -3.31818 0
M  V30 20338 C 1849.99 -0.0927681 -4.37302 0
M  V30 20339 C 1849.05 0.754015 -5.2077 0
M  V30 20340 O 1848.07 0.192293 -5.68875 0
M  V30 20341 N 1849.28 2.07095 -5.42302 0
M  V30 20342 H 1852.04 -1.04794 -2.80782 0
M  V30 20343 H 1849.6 -0.70014 -1.45978 0
M  V30 20344 H 1851.59 1.26071 -3.84562 0
M  V30 20345 H 1850.16 1.40397 -2.79298 0
M  V30 20346 H 1849.38 -0.845677 -3.85022 0
M  V30 20347 H 1850.67 -0.63036 -5.0488 0
M  V30 20348 H 1850.07 2.55082 -5.04925 0
M  V30 20349 H 1848.63 2.5909 -5.98093 0
M  V30 20350 N 1852.06 1.4581 -0.598108 0
M  V30 20351 C 1853.31 2.02601 -0.089744 0
M  V30 20352 C 1853.64 1.46673 1.27282 0
M  V30 20353 O 1852.91 0.637735 1.83748 0
M  V30 20354 C 1853.2 3.60077 -0.0405712 0
M  V30 20355 C 1853.05 4.26358 -1.43313 0
M  V30 20356 C 1854.37 4.35241 0.652164 0
M  V30 20357 H 1851.49 0.736211 -0.0340865 0
M  V30 20358 H 1854.13 1.73775 -0.768263 0
M  V30 20359 H 1852.28 3.84767 0.537251 0
M  V30 20360 H 1853.95 4.12884 -2.0573 0
M  V30 20361 H 1852.19 3.85125 -1.99653 0
M  V30 20362 H 1852.87 5.35211 -1.35105 0
M  V30 20363 H 1855.34 4.15788 0.161128 0
M  V30 20364 H 1854.22 5.4497 0.655646 0
M  V30 20365 H 1854.48 4.07419 1.71646 0
M  V30 20366 N 1853.54 0.336733 1.53961 0
M  V30 20367 C 1854.95 -0.148599 1.86108 0
M  V30 20368 C 1855.3 -1.50551 1.25812 0
M  V30 20369 O 1854.42 -2.08782 0.569109 0
M  V30 20370 C 1855.02 -0.276413 3.37671 0
M  V30 20371 C 1853.58 -0.705973 3.6972 0
M  V30 20372 C 1852.73 0.164407 2.76812 0
M  V30 20373 H 1855.68 0.556568 1.4862 0
M  V30 20374 H 1855.7 -1.10509 3.64099 0
M  V30 20375 H 1855.21 0.711315 3.81526 0
M  V30 20376 H 1853.31 -1.70297 3.31406 0
M  V30 20377 H 1853.42 -0.500591 4.76478 0
M  V30 20378 H 1851.79 -0.362166 2.52112 0
M  V30 20379 H 1852.57 1.14914 3.23496 0
M  V30 20380 N 1855.02 -1.57465 0.0651956 0
M  V30 20381 C 1855.95 -2.15374 -0.902018 0
M  V30 20382 C 1856.93 -1.07904 -1.31494 0
M  V30 20383 O 1858.11 -1.35909 -1.38717 0
M  V30 20384 C 1855.24 -2.71005 -2.17195 0
M  V30 20385 C 1854.2 -3.83583 -1.89864 0
M  V30 20386 C 1853.52 -4.25789 -3.23432 0
M  V30 20387 C 1854.82 -5.08112 -1.20913 0
M  V30 20388 H 1856.52 -2.96445 -0.419631 0
M  V30 20389 H 1854.06 -1.42599 -0.200401 0
M  V30 20390 H 1856.01 -3.1016 -2.8527 0
M  V30 20391 H 1854.74 -1.87146 -2.67664 0
M  V30 20392 H 1853.4 -3.44921 -1.24197 0
M  V30 20393 H 1853.05 -3.38861 -3.71729 0
M  V30 20394 H 1852.75 -5.01673 -3.05938 0
M  V30 20395 H 1854.27 -4.67555 -3.92715 0
M  V30 20396 H 1855.68 -5.44624 -1.79046 0
M  V30 20397 H 1854.08 -5.8923 -1.137 0
M  V30 20398 H 1855.15 -4.84538 -0.187224 0
M  V30 20399 N 1856.49 0.20831 -1.56217 0
M  V30 20400 C 1857.43 1.28196 -1.89996 0
M  V30 20401 C 1858.44 1.42381 -0.789394 0
M  V30 20402 O 1859.63 1.43043 -1.06776 0
M  V30 20403 C 1856.73 2.65588 -2.10514 0
M  V30 20404 C 1855.9 2.73181 -3.416 0
M  V30 20405 C 1854.96 3.91678 -3.5139 0
M  V30 20406 O 1853.99 3.79397 -4.24319 0
M  V30 20407 N 1855.19 5.06562 -2.83505 0
M  V30 20408 H 1857.95 0.995403 -2.82687 0
M  V30 20409 H 1855.51 0.398294 -1.56924 0
M  V30 20410 H 1857.51 3.43264 -2.14365 0
M  V30 20411 H 1856.08 2.86788 -1.24385 0
M  V30 20412 H 1855.3 1.81881 -3.49733 0
M  V30 20413 H 1856.58 2.75234 -4.27929 0
M  V30 20414 H 1855.98 5.19437 -2.24056 0
M  V30 20415 H 1854.54 5.82232 -2.93 0
M  V30 20416 N 1857.97 1.50255 0.475528 0
M  V30 20417 C 1859.2 1.64532 1.24951 0
M  V30 20418 C 1859.61 0.326223 1.86366 0
M  V30 20419 O 1858.95 -0.701313 1.69786 0
M  V30 20420 C 1859.01 2.67528 2.40143 0
M  V30 20421 C 1858.68 4.11204 1.99399 0
M  V30 20422 C 1859.68 4.97213 1.51906 0
M  V30 20423 C 1857.36 4.57094 2.08256 0
M  V30 20424 C 1859.35 6.27158 1.13805 0
M  V30 20425 C 1857.04 5.87046 1.69766 0
M  V30 20426 C 1858.04 6.71903 1.22618 0
M  V30 20427 O 1857.73 7.9943 0.846604 0
M  V30 20428 H 1857.46 0.556201 0.384209 0
M  V30 20429 H 1860.01 1.972 0.574555 0
M  V30 20430 H 1858.24 2.30094 3.10795 0
M  V30 20431 H 1859.93 2.71072 3.02117 0
M  V30 20432 H 1860.7 4.62977 1.44489 0
M  V30 20433 H 1856.58 3.91194 2.43903 0
M  V30 20434 H 1860.12 6.93345 0.769334 0
M  V30 20435 H 1856.02 6.20804 1.76841 0
M  V30 20436 H 1856.79 8.12662 0.975845 0
M  V30 20437 N 1859.45 -0.728395 1.39758 0
M  V30 20438 C 1860.4 -1.8638 1.39158 0
M  V30 20439 C 1861.39 -1.67173 0.273806 0
M  V30 20440 O 1862.6 -1.74433 0.444184 0
M  V30 20441 H 1858.97 -0.61363 0.434698 0
M  V30 20442 H 1860.94 -1.84002 2.34917 0
M  V30 20443 C 1859.69 -3.24127 1.25845 0
M  V30 20444 H 1859.02 -3.39507 2.11129 0
M  V30 20445 H 1860.46 -4.03745 1.29484 0
M  V30 20446 C 1858.91 -3.36884 -0.0325277 0
M  V30 20447 O 1859.44 -3.89047 -1.00026 0
M  V30 20448 N 1857.65 -2.90435 -0.0977834 0
M  V30 20449 H 1857.2 -2.48175 0.690438 0
M  V30 20450 H 1857.16 -2.99351 -0.961066 0
M  V30 20451 N 1860.93 -1.25042 -0.959279 0
M  V30 20452 C 1861.84 -1.06749 -2.08906 0
M  V30 20453 C 1862.85 -0.00591805 -1.73999 0
M  V30 20454 O 1864.03 -0.205876 -2.00345 0
M  V30 20455 C 1861.09 -0.683353 -3.39899 0
M  V30 20456 C 1860.16 -1.82235 -3.88702 0
M  V30 20457 C 1859.39 -1.45644 -5.13443 0
M  V30 20458 O 1859.61 -0.350012 -5.69325 0
M  V30 20459 O 1858.55 -2.28502 -5.5684 0
M  V30 20460 H 1862.37 -2.01485 -2.27238 0
M  V30 20461 H 1859.96 -1.03938 -1.07318 0
M  V30 20462 H 1861.84 -0.481036 -4.18645 0
M  V30 20463 H 1860.51 0.234796 -3.22847 0
M  V30 20464 H 1859.42 -2.07948 -3.10979 0
M  V30 20465 H 1860.75 -2.71957 -4.10244 0
M  V30 20466 N 1862.41 1.16121 -1.06553 0
M  V30 20467 C 1863.34 2.22761 -0.699976 0
M  V30 20468 C 1864.32 1.67274 0.308783 0
M  V30 20469 O 1865.5 1.93333 0.183328 0
M  V30 20470 C 1862.63 3.47187 -0.0884044 0
M  V30 20471 C 1861.59 4.15584 -1.02343 0
M  V30 20472 C 1860.91 5.33992 -0.275022 0
M  V30 20473 C 1862.21 4.66266 -2.35358 0
M  V30 20474 H 1863.91 2.53595 -1.59153 0
M  V30 20475 H 1861.45 1.21893 -0.766686 0
M  V30 20476 H 1863.41 4.21019 0.17922 0
M  V30 20477 H 1862.13 3.15661 0.838181 0
M  V30 20478 H 1860.79 3.43683 -1.27584 0
M  V30 20479 H 1860.44 4.9872 0.654765 0
M  V30 20480 H 1860.14 5.80695 -0.898181 0
M  V30 20481 H 1861.66 6.10598 -0.0150056 0
M  V30 20482 H 1863.07 5.31665 -2.14488 0
M  V30 20483 H 1861.47 5.236 -2.93195 0
M  V30 20484 H 1862.54 3.82335 -2.98241 0
M  V30 20485 N 1863.88 0.848487 1.3281 0
M  V30 20486 C 1864.83 0.286636 2.29013 0
M  V30 20487 C 1865.8 -0.602944 1.5477 0
M  V30 20488 O 1866.99 -0.539169 1.83024 0
M  V30 20489 C 1864.13 -0.524193 3.41096 0
M  V30 20490 C 1863.24 0.390486 4.30232 0
M  V30 20491 C 1862.37 -0.432376 5.29437 0
M  V30 20492 C 1861.41 0.48009 6.10214 0
M  V30 20493 N 1860.55 -0.30522 7.01436 0
M  V30 20494 H 1865.39 1.1123 2.76463 0
M  V30 20495 H 1862.93 0.559956 1.36025 0
M  V30 20496 H 1864.89 -1.00987 4.04793 0
M  V30 20497 H 1863.52 -1.31474 2.94813 0
M  V30 20498 H 1862.57 0.994518 3.6717 0
M  V30 20499 H 1863.88 1.09103 4.86722 0
M  V30 20500 H 1863.03 -0.981471 5.98709 0
M  V30 20501 H 1861.77 -1.16631 4.73549 0
M  V30 20502 H 1860.78 1.04112 5.39853 0
M  V30 20503 H 1862 1.21254 6.68187 0
M  V30 20504 H 1859.95 -1.02236 6.47984 0
M  V30 20505 H 1859.87 0.336414 7.55251 0
M  V30 20506 H 1861.13 -0.836242 7.75001 0
M  V30 20507 N 1865.36 -1.4549 0.605832 0
M  V30 20508 C 1866.29 -2.3328 -0.101377 0
M  V30 20509 C 1867.27 -1.46727 -0.860543 0
M  V30 20510 O 1868.46 -1.75501 -0.831441 0
M  V30 20511 C 1865.59 -3.29403 -1.1005 0
M  V30 20512 C 1864.54 -4.25578 -0.45466 0
M  V30 20513 C 1863.87 -5.11379 -1.5619 0
M  V30 20514 C 1865.17 -5.18571 0.623028 0
M  V30 20515 H 1866.86 -2.92661 0.631653 0
M  V30 20516 H 1864.41 -1.40728 0.305208 0
M  V30 20517 H 1866.36 -3.89688 -1.60379 0
M  V30 20518 H 1865.09 -2.68177 -1.8641 0
M  V30 20519 H 1863.74 -3.66589 0.027752 0
M  V30 20520 H 1863.39 -4.46523 -2.31574 0
M  V30 20521 H 1863.09 -5.76528 -1.13529 0
M  V30 20522 H 1864.62 -5.74532 -2.0675 0
M  V30 20523 H 1866.03 -5.72937 0.203881 0
M  V30 20524 H 1864.43 -5.92187 0.971292 0
M  V30 20525 H 1865.5 -4.61106 1.50032 0
M  V30 20526 N 1866.84 -0.344893 -1.5378 0
M  V30 20527 C 1867.8 0.498781 -2.23707 0
M  V30 20528 C 1868.8 1.02649 -1.23773 0
M  V30 20529 O 1869.99 0.915526 -1.48202 0
M  V30 20530 C 1867.13 1.69497 -2.95776 0
M  V30 20531 H 1868.32 -0.112815 -2.99688 0
M  V30 20532 H 1865.87 -0.0962613 -1.56003 0
M  V30 20533 H 1866.61 2.34522 -2.23986 0
M  V30 20534 H 1866.39 1.32376 -3.69079 0
M  V30 20535 H 1867.88 2.29334 -3.48992 0
M  V30 20536 N 1868.32 1.57428 -0.0735454 0
M  V30 20537 C 1869.25 2.15849 0.890584 0
M  V30 20538 C 1870.23 1.086 1.3092 0
M  V30 20539 O 1871.41 1.36643 1.37994 0
M  V30 20540 C 1868.54 2.72153 2.15755 0
M  V30 20541 C 1867.5 3.84584 1.87827 0
M  V30 20542 C 1866.82 4.27498 3.21169 0
M  V30 20543 C 1868.12 5.08746 1.18217 0
M  V30 20544 H 1869.82 2.96663 0.403904 0
M  V30 20545 H 1867.36 1.42703 0.192836 0
M  V30 20546 H 1869.32 3.11668 2.83621 0
M  V30 20547 H 1868.04 1.88562 2.66668 0
M  V30 20548 H 1866.7 3.45575 1.22366 0
M  V30 20549 H 1866.35 3.40827 3.69927 0
M  V30 20550 H 1866.05 5.03288 3.03273 0
M  V30 20551 H 1867.57 4.69631 3.9023 0
M  V30 20552 H 1868.99 5.45566 1.76155 0
M  V30 20553 H 1867.38 5.89825 1.10573 0
M  V30 20554 H 1868.45 4.84631 0.161525 0
M  V30 20555 N 1869.8 -0.200022 1.56326 0
M  V30 20556 C 1870.71 -1.26847 1.9735 0
M  V30 20557 C 1871.72 -1.50081 0.880432 0
M  V30 20558 O 1872.9 -1.62792 1.18578 0
M  V30 20559 C 1869.96 -2.59382 2.30048 0
M  V30 20560 C 1869.02 -2.44262 3.53036 0
M  V30 20561 C 1868.26 -3.70476 3.84165 0
M  V30 20562 O 1868.48 -4.74433 3.16654 0
M  V30 20563 O 1867.41 -3.663 4.77606 0
M  V30 20564 H 1871.24 -0.950324 2.88449 0
M  V30 20565 H 1868.83 -0.404628 1.43816 0
M  V30 20566 H 1870.71 -3.37616 2.52177 0
M  V30 20567 H 1869.38 -2.90833 1.42119 0
M  V30 20568 H 1868.29 -1.64154 3.36161 0
M  V30 20569 H 1869.62 -2.17744 4.41416 0
M  V30 20570 N 1871.27 -1.50505 -0.467553 0
M  V30 20571 C 1872.22 -1.69626 -1.56511 0
M  V30 20572 C 1873.19 -0.537594 -1.5716 0
M  V30 20573 O 1874.38 -0.768574 -1.74636 0
M  V30 20574 C 1871.52 -1.79965 -2.9446 0
M  V30 20575 C 1870.63 -3.07356 -3.03572 0
M  V30 20576 C 1869.76 -3.08469 -4.32458 0
M  V30 20577 C 1868.8 -4.303 -4.35326 0
M  V30 20578 N 1867.94 -4.29132 -5.55689 0
M  V30 20579 H 1872.78 -2.63326 -1.39511 0
M  V30 20580 H 1870.32 -1.30531 -0.678239 0
M  V30 20581 H 1872.28 -1.8394 -3.74462 0
M  V30 20582 H 1870.91 -0.897013 -3.10086 0
M  V30 20583 H 1869.96 -3.12836 -2.16421 0
M  V30 20584 H 1871.27 -3.97327 -3.01551 0
M  V30 20585 H 1870.42 -3.11193 -5.20811 0
M  V30 20586 H 1869.16 -2.16335 -4.37093 0
M  V30 20587 H 1868.17 -4.27784 -3.4537 0
M  V30 20588 H 1869.39 -5.23665 -4.3238 0
M  V30 20589 H 1867.34 -3.39853 -5.61102 0
M  V30 20590 H 1867.26 -5.12875 -5.55423 0
M  V30 20591 H 1868.52 -4.36007 -6.46156 0
M  V30 20592 N 1872.75 0.720973 -1.40142 0
M  V30 20593 C 1873.66 1.86527 -1.42284 0
M  V30 20594 C 1874.68 1.71106 -0.316044 0
M  V30 20595 O 1875.85 1.93465 -0.55977 0
M  V30 20596 C 1872.92 3.2227 -1.27841 0
M  V30 20597 C 1871.98 3.49984 -2.48616 0
M  V30 20598 C 1871.21 4.7925 -2.34852 0
M  V30 20599 O 1871.44 5.53963 -1.35945 0
M  V30 20600 O 1870.37 5.07179 -3.24119 0
M  V30 20601 H 1874.2 1.87675 -2.38771 0
M  V30 20602 H 1871.78 0.870677 -1.21407 0
M  V30 20603 H 1873.66 4.03362 -1.21973 0
M  V30 20604 H 1872.34 3.21861 -0.344566 0
M  V30 20605 H 1871.25 2.68922 -2.60061 0
M  V30 20606 H 1872.58 3.55184 -3.40742 0
M  V30 20607 N 1874.23 1.25549 0.952634 0
M  V30 20608 C 1875.18 1.06108 2.04963 0
M  V30 20609 C 1876.15 -0.0303872 1.66072 0
M  V30 20610 O 1877.33 0.127178 1.90376 0
M  V30 20611 C 1874.47 0.68799 3.38173 0
M  V30 20612 C 1873.59 1.85452 3.90168 0
M  V30 20613 C 1872.72 1.4256 5.11713 0
M  V30 20614 C 1871.76 2.56115 5.55942 0
M  V30 20615 N 1870.9 2.13984 6.68697 0
M  V30 20616 H 1875.74 1.99991 2.20925 0
M  V30 20617 H 1873.27 0.995895 1.08261 0
M  V30 20618 H 1875.23 0.452622 4.14737 0
M  V30 20619 H 1873.86 -0.213845 3.22091 0
M  V30 20620 H 1872.91 2.20314 3.10106 0
M  V30 20621 H 1874.23 2.70722 4.1894 0
M  V30 20622 H 1873.38 1.15 5.95701 0
M  V30 20623 H 1872.12 0.54365 4.8466 0
M  V30 20624 H 1871.12 2.84417 4.70518 0
M  V30 20625 H 1872.35 3.44891 5.85002 0
M  V30 20626 H 1870.29 1.28208 6.4335 0
M  V30 20627 H 1870.21 2.92801 6.96996 0
M  V30 20628 H 1871.48 1.89605 7.56089 0
M  V30 20629 N 1875.71 -1.15554 1.07168 0
M  V30 20630 C 1876.67 -2.18431 0.694305 0
M  V30 20631 C 1877.67 -1.5861 -0.264497 0
M  V30 20632 O 1878.86 -1.7414 -0.0457035 0
M  V30 20633 C 1875.99 -3.40892 0.0230473 0
M  V30 20634 H 1877.19 -2.53331 1.60511 0
M  V30 20635 H 1874.74 -1.29984 0.867982 0
M  V30 20636 H 1875.47 -3.11559 -0.900083 0
M  V30 20637 H 1875.26 -3.8557 0.712622 0
M  V30 20638 H 1876.75 -4.16986 -0.226392 0
M  V30 20639 N 1877.19 -0.855519 -1.32358 0
M  V30 20640 C 1878.6 -0.545491 -1.49989 0
M  V30 20641 C 1878.8 0.923656 -1.79083 0
M  V30 20642 O 1877.86 1.70664 -1.86091 0
M  V30 20643 C 1879.17 -1.43323 -2.64347 0
M  V30 20644 C 1880.72 -1.43374 -2.78232 0
M  V30 20645 C 1881.2 -2.30671 -3.9567 0
M  V30 20646 N 1882.69 -2.28471 -4.02933 0
M  V30 20647 C 1883.42 -2.92746 -4.93039 0
M  V30 20648 N 1882.92 -3.66136 -5.88147 0
M  V30 20649 N 1884.71 -2.82129 -4.86168 0
M  V30 20650 H 1876.86 -1.80633 -1.11738 0
M  V30 20651 H 1879.12 -0.771568 -0.550805 0
M  V30 20652 H 1878.83 -2.47797 -2.49578 0
M  V30 20653 H 1878.7 -1.12125 -3.6015 0
M  V30 20654 H 1881.09 -0.396641 -2.92422 0
M  V30 20655 H 1881.17 -1.78588 -1.83139 0
M  V30 20656 H 1880.82 -3.3445 -3.82238 0
M  V30 20657 H 1880.75 -1.92789 -4.90041 0
M  V30 20658 H 1883.24 -1.75115 -3.34878 0
M  V30 20659 H 1883.55 -4.12344 -6.536 0
M  V30 20660 H 1881.9 -3.70244 -5.88171 0
M  V30 20661 H 1885.09 -2.24344 -4.10837 0
M  V30 20662 H 1885.26 -3.32502 -5.56189 0
M  V30 20663 N 1878.67 1.45167 -0.61354 0
M  V30 20664 C 1879.91 2.04081 -0.114146 0
M  V30 20665 C 1880.27 1.47081 1.23414 0
M  V30 20666 O 1881.47 1.97386 1.82461 0
M  V30 20667 C 1879.74 3.57307 -0.0817425 0
M  V30 20668 S 1881.3 4.37357 0.355593 0
M  V30 20669 H 1878.12 0.709061 -0.0524763 0
M  V30 20670 H 1880.72 1.77795 -0.81298 0
M  V30 20671 H 1879.42 3.96302 -1.06645 0
M  V30 20672 H 1878.96 3.88177 0.638898 0
M  V30 20673 H 1880.97 4.69566 1.6038 0
M  V30 20674 N 1880.14 0.353044 1.53595 0
M  V30 20675 C 1881.11 -0.48691 2.23968 0
M  V30 20676 C 1882.11 -1.01991 1.24316 0
M  V30 20677 O 1883.3 -0.907654 1.48685 0
M  V30 20678 C 1880.43 -1.67926 2.96671 0
M  V30 20679 H 1881.62 0.128707 2.99624 0
M  V30 20680 H 1879.17 0.104533 1.5595 0
M  V30 20681 H 1879.91 -2.33331 2.25227 0
M  V30 20682 H 1879.69 -1.30417 3.69776 0
M  V30 20683 H 1881.18 -2.2748 3.50203 0
M  V30 20684 N 1881.62 -1.57387 0.0818932 0
M  V30 20685 C 1882.53 -2.16804 -0.89629 0
M  V30 20686 C 1883.55 -1.1339 -1.3198 0
M  V30 20687 O 1884.72 -1.45702 -1.39042 0
M  V30 20688 C 1881.79 -2.72607 -2.14211 0
M  V30 20689 C 1880.85 -3.90929 -1.77406 0
M  V30 20690 C 1880.08 -4.44062 -2.96049 0
M  V30 20691 O 1880.31 -3.96166 -4.10376 0
M  V30 20692 O 1879.24 -5.35261 -2.75279 0
M  V30 20693 H 1883.07 -3.0077 -0.420827 0
M  V30 20694 H 1880.65 -1.48726 -0.141737 0
M  V30 20695 H 1882.53 -3.0833 -2.87247 0
M  V30 20696 H 1881.21 -1.91694 -2.60835 0
M  V30 20697 H 1880.11 -3.60042 -1.01591 0
M  V30 20698 H 1881.45 -4.73165 -1.35556 0
M  V30 20699 N 1883.1 0.191729 -1.56429 0
M  V30 20700 C 1884.03 1.24024 -1.97839 0
M  V30 20701 C 1885.01 1.47291 -0.850853 0
M  V30 20702 O 1886.2 1.58971 -1.11543 0
M  V30 20703 C 1883.33 2.58373 -2.32079 0
M  V30 20704 C 1882.28 2.49712 -3.47603 0
M  V30 20705 C 1881.61 3.88365 -3.67528 0
M  V30 20706 C 1882.91 2.01929 -4.81687 0
M  V30 20707 H 1884.6 0.8961 -2.85675 0
M  V30 20708 H 1882.15 0.429616 -1.37442 0
M  V30 20709 H 1884.1 3.31908 -2.59643 0
M  V30 20710 H 1882.82 2.94534 -1.41129 0
M  V30 20711 H 1881.48 1.78632 -3.20135 0
M  V30 20712 H 1881.13 4.21884 -2.73903 0
M  V30 20713 H 1880.83 3.83444 -4.45246 0
M  V30 20714 H 1882.35 4.63518 -3.97472 0
M  V30 20715 H 1883.77 2.65225 -5.0826 0
M  V30 20716 H 1882.16 2.08002 -5.62899 0
M  V30 20717 H 1883.23 0.972649 -4.75045 0
M  V30 20718 N 1884.58 1.50751 0.459565 0
M  V30 20719 C 1885.49 1.7326 1.58171 0
M  V30 20720 C 1886.5 0.616042 1.6273 0
M  V30 20721 O 1887.68 0.895726 1.80385 0
M  V30 20722 C 1884.74 1.83249 2.94314 0
M  V30 20723 C 1883.81 3.07031 3.00051 0
M  V30 20724 C 1883.04 3.16534 4.297 0
M  V30 20725 O 1883.26 2.32532 5.2085 0
M  V30 20726 O 1882.2 4.0935 4.41266 0
M  V30 20727 H 1886.02 2.68406 1.42098 0
M  V30 20728 H 1883.61 1.34985 0.640273 0
M  V30 20729 H 1885.49 1.91933 3.75153 0
M  V30 20730 H 1884.16 0.912887 3.10561 0
M  V30 20731 H 1883.07 3.0384 2.18248 0
M  V30 20732 H 1884.4 3.98608 2.88743 0
M  V30 20733 N 1886.06 -0.713531 1.40522 0
M  V30 20734 C 1886.97 -1.8577 1.43272 0
M  V30 20735 C 1887.98 -1.70936 0.325113 0
M  V30 20736 O 1889.16 -1.93165 0.570022 0
M  V30 20737 C 1886.22 -3.21587 1.29548 0
M  V30 20738 C 1885.28 -3.4866 2.50469 0
M  V30 20739 C 1884.52 -4.77998 2.3739 0
M  V30 20740 O 1884.74 -5.53234 1.38881 0
M  V30 20741 O 1883.67 -5.05453 3.26804 0
M  V30 20742 H 1887.5 -1.86406 2.39763 0
M  V30 20743 H 1885.08 -0.864226 1.21867 0
M  V30 20744 H 1886.97 -4.02709 1.2411 0
M  V30 20745 H 1885.64 -3.21674 0.36163 0
M  V30 20746 H 1884.55 -2.67539 2.61483 0
M  V30 20747 H 1885.88 -3.53372 3.42621 0
M  V30 20748 N 1887.53 -1.26053 -0.945962 0
M  V30 20749 C 1888.5 -1.07262 -2.02553 0
M  V30 20750 C 1889.5 -0.0225237 -1.60784 0
M  V30 20751 O 1890.69 -0.265501 -1.72165 0
M  V30 20752 C 1887.82 -0.63045 -3.3502 0
M  V30 20753 H 1889.01 -2.03105 -2.20655 0
M  V30 20754 H 1886.56 -1.08582 -1.12426 0
M  V30 20755 H 1887.3 0.330188 -3.22615 0
M  V30 20756 H 1887.08 -1.38863 -3.66687 0
M  V30 20757 H 1888.57 -0.520674 -4.14341 0
M  V30 20758 N 1889.01 1.14984 -1.07779 0
M  V30 20759 C 1889.94 2.22006 -0.723564 0
M  V30 20760 C 1890.92 1.67592 0.291024 0
M  V30 20761 O 1892.11 1.93516 0.162812 0
M  V30 20762 C 1889.24 3.47074 -0.125223 0
M  V30 20763 C 1888.19 4.14475 -1.06745 0
M  V30 20764 C 1887.52 5.33671 -0.331643 0
M  V30 20765 C 1888.82 4.63744 -2.4029 0
M  V30 20766 H 1890.51 2.51893 -1.61834 0
M  V30 20767 H 1888.06 1.21073 -0.779571 0
M  V30 20768 H 1890.01 4.21185 0.134555 0
M  V30 20769 H 1888.73 3.16533 0.804654 0
M  V30 20770 H 1887.39 3.4231 -1.31222 0
M  V30 20771 H 1887.04 4.99387 0.601833 0
M  V30 20772 H 1886.74 5.7971 -0.959721 0
M  V30 20773 H 1888.27 6.10548 -0.0797668 0
M  V30 20774 H 1889.68 5.2936 -2.20115 0
M  V30 20775 H 1888.08 5.20461 -2.98732 0
M  V30 20776 H 1889.15 3.79151 -3.02279 0
M  V30 20777 N 1890.49 0.862526 1.31902 0
M  V30 20778 C 1891.42 0.270103 2.27603 0
M  V30 20779 C 1892.43 -0.562639 1.52768 0
M  V30 20780 O 1893.62 -0.385845 1.7428 0
M  V30 20781 C 1890.72 -0.636314 3.32873 0
M  V30 20782 C 1889.9 0.162327 4.37099 0
M  V30 20783 C 1888.96 -0.67107 5.21903 0
M  V30 20784 O 1887.98 -0.101765 5.69109 0
M  V30 20785 N 1889.18 -1.98441 5.45529 0
M  V30 20786 H 1891.95 1.09248 2.79079 0
M  V30 20787 H 1889.51 0.723275 1.44846 0
M  V30 20788 H 1891.5 -1.19937 3.86519 0
M  V30 20789 H 1890.07 -1.35936 2.81496 0
M  V30 20790 H 1889.29 0.906824 3.83628 0
M  V30 20791 H 1890.58 0.710602 5.03813 0
M  V30 20792 H 1889.98 -2.47017 5.0892 0
M  V30 20793 H 1888.53 -2.49542 6.0214 0
M  V30 20794 N 1891.97 -1.4484 0.62123 0
M  V30 20795 C 1892.92 -2.30626 -0.0895817 0
M  V30 20796 C 1893.89 -1.42906 -0.846593 0
M  V30 20797 O 1895.07 -1.7182 -0.829611 0
M  V30 20798 C 1892.21 -3.28032 -1.07188 0
M  V30 20799 C 1891.32 -4.30855 -0.314319 0
M  V30 20800 C 1890.46 -5.1536 -1.28755 0
M  V30 20801 C 1889.5 -6.09899 -0.518581 0
M  V30 20802 N 1888.63 -6.87137 -1.44178 0
M  V30 20803 H 1893.47 -2.90871 0.64793 0
M  V30 20804 H 1891.01 -1.4332 0.33131 0
M  V30 20805 H 1892.97 -3.82984 -1.65467 0
M  V30 20806 H 1891.6 -2.6951 -1.77664 0
M  V30 20807 H 1890.65 -3.78455 0.38422 0
M  V30 20808 H 1891.96 -4.97985 0.285042 0
M  V30 20809 H 1891.12 -5.7478 -1.94198 0
M  V30 20810 H 1889.86 -4.4828 -1.92084 0
M  V30 20811 H 1888.86 -5.49597 0.149399 0
M  V30 20812 H 1890.09 -6.79011 0.109851 0
M  V30 20813 H 1888.03 -6.22735 -2.06246 0
M  V30 20814 H 1887.95 -7.50669 -0.896192 0
M  V30 20815 H 1889.22 -7.51088 -2.08536 0
M  V30 20816 N 1893.45 -0.361184 -1.53405 0
M  V30 20817 C 1894.67 0.230765 -2.05609 0
M  V30 20818 C 1895.09 1.42805 -1.23499 0
M  V30 20819 O 1894.45 1.80423 -0.274582 0
M  V30 20820 C 1894.5 0.628571 -3.55993 0
M  V30 20821 O 1894.22 -0.521123 -4.3499 0
M  V30 20822 C 1895.72 1.27938 -4.24437 0
M  V30 20823 H 1892.94 0.0414193 -0.66972 0
M  V30 20824 H 1895.48 -0.518281 -1.97823 0
M  V30 20825 H 1893.64 1.32754 -3.63944 0
M  V30 20826 H 1894.05 -0.200483 -5.24117 0
M  V30 20827 H 1895.53 1.50832 -5.30993 0
M  V30 20828 H 1896 2.23834 -3.77882 0
M  V30 20829 H 1896.61 0.621961 -4.20728 0
M  V30 20830 N 1894.92 1.57341 -0.0902386 0
M  V30 20831 C 1896.34 1.57361 0.266413 0
M  V30 20832 C 1896.54 1.10104 1.68758 0
M  V30 20833 O 1895.6 0.775287 2.40303 0
M  V30 20834 C 1896.91 3.00642 0.0592661 0
M  V30 20835 C 1898.46 3.12741 0.127389 0
M  V30 20836 C 1898.93 4.57971 -0.0517042 0
M  V30 20837 N 1900.42 4.632 0.0032917 0
M  V30 20838 C 1901.16 5.73293 -0.110598 0
M  V30 20839 N 1900.65 6.92238 -0.279049 0
M  V30 20840 N 1902.45 5.62076 -0.0522147 0
M  V30 20841 H 1894.6 1.86369 -1.01884 0
M  V30 20842 H 1896.86 0.859996 -0.398886 0
M  V30 20843 H 1896.57 3.39396 -0.922117 0
M  V30 20844 H 1896.44 3.68539 0.80368 0
M  V30 20845 H 1898.83 2.73861 1.09927 0
M  V30 20846 H 1898.91 2.47445 -0.648435 0
M  V30 20847 H 1898.55 4.97544 -1.02043 0
M  V30 20848 H 1898.48 5.21321 0.743753 0
M  V30 20849 H 1900.97 3.77672 0.131145 0
M  V30 20850 H 1901.29 7.71972 -0.357596 0
M  V30 20851 H 1899.63 6.94287 -0.314653 0
M  V30 20852 H 1902.82 4.68035 0.0782189 0
M  V30 20853 H 1903 6.47839 -0.144423 0
M  V30 20854 N 1896.4 -0.183431 1.56529 0
M  V30 20855 C 1897.65 -0.900237 1.80495 0
M  V30 20856 C 1897.96 -1.83932 0.665454 0
M  V30 20857 O 1899.17 -2.59761 0.789728 0
M  V30 20858 C 1897.63 -1.65125 3.19784 0
M  V30 20859 C 1897.23 -0.756411 4.41568 0
M  V30 20860 C 1898.98 -2.357 3.53052 0
M  V30 20861 C 1896.89 -1.50696 5.71878 0
M  V30 20862 H 1895.82 -0.339898 0.673042 0
M  V30 20863 H 1898.47 -0.153327 1.82858 0
M  V30 20864 H 1896.85 -2.44248 3.11703 0
M  V30 20865 H 1898.02 -0.00301509 4.608 0
M  V30 20866 H 1896.34 -0.160916 4.16089 0
M  V30 20867 H 1898.93 -2.92426 4.4765 0
M  V30 20868 H 1899.28 -3.10454 2.77352 0
M  V30 20869 H 1899.81 -1.63533 3.62632 0
M  V30 20870 H 1896.55 -0.801985 6.50575 0
M  V30 20871 H 1896.07 -2.23399 5.56644 0
M  V30 20872 H 1897.75 -2.05768 6.13407 0
M  V30 20873 N 1897.88 -1.50992 -0.451564 0
M  V30 20874 C 1898.79 -1.74097 -1.5725 0
M  V30 20875 C 1899.81 -0.624663 -1.62401 0
M  V30 20876 O 1900.98 -0.90528 -1.79907 0
M  V30 20877 C 1898.05 -1.84808 -2.93338 0
M  V30 20878 C 1897.11 -3.08618 -2.98418 0
M  V30 20879 C 1896.34 -3.18808 -4.28015 0
M  V30 20880 O 1896.56 -2.35291 -5.1961 0
M  V30 20881 O 1895.5 -4.11685 -4.39089 0
M  V30 20882 H 1899.32 -2.69156 -1.40673 0
M  V30 20883 H 1896.91 -1.35322 -0.633105 0
M  V30 20884 H 1898.79 -1.9392 -3.7413 0
M  V30 20885 H 1897.47 -0.929344 -3.10072 0
M  V30 20886 H 1896.37 -3.04993 -2.16633 0
M  V30 20887 H 1897.71 -4.00133 -2.86625 0
M  V30 20888 N 1899.36 0.706069 -1.40899 0
M  V30 20889 C 1900.29 1.83275 -1.44681 0
M  V30 20890 C 1901.27 1.67313 -0.306629 0
M  V30 20891 O 1902.45 1.87203 -0.516597 0
M  V30 20892 C 1899.58 3.21319 -1.318 0
M  V30 20893 C 1898.54 3.51969 -2.4352 0
M  V30 20894 C 1897.86 4.89258 -2.1571 0
M  V30 20895 C 1899.16 3.52004 -3.85864 0
M  V30 20896 H 1900.86 1.80367 -2.38973 0
M  V30 20897 H 1898.4 0.866349 -1.15023 0
M  V30 20898 H 1900.36 3.99841 -1.3306 0
M  V30 20899 H 1899.08 3.24827 -0.339879 0
M  V30 20900 H 1897.74 2.75792 -2.41525 0
M  V30 20901 H 1897.39 4.89378 -1.16266 0
M  V30 20902 H 1897.09 5.1073 -2.90566 0
M  V30 20903 H 1898.61 5.70102 -2.18669 0
M  V30 20904 H 1900.03 4.20548 -3.8963 0
M  V30 20905 H 1898.42 3.85005 -4.60316 0
M  V30 20906 H 1899.49 2.51191 -4.14766 0
M  V30 20907 N 1900.84 1.26553 0.939264 0
M  V30 20908 C 1902.25 1.03707 1.21314 0
M  V30 20909 C 1902.45 -0.236596 2.00106 0
M  V30 20910 O 1901.51 -0.945218 2.34141 0
M  V30 20911 C 1902.82 2.26961 1.97254 0
M  V30 20912 C 1904.37 2.31881 2.10238 0
M  V30 20913 C 1904.84 3.54833 2.89582 0
M  V30 20914 N 1906.34 3.55321 2.97155 0
M  V30 20915 C 1907.07 4.47125 3.58981 0
M  V30 20916 N 1906.57 5.49219 4.22292 0
M  V30 20917 N 1908.36 4.34772 3.56272 0
M  V30 20918 H 1900.51 2.08355 0.412571 0
M  V30 20919 H 1902.77 0.915775 0.245073 0
M  V30 20920 H 1902.48 3.19612 1.46769 0
M  V30 20921 H 1902.35 2.3136 2.97913 0
M  V30 20922 H 1904.74 1.39743 2.59915 0
M  V30 20923 H 1904.82 2.31492 1.08836 0
M  V30 20924 H 1904.47 4.47301 2.40591 0
M  V30 20925 H 1904.4 3.52471 3.91244 0
M  V30 20926 H 1906.89 2.81479 2.52147 0
M  V30 20927 H 1907.2 6.15454 4.67371 0
M  V30 20928 H 1905.54 5.53074 4.20873 0
M  V30 20929 H 1908.74 3.5423 3.06005 0
M  V30 20930 H 1908.91 5.06511 4.04167 0
M  V30 20931 N 1902.31 -1.14411 1.08387 0
M  V30 20932 C 1903.54 -1.89848 0.835015 0
M  V30 20933 C 1903.96 -1.78034 -0.607091 0
M  V30 20934 O 1903.32 -1.12039 -1.42538 0
M  V30 20935 C 1903.37 -3.37818 1.26141 0
M  V30 20936 O 1902.47 -4.10325 0.41322 0
M  V30 20937 H 1901.82 -0.590682 0.303299 0
M  V30 20938 H 1904.35 -1.44823 1.44525 0
M  V30 20939 H 1904.36 -3.88631 1.24218 0
M  V30 20940 H 1903.03 -3.45735 2.31172 0
M  V30 20941 H 1901.61 -3.69589 0.495854 0
M  V30 20942 N 1903.79 -0.869509 -1.31443 0
M  V30 20943 C 1904.76 -0.329869 -2.26814 0
M  V30 20944 C 1905.76 0.518895 -1.52198 0
M  V30 20945 O 1906.95 0.328267 -1.71079 0
M  V30 20946 C 1904.08 0.53159 -3.3673 0
M  V30 20947 H 1905.27 -1.1718 -2.7606 0
M  V30 20948 H 1902.82 -0.645061 -1.42368 0
M  V30 20949 H 1903.56 1.39473 -2.92776 0
M  V30 20950 H 1903.34 -0.0761553 -3.92026 0
M  V30 20951 H 1904.83 0.901447 -4.07754 0
M  V30 20952 N 1905.27 1.44508 -0.628902 0
M  V30 20953 C 1906.69 1.56863 -0.294332 0
M  V30 20954 C 1906.89 1.6168 1.20257 0
M  V30 20955 O 1905.94 1.55862 1.98653 0
M  V30 20956 C 1907.26 2.84134 -0.984291 0
M  V30 20957 C 1908.8 2.97843 -0.962223 0
M  V30 20958 C 1909.28 4.27914 -1.6326 0
M  V30 20959 N 1910.77 4.34722 -1.59909 0
M  V30 20960 C 1911.5 5.34081 -2.08675 0
M  V30 20961 N 1911 6.39857 -2.65623 0
M  V30 20962 N 1912.79 5.25575 -1.99317 0
M  V30 20963 H 1904.94 1.39624 -1.60059 0
M  V30 20964 H 1907.21 0.66894 -0.671731 0
M  V30 20965 H 1906.91 2.86551 -2.03915 0
M  V30 20966 H 1906.79 3.73589 -0.520679 0
M  V30 20967 H 1909.17 2.9498 0.0841512 0
M  V30 20968 H 1909.26 2.09742 -1.4643 0
M  V30 20969 H 1908.9 4.31536 -2.67842 0
M  V30 20970 H 1908.83 5.14868 -1.10537 0
M  V30 20971 H 1911.32 3.58896 -1.18329 0
M  V30 20972 H 1911.63 7.11952 -3.00572 0
M  V30 20973 H 1909.98 6.40548 -2.69672 0
M  V30 20974 H 1913.17 4.4185 -1.54551 0
M  V30 20975 H 1913.34 6.02855 -2.37634 0
M  V30 20976 N 1906.75 0.369315 1.53212 0
M  V30 20977 C 1907.66 -0.483226 2.29569 0
M  V30 20978 C 1908.68 -1.08931 1.35684 0
M  V30 20979 O 1909.85 -1.09944 1.68743 0
M  V30 20980 C 1906.92 -1.60549 3.07286 0
M  V30 20981 C 1905.98 -1.02656 4.16846 0
M  V30 20982 C 1905.21 -2.09534 4.90847 0
M  V30 20983 O 1905.43 -3.30709 4.64745 0
M  V30 20984 O 1904.37 -1.72382 5.76687 0
M  V30 20985 H 1908.19 0.138246 3.03385 0
M  V30 20986 H 1905.78 0.133589 1.48802 0
M  V30 20987 H 1907.66 -2.25789 3.55805 0
M  V30 20988 H 1906.34 -2.21229 2.36303 0
M  V30 20989 H 1905.24 -0.337963 3.7257 0
M  V30 20990 H 1906.58 -0.464259 4.90006 0
M  V30 20991 N 1908.23 -1.57291 0.0985816 0
M  V30 20992 C 1909.14 -2.17742 -0.873245 0
M  V30 20993 C 1910.15 -1.14784 -1.3077 0
M  V30 20994 O 1911.33 -1.47169 -1.37489 0
M  V30 20995 C 1908.39 -2.74864 -2.11308 0
M  V30 20996 C 1907.46 -3.92789 -1.73249 0
M  V30 20997 C 1906.69 -4.47177 -2.91322 0
M  V30 20998 O 1906.91 -4.00497 -4.06151 0
M  V30 20999 O 1905.85 -5.38151 -2.69587 0
M  V30 21000 H 1909.67 -3.012 -0.388902 0
M  V30 21001 H 1907.26 -1.48868 -0.125955 0
M  V30 21002 H 1909.14 -3.11359 -2.8396 0
M  V30 21003 H 1907.81 -1.9445 -2.58787 0
M  V30 21004 H 1906.72 -3.61099 -0.977663 0
M  V30 21005 H 1908.05 -4.74577 -1.3053 0
M  V30 21006 N 1909.71 0.175127 -1.56624 0
M  V30 21007 C 1910.67 1.20064 -1.95237 0
M  V30 21008 C 1911.67 1.37384 -0.835603 0
M  V30 21009 O 1912.86 1.34855 -1.10272 0
M  V30 21010 C 1909.99 2.5664 -2.24386 0
M  V30 21011 H 1911.18 0.870066 -2.87001 0
M  V30 21012 H 1908.74 0.41743 -1.50623 0
M  V30 21013 H 1909.47 2.94717 -1.35322 0
M  V30 21014 H 1909.26 2.45436 -3.05784 0
M  V30 21015 H 1910.75 3.30554 -2.55194 0
M  V30 21016 N 1911.18 1.5123 0.44355 0
M  V30 21017 C 1912.15 1.71511 1.52041 0
M  V30 21018 C 1913.15 0.585226 1.49772 0
M  V30 21019 O 1914.34 0.852687 1.51904 0
M  V30 21020 C 1911.47 1.76583 2.91601 0
M  V30 21021 H 1912.66 2.67613 1.35364 0
M  V30 21022 H 1910.21 1.41125 0.671811 0
M  V30 21023 H 1910.95 0.822743 3.1369 0
M  V30 21024 H 1910.73 2.58693 2.94653 0
M  V30 21025 H 1912.22 1.94135 3.69732 0
M  V30 21026 N 1912.66 -0.698586 1.41271 0
M  V30 21027 C 1913.61 -1.80459 1.3935 0
M  V30 21028 C 1914.6 -1.58647 0.268341 0
M  V30 21029 O 1915.79 -1.6953 0.508777 0
M  V30 21030 C 1912.92 -3.18739 1.27515 0
M  V30 21031 C 1912 -3.46257 2.44881 0
M  V30 21032 N 1912.39 -3.44491 3.70351 0
M  V30 21033 C 1910.69 -3.76792 2.38629 0
M  V30 21034 C 1911.39 -3.70829 4.48175 0
M  V30 21035 N 1910.37 -3.90423 3.78247 0
M  V30 21036 H 1914.17 -1.77452 2.34282 0
M  V30 21037 H 1911.68 -0.898448 1.35284 0
M  V30 21038 H 1913.68 -3.97963 1.24221 0
M  V30 21039 H 1912.34 -3.2296 0.335652 0
M  V30 21040 H 1913.35 -3.24942 4.03278 0
M  V30 21041 H 1910.03 -3.88402 1.53136 0
M  V30 21042 H 1911.42 -3.75625 5.57096 0
M  V30 21043 N 1914.14 -1.27049 -0.93254 0
M  V30 21044 C 1915.56 -1.04349 -1.20762 0
M  V30 21045 C 1915.76 0.225981 -2.00229 0
M  V30 21046 O 1914.81 0.932788 -2.34639 0
M  V30 21047 C 1916.12 -2.28004 -1.96048 0
M  V30 21048 C 1917.67 -2.32993 -2.09006 0
M  V30 21049 C 1918.15 -3.56364 -2.87696 0
M  V30 21050 N 1919.64 -3.56892 -2.95266 0
M  V30 21051 C 1920.37 -4.49022 -3.56604 0
M  V30 21052 N 1919.87 -5.51451 -4.19374 0
M  V30 21053 N 1921.66 -4.36656 -3.53961 0
M  V30 21054 H 1913.81 -2.0857 -0.401516 0
M  V30 21055 H 1916.08 -0.917061 -0.240213 0
M  V30 21056 H 1915.78 -3.20386 -1.45072 0
M  V30 21057 H 1915.66 -2.32937 -2.96682 0
M  V30 21058 H 1918.04 -1.41119 -2.5917 0
M  V30 21059 H 1918.12 -2.32065 -1.07607 0
M  V30 21060 H 1917.77 -4.48571 -2.38216 0
M  V30 21061 H 1917.7 -3.54541 -3.89369 0
M  V30 21062 H 1920.19 -2.82812 -2.5065 0
M  V30 21063 H 1920.5 -6.17924 -4.64101 0
M  V30 21064 H 1918.85 -5.55298 -4.17934 0
M  V30 21065 H 1922.04 -3.55848 -3.04122 0
M  V30 21066 H 1922.21 -5.08647 -4.01475 0
M  V30 21067 N 1915.62 1.13835 -1.08993 0
M  V30 21068 C 1916.56 2.19107 -0.725298 0
M  V30 21069 C 1917.53 1.63524 0.291368 0
M  V30 21070 O 1918.72 1.90005 0.174014 0
M  V30 21071 C 1915.86 3.44786 -0.147212 0
M  V30 21072 C 1914.97 4.14492 -1.21738 0
M  V30 21073 C 1914.11 5.27772 -0.602519 0
M  V30 21074 C 1913.15 5.89321 -1.65431 0
M  V30 21075 N 1912.28 6.9404 -1.0608 0
M  V30 21076 H 1917.12 2.49646 -1.6273 0
M  V30 21077 H 1914.66 1.22585 -0.813108 0
M  V30 21078 H 1916.62 4.16692 0.205719 0
M  V30 21079 H 1915.25 3.14712 0.718077 0
M  V30 21080 H 1914.3 3.40914 -1.68766 0
M  V30 21081 H 1915.61 4.56325 -2.01417 0
M  V30 21082 H 1914.77 6.06376 -0.198177 0
M  V30 21083 H 1913.51 4.87177 0.225868 0
M  V30 21084 H 1912.51 5.09415 -2.06824 0
M  V30 21085 H 1913.74 6.3199 -2.48528 0
M  V30 21086 H 1911.68 6.5551 -0.253616 0
M  V30 21087 H 1911.6 7.34391 -1.79461 0
M  V30 21088 H 1912.87 7.76506 -0.682517 0
M  V30 21089 N 1917.1 0.876467 1.3098 0
M  V30 21090 C 1918.06 0.341893 2.26636 0
M  V30 21091 C 1919.06 -0.510816 1.52471 0
M  V30 21092 O 1920.25 -0.31919 1.71251 0
M  V30 21093 C 1917.38 -0.513725 3.37007 0
M  V30 21094 H 1918.57 1.18642 2.75434 0
M  V30 21095 H 1916.13 0.652602 1.42024 0
M  V30 21096 H 1916.86 -1.37919 2.93511 0
M  V30 21097 H 1916.65 0.0969443 3.9198 0
M  V30 21098 H 1918.14 -0.87981 4.08227 0
M  V30 21099 N 1918.57 -1.44173 0.636557 0
M  V30 21100 C 1919.8 -2.06352 0.150456 0
M  V30 21101 C 1920.22 -1.47608 -1.17718 0
M  V30 21102 O 1919.57 -0.601003 -1.7232 0
M  V30 21103 C 1919.62 -3.61483 0.0353658 0
M  V30 21104 O 1919.35 -4.1804 1.3105 0
M  V30 21105 C 1920.85 -4.40707 -0.478789 0
M  V30 21106 H 1918.07 -0.665948 0.0821807 0
M  V30 21107 H 1920.61 -1.84953 0.872495 0
M  V30 21108 H 1918.77 -3.82125 -0.637142 0
M  V30 21109 H 1919.18 -5.11538 1.15886 0
M  V30 21110 H 1920.65 -5.49655 -0.508315 0
M  V30 21111 H 1921.13 -4.1254 -1.5069 0
M  V30 21112 H 1921.74 -4.24996 0.160654 0
M  V30 21113 N 1920.05 -0.377435 -1.53014 0
M  V30 21114 C 1921.33 0.265508 -1.9379 0
M  V30 21115 C 1921.71 1.65381 -1.31195 0
M  V30 21116 O 1921.06 2.23497 -0.475517 0
M  V30 21117 C 1921.27 0.303805 -3.47675 0
M  V30 21118 C 1922.61 0.538469 -4.21172 0
M  V30 21119 O 1923.64 0.384517 -3.54118 0
M  V30 21120 O 1922.5 0.839154 -5.40019 0
M  V30 21121 H 1919.59 0.161997 -0.810978 0
M  V30 21122 H 1922.14 -0.431081 -1.64133 0
M  V30 21123 H 1920.91 -0.669104 -3.85537 0
M  V30 21124 H 1920.53 1.0458 -3.836 0
M  V30 21125 N 1921.53 1.57237 -0.106922 0
M  V30 21126 C 1922.48 2.11215 0.858607 0
M  V30 21127 C 1923.46 1.03 1.23612 0
M  V30 21128 O 1924.66 1.29255 1.20922 0
M  V30 21129 C 1921.79 2.7055 2.11324 0
M  V30 21130 C 1920.87 3.85827 1.76064 0
M  V30 21131 N 1921.26 4.93376 1.11419 0
M  V30 21132 C 1919.56 3.95784 2.05599 0
M  V30 21133 C 1920.26 5.73885 0.950315 0
M  V30 21134 N 1919.24 5.23306 1.47144 0
M  V30 21135 H 1923.04 2.91747 0.355056 0
M  V30 21136 H 1920.55 1.62116 0.0959292 0
M  V30 21137 H 1922.55 3.07557 2.8145 0
M  V30 21138 H 1921.21 1.91477 2.62234 0
M  V30 21139 H 1922.22 5.11999 0.779594 0
M  V30 21140 H 1918.9 3.27736 2.58641 0
M  V30 21141 H 1920.29 6.70433 0.44383 0
M  V30 21142 N 1923.01 -0.166818 1.56715 0
M  V30 21143 C 1924.42 -0.728845 1.71886 0
M  V30 21144 C 1924.77 -1.82584 0.718168 0
M  V30 21145 O 1923.9 -2.1607 -0.119503 0
M  V30 21146 C 1924.49 -1.32885 3.11652 0
M  V30 21147 C 1923.05 -1.83766 3.28492 0
M  V30 21148 C 1922.2 -0.718371 2.67833 0
M  V30 21149 H 1925.15 0.0586298 1.58592 0
M  V30 21150 H 1925.17 -2.19858 3.10552 0
M  V30 21151 H 1924.68 -0.530219 3.84461 0
M  V30 21152 H 1922.78 -2.66259 2.60647 0
M  V30 21153 H 1922.89 -1.98 4.36271 0
M  V30 21154 H 1921.26 -1.13996 2.27765 0
M  V30 21155 H 1922.04 0.0684914 3.43232 0
M  V30 21156 N 1924.49 -1.51463 -0.435524 0
M  V30 21157 C 1925.44 -1.69292 -1.52723 0
M  V30 21158 C 1926.42 -0.54689 -1.51321 0
M  V30 21159 O 1927.61 -0.802879 -1.57743 0
M  V30 21160 C 1924.74 -1.82299 -2.90898 0
M  V30 21161 C 1923.83 -3.02692 -2.9705 0
M  V30 21162 N 1924.22 -4.25836 -2.72942 0
M  V30 21163 C 1922.52 -3.01983 -3.2821 0
M  V30 21164 C 1923.22 -5.07109 -2.84983 0
M  V30 21165 N 1922.19 -4.41794 -3.16731 0
M  V30 21166 H 1926 -2.62166 -1.32839 0
M  V30 21167 H 1923.51 -1.49135 -0.642858 0
M  V30 21168 H 1925.51 -1.93183 -3.6944 0
M  V30 21169 H 1924.17 -0.906076 -3.11802 0
M  V30 21170 H 1925.18 -4.5475 -2.47836 0
M  V30 21171 H 1921.85 -2.1993 -3.54876 0
M  V30 21172 H 1923.24 -6.1514 -2.70283 0
M  V30 21173 N 1925.96 0.691085 -1.4164 0
M  V30 21174 C 1927.38 1.27116 -1.36742 0
M  V30 21175 C 1927.73 1.96129 -0.0526953 0
M  V30 21176 O 1926.85 1.99052 0.848953 0
M  V30 21177 C 1927.45 2.31171 -2.4768 0
M  V30 21178 C 1926.01 2.84744 -2.46166 0
M  V30 21179 C 1925.15 1.58841 -2.27299 0
M  V30 21180 H 1928.1 0.485541 -1.5109 0
M  V30 21181 H 1928.12 3.12559 -2.16996 0
M  V30 21182 H 1927.64 1.80913 -3.43354 0
M  V30 21183 H 1925.74 3.39167 -1.54262 0
M  V30 21184 H 1925.85 3.34869 -3.42636 0
M  V30 21185 H 1924.21 1.84815 -1.75258 0
M  V30 21186 H 1925 1.10573 -3.25005 0
M  V30 21187 N 1927.44 1.27542 0.925789 0
M  V30 21188 C 1928.67 1.16921 1.71301 0
M  V30 21189 C 1929.09 -0.270082 1.86151 0
M  V30 21190 O 1928.45 -1.19558 1.36293 0
M  V30 21191 C 1928.5 1.8599 3.08934 0
M  V30 21192 O 1927.6 1.15917 3.95774 0
M  V30 21193 H 1926.94 0.406542 0.524995 0
M  V30 21194 H 1929.47 1.68646 1.15843 0
M  V30 21195 H 1929.48 1.93424 3.59237 0
M  V30 21196 H 1928.16 2.9069 2.97443 0
M  V30 21197 H 1926.74 1.16564 3.54213 0
M  V30 21198 N 1928.92 -1.13255 1.09595 0
M  V30 21199 C 1930.15 -1.88411 0.854927 0
M  V30 21200 C 1930.56 -1.79214 -0.593949 0
M  V30 21201 O 1929.92 -1.15995 -1.40895 0
M  V30 21202 C 1929.97 -3.37946 1.28353 0
M  V30 21203 O 1929.69 -3.46907 2.67558 0
M  V30 21204 C 1931.19 -4.30065 1.07514 0
M  V30 21205 H 1928.41 -0.596416 0.307455 0
M  V30 21206 H 1930.96 -1.43358 1.45838 0
M  V30 21207 H 1929.11 -3.80576 0.72393 0
M  V30 21208 H 1929.53 -4.39878 2.8567 0
M  V30 21209 H 1931 -5.33309 1.42428 0
M  V30 21210 H 1931.48 -4.39198 0.0130611 0
M  V30 21211 H 1932.08 -3.93206 1.62077 0
M  V30 21212 N 1930.4 -0.883401 -1.30514 0
M  V30 21213 C 1931.81 -0.55179 -1.7836 0
M  V30 21214 C 1932.16 0.93196 -1.72653 0
M  V30 21215 O 1931.29 1.72818 -1.30242 0
M  V30 21216 C 1931.88 -0.994845 -3.23865 0
M  V30 21217 C 1930.44 -0.714672 -3.69553 0
M  V30 21218 C 1929.59 -1.1787 -2.51002 0
M  V30 21219 H 1932.54 -1.06778 -1.17406 0
M  V30 21220 H 1932.56 -0.32315 -3.79125 0
M  V30 21221 H 1932.07 -2.07477 -3.27986 0
M  V30 21222 H 1930.17 0.353326 -3.70921 0
M  V30 21223 H 1930.28 -1.30112 -4.61094 0
M  V30 21224 H 1928.65 -0.598079 -2.47578 0
M  V30 21225 H 1929.43 -2.26633 -2.57862 0
M  V30 21226 N 1931.88 1.43833 -0.644194 0
M  V30 21227 C 1932.84 2.29159 0.0433471 0
M  V30 21228 C 1933.84 1.41734 0.75948 0
M  V30 21229 O 1935.03 1.63464 0.602093 0
M  V30 21230 C 1932.16 3.23604 1.07208 0
M  V30 21231 H 1933.35 2.9144 -0.707295 0
M  V30 21232 H 1930.91 1.50963 -0.404968 0
M  V30 21233 H 1931.64 2.66199 1.85226 0
M  V30 21234 H 1931.43 3.88047 0.562339 0
M  V30 21235 H 1932.92 3.87669 1.55251 0
M  V30 21236 N 1933.35 0.385544 1.52811 0
M  V30 21237 C 1934.58 -0.198025 2.0595 0
M  V30 21238 C 1935 -1.40822 1.25756 0
M  V30 21239 O 1934.35 -1.79963 0.303251 0
M  V30 21240 C 1934.41 -0.571856 3.56948 0
M  V30 21241 O 1934.13 0.59026 4.34105 0
M  V30 21242 C 1935.63 -1.21169 4.26419 0
M  V30 21243 H 1932.85 -0.0307594 0.670295 0
M  V30 21244 H 1935.39 0.549688 1.96974 0
M  V30 21245 H 1933.55 -1.26947 3.6601 0
M  V30 21246 H 1933.96 0.28384 5.23731 0
M  V30 21247 H 1935.43 -1.42366 5.33325 0
M  V30 21248 H 1935.91 -2.17794 3.81395 0
M  V30 21249 H 1936.52 -0.554949 4.21664 0
M  V30 21250 N 1934.83 -1.57178 0.115259 0
M  V30 21251 C 1935.8 -2.13953 -0.821982 0
M  V30 21252 C 1936.8 -1.07352 -1.19717 0
M  V30 21253 O 1937.99 -1.33146 -1.12329 0
M  V30 21254 C 1935.12 -2.6767 -2.11106 0
M  V30 21255 H 1936.31 -2.98094 -0.328631 0
M  V30 21256 H 1933.86 -1.55725 -0.133942 0
M  V30 21257 H 1934.6 -1.87106 -2.6488 0
M  V30 21258 H 1934.38 -3.4563 -1.85155 0
M  V30 21259 H 1935.87 -3.11519 -2.78111 0
M  V30 21260 N 1936.31 0.158505 -1.56801 0
M  V30 21261 C 1937.73 0.510743 -1.51207 0
M  V30 21262 C 1937.93 1.83983 -0.821733 0
M  V30 21263 O 1936.98 2.4951 -0.387444 0
M  V30 21264 C 1938.3 0.531668 -2.95962 0
M  V30 21265 C 1939.84 0.617983 -3.06839 0
M  V30 21266 C 1940.32 0.66968 -4.53078 0
M  V30 21267 N 1941.81 0.73222 -4.57376 0
M  V30 21268 C 1942.55 0.793011 -5.6789 0
M  V30 21269 N 1942.04 0.81385 -6.88003 0
M  V30 21270 N 1943.83 0.833013 -5.55893 0
M  V30 21271 H 1935.99 -0.712841 -2.00081 0
M  V30 21272 H 1938.25 -0.258572 -0.912055 0
M  V30 21273 H 1937.95 -0.376495 -3.49679 0
M  V30 21274 H 1937.83 1.37366 -3.51298 0
M  V30 21275 H 1940.22 1.51657 -2.53149 0
M  V30 21276 H 1940.3 -0.250933 -2.54566 0
M  V30 21277 H 1939.94 -0.2247 -5.07403 0
M  V30 21278 H 1939.87 1.55492 -5.0312 0
M  V30 21279 H 1942.36 0.72388 -3.70902 0
M  V30 21280 H 1942.67 0.861766 -7.6798 0
M  V30 21281 H 1941.02 0.781915 -6.90587 0
M  V30 21282 H 1944.21 0.813822 -4.60971 0
M  V30 21283 H 1944.38 0.876926 -6.42039 0
M  V30 21284 N 1937.79 1.51692 0.427485 0
M  V30 21285 C 1938.72 1.69922 1.53816 0
M  V30 21286 C 1939.73 0.579757 1.52127 0
M  V30 21287 O 1940.92 0.854377 1.56725 0
M  V30 21288 C 1938.02 1.70772 2.92729 0
M  V30 21289 C 1937.2 2.99461 3.18813 0
M  V30 21290 C 1936.26 2.92367 4.37502 0
M  V30 21291 O 1935.28 3.663 4.35675 0
M  V30 21292 N 1936.48 2.08893 5.41612 0
M  V30 21293 H 1939.25 2.65737 1.38578 0
M  V30 21294 H 1936.81 1.497 0.616555 0
M  V30 21295 H 1938.8 1.63581 3.70167 0
M  V30 21296 H 1937.37 0.825087 3.01515 0
M  V30 21297 H 1936.59 3.20444 2.29585 0
M  V30 21298 H 1937.88 3.84629 3.33074 0
M  V30 21299 H 1937.28 1.48221 5.45937 0
M  V30 21300 H 1935.83 2.07575 6.17864 0
M  V30 21301 N 1939.27 -0.683564 1.42004 0
M  V30 21302 C 1940.2 -1.80902 1.40737 0
M  V30 21303 C 1941.21 -1.59865 0.307725 0
M  V30 21304 O 1942.4 -1.69146 0.570244 0
M  V30 21305 C 1939.5 -3.17867 1.17533 0
M  V30 21306 C 1938.67 -3.65829 2.39766 0
M  V30 21307 C 1937.73 -4.81499 2.12238 0
M  V30 21308 O 1936.76 -4.92495 2.85371 0
M  V30 21309 N 1937.96 -5.69592 1.12006 0
M  V30 21310 H 1940.73 -1.82478 2.37744 0
M  V30 21311 H 1938.29 -0.866335 1.36771 0
M  V30 21312 H 1940.28 -3.92891 0.970489 0
M  V30 21313 H 1938.85 -3.11244 0.290811 0
M  V30 21314 H 1938.07 -2.81579 2.75874 0
M  V30 21315 H 1939.36 -3.94615 3.2118 0
M  V30 21316 H 1938.76 -5.63351 0.515003 0
M  V30 21317 H 1937.31 -6.44465 0.975098 0
M  V30 21318 N 1940.75 -1.28031 -0.919012 0
M  V30 21319 C 1941.99 -1.14258 -1.66217 0
M  V30 21320 C 1942.31 0.309269 -1.9314 0
M  V30 21321 O 1943.51 0.568038 -2.65491 0
M  V30 21322 C 1941.97 -1.99702 -2.99411 0
M  V30 21323 C 1941.58 -3.49596 -2.80155 0
M  V30 21324 C 1943.32 -1.94601 -3.77267 0
M  V30 21325 C 1941.23 -4.27209 -4.08958 0
M  V30 21326 H 1940.16 -0.424009 -0.623484 0
M  V30 21327 H 1942.81 -1.52521 -1.02028 0
M  V30 21328 H 1941.19 -1.5429 -3.64706 0
M  V30 21329 H 1942.37 -4.02929 -2.23574 0
M  V30 21330 H 1940.68 -3.56167 -2.15718 0
M  V30 21331 H 1943.28 -2.49859 -4.72731 0
M  V30 21332 H 1943.62 -0.92157 -4.05971 0
M  V30 21333 H 1944.15 -2.37954 -3.18783 0
M  V30 21334 H 1940.89 -5.30212 -3.8543 0
M  V30 21335 H 1940.41 -3.7865 -4.65171 0
M  V30 21336 H 1942.09 -4.36847 -4.77256 0
M  V30 21337 N 1942.22 1.12672 -1.10194 0
M  V30 21338 C 1943.19 2.16513 -0.751974 0
M  V30 21339 C 1944.19 1.59255 0.222352 0
M  V30 21340 O 1945.38 1.742 -0.000482744 0
M  V30 21341 C 1942.51 3.40711 -0.113421 0
M  V30 21342 H 1943.7 2.48986 -1.67171 0
M  V30 21343 H 1941.25 1.27637 -0.90214 0
M  V30 21344 H 1941.99 3.13836 0.817162 0
M  V30 21345 H 1941.77 3.83545 -0.814599 0
M  V30 21346 H 1943.26 4.1744 0.115756 0
M  V30 21347 N 1943.7 0.89031 1.30043 0
M  V30 21348 C 1944.63 0.305628 2.26144 0
M  V30 21349 C 1945.61 -0.576854 1.52024 0
M  V30 21350 O 1946.8 -0.525759 1.81019 0
M  V30 21351 C 1943.92 -0.56523 3.3395 0
M  V30 21352 C 1942.97 0.248651 4.25775 0
M  V30 21353 S 1943.8 1.64039 5.09756 0
M  V30 21354 C 1944.96 0.7762 6.21068 0
M  V30 21355 H 1945.19 1.12021 2.75388 0
M  V30 21356 H 1942.72 0.690064 1.38121 0
M  V30 21357 H 1944.68 -1.06193 3.96527 0
M  V30 21358 H 1943.34 -1.35396 2.8342 0
M  V30 21359 H 1942.54 -0.416165 5.02279 0
M  V30 21360 H 1942.14 0.678155 3.678 0
M  V30 21361 H 1944.43 -0.00451589 6.775 0
M  V30 21362 H 1945.37 1.51302 6.91747 0
M  V30 21363 H 1945.78 0.334741 5.63507 0
M  V30 21364 N 1945.18 -1.43489 0.651812 0
M  V30 21365 C 1946.4 -2.06696 0.170683 0
M  V30 21366 C 1946.83 -1.48527 -1.15418 0
M  V30 21367 O 1946.19 -0.594665 -1.7127 0
M  V30 21368 C 1946.24 -3.60484 0.0915457 0
M  V30 21369 O 1945.34 -4.01388 -0.946644 0
M  V30 21370 H 1944.68 -0.65728 0.0942276 0
M  V30 21371 H 1947.21 -1.84018 0.89434 0
M  V30 21372 H 1947.22 -4.07896 -0.0922419 0
M  V30 21373 H 1945.9 -4.02199 1.0587 0
M  V30 21374 H 1944.47 -3.65569 -0.735758 0
M  V30 21375 N 1946.66 -0.393643 -1.52605 0
M  V30 21376 C 1947.62 0.427358 -2.25181 0
M  V30 21377 C 1948.62 0.986595 -1.26976 0
M  V30 21378 O 1949.81 0.867913 -1.51039 0
M  V30 21379 C 1946.94 1.60001 -3.01019 0
M  V30 21380 H 1948.14 -0.208101 -2.99177 0
M  V30 21381 H 1945.69 -0.145844 -1.55618 0
M  V30 21382 H 1946.42 2.27278 -2.31334 0
M  V30 21383 H 1946.21 1.20567 -3.73103 0
M  V30 21384 H 1947.7 2.18115 -3.56112 0
M  V30 21385 N 1948.14 1.57115 -0.123593 0
M  V30 21386 C 1949.38 1.94527 0.533131 0
M  V30 21387 C 1949.7 1.0095 1.67536 0
M  V30 21388 O 1950.9 1.27846 2.39515 0
M  V30 21389 C 1949.36 3.45735 0.999783 0
M  V30 21390 C 1948.97 4.47854 -0.114238 0
M  V30 21391 C 1950.71 3.92057 1.62762 0
M  V30 21392 C 1948.62 5.90245 0.36937 0
M  V30 21393 H 1947.55 0.726179 0.20293 0
M  V30 21394 H 1950.2 1.8236 -0.204183 0
M  V30 21395 H 1948.58 3.53151 1.79166 0
M  V30 21396 H 1949.76 4.52111 -0.890627 0
M  V30 21397 H 1948.07 4.11311 -0.649019 0
M  V30 21398 H 1950.67 4.9586 2.00067 0
M  V30 21399 H 1951.01 3.3229 2.50777 0
M  V30 21400 H 1951.54 3.8746 0.901074 0
M  V30 21401 H 1948.28 6.53778 -0.474837 0
M  V30 21402 H 1947.8 5.89399 1.11214 0
M  V30 21403 H 1949.48 6.41666 0.829093 0
M  V30 21404 N 1949.61 -0.150187 1.56883 0
M  V30 21405 C 1950.86 -0.864615 1.83446 0
M  V30 21406 C 1951.19 -1.80963 0.70471 0
M  V30 21407 O 1950.47 -1.92297 -0.291897 0
M  V30 21408 C 1950.75 -1.64188 3.20491 0
M  V30 21409 C 1950.6 -0.718573 4.44023 0
M  V30 21410 C 1951.92 -2.60505 3.54719 0
M  V30 21411 H 1949.04 -0.312878 0.66729 0
M  V30 21412 H 1951.68 -0.129937 1.89555 0
M  V30 21413 H 1949.83 -2.26819 3.15413 0
M  V30 21414 H 1951.51 -0.103513 4.61184 0
M  V30 21415 H 1949.75 -0.0279419 4.33791 0
M  V30 21416 H 1950.42 -1.29839 5.36513 0
M  V30 21417 H 1952.9 -2.07993 3.60386 0
M  V30 21418 H 1951.77 -3.11941 4.51646 0
M  V30 21419 H 1952.03 -3.41711 2.8051 0
M  V30 21420 N 1951.09 -1.51916 -0.419434 0
M  V30 21421 C 1952.51 -1.4049 -0.757287 0
M  V30 21422 C 1952.71 -0.501274 -1.95165 0
M  V30 21423 O 1951.76 0.0368349 -2.52473 0
M  V30 21424 C 1953.08 -2.8284 -1.02088 0
M  V30 21425 C 1954.63 -2.92113 -1.12422 0
M  V30 21426 C 1955.1 -4.3541 -1.42064 0
M  V30 21427 N 1956.59 -4.38598 -1.4895 0
M  V30 21428 C 1957.33 -5.46524 -1.73492 0
M  V30 21429 N 1956.82 -6.64583 -1.95706 0
M  V30 21430 N 1958.62 -5.34026 -1.75422 0
M  V30 21431 H 1950.77 -2.09207 0.366909 0
M  V30 21432 H 1953.03 -0.942516 0.101822 0
M  V30 21433 H 1952.74 -3.51038 -0.215755 0
M  V30 21434 H 1952.61 -3.23259 -1.9438 0
M  V30 21435 H 1955 -2.24103 -1.91994 0
M  V30 21436 H 1955.08 -2.55167 -0.179896 0
M  V30 21437 H 1954.72 -5.03976 -0.630123 0
M  V30 21438 H 1954.65 -4.69884 -2.37731 0
M  V30 21439 H 1957.14 -3.53491 -1.33614 0
M  V30 21440 H 1957.46 -7.42621 -2.13854 0
M  V30 21441 H 1955.8 -6.67667 -1.92992 0
M  V30 21442 H 1958.99 -4.40773 -1.57598 0
M  V30 21443 H 1959.16 -6.18212 -1.9421 0
M  V30 21444 N 1952.57 0.676023 -1.42365 0
M  V30 21445 C 1953.8 1.46937 -1.46371 0
M  V30 21446 C 1954.22 1.87946 -0.076099 0
M  V30 21447 O 1953.58 1.55917 0.925172 0
M  V30 21448 C 1953.63 2.69558 -2.39523 0
M  V30 21449 O 1952.73 3.67782 -1.86575 0
M  V30 21450 H 1952.07 0.441478 -0.495977 0
M  V30 21451 H 1954.6 0.829284 -1.8704 0
M  V30 21452 H 1954.61 3.17642 -2.56061 0
M  V30 21453 H 1953.29 2.39049 -3.40336 0
M  V30 21454 H 1951.86 3.26808 -1.79585 0
M  V30 21455 N 1954.05 1.28517 0.912209 0
M  V30 21456 C 1955.46 1.14251 1.4766 0
M  V30 21457 C 1955.81 -0.266935 1.94376 0
M  V30 21458 O 1954.94 -1.16134 1.82598 0
M  V30 21459 C 1955.53 2.06792 2.6837 0
M  V30 21460 C 1954.09 1.96587 3.20984 0
M  V30 21461 C 1953.24 1.98444 1.93689 0
M  V30 21462 H 1956.19 1.41184 0.724769 0
M  V30 21463 H 1956.21 1.63282 3.43685 0
M  V30 21464 H 1955.72 3.09365 2.34339 0
M  V30 21465 H 1953.82 0.970565 3.59737 0
M  V30 21466 H 1953.93 2.83622 3.86129 0
M  V30 21467 H 1952.3 1.42872 2.10855 0
M  V30 21468 H 1953.08 3.02699 1.61951 0
M  V30 21469 N 1955.53 -1.12086 1.1079 0
M  V30 21470 C 1956.44 -2.21514 0.772578 0
M  V30 21471 C 1957.45 -1.72454 -0.231462 0
M  V30 21472 O 1958.63 -2.01281 -0.0693074 0
M  V30 21473 C 1955.69 -3.46043 0.213364 0
M  V30 21474 C 1954.75 -4.09925 1.27515 0
M  V30 21475 C 1953.99 -5.28509 0.742524 0
M  V30 21476 O 1954.21 -5.68779 -0.429786 0
M  V30 21477 O 1953.14 -5.82802 1.50417 0
M  V30 21478 H 1956.97 -2.52596 1.68608 0
M  V30 21479 H 1954.56 -1.20492 0.883294 0
M  V30 21480 H 1956.44 -4.21294 -0.0944683 0
M  V30 21481 H 1955.11 -3.16628 -0.672947 0
M  V30 21482 H 1954.02 -3.36436 1.63589 0
M  V30 21483 H 1955.35 -4.43504 2.13461 0
M  V30 21484 N 1957 -0.897194 -1.29569 0
M  V30 21485 C 1957.95 -0.344408 -2.25384 0
M  V30 21486 C 1958.94 0.534097 -1.51777 0
M  V30 21487 O 1960.13 0.376524 -1.72949 0
M  V30 21488 C 1957.26 0.429246 -3.40606 0
M  V30 21489 C 1956.35 -0.464038 -4.21554 0
M  V30 21490 N 1956.74 -1.57011 -4.80813 0
M  V30 21491 C 1955.03 -0.26137 -4.45233 0
M  V30 21492 C 1955.74 -2.12323 -5.41566 0
M  V30 21493 N 1954.71 -1.41659 -5.24818 0
M  V30 21494 H 1958.51 -1.18938 -2.68758 0
M  V30 21495 H 1956.03 -0.747965 -1.4415 0
M  V30 21496 H 1958.02 0.84199 -4.08309 0
M  V30 21497 H 1956.68 1.27151 -2.98769 0
M  V30 21498 H 1957.7 -1.95287 -4.7967 0
M  V30 21499 H 1954.37 0.542726 -4.13957 0
M  V30 21500 H 1955.76 -3.05274 -5.98546 0
M  V30 21501 N 1958.48 1.43142 -0.659413 0
M  V30 21502 C 1959.41 2.29102 0.0671619 0
M  V30 21503 C 1960.43 1.42846 0.780943 0
M  V30 21504 O 1961.62 1.66722 0.637666 0
M  V30 21505 C 1958.72 3.19915 1.11838 0
M  V30 21506 C 1957.89 4.34742 0.481505 0
M  V30 21507 C 1956.95 5.06384 1.43043 0
M  V30 21508 O 1955.97 5.61441 0.936648 0
M  V30 21509 N 1957.18 5.10461 2.76423 0
M  V30 21510 H 1959.94 2.92099 -0.670674 0
M  V30 21511 H 1957.5 1.53899 -0.50266 0
M  V30 21512 H 1959.49 3.64708 1.75413 0
M  V30 21513 H 1958.06 2.58474 1.75812 0
M  V30 21514 H 1957.28 3.92787 -0.333461 0
M  V30 21515 H 1958.57 5.08786 0.0371775 0
M  V30 21516 H 1957.97 4.67114 3.19095 0
M  V30 21517 H 1956.53 5.58952 3.35285 0
M  V30 21518 N 1959.96 0.40173 1.52394 0
M  V30 21519 C 1961.37 -0.0695308 1.8657 0
M  V30 21520 C 1961.72 -1.4508 1.32084 0
M  V30 21521 O 1960.85 -2.06181 0.657149 0
M  V30 21522 C 1961.44 -0.132947 3.38539 0
M  V30 21523 C 1960 -0.548527 3.72382 0
M  V30 21524 C 1959.15 0.281664 2.75866 0
M  V30 21525 H 1962.1 0.619102 1.46126 0
M  V30 21526 H 1962.12 -0.949667 3.68458 0
M  V30 21527 H 1961.63 0.872493 3.78166 0
M  V30 21528 H 1959.73 -1.56088 3.3833 0
M  V30 21529 H 1959.85 -0.29805 4.78172 0
M  V30 21530 H 1958.21 -0.254911 2.53421 0
M  V30 21531 H 1958.99 1.28531 3.18331 0
M  V30 21532 N 1961.44 -1.57047 0.131923 0
M  V30 21533 C 1962.66 -2.00419 -0.533574 0
M  V30 21534 C 1963.09 -1.01125 -1.58605 0
M  V30 21535 O 1962.45 0.0152254 -1.81294 0
M  V30 21536 C 1962.49 -3.42611 -1.12472 0
M  V30 21537 O 1961.6 -3.46263 -2.23999 0
M  V30 21538 H 1960.94 -0.650739 -0.132043 0
M  V30 21539 H 1963.47 -2.03368 0.224211 0
M  V30 21540 H 1963.48 -3.81094 -1.45709 0
M  V30 21541 H 1962.15 -4.14392 -0.353895 0
M  V30 21542 H 1960.73 -3.1961 -1.92103 0
M  V30 21543 N 1962.92 0.141865 -1.5696 0
M  V30 21544 C 1963.88 1.15896 -1.97739 0
M  V30 21545 C 1964.88 1.3558 -0.864556 0
M  V30 21546 O 1966.07 1.32485 -1.13107 0
M  V30 21547 C 1963.2 2.51822 -2.29779 0
M  V30 21548 H 1964.39 0.808993 -2.88782 0
M  V30 21549 H 1961.95 0.385387 -1.51474 0
M  V30 21550 H 1962.68 2.91781 -1.41543 0
M  V30 21551 H 1962.47 2.38894 -3.10921 0
M  V30 21552 H 1963.96 3.25066 -2.62148 0
M  V30 21553 N 1964.39 1.52136 0.411372 0
M  V30 21554 C 1965.33 1.70036 1.52194 0
M  V30 21555 C 1966.31 0.547941 1.53089 0
M  V30 21556 O 1967.49 0.775017 1.71831 0
M  V30 21557 C 1964.62 1.73764 2.9073 0
M  V30 21558 C 1963.66 2.95279 3.07754 0
M  V30 21559 S 1964.5 4.55662 2.81305 0
M  V30 21560 C 1965.65 4.62173 4.22075 0
M  V30 21561 H 1965.88 2.63966 1.36781 0
M  V30 21562 H 1963.42 1.42147 0.6028 0
M  V30 21563 H 1965.38 1.76597 3.70572 0
M  V30 21564 H 1964.04 0.809659 3.03485 0
M  V30 21565 H 1963.23 2.94363 4.09104 0
M  V30 21566 H 1962.83 2.90322 2.35773 0
M  V30 21567 H 1965.12 4.39412 5.15678 0
M  V30 21568 H 1966.07 5.641 4.28015 0
M  V30 21569 H 1966.47 3.91228 4.06941 0
M  V30 21570 N 1965.87 -0.668464 1.42721 0
M  V30 21571 C 1967.1 -1.46158 1.47148 0
M  V30 21572 C 1967.52 -1.87903 0.0860652 0
M  V30 21573 O 1966.88 -1.56406 -0.91689 0
M  V30 21574 C 1966.93 -2.68284 2.40949 0
M  V30 21575 O 1966.03 -3.66787 1.88522 0
M  V30 21576 H 1965.37 -0.438842 0.498311 0
M  V30 21577 H 1967.9 -0.819353 1.87477 0
M  V30 21578 H 1967.91 -3.1628 2.57742 0
M  V30 21579 H 1966.59 -2.3724 3.41599 0
M  V30 21580 H 1965.17 -3.25851 1.81315 0
M  V30 21581 N 1967.35 -1.28999 -0.905381 0
M  V30 21582 C 1968.28 -1.16189 -2.0254 0
M  V30 21583 C 1969.26 -0.0575293 -1.70003 0
M  V30 21584 O 1970.45 -0.236004 -1.92761 0
M  V30 21585 C 1967.58 -0.831704 -3.37194 0
M  V30 21586 C 1966.53 -1.89176 -3.83922 0
M  V30 21587 C 1965.86 -1.41501 -5.15637 0
M  V30 21588 C 1967.16 -3.29971 -4.04866 0
M  V30 21589 H 1968.85 -2.09886 -2.13514 0
M  V30 21590 H 1966.4 -1.0105 -1.02591 0
M  V30 21591 H 1968.35 -0.728825 -4.1505 0
M  V30 21592 H 1967.07 0.140958 -3.26296 0
M  V30 21593 H 1965.73 -1.98393 -3.08279 0
M  V30 21594 H 1965.38 -0.431182 -5.01149 0
M  V30 21595 H 1965.08 -2.12391 -5.47872 0
M  V30 21596 H 1966.61 -1.32552 -5.96039 0
M  V30 21597 H 1968.02 -3.23628 -4.73221 0
M  V30 21598 H 1966.42 -3.98768 -4.48447 0
M  V30 21599 H 1967.49 -3.73369 -3.09393 0
M  V30 21600 N 1968.83 1.11497 -1.11383 0
M  V30 21601 C 1969.76 2.19592 -0.793827 0
M  V30 21602 C 1970.74 1.68433 0.237559 0
M  V30 21603 O 1971.93 1.93936 0.101164 0
M  V30 21604 C 1969.06 3.465 -0.235579 0
M  V30 21605 C 1968.01 4.10869 -1.19877 0
M  V30 21606 C 1967.34 5.32345 -0.501259 0
M  V30 21607 C 1968.64 4.55864 -2.54922 0
M  V30 21608 H 1970.33 2.46617 -1.69766 0
M  V30 21609 H 1967.88 1.18532 -0.817695 0
M  V30 21610 H 1969.83 4.214 0.000490272 0
M  V30 21611 H 1968.55 3.18932 0.703544 0
M  V30 21612 H 1967.21 3.37962 -1.42046 0
M  V30 21613 H 1966.86 5.01048 0.442652 0
M  V30 21614 H 1966.56 5.76363 -1.14367 0
M  V30 21615 H 1968.08 6.09985 -0.273968 0
M  V30 21616 H 1969.5 5.22089 -2.36845 0
M  V30 21617 H 1967.89 5.10693 -3.15139 0
M  V30 21618 H 1968.96 3.69342 -3.14189 0
M  V30 21619 N 1970.31 0.904053 1.29092 0
M  V30 21620 C 1971.27 0.389889 2.25859 0
M  V30 21621 C 1972.27 -0.47836 1.5352 0
M  V30 21622 O 1973.46 -0.282793 1.71889 0
M  V30 21623 C 1970.59 -0.442126 3.38021 0
M  V30 21624 H 1971.79 1.24458 2.72856 0
M  V30 21625 H 1969.34 0.68258 1.40608 0
M  V30 21626 H 1970.07 -1.31662 2.96371 0
M  V30 21627 H 1969.86 0.180067 3.91686 0
M  V30 21628 H 1971.35 -0.793021 4.10001 0
M  V30 21629 N 1971.79 -1.4279 0.666995 0
M  V30 21630 C 1973.2 -1.84821 0.264217 0
M  V30 21631 C 1973.55 -1.55834 -1.19206 0
M  V30 21632 O 1972.67 -1.01422 -1.91161 0
M  V30 21633 C 1973.27 -3.35485 0.47276 0
M  V30 21634 C 1971.83 -3.76195 0.124176 0
M  V30 21635 C 1970.97 -2.66424 0.768989 0
M  V30 21636 H 1973.92 -1.32747 0.869709 0
M  V30 21637 H 1973.95 -3.79487 -0.277532 0
M  V30 21638 H 1973.46 -3.56551 1.53274 0
M  V30 21639 H 1971.56 -3.60738 -0.932667 0
M  V30 21640 H 1971.67 -4.75825 0.559251 0
M  V30 21641 H 1970.04 -2.53906 0.200994 0
M  V30 21642 H 1970.82 -2.90315 1.83227 0
M  V30 21643 N 1973.26 -0.409806 -1.52179 0
M  V30 21644 C 1974.67 0.0596356 -1.86605 0
M  V30 21645 C 1975.03 1.44377 -1.32852 0
M  V30 21646 O 1974.15 2.05829 -0.668074 0
M  V30 21647 C 1974.75 0.114992 -3.38605 0
M  V30 21648 C 1973.3 0.528771 -3.72667 0
M  V30 21649 C 1972.45 -0.29629 -2.75713 0
M  V30 21650 H 1975.4 -0.626843 -1.45796 0
M  V30 21651 H 1975.42 0.930114 -3.68957 0
M  V30 21652 H 1974.94 -0.892535 -3.77698 0
M  V30 21653 H 1973.04 1.54291 -3.39153 0
M  V30 21654 H 1973.15 0.272687 -4.78323 0
M  V30 21655 H 1971.51 0.241468 -2.53553 0
M  V30 21656 H 1972.3 -1.30218 -3.17645 0
M  V30 21657 N 1974.74 1.56975 -0.14025 0
M  V30 21658 C 1975.97 2.00699 0.522938 0
M  V30 21659 C 1976.39 1.01964 1.58066 0
M  V30 21660 O 1975.75 -0.0056107 1.81299 0
M  V30 21661 C 1975.8 3.43203 1.10653 0
M  V30 21662 O 1974.9 3.47447 2.22159 0
M  V30 21663 H 1974.24 0.65143 0.12859 0
M  V30 21664 H 1976.77 2.03246 -0.234993 0
M  V30 21665 H 1976.78 3.81862 1.43686 0
M  V30 21666 H 1975.46 4.14573 0.331913 0
M  V30 21667 H 1974.03 3.20625 1.90405 0
M  V30 21668 N 1976.22 -0.133539 1.57033 0
M  V30 21669 C 1977.44 -0.862393 1.8862 0
M  V30 21670 C 1977.87 -1.73328 0.730696 0
M  V30 21671 O 1977.23 -1.78466 -0.319297 0
M  V30 21672 C 1977.28 -1.68381 3.18873 0
M  V30 21673 O 1976.38 -2.78939 3.03755 0
M  V30 21674 H 1975.72 -0.239391 0.619345 0
M  V30 21675 H 1978.25 -0.120306 2.04246 0
M  V30 21676 H 1978.26 -2.07606 3.51232 0
M  V30 21677 H 1976.94 -1.0444 4.02573 0
M  V30 21678 H 1975.51 -2.43022 2.82833 0
M  V30 21679 N 1977.7 -1.52352 -0.403298 0
M  V30 21680 C 1979.11 -1.41285 -0.742343 0
M  V30 21681 C 1979.31 -0.521946 -1.94623 0
M  V30 21682 O 1978.37 0.0100547 -2.52498 0
M  V30 21683 C 1979.68 -2.83907 -0.990819 0
M  V30 21684 C 1981.23 -2.93289 -1.09318 0
M  V30 21685 C 1981.71 -4.36892 -1.37437 0
M  V30 21686 N 1983.2 -4.40153 -1.4429 0
M  V30 21687 C 1983.93 -5.48333 -1.67686 0
M  V30 21688 N 1983.43 -6.66622 -1.88647 0
M  V30 21689 N 1985.22 -5.35856 -1.69748 0
M  V30 21690 H 1977.37 -2.08806 0.389077 0
M  V30 21691 H 1979.63 -0.941383 0.111813 0
M  V30 21692 H 1979.34 -3.51247 -0.178511 0
M  V30 21693 H 1979.21 -3.25302 -1.9094 0
M  V30 21694 H 1981.6 -2.26127 -1.89607 0
M  V30 21695 H 1981.68 -2.55343 -0.152822 0
M  V30 21696 H 1981.33 -5.04616 -0.576634 0
M  V30 21697 H 1981.26 -4.72379 -2.32734 0
M  V30 21698 H 1983.75 -3.54888 -1.29857 0
M  V30 21699 H 1984.06 -7.44848 -2.05965 0
M  V30 21700 H 1982.41 -6.69676 -1.859 0
M  V30 21701 H 1985.6 -4.42419 -1.52914 0
M  V30 21702 H 1985.77 -6.20237 -1.87642 0
M  V30 21703 N 1979.18 0.660885 -1.43074 0
M  V30 21704 C 1980.59 0.97566 -1.26305 0
M  V30 21705 C 1980.79 2.00719 -0.17724 0
M  V30 21706 O 1979.85 2.48514 0.446896 0
M  V30 21707 C 1981.16 1.46722 -2.62475 0
M  V30 21708 C 1982.71 1.58427 -2.69944 0
M  V30 21709 C 1983.18 2.10976 -4.06514 0
M  V30 21710 N 1984.67 2.18289 -4.08539 0
M  V30 21711 C 1985.41 2.60054 -5.11038 0
M  V30 21712 N 1984.91 3.01171 -6.23913 0
M  V30 21713 N 1986.7 2.59926 -4.98392 0
M  V30 21714 H 1978.85 -0.02183 -2.12389 0
M  V30 21715 H 1981.11 0.0527972 -0.946529 0
M  V30 21716 H 1980.82 0.783712 -3.42857 0
M  V30 21717 H 1980.69 2.44359 -2.87348 0
M  V30 21718 H 1983.08 2.25881 -1.899 0
M  V30 21719 H 1983.16 0.592433 -2.48845 0
M  V30 21720 H 1982.8 1.44126 -4.87022 0
M  V30 21721 H 1982.73 3.10976 -4.24972 0
M  V30 21722 H 1985.23 1.89317 -3.27059 0
M  V30 21723 H 1985.54 3.31766 -6.97962 0
M  V30 21724 H 1983.88 2.98994 -6.27398 0
M  V30 21725 H 1987.07 2.27175 -4.09279 0
M  V30 21726 H 1987.25 2.92154 -5.78403 0
M  V30 21727 N 1980.65 1.29477 0.898527 0
M  V30 21728 C 1981.6 1.14706 2.00278 0
M  V30 21729 C 1982.57 0.040077 1.66052 0
M  V30 21730 O 1983.76 0.207808 1.89665 0
M  V30 21731 C 1980.9 0.830802 3.3495 0
M  V30 21732 C 1980.01 2.01834 3.81952 0
M  V30 21733 C 1979.14 1.64135 5.05206 0
M  V30 21734 C 1978.18 2.79464 5.44579 0
M  V30 21735 N 1977.32 2.42153 6.59019 0
M  V30 21736 H 1982.16 2.09181 2.12244 0
M  V30 21737 H 1979.7 1.04092 1.03939 0
M  V30 21738 H 1981.66 0.628119 4.12445 0
M  V30 21739 H 1980.29 -0.0770431 3.22708 0
M  V30 21740 H 1979.34 2.33269 3.00483 0
M  V30 21741 H 1980.65 2.88247 4.07081 0
M  V30 21742 H 1979.8 1.40163 5.90288 0
M  V30 21743 H 1978.54 0.748722 4.81918 0
M  V30 21744 H 1977.55 3.04117 4.58031 0
M  V30 21745 H 1978.77 3.69393 5.69847 0
M  V30 21746 H 1976.72 1.55379 6.37333 0
M  V30 21747 H 1976.64 3.221 6.8395 0
M  V30 21748 H 1977.9 2.21503 7.47366 0
M  V30 21749 N 1982.13 -1.10905 1.11972 0
M  V30 21750 C 1983.04 -2.20682 0.796029 0
M  V30 21751 C 1984.06 -1.72689 -0.213158 0
M  V30 21752 O 1985.23 -2.01343 -0.047955 0
M  V30 21753 C 1982.3 -3.45797 0.250055 0
M  V30 21754 C 1981.36 -4.08549 1.31855 0
M  V30 21755 C 1980.59 -5.27692 0.798538 0
M  V30 21756 O 1980.82 -5.69202 -0.369435 0
M  V30 21757 O 1979.75 -5.81174 1.5659 0
M  V30 21758 H 1983.58 -2.50794 1.71278 0
M  V30 21759 H 1981.16 -1.19548 0.896024 0
M  V30 21760 H 1983.04 -4.21371 -0.0497791 0
M  V30 21761 H 1981.72 -3.17324 -0.639327 0
M  V30 21762 H 1980.63 -3.34682 1.67148 0
M  V30 21763 H 1981.96 -4.41215 2.18153 0
M  V30 21764 N 1983.61 -0.910886 -1.2861 0
M  V30 21765 C 1984.84 -0.557684 -1.99761 0
M  V30 21766 C 1985.26 0.853148 -1.67639 0
M  V30 21767 O 1984.62 1.5697 -0.907192 0
M  V30 21768 C 1984.67 -0.770188 -3.52279 0
M  V30 21769 O 1983.77 0.172155 -4.12041 0
M  V30 21770 H 1983.11 -0.216573 -0.627688 0
M  V30 21771 H 1985.64 -1.22554 -1.63834 0
M  V30 21772 H 1985.65 -0.679176 -4.02307 0
M  V30 21773 H 1984.33 -1.79869 -3.74993 0
M  V30 21774 H 1982.9 0.0326535 -3.72886 0
M  V30 21775 N 1985.09 1.42434 -0.674558 0
M  V30 21776 C 1986.31 2.06399 -0.203545 0
M  V30 21777 C 1986.74 1.50345 1.1304 0
M  V30 21778 O 1986.1 0.621837 1.70302 0
M  V30 21779 C 1986.14 3.60293 -0.148884 0
M  V30 21780 O 1985.25 4.02843 0.882667 0
M  V30 21781 H 1984.59 0.655698 -0.104672 0
M  V30 21782 H 1987.12 1.82572 -0.923502 0
M  V30 21783 H 1987.13 4.07991 0.0273375 0
M  V30 21784 H 1985.8 4.00464 -1.12256 0
M  V30 21785 H 1984.38 3.66694 0.677506 0
M  V30 21786 N 1986.57 0.417871 1.51959 0
M  V30 21787 C 1987.79 -0.154295 2.06324 0
M  V30 21788 C 1988.21 -1.38123 1.28714 0
M  V30 21789 O 1987.57 -1.79279 0.341355 0
M  V30 21790 C 1987.62 -0.496014 3.58081 0
M  V30 21791 O 1987.34 0.682208 4.32756 0
M  V30 21792 C 1988.84 -1.12097 4.28893 0
M  V30 21793 H 1986.06 -0.0165345 0.670796 0
M  V30 21794 H 1988.6 0.591345 1.95764 0
M  V30 21795 H 1986.76 -1.19155 3.6862 0
M  V30 21796 H 1987.17 0.394868 5.23012 0
M  V30 21797 H 1988.65 -1.31021 5.36225 0
M  V30 21798 H 1989.12 -2.09655 3.85929 0
M  V30 21799 H 1989.73 -0.465383 4.22746 0
M  V30 21800 N 1988.04 -1.56898 0.148573 0
M  V30 21801 C 1989.46 -1.82957 -0.371991 0
M  V30 21802 C 1989.81 -1.06735 -1.64627 0
M  V30 21803 O 1988.93 -0.313128 -2.14123 0
M  V30 21804 C 1989.53 -3.31871 -0.681682 0
M  V30 21805 C 1988.09 -3.58506 -1.14676 0
M  V30 21806 C 1987.23 -2.76774 -0.170675 0
M  V30 21807 H 1990.18 -1.54248 0.373244 0
M  V30 21808 H 1990.2 -3.48112 -1.53618 0
M  V30 21809 H 1989.72 -3.8732 0.245938 0
M  V30 21810 H 1987.82 -3.08445 -2.09027 0
M  V30 21811 H 1987.93 -4.66961 -1.07165 0
M  V30 21812 H 1986.29 -2.45903 -0.663611 0
M  V30 21813 H 1987.08 -3.34995 0.750563 0
M  V30 21814 N 1989.52 0.125209 -1.57102 0
M  V30 21815 C 1990.43 1.17286 -2.03177 0
M  V30 21816 C 1991.45 1.4571 -0.951035 0
M  V30 21817 O 1992.62 1.56949 -1.2621 0
M  V30 21818 C 1989.69 2.4811 -2.42161 0
M  V30 21819 C 1988.75 2.2714 -3.64288 0
M  V30 21820 C 1987.98 3.51726 -4.01404 0
M  V30 21821 O 1988.21 4.58785 -3.38929 0
M  V30 21822 O 1987.14 3.43096 -4.94539 0
M  V30 21823 H 1990.97 0.811619 -2.92654 0
M  V30 21824 H 1988.55 0.335551 -1.45583 0
M  V30 21825 H 1990.43 3.252 -2.67998 0
M  V30 21826 H 1989.11 2.83721 -1.55833 0
M  V30 21827 H 1988.02 1.47929 -3.4361 0
M  V30 21828 H 1989.35 1.96435 -4.51303 0
M  V30 21829 N 1991 1.52564 0.395213 0
M  V30 21830 C 1991.91 1.79813 1.5068 0
M  V30 21831 C 1992.93 0.684507 1.5997 0
M  V30 21832 O 1994.1 0.971428 1.76423 0
M  V30 21833 C 1991.17 1.95567 2.86277 0
M  V30 21834 C 1990.23 3.19481 2.86759 0
M  V30 21835 C 1989.46 3.34474 4.15888 0
M  V30 21836 O 1989.68 2.54414 5.10519 0
M  V30 21837 O 1988.62 4.27698 4.23507 0
M  V30 21838 H 1992.44 2.74191 1.30586 0
M  V30 21839 H 1990.03 1.37579 0.582445 0
M  V30 21840 H 1991.91 2.07672 3.66675 0
M  V30 21841 H 1990.59 1.04378 3.0641 0
M  V30 21842 H 1989.49 3.12823 2.05164 0
M  V30 21843 H 1990.83 4.10496 2.71577 0
M  V30 21844 N 1992.48 -0.653289 1.43422 0
M  V30 21845 C 1993.73 -1.41319 1.45036 0
M  V30 21846 C 1994.05 -1.94357 0.074626 0
M  V30 21847 O 1993.31 -1.72707 -0.920363 0
M  V30 21848 C 1993.61 -2.6117 2.43978 0
M  V30 21849 C 1993.27 -2.2655 3.89854 0
M  V30 21850 C 1991.94 -2.16821 4.29584 0
M  V30 21851 C 1994.29 -1.98838 4.81781 0
M  V30 21852 C 1991.62 -1.77535 5.59194 0
M  V30 21853 C 1993.97 -1.61051 6.11756 0
M  V30 21854 C 1992.63 -1.49847 6.50463 0
M  V30 21855 H 1991.9 -0.517121 0.530723 0
M  V30 21856 H 1994.55 -0.742946 1.76501 0
M  V30 21857 H 1992.85 -3.33326 2.05916 0
M  V30 21858 H 1994.55 -3.19381 2.42481 0
M  V30 21859 H 1991.14 -2.35033 3.58409 0
M  V30 21860 H 1995.32 -2.05276 4.51858 0
M  V30 21861 H 1990.58 -1.67447 5.88023 0
M  V30 21862 H 1994.75 -1.38639 6.8246 0
M  V30 21863 H 1992.38 -1.19176 7.508 0
M  V30 21864 N 1993.96 -1.29952 -0.891648 0
M  V30 21865 C 1995.18 -1.21422 -1.68141 0
M  V30 21866 C 1995.61 0.220633 -1.86802 0
M  V30 21867 O 1994.96 1.15902 -1.39414 0
M  V30 21868 C 1995.01 -1.94116 -3.03894 0
M  V30 21869 O 1994.12 -1.26369 -3.92562 0
M  V30 21870 H 1993.46 -0.420318 -0.514032 0
M  V30 21871 H 1995.99 -1.71658 -1.11331 0
M  V30 21872 H 1996 -2.02881 -3.53982 0
M  V30 21873 H 1994.67 -2.98474 -2.89631 0
M  V30 21874 H 1993.25 -1.25915 -3.50998 0
M  V30 21875 N 1995.44 1.1031 -1.12559 0
M  V30 21876 C 1996.85 1.34325 -0.861911 0
M  V30 21877 C 1997.05 1.95009 0.507319 0
M  V30 21878 O 1996.11 2.1906 1.25574 0
M  V30 21879 C 1997.42 2.26367 -1.97935 0
M  V30 21880 C 1998.97 2.39901 -2.01039 0
M  V30 21881 C 1999.44 3.35273 -3.1202 0
M  V30 21882 N 2000.93 3.42841 -3.11471 0
M  V30 21883 C 2001.67 4.16611 -3.93983 0
M  V30 21884 N 2001.17 4.93256 -4.86488 0
M  V30 21885 N 2002.96 4.12243 -3.82116 0
M  V30 21886 H 1995.11 0.692899 -2.0078 0
M  V30 21887 H 1997.37 0.367689 -0.87379 0
M  V30 21888 H 1997.08 1.8899 -2.96607 0
M  V30 21889 H 1996.95 3.26685 -1.88565 0
M  V30 21890 H 1999.34 2.76546 -1.02986 0
M  V30 21891 H 1999.42 1.39393 -2.14484 0
M  V30 21892 H 1999.06 2.99352 -4.10306 0
M  V30 21893 H 1998.99 4.35663 -2.95813 0
M  V30 21894 H 2001.49 2.88182 -2.44457 0
M  V30 21895 H 2001.8 5.46948 -5.45956 0
M  V30 21896 H 2000.14 4.92376 -4.90501 0
M  V30 21897 H 2003.33 3.5146 -3.09182 0
M  V30 21898 H 2003.51 4.69475 -4.46651 0
M  V30 21899 N 1996.91 0.917694 1.28125 0
M  V30 21900 C 1998.33 0.616431 1.47215 0
M  V30 21901 C 1998.53 -0.837161 1.83286 0
M  V30 21902 O 1997.59 -1.61591 1.94022 0
M  V30 21903 C 1998.9 1.55772 2.57207 0
M  V30 21904 C 2000.45 1.56486 2.71074 0
M  V30 21905 C 2000.92 2.49286 3.84214 0
M  V30 21906 N 2002.41 2.47436 3.91573 0
M  V30 21907 C 2003.15 3.15936 4.7851 0
M  V30 21908 N 2002.64 3.9378 5.70008 0
M  V30 21909 N 2004.44 3.05004 4.72154 0
M  V30 21910 H 1996.59 1.85758 1.02993 0
M  V30 21911 H 1998.85 0.796969 0.513366 0
M  V30 21912 H 1998.56 2.59423 2.37471 0
M  V30 21913 H 1998.43 1.2918 3.5439 0
M  V30 21914 H 2000.82 0.535708 2.90197 0
M  V30 21915 H 2000.9 1.87122 1.7441 0
M  V30 21916 H 2000.54 3.52306 3.65846 0
M  V30 21917 H 2000.47 2.1595 4.80284 0
M  V30 21918 H 2002.96 1.90893 3.26141 0
M  V30 21919 H 2003.28 4.43058 6.33182 0
M  V30 21920 H 2001.62 3.97885 5.69836 0
M  V30 21921 H 2004.81 2.4369 3.99666 0
M  V30 21922 H 2004.99 3.5866 5.39691 0
M  V30 21923 N 1998.39 -1.42074 0.682102 0
M  V30 21924 C 1999.32 -2.33489 0.0224223 0
M  V30 21925 C 2000.3 -1.51082 -0.781557 0
M  V30 21926 O 2001.49 -1.79662 -0.737243 0
M  V30 21927 C 1998.62 -3.34773 -0.92434 0
M  V30 21928 C 1997.57 -4.2739 -0.228431 0
M  V30 21929 C 1996.9 -5.1894 -1.28863 0
M  V30 21930 C 1998.2 -5.14539 0.897035 0
M  V30 21931 H 1999.89 -2.88901 0.785898 0
M  V30 21932 H 1997.44 -1.38913 0.379376 0
M  V30 21933 H 1999.39 -3.97641 -1.39497 0
M  V30 21934 H 1998.11 -2.77681 -1.71932 0
M  V30 21935 H 1996.77 -3.65927 0.222034 0
M  V30 21936 H 1996.42 -4.5817 -2.07579 0
M  V30 21937 H 1996.12 -5.81736 -0.828084 0
M  V30 21938 H 1997.65 -5.84683 -1.76005 0
M  V30 21939 H 1999.06 -5.71051 0.507296 0
M  V30 21940 H 1997.46 -5.86206 1.28383 0
M  V30 21941 H 1998.53 -4.52505 1.74263 0
M  V30 21942 N 1999.87 -0.425924 -1.51735 0
M  V30 21943 C 2000.82 0.391248 -2.2746 0
M  V30 21944 C 2001.79 1.02669 -1.30569 0
M  V30 21945 O 2002.97 1.04777 -1.59457 0
M  V30 21946 C 2000.11 1.4928 -3.11142 0
M  V30 21947 C 1999.22 0.876622 -4.23012 0
M  V30 21948 C 1998.36 1.95227 -4.94024 0
M  V30 21949 C 1997.4 1.31392 -5.97832 0
M  V30 21950 N 1996.54 2.33043 -6.62296 0
M  V30 21951 H 2001.38 -0.26089 -2.96856 0
M  V30 21952 H 1998.91 -0.1405 -1.46427 0
M  V30 21953 H 2000.87 2.14262 -3.57977 0
M  V30 21954 H 1999.5 2.11473 -2.43884 0
M  V30 21955 H 1998.55 0.115399 -3.80225 0
M  V30 21956 H 1999.86 0.370471 -4.97422 0
M  V30 21957 H 1999.02 2.67897 -5.44349 0
M  V30 21958 H 1997.76 2.49212 -4.19219 0
M  V30 21959 H 1996.76 0.572626 -5.4681 0
M  V30 21960 H 1997.99 0.781544 -6.74588 0
M  V30 21961 H 1995.93 2.86129 -5.9031 0
M  V30 21962 H 1995.85 1.87287 -7.32434 0
M  V30 21963 H 1997.12 3.05231 -7.17255 0
M  V30 21964 N 2001.35 1.56817 -0.156891 0
M  V30 21965 C 2002.26 2.20833 0.79183 0
M  V30 21966 C 2003.27 1.19558 1.26419 0
M  V30 21967 O 2004.45 1.5217 1.31933 0
M  V30 21968 C 2001.51 2.82517 2.00961 0
M  V30 21969 C 2000.58 3.98948 1.58552 0
M  V30 21970 C 1999.81 4.57681 2.74525 0
M  V30 21971 O 2000.03 4.15295 3.91007 0
M  V30 21972 O 1998.97 5.47786 2.49428 0
M  V30 21973 H 2002.79 3.02436 0.276846 0
M  V30 21974 H 2000.38 1.49233 0.0706167 0
M  V30 21975 H 2002.26 3.21683 2.72209 0
M  V30 21976 H 2000.93 2.03921 2.51392 0
M  V30 21977 H 1999.84 3.64479 0.84297 0
M  V30 21978 H 2001.17 4.79094 1.12826 0
M  V30 21979 N 2002.83 -0.116876 1.57166 0
M  V30 21980 C 2004.24 -0.470473 1.52508 0
M  V30 21981 C 2004.44 -1.8174 0.870224 0
M  V30 21982 O 2003.5 -2.48395 0.453461 0
M  V30 21983 C 2004.81 -0.453012 2.97268 0
M  V30 21984 C 2006.36 -0.536413 3.08369 0
M  V30 21985 C 2006.83 -0.549319 4.54694 0
M  V30 21986 N 2008.32 -0.610698 4.59157 0
M  V30 21987 C 2009.06 -0.642166 5.69793 0
M  V30 21988 N 2008.56 -0.631152 6.89919 0
M  V30 21989 N 2010.35 -0.685335 5.57906 0
M  V30 21990 H 2002.5 0.765638 1.98121 0
M  V30 21991 H 2004.76 0.282662 0.904879 0
M  V30 21992 H 2004.47 0.469074 3.48558 0
M  V30 21993 H 2004.34 -1.28004 3.54817 0
M  V30 21994 H 2006.73 -1.44892 2.57081 0
M  V30 21995 H 2006.81 0.318339 2.53811 0
M  V30 21996 H 2006.45 0.35915 5.06629 0
M  V30 21997 H 2006.38 -1.42098 5.07066 0
M  V30 21998 H 2008.88 -0.625287 3.72691 0
M  V30 21999 H 2009.19 -0.657846 7.69995 0
M  V30 22000 H 2007.53 -0.598543 6.92418 0
M  V30 22001 H 2010.72 -0.691318 4.62967 0
M  V30 22002 H 2010.9 -0.706392 6.44138 0
M  V30 22003 N 2004.3 -1.52772 -0.387116 0
M  V30 22004 C 2005.24 -1.72436 -1.49469 0
M  V30 22005 C 2006.21 -0.572226 -1.52198 0
M  V30 22006 O 2007.4 -0.802255 -1.70576 0
M  V30 22007 C 2004.53 -1.78368 -2.87928 0
M  V30 22008 C 2003.57 -3.00138 -3.03017 0
M  V30 22009 S 2004.4 -4.6008 -2.7402 0
M  V30 22010 C 2005.56 -4.68829 -4.14668 0
M  V30 22011 H 2005.79 -2.66109 -1.32564 0
M  V30 22012 H 2003.33 -1.43088 -0.580109 0
M  V30 22013 H 2005.28 -1.8247 -3.67716 0
M  V30 22014 H 2003.95 -0.857839 -3.02159 0
M  V30 22015 H 2003.14 -3.00835 -4.04369 0
M  V30 22016 H 2002.74 -2.94036 -2.31125 0
M  V30 22017 H 2005.03 -4.4756 -5.08622 0
M  V30 22018 H 2005.98 -5.70838 -4.18986 0
M  V30 22019 H 2006.38 -3.97653 -4.00665 0
M  V30 22020 N 2005.78 0.645673 -1.43767 0
M  V30 22021 C 2006.73 1.75163 -1.45952 0
M  V30 22022 C 2007.72 1.57541 -0.327037 0
M  V30 22023 O 2008.91 1.67525 -0.571347 0
M  V30 22024 C 2006.04 3.13787 -1.39257 0
M  V30 22025 C 2005.12 3.3693 -2.57564 0
M  V30 22026 N 2005.51 3.30508 -3.82881 0
M  V30 22027 C 2003.81 3.67676 -2.52449 0
M  V30 22028 C 2004.51 3.5394 -4.61629 0
M  V30 22029 N 2003.49 3.76116 -3.92476 0
M  V30 22030 H 2007.29 1.68634 -2.40707 0
M  V30 22031 H 2004.8 0.847619 -1.38525 0
M  V30 22032 H 2006.8 3.93079 -1.38905 0
M  V30 22033 H 2005.46 3.21492 -0.455285 0
M  V30 22034 H 2006.47 3.09751 -4.1506 0
M  V30 22035 H 2003.15 3.8245 -1.67445 0
M  V30 22036 H 2004.54 3.5469 -5.70653 0
M  V30 22037 N 2007.26 1.30423 0.884744 0
M  V30 22038 C 2008.21 1.13434 1.97779 0
M  V30 22039 C 2009.19 0.0494483 1.60824 0
M  V30 22040 O 2010.39 0.272793 1.74885 0
M  V30 22041 C 2007.51 0.828489 3.33153 0
M  V30 22042 C 2006.6 1.95365 3.76422 0
M  V30 22043 N 2006.99 3.19903 3.91785 0
M  V30 22044 C 2005.29 1.85007 4.05818 0
M  V30 22045 C 2005.99 3.93408 4.28492 0
M  V30 22046 N 2004.97 3.2146 4.38366 0
M  V30 22047 H 2008.77 2.07889 2.07748 0
M  V30 22048 H 2006.28 1.21765 1.07457 0
M  V30 22049 H 2008.28 0.687799 4.11187 0
M  V30 22050 H 2006.94 -0.107985 3.2452 0
M  V30 22051 H 2007.95 3.55189 3.7691 0
M  V30 22052 H 2004.63 0.987286 4.05659 0
M  V30 22053 H 2006.02 5.00656 4.48099 0
M  V30 22054 N 2008.74 -1.09711 1.13142 0
M  V30 22055 C 2009.69 -2.18355 0.801498 0
M  V30 22056 C 2010.68 -1.68031 -0.214907 0
M  V30 22057 O 2011.89 -1.79855 -0.0723523 0
M  V30 22058 H 2008.26 -0.712202 0.241398 0
M  V30 22059 H 2010.23 -2.43416 1.72601 0
M  V30 22060 C 2008.98 -3.46566 0.280613 0
M  V30 22061 H 2008.3 -3.85656 1.05403 0
M  V30 22062 H 2009.74 -4.23908 0.0881579 0
M  V30 22063 C 2008.2 -3.21932 -0.993053 0
M  V30 22064 O 2008.73 -3.44292 -2.06944 0
M  V30 22065 N 2006.94 -2.75553 -0.922971 0
M  V30 22066 H 2006.49 -2.57557 -0.0468975 0
M  V30 22067 H 2006.44 -2.59449 -1.77577 0
M  V30 22068 N 2010.22 -0.924476 -1.27637 0
M  V30 22069 C 2011.47 -0.559056 -1.93797 0
M  V30 22070 C 2011.78 0.903501 -1.73483 0
M  V30 22071 O 2012.98 1.37756 -2.33956 0
M  V30 22072 C 2011.44 -0.949035 -3.47162 0
M  V30 22073 C 2011.05 -2.43205 -3.76238 0
M  V30 22074 C 2012.79 -0.654714 -4.19421 0
M  V30 22075 C 2010.7 -2.7616 -5.22962 0
M  V30 22076 H 2009.63 -0.205363 -0.725494 0
M  V30 22077 H 2012.28 -1.12485 -1.4498 0
M  V30 22078 H 2010.66 -0.311922 -3.9477 0
M  V30 22079 H 2011.84 -3.1168 -3.39399 0
M  V30 22080 H 2010.15 -2.69794 -3.17176 0
M  V30 22081 H 2012.75 -0.877465 -5.27451 0
M  V30 22082 H 2013.09 0.407944 -4.14296 0
M  V30 22083 H 2013.62 -1.25078 -3.77625 0
M  V30 22084 H 2010.36 -3.81322 -5.33173 0
M  V30 22085 H 2009.88 -2.12332 -5.60959 0
M  V30 22086 H 2011.56 -2.63732 -5.90808 0
M  V30 22087 N 2011.69 1.41711 -0.689627 0
M  V30 22088 C 2013.11 1.84377 -0.293587 0
M  V30 22089 C 2013.46 1.57711 1.16712 0
M  V30 22090 O 2012.58 1.0445 1.89523 0
M  V30 22091 C 2013.18 3.34691 -0.526073 0
M  V30 22092 C 2011.74 3.7595 -0.184009 0
M  V30 22093 C 2010.88 2.65167 -0.811277 0
M  V30 22094 H 2013.83 1.31347 -0.890718 0
M  V30 22095 H 2013.85 3.7988 0.217124 0
M  V30 22096 H 2013.37 3.54068 -1.58927 0
M  V30 22097 H 2011.47 3.62176 0.875158 0
M  V30 22098 H 2011.58 4.74875 -0.63488 0
M  V30 22099 H 2009.94 2.53554 -0.241363 0
M  V30 22100 H 2010.73 2.87363 -1.87822 0
M  V30 22101 N 2013.17 0.433965 1.51507 0
M  V30 22102 C 2014.12 -0.397051 2.24516 0
M  V30 22103 C 2015.11 -0.992896 1.26611 0
M  V30 22104 O 2016.3 -0.911595 1.5172 0
M  V30 22105 C 2013.43 -1.49953 3.08819 0
M  V30 22106 C 2012.51 -0.913247 4.1415 0
M  V30 22107 N 2012.9 -0.0558268 5.05769 0
M  V30 22108 C 2011.2 -1.18118 4.30074 0
M  V30 22109 C 2011.9 0.27308 5.81059 0
M  V30 22110 N 2010.88 -0.342445 5.4252 0
M  V30 22111 H 2014.68 0.264043 2.92712 0
M  V30 22112 H 2012.2 0.245838 1.60528 0
M  V30 22113 H 2014.19 -2.1077 3.59696 0
M  V30 22114 H 2012.85 -2.163 2.42166 0
M  V30 22115 H 2013.86 0.310359 5.16969 0
M  V30 22116 H 2010.54 -1.84239 3.74649 0
M  V30 22117 H 2011.93 0.970595 6.64853 0
M  V30 22118 N 2014.65 -1.56732 0.165206 0
M  V30 22119 C 2016.07 -1.58453 -0.191031 0
M  V30 22120 C 2016.27 -1.1803 -1.63313 0
M  V30 22121 O 2015.32 -0.889055 -2.3633 0
M  V30 22122 C 2016.64 -3.00582 0.0842414 0
M  V30 22123 C 2018.18 -3.12992 0.0219686 0
M  V30 22124 C 2018.66 -4.57203 0.270149 0
M  V30 22125 N 2020.15 -4.62688 0.217711 0
M  V30 22126 C 2020.88 -5.72113 0.383998 0
M  V30 22127 N 2020.38 -6.90118 0.609007 0
M  V30 22128 N 2022.17 -5.61187 0.320329 0
M  V30 22129 H 2014.32 -1.81296 1.1066 0
M  V30 22130 H 2016.59 -0.839986 0.439463 0
M  V30 22131 H 2016.29 -3.3461 1.083 0
M  V30 22132 H 2016.17 -3.71954 -0.62693 0
M  V30 22133 H 2018.55 -2.78794 -0.967358 0
M  V30 22134 H 2018.64 -2.44069 0.765755 0
M  V30 22135 H 2018.28 -4.92108 1.25666 0
M  V30 22136 H 2018.21 -5.24276 -0.494177 0
M  V30 22137 H 2020.7 -3.77868 0.0491965 0
M  V30 22138 H 2021.01 -7.69387 0.725507 0
M  V30 22139 H 2019.36 -6.91995 0.645549 0
M  V30 22140 H 2022.55 -4.67875 0.145176 0
M  V30 22141 H 2022.72 -6.46412 0.453351 0
M  V30 22142 N 2016.13 0.10854 -1.57226 0
M  V30 22143 C 2017.38 0.814467 -1.85399 0
M  V30 22144 C 2017.7 1.79382 -0.75181 0
M  V30 22145 O 2016.96 1.9402 0.255884 0
M  V30 22146 C 2017.26 1.58963 -3.20102 0
M  V30 22147 C 2016.92 0.75362 -4.44558 0
M  V30 22148 C 2015.59 0.523111 -4.78348 0
M  V30 22149 C 2017.94 0.171574 -5.20918 0
M  V30 22150 C 2015.27 -0.299527 -5.85935 0
M  V30 22151 C 2017.62 -0.638313 -6.29371 0
M  V30 22152 C 2016.28 -0.87904 -6.61687 0
M  V30 22153 H 2015.55 0.298035 -0.678422 0
M  V30 22154 H 2018.2 0.0764359 -1.91347 0
M  V30 22155 H 2016.5 2.39886 -3.09777 0
M  V30 22156 H 2018.2 2.13998 -3.39125 0
M  V30 22157 H 2014.79 0.943382 -4.18089 0
M  V30 22158 H 2018.97 0.336852 -4.95156 0
M  V30 22159 H 2014.23 -0.49515 -6.09392 0
M  V30 22160 H 2018.4 -1.09626 -6.87717 0
M  V30 22161 H 2016.03 -1.51829 -7.44884 0
M  V30 22162 N 2017.61 1.52975 0.379009 0
M  V30 22163 C 2018.55 1.79115 1.48393 0
M  V30 22164 C 2019.55 0.659562 1.56032 0
M  V30 22165 O 2020.75 0.842243 1.59079 0
M  V30 22166 H 2017.13 0.566908 0.494084 0
M  V30 22167 H 2019.1 2.71624 1.23544 0
M  V30 22168 C 2017.85 1.98595 2.85404 0
M  V30 22169 H 2017.17 2.85102 2.8028 0
M  V30 22170 H 2018.61 2.2087 3.61929 0
M  V30 22171 C 2017.07 0.761257 3.28187 0
M  V30 22172 O 2017.6 -0.0565264 4.0166 0
M  V30 22173 N 2015.81 0.588515 2.84578 0
M  V30 22174 H 2015.35 1.25513 2.24954 0
M  V30 22175 H 2015.31 -0.229535 3.13561 0
M  V30 22176 N 2019.08 -0.63804 1.44107 0
M  V30 22177 C 2020.33 -1.39979 1.46743 0
M  V30 22178 C 2020.66 -1.93957 0.0970287 0
M  V30 22179 O 2019.94 -1.73232 -0.884358 0
M  V30 22180 C 2020.22 -2.57015 2.52221 0
M  V30 22181 C 2020.07 -2.08431 3.98593 0
M  V30 22182 C 2021.39 -3.59212 2.54273 0
M  V30 22183 H 2018.51 -0.507635 0.534299 0
M  V30 22184 H 2021.15 -0.722028 1.75746 0
M  V30 22185 H 2019.3 -3.14835 2.2762 0
M  V30 22186 H 2020.98 -1.55494 4.34303 0
M  V30 22187 H 2019.22 -1.39672 4.107 0
M  V30 22188 H 2019.89 -2.92659 4.68033 0
M  V30 22189 H 2022.37 -3.11179 2.76237 0
M  V30 22190 H 2021.24 -4.38631 3.29991 0
M  V30 22191 H 2021.5 -4.12821 1.58214 0
M  V30 22192 N 2020.56 -1.3089 -0.877815 0
M  V30 22193 C 2021.81 -1.19888 -1.627 0
M  V30 22194 C 2022.13 0.244972 -1.93455 0
M  V30 22195 O 2021.4 1.16355 -1.57602 0
M  V30 22196 H 2019.98 -0.440719 -0.603138 0
M  V30 22197 H 2022.64 -1.64112 -1.05134 0
M  V30 22198 H 2021.74 -1.76493 -2.57404 0
M  V30 22199 N 2022.04 1.0911 -1.13723 0
M  V30 22200 C 2022.97 2.17859 -0.840227 0
M  V30 22201 C 2023.95 1.68899 0.201778 0
M  V30 22202 O 2025.14 1.94107 0.0600046 0
M  V30 22203 C 2022.27 3.45922 -0.309024 0
M  V30 22204 C 2021.22 4.08234 -1.28565 0
M  V30 22205 C 2020.55 5.31162 -0.614064 0
M  V30 22206 C 2021.85 4.50354 -2.64534 0
M  V30 22207 H 2023.54 2.4296 -1.74959 0
M  V30 22208 H 2021.09 1.16771 -0.842653 0
M  V30 22209 H 2023.04 4.21306 -0.088895 0
M  V30 22210 H 2021.76 3.20353 0.635735 0
M  V30 22211 H 2020.42 3.34873 -1.49183 0
M  V30 22212 H 2020.07 5.01875 0.336272 0
M  V30 22213 H 2019.77 5.73807 -1.26566 0
M  V30 22214 H 2021.29 6.09267 -0.403293 0
M  V30 22215 H 2022.71 5.16948 -2.47866 0
M  V30 22216 H 2021.11 5.03894 -3.259 0
M  V30 22217 H 2022.18 3.62594 -3.21952 0
M  V30 22218 N 2023.52 0.931232 1.27145 0
M  V30 22219 C 2024.47 0.423636 2.2871 0
M  V30 22220 C 2025.46 -0.493886 1.62041 0
M  V30 22221 O 2026.67 -0.373198 1.76089 0
M  V30 22222 H 2023.04 0.118436 0.742615 0
M  V30 22223 H 2025.01 1.29297 2.68933 0
M  V30 22224 C 2023.76 -0.305051 3.46359 0
M  V30 22225 H 2023.08 0.391786 3.97876 0
M  V30 22226 H 2024.52 -0.62459 4.19374 0
M  V30 22227 C 2022.98 -1.5193 3.00697 0
M  V30 22228 O 2023.51 -2.61795 3.04674 0
M  V30 22229 N 2021.72 -1.37237 2.56153 0
M  V30 22230 H 2021.27 -0.478522 2.53116 0
M  V30 22231 H 2021.22 -2.18605 2.25963 0
M  V30 22232 N 2025 -1.41343 0.697132 0
M  V30 22233 C 2025.93 -2.28193 -0.017778 0
M  V30 22234 C 2026.91 -1.4232 -0.786373 0
M  V30 22235 O 2028.09 -1.71747 -0.776865 0
M  V30 22236 C 2025.22 -3.22577 -1.03256 0
M  V30 22237 C 2024.27 -4.25004 -0.356949 0
M  V30 22238 S 2025.1 -5.27852 0.901798 0
M  V30 22239 C 2026.25 -6.25801 -0.111346 0
M  V30 22240 H 2026.49 -2.88479 0.718839 0
M  V30 22241 H 2024.02 -1.46503 0.487463 0
M  V30 22242 H 2025.98 -3.77487 -1.61288 0
M  V30 22243 H 2024.64 -2.61384 -1.74176 0
M  V30 22244 H 2023.83 -4.9132 -1.12343 0
M  V30 22245 H 2023.43 -3.73698 0.150343 0
M  V30 22246 H 2025.73 -6.70605 -0.964122 0
M  V30 22247 H 2026.67 -7.06203 0.517933 0
M  V30 22248 H 2027.08 -5.62566 -0.466819 0
M  V30 22249 N 2026.48 -0.441993 -1.51275 0
M  V30 22250 C 2027.89 -0.0945327 -1.5932 0
M  V30 22251 C 2028.09 1.39653 -1.45256 0
M  V30 22252 O 2027.15 2.16693 -1.29616 0
M  V30 22253 C 2028.46 -0.618795 -2.94264 0
M  V30 22254 C 2030.01 -0.579646 -3.07586 0
M  V30 22255 C 2030.48 -1.08096 -4.45061 0
M  V30 22256 N 2031.97 -1.03914 -4.51393 0
M  V30 22257 C 2032.71 -1.39786 -5.561 0
M  V30 22258 N 2032.21 -1.82965 -6.68203 0
M  V30 22259 N 2034 -1.31573 -5.46484 0
M  V30 22260 H 2026.15 -1.4121 -1.58662 0
M  V30 22261 H 2028.41 -0.582182 -0.748176 0
M  V30 22262 H 2028.12 -1.66222 -3.09941 0
M  V30 22263 H 2027.99 -0.0462651 -3.77172 0
M  V30 22264 H 2030.38 0.454801 -2.91574 0
M  V30 22265 H 2030.46 -1.18863 -2.26506 0
M  V30 22266 H 2030.1 -2.1139 -4.61819 0
M  V30 22267 H 2030.03 -0.448465 -5.24687 0
M  V30 22268 H 2032.53 -0.722104 -3.70937 0
M  V30 22269 H 2032.84 -2.08561 -7.44125 0
M  V30 22270 H 2031.18 -1.86895 -6.69399 0
M  V30 22271 H 2034.37 -0.977017 -4.5779 0
M  V30 22272 H 2034.55 -1.59857 -6.27973 0
M  V30 22273 N 2027.95 1.56642 -0.173515 0
M  V30 22274 C 2028.92 2.16857 0.742008 0
M  V30 22275 C 2029.92 1.11721 1.1565 0
M  V30 22276 O 2031.11 1.37223 1.0731 0
M  V30 22277 C 2028.24 2.7532 2.01026 0
M  V30 22278 H 2029.43 2.99108 0.217769 0
M  V30 22279 H 2026.98 1.56115 0.0760536 0
M  V30 22280 H 2027.72 1.96808 2.57754 0
M  V30 22281 H 2027.5 3.52264 1.722 0
M  V30 22282 H 2028.99 3.21626 2.66358 0
M  V30 22283 N 2029.43 -0.1002 1.57281 0
M  V30 22284 C 2030.66 -0.818307 1.9003 0
M  V30 22285 C 2031.07 -1.72531 0.766704 0
M  V30 22286 O 2030.43 -1.80616 -0.261577 0
M  V30 22287 C 2030.48 -1.63596 3.22364 0
M  V30 22288 O 2030.2 -0.765449 4.31361 0
M  V30 22289 C 2031.7 -2.45758 3.68942 0
M  V30 22290 H 2028.92 -0.234253 0.628782 0
M  V30 22291 H 2031.47 -0.0789616 2.04347 0
M  V30 22292 H 2029.62 -2.32787 3.09659 0
M  V30 22293 H 2030.04 -1.33126 5.07324 0
M  V30 22294 H 2031.51 -2.9863 4.64246 0
M  V30 22295 H 2031.99 -3.23987 2.96528 0
M  V30 22296 H 2032.59 -1.81776 3.84497 0
M  V30 22297 N 2030.91 -1.53174 -0.370891 0
M  V30 22298 C 2031.86 -1.79236 -1.45406 0
M  V30 22299 C 2032.83 -0.636453 -1.53423 0
M  V30 22300 O 2034.01 -0.878079 -1.69394 0
M  V30 22301 C 2031.15 -1.98327 -2.82419 0
M  V30 22302 C 2030.26 -3.2604 -2.83411 0
M  V30 22303 C 2029.4 -3.35348 -4.11965 0
M  V30 22304 C 2028.44 -4.57114 -4.07079 0
M  V30 22305 N 2027.58 -4.63603 -5.27272 0
M  V30 22306 H 2032.42 -2.71666 -1.22482 0
M  V30 22307 H 2029.95 -1.3458 -0.593853 0
M  V30 22308 H 2031.91 -2.07382 -3.62006 0
M  V30 22309 H 2030.54 -1.0924 -3.03754 0
M  V30 22310 H 2029.59 -3.25966 -1.96088 0
M  V30 22311 H 2030.9 -4.157 -2.75672 0
M  V30 22312 H 2030.06 -3.43685 -4.99966 0
M  V30 22313 H 2028.8 -2.43695 -4.2245 0
M  V30 22314 H 2027.8 -4.48883 -3.17466 0
M  V30 22315 H 2029.03 -5.50102 -3.98201 0
M  V30 22316 H 2026.97 -3.74849 -5.38353 0
M  V30 22317 H 2026.89 -5.4716 -5.21682 0
M  V30 22318 H 2028.16 -4.76218 -6.1712 0
M  V30 22319 N 2032.39 0.630389 -1.44443 0
M  V30 22320 C 2033.63 1.40149 -1.48787 0
M  V30 22321 C 2033.99 1.9164 -0.117598 0
M  V30 22322 O 2035.19 2.68776 -0.0357153 0
M  V30 22323 C 2033.46 2.53505 -2.51933 0
M  V30 22324 S 2035.02 3.41671 -2.7533 0
M  V30 22325 H 2031.84 0.478109 -0.526244 0
M  V30 22326 H 2034.44 0.729702 -1.81371 0
M  V30 22327 H 2033.15 2.13989 -3.50196 0
M  V30 22328 H 2032.68 3.25509 -2.20923 0
M  V30 22329 H 2034.69 4.50969 -2.06981 0
M  V30 22330 N 2033.87 1.31354 0.870861 0
M  V30 22331 C 2034.83 1.18889 1.95954 0
M  V30 22332 C 2035.83 0.116227 1.60379 0
M  V30 22333 O 2037.02 0.365426 1.70324 0
M  V30 22334 C 2034.15 0.824704 3.30774 0
M  V30 22335 H 2035.34 2.15624 2.08438 0
M  V30 22336 H 2032.9 1.14952 1.05904 0
M  V30 22337 H 2033.63 -0.141533 3.23991 0
M  V30 22338 H 2033.42 1.60006 3.57967 0
M  V30 22339 H 2034.91 0.761361 4.10601 0
M  V30 22340 N 2035.34 -1.08505 1.143 0
M  V30 22341 C 2036.59 -1.8114 0.911938 0
M  V30 22342 C 2036.92 -1.85946 -0.560156 0
M  V30 22343 O 2036.2 -1.33458 -1.41489 0
M  V30 22344 C 2036.48 -3.26806 1.51227 0
M  V30 22345 C 2036.33 -3.30215 3.05414 0
M  V30 22346 C 2037.65 -4.23754 1.1883 0
M  V30 22347 H 2034.77 -0.657619 0.332725 0
M  V30 22348 H 2037.41 -1.27044 1.41279 0
M  V30 22349 H 2035.56 -3.73003 1.08633 0
M  V30 22350 H 2037.24 -2.92351 3.56832 0
M  V30 22351 H 2035.48 -2.69518 3.39915 0
M  V30 22352 H 2036.15 -4.32875 3.42525 0
M  V30 22353 H 2038.63 -3.8589 1.55653 0
M  V30 22354 H 2037.5 -5.23993 1.63469 0
M  V30 22355 H 2037.76 -4.41979 0.103442 0
M  V30 22356 N 2036.82 -0.937962 -1.26649 0
M  V30 22357 C 2038.06 -0.591253 -1.95662 0
M  V30 22358 C 2038.43 0.853316 -1.71996 0
M  V30 22359 O 2039.63 1.3088 -2.34785 0
M  V30 22360 C 2037.9 -0.920382 -3.45346 0
M  V30 22361 S 2039.46 -0.683733 -4.3344 0
M  V30 22362 H 2036.27 -0.217883 -0.676793 0
M  V30 22363 H 2038.88 -1.20859 -1.53666 0
M  V30 22364 H 2037.58 -1.96921 -3.6007 0
M  V30 22365 H 2037.11 -0.292641 -3.9231 0
M  V30 22366 H 2039.13 0.453606 -4.94122 0
M  V30 22367 N 2038.3 1.40971 -0.704618 0
M  V30 22368 C 2039.23 2.33424 -0.0595656 0
M  V30 22369 C 2040.21 1.52306 0.757422 0
M  V30 22370 O 2041.4 1.80812 0.708567 0
M  V30 22371 C 2038.53 3.36202 0.870964 0
M  V30 22372 C 2037.48 4.27699 0.160408 0
M  V30 22373 C 2036.81 5.20924 1.20591 0
M  V30 22374 C 2038.11 5.13047 -0.97878 0
M  V30 22375 H 2039.8 2.87615 -0.83176 0
M  V30 22376 H 2037.35 1.38292 -0.401428 0
M  V30 22377 H 2039.3 3.9981 1.33153 0
M  V30 22378 H 2038.02 2.80381 1.67493 0
M  V30 22379 H 2036.68 3.65527 -0.280222 0
M  V30 22380 H 2036.33 4.61414 2.00264 0
M  V30 22381 H 2036.03 5.8298 0.73543 0
M  V30 22382 H 2037.55 5.8741 1.6668 0
M  V30 22383 H 2038.97 5.70172 -0.598081 0
M  V30 22384 H 2037.36 5.8409 -1.37693 0
M  V30 22385 H 2038.43 4.49675 -1.8144 0
M  V30 22386 N 2039.78 0.45001 1.51039 0
M  V30 22387 C 2041.06 -0.172746 1.94836 0
M  V30 22388 C 2041.44 -1.58934 1.38936 0
M  V30 22389 O 2040.78 -2.20974 0.581609 0
M  V30 22390 C 2040.99 -0.137579 3.48729 0
M  V30 22391 C 2042.34 -0.33691 4.23261 0
M  V30 22392 O 2043.37 -0.215124 3.5555 0
M  V30 22393 O 2042.22 -0.580548 5.43408 0
M  V30 22394 H 2039.32 -0.12312 0.817784 0
M  V30 22395 H 2041.86 0.5089 1.6189 0
M  V30 22396 H 2040.64 0.852286 3.81905 0
M  V30 22397 H 2040.26 -0.861592 3.88152 0
M  V30 22398 N 2041.26 -1.56548 0.18182 0
M  V30 22399 C 2042.48 -2.01575 -0.466395 0
M  V30 22400 C 2042.9 -1.06202 -1.56098 0
M  V30 22401 O 2042.26 -0.064631 -1.82386 0
M  V30 22402 C 2042.31 -3.46366 -1.03502 0
M  V30 22403 O 2042.03 -4.38097 0.0158824 0
M  V30 22404 C 2043.53 -4.06846 -1.76042 0
M  V30 22405 H 2040.75 -0.660472 -0.118395 0
M  V30 22406 H 2043.29 -2.02481 0.286632 0
M  V30 22407 H 2041.45 -3.46201 -1.73849 0
M  V30 22408 H 2041.86 -5.22931 -0.405425 0
M  V30 22409 H 2043.34 -5.1005 -2.11076 0
M  V30 22410 H 2043.81 -3.4954 -2.65929 0
M  V30 22411 H 2044.42 -4.10745 -1.10312 0
M  V30 22412 N 2042.73 0.0918577 -1.57332 0
M  V30 22413 C 2043.98 0.795934 -1.86528 0
M  V30 22414 C 2044.31 1.78222 -0.771388 0
M  V30 22415 O 2043.59 1.93248 0.220326 0
M  V30 22416 C 2043.87 1.5218 -3.26364 0
M  V30 22417 C 2043.72 0.553281 -4.46384 0
M  V30 22418 C 2045.04 2.4716 -3.64143 0
M  V30 22419 H 2042.16 0.287896 -0.678443 0
M  V30 22420 H 2044.8 0.0594952 -1.89907 0
M  V30 22421 H 2042.95 2.14956 -3.23614 0
M  V30 22422 H 2044.63 -0.0677239 -4.6125 0
M  V30 22423 H 2042.87 -0.133076 -4.33596 0
M  V30 22424 H 2043.54 1.09838 -5.40962 0
M  V30 22425 H 2046.02 1.94474 -3.67857 0
M  V30 22426 H 2044.89 2.94964 -4.62912 0
M  V30 22427 H 2045.15 3.31065 -2.92999 0
M  V30 22428 N 2044.21 1.53368 0.362763 0
M  V30 22429 C 2045.16 1.76385 1.44472 0
M  V30 22430 C 2046.15 0.618465 1.48539 0
M  V30 22431 O 2047.34 0.877226 1.53733 0
M  V30 22432 C 2044.47 1.95971 2.81869 0
M  V30 22433 C 2043.55 3.1652 2.8227 0
M  V30 22434 N 2043.94 4.38373 2.52314 0
M  V30 22435 C 2042.24 3.17299 3.13429 0
M  V30 22436 C 2042.94 5.20128 2.60464 0
M  V30 22437 N 2041.92 4.56403 2.95292 0
M  V30 22438 H 2045.72 2.68205 1.20179 0
M  V30 22439 H 2043.24 1.52032 0.570972 0
M  V30 22440 H 2045.23 2.10589 3.59802 0
M  V30 22441 H 2043.89 1.05381 3.07124 0
M  V30 22442 H 2044.9 4.66057 2.25857 0
M  V30 22443 H 2041.58 2.36611 3.43979 0
M  V30 22444 H 2042.97 6.27335 2.40626 0
M  V30 22445 N 2045.69 -0.62272 1.44776 0
M  V30 22446 C 2046.94 -1.3821 1.48 0
M  V30 22447 C 2047.27 -1.94155 0.115835 0
M  V30 22448 O 2046.52 -1.74621 -0.883522 0
M  V30 22449 C 2046.82 -2.55936 2.49463 0
M  V30 22450 C 2046.49 -2.1823 3.94571 0
M  V30 22451 C 2045.15 -2.0766 4.34086 0
M  V30 22452 C 2047.5 -1.88574 4.8589 0
M  V30 22453 C 2044.83 -1.65634 5.62834 0
M  V30 22454 C 2047.18 -1.48038 6.15035 0
M  V30 22455 C 2045.84 -1.36016 6.53495 0
M  V30 22456 H 2045.11 -0.505748 0.541572 0
M  V30 22457 H 2047.76 -0.705341 1.78037 0
M  V30 22458 H 2046.07 -3.28883 2.1294 0
M  V30 22459 H 2047.76 -3.14165 2.49201 0
M  V30 22460 H 2044.35 -2.27378 3.63314 0
M  V30 22461 H 2048.54 -1.95645 4.5611 0
M  V30 22462 H 2043.79 -1.54936 5.91443 0
M  V30 22463 H 2047.97 -1.24132 6.85248 0
M  V30 22464 H 2045.59 -1.03224 7.53159 0
M  V30 22465 N 2047.17 -1.31814 -0.863883 0
M  V30 22466 C 2048.42 -1.21607 -1.61419 0
M  V30 22467 C 2048.74 0.22444 -1.93704 0
M  V30 22468 O 2048.01 1.14677 -1.58827 0
M  V30 22469 H 2046.59 -0.447091 -0.59843 0
M  V30 22470 H 2049.25 -1.65218 -1.03388 0
M  V30 22471 H 2048.35 -1.79213 -2.55517 0
M  V30 22472 N 2048.65 1.07897 -1.14873 0
M  V30 22473 C 2050.06 1.32467 -0.89021 0
M  V30 22474 C 2050.26 1.96041 0.46584 0
M  V30 22475 O 2049.32 2.21675 1.20899 0
M  V30 22476 C 2050.63 2.22118 -2.02692 0
M  V30 22477 C 2052.18 2.35583 -2.06082 0
M  V30 22478 C 2052.65 3.28579 -3.19061 0
M  V30 22479 N 2054.15 3.36158 -3.18673 0
M  V30 22480 C 2054.88 4.0816 -4.02731 0
M  V30 22481 N 2054.38 4.82826 -4.96841 0
M  V30 22482 N 2056.17 4.04045 -3.90774 0
M  V30 22483 H 2048.32 0.650155 -2.02205 0
M  V30 22484 H 2050.58 0.349072 -0.881393 0
M  V30 22485 H 2050.29 1.82656 -3.00549 0
M  V30 22486 H 2050.16 3.22612 -1.95452 0
M  V30 22487 H 2052.55 2.743 -1.08829 0
M  V30 22488 H 2052.63 1.34812 -2.17392 0
M  V30 22489 H 2052.28 2.90582 -4.16563 0
M  V30 22490 H 2052.21 4.2929 -3.04988 0
M  V30 22491 H 2054.7 2.82932 -2.50515 0
M  V30 22492 H 2055.01 5.35244 -5.57434 0
M  V30 22493 H 2053.35 4.81861 -5.00834 0
M  V30 22494 H 2056.55 3.44823 -3.16567 0
M  V30 22495 H 2056.72 4.59895 -4.56509 0
M  V30 22496 N 2050.12 0.944665 1.2615 0
M  V30 22497 C 2051.06 0.414303 2.25424 0
M  V30 22498 C 2052.07 -0.464345 1.56037 0
M  V30 22499 O 2053.26 -0.274229 1.76381 0
M  V30 22500 C 2050.36 -0.423331 3.36246 0
M  V30 22501 C 2049.53 0.439977 4.35182 0
M  V30 22502 C 2048.59 -0.337801 5.25115 0
M  V30 22503 O 2047.62 0.260373 5.68604 0
M  V30 22504 N 2048.82 -1.63346 5.57044 0
M  V30 22505 H 2051.58 1.26775 2.71566 0
M  V30 22506 H 2049.14 0.813928 1.39953 0
M  V30 22507 H 2051.14 -0.951131 3.93364 0
M  V30 22508 H 2049.71 -1.17759 2.89571 0
M  V30 22509 H 2048.93 1.14896 3.77084 0
M  V30 22510 H 2050.21 1.02957 4.98274 0
M  V30 22511 H 2049.61 -2.14152 5.23599 0
M  V30 22512 H 2048.17 -2.10743 6.16791 0
M  V30 22513 N 2051.6 -1.40596 0.712085 0
M  V30 22514 C 2052.57 -2.29105 0.0660369 0
M  V30 22515 C 2053.57 -1.45196 -0.690992 0
M  V30 22516 O 2054.76 -1.66151 -0.523417 0
M  V30 22517 C 2051.89 -3.2835 -0.916461 0
M  V30 22518 H 2053.08 -2.87734 0.845539 0
M  V30 22519 H 2050.63 -1.48859 0.476533 0
M  V30 22520 H 2051.37 -2.74733 -1.72314 0
M  V30 22521 H 2051.15 -3.90288 -0.376557 0
M  V30 22522 H 2052.64 -3.94634 -1.36578 0
M  V30 22523 N 2053.08 -0.458013 -1.50798 0
M  V30 22524 C 2054.31 0.10185 -2.0715 0
M  V30 22525 C 2054.73 1.33899 -1.32109 0
M  V30 22526 O 2054.09 1.77589 -0.364928 0
M  V30 22527 C 2054.14 0.381979 -3.58571 0
M  V30 22528 O 2053.24 1.46484 -3.85508 0
M  V30 22529 H 2052.58 -0.00721903 -0.663961 0
M  V30 22530 H 2055.11 -0.645297 -1.94157 0
M  V30 22531 H 2055.12 0.626354 -4.03163 0
M  V30 22532 H 2053.8 -0.522121 -4.1261 0
M  V30 22533 H 2052.37 1.20881 -3.52764 0
M  V30 22534 N 2054.56 1.56449 -0.190119 0
M  V30 22535 C 2055.51 2.1886 0.732745 0
M  V30 22536 C 2056.48 1.1343 1.21338 0
M  V30 22537 O 2057.66 1.4166 1.27817 0
M  V30 22538 C 2054.8 2.84809 1.94878 0
M  V30 22539 C 2053.91 4.04751 1.50998 0
M  V30 22540 C 2053.05 4.58572 2.68114 0
M  V30 22541 C 2052.09 5.70883 2.20815 0
M  V30 22542 N 2051.23 6.19132 3.3109 0
M  V30 22543 H 2056.07 2.97369 0.193776 0
M  V30 22544 H 2053.6 1.46861 0.0839065 0
M  V30 22545 H 2055.56 3.21213 2.66229 0
M  V30 22546 H 2054.19 2.08872 2.46115 0
M  V30 22547 H 2053.24 3.74043 0.69252 0
M  V30 22548 H 2054.55 4.85996 1.12292 0
M  V30 22549 H 2053.71 4.97256 3.47594 0
M  V30 22550 H 2052.45 3.76425 3.1009 0
M  V30 22551 H 2051.45 5.31733 1.39786 0
M  V30 22552 H 2052.68 6.54845 1.79875 0
M  V30 22553 H 2050.62 5.39908 3.72607 0
M  V30 22554 H 2050.54 6.95415 2.96538 0
M  V30 22555 H 2051.81 6.62468 4.108 0
M  V30 22556 N 2056.04 -0.0835127 1.57379 0
M  V30 22557 C 2057.28 -0.790348 1.88502 0
M  V30 22558 C 2057.64 -1.7533 0.782517 0
M  V30 22559 O 2058.84 -2.50436 0.976485 0
M  V30 22560 C 2057.11 -1.48995 3.24862 0
M  V30 22561 S 2058.67 -2.23346 3.77706 0
M  V30 22562 H 2055.49 -0.263074 0.66054 0
M  V30 22563 H 2058.09 -0.046945 1.95444 0
M  V30 22564 H 2056.8 -0.775138 4.03013 0
M  V30 22565 H 2056.33 -2.27302 3.21088 0
M  V30 22566 H 2058.34 -3.49677 3.52051 0
M  V30 22567 N 2057.52 -1.53558 -0.354624 0
M  V30 22568 C 2058.45 -1.83751 -1.44076 0
M  V30 22569 C 2059.43 -0.691795 -1.55397 0
M  V30 22570 O 2060.61 -0.942676 -1.69786 0
M  V30 22571 C 2057.74 -2.03721 -2.81274 0
M  V30 22572 C 2056.7 -3.19517 -2.84769 0
M  V30 22573 C 2056.02 -3.248 -4.24746 0
M  V30 22574 C 2057.32 -4.5787 -2.51301 0
M  V30 22575 H 2059.02 -2.7471 -1.19058 0
M  V30 22576 H 2056.56 -1.32182 -0.5713 0
M  V30 22577 H 2058.51 -2.23427 -3.57293 0
M  V30 22578 H 2057.24 -1.09482 -3.07703 0
M  V30 22579 H 2055.9 -2.99649 -2.11201 0
M  V30 22580 H 2055.55 -2.28177 -4.48268 0
M  V30 22581 H 2055.25 -4.02606 -4.27998 0
M  V30 22582 H 2056.77 -3.46702 -5.02623 0
M  V30 22583 H 2058.18 -4.77663 -3.17034 0
M  V30 22584 H 2056.58 -5.37998 -2.65853 0
M  V30 22585 H 2057.65 -4.62234 -1.46518 0
M  V30 22586 N 2058.99 0.615033 -1.45104 0
M  V30 22587 C 2059.9 1.75459 -1.55728 0
M  V30 22588 C 2060.92 1.6829 -0.442095 0
M  V30 22589 O 2062.1 1.88779 -0.701735 0
M  V30 22590 C 2059.16 3.11899 -1.51394 0
M  V30 22591 C 2058.22 3.30578 -2.73892 0
M  V30 22592 C 2057.45 4.60509 -2.69754 0
M  V30 22593 O 2057.68 5.42353 -1.76662 0
M  V30 22594 O 2056.61 4.81739 -3.60848 0
M  V30 22595 H 2060.44 1.69447 -2.52035 0
M  V30 22596 H 2058.02 0.778221 -1.27531 0
M  V30 22597 H 2059.9 3.93203 -1.51557 0
M  V30 22598 H 2058.58 3.18418 -0.582365 0
M  V30 22599 H 2057.49 2.48891 -2.79292 0
M  V30 22600 H 2058.82 3.2893 -3.6615 0
M  V30 22601 N 2060.47 1.3227 0.85688 0
M  V30 22602 C 2061.71 1.24017 1.62478 0
M  V30 22603 C 2062.08 -0.195596 1.91001 0
M  V30 22604 O 2063.28 -0.401822 2.6578 0
M  V30 22605 C 2061.55 2.07356 2.91098 0
M  V30 22606 S 2063.11 2.16105 3.81895 0
M  V30 22607 H 2059.92 0.441493 0.557319 0
M  V30 22608 H 2062.53 1.67092 1.01492 0
M  V30 22609 H 2061.23 3.10737 2.68087 0
M  V30 22610 H 2060.76 1.65051 3.57102 0
M  V30 22611 H 2062.78 1.30893 4.78625 0
M  V30 22612 N 2061.95 -1.07287 1.15444 0
M  V30 22613 C 2062.88 -2.14426 0.809571 0
M  V30 22614 C 2063.89 -1.61816 -0.178709 0
M  V30 22615 O 2065.08 -1.78444 0.044632 0
M  V30 22616 C 2062.18 -3.38406 0.182939 0
M  V30 22617 C 2061.36 -4.20365 1.20881 0
M  V30 22618 C 2060.42 -5.22724 0.603831 0
M  V30 22619 O 2059.44 -5.54852 1.26996 0
M  V30 22620 N 2060.64 -5.77242 -0.614141 0
M  V30 22621 H 2063.41 -2.44613 1.73161 0
M  V30 22622 H 2060.97 -1.23199 1.05041 0
M  V30 22623 H 2062.96 -4.0402 -0.234568 0
M  V30 22624 H 2061.53 -3.05927 -0.642451 0
M  V30 22625 H 2060.75 -3.50558 1.80285 0
M  V30 22626 H 2062.04 -4.71935 1.90144 0
M  V30 22627 H 2061.44 -5.53391 -1.17369 0
M  V30 22628 H 2059.99 -6.44482 -0.973996 0
M  V30 22629 N 2063.43 -0.951342 -1.25647 0
M  V30 22630 C 2064.67 -0.605246 -1.93558 0
M  V30 22631 C 2065.01 0.85507 -1.74362 0
M  V30 22632 O 2064.28 1.61308 -1.08674 0
M  V30 22633 C 2064.56 -0.960718 -3.47048 0
M  V30 22634 C 2064.42 -2.47652 -3.75484 0
M  V30 22635 C 2065.74 -0.483409 -4.37437 0
M  V30 22636 H 2062.86 -0.22136 -0.702971 0
M  V30 22637 H 2065.5 -1.1874 -1.48327 0
M  V30 22638 H 2063.65 -0.465324 -3.85703 0
M  V30 22639 H 2065.32 -3.04543 -3.46484 0
M  V30 22640 H 2063.56 -2.91564 -3.21205 0
M  V30 22641 H 2064.23 -2.67575 -4.82812 0
M  V30 22642 H 2066.71 -0.908309 -4.06065 0
M  V30 22643 H 2065.59 -0.760858 -5.43601 0
M  V30 22644 H 2065.85 0.616645 -4.37778 0
M  V30 22645 N 2064.91 1.40216 -0.719531 0
M  V30 22646 C 2065.84 2.28192 -0.0185278 0
M  V30 22647 C 2066.82 1.43553 0.763632 0
M  V30 22648 O 2068 1.72961 0.749443 0
M  V30 22649 C 2065.13 3.24179 0.981108 0
M  V30 22650 C 2064.17 4.25518 0.289289 0
M  V30 22651 S 2065.01 5.26351 -0.985661 0
M  V30 22652 C 2066.16 6.25899 0.011772 0
M  V30 22653 H 2066.4 2.87299 -0.764643 0
M  V30 22654 H 2063.93 1.45709 -0.510709 0
M  V30 22655 H 2065.89 3.80005 1.55262 0
M  V30 22656 H 2064.55 2.64122 1.69995 0
M  V30 22657 H 2063.74 4.93045 1.04512 0
M  V30 22658 H 2063.34 3.73411 -0.209776 0
M  V30 22659 H 2065.63 6.72054 0.857313 0
M  V30 22660 H 2066.58 7.0529 -0.630218 0
M  V30 22661 H 2066.99 5.63238 0.377261 0
M  V30 22662 N 2066.38 0.466004 1.50553 0
M  V30 22663 C 2067.62 -0.0895486 2.04204 0
M  V30 22664 C 2067.99 -1.37441 1.34067 0
M  V30 22665 O 2069.19 -2.01202 1.78245 0
M  V30 22666 C 2067.46 -0.274301 3.56346 0
M  V30 22667 S 2069.02 -0.789141 4.31646 0
M  V30 22668 H 2065.84 -0.0183592 0.710763 0
M  V30 22669 H 2068.44 0.631979 1.85003 0
M  V30 22670 H 2067.14 0.666704 4.04948 0
M  V30 22671 H 2066.67 -1.02209 3.79891 0
M  V30 22672 H 2068.69 -2.06321 4.51272 0
M  V30 22673 N 2067.86 -1.56346 0.198413 0
M  V30 22674 C 2068.81 -2.15862 -0.734002 0
M  V30 22675 C 2069.8 -1.10032 -1.17396 0
M  V30 22676 O 2070.99 -1.36085 -1.13181 0
M  V30 22677 C 2068.12 -2.8241 -1.95191 0
M  V30 22678 C 2067.2 -3.95436 -1.53269 0
M  V30 22679 N 2067.59 -4.99032 -0.824642 0
M  V30 22680 C 2065.89 -4.07098 -1.82174 0
M  V30 22681 C 2066.59 -5.78449 -0.614107 0
M  V30 22682 N 2065.57 -5.30995 -1.16384 0
M  V30 22683 H 2069.37 -2.93321 -0.184355 0
M  V30 22684 H 2066.88 -1.624 -0.00124749 0
M  V30 22685 H 2068.88 -3.23443 -2.6304 0
M  V30 22686 H 2067.54 -2.0644 -2.50624 0
M  V30 22687 H 2068.55 -5.15673 -0.479757 0
M  V30 22688 H 2065.23 -3.42258 -2.39093 0
M  V30 22689 H 2066.62 -6.7188 -0.0521937 0
M  V30 22690 N 2069.34 0.0751653 -1.57421 0
M  V30 22691 C 2070.75 0.627391 -1.75843 0
M  V30 22692 C 2071.1 1.78086 -0.823397 0
M  V30 22693 O 2070.23 2.16399 -0.00667483 0
M  V30 22694 C 2070.82 1.14489 -3.18869 0
M  V30 22695 C 2069.38 1.64301 -3.38648 0
M  V30 22696 C 2068.53 0.560994 -2.71566 0
M  V30 22697 H 2071.48 -0.150994 -1.5798 0
M  V30 22698 H 2071.5 2.01378 -3.22842 0
M  V30 22699 H 2071.01 0.305165 -3.86898 0
M  V30 22700 H 2069.11 2.50609 -2.75728 0
M  V30 22701 H 2069.23 1.72227 -4.47073 0
M  V30 22702 H 2067.59 1.00523 -2.34024 0
M  V30 22703 H 2068.37 -0.268489 -3.42248 0
M  V30 22704 N 2070.82 1.53744 0.346476 0
M  V30 22705 C 2071.77 1.81527 1.42536 0
M  V30 22706 C 2072.74 0.660781 1.52391 0
M  V30 22707 O 2073.92 0.904918 1.67976 0
M  V30 22708 C 2071.06 2.02795 2.79228 0
M  V30 22709 C 2070.17 3.30508 2.78188 0
M  V30 22710 C 2069.31 3.41859 4.06578 0
M  V30 22711 C 2068.35 4.63532 3.99755 0
M  V30 22712 N 2067.48 4.71933 5.1983 0
M  V30 22713 H 2072.32 2.7358 1.18144 0
M  V30 22714 H 2069.86 1.35508 0.572368 0
M  V30 22715 H 2071.82 2.13115 3.58661 0
M  V30 22716 H 2070.45 1.14059 3.01978 0
M  V30 22717 H 2069.5 3.29044 1.90877 0
M  V30 22718 H 2070.81 4.20033 2.69024 0
M  V30 22719 H 2069.97 3.51595 4.94435 0
M  V30 22720 H 2068.71 2.50385 4.1852 0
M  V30 22721 H 2067.71 4.53876 3.10284 0
M  V30 22722 H 2068.94 5.56368 3.89399 0
M  V30 22723 H 2066.88 3.83367 5.32321 0
M  V30 22724 H 2066.8 5.5539 5.12911 0
M  V30 22725 H 2068.07 4.85975 6.09466 0
M  V30 22726 N 2072.3 -0.607329 1.45428 0
M  V30 22727 C 2073.54 -1.37764 1.50998 0
M  V30 22728 C 2073.9 -1.91428 0.148071 0
M  V30 22729 O 2075.1 -2.68685 0.0784708 0
M  V30 22730 C 2073.37 -2.49465 2.55934 0
M  V30 22731 S 2074.93 -3.37247 2.8073 0
M  V30 22732 H 2071.75 -0.469677 0.533783 0
M  V30 22733 H 2074.35 -0.700755 1.82509 0
M  V30 22734 H 2073.06 -2.08391 3.53556 0
M  V30 22735 H 2072.59 -3.21954 2.26074 0
M  V30 22736 H 2074.6 -4.47619 2.14129 0
M  V30 22737 N 2073.77 -1.32722 -0.849853 0
M  V30 22738 C 2075 -1.2671 -1.64193 0
M  V30 22739 C 2075.42 0.161092 -1.87409 0
M  V30 22740 O 2074.78 1.11408 -1.43031 0
M  V30 22741 C 2074.83 -2.03686 -2.97564 0
M  V30 22742 O 2073.93 -1.38794 -3.88343 0
M  V30 22743 H 2073.28 -0.436459 -0.5004 0
M  V30 22744 H 2075.81 -1.75113 -1.05813 0
M  V30 22745 H 2075.82 -2.1404 -3.47349 0
M  V30 22746 H 2074.49 -3.07537 -2.79989 0
M  V30 22747 H 2073.07 -1.37018 -3.46815 0
M  V30 22748 N 2075.25 1.06673 -1.16011 0
M  V30 22749 C 2076.48 1.83106 -0.963322 0
M  V30 22750 C 2076.9 1.82372 0.488451 0
M  V30 22751 O 2076.25 1.24012 1.33893 0
M  V30 22752 C 2076.3 3.29888 -1.47838 0
M  V30 22753 O 2076.02 3.30717 -2.87328 0
M  V30 22754 C 2077.53 4.23065 -1.32405 0
M  V30 22755 H 2074.75 0.577476 -0.341705 0
M  V30 22756 H 2077.29 1.34611 -1.53948 0
M  V30 22757 H 2075.44 3.75708 -0.944585 0
M  V30 22758 H 2075.86 4.22475 -3.1083 0
M  V30 22759 H 2077.33 5.24098 -1.73279 0
M  V30 22760 H 2077.81 4.38375 -0.269104 0
M  V30 22761 H 2078.42 3.83088 -1.84726 0
M  V30 22762 N 2076.73 0.957992 1.25141 0
M  V30 22763 C 2077.97 0.622306 1.94696 0
M  V30 22764 C 2078.33 -0.825845 1.73331 0
M  V30 22765 O 2079.54 -1.27128 2.36837 0
M  V30 22766 C 2077.81 0.975207 3.43838 0
M  V30 22767 S 2079.37 0.752603 4.32298 0
M  V30 22768 H 2076.18 0.228622 0.673241 0
M  V30 22769 H 2078.79 1.23288 1.51724 0
M  V30 22770 H 2077.49 2.02624 3.56892 0
M  V30 22771 H 2077.02 0.355017 3.91795 0
M  V30 22772 H 2079.04 -0.374938 4.94781 0
M  V30 22773 N 2078.21 -1.39832 0.726957 0
M  V30 22774 C 2079.14 -2.333 0.0966938 0
M  V30 22775 C 2080.12 -1.53492 -0.733095 0
M  V30 22776 O 2081.3 -1.81916 -0.679712 0
M  V30 22777 C 2078.43 -3.37545 -0.817367 0
M  V30 22778 C 2077.39 -4.279 -0.0923447 0
M  V30 22779 C 2076.71 -5.22777 -1.12288 0
M  V30 22780 C 2078.01 -5.11425 1.06028 0
M  V30 22781 H 2079.71 -2.86255 0.877412 0
M  V30 22782 H 2077.25 -1.37635 0.423378 0
M  V30 22783 H 2079.21 -4.01878 -1.26776 0
M  V30 22784 H 2077.93 -2.83011 -1.63011 0
M  V30 22785 H 2076.59 -3.65035 0.338339 0
M  V30 22786 H 2076.24 -4.64542 -1.92898 0
M  V30 22787 H 2075.94 -5.84076 -0.64259 0
M  V30 22788 H 2077.46 -5.89987 -1.57314 0
M  V30 22789 H 2078.88 -5.69148 0.688715 0
M  V30 22790 H 2077.27 -5.81825 1.46968 0
M  V30 22791 H 2078.34 -4.46731 1.88571 0
M  V30 22792 N 2079.69 -0.473982 -1.50304 0
M  V30 22793 C 2081.1 -0.0195635 -1.8669 0
M  V30 22794 C 2081.45 1.38613 -1.38856 0
M  V30 22795 O 2080.57 2.02811 -0.754772 0
M  V30 22796 C 2081.17 -0.0287258 -3.38788 0
M  V30 22797 C 2079.73 0.370234 -3.74575 0
M  V30 22798 C 2078.87 -0.412963 -2.74208 0
M  V30 22799 H 2081.83 -0.688116 -1.43006 0
M  V30 22800 H 2081.85 0.772789 -3.7257 0
M  V30 22801 H 2081.36 -1.05193 -3.73572 0
M  V30 22802 H 2079.46 1.39768 -3.45392 0
M  V30 22803 H 2079.57 0.0695687 -4.79049 0
M  V30 22804 H 2077.94 0.13371 -2.54349 0
M  V30 22805 H 2078.72 -1.43573 -3.11836 0
M  V30 22806 N 2081.16 1.56239 -0.206702 0
M  V30 22807 C 2082.13 2.18382 0.695843 0
M  V30 22808 C 2083.13 1.14149 1.13255 0
M  V30 22809 O 2084.32 1.39468 1.04376 0
M  V30 22810 C 2081.45 2.79522 1.95141 0
M  V30 22811 H 2082.64 2.99503 0.154275 0
M  V30 22812 H 2080.2 1.56241 0.0429222 0
M  V30 22813 H 2080.93 2.02231 2.53521 0
M  V30 22814 H 2080.72 3.55837 1.64689 0
M  V30 22815 H 2082.21 3.27203 2.59476 0
M  V30 22816 N 2082.64 -0.0668159 1.57458 0
M  V30 22817 C 2083.87 -0.777815 1.91723 0
M  V30 22818 C 2084.29 -1.70866 0.803128 0
M  V30 22819 O 2083.64 -1.8113 -0.223207 0
M  V30 22820 C 2083.69 -1.56722 3.25761 0
M  V30 22821 O 2083.41 -0.673779 4.32888 0
M  V30 22822 C 2084.92 -2.37877 3.74071 0
M  V30 22823 H 2082.14 -0.220863 0.633609 0
M  V30 22824 H 2084.68 -0.0355987 2.04469 0
M  V30 22825 H 2082.83 -2.26166 3.14527 0
M  V30 22826 H 2083.25 -1.22335 5.10034 0
M  V30 22827 H 2084.72 -2.88716 4.70476 0
M  V30 22828 H 2085.2 -3.17625 3.03334 0
M  V30 22829 H 2085.81 -1.73579 3.88266 0
M  V30 22830 N 2084.12 -1.53926 -0.338317 0
M  V30 22831 C 2085.36 -1.73141 -1.08635 0
M  V30 22832 C 2085.73 -0.486994 -1.85721 0
M  V30 22833 O 2086.93 -0.556249 -2.62982 0
M  V30 22834 C 2085.2 -2.9631 -1.99838 0
M  V30 22835 S 2086.76 -3.3636 -2.81793 0
M  V30 22836 H 2083.57 -0.608969 -0.366984 0
M  V30 22837 H 2086.18 -1.92079 -0.364135 0
M  V30 22838 H 2084.88 -3.85045 -1.42017 0
M  V30 22839 H 2084.41 -2.79853 -2.76489 0
M  V30 22840 H 2086.43 -2.90504 -4.02271 0
M  V30 22841 N 2085.6 0.599608 -1.45748 0
M  V30 22842 C 2086.85 1.3557 -1.49884 0
M  V30 22843 C 2087.17 1.94459 -0.145141 0
M  V30 22844 O 2086.44 1.77615 0.82643 0
M  V30 22845 H 2085.02 0.503305 -0.551991 0
M  V30 22846 H 2087.68 0.703509 -1.8176 0
M  V30 22847 H 2086.78 2.17106 -2.24213 0
M  V30 22848 N 2087.08 1.33171 0.842803 0
M  V30 22849 C 2088.01 1.2572 1.96766 0
M  V30 22850 C 2088.99 0.138574 1.69535 0
M  V30 22851 O 2090.17 0.327704 1.91415 0
M  V30 22852 C 2087.3 0.991637 3.32842 0
M  V30 22853 C 2086.26 2.07278 3.74459 0
M  V30 22854 C 2085.58 1.65942 5.08299 0
M  V30 22855 C 2086.88 3.48911 3.88662 0
M  V30 22856 H 2088.58 2.19834 2.03257 0
M  V30 22857 H 2086.12 1.05829 0.976533 0
M  V30 22858 H 2088.08 0.926021 4.111 0
M  V30 22859 H 2086.8 0.0148823 3.26597 0
M  V30 22860 H 2085.46 2.12875 2.98462 0
M  V30 22861 H 2085.11 0.669795 4.98521 0
M  V30 22862 H 2084.81 2.38288 5.37115 0
M  V30 22863 H 2086.33 1.60839 5.89036 0
M  V30 22864 H 2087.75 3.45837 4.57241 0
M  V30 22865 H 2086.14 4.1971 4.2891 0
M  V30 22866 H 2087.21 3.87705 2.91226 0
M  V30 22867 N 2088.56 -1.06056 1.16576 0
M  V30 22868 C 2089.97 -1.60363 0.956067 0
M  V30 22869 C 2090.32 -1.89737 -0.499436 0
M  V30 22870 O 2089.44 -1.67257 -1.3731 0
M  V30 22871 C 2090.04 -2.91353 1.72913 0
M  V30 22872 C 2088.6 -3.42352 1.56436 0
M  V30 22873 C 2087.74 -2.1621 1.73633 0
M  V30 22874 H 2090.69 -0.889768 1.31411 0
M  V30 22875 H 2090.72 -3.6087 1.20636 0
M  V30 22876 H 2090.23 -2.69942 2.78842 0
M  V30 22877 H 2088.33 -3.68817 0.529577 0
M  V30 22878 H 2088.44 -4.17519 2.34978 0
M  V30 22879 H 2086.81 -2.26548 1.16396 0
M  V30 22880 H 2087.59 -1.97279 2.80955 0
M  V30 22881 N 2090.03 -0.964615 -1.24631 0
M  V30 22882 C 2091 -0.497206 -2.23742 0
M  V30 22883 C 2092 0.404569 -1.55627 0
M  V30 22884 O 2093.19 0.200461 -1.73043 0
M  V30 22885 C 2090.32 0.280348 -3.39745 0
M  V30 22886 H 2091.51 -1.37334 -2.66607 0
M  V30 22887 H 2089.06 -0.748889 -1.37191 0
M  V30 22888 H 2089.8 1.17372 -3.02315 0
M  V30 22889 H 2089.58 -0.366741 -3.90381 0
M  V30 22890 H 2091.07 0.596501 -4.13318 0
M  V30 22891 N 2091.51 1.39445 -0.734362 0
M  V30 22892 C 2092.42 2.34405 -0.0955161 0
M  V30 22893 C 2093.44 1.58285 0.722625 0
M  V30 22894 O 2094.61 1.9058 0.65124 0
M  V30 22895 C 2091.68 3.3731 0.801447 0
M  V30 22896 C 2090.74 4.2929 -0.0288733 0
M  V30 22897 C 2089.97 5.27279 0.825373 0
M  V30 22898 O 2090.2 5.31743 2.06411 0
M  V30 22899 O 2089.13 6.01362 0.254373 0
M  V30 22900 H 2092.96 2.90693 -0.879273 0
M  V30 22901 H 2090.54 1.4096 -0.495025 0
M  V30 22902 H 2092.42 4.00368 1.31468 0
M  V30 22903 H 2091.1 2.83408 1.56403 0
M  V30 22904 H 2090 3.69456 -0.587608 0
M  V30 22905 H 2091.34 4.86396 -0.753661 0
M  V30 22906 N 2092.99 0.481946 1.5005 0
M  V30 22907 C 2094.22 -0.0665508 2.06493 0
M  V30 22908 C 2094.63 -1.3309 1.34476 0
M  V30 22909 O 2093.97 -1.79046 0.410882 0
M  V30 22910 C 2094.03 -0.409721 3.57158 0
M  V30 22911 C 2093.7 0.754158 4.50734 0
M  V30 22912 C 2094.69 1.63929 4.93379 0
M  V30 22913 C 2092.38 0.947563 4.93281 0
M  V30 22914 C 2094.37 2.70214 5.77289 0
M  V30 22915 C 2092.06 2.01362 5.76972 0
M  V30 22916 C 2093.06 2.88927 6.18878 0
M  V30 22917 O 2092.75 3.93695 7.00899 0
M  V30 22918 H 2092.48 0.00864043 0.675945 0
M  V30 22919 H 2095.03 0.672929 1.94064 0
M  V30 22920 H 2093.26 -1.20254 3.67527 0
M  V30 22921 H 2094.95 -0.894578 3.95919 0
M  V30 22922 H 2095.72 1.5016 4.61169 0
M  V30 22923 H 2091.6 0.275431 4.60176 0
M  V30 22924 H 2095.14 3.38592 6.09919 0
M  V30 22925 H 2091.04 2.15133 6.08595 0
M  V30 22926 H 2091.8 3.90816 7.1917 0
M  V30 22927 N 2094.47 -1.56127 0.214985 0
M  V30 22928 C 2095.43 -2.18748 -0.684252 0
M  V30 22929 C 2096.43 -1.14748 -1.12648 0
M  V30 22930 O 2097.62 -1.4002 -1.03634 0
M  V30 22931 C 2094.75 -2.80553 -1.93656 0
M  V30 22932 H 2095.95 -2.99581 -0.13839 0
M  V30 22933 H 2093.5 -1.56262 -0.0346358 0
M  V30 22934 H 2094.23 -2.03573 -2.52445 0
M  V30 22935 H 2094.02 -3.56705 -1.628 0
M  V30 22936 H 2095.51 -3.28575 -2.57737 0
M  V30 22937 N 2095.95 0.0584645 -1.57492 0
M  V30 22938 C 2097.17 0.767637 -1.92133 0
M  V30 22939 C 2097.59 1.70438 -0.812178 0
M  V30 22940 O 2096.95 1.81246 0.213598 0
M  V30 22941 C 2097 1.54992 -3.26588 0
M  V30 22942 O 2096.72 0.650813 -4.33239 0
M  V30 22943 C 2098.22 2.3589 -3.75328 0
M  V30 22944 H 2095.44 0.2175 -0.634772 0
M  V30 22945 H 2097.98 0.0247547 -2.04485 0
M  V30 22946 H 2096.14 2.24495 -3.15722 0
M  V30 22947 H 2096.55 1.19628 -5.10675 0
M  V30 22948 H 2098.03 2.86216 -4.72 0
M  V30 22949 H 2098.5 3.16011 -3.05014 0
M  V30 22950 H 2099.11 1.71518 -3.89181 0
M  V30 22951 N 2097.42 1.54103 0.330149 0
M  V30 22952 C 2098.37 1.7941 1.40698 0
M  V30 22953 C 2099.36 0.649833 1.47194 0
M  V30 22954 O 2100.55 0.909637 1.51837 0
M  V30 22955 C 2097.68 2.01906 2.77649 0
M  V30 22956 C 2096.76 3.22436 2.75492 0
M  V30 22957 N 2097.16 4.43627 2.42959 0
M  V30 22958 C 2095.45 3.23876 3.06628 0
M  V30 22959 C 2096.15 5.25536 2.49372 0
M  V30 22960 N 2095.13 4.62564 2.85544 0
M  V30 22961 H 2098.93 2.70694 1.14463 0
M  V30 22962 H 2096.45 1.53209 0.538595 0
M  V30 22963 H 2098.44 2.18174 3.55255 0
M  V30 22964 H 2097.1 1.11872 3.04819 0
M  V30 22965 H 2098.11 4.70743 2.1592 0
M  V30 22966 H 2094.79 2.43854 3.38883 0
M  V30 22967 H 2096.18 6.32297 2.27265 0
M  V30 22968 N 2098.9 -0.59187 1.46064 0
M  V30 22969 C 2100.15 -1.3504 1.50899 0
M  V30 22970 C 2100.48 -1.93865 0.156992 0
M  V30 22971 O 2099.73 -1.76455 -0.846284 0
M  V30 22972 C 2100.03 -2.50587 2.54835 0
M  V30 22973 C 2099.7 -2.09811 3.99111 0
M  V30 22974 C 2098.36 -1.98406 4.38393 0
M  V30 22975 C 2100.71 -1.78225 4.89781 0
M  V30 22976 C 2098.04 -1.53658 5.66221 0
M  V30 22977 C 2100.39 -1.34959 6.18036 0
M  V30 22978 C 2099.06 -1.22123 6.56233 0
M  V30 22979 H 2098.33 -0.494146 0.552178 0
M  V30 22980 H 2100.97 -0.667418 1.79493 0
M  V30 22981 H 2099.28 -3.24292 2.19868 0
M  V30 22982 H 2100.97 -3.08809 2.55809 0
M  V30 22983 H 2097.56 -2.1962 3.68056 0
M  V30 22984 H 2101.75 -1.85927 4.60158 0
M  V30 22985 H 2097 -1.42356 5.94596 0
M  V30 22986 H 2101.18 -1.09569 6.87726 0
M  V30 22987 H 2098.81 -0.872249 7.55179 0
M  V30 22988 N 2100.38 -1.33616 -0.835729 0
M  V30 22989 C 2101.61 -1.28297 -1.62319 0
M  V30 22990 C 2102.02 0.145496 -1.88239 0
M  V30 22991 O 2101.38 1.08862 -1.46476 0
M  V30 22992 C 2101.43 -2.05863 -2.97158 0
M  V30 22993 O 2101.15 -3.43137 -2.72375 0
M  V30 22994 C 2102.65 -2.07791 -3.91584 0
M  V30 22995 H 2099.87 -0.441872 -0.504966 0
M  V30 22996 H 2102.42 -1.76036 -1.04075 0
M  V30 22997 H 2100.57 -1.61799 -3.51994 0
M  V30 22998 H 2100.99 -3.83078 -3.58262 0
M  V30 22999 H 2102.46 -2.66511 -4.834 0
M  V30 23000 H 2102.94 -1.06897 -4.25993 0
M  V30 23001 H 2103.54 -2.51888 -3.42684 0
M  V30 23002 N 2101.86 1.05436 -1.17136 0
M  V30 23003 C 2102.77 2.16633 -0.900413 0
M  V30 23004 C 2103.78 1.7351 0.130523 0
M  V30 23005 O 2104.96 2.01342 -0.0481629 0
M  V30 23006 C 2102.03 3.4421 -0.414754 0
M  V30 23007 C 2101.09 4.01793 -1.51198 0
M  V30 23008 C 2100.32 5.23281 -1.0494 0
M  V30 23009 O 2100.54 5.70317 0.0974405 0
M  V30 23010 O 2099.48 5.73041 -1.8414 0
M  V30 23011 H 2103.3 2.42336 -1.83049 0
M  V30 23012 H 2100.89 1.15137 -0.952042 0
M  V30 23013 H 2102.77 4.21128 -0.151319 0
M  V30 23014 H 2101.44 3.20013 0.487199 0
M  V30 23015 H 2100.35 3.26326 -1.82926 0
M  V30 23016 H 2101.68 4.30304 -2.38955 0
M  V30 23017 N 2103.34 0.971211 1.24118 0
M  V30 23018 C 2104.3 0.509064 2.23475 0
M  V30 23019 C 2105.3 -0.39631 1.5584 0
M  V30 23020 O 2106.49 -0.191281 1.73147 0
M  V30 23021 C 2103.62 -0.262327 3.39889 0
M  V30 23022 H 2104.81 1.38746 2.65875 0
M  V30 23023 H 2102.37 0.756154 1.36792 0
M  V30 23024 H 2103.1 -1.15767 3.02933 0
M  V30 23025 H 2102.89 0.387439 3.90181 0
M  V30 23026 H 2104.38 -0.574574 4.13628 0
M  V30 23027 N 2104.81 -1.39054 0.741747 0
M  V30 23028 C 2106.06 -2.00374 0.292655 0
M  V30 23029 C 2106.39 -1.58866 -1.12214 0
M  V30 23030 O 2105.64 -0.811946 -1.78062 0
M  V30 23031 C 2105.94 -3.55684 0.349795 0
M  V30 23032 C 2105.61 -4.16865 1.71856 0
M  V30 23033 C 2104.27 -4.33289 2.09318 0
M  V30 23034 C 2106.62 -4.50738 2.61696 0
M  V30 23035 C 2103.95 -4.80878 3.36115 0
M  V30 23036 C 2106.3 -4.99738 3.87872 0
M  V30 23037 C 2104.97 -5.14369 4.25418 0
M  V30 23038 H 2104.24 -0.733221 0.10709 0
M  V30 23039 H 2106.88 -1.6628 0.949911 0
M  V30 23040 H 2105.19 -3.89844 -0.391034 0
M  V30 23041 H 2106.89 -4.00997 -0.0159237 0
M  V30 23042 H 2103.48 -4.04488 1.41731 0
M  V30 23043 H 2107.66 -4.37661 2.34022 0
M  V30 23044 H 2102.92 -4.90391 3.6514 0
M  V30 23045 H 2107.09 -5.24919 4.57638 0
M  V30 23046 H 2104.72 -5.51005 5.23734 0
M  V30 23047 N 2106.29 -0.489897 -1.49792 0
M  V30 23048 C 2107.53 0.0570502 -2.0432 0
M  V30 23049 C 2107.9 1.35291 -1.36237 0
M  V30 23050 O 2109.1 1.9834 -1.81424 0
M  V30 23051 C 2107.37 0.217574 -3.56737 0
M  V30 23052 S 2108.93 0.72037 -4.32847 0
M  V30 23053 H 2105.75 0.00704922 -0.710965 0
M  V30 23054 H 2108.35 -0.661331 -1.83975 0
M  V30 23055 H 2107.05 -0.731044 -4.03836 0
M  V30 23056 H 2106.58 0.961522 -3.81469 0
M  V30 23057 H 2108.6 1.99116 -4.54497 0
M  V30 23058 N 2107.77 1.56011 -0.223262 0
M  V30 23059 C 2109.19 1.59052 0.132091 0
M  V30 23060 C 2109.39 1.2401 1.5882 0
M  V30 23061 O 2108.44 0.976155 2.32868 0
M  V30 23062 C 2109.76 3.00062 -0.195742 0
M  V30 23063 C 2111.3 3.12695 -0.138118 0
M  V30 23064 C 2111.78 4.55885 -0.439651 0
M  V30 23065 N 2113.27 4.61561 -0.389284 0
M  V30 23066 C 2114 5.70293 -0.596069 0
M  V30 23067 N 2113.5 6.87382 -0.86472 0
M  V30 23068 N 2115.29 5.59611 -0.528389 0
M  V30 23069 H 2107.44 1.77064 -1.17312 0
M  V30 23070 H 2109.71 0.823097 -0.470336 0
M  V30 23071 H 2109.41 3.3036 -1.20644 0
M  V30 23072 H 2109.29 3.74024 0.48845 0
M  V30 23073 H 2111.67 2.82192 0.863219 0
M  V30 23074 H 2111.76 2.41059 -0.855813 0
M  V30 23075 H 2111.4 4.87105 -1.43843 0
M  V30 23076 H 2111.33 5.25749 0.299255 0
M  V30 23077 H 2113.82 3.77425 -0.189406 0
M  V30 23078 H 2114.13 7.66164 -1.01056 0
M  V30 23079 H 2112.48 6.89123 -0.901933 0
M  V30 23080 H 2115.67 4.67014 -0.318724 0
M  V30 23081 H 2115.84 6.44284 -0.69295 0
M  V30 23082 N 2109.25 -0.0501116 1.5752 0
M  V30 23083 C 2110.53 -0.779325 1.79404 0
M  V30 23084 C 2110.91 -1.94682 0.816214 0
M  V30 23085 O 2110.25 -2.28032 -0.146153 0
M  V30 23086 C 2110.46 -1.23206 3.26529 0
M  V30 23087 C 2111.81 -1.65661 3.9095 0
M  V30 23088 O 2112.84 -1.32718 3.30552 0
M  V30 23089 O 2111.69 -2.26728 4.97249 0
M  V30 23090 H 2108.79 -0.375128 0.737026 0
M  V30 23091 H 2111.33 -0.0285117 1.69676 0
M  V30 23092 H 2110.11 -0.397664 3.89274 0
M  V30 23093 H 2109.73 -2.04353 3.41065 0
M  V30 23094 N 2110.73 -1.54276 -0.321972 0
M  V30 23095 C 2111.67 -1.83772 -1.3963 0
M  V30 23096 C 2112.64 -0.684941 -1.5132 0
M  V30 23097 O 2113.83 -0.931526 -1.66515 0
M  V30 23098 C 2110.97 -2.07212 -2.75966 0
M  V30 23099 C 2110.08 -3.34892 -2.72895 0
M  V30 23100 C 2109.22 -3.48284 -4.01088 0
M  V30 23101 C 2108.26 -4.69833 -3.9233 0
M  V30 23102 N 2107.39 -4.80144 -5.12256 0
M  V30 23103 H 2112.23 -2.75425 -1.13777 0
M  V30 23104 H 2109.77 -1.36401 -0.550737 0
M  V30 23105 H 2111.73 -2.18794 -3.55225 0
M  V30 23106 H 2110.36 -1.18848 -3.00125 0
M  V30 23107 H 2109.41 -3.32039 -1.85618 0
M  V30 23108 H 2110.72 -4.2426 -2.62307 0
M  V30 23109 H 2109.88 -3.59417 -4.88778 0
M  V30 23110 H 2108.61 -2.57011 -4.14483 0
M  V30 23111 H 2107.62 -4.58755 -3.03024 0
M  V30 23112 H 2108.84 -5.62492 -3.80498 0
M  V30 23113 H 2106.79 -3.91787 -5.26155 0
M  V30 23114 H 2106.71 -5.6348 -5.0401 0
M  V30 23115 H 2107.98 -4.9561 -6.01657 0
M  V30 23116 N 2112.2 0.584116 -1.46376 0
M  V30 23117 C 2113.14 1.70791 -1.51346 0
M  V30 23118 C 2114.12 1.58388 -0.367694 0
M  V30 23119 O 2115.3 1.79623 -0.571636 0
M  V30 23120 C 2112.43 3.08833 -1.39069 0
M  V30 23121 C 2111.47 3.3976 -2.57809 0
M  V30 23122 S 2112.31 3.31988 -4.20172 0
M  V30 23123 C 2113.46 4.72569 -4.10401 0
M  V30 23124 H 2113.69 1.66316 -2.46427 0
M  V30 23125 H 2111.23 0.762743 -1.34245 0
M  V30 23126 H 2113.19 3.88469 -1.32673 0
M  V30 23127 H 2111.85 3.10799 -0.454183 0
M  V30 23128 H 2111.04 4.40328 -2.45208 0
M  V30 23129 H 2110.64 2.67688 -2.61188 0
M  V30 23130 H 2112.93 5.62922 -3.76995 0
M  V30 23131 H 2113.88 4.90227 -5.10963 0
M  V30 23132 H 2114.28 4.49353 -3.41676 0
M  V30 23133 N 2113.68 1.34058 0.828631 0
M  V30 23134 C 2114.63 1.25159 1.96056 0
M  V30 23135 C 2115.63 0.150843 1.68727 0
M  V30 23136 O 2116.83 0.315456 1.77214 0
M  V30 23137 H 2113.21 0.388669 0.643771 0
M  V30 23138 H 2115.18 2.20835 2.00685 0
M  V30 23139 C 2113.93 1.0181 3.32461 0
M  V30 23140 H 2113.25 1.8574 3.54035 0
M  V30 23141 H 2114.69 0.996172 4.12132 0
M  V30 23142 C 2113.15 -0.278758 3.35745 0
M  V30 23143 O 2113.68 -1.28204 3.80692 0
M  V30 23144 N 2111.88 -0.309877 2.88943 0
M  V30 23145 H 2111.43 0.507134 2.52559 0
M  V30 23146 H 2111.39 -1.17737 2.91523 0
M  V30 23147 N 2115.16 -1.04814 1.17694 0
M  V30 23148 C 2116.39 -1.82088 0.992908 0
M  V30 23149 C 2116.81 -1.82538 -0.454023 0
M  V30 23150 O 2116.17 -1.23716 -1.3253 0
M  V30 23151 C 2116.22 -3.25912 1.54318 0
M  V30 23152 O 2115.32 -4.05346 0.759486 0
M  V30 23153 H 2114.66 -0.562852 0.352268 0
M  V30 23154 H 2117.19 -1.32054 1.56279 0
M  V30 23155 H 2117.2 -3.76705 1.56708 0
M  V30 23156 H 2115.88 -3.24899 2.59641 0
M  V30 23157 H 2114.45 -3.64056 0.807298 0
M  V30 23158 N 2116.64 -0.977779 -1.23601 0
M  V30 23159 C 2118.05 -0.682573 -1.73775 0
M  V30 23160 C 2118.4 0.801323 -1.7909 0
M  V30 23161 O 2117.53 1.6268 -1.42703 0
M  V30 23162 C 2118.12 -1.23234 -3.15593 0
M  V30 23163 C 2116.68 -0.986829 -3.63234 0
M  V30 23164 C 2115.83 -1.36164 -2.41567 0
M  V30 23165 H 2118.78 -1.15193 -1.09162 0
M  V30 23166 H 2118.8 -0.603486 -3.75684 0
M  V30 23167 H 2118.31 -2.31235 -3.11692 0
M  V30 23168 H 2116.41 0.0772124 -3.7252 0
M  V30 23169 H 2116.53 -1.63956 -4.50172 0
M  V30 23170 H 2114.89 -0.780079 -2.4246 0
M  V30 23171 H 2115.67 -2.45136 -2.4034 0
M  V30 23172 N 2118.12 1.38658 -0.749111 0
M  V30 23173 C 2119.37 1.99821 -0.302678 0
M  V30 23174 C 2119.69 1.59757 1.11816 0
M  V30 23175 O 2118.96 0.852324 1.76387 0
M  V30 23176 H 2117.54 0.739016 -0.108921 0
M  V30 23177 H 2120.2 1.69492 -0.962209 0
M  V30 23178 H 2119.29 3.09991 -0.362255 0
M  V30 23179 N 2119.6 0.497834 1.49531 0
M  V30 23180 C 2120.53 -0.271671 2.31914 0
M  V30 23181 C 2121.51 -0.965521 1.40042 0
M  V30 23182 O 2122.69 -0.957536 1.68952 0
M  V30 23183 C 2119.82 -1.3384 3.20475 0
M  V30 23184 C 2118.78 -0.76461 4.21115 0
M  V30 23185 C 2118.1 -1.93162 4.98591 0
M  V30 23186 C 2119.4 0.242201 5.21738 0
M  V30 23187 H 2121.1 0.415979 2.96496 0
M  V30 23188 H 2118.64 0.201496 1.42583 0
M  V30 23189 H 2120.59 -1.88442 3.76918 0
M  V30 23190 H 2119.32 -2.05519 2.5383 0
M  V30 23191 H 2117.98 -0.240359 3.65811 0
M  V30 23192 H 2117.63 -2.63602 4.28396 0
M  V30 23193 H 2117.33 -1.55378 5.66685 0
M  V30 23194 H 2118.85 -2.48204 5.57877 0
M  V30 23195 H 2120.26 -0.215575 5.72895 0
M  V30 23196 H 2118.66 0.535707 5.97704 0
M  V30 23197 H 2119.73 1.15916 4.70841 0
M  V30 23198 N 2121.07 -1.5589 0.231532 0
M  V30 23199 C 2122.01 -2.18025 -0.70695 0
M  V30 23200 C 2123.02 -1.15214 -1.1502 0
M  V30 23201 O 2124.21 -1.42149 -1.07963 0
M  V30 23202 C 2121.31 -2.75714 -1.97066 0
M  V30 23203 C 2120.48 -4.03794 -1.68135 0
M  V30 23204 C 2119.54 -4.4595 -2.79312 0
M  V30 23205 O 2118.57 -5.12645 -2.47354 0
M  V30 23206 N 2119.77 -4.12459 -4.08483 0
M  V30 23207 H 2122.53 -2.99186 -0.175389 0
M  V30 23208 H 2120.09 -1.6182 0.0509009 0
M  V30 23209 H 2122.09 -3.00882 -2.70652 0
M  V30 23210 H 2120.66 -1.98799 -2.41242 0
M  V30 23211 H 2119.88 -3.86377 -0.781436 0
M  V30 23212 H 2121.16 -4.87328 -1.46251 0
M  V30 23213 H 2120.56 -3.58884 -4.37286 0
M  V30 23214 H 2119.12 -4.42496 -4.78581 0
M  V30 23215 N 2122.55 0.0417572 -1.57545 0
M  V30 23216 C 2123.78 0.747215 -1.92936 0
M  V30 23217 C 2124.19 1.69567 -0.830209 0
M  V30 23218 O 2123.55 1.81462 0.194363 0
M  V30 23219 C 2123.6 1.51519 -3.28214 0
M  V30 23220 O 2123.32 0.604825 -4.33905 0
M  V30 23221 C 2124.82 2.31896 -3.77809 0
M  V30 23222 H 2122.04 0.210755 -0.637043 0
M  V30 23223 H 2124.59 0.00306497 -2.045 0
M  V30 23224 H 2122.74 2.21134 -3.18086 0
M  V30 23225 H 2123.16 1.14205 -5.11916 0
M  V30 23226 H 2124.63 2.81194 -4.75009 0
M  V30 23227 H 2125.11 3.12759 -3.08348 0
M  V30 23228 H 2125.71 1.6738 -3.90978 0
M  V30 23229 N 2124.03 1.54445 0.313786 0
M  V30 23230 C 2124.98 1.8451 1.38654 0
M  V30 23231 C 2125.95 0.692957 1.50955 0
M  V30 23232 O 2127.13 0.940344 1.66019 0
M  V30 23233 C 2124.27 2.08672 2.74863 0
M  V30 23234 C 2123.38 3.36334 2.71115 0
M  V30 23235 C 2122.52 3.50406 3.99235 0
M  V30 23236 C 2121.56 4.71907 3.89833 0
M  V30 23237 N 2120.7 4.82853 5.09703 0
M  V30 23238 H 2125.54 2.76024 1.12315 0
M  V30 23239 H 2123.07 1.36691 0.543496 0
M  V30 23240 H 2125.03 2.20675 3.5406 0
M  V30 23241 H 2123.66 1.20438 2.9949 0
M  V30 23242 H 2122.71 3.33019 1.83855 0
M  V30 23243 H 2124.02 4.25645 2.60054 0
M  V30 23244 H 2123.18 3.62004 4.86865 0
M  V30 23245 H 2121.92 2.59206 4.13115 0
M  V30 23246 H 2120.92 4.60356 3.00587 0
M  V30 23247 H 2122.15 5.64502 3.7751 0
M  V30 23248 H 2120.09 3.94572 5.2407 0
M  V30 23249 H 2120.01 5.66145 5.01015 0
M  V30 23250 H 2121.28 4.98794 5.9902 0
M  V30 23251 N 2125.51 -0.576345 1.46683 0
M  V30 23252 C 2126.42 -1.71268 1.60326 0
M  V30 23253 C 2127.43 -1.67059 0.486559 0
M  V30 23254 O 2128.61 -1.86852 0.75154 0
M  V30 23255 C 2125.67 -3.07775 1.5961 0
M  V30 23256 C 2124.74 -3.232 2.8256 0
M  V30 23257 C 2123.97 -4.53195 2.81869 0
M  V30 23258 O 2124.19 -5.37478 1.90979 0
M  V30 23259 O 2123.13 -4.72003 3.73493 0
M  V30 23260 H 2126.95 -1.62705 2.56439 0
M  V30 23261 H 2124.54 -0.744135 1.29549 0
M  V30 23262 H 2126.42 -3.89046 1.61929 0
M  V30 23263 H 2125.09 -3.16762 0.666583 0
M  V30 23264 H 2124 -2.41398 2.85793 0
M  V30 23265 H 2125.33 -3.19107 3.74742 0
M  V30 23266 N 2126.99 -1.34495 -0.82151 0
M  V30 23267 C 2128.4 -1.24152 -1.39439 0
M  V30 23268 C 2128.75 0.1324 -1.95753 0
M  V30 23269 O 2127.87 1.03279 -1.90164 0
M  V30 23270 C 2128.47 -2.24789 -2.53487 0
M  V30 23271 C 2127.03 -2.18232 -3.06679 0
M  V30 23272 C 2126.17 -2.11315 -1.79558 0
M  V30 23273 H 2129.12 -1.45841 -0.625789 0
M  V30 23274 H 2129.15 -1.8657 -3.3162 0
M  V30 23275 H 2128.66 -3.24774 -2.1247 0
M  V30 23276 H 2126.76 -1.21608 -3.52196 0
M  V30 23277 H 2126.87 -3.09548 -3.65673 0
M  V30 23278 H 2125.24 -1.57058 -2.00512 0
M  V30 23279 H 2126.02 -3.13136 -1.40714 0
M  V30 23280 N 2128.46 1.04188 -1.18248 0
M  V30 23281 C 2129.69 1.81559 -1.00255 0
M  V30 23282 C 2130.11 1.82777 0.444336 0
M  V30 23283 O 2129.47 1.24417 1.31872 0
M  V30 23284 C 2129.52 3.25089 -1.56044 0
M  V30 23285 O 2128.62 4.04938 -0.780971 0
M  V30 23286 H 2127.97 0.560976 -0.355248 0
M  V30 23287 H 2130.5 1.31223 -1.56977 0
M  V30 23288 H 2130.51 3.75869 -1.58703 0
M  V30 23289 H 2129.18 3.23517 -2.61361 0
M  V30 23290 H 2127.76 3.63623 -0.826593 0
M  V30 23291 N 2129.94 0.98432 1.23081 0
M  V30 23292 C 2131.17 0.673202 1.9617 0
M  V30 23293 C 2131.59 -0.753958 1.72328 0
M  V30 23294 O 2130.95 -1.51414 0.997167 0
M  V30 23295 C 2131 0.974266 3.47189 0
M  V30 23296 O 2130.1 0.0683695 4.12343 0
M  V30 23297 H 2129.44 0.252801 0.613993 0
M  V30 23298 H 2131.97 1.31898 1.5641 0
M  V30 23299 H 2131.98 0.912577 3.97663 0
M  V30 23300 H 2130.66 2.01426 3.63868 0
M  V30 23301 H 2129.24 0.184805 3.72442 0
M  V30 23302 N 2131.42 -1.38259 0.756453 0
M  V30 23303 C 2132.65 -2.04861 0.323535 0
M  V30 23304 C 2133.07 -1.56679 -1.04083 0
M  V30 23305 O 2132.43 -0.72007 -1.66387 0
M  V30 23306 C 2132.48 -3.58812 0.358692 0
M  V30 23307 O 2131.58 -4.07304 -0.646296 0
M  V30 23308 H 2130.92 -0.64848 0.142723 0
M  V30 23309 H 2133.45 -1.76877 1.02838 0
M  V30 23310 H 2133.46 -4.07456 0.210579 0
M  V30 23311 H 2132.14 -3.93238 1.35413 0
M  V30 23312 H 2130.71 -3.7002 -0.462561 0
M  V30 23313 N 2132.9 -0.505757 -1.49264 0
M  V30 23314 C 2133.83 0.259368 -2.32055 0
M  V30 23315 C 2134.81 0.95808 -1.40552 0
M  V30 23316 O 2135.99 0.948562 -1.69458 0
M  V30 23317 C 2133.12 1.32138 -3.2118 0
M  V30 23318 C 2132.08 0.742267 -4.21514 0
M  V30 23319 C 2131.4 1.90515 -4.99608 0
M  V30 23320 C 2132.7 -0.269866 -5.21602 0
M  V30 23321 H 2134.4 -0.431697 -2.96271 0
M  V30 23322 H 2131.94 -0.209055 -1.42474 0
M  V30 23323 H 2133.9 1.86441 -3.77912 0
M  V30 23324 H 2132.62 2.0417 -2.54916 0
M  V30 23325 H 2131.28 0.220956 -3.65934 0
M  V30 23326 H 2130.93 2.61327 -4.29788 0
M  V30 23327 H 2130.63 1.52371 -5.67501 0
M  V30 23328 H 2132.15 2.45242 -5.59186 0
M  V30 23329 H 2133.57 0.18519 -5.73001 0
M  V30 23330 H 2131.96 -0.567397 -5.97412 0
M  V30 23331 H 2133.03 -1.18411 -4.7022 0
M  V30 23332 N 2134.38 1.55765 -0.239796 0
M  V30 23333 C 2135.33 2.17732 0.676512 0
M  V30 23334 C 2136.31 1.13106 1.14438 0
M  V30 23335 O 2137.5 1.39038 1.09533 0
M  V30 23336 C 2134.63 2.87486 1.87634 0
M  V30 23337 C 2133.72 3.9936 1.42731 0
M  V30 23338 N 2134.11 5.01043 0.692042 0
M  V30 23339 C 2132.41 4.11785 1.71316 0
M  V30 23340 C 2133.11 5.79874 0.460525 0
M  V30 23341 N 2132.08 5.33894 1.02264 0
M  V30 23342 H 2135.89 2.93707 0.106521 0
M  V30 23343 H 2133.4 1.62346 -0.0418104 0
M  V30 23344 H 2135.4 3.30304 2.54372 0
M  V30 23345 H 2134.06 2.13012 2.45063 0
M  V30 23346 H 2135.07 5.16764 0.342867 0
M  V30 23347 H 2131.74 3.48477 2.29934 0
M  V30 23348 H 2133.13 6.71782 -0.125962 0
M  V30 23349 N 2135.85 -0.0334016 1.57565 0
M  V30 23350 C 2136.78 -1.03494 2.09312 0
M  V30 23351 C 2137.77 -1.37985 0.9947 0
M  V30 23352 O 2138.95 -1.46944 1.26969 0
M  V30 23353 C 2136.08 -2.33717 2.56892 0
M  V30 23354 C 2135.03 -2.1348 3.70959 0
M  V30 23355 C 2134.36 -3.49425 4.0473 0
M  V30 23356 C 2135.66 -1.52451 4.99556 0
M  V30 23357 H 2137.35 -0.60419 2.9324 0
M  V30 23358 H 2134.9 -0.289182 1.41066 0
M  V30 23359 H 2136.85 -3.04107 2.91714 0
M  V30 23360 H 2135.58 -2.78843 1.70041 0
M  V30 23361 H 2134.24 -1.45523 3.3648 0
M  V30 23362 H 2133.88 -3.92192 3.14952 0
M  V30 23363 H 2133.58 -3.36711 4.81559 0
M  V30 23364 H 2135.11 -4.21184 4.42082 0
M  V30 23365 H 2136.52 -2.12753 5.32362 0
M  V30 23366 H 2134.92 -1.50324 5.80967 0
M  V30 23367 H 2135.99 -0.48986 4.82419 0
M  V30 23368 N 2137.33 -1.54609 -0.305591 0
M  V30 23369 C 2138.24 -1.88292 -1.3994 0
M  V30 23370 C 2139.26 -0.77661 -1.55707 0
M  V30 23371 O 2140.43 -1.07264 -1.7046 0
M  V30 23372 C 2137.5 -2.11925 -2.74388 0
M  V30 23373 C 2136.56 -3.35656 -2.67644 0
M  V30 23374 C 2135.79 -3.58152 -3.9568 0
M  V30 23375 O 2136.02 -2.83746 -4.94818 0
M  V30 23376 O 2134.95 -4.51662 -3.97851 0
M  V30 23377 H 2138.78 -2.81339 -1.14378 0
M  V30 23378 H 2136.36 -1.40741 -0.501242 0
M  V30 23379 H 2138.24 -2.28697 -3.53943 0
M  V30 23380 H 2136.92 -1.22065 -2.99803 0
M  V30 23381 H 2135.83 -3.24253 -1.86577 0
M  V30 23382 H 2137.16 -4.25631 -2.47182 0
M  V30 23383 N 2138.81 0.568558 -1.46987 0
M  V30 23384 C 2140.06 1.3236 -1.52726 0
M  V30 23385 C 2140.38 1.94107 -0.186356 0
M  V30 23386 O 2139.65 1.79328 0.78857 0
M  V30 23387 H 2138.23 0.491483 -0.562542 0
M  V30 23388 H 2140.89 0.664797 -1.83212 0
M  V30 23389 H 2139.99 2.12301 -2.28768 0
M  V30 23390 N 2140.29 1.34929 0.814366 0
M  V30 23391 C 2141.53 1.28964 1.57289 0
M  V30 23392 C 2141.89 -0.136931 1.91912 0
M  V30 23393 O 2141.18 -1.08538 1.57893 0
M  V30 23394 C 2141.38 2.12223 2.87569 0
M  V30 23395 C 2141.21 3.62832 2.65674 0
M  V30 23396 C 2139.98 4.32089 2.61968 0
M  V30 23397 C 2142.17 4.56649 2.36592 0
M  V30 23398 N 2140.16 5.68493 2.31708 0
M  V30 23399 C 2141.53 5.81119 2.16103 0
M  V30 23400 C 2143.58 4.45474 2.22391 0
M  V30 23401 C 2142.28 6.95671 1.8285 0
M  V30 23402 C 2144.31 5.59867 1.90535 0
M  V30 23403 C 2143.67 6.8336 1.70875 0
M  V30 23404 H 2139.77 0.52716 0.577604 0
M  V30 23405 H 2142.36 1.6973 0.953923 0
M  V30 23406 H 2140.53 1.7374 3.47374 0
M  V30 23407 H 2142.26 1.97837 3.53048 0
M  V30 23408 H 2139.01 3.84618 2.76344 0
M  V30 23409 H 2139.44 6.40465 2.19394 0
M  V30 23410 H 2144.08 3.50608 2.36292 0
M  V30 23411 H 2141.8 7.9051 1.67687 0
M  V30 23412 H 2145.38 5.53169 1.80266 0
M  V30 23413 H 2144.26 7.70379 1.46583 0
M  V30 23414 N 2141.77 -1.0356 1.18799 0
M  V30 23415 C 2142.7 -2.11252 0.863 0
M  V30 23416 C 2143.68 -1.61632 -0.177164 0
M  V30 23417 O 2144.86 -1.8842 -0.0549849 0
M  V30 23418 C 2141.99 -3.37453 0.290336 0
M  V30 23419 C 2141.03 -4.05932 1.30849 0
M  V30 23420 S 2141.87 -4.52327 2.86637 0
M  V30 23421 C 2143.02 -5.81755 2.30895 0
M  V30 23422 H 2143.26 -2.38494 1.77505 0
M  V30 23423 H 2140.79 -1.16401 1.0144 0
M  V30 23424 H 2142.75 -4.10486 -0.0335533 0
M  V30 23425 H 2141.41 -3.08318 -0.59991 0
M  V30 23426 H 2140.6 -4.96664 0.856782 0
M  V30 23427 H 2140.2 -3.39039 1.57888 0
M  V30 23428 H 2142.5 -6.55962 1.69471 0
M  V30 23429 H 2143.44 -6.31696 3.19947 0
M  V30 23430 H 2143.85 -5.37103 1.73724 0
M  V30 23431 N 2143.25 -0.990834 -1.22557 0
M  V30 23432 C 2144.19 -0.539382 -2.24409 0
M  V30 23433 C 2145.16 0.427199 -1.60512 0
M  V30 23434 O 2146.35 0.332419 -1.87882 0
M  V30 23435 C 2143.49 0.141857 -3.44808 0
M  V30 23436 C 2142.6 -0.86622 -4.23226 0
M  V30 23437 C 2141.74 -0.158712 -5.30963 0
M  V30 23438 C 2140.77 -1.1553 -6.01098 0
M  V30 23439 N 2139.91 -0.476237 -7.00483 0
M  V30 23440 H 2144.75 -1.41266 -2.62389 0
M  V30 23441 H 2142.29 -0.707664 -1.28959 0
M  V30 23442 H 2144.25 0.553728 -4.13509 0
M  V30 23443 H 2142.88 0.978941 -3.07598 0
M  V30 23444 H 2141.93 -1.39642 -3.53842 0
M  V30 23445 H 2143.24 -1.62521 -4.71581 0
M  V30 23446 H 2142.39 0.309995 -6.05908 0
M  V30 23447 H 2141.13 0.632794 -4.83577 0
M  V30 23448 H 2140.14 -1.63465 -5.24937 0
M  V30 23449 H 2141.36 -1.94764 -6.50572 0
M  V30 23450 H 2139.31 0.295871 -6.55332 0
M  V30 23451 H 2139.23 -1.1737 -7.46833 0
M  V30 23452 H 2140.49 -0.0302638 -7.79494 0
M  V30 23453 N 2144.72 1.37856 -0.763775 0
M  V30 23454 C 2145.97 2.00179 -0.324977 0
M  V30 23455 C 2146.3 1.60492 1.09343 0
M  V30 23456 O 2145.58 0.847295 1.75075 0
M  V30 23457 C 2145.86 3.57157 -0.459452 0
M  V30 23458 C 2145.71 4.06777 -1.9197 0
M  V30 23459 C 2147.03 4.39874 0.141077 0
M  V30 23460 H 2144.15 0.727238 -0.119555 0
M  V30 23461 H 2146.79 1.6365 -0.965327 0
M  V30 23462 H 2144.94 3.88405 0.0857008 0
M  V30 23463 H 2146.62 3.86128 -2.52394 0
M  V30 23464 H 2144.86 3.59266 -2.43127 0
M  V30 23465 H 2145.53 5.15845 -1.96489 0
M  V30 23466 H 2148.01 4.14837 -0.323975 0
M  V30 23467 H 2146.88 5.48897 0.0168029 0
M  V30 23468 H 2147.14 4.2463 1.23052 0
M  V30 23469 N 2146.2 0.513665 1.48994 0
M  V30 23470 C 2147.61 0.0690541 1.86572 0
M  V30 23471 C 2147.96 -1.34882 1.42482 0
M  V30 23472 O 2147.09 -2.00738 0.808279 0
M  V30 23473 C 2147.68 0.118539 3.38593 0
M  V30 23474 C 2146.24 -0.270792 3.75425 0
M  V30 23475 C 2145.39 0.485519 2.73016 0
M  V30 23476 H 2148.34 0.725789 1.41131 0
M  V30 23477 H 2148.36 -0.673737 3.74488 0
M  V30 23478 H 2147.87 1.1506 3.70652 0
M  V30 23479 H 2145.97 -1.30561 3.48976 0
M  V30 23480 H 2146.09 0.0574672 4.79066 0
M  V30 23481 H 2144.45 -0.066227 2.54614 0
M  V30 23482 H 2145.23 1.5179 3.0792 0
M  V30 23483 N 2147.68 -1.55636 0.248053 0
M  V30 23484 C 2149.1 -1.59242 -0.10677 0
M  V30 23485 C 2149.3 -1.26521 -1.56827 0
M  V30 23486 O 2148.35 -1.01308 -2.31285 0
M  V30 23487 C 2149.66 -2.99713 0.243455 0
M  V30 23488 C 2151.21 -3.12436 0.187848 0
M  V30 23489 C 2151.69 -4.55128 0.512122 0
M  V30 23490 N 2153.18 -4.60884 0.462665 0
M  V30 23491 C 2153.91 -5.69273 0.686723 0
M  V30 23492 N 2153.41 -6.8592 0.973967 0
M  V30 23493 N 2155.2 -5.587 0.617351 0
M  V30 23494 H 2147.35 -1.75175 1.20114 0
M  V30 23495 H 2149.62 -0.81551 0.483371 0
M  V30 23496 H 2149.32 -3.28399 1.25884 0
M  V30 23497 H 2149.2 -3.74754 -0.428884 0
M  V30 23498 H 2151.58 -2.8353 -0.818215 0
M  V30 23499 H 2151.66 -2.39667 0.894055 0
M  V30 23500 H 2151.31 -4.84755 1.51575 0
M  V30 23501 H 2151.24 -5.26159 -0.215575 0
M  V30 23502 H 2153.73 -3.77076 0.249427 0
M  V30 23503 H 2154.04 -7.64459 1.13232 0
M  V30 23504 H 2152.39 -6.87601 1.01145 0
M  V30 23505 H 2155.58 -4.66447 0.392982 0
M  V30 23506 H 2155.75 -6.431 0.795363 0
M  V30 23507 N 2149.16 0.0250451 -1.5758 0
M  V30 23508 C 2150.11 1.04281 -2.07914 0
M  V30 23509 C 2151.1 1.37188 -0.993769 0
M  V30 23510 O 2152.31 1.36046 -1.17862 0
M  V30 23511 H 2148.68 0.353839 -0.663552 0
M  V30 23512 H 2150.65 0.592514 -2.92458 0
M  V30 23513 C 2149.4 2.33393 -2.57726 0
M  V30 23514 H 2148.72 2.08934 -3.40862 0
M  V30 23515 H 2150.16 3.02943 -2.96651 0
M  V30 23516 C 2148.62 3.02638 -1.48026 0
M  V30 23517 O 2149.15 3.9263 -0.848789 0
M  V30 23518 N 2147.36 2.64036 -1.21381 0
M  V30 23519 H 2146.91 1.90939 -1.72916 0
M  V30 23520 H 2146.86 3.10684 -0.481967 0
M  V30 23521 N 2150.64 1.54769 0.297388 0
M  V30 23522 C 2151.58 1.86729 1.3869 0
M  V30 23523 C 2152.58 0.741344 1.52317 0
M  V30 23524 O 2153.78 0.925384 1.54391 0
M  V30 23525 H 2150.16 0.592301 0.463339 0
M  V30 23526 H 2152.13 2.77791 1.08972 0
M  V30 23527 C 2150.88 2.13444 2.74475 0
M  V30 23528 H 2150.2 2.99558 2.64773 0
M  V30 23529 H 2151.64 2.39744 3.49712 0
M  V30 23530 C 2150.1 0.934151 3.2369 0
M  V30 23531 O 2150.63 0.156464 4.01395 0
M  V30 23532 N 2148.84 0.738537 2.81059 0
M  V30 23533 H 2148.38 1.37261 2.17984 0
M  V30 23534 H 2148.34 -0.0630002 3.14337 0
M  V30 23535 N 2152.11 -0.560755 1.47286 0
M  V30 23536 C 2153.06 -1.66812 1.59507 0
M  V30 23537 C 2154.03 -1.60214 0.438263 0
M  V30 23538 O 2155.22 -1.791 0.657862 0
M  V30 23539 C 2152.36 -3.05138 1.61199 0
M  V30 23540 C 2151.47 -3.22198 2.87771 0
M  V30 23541 C 2150.6 -4.50902 2.80822 0
M  V30 23542 C 2149.64 -4.61382 4.02235 0
M  V30 23543 N 2148.78 -5.81436 3.93543 0
M  V30 23544 H 2153.62 -1.55705 2.54087 0
M  V30 23545 H 2151.16 -0.758538 1.26034 0
M  V30 23546 H 2153.11 -3.85232 1.60163 0
M  V30 23547 H 2151.74 -3.15089 0.701347 0
M  V30 23548 H 2150.8 -2.3556 2.9869 0
M  V30 23549 H 2152.11 -3.25807 3.77692 0
M  V30 23550 H 2151.26 -5.39251 2.78016 0
M  V30 23551 H 2150 -4.49766 1.88578 0
M  V30 23552 H 2149.01 -3.71445 4.0535 0
M  V30 23553 H 2150.23 -4.6428 4.95601 0
M  V30 23554 H 2148.18 -5.81257 3.041 0
M  V30 23555 H 2148.09 -5.86408 4.77139 0
M  V30 23556 H 2149.36 -6.72157 3.94747 0
M  V30 23557 N 2153.59 -1.35359 -0.807199 0
M  V30 23558 C 2155.01 -1.15384 -1.10266 0
M  V30 23559 C 2155.21 0.0341061 -2.01471 0
M  V30 23560 O 2154.26 0.704898 -2.42461 0
M  V30 23561 C 2155.58 -2.45652 -1.73423 0
M  V30 23562 C 2157.12 -2.51853 -1.85847 0
M  V30 23563 C 2157.6 -3.82163 -2.5242 0
M  V30 23564 N 2159.09 -3.83411 -2.59905 0
M  V30 23565 C 2159.83 -4.80967 -3.12183 0
M  V30 23566 N 2159.32 -5.88912 -3.64903 0
M  V30 23567 N 2161.11 -4.68405 -3.1073 0
M  V30 23568 H 2153.27 -2.11448 -0.200891 0
M  V30 23569 H 2155.53 -0.935782 -0.151711 0
M  V30 23570 H 2155.23 -3.32755 -1.13874 0
M  V30 23571 H 2155.11 -2.60154 -2.73129 0
M  V30 23572 H 2157.5 -1.6518 -2.4454 0
M  V30 23573 H 2157.58 -2.41265 -0.84998 0
M  V30 23574 H 2157.22 -4.69234 -1.94376 0
M  V30 23575 H 2157.15 -3.90039 -3.53804 0
M  V30 23576 H 2159.64 -3.05415 -2.22553 0
M  V30 23577 H 2159.95 -6.59346 -4.03091 0
M  V30 23578 H 2158.3 -5.92605 -3.63104 0
M  V30 23579 H 2161.49 -3.83215 -2.6882 0
M  V30 23580 H 2161.66 -5.44598 -3.51166 0
M  V30 23581 N 2155.07 1.02928 -1.19346 0
M  V30 23582 C 2156.32 1.75973 -0.993881 0
M  V30 23583 C 2156.64 1.89088 0.476523 0
M  V30 23584 O 2155.91 1.42417 1.34515 0
M  V30 23585 H 2154.49 0.651893 -0.364753 0
M  V30 23586 H 2157.15 1.24161 -1.50233 0
M  V30 23587 H 2156.25 2.76812 -1.44157 0
M  V30 23588 N 2156.55 0.997319 1.2203 0
M  V30 23589 C 2157.48 0.50954 2.23464 0
M  V30 23590 C 2158.49 -0.397746 1.57866 0
M  V30 23591 O 2159.68 -0.199173 1.77385 0
M  V30 23592 C 2156.78 -0.280337 3.37739 0
M  V30 23593 C 2155.95 0.624157 4.32924 0
M  V30 23594 C 2155.01 -0.114778 5.26075 0
M  V30 23595 O 2154.04 0.501303 5.66988 0
M  V30 23596 N 2155.24 -1.39573 5.63471 0
M  V30 23597 H 2158.01 1.38179 2.65945 0
M  V30 23598 H 2155.57 0.872554 1.36375 0
M  V30 23599 H 2157.56 -0.783436 3.97045 0
M  V30 23600 H 2156.13 -1.05371 2.94305 0
M  V30 23601 H 2155.35 1.30786 3.71872 0
M  V30 23602 H 2156.64 1.23998 4.93459 0
M  V30 23603 H 2156.04 -1.91751 5.3221 0
M  V30 23604 H 2154.59 -1.84393 6.25174 0
M  V30 23605 N 2158.03 -1.37449 0.771075 0
M  V30 23606 C 2158.96 -2.28911 0.115106 0
M  V30 23607 C 2159.97 -1.48601 -0.664961 0
M  V30 23608 O 2161.16 -1.71262 -0.503164 0
M  V30 23609 C 2158.26 -3.2779 -0.860623 0
M  V30 23610 C 2157.43 -4.37193 -0.134514 0
M  V30 23611 C 2156.49 -5.1615 -1.02351 0
M  V30 23612 O 2155.52 -5.67108 -0.487536 0
M  V30 23613 N 2156.72 -5.30813 -2.34985 0
M  V30 23614 H 2159.49 -2.85846 0.900671 0
M  V30 23615 H 2157.05 -1.49418 0.623366 0
M  V30 23616 H 2159.04 -3.77494 -1.45877 0
M  V30 23617 H 2157.61 -2.71628 -1.54716 0
M  V30 23618 H 2156.83 -3.88895 0.644535 0
M  V30 23619 H 2158.12 -5.07473 0.367248 0
M  V30 23620 H 2157.51 -4.90993 -2.80966 0
M  V30 23621 H 2156.07 -5.83828 -2.89808 0
M  V30 23622 N 2159.5 -0.52156 -1.4872 0
M  V30 23623 C 2160.75 0.0155648 -2.02094 0
M  V30 23624 C 2161.07 1.35564 -1.40169 0
M  V30 23625 O 2160.34 1.87602 -0.564111 0
M  V30 23626 H 2158.92 0.0087409 -0.746949 0
M  V30 23627 H 2161.59 -0.683478 -1.82523 0
M  V30 23628 H 2160.68 0.130113 -3.11829 0
M  V30 23629 N 2160.98 1.55502 -0.256304 0
M  V30 23630 C 2162.23 2.00199 0.359433 0
M  V30 23631 C 2162.58 1.14151 1.54879 0
M  V30 23632 O 2161.88 0.199193 1.90562 0
M  V30 23633 C 2162.07 3.48098 0.810077 0
M  V30 23634 C 2161.9 4.48457 -0.334065 0
M  V30 23635 C 2160.67 4.98736 -0.811792 0
M  V30 23636 C 2162.87 5.00949 -1.16425 0
M  V30 23637 N 2160.85 5.8286 -1.92736 0
M  V30 23638 C 2162.22 5.82336 -2.12803 0
M  V30 23639 C 2164.28 4.83229 -1.19974 0
M  V30 23640 C 2162.98 6.47893 -3.12453 0
M  V30 23641 C 2165 5.49572 -2.18458 0
M  V30 23642 C 2164.37 6.30755 -3.13572 0
M  V30 23643 H 2160.47 0.775933 0.0972204 0
M  V30 23644 H 2163.05 1.91034 -0.376031 0
M  V30 23645 H 2161.22 3.57642 1.51481 0
M  V30 23646 H 2162.95 3.79656 1.40156 0
M  V30 23647 H 2159.71 4.71956 -0.394311 0
M  V30 23648 H 2160.13 6.29617 -2.4882 0
M  V30 23649 H 2164.77 4.20087 -0.478238 0
M  V30 23650 H 2162.49 7.10197 -3.85546 0
M  V30 23651 H 2166.08 5.37812 -2.21922 0
M  V30 23652 H 2164.96 6.81184 -3.88533 0
M  V30 23653 N 2162.46 -0.0166879 1.57591 0
M  V30 23654 C 2163.74 -0.741095 1.81017 0
M  V30 23655 C 2164.12 -1.92907 0.857326 0
M  V30 23656 O 2163.47 -2.28291 -0.0977513 0
M  V30 23657 C 2163.68 -1.16252 3.29069 0
M  V30 23658 C 2165.02 -1.57331 3.94376 0
M  V30 23659 O 2166.05 -1.25676 3.33292 0
M  V30 23660 O 2164.91 -2.16129 5.01947 0
M  V30 23661 H 2162 -0.35941 0.744818 0
M  V30 23662 H 2164.55 0.00748551 1.69698 0
M  V30 23663 H 2163.32 -0.315003 3.9003 0
M  V30 23664 H 2162.94 -1.97072 3.45323 0
M  V30 23665 N 2163.94 -1.54924 -0.289176 0
M  V30 23666 C 2165.35 -1.46402 -0.635496 0
M  V30 23667 C 2165.55 -0.664874 -1.90215 0
M  V30 23668 O 2164.61 -0.17727 -2.51877 0
M  V30 23669 C 2165.92 -2.90475 -0.777494 0
M  V30 23670 C 2167.47 -3.0059 -0.872609 0
M  V30 23671 C 2167.95 -4.45884 -1.04651 0
M  V30 23672 N 2169.44 -4.49643 -1.11243 0
M  V30 23673 C 2170.17 -5.59261 -1.2655 0
M  V30 23674 N 2169.67 -6.78778 -1.38679 0
M  V30 23675 N 2171.46 -5.46972 -1.29532 0
M  V30 23676 H 2163.61 -2.05345 0.542893 0
M  V30 23677 H 2165.88 -0.930495 0.181335 0
M  V30 23678 H 2165.58 -3.51603 0.0825272 0
M  V30 23679 H 2165.46 -3.3857 -1.66284 0
M  V30 23680 H 2167.84 -2.39568 -1.72311 0
M  V30 23681 H 2167.92 -2.55773 0.0370062 0
M  V30 23682 H 2167.57 -5.07503 -0.200734 0
M  V30 23683 H 2167.5 -4.88342 -1.97053 0
M  V30 23684 H 2169.99 -3.63543 -1.03175 0
M  V30 23685 H 2170.3 -7.58074 -1.50147 0
M  V30 23686 H 2168.65 -6.81621 -1.35713 0
M  V30 23687 H 2171.84 -4.52543 -1.19675 0
M  V30 23688 H 2172.01 -6.32448 -1.41117 0
M  V30 23689 N 2165.42 0.552936 -1.47582 0
M  V30 23690 C 2166.36 1.65963 -1.60389 0
M  V30 23691 C 2167.33 1.59979 -0.446754 0
M  V30 23692 O 2168.52 1.78749 -0.667351 0
M  V30 23693 C 2165.66 3.04278 -1.62815 0
M  V30 23694 C 2164.77 3.20668 -2.89476 0
M  V30 23695 C 2163.91 4.49406 -2.8321 0
M  V30 23696 C 2162.95 4.59243 -4.04676 0
M  V30 23697 N 2162.08 5.79341 -3.96621 0
M  V30 23698 H 2166.92 1.54355 -2.54909 0
M  V30 23699 H 2164.46 0.751844 -1.26435 0
M  V30 23700 H 2166.42 3.84377 -1.62204 0
M  V30 23701 H 2165.05 3.14712 -0.718048 0
M  V30 23702 H 2164.1 2.33973 -2.99935 0
M  V30 23703 H 2165.41 3.238 -3.79414 0
M  V30 23704 H 2164.57 5.3777 -2.80872 0
M  V30 23705 H 2163.3 4.4876 -1.90961 0
M  V30 23706 H 2162.31 3.69291 -4.07314 0
M  V30 23707 H 2163.53 4.61645 -4.98057 0
M  V30 23708 H 2161.48 5.79636 -3.07178 0
M  V30 23709 H 2161.4 5.8387 -4.80242 0
M  V30 23710 H 2162.67 6.70054 -3.98306 0
M  V30 23711 N 2166.89 1.35785 0.800009 0
M  V30 23712 C 2168.12 1.32363 1.5863 0
M  V30 23713 C 2168.53 -0.099518 1.88938 0
M  V30 23714 O 2167.88 -1.06381 1.49763 0
M  V30 23715 C 2167.94 2.0694 2.93966 0
M  V30 23716 C 2167.6 3.56091 2.86441 0
M  V30 23717 C 2168.6 4.50553 2.59419 0
M  V30 23718 C 2166.28 3.98831 3.05351 0
M  V30 23719 C 2168.28 5.8573 2.51394 0
M  V30 23720 C 2165.96 5.34102 2.96948 0
M  V30 23721 C 2166.96 6.27364 2.70006 0
M  V30 23722 O 2166.65 7.60153 2.61578 0
M  V30 23723 H 2166.38 0.456006 0.499033 0
M  V30 23724 H 2168.94 1.7932 1.00168 0
M  V30 23725 H 2167.17 1.5463 3.54438 0
M  V30 23726 H 2168.86 1.96511 3.55159 0
M  V30 23727 H 2169.62 4.18848 2.44522 0
M  V30 23728 H 2165.5 3.2662 3.25331 0
M  V30 23729 H 2169.04 6.58494 2.30285 0
M  V30 23730 H 2164.94 5.65418 3.11405 0
M  V30 23731 H 2165.71 7.70154 2.77137 0
M  V30 23732 N 2168.37 -1.02294 1.19891 0
M  V30 23733 C 2169.62 -1.75196 0.999463 0
M  V30 23734 C 2169.93 -1.89874 -0.469823 0
M  V30 23735 O 2171.14 -2.59806 -0.788235 0
M  V30 23736 C 2169.6 -3.15074 1.73944 0
M  V30 23737 C 2169.2 -3.0843 3.24923 0
M  V30 23738 C 2170.95 -3.9223 1.62345 0
M  V30 23739 C 2168.86 -4.43277 3.91484 0
M  V30 23740 H 2167.79 -0.656782 0.370342 0
M  V30 23741 H 2170.44 -1.14434 1.43447 0
M  V30 23742 H 2168.82 -3.76339 1.23227 0
M  V30 23743 H 2169.99 -2.5651 3.82804 0
M  V30 23744 H 2168.31 -2.44769 3.36864 0
M  V30 23745 H 2170.9 -4.91983 2.09419 0
M  V30 23746 H 2171.25 -4.1226 0.578579 0
M  V30 23747 H 2171.78 -3.37579 2.1044 0
M  V30 23748 H 2168.52 -4.28451 4.96095 0
M  V30 23749 H 2168.04 -4.95228 3.38392 0
M  V30 23750 H 2169.72 -5.12142 3.95373 0
M  V30 23751 N 2169.85 -1.00378 -1.21499 0
M  V30 23752 C 2171.1 -0.686796 -1.90817 0
M  V30 23753 C 2171.43 0.780348 -1.77832 0
M  V30 23754 O 2170.7 1.56554 -1.15418 0
M  V30 23755 C 2170.99 -1.10705 -3.42661 0
M  V30 23756 C 2170.84 -2.63355 -3.64642 0
M  V30 23757 C 2172.16 -0.668506 -4.34993 0
M  V30 23758 H 2169.28 -0.250976 -0.69295 0
M  V30 23759 H 2171.92 -1.24924 -1.43157 0
M  V30 23760 H 2170.07 -0.628496 -3.83383 0
M  V30 23761 H 2171.74 -3.18964 -3.33256 0
M  V30 23762 H 2169.99 -3.04925 -3.0855 0
M  V30 23763 H 2170.66 -2.87812 -4.71029 0
M  V30 23764 H 2173.13 -1.07972 -4.01847 0
M  V30 23765 H 2172.01 -0.990733 -5.39885 0
M  V30 23766 H 2172.27 0.430413 -4.4 0
M  V30 23767 N 2171.33 1.37038 -0.778354 0
M  V30 23768 C 2172.26 2.3278 -0.183215 0
M  V30 23769 C 2173.24 1.56107 0.675623 0
M  V30 23770 O 2174.42 1.84314 0.611726 0
M  V30 23771 C 2171.55 3.40346 0.691526 0
M  V30 23772 C 2170.51 4.27948 -0.0665313 0
M  V30 23773 C 2169.83 5.26584 0.928085 0
M  V30 23774 C 2171.13 5.07137 -1.24936 0
M  V30 23775 H 2172.83 2.82801 -0.983049 0
M  V30 23776 H 2170.37 1.35969 -0.474169 0
M  V30 23777 H 2172.33 4.06306 1.11773 0
M  V30 23778 H 2171.05 2.88866 1.52395 0
M  V30 23779 H 2169.71 3.63528 -0.473586 0
M  V30 23780 H 2169.36 4.71381 1.75524 0
M  V30 23781 H 2169.06 5.86058 0.425371 0
M  V30 23782 H 2170.58 5.95419 1.35309 0
M  V30 23783 H 2172 5.662 -0.899476 0
M  V30 23784 H 2170.39 5.7597 -1.68461 0
M  V30 23785 H 2171.46 4.39425 -2.05021 0
M  V30 23786 N 2172.81 0.529439 1.48441 0
M  V30 23787 C 2173.72 -0.237473 2.33395 0
M  V30 23788 C 2174.73 -0.939543 1.46453 0
M  V30 23789 O 2175.91 -0.914623 1.79434 0
M  V30 23790 C 2172.97 -1.27115 3.22556 0
M  V30 23791 C 2172.04 -0.579491 4.25371 0
M  V30 23792 C 2171.27 -1.56392 5.10272 0
M  V30 23793 O 2171.49 -2.79649 4.97144 0
M  V30 23794 O 2170.43 -1.10361 5.91696 0
M  V30 23795 H 2174.25 0.458653 3.00217 0
M  V30 23796 H 2171.84 0.290369 1.46551 0
M  V30 23797 H 2173.72 -1.86853 3.77709 0
M  V30 23798 H 2172.39 -1.94969 2.58396 0
M  V30 23799 H 2171.3 0.0583634 3.74054 0
M  V30 23800 H 2172.63 0.0571021 4.92167 0
M  V30 23801 N 2174.29 -1.55364 0.264547 0
M  V30 23802 C 2175.53 -1.98966 -0.354543 0
M  V30 23803 C 2175.85 -1.15427 -1.57168 0
M  V30 23804 O 2175.12 -0.241233 -1.94409 0
M  V30 23805 H 2173.7 -0.734885 -0.133986 0
M  V30 23806 H 2176.37 -1.91405 0.367431 0
M  V30 23807 H 2175.46 -3.05221 -0.651647 0
M  V30 23808 N 2175.76 0.00833021 -1.57598 0
M  V30 23809 C 2176.99 0.709778 -1.94877 0
M  V30 23810 C 2177.41 1.66973 -0.866121 0
M  V30 23811 O 2176.77 1.80439 0.176468 0
M  V30 23812 C 2176.82 1.42509 -3.31245 0
M  V30 23813 O 2175.92 2.53918 -3.2496 0
M  V30 23814 H 2175.26 0.189418 -0.636409 0
M  V30 23815 H 2177.79 -0.0423784 -2.04556 0
M  V30 23816 H 2177.8 1.79039 -3.66618 0
M  V30 23817 H 2176.48 0.72119 -4.09599 0
M  V30 23818 H 2175.06 2.19778 -3.01251 0
M  V30 23819 N 2177.24 1.55075 0.280956 0
M  V30 23820 C 2178.19 1.87409 1.34709 0
M  V30 23821 C 2179.16 0.72482 1.49451 0
M  V30 23822 O 2180.34 0.975348 1.63987 0
M  V30 23823 C 2177.48 2.14456 2.70375 0
M  V30 23824 C 2176.6 3.42009 2.6392 0
M  V30 23825 C 2175.73 3.58796 3.91713 0
M  V30 23826 C 2174.77 4.8007 3.79736 0
M  V30 23827 N 2173.91 4.93556 4.99346 0
M  V30 23828 H 2178.75 2.78344 1.06435 0
M  V30 23829 H 2176.28 1.37813 0.514379 0
M  V30 23830 H 2178.24 2.28135 3.493 0
M  V30 23831 H 2176.87 1.26764 2.96868 0
M  V30 23832 H 2175.92 3.36844 1.7675 0
M  V30 23833 H 2177.24 4.31065 2.50967 0
M  V30 23834 H 2176.39 3.7225 4.79077 0
M  V30 23835 H 2175.13 2.6791 4.07524 0
M  V30 23836 H 2174.13 4.66628 2.90754 0
M  V30 23837 H 2175.36 5.72383 3.65451 0
M  V30 23838 H 2173.31 4.05599 5.15582 0
M  V30 23839 H 2173.22 5.76645 4.88893 0
M  V30 23840 H 2174.49 5.11387 5.88305 0
M  V30 23841 N 2178.72 -0.545102 1.47873 0
M  V30 23842 C 2179.97 -1.30364 1.55348 0
M  V30 23843 C 2180.3 -1.92948 0.220182 0
M  V30 23844 O 2179.57 -1.78506 -0.772398 0
M  V30 23845 C 2179.86 -2.40454 2.68055 0
M  V30 23846 C 2179.71 -1.8266 4.11042 0
M  V30 23847 C 2181.03 -3.42314 2.76603 0
M  V30 23848 H 2178.15 -0.472628 0.565502 0
M  V30 23849 H 2180.79 -0.608798 1.79982 0
M  V30 23850 H 2178.94 -2.99722 2.47182 0
M  V30 23851 H 2180.61 -1.2756 4.43313 0
M  V30 23852 H 2178.85 -1.1327 4.18751 0
M  V30 23853 H 2179.53 -2.62302 4.85697 0
M  V30 23854 H 2182 -2.92981 2.95468 0
M  V30 23855 H 2180.88 -4.16757 3.57218 0
M  V30 23856 H 2181.14 -4.01923 1.84147 0
M  V30 23857 N 2180.2 -1.36208 -0.792797 0
M  V30 23858 C 2181.13 -1.32936 -1.91964 0
M  V30 23859 C 2182.11 -0.2014 -1.68903 0
M  V30 23860 O 2183.29 -0.39852 -1.90067 0
M  V30 23861 C 2180.42 -1.11449 -3.28932 0
M  V30 23862 C 2179.38 -2.21033 -3.66508 0
M  V30 23863 C 2178.7 -1.84693 -5.01789 0
M  V30 23864 C 2180 -3.63096 -3.75444 0
M  V30 23865 H 2181.7 -2.27226 -1.94958 0
M  V30 23866 H 2179.24 -1.09381 -0.936582 0
M  V30 23867 H 2181.2 -1.07796 -4.07379 0
M  V30 23868 H 2179.92 -0.136086 -3.26316 0
M  V30 23869 H 2178.58 -2.23806 -2.90356 0
M  V30 23870 H 2178.23 -0.854356 -4.95691 0
M  V30 23871 H 2177.93 -2.58059 -5.27901 0
M  V30 23872 H 2179.45 -1.8259 -5.82661 0
M  V30 23873 H 2180.87 -3.62569 -4.44091 0
M  V30 23874 H 2179.26 -4.35339 -4.13037 0
M  V30 23875 H 2180.33 -3.98247 -2.76636 0
M  V30 23876 N 2181.68 1.01656 -1.20431 0
M  V30 23877 C 2182.92 1.74663 -1.00874 0
M  V30 23878 C 2183.24 1.9012 0.459746 0
M  V30 23879 O 2184.44 2.6022 0.774445 0
M  V30 23880 C 2182.9 3.14147 -1.75612 0
M  V30 23881 C 2182.51 3.06703 -3.26554 0
M  V30 23882 C 2184.25 3.91364 -1.64422 0
M  V30 23883 C 2182.16 4.41194 -3.93829 0
M  V30 23884 H 2181.09 0.654809 -0.37382 0
M  V30 23885 H 2183.74 1.13672 -1.44052 0
M  V30 23886 H 2182.12 3.7568 -1.25221 0
M  V30 23887 H 2183.3 2.54477 -3.84159 0
M  V30 23888 H 2181.61 2.42979 -3.38157 0
M  V30 23889 H 2184.21 4.90866 -2.12026 0
M  V30 23890 H 2184.55 4.11947 -0.600434 0
M  V30 23891 H 2185.08 3.36459 -2.12227 0
M  V30 23892 H 2181.82 4.25814 -4.9836 0
M  V30 23893 H 2181.34 4.93427 -3.41013 0
M  V30 23894 H 2183.02 5.10038 -3.98084 0
M  V30 23895 N 2183.15 1.01021 1.20965 0
M  V30 23896 C 2184.38 0.713843 1.93876 0
M  V30 23897 C 2184.79 -0.72842 1.74616 0
M  V30 23898 O 2184.13 -1.50507 1.05324 0
M  V30 23899 C 2184.2 0.961644 3.464 0
M  V30 23900 C 2183.86 2.39177 3.89414 0
M  V30 23901 C 2184.86 3.37226 3.95695 0
M  V30 23902 C 2182.54 2.73081 4.21583 0
M  V30 23903 C 2184.54 4.67245 4.33545 0
M  V30 23904 C 2182.22 4.03314 4.59109 0
M  V30 23905 C 2183.22 5.00207 4.65061 0
M  V30 23906 O 2182.91 6.2811 5.0173 0
M  V30 23907 H 2182.64 0.261872 0.623217 0
M  V30 23908 H 2185.2 1.35251 1.54584 0
M  V30 23909 H 2183.43 0.26581 3.85785 0
M  V30 23910 H 2185.11 0.657859 4.00533 0
M  V30 23911 H 2185.88 3.12369 3.71013 0
M  V30 23912 H 2181.76 1.98355 4.16145 0
M  V30 23913 H 2185.3 5.42871 4.38106 0
M  V30 23914 H 2181.2 4.27954 4.83245 0
M  V30 23915 H 2181.97 6.32304 5.19745 0
M  V30 23916 N 2184.63 -1.36623 0.78561 0
M  V30 23917 C 2185.91 -1.9358 0.280398 0
M  V30 23918 C 2186.29 -1.71791 -1.22683 0
M  V30 23919 O 2185.64 -1.07466 -2.01651 0
M  V30 23920 C 2185.85 -3.4253 0.668878 0
M  V30 23921 C 2187.19 -4.1965 0.646471 0
M  V30 23922 O 2188.22 -3.50953 0.609116 0
M  V30 23923 O 2187.08 -5.42178 0.685949 0
M  V30 23924 H 2184.17 -0.824163 0.0684374 0
M  V30 23925 H 2186.72 -1.45827 0.867897 0
M  V30 23926 H 2185.49 -3.5203 1.70853 0
M  V30 23927 H 2185.11 -3.97562 0.0550603 0
M  V30 23928 N 2186.11 -0.537304 -1.48158 0
M  V30 23929 C 2187.06 0.234747 -2.31412 0
M  V30 23930 C 2188.05 0.928487 -1.41688 0
M  V30 23931 O 2189.26 0.852038 -1.58557 0
M  V30 23932 H 2185.63 0.0945724 -0.74603 0
M  V30 23933 H 2187.6 -0.486905 -2.94401 0
M  V30 23934 C 2186.35 1.26413 -3.23906 0
M  V30 23935 H 2185.68 0.739721 -3.92897 0
M  V30 23936 H 2187.12 1.7756 -3.8503 0
M  V30 23937 C 2185.57 2.3016 -2.46024 0
M  V30 23938 O 2186.1 3.36731 -2.19032 0
M  V30 23939 N 2184.31 2.03565 -2.07388 0
M  V30 23940 H 2183.86 1.16915 -2.2954 0
M  V30 23941 H 2183.82 2.73201 -1.55592 0
M  V30 23942 N 2187.59 1.55221 -0.272782 0
M  V30 23943 C 2188.5 2.26098 0.62584 0
M  V30 23944 C 2189.51 1.28606 1.17203 0
M  V30 23945 O 2190.69 1.61537 1.20281 0
M  V30 23946 C 2187.76 2.96645 1.7945 0
M  V30 23947 C 2186.82 4.0961 1.28522 0
M  V30 23948 C 2186.05 4.76784 2.39819 0
M  V30 23949 O 2186.27 4.43155 3.59124 0
M  V30 23950 O 2185.21 5.64779 2.08107 0
M  V30 23951 H 2189.03 3.03656 0.0517442 0
M  V30 23952 H 2186.62 1.49346 -0.0402752 0
M  V30 23953 H 2188.5 3.40989 2.47597 0
M  V30 23954 H 2187.17 2.22006 2.35573 0
M  V30 23955 H 2186.08 3.69728 0.570286 0
M  V30 23956 H 2187.41 4.86143 0.769772 0
M  V30 23957 N 2189.07 2.77022e-05 1.576 0
M  V30 23958 C 2190.03 -0.976217 2.07371 0
M  V30 23959 C 2191.03 -1.27246 0.983113 0
M  V30 23960 O 2192.22 -1.21764 1.24576 0
M  V30 23961 C 2189.35 -2.30112 2.51518 0
M  V30 23962 H 2190.54 -0.545707 2.94893 0
M  V30 23963 H 2188.1 -0.247444 1.54329 0
M  V30 23964 H 2188.83 -2.77852 1.67239 0
M  V30 23965 H 2188.62 -2.09931 3.31167 0
M  V30 23966 H 2190.11 -3.00144 2.9035 0
M  V30 23967 N 2190.54 -1.55222 -0.272728 0
M  V30 23968 C 2191.96 -1.47068 -0.619933 0
M  V30 23969 C 2192.16 -0.685012 -1.89499 0
M  V30 23970 O 2191.22 -0.203975 -2.51675 0
M  V30 23971 C 2192.53 -2.91283 -0.746642 0
M  V30 23972 C 2194.08 -3.01499 -0.840678 0
M  V30 23973 C 2194.55 -4.46968 -0.999161 0
M  V30 23974 N 2196.04 -4.50798 -1.06468 0
M  V30 23975 C 2196.78 -5.60572 -1.20611 0
M  V30 23976 N 2196.27 -6.80211 -1.31471 0
M  V30 23977 N 2198.07 -5.48315 -1.23723 0
M  V30 23978 H 2190.22 -2.04757 0.564642 0
M  V30 23979 H 2192.48 -0.92852 0.191194 0
M  V30 23980 H 2192.19 -3.51496 0.119815 0
M  V30 23981 H 2192.06 -3.40314 -1.62684 0
M  V30 23982 H 2194.45 -2.41382 -1.6976 0
M  V30 23983 H 2194.53 -2.5572 0.0641323 0
M  V30 23984 H 2194.17 -5.07688 -0.146895 0
M  V30 23985 H 2194.1 -4.90404 -1.91862 0
M  V30 23986 H 2196.59 -3.64617 -0.993132 0
M  V30 23987 H 2196.91 -7.59624 -1.42098 0
M  V30 23988 H 2195.25 -6.83022 -1.28475 0
M  V30 23989 H 2198.44 -4.53787 -1.14869 0
M  V30 23990 H 2198.62 -6.33909 -1.34401 0
M  V30 23991 N 2192.02 0.537252 -1.4816 0
M  V30 23992 C 2192.93 1.66957 -1.6481 0
M  V30 23993 C 2193.95 1.6571 -0.53068 0
M  V30 23994 O 2195.12 1.84794 -0.800816 0
M  V30 23995 C 2192.19 3.03435 -1.67714 0
M  V30 23996 C 2191.25 3.15595 -2.9103 0
M  V30 23997 C 2190.48 4.45562 -2.93786 0
M  V30 23998 O 2190.71 5.32226 -2.05162 0
M  V30 23999 O 2189.64 4.61934 -3.85876 0
M  V30 24000 H 2193.47 1.55849 -2.60662 0
M  V30 24001 H 2191.05 0.709526 -1.31477 0
M  V30 24002 H 2192.93 3.84616 -1.72187 0
M  V30 24003 H 2191.61 3.14884 -0.750333 0
M  V30 24004 H 2190.52 2.33736 -2.92093 0
M  V30 24005 H 2191.85 3.09059 -3.83071 0
M  V30 24006 N 2193.5 1.36626 0.785562 0
M  V30 24007 C 2194.46 1.3111 1.87997 0
M  V30 24008 C 2195.46 0.217987 1.59316 0
M  V30 24009 O 2196.65 0.473006 1.67655 0
M  V30 24010 C 2193.79 1.03339 3.2486 0
M  V30 24011 H 2194.98 2.28444 1.94303 0
M  V30 24012 H 2192.53 1.21455 0.983792 0
M  V30 24013 H 2193.27 0.0648002 3.24235 0
M  V30 24014 H 2193.05 1.82447 3.47067 0
M  V30 24015 H 2194.54 1.02095 4.04928 0
M  V30 24016 N 2194.98 -1.01016 1.20969 0
M  V30 24017 C 2196.23 -1.74369 1.02175 0
M  V30 24018 C 2196.55 -1.89822 -0.44638 0
M  V30 24019 O 2195.82 -1.44539 -1.32232 0
M  V30 24020 H 2194.4 -0.646008 0.375078 0
M  V30 24021 H 2197.06 -1.21756 1.52189 0
M  V30 24022 H 2196.16 -2.74484 1.48543 0
M  V30 24023 N 2196.46 -1.01661 -1.20428 0
M  V30 24024 C 2197.39 -0.545027 -2.22625 0
M  V30 24025 C 2198.4 0.372581 -1.58479 0
M  V30 24026 O 2199.59 0.170927 -1.7768 0
M  V30 24027 C 2196.69 0.22657 -3.38142 0
M  V30 24028 C 2195.86 -0.692952 -4.31876 0
M  V30 24029 C 2194.92 0.0310691 -5.26191 0
M  V30 24030 O 2193.95 -0.591442 -5.66119 0
M  V30 24031 N 2195.15 1.30591 -5.6562 0
M  V30 24032 H 2197.92 -1.42392 -2.63713 0
M  V30 24033 H 2195.48 -0.89414 -1.34969 0
M  V30 24034 H 2197.47 0.72017 -3.98241 0
M  V30 24035 H 2196.04 1.00676 -2.95944 0
M  V30 24036 H 2195.26 -1.36686 -3.69744 0
M  V30 24037 H 2196.55 -1.31833 -4.91424 0
M  V30 24038 H 2195.94 1.8326 -5.35194 0
M  V30 24039 H 2194.5 1.74424 -6.28028 0
M  V30 24040 N 2197.93 1.36205 -0.792844 0
M  V30 24041 C 2199.35 1.5237 -0.47493 0
M  V30 24042 C 2199.55 1.7458 1.00619 0
M  V30 24043 O 2198.61 1.77927 1.79159 0
M  V30 24044 C 2199.92 2.70745 -1.30835 0
M  V30 24045 C 2201.47 2.84617 -1.30239 0
M  V30 24046 C 2201.94 4.06 -2.11963 0
M  V30 24047 N 2203.43 4.13152 -2.09427 0
M  V30 24048 C 2204.17 5.06158 -2.69428 0
M  V30 24049 N 2203.66 6.04586 -3.38301 0
M  V30 24050 N 2205.46 4.988 -2.59143 0
M  V30 24051 H 2197.61 1.20043 -1.75224 0
M  V30 24052 H 2199.87 0.586198 -0.745034 0
M  V30 24053 H 2199.58 2.60866 -2.35885 0
M  V30 24054 H 2199.45 3.64988 -0.952024 0
M  V30 24055 H 2201.84 2.93954 -0.259799 0
M  V30 24056 H 2201.92 1.91271 -1.6985 0
M  V30 24057 H 2201.56 3.97423 -3.16255 0
M  V30 24058 H 2201.49 4.985 -1.6972 0
M  V30 24059 H 2203.98 3.42682 -1.59303 0
M  V30 24060 H 2204.3 6.72123 -3.81405 0
M  V30 24061 H 2202.64 6.04801 -3.42404 0
M  V30 24062 H 2205.83 4.20855 -2.04935 0
M  V30 24063 H 2206.01 5.71094 -3.06195 0
M  V30 24064 N 2199.41 0.545154 1.47871 0
M  V30 24065 C 2200.82 0.108613 1.86384 0
M  V30 24066 C 2201.17 -1.3183 1.45311 0
M  V30 24067 O 2200.3 -1.98979 0.850676 0
M  V30 24068 C 2200.89 0.190333 3.38265 0
M  V30 24069 C 2199.45 -0.191098 3.75915 0
M  V30 24070 C 2198.6 0.543321 2.71925 0
M  V30 24071 H 2201.55 0.755562 1.3956 0
M  V30 24072 H 2201.57 -0.594151 3.75833 0
M  V30 24073 H 2201.08 1.22896 3.68128 0
M  V30 24074 H 2199.19 -1.2313 3.51667 0
M  V30 24075 H 2199.3 0.159071 4.78836 0
M  V30 24076 H 2197.66 -0.0122047 2.54697 0
M  V30 24077 H 2198.45 1.58288 3.04631 0
M  V30 24078 N 2200.89 -1.55074 0.28101 0
M  V30 24079 C 2202.14 -2.00021 -0.334575 0
M  V30 24080 C 2202.47 -1.16917 -1.55061 0
M  V30 24081 O 2201.74 -0.24068 -1.93005 0
M  V30 24082 C 2202.03 -3.53012 -0.710945 0
M  V30 24083 C 2201.88 -4.46867 0.512844 0
M  V30 24084 C 2203.2 -4.12084 -1.54515 0
M  V30 24085 H 2200.32 -0.727143 -0.120135 0
M  V30 24086 H 2202.96 -1.85973 0.38913 0
M  V30 24087 H 2201.11 -3.65114 -1.32754 0
M  V30 24088 H 2202.78 -4.467 1.15139 0
M  V30 24089 H 2201.03 -4.18284 1.14982 0
M  V30 24090 H 2201.7 -5.51617 0.205653 0
M  V30 24091 H 2204.17 -4.03294 -1.02435 0
M  V30 24092 H 2203.05 -5.1933 -1.7773 0
M  V30 24093 H 2203.31 -3.62686 -2.52806 0
M  V30 24094 N 2202.37 -0.00838561 -1.57598 0
M  V30 24095 C 2203.28 0.99645 -2.12387 0
M  V30 24096 C 2204.3 1.37125 -1.0711 0
M  V30 24097 O 2205.47 1.45688 -1.39058 0
M  V30 24098 C 2202.54 2.26694 -2.62318 0
M  V30 24099 C 2201.6 1.95449 -3.82228 0
M  V30 24100 C 2200.83 3.16441 -4.29768 0
M  V30 24101 O 2201.05 4.2841 -3.76592 0
M  V30 24102 O 2199.99 2.99949 -5.21837 0
M  V30 24103 H 2203.81 0.560673 -2.9848 0
M  V30 24104 H 2201.4 0.210961 -1.47903 0
M  V30 24105 H 2203.28 3.01317 -2.94594 0
M  V30 24106 H 2201.96 2.69494 -1.79318 0
M  V30 24107 H 2200.86 1.18275 -3.54911 0
M  V30 24108 H 2202.2 1.57481 -4.66327 0
M  V30 24109 N 2203.85 1.55365 0.264492 0
M  V30 24110 C 2204.76 1.91936 1.34899 0
M  V30 24111 C 2205.77 0.81762 1.53594 0
M  V30 24112 O 2206.95 1.11745 1.67556 0
M  V30 24113 C 2204.01 2.19126 2.68672 0
M  V30 24114 C 2203.08 3.42634 2.58651 0
M  V30 24115 C 2202.31 3.68517 3.86045 0
M  V30 24116 O 2202.53 2.96765 4.87121 0
M  V30 24117 O 2201.47 4.62051 3.85736 0
M  V30 24118 H 2205.29 2.84272 1.06878 0
M  V30 24119 H 2202.88 1.4202 0.46375 0
M  V30 24120 H 2204.76 2.38001 3.47755 0
M  V30 24121 H 2203.43 1.29971 2.96461 0
M  V30 24122 H 2202.34 3.29086 1.77914 0
M  V30 24123 H 2203.67 4.32035 2.3581 0
M  V30 24124 N 2205.33 -0.529387 1.48443 0
M  V30 24125 C 2206.57 -1.28518 1.56491 0
M  V30 24126 C 2206.9 -1.93025 0.239076 0
M  V30 24127 O 2206.16 -1.79886 -0.770681 0
M  V30 24128 C 2206.45 -2.39553 2.65234 0
M  V30 24129 C 2206.12 -1.92695 4.07651 0
M  V30 24130 C 2204.78 -1.79633 4.46414 0
M  V30 24131 C 2207.13 -1.57291 4.96899 0
M  V30 24132 C 2204.46 -1.29504 5.72229 0
M  V30 24133 C 2206.81 -1.08625 6.23204 0
M  V30 24134 C 2205.48 -0.941803 6.60822 0
M  V30 24135 H 2204.75 -0.470282 0.572639 0
M  V30 24136 H 2207.4 -0.590688 1.82162 0
M  V30 24137 H 2205.7 -3.14675 2.33425 0
M  V30 24138 H 2207.4 -2.97681 2.68676 0
M  V30 24139 H 2203.99 -2.03812 3.77039 0
M  V30 24140 H 2208.17 -1.66242 4.67629 0
M  V30 24141 H 2203.43 -1.17009 6.00099 0
M  V30 24142 H 2207.6 -0.803015 6.91755 0
M  V30 24143 H 2205.23 -0.551167 7.58199 0
M  V30 24144 N 2206.8 -1.37041 -0.778305 0
M  V30 24145 C 2207.71 -1.3445 -1.92251 0
M  V30 24146 C 2208.73 -0.245021 -1.72266 0
M  V30 24147 O 2209.91 -0.479293 -1.95614 0
M  V30 24148 C 2206.97 -1.14405 -3.2728 0
M  V30 24149 C 2206.03 -2.33931 -3.59965 0
M  V30 24150 C 2205.26 -2.14834 -4.88551 0
M  V30 24151 O 2205.49 -1.12922 -5.59111 0
M  V30 24152 O 2204.42 -3.0287 -5.20147 0
M  V30 24153 H 2208.25 -2.30807 -1.97388 0
M  V30 24154 H 2205.83 -1.17703 -0.920134 0
M  V30 24155 H 2207.71 -1.05189 -4.0806 0
M  V30 24156 H 2206.39 -0.211181 -3.2301 0
M  V30 24157 H 2205.3 -2.48718 -2.79446 0
M  V30 24158 H 2206.63 -3.25763 -3.6897 0
M  V30 24159 N 2208.28 1.00373 -1.21503 0
M  V30 24160 C 2209.21 2.11026 -0.999515 0
M  V30 24161 C 2210.19 1.6993 0.0759372 0
M  V30 24162 O 2211.38 1.94018 -0.0841447 0
M  V30 24163 C 2208.51 3.42677 -0.564769 0
M  V30 24164 C 2207.46 3.97573 -1.58493 0
M  V30 24165 C 2206.79 5.25144 -1.00638 0
M  V30 24166 C 2208.09 4.29491 -2.97212 0
M  V30 24167 H 2209.78 2.29313 -1.92499 0
M  V30 24168 H 2207.33 1.10198 -0.926949 0
M  V30 24169 H 2209.28 4.19486 -0.401165 0
M  V30 24170 H 2208 3.24186 0.396354 0
M  V30 24171 H 2206.66 3.22885 -1.73612 0
M  V30 24172 H 2206.31 5.02986 -0.0369323 0
M  V30 24173 H 2206.01 5.62838 -1.68781 0
M  V30 24174 H 2207.54 6.04597 -0.854121 0
M  V30 24175 H 2208.95 4.97138 -2.85529 0
M  V30 24176 H 2207.35 4.78331 -3.6238 0
M  V30 24177 H 2208.42 3.37714 -3.47962 0
M  V30 24178 N 2209.76 1.02298 1.19887 0
M  V30 24179 C 2211 0.724635 1.91124 0
M  V30 24180 C 2211.36 -0.732804 1.77465 0
M  V30 24181 O 2212.56 -1.14396 2.43243 0
M  V30 24182 C 2210.84 1.1561 3.38185 0
M  V30 24183 S 2212.39 0.980696 4.27701 0
M  V30 24184 H 2209.21 0.263988 0.660175 0
M  V30 24185 H 2211.81 1.31158 1.44976 0
M  V30 24186 H 2210.52 2.21257 3.45649 0
M  V30 24187 H 2210.05 0.562199 3.89362 0
M  V30 24188 H 2212.06 -0.112138 4.96073 0
M  V30 24189 N 2211.24 -1.35782 0.800057 0
M  V30 24190 C 2212.17 -2.32459 0.220225 0
M  V30 24191 C 2213.15 -1.57162 -0.650702 0
M  V30 24192 O 2214.33 -1.85264 -0.582326 0
M  V30 24193 C 2211.46 -3.41403 -0.637293 0
M  V30 24194 C 2210.42 -4.27788 0.134606 0
M  V30 24195 C 2209.74 -5.27994 -0.844192 0
M  V30 24196 C 2211.04 -5.05086 1.32988 0
M  V30 24197 H 2212.74 -2.81201 1.02792 0
M  V30 24198 H 2210.28 -1.35198 0.495741 0
M  V30 24199 H 2212.24 -4.08033 -1.05295 0
M  V30 24200 H 2210.96 -2.91253 -1.4778 0
M  V30 24201 H 2209.62 -3.62729 0.53136 0
M  V30 24202 H 2209.27 -4.74114 -1.68002 0
M  V30 24203 H 2208.97 -5.86661 -0.332081 0
M  V30 24204 H 2210.49 -5.97496 -1.25819 0
M  V30 24205 H 2211.91 -5.64697 0.989439 0
M  V30 24206 H 2210.3 -5.73217 1.77603 0
M  V30 24207 H 2211.37 -4.36108 2.11986 0
M  V30 24208 N 2212.72 -0.552988 -1.4758 0
M  V30 24209 C 2214.13 -0.118496 -1.86324 0
M  V30 24210 C 2214.48 1.31057 -1.46008 0
M  V30 24211 O 2213.6 1.98525 -0.861217 0
M  V30 24212 C 2214.2 -0.208269 -3.38159 0
M  V30 24213 C 2212.76 0.17116 -3.76011 0
M  V30 24214 C 2211.9 -0.557734 -2.71633 0
M  V30 24215 H 2214.85 -0.762953 -1.39157 0
M  V30 24216 H 2214.88 0.574212 -3.76142 0
M  V30 24217 H 2214.39 -1.24847 -3.67471 0
M  V30 24218 H 2212.49 1.21263 -3.52315 0
M  V30 24219 H 2212.6 -0.184463 -4.78745 0
M  V30 24220 H 2210.97 -0.00130269 -2.547 0
M  V30 24221 H 2211.75 -1.59901 -3.03787 0
M  V30 24222 N 2214.19 1.54923 -0.28923 0
M  V30 24223 C 2215.47 1.91952 0.375998 0
M  V30 24224 C 2215.85 1.21514 1.7262 0
M  V30 24225 O 2215.2 0.346807 2.25853 0
M  V30 24226 C 2215.41 3.45366 0.502318 0
M  V30 24227 C 2216.76 4.17399 0.778667 0
M  V30 24228 O 2217.78 3.51337 0.586585 0
M  V30 24229 O 2216.64 5.3433 1.14689 0
M  V30 24230 H 2213.73 0.800376 0.208153 0
M  V30 24231 H 2216.28 1.66332 -0.336423 0
M  V30 24232 H 2215.05 3.88735 -0.447324 0
M  V30 24233 H 2214.67 3.76985 1.26366 0
M  V30 24234 N 2215.67 0.0167433 1.57591 0
M  V30 24235 C 2216.92 -0.663251 1.90907 0
M  V30 24236 C 2217.24 -1.73375 0.892539 0
M  V30 24237 O 2216.51 -1.95783 -0.0677279 0
M  V30 24238 H 2215.09 -0.247971 0.704641 0
M  V30 24239 H 2217.75 0.0616251 1.94803 0
M  V30 24240 H 2216.85 -1.12387 2.91162 0
M  V30 24241 N 2217.15 -1.55503 -0.256249 0
M  V30 24242 C 2218.43 -1.67635 -1.00786 0
M  V30 24243 C 2218.81 -0.553862 -2.03705 0
M  V30 24244 O 2218.16 0.443929 -2.24146 0
M  V30 24245 C 2218.37 -3.07552 -1.64962 0
M  V30 24246 C 2219.71 -3.65849 -2.15499 0
M  V30 24247 O 2220.74 -3.10293 -1.7492 0
M  V30 24248 O 2219.6 -4.63222 -2.89978 0
M  V30 24249 H 2216.69 -0.681468 -0.468541 0
M  V30 24250 H 2219.24 -1.67837 -0.250776 0
M  V30 24251 H 2218.01 -3.80697 -0.904718 0
M  V30 24252 H 2217.63 -3.11321 -2.47315 0
M  V30 24253 N 2218.63 0.521507 -1.48721 0
M  V30 24254 C 2219.87 1.27876 -1.57403 0
M  V30 24255 C 2220.21 1.92573 -0.25085 0
M  V30 24256 O 2219.48 1.79712 0.743902 0
M  V30 24257 C 2219.77 2.36159 -2.71847 0
M  V30 24258 C 2219.62 1.76098 -4.13896 0
M  V30 24259 C 2220.94 3.3787 -2.82014 0
M  V30 24260 H 2218.06 0.463571 -0.572949 0
M  V30 24261 H 2220.7 0.580088 -1.80928 0
M  V30 24262 H 2218.85 2.95752 -2.51919 0
M  V30 24263 H 2220.52 1.20491 -4.45286 0
M  V30 24264 H 2218.76 1.06594 -4.205 0
M  V30 24265 H 2219.43 2.54541 -4.89809 0
M  V30 24266 H 2221.91 2.88244 -3.00091 0
M  V30 24267 H 2220.79 4.11021 -3.63803 0
M  V30 24268 H 2221.05 3.98943 -1.90518 0
M  V30 24269 N 2220.11 1.37452 0.771027 0
M  V30 24270 C 2221.33 1.36067 1.56526 0
M  V30 24271 C 2221.76 -0.0515528 1.88029 0
M  V30 24272 O 2221.11 -1.02879 1.49283 0
M  V30 24273 C 2221.16 2.20688 2.85183 0
M  V30 24274 O 2220.27 1.612 3.7959 0
M  V30 24275 H 2219.61 0.464891 0.474102 0
M  V30 24276 H 2222.14 1.80985 0.954237 0
M  V30 24277 H 2222.15 2.33927 3.34279 0
M  V30 24278 H 2220.82 3.23338 2.61582 0
M  V30 24279 H 2219.4 1.57005 3.38236 0
M  V30 24280 N 2221.58 -0.997276 1.22033 0
M  V30 24281 C 2222.83 -1.73037 1.0364 0
M  V30 24282 C 2223.15 -1.90828 -0.429442 0
M  V30 24283 O 2224.35 -2.61419 -0.732949 0
M  V30 24284 C 2222.81 -3.11314 1.80588 0
M  V30 24285 C 2222.42 -3.01469 3.31392 0
M  V30 24286 C 2224.16 -3.88698 1.70628 0
M  V30 24287 C 2222.07 -4.34873 4.00798 0
M  V30 24288 H 2221 -0.648779 0.38419 0
M  V30 24289 H 2223.65 -1.11366 1.45842 0
M  V30 24290 H 2222.03 -3.73641 1.31182 0
M  V30 24291 H 2223.2 -2.48333 3.88159 0
M  V30 24292 H 2221.52 -2.37569 3.4198 0
M  V30 24293 H 2224.12 -4.87431 2.19808 0
M  V30 24294 H 2224.46 -4.1094 0.665895 0
M  V30 24295 H 2224.99 -3.3304 2.17553 0
M  V30 24296 H 2221.73 -4.17832 5.05071 0
M  V30 24297 H 2221.25 -4.87939 3.4882 0
M  V30 24298 H 2222.93 -5.0364 4.06147 0
M  V30 24299 N 2223.06 -1.02932 -1.19343 0
M  V30 24300 C 2224.01 -0.581079 -2.20471 0
M  V30 24301 C 2225 0.370415 -1.56578 0
M  V30 24302 O 2226.19 0.191313 -1.75963 0
M  V30 24303 C 2223.32 0.0662457 -3.43236 0
M  V30 24304 C 2222.4 -0.907715 -4.14272 0
M  V30 24305 N 2222.79 -2.07031 -4.61489 0
M  V30 24306 C 2221.09 -0.731255 -4.39964 0
M  V30 24307 C 2221.79 -2.68463 -5.16045 0
M  V30 24308 N 2220.77 -1.96423 -5.06872 0
M  V30 24309 H 2224.57 -1.46722 -2.54657 0
M  V30 24310 H 2222.09 -0.896368 -1.35422 0
M  V30 24311 H 2224.08 0.404995 -4.14928 0
M  V30 24312 H 2222.74 0.948064 -3.10551 0
M  V30 24313 H 2223.75 -2.44971 -4.563 0
M  V30 24314 H 2220.43 0.101434 -4.17377 0
M  V30 24315 H 2221.82 -3.66925 -5.62864 0
M  V30 24316 N 2224.54 1.35356 -0.807246 0
M  V30 24317 C 2225.79 1.98357 -0.387157 0
M  V30 24318 C 2226.11 1.64355 1.04939 0
M  V30 24319 O 2225.38 0.926369 1.72613 0
M  V30 24320 H 2223.96 0.733732 -0.140167 0
M  V30 24321 H 2226.62 1.65258 -1.03323 0
M  V30 24322 H 2225.72 3.08175 -0.493406 0
M  V30 24323 N 2226.02 0.560807 1.47284 0
M  V30 24324 C 2226.98 -0.174448 2.28535 0
M  V30 24325 C 2227.98 -0.839364 1.37154 0
M  V30 24326 O 2229.17 -0.694673 1.5975 0
M  V30 24327 C 2226.3 -1.25555 3.16936 0
M  V30 24328 H 2227.5 0.539313 2.95011 0
M  V30 24329 H 2225.05 0.317892 1.53033 0
M  V30 24330 H 2225.78 -2.0016 2.5516 0
M  V30 24331 H 2225.57 -0.783537 3.84192 0
M  V30 24332 H 2227.06 -1.77186 3.78146 0
M  V30 24333 N 2227.5 -1.54768 0.297442 0
M  V30 24334 C 2228.74 -2.00365 -0.313341 0
M  V30 24335 C 2229.08 -1.18555 -1.53812 0
M  V30 24336 O 2228.35 -0.261137 -1.92739 0
M  V30 24337 C 2228.63 -3.53746 -0.673463 0
M  V30 24338 C 2228.49 -4.46298 0.560211 0
M  V30 24339 C 2229.81 -4.137 -1.50136 0
M  V30 24340 H 2226.92 -0.728376 -0.112415 0
M  V30 24341 H 2229.57 -1.85549 0.408833 0
M  V30 24342 H 2227.72 -3.66502 -1.28874 0
M  V30 24343 H 2229.39 -4.45453 1.19871 0
M  V30 24344 H 2227.63 -4.17041 1.19412 0
M  V30 24345 H 2228.3 -5.51368 0.264147 0
M  V30 24346 H 2230.78 -4.04358 -0.981517 0
M  V30 24347 H 2229.65 -5.21186 -1.72212 0
M  V30 24348 H 2229.92 -3.65347 -2.48945 0
M  V30 24349 N 2228.97 -0.0251005 -1.5758 0
M  V30 24350 C 2230.22 0.653118 -1.91256 0
M  V30 24351 C 2230.54 1.72899 -0.901721 0
M  V30 24352 O 2229.81 1.95816 0.0573441 0
M  V30 24353 H 2228.39 0.24423 -0.705947 0
M  V30 24354 H 2231.06 -0.0719551 -1.94767 0
M  V30 24355 H 2230.15 1.10842 -2.91754 0
M  V30 24356 N 2230.45 1.55637 0.247999 0
M  V30 24357 C 2231.42 1.89423 1.29041 0
M  V30 24358 C 2232.42 0.770606 1.41132 0
M  V30 24359 O 2233.61 1.03861 1.39852 0
M  V30 24360 C 2230.74 2.12169 2.66828 0
M  V30 24361 H 2231.93 2.8263 1.003 0
M  V30 24362 H 2229.48 1.48512 0.487239 0
M  V30 24363 H 2230.22 1.21427 3.00709 0
M  V30 24364 H 2230 2.94002 2.59433 0
M  V30 24365 H 2231.49 2.39496 3.42098 0
M  V30 24366 N 2231.93 -0.513613 1.48996 0
M  V30 24367 C 2233.16 -1.29759 1.61794 0
M  V30 24368 C 2233.58 -1.85936 0.284508 0
M  V30 24369 O 2232.94 -1.65234 -0.746156 0
M  V30 24370 C 2232.99 -2.41268 2.67997 0
M  V30 24371 O 2232.09 -3.44768 2.26294 0
M  V30 24372 H 2231.43 -0.383621 0.54197 0
M  V30 24373 H 2233.96 -0.616273 1.95098 0
M  V30 24374 H 2233.97 -2.87216 2.89777 0
M  V30 24375 H 2232.65 -1.99743 3.64795 0
M  V30 24376 H 2231.22 -3.04825 2.14793 0
M  V30 24377 N 2233.41 -1.37859 -0.763727 0
M  V30 24378 C 2234.32 -1.36481 -1.90814 0
M  V30 24379 C 2235.34 -0.263278 -1.71997 0
M  V30 24380 O 2236.51 -0.500013 -1.95094 0
M  V30 24381 C 2233.58 -1.1787 -3.26048 0
M  V30 24382 C 2232.64 -2.37736 -3.57463 0
M  V30 24383 C 2231.87 -2.20003 -4.86245 0
M  V30 24384 O 2232.09 -1.18846 -5.57882 0
M  V30 24385 O 2231.03 -3.0837 -5.16906 0
M  V30 24386 H 2234.85 -2.32887 -1.94929 0
M  V30 24387 H 2232.44 -1.18672 -0.907598 0
M  V30 24388 H 2234.32 -1.09511 -4.06922 0
M  V30 24389 H 2233 -0.245429 -3.22768 0
M  V30 24390 H 2231.9 -2.51668 -2.76792 0
M  V30 24391 H 2233.24 -3.29658 -3.65494 0
M  V30 24392 N 2234.89 0.990791 -1.22561 0
M  V30 24393 C 2235.82 2.09954 -1.02184 0
M  V30 24394 C 2236.8 1.70001 0.0579095 0
M  V30 24395 O 2237.98 1.93917 -0.104718 0
M  V30 24396 C 2235.11 3.42059 -0.601083 0
M  V30 24397 C 2234.07 3.95869 -1.627 0
M  V30 24398 C 2233.39 5.24047 -1.06202 0
M  V30 24399 C 2234.69 4.26315 -3.0175 0
M  V30 24400 H 2236.39 2.27259 -1.9492 0
M  V30 24401 H 2233.93 1.09209 -0.938585 0
M  V30 24402 H 2235.89 4.19037 -0.445634 0
M  V30 24403 H 2234.61 3.24588 0.361948 0
M  V30 24404 H 2233.27 3.21025 -1.77027 0
M  V30 24405 H 2232.92 5.02919 -0.0902787 0
M  V30 24406 H 2232.62 5.61016 -1.74741 0
M  V30 24407 H 2234.14 6.03657 -0.918198 0
M  V30 24408 H 2235.56 4.94081 -2.90786 0
M  V30 24409 H 2233.95 4.74461 -3.67433 0
M  V30 24410 H 2235.02 3.34004 -3.51524 0
M  V30 24411 N 2236.37 1.03564 1.18795 0
M  V30 24412 C 2237.33 0.626808 2.20463 0
M  V30 24413 C 2238.33 -0.313146 1.57721 0
M  V30 24414 O 2239.52 -0.099231 1.73917 0
M  V30 24415 C 2236.65 -0.0817899 3.40802 0
M  V30 24416 H 2237.84 1.52645 2.58147 0
M  V30 24417 H 2235.4 0.827601 1.32591 0
M  V30 24418 H 2236.13 -0.995464 3.08644 0
M  V30 24419 H 2235.92 0.59372 3.87579 0
M  V30 24420 H 2237.41 -0.35451 4.16093 0
M  V30 24421 N 2237.84 -1.34926 0.814413 0
M  V30 24422 C 2238.79 -2.31572 0.218465 0
M  V30 24423 C 2239.79 -1.57004 -0.6361 0
M  V30 24424 O 2240.99 -1.7207 -0.52839 0
M  V30 24425 H 2237.37 -0.750207 0.0518931 0
M  V30 24426 H 2239.34 -2.7937 1.04857 0
M  V30 24427 C 2238.09 -3.42271 -0.612009 0
M  V30 24428 H 2237.41 -3.99784 0.0362281 0
M  V30 24429 H 2238.85 -4.12154 -0.995245 0
M  V30 24430 C 2237.31 -2.85987 -1.78082 0
M  V30 24431 O 2237.84 -2.80173 -2.87865 0
M  V30 24432 N 2236.04 -2.42927 -1.59484 0
M  V30 24433 H 2235.59 -2.47855 -0.701831 0
M  V30 24434 H 2235.55 -2.05617 -2.37842 0
M  V30 24435 N 2239.32 -0.56861 -1.46985 0
M  V30 24436 C 2240.55 -0.054032 -2.06829 0
M  V30 24437 C 2240.96 1.24475 -1.41956 0
M  V30 24438 O 2240.32 1.74936 -0.519964 0
M  V30 24439 C 2240.37 0.133298 -3.61254 0
M  V30 24440 O 2240.09 -1.11406 -4.23698 0
M  V30 24441 C 2241.59 0.68385 -4.37994 0
M  V30 24442 H 2238.81 -0.0510259 -0.669057 0
M  V30 24443 H 2241.36 -0.785268 -1.88822 0
M  V30 24444 H 2239.51 0.814703 -3.78737 0
M  V30 24445 H 2239.93 -0.918971 -5.16387 0
M  V30 24446 H 2241.4 0.764167 -5.46685 0
M  V30 24447 H 2241.88 1.6977 -4.05061 0
M  V30 24448 H 2242.48 0.0377747 -4.25283 0
M  V30 24449 N 2240.8 1.54608 -0.305646 0
M  V30 24450 C 2241.76 2.22365 0.555551 0
M  V30 24451 C 2242.76 1.21121 1.05766 0
M  V30 24452 O 2243.95 1.45824 0.952946 0
M  V30 24453 C 2241.08 2.91367 1.76969 0
M  V30 24454 H 2242.28 2.99878 -0.0365099 0
M  V30 24455 H 2239.83 1.56198 -0.0565281 0
M  V30 24456 H 2240.57 2.17945 2.40147 0
M  V30 24457 H 2240.35 3.6559 1.41726 0
M  V30 24458 H 2241.84 3.43043 2.38142 0
M  V30 24459 N 2242.28 0.033457 1.57564 0
M  V30 24460 C 2243.22 -0.946944 2.10479 0
M  V30 24461 C 2244.19 -1.32025 1.00789 0
M  V30 24462 O 2245.38 -1.41282 1.28235 0
M  V30 24463 C 2242.52 -2.22259 2.63998 0
M  V30 24464 C 2241.63 -1.90534 3.87712 0
M  V30 24465 C 2240.77 -3.12425 4.29609 0
M  V30 24466 C 2239.81 -2.7654 5.4607 0
M  V30 24467 N 2238.94 -3.9107 5.83103 0
M  V30 24468 H 2243.78 -0.488794 2.93964 0
M  V30 24469 H 2241.32 -0.229664 1.45296 0
M  V30 24470 H 2243.28 -2.96878 2.93119 0
M  V30 24471 H 2241.91 -2.65682 1.83338 0
M  V30 24472 H 2240.96 -1.06138 3.65293 0
M  V30 24473 H 2242.27 -1.60107 4.72406 0
M  V30 24474 H 2241.43 -3.95361 4.60189 0
M  V30 24475 H 2240.17 -3.46017 3.43691 0
M  V30 24476 H 2239.17 -1.92017 5.15179 0
M  V30 24477 H 2240.4 -2.4416 6.3369 0
M  V30 24478 H 2238.34 -4.24495 5.0014 0
M  V30 24479 H 2238.26 -3.64282 6.62446 0
M  V30 24480 H 2239.53 -4.74697 6.1829 0
M  V30 24481 N 2243.76 -1.55766 -0.239741 0
M  V30 24482 C 2244.72 -1.90105 -1.28034 0
M  V30 24483 C 2245.72 -0.77808 -1.40722 0
M  V30 24484 O 2246.91 -1.04601 -1.39299 0
M  V30 24485 C 2244.04 -2.13581 -2.65699 0
M  V30 24486 H 2245.23 -2.83158 -0.987998 0
M  V30 24487 H 2242.79 -1.48768 -0.479356 0
M  V30 24488 H 2243.52 -1.2302 -3.00061 0
M  V30 24489 H 2243.31 -2.95374 -2.5787 0
M  V30 24490 H 2244.8 -2.41307 -3.40823 0
M  V30 24491 N 2245.23 0.505704 -1.49266 0
M  V30 24492 C 2246.51 1.26704 -1.49015 0
M  V30 24493 C 2246.89 2.1 -0.215242 0
M  V30 24494 O 2246.24 2.13944 0.802509 0
M  V30 24495 C 2246.45 2.12778 -2.76634 0
M  V30 24496 C 2247.8 2.72122 -3.25937 0
M  V30 24497 O 2248.82 2.23049 -2.77719 0
M  V30 24498 O 2247.68 3.61444 -4.09903 0
M  V30 24499 H 2244.77 0.57312 -0.596207 0
M  V30 24500 H 2247.32 0.520361 -1.61525 0
M  V30 24501 H 2246.09 1.51174 -3.60919 0
M  V30 24502 H 2245.71 2.94648 -2.66961 0
M  V30 24503 N 2246.71 1.38262 0.756405 0
M  V30 24504 C 2247.96 1.34514 1.51769 0
M  V30 24505 C 2248.29 -0.065635 1.94089 0
M  V30 24506 O 2247.57 -1.02623 1.65223 0
M  V30 24507 C 2247.85 2.29826 2.77222 0
M  V30 24508 C 2247.7 3.79751 2.41058 0
M  V30 24509 C 2249.02 2.23319 3.79232 0
M  V30 24510 H 2246.14 0.489941 0.55057 0
M  V30 24511 H 2248.78 1.69087 0.866577 0
M  V30 24512 H 2246.93 2.00473 3.3278 0
M  V30 24513 H 2248.6 4.19766 1.91296 0
M  V30 24514 H 2246.85 3.9757 1.73553 0
M  V30 24515 H 2247.52 4.41898 3.30802 0
M  V30 24516 H 2249.99 2.49225 3.33206 0
M  V30 24517 H 2248.87 2.92124 4.64709 0
M  V30 24518 H 2249.13 1.2311 4.24613 0
M  V30 24519 N 2248.19 -0.984277 1.23084 0
M  V30 24520 C 2249.6 -1.53958 1.05612 0
M  V30 24521 C 2249.95 -1.92529 -0.377759 0
M  V30 24522 O 2249.08 -1.75651 -1.26395 0
M  V30 24523 C 2249.67 -2.79767 1.91092 0
M  V30 24524 C 2248.23 -3.3171 1.77891 0
M  V30 24525 C 2247.38 -2.0473 1.87032 0
M  V30 24526 H 2250.33 -0.804395 1.36803 0
M  V30 24527 H 2250.35 -3.52468 1.43342 0
M  V30 24528 H 2249.86 -2.51663 2.95445 0
M  V30 24529 H 2247.96 -3.64703 0.763059 0
M  V30 24530 H 2248.08 -4.0173 2.61055 0
M  V30 24531 H 2246.44 -2.18687 1.30568 0
M  V30 24532 H 2247.22 -1.79012 2.92933 0
M  V30 24533 N 2249.67 -1.04192 -1.18244 0
M  V30 24534 C 2250.9 -0.764995 -1.91915 0
M  V30 24535 C 2251.31 0.681867 -1.76486 0
M  V30 24536 O 2250.65 1.47662 -1.09278 0
M  V30 24537 C 2250.71 -1.05315 -3.43728 0
M  V30 24538 C 2250.38 -2.49417 -3.82936 0
M  V30 24539 C 2251.37 -3.47599 -3.86615 0
M  V30 24540 C 2249.06 -2.84162 -4.14195 0
M  V30 24541 C 2251.05 -4.78575 -4.21004 0
M  V30 24542 C 2248.74 -4.15345 -4.48255 0
M  V30 24543 C 2249.74 -5.12361 -4.51636 0
M  V30 24544 O 2249.42 -6.41192 -4.849 0
M  V30 24545 H 2249.16 -0.278303 -0.616055 0
M  V30 24546 H 2251.71 -1.39302 -1.50944 0
M  V30 24547 H 2249.94 -0.368001 -3.84945 0
M  V30 24548 H 2251.63 -0.763822 -3.98648 0
M  V30 24549 H 2252.4 -3.22095 -3.62601 0
M  V30 24550 H 2248.27 -2.09318 -4.10739 0
M  V30 24551 H 2251.82 -5.54296 -4.23558 0
M  V30 24552 H 2247.72 -4.40616 -4.71729 0
M  V30 24553 H 2248.48 -6.45861 -5.02798 0
M  V30 24554 N 2251.15 1.34492 -0.821557 0
M  V30 24555 C 2252.4 1.97584 -0.40539 0
M  V30 24556 C 2252.71 1.65865 1.03674 0
M  V30 24557 O 2253.91 2.22436 1.55675 0
M  V30 24558 C 2252.37 3.53534 -0.673924 0
M  V30 24559 C 2251.98 3.94148 -2.12958 0
M  V30 24560 C 2253.72 4.23263 -0.323854 0
M  V30 24561 C 2251.63 5.43005 -2.34308 0
M  V30 24562 H 2250.56 0.739362 -0.147849 0
M  V30 24563 H 2253.21 1.53353 -1.00772 0
M  V30 24564 H 2251.59 3.96 -0.00144515 0
M  V30 24565 H 2252.77 3.62792 -2.84111 0
M  V30 24566 H 2251.08 3.37352 -2.44095 0
M  V30 24567 H 2253.68 5.32707 -0.461219 0
M  V30 24568 H 2254.02 4.09823 0.731514 0
M  V30 24569 H 2254.55 3.86269 -0.950854 0
M  V30 24570 H 2251.29 5.61429 -3.38345 0
M  V30 24571 H 2250.81 5.7588 -1.67697 0
M  V30 24572 H 2252.49 6.09667 -2.16599 0
M  V30 24573 N 2252.62 0.576397 1.46681 0
M  V30 24574 C 2253.55 -0.148356 2.33028 0
M  V30 24575 C 2254.54 -0.88993 1.44963 0
M  V30 24576 O 2255.72 -0.866632 1.7379 0
M  V30 24577 C 2252.85 -1.16664 3.27119 0
M  V30 24578 C 2251.8 -0.540311 4.24576 0
M  V30 24579 C 2251.13 -1.66461 5.08129 0
M  V30 24580 C 2252.43 0.518422 5.19721 0
M  V30 24581 H 2254.12 0.572561 2.93874 0
M  V30 24582 H 2251.67 0.276793 1.41315 0
M  V30 24583 H 2253.62 -1.68198 3.86377 0
M  V30 24584 H 2252.35 -1.91775 2.64367 0
M  V30 24585 H 2251.01 -0.0461124 3.66571 0
M  V30 24586 H 2250.65 -2.40523 4.41766 0
M  V30 24587 H 2250.35 -1.25121 5.74124 0
M  V30 24588 H 2251.88 -2.18283 5.7025 0
M  V30 24589 H 2253.29 0.0884066 5.73232 0
M  V30 24590 H 2251.69 0.851784 5.94024 0
M  V30 24591 H 2252.76 1.40711 4.64035 0
M  V30 24592 N 2254.1 -1.54444 0.313841 0
M  V30 24593 C 2255.05 -2.2399 -0.556511 0
M  V30 24594 C 2256.02 -1.22713 -1.11941 0
M  V30 24595 O 2257.2 -1.51369 -1.16155 0
M  V30 24596 C 2254.34 -2.99395 -1.7163 0
M  V30 24597 C 2253.46 -4.1547 -1.18357 0
M  V30 24598 C 2252.59 -4.78428 -2.30825 0
M  V30 24599 C 2251.63 -5.86625 -1.74751 0
M  V30 24600 N 2250.77 -6.43484 -2.80844 0
M  V30 24601 H 2255.61 -2.97969 0.0431417 0
M  V30 24602 H 2253.15 -1.47063 0.0330618 0
M  V30 24603 H 2255.1 -3.41353 -2.39862 0
M  V30 24604 H 2253.73 -2.27769 -2.28738 0
M  V30 24605 H 2252.79 -3.78363 -0.393096 0
M  V30 24606 H 2254.1 -4.93382 -0.733176 0
M  V30 24607 H 2253.25 -5.23305 -3.0698 0
M  V30 24608 H 2251.99 -3.99876 -2.79197 0
M  V30 24609 H 2251 -5.41159 -0.9709 0
M  V30 24610 H 2252.22 -6.67068 -1.27269 0
M  V30 24611 H 2250.17 -5.67809 -3.28525 0
M  V30 24612 H 2250.08 -7.1678 -2.40339 0
M  V30 24613 H 2251.35 -6.93017 -3.56857 0
M  V30 24614 N 2255.58 -0.0418125 -1.57545 0
M  V30 24615 C 2256.51 0.970891 -2.06516 0
M  V30 24616 C 2257.49 1.30969 -0.96363 0
M  V30 24617 O 2258.68 1.42418 -1.23489 0
M  V30 24618 C 2255.8 2.28748 -2.49784 0
M  V30 24619 C 2254.85 2.10239 -3.71082 0
M  V30 24620 S 2255.68 1.38942 -5.17161 0
M  V30 24621 C 2256.84 2.71944 -5.63735 0
M  V30 24622 H 2257.07 0.554078 -2.92091 0
M  V30 24623 H 2254.6 0.170213 -1.53459 0
M  V30 24624 H 2256.56 3.04431 -2.75377 0
M  V30 24625 H 2255.22 2.67559 -1.64532 0
M  V30 24626 H 2254.42 3.07602 -3.99246 0
M  V30 24627 H 2254.02 1.42697 -3.45707 0
M  V30 24628 H 2256.31 3.68144 -5.68749 0
M  V30 24629 H 2257.25 2.48429 -6.6309 0
M  V30 24630 H 2257.66 2.77774 -4.91429 0
M  V30 24631 N 2257.06 1.55891 0.231477 0
M  V30 24632 C 2257.97 1.94754 1.30797 0
M  V30 24633 C 2258.98 0.850015 1.51825 0
M  V30 24634 O 2260.16 1.15274 1.65148 0
M  V30 24635 C 2257.23 2.24775 2.63964 0
M  V30 24636 C 2256.29 3.48044 2.51325 0
M  V30 24637 C 2255.52 3.76623 3.78141 0
M  V30 24638 O 2255.74 3.07031 4.80716 0
M  V30 24639 O 2254.68 4.70129 3.75848 0
M  V30 24640 H 2258.5 2.86475 1.00825 0
M  V30 24641 H 2256.09 1.42972 0.433522 0
M  V30 24642 H 2257.97 2.45324 3.42629 0
M  V30 24643 H 2256.64 1.3623 2.93637 0
M  V30 24644 H 2255.55 3.32785 1.70894 0
M  V30 24645 H 2256.88 4.3694 2.26593 0
M  V30 24646 N 2258.54 -0.497781 1.49532 0
M  V30 24647 C 2259.76 -1.28036 1.63161 0
M  V30 24648 C 2260.19 -1.85624 0.304213 0
M  V30 24649 O 2259.54 -1.66016 -0.728589 0
M  V30 24650 C 2259.59 -2.38411 2.70541 0
M  V30 24651 O 2258.7 -3.42349 2.29937 0
M  V30 24652 H 2258.04 -0.377851 0.546008 0
M  V30 24653 H 2260.57 -0.595546 1.95741 0
M  V30 24654 H 2260.58 -2.84127 2.92807 0
M  V30 24655 H 2259.25 -1.95863 3.66893 0
M  V30 24656 H 2257.83 -3.0253 2.18014 0
M  V30 24657 N 2260.01 -1.38661 -0.749062 0
M  V30 24658 C 2260.96 -1.32754 -1.85365 0
M  V30 24659 C 2261.95 -0.210973 -1.59511 0
M  V30 24660 O 2263.14 -0.447329 -1.71254 0
M  V30 24661 C 2260.27 -1.15941 -3.23129 0
M  V30 24662 C 2259.36 -2.32239 -3.5486 0
M  V30 24663 N 2259.75 -3.57691 -3.57618 0
M  V30 24664 C 2258.04 -2.2489 -3.8515 0
M  V30 24665 C 2258.75 -4.34515 -3.86745 0
M  V30 24666 N 2257.72 -3.63926 -4.03806 0
M  V30 24667 H 2261.52 -2.27732 -1.85783 0
M  V30 24668 H 2259.04 -1.31957 -0.946635 0
M  V30 24669 H 2261.03 -1.09793 -4.02183 0
M  V30 24670 H 2259.69 -0.219004 -3.23961 0
M  V30 24671 H 2260.71 -3.91301 -3.39269 0
M  V30 24672 H 2257.38 -1.39034 -3.9367 0
M  V30 24673 H 2258.77 -5.43192 -3.95465 0
M  V30 24674 N 2261.49 0.977736 -1.23605 0
M  V30 24675 C 2262.9 1.53396 -1.06427 0
M  V30 24676 C 2263.26 1.92727 0.367544 0
M  V30 24677 O 2262.38 1.76319 1.25462 0
M  V30 24678 C 2262.98 2.78749 -1.92573 0
M  V30 24679 C 2261.53 3.30762 -1.79648 0
M  V30 24680 C 2260.68 2.03735 -1.88115 0
M  V30 24681 H 2263.63 0.797128 -1.37228 0
M  V30 24682 H 2263.65 3.51702 -1.45209 0
M  V30 24683 H 2263.17 2.50092 -2.96775 0
M  V30 24684 H 2261.27 3.64293 -0.782389 0
M  V30 24685 H 2261.38 4.0034 -2.63181 0
M  V30 24686 H 2259.74 2.17991 -1.31726 0
M  V30 24687 H 2260.53 1.77456 -2.93878 0
M  V30 24688 N 2262.97 1.04818 1.1769 0
M  V30 24689 C 2263.92 0.61608 2.19519 0
M  V30 24690 C 2264.91 -0.345458 1.57148 0
M  V30 24691 O 2266.1 -0.163294 1.76245 0
M  V30 24692 C 2263.23 -0.0116314 3.43298 0
M  V30 24693 C 2262.31 0.973507 4.12776 0
M  V30 24694 N 2262.7 2.14347 4.58137 0
M  V30 24695 C 2261 0.801157 4.38745 0
M  V30 24696 C 2261.7 2.76639 5.11709 0
M  V30 24697 N 2260.68 2.04462 5.03683 0
M  V30 24698 H 2264.48 1.50755 2.5229 0
M  V30 24699 H 2261.99 0.917799 1.33978 0
M  V30 24700 H 2263.99 -0.338933 4.1552 0
M  V30 24701 H 2262.65 -0.898538 3.1202 0
M  V30 24702 H 2263.66 2.52199 4.52345 0
M  V30 24703 H 2260.34 -0.03502 4.17485 0
M  V30 24704 H 2261.73 3.75833 5.56955 0
M  V30 24705 N 2264.45 -1.34055 0.828678 0
M  V30 24706 C 2265.68 -2.02326 0.432656 0
M  V30 24707 C 2266.09 -1.62387 -0.963119 0
M  V30 24708 O 2265.45 -0.83215 -1.62424 0
M  V30 24709 C 2265.5 -3.57566 0.531883 0
M  V30 24710 O 2265.22 -3.9606 1.87265 0
M  V30 24711 C 2266.72 -4.43105 0.1315 0
M  V30 24712 H 2263.94 -0.648332 0.172934 0
M  V30 24713 H 2266.49 -1.71206 1.11843 0
M  V30 24714 H 2264.64 -3.87255 -0.10587 0
M  V30 24715 H 2265.06 -4.90754 1.85096 0
M  V30 24716 H 2266.53 -5.51424 0.252001 0
M  V30 24717 H 2267.01 -4.29337 -0.92557 0
M  V30 24718 H 2267.61 -4.18755 0.74328 0
M  V30 24719 N 2265.93 -0.584167 -1.46374 0
M  V30 24720 C 2267.16 -0.075966 -2.0676 0
M  V30 24721 C 2267.57 1.22962 -1.43268 0
M  V30 24722 O 2266.93 1.74375 -0.538489 0
M  V30 24723 C 2266.98 0.0949749 -3.61375 0
M  V30 24724 O 2266.7 -1.15894 -4.22493 0
M  V30 24725 C 2268.2 0.637357 -4.38694 0
M  V30 24726 H 2265.42 -0.0581192 -0.668478 0
M  V30 24727 H 2267.96 -0.805251 -1.87979 0
M  V30 24728 H 2266.12 0.774487 -3.79579 0
M  V30 24729 H 2266.53 -0.973689 -5.15383 0
M  V30 24730 H 2268.01 0.70614 -5.47465 0
M  V30 24731 H 2268.48 1.65465 -4.06839 0
M  V30 24732 H 2269.09 -0.00733443 -4.25299 0
M  V30 24733 N 2267.41 1.54275 -0.322027 0
M  V30 24734 C 2268.65 2.02451 0.281621 0
M  V30 24735 C 2269.01 1.20516 1.49466 0
M  V30 24736 O 2270.21 1.58487 2.17106 0
M  V30 24737 C 2268.48 3.52174 0.608952 0
M  V30 24738 S 2270.04 4.22286 1.19247 0
M  V30 24739 H 2266.86 0.705868 0.0852701 0
M  V30 24740 H 2269.46 1.90137 -0.454791 0
M  V30 24741 H 2268.16 4.0943 -0.282054 0
M  V30 24742 H 2267.7 3.68566 1.3756 0
M  V30 24743 H 2269.71 4.29816 2.47937 0
M  V30 24744 N 2268.88 0.0501669 1.5752 0
M  V30 24745 C 2270.13 -0.618867 1.93757 0
M  V30 24746 C 2270.48 -1.68511 0.928544 0
M  V30 24747 O 2269.78 -1.91528 -0.0524276 0
M  V30 24748 C 2269.97 -1.25957 3.34469 0
M  V30 24749 C 2269.8 -0.256921 4.48965 0
M  V30 24750 C 2268.57 0.150745 5.05075 0
M  V30 24751 C 2270.77 0.497256 5.1189 0
M  V30 24752 N 2268.75 1.14636 6.03102 0
M  V30 24753 C 2270.12 1.34599 6.05213 0
M  V30 24754 C 2272.18 0.555677 4.94789 0
M  V30 24755 C 2270.88 2.2479 6.83273 0
M  V30 24756 C 2272.91 1.44502 5.73475 0
M  V30 24757 C 2272.27 2.28147 6.66429 0
M  V30 24758 H 2268.37 -0.198136 0.756483 0
M  V30 24759 H 2270.95 0.122264 1.94316 0
M  V30 24760 H 2269.12 -1.97073 3.34689 0
M  V30 24761 H 2270.85 -1.88733 3.57997 0
M  V30 24762 H 2267.61 -0.228011 4.73051 0
M  V30 24763 H 2268.03 1.64104 6.5681 0
M  V30 24764 H 2272.67 -0.0767882 4.2273 0
M  V30 24765 H 2270.39 2.89083 7.54624 0
M  V30 24766 H 2273.98 1.49478 5.6227 0
M  V30 24767 H 2272.86 2.95848 7.26253 0
M  V30 24768 N 2270.36 -1.56011 -0.223207 0
M  V30 24769 C 2271.77 -1.69147 -0.790338 0
M  V30 24770 C 2272.12 -0.651878 -1.85054 0
M  V30 24771 O 2271.25 0.197321 -2.15499 0
M  V30 24772 C 2271.84 -3.06659 -1.44034 0
M  V30 24773 C 2270.4 -3.21654 -1.95489 0
M  V30 24774 C 2269.55 -2.6507 -0.81446 0
M  V30 24775 H 2272.5 -1.587 0.001418 0
M  V30 24776 H 2272.52 -3.02424 -2.30911 0
M  V30 24777 H 2272.03 -3.823 -0.668476 0
M  V30 24778 H 2270.13 -2.50879 -2.75482 0
M  V30 24779 H 2270.25 -4.2885 -2.13599 0
M  V30 24780 H 2268.61 -2.23507 -1.22133 0
M  V30 24781 H 2269.39 -3.43255 -0.0552912 0
M  V30 24782 N 2271.84 0.489844 -1.49794 0
M  V30 24783 C 2273.09 1.24079 -1.59527 0
M  V30 24784 C 2273.41 1.92847 -0.288987 0
M  V30 24785 O 2272.68 1.83256 0.692403 0
M  V30 24786 H 2271.26 0.460973 -0.587804 0
M  V30 24787 H 2273.92 0.566746 -1.86478 0
M  V30 24788 H 2273.02 1.99876 -2.397 0
M  V30 24789 N 2273.32 1.39056 0.741698 0
M  V30 24790 C 2274.73 1.20514 1.04636 0
M  V30 24791 C 2274.93 0.0620572 2.01404 0
M  V30 24792 O 2273.99 -0.588414 2.45548 0
M  V30 24793 C 2275.3 2.53646 1.61506 0
M  V30 24794 C 2276.85 2.60433 1.73619 0
M  V30 24795 C 2277.33 3.93771 2.33899 0
M  V30 24796 N 2278.82 3.95374 2.41316 0
M  V30 24797 C 2279.55 4.95314 2.8888 0
M  V30 24798 N 2279.05 6.05651 3.3639 0
M  V30 24799 N 2280.84 4.82697 2.88028 0
M  V30 24800 H 2272.99 2.12166 0.0997782 0
M  V30 24801 H 2275.25 0.941955 0.10689 0
M  V30 24802 H 2274.96 3.37809 0.97868 0
M  V30 24803 H 2274.83 2.72889 2.60406 0
M  V30 24804 H 2277.22 1.76659 2.3638 0
M  V30 24805 H 2277.3 2.45046 0.733902 0
M  V30 24806 H 2276.95 4.77973 1.71767 0
M  V30 24807 H 2276.88 4.06475 3.34792 0
M  V30 24808 H 2279.37 3.15686 2.07728 0
M  V30 24809 H 2279.68 6.77827 3.71174 0
M  V30 24810 H 2278.03 6.09254 3.34416 0
M  V30 24811 H 2281.22 3.95604 2.5023 0
M  V30 24812 H 2281.39 5.60732 3.24783 0
M  V30 24813 N 2274.8 -0.971167 1.24121 0
M  V30 24814 C 2276.02 -1.74872 1.10578 0
M  V30 24815 C 2276.44 -1.85677 -0.341984 0
M  V30 24816 O 2275.8 -1.3426 -1.23615 0
M  V30 24817 C 2275.85 -3.17097 1.73585 0
M  V30 24818 O 2275.57 -3.06839 3.127 0
M  V30 24819 C 2277.07 -4.11205 1.65605 0
M  V30 24820 H 2274.29 -0.548496 0.386513 0
M  V30 24821 H 2276.83 -1.21952 1.64158 0
M  V30 24822 H 2274.99 -3.67014 1.24015 0
M  V30 24823 H 2275.4 -3.96439 3.43419 0
M  V30 24824 H 2276.88 -5.08671 2.14379 0
M  V30 24825 H 2277.35 -4.3485 0.616608 0
M  V30 24826 H 2277.96 -3.67197 2.14584 0
M  V30 24827 N 2276.27 -1.05441 -1.17133 0
M  V30 24828 C 2277.2 -0.678688 -2.23419 0
M  V30 24829 C 2278.19 0.324731 -1.66972 0
M  V30 24830 O 2279.37 0.201768 -1.93149 0
M  V30 24831 C 2276.5 -0.055271 -3.47256 0
M  V30 24832 C 2275.45 -0.983723 -4.16542 0
M  V30 24833 C 2274.78 -0.224055 -5.3423 0
M  V30 24834 C 2276.08 -2.30898 -4.68491 0
M  V30 24835 H 2277.77 -1.56726 -2.55103 0
M  V30 24836 H 2275.32 -0.755019 -1.22619 0
M  V30 24837 H 2277.27 0.219386 -4.20829 0
M  V30 24838 H 2276 0.868264 -3.14847 0
M  V30 24839 H 2274.66 -1.24299 -3.44885 0
M  V30 24840 H 2274.3 0.702325 -4.98073 0
M  V30 24841 H 2274 -0.842729 -5.81525 0
M  V30 24842 H 2275.53 0.0432598 -6.10585 0
M  V30 24843 H 2276.94 -2.09405 -5.33688 0
M  V30 24844 H 2275.34 -2.88185 -5.26374 0
M  V30 24845 H 2276.41 -2.94579 -3.85164 0
M  V30 24846 N 2277.75 1.33613 -0.835776 0
M  V30 24847 C 2278.98 2.018 -0.442736 0
M  V30 24848 C 2279.39 1.63049 0.959779 0
M  V30 24849 O 2278.73 0.838117 1.63466 0
M  V30 24850 C 2278.8 3.56279 -0.480188 0
M  V30 24851 C 2278.46 4.18397 -1.83828 0
M  V30 24852 C 2279.46 4.37993 -2.80104 0
M  V30 24853 C 2277.14 4.5489 -2.13027 0
M  V30 24854 C 2279.14 4.93223 -4.03745 0
M  V30 24855 C 2276.82 5.09828 -3.36925 0
M  V30 24856 C 2277.82 5.28941 -4.32101 0
M  V30 24857 O 2277.51 5.82711 -5.53807 0
M  V30 24858 H 2277.24 0.65311 -0.174421 0
M  V30 24859 H 2279.79 1.71587 -1.12903 0
M  V30 24860 H 2278.02 3.85806 0.262863 0
M  V30 24861 H 2279.71 4.05763 -0.105406 0
M  V30 24862 H 2280.48 4.10151 -2.58845 0
M  V30 24863 H 2276.36 4.3931 -1.39741 0
M  V30 24864 H 2279.9 5.08056 -4.78043 0
M  V30 24865 H 2275.8 5.371 -3.58042 0
M  V30 24866 H 2276.57 6.0113 -5.55504 0
M  V30 24867 N 2279.23 0.591922 1.46062 0
M  V30 24868 C 2280.16 -0.123632 2.33172 0
M  V30 24869 C 2281.14 -0.874505 1.45899 0
M  V30 24870 O 2282.33 -0.84815 1.747 0
M  V30 24871 C 2279.46 -1.13188 3.28338 0
M  V30 24872 C 2278.41 -0.495249 4.25125 0
M  V30 24873 C 2277.74 -1.61063 5.09866 0
M  V30 24874 C 2279.04 0.573516 5.19142 0
M  V30 24875 H 2280.73 0.603698 2.9325 0
M  V30 24876 H 2278.28 0.291766 1.41013 0
M  V30 24877 H 2280.23 -1.6409 3.8814 0
M  V30 24878 H 2278.95 -1.8896 2.66386 0
M  V30 24879 H 2277.61 -0.00723008 3.66599 0
M  V30 24880 H 2277.26 -2.35824 4.44293 0
M  V30 24881 H 2276.96 -1.19025 5.75419 0
M  V30 24882 H 2278.48 -2.12223 5.72533 0
M  V30 24883 H 2279.9 0.149201 5.73106 0
M  V30 24884 H 2278.3 0.91474 5.93087 0
M  V30 24885 H 2279.37 1.45625 4.62516 0
M  V30 24886 N 2280.71 -1.54102 0.330204 0
M  V30 24887 C 2281.64 -2.27514 -0.525313 0
M  V30 24888 C 2282.62 -1.28562 -1.11381 0
M  V30 24889 O 2283.8 -1.57385 -1.1377 0
M  V30 24890 C 2280.93 -3.03794 -1.68305 0
M  V30 24891 C 2279.89 -4.10139 -1.22353 0
M  V30 24892 C 2279.21 -4.74297 -2.46873 0
M  V30 24893 C 2280.51 -5.21234 -0.333605 0
M  V30 24894 H 2282.21 -2.99273 0.0870656 0
M  V30 24895 H 2279.75 -1.43935 0.0433146 0
M  V30 24896 H 2281.71 -3.53884 -2.28788 0
M  V30 24897 H 2280.43 -2.29663 -2.32212 0
M  V30 24898 H 2279.09 -3.60942 -0.641586 0
M  V30 24899 H 2278.74 -3.96775 -3.09159 0
M  V30 24900 H 2278.44 -5.46136 -2.16815 0
M  V30 24901 H 2279.96 -5.27164 -3.08107 0
M  V30 24902 H 2281.38 -5.6704 -0.844913 0
M  V30 24903 H 2279.77 -5.99969 -0.125507 0
M  V30 24904 H 2280.84 -4.8074 0.633808 0
M  V30 24905 N 2282.19 -0.0585199 -1.57491 0
M  V30 24906 C 2283.15 0.89858 -2.10851 0
M  V30 24907 C 2284.15 1.2351 -1.02966 0
M  V30 24908 O 2285.34 1.17056 -1.29009 0
M  V30 24909 C 2282.47 2.20618 -2.59885 0
M  V30 24910 H 2283.66 0.435883 -2.96715 0
M  V30 24911 H 2281.22 0.189995 -1.55141 0
M  V30 24912 H 2281.95 2.71454 -1.77436 0
M  V30 24913 H 2281.74 1.97495 -3.3873 0
M  V30 24914 H 2283.23 2.89161 -3.0129 0
M  V30 24915 N 2283.66 1.56128 0.21493 0
M  V30 24916 C 2285.08 1.69563 0.781357 0
M  V30 24917 C 2285.43 0.661682 1.84706 0
M  V30 24918 O 2284.55 -0.18589 2.156 0
M  V30 24919 C 2285.15 3.07418 1.42406 0
M  V30 24920 C 2283.71 3.22686 1.9378 0
M  V30 24921 C 2282.85 2.65498 0.800391 0
M  V30 24922 H 2285.8 1.58697 -0.00983423 0
M  V30 24923 H 2285.82 3.03644 2.29304 0
M  V30 24924 H 2285.34 3.82649 0.648192 0
M  V30 24925 H 2283.44 2.52336 2.74148 0
M  V30 24926 H 2283.55 4.29976 2.11322 0
M  V30 24927 H 2281.91 2.24152 1.20946 0
M  V30 24928 H 2282.7 3.4328 0.0370867 0
M  V30 24929 N 2285.14 -0.481893 1.50052 0
M  V30 24930 C 2286.37 -1.26298 1.6451 0
M  V30 24931 C 2286.79 -1.85291 0.323884 0
M  V30 24932 O 2286.15 -1.66779 -0.710939 0
M  V30 24933 C 2286.2 -2.35529 2.73054 0
M  V30 24934 O 2285.3 -3.3989 2.33556 0
M  V30 24935 H 2284.64 -0.372039 0.549985 0
M  V30 24936 H 2287.17 -0.574751 1.96361 0
M  V30 24937 H 2287.18 -2.81005 2.95804 0
M  V30 24938 H 2285.86 -1.91961 3.6895 0
M  V30 24939 H 2284.44 -3.002 2.21211 0
M  V30 24940 N 2286.62 -1.39448 -0.734313 0
M  V30 24941 C 2287.87 -1.36709 -1.49389 0
M  V30 24942 C 2288.2 0.0367471 -1.94465 0
M  V30 24943 O 2287.45 1.01771 -1.67156 0
M  V30 24944 C 2287.75 -2.28628 -2.74707 0
M  V30 24945 C 2287.42 -3.76246 -2.48494 0
M  V30 24946 C 2286.08 -4.16468 -2.41055 0
M  V30 24947 C 2288.43 -4.69609 -2.26089 0
M  V30 24948 C 2285.76 -5.48115 -2.09253 0
M  V30 24949 C 2288.11 -6.01534 -1.95804 0
M  V30 24950 C 2286.77 -6.40819 -1.86834 0
M  V30 24951 H 2286.04 -0.500252 -0.546652 0
M  V30 24952 H 2288.69 -1.71959 -0.842758 0
M  V30 24953 H 2287 -1.86499 -3.44566 0
M  V30 24954 H 2288.69 -2.23802 -3.32737 0
M  V30 24955 H 2285.28 -3.44368 -2.55163 0
M  V30 24956 H 2289.47 -4.39367 -2.30804 0
M  V30 24957 H 2284.72 -5.77475 -2.00831 0
M  V30 24958 H 2288.9 -6.73406 -1.77476 0
M  V30 24959 H 2286.52 -7.42748 -1.61957 0
M  V30 24960 N 2288.1 0.964571 -1.24635 0
M  V30 24961 C 2289.51 1.52258 -1.08048 0
M  V30 24962 C 2289.86 1.93106 0.347082 0
M  V30 24963 O 2288.99 1.77639 1.23585 0
M  V30 24964 C 2289.58 2.76691 -1.95518 0
M  V30 24965 C 2288.14 3.28838 -1.83146 0
M  V30 24966 C 2287.29 2.01729 -1.90265 0
M  V30 24967 H 2290.24 0.782529 -1.38066 0
M  V30 24968 H 2290.26 3.50143 -1.48931 0
M  V30 24969 H 2289.77 2.46931 -2.99411 0
M  V30 24970 H 2287.87 3.63443 -0.820983 0
M  V30 24971 H 2287.98 3.97526 -2.67413 0
M  V30 24972 H 2286.35 2.16582 -1.34031 0
M  V30 24973 H 2287.13 1.74329 -2.95743 0
M  V30 24974 N 2289.58 1.0606 1.16572 0
M  V30 24975 C 2290.85 0.689448 1.83046 0
M  V30 24976 C 2291.23 -0.829409 1.94124 0
M  V30 24977 O 2290.58 -1.73878 1.48252 0
M  V30 24978 C 2290.79 1.38864 3.20184 0
M  V30 24979 C 2292.14 1.53232 3.95986 0
M  V30 24980 O 2293.16 1.34836 3.29693 0
M  V30 24981 O 2292.02 1.83393 5.1481 0
M  V30 24982 H 2289.12 0.243778 0.790254 0
M  V30 24983 H 2291.66 1.16073 1.23795 0
M  V30 24984 H 2290.43 2.42445 3.07142 0
M  V30 24985 H 2290.06 0.907284 3.8711 0
M  V30 24986 N 2291.06 -1.33168 0.84285 0
M  V30 24987 C 2292 -2.29133 0.276925 0
M  V30 24988 C 2292.97 -1.54513 -0.609499 0
M  V30 24989 O 2294.16 -1.82793 -0.546923 0
M  V30 24990 C 2291.3 -3.4087 -0.538647 0
M  V30 24991 C 2290.41 -4.30393 0.372245 0
M  V30 24992 C 2289.55 -5.29249 -0.454815 0
M  V30 24993 C 2288.58 -6.10412 0.454218 0
M  V30 24994 N 2287.72 -7.01301 -0.334952 0
M  V30 24995 H 2292.56 -2.76932 1.10057 0
M  V30 24996 H 2290.1 -1.36262 0.554185 0
M  V30 24997 H 2292.06 -4.04362 -1.02702 0
M  V30 24998 H 2290.69 -2.94253 -1.32722 0
M  V30 24999 H 2289.74 -3.67588 0.978944 0
M  V30 25000 H 2291.05 -4.8718 1.07039 0
M  V30 25001 H 2290.2 -5.98287 -1.00684 0
M  V30 25002 H 2288.94 -4.7305 -1.18638 0
M  V30 25003 H 2287.95 -5.40289 1.01823 0
M  V30 25004 H 2289.17 -6.68695 1.18421 0
M  V30 25005 H 2287.12 -6.47545 -1.04982 0
M  V30 25006 H 2287.04 -7.55387 0.304395 0
M  V30 25007 H 2288.3 -7.7464 -0.869088 0
M  V30 25008 N 2292.53 -0.599659 -1.45746 0
M  V30 25009 C 2293.47 0.161838 -2.28628 0
M  V30 25010 C 2294.48 0.839343 -1.39495 0
M  V30 25011 O 2295.67 0.706061 -1.63942 0
M  V30 25012 C 2292.77 1.24971 -3.15017 0
M  V30 25013 C 2291.94 0.660859 -4.32379 0
M  V30 25014 C 2291 1.6386 -5.00036 0
M  V30 25015 O 2290.03 1.168 -5.57087 0
M  V30 25016 N 2291.23 2.97294 -4.98594 0
M  V30 25017 H 2293.99 -0.549317 -2.94623 0
M  V30 25018 H 2291.55 -0.438592 -1.55846 0
M  V30 25019 H 2293.55 1.90344 -3.57143 0
M  V30 25020 H 2292.12 1.86349 -2.50983 0
M  V30 25021 H 2291.34 -0.170758 -3.9383 0
M  V30 25022 H 2292.62 0.24753 -5.08198 0
M  V30 25023 H 2292.02 3.38137 -4.53519 0
M  V30 25024 H 2290.58 3.58111 -5.44609 0
M  V30 25025 N 2294.01 1.53925 -0.338371 0
M  V30 25026 C 2295.43 1.59594 0.0137455 0
M  V30 25027 C 2295.63 1.35449 1.49183 0
M  V30 25028 O 2294.68 1.1462 2.24985 0
M  V30 25029 C 2296 2.97784 -0.417782 0
M  V30 25030 C 2297.54 3.10809 -0.369688 0
M  V30 25031 C 2298.02 4.51368 -0.776604 0
M  V30 25032 N 2299.51 4.57402 -0.730587 0
M  V30 25033 C 2300.25 5.64301 -1.01746 0
M  V30 25034 N 2299.74 6.79074 -1.37222 0
M  V30 25035 N 2301.53 5.5415 -0.942039 0
M  V30 25036 H 2293.69 1.67874 -1.30123 0
M  V30 25037 H 2295.95 0.785941 -0.530096 0
M  V30 25038 H 2295.65 3.20501 -1.44817 0
M  V30 25039 H 2295.53 3.76617 0.209663 0
M  V30 25040 H 2297.92 2.87818 0.651517 0
M  V30 25041 H 2298 2.34047 -1.03227 0
M  V30 25042 H 2297.64 4.75093 -1.79579 0
M  V30 25043 H 2297.57 5.2652 -0.0915574 0
M  V30 25044 H 2300.06 3.7498 -0.468849 0
M  V30 25045 H 2300.37 7.56557 -1.5761 0
M  V30 25046 H 2298.72 6.80534 -1.41062 0
M  V30 25047 H 2301.91 4.63363 -0.664266 0
M  V30 25048 H 2302.08 6.37369 -1.16896 0
M  V30 25049 N 2295.49 0.0668712 1.57458 0
M  V30 25050 C 2296.74 -0.598282 1.94402 0
M  V30 25051 C 2297.09 -1.67516 0.946364 0
M  V30 25052 O 2296.38 -1.91573 -0.0321106 0
M  V30 25053 C 2296.58 -1.22403 3.35786 0
M  V30 25054 C 2296.41 -0.209288 4.49213 0
M  V30 25055 C 2295.18 0.204306 5.04887 0
M  V30 25056 C 2297.37 0.55152 5.11334 0
M  V30 25057 N 2295.36 1.21027 6.01852 0
M  V30 25058 C 2296.73 1.4101 6.03752 0
M  V30 25059 C 2298.78 0.608125 4.94172 0
M  V30 25060 C 2297.49 2.32025 6.8085 0
M  V30 25061 C 2299.51 1.50576 5.7191 0
M  V30 25062 C 2298.87 2.35203 6.63972 0
M  V30 25063 H 2294.97 -0.190101 0.758542 0
M  V30 25064 H 2297.56 0.142866 1.94175 0
M  V30 25065 H 2295.73 -1.93513 3.3676 0
M  V30 25066 H 2297.46 -1.84925 3.59979 0
M  V30 25067 H 2294.21 -0.177825 4.73266 0
M  V30 25068 H 2294.64 1.71061 6.55032 0
M  V30 25069 H 2299.28 -0.0319476 4.22788 0
M  V30 25070 H 2297 2.9707 7.51515 0
M  V30 25071 H 2300.58 1.55433 5.60653 0
M  V30 25072 H 2299.46 3.03534 7.23074 0
M  V30 25073 N 2296.97 -1.56239 -0.206647 0
M  V30 25074 C 2298.21 -1.80209 -0.930186 0
M  V30 25075 C 2298.55 -0.639013 -1.83386 0
M  V30 25076 O 2297.82 0.361032 -1.9112 0
M  V30 25077 C 2298.1 -3.14363 -1.75635 0
M  V30 25078 C 2297.96 -4.41144 -0.87818 0
M  V30 25079 C 2299.28 -3.45097 -2.73123 0
M  V30 25080 H 2296.4 -0.655577 -0.336731 0
M  V30 25081 H 2299.04 -1.88964 -0.198189 0
M  V30 25082 H 2297.19 -3.07031 -2.38042 0
M  V30 25083 H 2298.86 -4.60511 -0.269706 0
M  V30 25084 H 2297.1 -4.33408 -0.184309 0
M  V30 25085 H 2297.77 -5.31483 -1.49097 0
M  V30 25086 H 2300.25 -3.52653 -2.2085 0
M  V30 25087 H 2299.13 -4.40106 -3.28021 0
M  V30 25088 H 2299.39 -2.68009 -3.51602 0
M  V30 25089 N 2298.45 0.473929 -1.50305 0
M  V30 25090 C 2299.67 1.24957 -1.64904 0
M  V30 25091 C 2300.09 1.85872 -0.331231 0
M  V30 25092 O 2299.45 1.69096 0.68649 0
M  V30 25093 C 2299.5 2.36033 -2.73807 0
M  V30 25094 O 2299.22 1.77617 -4.0048 0
M  V30 25095 C 2300.72 3.26958 -2.99354 0
M  V30 25096 H 2297.94 0.378013 -0.554389 0
M  V30 25097 H 2300.48 0.566019 -1.96511 0
M  V30 25098 H 2298.64 3.00169 -2.44903 0
M  V30 25099 H 2299.05 2.50742 -4.60683 0
M  V30 25100 H 2300.53 4.01115 -3.79224 0
M  V30 25101 H 2301 3.8557 -2.10314 0
M  V30 25102 H 2301.61 2.68563 -3.29779 0
M  V30 25103 N 2299.92 1.39835 0.726907 0
M  V30 25104 C 2300.89 1.38966 1.82267 0
M  V30 25105 C 2301.89 0.285362 1.58248 0
M  V30 25106 O 2303.08 0.543689 1.65498 0
M  V30 25107 C 2300.21 1.17025 3.20184 0
M  V30 25108 H 2301.4 2.36479 1.84439 0
M  V30 25109 H 2298.95 1.25518 0.931393 0
M  V30 25110 H 2299.69 0.202261 3.23669 0
M  V30 25111 H 2299.47 1.97003 3.39016 0
M  V30 25112 H 2300.96 1.19177 4.00233 0
M  V30 25113 N 2301.4 -0.957948 1.25144 0
M  V30 25114 C 2302.33 -2.07171 1.07715 0
M  V30 25115 C 2303.31 -1.70095 -0.0128163 0
M  V30 25116 O 2304.5 -1.93572 0.156095 0
M  V30 25117 C 2301.63 -3.40345 0.691562 0
M  V30 25118 C 2300.58 -3.91416 1.73139 0
M  V30 25119 C 2299.91 -5.21047 1.20059 0
M  V30 25120 C 2301.21 -4.18164 3.12947 0
M  V30 25121 H 2302.9 -2.22011 2.00877 0
M  V30 25122 H 2300.45 -1.06682 0.96721 0
M  V30 25123 H 2302.4 -4.17708 0.556578 0
M  V30 25124 H 2301.12 -3.25434 -0.275761 0
M  V30 25125 H 2299.78 -3.16219 1.85476 0
M  V30 25126 H 2299.43 -5.02503 0.223587 0
M  V30 25127 H 2299.13 -5.56186 1.89554 0
M  V30 25128 H 2300.66 -6.0101 1.07792 0
M  V30 25129 H 2302.07 -4.86198 3.03783 0
M  V30 25130 H 2300.47 -4.64552 3.79883 0
M  V30 25131 H 2301.54 -3.24567 3.60256 0
M  V30 25132 N 2302.88 -1.06677 -1.16008 0
M  V30 25133 C 2303.79 -0.692218 -2.24155 0
M  V30 25134 C 2304.81 0.293483 -1.71507 0
M  V30 25135 O 2305.98 0.141826 -2.009 0
M  V30 25136 C 2303.05 -0.0884741 -3.46587 0
M  V30 25137 C 2302.11 -1.12654 -4.14255 0
M  V30 25138 C 2301.34 -0.551509 -5.30843 0
M  V30 25139 O 2301.56 0.634556 -5.66859 0
M  V30 25140 O 2300.5 -1.29308 -5.87846 0
M  V30 25141 H 2304.32 -1.59392 -2.58511 0
M  V30 25142 H 2301.91 -0.839282 -1.23598 0
M  V30 25143 H 2303.79 0.246287 -4.2068 0
M  V30 25144 H 2302.47 0.786657 -3.13996 0
M  V30 25145 H 2301.37 -1.51354 -3.42115 0
M  V30 25146 H 2302.71 -1.97333 -4.50911 0
M  V30 25147 N 2304.36 1.32719 -0.8499 0
M  V30 25148 C 2305.58 2.02146 -0.463891 0
M  V30 25149 C 2306.01 1.63477 0.93042 0
M  V30 25150 O 2305.37 0.83298 1.61031 0
M  V30 25151 C 2305.41 3.55488 -0.605017 0
M  V30 25152 O 2304.52 4.10789 0.364177 0
M  V30 25153 H 2303.86 0.637107 -0.187057 0
M  V30 25154 H 2306.39 1.69373 -1.14778 0
M  V30 25155 H 2306.4 4.05038 -0.490767 0
M  V30 25156 H 2305.07 3.82976 -1.6218 0
M  V30 25157 H 2303.65 3.72327 0.206563 0
M  V30 25158 N 2305.84 0.60738 1.45426 0
M  V30 25159 C 2307.08 0.102643 2.0254 0
M  V30 25160 C 2307.42 -1.26345 1.47481 0
M  V30 25161 O 2306.69 -1.83338 0.649422 0
M  V30 25162 C 2306.97 0.063498 3.60044 0
M  V30 25163 C 2306.83 1.46024 4.25437 0
M  V30 25164 C 2308.15 -0.624437 4.35648 0
M  V30 25165 H 2305.26 0.0387736 0.735979 0
M  V30 25166 H 2307.91 0.779312 1.73282 0
M  V30 25167 H 2306.06 -0.51274 3.85102 0
M  V30 25168 H 2307.73 2.08355 4.11565 0
M  V30 25169 H 2305.97 2.02101 3.83846 0
M  V30 25170 H 2306.64 1.3851 5.3434 0
M  V30 25171 H 2309.12 -0.13465 4.15882 0
M  V30 25172 H 2307.99 -0.620932 5.45377 0
M  V30 25173 H 2308.26 -1.69048 4.08504 0
M  V30 25174 N 2307.31 -1.53743 0.34653 0
M  V30 25175 C 2308.56 -2.0126 -0.249438 0
M  V30 25176 C 2308.89 -1.23389 -1.49963 0
M  V30 25177 O 2308.17 -0.322323 -1.91811 0
M  V30 25178 C 2308.45 -3.5571 -0.560581 0
M  V30 25179 C 2308.3 -4.4429 0.701914 0
M  V30 25180 C 2309.62 -4.18267 -1.36898 0
M  V30 25181 H 2306.74 -0.731584 -0.0891859 0
M  V30 25182 H 2309.38 -1.84155 0.467657 0
M  V30 25183 H 2307.53 -3.70416 -1.17149 0
M  V30 25184 H 2309.21 -4.41414 1.33982 0
M  V30 25185 H 2307.45 -4.13031 1.3262 0
M  V30 25186 H 2308.12 -5.50248 0.439427 0
M  V30 25187 H 2310.6 -4.07276 -0.852376 0
M  V30 25188 H 2309.47 -5.264 -1.55543 0
M  V30 25189 H 2309.73 -3.73082 -2.37196 0
M  V30 25190 N 2308.79 -0.0752207 -1.5742 0
M  V30 25191 C 2309.76 0.876166 -2.11792 0
M  V30 25192 C 2310.76 1.22411 -1.0427 0
M  V30 25193 O 2311.95 1.15681 -1.30244 0
M  V30 25194 C 2309.08 2.1785 -2.6221 0
M  V30 25195 H 2310.27 0.404388 -2.97161 0
M  V30 25196 H 2307.82 0.17353 -1.55334 0
M  V30 25197 H 2308.56 2.69556 -1.80305 0
M  V30 25198 H 2308.34 1.93891 -3.40806 0
M  V30 25199 H 2309.83 2.85949 -3.0434 0
M  V30 25200 N 2310.27 1.56347 0.198358 0
M  V30 25201 C 2311.52 1.80076 0.917439 0
M  V30 25202 C 2311.84 0.647725 1.83928 0
M  V30 25203 O 2311.11 -0.334132 1.93029 0
M  V30 25204 H 2309.69 0.664234 0.341762 0
M  V30 25205 H 2312.35 1.93823 0.20465 0
M  V30 25206 H 2311.45 2.73112 1.5105 0
M  V30 25207 N 2311.75 -0.465951 1.50554 0
M  V30 25208 C 2313 -1.21525 1.61481 0
M  V30 25209 C 2313.32 -1.92363 0.31963 0
M  V30 25210 O 2312.59 -1.84334 -0.663161 0
M  V30 25211 H 2311.17 -0.451563 0.595063 0
M  V30 25212 H 2313.83 -0.537007 1.87356 0
M  V30 25213 H 2312.93 -1.96038 2.42849 0
M  V30 25214 N 2313.23 -1.40218 -0.719481 0
M  V30 25215 C 2314.64 -1.22163 -1.02705 0
M  V30 25216 C 2314.84 -0.094091 -2.0128 0
M  V30 25217 O 2313.9 0.549274 -2.46453 0
M  V30 25218 C 2315.21 -2.56184 -1.5745 0
M  V30 25219 C 2316.76 -2.63162 -1.69454 0
M  V30 25220 C 2317.23 -3.97442 -2.27605 0
M  V30 25221 N 2318.73 -3.99163 -2.34995 0
M  V30 25222 C 2319.46 -4.99847 -2.80963 0
M  V30 25223 N 2318.96 -6.10926 -3.26712 0
M  V30 25224 N 2320.75 -4.87218 -2.80312 0
M  V30 25225 H 2312.9 -2.12297 -0.0660118 0
M  V30 25226 H 2315.16 -0.943536 -0.0918912 0
M  V30 25227 H 2314.87 -3.39323 -0.924814 0
M  V30 25228 H 2314.74 -2.76998 -2.56031 0
M  V30 25229 H 2317.13 -1.80397 -2.3354 0
M  V30 25230 H 2317.21 -2.46183 -0.694824 0
M  V30 25231 H 2316.86 -4.80645 -1.64141 0
M  V30 25232 H 2316.79 -4.1175 -3.28283 0
M  V30 25233 H 2319.28 -3.18951 -2.0268 0
M  V30 25234 H 2319.59 -6.83647 -3.60343 0
M  V30 25235 H 2317.93 -6.14497 -3.24681 0
M  V30 25236 H 2321.13 -3.99535 -2.43905 0
M  V30 25237 H 2321.3 -5.65828 -3.15821 0
M  V30 25238 N 2314.7 0.951297 -1.25651 0
M  V30 25239 C 2315.95 1.69882 -1.1076 0
M  V30 25240 C 2316.28 1.91019 0.350028 0
M  V30 25241 O 2315.56 1.48356 1.2578 0
M  V30 25242 C 2315.84 3.07975 -1.86611 0
M  V30 25243 C 2315.69 2.94226 -3.40222 0
M  V30 25244 C 2317.01 4.07922 -1.65189 0
M  V30 25245 H 2314.13 0.616566 -0.403751 0
M  V30 25246 H 2316.77 1.10556 -1.54523 0
M  V30 25247 H 2314.92 3.58619 -1.49415 0
M  V30 25248 H 2316.6 2.50882 -3.87112 0
M  V30 25249 H 2314.84 2.30071 -3.67763 0
M  V30 25250 H 2315.51 3.92126 -3.88512 0
M  V30 25251 H 2317.99 3.66201 -1.97576 0
M  V30 25252 H 2316.86 5.02579 -2.20692 0
M  V30 25253 H 2317.12 4.38091 -0.59401 0
M  V30 25254 N 2316.18 1.07291 1.1544 0
M  V30 25255 C 2317.41 0.816861 1.90636 0
M  V30 25256 C 2317.83 -0.624052 1.77446 0
M  V30 25257 O 2317.19 -1.436 1.10674 0
M  V30 25258 C 2317.24 1.22912 3.39006 0
M  V30 25259 O 2316.34 0.374047 4.107 0
M  V30 25260 H 2315.68 0.297649 0.59355 0
M  V30 25261 H 2318.21 1.43136 1.46196 0
M  V30 25262 H 2318.22 1.20504 3.89798 0
M  V30 25263 H 2316.9 2.27862 3.47925 0
M  V30 25264 H 2315.48 0.460564 3.70045 0
M  V30 25265 N 2317.66 -1.32267 0.856927 0
M  V30 25266 C 2319.08 -1.4993 0.547087 0
M  V30 25267 C 2319.28 -1.79182 -0.92175 0
M  V30 25268 O 2318.33 -1.86273 -1.70466 0
M  V30 25269 C 2319.65 -2.64194 1.43604 0
M  V30 25270 C 2321.19 -2.78079 1.4367 0
M  V30 25271 C 2321.67 -3.95424 2.31092 0
M  V30 25272 N 2323.16 -4.0269 2.289 0
M  V30 25273 C 2323.89 -4.92727 2.9327 0
M  V30 25274 N 2323.39 -5.87757 3.66761 0
M  V30 25275 N 2325.18 -4.85868 2.82646 0
M  V30 25276 H 2317.33 -1.11546 1.80752 0
M  V30 25277 H 2319.6 -0.549984 0.772154 0
M  V30 25278 H 2319.3 -2.49315 2.48063 0
M  V30 25279 H 2319.18 -3.6003 1.12508 0
M  V30 25280 H 2321.56 -2.9238 0.399753 0
M  V30 25281 H 2321.65 -1.82949 1.78783 0
M  V30 25282 H 2321.29 -3.81882 3.34856 0
M  V30 25283 H 2321.22 -4.89835 1.93311 0
M  V30 25284 H 2323.71 -3.34691 1.75471 0
M  V30 25285 H 2324.02 -6.53161 4.13039 0
M  V30 25286 H 2322.37 -5.87776 3.70869 0
M  V30 25287 H 2325.56 -4.10598 2.24781 0
M  V30 25288 H 2325.73 -5.55835 3.33094 0
M  V30 25289 N 2319.14 -0.615084 -1.45102 0
M  V30 25290 C 2320.05 0.100993 -2.34383 0
M  V30 25291 C 2321.06 0.852559 -1.51682 0
M  V30 25292 O 2322.24 0.808452 -1.84461 0
M  V30 25293 C 2319.31 1.08093 -3.29419 0
M  V30 25294 C 2318.37 0.330502 -4.28026 0
M  V30 25295 C 2317.6 1.26376 -5.18522 0
M  V30 25296 O 2317.82 2.50189 -5.12603 0
M  V30 25297 O 2316.76 0.756761 -5.97124 0
M  V30 25298 H 2320.58 -0.632907 -2.97032 0
M  V30 25299 H 2318.17 -0.375319 -1.44609 0
M  V30 25300 H 2320.05 1.64513 -3.87961 0
M  V30 25301 H 2318.72 1.79573 -2.69324 0
M  V30 25302 H 2317.63 -0.276349 -3.73078 0
M  V30 25303 H 2318.96 -0.343952 -4.90997 0
M  V30 25304 N 2320.62 1.53557 -0.354678 0
M  V30 25305 C 2321.56 2.25387 0.496928 0
M  V30 25306 C 2322.53 1.25638 1.08648 0
M  V30 25307 O 2323.72 1.54395 1.12101 0
M  V30 25308 C 2320.86 3.0384 1.63632 0
M  V30 25309 C 2319.97 4.18462 1.073 0
M  V30 25310 C 2319.11 4.8438 2.18059 0
M  V30 25311 C 2318.15 5.91052 1.59136 0
M  V30 25312 N 2317.28 6.50704 2.63684 0
M  V30 25313 H 2322.12 2.9775 -0.122128 0
M  V30 25314 H 2319.66 1.46923 -0.0720412 0
M  V30 25315 H 2321.62 3.47593 2.30727 0
M  V30 25316 H 2320.25 2.33753 2.22619 0
M  V30 25317 H 2319.3 3.79273 0.292642 0
M  V30 25318 H 2320.61 4.95153 0.602106 0
M  V30 25319 H 2319.77 5.3126 2.92998 0
M  V30 25320 H 2318.51 4.07138 2.68496 0
M  V30 25321 H 2317.51 5.43543 0.82708 0
M  V30 25322 H 2318.74 6.70208 1.09538 0
M  V30 25323 H 2316.68 5.7632 3.13355 0
M  V30 25324 H 2316.6 7.229 2.2125 0
M  V30 25325 H 2317.87 7.02235 3.38358 0
M  V30 25326 N 2322.1 0.083568 1.57378 0
M  V30 25327 C 2323.06 -0.864922 2.12254 0
M  V30 25328 C 2324.06 -1.21856 1.04918 0
M  V30 25329 O 2325.25 -1.14989 1.30855 0
M  V30 25330 C 2322.38 -2.16456 2.63362 0
M  V30 25331 H 2323.57 -0.388623 2.97371 0
M  V30 25332 H 2321.13 -0.16529 1.55424 0
M  V30 25333 H 2321.86 -2.68596 1.81732 0
M  V30 25334 H 2321.65 -1.92081 3.41829 0
M  V30 25335 H 2323.14 -2.84331 3.05852 0
M  V30 25336 N 2323.57 -1.5645 -0.190064 0
M  V30 25337 C 2324.48 -1.98154 -1.25587 0
M  V30 25338 C 2325.5 -0.88997 -1.49518 0
M  V30 25339 O 2326.68 -1.19612 -1.62034 0
M  V30 25340 C 2323.74 -2.31695 -2.57912 0
M  V30 25341 C 2322.8 -3.54585 -2.42009 0
M  V30 25342 C 2322.03 -3.86516 -3.68023 0
M  V30 25343 O 2322.26 -3.19668 -4.72407 0
M  V30 25344 O 2321.19 -4.79929 -3.63251 0
M  V30 25345 H 2325.02 -2.89048 -0.931938 0
M  V30 25346 H 2322.6 -1.44071 -0.395463 0
M  V30 25347 H 2324.48 -2.54321 -3.36004 0
M  V30 25348 H 2323.16 -1.43968 -2.89922 0
M  V30 25349 H 2322.07 -3.37199 -1.62011 0
M  V30 25350 H 2323.4 -4.42794 -2.14929 0
M  V30 25351 N 2325.05 0.45796 -1.50799 0
M  V30 25352 C 2326.01 1.53671 -1.70053 0
M  V30 25353 C 2327.01 1.50324 -0.570908 0
M  V30 25354 O 2328.2 1.52711 -0.838153 0
M  V30 25355 C 2325.34 2.93273 -1.73793 0
M  V30 25356 H 2326.53 1.37912 -2.66309 0
M  V30 25357 H 2324.08 0.685246 -1.40478 0
M  V30 25358 H 2324.82 3.14461 -0.792773 0
M  V30 25359 H 2324.6 2.97108 -2.55869 0
M  V30 25360 H 2326.09 3.71567 -1.90598 0
M  V30 25361 N 2326.53 1.40598 0.712035 0
M  V30 25362 C 2327.81 1.29565 1.46534 0
M  V30 25363 C 2328.19 -0.0843847 2.10931 0
M  V30 25364 O 2327.53 -1.09746 2.0042 0
M  V30 25365 C 2327.74 2.43706 2.49817 0
M  V30 25366 C 2329.09 2.84106 3.15546 0
M  V30 25367 O 2330.12 2.43325 2.60138 0
M  V30 25368 O 2328.98 3.54573 4.15861 0
M  V30 25369 H 2326.07 0.509015 0.651792 0
M  V30 25370 H 2328.62 1.52526 0.743908 0
M  V30 25371 H 2327.39 3.35866 2.00772 0
M  V30 25372 H 2327.01 2.22534 3.29491 0
M  V30 25373 N 2328.01 -0.94462 1.26153 0
M  V30 25374 C 2328.97 -2.02438 1.07477 0
M  V30 25375 C 2329.97 -1.60782 0.0242347 0
M  V30 25376 O 2331.16 -1.72136 0.267333 0
M  V30 25377 C 2328.29 -3.34952 0.634015 0
M  V30 25378 H 2329.49 -2.20438 2.0334 0
M  V30 25379 H 2327.04 -1.1231 1.08702 0
M  V30 25380 H 2327.77 -3.2265 -0.326754 0
M  V30 25381 H 2327.56 -3.66539 1.39253 0
M  V30 25382 H 2329.05 -4.14286 0.525083 0
M  V30 25383 N 2329.49 -1.07901 -1.1487 0
M  V30 25384 C 2330.43 -0.704357 -2.1979 0
M  V30 25385 C 2331.4 0.306958 -1.63239 0
M  V30 25386 O 2332.59 0.192137 -1.8983 0
M  V30 25387 C 2329.73 -0.114305 -3.44911 0
M  V30 25388 C 2328.84 -1.17777 -4.15635 0
M  V30 25389 C 2327.98 -0.55213 -5.28323 0
M  V30 25390 C 2327.01 -1.598 -5.90873 0
M  V30 25391 N 2326.15 -0.994526 -6.95021 0
M  V30 25392 H 2330.99 -1.6034 -2.51187 0
M  V30 25393 H 2328.53 -0.801373 -1.23355 0
M  V30 25394 H 2330.49 0.245471 -4.16477 0
M  V30 25395 H 2329.12 0.748075 -3.14012 0
M  V30 25396 H 2328.17 -1.65505 -3.42509 0
M  V30 25397 H 2329.48 -1.97054 -4.58226 0
M  V30 25398 H 2328.63 -0.140306 -6.06538 0
M  V30 25399 H 2327.37 0.272345 -4.86939 0
M  V30 25400 H 2326.38 -2.01954 -5.11366 0
M  V30 25401 H 2327.6 -2.42486 -6.34332 0
M  V30 25402 H 2325.55 -0.191054 -6.55722 0
M  V30 25403 H 2325.47 -1.72445 -7.3607 0
M  V30 25404 H 2326.73 -0.60839 -7.77122 0
M  V30 25405 N 2330.96 1.31811 -0.863929 0
M  V30 25406 C 2331.89 2.31144 -0.330883 0
M  V30 25407 C 2332.87 1.60088 0.574977 0
M  V30 25408 O 2334.06 1.87831 0.493271 0
M  V30 25409 C 2331.19 3.44055 0.473679 0
M  V30 25410 C 2330.14 4.26659 -0.338556 0
M  V30 25411 C 2329.47 5.3142 0.591318 0
M  V30 25412 C 2330.77 4.98165 -1.56935 0
M  V30 25413 H 2332.46 2.75977 -1.16091 0
M  V30 25414 H 2330.01 1.32678 -0.559681 0
M  V30 25415 H 2331.96 4.12592 0.857071 0
M  V30 25416 H 2330.69 2.97973 1.33716 0
M  V30 25417 H 2329.35 3.5978 -0.703818 0
M  V30 25418 H 2328.99 4.8159 1.4519 0
M  V30 25419 H 2328.69 5.87577 0.0517989 0
M  V30 25420 H 2330.22 6.02819 0.971685 0
M  V30 25421 H 2331.63 5.59333 -1.25774 0
M  V30 25422 H 2330.03 5.6409 -2.04749 0
M  V30 25423 H 2331.1 4.25497 -2.32552 0
M  V30 25424 N 2332.44 0.62277 1.44773 0
M  V30 25425 C 2333.37 -0.0741451 2.33382 0
M  V30 25426 C 2334.35 -0.843361 1.47721 0
M  V30 25427 O 2335.54 -0.810903 1.7646 0
M  V30 25428 C 2332.67 -1.06198 3.30665 0
M  V30 25429 C 2331.62 -0.404962 4.2608 0
M  V30 25430 C 2330.95 -1.50211 5.13167 0
M  V30 25431 C 2332.25 0.683505 5.17808 0
M  V30 25432 H 2333.94 0.665765 2.91904 0
M  V30 25433 H 2331.49 0.321611 1.40363 0
M  V30 25434 H 2333.44 -1.5582 3.91533 0
M  V30 25435 H 2332.16 -1.83267 2.70334 0
M  V30 25436 H 2330.82 0.0705327 3.66532 0
M  V30 25437 H 2330.47 -2.26347 4.49195 0
M  V30 25438 H 2330.17 -1.06792 5.77814 0
M  V30 25439 H 2331.7 -2.00031 5.76906 0
M  V30 25440 H 2333.11 0.270731 5.7266 0
M  V30 25441 H 2331.51 1.04034 5.91014 0
M  V30 25442 H 2332.58 1.55403 4.59323 0
M  V30 25443 N 2333.92 -1.53367 0.362817 0
M  V30 25444 C 2335.17 -2.00818 -0.22729 0
M  V30 25445 C 2335.49 -1.25188 -1.49509 0
M  V30 25446 O 2334.76 -0.364382 -1.92481 0
M  V30 25447 H 2333.34 -0.741919 -0.0869792 0
M  V30 25448 H 2336 -1.88681 0.488414 0
M  V30 25449 H 2335.1 -3.08748 -0.456219 0
M  V30 25450 N 2335.4 -0.091913 -1.57332 0
M  V30 25451 C 2336.35 0.885709 -2.15077 0
M  V30 25452 C 2337.34 1.29439 -1.09279 0
M  V30 25453 O 2338.55 1.26929 -1.27629 0
M  V30 25454 H 2334.92 0.303644 -0.687971 0
M  V30 25455 H 2336.89 0.373943 -2.96048 0
M  V30 25456 C 2335.64 2.13633 -2.74329 0
M  V30 25457 H 2334.96 1.83074 -3.55421 0
M  V30 25458 H 2336.4 2.80104 -3.18305 0
M  V30 25459 C 2334.86 2.90824 -1.70067 0
M  V30 25460 O 2335.39 3.85252 -1.13769 0
M  V30 25461 N 2333.6 2.54305 -1.40633 0
M  V30 25462 H 2333.15 1.77587 -1.86603 0
M  V30 25463 H 2333.1 3.06253 -0.711096 0
M  V30 25464 N 2336.88 1.56548 0.181765 0
M  V30 25465 C 2338.1 1.85879 0.919987 0
M  V30 25466 C 2338.53 0.677052 1.75493 0
M  V30 25467 O 2337.88 -0.374025 1.774 0
M  V30 25468 C 2337.93 3.13545 1.78107 0
M  V30 25469 O 2337.04 2.95034 2.88147 0
M  V30 25470 H 2336.38 0.61169 0.258323 0
M  V30 25471 H 2338.91 2.03779 0.183056 0
M  V30 25472 H 2338.92 3.44682 2.18308 0
M  V30 25473 H 2337.59 3.99171 1.1677 0
M  V30 25474 H 2336.17 2.75226 2.51604 0
M  V30 25475 N 2338.35 -0.449957 1.5104 0
M  V30 25476 C 2339.28 -1.55284 1.74382 0
M  V30 25477 C 2340.27 -1.59419 0.593264 0
M  V30 25478 O 2341.45 -1.75349 0.834656 0
M  V30 25479 C 2338.58 -2.93463 1.85734 0
M  V30 25480 C 2337.53 -3.04192 3.01083 0
M  V30 25481 C 2336.86 -4.44226 2.97603 0
M  V30 25482 C 2338.16 -2.79442 4.41259 0
M  V30 25483 H 2339.85 -1.36003 2.66727 0
M  V30 25484 H 2337.4 -0.652842 1.28351 0
M  V30 25485 H 2339.35 -3.70566 2.00646 0
M  V30 25486 H 2338.08 -3.13947 0.900262 0
M  V30 25487 H 2336.74 -2.29526 2.85855 0
M  V30 25488 H 2336.38 -4.61659 1.99699 0
M  V30 25489 H 2336.08 -4.52337 3.75054 0
M  V30 25490 H 2337.61 -5.2332 3.14592 0
M  V30 25491 H 2339.02 -3.46284 4.56903 0
M  V30 25492 H 2337.42 -2.98976 5.2032 0
M  V30 25493 H 2338.49 -1.75137 4.52167 0
M  V30 25494 N 2339.83 -1.40974 -0.704569 0
M  V30 25495 C 2340.76 -1.44876 -1.83121 0
M  V30 25496 C 2341.74 -0.308409 -1.67281 0
M  V30 25497 O 2342.93 -0.518589 -1.87148 0
M  V30 25498 C 2340.06 -1.32142 -3.21179 0
M  V30 25499 C 2339.01 -2.43894 -3.5171 0
M  V30 25500 C 2338.34 -2.16231 -4.89028 0
M  V30 25501 C 2339.64 -3.86238 -3.51593 0
M  V30 25502 H 2341.33 -2.39164 -1.80113 0
M  V30 25503 H 2338.88 -1.15116 -0.865124 0
M  V30 25504 H 2340.83 -1.33486 -3.99699 0
M  V30 25505 H 2339.56 -0.343336 -3.2479 0
M  V30 25506 H 2338.21 -2.41818 -2.75535 0
M  V30 25507 H 2337.86 -1.16787 -4.89254 0
M  V30 25508 H 2337.56 -2.91109 -5.10421 0
M  V30 25509 H 2339.09 -2.19275 -5.69869 0
M  V30 25510 H 2340.5 -3.90078 -4.20134 0
M  V30 25511 H 2338.9 -4.60725 -3.84515 0
M  V30 25512 H 2339.97 -4.15033 -2.50749 0
M  V30 25513 N 2341.31 0.937917 -1.26653 0
M  V30 25514 C 2342.26 2.0371 -1.08493 0
M  V30 25515 C 2343.23 1.66096 0.0110038 0
M  V30 25516 O 2344.41 1.90214 -0.149387 0
M  V30 25517 C 2341.55 3.37347 -0.72741 0
M  V30 25518 C 2340.67 3.87978 -1.89993 0
M  V30 25519 C 2339.8 5.10014 -1.48522 0
M  V30 25520 C 2338.84 5.52915 -2.62585 0
M  V30 25521 N 2337.98 6.66154 -2.21773 0
M  V30 25522 H 2342.82 2.18576 -2.02555 0
M  V30 25523 H 2340.35 1.07091 -1.00846 0
M  V30 25524 H 2342.31 4.14181 -0.500993 0
M  V30 25525 H 2340.94 3.22319 0.176241 0
M  V30 25526 H 2339.99 3.07514 -2.23919 0
M  V30 25527 H 2341.31 4.15752 -2.75593 0
M  V30 25528 H 2340.46 5.94318 -1.21945 0
M  V30 25529 H 2339.2 4.83993 -0.600175 0
M  V30 25530 H 2338.2 4.67167 -2.89889 0
M  V30 25531 H 2339.43 5.80937 -3.51695 0
M  V30 25532 H 2337.37 6.4181 -1.35707 0
M  V30 25533 H 2337.29 6.93532 -3.00915 0
M  V30 25534 H 2338.56 7.53824 -1.98416 0
M  V30 25535 N 2342.79 1.08509 1.14296 0
M  V30 25536 C 2343.72 0.737685 2.21541 0
M  V30 25537 C 2344.7 -0.280347 1.67774 0
M  V30 25538 O 2345.88 -0.150487 1.93616 0
M  V30 25539 C 2343.01 0.14732 3.46987 0
M  V30 25540 C 2341.97 1.09382 4.13787 0
M  V30 25541 C 2341.29 0.365618 5.33449 0
M  V30 25542 C 2342.59 2.43238 4.62204 0
M  V30 25543 H 2344.29 1.63435 2.50858 0
M  V30 25544 H 2341.83 0.787264 1.20574 0
M  V30 25545 H 2343.79 -0.107734 4.21262 0
M  V30 25546 H 2342.51 -0.784483 3.17039 0
M  V30 25547 H 2341.17 1.33399 3.41468 0
M  V30 25548 H 2340.82 -0.570022 4.9976 0
M  V30 25549 H 2340.52 0.996614 5.79087 0
M  V30 25550 H 2342.04 0.118641 6.10485 0
M  V30 25551 H 2343.46 2.23481 5.27948 0
M  V30 25552 H 2341.85 3.0204 5.18548 0
M  V30 25553 H 2342.92 3.04687 3.77218 0
M  V30 25554 N 2344.27 -1.31351 0.870907 0
M  V30 25555 C 2345.18 -2.32256 0.330824 0
M  V30 25556 C 2346.19 -1.64751 -0.559738 0
M  V30 25557 O 2347.37 -1.96165 -0.456229 0
M  V30 25558 C 2344.43 -3.43661 -0.458076 0
M  V30 25559 C 2343.49 -4.26822 0.460557 0
M  V30 25560 C 2342.73 -5.32907 -0.290787 0
M  V30 25561 O 2342.95 -5.49809 -1.51875 0
M  V30 25562 O 2341.88 -6.00871 0.351837 0
M  V30 25563 H 2345.71 -2.80374 1.16723 0
M  V30 25564 H 2343.3 -1.35266 0.634309 0
M  V30 25565 H 2345.18 -4.11561 -0.905271 0
M  V30 25566 H 2343.85 -2.97703 -1.27101 0
M  V30 25567 H 2342.76 -3.61672 0.95627 0
M  V30 25568 H 2344.09 -4.76347 1.23911 0
M  V30 25569 N 2345.74 -0.630439 -1.44441 0
M  V30 25570 C 2346.99 -0.134386 -2.01653 0
M  V30 25571 C 2347.31 1.24794 -1.49838 0
M  V30 25572 O 2346.58 1.82901 -0.701716 0
M  V30 25573 H 2345.16 -0.04669 -0.745539 0
M  V30 25574 H 2347.83 -0.816986 -1.7695 0
M  V30 25575 H 2346.92 -0.101552 -3.11935 0
M  V30 25576 N 2347.22 1.53172 -0.370945 0
M  V30 25577 C 2348.5 1.93675 0.27372 0
M  V30 25578 C 2348.88 1.30493 1.65936 0
M  V30 25579 O 2348.23 0.466039 2.23697 0
M  V30 25580 C 2348.44 3.47543 0.31854 0
M  V30 25581 C 2349.79 4.2094 0.556318 0
M  V30 25582 O 2350.81 3.53952 0.399525 0
M  V30 25583 O 2349.67 5.39658 0.862038 0
M  V30 25584 H 2346.76 0.810284 0.165434 0
M  V30 25585 H 2349.31 1.64315 -0.424119 0
M  V30 25586 H 2348.08 3.85817 -0.652755 0
M  V30 25587 H 2347.7 3.83153 1.06206 0
M  V30 25588 N 2348.7 0.100255 1.57281 0
M  V30 25589 C 2349.98 -0.604779 1.86016 0
M  V30 25590 C 2350.36 -1.86016 0.998057 0
M  V30 25591 O 2349.71 -2.28387 0.0718585 0
M  V30 25592 C 2349.92 -0.915219 3.36786 0
M  V30 25593 C 2351.26 -1.27643 4.0496 0
M  V30 25594 O 2352.29 -1.00607 3.41697 0
M  V30 25595 O 2351.15 -1.783 5.16596 0
M  V30 25596 H 2348.24 -0.303171 0.769426 0
M  V30 25597 H 2350.79 0.133343 1.69175 0
M  V30 25598 H 2349.56 -0.0248208 3.91292 0
M  V30 25599 H 2349.18 -1.70914 3.5899 0
M  V30 25600 N 2350.18 -1.56643 -0.17346 0
M  V30 25601 C 2351.6 -1.50713 -0.525148 0
M  V30 25602 C 2351.8 -0.804139 -1.84759 0
M  V30 25603 O 2350.85 -0.363618 -2.49868 0
M  V30 25604 C 2352.16 -2.95442 -0.559885 0
M  V30 25605 C 2353.71 -3.06235 -0.647234 0
M  V30 25606 C 2354.19 -4.52418 -0.712884 0
M  V30 25607 N 2355.68 -4.56656 -0.775831 0
M  V30 25608 C 2356.41 -5.67107 -0.847164 0
M  V30 25609 N 2355.91 -6.87195 -0.879464 0
M  V30 25610 N 2357.7 -5.55073 -0.88602 0
M  V30 25611 H 2349.85 -2.00752 0.693717 0
M  V30 25612 H 2352.12 -0.914481 0.249857 0
M  V30 25613 H 2351.82 -3.50022 0.34311 0
M  V30 25614 H 2351.7 -3.49971 -1.40712 0
M  V30 25615 H 2354.08 -2.5169 -1.54066 0
M  V30 25616 H 2354.16 -2.54794 0.226631 0
M  V30 25617 H 2353.81 -5.07594 0.176273 0
M  V30 25618 H 2353.74 -5.01613 -1.60286 0
M  V30 25619 H 2356.23 -3.70194 -0.759239 0
M  V30 25620 H 2356.54 -7.67123 -0.935009 0
M  V30 25621 H 2354.89 -6.8981 -0.847777 0
M  V30 25622 H 2358.08 -4.60174 -0.857772 0
M  V30 25623 H 2358.25 -6.41173 -0.93815 0
M  V30 25624 N 2351.66 0.44194 -1.51277 0
M  V30 25625 C 2352.59 1.54358 -1.75203 0
M  V30 25626 C 2353.57 1.59102 -0.60171 0
M  V30 25627 O 2354.75 1.74903 -0.843944 0
M  V30 25628 C 2351.88 2.92474 -1.87287 0
M  V30 25629 C 2350.84 3.02591 -3.02692 0
M  V30 25630 C 2350.16 4.42641 -2.99955 0
M  V30 25631 C 2351.46 2.77098 -4.42735 0
M  V30 25632 H 2353.16 1.34587 -2.67445 0
M  V30 25633 H 2350.7 0.646026 -1.28695 0
M  V30 25634 H 2352.66 3.69497 -2.02609 0
M  V30 25635 H 2351.38 3.13465 -0.916899 0
M  V30 25636 H 2350.04 2.28007 -2.87069 0
M  V30 25637 H 2349.69 4.60594 -2.02144 0
M  V30 25638 H 2349.39 4.50341 -3.77447 0
M  V30 25639 H 2350.91 5.21644 -3.17363 0
M  V30 25640 H 2352.33 3.43856 -4.58733 0
M  V30 25641 H 2350.72 2.96213 -5.21899 0
M  V30 25642 H 2351.79 1.72736 -4.5309 0
M  V30 25643 N 2353.14 1.41345 0.697083 0
M  V30 25644 C 2354.41 1.31112 1.45152 0
M  V30 25645 C 2354.79 -0.0620078 2.11009 0
M  V30 25646 O 2354.14 -1.07614 2.01572 0
M  V30 25647 C 2354.35 2.46342 2.47218 0
M  V30 25648 C 2355.7 2.87436 3.12515 0
M  V30 25649 O 2356.72 2.4607 2.57542 0
M  V30 25650 O 2355.58 3.58964 4.12077 0
M  V30 25651 H 2352.68 0.5159 0.646356 0
M  V30 25652 H 2355.22 1.53306 0.727689 0
M  V30 25653 H 2353.99 3.37977 1.97198 0
M  V30 25654 H 2353.62 2.26016 3.27112 0
M  V30 25655 N 2354.61 -0.931187 1.27148 0
M  V30 25656 C 2355.55 -2.03178 1.03893 0
M  V30 25657 C 2356.52 -1.62552 -0.039543 0
M  V30 25658 O 2357.71 -1.88208 0.1049 0
M  V30 25659 C 2354.84 -3.33779 0.575285 0
M  V30 25660 C 2353.88 -3.93382 1.64781 0
M  V30 25661 S 2354.71 -4.26407 3.2394 0
M  V30 25662 C 2355.87 -5.60093 2.79368 0
M  V30 25663 H 2356.1 -2.22592 1.97079 0
M  V30 25664 H 2353.64 -1.07385 1.1094 0
M  V30 25665 H 2355.59 -4.09294 0.314457 0
M  V30 25666 H 2354.26 -3.12293 -0.33645 0
M  V30 25667 H 2353.45 -4.87616 1.27463 0
M  V30 25668 H 2353.05 -3.24438 1.86053 0
M  V30 25669 H 2355.34 -6.39239 2.24454 0
M  V30 25670 H 2356.29 -6.02307 3.72333 0
M  V30 25671 H 2356.69 -5.20448 2.18619 0
M  V30 25672 N 2356.09 -1.09114 -1.13719 0
M  V30 25673 C 2357.04 -0.722258 -2.21102 0
M  V30 25674 C 2358.03 0.275344 -1.67147 0
M  V30 25675 O 2359.24 0.137144 -1.79477 0
M  V30 25676 H 2355.61 -0.215565 -0.720441 0
M  V30 25677 H 2357.59 -1.63714 -2.4948 0
M  V30 25678 C 2356.33 -0.155491 -3.47352 0
M  V30 25679 H 2355.66 -0.914314 -3.89205 0
M  V30 25680 H 2357.1 0.0647221 -4.23951 0
M  V30 25681 C 2355.56 1.10847 -3.18142 0
M  V30 25682 O 2356.09 2.19221 -3.36608 0
M  V30 25683 N 2354.29 1.02171 -2.72047 0
M  V30 25684 H 2353.84 0.139719 -2.57221 0
M  V30 25685 H 2353.8 1.86815 -2.52878 0
M  V30 25686 N 2357.57 1.30887 -0.877861 0
M  V30 25687 C 2358.81 1.98207 -0.499336 0
M  V30 25688 C 2359.17 1.67828 0.93262 0
M  V30 25689 O 2360.37 2.28424 1.4169 0
M  V30 25690 C 2358.65 3.49263 -0.758282 0
M  V30 25691 S 2360.2 4.36158 -0.480796 0
M  V30 25692 H 2357.02 0.68622 -0.186074 0
M  V30 25693 H 2359.62 1.59137 -1.13559 0
M  V30 25694 H 2358.33 3.68864 -1.7991 0
M  V30 25695 H 2357.86 3.93248 -0.109316 0
M  V30 25696 H 2359.87 4.91468 0.683611 0
M  V30 25697 N 2359.05 0.638091 1.44105 0
M  V30 25698 C 2360.28 0.152651 2.06336 0
M  V30 25699 C 2360.69 -1.1756 1.47733 0
M  V30 25700 O 2360.05 -1.72256 0.602836 0
M  V30 25701 C 2360.1 0.0392126 3.61479 0
M  V30 25702 O 2359.82 1.31495 4.179 0
M  V30 25703 C 2361.32 -0.474099 4.40758 0
M  V30 25704 H 2358.54 0.0828893 0.665861 0
M  V30 25705 H 2361.08 0.874463 1.8486 0
M  V30 25706 H 2359.24 -0.633075 3.82192 0
M  V30 25707 H 2359.65 1.1643 5.11414 0
M  V30 25708 H 2361.13 -0.502466 5.49708 0
M  V30 25709 H 2361.6 -1.50251 4.127 0
M  V30 25710 H 2362.21 0.165176 4.24979 0
M  V30 25711 N 2360.53 -1.52973 0.379063 0
M  V30 25712 C 2361.46 -2.2907 -0.452665 0
M  V30 25713 C 2362.44 -1.32041 -1.07235 0
M  V30 25714 O 2363.62 -1.60925 -1.08705 0
M  V30 25715 C 2360.75 -3.08995 -1.58554 0
M  V30 25716 C 2359.71 -4.13824 -1.09243 0
M  V30 25717 C 2359.03 -4.81911 -2.31659 0
M  V30 25718 C 2360.33 -5.22031 -0.16761 0
M  V30 25719 H 2362.03 -2.98845 0.182233 0
M  V30 25720 H 2359.57 -1.43724 0.0890845 0
M  V30 25721 H 2361.52 -3.60983 -2.17414 0
M  V30 25722 H 2360.25 -2.36935 -2.24788 0
M  V30 25723 H 2358.91 -3.62801 -0.526431 0
M  V30 25724 H 2358.56 -4.06409 -2.96379 0
M  V30 25725 H 2358.26 -5.52758 -1.9933 0
M  V30 25726 H 2359.78 -5.367 -2.9118 0
M  V30 25727 H 2361.19 -5.69441 -0.664086 0
M  V30 25728 H 2359.59 -6.00064 0.065432 0
M  V30 25729 H 2360.66 -4.7848 0.786431 0
M  V30 25730 N 2362 -0.108595 -1.57225 0
M  V30 25731 C 2363.41 0.418432 -1.81951 0
M  V30 25732 C 2363.77 1.6729 -1.0251 0
M  V30 25733 O 2362.89 2.1485 -0.258534 0
M  V30 25734 C 2363.49 0.765921 -3.30029 0
M  V30 25735 C 2362.04 1.23763 -3.55471 0
M  V30 25736 C 2361.19 0.241057 -2.7625 0
M  V30 25737 H 2364.14 -0.333868 -1.55148 0
M  V30 25738 H 2364.16 1.62428 -3.44089 0
M  V30 25739 H 2363.68 -0.147288 -3.8782 0
M  V30 25740 H 2361.78 2.16809 -3.03026 0
M  V30 25741 H 2361.89 1.19014 -4.64082 0
M  V30 25742 H 2360.25 0.725977 -2.44135 0
M  V30 25743 H 2361.04 -0.665066 -3.36796 0
M  V30 25744 N 2363.48 1.56732 0.16515 0
M  V30 25745 C 2364.73 1.82342 0.880775 0
M  V30 25746 C 2365.06 0.686653 1.81976 0
M  V30 25747 O 2364.31 -0.325663 1.92971 0
M  V30 25748 C 2364.61 3.14163 1.704 0
M  V30 25749 C 2364.28 4.41552 0.913397 0
M  V30 25750 C 2362.94 4.76151 0.69522 0
M  V30 25751 C 2365.29 5.1996 0.359257 0
M  V30 25752 C 2362.62 5.86634 -0.0880978 0
M  V30 25753 C 2364.97 6.31263 -0.411004 0
M  V30 25754 C 2363.63 6.64425 -0.639925 0
M  V30 25755 H 2362.9 0.667237 0.322299 0
M  V30 25756 H 2365.55 1.90947 0.145369 0
M  V30 25757 H 2363.86 3.00928 2.50898 0
M  V30 25758 H 2365.55 3.3119 2.26085 0
M  V30 25759 H 2362.14 4.14416 1.09349 0
M  V30 25760 H 2366.33 4.93619 0.515141 0
M  V30 25761 H 2361.58 6.10781 -0.275137 0
M  V30 25762 H 2365.76 6.91222 -0.847615 0
M  V30 25763 H 2363.38 7.49873 -1.24877 0
M  V30 25764 N 2364.96 -0.433911 1.51509 0
M  V30 25765 C 2366.18 -1.21 1.68445 0
M  V30 25766 C 2366.61 -1.84166 0.382669 0
M  V30 25767 O 2365.97 -1.68957 -0.65752 0
M  V30 25768 C 2366.02 -2.26722 2.80409 0
M  V30 25769 O 2365.12 -3.32288 2.44251 0
M  V30 25770 H 2364.46 -0.354353 0.561543 0
M  V30 25771 H 2366.99 -0.511989 1.9809 0
M  V30 25772 H 2367 -2.71452 3.04594 0
M  V30 25773 H 2365.68 -1.80126 3.7487 0
M  V30 25774 H 2364.25 -2.93011 2.30649 0
M  V30 25775 N 2366.44 -1.41713 -0.689577 0
M  V30 25776 C 2367.72 -1.3188 -1.44454 0
M  V30 25777 C 2368.1 0.0508166 -2.11039 0
M  V30 25778 O 2367.44 1.06544 -2.0214 0
M  V30 25779 C 2367.65 -2.47649 -2.45908 0
M  V30 25780 C 2369 -2.8909 -3.10986 0
M  V30 25781 O 2370.03 -2.47432 -2.56234 0
M  V30 25782 O 2368.88 -3.61144 -4.10167 0
M  V30 25783 H 2365.98 -0.51932 -0.643611 0
M  V30 25784 H 2368.52 -1.5369 -0.719549 0
M  V30 25785 H 2367.3 -3.39018 -1.95403 0
M  V30 25786 H 2366.92 -2.27748 -3.25909 0
M  V30 25787 N 2367.92 0.924431 -1.2764 0
M  V30 25788 C 2368.85 2.02983 -1.06445 0
M  V30 25789 C 2369.86 1.62788 -0.0195057 0
M  V30 25790 O 2371.05 1.76575 -0.261419 0
M  V30 25791 C 2368.15 3.33666 -0.593328 0
M  V30 25792 C 2367.32 4.02534 -1.7113 0
M  V30 25793 C 2366.38 5.11493 -1.23536 0
M  V30 25794 O 2365.41 5.35278 -1.93563 0
M  V30 25795 N 2366.61 5.80426 -0.0927698 0
M  V30 25796 H 2369.38 2.21726 -2.01637 0
M  V30 25797 H 2366.94 1.09503 -1.1925 0
M  V30 25798 H 2368.93 4.03872 -0.258757 0
M  V30 25799 H 2367.5 3.11471 0.265447 0
M  V30 25800 H 2366.72 3.26018 -2.21599 0
M  V30 25801 H 2368.01 4.45293 -2.46153 0
M  V30 25802 H 2367.4 5.6356 0.491642 0
M  V30 25803 H 2365.96 6.51544 0.182599 0
M  V30 25804 N 2369.39 1.09715 1.13139 0
M  V30 25805 C 2370.64 0.836257 1.84755 0
M  V30 25806 C 2370.97 -0.636566 1.83471 0
M  V30 25807 O 2370.25 -1.46887 1.27493 0
M  V30 25808 C 2370.53 1.37584 3.3278 0
M  V30 25809 C 2370.38 2.91499 3.42562 0
M  V30 25810 C 2371.7 1.01206 4.28305 0
M  V30 25811 H 2368.82 0.305248 0.670815 0
M  V30 25812 H 2371.46 1.35905 1.32777 0
M  V30 25813 H 2369.61 0.931164 3.77176 0
M  V30 25814 H 2371.29 3.44438 3.06856 0
M  V30 25815 H 2369.53 3.2848 2.83343 0
M  V30 25816 H 2370.2 3.24332 4.46668 0
M  V30 25817 H 2372.68 1.39563 3.91997 0
M  V30 25818 H 2371.55 1.41662 5.30305 0
M  V30 25819 H 2371.81 -0.0794056 4.42029 0
M  V30 25820 N 2370.87 -1.30419 0.88479 0
M  V30 25821 C 2372.12 -1.9644 0.503885 0
M  V30 25822 C 2372.45 -1.69685 -0.944488 0
M  V30 25823 O 2371.73 -1.00148 -1.66735 0
M  V30 25824 C 2372.01 -3.5157 0.779147 0
M  V30 25825 C 2371.86 -3.87842 2.27813 0
M  V30 25826 C 2373.18 -4.39358 0.255529 0
M  V30 25827 H 2370.3 -0.713521 0.184545 0
M  V30 25828 H 2372.94 -1.54295 1.10875 0
M  V30 25829 H 2371.09 -3.876 0.264342 0
M  V30 25830 H 2372.76 -3.61836 2.86133 0
M  V30 25831 H 2371.01 -3.35917 2.74485 0
M  V30 25832 H 2371.68 -4.9606 2.42134 0
M  V30 25833 H 2374.15 -4.10235 0.696151 0
M  V30 25834 H 2373.03 -5.46819 0.477457 0
M  V30 25835 H 2373.29 -4.33984 -0.843217 0
M  V30 25836 N 2372.35 -0.645724 -1.43764 0
M  V30 25837 C 2373.28 0.0370066 -2.33471 0
M  V30 25838 C 2374.26 0.819753 -1.49044 0
M  V30 25839 O 2375.45 0.782727 -1.77727 0
M  V30 25840 C 2372.58 1.00924 -3.32313 0
M  V30 25841 C 2371.53 0.337126 -4.2667 0
M  V30 25842 C 2370.86 1.42028 -5.15492 0
M  V30 25843 C 2372.16 -0.765797 -5.16655 0
M  V30 25844 H 2373.85 -0.71212 -2.90808 0
M  V30 25845 H 2371.4 -0.343901 -1.39833 0
M  V30 25846 H 2373.35 1.49571 -3.93962 0
M  V30 25847 H 2372.07 1.78943 -2.73216 0
M  V30 25848 H 2370.73 -0.128836 -3.66374 0
M  V30 25849 H 2370.38 2.19172 -4.52739 0
M  V30 25850 H 2370.08 0.975864 -5.7944 0
M  V30 25851 H 2371.6 1.90827 -5.80015 0
M  V30 25852 H 2373.02 -0.361802 -5.72157 0
M  V30 25853 H 2371.42 -1.13423 -5.89284 0
M  V30 25854 H 2372.49 -1.62691 -4.56793 0
M  V30 25855 N 2373.83 1.5277 -0.38717 0
M  V30 25856 C 2375.07 2.01851 0.19599 0
M  V30 25857 C 2375.41 1.27321 1.46639 0
M  V30 25858 O 2374.68 0.373065 1.90889 0
M  V30 25859 C 2374.97 3.57071 0.466073 0
M  V30 25860 C 2374.82 4.42272 -0.819463 0
M  V30 25861 C 2376.14 4.21749 1.2576 0
M  V30 25862 H 2373.26 0.733691 0.0697579 0
M  V30 25863 H 2375.9 1.8285 -0.516318 0
M  V30 25864 H 2374.05 3.73392 1.07287 0
M  V30 25865 H 2375.72 4.37707 -1.45638 0
M  V30 25866 H 2373.96 4.09369 -1.43524 0
M  V30 25867 H 2374.63 5.4889 -0.585161 0
M  V30 25868 H 2377.11 4.09393 0.744095 0
M  V30 25869 H 2375.99 5.30339 1.41532 0
M  V30 25870 H 2376.25 3.7924 2.27221 0
M  V30 25871 N 2375.31 0.116931 1.57166 0
M  V30 25872 C 2376.55 -0.540499 1.94738 0
M  V30 25873 C 2376.88 -1.67347 1.00099 0
M  V30 25874 O 2376.15 -1.95817 0.0569199 0
M  V30 25875 H 2374.73 -0.202656 0.718985 0
M  V30 25876 H 2377.39 0.185388 1.94016 0
M  V30 25877 H 2376.48 -0.936431 2.9772 0
M  V30 25878 N 2376.78 -1.56818 -0.156836 0
M  V30 25879 C 2378.01 -1.86956 -0.886283 0
M  V30 25880 C 2378.43 -0.704006 -1.75183 0
M  V30 25881 O 2377.78 0.326521 -1.79555 0
M  V30 25882 C 2377.84 -3.16257 -1.75112 0
M  V30 25883 O 2377.56 -4.28321 -0.920461 0
M  V30 25884 C 2379.06 -3.59842 -2.58899 0
M  V30 25885 H 2376.28 -0.619928 -0.256769 0
M  V30 25886 H 2378.82 -2.0393 -0.152579 0
M  V30 25887 H 2376.98 -3.01066 -2.43799 0
M  V30 25888 H 2377.39 -5.02195 -1.51329 0
M  V30 25889 H 2378.86 -4.53178 -3.15172 0
M  V30 25890 H 2379.34 -2.84655 -3.34467 0
M  V30 25891 H 2379.95 -3.77693 -1.95519 0
M  V30 25892 N 2378.26 0.425871 -1.51737 0
M  V30 25893 C 2379.17 1.54272 -1.76741 0
M  V30 25894 C 2380.19 1.61317 -0.652138 0
M  V30 25895 O 2381.36 1.78345 -0.935686 0
M  V30 25896 C 2378.43 2.90159 -1.8976 0
M  V30 25897 C 2377.49 2.93137 -3.13638 0
M  V30 25898 C 2376.72 4.22542 -3.26027 0
M  V30 25899 O 2376.95 5.15541 -2.44076 0
M  V30 25900 O 2375.88 4.32038 -4.19078 0
M  V30 25901 H 2379.71 1.36084 -2.71505 0
M  V30 25902 H 2377.29 0.610045 -1.36377 0
M  V30 25903 H 2379.17 3.70784 -2.00242 0
M  V30 25904 H 2377.85 3.0845 -0.981839 0
M  V30 25905 H 2376.76 2.11425 -3.08626 0
M  V30 25906 H 2378.09 2.79792 -4.04941 0
M  V30 25907 N 2379.74 1.42077 0.682052 0
M  V30 25908 C 2380.65 1.47374 1.82532 0
M  V30 25909 C 2381.67 0.363109 1.70169 0
M  V30 25910 O 2382.84 0.612908 1.91847 0
M  V30 25911 C 2379.91 1.36679 3.18622 0
M  V30 25912 C 2378.97 2.58173 3.42995 0
M  V30 25913 C 2378.2 2.47979 4.72591 0
M  V30 25914 O 2378.42 1.5117 5.50004 0
M  V30 25915 O 2377.36 3.37982 4.98048 0
M  V30 25916 H 2381.18 2.43856 1.81019 0
M  V30 25917 H 2378.77 1.23762 0.836865 0
M  V30 25918 H 2380.65 1.3305 3.99845 0
M  V30 25919 H 2379.33 0.433195 3.20788 0
M  V30 25920 H 2378.23 2.67378 2.61648 0
M  V30 25921 H 2379.57 3.50407 3.45653 0
M  V30 25922 N 2381.22 -0.917649 1.28129 0
M  V30 25923 C 2382.47 -1.6631 1.14828 0
M  V30 25924 C 2382.79 -1.9261 -0.304345 0
M  V30 25925 O 2382.06 -1.53949 -1.21146 0
M  V30 25926 H 2380.64 -0.616405 0.421964 0
M  V30 25927 H 2383.3 -1.10131 1.60802 0
M  V30 25928 H 2382.4 -2.62709 1.68494 0
M  V30 25929 N 2382.7 -1.10314 -1.12555 0
M  V30 25930 C 2383.63 -0.772837 -2.20339 0
M  V30 25931 C 2384.61 0.25362 -1.68199 0
M  V30 25932 O 2385.79 0.119665 -1.93831 0
M  V30 25933 C 2382.92 -0.202504 -3.46709 0
M  V30 25934 C 2381.88 -1.15951 -4.11994 0
M  V30 25935 C 2381.2 -0.450438 -5.32799 0
M  V30 25936 C 2382.5 -2.5056 -4.58276 0
M  V30 25937 H 2384.2 -1.67405 -2.48226 0
M  V30 25938 H 2381.74 -0.806347 -1.19307 0
M  V30 25939 H 2383.7 0.0407012 -4.2138 0
M  V30 25940 H 2382.42 0.733945 -3.18246 0
M  V30 25941 H 2381.08 -1.38814 -3.39302 0
M  V30 25942 H 2380.73 0.490443 -5.00603 0
M  V30 25943 H 2380.43 -1.08862 -5.77428 0
M  V30 25944 H 2381.95 -0.215749 -6.10219 0
M  V30 25945 H 2383.37 -2.31852 -5.24326 0
M  V30 25946 H 2381.76 -3.10251 -5.13677 0
M  V30 25947 H 2382.83 -3.1065 -3.72323 0
M  V30 25948 N 2384.18 1.29948 -0.891694 0
M  V30 25949 C 2385.41 1.99741 -0.527928 0
M  V30 25950 C 2385.81 1.66973 0.88976 0
M  V30 25951 O 2385.16 0.906695 1.59765 0
M  V30 25952 C 2385.22 3.53921 -0.630866 0
M  V30 25953 C 2384.88 4.10224 -2.01408 0
M  V30 25954 C 2385.88 4.25718 -2.98429 0
M  V30 25955 C 2383.56 4.45445 -2.32129 0
M  V30 25956 C 2385.56 4.75655 -4.24301 0
M  V30 25957 C 2383.25 4.95079 -3.58245 0
M  V30 25958 C 2384.24 5.10138 -4.54146 0
M  V30 25959 O 2383.93 5.58698 -5.78024 0
M  V30 25960 H 2383.66 0.645125 -0.201965 0
M  V30 25961 H 2386.22 1.66644 -1.20079 0
M  V30 25962 H 2384.45 3.86573 0.0989936 0
M  V30 25963 H 2386.14 4.04951 -0.27741 0
M  V30 25964 H 2386.9 3.98804 -2.76008 0
M  V30 25965 H 2382.78 4.32988 -1.58248 0
M  V30 25966 H 2386.33 4.87323 -4.99161 0
M  V30 25967 H 2382.22 5.21431 -3.805 0
M  V30 25968 H 2382.99 5.77028 -5.805 0
M  V30 25969 N 2385.65 0.653339 1.4342 0
M  V30 25970 C 2386.62 -0.0287548 2.29182 0
M  V30 25971 C 2387.62 -0.75044 1.42215 0
M  V30 25972 O 2388.81 -0.591672 1.63844 0
M  V30 25973 C 2385.94 -1.05145 3.2428 0
M  V30 25974 H 2387.13 0.725838 2.90984 0
M  V30 25975 H 2384.68 0.414572 1.50702 0
M  V30 25976 H 2385.42 -1.83527 2.67373 0
M  V30 25977 H 2385.2 -0.537619 3.88397 0
M  V30 25978 H 2386.69 -1.52779 3.88649 0
M  V30 25979 N 2387.13 -1.52563 0.395266 0
M  V30 25980 C 2388.06 -2.29538 -0.428344 0
M  V30 25981 C 2389.04 -1.33171 -1.05828 0
M  V30 25982 O 2390.23 -1.62069 -1.06992 0
M  V30 25983 C 2387.36 -3.10659 -1.55268 0
M  V30 25984 C 2386.31 -4.14959 -1.04848 0
M  V30 25985 C 2385.64 -4.84341 -2.26535 0
M  V30 25986 C 2386.94 -5.22179 -0.112232 0
M  V30 25987 H 2388.63 -2.98635 0.213919 0
M  V30 25988 H 2386.18 -1.43622 0.104323 0
M  V30 25989 H 2388.13 -3.63269 -2.13573 0
M  V30 25990 H 2386.85 -2.39306 -2.22262 0
M  V30 25991 H 2385.51 -3.63339 -0.487921 0
M  V30 25992 H 2385.16 -4.0953 -2.92052 0
M  V30 25993 H 2384.86 -5.54841 -1.93457 0
M  V30 25994 H 2386.39 -5.39758 -2.85471 0
M  V30 25995 H 2387.8 -5.70113 -0.603652 0
M  V30 25996 H 2386.2 -5.99961 0.129073 0
M  V30 25997 H 2387.27 -4.77619 0.837136 0
M  V30 25998 N 2388.61 -0.125265 -1.57101 0
M  V30 25999 C 2389.56 0.839889 -2.16907 0
M  V30 26000 C 2390.55 1.27092 -1.12 0
M  V30 26001 O 2391.76 1.24193 -1.30293 0
M  V30 26002 H 2388.13 0.288982 -0.694257 0
M  V30 26003 H 2390.1 0.311063 -2.96774 0
M  V30 26004 C 2388.85 2.07766 -2.78799 0
M  V30 26005 H 2388.18 1.75494 -3.59224 0
M  V30 26006 H 2389.62 2.73289 -3.24175 0
M  V30 26007 C 2388.07 2.87152 -1.76198 0
M  V30 26008 O 2388.6 3.82752 -1.21916 0
M  V30 26009 N 2386.81 2.51264 -1.45995 0
M  V30 26010 H 2386.36 1.73589 -1.90328 0
M  V30 26011 H 2386.32 3.04676 -0.775897 0
M  V30 26012 N 2390.09 1.56899 0.148518 0
M  V30 26013 C 2391.33 1.83537 0.862662 0
M  V30 26014 C 2391.67 0.706635 1.80888 0
M  V30 26015 O 2390.94 -0.289851 1.92328 0
M  V30 26016 C 2391.22 3.20665 1.63847 0
M  V30 26017 C 2391.08 4.44099 0.713847 0
M  V30 26018 C 2392.4 3.54996 2.60127 0
M  V30 26019 H 2389.52 0.667623 0.312167 0
M  V30 26020 H 2392.16 1.89569 0.12792 0
M  V30 26021 H 2390.31 3.15654 2.26483 0
M  V30 26022 H 2391.98 4.61195 0.0986049 0
M  V30 26023 H 2390.22 4.33794 0.0233256 0
M  V30 26024 H 2390.89 5.3665 1.29268 0
M  V30 26025 H 2393.37 3.60607 2.0761 0
M  V30 26026 H 2392.25 4.51977 3.1146 0
M  V30 26027 H 2392.51 2.80874 3.41412 0
M  V30 26028 N 2391.57 -0.417818 1.51961 0
M  V30 26029 C 2392.5 -1.51551 1.77636 0
M  V30 26030 C 2393.48 -1.58125 0.626946 0
M  V30 26031 O 2394.66 -1.73539 0.871662 0
M  V30 26032 C 2391.79 -2.89457 1.91917 0
M  V30 26033 C 2390.75 -2.97737 3.07468 0
M  V30 26034 C 2390.07 -4.37813 3.06959 0
M  V30 26035 C 2391.37 -2.70019 4.47087 0
M  V30 26036 H 2393.07 -1.30315 2.69552 0
M  V30 26037 H 2390.61 -0.625469 1.29707 0
M  V30 26038 H 2392.56 -3.66226 2.08461 0
M  V30 26039 H 2391.29 -3.11967 0.966653 0
M  V30 26040 H 2389.95 -2.23411 2.9066 0
M  V30 26041 H 2389.6 -4.5732 2.09446 0
M  V30 26042 H 2389.3 -4.4428 3.84564 0
M  V30 26043 H 2390.82 -5.16529 3.25622 0
M  V30 26044 H 2392.23 -3.36514 4.64145 0
M  V30 26045 H 2390.63 -2.87872 5.26545 0
M  V30 26046 H 2391.7 -1.65506 4.5578 0
M  V30 26047 N 2393.04 -1.42436 -0.674508 0
M  V30 26048 C 2393.99 -1.45937 -1.78804 0
M  V30 26049 C 2394.96 -0.3113 -1.63157 0
M  V30 26050 O 2396.15 -0.515415 -1.83707 0
M  V30 26051 C 2393.29 -1.36779 -3.16837 0
M  V30 26052 C 2392.4 -2.61623 -3.43769 0
M  V30 26053 C 2391.53 -2.44605 -4.71531 0
M  V30 26054 C 2390.57 -3.64822 -4.91499 0
M  V30 26055 N 2389.71 -3.46744 -6.10502 0
M  V30 26056 H 2394.55 -2.41097 -1.75147 0
M  V30 26057 H 2392.09 -1.19699 -0.855019 0
M  V30 26058 H 2394.04 -1.29466 -3.96603 0
M  V30 26059 H 2392.67 -0.452145 -3.19618 0
M  V30 26060 H 2391.73 -2.79301 -2.58254 0
M  V30 26061 H 2393.04 -3.50984 -3.54417 0
M  V30 26062 H 2392.19 -2.3488 -5.59389 0
M  V30 26063 H 2390.93 -1.52734 -4.63167 0
M  V30 26064 H 2389.94 -3.74979 -4.02083 0
M  V30 26065 H 2391.16 -4.57674 -5.01708 0
M  V30 26066 H 2389.11 -2.57591 -6.0331 0
M  V30 26067 H 2389.02 -4.29693 -6.22013 0
M  V30 26068 H 2390.29 -3.40832 -7.01038 0
M  V30 26069 N 2394.52 0.910841 -1.28614 0
M  V30 26070 C 2395.47 2.03499 -1.12653 0
M  V30 26071 C 2396.46 1.6934 -0.0450352 0
M  V30 26072 O 2397.67 1.7884 -0.204019 0
M  V30 26073 H 2394.04 0.666816 -0.34765 0
M  V30 26074 H 2396.02 2.14102 -2.07853 0
M  V30 26075 C 2394.76 3.38177 -0.808203 0
M  V30 26076 H 2394.09 3.64957 -1.63237 0
M  V30 26077 H 2395.53 4.17554 -0.736499 0
M  V30 26078 C 2393.99 3.33344 0.488168 0
M  V30 26079 O 2394.52 3.7193 1.5176 0
M  V30 26080 N 2392.72 2.8644 0.489959 0
M  V30 26081 H 2392.27 2.55236 -0.348206 0
M  V30 26082 H 2392.23 2.83589 1.35736 0
M  V30 26083 N 2396 1.10909 1.11969 0
M  V30 26084 C 2397.23 0.877097 1.87941 0
M  V30 26085 C 2397.65 -0.567283 1.79342 0
M  V30 26086 O 2397.01 -1.40007 1.15186 0
M  V30 26087 C 2397.06 1.33635 3.34924 0
M  V30 26088 O 2396.16 0.504519 4.09302 0
M  V30 26089 H 2395.5 0.316382 0.58378 0
M  V30 26090 H 2398.03 1.47715 1.41568 0
M  V30 26091 H 2398.04 1.32844 3.85767 0
M  V30 26092 H 2396.72 2.38816 3.40499 0
M  V30 26093 H 2395.29 0.578058 3.68392 0
M  V30 26094 N 2397.48 -1.29474 0.898573 0
M  V30 26095 C 2398.41 -2.30185 0.392051 0
M  V30 26096 C 2399.39 -1.61556 -0.532331 0
M  V30 26097 O 2400.57 -1.89073 -0.443298 0
M  V30 26098 C 2397.7 -3.4519 -0.382293 0
M  V30 26099 C 2396.66 -4.25611 0.451558 0
M  V30 26100 C 2395.98 -5.32801 -0.450214 0
M  V30 26101 C 2397.28 -4.93829 1.70088 0
M  V30 26102 H 2398.98 -2.72802 1.23367 0
M  V30 26103 H 2396.52 -1.31148 0.594661 0
M  V30 26104 H 2398.48 -4.14719 -0.747378 0
M  V30 26105 H 2397.2 -3.01413 -1.25769 0
M  V30 26106 H 2395.86 -3.57788 0.79896 0
M  V30 26107 H 2395.51 -4.8527 -1.32371 0
M  V30 26108 H 2395.21 -5.87508 0.104005 0
M  V30 26109 H 2396.73 -6.05183 -0.811516 0
M  V30 26110 H 2398.15 -5.55802 1.40559 0
M  V30 26111 H 2396.54 -5.58463 2.19633 0
M  V30 26112 H 2397.61 -4.19182 2.43752 0
M  V30 26113 N 2398.96 -0.660936 -1.43071 0
M  V30 26114 C 2400.18 -0.185458 -2.06067 0
M  V30 26115 C 2400.6 1.15195 -1.49584 0
M  V30 26116 O 2399.96 1.71275 -0.630164 0
M  V30 26117 C 2400.01 -0.0967158 -3.61371 0
M  V30 26118 O 2399.73 -1.38126 -4.15756 0
M  V30 26119 C 2401.23 0.403918 -4.41456 0
M  V30 26120 H 2398.45 -0.0934721 -0.664458 0
M  V30 26121 H 2400.99 -0.903762 -1.83446 0
M  V30 26122 H 2399.15 0.572191 -3.83151 0
M  V30 26123 H 2399.56 -1.24551 -5.09497 0
M  V30 26124 H 2401.04 0.414948 -5.50438 0
M  V30 26125 H 2401.51 1.43666 -4.15038 0
M  V30 26126 H 2402.12 -0.232766 -4.24663 0
M  V30 26127 N 2400.43 1.52351 -0.403352 0
M  V30 26128 C 2401.38 2.23671 0.442205 0
M  V30 26129 C 2402.37 1.24585 1.0182 0
M  V30 26130 O 2403.56 1.49852 0.941978 0
M  V30 26131 C 2400.69 3.05735 1.56145 0
M  V30 26132 C 2399.78 4.12226 0.996503 0
M  V30 26133 N 2400.17 5.05554 0.157716 0
M  V30 26134 C 2398.46 4.27607 1.26759 0
M  V30 26135 C 2399.17 5.81491 -0.155956 0
M  V30 26136 N 2398.14 5.4172 0.45168 0
M  V30 26137 H 2401.94 2.93184 -0.205015 0
M  V30 26138 H 2399.46 1.60991 -0.213446 0
M  V30 26139 H 2401.45 3.55377 2.17975 0
M  V30 26140 H 2400.11 2.37759 2.21135 0
M  V30 26141 H 2401.13 5.1749 -0.20614 0
M  V30 26142 H 2397.8 3.70861 1.9175 0
M  V30 26143 H 2399.19 6.66673 -0.836446 0
M  V30 26144 N 2401.91 0.133594 1.57033 0
M  V30 26145 C 2403.16 -0.521614 1.95977 0
M  V30 26146 C 2403.49 -1.65391 1.01782 0
M  V30 26147 O 2402.77 -1.94414 0.0576923 0
M  V30 26148 C 2403.05 -1.04051 3.4474 0
M  V30 26149 C 2402.9 0.0893688 4.49711 0
M  V30 26150 C 2404.22 -1.92668 3.95686 0
M  V30 26151 H 2401.34 -0.188136 0.712582 0
M  V30 26152 H 2403.98 0.21211 1.88812 0
M  V30 26153 H 2402.13 -1.66577 3.50976 0
M  V30 26154 H 2403.8 0.725232 4.55563 0
M  V30 26155 H 2402.05 0.750453 4.27259 0
M  V30 26156 H 2402.72 -0.315187 5.51099 0
M  V30 26157 H 2405.19 -1.39991 3.91844 0
M  V30 26158 H 2404.07 -2.25888 5.00266 0
M  V30 26159 H 2404.33 -2.85866 3.37244 0
M  V30 26160 N 2403.39 -1.56975 -0.140195 0
M  V30 26161 C 2404.8 -1.73098 -0.699566 0
M  V30 26162 C 2405.15 -0.749054 -1.81338 0
M  V30 26163 O 2404.28 0.0828122 -2.16241 0
M  V30 26164 C 2404.87 -3.13862 -1.27577 0
M  V30 26165 C 2403.43 -3.31564 -1.78164 0
M  V30 26166 C 2402.58 -2.69014 -0.672807 0
M  V30 26167 H 2405.53 -1.58469 0.0855394 0
M  V30 26168 H 2405.55 -3.14239 -2.14556 0
M  V30 26169 H 2405.06 -3.85306 -0.464887 0
M  V30 26170 H 2403.16 -2.65129 -2.61796 0
M  V30 26171 H 2403.28 -4.39569 -1.90567 0
M  V30 26172 H 2401.64 -2.29667 -1.10114 0
M  V30 26173 H 2402.42 -3.43066 0.126739 0
M  V30 26174 N 2404.87 0.409753 -1.5218 0
M  V30 26175 C 2406.12 1.15448 -1.6588 0
M  V30 26176 C 2406.44 1.91044 -0.390804 0
M  V30 26177 O 2405.71 1.86668 0.59429 0
M  V30 26178 H 2404.29 0.429166 -0.611412 0
M  V30 26179 H 2406.95 0.467101 -1.8922 0
M  V30 26180 H 2406.05 1.86889 -2.49958 0
M  V30 26181 N 2406.35 1.42792 0.666944 0
M  V30 26182 C 2407.6 1.42971 1.42275 0
M  V30 26183 C 2407.91 0.0524833 1.9553 0
M  V30 26184 O 2409.11 -0.0683153 2.71414 0
M  V30 26185 C 2407.57 2.51528 2.57413 0
M  V30 26186 C 2407.18 3.95293 2.10825 0
M  V30 26187 C 2408.92 2.60883 3.34874 0
M  V30 26188 C 2406.83 4.95344 3.23092 0
M  V30 26189 H 2405.76 0.53179 0.534523 0
M  V30 26190 H 2408.41 1.6873 0.721272 0
M  V30 26191 H 2406.79 2.18947 3.29967 0
M  V30 26192 H 2407.97 4.37268 1.45373 0
M  V30 26193 H 2406.28 3.8986 1.46282 0
M  V30 26194 H 2408.88 3.3281 4.18499 0
M  V30 26195 H 2409.22 1.65496 3.8199 0
M  V30 26196 H 2409.75 2.92698 2.69393 0
M  V30 26197 H 2406.49 5.92235 2.80958 0
M  V30 26198 H 2406.01 4.57994 3.87301 0
M  V30 26199 H 2407.69 5.17421 3.88438 0
M  V30 26200 N 2407.82 -0.904008 1.29095 0
M  V30 26201 C 2409.07 -1.65083 1.16585 0
M  V30 26202 C 2409.39 -1.92922 -0.283899 0
M  V30 26203 O 2408.66 -1.55226 -1.19506 0
M  V30 26204 H 2407.24 -0.611895 0.428478 0
M  V30 26205 H 2409.91 -1.08419 1.61961 0
M  V30 26206 H 2409 -2.60907 1.71271 0
M  V30 26207 N 2409.3 -1.11501 -1.11379 0
M  V30 26208 C 2410.27 -0.777191 -2.15621 0
M  V30 26209 C 2411.27 0.203751 -1.59504 0
M  V30 26210 O 2412.46 -0.0208126 -1.74188 0
M  V30 26211 C 2409.59 -0.153176 -3.40556 0
M  V30 26212 H 2410.78 -1.70065 -2.47018 0
M  V30 26213 H 2408.33 -0.916974 -1.26575 0
M  V30 26214 H 2409.07 0.780481 -3.14768 0
M  V30 26215 H 2408.85 -0.859305 -3.82568 0
M  V30 26216 H 2410.34 0.067031 -4.17546 0
M  V30 26217 N 2410.78 1.28995 -0.905426 0
M  V30 26218 C 2412.03 1.95614 -0.535073 0
M  V30 26219 C 2412.36 1.71166 0.917374 0
M  V30 26220 O 2411.64 1.02788 1.65121 0
M  V30 26221 C 2411.92 3.50286 -0.83498 0
M  V30 26222 C 2411.77 3.84168 -2.33955 0
M  V30 26223 C 2413.09 4.38895 -0.325395 0
M  V30 26224 H 2410.21 0.710495 -0.195874 0
M  V30 26225 H 2412.85 1.52511 -1.13315 0
M  V30 26226 H 2411 3.8713 -0.325972 0
M  V30 26227 H 2412.67 3.57238 -2.91854 0
M  V30 26228 H 2410.92 3.31508 -2.79795 0
M  V30 26229 H 2411.59 4.92145 -2.49995 0
M  V30 26230 H 2414.06 4.09076 -0.761328 0
M  V30 26231 H 2412.94 5.45991 -0.564391 0
M  V30 26232 H 2413.2 4.35271 0.774067 0
M  V30 26233 N 2412.26 0.668514 1.42719 0
M  V30 26234 C 2413.51 0.188176 2.01624 0
M  V30 26235 C 2413.83 -1.20315 1.52822 0
M  V30 26236 O 2413.09 -1.82039 0.718355 0
M  V30 26237 C 2413.39 0.164562 3.57021 0
M  V30 26238 C 2413.05 1.4997 4.25229 0
M  V30 26239 C 2411.72 1.86528 4.43577 0
M  V30 26240 C 2414.07 2.37929 4.63723 0
M  V30 26241 C 2411.4 3.10682 4.97688 0
M  V30 26242 C 2413.75 3.6139 5.19211 0
M  V30 26243 C 2412.41 3.98125 5.35773 0
M  V30 26244 H 2411.68 0.0688583 0.737794 0
M  V30 26245 H 2414.33 0.862255 1.7099 0
M  V30 26246 H 2412.63 -0.593011 3.87286 0
M  V30 26247 H 2414.33 -0.224201 4.00373 0
M  V30 26248 H 2410.92 1.20529 4.11304 0
M  V30 26249 H 2415.11 2.10972 4.49227 0
M  V30 26250 H 2410.36 3.39173 5.08696 0
M  V30 26251 H 2414.54 4.29753 5.47983 0
M  V30 26252 H 2412.16 4.94405 5.77467 0
M  V30 26253 N 2413.74 -1.52135 0.411426 0
M  V30 26254 C 2414.67 -2.24772 -0.448347 0
M  V30 26255 C 2415.68 -1.2782 -1.00826 0
M  V30 26256 O 2416.87 -1.5375 -0.906814 0
M  V30 26257 C 2413.97 -2.9678 -1.63631 0
M  V30 26258 C 2413.14 -4.20621 -1.19988 0
M  V30 26259 C 2412.2 -4.75432 -2.25501 0
M  V30 26260 O 2411.23 -5.37953 -1.85997 0
M  V30 26261 N 2412.43 -4.57205 -3.57692 0
M  V30 26262 H 2415.2 -2.99194 0.174078 0
M  V30 26263 H 2412.76 -1.60127 0.238925 0
M  V30 26264 H 2414.75 -3.30342 -2.33787 0
M  V30 26265 H 2413.32 -2.25529 -2.16461 0
M  V30 26266 H 2412.54 -3.92847 -0.326352 0
M  V30 26267 H 2413.83 -5.01039 -0.885277 0
M  V30 26268 H 2413.23 -4.07348 -3.92536 0
M  V30 26269 H 2411.78 -4.95199 -4.23818 0
M  V30 26270 N 2415.22 -0.14192 -1.5696 0
M  V30 26271 C 2416.46 0.510393 -1.95136 0
M  V30 26272 C 2416.78 1.66347 -1.02899 0
M  V30 26273 O 2417.98 2.38007 -1.30633 0
M  V30 26274 C 2416.44 0.959366 -3.46878 0
M  V30 26275 C 2416.05 -0.166497 -4.47691 0
M  V30 26276 C 2417.79 1.58176 -3.9393 0
M  V30 26277 C 2415.7 0.300461 -5.90636 0
M  V30 26278 H 2414.63 0.194441 -0.728498 0
M  V30 26279 H 2417.28 -0.225452 -1.8211 0
M  V30 26280 H 2415.66 1.75032 -3.55218 0
M  V30 26281 H 2416.84 -0.943329 -4.51041 0
M  V30 26282 H 2415.15 -0.696977 -4.10526 0
M  V30 26283 H 2417.75 1.94266 -4.98161 0
M  V30 26284 H 2418.09 2.46882 -3.35194 0
M  V30 26285 H 2418.62 0.855795 -3.88486 0
M  V30 26286 H 2415.36 -0.551104 -6.53179 0
M  V30 26287 H 2414.88 1.04328 -5.90657 0
M  V30 26288 H 2416.56 0.754152 -6.4259 0
M  V30 26289 N 2416.69 1.57047 0.131868 0
M  V30 26290 C 2417.92 1.88069 0.855186 0
M  V30 26291 C 2418.33 0.729848 1.74556 0
M  V30 26292 O 2417.67 -0.308931 1.81084 0
M  V30 26293 C 2417.74 3.13967 1.75114 0
M  V30 26294 C 2417.4 4.45093 1.03639 0
M  V30 26295 C 2418.4 5.18486 0.383185 0
M  V30 26296 C 2416.08 4.91806 1.02139 0
M  V30 26297 C 2418.08 6.36805 -0.275459 0
M  V30 26298 C 2415.76 6.10045 0.35894 0
M  V30 26299 C 2416.76 6.82391 -0.288341 0
M  V30 26300 O 2416.45 7.98382 -0.940251 0
M  V30 26301 H 2416.18 0.627332 0.251853 0
M  V30 26302 H 2418.74 2.05021 0.124746 0
M  V30 26303 H 2416.97 2.93064 2.5229 0
M  V30 26304 H 2418.65 3.31113 2.34774 0
M  V30 26305 H 2419.42 4.83458 0.386477 0
M  V30 26306 H 2415.3 4.35408 1.51463 0
M  V30 26307 H 2418.84 6.93211 -0.78127 0
M  V30 26308 H 2414.74 6.44532 0.353367 0
M  V30 26309 H 2415.51 8.14143 -0.843433 0
M  V30 26310 N 2418.17 -0.401677 1.52395 0
M  V30 26311 C 2419.42 -1.14506 1.66046 0
M  V30 26312 C 2419.73 -1.91461 0.400249 0
M  V30 26313 O 2420.94 -2.68283 0.41668 0
M  V30 26314 C 2419.4 -2.08444 2.93392 0
M  V30 26315 C 2419 -1.36971 4.26548 0
M  V30 26316 C 2420.75 -2.82996 3.16407 0
M  V30 26317 C 2418.65 -2.29601 5.45011 0
M  V30 26318 H 2417.58 -0.431147 0.618569 0
M  V30 26319 H 2420.24 -0.408889 1.78886 0
M  V30 26320 H 2418.62 -2.85645 2.74268 0
M  V30 26321 H 2419.79 -0.650836 4.56181 0
M  V30 26322 H 2418.11 -0.744308 4.09694 0
M  V30 26323 H 2420.7 -3.52458 4.02091 0
M  V30 26324 H 2421.05 -3.46364 2.30949 0
M  V30 26325 H 2421.58 -2.12892 3.36038 0
M  V30 26326 H 2418.32 -1.70868 6.32838 0
M  V30 26327 H 2417.84 -2.9944 5.19707 0
M  V30 26328 H 2419.52 -2.89964 5.78385 0
M  V30 26329 N 2419.65 -1.43144 -0.659362 0
M  V30 26330 C 2420.9 -1.43723 -1.41515 0
M  V30 26331 C 2421.21 -0.062852 -1.95499 0
M  V30 26332 O 2422.42 0.0539206 -2.71446 0
M  V30 26333 C 2420.87 -2.5289 -2.56076 0
M  V30 26334 C 2420.48 -3.96406 -2.08726 0
M  V30 26335 C 2422.23 -2.62655 -3.33485 0
M  V30 26336 C 2420.13 -4.9705 -3.20461 0
M  V30 26337 H 2419.06 -0.534618 -0.531696 0
M  V30 26338 H 2421.71 -1.6911 -0.712314 0
M  V30 26339 H 2420.1 -2.20693 -3.28801 0
M  V30 26340 H 2421.27 -4.38033 -1.43052 0
M  V30 26341 H 2419.58 -3.9063 -1.44212 0
M  V30 26342 H 2422.18 -3.35025 -4.16729 0
M  V30 26343 H 2422.52 -1.6752 -3.81107 0
M  V30 26344 H 2423.06 -2.94123 -2.67837 0
M  V30 26345 H 2419.8 -5.93717 -2.77814 0
M  V30 26346 H 2419.32 -4.60041 -3.84866 0
M  V30 26347 H 2421 -5.19474 -3.85689 0
M  V30 26348 N 2421.13 0.897149 -1.29572 0
M  V30 26349 C 2422.07 2.00156 -1.14919 0
M  V30 26350 C 2423.04 1.66047 -0.0418441 0
M  V30 26351 O 2424.23 1.89643 -0.209826 0
M  V30 26352 C 2421.37 3.34862 -0.834366 0
M  V30 26353 C 2420.48 3.81737 -2.0224 0
M  V30 26354 C 2419.62 5.05031 -1.64673 0
M  V30 26355 C 2418.66 5.44282 -2.80043 0
M  V30 26356 N 2417.79 6.58761 -2.42854 0
M  V30 26357 H 2422.63 2.12021 -2.09407 0
M  V30 26358 H 2420.17 1.03828 -1.04202 0
M  V30 26359 H 2422.13 4.12377 -0.632508 0
M  V30 26360 H 2420.76 3.22716 0.0736089 0
M  V30 26361 H 2419.81 3.00234 -2.33589 0
M  V30 26362 H 2421.12 4.06774 -2.8868 0
M  V30 26363 H 2420.28 5.90138 -1.40791 0
M  V30 26364 H 2419.02 4.81839 -0.75385 0
M  V30 26365 H 2418.02 4.57707 -3.04605 0
M  V30 26366 H 2419.25 5.69454 -3.69999 0
M  V30 26367 H 2417.19 6.37167 -1.56057 0
M  V30 26368 H 2417.11 6.83607 -3.22827 0
M  V30 26369 H 2418.38 7.4713 -2.22298 0
M  V30 26370 N 2422.61 1.1209 1.10786 0
M  V30 26371 C 2423.88 0.785508 1.79134 0
M  V30 26372 C 2424.26 -0.725342 1.98247 0
M  V30 26373 O 2423.61 -1.65775 1.57261 0
M  V30 26374 C 2423.82 1.55641 3.12373 0
M  V30 26375 C 2425.17 1.74007 3.87307 0
M  V30 26376 O 2426.19 1.52123 3.22082 0
M  V30 26377 O 2425.05 2.10424 5.04365 0
M  V30 26378 H 2422.15 0.285325 0.776221 0
M  V30 26379 H 2424.69 1.22472 1.17468 0
M  V30 26380 H 2423.46 2.58385 2.93859 0
M  V30 26381 H 2423.09 1.11121 3.81756 0
M  V30 26382 N 2424.08 -1.28513 0.912254 0
M  V30 26383 C 2425.01 -2.29756 0.416443 0
M  V30 26384 C 2425.99 -1.62111 -0.515166 0
M  V30 26385 O 2427.18 -1.89532 -0.423219 0
M  V30 26386 C 2424.31 -3.45576 -0.345659 0
M  V30 26387 C 2423.26 -4.25108 0.496674 0
M  V30 26388 C 2422.59 -5.33249 -0.393678 0
M  V30 26389 C 2423.89 -4.91998 1.75316 0
M  V30 26390 H 2425.58 -2.71478 1.26254 0
M  V30 26391 H 2423.13 -1.3051 0.608538 0
M  V30 26392 H 2425.08 -4.15489 -0.703349 0
M  V30 26393 H 2423.81 -3.0273 -1.22565 0
M  V30 26394 H 2422.47 -3.5692 0.836863 0
M  V30 26395 H 2422.11 -4.86647 -1.27217 0
M  V30 26396 H 2421.81 -5.87365 0.166312 0
M  V30 26397 H 2423.34 -6.0601 -0.747283 0
M  V30 26398 H 2424.75 -5.5428 1.46446 0
M  V30 26399 H 2423.15 -5.56102 2.25544 0
M  V30 26400 H 2424.22 -4.16573 2.48184 0
M  V30 26401 N 2425.56 -0.676073 -1.42362 0
M  V30 26402 C 2426.47 0.00149265 -2.346 0
M  V30 26403 C 2427.49 0.787458 -1.55162 0
M  V30 26404 O 2428.66 0.729488 -1.87724 0
M  V30 26405 C 2425.73 0.940239 -3.33707 0
M  V30 26406 C 2424.79 0.148664 -4.29043 0
M  V30 26407 C 2424.02 1.0427 -5.23415 0
M  V30 26408 O 2424.25 2.28222 -5.22753 0
M  V30 26409 O 2423.18 0.50282 -5.99796 0
M  V30 26410 H 2427.01 -0.758319 -2.9408 0
M  V30 26411 H 2424.59 -0.436314 -1.42887 0
M  V30 26412 H 2426.47 1.4791 -3.94589 0
M  V30 26413 H 2425.15 1.67988 -2.76698 0
M  V30 26414 H 2424.06 -0.434335 -3.7157 0
M  V30 26415 H 2425.39 -0.551891 -4.89096 0
M  V30 26416 N 2427.04 1.51915 -0.419488 0
M  V30 26417 C 2427.99 2.27292 0.400887 0
M  V30 26418 C 2428.96 1.30133 1.03221 0
M  V30 26419 O 2430.14 1.59011 1.05452 0
M  V30 26420 C 2427.28 3.10507 1.50597 0
M  V30 26421 C 2426.4 4.22637 0.894546 0
M  V30 26422 C 2425.53 4.93192 1.97319 0
M  V30 26423 C 2424.57 5.97269 1.33925 0
M  V30 26424 N 2423.71 6.61302 2.35848 0
M  V30 26425 H 2428.55 2.96964 -0.248304 0
M  V30 26426 H 2426.08 1.46486 -0.134292 0
M  V30 26427 H 2428.04 3.57066 2.15777 0
M  V30 26428 H 2426.67 2.42985 2.12505 0
M  V30 26429 H 2425.72 3.80173 0.131516 0
M  V30 26430 H 2427.04 4.97261 0.391553 0
M  V30 26431 H 2426.19 5.43209 2.70202 0
M  V30 26432 H 2424.93 4.18159 2.50987 0
M  V30 26433 H 2423.93 5.46562 0.5958 0
M  V30 26434 H 2425.16 6.7425 0.810133 0
M  V30 26435 H 2423.1 5.89092 2.88629 0
M  V30 26436 H 2423.02 7.31633 1.9039 0
M  V30 26437 H 2424.29 7.15954 3.08269 0
M  V30 26438 N 2428.52 0.150242 1.56882 0
M  V30 26439 C 2429.45 -0.784245 2.19936 0
M  V30 26440 C 2430.43 -1.25467 1.14856 0
M  V30 26441 O 2431.61 -1.31165 1.43211 0
M  V30 26442 C 2428.74 -2.02224 2.82352 0
M  V30 26443 C 2427.7 -1.68846 3.93287 0
M  V30 26444 C 2427.02 -2.99936 4.42654 0
M  V30 26445 C 2428.32 -0.932623 5.13906 0
M  V30 26446 H 2430.02 -0.258729 2.9828 0
M  V30 26447 H 2427.56 -0.123004 1.43474 0
M  V30 26448 H 2429.52 -2.68082 3.25131 0
M  V30 26449 H 2428.24 -2.57154 2.01345 0
M  V30 26450 H 2426.9 -1.05365 3.51132 0
M  V30 26451 H 2426.55 -3.52863 3.58464 0
M  V30 26452 H 2426.25 -2.78365 5.17481 0
M  V30 26453 H 2427.77 -3.66859 4.88105 0
M  V30 26454 H 2429.19 -1.49336 5.53509 0
M  V30 26455 H 2427.58 -0.816735 5.94516 0
M  V30 26456 H 2428.65 0.0750421 4.84842 0
M  V30 26457 N 2430 -1.57115 -0.123538 0
M  V30 26458 C 2430.93 -2.03044 -1.15305 0
M  V30 26459 C 2431.91 -0.914086 -1.43452 0
M  V30 26460 O 2433.09 -1.18349 -1.53971 0
M  V30 26461 C 2430.22 -2.43093 -2.48038 0
M  V30 26462 C 2429.18 -3.58131 -2.34363 0
M  V30 26463 C 2428.5 -3.84065 -3.72019 0
M  V30 26464 C 2429.8 -4.9001 -1.80796 0
M  V30 26465 H 2431.5 -2.89301 -0.771051 0
M  V30 26466 H 2429.04 -1.3918 -0.369455 0
M  V30 26467 H 2431 -2.73828 -3.20306 0
M  V30 26468 H 2429.72 -1.53801 -2.88119 0
M  V30 26469 H 2428.38 -3.27598 -1.64545 0
M  V30 26470 H 2428.03 -2.91986 -4.09577 0
M  V30 26471 H 2427.73 -4.61496 -3.63724 0
M  V30 26472 H 2429.25 -4.17248 -4.45799 0
M  V30 26473 H 2430.66 -5.19311 -2.42877 0
M  V30 26474 H 2429.06 -5.7141 -1.83333 0
M  V30 26475 H 2430.13 -4.78824 -0.765196 0
M  V30 26476 N 2431.47 0.393589 -1.52606 0
M  V30 26477 C 2432.41 1.50199 -1.71801 0
M  V30 26478 C 2433.39 1.5244 -0.565769 0
M  V30 26479 O 2434.57 1.70914 -0.795017 0
M  V30 26480 C 2431.7 2.88682 -1.77145 0
M  V30 26481 C 2430.74 3.04287 -2.98851 0
M  V30 26482 S 2431.58 2.75968 -4.58914 0
M  V30 26483 C 2432.73 4.16652 -4.67067 0
M  V30 26484 H 2432.96 1.33691 -2.65545 0
M  V30 26485 H 2430.5 0.58617 -1.42841 0
M  V30 26486 H 2432.46 3.68486 -1.8091 0
M  V30 26487 H 2431.12 3.0252 -0.845022 0
M  V30 26488 H 2430.31 4.05641 -2.99118 0
M  V30 26489 H 2429.91 2.32369 -2.93054 0
M  V30 26490 H 2432.2 5.10515 -4.454 0
M  V30 26491 H 2433.15 4.21402 -5.69057 0
M  V30 26492 H 2433.55 4.02347 -3.95951 0
M  V30 26493 N 2432.95 1.43492 0.651762 0
M  V30 26494 C 2434.2 1.44472 1.40751 0
M  V30 26495 C 2434.51 0.0732189 1.95463 0
M  V30 26496 O 2435.72 -0.0395244 2.71471 0
M  V30 26497 C 2434.18 2.54244 2.54731 0
M  V30 26498 C 2433.78 3.97507 2.06621 0
M  V30 26499 C 2435.53 2.6442 3.32088 0
M  V30 26500 C 2433.44 4.98743 3.1782 0
M  V30 26501 H 2432.37 0.53743 0.528853 0
M  V30 26502 H 2435.02 1.69486 0.703335 0
M  V30 26503 H 2433.4 2.22434 3.27626 0
M  V30 26504 H 2434.57 4.38785 1.40727 0
M  V30 26505 H 2432.89 3.91389 1.42139 0
M  V30 26506 H 2435.48 3.3723 4.14946 0
M  V30 26507 H 2435.83 1.69538 3.80214 0
M  V30 26508 H 2436.36 2.95539 2.66274 0
M  V30 26509 H 2433.1 5.95182 2.74661 0
M  V30 26510 H 2432.62 4.62076 3.82421 0
M  V30 26511 H 2434.3 5.21512 3.82928 0
M  V30 26512 N 2434.43 -0.890264 1.30046 0
M  V30 26513 C 2435.39 -1.97698 1.15967 0
M  V30 26514 C 2436.39 -1.60534 0.0924059 0
M  V30 26515 O 2437.58 -1.70848 0.340101 0
M  V30 26516 C 2434.72 -3.31962 0.775509 0
M  V30 26517 H 2435.91 -2.11616 2.12506 0
M  V30 26518 H 2433.46 -1.07599 1.13367 0
M  V30 26519 H 2434.2 -3.23745 -0.189614 0
M  V30 26520 H 2433.98 -3.60303 1.54674 0
M  V30 26521 H 2435.47 -4.11686 0.700323 0
M  V30 26522 N 2435.91 -1.12676 -1.1019 0
M  V30 26523 C 2437.16 -0.881893 -1.81844 0
M  V30 26524 C 2437.48 0.593835 -1.85738 0
M  V30 26525 O 2436.75 1.43157 -1.33727 0
M  V30 26526 H 2435.33 -0.323273 -0.673427 0
M  V30 26527 H 2437.99 -1.42175 -1.33313 0
M  V30 26528 H 2437.09 -1.26565 -2.85285 0
M  V30 26529 N 2437.39 1.28028 -0.919057 0
M  V30 26530 C 2438.3 2.30868 -0.416796 0
M  V30 26531 C 2439.31 1.66715 0.498206 0
M  V30 26532 O 2440.49 1.97723 0.383109 0
M  V30 26533 C 2437.55 3.45124 0.330213 0
M  V30 26534 C 2436.61 4.24819 -0.618652 0
M  V30 26535 C 2435.85 5.33619 0.0928021 0
M  V30 26536 O 2436.07 5.55067 1.31365 0
M  V30 26537 O 2435 5.99151 -0.574604 0
M  V30 26538 H 2438.83 2.75849 -1.27048 0
M  V30 26539 H 2436.42 1.32819 -0.684075 0
M  V30 26540 H 2438.3 4.14638 0.751899 0
M  V30 26541 H 2436.97 3.02215 1.15964 0
M  V30 26542 H 2435.88 3.57873 -1.08984 0
M  V30 26543 H 2437.21 4.7142 -1.41505 0
M  V30 26544 N 2438.86 0.683613 1.42002 0
M  V30 26545 C 2439.77 0.0109488 2.34597 0
M  V30 26546 C 2440.79 -0.779218 1.55577 0
M  V30 26547 O 2441.97 -0.719522 1.88109 0
M  V30 26548 C 2439.03 -0.922529 3.34201 0
M  V30 26549 C 2438.09 -0.125908 4.29115 0
M  V30 26550 C 2437.33 -1.01493 5.23961 0
M  V30 26551 O 2437.55 -2.25447 5.23956 0
M  V30 26552 O 2436.48 -0.471004 6.00054 0
M  V30 26553 H 2440.31 0.773904 2.93674 0
M  V30 26554 H 2437.89 0.443886 1.42653 0
M  V30 26555 H 2439.78 -1.45816 3.95368 0
M  V30 26556 H 2438.45 -1.66518 2.77585 0
M  V30 26557 H 2437.36 0.454034 3.71335 0
M  V30 26558 H 2438.69 0.577822 4.88797 0
M  V30 26559 N 2440.34 -1.5169 0.427538 0
M  V30 26560 C 2441.76 -1.59403 0.0793258 0
M  V30 26561 C 2441.96 -1.43917 -1.41033 0
M  V30 26562 O 2441.02 -1.27543 -2.1792 0
M  V30 26563 C 2442.33 -2.94841 0.590688 0
M  V30 26564 C 2443.88 -3.08125 0.550269 0
M  V30 26565 C 2444.35 -4.46072 1.03844 0
M  V30 26566 N 2445.84 -4.52364 0.996023 0
M  V30 26567 C 2446.58 -5.57409 1.34473 0
M  V30 26568 N 2446.07 -6.69919 1.76581 0
M  V30 26569 N 2447.87 -5.47715 1.26352 0
M  V30 26570 H 2440.02 -1.60002 1.39689 0
M  V30 26571 H 2442.28 -0.753698 0.575016 0
M  V30 26572 H 2441.99 -3.11513 1.63257 0
M  V30 26573 H 2441.86 -3.77199 0.0102724 0
M  V30 26574 H 2444.25 -2.91127 -0.482603 0
M  V30 26575 H 2444.33 -2.2763 1.16697 0
M  V30 26576 H 2443.97 -4.63815 2.06973 0
M  V30 26577 H 2443.9 -5.25091 0.398378 0
M  V30 26578 H 2446.39 -3.71609 0.686675 0
M  V30 26579 H 2446.71 -7.46081 2.01451 0
M  V30 26580 H 2445.05 -6.71152 1.80499 0
M  V30 26581 H 2448.24 -4.58702 0.933289 0
M  V30 26582 H 2448.42 -6.2947 1.53857 0
M  V30 26583 N 2441.82 -0.15856 -1.568 0
M  V30 26584 C 2442.78 0.762667 -2.16139 0
M  V30 26585 C 2443.78 1.16711 -1.10612 0
M  V30 26586 O 2444.97 1.08615 -1.36193 0
M  V30 26587 C 2442.11 2.03644 -2.7339 0
M  V30 26588 H 2443.3 0.246301 -2.98887 0
M  V30 26589 H 2440.85 0.090947 -1.56035 0
M  V30 26590 H 2441.59 2.5962 -1.9434 0
M  V30 26591 H 2441.37 1.75553 -3.50604 0
M  V30 26592 H 2442.86 2.69415 -3.1907 0
M  V30 26593 N 2443.3 1.57178 0.115204 0
M  V30 26594 C 2444.23 2.03653 1.14227 0
M  V30 26595 C 2445.21 0.921681 1.42965 0
M  V30 26596 O 2446.4 1.19164 1.53341 0
M  V30 26597 C 2443.53 2.44405 2.46746 0
M  V30 26598 C 2442.48 3.59369 2.32461 0
M  V30 26599 C 2441.81 3.86033 3.69977 0
M  V30 26600 C 2443.11 4.90962 1.78194 0
M  V30 26601 H 2444.8 2.89706 0.755698 0
M  V30 26602 H 2442.35 1.39374 0.362068 0
M  V30 26603 H 2444.3 2.75523 3.1885 0
M  V30 26604 H 2443.02 1.55327 2.873 0
M  V30 26605 H 2441.68 3.28466 1.62805 0
M  V30 26606 H 2441.33 2.94154 4.08023 0
M  V30 26607 H 2441.03 4.63419 3.61271 0
M  V30 26608 H 2442.55 4.19606 4.4358 0
M  V30 26609 H 2443.97 5.20592 2.40119 0
M  V30 26610 H 2442.36 5.72374 1.803 0
M  V30 26611 H 2443.43 4.79223 0.739792 0
M  V30 26612 N 2444.78 -0.38549 1.52813 0
M  V30 26613 C 2446.02 -1.13908 1.69718 0
M  V30 26614 C 2446.38 -1.87131 0.429653 0
M  V30 26615 O 2447.58 -2.64568 0.475118 0
M  V30 26616 C 2445.85 -2.08855 2.90025 0
M  V30 26617 S 2447.41 -2.92003 3.27536 0
M  V30 26618 H 2444.23 -0.385537 0.597396 0
M  V30 26619 H 2446.83 -0.423028 1.90868 0
M  V30 26620 H 2445.54 -1.5379 3.80495 0
M  V30 26621 H 2445.07 -2.84964 2.71218 0
M  V30 26622 H 2447.08 -4.11014 2.77996 0
M  V30 26623 N 2446.26 -1.43835 -0.644143 0
M  V30 26624 C 2447.19 -1.52512 -1.76812 0
M  V30 26625 C 2448.17 -0.379081 -1.65822 0
M  V30 26626 O 2449.35 -0.597498 -1.8478 0
M  V30 26627 C 2446.48 -1.45645 -3.15285 0
M  V30 26628 C 2445.44 -2.58592 -3.41049 0
M  V30 26629 C 2444.76 -2.36778 -4.79417 0
M  V30 26630 C 2446.06 -4.00803 -3.34895 0
M  V30 26631 H 2447.76 -2.46588 -1.69807 0
M  V30 26632 H 2445.3 -1.18681 -0.815521 0
M  V30 26633 H 2447.25 -1.50318 -3.93678 0
M  V30 26634 H 2445.98 -0.480781 -3.23042 0
M  V30 26635 H 2444.64 -2.53287 -2.65031 0
M  V30 26636 H 2444.29 -1.37433 -4.83861 0
M  V30 26637 H 2443.99 -3.12496 -4.97614 0
M  V30 26638 H 2445.51 -2.43248 -5.60056 0
M  V30 26639 H 2446.92 -4.07546 -4.03211 0
M  V30 26640 H 2445.32 -4.76619 -3.64628 0
M  V30 26641 H 2446.39 -4.25295 -2.32921 0
M  V30 26642 N 2447.73 0.883355 -1.30517 0
M  V30 26643 C 2448.98 1.63772 -1.1961 0
M  V30 26644 C 2449.31 1.92606 0.24828 0
M  V30 26645 O 2448.59 1.54815 1.1774 0
M  V30 26646 C 2448.87 2.9765 -2.02674 0
M  V30 26647 C 2448.72 2.75778 -3.5534 0
M  V30 26648 C 2450.04 3.98592 -1.8658 0
M  V30 26649 H 2447.16 0.594298 -0.435866 0
M  V30 26650 H 2449.8 1.02209 -1.60166 0
M  V30 26651 H 2447.95 3.50194 -1.68215 0
M  V30 26652 H 2449.63 2.30009 -3.99867 0
M  V30 26653 H 2447.87 2.10253 -3.79442 0
M  V30 26654 H 2448.54 3.7098 -4.08751 0
M  V30 26655 H 2451.02 3.55213 -2.1671 0
M  V30 26656 H 2449.89 4.90174 -2.47023 0
M  V30 26657 H 2450.15 4.34327 -0.825398 0
M  V30 26658 N 2449.21 1.13259 1.09591 0
M  V30 26659 C 2450.49 0.804463 1.78291 0
M  V30 26660 C 2450.87 -0.704275 1.99005 0
M  V30 26661 O 2450.22 -1.64098 1.5901 0
M  V30 26662 C 2450.43 1.58946 3.10704 0
M  V30 26663 C 2451.77 1.78106 3.85439 0
M  V30 26664 O 2452.8 1.5553 3.20451 0
M  V30 26665 O 2451.66 2.15762 5.02105 0
M  V30 26666 H 2448.75 0.293541 0.773151 0
M  V30 26667 H 2451.3 1.23711 1.16162 0
M  V30 26668 H 2450.07 2.61487 2.91101 0
M  V30 26669 H 2449.69 1.15164 3.80556 0
M  V30 26670 N 2450.69 -1.27539 0.925834 0
M  V30 26671 C 2451.94 -1.94738 0.566126 0
M  V30 26672 C 2452.27 -1.72604 -0.890026 0
M  V30 26673 O 2451.54 -1.05402 -1.63465 0
M  V30 26674 C 2451.83 -3.48913 0.890601 0
M  V30 26675 C 2451.68 -3.80398 2.40037 0
M  V30 26676 C 2453 -4.38322 0.395178 0
M  V30 26677 H 2450.12 -0.707288 0.207152 0
M  V30 26678 H 2452.76 -1.50689 1.15727 0
M  V30 26679 H 2450.91 -3.86562 0.38752 0
M  V30 26680 H 2452.58 -3.5255 2.975 0
M  V30 26681 H 2450.82 -3.27015 2.85033 0
M  V30 26682 H 2451.5 -4.88105 2.57793 0
M  V30 26683 H 2453.97 -4.07813 0.826312 0
M  V30 26684 H 2452.85 -5.45024 0.651181 0
M  V30 26685 H 2453.11 -4.36447 -0.704721 0
M  V30 26686 N 2452.17 -0.691135 -1.41637 0
M  V30 26687 C 2453.11 -0.023011 -2.30789 0
M  V30 26688 C 2454.08 0.775885 -1.46865 0
M  V30 26689 O 2455.27 0.744819 -1.75662 0
M  V30 26690 C 2452.41 0.910607 -3.32869 0
M  V30 26691 C 2451.52 0.103798 -4.31875 0
M  V30 26692 C 2450.66 1.03465 -5.21026 0
M  V30 26693 C 2449.7 0.22049 -6.11703 0
M  V30 26694 N 2448.83 1.10491 -6.93351 0
M  V30 26695 H 2453.67 -0.789029 -2.87364 0
M  V30 26696 H 2451.21 -0.400819 -1.41534 0
M  V30 26697 H 2453.17 1.4659 -3.90599 0
M  V30 26698 H 2451.8 1.64307 -2.77854 0
M  V30 26699 H 2450.85 -0.568351 -3.7613 0
M  V30 26700 H 2452.16 -0.527591 -4.96002 0
M  V30 26701 H 2451.32 1.65932 -5.83568 0
M  V30 26702 H 2450.06 1.69991 -4.57115 0
M  V30 26703 H 2449.06 -0.417283 -5.48214 0
M  V30 26704 H 2450.29 -0.440903 -6.77667 0
M  V30 26705 H 2448.23 1.75627 -6.32053 0
M  V30 26706 H 2448.15 0.528992 -7.54147 0
M  V30 26707 H 2449.42 1.71654 -7.60365 0
M  V30 26708 N 2453.65 1.51461 -0.435577 0
M  V30 26709 C 2454.59 2.27704 0.376757 0
M  V30 26710 C 2455.56 1.3122 1.01835 0
M  V30 26711 O 2456.75 1.60121 1.03759 0
M  V30 26712 C 2453.89 3.12087 1.47296 0
M  V30 26713 C 2453 4.23562 0.849669 0
M  V30 26714 C 2452.14 4.95257 1.92077 0
M  V30 26715 C 2451.17 5.98656 1.27582 0
M  V30 26716 N 2450.31 6.63766 2.28821 0
M  V30 26717 H 2455.15 2.96684 -0.279787 0
M  V30 26718 H 2452.69 1.46335 -0.149821 0
M  V30 26719 H 2454.65 3.59334 2.11978 0
M  V30 26720 H 2453.28 2.45225 2.09915 0
M  V30 26721 H 2452.33 3.80291 0.091186 0
M  V30 26722 H 2453.64 4.97648 0.33879 0
M  V30 26723 H 2452.79 5.46044 2.64425 0
M  V30 26724 H 2451.53 4.20798 2.46537 0
M  V30 26725 H 2450.54 5.47163 0.537796 0
M  V30 26726 H 2451.76 6.75072 0.738574 0
M  V30 26727 H 2449.71 5.9212 2.82365 0
M  V30 26728 H 2449.63 7.33612 1.8262 0
M  V30 26729 H 2450.89 7.19184 3.00658 0
M  V30 26730 N 2455.12 0.166873 1.56714 0
M  V30 26731 C 2456.37 -0.479927 1.97039 0
M  V30 26732 C 2456.7 -1.63195 1.05267 0
M  V30 26733 O 2455.98 -1.94248 0.0989175 0
M  V30 26734 C 2456.26 -0.967151 3.46869 0
M  V30 26735 C 2456.11 0.184739 4.4942 0
M  V30 26736 C 2457.43 -1.84231 3.99683 0
M  V30 26737 H 2454.55 -0.172979 0.716413 0
M  V30 26738 H 2457.19 0.252112 1.8832 0
M  V30 26739 H 2455.34 -1.59095 3.54431 0
M  V30 26740 H 2457.02 0.821701 4.53923 0
M  V30 26741 H 2455.26 0.840912 4.25572 0
M  V30 26742 H 2455.93 -0.19822 5.51644 0
M  V30 26743 H 2458.41 -1.31648 3.94725 0
M  V30 26744 H 2457.28 -2.15226 5.04945 0
M  V30 26745 H 2457.54 -2.78648 3.43231 0
M  V30 26746 N 2456.6 -1.57237 -0.106866 0
M  V30 26747 C 2457.55 -2.01219 -1.13046 0
M  V30 26748 C 2458.52 -0.886428 -1.40469 0
M  V30 26749 O 2459.7 -1.15156 -1.52131 0
M  V30 26750 C 2456.84 -2.43176 -2.44866 0
M  V30 26751 C 2455.96 -3.69222 -2.24275 0
M  V30 26752 C 2455.09 -4.00108 -3.4941 0
M  V30 26753 C 2454.13 -5.19299 -3.24029 0
M  V30 26754 N 2453.27 -5.45995 -4.414 0
M  V30 26755 H 2458.11 -2.88449 -0.748406 0
M  V30 26756 H 2455.65 -1.42676 -0.358029 0
M  V30 26757 H 2457.6 -2.65543 -3.21781 0
M  V30 26758 H 2456.23 -1.58972 -2.80941 0
M  V30 26759 H 2455.29 -3.54401 -1.38218 0
M  V30 26760 H 2456.6 -4.56287 -2.01504 0
M  V30 26761 H 2455.75 -4.23188 -4.34738 0
M  V30 26762 H 2454.49 -3.11542 -3.75224 0
M  V30 26763 H 2453.5 -4.96051 -2.37093 0
M  V30 26764 H 2454.72 -6.09453 -2.99573 0
M  V30 26765 H 2452.67 -4.60388 -4.67311 0
M  V30 26766 H 2452.58 -6.27407 -4.21777 0
M  V30 26767 H 2453.85 -5.73603 -5.27826 0
M  V30 26768 N 2458.08 0.377381 -1.53015 0
M  V30 26769 C 2459.01 1.48146 -1.74887 0
M  V30 26770 C 2460.03 1.50139 -0.62946 0
M  V30 26771 O 2461.21 1.53831 -0.905443 0
M  V30 26772 C 2458.31 2.86956 -1.80304 0
M  V30 26773 C 2457.49 3.08795 -3.09781 0
M  V30 26774 C 2456.55 4.27653 -3.06593 0
M  V30 26775 O 2455.57 4.23396 -3.80426 0
M  V30 26776 N 2456.77 5.34451 -2.26588 0
M  V30 26777 H 2459.54 1.29766 -2.7015 0
M  V30 26778 H 2457.1 0.567004 -1.51647 0
M  V30 26779 H 2459.09 3.64588 -1.75663 0
M  V30 26780 H 2457.66 2.98639 -0.923772 0
M  V30 26781 H 2456.88 2.18926 -3.27819 0
M  V30 26782 H 2458.17 3.20248 -3.95372 0
M  V30 26783 H 2457.57 5.40768 -1.6609 0
M  V30 26784 H 2456.13 6.10705 -2.27776 0
M  V30 26785 N 2459.56 1.44175 0.636506 0
M  V30 26786 C 2460.78 1.50367 1.42844 0
M  V30 26787 C 2461.21 0.1279 1.87665 0
M  V30 26788 O 2460.57 -0.881823 1.5841 0
M  V30 26789 C 2460.61 2.46865 2.6285 0
M  V30 26790 O 2459.72 1.96646 3.62497 0
M  V30 26791 H 2459.06 0.507963 0.427633 0
M  V30 26792 H 2461.59 1.89256 0.777389 0
M  V30 26793 H 2461.6 2.64723 3.1046 0
M  V30 26794 H 2460.27 3.46799 2.29572 0
M  V30 26795 H 2458.85 1.88529 3.21732 0
M  V30 26796 N 2461.04 -0.876421 1.30983 0
M  V30 26797 C 2461.97 -1.99901 1.20672 0
M  V30 26798 C 2462.95 -1.69832 0.0953838 0
M  V30 26799 O 2464.13 -1.92187 0.278884 0
M  V30 26800 C 2461.26 -3.35258 0.906609 0
M  V30 26801 C 2460.22 -3.79613 1.97681 0
M  V30 26802 C 2459.54 -5.12357 1.52952 0
M  V30 26803 C 2460.84 -3.97416 3.38907 0
M  V30 26804 H 2462.54 -2.08786 2.1459 0
M  V30 26805 H 2460.08 -1.00315 1.0331 0
M  V30 26806 H 2462.04 -4.13323 0.821098 0
M  V30 26807 H 2460.76 -3.26529 -0.0682395 0
M  V30 26808 H 2459.42 -3.03783 2.05211 0
M  V30 26809 H 2459.07 -5.00064 0.542707 0
M  V30 26810 H 2458.77 -5.43005 2.24542 0
M  V30 26811 H 2460.29 -5.92938 1.45796 0
M  V30 26812 H 2461.7 -4.65894 3.34089 0
M  V30 26813 H 2460.1 -4.39453 4.08658 0
M  V30 26814 H 2461.17 -3.00999 3.80168 0
M  V30 26815 N 2462.51 -1.13839 -1.08989 0
M  V30 26816 C 2463.48 -0.822752 -2.13924 0
M  V30 26817 C 2464.48 0.169872 -1.599 0
M  V30 26818 O 2465.67 -0.0577557 -1.74104 0
M  V30 26819 C 2462.8 -0.225378 -3.40154 0
M  V30 26820 H 2463.99 -1.75267 -2.43355 0
M  V30 26821 H 2461.55 -0.943616 -1.24602 0
M  V30 26822 H 2462.28 0.713538 -3.16353 0
M  V30 26823 H 2462.07 -0.94026 -3.80659 0
M  V30 26824 H 2463.56 -0.0215518 -4.17594 0
M  V30 26825 N 2463.99 1.27046 -0.932584 0
M  V30 26826 C 2464.92 2.25809 -0.392774 0
M  V30 26827 C 2465.94 1.55587 0.479213 0
M  V30 26828 O 2467.13 1.76111 0.291047 0
M  V30 26829 C 2464.23 3.35826 0.455397 0
M  V30 26830 C 2463.4 4.35582 -0.398431 0
M  V30 26831 C 2462.46 5.24768 0.387893 0
M  V30 26832 O 2461.48 5.68827 -0.206103 0
M  V30 26833 N 2462.69 5.5546 1.68654 0
M  V30 26834 H 2465.45 2.72764 -1.24178 0
M  V30 26835 H 2463.01 1.40723 -0.800536 0
M  V30 26836 H 2465 3.92439 0.988623 0
M  V30 26837 H 2463.57 2.88434 1.20517 0
M  V30 26838 H 2462.79 3.78163 -1.11293 0
M  V30 26839 H 2464.08 4.99234 -0.981977 0
M  V30 26840 H 2463.48 5.21531 2.19138 0
M  V30 26841 H 2462.04 6.14752 2.16619 0
M  V30 26842 N 2465.47 0.698636 1.41269 0
M  V30 26843 C 2466.7 0.238548 2.06024 0
M  V30 26844 C 2467.12 -1.10472 1.52242 0
M  V30 26845 O 2466.48 -1.69222 0.650653 0
M  V30 26846 C 2466.53 0.210016 3.59988 0
M  V30 26847 O 2465.63 -0.814164 4.04283 0
M  V30 26848 H 2464.97 0.115787 0.653827 0
M  V30 26849 H 2467.5 0.954357 1.80978 0
M  V30 26850 H 2467.51 0.0419154 4.07978 0
M  V30 26851 H 2466.19 1.19037 3.98501 0
M  V30 26852 H 2464.76 -0.615169 3.67791 0
M  V30 26853 N 2466.95 -1.51228 0.443603 0
M  V30 26854 C 2467.9 -2.24764 -0.382747 0
M  V30 26855 C 2468.88 -1.27241 -0.984814 0
M  V30 26856 O 2470.07 -1.52297 -0.901916 0
M  V30 26857 C 2467.2 -3.09767 -1.47984 0
M  V30 26858 C 2466.29 -4.14724 -0.886858 0
M  V30 26859 N 2466.68 -5.05794 -0.0236214 0
M  V30 26860 C 2464.98 -4.30818 -1.15378 0
M  V30 26861 C 2465.68 -5.80873 0.310073 0
M  V30 26862 N 2464.66 -5.42727 -0.307894 0
M  V30 26863 H 2468.46 -2.92537 0.282676 0
M  V30 26864 H 2465.97 -1.60369 0.256055 0
M  V30 26865 H 2467.97 -3.61031 -2.08476 0
M  V30 26866 H 2466.63 -2.43539 -2.14753 0
M  V30 26867 H 2467.64 -5.16761 0.343271 0
M  V30 26868 H 2464.32 -3.75815 -1.8185 0
M  V30 26869 H 2465.71 -6.64221 1.01291 0
M  V30 26870 N 2468.43 -0.175182 -1.56623 0
M  V30 26871 C 2469.36 0.749156 -2.21156 0
M  V30 26872 C 2470.34 1.23624 -1.16838 0
M  V30 26873 O 2471.52 1.2887 -1.4528 0
M  V30 26874 C 2468.65 1.97706 -2.85534 0
M  V30 26875 C 2467.61 1.62568 -3.95924 0
M  V30 26876 C 2466.93 2.92856 -4.4737 0
M  V30 26877 C 2468.23 0.850747 -5.15325 0
M  V30 26878 H 2469.93 0.211242 -2.98654 0
M  V30 26879 H 2467.47 0.100163 -1.43651 0
M  V30 26880 H 2469.43 2.62875 -3.29355 0
M  V30 26881 H 2468.15 2.53918 -2.0541 0
M  V30 26882 H 2466.81 0.997657 -3.52764 0
M  V30 26883 H 2466.46 3.47115 -3.64033 0
M  V30 26884 H 2466.16 2.70097 -5.21844 0
M  V30 26885 H 2467.68 3.59048 -4.9388 0
M  V30 26886 H 2469.09 1.40511 -5.55814 0
M  V30 26887 H 2467.49 0.72205 -5.9574 0
M  V30 26888 H 2468.56 -0.152167 -4.84661 0
M  V30 26889 N 2469.91 1.57292 0.0985263 0
M  V30 26890 C 2471.32 1.74892 0.653426 0
M  V30 26891 C 2471.67 0.79687 1.79289 0
M  V30 26892 O 2470.79 -0.0254505 2.16385 0
M  V30 26893 C 2471.39 3.17135 1.1921 0
M  V30 26894 C 2469.95 3.36171 1.6931 0
M  V30 26895 C 2469.09 2.70703 0.601246 0
M  V30 26896 H 2472.04 1.58187 -0.127525 0
M  V30 26897 H 2472.07 3.19817 2.06149 0
M  V30 26898 H 2471.58 3.86403 0.362567 0
M  V30 26899 H 2469.68 2.71977 2.54675 0
M  V30 26900 H 2469.79 4.44467 1.78845 0
M  V30 26901 H 2468.16 2.32506 1.03986 0
M  V30 26902 H 2468.94 3.42609 -0.217652 0
M  V30 26903 N 2471.38 -0.369261 1.53213 0
M  V30 26904 C 2472.35 -1.43495 1.78723 0
M  V30 26905 C 2473.35 -1.4674 0.65758 0
M  V30 26906 O 2474.54 -1.47565 0.925762 0
M  V30 26907 C 2471.67 -2.82641 1.90596 0
M  V30 26908 H 2472.86 -1.22151 2.73896 0
M  V30 26909 H 2470.41 -0.602178 1.44234 0
M  V30 26910 H 2471.15 -3.09304 0.974764 0
M  V30 26911 H 2470.93 -2.81685 2.72756 0
M  V30 26912 H 2472.42 -3.59823 2.11937 0
M  V30 26913 N 2472.86 -1.4451 -0.628851 0
M  V30 26914 C 2473.79 -1.47541 -1.75398 0
M  V30 26915 C 2474.81 -0.368534 -1.58574 0
M  V30 26916 O 2476 -0.634405 -1.66846 0
M  V30 26917 C 2473.1 -1.29583 -3.13148 0
M  V30 26918 C 2472.27 -2.53558 -3.56409 0
M  V30 26919 C 2471.33 -2.30466 -4.73046 0
M  V30 26920 O 2470.35 -3.03966 -4.81242 0
M  V30 26921 N 2471.56 -1.3367 -5.64901 0
M  V30 26922 H 2474.32 -2.44537 -1.73268 0
M  V30 26923 H 2471.88 -1.39979 -0.813487 0
M  V30 26924 H 2473.87 -1.11978 -3.889 0
M  V30 26925 H 2472.44 -0.409425 -3.09907 0
M  V30 26926 H 2471.66 -2.86423 -2.70842 0
M  V30 26927 H 2472.95 -3.36012 -3.82065 0
M  V30 26928 H 2472.35 -0.729703 -5.60974 0
M  V30 26929 H 2470.91 -1.22043 -6.40272 0
M  V30 26930 N 2474.34 0.869463 -1.31446 0
M  V30 26931 C 2475.75 1.43824 -1.19044 0
M  V30 26932 C 2476.1 1.95148 0.202884 0
M  V30 26933 O 2475.23 1.86317 1.10067 0
M  V30 26934 C 2475.82 2.61426 -2.15504 0
M  V30 26935 C 2474.38 3.14347 -2.07034 0
M  V30 26936 C 2473.53 1.8706 -2.04705 0
M  V30 26937 H 2476.48 0.677959 -1.4349 0
M  V30 26938 H 2476.5 3.38131 -1.74493 0
M  V30 26939 H 2476.01 2.24041 -3.16903 0
M  V30 26940 H 2474.11 3.56352 -1.08831 0
M  V30 26941 H 2474.23 3.76595 -2.96164 0
M  V30 26942 H 2472.59 2.06043 -1.49727 0
M  V30 26943 H 2473.37 1.51911 -3.0786 0
M  V30 26944 N 2475.82 1.14415 1.08383 0
M  V30 26945 C 2477.09 0.823328 1.77428 0
M  V30 26946 C 2477.47 -0.683128 1.99741 0
M  V30 26947 O 2476.82 -1.62402 1.60742 0
M  V30 26948 C 2477.03 1.62232 3.09001 0
M  V30 26949 C 2478.38 1.82184 3.83529 0
M  V30 26950 O 2479.4 1.5892 3.18783 0
M  V30 26951 O 2478.26 2.21075 4.99788 0
M  V30 26952 H 2475.36 0.301725 0.769994 0
M  V30 26953 H 2477.9 1.24936 1.14844 0
M  V30 26954 H 2476.68 2.6456 2.88312 0
M  V30 26955 H 2476.3 1.19193 3.79313 0
M  V30 26956 N 2477.3 -1.26549 0.939309 0
M  V30 26957 C 2478.54 -1.93132 0.581635 0
M  V30 26958 C 2478.86 -1.74525 -0.883193 0
M  V30 26959 O 2480.06 -2.35548 -1.35016 0
M  V30 26960 C 2478.52 -3.46031 0.989486 0
M  V30 26961 C 2478.13 -3.73374 2.4758 0
M  V30 26962 C 2479.87 -4.18628 0.703617 0
M  V30 26963 C 2477.78 -5.19704 2.82245 0
M  V30 26964 H 2476.71 -0.723048 0.213816 0
M  V30 26965 H 2479.36 -1.43658 1.14169 0
M  V30 26966 H 2477.74 -3.94379 0.357972 0
M  V30 26967 H 2478.92 -3.35739 3.1562 0
M  V30 26968 H 2477.23 -3.14005 2.73477 0
M  V30 26969 H 2479.83 -5.26391 0.938961 0
M  V30 26970 H 2480.17 -4.14744 -0.359566 0
M  V30 26971 H 2480.7 -3.76139 1.29476 0
M  V30 26972 H 2477.44 -5.28687 3.87518 0
M  V30 26973 H 2476.96 -5.58443 2.18864 0
M  V30 26974 H 2478.64 -5.8769 2.70609 0
M  V30 26975 N 2478.77 -0.706118 -1.40896 0
M  V30 26976 C 2480 -0.249471 -2.05894 0
M  V30 26977 C 2480.42 1.09663 -1.52825 0
M  V30 26978 O 2479.78 1.68875 -0.659618 0
M  V30 26979 C 2479.83 -0.229104 -3.59871 0
M  V30 26980 O 2478.93 0.792713 -4.0471 0
M  V30 26981 H 2478.27 -0.119252 -0.653204 0
M  V30 26982 H 2480.8 -0.963942 -1.8047 0
M  V30 26983 H 2480.81 -0.0635509 -4.07951 0
M  V30 26984 H 2479.49 -1.21148 -3.97864 0
M  V30 26985 H 2478.07 0.595655 -3.68112 0
M  V30 26986 N 2480.25 1.50991 -0.451617 0
M  V30 26987 C 2481.66 1.86698 0.00815289 0
M  V30 26988 C 2482.01 1.36783 1.40659 0
M  V30 26989 O 2481.14 0.724582 2.03909 0
M  V30 26990 C 2481.73 3.38793 0.0215708 0
M  V30 26991 C 2480.29 3.73984 0.425799 0
M  V30 26992 C 2479.44 2.74791 -0.372211 0
M  V30 26993 H 2482.39 1.44012 -0.666811 0
M  V30 26994 H 2482.41 3.71381 0.828012 0
M  V30 26995 H 2481.92 3.75093 -0.996354 0
M  V30 26996 H 2480.02 3.43279 1.4488 0
M  V30 26997 H 2480.14 4.78893 0.140676 0
M  V30 26998 H 2478.5 2.54122 0.171454 0
M  V30 26999 H 2479.28 3.13933 -1.38928 0
M  V30 27000 N 2481.73 0.183486 1.56528 0
M  V30 27001 C 2482.68 -0.758806 2.19875 0
M  V30 27002 C 2483.67 -1.22847 1.1664 0
M  V30 27003 O 2484.88 -1.19271 1.34812 0
M  V30 27004 H 2481.25 -0.263016 0.704504 0
M  V30 27005 H 2483.22 -0.200703 2.97724 0
M  V30 27006 C 2481.97 -1.97275 2.86318 0
M  V30 27007 H 2481.3 -1.6204 3.6549 0
M  V30 27008 H 2482.74 -2.61069 3.34094 0
M  V30 27009 C 2481.19 -2.80414 1.86734 0
M  V30 27010 O 2481.72 -3.77964 1.36037 0
M  V30 27011 N 2479.93 -2.45673 1.5522 0
M  V30 27012 H 2479.48 -1.66405 1.96639 0
M  V30 27013 H 2479.44 -3.01586 0.888441 0
M  V30 27014 N 2483.21 -1.57342 -0.0901833 0
M  V30 27015 C 2484.46 -1.85521 -0.791498 0
M  V30 27016 C 2484.77 -0.773472 -1.79657 0
M  V30 27017 O 2485.98 -0.942542 -2.54614 0
M  V30 27018 C 2484.43 -3.29022 -1.4585 0
M  V30 27019 C 2484.04 -4.4528 -0.492939 0
M  V30 27020 C 2485.78 -3.66422 -2.14326 0
M  V30 27021 C 2483.69 -5.79816 -1.16481 0
M  V30 27022 H 2482.62 -0.692033 -0.299344 0
M  V30 27023 H 2485.27 -1.83446 -0.0445021 0
M  V30 27024 H 2483.65 -3.25654 -2.25313 0
M  V30 27025 H 2484.83 -4.60005 0.270545 0
M  V30 27026 H 2483.14 -4.1631 0.0863793 0
M  V30 27027 H 2485.74 -4.64221 -2.65336 0
M  V30 27028 H 2486.08 -2.95293 -2.93442 0
M  V30 27029 H 2486.62 -3.717 -1.41717 0
M  V30 27030 H 2483.35 -6.54189 -0.414355 0
M  V30 27031 H 2482.87 -5.68925 -1.8996 0
M  V30 27032 H 2484.55 -6.24541 -1.6899 0
M  V30 27033 N 2484.69 0.36113 -1.53407 0
M  V30 27034 C 2485.93 1.1033 -1.69804 0
M  V30 27035 C 2486.26 1.89172 -0.45212 0
M  V30 27036 O 2485.52 1.87337 0.565984 0
M  V30 27037 C 2485.82 2.08591 -2.90215 0
M  V30 27038 C 2485.48 1.46195 -4.26542 0
M  V30 27039 C 2484.14 1.28907 -4.63612 0
M  V30 27040 C 2486.5 1.01092 -5.11302 0
M  V30 27041 C 2483.82 0.651054 -5.83076 0
M  V30 27042 C 2486.18 0.386896 -6.31416 0
M  V30 27043 C 2484.84 0.20154 -6.67196 0
M  V30 27044 H 2484.11 0.403726 -0.621358 0
M  V30 27045 H 2486.76 0.384576 -1.87599 0
M  V30 27046 H 2485.06 2.86783 -2.66951 0
M  V30 27047 H 2486.76 2.65977 -3.00096 0
M  V30 27048 H 2483.35 1.60646 -3.97355 0
M  V30 27049 H 2487.53 1.13241 -4.83208 0
M  V30 27050 H 2482.79 0.495898 -6.09386 0
M  V30 27051 H 2486.96 0.0292339 -6.96394 0
M  V30 27052 H 2484.59 -0.2949 -7.59628 0
M  V30 27053 N 2486.16 1.44842 0.621179 0
M  V30 27054 C 2487.07 1.54983 1.76117 0
M  V30 27055 C 2488.09 0.434957 1.68476 0
M  V30 27056 O 2489.27 0.693726 1.89075 0
M  V30 27057 C 2486.33 1.5007 3.12538 0
M  V30 27058 C 2485.39 2.72488 3.31736 0
M  V30 27059 C 2484.63 2.678 4.61648 0
M  V30 27060 O 2484.85 1.74361 5.43097 0
M  V30 27061 O 2483.78 3.58802 4.83265 0
M  V30 27062 H 2487.61 2.51314 1.70514 0
M  V30 27063 H 2485.19 1.272 0.783621 0
M  V30 27064 H 2487.08 1.49889 3.93842 0
M  V30 27065 H 2485.75 0.568862 3.18662 0
M  V30 27066 H 2484.66 2.78235 2.50072 0
M  V30 27067 H 2485.99 3.64752 3.3048 0
M  V30 27068 N 2487.64 -0.862479 1.31905 0
M  V30 27069 C 2488.61 -1.95193 1.20134 0
M  V30 27070 C 2489.61 -1.60302 0.126437 0
M  V30 27071 O 2490.8 -1.70088 0.376264 0
M  V30 27072 C 2487.93 -3.30242 0.845749 0
M  V30 27073 H 2489.12 -2.0706 2.16947 0
M  V30 27074 H 2486.67 -1.0517 1.15624 0
M  V30 27075 H 2487.41 -3.24075 -0.1209 0
M  V30 27076 H 2487.19 -3.56941 1.62282 0
M  V30 27077 H 2488.68 -4.10108 0.78749 0
M  V30 27078 N 2489.12 -1.14988 -1.07775 0
M  V30 27079 C 2490.37 -0.923454 -1.80555 0
M  V30 27080 C 2490.7 0.548304 -1.86299 0
M  V30 27081 O 2489.97 1.40637 -1.34356 0
M  V30 27082 C 2490.26 -1.53305 -3.25837 0
M  V30 27083 C 2490.11 -3.07511 -3.28264 0
M  V30 27084 C 2491.43 -1.21526 -4.22989 0
M  V30 27085 H 2488.55 -0.336906 -0.655487 0
M  V30 27086 H 2491.19 -1.42085 -1.26142 0
M  V30 27087 H 2489.34 -1.11006 -3.72304 0
M  V30 27088 H 2491.01 -3.58686 -2.90073 0
M  V30 27089 H 2489.26 -3.41624 -2.67349 0
M  V30 27090 H 2489.93 -3.45274 -4.30685 0
M  V30 27091 H 2492.4 -1.58107 -3.84891 0
M  V30 27092 H 2491.28 -1.66802 -5.22942 0
M  V30 27093 H 2491.54 -0.131582 -4.41904 0
M  V30 27094 N 2490.6 1.26049 -0.946007 0
M  V30 27095 C 2491.55 2.26207 -0.45813 0
M  V30 27096 C 2492.52 1.58868 0.484788 0
M  V30 27097 O 2493.7 1.86561 0.399936 0
M  V30 27098 C 2490.84 3.44073 0.266071 0
M  V30 27099 C 2489.95 4.26074 -0.71308 0
M  V30 27100 C 2489.09 5.3119 0.032808 0
M  V30 27101 C 2488.13 6.04873 -0.937846 0
M  V30 27102 N 2487.26 7.01745 -0.223397 0
M  V30 27103 H 2492.1 2.67311 -1.31715 0
M  V30 27104 H 2489.64 1.31427 -0.660713 0
M  V30 27105 H 2491.6 4.11244 0.702441 0
M  V30 27106 H 2490.23 3.03869 1.0892 0
M  V30 27107 H 2489.28 3.58646 -1.26795 0
M  V30 27108 H 2490.59 4.77133 -1.45414 0
M  V30 27109 H 2489.75 6.04396 0.528229 0
M  V30 27110 H 2488.49 4.80982 0.806717 0
M  V30 27111 H 2487.49 5.30489 -1.44435 0
M  V30 27112 H 2488.72 6.5717 -1.71184 0
M  V30 27113 H 2486.66 6.5384 0.531931 0
M  V30 27114 H 2486.58 7.50579 -0.903701 0
M  V30 27115 H 2487.85 7.79097 0.250771 0
M  V30 27116 N 2492.08 0.71358 1.4052 0
M  V30 27117 C 2493.32 0.251727 2.00526 0
M  V30 27118 C 2493.65 -1.15845 1.56859 0
M  V30 27119 O 2492.92 -1.78499 0.807159 0
M  V30 27120 H 2491.5 0.0900777 0.741549 0
M  V30 27121 H 2494.16 0.918763 1.71886 0
M  V30 27122 H 2493.25 0.283246 3.10812 0
M  V30 27123 N 2493.55 -1.50749 0.459618 0
M  V30 27124 C 2494.79 -2.04164 -0.0982042 0
M  V30 27125 C 2495.16 -1.33483 -1.38008 0
M  V30 27126 O 2496.36 -1.77391 -2.01955 0
M  V30 27127 C 2494.63 -3.56226 -0.289404 0
M  V30 27128 S 2496.19 -4.31307 -0.807432 0
M  V30 27129 H 2493.01 -0.710679 -0.021372 0
M  V30 27130 H 2495.61 -1.8527 0.624131 0
M  V30 27131 H 2494.31 -4.05227 0.649532 0
M  V30 27132 H 2493.84 -3.79454 -1.03818 0
M  V30 27133 H 2495.86 -4.50393 -2.08232 0
M  V30 27134 N 2495.03 -0.191784 -1.56429 0
M  V30 27135 C 2495.98 0.743146 -2.15549 0
M  V30 27136 C 2496.97 1.17861 -1.09533 0
M  V30 27137 O 2498.16 1.13757 -1.35604 0
M  V30 27138 C 2495.29 1.96386 -2.8158 0
M  V30 27139 C 2494.37 1.54944 -3.94782 0
M  V30 27140 N 2494.76 0.845789 -4.98678 0
M  V30 27141 C 2493.06 1.83898 -4.06322 0
M  V30 27142 C 2493.76 0.638622 -5.78184 0
M  V30 27143 N 2492.74 1.18633 -5.30497 0
M  V30 27144 H 2496.54 0.196787 -2.9324 0
M  V30 27145 H 2494.06 0.00813176 -1.62398 0
M  V30 27146 H 2496.05 2.64409 -3.22325 0
M  V30 27147 H 2494.71 2.51497 -2.05376 0
M  V30 27148 H 2495.72 0.501613 -5.15465 0
M  V30 27149 H 2492.4 2.40542 -3.41242 0
M  V30 27150 H 2493.79 0.0806748 -6.71852 0
M  V30 27151 N 2496.51 1.57387 0.0818378 0
M  V30 27152 C 2497.44 2.0603 1.09881 0
M  V30 27153 C 2498.42 0.951798 1.40978 0
M  V30 27154 O 2499.61 1.2239 1.50779 0
M  V30 27155 C 2496.74 2.49584 2.41506 0
M  V30 27156 C 2495.69 3.64219 2.24786 0
M  V30 27157 C 2495.02 3.93793 3.61705 0
M  V30 27158 C 2496.32 4.94632 1.6774 0
M  V30 27159 H 2498.01 2.91244 0.694077 0
M  V30 27160 H 2495.56 1.4011 0.332424 0
M  V30 27161 H 2497.51 2.82224 3.12934 0
M  V30 27162 H 2496.23 1.61386 2.8394 0
M  V30 27163 H 2494.89 3.31846 1.55801 0
M  V30 27164 H 2494.54 3.02743 4.01691 0
M  V30 27165 H 2494.24 4.70978 3.5136 0
M  V30 27166 H 2495.76 4.28921 4.34579 0
M  V30 27167 H 2497.18 5.25568 2.29023 0
M  V30 27168 H 2495.58 5.7607 1.68118 0
M  V30 27169 H 2496.65 4.80685 0.637975 0
M  V30 27170 N 2497.99 -0.35299 1.53596 0
M  V30 27171 C 2499.24 -1.09428 1.70387 0
M  V30 27172 C 2499.56 -1.8893 0.462146 0
M  V30 27173 O 2498.82 -1.87634 -0.556041 0
M  V30 27174 C 2499.12 -2.07049 2.91317 0
M  V30 27175 C 2498.78 -1.43931 4.27311 0
M  V30 27176 C 2497.45 -1.26446 4.6429 0
M  V30 27177 C 2499.8 -0.983793 5.11831 0
M  V30 27178 C 2497.13 -0.620123 5.83414 0
M  V30 27179 C 2499.48 -0.353405 6.31612 0
M  V30 27180 C 2498.14 -0.166154 6.67293 0
M  V30 27181 H 2497.41 -0.400425 0.623491 0
M  V30 27182 H 2500.06 -0.374622 1.878 0
M  V30 27183 H 2498.36 -2.85363 2.68468 0
M  V30 27184 H 2500.06 -2.64381 3.01502 0
M  V30 27185 H 2496.65 -1.58536 3.98201 0
M  V30 27186 H 2500.83 -1.10677 4.83802 0
M  V30 27187 H 2496.09 -0.463574 6.0964 0
M  V30 27188 H 2500.26 0.00769796 6.964 0
M  V30 27189 H 2497.89 0.335181 7.59461 0
M  V30 27190 N 2499.47 -1.45169 -0.613489 0
M  V30 27191 C 2500.72 -1.48583 -1.36994 0
M  V30 27192 C 2501.04 -0.126579 -1.94589 0
M  V30 27193 O 2500.31 0.843341 -1.76818 0
M  V30 27194 H 2498.89 -0.547163 -0.508549 0
M  V30 27195 H 2501.55 -1.81081 -0.720821 0
M  V30 27196 H 2500.64 -2.22131 -2.19236 0
M  V30 27197 N 2500.95 0.855472 -1.32361 0
M  V30 27198 C 2501.91 1.94553 -1.21168 0
M  V30 27199 C 2502.91 1.60233 -0.134936 0
M  V30 27200 O 2504.1 1.69886 -0.385279 0
M  V30 27201 C 2501.23 3.29789 -0.86325 0
M  V30 27202 H 2502.42 2.05907 -2.18042 0
M  V30 27203 H 2499.98 1.04555 -1.1618 0
M  V30 27204 H 2500.71 3.24134 0.103712 0
M  V30 27205 H 2500.5 3.56075 -1.64173 0
M  V30 27206 H 2501.99 4.09684 -0.809228 0
M  V30 27207 N 2502.42 1.15558 1.07164 0
M  V30 27208 C 2503.67 0.929795 1.79441 0
M  V30 27209 C 2503.99 -0.544381 1.87247 0
M  V30 27210 O 2503.26 -1.39562 1.37475 0
M  V30 27211 H 2501.84 0.341014 0.664619 0
M  V30 27212 H 2504.5 1.45659 1.29497 0
M  V30 27213 H 2503.6 1.34084 2.8183 0
M  V30 27214 N 2503.9 -1.25546 0.952678 0
M  V30 27215 C 2504.85 -2.25961 0.47012 0
M  V30 27216 C 2505.82 -1.59123 -0.476356 0
M  V30 27217 O 2507 -1.86771 -0.390037 0
M  V30 27218 C 2504.14 -3.44209 -0.24782 0
M  V30 27219 C 2503.26 -4.2569 0.735666 0
M  V30 27220 C 2502.39 -5.312 -0.00463723 0
M  V30 27221 C 2501.43 -6.04367 0.969911 0
M  V30 27222 N 2500.57 -7.01616 0.260609 0
M  V30 27223 H 2505.41 -2.66609 1.33131 0
M  V30 27224 H 2502.94 -1.31075 0.667673 0
M  V30 27225 H 2504.9 -4.11611 -0.680622 0
M  V30 27226 H 2503.53 -3.04442 -1.07307 0
M  V30 27227 H 2502.58 -3.57969 1.28695 0
M  V30 27228 H 2503.9 -4.76355 1.47942 0
M  V30 27229 H 2503.05 -6.04668 -0.496169 0
M  V30 27230 H 2501.79 -4.81403 -0.781198 0
M  V30 27231 H 2500.79 -5.29716 1.47246 0
M  V30 27232 H 2502.02 -6.56253 1.74667 0
M  V30 27233 H 2499.97 -6.54113 -0.497249 0
M  V30 27234 H 2499.88 -7.50089 0.943494 0
M  V30 27235 H 2501.15 -7.79219 -0.20945 0
M  V30 27236 N 2505.38 -0.721022 -1.40139 0
M  V30 27237 C 2506.63 -0.259839 -2.00019 0
M  V30 27238 C 2506.94 1.15524 -1.57841 0
M  V30 27239 O 2508.15 1.71522 -2.10458 0
M  V30 27240 C 2506.6 -0.413629 -3.57515 0
M  V30 27241 C 2506.21 -1.83569 -4.08664 0
M  V30 27242 C 2507.96 -0.0135133 -4.24498 0
M  V30 27243 C 2505.86 -1.93978 -5.58683 0
M  V30 27244 H 2504.79 -0.0933938 -0.748194 0
M  V30 27245 H 2507.44 -0.892894 -1.60311 0
M  V30 27246 H 2505.83 0.288099 -3.94951 0
M  V30 27247 H 2507 -2.56824 -3.82594 0
M  V30 27248 H 2505.31 -2.18776 -3.54297 0
M  V30 27249 H 2507.91 -0.0704894 -5.34654 0
M  V30 27250 H 2508.25 1.0292 -4.03377 0
M  V30 27251 H 2508.79 -0.665884 -3.92187 0
M  V30 27252 H 2505.53 -2.9639 -5.84665 0
M  V30 27253 H 2505.05 -1.25142 -5.866 0
M  V30 27254 H 2506.73 -1.71442 -6.23872 0
M  V30 27255 N 2506.86 1.50503 -0.467606 0
M  V30 27256 C 2507.77 2.32213 0.333779 0
M  V30 27257 C 2508.78 1.42443 0.999298 0
M  V30 27258 O 2509.96 1.75499 0.988037 0
M  V30 27259 C 2507.02 3.17024 1.40344 0
M  V30 27260 C 2506.09 4.22611 0.754887 0
M  V30 27261 C 2505.32 5.03368 1.77358 0
M  V30 27262 O 2505.54 4.85155 2.99967 0
M  V30 27263 O 2504.48 5.86626 1.34734 0
M  V30 27264 H 2508.3 3.01856 -0.33412 0
M  V30 27265 H 2505.89 1.47626 -0.229522 0
M  V30 27266 H 2507.77 3.6966 2.02311 0
M  V30 27267 H 2506.44 2.50113 2.05487 0
M  V30 27268 H 2505.35 3.73976 0.0963587 0
M  V30 27269 H 2506.68 4.91982 0.146459 0
M  V30 27270 N 2508.34 0.200077 1.56325 0
M  V30 27271 C 2509.28 -0.735443 2.20667 0
M  V30 27272 C 2510.28 -1.21603 1.17937 0
M  V30 27273 O 2511.48 -1.17835 1.3607 0
M  V30 27274 H 2507.86 -0.255529 0.707254 0
M  V30 27275 H 2509.83 -0.169114 2.9792 0
M  V30 27276 C 2508.58 -1.94227 2.88394 0
M  V30 27277 H 2507.9 -1.58155 3.67188 0
M  V30 27278 H 2509.34 -2.57511 3.36844 0
M  V30 27279 C 2507.8 -2.78418 1.89697 0
M  V30 27280 O 2508.33 -3.765 1.40038 0
M  V30 27281 N 2506.54 -2.44013 1.57817 0
M  V30 27282 H 2506.08 -1.6431 1.98393 0
M  V30 27283 H 2506.04 -3.00627 0.920378 0
M  V30 27284 N 2509.81 -1.57429 -0.0734901 0
M  V30 27285 C 2511.06 -1.86797 -0.77144 0
M  V30 27286 C 2511.38 -0.791835 -1.78199 0
M  V30 27287 O 2510.65 0.179684 -1.95074 0
M  V30 27288 H 2509.23 -0.689292 -0.287898 0
M  V30 27289 H 2511.89 -1.94836 -0.0499818 0
M  V30 27290 H 2510.99 -2.84252 -1.28869 0
M  V30 27291 N 2511.29 0.344839 -1.53781 0
M  V30 27292 C 2512.22 1.42903 -1.84665 0
M  V30 27293 C 2513.2 1.54953 -0.701675 0
M  V30 27294 O 2514.39 1.69182 -0.953467 0
M  V30 27295 C 2511.52 2.79971 -2.05508 0
M  V30 27296 C 2510.47 2.82728 -3.21323 0
M  V30 27297 C 2509.8 4.22669 -3.27498 0
M  V30 27298 C 2511.1 2.48381 -4.59461 0
M  V30 27299 H 2512.79 1.17306 -2.75463 0
M  V30 27300 H 2510.34 0.562872 -1.32543 0
M  V30 27301 H 2512.29 3.55863 -2.25697 0
M  V30 27302 H 2511.01 3.07 -1.1144 0
M  V30 27303 H 2509.67 2.09289 -3.00988 0
M  V30 27304 H 2509.32 4.46806 -2.31027 0
M  V30 27305 H 2509.02 4.25426 -4.05323 0
M  V30 27306 H 2510.55 5.00405 -3.49895 0
M  V30 27307 H 2511.96 3.13986 -4.79672 0
M  V30 27308 H 2510.36 2.62422 -5.3968 0
M  V30 27309 H 2511.43 1.43572 -4.63158 0
M  V30 27310 N 2512.77 1.45492 0.605781 0
M  V30 27311 C 2514.01 1.51145 1.37603 0
M  V30 27312 C 2514.37 0.150108 1.91412 0
M  V30 27313 O 2515.57 0.08133 2.68677 0
M  V30 27314 C 2513.85 2.56199 2.49192 0
M  V30 27315 S 2515.4 2.81089 3.36949 0
M  V30 27316 H 2512.22 0.534283 0.469108 0
M  V30 27317 H 2514.82 1.82584 0.698813 0
M  V30 27318 H 2513.53 3.53777 2.08014 0
M  V30 27319 H 2513.06 2.26416 3.21713 0
M  V30 27320 H 2515.07 2.14605 4.47391 0
M  V30 27321 N 2514.25 -0.848441 1.32813 0
M  V30 27322 C 2515.5 -1.59796 1.23078 0
M  V30 27323 C 2515.81 -1.94529 -0.204385 0
M  V30 27324 O 2517.02 -2.68174 -0.423654 0
M  V30 27325 C 2515.47 -2.88175 2.15599 0
M  V30 27326 C 2515.08 -2.60843 3.64232 0
M  V30 27327 C 2516.82 -3.66193 2.14715 0
M  V30 27328 C 2514.73 -3.85261 4.48696 0
M  V30 27329 H 2513.66 -0.599645 0.457101 0
M  V30 27330 H 2516.31 -0.936314 1.57814 0
M  V30 27331 H 2514.69 -3.5583 1.73784 0
M  V30 27332 H 2515.87 -2.0146 4.14428 0
M  V30 27333 H 2514.18 -1.96144 3.6731 0
M  V30 27334 H 2516.78 -4.58529 2.75054 0
M  V30 27335 H 2517.12 -4.00395 1.13973 0
M  V30 27336 H 2517.66 -3.05451 2.54842 0
M  V30 27337 H 2514.4 -3.56197 5.50276 0
M  V30 27338 H 2513.92 -4.44017 4.03248 0
M  V30 27339 H 2515.59 -4.52938 4.62014 0
M  V30 27340 N 2515.73 -1.16125 -1.06549 0
M  V30 27341 C 2516.97 -0.951798 -1.80887 0
M  V30 27342 C 2517.33 0.511432 -1.85063 0
M  V30 27343 O 2518.53 0.839495 -2.55354 0
M  V30 27344 C 2516.8 -1.55899 -3.21606 0
M  V30 27345 S 2518.36 -1.49381 -4.1259 0
M  V30 27346 H 2515.18 -0.342352 -0.62315 0
M  V30 27347 H 2517.78 -1.47823 -1.2794 0
M  V30 27348 H 2516.49 -2.6167 -3.1616 0
M  V30 27349 H 2516.02 -1.03177 -3.79629 0
M  V30 27350 H 2518.03 -0.492282 -4.93752 0
M  V30 27351 N 2517.2 1.25039 -0.959323 0
M  V30 27352 C 2518.17 2.23951 -0.487717 0
M  V30 27353 C 2519.17 1.55454 0.411162 0
M  V30 27354 O 2520.36 1.72956 0.207794 0
M  V30 27355 C 2517.49 3.39623 0.294748 0
M  V30 27356 H 2518.68 2.67187 -1.36203 0
M  V30 27357 H 2516.24 1.37507 -0.743066 0
M  V30 27358 H 2516.97 3.01815 1.18652 0
M  V30 27359 H 2516.76 3.90533 -0.350189 0
M  V30 27360 H 2518.25 4.13061 0.614017 0
M  V30 27361 N 2518.68 0.728444 1.39755 0
M  V30 27362 C 2519.65 0.09277 2.29012 0
M  V30 27363 C 2520.65 -0.674 1.45993 0
M  V30 27364 O 2521.84 -0.50399 1.6675 0
M  V30 27365 C 2518.97 -0.878079 3.29397 0
M  V30 27366 H 2520.16 0.879061 2.86727 0
M  V30 27367 H 2517.71 0.493873 1.48292 0
M  V30 27368 H 2518.45 -1.69096 2.76725 0
M  V30 27369 H 2518.23 -0.330983 3.90701 0
M  V30 27370 H 2519.72 -1.31963 3.96201 0
M  V30 27371 N 2520.16 -1.50253 0.475581 0
M  V30 27372 C 2521.09 -2.25305 -0.362341 0
M  V30 27373 C 2522.07 -1.28805 -0.992371 0
M  V30 27374 O 2523.26 -1.58038 -1.02743 0
M  V30 27375 C 2520.38 -3.03274 -1.50807 0
M  V30 27376 C 2519.43 -4.14732 -0.994971 0
M  V30 27377 S 2520.26 -5.35418 0.0939377 0
M  V30 27378 C 2521.42 -6.16935 -1.05556 0
M  V30 27379 H 2521.65 -2.96028 0.274738 0
M  V30 27380 H 2519.18 -1.52186 0.260522 0
M  V30 27381 H 2521.14 -3.48785 -2.1647 0
M  V30 27382 H 2519.8 -2.32068 -2.11668 0
M  V30 27383 H 2519 -4.68706 -1.85284 0
M  V30 27384 H 2518.6 -3.71679 -0.415987 0
M  V30 27385 H 2520.89 -6.4834 -1.96624 0
M  V30 27386 H 2521.83 -7.05922 -0.554985 0
M  V30 27387 H 2522.24 -5.49056 -1.31142 0
M  V30 27388 N 2521.64 -0.208365 -1.56217 0
M  V30 27389 C 2523.05 0.301871 -1.84243 0
M  V30 27390 C 2523.4 1.60432 -1.12942 0
M  V30 27391 O 2522.53 2.12771 -0.394647 0
M  V30 27392 C 2523.12 0.554484 -3.34232 0
M  V30 27393 C 2521.68 1.00906 -3.62622 0
M  V30 27394 C 2520.83 0.0648843 -2.77224 0
M  V30 27395 H 2523.78 -0.43186 -1.52711 0
M  V30 27396 H 2523.8 1.40216 -3.53723 0
M  V30 27397 H 2523.31 -0.393629 -3.86099 0
M  V30 27398 H 2521.41 1.97099 -3.16201 0
M  V30 27399 H 2521.52 0.892591 -4.70712 0
M  V30 27400 H 2519.89 0.569247 -2.48257 0
M  V30 27401 H 2520.67 -0.87791 -3.31885 0
M  V30 27402 N 2523.12 1.57465 0.0651402 0
M  V30 27403 C 2524.34 1.92191 0.779572 0
M  V30 27404 C 2524.77 0.805363 1.69987 0
M  V30 27405 O 2524.12 -0.241404 1.79686 0
M  V30 27406 C 2524.17 3.25892 1.54358 0
M  V30 27407 O 2523.28 3.15595 2.65469 0
M  V30 27408 H 2522.62 0.629167 0.212238 0
M  V30 27409 H 2525.15 2.04576 0.0313934 0
M  V30 27410 H 2525.16 3.59926 1.92139 0
M  V30 27411 H 2523.83 4.06733 0.868386 0
M  V30 27412 H 2522.41 2.93132 2.30496 0
M  V30 27413 N 2524.59 -0.336679 1.53962 0
M  V30 27414 C 2525.54 -1.41378 1.82431 0
M  V30 27415 C 2526.51 -1.51967 0.670471 0
M  V30 27416 O 2527.7 -1.67396 0.915595 0
M  V30 27417 C 2524.84 -2.77931 2.04569 0
M  V30 27418 C 2523.95 -2.76078 3.32272 0
M  V30 27419 C 2523.08 -4.04393 3.44441 0
M  V30 27420 C 2522.12 -3.96796 4.66068 0
M  V30 27421 N 2521.26 -5.16815 4.75234 0
M  V30 27422 H 2526.1 -1.164 2.74326 0
M  V30 27423 H 2523.64 -0.563728 1.35869 0
M  V30 27424 H 2525.6 -3.57297 2.15394 0
M  V30 27425 H 2524.23 -3.01245 1.15979 0
M  V30 27426 H 2523.28 -1.88778 3.30253 0
M  V30 27427 H 2524.59 -2.66344 4.21737 0
M  V30 27428 H 2523.74 -4.92186 3.54737 0
M  V30 27429 H 2522.48 -4.16917 2.53044 0
M  V30 27430 H 2521.49 -3.07388 4.55843 0
M  V30 27431 H 2522.71 -3.85849 5.58836 0
M  V30 27432 H 2520.66 -5.2987 3.86748 0
M  V30 27433 H 2520.58 -5.09364 5.58645 0
M  V30 27434 H 2521.84 -6.06359 4.89846 0
M  V30 27435 N 2526.07 -1.45812 -0.598057 0
M  V30 27436 C 2527.32 -1.50548 -1.35879 0
M  V30 27437 C 2527.65 -0.150479 -1.93616 0
M  V30 27438 O 2526.93 0.836249 -1.75605 0
M  V30 27439 C 2527.21 -2.59213 -2.49962 0
M  V30 27440 C 2527.06 -4.0419 -1.9736 0
M  V30 27441 C 2528.38 -2.64082 -3.52063 0
M  V30 27442 H 2525.5 -0.548095 -0.492707 0
M  V30 27443 H 2528.14 -1.77671 -0.673288 0
M  V30 27444 H 2526.29 -2.36216 -3.08439 0
M  V30 27445 H 2527.96 -4.38426 -1.43458 0
M  V30 27446 H 2526.21 -4.14395 -1.28293 0
M  V30 27447 H 2526.88 -4.75925 -2.79641 0
M  V30 27448 H 2529.35 -2.84713 -3.03443 0
M  V30 27449 H 2528.23 -3.41961 -4.29364 0
M  V30 27450 H 2528.49 -1.69538 -4.08301 0
M  V30 27451 N 2527.55 0.841385 -1.33261 0
M  V30 27452 C 2528.8 1.59884 -1.2476 0
M  V30 27453 C 2529.13 1.93299 0.186879 0
M  V30 27454 O 2528.4 1.58482 1.12755 0
M  V30 27455 C 2528.69 2.91051 -2.12041 0
M  V30 27456 C 2528.54 2.64334 -3.63934 0
M  V30 27457 C 2529.86 3.92455 -1.99166 0
M  V30 27458 H 2526.98 0.58013 -0.454553 0
M  V30 27459 H 2529.62 0.970619 -1.63337 0
M  V30 27460 H 2527.77 3.44666 -1.79271 0
M  V30 27461 H 2529.44 2.17171 -4.06982 0
M  V30 27462 H 2527.69 1.98075 -3.85939 0
M  V30 27463 H 2528.36 3.57788 -4.20347 0
M  V30 27464 H 2530.83 3.48139 -2.27901 0
M  V30 27465 H 2529.71 4.82068 -2.62492 0
M  V30 27466 H 2529.97 4.31481 -0.963158 0
M  V30 27467 N 2529.03 1.16688 1.05932 0
M  V30 27468 C 2530.28 0.945116 1.78187 0
M  V30 27469 C 2530.59 -0.527988 1.88339 0
M  V30 27470 O 2531.8 -0.867754 2.57259 0
M  V30 27471 C 2530.25 1.64173 3.20274 0
M  V30 27472 C 2529.86 3.15285 3.18276 0
M  V30 27473 C 2531.61 1.50207 3.97037 0
M  V30 27474 C 2529.51 3.77668 4.55105 0
M  V30 27475 H 2528.44 0.349971 0.66786 0
M  V30 27476 H 2531.09 1.3986 1.18791 0
M  V30 27477 H 2529.48 1.11596 3.79951 0
M  V30 27478 H 2530.65 3.74735 2.68161 0
M  V30 27479 H 2528.96 3.29178 2.55012 0
M  V30 27480 H 2531.56 1.94192 4.9819 0
M  V30 27481 H 2531.9 0.451533 4.13844 0
M  V30 27482 H 2532.44 1.9996 3.43891 0
M  V30 27483 H 2529.18 4.82685 4.43503 0
M  V30 27484 H 2528.7 3.23003 5.054 0
M  V30 27485 H 2530.38 3.79437 5.24057 0
M  V30 27486 N 2530.51 -1.24529 0.96594 0
M  V30 27487 C 2531.44 -2.27783 0.513516 0
M  V30 27488 C 2532.42 -1.6415 -0.445945 0
M  V30 27489 O 2533.6 -1.91157 -0.342451 0
M  V30 27490 C 2530.73 -3.46731 -0.198778 0
M  V30 27491 C 2529.69 -4.22619 0.67653 0
M  V30 27492 C 2529.01 -5.34439 -0.167154 0
M  V30 27493 C 2530.31 -4.84119 1.96026 0
M  V30 27494 H 2532.01 -2.65879 1.37654 0
M  V30 27495 H 2529.55 -1.27811 0.663344 0
M  V30 27496 H 2531.51 -4.18098 -0.526493 0
M  V30 27497 H 2530.23 -3.07656 -1.09614 0
M  V30 27498 H 2528.89 -3.5305 0.987492 0
M  V30 27499 H 2528.54 -4.91604 -1.06462 0
M  V30 27500 H 2528.24 -5.86131 0.415284 0
M  V30 27501 H 2529.76 -6.08634 -0.489581 0
M  V30 27502 H 2531.18 -5.4757 1.69823 0
M  V30 27503 H 2529.57 -5.46036 2.48927 0
M  V30 27504 H 2530.64 -4.05672 2.65629 0
M  V30 27505 N 2531.99 -0.735845 -1.39367 0
M  V30 27506 C 2533.4 -0.411519 -1.54203 0
M  V30 27507 C 2533.6 1.07752 -1.7027 0
M  V30 27508 O 2532.66 1.86363 -1.70367 0
M  V30 27509 C 2533.97 -1.19528 -2.75923 0
M  V30 27510 C 2535.52 -1.18359 -2.89759 0
M  V30 27511 C 2535.99 -1.94993 -4.14417 0
M  V30 27512 N 2537.48 -1.92164 -4.21459 0
M  V30 27513 C 2538.22 -2.48268 -5.16866 0
M  V30 27514 N 2537.72 -3.13012 -6.18058 0
M  V30 27515 N 2539.51 -2.38296 -5.09089 0
M  V30 27516 H 2531.66 -1.7011 -1.27186 0
M  V30 27517 H 2533.92 -0.720158 -0.616504 0
M  V30 27518 H 2533.63 -2.24897 -2.70397 0
M  V30 27519 H 2533.5 -0.800286 -3.68613 0
M  V30 27520 H 2535.89 -0.138027 -2.94777 0
M  V30 27521 H 2535.97 -1.61796 -1.9813 0
M  V30 27522 H 2535.61 -2.99551 -4.10161 0
M  V30 27523 H 2535.54 -1.48962 -5.05092 0
M  V30 27524 H 2538.04 -1.44997 -3.48976 0
M  V30 27525 H 2538.35 -3.53287 -6.8732 0
M  V30 27526 H 2536.69 -3.17102 -6.18443 0
M  V30 27527 H 2539.88 -1.87357 -4.2897 0
M  V30 27528 H 2540.06 -2.82318 -5.83267 0
M  V30 27529 N 2533.46 1.49999 -0.483543 0
M  V30 27530 C 2534.69 2.065 0.0643533 0
M  V30 27531 C 2535.1 1.34617 1.32947 0
M  V30 27532 O 2534.44 0.412787 1.79002 0
M  V30 27533 C 2534.51 3.57201 0.40592 0
M  V30 27534 C 2534.17 4.50654 -0.758954 0
M  V30 27535 C 2535.17 4.93205 -1.64454 0
M  V30 27536 C 2532.85 4.9318 -0.952812 0
M  V30 27537 C 2534.85 5.77002 -2.70828 0
M  V30 27538 C 2532.53 5.76757 -2.01976 0
M  V30 27539 C 2533.53 6.18571 -2.89585 0
M  V30 27540 O 2533.22 7.00479 -3.94441 0
M  V30 27541 H 2532.95 0.675935 -0.00935974 0
M  V30 27542 H 2535.51 1.93992 -0.674994 0
M  V30 27543 H 2533.74 3.67655 1.19863 0
M  V30 27544 H 2535.42 3.96014 0.890364 0
M  V30 27545 H 2536.19 4.61009 -1.50651 0
M  V30 27546 H 2532.07 4.60147 -0.280328 0
M  V30 27547 H 2535.61 6.09559 -3.3924 0
M  V30 27548 H 2531.51 6.08366 -2.15781 0
M  V30 27549 H 2532.28 7.18754 -3.91581 0
M  V30 27550 N 2534.94 0.216646 1.56104 0
M  V30 27551 C 2535.89 -0.711997 2.21435 0
M  V30 27552 C 2536.88 -1.20345 1.1922 0
M  V30 27553 O 2538.09 -1.16385 1.37312 0
M  V30 27554 H 2534.46 -0.248014 0.709925 0
M  V30 27555 H 2536.44 -0.137506 2.98083 0
M  V30 27556 C 2535.18 -1.91158 2.90438 0
M  V30 27557 H 2534.51 -1.54251 3.68845 0
M  V30 27558 H 2535.95 -2.53924 3.39557 0
M  V30 27559 C 2534.41 -2.7639 1.9264 0
M  V30 27560 O 2534.94 -3.74993 1.44024 0
M  V30 27561 N 2533.14 -2.42325 1.60396 0
M  V30 27562 H 2532.69 -1.62197 2.00125 0
M  V30 27563 H 2532.65 -2.99634 0.952212 0
M  V30 27564 N 2536.42 -1.57498 -0.0567885 0
M  V30 27565 C 2537.33 -2.08085 -1.08342 0
M  V30 27566 C 2538.35 -1.01349 -1.41437 0
M  V30 27567 O 2539.52 -1.32914 -1.51313 0
M  V30 27568 C 2536.59 -2.52719 -2.37347 0
M  V30 27569 C 2535.65 -3.73819 -2.11087 0
M  V30 27570 C 2534.88 -4.16316 -3.33941 0
M  V30 27571 O 2535.1 -3.58555 -4.43615 0
M  V30 27572 O 2534.04 -5.08988 -3.2127 0
M  V30 27573 H 2537.86 -2.95906 -0.683615 0
M  V30 27574 H 2535.45 -1.46904 -0.271939 0
M  V30 27575 H 2537.33 -2.81883 -3.13241 0
M  V30 27576 H 2536.01 -1.68021 -2.76678 0
M  V30 27577 H 2534.91 -3.49717 -1.3285 0
M  V30 27578 H 2536.25 -4.59416 -1.76629 0
M  V30 27579 N 2537.9 0.328509 -1.54138 0
M  V30 27580 C 2538.85 1.42424 -1.83897 0
M  V30 27581 C 2539.84 1.5378 -0.710505 0
M  V30 27582 O 2541.05 1.56224 -0.89409 0
M  V30 27583 H 2537.42 0.475179 -0.582846 0
M  V30 27584 H 2539.39 1.14547 -2.75539 0
M  V30 27585 C 2538.14 2.7872 -2.07871 0
M  V30 27586 H 2537.46 2.70755 -2.94163 0
M  V30 27587 H 2538.9 3.54471 -2.3265 0
M  V30 27588 C 2537.36 3.25506 -0.868746 0
M  V30 27589 O 2537.89 4.01629 -0.0755614 0
M  V30 27590 N 2536.1 2.8249 -0.68176 0
M  V30 27591 H 2535.65 2.20705 -1.32841 0
M  V30 27592 H 2535.6 3.14146 0.126319 0
M  V30 27593 N 2539.38 1.46127 0.590316 0
M  V30 27594 C 2540.31 1.58969 1.71029 0
M  V30 27595 C 2541.29 0.440364 1.64301 0
M  V30 27596 O 2542.47 0.665666 1.82435 0
M  V30 27597 C 2539.6 1.57246 3.09662 0
M  V30 27598 C 2538.56 2.71072 3.31216 0
M  V30 27599 C 2537.88 2.54408 4.70299 0
M  V30 27600 C 2539.18 4.12956 3.19789 0
M  V30 27601 H 2540.88 2.52721 1.60538 0
M  V30 27602 H 2538.42 1.21626 0.770912 0
M  V30 27603 H 2540.37 1.64826 3.87828 0
M  V30 27604 H 2539.1 0.600345 3.21035 0
M  V30 27605 H 2537.76 2.62949 2.55447 0
M  V30 27606 H 2537.41 1.55296 4.78427 0
M  V30 27607 H 2537.11 3.30749 4.85674 0
M  V30 27608 H 2538.63 2.63867 5.50642 0
M  V30 27609 H 2540.04 4.2223 3.87807 0
M  V30 27610 H 2538.44 4.89824 3.46688 0
M  V30 27611 H 2539.51 4.33647 2.16976 0
M  V30 27612 N 2540.85 -0.834306 1.33705 0
M  V30 27613 C 2542.08 -1.62703 1.28618 0
M  V30 27614 C 2542.5 -1.87584 -0.139209 0
M  V30 27615 O 2541.86 -1.44322 -1.09731 0
M  V30 27616 C 2541.91 -2.95167 2.07144 0
M  V30 27617 O 2541.01 -3.86696 1.43317 0
M  V30 27618 H 2540.35 -0.495272 0.442269 0
M  V30 27619 H 2542.88 -1.03762 1.76336 0
M  V30 27620 H 2542.89 -3.44827 2.18079 0
M  V30 27621 H 2541.57 -2.7638 3.10784 0
M  V30 27622 H 2540.15 -3.45192 1.41056 0
M  V30 27623 N 2542.33 -1.17248 -1.05312 0
M  V30 27624 C 2543.28 -0.888096 -2.13029 0
M  V30 27625 C 2544.25 0.167508 -1.65253 0
M  V30 27626 O 2545.43 0.0305639 -1.90776 0
M  V30 27627 C 2542.57 -0.406207 -3.42701 0
M  V30 27628 C 2541.69 -1.52579 -4.04158 0
M  V30 27629 C 2540.82 -0.9979 -5.21743 0
M  V30 27630 C 2539.86 -2.09301 -5.75204 0
M  V30 27631 N 2539 -1.57998 -6.84091 0
M  V30 27632 H 2543.84 -1.81052 -2.36694 0
M  V30 27633 H 2541.37 -0.903034 -1.16119 0
M  V30 27634 H 2543.33 -0.108378 -4.17059 0
M  V30 27635 H 2541.96 0.479257 -3.19222 0
M  V30 27636 H 2541.01 -1.93937 -3.2725 0
M  V30 27637 H 2542.33 -2.3518 -4.39877 0
M  V30 27638 H 2541.48 -0.653845 -6.03166 0
M  V30 27639 H 2540.22 -0.141318 -4.87495 0
M  V30 27640 H 2539.22 -2.44566 -4.9241 0
M  V30 27641 H 2540.45 -2.95373 -6.11499 0
M  V30 27642 H 2538.4 -0.746094 -6.51743 0
M  V30 27643 H 2538.31 -2.34207 -7.18807 0
M  V30 27644 H 2539.58 -1.26482 -7.6917 0
M  V30 27645 N 2543.81 1.24015 -0.972531 0
M  V30 27646 C 2545.04 1.95979 -0.653888 0
M  V30 27647 C 2545.45 1.72293 0.781771 0
M  V30 27648 O 2544.79 1.00646 1.53675 0
M  V30 27649 C 2544.85 3.49193 -0.85467 0
M  V30 27650 C 2544.52 3.96585 -2.27089 0
M  V30 27651 C 2545.51 4.05878 -3.24899 0
M  V30 27652 C 2543.2 4.29781 -2.59988 0
M  V30 27653 C 2545.19 4.47708 -4.53692 0
M  V30 27654 C 2542.88 4.71294 -3.89005 0
M  V30 27655 C 2543.88 4.80223 -4.85669 0
M  V30 27656 O 2543.57 5.20807 -6.12385 0
M  V30 27657 H 2543.3 0.630975 -0.242583 0
M  V30 27658 H 2545.85 1.5867 -1.30433 0
M  V30 27659 H 2544.08 3.8642 -0.147053 0
M  V30 27660 H 2545.77 4.02367 -0.534382 0
M  V30 27661 H 2546.54 3.80443 -3.00812 0
M  V30 27662 H 2542.42 4.22047 -1.85464 0
M  V30 27663 H 2545.96 4.54592 -5.29143 0
M  V30 27664 H 2541.86 4.96177 -4.12891 0
M  V30 27665 H 2542.63 5.38943 -6.16022 0
M  V30 27666 N 2545.29 0.743226 1.38974 0
M  V30 27667 C 2546.53 0.299575 2.02193 0
M  V30 27668 C 2546.89 -1.09503 1.57712 0
M  V30 27669 O 2548.09 -1.63722 2.13187 0
M  V30 27670 C 2546.36 0.406885 3.55076 0
M  V30 27671 S 2547.92 0.044288 4.38778 0
M  V30 27672 H 2544.74 0.116849 0.701333 0
M  V30 27673 H 2547.34 0.971559 1.6965 0
M  V30 27674 H 2546.05 1.42302 3.84939 0
M  V30 27675 H 2545.58 -0.282638 3.92383 0
M  V30 27676 H 2547.59 -1.16939 4.82224 0
M  V30 27677 N 2546.77 -1.4974 0.491491 0
M  V30 27678 C 2548.02 -2.01616 -0.0581834 0
M  V30 27679 C 2548.33 -1.37693 -1.38925 0
M  V30 27680 O 2549.53 -1.80842 -2.02506 0
M  V30 27681 C 2547.99 -3.5957 -0.154172 0
M  V30 27682 C 2547.6 -4.32461 1.16968 0
M  V30 27683 C 2549.34 -4.19421 -0.654717 0
M  V30 27684 C 2547.25 -5.82249 1.03637 0
M  V30 27685 H 2546.18 -0.753568 -0.0255184 0
M  V30 27686 H 2548.83 -1.72365 0.629475 0
M  V30 27687 H 2547.21 -3.85495 -0.90607 0
M  V30 27688 H 2548.39 -4.18244 1.93412 0
M  V30 27689 H 2546.7 -3.84312 1.60292 0
M  V30 27690 H 2549.3 -5.291 -0.77181 0
M  V30 27691 H 2549.64 -3.82153 -1.6512 0
M  V30 27692 H 2550.17 -3.9778 0.040374 0
M  V30 27693 H 2546.91 -6.24024 2.00683 0
M  V30 27694 H 2546.43 -5.98985 0.312651 0
M  V30 27695 H 2548.11 -6.43079 0.711227 0
M  V30 27696 N 2548.24 -0.224922 -1.55987 0
M  V30 27697 C 2549.66 0.130398 -1.59066 0
M  V30 27698 C 2549.86 1.58688 -1.24179 0
M  V30 27699 O 2548.92 2.32764 -0.978633 0
M  V30 27700 C 2550.23 -0.198935 -3.00041 0
M  V30 27701 C 2551.78 -0.141446 -3.1268 0
M  V30 27702 C 2552.25 -0.444502 -4.55838 0
M  V30 27703 N 2553.74 -0.394196 -4.6152 0
M  V30 27704 C 2554.48 -0.602138 -5.7023 0
M  V30 27705 N 2553.97 -0.872035 -6.8729 0
M  V30 27706 N 2555.77 -0.534344 -5.59554 0
M  V30 27707 H 2547.92 -1.17501 -1.76939 0
M  V30 27708 H 2550.18 -0.471212 -0.822596 0
M  V30 27709 H 2549.89 -1.20995 -3.30232 0
M  V30 27710 H 2549.76 0.48447 -3.74076 0
M  V30 27711 H 2552.15 0.860215 -2.82284 0
M  V30 27712 H 2552.23 -0.858377 -2.40968 0
M  V30 27713 H 2551.87 -1.44362 -4.86952 0
M  V30 27714 H 2551.8 0.29366 -5.25781 0
M  V30 27715 H 2554.29 -0.193422 -3.77405 0
M  V30 27716 H 2554.61 -1.01871 -7.66056 0
M  V30 27717 H 2552.95 -0.909266 -6.89026 0
M  V30 27718 H 2556.14 -0.323694 -4.66979 0
M  V30 27719 H 2556.32 -0.699806 -6.4421 0
M  V30 27720 N 2549.72 1.57526 0.0484352 0
M  V30 27721 C 2550.67 2.05276 1.055 0
M  V30 27722 C 2551.64 0.937951 1.37083 0
M  V30 27723 O 2552.82 1.20723 1.47752 0
M  V30 27724 C 2549.96 2.52097 2.35672 0
M  V30 27725 C 2549.08 3.77292 2.10417 0
M  V30 27726 C 2548.21 4.128 3.3432 0
M  V30 27727 C 2547.25 5.30968 3.04532 0
M  V30 27728 N 2546.39 5.62001 4.20831 0
M  V30 27729 H 2551.23 2.91028 0.640834 0
M  V30 27730 H 2548.77 1.43907 0.304828 0
M  V30 27731 H 2550.72 2.77302 3.11704 0
M  V30 27732 H 2549.35 1.6929 2.74847 0
M  V30 27733 H 2548.41 3.59286 1.2497 0
M  V30 27734 H 2549.72 4.63451 1.8443 0
M  V30 27735 H 2548.87 4.39031 4.18732 0
M  V30 27736 H 2547.61 3.25254 3.63403 0
M  V30 27737 H 2546.62 5.04509 2.18519 0
M  V30 27738 H 2547.84 6.20151 2.76748 0
M  V30 27739 H 2545.79 4.77414 4.49902 0
M  V30 27740 H 2545.7 6.42629 3.98201 0
M  V30 27741 H 2546.97 5.92797 5.06173 0
M  V30 27742 N 2551.2 -0.32033 1.5431 0
M  V30 27743 C 2552.11 -1.4173 1.86948 0
M  V30 27744 C 2553.13 -1.56441 0.761717 0
M  V30 27745 O 2554.3 -1.71475 1.05632 0
M  V30 27746 C 2551.37 -2.76397 2.09297 0
M  V30 27747 C 2550.43 -2.70835 3.33087 0
M  V30 27748 C 2549.66 -3.99079 3.5436 0
M  V30 27749 O 2549.88 -4.97503 2.79011 0
M  V30 27750 O 2548.82 -4.02142 4.47845 0
M  V30 27751 H 2552.64 -1.17057 2.80234 0
M  V30 27752 H 2550.23 -0.514649 1.40256 0
M  V30 27753 H 2552.11 -3.56109 2.25309 0
M  V30 27754 H 2550.79 -3.00954 1.19199 0
M  V30 27755 H 2549.69 -1.89663 3.22458 0
M  V30 27756 H 2551.03 -2.51232 4.23253 0
M  V30 27757 N 2552.68 -1.46438 -0.582558 0
M  V30 27758 C 2553.93 -1.51022 -1.33698 0
M  V30 27759 C 2554.24 -0.166393 -1.94891 0
M  V30 27760 O 2555.45 -0.0900431 -2.71351 0
M  V30 27761 C 2553.9 -2.66108 -2.42311 0
M  V30 27762 C 2553.51 -4.06913 -1.8742 0
M  V30 27763 C 2555.25 -2.79963 -3.19094 0
M  V30 27764 C 2553.16 -5.13338 -2.93663 0
M  V30 27765 H 2552.09 -0.56205 -0.502609 0
M  V30 27766 H 2554.74 -1.72649 -0.62167 0
M  V30 27767 H 2553.12 -2.37812 -3.16641 0
M  V30 27768 H 2554.3 -4.45 -1.19631 0
M  V30 27769 H 2552.61 -3.97725 -1.23303 0
M  V30 27770 H 2555.21 -3.56643 -3.98384 0
M  V30 27771 H 2555.55 -1.87486 -3.71692 0
M  V30 27772 H 2556.09 -3.07906 -2.5187 0
M  V30 27773 H 2552.83 -6.07609 -2.45951 0
M  V30 27774 H 2552.35 -4.79795 -3.5994 0
M  V30 27775 H 2554.02 -5.39188 -3.5761 0
M  V30 27776 N 2554.16 0.827204 -1.34146 0
M  V30 27777 C 2555.07 1.96973 -1.27432 0
M  V30 27778 C 2556.08 1.73038 -0.182758 0
M  V30 27779 O 2557.26 1.97214 -0.408461 0
M  V30 27780 C 2554.32 3.31192 -1.02532 0
M  V30 27781 C 2553.38 3.68164 -2.20802 0
M  V30 27782 C 2552.62 4.95978 -1.97081 0
M  V30 27783 O 2552.84 5.62818 -0.926921 0
M  V30 27784 O 2551.77 5.30728 -2.83921 0
M  V30 27785 H 2555.6 2.0558 -2.23541 0
M  V30 27786 H 2553.19 0.961969 -1.14309 0
M  V30 27787 H 2555.07 4.11587 -0.904099 0
M  V30 27788 H 2553.74 3.23562 -0.0945958 0
M  V30 27789 H 2552.65 2.88231 -2.38483 0
M  V30 27790 H 2553.98 3.80474 -3.1225 0
M  V30 27791 N 2555.63 1.17805 1.04688 0
M  V30 27792 C 2556.86 0.994262 1.81444 0
M  V30 27793 C 2557.28 -0.457427 1.83175 0
M  V30 27794 O 2556.63 -1.31768 1.26267 0
M  V30 27795 C 2556.69 1.53416 3.27332 0
M  V30 27796 O 2556.41 2.929 3.25793 0
M  V30 27797 C 2557.91 1.39567 4.20756 0
M  V30 27798 H 2555.13 0.351457 0.571593 0
M  V30 27799 H 2557.67 1.56211 1.31979 0
M  V30 27800 H 2555.83 1.00822 3.7405 0
M  V30 27801 H 2556.24 3.17956 4.17138 0
M  V30 27802 H 2557.71 1.8215 5.21081 0
M  V30 27803 H 2558.19 0.343471 4.37855 0
M  V30 27804 H 2558.8 1.91202 3.79897 0
M  V30 27805 N 2557.11 -1.23497 0.979094 0
M  V30 27806 C 2558.34 -1.96454 0.66488 0
M  V30 27807 C 2558.76 -1.72007 -0.761256 0
M  V30 27808 O 2558.12 -0.99074 -1.51836 0
M  V30 27809 C 2558.17 -3.47599 0.95954 0
M  V30 27810 O 2557.27 -4.12369 0.0508893 0
M  V30 27811 H 2556.61 -0.615059 0.250196 0
M  V30 27812 H 2559.14 -1.56968 1.31233 0
M  V30 27813 H 2559.15 -3.98046 0.895712 0
M  V30 27814 H 2557.83 -3.64719 1.99882 0
M  V30 27815 H 2556.41 -3.72517 0.169015 0
M  V30 27816 N 2558.59 -0.750586 -1.38578 0
M  V30 27817 C 2559.5 -0.122866 -2.34278 0
M  V30 27818 C 2560.52 0.704103 -1.59118 0
M  V30 27819 O 2561.69 0.628954 -1.91327 0
M  V30 27820 C 2558.76 0.762027 -3.38222 0
M  V30 27821 C 2557.82 -0.0789714 -4.29227 0
M  V30 27822 C 2557.05 0.763781 -5.28206 0
M  V30 27823 O 2557.28 2.00192 -5.34116 0
M  V30 27824 O 2556.21 0.184174 -6.01618 0
M  V30 27825 H 2560.04 -0.913139 -2.89647 0
M  V30 27826 H 2557.62 -0.511442 -1.40373 0
M  V30 27827 H 2559.5 1.26786 -4.01875 0
M  V30 27828 H 2558.18 1.53085 -2.85214 0
M  V30 27829 H 2557.08 -0.630686 -3.68745 0
M  V30 27830 H 2558.42 -0.810375 -4.85483 0
M  V30 27831 N 2560.07 1.49477 -0.499425 0
M  V30 27832 C 2561.48 1.8663 -0.0512479 0
M  V30 27833 C 2561.83 1.41189 1.36236 0
M  V30 27834 O 2560.96 0.789087 2.015 0
M  V30 27835 C 2561.55 3.3869 -0.0862246 0
M  V30 27836 C 2560.11 3.75149 0.306604 0
M  V30 27837 C 2559.26 2.73467 -0.459445 0
M  V30 27838 H 2562.21 1.41817 -0.712289 0
M  V30 27839 H 2562.23 3.73828 0.709441 0
M  V30 27840 H 2561.74 3.71733 -1.11518 0
M  V30 27841 H 2559.84 3.47715 1.33885 0
M  V30 27842 H 2559.96 4.79099 -0.0117511 0
M  V30 27843 H 2558.32 2.54539 0.0905198 0
M  V30 27844 H 2559.1 3.09354 -1.48845 0
M  V30 27845 N 2561.55 0.233191 1.55865 0
M  V30 27846 C 2562.79 -0.397043 2.00507 0
M  V30 27847 C 2563.15 -1.56119 1.11763 0
M  V30 27848 O 2564.35 -2.25822 1.458 0
M  V30 27849 C 2562.62 -0.809539 3.48111 0
M  V30 27850 S 2564.18 -1.43224 4.14768 0
M  V30 27851 H 2561 -0.125534 0.69983 0
M  V30 27852 H 2563.6 0.345211 1.92428 0
M  V30 27853 H 2562.31 0.0472322 4.10373 0
M  V30 27854 H 2561.84 -1.58432 3.60087 0
M  V30 27855 H 2563.85 -2.72133 4.14919 0
M  V30 27856 N 2563.03 -1.57549 -0.0400806 0
M  V30 27857 C 2564.25 -1.93407 -0.748897 0
M  V30 27858 C 2564.68 -0.832304 -1.68684 0
M  V30 27859 O 2564.03 0.212787 -1.80047 0
M  V30 27860 C 2564.08 -3.28307 -1.49154 0
M  V30 27861 O 2563.19 -3.19778 -2.60414 0
M  V30 27862 H 2562.53 -0.632464 -0.202201 0
M  V30 27863 H 2565.06 -2.046 0.00115682 0
M  V30 27864 H 2565.07 -3.62937 -1.86389 0
M  V30 27865 H 2563.74 -4.08063 -0.803568 0
M  V30 27866 H 2562.32 -2.96762 -2.25803 0
M  V30 27867 N 2564.5 0.312142 -1.54478 0
M  V30 27868 C 2565.74 1.05681 -1.7496 0
M  V30 27869 C 2566.11 1.84868 -0.518446 0
M  V30 27870 O 2567.31 2.62 -0.600805 0
M  V30 27871 C 2565.58 1.9478 -2.99659 0
M  V30 27872 S 2567.14 2.76043 -3.41095 0
M  V30 27873 H 2563.96 0.356595 -0.61511 0
M  V30 27874 H 2566.56 0.33148 -1.92669 0
M  V30 27875 H 2565.26 1.35461 -3.874 0
M  V30 27876 H 2564.79 2.71699 -2.84505 0
M  V30 27877 H 2566.81 3.97282 -2.9729 0
M  V30 27878 N 2565.98 1.46745 0.574784 0
M  V30 27879 C 2567.23 1.51729 1.32895 0
M  V30 27880 C 2567.54 0.176727 1.948 0
M  V30 27881 O 2568.75 0.104432 2.71299 0
M  V30 27882 C 2567.21 2.6739 2.40896 0
M  V30 27883 C 2566.81 4.07901 1.85259 0
M  V30 27884 C 2568.56 2.81652 3.17604 0
M  V30 27885 C 2566.46 5.14889 2.90936 0
M  V30 27886 H 2565.39 0.564707 0.499621 0
M  V30 27887 H 2568.05 1.72976 0.612506 0
M  V30 27888 H 2566.43 2.39488 3.15375 0
M  V30 27889 H 2567.6 4.45628 1.1727 0
M  V30 27890 H 2565.92 3.98373 1.21192 0
M  V30 27891 H 2568.51 3.58751 3.96487 0
M  V30 27892 H 2568.86 1.89454 3.70692 0
M  V30 27893 H 2569.39 3.09238 2.50233 0
M  V30 27894 H 2566.13 6.08904 2.42726 0
M  V30 27895 H 2565.65 4.81697 3.5739 0
M  V30 27896 H 2567.33 5.41077 3.54746 0
M  V30 27897 N 2567.46 -0.820078 1.34583 0
M  V30 27898 C 2568.41 -1.92011 1.22946 0
M  V30 27899 C 2569.39 -1.60391 0.12783 0
M  V30 27900 O 2570.59 -1.73347 0.357767 0
M  V30 27901 C 2567.71 -3.28716 0.989996 0
M  V30 27902 C 2566.8 -3.66445 2.13492 0
M  V30 27903 N 2567.19 -3.75716 3.38631 0
M  V30 27904 C 2565.49 -3.96312 2.0458 0
M  V30 27905 C 2566.19 -4.08794 4.13839 0
M  V30 27906 N 2565.17 -4.22165 3.42459 0
M  V30 27907 H 2568.97 -1.97361 2.17774 0
M  V30 27908 H 2566.48 -1.0139 1.26861 0
M  V30 27909 H 2568.48 -4.07343 0.887534 0
M  V30 27910 H 2567.14 -3.24661 0.0504262 0
M  V30 27911 H 2568.15 -3.59137 3.7315 0
M  V30 27912 H 2564.83 -4.0036 1.18397 0
M  V30 27913 H 2566.22 -4.23147 5.21916 0
M  V30 27914 N 2568.94 -1.18359 -1.04062 0
M  V30 27915 C 2570.18 -0.978978 -1.77263 0
M  V30 27916 C 2570.51 0.491395 -1.8819 0
M  V30 27917 O 2569.77 1.38106 -1.38655 0
M  V30 27918 C 2570.07 -1.57894 -3.20631 0
M  V30 27919 C 2569.73 -3.07545 -3.29738 0
M  V30 27920 C 2568.39 -3.4839 -3.31931 0
M  V30 27921 C 2570.75 -4.03558 -3.29834 0
M  V30 27922 C 2568.07 -4.83823 -3.31861 0
M  V30 27923 C 2570.43 -5.38907 -3.31304 0
M  V30 27924 C 2569.09 -5.792 -3.31789 0
M  V30 27925 H 2568.36 -0.358233 -0.648652 0
M  V30 27926 H 2571.01 -1.47424 -1.22223 0
M  V30 27927 H 2569.31 -1.00568 -3.78673 0
M  V30 27928 H 2571.01 -1.39604 -3.75914 0
M  V30 27929 H 2567.6 -2.74991 -3.28752 0
M  V30 27930 H 2571.78 -3.73053 -3.27331 0
M  V30 27931 H 2567.04 -5.14339 -3.30553 0
M  V30 27932 H 2571.21 -6.13072 -3.30327 0
M  V30 27933 H 2568.84 -6.8412 -3.31488 0
M  V30 27934 N 2570.42 1.22976 -0.98563 0
M  V30 27935 C 2571.64 1.95558 -0.675617 0
M  V30 27936 C 2572.06 1.72899 0.758382 0
M  V30 27937 O 2571.42 1.02359 1.51092 0
M  V30 27938 C 2571.47 3.48438 -0.962992 0
M  V30 27939 O 2571.19 3.70332 -2.34063 0
M  V30 27940 C 2572.69 4.38213 -0.669662 0
M  V30 27941 H 2569.91 0.622474 -0.250534 0
M  V30 27942 H 2572.45 1.56325 -1.31843 0
M  V30 27943 H 2570.61 3.85666 -0.366101 0
M  V30 27944 H 2571.02 4.64587 -2.43432 0
M  V30 27945 H 2572.5 5.44261 -0.921063 0
M  V30 27946 H 2572.97 4.37408 0.396307 0
M  V30 27947 H 2573.58 4.066 -1.24727 0
M  V30 27948 N 2571.89 0.757924 1.38178 0
M  V30 27949 C 2572.84 0.122523 2.32277 0
M  V30 27950 C 2573.84 -0.700478 1.54239 0
M  V30 27951 O 2575.04 -0.599089 1.69738 0
M  V30 27952 H 2571.42 0.0208275 0.751712 0
M  V30 27953 H 2573.39 0.932148 2.83467 0
M  V30 27954 C 2572.14 -0.753016 3.39448 0
M  V30 27955 H 2571.46 -0.129114 3.99591 0
M  V30 27956 H 2572.9 -1.16482 4.07686 0
M  V30 27957 C 2571.36 -1.89755 2.78378 0
M  V30 27958 O 2571.89 -2.99204 2.6803 0
M  V30 27959 N 2570.09 -1.69392 2.36124 0
M  V30 27960 H 2569.64 -0.803719 2.44741 0
M  V30 27961 H 2569.6 -2.46141 1.95606 0
M  V30 27962 N 2573.37 -1.4921 0.507345 0
M  V30 27963 C 2574.6 -2.06576 -0.0314928 0
M  V30 27964 C 2575.01 -1.36715 -1.30788 0
M  V30 27965 O 2574.35 -0.441213 -1.78323 0
M  V30 27966 C 2574.42 -3.57802 -0.349041 0
M  V30 27967 C 2574.08 -4.49389 0.830554 0
M  V30 27968 C 2575.08 -4.90526 1.7228 0
M  V30 27969 C 2572.76 -4.91602 1.03115 0
M  V30 27970 C 2574.76 -5.7262 2.79974 0
M  V30 27971 C 2572.44 -5.73471 2.11126 0
M  V30 27972 C 2573.44 -6.13885 2.99389 0
M  V30 27973 O 2573.13 -6.94116 4.05535 0
M  V30 27974 H 2572.86 -0.675701 0.0201121 0
M  V30 27975 H 2575.41 -1.92894 0.705771 0
M  V30 27976 H 2573.64 -3.69515 -1.13998 0
M  V30 27977 H 2575.33 -3.97381 -0.827249 0
M  V30 27978 H 2576.1 -4.58554 1.57966 0
M  V30 27979 H 2571.98 -4.59643 0.353498 0
M  V30 27980 H 2575.52 -6.04084 3.48895 0
M  V30 27981 H 2571.42 -6.04856 2.25432 0
M  V30 27982 H 2572.19 -7.12433 4.02966 0
M  V30 27983 N 2574.85 -0.241454 -1.55739 0
M  V30 27984 C 2576.08 0.392076 -2.0366 0
M  V30 27985 C 2576.5 1.51142 -1.11971 0
M  V30 27986 O 2575.86 1.80956 -0.111626 0
M  V30 27987 C 2575.91 0.882309 -3.49639 0
M  V30 27988 O 2575.01 1.99229 -3.61084 0
M  V30 27989 H 2574.35 0.0862006 -0.658381 0
M  V30 27990 H 2576.88 -0.365917 -2.01301 0
M  V30 27991 H 2576.89 1.18695 -3.90353 0
M  V30 27992 H 2575.57 0.063163 -4.15852 0
M  V30 27993 H 2574.14 1.69276 -3.32265 0
M  V30 27994 N 2576.33 1.57568 0.0317248 0
M  V30 27995 C 2577.58 1.88331 0.722098 0
M  V30 27996 C 2577.89 0.839618 1.76663 0
M  V30 27997 O 2579.1 1.03639 2.50941 0
M  V30 27998 C 2577.55 3.34209 1.33538 0
M  V30 27999 C 2577.16 4.46803 0.327336 0
M  V30 28000 C 2578.9 3.74124 2.00579 0
M  V30 28001 C 2576.81 5.83739 0.948812 0
M  V30 28002 H 2575.74 0.702666 0.273453 0
M  V30 28003 H 2578.39 1.83485 -0.0236134 0
M  V30 28004 H 2576.77 3.33792 2.13071 0
M  V30 28005 H 2577.95 4.58684 -0.441086 0
M  V30 28006 H 2576.26 4.15703 -0.240831 0
M  V30 28007 H 2578.86 4.73749 2.47924 0
M  V30 28008 H 2579.2 3.0598 2.8228 0
M  V30 28009 H 2579.74 3.76704 1.27824 0
M  V30 28010 H 2576.48 6.55276 0.171271 0
M  V30 28011 H 2576 5.75583 1.68714 0
M  V30 28012 H 2577.67 6.30383 1.45694 0
M  V30 28013 N 2577.81 -0.303946 1.54641 0
M  V30 28014 C 2578.74 -1.37957 1.88389 0
M  V30 28015 C 2579.72 -1.53038 0.742512 0
M  V30 28016 O 2580.9 -1.66595 0.997988 0
M  V30 28017 C 2578.03 -2.74424 2.12859 0
M  V30 28018 C 2576.99 -2.7411 3.28706 0
M  V30 28019 C 2576.31 -4.13838 3.38589 0
M  V30 28020 C 2577.61 -2.36112 4.65885 0
M  V30 28021 H 2579.31 -1.09961 2.78476 0
M  V30 28022 H 2576.85 -0.527533 1.33989 0
M  V30 28023 H 2578.81 -3.49754 2.35053 0
M  V30 28024 H 2577.53 -3.03937 1.1954 0
M  V30 28025 H 2576.19 -2.01235 3.06431 0
M  V30 28026 H 2575.84 -4.40524 2.42792 0
M  V30 28027 H 2575.54 -4.1453 4.1646 0
M  V30 28028 H 2577.06 -4.90953 3.6304 0
M  V30 28029 H 2578.47 -3.01158 4.87829 0
M  V30 28030 H 2576.87 -2.48021 5.46448 0
M  V30 28031 H 2577.94 -1.31241 4.66802 0
M  V30 28032 N 2579.28 -1.47047 -0.566994 0
M  V30 28033 C 2580.53 -1.52432 -1.32089 0
M  V30 28034 C 2580.85 -0.187055 -1.94704 0
M  V30 28035 O 2582.05 -0.118818 -2.7124 0
M  V30 28036 C 2580.51 -2.68663 -2.39475 0
M  V30 28037 C 2580.12 -4.08878 -1.83093 0
M  V30 28038 C 2581.86 -2.83332 -3.16106 0
M  V30 28039 C 2579.77 -5.16424 -2.88201 0
M  V30 28040 H 2578.7 -0.567349 -0.49662 0
M  V30 28041 H 2581.35 -1.73298 -0.603324 0
M  V30 28042 H 2579.73 -2.41157 -3.14101 0
M  V30 28043 H 2580.9 -4.46244 -1.14905 0
M  V30 28044 H 2579.22 -3.99011 -1.19078 0
M  V30 28045 H 2581.82 -3.60849 -3.94579 0
M  V30 28046 H 2582.16 -1.91418 -3.69682 0
M  V30 28047 H 2582.69 -3.10561 -2.4859 0
M  V30 28048 H 2579.43 -6.10183 -2.39493 0
M  V30 28049 H 2578.95 -4.83586 -3.5483 0
M  V30 28050 H 2580.63 -5.42951 -3.51871 0
M  V30 28051 N 2580.76 0.812929 -1.35016 0
M  V30 28052 C 2582.01 1.56659 -1.27681 0
M  V30 28053 C 2582.33 1.9442 0.150324 0
M  V30 28054 O 2581.6 1.6309 1.08529 0
M  V30 28055 H 2580.18 0.580925 -0.469612 0
M  V30 28056 H 2582.84 0.970047 -1.69045 0
M  V30 28057 H 2581.94 2.48489 -1.88837 0
M  V30 28058 N 2582.24 1.18909 1.03433 0
M  V30 28059 C 2583.47 1.01345 1.8038 0
M  V30 28060 C 2583.88 -0.437973 1.8365 0
M  V30 28061 O 2583.24 -1.30422 1.27657 0
M  V30 28062 C 2583.29 1.56879 3.25686 0
M  V30 28063 O 2583.01 2.96339 3.22668 0
M  V30 28064 C 2584.51 1.44022 4.19253 0
M  V30 28065 H 2581.73 0.3575 0.567833 0
M  V30 28066 H 2584.28 1.57602 1.30315 0
M  V30 28067 H 2582.43 1.04783 3.7296 0
M  V30 28068 H 2582.85 3.22362 4.13742 0
M  V30 28069 H 2584.32 1.87666 5.1912 0
M  V30 28070 H 2584.8 0.389892 4.37466 0
M  V30 28071 H 2585.4 1.95221 3.77848 0
M  V30 28072 N 2583.72 -1.22452 0.992137 0
M  V30 28073 C 2584.67 -2.26371 0.534683 0
M  V30 28074 C 2585.66 -1.64257 -0.414264 0
M  V30 28075 O 2586.87 -1.77699 -0.286868 0
M  V30 28076 H 2583.24 -0.735954 0.154515 0
M  V30 28077 H 2585.21 -2.62306 1.4226 0
M  V30 28078 C 2583.96 -3.47435 -0.135754 0
M  V30 28079 H 2583.28 -3.95491 0.585381 0
M  V30 28080 H 2584.72 -4.21922 -0.4193 0
M  V30 28081 C 2583.18 -3.0775 -1.37083 0
M  V30 28082 O 2583.71 -3.1708 -2.46623 0
M  V30 28083 N 2581.92 -2.62542 -1.2458 0
M  V30 28084 H 2581.47 -2.55149 -0.354497 0
M  V30 28085 H 2581.42 -2.36357 -2.07323 0
M  V30 28086 N 2585.2 -0.765242 -1.37774 0
M  V30 28087 C 2586.14 -0.145315 -2.30342 0
M  V30 28088 C 2587.11 0.696944 -1.50771 0
M  V30 28089 O 2588.3 0.650658 -1.79363 0
M  V30 28090 C 2585.44 0.73288 -3.37228 0
M  V30 28091 C 2584.55 -0.125275 -4.31818 0
M  V30 28092 C 2583.69 0.757014 -5.25778 0
M  V30 28093 C 2582.73 -0.10407 -6.12012 0
M  V30 28094 N 2581.86 0.73583 -6.98233 0
M  V30 28095 H 2586.7 -0.940245 -2.82778 0
M  V30 28096 H 2584.24 -0.47528 -1.3921 0
M  V30 28097 H 2586.2 1.25679 -3.9782 0
M  V30 28098 H 2584.83 1.49348 -2.86173 0
M  V30 28099 H 2583.88 -0.76693 -3.72589 0
M  V30 28100 H 2585.19 -0.789769 -4.92508 0
M  V30 28101 H 2584.35 1.34765 -5.91543 0
M  V30 28102 H 2583.08 1.45521 -4.65484 0
M  V30 28103 H 2582.09 -0.707293 -5.45232 0
M  V30 28104 H 2583.31 -0.7995 -6.74377 0
M  V30 28105 H 2581.26 1.41876 -6.40474 0
M  V30 28106 H 2581.18 0.128491 -7.55891 0
M  V30 28107 H 2582.45 1.31107 -7.68395 0
M  V30 28108 N 2586.67 1.48939 -0.515251 0
M  V30 28109 C 2587.92 2.02486 0.0241794 0
M  V30 28110 C 2588.25 1.39371 1.35669 0
M  V30 28111 O 2587.5 0.523607 1.88565 0
M  V30 28112 C 2587.8 3.56779 0.210532 0
M  V30 28113 C 2587.47 4.38605 -1.04576 0
M  V30 28114 C 2586.13 4.60684 -1.3901 0
M  V30 28115 C 2588.48 4.86106 -1.88017 0
M  V30 28116 C 2585.81 5.27509 -2.56809 0
M  V30 28117 C 2588.16 5.54228 -3.04982 0
M  V30 28118 C 2586.83 5.74549 -3.39779 0
M  V30 28119 H 2586.1 0.740947 0.00884786 0
M  V30 28120 H 2588.74 1.79085 -0.678294 0
M  V30 28121 H 2587.05 3.78938 0.995653 0
M  V30 28122 H 2588.75 3.95818 0.64259 0
M  V30 28123 H 2585.34 4.21671 -0.767571 0
M  V30 28124 H 2589.52 4.68864 -1.62727 0
M  V30 28125 H 2584.78 5.41442 -2.8399 0
M  V30 28126 H 2588.95 5.90007 -3.69953 0
M  V30 28127 H 2586.58 6.26104 -4.31159 0
M  V30 28128 N 2588.15 0.249709 1.55609 0
M  V30 28129 C 2589.38 -0.377768 2.03117 0
M  V30 28130 C 2589.79 -1.51879 1.12824 0
M  V30 28131 O 2589.13 -1.83198 0.135653 0
M  V30 28132 C 2589.2 -0.944632 3.46867 0
M  V30 28133 C 2588.86 0.0645062 4.56954 0
M  V30 28134 C 2589.86 0.875047 5.12483 0
M  V30 28135 C 2587.54 0.191408 5.01935 0
M  V30 28136 C 2589.54 1.79892 6.11488 0
M  V30 28137 C 2587.22 1.11878 6.00772 0
M  V30 28138 C 2588.22 1.92106 6.55427 0
M  V30 28139 O 2587.91 2.8328 7.52335 0
M  V30 28140 H 2587.64 -0.0935843 0.669491 0
M  V30 28141 H 2590.2 0.372001 2.02003 0
M  V30 28142 H 2588.43 -1.74401 3.45139 0
M  V30 28143 H 2590.11 -1.48249 3.77859 0
M  V30 28144 H 2590.88 0.787607 4.78562 0
M  V30 28145 H 2586.76 -0.422991 4.59055 0
M  V30 28146 H 2590.3 2.42555 6.54074 0
M  V30 28147 H 2586.2 1.20714 6.34112 0
M  V30 28148 H 2586.97 2.77673 7.69961 0
M  V30 28149 N 2589.63 -1.57583 -0.0233682 0
M  V30 28150 C 2590.54 -2.10336 -1.03904 0
M  V30 28151 C 2591.56 -1.04326 -1.39256 0
M  V30 28152 O 2592.73 -1.36094 -1.4846 0
M  V30 28153 C 2589.8 -2.57697 -2.31933 0
M  V30 28154 C 2588.86 -3.78213 -2.0311 0
M  V30 28155 C 2588.09 -4.23306 -3.25036 0
M  V30 28156 O 2588.32 -3.67884 -4.3591 0
M  V30 28157 O 2587.25 -5.15688 -3.10402 0
M  V30 28158 H 2591.08 -2.9729 -0.620695 0
M  V30 28159 H 2588.66 -1.47448 -0.240717 0
M  V30 28160 H 2590.54 -2.88464 -3.07191 0
M  V30 28161 H 2589.22 -1.73852 -2.73052 0
M  V30 28162 H 2588.12 -3.52456 -1.25402 0
M  V30 28163 H 2589.46 -4.63059 -1.66844 0
M  V30 28164 N 2591.11 0.29574 -1.548 0
M  V30 28165 C 2592.36 1.02795 -1.7354 0
M  V30 28166 C 2592.67 1.88249 -0.531192 0
M  V30 28167 O 2593.88 2.64776 -0.600505 0
M  V30 28168 C 2592.33 1.87738 -3.07054 0
M  V30 28169 C 2591.94 1.07262 -4.3497 0
M  V30 28170 C 2593.69 2.60527 -3.35151 0
M  V30 28171 C 2591.59 1.91511 -5.59533 0
M  V30 28172 H 2590.52 0.387511 -0.646801 0
M  V30 28173 H 2593.17 0.284687 -1.81278 0
M  V30 28174 H 2591.56 2.66073 -2.93294 0
M  V30 28175 H 2592.73 0.335036 -4.5958 0
M  V30 28176 H 2591.04 0.460311 -4.13848 0
M  V30 28177 H 2593.64 3.23922 -4.25416 0
M  V30 28178 H 2593.98 3.29632 -2.54261 0
M  V30 28179 H 2594.52 1.89238 -3.49906 0
M  V30 28180 H 2591.26 1.26867 -6.43106 0
M  V30 28181 H 2590.78 2.62928 -5.391 0
M  V30 28182 H 2592.46 2.49432 -5.96986 0
M  V30 28183 N 2592.59 1.47346 0.559187 0
M  V30 28184 C 2593.86 1.4435 1.31994 0
M  V30 28185 C 2594.24 0.139395 2.10639 0
M  V30 28186 O 2593.59 -0.879116 2.10912 0
M  V30 28187 C 2593.8 2.68783 2.22613 0
M  V30 28188 C 2595.15 3.15915 2.83695 0
M  V30 28189 O 2596.17 2.69497 2.32916 0
M  V30 28190 O 2595.03 3.96606 3.75986 0
M  V30 28191 H 2592.13 0.575158 0.594241 0
M  V30 28192 H 2594.67 1.59544 0.578254 0
M  V30 28193 H 2593.45 3.55234 1.64087 0
M  V30 28194 H 2593.07 2.56166 3.04081 0
M  V30 28195 N 2594.07 -0.805758 1.35445 0
M  V30 28196 C 2595 -1.92351 1.22786 0
M  V30 28197 C 2595.98 -1.62189 0.115572 0
M  V30 28198 O 2597.16 -1.86351 0.28381 0
M  V30 28199 C 2594.29 -3.26776 0.890804 0
M  V30 28200 C 2593.33 -3.75885 2.01526 0
M  V30 28201 S 2594.17 -3.9359 3.63108 0
M  V30 28202 C 2595.32 -5.30915 3.31481 0
M  V30 28203 H 2595.56 -2.02795 2.17397 0
M  V30 28204 H 2593.09 -0.963224 1.2067 0
M  V30 28205 H 2595.05 -4.04433 0.703139 0
M  V30 28206 H 2593.71 -3.14078 -0.03726 0
M  V30 28207 H 2592.9 -4.73247 1.73359 0
M  V30 28208 H 2592.5 -3.05228 2.1613 0
M  V30 28209 H 2594.79 -6.14935 2.84361 0
M  V30 28210 H 2595.74 -5.64076 4.28046 0
M  V30 28211 H 2596.15 -4.97241 2.6723 0
M  V30 28212 N 2595.54 -1.19456 -1.02801 0
M  V30 28213 C 2596.49 -0.933083 -2.11098 0
M  V30 28214 C 2597.46 0.132418 -1.65571 0
M  V30 28215 O 2598.65 -0.0099093 -1.90797 0
M  V30 28216 C 2595.79 -0.478807 -3.41762 0
M  V30 28217 C 2594.9 -1.61117 -4.00831 0
M  V30 28218 C 2594.03 -1.10834 -5.19509 0
M  V30 28219 C 2593.07 -2.21455 -5.70635 0
M  V30 28220 N 2592.21 -1.72473 -6.80586 0
M  V30 28221 H 2597.05 -1.86032 -2.32801 0
M  V30 28222 H 2594.59 -0.927461 -1.14178 0
M  V30 28223 H 2596.54 -0.196819 -4.16735 0
M  V30 28224 H 2595.17 0.411437 -3.20167 0
M  V30 28225 H 2594.23 -2.00835 -3.23063 0
M  V30 28226 H 2595.54 -2.44457 -4.3479 0
M  V30 28227 H 2594.69 -0.781639 -6.01644 0
M  V30 28228 H 2593.43 -0.244691 -4.87086 0
M  V30 28229 H 2592.44 -2.54955 -4.87112 0
M  V30 28230 H 2593.66 -3.08278 -6.05097 0
M  V30 28231 H 2591.61 -0.884171 -6.50014 0
M  V30 28232 H 2591.52 -2.49401 -7.13677 0
M  V30 28233 H 2592.79 -1.42768 -7.66314 0
M  V30 28234 N 2597.02 1.21924 -0.998617 0
M  V30 28235 C 2597.95 2.2341 -0.511918 0
M  V30 28236 C 2598.97 1.57909 0.396066 0
M  V30 28237 O 2600.16 1.77406 0.197285 0
M  V30 28238 C 2597.26 3.37768 0.276743 0
M  V30 28239 C 2596.43 4.32857 -0.628763 0
M  V30 28240 C 2595.49 5.26087 0.109179 0
M  V30 28241 O 2594.51 5.66935 -0.507336 0
M  V30 28242 N 2595.72 5.63619 1.38973 0
M  V30 28243 H 2598.48 2.65798 -1.38462 0
M  V30 28244 H 2596.04 1.36282 -0.874005 0
M  V30 28245 H 2598.03 3.97128 0.77921 0
M  V30 28246 H 2596.6 2.94417 1.05058 0
M  V30 28247 H 2595.82 3.71732 -1.31182 0
M  V30 28248 H 2597.11 4.93327 -1.24523 0
M  V30 28249 H 2596.51 5.32414 1.91185 0
M  V30 28250 H 2595.07 6.2537 1.83728 0
M  V30 28251 N 2598.5 0.772537 1.37367 0
M  V30 28252 C 2599.73 0.348118 2.03646 0
M  V30 28253 C 2600.14 -1.03479 1.58394 0
M  V30 28254 O 2599.48 -1.67198 0.76095 0
M  V30 28255 C 2599.54 0.313467 3.58131 0
M  V30 28256 C 2599.21 1.6411 4.26517 0
M  V30 28257 C 2600.2 2.59368 4.50582 0
M  V30 28258 C 2597.89 1.91575 4.64332 0
M  V30 28259 C 2599.88 3.80298 5.1152 0
M  V30 28260 C 2597.57 3.12775 5.2499 0
M  V30 28261 C 2598.57 4.06956 5.48521 0
M  V30 28262 O 2598.26 5.26022 6.07911 0
M  V30 28263 H 2597.99 0.143765 0.660536 0
M  V30 28264 H 2600.54 1.04775 1.76667 0
M  V30 28265 H 2598.77 -0.442549 3.84159 0
M  V30 28266 H 2600.46 -0.08399 4.05813 0
M  V30 28267 H 2601.23 2.39431 4.2178 0
M  V30 28268 H 2597.11 1.19096 4.45351 0
M  V30 28269 H 2600.65 4.53823 5.29803 0
M  V30 28270 H 2596.55 3.32598 5.53217 0
M  V30 28271 H 2597.31 5.26858 6.26389 0
M  V30 28272 N 2599.98 -1.48664 0.523142 0
M  V30 28273 C 2601.21 -2.06898 -0.00959483 0
M  V30 28274 C 2601.62 -1.38061 -1.28781 0
M  V30 28275 O 2600.98 -0.465924 -1.76452 0
M  V30 28276 C 2601.03 -3.60673 -0.244323 0
M  V30 28277 O 2600.75 -4.26924 0.983247 0
M  V30 28278 C 2602.25 -4.35684 -0.818212 0
M  V30 28279 H 2599.47 -0.67031 0.0304278 0
M  V30 28280 H 2602.01 -1.91148 0.726832 0
M  V30 28281 H 2600.17 -3.76052 -0.930781 0
M  V30 28282 H 2600.58 -5.18968 0.759744 0
M  V30 28283 H 2602.06 -5.44077 -0.931914 0
M  V30 28284 H 2602.53 -3.99649 -1.82146 0
M  V30 28285 H 2603.14 -4.24966 -0.168534 0
M  V30 28286 N 2601.46 -0.257958 -1.55475 0
M  V30 28287 C 2602.39 0.630873 -2.24816 0
M  V30 28288 C 2603.37 1.17257 -1.23226 0
M  V30 28289 O 2604.55 1.20988 -1.51906 0
M  V30 28290 C 2601.68 1.82293 -2.95612 0
M  V30 28291 C 2600.64 1.41352 -4.03985 0
M  V30 28292 C 2599.96 2.6873 -4.62264 0
M  V30 28293 C 2601.26 0.576389 -5.1911 0
M  V30 28294 H 2602.96 0.0526351 -2.99354 0
M  V30 28295 H 2600.5 0.0238757 -1.4398 0
M  V30 28296 H 2602.45 2.45047 -3.42826 0
M  V30 28297 H 2601.18 2.42672 -2.18581 0
M  V30 28298 H 2599.84 0.809261 -3.57556 0
M  V30 28299 H 2599.49 3.27331 -3.81921 0
M  V30 28300 H 2599.19 2.42055 -5.35428 0
M  V30 28301 H 2600.71 3.32363 -5.12218 0
M  V30 28302 H 2602.12 1.10851 -5.62481 0
M  V30 28303 H 2600.52 0.405246 -5.9873 0
M  V30 28304 H 2601.59 -0.408861 -4.83173 0
M  V30 28305 N 2602.93 1.57593 0.0150108 0
M  V30 28306 C 2603.84 2.10884 1.02787 0
M  V30 28307 C 2604.86 1.05063 1.387 0
M  V30 28308 O 2606.04 1.36879 1.47736 0
M  V30 28309 C 2603.1 2.58923 2.30564 0
M  V30 28310 C 2602.16 3.79284 2.01102 0
M  V30 28311 C 2601.4 4.25023 3.22786 0
M  V30 28312 O 2601.62 3.70191 4.33953 0
M  V30 28313 O 2600.55 5.17327 3.07662 0
M  V30 28314 H 2604.38 2.97615 0.604921 0
M  V30 28315 H 2601.96 1.47574 0.232894 0
M  V30 28316 H 2603.85 2.90089 3.05657 0
M  V30 28317 H 2602.52 1.75297 2.72126 0
M  V30 28318 H 2601.43 3.53116 1.23531 0
M  V30 28319 H 2602.76 4.63938 1.64386 0
M  V30 28320 N 2604.41 -0.287527 1.54955 0
M  V30 28321 C 2605.32 -1.37733 1.89913 0
M  V30 28322 C 2606.34 -1.5479 0.794729 0
M  V30 28323 O 2607.51 -1.69196 1.09246 0
M  V30 28324 C 2604.58 -2.71896 2.15113 0
M  V30 28325 C 2603.64 -2.63709 3.38757 0
M  V30 28326 C 2602.87 -3.91473 3.62746 0
M  V30 28327 O 2603.1 -4.91473 2.89501 0
M  V30 28328 O 2602.03 -3.92553 4.56274 0
M  V30 28329 H 2605.86 -1.11087 2.82654 0
M  V30 28330 H 2603.44 -0.484782 1.41316 0
M  V30 28331 H 2605.32 -3.5125 2.32812 0
M  V30 28332 H 2604 -2.98358 1.25556 0
M  V30 28333 H 2602.91 -1.8278 3.26408 0
M  V30 28334 H 2604.24 -2.42198 4.28487 0
M  V30 28335 N 2605.89 -1.47641 -0.551365 0
M  V30 28336 C 2607.14 -1.54565 -1.30827 0
M  V30 28337 C 2607.47 -0.210395 -1.93359 0
M  V30 28338 O 2606.72 0.797301 -1.78722 0
M  V30 28339 C 2607.02 -2.61649 -2.43464 0
M  V30 28340 C 2606.69 -4.04746 -1.98725 0
M  V30 28341 C 2605.35 -4.43698 -1.86241 0
M  V30 28342 C 2607.7 -4.94509 -1.64651 0
M  V30 28343 C 2605.03 -5.70243 -1.37985 0
M  V30 28344 C 2607.38 -6.21523 -1.17864 0
M  V30 28345 C 2606.04 -6.59352 -1.0398 0
M  V30 28346 H 2605.31 -0.565595 -0.478731 0
M  V30 28347 H 2607.96 -1.81265 -0.617665 0
M  V30 28348 H 2606.27 -2.28727 -3.18105 0
M  V30 28349 H 2607.96 -2.64228 -3.01637 0
M  V30 28350 H 2604.55 -3.73972 -2.09387 0
M  V30 28351 H 2608.74 -4.6511 -1.73166 0
M  V30 28352 H 2603.99 -5.98296 -1.25904 0
M  V30 28353 H 2608.17 -6.90486 -0.905618 0
M  V30 28354 H 2605.79 -7.57298 -0.663661 0
M  V30 28355 N 2607.37 0.798563 -1.3587 0
M  V30 28356 C 2608.3 1.92526 -1.32121 0
M  V30 28357 C 2609.28 1.68987 -0.194239 0
M  V30 28358 O 2610.46 1.90234 -0.39046 0
M  V30 28359 C 2607.59 3.29402 -1.10053 0
M  V30 28360 C 2606.55 3.67442 -2.19477 0
M  V30 28361 C 2605.87 5.02568 -1.82564 0
M  V30 28362 C 2607.17 3.7698 -3.61501 0
M  V30 28363 H 2608.87 1.9592 -2.26397 0
M  V30 28364 H 2606.41 0.941211 -1.08983 0
M  V30 28365 H 2608.37 4.07833 -1.06068 0
M  V30 28366 H 2607.09 3.26371 -0.122252 0
M  V30 28367 H 2605.75 2.91302 -2.22573 0
M  V30 28368 H 2605.4 4.96049 -0.833336 0
M  V30 28369 H 2605.1 5.2899 -2.55819 0
M  V30 28370 H 2606.62 5.83429 -1.80118 0
M  V30 28371 H 2608.04 4.45624 -3.60683 0
M  V30 28372 H 2606.43 4.14879 -4.33584 0
M  V30 28373 H 2607.5 2.78322 -3.9707 0
M  V30 28374 N 2608.85 1.19999 1.02166 0
M  V30 28375 C 2610.12 0.916221 1.72814 0
M  V30 28376 C 2610.5 -0.576289 2.03082 0
M  V30 28377 O 2609.85 -1.53653 1.69124 0
M  V30 28378 C 2610.06 1.78384 2.99967 0
M  V30 28379 C 2611.41 2.02257 3.73332 0
M  V30 28380 O 2612.43 1.75595 3.09911 0
M  V30 28381 O 2611.29 2.47257 4.87367 0
M  V30 28382 H 2608.39 0.342117 0.752918 0
M  V30 28383 H 2610.93 1.30848 1.0806 0
M  V30 28384 H 2609.7 2.79471 2.73883 0
M  V30 28385 H 2609.33 1.39132 3.72462 0
M  V30 28386 N 2610.32 -1.21392 1.00507 0
M  V30 28387 C 2611.27 -2.23764 0.565535 0
M  V30 28388 C 2612.24 -1.61 -0.408438 0
M  V30 28389 O 2613.43 -1.88257 -0.31047 0
M  V30 28390 C 2610.57 -3.4495 -0.101606 0
M  V30 28391 C 2609.68 -4.22187 0.915554 0
M  V30 28392 C 2608.81 -5.30741 0.220667 0
M  V30 28393 C 2607.85 -5.99709 1.22537 0
M  V30 28394 N 2606.99 -6.99879 0.557954 0
M  V30 28395 H 2611.83 -2.60722 1.44319 0
M  V30 28396 H 2609.37 -1.28125 0.722666 0
M  V30 28397 H 2611.33 -4.14127 -0.505432 0
M  V30 28398 H 2609.96 -3.0872 -0.942976 0
M  V30 28399 H 2609.01 -3.52188 1.43762 0
M  V30 28400 H 2610.32 -4.69652 1.68013 0
M  V30 28401 H 2609.47 -6.06228 -0.239262 0
M  V30 28402 H 2608.21 -4.84283 -0.576315 0
M  V30 28403 H 2607.22 -5.22994 1.69581 0
M  V30 28404 H 2608.44 -6.48255 2.02344 0
M  V30 28405 H 2606.39 -6.55633 -0.21937 0
M  V30 28406 H 2606.31 -7.45413 1.26078 0
M  V30 28407 H 2607.57 -7.79406 0.121232 0
M  V30 28408 N 2611.8 -0.779811 -1.36955 0
M  V30 28409 C 2612.75 -0.159461 -2.32053 0
M  V30 28410 C 2613.74 0.675851 -1.55334 0
M  V30 28411 O 2614.95 0.57201 -1.70669 0
M  V30 28412 H 2611.33 -0.0327839 -0.751285 0
M  V30 28413 H 2613.3 -0.977128 -2.81948 0
M  V30 28414 C 2612.05 0.698917 -3.40603 0
M  V30 28415 H 2611.37 0.0655263 -3.99746 0
M  V30 28416 H 2612.81 1.09981 -4.09488 0
M  V30 28417 C 2611.27 1.85302 -2.81362 0
M  V30 28418 O 2611.8 2.94902 -2.72756 0
M  V30 28419 N 2610 1.65614 -2.38789 0
M  V30 28420 H 2609.55 0.764681 -2.45989 0
M  V30 28421 H 2609.51 2.42998 -1.99498 0
M  V30 28422 N 2613.28 1.48384 -0.531019 0
M  V30 28423 C 2614.56 1.95485 0.0671445 0
M  V30 28424 C 2614.94 1.47327 1.51189 0
M  V30 28425 O 2614.29 0.70024 2.17506 0
M  V30 28426 C 2614.5 3.48962 -0.0511819 0
M  V30 28427 C 2615.84 4.24464 0.107557 0
M  V30 28428 O 2616.87 3.56193 0.0225622 0
M  V30 28429 O 2615.73 5.45752 0.285876 0
M  V30 28430 H 2612.82 0.823245 0.078722 0
M  V30 28431 H 2615.37 1.58901 -0.59569 0
M  V30 28432 H 2614.14 3.76738 -1.05754 0
M  V30 28433 H 2613.76 3.92243 0.650456 0
M  V30 28434 N 2614.76 0.2662 1.55336 0
M  V30 28435 C 2615.71 -0.639459 2.18849 0
M  V30 28436 C 2616.69 -1.12501 1.15032 0
M  V30 28437 O 2617.88 -1.07157 1.40877 0
M  V30 28438 C 2615.01 -1.82728 2.90629 0
M  V30 28439 C 2614.1 -1.35932 4.01725 0
M  V30 28440 N 2614.49 -0.6069 5.02146 0
M  V30 28441 C 2612.79 -1.64302 4.14633 0
M  V30 28442 C 2613.49 -0.362036 5.80572 0
M  V30 28443 N 2612.47 -0.931877 5.35553 0
M  V30 28444 H 2616.27 -0.0566541 2.93845 0
M  V30 28445 H 2613.78 0.0693597 1.62252 0
M  V30 28446 H 2615.78 -2.48729 3.34573 0
M  V30 28447 H 2614.44 -2.41412 2.17141 0
M  V30 28448 H 2615.45 -0.255107 5.17271 0
M  V30 28449 H 2612.13 -2.23987 3.5233 0
M  V30 28450 H 2613.52 0.239966 6.71471 0
M  V30 28451 N 2616.24 -1.57599 -0.0066531 0
M  V30 28452 C 2617.46 -1.94952 -0.707704 0
M  V30 28453 C 2617.89 -0.867897 -1.66881 0
M  V30 28454 O 2617.24 0.174548 -1.80458 0
M  V30 28455 C 2617.29 -3.31397 -1.42157 0
M  V30 28456 O 2616.4 -3.2523 -2.53573 0
M  V30 28457 H 2615.74 -0.636611 -0.18874 0
M  V30 28458 H 2618.27 -2.04551 0.0445552 0
M  V30 28459 H 2618.28 -3.66809 -1.78649 0
M  V30 28460 H 2616.95 -4.09676 -0.716831 0
M  V30 28461 H 2615.53 -3.01484 -2.19457 0
M  V30 28462 N 2617.72 0.279305 -1.55105 0
M  V30 28463 C 2618.65 1.34942 -1.90559 0
M  V30 28464 C 2619.63 1.51838 -0.766765 0
M  V30 28465 O 2620.81 1.64986 -1.02437 0
M  V30 28466 C 2617.94 2.71002 -2.17198 0
M  V30 28467 C 2616.9 2.68845 -3.33026 0
M  V30 28468 C 2616.22 4.08399 -3.4513 0
M  V30 28469 C 2617.52 2.2867 -4.69582 0
M  V30 28470 H 2619.22 1.05517 -2.8019 0
M  V30 28471 H 2616.76 0.50615 -1.34811 0
M  V30 28472 H 2618.71 3.45971 -2.40587 0
M  V30 28473 H 2617.44 3.01997 -1.2436 0
M  V30 28474 H 2616.1 1.96335 -3.09594 0
M  V30 28475 H 2615.75 4.36605 -2.4977 0
M  V30 28476 H 2615.45 4.07852 -4.23002 0
M  V30 28477 H 2616.97 4.85115 -3.70805 0
M  V30 28478 H 2618.38 2.93359 -4.92558 0
M  V30 28479 H 2616.78 2.39296 -5.50325 0
M  V30 28480 H 2617.85 1.23798 -4.6883 0
M  V30 28481 N 2619.19 1.47931 0.543528 0
M  V30 28482 C 2620.16 1.60978 1.63153 0
M  V30 28483 C 2621.16 0.483926 1.53345 0
M  V30 28484 O 2622.35 0.749366 1.57258 0
M  V30 28485 C 2619.48 1.56721 3.0274 0
M  V30 28486 H 2620.67 2.57978 1.52929 0
M  V30 28487 H 2618.22 1.36325 0.764533 0
M  V30 28488 H 2618.96 0.611474 3.18483 0
M  V30 28489 H 2618.74 2.38443 3.11267 0
M  V30 28490 H 2620.23 1.69017 3.81868 0
M  V30 28491 N 2620.67 -0.791347 1.36292 0
M  V30 28492 C 2622.08 -1.36639 1.27227 0
M  V30 28493 C 2622.43 -1.95999 -0.0887624 0
M  V30 28494 O 2621.56 -1.92418 -0.990173 0
M  V30 28495 C 2622.15 -2.48417 2.30379 0
M  V30 28496 C 2620.71 -3.01742 2.25009 0
M  V30 28497 C 2619.86 -1.74807 2.15263 0
M  V30 28498 H 2622.81 -0.593147 1.47199 0
M  V30 28499 H 2622.83 -3.27382 1.93911 0
M  V30 28500 H 2622.34 -2.05183 3.29426 0
M  V30 28501 H 2620.44 -3.494 1.29423 0
M  V30 28502 H 2620.56 -3.58687 3.17616 0
M  V30 28503 H 2618.92 -1.96963 1.61486 0
M  V30 28504 H 2619.7 -1.33704 3.16193 0
M  V30 28505 N 2622.15 -1.2054 -1.01528 0
M  V30 28506 C 2623.11 -0.957134 -2.08258 0
M  V30 28507 C 2624.11 0.0678373 -1.60657 0
M  V30 28508 O 2625.3 -0.168363 -1.73384 0
M  V30 28509 C 2622.43 -0.441247 -3.38032 0
M  V30 28510 H 2623.63 -1.90388 -2.31716 0
M  V30 28511 H 2621.18 -1.02095 -1.18348 0
M  V30 28512 H 2621.92 0.510905 -3.2025 0
M  V30 28513 H 2621.7 -1.18044 -3.73909 0
M  V30 28514 H 2623.19 -0.287083 -4.16612 0
M  V30 28515 N 2623.63 1.20858 -1.01149 0
M  V30 28516 C 2624.87 1.90375 -0.698932 0
M  V30 28517 C 2625.21 1.78325 0.769009 0
M  V30 28518 O 2624.48 1.16412 1.55815 0
M  V30 28519 C 2624.76 3.41949 -1.12884 0
M  V30 28520 C 2624.62 3.62958 -2.65672 0
M  V30 28521 C 2625.94 4.34559 -0.69619 0
M  V30 28522 H 2623.06 0.691338 -0.255384 0
M  V30 28523 H 2625.7 1.42359 -1.25833 0
M  V30 28524 H 2623.85 3.82975 -0.652894 0
M  V30 28525 H 2625.52 3.31218 -3.2108 0
M  V30 28526 H 2623.76 3.06602 -3.06883 0
M  V30 28527 H 2624.43 4.69187 -2.90805 0
M  V30 28528 H 2626.91 4.01152 -1.10528 0
M  V30 28529 H 2625.79 5.39243 -1.02509 0
M  V30 28530 H 2626.05 4.40265 0.402388 0
M  V30 28531 N 2625.11 0.787064 1.3654 0
M  V30 28532 C 2626.35 0.358376 1.99304 0
M  V30 28533 C 2626.68 -1.0693 1.62469 0
M  V30 28534 O 2625.94 -1.75296 0.87005 0
M  V30 28535 C 2626.23 0.466547 3.54342 0
M  V30 28536 C 2625.9 1.85469 4.10989 0
M  V30 28537 C 2624.56 2.2345 4.26173 0
M  V30 28538 C 2626.91 2.76374 4.4189 0
M  V30 28539 C 2624.24 3.51744 4.69567 0
M  V30 28540 C 2626.59 4.04093 4.86715 0
M  V30 28541 C 2625.26 4.42099 5.00104 0
M  V30 28542 H 2624.53 0.131139 0.729303 0
M  V30 28543 H 2627.18 1.00407 1.63067 0
M  V30 28544 H 2625.48 -0.262651 3.90919 0
M  V30 28545 H 2627.18 0.115924 4.00832 0
M  V30 28546 H 2623.77 1.54954 3.99609 0
M  V30 28547 H 2627.95 2.48285 4.2973 0
M  V30 28548 H 2623.21 3.81065 4.78121 0
M  V30 28549 H 2627.38 4.74649 5.0959 0
M  V30 28550 H 2625.01 5.41567 5.33488 0
M  V30 28551 N 2626.58 -1.48101 0.53888 0
M  V30 28552 C 2627.55 -2.28251 -0.208355 0
M  V30 28553 C 2628.55 -1.35893 -0.859632 0
M  V30 28554 O 2629.74 -1.58701 -0.718312 0
M  V30 28555 C 2626.87 -3.15038 -1.30246 0
M  V30 28556 H 2628.06 -2.95779 0.495459 0
M  V30 28557 H 2625.61 -1.53488 0.295139 0
M  V30 28558 H 2626.35 -2.52161 -2.03925 0
M  V30 28559 H 2626.13 -3.82986 -0.840484 0
M  V30 28560 H 2627.62 -3.75474 -1.8278 0
M  V30 28561 N 2628.06 -0.274434 -1.55192 0
M  V30 28562 C 2629.02 0.60024 -2.21201 0
M  V30 28563 C 2630.02 1.08185 -1.18965 0
M  V30 28564 O 2631.21 0.982132 -1.43874 0
M  V30 28565 C 2628.35 1.82804 -2.87742 0
M  V30 28566 H 2629.54 0.0239155 -2.9989 0
M  V30 28567 H 2627.09 -0.0250467 -1.5628 0
M  V30 28568 H 2627.83 2.44489 -2.13062 0
M  V30 28569 H 2627.61 1.49063 -3.62661 0
M  V30 28570 H 2629.1 2.45005 -3.38175 0
M  V30 28571 N 2629.54 1.576 -0.00170483 0
M  V30 28572 C 2630.76 1.95325 0.697355 0
M  V30 28573 C 2631.19 0.876735 1.66418 0
M  V30 28574 O 2630.55 -0.164976 1.80548 0
M  V30 28575 C 2630.6 3.32146 1.40397 0
M  V30 28576 O 2629.7 3.2657 2.51844 0
M  V30 28577 H 2629.04 0.637603 0.185362 0
M  V30 28578 H 2631.57 2.04525 -0.0554025 0
M  V30 28579 H 2631.58 3.67751 1.76701 0
M  V30 28580 H 2630.26 4.1005 0.695095 0
M  V30 28581 H 2628.83 3.02644 2.17856 0
M  V30 28582 N 2631.02 -0.271076 1.55251 0
M  V30 28583 C 2632.24 -1.02488 1.80308 0
M  V30 28584 C 2632.67 -1.7908 0.575489 0
M  V30 28585 O 2632.03 -1.74968 -0.474956 0
M  V30 28586 C 2632.07 -1.95762 3.02836 0
M  V30 28587 O 2631.18 -3.04563 2.78056 0
M  V30 28588 H 2630.52 -0.292913 0.595901 0
M  V30 28589 H 2633.05 -0.299401 2.02398 0
M  V30 28590 H 2633.06 -2.3768 3.3162 0
M  V30 28591 H 2631.73 -1.39427 3.91833 0
M  V30 28592 H 2630.31 -2.66946 2.60373 0
M  V30 28593 N 2632.5 -1.48217 -0.535675 0
M  V30 28594 C 2633.44 -1.62752 -1.66176 0
M  V30 28595 C 2634.44 -0.494119 -1.62033 0
M  V30 28596 O 2635.64 -0.672653 -1.66959 0
M  V30 28597 H 2632.02 -0.512587 -0.550235 0
M  V30 28598 H 2633.99 -2.5734 -1.51059 0
M  V30 28599 C 2632.74 -1.67913 -3.04468 0
M  V30 28600 H 2632.06 -2.54485 -3.08347 0
M  V30 28601 H 2633.5 -1.82128 -3.82891 0
M  V30 28602 C 2631.96 -0.416655 -3.34314 0
M  V30 28603 O 2632.49 0.472944 -3.98906 0
M  V30 28604 N 2630.7 -0.290089 -2.89148 0
M  V30 28605 H 2630.24 -1.01497 -2.36762 0
M  V30 28606 H 2630.2 0.553616 -3.09487 0
M  V30 28607 N 2633.97 0.784108 -1.3671 0
M  V30 28608 C 2635.2 1.57817 -1.34568 0
M  V30 28609 C 2635.62 1.87972 0.0694927 0
M  V30 28610 O 2634.98 1.48295 1.04299 0
M  V30 28611 C 2635.03 2.87276 -2.17957 0
M  V30 28612 O 2634.13 3.81111 -1.5757 0
M  V30 28613 H 2633.48 0.478516 -0.460346 0
M  V30 28614 H 2636.01 0.971463 -1.80066 0
M  V30 28615 H 2636.02 3.36496 -2.30727 0
M  V30 28616 H 2634.69 2.64655 -3.20828 0
M  V30 28617 H 2633.27 3.39719 -1.5377 0
M  V30 28618 N 2635.45 1.21076 1.00888 0
M  V30 28619 C 2636.7 1.02563 1.74605 0
M  V30 28620 C 2637.03 -0.441326 1.89427 0
M  V30 28621 O 2636.28 -1.34381 1.42268 0
M  V30 28622 C 2636.58 1.66339 3.16332 0
M  V30 28623 C 2636.25 3.16179 3.21468 0
M  V30 28624 C 2634.91 3.57068 3.22577 0
M  V30 28625 C 2637.26 4.12161 3.19018 0
M  V30 28626 C 2634.59 4.92452 3.18917 0
M  V30 28627 C 2636.94 5.47501 3.16899 0
M  V30 28628 C 2635.61 5.87793 3.16316 0
M  V30 28629 H 2634.88 0.375305 0.638926 0
M  V30 28630 H 2637.52 1.50613 1.18271 0
M  V30 28631 H 2635.83 1.10572 3.75874 0
M  V30 28632 H 2637.52 1.49522 3.72081 0
M  V30 28633 H 2634.11 2.83611 3.21345 0
M  V30 28634 H 2638.3 3.816 3.17325 0
M  V30 28635 H 2633.55 5.22922 3.168 0
M  V30 28636 H 2637.73 6.21614 3.13957 0
M  V30 28637 H 2635.36 6.92668 3.13234 0
M  V30 28638 N 2636.93 -1.2032 1.01789 0
M  V30 28639 C 2638.34 -1.71437 0.739337 0
M  V30 28640 C 2638.69 -1.81628 -0.742009 0
M  V30 28641 O 2637.82 -1.47974 -1.57901 0
M  V30 28642 C 2638.41 -3.11371 1.33543 0
M  V30 28643 C 2636.97 -3.59793 1.10572 0
M  V30 28644 C 2636.12 -2.3696 1.44032 0
M  V30 28645 H 2639.07 -1.05315 1.1872 0
M  V30 28646 H 2639.09 -3.73497 0.726676 0
M  V30 28647 H 2638.6 -3.03921 2.41357 0
M  V30 28648 H 2636.7 -3.72572 0.045306 0
M  V30 28649 H 2636.82 -4.44538 1.78668 0
M  V30 28650 H 2635.18 -2.39764 0.859373 0
M  V30 28651 H 2635.96 -2.32151 2.52905 0
M  V30 28652 N 2638.41 -0.794293 -1.3612 0
M  V30 28653 C 2639.65 -0.369487 -1.99406 0
M  V30 28654 C 2639.99 1.0574 -1.62888 0
M  V30 28655 O 2639.26 1.73144 -0.886084 0
M  V30 28656 C 2639.55 -0.538896 -3.56045 0
M  V30 28657 C 2639.4 -2.00983 -4.024 0
M  V30 28658 C 2640.72 0.0430585 -4.40079 0
M  V30 28659 H 2637.84 -0.135725 -0.724395 0
M  V30 28660 H 2640.48 -1.00154 -1.61459 0
M  V30 28661 H 2638.63 -0.000839293 -3.885 0
M  V30 28662 H 2640.3 -2.60932 -3.8041 0
M  V30 28663 H 2638.54 -2.51069 -3.53761 0
M  V30 28664 H 2639.21 -2.07931 -5.1134 0
M  V30 28665 H 2641.69 -0.416301 -4.14012 0
M  V30 28666 H 2640.57 -0.10547 -5.48799 0
M  V30 28667 H 2640.83 1.13563 -4.27266 0
M  V30 28668 N 2639.89 1.47813 -0.546727 0
M  V30 28669 C 2641.11 2.07389 -0.0213045 0
M  V30 28670 C 2641.54 1.39825 1.2582 0
M  V30 28671 O 2640.89 0.469711 1.7511 0
M  V30 28672 C 2640.94 3.60206 0.168439 0
M  V30 28673 O 2640.05 3.93524 1.2334 0
M  V30 28674 H 2639.39 0.662361 -0.0466225 0
M  V30 28675 H 2641.92 1.89984 -0.759421 0
M  V30 28676 H 2641.93 4.06171 0.385911 0
M  V30 28677 H 2640.6 4.08782 -0.766147 0
M  V30 28678 H 2639.18 3.59318 0.997256 0
M  V30 28679 N 2641.36 0.28266 1.55044 0
M  V30 28680 C 2642.61 -0.332633 1.98938 0
M  V30 28681 C 2642.93 -1.56407 1.17458 0
M  V30 28682 O 2644.13 -2.25279 1.51531 0
M  V30 28683 C 2642.59 -0.643164 3.54107 0
M  V30 28684 C 2642.2 0.568892 4.44373 0
M  V30 28685 C 2643.94 -1.22066 4.06571 0
M  V30 28686 C 2641.85 0.23253 5.90943 0
M  V30 28687 H 2640.78 -0.128062 0.743045 0
M  V30 28688 H 2643.43 0.388496 1.7934 0
M  V30 28689 H 2641.81 -1.4234 3.69534 0
M  V30 28690 H 2642.98 1.34559 4.40716 0
M  V30 28691 H 2641.3 1.06376 4.02583 0
M  V30 28692 H 2643.9 -1.48626 5.13629 0
M  V30 28693 H 2644.24 -2.157 3.5606 0
M  V30 28694 H 2644.77 -0.502552 3.94613 0
M  V30 28695 H 2641.51 1.13695 6.45565 0
M  V30 28696 H 2641.03 -0.507252 5.97651 0
M  V30 28697 H 2642.71 -0.172543 6.4677 0
M  V30 28698 N 2642.84 -1.57597 0.0100627 0
M  V30 28699 C 2644.09 -1.91284 -0.673663 0
M  V30 28700 C 2644.42 -0.885009 -1.72862 0
M  V30 28701 O 2643.7 0.0949146 -1.94268 0
M  V30 28702 C 2643.98 -3.3552 -1.3076 0
M  V30 28703 C 2643.83 -4.49028 -0.263499 0
M  V30 28704 C 2645.15 -3.79362 -2.23098 0
M  V30 28705 H 2642.27 -0.695638 -0.243427 0
M  V30 28706 H 2644.91 -1.89894 0.0634197 0
M  V30 28707 H 2643.06 -3.36836 -1.93582 0
M  V30 28708 H 2644.73 -4.59847 0.365819 0
M  V30 28709 H 2642.98 -4.31828 0.413153 0
M  V30 28710 H 2643.65 -5.46932 -0.746302 0
M  V30 28711 H 2646.12 -3.79662 -1.70282 0
M  V30 28712 H 2645 -4.81015 -2.64415 0
M  V30 28713 H 2645.26 -3.13792 -3.11427 0
M  V30 28714 N 2644.32 0.262839 -1.55393 0
M  V30 28715 C 2645.25 1.34765 -1.85394 0
M  V30 28716 C 2646.27 1.45056 -0.739095 0
M  V30 28717 O 2647.45 1.46691 -1.01706 0
M  V30 28718 C 2644.55 2.72791 -2.01093 0
M  V30 28719 C 2643.73 2.84966 -3.31833 0
M  V30 28720 C 2642.79 4.03732 -3.37471 0
M  V30 28721 O 2641.81 3.94011 -4.10785 0
M  V30 28722 N 2643.01 5.16171 -2.65608 0
M  V30 28723 H 2645.78 1.0937 -2.79031 0
M  V30 28724 H 2643.34 0.452954 -1.55435 0
M  V30 28725 H 2645.33 3.50554 -2.02223 0
M  V30 28726 H 2643.9 2.90964 -1.14275 0
M  V30 28727 H 2643.12 1.94006 -3.43155 0
M  V30 28728 H 2644.41 2.90038 -4.18038 0
M  V30 28729 H 2643.81 5.26959 -2.05746 0
M  V30 28730 H 2642.37 5.92127 -2.72449 0
M  V30 28731 N 2645.8 1.48499 0.527807 0
M  V30 28732 C 2647.04 1.56859 1.28542 0
M  V30 28733 C 2647.38 0.242685 1.92678 0
M  V30 28734 O 2646.65 -0.751514 1.79395 0
M  V30 28735 C 2646.94 2.70843 2.3731 0
M  V30 28736 C 2646.79 4.13146 1.77851 0
M  V30 28737 C 2648.11 2.80579 3.39063 0
M  V30 28738 H 2645.23 0.570979 0.465996 0
M  V30 28739 H 2647.87 1.80681 0.587752 0
M  V30 28740 H 2646.02 2.50663 2.96817 0
M  V30 28741 H 2647.69 4.44771 1.22377 0
M  V30 28742 H 2645.93 4.20044 1.08375 0
M  V30 28743 H 2646.6 4.88725 2.56615 0
M  V30 28744 H 2649.08 2.98867 2.89513 0
M  V30 28745 H 2647.96 3.62058 4.1256 0
M  V30 28746 H 2648.22 1.88825 3.99747 0
M  V30 28747 N 2647.28 -0.776847 1.37123 0
M  V30 28748 C 2648.23 -1.91135 1.32552 0
M  V30 28749 C 2649.22 -1.68028 0.215149 0
M  V30 28750 O 2650.43 -1.75881 0.382883 0
M  V30 28751 H 2646.8 -0.628463 0.412963 0
M  V30 28752 H 2648.77 -1.92108 2.28335 0
M  V30 28753 C 2647.52 -3.28331 1.14428 0
M  V30 28754 H 2646.84 -3.46686 1.99121 0
M  V30 28755 H 2648.28 -4.08028 1.15279 0
M  V30 28756 C 2646.74 -3.36564 -0.150375 0
M  V30 28757 O 2647.27 -3.85309 -1.13577 0
M  V30 28758 N 2645.48 -2.89916 -0.199339 0
M  V30 28759 H 2645.03 -2.50438 0.603186 0
M  V30 28760 H 2644.98 -2.95805 -1.06521 0
M  V30 28761 N 2648.76 -1.2161 -1.00244 0
M  V30 28762 C 2649.98 -1.0617 -1.78165 0
M  V30 28763 C 2650.41 0.384002 -1.84139 0
M  V30 28764 O 2649.76 1.2771 -1.28685 0
M  V30 28765 C 2649.81 -1.66648 -3.19783 0
M  V30 28766 O 2648.92 -0.913684 -4.02151 0
M  V30 28767 H 2648.26 -0.3735 -0.548993 0
M  V30 28768 H 2650.79 -1.61206 -1.25991 0
M  V30 28769 H 2650.8 -1.70975 -3.70448 0
M  V30 28770 H 2649.47 -2.71856 -3.14749 0
M  V30 28771 H 2648.05 -0.945698 -3.60709 0
M  V30 28772 N 2650.23 1.19778 -1.02425 0
M  V30 28773 C 2651.2 2.21051 -0.605742 0
M  V30 28774 C 2652.2 1.57415 0.328181 0
M  V30 28775 O 2653.39 1.73815 0.115822 0
M  V30 28776 C 2650.52 3.40708 0.114306 0
M  V30 28777 H 2651.71 2.59591 -1.50174 0
M  V30 28778 H 2649.26 1.33375 -0.814911 0
M  V30 28779 H 2650 3.0768 1.02487 0
M  V30 28780 H 2649.78 3.88128 -0.55671 0
M  V30 28781 H 2651.27 4.15735 0.394199 0
M  V30 28782 N 2651.71 0.801501 1.35697 0
M  V30 28783 C 2652.96 0.378745 1.98519 0
M  V30 28784 C 2653.28 -1.05635 1.63909 0
M  V30 28785 O 2652.55 -1.73004 0.919043 0
M  V30 28786 H 2651.13 0.137055 0.734319 0
M  V30 28787 H 2653.79 1.02622 1.65695 0
M  V30 28788 H 2652.89 0.480338 3.08382 0
M  V30 28789 N 2653.19 -1.47521 0.554558 0
M  V30 28790 C 2654.12 -2.28022 -0.232066 0
M  V30 28791 C 2655.13 -1.36848 -0.881841 0
M  V30 28792 O 2656.32 -1.61693 -0.75614 0
M  V30 28793 C 2653.42 -3.11025 -1.34599 0
M  V30 28794 C 2652.6 -4.30142 -0.793506 0
M  V30 28795 C 2651.66 -4.94761 -1.79159 0
M  V30 28796 O 2650.68 -5.53232 -1.33876 0
M  V30 28797 N 2651.88 -4.89216 -3.12486 0
M  V30 28798 H 2654.65 -2.96173 0.458459 0
M  V30 28799 H 2652.21 -1.57121 0.390461 0
M  V30 28800 H 2654.2 -3.51121 -2.01236 0
M  V30 28801 H 2652.77 -2.45134 -1.93979 0
M  V30 28802 H 2651.99 -3.94169 0.0495718 0
M  V30 28803 H 2653.28 -5.07196 -0.403686 0
M  V30 28804 H 2652.68 -4.42907 -3.51923 0
M  V30 28805 H 2651.23 -5.3334 -3.74689 0
M  V30 28806 N 2654.67 -0.290879 -1.54892 0
M  V30 28807 C 2656.08 0.0628152 -1.59476 0
M  V30 28808 C 2656.28 1.53278 -1.30798 0
M  V30 28809 O 2655.34 2.28404 -1.07648 0
M  V30 28810 C 2656.65 -0.326014 -2.98927 0
M  V30 28811 C 2658.2 -0.273937 -3.11799 0
M  V30 28812 C 2658.68 -0.637438 -4.53542 0
M  V30 28813 N 2660.17 -0.589587 -4.59432 0
M  V30 28814 C 2660.9 -0.84345 -5.67163 0
M  V30 28815 N 2660.4 -1.16275 -6.82973 0
M  V30 28816 N 2662.19 -0.771189 -5.56785 0
M  V30 28817 H 2654.34 -1.24899 -1.71796 0
M  V30 28818 H 2656.6 -0.505677 -0.80187 0
M  V30 28819 H 2656.31 -1.34893 -3.24803 0
M  V30 28820 H 2656.18 0.325375 -3.75794 0
M  V30 28821 H 2658.57 0.739715 -2.85679 0
M  V30 28822 H 2658.65 -0.959808 -2.3711 0
M  V30 28823 H 2658.3 -1.64885 -4.80391 0
M  V30 28824 H 2658.23 0.070394 -5.26553 0
M  V30 28825 H 2660.72 -0.353318 -3.76245 0
M  V30 28826 H 2661.03 -1.34271 -7.61046 0
M  V30 28827 H 2659.38 -1.20069 -6.8455 0
M  V30 28828 H 2662.57 -0.521465 -4.65186 0
M  V30 28829 H 2662.74 -0.972408 -6.40662 0
M  V30 28830 N 2656.15 1.57589 -0.0184203 0
M  V30 28831 C 2657.06 2.13017 0.982906 0
M  V30 28832 C 2658.07 1.07981 1.36441 0
M  V30 28833 O 2659.25 1.39982 1.448 0
M  V30 28834 C 2656.31 2.63756 2.25019 0
M  V30 28835 C 2655.37 3.83465 1.93011 0
M  V30 28836 C 2654.61 4.31775 3.13698 0
M  V30 28837 O 2654.83 3.79312 4.26003 0
M  V30 28838 O 2653.76 5.23737 2.9662 0
M  V30 28839 H 2657.59 2.98831 0.541656 0
M  V30 28840 H 2655.17 1.48034 0.201539 0
M  V30 28841 H 2657.06 2.96507 2.99435 0
M  V30 28842 H 2655.73 1.8103 2.68346 0
M  V30 28843 H 2654.64 3.55657 1.16013 0
M  V30 28844 H 2655.97 4.6732 1.54508 0
M  V30 28845 N 2657.62 -0.254594 1.5553 0
M  V30 28846 C 2658.53 -1.33674 1.92791 0
M  V30 28847 C 2659.55 -1.5307 0.827383 0
M  V30 28848 O 2660.73 -1.66841 1.1281 0
M  V30 28849 C 2657.79 -2.67272 2.20832 0
M  V30 28850 C 2656.85 -2.56464 3.44274 0
M  V30 28851 C 2656.08 -3.83691 3.70968 0
M  V30 28852 O 2656.31 -4.85221 2.99861 0
M  V30 28853 O 2655.24 -3.82786 4.64498 0
M  V30 28854 H 2659.07 -1.05066 2.84947 0
M  V30 28855 H 2656.65 -0.454698 1.42313 0
M  V30 28856 H 2658.53 -3.46233 2.4021 0
M  V30 28857 H 2657.21 -2.95627 1.31856 0
M  V30 28858 H 2656.12 -1.75815 3.30212 0
M  V30 28859 H 2657.45 -2.33055 4.33528 0
M  V30 28860 N 2659.1 -1.48777 -0.519925 0
M  V30 28861 C 2660.33 -1.60751 -1.2978 0
M  V30 28862 C 2660.74 -0.270753 -1.87253 0
M  V30 28863 O 2660.08 0.751408 -1.67629 0
M  V30 28864 C 2660.14 -2.60281 -2.4798 0
M  V30 28865 C 2659.81 -4.05103 -2.11519 0
M  V30 28866 C 2660.81 -4.92484 -1.66599 0
M  V30 28867 C 2658.49 -4.5071 -2.21734 0
M  V30 28868 C 2660.48 -6.23503 -1.32373 0
M  V30 28869 C 2658.17 -5.81747 -1.87119 0
M  V30 28870 C 2659.17 -6.67967 -1.42511 0
M  V30 28871 O 2658.86 -7.96564 -1.08356 0
M  V30 28872 H 2658.59 -0.544549 -0.400552 0
M  V30 28873 H 2661.14 -1.95408 -0.632845 0
M  V30 28874 H 2659.37 -2.20766 -3.17489 0
M  V30 28875 H 2661.06 -2.61983 -3.10031 0
M  V30 28876 H 2661.83 -4.58484 -1.58169 0
M  V30 28877 H 2657.71 -3.83781 -2.55408 0
M  V30 28878 H 2661.25 -6.90755 -0.974828 0
M  V30 28879 H 2657.15 -6.1528 -1.95193 0
M  V30 28880 H 2657.92 -8.09407 -1.21667 0
M  V30 28881 N 2660.58 0.769564 -1.37534 0
M  V30 28882 C 2661.51 1.8968 -1.36176 0
M  V30 28883 C 2662.49 1.68537 -0.23004 0
M  V30 28884 O 2663.68 1.89363 -0.430723 0
M  V30 28885 C 2660.81 3.26993 -1.17016 0
M  V30 28886 C 2659.76 3.62704 -2.27222 0
M  V30 28887 C 2659.09 4.98582 -1.93183 0
M  V30 28888 C 2660.39 3.69228 -3.69416 0
M  V30 28889 H 2662.08 1.91074 -2.30502 0
M  V30 28890 H 2659.63 0.917882 -1.10955 0
M  V30 28891 H 2661.58 4.05491 -1.14695 0
M  V30 28892 H 2660.3 3.26038 -0.191453 0
M  V30 28893 H 2658.96 2.86515 -2.28702 0
M  V30 28894 H 2658.61 4.9417 -0.938368 0
M  V30 28895 H 2658.31 5.23445 -2.66982 0
M  V30 28896 H 2659.83 5.79477 -1.92453 0
M  V30 28897 H 2661.25 4.37873 -3.70055 0
M  V30 28898 H 2659.64 4.05589 -4.42287 0
M  V30 28899 H 2660.71 2.69837 -4.02885 0
M  V30 28900 N 2662.06 1.22139 0.995977 0
M  V30 28901 C 2662.99 1.01293 2.10385 0
M  V30 28902 C 2663.97 -0.0651155 1.69975 0
M  V30 28903 O 2665.15 0.0964969 1.9396 0
M  V30 28904 C 2662.28 0.586577 3.42311 0
M  V30 28905 C 2661.24 1.61021 3.96556 0
M  V30 28906 C 2660.56 1.03979 5.24493 0
M  V30 28907 C 2661.86 2.9994 4.2759 0
M  V30 28908 H 2663.56 1.93955 2.28083 0
M  V30 28909 H 2661.1 0.933947 1.09606 0
M  V30 28910 H 2663.06 0.427867 4.19222 0
M  V30 28911 H 2661.78 -0.375704 3.24432 0
M  V30 28912 H 2660.44 1.75664 3.21773 0
M  V30 28913 H 2660.09 0.0689587 5.02953 0
M  V30 28914 H 2659.79 1.72362 5.61752 0
M  V30 28915 H 2661.31 0.892601 6.04041 0
M  V30 28916 H 2662.73 2.88689 4.9531 0
M  V30 28917 H 2661.12 3.65418 4.76014 0
M  V30 28918 H 2662.19 3.50105 3.35491 0
M  V30 28919 N 2663.54 -1.19233 1.03059 0
M  V30 28920 C 2664.78 -1.90659 0.73679 0
M  V30 28921 C 2665.14 -1.77928 -0.721489 0
M  V30 28922 O 2666.34 -2.43966 -1.12844 0
M  V30 28923 C 2664.61 -3.37442 1.17761 0
M  V30 28924 S 2666.17 -4.27067 1.00791 0
M  V30 28925 H 2662.99 -0.658481 0.268186 0
M  V30 28926 H 2665.59 -1.44138 1.32078 0
M  V30 28927 H 2664.3 -3.44233 2.23454 0
M  V30 28928 H 2663.83 -3.88996 0.58698 0
M  V30 28929 H 2665.84 -4.96135 -0.0805484 0
M  V30 28930 N 2665.01 -0.808686 -1.3527 0
M  V30 28931 C 2666.26 -0.390038 -1.98708 0
M  V30 28932 C 2666.59 1.04332 -1.6415 0
M  V30 28933 O 2665.84 1.73889 -0.897828 0
M  V30 28934 C 2666.14 -0.522861 -3.53555 0
M  V30 28935 C 2665.81 -1.91984 -4.07987 0
M  V30 28936 C 2664.47 -2.30202 -4.22564 0
M  V30 28937 C 2666.82 -2.83369 -4.37437 0
M  V30 28938 C 2664.15 -3.5917 -4.63912 0
M  V30 28939 C 2666.5 -4.11785 -4.80225 0
M  V30 28940 C 2665.17 -4.5 -4.93008 0
M  V30 28941 H 2664.44 -0.142725 -0.727125 0
M  V30 28942 H 2667.08 -1.02988 -1.61449 0
M  V30 28943 H 2665.39 0.200426 -3.91287 0
M  V30 28944 H 2667.09 -0.179678 -4.00597 0
M  V30 28945 H 2663.68 -1.61291 -3.97093 0
M  V30 28946 H 2667.86 -2.5509 -4.25726 0
M  V30 28947 H 2663.12 -3.88623 -4.71998 0
M  V30 28948 H 2667.29 -4.82696 -5.01974 0
M  V30 28949 H 2664.92 -5.49986 -5.24805 0
M  V30 28950 N 2666.49 1.47225 -0.562374 0
M  V30 28951 C 2667.44 2.27095 0.202927 0
M  V30 28952 C 2668.43 1.34664 0.880587 0
M  V30 28953 O 2669.62 1.58983 0.778041 0
M  V30 28954 C 2666.75 3.20547 1.229 0
M  V30 28955 C 2665.83 4.20459 0.554493 0
M  V30 28956 N 2666.22 5.04383 -0.378384 0
M  V30 28957 C 2664.52 4.38624 0.807777 0
M  V30 28958 C 2665.22 5.76572 -0.770684 0
M  V30 28959 N 2664.2 5.43458 -0.124359 0
M  V30 28960 H 2668 2.89366 -0.514247 0
M  V30 28961 H 2665.52 1.57827 -0.382682 0
M  V30 28962 H 2667.51 3.76456 1.79127 0
M  V30 28963 H 2666.17 2.59834 1.94721 0
M  V30 28964 H 2667.18 5.12399 -0.75283 0
M  V30 28965 H 2663.86 3.89077 1.51411 0
M  V30 28966 H 2665.25 6.54072 -1.53753 0
M  V30 28967 N 2667.97 0.299089 1.54736 0
M  V30 28968 C 2668.88 -0.587373 2.27128 0
M  V30 28969 C 2669.9 -1.15003 1.30577 0
M  V30 28970 O 2671.07 -1.17522 1.63556 0
M  V30 28971 C 2668.14 -1.7439 2.99648 0
M  V30 28972 C 2667.2 -1.21551 4.11733 0
M  V30 28973 C 2666.43 -2.31692 4.80786 0
M  V30 28974 O 2666.65 -3.51551 4.49186 0
M  V30 28975 O 2665.59 -1.98491 5.6823 0
M  V30 28976 H 2669.41 -0.000196726 3.037 0
M  V30 28977 H 2667 0.0656181 1.49256 0
M  V30 28978 H 2668.88 -2.41774 3.45142 0
M  V30 28979 H 2667.56 -2.31771 2.25973 0
M  V30 28980 H 2666.46 -0.507449 3.70642 0
M  V30 28981 H 2667.8 -0.687147 4.8738 0
M  V30 28982 N 2669.45 -1.57577 0.0267774 0
M  V30 28983 C 2670.7 -1.91704 -0.652371 0
M  V30 28984 C 2671.02 -0.902967 -1.72269 0
M  V30 28985 O 2670.28 0.08845 -1.955 0
M  V30 28986 C 2670.58 -3.32562 -1.30909 0
M  V30 28987 C 2670.24 -4.49385 -0.369362 0
M  V30 28988 C 2668.91 -4.81073 -0.110707 0
M  V30 28989 C 2671.26 -5.20468 0.276063 0
M  V30 28990 C 2668.59 -5.81203 0.801218 0
M  V30 28991 C 2670.94 -6.21572 1.17603 0
M  V30 28992 C 2669.6 -6.51703 1.4436 0
M  V30 28993 H 2668.87 -0.701494 -0.238719 0
M  V30 28994 H 2671.52 -1.91298 0.0880428 0
M  V30 28995 H 2669.82 -3.29219 -2.12419 0
M  V30 28996 H 2671.52 -3.56237 -1.84109 0
M  V30 28997 H 2668.11 -4.24642 -0.581137 0
M  V30 28998 H 2672.29 -4.9622 0.0892872 0
M  V30 28999 H 2667.55 -6.02895 1.01625 0
M  V30 29000 H 2671.72 -6.75774 1.68235 0
M  V30 29001 H 2669.35 -7.29108 2.15188 0
M  V30 29002 N 2670.93 0.246342 -1.55663 0
M  V30 29003 C 2672.17 0.972379 -1.7717 0
M  V30 29004 C 2672.5 1.85833 -0.59086 0
M  V30 29005 O 2671.77 1.91911 0.393331 0
M  V30 29006 H 2670.35 0.362026 -0.653411 0
M  V30 29007 H 2673.01 0.264155 -1.93102 0
M  V30 29008 H 2672.1 1.59377 -2.68338 0
M  V30 29009 N 2672.4 1.4905 0.512027 0
M  V30 29010 C 2673.65 1.58214 1.26871 0
M  V30 29011 C 2673.98 0.263107 1.92409 0
M  V30 29012 O 2673.26 -0.732444 1.80182 0
M  V30 29013 C 2673.54 2.73345 2.34424 0
M  V30 29014 C 2673.39 4.15009 1.73459 0
M  V30 29015 C 2674.71 2.84159 3.36068 0
M  V30 29016 H 2671.83 0.575889 0.459914 0
M  V30 29017 H 2674.47 1.81294 0.568556 0
M  V30 29018 H 2672.62 2.53797 2.94142 0
M  V30 29019 H 2674.3 4.46044 1.17653 0
M  V30 29020 H 2672.54 4.2117 1.03914 0
M  V30 29021 H 2673.21 4.9142 2.51417 0
M  V30 29022 H 2675.69 3.01921 2.86327 0
M  V30 29023 H 2674.56 3.66413 4.08696 0
M  V30 29024 H 2674.82 1.93054 3.97721 0
M  V30 29025 N 2673.88 -0.762259 1.3794 0
M  V30 29026 C 2675.13 -1.52113 1.33671 0
M  V30 29027 C 2675.46 -1.94352 -0.0759196 0
M  V30 29028 O 2674.71 -1.65072 -1.05118 0
M  V30 29029 C 2675.01 -2.79257 2.23047 0
M  V30 29030 C 2674.68 -2.56024 3.71164 0
M  V30 29031 C 2673.34 -2.49397 4.11527 0
M  V30 29032 C 2675.69 -2.35505 4.64959 0
M  V30 29033 C 2673.02 -2.20253 5.43788 0
M  V30 29034 C 2675.37 -2.07883 5.97467 0
M  V30 29035 C 2674.04 -1.99707 6.36925 0
M  V30 29036 H 2673.31 -0.55662 0.489137 0
M  V30 29037 H 2675.95 -0.877232 1.70226 0
M  V30 29038 H 2674.26 -3.48253 1.79519 0
M  V30 29039 H 2675.95 -3.37178 2.17053 0
M  V30 29040 H 2672.54 -2.6205 3.39158 0
M  V30 29041 H 2676.73 -2.39609 4.34627 0
M  V30 29042 H 2671.98 -2.12425 5.73311 0
M  V30 29043 H 2676.16 -1.91008 6.69693 0
M  V30 29044 H 2673.79 -1.76889 7.39334 0
M  V30 29045 N 2675.36 -1.22666 -0.989486 0
M  V30 29046 C 2676.61 -1.05484 -1.73208 0
M  V30 29047 C 2676.94 0.408602 -1.89853 0
M  V30 29048 O 2676.21 1.30283 -1.44418 0
M  V30 29049 C 2676.5 -1.77052 -3.13567 0
M  V30 29050 C 2676.35 -3.31013 -3.04549 0
M  V30 29051 C 2677.67 -1.52567 -4.12809 0
M  V30 29052 H 2674.79 -0.3846 -0.62869 0
M  V30 29053 H 2677.43 -1.51051 -1.15255 0
M  V30 29054 H 2675.58 -1.38317 -3.63044 0
M  V30 29055 H 2677.25 -3.79215 -2.62667 0
M  V30 29056 H 2675.5 -3.60514 -2.41271 0
M  V30 29057 H 2676.17 -3.7627 -4.03887 0
M  V30 29058 H 2678.64 -1.86222 -3.72103 0
M  V30 29059 H 2677.52 -2.05133 -5.09128 0
M  V30 29060 H 2677.78 -0.459014 -4.39711 0
M  V30 29061 N 2676.84 1.18685 -1.0369 0
M  V30 29062 C 2678.12 1.84398 -0.652429 0
M  V30 29063 C 2678.5 1.92413 0.868352 0
M  V30 29064 O 2677.84 1.44719 1.7683 0
M  V30 29065 C 2678.05 3.22917 -1.32385 0
M  V30 29066 C 2679.4 3.98993 -1.45223 0
M  V30 29067 O 2680.43 3.32343 -1.28166 0
M  V30 29068 O 2679.29 5.184 -1.72984 0
M  V30 29069 H 2676.38 0.795005 -0.227806 0
M  V30 29070 H 2678.93 1.26108 -1.13555 0
M  V30 29071 H 2677.7 3.11964 -2.36208 0
M  V30 29072 H 2677.32 3.88859 -0.829107 0
M  V30 29073 N 2678.32 0.815849 1.34839 0
M  V30 29074 C 2679.54 0.412296 2.03261 0
M  V30 29075 C 2679.97 -0.971723 1.61056 0
M  V30 29076 O 2679.33 -1.63099 0.791729 0
M  V30 29077 C 2679.37 0.514351 3.56913 0
M  V30 29078 O 2678.48 -0.468603 4.09729 0
M  V30 29079 H 2677.82 0.170782 0.641661 0
M  V30 29080 H 2680.35 1.1043 1.72239 0
M  V30 29081 H 2680.36 0.387528 4.06155 0
M  V30 29082 H 2679.03 1.52381 3.86979 0
M  V30 29083 H 2677.61 -0.301251 3.71681 0
M  V30 29084 N 2679.8 -1.46924 0.570174 0
M  V30 29085 C 2681.03 -2.06524 0.0561514 0
M  V30 29086 C 2681.43 -1.4214 -1.24872 0
M  V30 29087 O 2680.78 -0.516448 -1.76291 0
M  V30 29088 C 2680.84 -3.5896 -0.196971 0
M  V30 29089 C 2680.5 -4.45462 1.02041 0
M  V30 29090 C 2681.5 -4.82778 1.9293 0
M  V30 29091 C 2679.18 -4.86786 1.23873 0
M  V30 29092 C 2681.18 -5.6023 3.04008 0
M  V30 29093 C 2678.87 -5.64 2.35259 0
M  V30 29094 C 2679.86 -6.00635 3.25157 0
M  V30 29095 O 2679.55 -6.76291 4.3461 0
M  V30 29096 H 2679.28 -0.67424 0.0487528 0
M  V30 29097 H 2681.84 -1.89727 0.786948 0
M  V30 29098 H 2680.07 -3.74017 -0.982234 0
M  V30 29099 H 2681.76 -4.00532 -0.657962 0
M  V30 29100 H 2682.52 -4.51441 1.77273 0
M  V30 29101 H 2678.4 -4.5773 0.54813 0
M  V30 29102 H 2681.95 -5.88743 3.74202 0
M  V30 29103 H 2677.84 -5.9475 2.50883 0
M  V30 29104 H 2678.61 -6.94701 4.3282 0
M  V30 29105 N 2681.27 -0.307291 -1.54575 0
M  V30 29106 C 2682.52 0.299539 -1.99868 0
M  V30 29107 C 2682.84 1.53925 -1.19717 0
M  V30 29108 O 2682.11 1.9367 -0.294754 0
M  V30 29109 H 2680.69 0.11367 -0.738301 0
M  V30 29110 H 2683.35 -0.420075 -1.90319 0
M  V30 29111 H 2682.45 0.567229 -3.06902 0
M  V30 29112 N 2682.75 1.57561 -0.0351337 0
M  V30 29113 C 2684.17 1.56332 0.321306 0
M  V30 29114 C 2684.37 1.04132 1.72507 0
M  V30 29115 O 2683.42 0.690736 2.42868 0
M  V30 29116 C 2684.74 3.0025 0.164416 0
M  V30 29117 C 2686.28 3.12103 0.236731 0
M  V30 29118 C 2686.76 4.57871 0.10856 0
M  V30 29119 N 2688.25 4.62905 0.165351 0
M  V30 29120 C 2688.99 5.73329 0.0900498 0
M  V30 29121 N 2688.48 6.9279 -0.0366823 0
M  V30 29122 N 2690.27 5.61914 0.144473 0
M  V30 29123 H 2682.43 1.8982 -0.95301 0
M  V30 29124 H 2684.69 0.873426 -0.368553 0
M  V30 29125 H 2684.39 3.42415 -0.802806 0
M  V30 29126 H 2684.27 3.65501 0.93213 0
M  V30 29127 H 2686.66 2.69848 1.19442 0
M  V30 29128 H 2686.74 2.49562 -0.561463 0
M  V30 29129 H 2686.38 5.00809 -0.845732 0
M  V30 29130 H 2686.31 5.184 0.925694 0
M  V30 29131 H 2688.8 3.76982 0.263203 0
M  V30 29132 H 2689.11 7.72751 -0.0872845 0
M  V30 29133 H 2687.46 6.94963 -0.0715477 0
M  V30 29134 H 2690.65 4.67474 0.241924 0
M  V30 29135 H 2690.82 6.47948 0.0823274 0
M  V30 29136 N 2684.23 -0.238084 1.55791 0
M  V30 29137 C 2685.65 -0.587019 1.48412 0
M  V30 29138 C 2685.85 -1.87926 0.727053 0
M  V30 29139 O 2684.9 -2.51158 0.259986 0
M  V30 29140 C 2686.21 -0.681572 2.92874 0
M  V30 29141 C 2687.76 -0.773309 3.03297 0
M  V30 29142 C 2688.24 -0.899349 4.49083 0
M  V30 29143 N 2689.73 -0.963995 4.53058 0
M  V30 29144 C 2690.46 -1.08094 5.63119 0
M  V30 29145 N 2689.96 -1.16287 6.82971 0
M  V30 29146 N 2691.75 -1.11479 5.50935 0
M  V30 29147 H 2683.9 0.610112 2.03449 0
M  V30 29148 H 2686.17 0.211829 0.92403 0
M  V30 29149 H 2685.87 0.198082 3.51142 0
M  V30 29150 H 2685.75 -1.55063 3.43854 0
M  V30 29151 H 2688.13 -1.64341 2.45104 0
M  V30 29152 H 2688.21 0.121079 2.55513 0
M  V30 29153 H 2687.86 -0.0337693 5.07889 0
M  V30 29154 H 2687.79 -1.80891 4.94556 0
M  V30 29155 H 2690.28 -0.911666 3.66738 0
M  V30 29156 H 2690.59 -1.25142 7.626 0
M  V30 29157 H 2688.94 -1.13229 6.85714 0
M  V30 29158 H 2692.13 -1.04732 4.56233 0
M  V30 29159 H 2692.3 -1.20247 6.36745 0
M  V30 29160 N 2685.71 -1.4932 -0.504115 0
M  V30 29161 C 2686.93 -1.62617 -1.28726 0
M  V30 29162 C 2687.36 -0.296342 -1.85751 0
M  V30 29163 O 2686.72 0.73562 -1.65706 0
M  V30 29164 C 2686.76 -2.69528 -2.39556 0
M  V30 29165 O 2685.87 -2.28484 -3.4332 0
M  V30 29166 H 2685.21 -0.544401 -0.380162 0
M  V30 29167 H 2687.74 -1.95486 -0.603838 0
M  V30 29168 H 2687.75 -2.916 -2.85365 0
M  V30 29169 H 2686.42 -3.66059 -1.97417 0
M  V30 29170 H 2685 -2.1673 -3.03451 0
M  V30 29171 N 2687.19 0.754933 -1.38342 0
M  V30 29172 C 2688.6 1.05781 -1.1951 0
M  V30 29173 C 2688.8 2.01454 -0.0428359 0
M  V30 29174 O 2687.86 2.44976 0.611817 0
M  V30 29175 C 2689.17 1.63919 -2.52094 0
M  V30 29176 C 2690.72 1.76096 -2.58765 0
M  V30 29177 C 2691.19 2.37645 -3.91521 0
M  V30 29178 N 2692.68 2.45078 -3.93054 0
M  V30 29179 C 2693.42 2.93593 -4.92535 0
M  V30 29180 N 2692.92 3.42154 -6.02414 0
M  V30 29181 N 2694.71 2.92621 -4.79926 0
M  V30 29182 H 2686.86 0.120019 -2.12061 0
M  V30 29183 H 2689.12 0.115874 -0.940892 0
M  V30 29184 H 2688.83 1.01087 -3.36859 0
M  V30 29185 H 2688.7 2.62998 -2.70392 0
M  V30 29186 H 2691.09 2.38055 -1.74395 0
M  V30 29187 H 2691.17 0.757251 -2.44335 0
M  V30 29188 H 2690.81 1.7632 -4.76312 0
M  V30 29189 H 2690.74 3.38655 -4.03262 0
M  V30 29190 H 2693.24 2.10731 -3.13689 0
M  V30 29191 H 2693.55 3.77625 -6.74255 0
M  V30 29192 H 2691.89 3.40215 -6.06036 0
M  V30 29193 H 2695.08 2.53994 -3.93198 0
M  V30 29194 H 2695.26 3.30118 -5.57607 0
M  V30 29195 N 2688.66 1.23189 0.982967 0
M  V30 29196 C 2689.89 1.08904 1.75919 0
M  V30 29197 C 2690.31 -0.359686 1.85342 0
M  V30 29198 O 2689.66 -1.2489 1.33074 0
M  V30 29199 C 2689.71 1.70551 3.18739 0
M  V30 29200 O 2689.44 3.09758 3.09809 0
M  V30 29201 C 2690.94 1.61674 4.12767 0
M  V30 29202 H 2688.16 0.381262 0.55216 0
M  V30 29203 H 2690.7 1.62987 1.23513 0
M  V30 29204 H 2688.86 1.20508 3.6818 0
M  V30 29205 H 2689.27 3.39621 3.99697 0
M  V30 29206 H 2690.74 2.09515 5.10693 0
M  V30 29207 H 2691.22 0.575086 4.35419 0
M  V30 29208 H 2691.83 2.11071 3.69228 0
M  V30 29209 N 2690.14 -1.18133 1.04318 0
M  V30 29210 C 2691.42 -1.8405 0.662199 0
M  V30 29211 C 2691.8 -1.92871 -0.858135 0
M  V30 29212 O 2691.15 -1.45655 -1.7606 0
M  V30 29213 C 2691.36 -3.2221 1.34096 0
M  V30 29214 C 2692.7 -3.98217 1.47337 0
M  V30 29215 O 2693.73 -3.31659 1.29927 0
M  V30 29216 O 2692.59 -5.17476 1.75731 0
M  V30 29217 H 2689.68 -0.793786 0.232019 0
M  V30 29218 H 2692.23 -1.25504 1.14223 0
M  V30 29219 H 2691 -3.10707 2.37859 0
M  V30 29220 H 2690.62 -3.88414 0.849717 0
M  V30 29221 N 2691.62 -0.822988 -1.34405 0
M  V30 29222 C 2692.9 -0.333675 -1.92733 0
M  V30 29223 C 2693.28 1.17898 -1.75109 0
M  V30 29224 O 2692.63 1.98611 -1.12986 0
M  V30 29225 C 2692.84 -0.763083 -3.40555 0
M  V30 29226 C 2694.18 -0.761952 -4.17707 0
M  V30 29227 O 2695.21 -0.705667 -3.4914 0
M  V30 29228 O 2694.07 -0.835204 -5.4008 0
M  V30 29229 H 2691.16 -0.0911394 -0.821963 0
M  V30 29230 H 2693.71 -0.907782 -1.43379 0
M  V30 29231 H 2692.48 -1.80496 -3.47184 0
M  V30 29232 H 2692.1 -0.164675 -3.97259 0
M  V30 29233 N 2693.1 1.4662 -0.577957 0
M  V30 29234 C 2694.03 2.33044 0.145876 0
M  V30 29235 C 2695.01 1.45058 0.888387 0
M  V30 29236 O 2696.19 1.73883 0.864782 0
M  V30 29237 C 2693.32 3.27243 1.16316 0
M  V30 29238 C 2692.28 4.24633 0.535793 0
M  V30 29239 C 2691.6 5.08306 1.6592 0
M  V30 29240 C 2692.9 5.19665 -0.523953 0
M  V30 29241 H 2694.6 2.93813 -0.575688 0
M  V30 29242 H 2692.14 1.41285 -0.278297 0
M  V30 29243 H 2694.1 3.86556 1.67786 0
M  V30 29244 H 2692.82 2.64571 1.91494 0
M  V30 29245 H 2691.48 3.66576 0.0422115 0
M  V30 29246 H 2691.13 4.42022 2.40053 0
M  V30 29247 H 2690.83 5.74257 1.2451 0
M  V30 29248 H 2692.35 5.70482 2.17676 0
M  V30 29249 H 2693.77 5.73222 -0.0945067 0
M  V30 29250 H 2692.16 5.93933 -0.858105 0
M  V30 29251 H 2693.23 4.63885 -1.41205 0
M  V30 29252 N 2694.58 0.315484 1.5441 0
M  V30 29253 C 2695.52 -0.554127 2.24049 0
M  V30 29254 C 2696.49 -1.1181 1.22832 0
M  V30 29255 O 2697.68 -1.15994 1.51493 0
M  V30 29256 C 2694.82 -1.71311 2.99577 0
M  V30 29257 C 2693.93 -1.17914 4.15596 0
M  V30 29258 C 2693.07 -2.30316 4.78673 0
M  V30 29259 C 2692.11 -1.74127 5.8681 0
M  V30 29260 N 2691.24 -2.80159 6.43782 0
M  V30 29261 H 2696.08 0.0463126 2.97964 0
M  V30 29262 H 2693.62 0.0346267 1.47059 0
M  V30 29263 H 2695.58 -2.39499 3.41608 0
M  V30 29264 H 2694.21 -2.28496 2.28012 0
M  V30 29265 H 2693.26 -0.38907 3.78405 0
M  V30 29266 H 2694.57 -0.727925 4.9346 0
M  V30 29267 H 2693.73 -3.06423 5.23631 0
M  V30 29268 H 2692.46 -2.78771 4.00173 0
M  V30 29269 H 2691.47 -0.96514 5.41262 0
M  V30 29270 H 2692.69 -1.26559 6.67203 0
M  V30 29271 H 2690.64 -3.2792 5.68159 0
M  V30 29272 H 2690.56 -2.39576 7.17035 0
M  V30 29273 H 2691.83 -3.5612 6.93397 0
M  V30 29274 N 2696.05 -1.5754 0.0434891 0
M  V30 29275 C 2697.3 -1.93492 -0.627075 0
M  V30 29276 C 2697.66 -0.921392 -1.68903 0
M  V30 29277 O 2696.95 0.0605462 -1.91504 0
M  V30 29278 C 2697.14 -3.33932 -1.27374 0
M  V30 29279 C 2696.97 -4.48853 -0.275951 0
M  V30 29280 C 2695.74 -5.05134 0.129333 0
M  V30 29281 C 2697.94 -5.12097 0.475552 0
M  V30 29282 N 2695.92 -6.03582 1.12079 0
M  V30 29283 C 2697.29 -6.05778 1.32032 0
M  V30 29284 C 2699.35 -4.95021 0.534698 0
M  V30 29285 C 2698.05 -6.8422 2.21892 0
M  V30 29286 C 2700.08 -5.74082 1.42069 0
M  V30 29287 C 2699.44 -6.67391 2.2532 0
M  V30 29288 H 2695.54 -0.755636 -0.201341 0
M  V30 29289 H 2698.12 -1.94366 0.114025 0
M  V30 29290 H 2696.29 -3.3385 -1.9849 0
M  V30 29291 H 2698.02 -3.57194 -1.90249 0
M  V30 29292 H 2694.78 -4.7295 -0.248062 0
M  V30 29293 H 2695.2 -6.57499 1.61318 0
M  V30 29294 H 2699.85 -4.22694 -0.0947074 0
M  V30 29295 H 2697.56 -7.55842 2.85881 0
M  V30 29296 H 2701.15 -5.62899 1.47093 0
M  V30 29297 H 2700.03 -7.27501 2.92767 0
M  V30 29298 N 2697.53 0.229818 -1.55915 0
M  V30 29299 C 2698.76 0.97671 -1.82962 0
M  V30 29300 C 2699.18 1.77491 -0.622767 0
M  V30 29301 O 2698.54 1.76166 0.4284 0
M  V30 29302 C 2698.59 1.87664 -3.0792 0
M  V30 29303 O 2697.69 2.97083 -2.86034 0
M  V30 29304 H 2697.03 0.277011 -0.603458 0
M  V30 29305 H 2699.56 0.245633 -2.0312 0
M  V30 29306 H 2699.57 2.28804 -3.37806 0
M  V30 29307 H 2698.25 1.28989 -3.95392 0
M  V30 29308 H 2696.83 2.59949 -2.67359 0
M  V30 29309 N 2699.01 1.49585 0.49619 0
M  V30 29310 C 2700.43 1.36454 0.82779 0
M  V30 29311 C 2700.63 0.40132 1.97463 0
M  V30 29312 O 2699.68 -0.165251 2.51959 0
M  V30 29313 C 2701 2.77279 1.16347 0
M  V30 29314 C 2702.54 2.86015 1.2714 0
M  V30 29315 C 2703.02 4.27618 1.64034 0
M  V30 29316 N 2704.51 4.30451 1.71074 0
M  V30 29317 C 2705.24 5.36988 2.01076 0
M  V30 29318 N 2704.74 6.53764 2.29269 0
M  V30 29319 N 2706.53 5.24408 2.02367 0
M  V30 29320 H 2698.68 2.10803 -0.259984 0
M  V30 29321 H 2700.95 0.946476 -0.053733 0
M  V30 29322 H 2700.65 3.49485 0.394092 0
M  V30 29323 H 2700.53 3.1295 2.10576 0
M  V30 29324 H 2702.91 2.14044 2.03149 0
M  V30 29325 H 2703 2.53921 0.309498 0
M  V30 29326 H 2702.64 5.00117 0.885742 0
M  V30 29327 H 2702.57 4.57179 2.61332 0
M  V30 29328 H 2705.06 3.46234 1.51427 0
M  V30 29329 H 2705.37 7.30778 2.51363 0
M  V30 29330 H 2703.72 6.56982 2.26715 0
M  V30 29331 H 2706.91 4.32183 1.79822 0
M  V30 29332 H 2707.08 6.0753 2.25414 0
M  V30 29333 N 2700.49 -0.747586 1.3874 0
M  V30 29334 C 2701.42 -1.87489 1.39176 0
M  V30 29335 C 2702.4 -1.6815 0.256823 0
M  V30 29336 O 2703.58 -1.88654 0.460795 0
M  V30 29337 C 2700.71 -3.2509 1.22203 0
M  V30 29338 C 2699.67 -3.59043 2.32964 0
M  V30 29339 C 2698.99 -4.95446 2.01091 0
M  V30 29340 C 2700.29 -3.63304 3.75244 0
M  V30 29341 H 2701.99 -1.87382 2.33513 0
M  V30 29342 H 2699.53 -0.900114 1.12401 0
M  V30 29343 H 2701.49 -4.03615 1.21131 0
M  V30 29344 H 2700.21 -3.25693 0.243298 0
M  V30 29345 H 2698.87 -2.82841 2.33231 0
M  V30 29346 H 2698.52 -4.92614 1.01687 0
M  V30 29347 H 2698.22 -5.19131 2.75276 0
M  V30 29348 H 2699.74 -5.76342 2.01648 0
M  V30 29349 H 2701.16 -4.3193 3.76974 0
M  V30 29350 H 2699.55 -3.98501 4.48684 0
M  V30 29351 H 2700.62 -2.63393 4.07127 0
M  V30 29352 N 2701.97 -1.23709 -0.97642 0
M  V30 29353 C 2703.38 -1.0659 -1.53282 0
M  V30 29354 C 2703.73 0.365492 -1.92766 0
M  V30 29355 O 2702.85 1.25274 -1.76452 0
M  V30 29356 C 2703.45 -1.92869 -2.78544 0
M  V30 29357 C 2702.01 -1.8 -3.30571 0
M  V30 29358 C 2701.15 -1.88331 -2.03535 0
M  V30 29359 H 2704.11 -1.37313 -0.795668 0
M  V30 29360 H 2704.13 -1.45583 -3.51548 0
M  V30 29361 H 2703.64 -2.97041 -2.49776 0
M  V30 29362 H 2701.74 -0.786266 -3.6421 0
M  V30 29363 H 2701.85 -2.63607 -4.0006 0
M  V30 29364 H 2700.22 -1.31958 -2.17851 0
M  V30 29365 H 2701 -2.94067 -1.77143 0
M  V30 29366 N 2703.44 1.17579 -1.04943 0
M  V30 29367 C 2704.37 2.23705 -0.669211 0
M  V30 29368 C 2705.36 1.66832 0.331806 0
M  V30 29369 O 2706.54 1.93062 0.209954 0
M  V30 29370 C 2703.67 3.47276 -0.04055 0
M  V30 29371 C 2702.62 4.16955 -0.966057 0
M  V30 29372 C 2701.95 5.34321 -0.201406 0
M  V30 29373 C 2703.25 4.69465 -2.2891 0
M  V30 29374 H 2704.94 2.55765 -1.55643 0
M  V30 29375 H 2702.49 1.22938 -0.749815 0
M  V30 29376 H 2704.44 4.20732 0.237224 0
M  V30 29377 H 2703.17 3.14476 0.881603 0
M  V30 29378 H 2701.83 3.45408 -1.22835 0
M  V30 29379 H 2701.47 4.9777 0.723432 0
M  V30 29380 H 2701.17 5.81877 -0.81807 0
M  V30 29381 H 2702.7 6.10561 0.0691426 0
M  V30 29382 H 2704.11 5.3457 -2.07141 0
M  V30 29383 H 2702.51 5.27591 -2.85951 0
M  V30 29384 H 2703.58 3.86409 -2.92944 0
M  V30 29385 N 2704.92 0.830104 1.33967 0
M  V30 29386 C 2705.89 0.26239 2.27693 0
M  V30 29387 C 2706.89 -0.563849 1.5059 0
M  V30 29388 O 2708.08 -0.378911 1.70029 0
M  V30 29389 C 2705.21 -0.631321 3.35003 0
M  V30 29390 H 2706.4 1.08933 2.79417 0
M  V30 29391 H 2703.95 0.602512 1.4422 0
M  V30 29392 H 2704.69 -1.48104 2.88506 0
M  V30 29393 H 2704.47 -0.0402587 3.92079 0
M  V30 29394 H 2705.96 -1.0221 4.04899 0
M  V30 29395 N 2706.4 -1.46311 0.585725 0
M  V30 29396 C 2707.65 -2.0237 0.0724566 0
M  V30 29397 C 2707.98 -1.45685 -1.28865 0
M  V30 29398 O 2707.23 -0.612978 -1.85852 0
M  V30 29399 C 2707.53 -3.57378 -0.0400683 0
M  V30 29400 C 2707.2 -4.33116 1.25384 0
M  V30 29401 C 2705.86 -4.53527 1.60832 0
M  V30 29402 C 2708.21 -4.76582 2.10995 0
M  V30 29403 C 2705.54 -5.14656 2.81685 0
M  V30 29404 C 2707.89 -5.39046 3.31077 0
M  V30 29405 C 2706.55 -5.57684 3.66804 0
M  V30 29406 H 2705.82 -0.740526 0.0265138 0
M  V30 29407 H 2708.47 -1.75645 0.762966 0
M  V30 29408 H 2706.78 -3.83257 -0.813723 0
M  V30 29409 H 2708.47 -3.98433 -0.453008 0
M  V30 29410 H 2705.06 -4.17528 0.967881 0
M  V30 29411 H 2709.25 -4.60566 1.84912 0
M  V30 29412 H 2704.5 -5.27276 3.09499 0
M  V30 29413 H 2708.68 -5.71684 3.97682 0
M  V30 29414 H 2706.3 -6.0482 4.6054 0
M  V30 29415 N 2707.88 -0.323668 -1.54241 0
M  V30 29416 C 2708.84 0.529563 -2.22998 0
M  V30 29417 C 2709.84 1.04345 -1.22347 0
M  V30 29418 O 2711.03 0.935863 -1.46926 0
M  V30 29419 C 2708.16 1.73557 -2.93412 0
M  V30 29420 H 2709.36 -0.0715045 -2.99815 0
M  V30 29421 H 2706.91 -0.0747533 -1.56121 0
M  V30 29422 H 2707.65 2.37587 -2.20733 0
M  V30 29423 H 2707.43 1.37449 -3.67219 0
M  V30 29424 H 2708.92 2.34122 -3.45799 0
M  V30 29425 N 2709.36 1.57515 -0.0518432 0
M  V30 29426 C 2710.59 1.96746 0.630445 0
M  V30 29427 C 2711 0.928082 1.64873 0
M  V30 29428 O 2710.34 -0.0960356 1.83449 0
M  V30 29429 C 2710.4 3.32217 1.37375 0
M  V30 29430 C 2710.06 4.54132 0.511219 0
M  V30 29431 C 2711.06 5.19422 -0.222976 0
M  V30 29432 C 2708.75 5.00352 0.441947 0
M  V30 29433 C 2710.74 6.29269 -1.01487 0
M  V30 29434 C 2708.43 6.10076 -0.353637 0
M  V30 29435 C 2709.43 6.74395 -1.08073 0
M  V30 29436 O 2709.11 7.82009 -1.86323 0
M  V30 29437 H 2708.85 0.652385 0.177115 0
M  V30 29438 H 2711.4 2.05079 -0.114762 0
M  V30 29439 H 2709.63 3.2044 2.1646 0
M  V30 29440 H 2711.32 3.56192 1.94634 0
M  V30 29441 H 2712.08 4.8467 -0.178931 0
M  V30 29442 H 2707.96 4.50079 0.997483 0
M  V30 29443 H 2711.51 6.79404 -1.58291 0
M  V30 29444 H 2707.4 6.44264 -0.399318 0
M  V30 29445 H 2708.17 7.9879 -1.78542 0
M  V30 29446 N 2710.84 -0.221546 1.56035 0
M  V30 29447 C 2712.25 -0.571245 1.49027 0
M  V30 29448 C 2712.45 -1.87144 0.746944 0
M  V30 29449 O 2711.51 -2.50868 0.28661 0
M  V30 29450 C 2712.82 -0.65047 2.9358 0
M  V30 29451 C 2714.37 -0.741097 3.041 0
M  V30 29452 C 2714.84 -0.851668 4.50012 0
M  V30 29453 N 2716.33 -0.915888 4.54055 0
M  V30 29454 C 2717.07 -1.02115 5.64234 0
M  V30 29455 N 2716.57 -1.09036 6.84166 0
M  V30 29456 N 2718.36 -1.05629 5.52086 0
M  V30 29457 H 2710.51 0.631656 2.0279 0
M  V30 29458 H 2712.77 0.221618 0.921732 0
M  V30 29459 H 2712.48 0.235314 3.50912 0
M  V30 29460 H 2712.35 -1.51407 3.45479 0
M  V30 29461 H 2714.74 -1.61732 2.46833 0
M  V30 29462 H 2714.82 0.148173 2.5537 0
M  V30 29463 H 2714.46 0.020101 5.07896 0
M  V30 29464 H 2714.39 -1.75635 4.96447 0
M  V30 29465 H 2716.89 -0.872717 3.67685 0
M  V30 29466 H 2717.2 -1.17046 7.63885 0
M  V30 29467 H 2715.54 -1.0595 6.86877 0
M  V30 29468 H 2718.73 -0.998873 4.57318 0
M  V30 29469 H 2718.91 -1.13487 6.37985 0
M  V30 29470 N 2712.31 -1.49846 -0.48825 0
M  V30 29471 C 2713.22 -1.7021 -1.61448 0
M  V30 29472 C 2714.24 -0.584875 -1.63876 0
M  V30 29473 O 2715.42 -0.861139 -1.82061 0
M  V30 29474 C 2712.48 -1.77599 -2.97757 0
M  V30 29475 C 2711.54 -3.01249 -3.05856 0
M  V30 29476 C 2710.77 -3.08276 -4.35662 0
M  V30 29477 O 2711 -2.2255 -5.25193 0
M  V30 29478 O 2709.93 -4.00855 -4.48998 0
M  V30 29479 H 2713.76 -2.65645 -1.47194 0
M  V30 29480 H 2711.34 -1.33738 -0.665916 0
M  V30 29481 H 2713.22 -1.84739 -3.78747 0
M  V30 29482 H 2711.9 -0.853454 -3.12246 0
M  V30 29483 H 2710.81 -2.9962 -2.24006 0
M  V30 29484 H 2712.14 -3.93025 -2.96298 0
M  V30 29485 N 2713.79 0.740218 -1.39135 0
M  V30 29486 C 2715.2 1.31823 -1.32211 0
M  V30 29487 C 2715.55 1.96194 0.0159574 0
M  V30 29488 O 2714.68 1.9596 0.918077 0
M  V30 29489 C 2715.27 2.39695 -2.3944 0
M  V30 29490 C 2713.83 2.93183 -2.36053 0
M  V30 29491 C 2712.98 1.66697 -2.21602 0
M  V30 29492 H 2715.93 0.538106 -1.49299 0
M  V30 29493 H 2715.95 3.19959 -2.05928 0
M  V30 29494 H 2715.46 1.92815 -3.36814 0
M  V30 29495 H 2713.56 3.44356 -1.42301 0
M  V30 29496 H 2713.68 3.46652 -3.3071 0
M  V30 29497 H 2712.04 1.90834 -1.68684 0
M  V30 29498 H 2712.82 1.21877 -3.20938 0
M  V30 29499 N 2715.27 1.24225 0.969846 0
M  V30 29500 C 2716.5 1.10603 1.74501 0
M  V30 29501 C 2716.91 -0.34445 1.86038 0
M  V30 29502 O 2716.25 -1.24958 1.34652 0
M  V30 29503 C 2716.31 1.66941 3.18388 0
M  V30 29504 C 2715.98 3.15804 3.30328 0
M  V30 29505 C 2716.97 4.12978 3.15824 0
M  V30 29506 C 2714.66 3.55721 3.54638 0
M  V30 29507 C 2716.65 5.48051 3.25451 0
M  V30 29508 C 2714.34 4.90936 3.63903 0
M  V30 29509 C 2715.34 5.8691 3.49322 0
M  V30 29510 O 2715.03 7.19667 3.58239 0
M  V30 29511 H 2714.76 0.387216 0.554112 0
M  V30 29512 H 2717.31 1.64766 1.22643 0
M  V30 29513 H 2715.54 1.0721 3.71541 0
M  V30 29514 H 2717.23 1.48641 3.77704 0
M  V30 29515 H 2718 3.83481 2.9693 0
M  V30 29516 H 2713.88 2.81525 3.65054 0
M  V30 29517 H 2717.42 6.22943 3.13987 0
M  V30 29518 H 2713.32 5.20105 3.8231 0
M  V30 29519 H 2714.08 7.27559 3.74967 0
M  V30 29520 N 2716.75 -1.1702 1.05565 0
M  V30 29521 C 2717.68 -2.23347 0.681065 0
M  V30 29522 C 2718.66 -1.67006 -0.322954 0
M  V30 29523 O 2719.84 -1.9317 -0.199712 0
M  V30 29524 C 2716.97 -3.4725 0.0589663 0
M  V30 29525 C 2715.93 -4.16437 0.988155 0
M  V30 29526 C 2715.25 -5.34206 0.22974 0
M  V30 29527 C 2716.55 -4.68245 2.31396 0
M  V30 29528 H 2718.25 -2.54936 1.56997 0
M  V30 29529 H 2715.79 -1.22539 0.756324 0
M  V30 29530 H 2717.75 -4.20852 -0.214908 0
M  V30 29531 H 2716.47 -3.14939 -0.864913 0
M  V30 29532 H 2715.13 -3.44752 1.24666 0
M  V30 29533 H 2714.78 -4.98147 -0.697024 0
M  V30 29534 H 2714.48 -5.81435 0.848917 0
M  V30 29535 H 2716 -6.10589 -0.0367621 0
M  V30 29536 H 2717.42 -5.33464 2.09973 0
M  V30 29537 H 2715.81 -5.26067 2.88745 0
M  V30 29538 H 2716.88 -3.8485 2.94989 0
M  V30 29539 N 2718.23 -0.837197 -1.33524 0
M  V30 29540 C 2719.47 -0.432099 -1.97836 0
M  V30 29541 C 2719.8 1.00826 -1.66326 0
M  V30 29542 O 2719.06 1.71946 -0.93451 0
M  V30 29543 C 2719.35 -0.597737 -3.52366 0
M  V30 29544 C 2719.02 -2.00595 -4.03823 0
M  V30 29545 C 2717.68 -2.39114 -4.17586 0
M  V30 29546 C 2720.03 -2.92584 -4.31328 0
M  V30 29547 C 2717.36 -3.68929 -4.56189 0
M  V30 29548 C 2719.71 -4.21879 -4.71382 0
M  V30 29549 C 2718.38 -4.60356 -4.83352 0
M  V30 29550 H 2717.65 -0.158116 -0.723934 0
M  V30 29551 H 2720.3 -1.0639 -1.59228 0
M  V30 29552 H 2718.6 0.117383 -3.91624 0
M  V30 29553 H 2720.3 -0.264611 -4.00126 0
M  V30 29554 H 2716.89 -1.69678 -3.93583 0
M  V30 29555 H 2721.07 -2.64063 -4.20219 0
M  V30 29556 H 2716.33 -3.98548 -4.63648 0
M  V30 29557 H 2720.5 -4.93235 -4.91622 0
M  V30 29558 H 2718.13 -5.60994 -5.13021 0
M  V30 29559 N 2719.7 1.45999 -0.593476 0
M  V30 29560 C 2720.95 2.02629 -0.0833111 0
M  V30 29561 C 2721.28 1.46268 1.27747 0
M  V30 29562 O 2720.56 0.631898 1.83949 0
M  V30 29563 C 2720.84 3.60088 -0.0291389 0
M  V30 29564 C 2720.69 4.26811 -1.41958 0
M  V30 29565 C 2722.01 4.35032 0.665979 0
M  V30 29566 H 2719.13 0.736316 -0.031749 0
M  V30 29567 H 2721.77 1.74018 -0.762742 0
M  V30 29568 H 2719.92 3.84595 0.549464 0
M  V30 29569 H 2721.6 4.13535 -2.04418 0
M  V30 29570 H 2719.84 3.85757 -1.98429 0
M  V30 29571 H 2720.51 5.35637 -1.33405 0
M  V30 29572 H 2722.99 4.15735 0.174328 0
M  V30 29573 H 2721.86 5.44759 0.672945 0
M  V30 29574 H 2722.12 4.06872 1.72938 0
M  V30 29575 N 2721.18 0.331843 1.54067 0
M  V30 29576 C 2722.41 -0.26996 2.05131 0
M  V30 29577 C 2722.83 -1.45136 1.20752 0
M  V30 29578 O 2722.18 -1.80914 0.240101 0
M  V30 29579 C 2722.23 -0.696393 3.54729 0
M  V30 29580 O 2721.95 0.438017 4.35905 0
M  V30 29581 C 2723.46 -1.36014 4.21918 0
M  V30 29582 H 2720.68 -0.0541924 0.668808 0
M  V30 29583 H 2723.22 0.480435 1.98776 0
M  V30 29584 H 2721.37 -1.39675 3.61344 0
M  V30 29585 H 2721.79 0.100427 5.24404 0
M  V30 29586 H 2723.26 -1.60938 5.28018 0
M  V30 29587 H 2723.74 -2.31005 3.73542 0
M  V30 29588 H 2724.35 -0.702138 4.19464 0
M  V30 29589 N 2722.66 -1.57485 0.0601958 0
M  V30 29590 C 2723.61 -2.08573 -0.920932 0
M  V30 29591 C 2724.59 -0.992849 -1.26615 0
M  V30 29592 O 2725.79 -1.25608 -1.24706 0
M  V30 29593 C 2722.92 -2.64157 -2.19262 0
M  V30 29594 C 2722 -3.8043 -1.8744 0
M  V30 29595 N 2722.39 -4.8985 -1.26017 0
M  V30 29596 C 2720.69 -3.89506 -2.17258 0
M  V30 29597 C 2721.39 -5.70811 -1.12026 0
M  V30 29598 N 2720.37 -5.18707 -1.62615 0
M  V30 29599 H 2724.17 -2.90565 -0.44151 0
M  V30 29600 H 2721.68 -1.6176 -0.144014 0
M  V30 29601 H 2723.68 -2.99066 -2.90457 0
M  V30 29602 H 2722.34 -1.83608 -2.67803 0
M  V30 29603 H 2723.35 -5.09459 -0.931247 0
M  V30 29604 H 2720.03 -3.19914 -2.68256 0
M  V30 29605 H 2721.42 -6.68819 -0.642665 0
M  V30 29606 N 2724.14 0.213268 -1.5615 0
M  V30 29607 C 2725.39 0.93643 -1.79547 0
M  V30 29608 C 2725.71 1.84002 -0.630369 0
M  V30 29609 O 2724.97 1.91879 0.384849 0
M  V30 29610 C 2725.27 1.7998 -3.08775 0
M  V30 29611 C 2724.93 1.04874 -4.38534 0
M  V30 29612 C 2723.6 0.84131 -4.73788 0
M  V30 29613 C 2725.95 0.518978 -5.1861 0
M  V30 29614 C 2723.28 0.0923372 -5.86627 0
M  V30 29615 C 2725.63 -0.216692 -6.32229 0
M  V30 29616 C 2724.29 -0.435308 -6.66079 0
M  V30 29617 H 2723.56 0.342664 -0.65701 0
M  V30 29618 H 2726.21 0.204017 -1.9041 0
M  V30 29619 H 2724.51 2.60033 -2.9307 0
M  V30 29620 H 2726.21 2.36162 -3.24081 0
M  V30 29621 H 2722.8 1.22041 -4.10858 0
M  V30 29622 H 2726.98 0.666688 -4.91802 0
M  V30 29623 H 2722.24 -0.0871885 -6.11338 0
M  V30 29624 H 2726.41 -0.634659 -6.93502 0
M  V30 29625 H 2724.04 -1.01759 -7.53359 0
M  V30 29626 N 2725.62 1.50103 0.480296 0
M  V30 29627 C 2726.56 1.68808 1.60021 0
M  V30 29628 C 2727.56 0.553916 1.60088 0
M  V30 29629 O 2728.76 0.734156 1.64348 0
M  V30 29630 H 2725.14 0.532656 0.530831 0
M  V30 29631 H 2727.11 2.62769 1.41403 0
M  V30 29632 C 2725.86 1.79097 2.98026 0
M  V30 29633 H 2725.18 2.65753 2.98689 0
M  V30 29634 H 2726.62 1.96213 3.75868 0
M  V30 29635 C 2725.08 0.540447 3.32537 0
M  V30 29636 O 2725.61 -0.324566 4.00387 0
M  V30 29637 N 2723.82 0.397205 2.87873 0
M  V30 29638 H 2723.36 1.10214 2.32832 0
M  V30 29639 H 2723.32 -0.43837 3.11329 0
M  V30 29640 N 2727.09 -0.732829 1.39526 0
M  V30 29641 C 2728.32 -1.52714 1.40332 0
M  V30 29642 C 2728.74 -1.881 0.000319637 0
M  V30 29643 O 2728.1 -1.52064 -0.987235 0
M  V30 29644 C 2728.15 -2.78988 2.28468 0
M  V30 29645 O 2727.25 -3.75 1.71606 0
M  V30 29646 H 2726.6 -0.461101 0.477789 0
M  V30 29647 H 2729.13 -0.903964 1.83547 0
M  V30 29648 H 2729.14 -3.277 2.43056 0
M  V30 29649 H 2727.81 -2.52566 3.30429 0
M  V30 29650 H 2726.39 -3.33778 1.66273 0
M  V30 29651 N 2728.57 -1.24737 -0.963244 0
M  V30 29652 C 2729.5 -1.06836 -2.07626 0
M  V30 29653 C 2730.48 0.0200267 -1.70088 0
M  V30 29654 O 2731.67 -0.147888 -1.93636 0
M  V30 29655 C 2728.8 -0.677129 -3.40635 0
M  V30 29656 C 2727.75 -1.71478 -3.92147 0
M  V30 29657 C 2727.08 -1.17849 -5.21551 0
M  V30 29658 C 2728.38 -3.11172 -4.19487 0
M  V30 29659 H 2730.07 -1.99934 -2.2286 0
M  V30 29660 H 2727.62 -0.962679 -1.07091 0
M  V30 29661 H 2729.57 -0.538866 -4.1794 0
M  V30 29662 H 2728.3 0.289554 -3.25314 0
M  V30 29663 H 2726.95 -1.84134 -3.17002 0
M  V30 29664 H 2726.6 -0.202284 -5.02593 0
M  V30 29665 H 2726.3 -1.87195 -5.56985 0
M  V30 29666 H 2727.83 -1.05244 -6.01462 0
M  V30 29667 H 2729.24 -3.01719 -4.87482 0
M  V30 29668 H 2727.64 -3.77911 -4.66158 0
M  V30 29669 H 2728.71 -3.58877 -3.26091 0
M  V30 29670 N 2730.05 1.16459 -1.06184 0
M  V30 29671 C 2730.96 2.24446 -0.68271 0
M  V30 29672 C 2731.98 1.71381 0.30075 0
M  V30 29673 O 2733.15 2.00838 0.150341 0
M  V30 29674 C 2730.22 3.46621 -0.0737811 0
M  V30 29675 C 2729.28 4.14729 -1.10897 0
M  V30 29676 C 2728.51 5.31072 -0.529001 0
M  V30 29677 O 2728.73 5.66585 0.65858 0
M  V30 29678 O 2727.67 5.88389 -1.26815 0
M  V30 29679 H 2731.49 2.59184 -1.58295 0
M  V30 29680 H 2729.08 1.23952 -0.834035 0
M  V30 29681 H 2730.96 4.20571 0.264118 0
M  V30 29682 H 2729.64 3.1366 0.79996 0
M  V30 29683 H 2728.54 3.42754 -1.49903 0
M  V30 29684 H 2729.88 4.51743 -1.9542 0
M  V30 29685 N 2731.53 0.844266 1.33079 0
M  V30 29686 C 2732.77 0.44324 1.97897 0
M  V30 29687 C 2733.11 -0.996221 1.66701 0
M  V30 29688 O 2732.38 -1.69736 0.949734 0
M  V30 29689 C 2732.67 0.670668 3.53799 0
M  V30 29690 C 2732.52 2.15779 3.94664 0
M  V30 29691 C 2733.84 0.120304 4.39936 0
M  V30 29692 H 2730.96 0.162517 0.718858 0
M  V30 29693 H 2733.6 1.06078 1.57631 0
M  V30 29694 H 2731.75 0.145028 3.88229 0
M  V30 29695 H 2733.42 2.74871 3.70464 0
M  V30 29696 H 2731.66 2.64026 3.44199 0
M  V30 29697 H 2732.33 2.26765 5.03271 0
M  V30 29698 H 2734.81 0.569672 4.12182 0
M  V30 29699 H 2733.69 0.309081 5.48029 0
M  V30 29700 H 2733.95 -0.976271 4.31186 0
M  V30 29701 N 2733.01 -1.45682 0.60121 0
M  V30 29702 C 2734.26 -2.01492 0.0915307 0
M  V30 29703 C 2734.57 -1.47619 -1.28328 0
M  V30 29704 O 2735.77 -1.95365 -1.88533 0
M  V30 29705 C 2734.23 -3.59723 0.112973 0
M  V30 29706 C 2733.84 -4.22593 1.48724 0
M  V30 29707 C 2735.58 -4.23122 -0.341797 0
M  V30 29708 C 2733.49 -5.72957 1.46541 0
M  V30 29709 H 2732.42 -0.753385 0.0304497 0
M  V30 29710 H 2735.07 -1.67221 0.755597 0
M  V30 29711 H 2733.45 -3.91154 -0.617623 0
M  V30 29712 H 2734.63 -4.02745 2.23904 0
M  V30 29713 H 2732.94 -3.71363 1.88357 0
M  V30 29714 H 2735.54 -5.33368 -0.37721 0
M  V30 29715 H 2735.88 -3.93349 -1.36318 0
M  V30 29716 H 2736.41 -3.96384 0.335326 0
M  V30 29717 H 2733.15 -6.07419 2.46419 0
M  V30 29718 H 2732.67 -5.95015 0.756102 0
M  V30 29719 H 2734.35 -6.36032 1.18629 0
M  V30 29720 N 2734.48 -0.340009 -1.53889 0
M  V30 29721 C 2735.39 0.526948 -2.28605 0
M  V30 29722 C 2736.41 1.115 -1.3358 0
M  V30 29723 O 2737.59 1.13145 -1.66614 0
M  V30 29724 C 2734.65 1.66384 -3.04167 0
M  V30 29725 C 2733.71 1.10592 -4.14811 0
M  V30 29726 C 2732.95 2.18863 -4.86759 0
M  V30 29727 O 2733.17 3.39518 -4.58349 0
M  V30 29728 O 2732.1 1.83356 -5.73292 0
M  V30 29729 H 2735.93 -0.080324 -3.03594 0
M  V30 29730 H 2733.51 -0.105168 -1.49029 0
M  V30 29731 H 2735.4 2.32538 -3.51431 0
M  V30 29732 H 2734.07 2.25699 -2.32038 0
M  V30 29733 H 2732.98 0.409001 -3.71857 0
M  V30 29734 H 2734.31 0.557685 -4.8903 0
M  V30 29735 N 2735.96 1.57451 -0.0685468 0
M  V30 29736 C 2737.21 1.92542 0.600864 0
M  V30 29737 C 2737.53 0.950269 1.70966 0
M  V30 29738 O 2738.73 1.19388 2.43842 0
M  V30 29739 C 2737.19 3.42025 1.12013 0
M  V30 29740 C 2736.8 4.4798 0.042524 0
M  V30 29741 C 2738.54 3.86122 1.7638 0
M  V30 29742 C 2736.45 5.88592 0.575655 0
M  V30 29743 H 2735.38 0.718634 0.228213 0
M  V30 29744 H 2738.03 1.82963 -0.140255 0
M  V30 29745 H 2736.41 3.46666 1.91412 0
M  V30 29746 H 2737.58 4.5495 -0.7319 0
M  V30 29747 H 2735.9 4.1333 -0.504715 0
M  V30 29748 H 2738.5 4.88557 2.17293 0
M  V30 29749 H 2738.84 3.23313 2.62249 0
M  V30 29750 H 2739.37 3.8407 1.03608 0
M  V30 29751 H 2736.11 6.55039 -0.245807 0
M  V30 29752 H 2735.63 5.85147 1.31767 0
M  V30 29753 H 2737.31 6.38372 1.05309 0
M  V30 29754 N 2737.44 -0.204984 1.56261 0
M  V30 29755 C 2738.37 -1.27791 1.90268 0
M  V30 29756 C 2739.39 -1.42213 0.792422 0
M  V30 29757 O 2740.58 -1.42815 1.0708 0
M  V30 29758 C 2737.68 -2.6514 2.11079 0
M  V30 29759 C 2736.85 -2.72454 3.42181 0
M  V30 29760 C 2735.91 -3.90929 3.52223 0
M  V30 29761 O 2734.93 -3.78493 4.25125 0
M  V30 29762 N 2736.14 -5.05958 2.84582 0
M  V30 29763 H 2738.9 -0.989384 2.82898 0
M  V30 29764 H 2736.46 -0.394953 1.57009 0
M  V30 29765 H 2738.45 -3.42807 2.15095 0
M  V30 29766 H 2737.02 -2.86522 1.24995 0
M  V30 29767 H 2736.24 -1.81136 3.50119 0
M  V30 29768 H 2737.53 -2.74323 4.28514 0
M  V30 29769 H 2736.93 -5.18959 2.25161 0
M  V30 29770 H 2735.49 -5.81607 2.94238 0
M  V30 29771 N 2738.92 -1.50356 -0.472329 0
M  V30 29772 C 2739.88 -1.68579 -1.55287 0
M  V30 29773 C 2740.88 -0.556538 -1.50862 0
M  V30 29774 O 2742.07 -0.823543 -1.53504 0
M  V30 29775 C 2739.2 -1.70986 -2.94918 0
M  V30 29776 H 2740.4 -2.64981 -1.40447 0
M  V30 29777 H 2737.95 -1.39818 -0.69862 0
M  V30 29778 H 2738.69 -0.76273 -3.15203 0
M  V30 29779 H 2738.47 -2.53022 -2.99536 0
M  V30 29780 H 2739.96 -1.87044 -3.73369 0
M  V30 29781 N 2740.4 0.725419 -1.39912 0
M  V30 29782 C 2741.81 1.03222 -1.21726 0
M  V30 29783 C 2742.01 2.01318 -0.0855578 0
M  V30 29784 O 2741.07 2.46218 0.559717 0
M  V30 29785 C 2742.38 1.58534 -2.55514 0
M  V30 29786 C 2743.93 1.70568 -2.62442 0
M  V30 29787 C 2744.41 2.29287 -3.96474 0
M  V30 29788 N 2745.9 2.36685 -3.98164 0
M  V30 29789 C 2746.63 2.8308 -4.98652 0
M  V30 29790 N 2746.13 3.29299 -6.09536 0
M  V30 29791 N 2747.92 2.82375 -4.86025 0
M  V30 29792 H 2740.07 0.0750107 -2.12268 0
M  V30 29793 H 2742.33 0.0958901 -0.943138 0
M  V30 29794 H 2742.04 0.93919 -3.38928 0
M  V30 29795 H 2741.91 2.57203 -2.7591 0
M  V30 29796 H 2744.3 2.34303 -1.79405 0
M  V30 29797 H 2744.38 0.705254 -2.45886 0
M  V30 29798 H 2744.03 1.66177 -4.79945 0
M  V30 29799 H 2743.96 3.30025 -4.10355 0
M  V30 29800 H 2746.45 2.0403 -3.18088 0
M  V30 29801 H 2746.76 3.63238 -6.82113 0
M  V30 29802 H 2745.11 3.27283 -6.13116 0
M  V30 29803 H 2748.3 2.45596 -3.98497 0
M  V30 29804 H 2748.47 3.18216 -5.64484 0
M  V30 29805 N 2741.88 1.25246 0.956615 0
M  V30 29806 C 2743.1 1.12709 1.74102 0
M  V30 29807 C 2743.53 -0.315396 1.85437 0
M  V30 29808 O 2742.88 -1.22846 1.33337 0
M  V30 29809 C 2742.93 1.78401 3.13377 0
M  V30 29810 O 2742.04 1.06231 3.98483 0
M  V30 29811 H 2741.38 0.393618 0.534753 0
M  V30 29812 H 2743.91 1.65771 1.19921 0
M  V30 29813 H 2743.92 1.84606 3.63847 0
M  V30 29814 H 2742.59 2.8335 3.04443 0
M  V30 29815 H 2741.17 1.07892 3.56951 0
M  V30 29816 N 2743.35 -1.15894 1.068 0
M  V30 29817 C 2744.58 -1.90981 0.808773 0
M  V30 29818 C 2745 -1.7718 -0.631568 0
M  V30 29819 O 2744.36 -1.10064 -1.44068 0
M  V30 29820 C 2744.41 -3.39524 1.21474 0
M  V30 29821 O 2743.51 -4.10855 0.356634 0
M  V30 29822 H 2742.85 -0.594806 0.29513 0
M  V30 29823 H 2745.38 -1.46801 1.42515 0
M  V30 29824 H 2745.39 -3.90306 1.18851 0
M  V30 29825 H 2744.07 -3.48888 2.26385 0
M  V30 29826 H 2742.65 -3.70237 0.444874 0
M  V30 29827 N 2744.83 -0.851312 -1.32629 0
M  V30 29828 C 2745.79 -0.298581 -2.27247 0
M  V30 29829 C 2746.79 0.53982 -1.51468 0
M  V30 29830 O 2747.98 0.351813 -1.7061 0
M  V30 29831 C 2745.12 0.577945 -3.35965 0
M  V30 29832 H 2746.31 -1.13364 -2.77648 0
M  V30 29833 H 2743.86 -0.62538 -1.43243 0
M  V30 29834 H 2744.6 1.43495 -2.90826 0
M  V30 29835 H 2744.38 -0.0221229 -3.92094 0
M  V30 29836 H 2745.87 0.957554 -4.06473 0
M  V30 29837 N 2746.31 1.45361 -0.608928 0
M  V30 29838 C 2747.56 2.0183 -0.104436 0
M  V30 29839 C 2747.88 1.47969 1.27004 0
M  V30 29840 O 2747.15 0.674487 1.83922 0
M  V30 29841 H 2745.73 0.74615 -0.0356173 0
M  V30 29842 H 2748.39 1.78143 -0.790627 0
M  V30 29843 H 2747.49 3.12051 -0.0552341 0
M  V30 29844 N 2747.79 0.348166 1.53706 0
M  V30 29845 C 2749.02 -0.248188 2.05406 0
M  V30 29846 C 2749.43 -1.43847 1.22284 0
M  V30 29847 O 2748.79 -1.80649 0.259276 0
M  V30 29848 C 2748.84 -0.65873 3.55448 0
M  V30 29849 O 2748.56 0.484226 4.35416 0
M  V30 29850 C 2750.06 -1.31531 4.23337 0
M  V30 29851 H 2747.28 -0.0470958 0.669345 0
M  V30 29852 H 2749.82 0.501491 1.98256 0
M  V30 29853 H 2747.98 -1.35835 3.62805 0
M  V30 29854 H 2748.39 0.156041 5.24268 0
M  V30 29855 H 2749.87 -1.55329 5.29695 0
M  V30 29856 H 2750.34 -2.2703 3.75971 0
M  V30 29857 H 2750.95 -0.657609 4.20185 0
M  V30 29858 N 2749.27 -1.57412 0.0768958 0
M  V30 29859 C 2750.68 -1.81071 -0.455006 0
M  V30 29860 C 2751.03 -0.991192 -1.69322 0
M  V30 29861 O 2750.15 -0.215194 -2.15327 0
M  V30 29862 C 2750.75 -3.28419 -0.832258 0
M  V30 29863 C 2749.31 -3.52905 -1.309 0
M  V30 29864 C 2748.45 -2.75709 -0.296666 0
M  V30 29865 H 2751.4 -1.5579 0.302541 0
M  V30 29866 H 2751.43 -3.40747 -1.69327 0
M  V30 29867 H 2750.94 -3.88038 0.0691214 0
M  V30 29868 H 2749.04 -2.98596 -2.2287 0
M  V30 29869 H 2749.15 -4.6159 -1.2834 0
M  V30 29870 H 2747.52 -2.42622 -0.775017 0
M  V30 29871 H 2748.3 -3.38068 0.597075 0
M  V30 29872 N 2750.74 0.196695 -1.56368 0
M  V30 29873 C 2751.71 1.22743 -1.93563 0
M  V30 29874 C 2752.71 1.38522 -0.81659 0
M  V30 29875 O 2753.9 1.36362 -1.08403 0
M  V30 29876 C 2751.03 2.59708 -2.20827 0
M  V30 29877 H 2752.22 0.909536 -2.85775 0
M  V30 29878 H 2749.78 0.438148 -1.50033 0
M  V30 29879 H 2750.51 2.96554 -1.31248 0
M  V30 29880 H 2750.3 2.49626 -3.02372 0
M  V30 29881 H 2751.79 3.34039 -2.50614 0
M  V30 29882 N 2752.22 1.50604 0.464349 0
M  V30 29883 C 2753.64 1.3818 0.79866 0
M  V30 29884 C 2753.84 0.443115 1.96567 0
M  V30 29885 O 2752.89 -0.11177 2.52253 0
M  V30 29886 C 2754.21 2.79685 1.10439 0
M  V30 29887 C 2755.76 2.88647 1.21045 0
M  V30 29888 C 2756.23 4.31001 1.54927 0
M  V30 29889 N 2757.72 4.33983 1.61905 0
M  V30 29890 C 2758.46 5.41132 1.8964 0
M  V30 29891 N 2757.95 6.5848 2.1535 0
M  V30 29892 N 2759.75 5.28583 1.91198 0
M  V30 29893 H 2751.9 2.10204 -0.30464 0
M  V30 29894 H 2754.16 0.945123 -0.073797 0
M  V30 29895 H 2753.87 3.50242 0.319872 0
M  V30 29896 H 2753.74 3.17346 2.03891 0
M  V30 29897 H 2756.13 2.18304 1.98563 0
M  V30 29898 H 2756.21 2.5452 0.255568 0
M  V30 29899 H 2755.85 5.01883 0.77946 0
M  V30 29900 H 2755.78 4.6262 2.51576 0
M  V30 29901 H 2758.27 3.49368 1.44049 0
M  V30 29902 H 2758.59 7.35945 2.35805 0
M  V30 29903 H 2756.93 6.61643 2.12728 0
M  V30 29904 H 2760.12 4.359 1.70614 0
M  V30 29905 H 2760.29 6.12174 2.12477 0
M  V30 29906 N 2753.7 -0.717989 1.40295 0
M  V30 29907 C 2754.66 -1.81378 1.40123 0
M  V30 29908 C 2755.66 -1.58063 0.295433 0
M  V30 29909 O 2756.85 -1.65149 0.554216 0
M  V30 29910 C 2753.99 -3.19433 1.19061 0
M  V30 29911 H 2755.18 -1.82929 2.37649 0
M  V30 29912 H 2752.73 -0.923382 1.26108 0
M  V30 29913 H 2753.47 -3.23533 0.222866 0
M  V30 29914 H 2753.25 -3.37755 1.99158 0
M  V30 29915 H 2754.74 -3.99466 1.21723 0
M  V30 29916 N 2755.18 -1.25752 -0.94996 0
M  V30 29917 C 2756.41 -1.13366 -1.72719 0
M  V30 29918 C 2756.82 0.314809 -1.86563 0
M  V30 29919 O 2756.16 1.228 -1.36623 0
M  V30 29920 C 2756.22 -1.71985 -3.15692 0
M  V30 29921 C 2755.89 -3.21019 -3.25262 0
M  V30 29922 C 2756.88 -4.1795 -3.09214 0
M  V30 29923 C 2754.57 -3.61318 -3.48934 0
M  V30 29924 C 2756.56 -5.53159 -3.16691 0
M  V30 29925 C 2754.25 -4.96663 -3.56046 0
M  V30 29926 C 2755.25 -5.92393 -3.3994 0
M  V30 29927 O 2754.93 -7.25275 -3.46744 0
M  V30 29928 H 2754.67 -0.395982 -0.547881 0
M  V30 29929 H 2757.22 -1.66696 -1.20006 0
M  V30 29930 H 2755.45 -1.13107 -3.69789 0
M  V30 29931 H 2757.14 -1.54631 -3.75292 0
M  V30 29932 H 2757.91 -3.88156 -2.90791 0
M  V30 29933 H 2753.78 -2.87297 -3.60529 0
M  V30 29934 H 2757.33 -6.27859 -3.04037 0
M  V30 29935 H 2753.23 -5.26121 -3.73988 0
M  V30 29936 H 2753.99 -7.33432 -3.63345 0
M  V30 29937 N 2756.66 1.15326 -1.07413 0
M  V30 29938 C 2757.59 2.22235 -0.716511 0
M  V30 29939 C 2758.57 1.67499 0.296344 0
M  V30 29940 O 2759.75 1.93464 0.168955 0
M  V30 29941 C 2756.88 3.47112 -0.114203 0
M  V30 29942 C 2755.84 4.14812 -1.05428 0
M  V30 29943 C 2755.16 5.33773 -0.314698 0
M  V30 29944 C 2756.46 4.64504 -2.38816 0
M  V30 29945 H 2758.16 2.52406 -1.61033 0
M  V30 29946 H 2755.7 1.2132 -0.775723 0
M  V30 29947 H 2757.66 4.2114 0.147927 0
M  V30 29948 H 2756.38 3.16276 0.814699 0
M  V30 29949 H 2755.04 3.42725 -1.30134 0
M  V30 29950 H 2754.69 4.99193 0.617685 0
M  V30 29951 H 2754.39 5.80011 -0.941311 0
M  V30 29952 H 2755.91 6.1057 -0.060382 0
M  V30 29953 H 2757.32 5.30056 -2.18433 0
M  V30 29954 H 2755.72 5.21407 -2.97078 0
M  V30 29955 H 2756.79 3.80109 -3.01074 0
M  V30 29956 N 2758.13 0.858334 1.32176 0
M  V30 29957 C 2759.41 0.384658 1.9178 0
M  V30 29958 C 2759.79 -1.13214 1.78173 0
M  V30 29959 O 2759.14 -1.95545 1.18213 0
M  V30 29960 C 2759.35 0.853107 3.38413 0
M  V30 29961 C 2760.7 0.872432 4.1554 0
M  V30 29962 O 2761.72 0.797987 3.47146 0
M  V30 29963 O 2760.58 0.978103 5.37676 0
M  V30 29964 H 2757.67 0.1129 0.819257 0
M  V30 29965 H 2760.22 0.945477 1.40921 0
M  V30 29966 H 2758.99 1.89638 3.42277 0
M  V30 29967 H 2758.62 0.269943 3.96683 0
M  V30 29968 N 2759.61 -1.45036 0.616628 0
M  V30 29969 C 2760.86 -2.01384 0.112897 0
M  V30 29970 C 2761.17 -1.48971 -1.26755 0
M  V30 29971 O 2762.38 -1.97354 -1.86451 0
M  V30 29972 C 2760.84 -3.59583 0.15112 0
M  V30 29973 C 2760.44 -4.20992 1.53198 0
M  V30 29974 C 2762.19 -4.2346 -0.2969 0
M  V30 29975 C 2760.1 -5.7137 1.5261 0
M  V30 29976 H 2759.03 -0.75302 0.0384387 0
M  V30 29977 H 2761.68 -1.66411 0.773291 0
M  V30 29978 H 2760.06 -3.91787 -0.576101 0
M  V30 29979 H 2761.23 -4.00348 2.28163 0
M  V30 29980 H 2759.55 -3.69344 1.92286 0
M  V30 29981 H 2762.14 -5.33738 -0.320618 0
M  V30 29982 H 2762.49 -3.94772 -1.32138 0
M  V30 29983 H 2763.02 -3.96006 0.377349 0
M  V30 29984 H 2759.76 -6.04771 2.52848 0
M  V30 29985 H 2759.28 -5.9418 0.819168 0
M  V30 29986 H 2760.96 -6.34738 1.25368 0
M  V30 29987 N 2761.09 -0.356312 -1.53519 0
M  V30 29988 C 2762.5 0.124887 -1.86282 0
M  V30 29989 C 2762.85 1.48937 -1.27719 0
M  V30 29990 O 2761.98 2.08041 -0.595651 0
M  V30 29991 C 2762.57 0.23339 -3.37995 0
M  V30 29992 C 2761.13 0.658834 -3.70589 0
M  V30 29993 C 2760.28 -0.199644 -2.7658 0
M  V30 29994 H 2763.23 -0.575449 -1.479 0
M  V30 29995 H 2763.25 1.05863 -3.65477 0
M  V30 29996 H 2762.76 -0.759842 -3.80589 0
M  V30 29997 H 2760.86 1.66063 -3.33547 0
M  V30 29998 H 2760.98 0.439873 -4.77076 0
M  V30 29999 H 2759.34 0.330031 -2.52553 0
M  V30 30000 H 2760.12 -1.19025 -3.22006 0
M  V30 30001 N 2762.57 1.57369 -0.0852427 0
M  V30 30002 C 2763.52 2.14699 0.894818 0
M  V30 30003 C 2764.51 1.0873 1.29901 0
M  V30 30004 O 2765.72 1.2709 1.27468 0
M  V30 30005 H 2762.09 0.686678 0.306557 0
M  V30 30006 H 2764.06 2.95886 0.38649 0
M  V30 30007 C 2762.81 2.73421 2.14794 0
M  V30 30008 H 2762.13 3.54642 1.84579 0
M  V30 30009 H 2763.57 3.17115 2.8145 0
M  V30 30010 C 2762.03 1.68833 2.91543 0
M  V30 30011 O 2762.56 1.12135 3.85731 0
M  V30 30012 N 2760.77 1.39553 2.54898 0
M  V30 30013 H 2760.32 1.85849 1.78376 0
M  V30 30014 H 2760.27 0.698108 3.06551 0
M  V30 30015 N 2764.05 -0.188399 1.5647 0
M  V30 30016 C 2765.46 -0.752464 1.70865 0
M  V30 30017 C 2765.81 -1.83556 0.692938 0
M  V30 30018 O 2764.93 -2.15885 -0.149269 0
M  V30 30019 C 2765.53 -1.37168 3.09791 0
M  V30 30020 C 2764.09 -1.88275 3.25929 0
M  V30 30021 C 2763.23 -0.755212 2.66818 0
M  V30 30022 H 2766.19 0.0367687 1.58657 0
M  V30 30023 H 2766.21 -2.24117 3.07493 0
M  V30 30024 H 2765.72 -0.583151 3.83694 0
M  V30 30025 H 2763.82 -2.69826 2.56953 0
M  V30 30026 H 2763.93 -2.03994 4.33501 0
M  V30 30027 H 2762.3 -1.17124 2.26172 0
M  V30 30028 H 2763.08 0.0211841 3.43293 0
M  V30 30029 N 2765.53 -1.50848 -0.456355 0
M  V30 30030 C 2766.94 -1.38601 -0.791321 0
M  V30 30031 C 2767.14 -0.453533 -1.9633 0
M  V30 30032 O 2766.2 0.098391 -2.52308 0
M  V30 30033 C 2767.51 -2.80267 -1.08954 0
M  V30 30034 C 2769.06 -2.89285 -1.19512 0
M  V30 30035 C 2769.53 -4.31816 -1.52639 0
M  V30 30036 N 2771.02 -4.34835 -1.59601 0
M  V30 30037 C 2771.76 -5.4213 -1.86768 0
M  V30 30038 N 2771.26 -6.59613 -2.11855 0
M  V30 30039 N 2773.05 -5.29589 -1.88392 0
M  V30 30040 H 2765.2 -2.10039 0.315783 0
M  V30 30041 H 2767.46 -0.944719 0.0788082 0
M  V30 30042 H 2767.17 -3.50407 -0.301294 0
M  V30 30043 H 2767.04 -3.18423 -2.02205 0
M  V30 30044 H 2769.43 -2.19354 -1.97402 0
M  V30 30045 H 2769.51 -2.54652 -0.242066 0
M  V30 30046 H 2769.15 -5.0229 -0.752833 0
M  V30 30047 H 2769.08 -4.63947 -2.49119 0
M  V30 30048 H 2771.58 -3.50127 -1.42194 0
M  V30 30049 H 2771.89 -7.37186 -2.31899 0
M  V30 30050 H 2770.23 -6.62762 -2.09216 0
M  V30 30051 H 2773.42 -4.36798 -1.683 0
M  V30 30052 H 2773.6 -6.13293 -2.09227 0
M  V30 30053 N 2767 0.710538 -1.40674 0
M  V30 30054 C 2768.23 1.4974 -1.42343 0
M  V30 30055 C 2768.64 1.89186 -0.0228543 0
M  V30 30056 O 2767.98 1.56328 0.964746 0
M  V30 30057 C 2768.05 2.79971 -2.25514 0
M  V30 30058 C 2767.71 2.62817 -3.73867 0
M  V30 30059 C 2768.71 2.29744 -4.66384 0
M  V30 30060 C 2766.39 2.78924 -4.1774 0
M  V30 30061 C 2768.39 2.12995 -6.00759 0
M  V30 30062 C 2766.07 2.61793 -5.52185 0
M  V30 30063 C 2767.07 2.28877 -6.43509 0
M  V30 30064 O 2766.76 2.1188 -7.75475 0
M  V30 30065 H 2766.49 0.468504 -0.487319 0
M  V30 30066 H 2769.05 0.883635 -1.85421 0
M  V30 30067 H 2767.28 3.43698 -1.77224 0
M  V30 30068 H 2768.96 3.4171 -2.19064 0
M  V30 30069 H 2769.73 2.16929 -4.33782 0
M  V30 30070 H 2765.61 3.03531 -3.46972 0
M  V30 30071 H 2769.15 1.87226 -6.72006 0
M  V30 30072 H 2765.05 2.74194 -5.8437 0
M  V30 30073 H 2765.82 2.26761 -7.86462 0
M  V30 30074 N 2768.48 1.26254 0.943277 0
M  V30 30075 C 2769.41 1.10125 2.059 0
M  V30 30076 C 2770.39 0.00703542 1.70099 0
M  V30 30077 O 2771.58 0.178675 1.93376 0
M  V30 30078 C 2768.71 0.731235 3.39515 0
M  V30 30079 C 2767.66 1.77695 3.89369 0
M  V30 30080 C 2766.99 1.26131 5.1961 0
M  V30 30081 C 2768.29 3.17806 4.14484 0
M  V30 30082 H 2769.98 2.03454 2.19651 0
M  V30 30083 H 2767.53 0.979594 1.05546 0
M  V30 30084 H 2769.48 0.605288 4.1703 0
M  V30 30085 H 2768.2 -0.237763 3.25733 0
M  V30 30086 H 2766.86 1.89153 3.14033 0
M  V30 30087 H 2766.51 0.282216 5.02208 0
M  V30 30088 H 2766.21 1.96032 5.53936 0
M  V30 30089 H 2767.74 1.14799 5.99711 0
M  V30 30090 H 2769.15 3.09437 4.8262 0
M  V30 30091 H 2767.55 3.85279 4.60087 0
M  V30 30092 H 2768.62 3.64019 3.2034 0
M  V30 30093 N 2769.96 -1.14755 1.08024 0
M  V30 30094 C 2771.21 -1.85335 0.805946 0
M  V30 30095 C 2771.53 -1.83124 -0.67013 0
M  V30 30096 O 2770.8 -1.27693 -1.48565 0
M  V30 30097 H 2769.38 -0.686218 0.29515 0
M  V30 30098 H 2772.04 -1.39078 1.36541 0
M  V30 30099 H 2771.14 -2.90275 1.1466 0
M  V30 30100 N 2771.44 -0.865331 -1.31719 0
M  V30 30101 C 2772.85 -0.527158 -1.79103 0
M  V30 30102 C 2773.2 0.955665 -1.71352 0
M  V30 30103 O 2772.32 1.74596 -1.27848 0
M  V30 30104 C 2772.92 -0.950118 -3.25205 0
M  V30 30105 C 2771.48 -0.663676 -3.70503 0
M  V30 30106 C 2770.63 -1.14399 -2.52603 0
M  V30 30107 H 2773.58 -1.0515 -1.18866 0
M  V30 30108 H 2773.6 -0.270872 -3.79535 0
M  V30 30109 H 2773.11 -2.02937 -3.30814 0
M  V30 30110 H 2771.21 0.404409 -3.70399 0
M  V30 30111 H 2771.32 -1.23745 -4.62843 0
M  V30 30112 H 2769.69 -0.563903 -2.48379 0
M  V30 30113 H 2770.47 -2.23057 -2.6096 0
M  V30 30114 N 2772.92 1.44707 -0.624311 0
M  V30 30115 C 2773.88 2.29078 0.0749235 0
M  V30 30116 C 2774.88 1.40674 0.77894 0
M  V30 30117 O 2776.07 1.62619 0.624563 0
M  V30 30118 C 2773.2 3.22095 1.11657 0
M  V30 30119 H 2774.39 2.92387 -0.667064 0
M  V30 30120 H 2771.95 1.51506 -0.384125 0
M  V30 30121 H 2772.68 2.63621 1.88877 0
M  V30 30122 H 2772.47 3.87235 0.615762 0
M  V30 30123 H 2773.96 3.85492 1.60578 0
M  V30 30124 N 2774.39 0.364449 1.53328 0
M  V30 30125 C 2775.64 -0.226712 2.00422 0
M  V30 30126 C 2775.96 -1.49961 1.25583 0
M  V30 30127 O 2777.16 -2.1693 1.6326 0
M  V30 30128 C 2775.62 -0.454555 3.57018 0
M  V30 30129 C 2775.23 0.803645 4.40733 0
M  V30 30130 C 2776.97 -1.00343 4.1247 0
M  V30 30131 C 2774.88 0.545449 5.88879 0
M  V30 30132 H 2773.81 -0.0884951 0.748789 0
M  V30 30133 H 2776.46 0.483014 1.77029 0
M  V30 30134 H 2774.84 -1.22551 3.7656 0
M  V30 30135 H 2776.01 1.57731 4.32964 0
M  V30 30136 H 2774.33 1.27566 3.96378 0
M  V30 30137 H 2776.93 -1.21191 5.20785 0
M  V30 30138 H 2777.27 -1.96523 3.66994 0
M  V30 30139 H 2777.8 -0.29267 3.96722 0
M  V30 30140 H 2774.54 1.47755 6.3863 0
M  V30 30141 H 2774.06 -0.189737 5.995 0
M  V30 30142 H 2775.74 0.170538 6.46775 0
M  V30 30143 N 2775.87 -1.57322 0.0935872 0
M  V30 30144 C 2777.1 -1.99058 -0.582289 0
M  V30 30145 C 2777.52 -0.97227 -1.61023 0
M  V30 30146 O 2776.88 0.0594303 -1.81203 0
M  V30 30147 C 2776.93 -3.39767 -1.20793 0
M  V30 30148 O 2776.03 -3.40698 -2.32376 0
M  V30 30149 H 2775.37 -0.647325 -0.147872 0
M  V30 30150 H 2777.9 -2.03854 0.174552 0
M  V30 30151 H 2777.91 -3.77428 -1.54959 0
M  V30 30152 H 2776.59 -4.13405 -0.454841 0
M  V30 30153 H 2775.16 -3.14831 -1.9984 0
M  V30 30154 N 2777.35 0.180099 -1.56568 0
M  V30 30155 C 2778.57 0.918008 -1.85977 0
M  V30 30156 C 2779 1.7542 -0.678919 0
M  V30 30157 O 2778.36 1.7744 0.372137 0
M  V30 30158 C 2778.41 1.77773 -3.13734 0
M  V30 30159 O 2777.51 2.87833 -2.9534 0
M  V30 30160 H 2776.85 0.257672 -0.611965 0
M  V30 30161 H 2779.38 0.180888 -2.03799 0
M  V30 30162 H 2779.39 2.17941 -3.44914 0
M  V30 30163 H 2778.07 1.16345 -3.99295 0
M  V30 30164 H 2776.64 2.51311 -2.75494 0
M  V30 30165 N 2778.83 1.51088 0.448349 0
M  V30 30166 C 2780.08 1.62888 1.19632 0
M  V30 30167 C 2780.4 0.342058 1.91976 0
M  V30 30168 O 2779.67 -0.641604 1.85095 0
M  V30 30169 H 2778.25 0.600292 0.444587 0
M  V30 30170 H 2780.91 1.8797 0.515105 0
M  V30 30171 H 2780 2.4512 1.9319 0
M  V30 30172 N 2780.31 -0.703068 1.41049 0
M  V30 30173 C 2781.27 -1.79882 1.42039 0
M  V30 30174 C 2782.27 -1.57741 0.312181 0
M  V30 30175 O 2783.46 -1.64552 0.571701 0
M  V30 30176 C 2780.59 -3.18152 1.22443 0
M  V30 30177 H 2781.78 -1.80398 2.39575 0
M  V30 30178 H 2779.34 -0.909955 1.27081 0
M  V30 30179 H 2780.07 -3.23279 0.257169 0
M  V30 30180 H 2779.86 -3.35624 2.02729 0
M  V30 30181 H 2781.35 -3.98153 1.25953 0
M  V30 30182 N 2781.78 -1.26752 -0.936569 0
M  V30 30183 C 2783.03 -1.11956 -1.67776 0
M  V30 30184 C 2783.35 0.335856 -1.92695 0
M  V30 30185 O 2784.55 0.604571 -2.64683 0
M  V30 30186 C 2783.01 -1.95557 -3.02135 0
M  V30 30187 C 2782.62 -3.45702 -2.84946 0
M  V30 30188 C 2784.36 -1.89383 -3.79913 0
M  V30 30189 C 2782.27 -4.21532 -4.14807 0
M  V30 30190 H 2781.2 -0.415377 -0.629268 0
M  V30 30191 H 2783.85 -1.511 -1.0412 0
M  V30 30192 H 2782.23 -1.4925 -3.66798 0
M  V30 30193 H 2783.4 -3.99809 -2.29105 0
M  V30 30194 H 2781.72 -3.5316 -2.20606 0
M  V30 30195 H 2784.32 -2.4332 -4.76129 0
M  V30 30196 H 2784.66 -0.865536 -4.07203 0
M  V30 30197 H 2785.19 -2.33538 -3.22032 0
M  V30 30198 H 2781.93 -5.2485 -3.927 0
M  V30 30199 H 2781.45 -3.72204 -4.70345 0
M  V30 30200 H 2783.13 -4.30229 -4.83231 0
M  V30 30201 N 2783.26 1.1418 -1.08631 0
M  V30 30202 C 2784.49 1.88855 -0.837706 0
M  V30 30203 C 2784.9 1.7896 0.613992 0
M  V30 30204 O 2784.24 1.14836 1.43382 0
M  V30 30205 C 2784.31 3.39457 -1.18361 0
M  V30 30206 C 2783.97 3.73135 -2.63855 0
M  V30 30207 C 2784.97 3.73062 -3.62106 0
M  V30 30208 C 2782.65 4.03044 -2.99768 0
M  V30 30209 C 2784.65 4.02426 -4.94299 0
M  V30 30210 C 2782.33 4.32071 -4.32155 0
M  V30 30211 C 2783.33 4.31746 -5.2923 0
M  V30 30212 O 2783.02 4.60067 -6.59237 0
M  V30 30213 H 2782.75 0.604981 -0.30162 0
M  V30 30214 H 2785.3 1.45516 -1.44963 0
M  V30 30215 H 2783.53 3.83259 -0.514696 0
M  V30 30216 H 2785.22 3.95442 -0.91546 0
M  V30 30217 H 2785.99 3.5004 -3.35704 0
M  V30 30218 H 2781.87 4.02449 -2.24847 0
M  V30 30219 H 2785.41 4.02088 -5.70062 0
M  V30 30220 H 2781.31 4.54563 -4.58304 0
M  V30 30221 H 2782.08 4.77773 -6.64586 0
M  V30 30222 N 2784.74 0.872304 1.31258 0
M  V30 30223 C 2785.67 0.345595 2.30928 0
M  V30 30224 C 2786.65 -0.564772 1.6045 0
M  V30 30225 O 2787.84 -0.481301 1.88141 0
M  V30 30226 C 2784.97 -0.451762 3.44349 0
M  V30 30227 C 2783.92 0.365716 4.26435 0
M  V30 30228 C 2783.25 -0.557469 5.31786 0
M  V30 30229 C 2784.55 1.60104 4.97156 0
M  V30 30230 H 2786.24 1.17846 2.75232 0
M  V30 30231 H 2783.79 0.568117 1.32319 0
M  V30 30232 H 2785.74 -0.830782 4.13129 0
M  V30 30233 H 2784.46 -1.31816 2.98818 0
M  V30 30234 H 2783.12 0.726712 3.59325 0
M  V30 30235 H 2782.77 -1.42121 4.82505 0
M  V30 30236 H 2782.47 -0.0143845 5.87598 0
M  V30 30237 H 2783.99 -0.933281 6.03425 0
M  V30 30238 H 2785.41 1.29333 5.58521 0
M  V30 30239 H 2783.81 2.08337 5.62775 0
M  V30 30240 H 2784.88 2.35257 4.24007 0
M  V30 30241 N 2786.22 -1.44374 0.631976 0
M  V30 30242 C 2787.18 -2.29114 -0.0627739 0
M  V30 30243 C 2788.18 -1.41085 -0.771469 0
M  V30 30244 O 2789.37 -1.62948 -0.61593 0
M  V30 30245 C 2786.5 -3.22683 -1.09947 0
M  V30 30246 H 2787.7 -2.92029 0.682561 0
M  V30 30247 H 2785.25 -1.513 0.392154 0
M  V30 30248 H 2785.98 -2.64619 -1.87476 0
M  V30 30249 H 2785.77 -3.87556 -0.595218 0
M  V30 30250 H 2787.26 -3.86339 -1.58532 0
M  V30 30251 N 2787.7 -0.372575 -1.53133 0
M  V30 30252 C 2788.92 0.218062 -2.0625 0
M  V30 30253 C 2789.35 1.41109 -1.24378 0
M  V30 30254 O 2788.7 1.79359 -0.264585 0
M  V30 30255 C 2788.75 0.582814 -3.55859 0
M  V30 30256 O 2787.86 1.6791 -3.7667 0
M  V30 30257 H 2787.2 0.0300924 -0.663318 0
M  V30 30258 H 2789.73 -0.535204 -1.97476 0
M  V30 30259 H 2789.74 0.851855 -3.99008 0
M  V30 30260 H 2788.41 -0.289501 -4.14891 0
M  V30 30261 H 2786.99 1.40507 -3.45416 0
M  V30 30262 N 2789.17 1.5727 -0.101929 0
M  V30 30263 C 2790.4 1.99364 0.571724 0
M  V30 30264 C 2790.82 0.980796 1.60505 0
M  V30 30265 O 2790.18 -0.0498199 1.81232 0
M  V30 30266 C 2790.23 3.40402 1.1899 0
M  V30 30267 O 2789.33 3.41926 2.30566 0
M  V30 30268 H 2788.68 0.6481 0.144437 0
M  V30 30269 H 2791.21 2.03759 -0.185361 0
M  V30 30270 H 2791.22 3.78244 1.52955 0
M  V30 30271 H 2789.89 4.13641 0.432911 0
M  V30 30272 H 2788.47 3.15886 1.98167 0
M  V30 30273 N 2790.65 -0.171793 1.56661 0
M  V30 30274 C 2791.88 -0.902772 1.85832 0
M  V30 30275 C 2792.29 -1.76357 0.685188 0
M  V30 30276 O 2791.63 -1.80239 -0.354915 0
M  V30 30277 C 2791.7 -1.83047 3.09409 0
M  V30 30278 C 2791.36 -1.14932 4.42312 0
M  V30 30279 C 2792.36 -0.515013 5.17343 0
M  V30 30280 C 2790.04 -1.14622 4.89047 0
M  V30 30281 C 2792.04 0.113306 6.37299 0
M  V30 30282 C 2789.72 -0.514077 6.08934 0
M  V30 30283 C 2790.72 0.114584 6.82904 0
M  V30 30284 O 2790.41 0.736762 8.00517 0
M  V30 30285 H 2790.14 -0.267737 0.62072 0
M  V30 30286 H 2792.69 -0.176882 2.04637 0
M  V30 30287 H 2790.92 -2.59667 2.86549 0
M  V30 30288 H 2792.61 -2.43125 3.25031 0
M  V30 30289 H 2793.38 -0.509389 4.82318 0
M  V30 30290 H 2789.26 -1.62495 4.31412 0
M  V30 30291 H 2792.8 0.604599 6.94975 0
M  V30 30292 H 2788.7 -0.517282 6.43424 0
M  V30 30293 H 2789.47 0.635965 8.16026 0
M  V30 30294 N 2792.13 -1.51324 -0.44033 0
M  V30 30295 C 2793.06 -1.68612 -1.55251 0
M  V30 30296 C 2794.08 -0.566839 -1.52613 0
M  V30 30297 O 2795.26 -0.841059 -1.57443 0
M  V30 30298 C 2792.36 -1.68284 -2.94166 0
M  V30 30299 C 2791.54 -2.96747 -3.21341 0
M  V30 30300 C 2790.6 -2.88647 -4.39965 0
M  V30 30301 O 2789.62 -3.62593 -4.38765 0
M  V30 30302 N 2790.82 -2.04294 -5.43364 0
M  V30 30303 H 2793.59 -2.64553 -1.40826 0
M  V30 30304 H 2791.15 -1.49172 -0.629225 0
M  V30 30305 H 2793.14 -1.60437 -3.7154 0
M  V30 30306 H 2791.71 -0.799494 -3.02203 0
M  V30 30307 H 2790.93 -3.18486 -2.32294 0
M  V30 30308 H 2792.22 -3.81791 -3.36323 0
M  V30 30309 H 2791.62 -1.43587 -5.47174 0
M  V30 30310 H 2790.18 -2.02329 -6.19602 0
M  V30 30311 N 2793.61 0.695578 -1.41419 0
M  V30 30312 C 2794.89 1.45012 -1.31266 0
M  V30 30313 C 2795.27 2.11015 0.0597623 0
M  V30 30314 O 2794.61 2.01687 1.074 0
M  V30 30315 C 2794.82 2.46956 -2.46605 0
M  V30 30316 C 2796.17 3.12209 -2.87769 0
M  V30 30317 O 2797.2 2.5728 -2.46344 0
M  V30 30318 O 2796.05 4.11694 -3.59402 0
M  V30 30319 H 2793.15 0.645807 -0.516587 0
M  V30 30320 H 2795.69 0.726057 -1.53383 0
M  V30 30321 H 2794.47 1.96839 -3.38187 0
M  V30 30322 H 2794.09 3.26872 -2.26364 0
M  V30 30323 N 2795.09 1.27247 0.929833 0
M  V30 30324 C 2796.03 1.09788 2.03015 0
M  V30 30325 C 2797 -0.000427548 1.661 0
M  V30 30326 O 2798.19 0.161495 1.90115 0
M  V30 30327 C 2795.33 0.748875 3.36877 0
M  V30 30328 C 2794.44 1.9246 3.8676 0
M  V30 30329 C 2793.58 1.51767 5.09058 0
M  V30 30330 C 2792.62 2.66101 5.51232 0
M  V30 30331 N 2791.75 2.26011 6.64728 0
M  V30 30332 H 2796.59 2.03943 2.17282 0
M  V30 30333 H 2794.13 1.01526 1.06447 0
M  V30 30334 H 2796.09 0.527356 4.13854 0
M  V30 30335 H 2794.72 -0.155714 3.22424 0
M  V30 30336 H 2793.77 2.25872 3.06082 0
M  V30 30337 H 2795.08 2.78235 4.13989 0
M  V30 30338 H 2794.24 1.25726 5.9353 0
M  V30 30339 H 2792.98 0.630981 4.83601 0
M  V30 30340 H 2791.98 2.92857 4.65311 0
M  V30 30341 H 2793.21 3.55387 5.78686 0
M  V30 30342 H 2791.15 1.39791 6.40933 0
M  V30 30343 H 2791.07 3.05325 6.91601 0
M  V30 30344 H 2792.34 2.03212 7.52546 0
M  V30 30345 N 2796.57 -1.13603 1.09235 0
M  V30 30346 C 2797.5 -2.21067 0.751776 0
M  V30 30347 C 2798.48 -1.67949 -0.269659 0
M  V30 30348 O 2799.66 -1.93708 -0.138156 0
M  V30 30349 C 2796.79 -3.46887 0.169411 0
M  V30 30350 C 2795.75 -4.13082 1.12014 0
M  V30 30351 C 2795.07 -5.33205 0.399577 0
M  V30 30352 C 2796.37 -4.60646 2.46176 0
M  V30 30353 H 2798.07 -2.49812 1.65029 0
M  V30 30354 H 2795.61 -1.20071 0.794926 0
M  V30 30355 H 2797.56 -4.21322 -0.0809084 0
M  V30 30356 H 2796.29 -3.17532 -0.76428 0
M  V30 30357 H 2794.95 -3.40612 1.3557 0
M  V30 30358 H 2794.6 -5.00113 -0.538189 0
M  V30 30359 H 2794.3 -5.7844 1.03347 0
M  V30 30360 H 2795.82 -6.10397 0.157511 0
M  V30 30361 H 2797.23 -5.26514 2.26838 0
M  V30 30362 H 2795.63 -5.16614 3.05335 0
M  V30 30363 H 2796.7 -3.75271 3.07083 0
M  V30 30364 N 2798.04 -0.879253 -1.30793 0
M  V30 30365 C 2799.46 -0.572456 -1.4898 0
M  V30 30366 C 2799.66 0.891204 -1.8072 0
M  V30 30367 O 2798.72 1.6728 -1.89139 0
M  V30 30368 C 2800.03 -1.48067 -2.61718 0
M  V30 30369 C 2801.58 -1.4837 -2.756 0
M  V30 30370 C 2802.05 -2.3777 -3.91445 0
M  V30 30371 N 2803.54 -2.35702 -3.98747 0
M  V30 30372 C 2804.28 -3.01591 -4.87678 0
M  V30 30373 N 2803.77 -3.76685 -5.81447 0
M  V30 30374 N 2805.57 -2.90852 -4.81 0
M  V30 30375 H 2797.72 -1.82619 -1.08462 0
M  V30 30376 H 2799.98 -0.781378 -0.536799 0
M  V30 30377 H 2799.69 -2.52259 -2.45068 0
M  V30 30378 H 2799.56 -1.18603 -3.58069 0
M  V30 30379 H 2801.95 -0.449321 -2.91659 0
M  V30 30380 H 2802.03 -1.81862 -1.79888 0
M  V30 30381 H 2801.67 -3.4129 -3.76143 0
M  V30 30382 H 2801.6 -2.01597 -4.86483 0
M  V30 30383 H 2804.09 -1.81127 -3.31665 0
M  V30 30384 H 2804.41 -4.24066 -6.46056 0
M  V30 30385 H 2802.75 -3.80792 -5.81397 0
M  V30 30386 H 2805.94 -2.31718 -4.06724 0
M  V30 30387 H 2806.12 -3.4248 -5.50101 0
M  V30 30388 N 2799.52 1.44037 -0.639624 0
M  V30 30389 C 2800.77 2.02261 -0.147734 0
M  V30 30390 C 2801.1 1.50258 1.23029 0
M  V30 30391 O 2800.38 0.6901 1.81846 0
M  V30 30392 C 2800.66 3.59813 -0.143683 0
M  V30 30393 C 2800.51 4.22079 -1.55465 0
M  V30 30394 C 2801.83 4.3693 0.52724 0
M  V30 30395 H 2798.95 0.734933 -0.0551582 0
M  V30 30396 H 2801.59 1.71503 -0.817718 0
M  V30 30397 H 2799.74 3.86148 0.42683 0
M  V30 30398 H 2801.41 4.06822 -2.17471 0
M  V30 30399 H 2799.66 3.79249 -2.10601 0
M  V30 30400 H 2800.33 5.31122 -1.50378 0
M  V30 30401 H 2802.8 4.16079 0.0419772 0
M  V30 30402 H 2801.68 5.46624 0.499293 0
M  V30 30403 H 2801.94 4.12168 1.59907 0
M  V30 30404 N 2801 0.380691 1.52933 0
M  V30 30405 C 2802.25 -0.205442 2.00651 0
M  V30 30406 C 2802.56 -1.4862 1.27167 0
M  V30 30407 O 2803.77 -2.15186 1.65551 0
M  V30 30408 C 2802.22 -0.416663 3.5748 0
M  V30 30409 C 2801.83 0.850346 4.39856 0
M  V30 30410 C 2803.58 -0.959629 4.13511 0
M  V30 30411 C 2801.48 0.607877 5.88268 0
M  V30 30412 H 2800.41 -0.0805482 0.749685 0
M  V30 30413 H 2803.06 0.501763 1.76507 0
M  V30 30414 H 2801.45 -1.1855 3.77838 0
M  V30 30415 H 2802.62 1.62314 4.31266 0
M  V30 30416 H 2800.93 1.31763 3.95003 0
M  V30 30417 H 2803.53 -1.1566 5.22041 0
M  V30 30418 H 2803.87 -1.9262 3.69057 0
M  V30 30419 H 2804.41 -0.250576 3.9701 0
M  V30 30420 H 2801.15 1.5452 6.37027 0
M  V30 30421 H 2800.67 -0.126141 5.99667 0
M  V30 30422 H 2802.35 0.239128 6.46558 0
M  V30 30423 N 2802.48 -1.57214 0.110268 0
M  V30 30424 C 2803.72 -1.96776 -0.553027 0
M  V30 30425 C 2804.08 -0.991782 -1.64401 0
M  V30 30426 O 2805.28 -1.27646 -2.36558 0
M  V30 30427 C 2803.55 -3.40692 -1.07998 0
M  V30 30428 S 2805.11 -4.02262 -1.75302 0
M  V30 30429 H 2801.93 -0.687833 -0.180018 0
M  V30 30430 H 2804.53 -1.94542 0.193276 0
M  V30 30431 H 2803.24 -4.0948 -0.274663 0
M  V30 30432 H 2802.77 -3.46557 -1.86176 0
M  V30 30433 H 2804.78 -3.92306 -3.03827 0
M  V30 30434 N 2803.96 0.163482 -1.5675 0
M  V30 30435 C 2805.2 0.885238 -1.84236 0
M  V30 30436 C 2805.56 1.79085 -0.692291 0
M  V30 30437 O 2806.76 2.5508 -0.847792 0
M  V30 30438 C 2805.03 1.65331 -3.1686 0
M  V30 30439 S 2806.59 2.42276 -3.65852 0
M  V30 30440 H 2803.41 0.296343 -0.646299 0
M  V30 30441 H 2806.01 0.146331 -1.94952 0
M  V30 30442 H 2804.71 0.979196 -3.98547 0
M  V30 30443 H 2804.25 2.43345 -3.09107 0
M  V30 30444 H 2806.26 3.67138 -3.33803 0
M  V30 30445 N 2805.43 1.51555 0.432299 0
M  V30 30446 C 2806.38 1.73233 1.52509 0
M  V30 30447 C 2807.35 0.574127 1.55862 0
M  V30 30448 O 2808.54 0.809123 1.72794 0
M  V30 30449 C 2805.68 1.86788 2.90179 0
M  V30 30450 C 2804.79 3.14358 2.96316 0
M  V30 30451 C 2803.92 3.18479 4.25141 0
M  V30 30452 C 2802.96 4.40343 4.25164 0
M  V30 30453 N 2802.1 4.41985 5.45522 0
M  V30 30454 H 2806.94 2.66511 1.33327 0
M  V30 30455 H 2804.48 1.32078 0.647589 0
M  V30 30456 H 2806.43 1.9263 3.70067 0
M  V30 30457 H 2805.06 0.969141 3.07908 0
M  V30 30458 H 2804.12 3.17801 2.09061 0
M  V30 30459 H 2805.43 4.04256 2.92196 0
M  V30 30460 H 2804.58 3.23264 5.13406 0
M  V30 30461 H 2803.32 2.26478 4.31925 0
M  V30 30462 H 2802.33 4.35729 3.35292 0
M  V30 30463 H 2803.55 5.33614 4.2004 0
M  V30 30464 H 2801.5 3.52856 5.53018 0
M  V30 30465 H 2801.41 5.25699 5.43302 0
M  V30 30466 H 2802.68 4.50969 6.35804 0
M  V30 30467 N 2806.91 -0.688069 1.41786 0
M  V30 30468 C 2808.16 -1.44527 1.41267 0
M  V30 30469 C 2808.48 -1.94984 0.0253289 0
M  V30 30470 O 2807.75 -1.72198 -0.934051 0
M  V30 30471 H 2806.33 -0.536285 0.520007 0
M  V30 30472 H 2808.99 -0.81391 1.77092 0
M  V30 30473 H 2808.09 -2.30478 2.10443 0
M  V30 30474 N 2808.39 -1.27739 -0.923072 0
M  V30 30475 C 2809.34 -1.10706 -2.04565 0
M  V30 30476 C 2810.33 -0.0288743 -1.69375 0
M  V30 30477 O 2811.54 -0.186945 -1.79027 0
M  V30 30478 H 2807.91 -0.341272 -0.670103 0
M  V30 30479 H 2809.88 -2.058 -2.16076 0
M  V30 30480 C 2808.63 -0.775896 -3.38932 0
M  V30 30481 H 2807.96 -1.59747 -3.66498 0
M  V30 30482 H 2809.4 -0.696622 -4.18238 0
M  V30 30483 C 2807.85 0.519954 -3.32863 0
M  V30 30484 O 2808.38 1.55302 -3.70465 0
M  V30 30485 N 2806.59 0.517269 -2.85959 0
M  V30 30486 H 2806.14 -0.323835 -2.55556 0
M  V30 30487 H 2806.1 1.38436 -2.82281 0
M  V30 30488 N 2809.87 1.13022 -1.09836 0
M  V30 30489 C 2810.8 2.20665 -0.76349 0
M  V30 30490 C 2811.78 1.6809 0.260748 0
M  V30 30491 O 2812.96 1.93778 0.127881 0
M  V30 30492 C 2810.09 3.46792 -0.187805 0
M  V30 30493 C 2809.05 4.12482 -1.14203 0
M  V30 30494 C 2808.37 5.32986 -0.427849 0
M  V30 30495 C 2809.67 4.59334 -2.48615 0
M  V30 30496 H 2811.37 2.48933 -1.66351 0
M  V30 30497 H 2808.91 1.19647 -0.801282 0
M  V30 30498 H 2810.87 4.21359 0.0585635 0
M  V30 30499 H 2809.59 3.17932 0.747429 0
M  V30 30500 H 2808.25 3.39888 -1.37375 0
M  V30 30501 H 2807.9 5.00391 0.511659 0
M  V30 30502 H 2807.6 5.77884 -1.06413 0
M  V30 30503 H 2809.12 6.10305 -0.189879 0
M  V30 30504 H 2810.54 5.25304 -2.29628 0
M  V30 30505 H 2808.93 5.14988 -3.08071 0
M  V30 30506 H 2810 3.73637 -3.09069 0
M  V30 30507 N 2811.35 0.886177 1.30325 0
M  V30 30508 C 2812.59 0.505975 1.96387 0
M  V30 30509 C 2812.93 -0.942682 1.69786 0
M  V30 30510 O 2812.2 -1.66629 1.00325 0
M  V30 30511 C 2812.48 0.782887 3.51487 0
M  V30 30512 C 2812.34 2.28226 3.87599 0
M  V30 30513 C 2813.66 0.260205 4.3933 0
M  V30 30514 H 2810.77 0.185305 0.713324 0
M  V30 30515 H 2813.42 1.11039 1.54176 0
M  V30 30516 H 2811.57 0.268467 3.87571 0
M  V30 30517 H 2813.24 2.86518 3.61532 0
M  V30 30518 H 2811.48 2.74843 3.35625 0
M  V30 30519 H 2812.15 2.42662 4.95802 0
M  V30 30520 H 2814.63 0.700517 4.10161 0
M  V30 30521 H 2813.5 0.483276 5.46768 0
M  V30 30522 H 2813.77 -0.838598 4.34074 0
M  V30 30523 N 2812.82 -1.43695 0.647253 0
M  V30 30524 C 2813.77 -2.3075 -0.0479687 0
M  V30 30525 C 2814.74 -1.44409 -0.82068 0
M  V30 30526 O 2815.93 -1.73288 -0.798484 0
M  V30 30527 C 2813.07 -3.29912 -1.01254 0
M  V30 30528 C 2812.18 -4.31352 -0.236553 0
M  V30 30529 C 2811.31 -5.17598 -1.19438 0
M  V30 30530 C 2810.35 -6.10735 -0.408488 0
M  V30 30531 N 2809.49 -6.89626 -1.3176 0
M  V30 30532 H 2814.33 -2.89655 0.700289 0
M  V30 30533 H 2811.87 -1.427 0.357107 0
M  V30 30534 H 2813.83 -3.85906 -1.58532 0
M  V30 30535 H 2812.46 -2.7267 -1.72774 0
M  V30 30536 H 2811.51 -3.777 0.45242 0
M  V30 30537 H 2812.82 -4.9739 0.374818 0
M  V30 30538 H 2811.97 -5.78189 -1.83799 0
M  V30 30539 H 2810.71 -4.51672 -1.83967 0
M  V30 30540 H 2809.72 -5.49238 0.248507 0
M  V30 30541 H 2810.94 -6.78703 0.232308 0
M  V30 30542 H 2808.89 -6.26354 -1.9498 0
M  V30 30543 H 2808.81 -7.52164 -0.760647 0
M  V30 30544 H 2810.07 -7.54727 -1.94954 0
M  V30 30545 N 2814.3 -0.388796 -1.52729 0
M  V30 30546 C 2815.21 0.453952 -2.30166 0
M  V30 30547 C 2816.23 1.07194 -1.3706 0
M  V30 30548 O 2817.4 1.07787 -1.70129 0
M  V30 30549 C 2814.47 1.56623 -3.09306 0
M  V30 30550 C 2813.53 0.973393 -4.18119 0
M  V30 30551 C 2812.76 2.03266 -4.93476 0
M  V30 30552 O 2812.99 3.24764 -4.68919 0
M  V30 30553 O 2811.92 1.65024 -5.78836 0
M  V30 30554 H 2815.75 -0.176869 -3.03185 0
M  V30 30555 H 2813.33 -0.152527 -1.48619 0
M  V30 30556 H 2815.21 2.2124 -3.58651 0
M  V30 30557 H 2813.89 2.18202 -2.39101 0
M  V30 30558 H 2812.8 0.290491 -3.7297 0
M  V30 30559 H 2814.13 0.401822 -4.90557 0
M  V30 30560 N 2815.78 1.57153 -0.118604 0
M  V30 30561 C 2817.01 1.99959 0.550547 0
M  V30 30562 C 2817.43 0.997765 1.59456 0
M  V30 30563 O 2816.79 -0.0305951 1.81274 0
M  V30 30564 C 2816.84 3.41645 1.15373 0
M  V30 30565 O 2815.94 3.44352 2.26926 0
M  V30 30566 H 2815.28 0.649596 0.137555 0
M  V30 30567 H 2817.81 2.03551 -0.206961 0
M  V30 30568 H 2817.82 3.79845 1.48935 0
M  V30 30569 H 2816.5 4.14077 0.389014 0
M  V30 30570 H 2815.07 3.1797 1.94806 0
M  V30 30571 N 2817.26 -0.155167 1.56834 0
M  V30 30572 C 2818.51 -0.86743 1.82538 0
M  V30 30573 C 2818.83 -1.82072 0.6982 0
M  V30 30574 O 2818.1 -1.93877 -0.280773 0
M  V30 30575 H 2816.68 -0.323315 0.673407 0
M  V30 30576 H 2819.34 -0.151122 1.94313 0
M  V30 30577 H 2818.44 -1.43461 2.77174 0
M  V30 30578 N 2818.74 -1.51782 -0.424256 0
M  V30 30579 C 2819.96 -1.68924 -1.19467 0
M  V30 30580 C 2820.38 -0.392162 -1.84682 0
M  V30 30581 O 2819.74 0.630524 -1.71262 0
M  V30 30582 C 2819.79 -2.8142 -2.26904 0
M  V30 30583 O 2819.51 -4.06103 -1.64354 0
M  V30 30584 C 2821.01 -3.09942 -3.1694 0
M  V30 30585 H 2818.23 -0.566518 -0.359581 0
M  V30 30586 H 2820.77 -1.98265 -0.501105 0
M  V30 30587 H 2818.93 -2.5464 -2.91954 0
M  V30 30588 H 2819.34 -4.68678 -2.3546 0
M  V30 30589 H 2820.82 -3.92207 -3.8843 0
M  V30 30590 H 2821.29 -2.22877 -3.78447 0
M  V30 30591 H 2821.9 -3.3843 -2.57575 0
M  V30 30592 N 2820.21 0.68054 -1.42149 0
M  V30 30593 C 2821.12 1.82375 -1.47568 0
M  V30 30594 C 2822.14 1.7013 -0.36492 0
M  V30 30595 O 2823.32 1.91782 -0.61495 0
M  V30 30596 C 2820.38 3.18476 -1.37018 0
M  V30 30597 C 2819.44 3.4272 -2.58538 0
M  V30 30598 C 2818.68 4.72327 -2.48481 0
M  V30 30599 O 2818.9 5.49842 -1.51755 0
M  V30 30600 O 2817.83 4.97688 -3.38512 0
M  V30 30601 H 2821.66 1.8076 -2.44049 0
M  V30 30602 H 2819.24 0.835548 -1.23851 0
M  V30 30603 H 2821.13 3.99703 -1.33475 0
M  V30 30604 H 2819.8 3.20742 -0.436608 0
M  V30 30605 H 2818.71 2.61364 -2.67656 0
M  V30 30606 H 2820.04 3.4528 -3.50775 0
M  V30 30607 N 2821.69 1.28226 0.916285 0
M  V30 30608 C 2822.64 1.08578 2.00487 0
M  V30 30609 C 2823.63 0.0102157 1.60897 0
M  V30 30610 O 2824.82 0.230065 1.75498 0
M  V30 30611 C 2821.95 0.747002 3.35074 0
M  V30 30612 C 2821.03 1.86128 3.81074 0
M  V30 30613 N 2821.42 3.10254 3.9947 0
M  V30 30614 C 2819.72 1.75055 4.10209 0
M  V30 30615 C 2820.42 3.82842 4.37958 0
M  V30 30616 N 2819.4 3.10675 4.46074 0
M  V30 30617 H 2823.2 2.02761 2.12756 0
M  V30 30618 H 2820.72 1.19108 1.10394 0
M  V30 30619 H 2822.71 0.587324 4.12742 0
M  V30 30620 H 2821.37 -0.187089 3.24161 0
M  V30 30621 H 2822.38 3.45892 3.8546 0
M  V30 30622 H 2819.06 0.888071 4.07946 0
M  V30 30623 H 2820.45 4.8958 4.60175 0
M  V30 30624 N 2823.17 -1.12438 1.10433 0
M  V30 30625 C 2824.12 -2.16253 0.722416 0
M  V30 30626 C 2825.1 -1.58646 -0.268399 0
M  V30 30627 O 2826.3 -1.76832 -0.0771379 0
M  V30 30628 C 2823.43 -3.42946 0.155823 0
M  V30 30629 C 2822.51 -4.07536 1.17368 0
M  V30 30630 N 2822.9 -4.47137 2.36437 0
M  V30 30631 C 2821.2 -4.34316 1.0142 0
M  V30 30632 C 2821.9 -4.97607 3.01268 0
M  V30 30633 N 2820.88 -4.93111 2.28786 0
M  V30 30634 H 2824.68 -2.44637 1.6288 0
M  V30 30635 H 2822.19 -1.29342 0.982054 0
M  V30 30636 H 2824.19 -4.16679 -0.135863 0
M  V30 30637 H 2822.85 -3.16031 -0.745283 0
M  V30 30638 H 2823.86 -4.39506 2.73962 0
M  V30 30639 H 2820.54 -4.17159 0.168647 0
M  V30 30640 H 2821.93 -5.37961 4.02551 0
M  V30 30641 N 2824.65 -0.893076 -1.29853 0
M  V30 30642 C 2826.07 -0.588225 -1.48365 0
M  V30 30643 C 2826.27 0.871986 -1.81655 0
M  V30 30644 O 2825.32 1.65265 -1.90903 0
M  V30 30645 C 2826.63 -1.50835 -2.60133 0
M  V30 30646 C 2828.18 -1.51284 -2.74011 0
M  V30 30647 C 2828.66 -2.41909 -3.88901 0
M  V30 30648 N 2830.15 -2.39918 -3.96224 0
M  V30 30649 C 2830.88 -3.06747 -4.84452 0
M  V30 30650 N 2830.38 -3.8283 -5.77419 0
M  V30 30651 N 2832.17 -2.95938 -4.77888 0
M  V30 30652 H 2824.32 -1.83759 -1.06519 0
M  V30 30653 H 2826.59 -0.787027 -0.528481 0
M  V30 30654 H 2826.29 -2.54844 -2.42379 0
M  V30 30655 H 2826.17 -1.22394 -3.56791 0
M  V30 30656 H 2828.55 -0.48023 -2.91166 0
M  V30 30657 H 2828.63 -1.8376 -1.77949 0
M  V30 30658 H 2828.28 -3.4526 -3.72502 0
M  V30 30659 H 2828.21 -2.06746 -4.84318 0
M  V30 30660 H 2830.7 -1.84634 -3.29725 0
M  V30 30661 H 2831.01 -4.30894 -6.41522 0
M  V30 30662 H 2829.36 -3.86938 -5.77325 0
M  V30 30663 H 2832.55 -2.36019 -4.04244 0
M  V30 30664 H 2832.72 -3.48296 -5.46438 0
M  V30 30665 N 2826.13 1.4335 -0.654865 0
M  V30 30666 C 2827.38 2.01396 -0.168594 0
M  V30 30667 C 2827.7 1.51935 1.22232 0
M  V30 30668 O 2826.97 0.732659 1.81684 0
M  V30 30669 H 2825.55 0.74464 -0.0593375 0
M  V30 30670 H 2828.21 1.75538 -0.846902 0
M  V30 30671 H 2827.3 3.11717 -0.154483 0
M  V30 30672 N 2827.61 0.39689 1.52521 0
M  V30 30673 C 2829.02 -0.075454 1.86547 0
M  V30 30674 C 2829.37 -1.45498 1.31623 0
M  V30 30675 O 2828.49 -2.06388 0.6506 0
M  V30 30676 C 2829.09 -0.143695 3.38495 0
M  V30 30677 C 2827.65 -0.560347 3.72206 0
M  V30 30678 C 2826.79 0.272904 2.75954 0
M  V30 30679 H 2829.74 0.61446 1.46322 0
M  V30 30680 H 2829.77 -0.961361 3.68155 0
M  V30 30681 H 2829.28 0.860482 3.78441 0
M  V30 30682 H 2827.38 -1.57161 3.37833 0
M  V30 30683 H 2827.49 -0.31323 4.78075 0
M  V30 30684 H 2825.86 -0.262956 2.53339 0
M  V30 30685 H 2826.64 1.2752 3.18737 0
M  V30 30686 N 2829.08 -1.57088 0.126936 0
M  V30 30687 C 2830.31 -2.00249 -0.539935 0
M  V30 30688 C 2830.73 -1.00621 -1.58925 0
M  V30 30689 O 2830.09 0.0209812 -1.81288 0
M  V30 30690 C 2830.14 -3.42252 -1.13559 0
M  V30 30691 O 2829.24 -3.45551 -2.25097 0
M  V30 30692 H 2828.58 -0.650316 -0.134108 0
M  V30 30693 H 2831.11 -2.03438 0.217753 0
M  V30 30694 H 2831.12 -3.8063 -1.46919 0
M  V30 30695 H 2829.8 -4.14277 -0.367049 0
M  V30 30696 H 2828.38 -3.18999 -1.93117 0
M  V30 30697 N 2830.56 0.146848 -1.56914 0
M  V30 30698 C 2831.79 0.874361 -1.87517 0
M  V30 30699 C 2832.2 1.74731 -0.715147 0
M  V30 30700 O 2831.56 1.7976 0.315081 0
M  V30 30701 C 2831.61 1.73094 -3.17365 0
M  V30 30702 O 2831.33 0.89317 -4.28899 0
M  V30 30703 C 2832.83 2.56602 -3.61483 0
M  V30 30704 H 2830.05 0.252816 -0.62155 0
M  V30 30705 H 2832.6 0.139591 -2.04023 0
M  V30 30706 H 2830.75 2.41877 -3.02612 0
M  V30 30707 H 2831.17 1.48128 -5.03148 0
M  V30 30708 H 2832.64 3.12281 -4.55176 0
M  V30 30709 H 2833.12 3.32647 -2.86779 0
M  V30 30710 H 2833.72 1.9311 -3.78931 0
M  V30 30711 N 2832.04 1.52005 0.4162 0
M  V30 30712 C 2833.26 1.69846 1.19026 0
M  V30 30713 C 2833.69 0.404136 1.83707 0
M  V30 30714 O 2833.05 -0.637757 1.69713 0
M  V30 30715 C 2833.1 2.83036 2.23434 0
M  V30 30716 O 2832.2 2.48112 3.29415 0
M  V30 30717 H 2831.54 0.56564 0.347775 0
M  V30 30718 H 2834.07 1.98674 0.488836 0
M  V30 30719 H 2834.08 3.07742 2.67879 0
M  V30 30720 H 2832.76 3.76947 1.75738 0
M  V30 30721 H 2831.33 2.34053 2.90299 0
M  V30 30722 N 2833.52 -0.672992 1.42508 0
M  V30 30723 C 2834.93 -0.986333 1.25474 0
M  V30 30724 C 2835.13 -2.00862 0.160217 0
M  V30 30725 O 2834.19 -2.48126 -0.467949 0
M  V30 30726 C 2835.5 -1.48942 2.61222 0
M  V30 30727 C 2837.05 -1.6071 2.68591 0
M  V30 30728 C 2837.53 -2.14414 4.0471 0
M  V30 30729 N 2839.02 -2.21745 4.06674 0
M  V30 30730 C 2839.75 -2.64377 5.08814 0
M  V30 30731 N 2839.25 -3.06449 6.21338 0
M  V30 30732 N 2841.04 -2.64142 4.96171 0
M  V30 30733 H 2833.19 0.00382266 2.124 0
M  V30 30734 H 2835.45 -0.06082 0.946047 0
M  V30 30735 H 2835.16 -0.812752 3.4218 0
M  V30 30736 H 2835.03 -2.46786 2.85266 0
M  V30 30737 H 2837.42 -2.27483 1.87978 0
M  V30 30738 H 2837.5 -0.613509 2.48334 0
M  V30 30739 H 2837.15 -1.4825 4.85782 0
M  V30 30740 H 2837.08 -3.14568 4.22321 0
M  V30 30741 H 2839.57 -1.92084 3.25442 0
M  V30 30742 H 2839.88 -3.37672 6.95124 0
M  V30 30743 H 2838.23 -3.04302 6.2484 0
M  V30 30744 H 2841.42 -2.30637 4.07338 0
M  V30 30745 H 2841.59 -2.97047 5.75906 0
M  V30 30746 N 2835 -1.2871 -0.909472 0
M  V30 30747 C 2836.22 -1.19093 -1.69798 0
M  V30 30748 C 2836.65 0.246355 -1.8648 0
M  V30 30749 O 2836 1.17812 -1.37804 0
M  V30 30750 C 2836.05 -1.89909 -3.0654 0
M  V30 30751 O 2835.16 -1.20947 -3.94266 0
M  V30 30752 H 2834.5 -0.413194 -0.519776 0
M  V30 30753 H 2837.03 -1.70108 -1.13686 0
M  V30 30754 H 2837.04 -1.97983 -3.56745 0
M  V30 30755 H 2835.71 -2.94454 -2.93717 0
M  V30 30756 H 2834.29 -1.21066 -3.527 0
M  V30 30757 N 2836.47 1.1185 -1.11028 0
M  V30 30758 C 2837.7 1.87847 -0.879097 0
M  V30 30759 C 2838.12 1.79402 0.565374 0
M  V30 30760 O 2837.48 1.15335 1.39884 0
M  V30 30761 C 2837.53 3.34782 -1.33991 0
M  V30 30762 O 2836.63 4.09248 -0.508875 0
M  V30 30763 H 2835.97 0.583443 -0.317003 0
M  V30 30764 H 2838.5 1.41411 -1.47866 0
M  V30 30765 H 2838.51 3.85626 -1.33255 0
M  V30 30766 H 2837.19 3.40245 -2.39178 0
M  V30 30767 H 2835.77 3.68331 -0.581978 0
M  V30 30768 N 2837.95 0.89995 1.29378 0
M  V30 30769 C 2839.36 0.574459 1.77643 0
M  V30 30770 C 2839.71 -0.909898 1.73825 0
M  V30 30771 O 2838.84 -1.71145 1.32432 0
M  V30 30772 C 2839.43 1.03601 3.22571 0
M  V30 30773 C 2837.99 0.761675 3.68613 0
M  V30 30774 C 2837.14 1.21056 2.49481 0
M  V30 30775 H 2840.09 1.08265 1.16036 0
M  V30 30776 H 2840.11 0.371404 3.78683 0
M  V30 30777 H 2839.62 2.11637 3.25317 0
M  V30 30778 H 2837.72 -0.306062 3.71341 0
M  V30 30779 H 2837.84 1.35973 4.594 0
M  V30 30780 H 2836.2 0.629558 2.46797 0
M  V30 30781 H 2836.98 2.29898 2.54955 0
M  V30 30782 N 2839.43 -1.43001 0.662458 0
M  V30 30783 C 2840.38 -2.32573 -0.0353041 0
M  V30 30784 C 2841.37 -1.49133 -0.803479 0
M  V30 30785 O 2842.58 -1.65284 -0.712836 0
M  V30 30786 H 2838.95 -0.751393 -0.0302062 0
M  V30 30787 H 2840.92 -2.89137 0.737737 0
M  V30 30788 C 2839.67 -3.33559 -0.981517 0
M  V30 30789 H 2839 -3.97796 -0.399845 0
M  V30 30790 H 2840.44 -3.98847 -1.43866 0
M  V30 30791 C 2838.9 -2.64867 -2.082 0
M  V30 30792 O 2839.43 -2.47119 -3.16694 0
M  V30 30793 N 2837.63 -2.24091 -1.85018 0
M  V30 30794 H 2837.18 -2.38726 -0.967867 0
M  V30 30795 H 2837.14 -1.78461 -2.58842 0
M  V30 30796 N 2840.91 -0.404973 -1.52308 0
M  V30 30797 C 2841.86 0.422557 -2.26899 0
M  V30 30798 C 2842.83 1.04458 -1.29142 0
M  V30 30799 O 2844.01 1.06964 -1.57998 0
M  V30 30800 C 2841.15 1.53553 -3.09056 0
M  V30 30801 C 2840.26 0.934834 -4.21764 0
M  V30 30802 C 2839.4 2.02016 -4.91287 0
M  V30 30803 C 2838.44 1.39618 -5.95964 0
M  V30 30804 N 2837.57 2.42148 -6.59021 0
M  V30 30805 H 2842.41 -0.219955 -2.97187 0
M  V30 30806 H 2839.95 -0.120308 -1.46607 0
M  V30 30807 H 2841.91 2.19175 -3.54991 0
M  V30 30808 H 2840.54 2.14813 -2.40946 0
M  V30 30809 H 2839.59 0.167787 -3.8003 0
M  V30 30810 H 2840.9 0.438985 -4.96865 0
M  V30 30811 H 2840.06 2.75373 -5.40606 0
M  V30 30812 H 2838.8 2.54965 -4.15745 0
M  V30 30813 H 2837.8 0.647927 -5.45969 0
M  V30 30814 H 2839.03 0.874435 -6.73447 0
M  V30 30815 H 2836.97 2.94237 -5.86311 0
M  V30 30816 H 2836.89 1.97363 -7.29783 0
M  V30 30817 H 2838.16 3.15087 -7.1298 0
M  V30 30818 N 2842.39 1.57018 -0.135265 0
M  V30 30819 C 2843.8 1.58059 0.221235 0
M  V30 30820 C 2844 1.14892 1.65536 0
M  V30 30821 O 2843.06 0.843793 2.37984 0
M  V30 30822 C 2844.37 3.00688 -0.0268643 0
M  V30 30823 C 2845.92 3.12977 0.0377656 0
M  V30 30824 C 2846.39 4.57635 -0.182849 0
M  V30 30825 N 2847.89 4.63019 -0.129374 0
M  V30 30826 C 2848.62 5.72741 -0.274749 0
M  V30 30827 N 2848.12 6.91155 -0.477197 0
M  V30 30828 N 2849.91 5.61696 -0.213176 0
M  V30 30829 H 2842.06 1.83375 -1.0718 0
M  V30 30830 H 2844.32 0.848219 -0.423353 0
M  V30 30831 H 2844.03 3.36616 -1.01894 0
M  V30 30832 H 2843.9 3.70689 0.697798 0
M  V30 30833 H 2846.29 2.76897 1.02039 0
M  V30 30834 H 2846.37 2.45486 -0.719039 0
M  V30 30835 H 2846.02 4.94417 -1.16252 0
M  V30 30836 H 2845.95 5.23238 0.594138 0
M  V30 30837 H 2848.44 3.77893 0.0229231 0
M  V30 30838 H 2848.75 7.70631 -0.578548 0
M  V30 30839 H 2847.09 6.93101 -0.513374 0
M  V30 30840 H 2850.29 4.68067 -0.0558619 0
M  V30 30841 H 2850.46 6.4716 -0.32991 0
M  V30 30842 N 2843.86 -0.138524 1.5699 0
M  V30 30843 C 2845.11 -0.848021 1.83448 0
M  V30 30844 C 2845.43 -1.81321 0.717472 0
M  V30 30845 O 2844.7 -1.94164 -0.260194 0
M  V30 30846 H 2843.28 -0.316154 0.676798 0
M  V30 30847 H 2845.95 -0.130504 1.94463 0
M  V30 30848 H 2845.04 -1.40513 2.7868 0
M  V30 30849 N 2845.34 -1.52224 -0.408133 0
M  V30 30850 C 2846.75 -1.58484 -0.986901 0
M  V30 30851 C 2847.1 -0.425951 -1.9152 0
M  V30 30852 O 2846.23 0.453556 -2.11594 0
M  V30 30853 C 2846.82 -2.87238 -1.79665 0
M  V30 30854 C 2845.38 -2.95974 -2.32543 0
M  V30 30855 C 2844.53 -2.5343 -1.12554 0
M  V30 30856 H 2847.48 -1.57579 -0.188334 0
M  V30 30857 H 2847.5 -2.72647 -2.65413 0
M  V30 30858 H 2847.01 -3.71565 -1.12076 0
M  V30 30859 H 2845.12 -2.16143 -3.03501 0
M  V30 30860 H 2845.23 -4.00236 -2.63341 0
M  V30 30861 H 2843.59 -2.07302 -1.4798 0
M  V30 30862 H 2844.38 -3.40132 -0.465291 0
M  V30 30863 N 2846.82 0.665425 -1.42863 0
M  V30 30864 C 2848.23 1.24629 -1.39012 0
M  V30 30865 C 2848.58 1.96002 -0.0880629 0
M  V30 30866 O 2847.71 2.00551 0.812912 0
M  V30 30867 C 2848.3 2.26666 -2.51809 0
M  V30 30868 C 2846.86 2.80258 -2.51262 0
M  V30 30869 C 2846.01 1.54716 -2.30127 0
M  V30 30870 H 2848.96 0.45821 -1.51941 0
M  V30 30871 H 2848.98 3.08594 -2.22598 0
M  V30 30872 H 2848.49 1.74691 -3.46561 0
M  V30 30873 H 2846.59 3.36329 -1.60355 0
M  V30 30874 H 2846.71 3.28635 -3.4862 0
M  V30 30875 H 2845.07 1.81624 -1.78563 0
M  V30 30876 H 2845.85 1.04693 -3.26947 0
M  V30 30877 N 2848.3 1.29191 0.902633 0
M  V30 30878 C 2849.53 1.19872 1.68637 0
M  V30 30879 C 2849.94 -0.241088 1.87254 0
M  V30 30880 O 2849.3 -1.16174 1.40747 0
M  V30 30881 C 2849.35 1.90476 3.07247 0
M  V30 30882 O 2849.07 3.28834 2.89482 0
M  V30 30883 C 2850.57 1.87597 4.01649 0
M  V30 30884 H 2847.79 0.415606 0.526795 0
M  V30 30885 H 2850.34 1.70512 1.12898 0
M  V30 30886 H 2848.49 1.43679 3.59771 0
M  V30 30887 H 2848.9 3.64352 3.7729 0
M  V30 30888 H 2850.38 2.41569 4.96335 0
M  V30 30889 H 2850.86 0.850832 4.3088 0
M  V30 30890 H 2851.46 2.34125 3.55057 0
M  V30 30891 N 2849.78 -1.1126 1.1162 0
M  V30 30892 C 2851.01 -1.86567 0.887483 0
M  V30 30893 C 2851.41 -1.80525 -0.566328 0
M  V30 30894 O 2850.76 -1.18597 -1.40287 0
M  V30 30895 C 2850.82 -3.36199 1.27319 0
M  V30 30896 C 2850.48 -3.66008 2.73655 0
M  V30 30897 C 2851.48 -3.63331 3.71869 0
M  V30 30898 C 2849.17 -3.94954 3.10349 0
M  V30 30899 C 2851.16 -3.89179 5.04795 0
M  V30 30900 C 2848.85 -4.20461 4.43459 0
M  V30 30901 C 2849.84 -4.17562 5.40491 0
M  V30 30902 O 2849.53 -4.42427 6.71203 0
M  V30 30903 H 2849.26 -0.596771 0.317554 0
M  V30 30904 H 2851.82 -1.41621 1.4877 0
M  V30 30905 H 2850.05 -3.8176 0.616129 0
M  V30 30906 H 2851.74 -3.92875 1.01998 0
M  V30 30907 H 2852.5 -3.41016 3.44867 0
M  V30 30908 H 2848.38 -3.96346 2.35438 0
M  V30 30909 H 2851.93 -3.86832 5.80523 0
M  V30 30910 H 2847.82 -4.42252 4.70195 0
M  V30 30911 H 2848.59 -4.59985 6.7702 0
M  V30 30912 N 2851.25 -0.906798 -1.28899 0
M  V30 30913 C 2852.2 -0.379913 -2.29476 0
M  V30 30914 C 2853.2 0.524719 -1.61068 0
M  V30 30915 O 2854.4 0.406734 -1.75344 0
M  V30 30916 H 2850.78 -0.104243 -0.74474 0
M  V30 30917 H 2852.75 -1.24141 -2.71351 0
M  V30 30918 C 2851.5 0.371093 -3.45714 0
M  V30 30919 H 2850.82 -0.315786 -3.98551 0
M  V30 30920 H 2852.26 0.704508 -4.18106 0
M  V30 30921 C 2850.72 1.57641 -2.97743 0
M  V30 30922 O 2851.25 2.67562 -2.99623 0
M  V30 30923 N 2849.46 1.42101 -2.53487 0
M  V30 30924 H 2849 0.526739 -2.52157 0
M  V30 30925 H 2848.96 2.22877 -2.2175 0
M  V30 30926 N 2852.73 1.42648 -0.670032 0
M  V30 30927 C 2853.64 2.34597 0.0114375 0
M  V30 30928 C 2854.66 1.54826 0.794028 0
M  V30 30929 O 2855.83 1.87413 0.737439 0
M  V30 30930 C 2852.9 3.33305 0.954377 0
M  V30 30931 C 2851.96 4.28976 0.16685 0
M  V30 30932 C 2851.19 5.22969 1.06488 0
M  V30 30933 O 2851.42 5.21781 2.30436 0
M  V30 30934 O 2850.35 5.99578 0.528241 0
M  V30 30935 H 2854.18 2.94399 -0.745846 0
M  V30 30936 H 2851.76 1.43071 -0.430253 0
M  V30 30937 H 2853.64 3.93958 1.49582 0
M  V30 30938 H 2852.32 2.75983 1.69159 0
M  V30 30939 H 2851.23 3.71751 -0.41858 0
M  V30 30940 H 2852.56 4.89326 -0.531153 0
M  V30 30941 N 2854.21 0.413044 1.52091 0
M  V30 30942 C 2855.16 -0.427954 2.23948 0
M  V30 30943 C 2856.15 -1.01025 1.25231 0
M  V30 30944 O 2857.34 -0.932417 1.50449 0
M  V30 30945 C 2854.47 -1.54195 3.06723 0
M  V30 30946 C 2853.55 -0.970234 4.12853 0
M  V30 30947 N 2853.94 -0.125522 5.05644 0
M  V30 30948 C 2852.24 -1.24034 4.28406 0
M  V30 30949 C 2852.94 0.192978 5.8138 0
M  V30 30950 N 2851.92 -0.417178 5.41997 0
M  V30 30951 H 2855.72 0.223679 2.93048 0
M  V30 30952 H 2853.23 0.223692 1.60852 0
M  V30 30953 H 2855.23 -2.15707 3.56758 0
M  V30 30954 H 2853.89 -2.19616 2.39163 0
M  V30 30955 H 2854.9 0.239086 5.17348 0
M  V30 30956 H 2851.58 -1.89385 3.72075 0
M  V30 30957 H 2852.97 0.878879 6.66127 0
M  V30 30958 N 2855.69 -1.56945 0.143591 0
M  V30 30959 C 2856.94 -1.9519 -0.508316 0
M  V30 30960 C 2857.25 -1.03076 -1.66237 0
M  V30 30961 O 2858.46 -1.30886 -2.37868 0
M  V30 30962 C 2856.91 -3.4698 -0.955674 0
M  V30 30963 C 2856.52 -4.47673 0.171261 0
M  V30 30964 C 2858.27 -3.94098 -1.57756 0
M  V30 30965 C 2856.17 -5.90668 -0.294175 0
M  V30 30966 H 2855.1 -0.728704 -0.193666 0
M  V30 30967 H 2857.75 -1.82086 0.227389 0
M  V30 30968 H 2856.14 -3.55404 -1.74654 0
M  V30 30969 H 2857.31 -4.5094 0.948129 0
M  V30 30970 H 2855.62 -4.10451 0.701345 0
M  V30 30971 H 2858.22 -4.98368 -1.93736 0
M  V30 30972 H 2858.56 -3.35457 -2.46525 0
M  V30 30973 H 2859.1 -3.88576 -0.85166 0
M  V30 30974 H 2855.84 -6.5312 0.558054 0
M  V30 30975 H 2855.36 -5.90768 -1.03699 0
M  V30 30976 H 2857.04 -6.4267 -0.747313 0
M  V30 30977 N 2857.17 0.130197 -1.57061 0
M  V30 30978 C 2858.4 0.854423 -1.88434 0
M  V30 30979 C 2858.81 1.73963 -0.733639 0
M  V30 30980 O 2858.17 1.80084 0.295997 0
M  V30 30981 C 2858.22 1.69718 -3.19183 0
M  V30 30982 O 2857.94 0.847629 -4.29822 0
M  V30 30983 C 2859.44 2.52754 -3.64184 0
M  V30 30984 H 2856.66 0.24621 -0.624197 0
M  V30 30985 H 2859.2 0.117944 -2.0416 0
M  V30 30986 H 2857.36 2.38654 -3.05161 0
M  V30 30987 H 2857.77 1.42783 -5.04691 0
M  V30 30988 H 2859.25 3.07435 -4.58462 0
M  V30 30989 H 2859.72 3.29587 -2.90291 0
M  V30 30990 H 2860.33 1.8908 -3.80958 0
M  V30 30991 N 2858.65 1.52438 0.400055 0
M  V30 30992 C 2859.59 1.76429 1.488 0
M  V30 30993 C 2860.56 0.607059 1.54609 0
M  V30 30994 O 2861.75 0.845593 1.71039 0
M  V30 30995 C 2858.89 1.92901 2.86152 0
M  V30 30996 C 2858 3.20572 2.89581 0
M  V30 30997 C 2857.14 3.27425 4.1829 0
M  V30 30998 C 2856.17 4.49262 4.15728 0
M  V30 30999 N 2855.31 4.53457 5.36024 0
M  V30 31000 H 2860.15 2.69279 1.27644 0
M  V30 31001 H 2857.69 1.33422 0.619428 0
M  V30 31002 H 2859.65 2.00436 3.65898 0
M  V30 31003 H 2858.28 1.03423 3.05783 0
M  V30 31004 H 2857.33 3.22164 2.02273 0
M  V30 31005 H 2858.64 4.10363 2.83555 0
M  V30 31006 H 2857.79 3.34081 5.06433 0
M  V30 31007 H 2856.53 2.35588 4.27024 0
M  V30 31008 H 2855.54 4.42743 3.25974 0
M  V30 31009 H 2856.76 5.42403 4.08627 0
M  V30 31010 H 2854.71 3.64507 5.45408 0
M  V30 31011 H 2854.63 5.37105 5.32028 0
M  V30 31012 H 2855.89 4.64354 6.26095 0
M  V30 31013 N 2860.12 -0.657839 1.43214 0
M  V30 31014 C 2861.54 -0.972969 1.26513 0
M  V30 31015 C 2861.74 -2.00681 0.181512 0
M  V30 31016 O 2860.8 -2.48608 -0.441606 0
M  V30 31017 C 2862.11 -1.46163 2.62787 0
M  V30 31018 C 2863.66 -1.57852 2.70281 0
M  V30 31019 C 2864.13 -2.1011 4.06962 0
M  V30 31020 N 2865.62 -2.17419 4.09003 0
M  V30 31021 C 2866.36 -2.58966 5.1159 0
M  V30 31022 N 2865.85 -2.99842 6.24553 0
M  V30 31023 N 2867.65 -2.58865 4.98944 0
M  V30 31024 H 2859.8 0.0263503 2.12384 0
M  V30 31025 H 2862.06 -0.0507825 0.946639 0
M  V30 31026 H 2861.77 -0.776413 3.43023 0
M  V30 31027 H 2861.64 -2.43746 2.87867 0
M  V30 31028 H 2864.03 -2.25476 1.9038 0
M  V30 31029 H 2864.11 -0.587135 2.48971 0
M  V30 31030 H 2863.75 -1.43089 4.87327 0
M  V30 31031 H 2863.68 -3.10071 4.25633 0
M  V30 31032 H 2866.17 -1.88621 3.27461 0
M  V30 31033 H 2866.49 -3.3028 6.98667 0
M  V30 31034 H 2864.83 -2.97658 6.28032 0
M  V30 31035 H 2868.02 -2.26304 4.09761 0
M  V30 31036 H 2868.2 -2.90922 5.79024 0
M  V30 31037 N 2861.6 -1.29668 -0.895769 0
M  V30 31038 C 2862.85 -1.18042 -1.64906 0
M  V30 31039 C 2863.18 0.266648 -1.92361 0
M  V30 31040 O 2862.46 1.19211 -1.53684 0
M  V30 31041 C 2862.74 -1.99824 -2.9957 0
M  V30 31042 C 2862.59 -3.52692 -2.79156 0
M  V30 31043 C 2863.91 -1.82768 -4.00355 0
M  V30 31044 H 2861.03 -0.430175 -0.59843 0
M  V30 31045 H 2863.67 -1.59184 -1.03733 0
M  V30 31046 H 2861.82 -1.64865 -3.51784 0
M  V30 31047 H 2863.49 -3.97654 -2.33814 0
M  V30 31048 H 2861.74 -3.77418 -2.13864 0
M  V30 31049 H 2862.41 -4.05193 -3.74864 0
M  V30 31050 H 2864.88 -2.1331 -3.57265 0
M  V30 31051 H 2863.76 -2.42334 -4.92509 0
M  V30 31052 H 2864.02 -0.783916 -4.35094 0
M  V30 31053 N 2863.08 1.10667 -1.12208 0
M  V30 31054 C 2864.04 2.15122 -0.790905 0
M  V30 31055 C 2865.04 1.5963 0.19359 0
M  V30 31056 O 2866.23 1.74171 -0.0319034 0
M  V30 31057 C 2863.36 3.40451 -0.174857 0
M  V30 31058 H 2864.56 2.4593 -1.71635 0
M  V30 31059 H 2862.11 1.25989 -0.925015 0
M  V30 31060 H 2862.85 3.15259 0.760422 0
M  V30 31061 H 2862.63 3.82013 -0.883647 0
M  V30 31062 H 2864.12 4.1758 0.0404428 0
M  V30 31063 N 2864.56 0.913621 1.28416 0
M  V30 31064 C 2865.78 0.561934 1.99642 0
M  V30 31065 C 2866.21 -0.849578 1.67821 0
M  V30 31066 O 2865.57 -1.56777 0.910531 0
M  V30 31067 C 2865.61 0.777684 3.52114 0
M  V30 31068 O 2864.72 -0.163385 4.12076 0
M  V30 31069 H 2864.06 0.217909 0.627226 0
M  V30 31070 H 2866.59 1.22902 1.63573 0
M  V30 31071 H 2866.6 0.687737 4.02162 0
M  V30 31072 H 2865.27 1.80667 3.7461 0
M  V30 31073 H 2863.85 -0.0247172 3.72892 0
M  V30 31074 N 2866.04 -1.4229 0.677588 0
M  V30 31075 C 2867.26 -2.06355 0.207938 0
M  V30 31076 C 2867.69 -1.50585 -1.1272 0
M  V30 31077 O 2867.04 -0.62546 -1.7017 0
M  V30 31078 C 2867.09 -3.6026 0.156552 0
M  V30 31079 O 2866.2 -4.0303 -0.874091 0
M  V30 31080 H 2865.54 -0.655474 0.106068 0
M  V30 31081 H 2868.07 -1.82375 0.927386 0
M  V30 31082 H 2868.08 -4.07996 -0.018654 0
M  V30 31083 H 2866.75 -4.00224 1.13108 0
M  V30 31084 H 2865.33 -3.66837 -0.6697 0
M  V30 31085 N 2867.51 -0.421104 -1.5187 0
M  V30 31086 C 2868.92 0.0457663 -1.86644 0
M  V30 31087 C 2869.28 1.43386 -1.33921 0
M  V30 31088 O 2868.4 2.05327 -0.683352 0
M  V30 31089 C 2869 0.0898249 -3.38681 0
M  V30 31090 C 2867.55 0.501062 -3.7305 0
M  V30 31091 C 2866.7 -0.316772 -2.75485 0
M  V30 31092 H 2869.65 -0.63766 -1.45326 0
M  V30 31093 H 2869.67 0.902669 -3.69638 0
M  V30 31094 H 2869.19 -0.920579 -3.77024 0
M  V30 31095 H 2867.29 1.51767 -3.4029 0
M  V30 31096 H 2867.4 0.237133 -4.78513 0
M  V30 31097 H 2865.76 0.222618 -2.53725 0
M  V30 31098 H 2866.55 -1.32575 -3.16668 0
M  V30 31099 N 2868.99 1.56866 -0.151912 0
M  V30 31100 C 2869.96 2.15814 0.771823 0
M  V30 31101 C 2870.96 1.10117 1.17179 0
M  V30 31102 O 2872.15 1.35731 1.09191 0
M  V30 31103 C 2869.28 2.72524 2.04801 0
M  V30 31104 H 2870.47 2.9878 0.258969 0
M  V30 31105 H 2868.02 1.55995 0.0975606 0
M  V30 31106 H 2868.76 1.93238 2.60441 0
M  V30 31107 H 2868.54 3.49857 1.77038 0
M  V30 31108 H 2870.03 3.17925 2.70765 0
M  V30 31109 N 2870.47 -0.121866 1.57128 0
M  V30 31110 C 2871.88 -0.679317 1.73903 0
M  V30 31111 C 2872.23 -1.80452 0.770166 0
M  V30 31112 O 2871.36 -2.16323 -0.0575703 0
M  V30 31113 C 2871.95 -1.23905 3.1533 0
M  V30 31114 C 2870.51 -1.74282 3.33621 0
M  V30 31115 C 2869.66 -0.641366 2.69781 0
M  V30 31116 H 2872.61 0.104028 1.58359 0
M  V30 31117 H 2872.63 -2.10874 3.16722 0
M  V30 31118 H 2872.14 -0.419889 3.85822 0
M  V30 31119 H 2870.24 -2.58684 2.68166 0
M  V30 31120 H 2870.36 -1.85424 4.41763 0
M  V30 31121 H 2868.72 -1.07426 2.30937 0
M  V30 31122 H 2869.5 0.166767 3.42895 0
M  V30 31123 N 2871.95 -1.52648 -0.391965 0
M  V30 31124 C 2873.36 -1.59522 -0.970036 0
M  V30 31125 C 2873.71 -0.44624 -1.91058 0
M  V30 31126 O 2872.84 0.431088 -2.12063 0
M  V30 31127 C 2873.43 -2.89128 -1.76609 0
M  V30 31128 C 2871.99 -2.98424 -2.29391 0
M  V30 31129 C 2871.14 -2.5461 -1.09859 0
M  V30 31130 H 2874.09 -1.57769 -0.17161 0
M  V30 31131 H 2874.11 -2.75447 -2.62506 0
M  V30 31132 H 2873.62 -3.72733 -1.08129 0
M  V30 31133 H 2871.72 -2.1935 -3.01192 0
M  V30 31134 H 2871.83 -4.03006 -2.59081 0
M  V30 31135 H 2870.2 -2.0886 -1.45773 0
M  V30 31136 H 2870.98 -3.40607 -0.42919 0
M  V30 31137 N 2873.43 0.650235 -1.43561 0
M  V30 31138 C 2874.34 1.79204 -1.51404 0
M  V30 31139 C 2875.35 1.69318 -0.400925 0
M  V30 31140 O 2876.53 1.90434 -0.655491 0
M  V30 31141 C 2873.59 3.15498 -1.43743 0
M  V30 31142 C 2872.65 3.37159 -2.65749 0
M  V30 31143 C 2871.89 4.6695 -2.58444 0
M  V30 31144 O 2872.11 5.465 -1.63384 0
M  V30 31145 O 2871.04 4.90395 -3.48993 0
M  V30 31146 H 2874.87 1.75542 -2.47828 0
M  V30 31147 H 2872.46 0.809089 -1.25595 0
M  V30 31148 H 2874.34 3.96782 -1.41923 0
M  V30 31149 H 2873.01 3.19744 -0.504544 0
M  V30 31150 H 2871.92 2.55627 -2.7314 0
M  V30 31151 H 2873.25 3.37761 -3.5802 0
M  V30 31152 N 2874.9 1.30141 0.88888 0
M  V30 31153 C 2876.15 1.18504 1.63711 0
M  V30 31154 C 2876.47 -0.261365 1.9324 0
M  V30 31155 O 2875.74 -1.17687 1.5661 0
M  V30 31156 H 2874.32 0.43559 0.606853 0
M  V30 31157 H 2876.99 1.63215 1.06522 0
M  V30 31158 H 2876.08 1.74304 2.58891 0
M  V30 31159 N 2876.38 -1.1007 1.12794 0
M  V30 31160 C 2877.79 -1.6361 0.899375 0
M  V30 31161 C 2878.14 -1.87873 -0.565514 0
M  V30 31162 O 2877.27 -1.6235 -1.43078 0
M  V30 31163 C 2877.86 -2.97224 1.62613 0
M  V30 31164 C 2876.42 -3.47616 1.44362 0
M  V30 31165 C 2875.57 -2.22153 1.65962 0
M  V30 31166 H 2878.52 -0.935201 1.28217 0
M  V30 31167 H 2878.54 -3.6487 1.07936 0
M  V30 31168 H 2878.05 -2.79533 2.69226 0
M  V30 31169 H 2876.16 -3.70444 0.400213 0
M  V30 31170 H 2876.27 -4.25485 2.20226 0
M  V30 31171 H 2874.63 -2.30482 1.08399 0
M  V30 31172 H 2875.42 -2.06988 2.73881 0
M  V30 31173 N 2877.86 -0.920419 -1.2793 0
M  V30 31174 C 2879.09 -0.572514 -1.99342 0
M  V30 31175 C 2879.51 0.840666 -1.68269 0
M  V30 31176 O 2878.87 1.56292 -0.918832 0
M  V30 31177 C 2878.92 -0.796346 -3.51697 0
M  V30 31178 O 2878.02 0.141529 -4.12157 0
M  V30 31179 H 2877.36 -0.221232 -0.626061 0
M  V30 31180 H 2879.89 -1.23768 -1.62919 0
M  V30 31181 H 2879.9 -0.709055 -4.01792 0
M  V30 31182 H 2878.58 -1.82651 -3.73646 0
M  V30 31183 H 2877.15 0.00494146 -3.729 0
M  V30 31184 N 2879.34 1.41929 -0.685124 0
M  V30 31185 C 2880.29 2.27998 0.00973287 0
M  V30 31186 C 2881.27 1.41643 0.76329 0
M  V30 31187 O 2882.46 1.65005 0.640503 0
M  V30 31188 C 2879.59 3.2981 0.952914 0
M  V30 31189 C 2878.68 4.23646 0.196156 0
M  V30 31190 N 2879.07 4.99361 -0.804489 0
M  V30 31191 C 2877.37 4.43892 0.433135 0
M  V30 31192 C 2878.07 5.67966 -1.25656 0
M  V30 31193 N 2877.05 5.40449 -0.584495 0
M  V30 31194 H 2880.85 2.83967 -0.757636 0
M  V30 31195 H 2878.36 1.54016 -0.515064 0
M  V30 31196 H 2880.36 3.90283 1.46578 0
M  V30 31197 H 2879.02 2.75402 1.72 0
M  V30 31198 H 2880.03 5.04175 -1.18438 0
M  V30 31199 H 2876.71 4.00509 1.17892 0
M  V30 31200 H 2878.1 6.38688 -2.08633 0
M  V30 31201 N 2880.82 0.429152 1.51644 0
M  V30 31202 C 2882.23 -0.0358675 1.86666 0
M  V30 31203 C 2882.58 -1.42674 1.3468 0
M  V30 31204 O 2881.7 -2.04962 0.694231 0
M  V30 31205 C 2882.3 -0.0718625 3.38724 0
M  V30 31206 C 2880.86 -0.481271 3.73311 0
M  V30 31207 C 2880 0.331377 2.75313 0
M  V30 31208 H 2882.96 0.645358 1.44986 0
M  V30 31209 H 2882.98 -0.883053 3.70111 0
M  V30 31210 H 2882.49 0.940561 3.7653 0
M  V30 31211 H 2880.59 -1.4996 3.41091 0
M  V30 31212 H 2880.7 -0.211753 4.78632 0
M  V30 31213 H 2879.07 -0.209159 2.5384 0
M  V30 31214 H 2879.85 1.34252 3.15961 0
M  V30 31215 N 2882.29 -1.56783 0.160229 0
M  V30 31216 C 2883.71 -1.58391 -0.196061 0
M  V30 31217 C 2883.91 -1.17511 -1.63687 0
M  V30 31218 O 2882.97 -0.881548 -2.36611 0
M  V30 31219 C 2884.28 -3.00607 0.0746977 0
M  V30 31220 C 2885.83 -3.12998 0.0120312 0
M  V30 31221 C 2886.3 -4.57286 0.255632 0
M  V30 31222 N 2887.79 -4.62755 0.20302 0
M  V30 31223 C 2888.53 -5.72232 0.365832 0
M  V30 31224 N 2888.02 -6.90308 0.587093 0
M  V30 31225 N 2889.82 -5.61285 0.30251 0
M  V30 31226 H 2881.97 -1.81646 1.10084 0
M  V30 31227 H 2884.23 -0.841377 0.436794 0
M  V30 31228 H 2883.94 -3.34952 1.07237 0
M  V30 31229 H 2883.81 -3.71753 -0.638736 0
M  V30 31230 H 2886.2 -2.78486 -0.976205 0
M  V30 31231 H 2886.28 -2.44311 0.758003 0
M  V30 31232 H 2885.92 -4.92505 1.24103 0
M  V30 31233 H 2885.85 -5.24117 -0.51082 0
M  V30 31234 H 2888.34 -3.77882 0.0371993 0
M  V30 31235 H 2888.66 -7.69613 0.701076 0
M  V30 31236 H 2887 -6.92197 0.623575 0
M  V30 31237 H 2890.19 -4.67919 0.13032 0
M  V30 31238 H 2890.37 -6.46553 0.432826 0
M  V30 31239 N 2883.77 0.113531 -1.57191 0
M  V30 31240 C 2884.68 1.15773 -2.04043 0
M  V30 31241 C 2885.7 1.44999 -0.961837 0
M  V30 31242 O 2886.88 1.56007 -1.27373 0
M  V30 31243 C 2883.94 2.46304 -2.43999 0
M  V30 31244 C 2883 2.24426 -3.65966 0
M  V30 31245 C 2882.23 3.48733 -4.04006 0
M  V30 31246 O 2882.46 4.56253 -3.42329 0
M  V30 31247 O 2881.39 3.39411 -4.97075 0
M  V30 31248 H 2885.22 0.789848 -2.93249 0
M  V30 31249 H 2882.8 0.324722 -1.45828 0
M  V30 31250 H 2884.68 3.232 -2.70407 0
M  V30 31251 H 2883.36 2.82555 -1.57937 0
M  V30 31252 H 2882.27 1.45371 -3.447 0
M  V30 31253 H 2883.6 1.93076 -4.5275 0
M  V30 31254 N 2885.25 1.52854 0.383864 0
M  V30 31255 C 2886.66 1.60034 0.961562 0
M  V30 31256 C 2887.01 0.456366 1.90819 0
M  V30 31257 O 2886.14 -0.419836 2.12288 0
M  V30 31258 C 2886.73 2.9006 1.75073 0
M  V30 31259 C 2885.29 2.99636 2.27805 0
M  V30 31260 C 2884.44 2.55189 1.08507 0
M  V30 31261 H 2887.39 1.57858 0.163241 0
M  V30 31262 H 2887.41 2.76835 2.61041 0
M  V30 31263 H 2886.92 3.73301 1.0615 0
M  V30 31264 H 2885.02 2.20944 3.00024 0
M  V30 31265 H 2885.14 4.04374 2.5694 0
M  V30 31266 H 2883.5 2.0963 1.44663 0
M  V30 31267 H 2884.28 3.40829 0.41112 0
M  V30 31268 N 2886.73 -0.642612 1.43904 0
M  V30 31269 C 2887.95 -1.43481 1.4976 0
M  V30 31270 C 2888.38 -1.87717 0.119944 0
M  V30 31271 O 2887.74 -1.58034 -0.88853 0
M  V30 31272 C 2887.79 -2.63894 2.45749 0
M  V30 31273 O 2886.89 -3.63327 1.95108 0
M  V30 31274 H 2886.23 -0.429782 0.506146 0
M  V30 31275 H 2888.76 -0.785404 1.88925 0
M  V30 31276 H 2888.77 -3.1158 2.63405 0
M  V30 31277 H 2887.45 -2.3104 3.45822 0
M  V30 31278 H 2886.02 -3.22528 1.87163 0
M  V30 31279 N 2888.21 -1.30611 -0.881966 0
M  V30 31280 C 2889.44 -1.22539 -1.66708 0
M  V30 31281 C 2889.85 0.211267 -1.87614 0
M  V30 31282 O 2889.21 1.1392 -1.42578 0
M  V30 31283 C 2889.26 -1.9534 -3.04178 0
M  V30 31284 O 2888.98 -3.33398 -2.84214 0
M  V30 31285 C 2890.48 -1.93963 -3.98614 0
M  V30 31286 H 2887.7 -0.423934 -0.520116 0
M  V30 31287 H 2890.24 -1.72287 -1.10171 0
M  V30 31288 H 2888.4 -1.49384 -3.5744 0
M  V30 31289 H 2888.81 -3.70309 -3.71446 0
M  V30 31290 H 2890.29 -2.49435 -4.92429 0
M  V30 31291 H 2890.76 -0.919273 -4.29472 0
M  V30 31292 H 2891.37 -2.39744 -3.51287 0
M  V30 31293 N 2889.69 1.0947 -1.13376 0
M  V30 31294 C 2891.1 1.6313 -0.908039 0
M  V30 31295 C 2891.45 1.88171 0.555543 0
M  V30 31296 O 2890.57 1.63107 1.42215 0
M  V30 31297 C 2891.17 2.96358 -1.64187 0
M  V30 31298 C 2889.73 3.46845 -1.46203 0
M  V30 31299 C 2888.87 2.2127 -1.67138 0
M  V30 31300 H 2891.82 0.928388 -1.28711 0
M  V30 31301 H 2891.85 3.64292 -1.0987 0
M  V30 31302 H 2891.36 2.78101 -2.70705 0
M  V30 31303 H 2889.46 3.70227 -0.419853 0
M  V30 31304 H 2889.57 4.24311 -2.22479 0
M  V30 31305 H 2887.94 2.29904 -1.0962 0
M  V30 31306 H 2888.72 2.05533 -2.74975 0
M  V30 31307 N 2891.16 0.92719 1.2744 0
M  V30 31308 C 2892.11 0.396917 2.24519 0
M  V30 31309 C 2893.1 -0.498528 1.52982 0
M  V30 31310 O 2894.29 -0.336056 1.7378 0
M  V30 31311 C 2891.42 -0.349634 3.41515 0
M  V30 31312 C 2890.5 0.5623 4.20356 0
M  V30 31313 N 2890.9 1.6819 4.77017 0
M  V30 31314 C 2889.19 0.365213 4.44502 0
M  V30 31315 C 2889.89 2.24905 5.36463 0
M  V30 31316 N 2888.87 1.53869 5.21369 0
M  V30 31317 H 2892.67 1.25178 2.65909 0
M  V30 31318 H 2890.19 0.781405 1.42365 0
M  V30 31319 H 2892.18 -0.746464 4.10163 0
M  V30 31320 H 2890.84 -1.20143 3.01655 0
M  V30 31321 H 2891.85 2.06429 4.74981 0
M  V30 31322 H 2888.53 -0.445964 4.15111 0
M  V30 31323 H 2889.92 3.19161 5.91258 0
M  V30 31324 N 2892.64 -1.41564 0.692641 0
M  V30 31325 C 2894.06 -1.55396 0.363906 0
M  V30 31326 C 2894.26 -1.66876 -1.12937 0
M  V30 31327 O 2893.31 -1.64556 -1.91514 0
M  V30 31328 C 2894.63 -2.79468 1.10987 0
M  V30 31329 C 2896.17 -2.93261 1.09393 0
M  V30 31330 C 2896.65 -4.20217 1.82157 0
M  V30 31331 N 2898.14 -4.27168 1.79113 0
M  V30 31332 C 2898.88 -5.24256 2.32256 0
M  V30 31333 N 2898.37 -6.27391 2.93858 0
M  V30 31334 N 2900.16 -5.16176 2.22529 0
M  V30 31335 H 2892.32 -1.32357 1.66119 0
M  V30 31336 H 2894.58 -0.638358 0.700859 0
M  V30 31337 H 2894.28 -2.77185 2.16475 0
M  V30 31338 H 2894.16 -3.70899 0.686557 0
M  V30 31339 H 2896.55 -2.95062 0.0473156 0
M  V30 31340 H 2896.63 -2.03012 1.55627 0
M  V30 31341 H 2896.27 -4.19178 2.86796 0
M  V30 31342 H 2896.2 -5.09434 1.33359 0
M  V30 31343 H 2898.69 -3.5327 1.34197 0
M  V30 31344 H 2899 -6.97858 3.31984 0
M  V30 31345 H 2897.35 -6.27901 2.97935 0
M  V30 31346 H 2900.54 -4.34528 1.74077 0
M  V30 31347 H 2900.71 -5.91673 2.64249 0
M  V30 31348 N 2894.12 -0.437188 -1.51415 0
M  V30 31349 C 2895.35 0.127823 -2.06204 0
M  V30 31350 C 2895.76 1.37023 -1.30466 0
M  V30 31351 O 2895.1 1.80187 -0.357548 0
M  V30 31352 C 2895.16 0.51557 -3.55784 0
M  V30 31353 C 2894.83 -0.620017 -4.52775 0
M  V30 31354 C 2895.82 -1.4921 -4.98029 0
M  V30 31355 C 2893.51 -0.800706 -4.95877 0
M  V30 31356 C 2895.5 -2.52957 -5.85057 0
M  V30 31357 C 2893.19 -1.84145 -5.82695 0
M  V30 31358 C 2894.19 -2.70427 -6.27183 0
M  V30 31359 O 2893.88 -3.72714 -7.12278 0
M  V30 31360 H 2893.61 0.0114301 -0.675903 0
M  V30 31361 H 2896.16 -0.615021 -1.95976 0
M  V30 31362 H 2894.39 1.31111 -3.63795 0
M  V30 31363 H 2896.08 1.01172 -3.93089 0
M  V30 31364 H 2896.85 -1.36404 -4.65424 0
M  V30 31365 H 2892.73 -0.138698 -4.60791 0
M  V30 31366 H 2896.27 -3.20336 -6.19702 0
M  V30 31367 H 2892.17 -1.96971 -6.14713 0
M  V30 31368 H 2892.93 -3.69293 -7.30455 0
M  V30 31369 N 2895.6 1.56696 -0.168541 0
M  V30 31370 C 2897.01 1.58493 0.187658 0
M  V30 31371 C 2897.21 1.18378 1.63061 0
M  V30 31372 O 2896.27 0.894083 2.36141 0
M  V30 31373 C 2897.58 3.00563 -0.0906386 0
M  V30 31374 C 2899.13 3.12987 -0.02863 0
M  V30 31375 C 2899.61 4.57144 -0.279879 0
M  V30 31376 N 2901.1 4.62641 -0.227558 0
M  V30 31377 C 2901.83 5.7203 -0.396174 0
M  V30 31378 N 2901.33 6.89987 -0.623694 0
M  V30 31379 N 2903.12 5.61117 -0.332272 0
M  V30 31380 H 2895.27 1.8106 -1.11045 0
M  V30 31381 H 2897.53 0.839048 -0.44125 0
M  V30 31382 H 2897.24 3.34379 -1.09012 0
M  V30 31383 H 2897.11 3.72086 0.619012 0
M  V30 31384 H 2899.5 2.78999 0.961422 0
M  V30 31385 H 2899.58 2.43906 -0.770948 0
M  V30 31386 H 2899.23 4.9184 -1.26713 0
M  V30 31387 H 2899.16 5.2438 0.483017 0
M  V30 31388 H 2901.65 3.77857 -0.0572387 0
M  V30 31389 H 2901.96 7.69231 -0.741881 0
M  V30 31390 H 2900.31 6.91856 -0.660275 0
M  V30 31391 H 2903.5 4.67843 -0.155133 0
M  V30 31392 H 2903.67 6.46314 -0.467108 0
M  V30 31393 N 2897.08 -0.105193 1.57249 0
M  V30 31394 C 2897.99 -1.14689 2.04655 0
M  V30 31395 C 2899 -1.44487 0.969513 0
M  V30 31396 O 2900.18 -1.55329 1.28199 0
M  V30 31397 C 2897.24 -2.45006 2.45301 0
M  V30 31398 C 2896.3 -2.22482 3.67151 0
M  V30 31399 C 2895.54 -3.46585 4.0585 0
M  V30 31400 O 2895.76 -4.54431 3.44744 0
M  V30 31401 O 2894.69 -3.3677 4.98868 0
M  V30 31402 H 2898.52 -0.774285 2.93664 0
M  V30 31403 H 2896.1 -0.316984 1.45999 0
M  V30 31404 H 2897.99 -3.21761 2.72117 0
M  V30 31405 H 2896.66 -2.81714 1.59433 0
M  V30 31406 H 2895.57 -1.43541 3.45466 0
M  V30 31407 H 2896.9 -1.90672 4.53767 0
M  V30 31408 N 2898.55 -1.53055 -0.375752 0
M  V30 31409 C 2899.8 -1.68411 -1.11724 0
M  V30 31410 C 2900.12 -0.433263 -1.90126 0
M  V30 31411 O 2899.39 0.552562 -1.87946 0
M  V30 31412 H 2897.97 -0.620821 -0.41544 0
M  V30 31413 H 2900.64 -1.90213 -0.424835 0
M  V30 31414 H 2899.73 -2.54059 -1.81275 0
M  V30 31415 N 2900.03 0.634971 -1.44242 0
M  V30 31416 C 2901.45 0.952719 -1.28045 0
M  V30 31417 C 2901.65 2.00367 -0.213415 0
M  V30 31418 O 2900.7 2.49279 0.401998 0
M  V30 31419 C 2902.02 1.41964 -2.65079 0
M  V30 31420 C 2903.57 1.53532 -2.72758 0
M  V30 31421 C 2904.04 2.03609 -4.10253 0
M  V30 31422 N 2905.53 2.10885 -4.1241 0
M  V30 31423 C 2906.27 2.50794 -5.15645 0
M  V30 31424 N 2905.76 2.89868 -6.29244 0
M  V30 31425 N 2907.56 2.50894 -5.03 0
M  V30 31426 H 2899.71 -0.0601353 -2.12315 0
M  V30 31427 H 2901.97 0.0357159 -0.947327 0
M  V30 31428 H 2901.68 0.721743 -3.44215 0
M  V30 31429 H 2901.55 2.39136 -2.91709 0
M  V30 31430 H 2903.94 2.22419 -1.93943 0
M  V30 31431 H 2904.02 0.547452 -2.49873 0
M  V30 31432 H 2903.66 1.35318 -4.89542 0
M  V30 31433 H 2903.59 3.0326 -4.30512 0
M  V30 31434 H 2906.08 1.83387 -3.3042 0
M  V30 31435 H 2906.4 3.19123 -7.03833 0
M  V30 31436 H 2904.74 2.87629 -6.32688 0
M  V30 31437 H 2907.93 2.19756 -4.1331 0
M  V30 31438 H 2908.1 2.81673 -5.83579 0
M  V30 31439 N 2901.51 1.31076 0.875027 0
M  V30 31440 C 2902.74 1.23422 1.66056 0
M  V30 31441 C 2903.15 -0.201314 1.87724 0
M  V30 31442 O 2902.51 -1.13163 1.4318 0
M  V30 31443 C 2902.56 1.96951 3.03138 0
M  V30 31444 O 2902.28 3.349 2.82442 0
M  V30 31445 C 2903.78 1.96074 3.9758 0
M  V30 31446 H 2901 0.426686 0.517861 0
M  V30 31447 H 2903.55 1.72868 1.09255 0
M  V30 31448 H 2901.7 1.51278 3.56642 0
M  V30 31449 H 2902.12 3.72273 3.69476 0
M  V30 31450 H 2903.59 2.52043 4.91099 0
M  V30 31451 H 2904.07 0.942036 4.28978 0
M  V30 31452 H 2904.67 2.41604 3.50011 0
M  V30 31453 N 2902.99 -1.08867 1.13955 0
M  V30 31454 C 2903.9 -2.1921 0.835705 0
M  V30 31455 C 2904.91 -1.73046 -0.181975 0
M  V30 31456 O 2906.09 -2.01397 -0.0116307 0
M  V30 31457 C 2903.16 -3.4529 0.312386 0
M  V30 31458 C 2902.22 -4.06105 1.39203 0
M  V30 31459 C 2901.45 -5.26166 0.893589 0
M  V30 31460 O 2901.67 -5.69776 -0.266707 0
M  V30 31461 O 2900.61 -5.78255 1.67047 0
M  V30 31462 H 2904.43 -2.47664 1.75774 0
M  V30 31463 H 2902.02 -1.17913 0.917442 0
M  V30 31464 H 2903.9 -4.21392 0.0262323 0
M  V30 31465 H 2902.57 -3.18425 -0.581986 0
M  V30 31466 H 2901.48 -3.31613 1.73158 0
M  V30 31467 H 2902.81 -4.37208 2.26075 0
M  V30 31468 N 2904.47 -0.933936 -1.26946 0
M  V30 31469 C 2905.4 -0.45538 -2.29016 0
M  V30 31470 C 2906.38 0.487576 -1.62962 0
M  V30 31471 O 2907.56 0.390989 -1.90223 0
M  V30 31472 C 2904.69 0.286954 -3.46113 0
M  V30 31473 C 2903.65 -0.568757 -4.24204 0
M  V30 31474 C 2902.97 0.303112 -5.3384 0
M  V30 31475 C 2904.27 -1.83642 -4.88951 0
M  V30 31476 H 2905.97 -1.30843 -2.69296 0
M  V30 31477 H 2903.51 -0.630602 -1.29458 0
M  V30 31478 H 2905.47 0.632726 -4.16623 0
M  V30 31479 H 2904.19 1.17409 -3.04767 0
M  V30 31480 H 2902.85 -0.897323 -3.55449 0
M  V30 31481 H 2902.5 1.18938 -4.88736 0
M  V30 31482 H 2902.2 -0.265983 -5.86998 0
M  V30 31483 H 2903.72 0.644316 -6.07191 0
M  V30 31484 H 2905.13 -1.55833 -5.51715 0
M  V30 31485 H 2903.53 -2.3495 -5.52194 0
M  V30 31486 H 2904.6 -2.55219 -4.123 0
M  V30 31487 N 2905.94 1.41194 -0.700139 0
M  V30 31488 C 2907.36 1.55201 -0.372142 0
M  V30 31489 C 2907.56 1.67472 1.1205 0
M  V30 31490 O 2906.62 1.65569 1.90639 0
M  V30 31491 C 2907.93 2.78876 -1.12467 0
M  V30 31492 C 2909.48 2.92677 -1.10946 0
M  V30 31493 C 2909.95 4.19245 -1.84383 0
M  V30 31494 N 2911.44 4.26213 -1.81375 0
M  V30 31495 C 2912.18 5.23017 -2.35033 0
M  V30 31496 N 2911.67 6.25824 -2.97181 0
M  V30 31497 N 2913.47 5.14988 -2.25263 0
M  V30 31498 H 2905.62 1.31474 -1.66818 0
M  V30 31499 H 2907.88 0.634632 -0.704235 0
M  V30 31500 H 2907.59 2.76033 -2.17942 0
M  V30 31501 H 2907.46 3.7053 -0.706217 0
M  V30 31502 H 2909.85 2.95033 -0.0629628 0
M  V30 31503 H 2909.93 2.02184 -1.56701 0
M  V30 31504 H 2909.57 4.17651 -2.89015 0
M  V30 31505 H 2909.5 5.08719 -1.36059 0
M  V30 31506 H 2911.99 3.52553 -1.36069 0
M  V30 31507 H 2912.31 6.96088 -3.3568 0
M  V30 31508 H 2910.65 6.26312 -3.0126 0
M  V30 31509 H 2913.84 4.33599 -1.76379 0
M  V30 31510 H 2914.02 5.90263 -2.67383 0
M  V30 31511 N 2907.42 0.445212 1.51181 0
M  V30 31512 C 2908.84 0.0979234 1.59299 0
M  V30 31513 C 2909.04 -1.39343 1.45553 0
M  V30 31514 O 2908.09 -2.16417 1.30077 0
M  V30 31515 C 2909.41 0.625057 2.94132 0
M  V30 31516 C 2910.96 0.586191 3.07462 0
M  V30 31517 C 2911.43 1.09043 4.4483 0
M  V30 31518 N 2912.92 1.04875 4.51171 0
M  V30 31519 C 2913.66 1.40969 5.55801 0
M  V30 31520 N 2913.15 1.84387 6.67812 0
M  V30 31521 N 2914.95 1.32736 5.46203 0
M  V30 31522 H 2907.1 1.41547 1.58361 0
M  V30 31523 H 2909.36 0.583773 0.746936 0
M  V30 31524 H 2909.07 1.66881 3.09586 0
M  V30 31525 H 2908.94 0.0542925 3.77161 0
M  V30 31526 H 2911.33 -0.448594 2.9167 0
M  V30 31527 H 2911.41 1.19345 2.26253 0
M  V30 31528 H 2911.05 2.12372 4.61368 0
M  V30 31529 H 2910.98 0.459631 5.2459 0
M  V30 31530 H 2913.47 0.729997 3.70782 0
M  V30 31531 H 2913.79 2.10145 7.43679 0
M  V30 31532 H 2912.13 1.8832 6.69 0
M  V30 31533 H 2915.32 0.986758 4.57581 0
M  V30 31534 H 2915.49 1.61193 6.27631 0
M  V30 31535 N 2908.9 -1.56605 0.176849 0
M  V30 31536 C 2910.18 -1.88744 -0.513332 0
M  V30 31537 C 2910.56 -1.0876 -1.80927 0
M  V30 31538 O 2909.91 -0.183167 -2.27765 0
M  V30 31539 C 2910.12 -3.40849 -0.749865 0
M  V30 31540 C 2911.46 -4.10703 -1.0774 0
M  V30 31541 O 2912.49 -3.46197 -0.838216 0
M  V30 31542 O 2911.35 -5.24677 -1.52892 0
M  V30 31543 H 2908.44 -0.783297 -0.265283 0
M  V30 31544 H 2910.99 -1.68324 0.215698 0
M  V30 31545 H 2909.76 -3.90947 0.166058 0
M  V30 31546 H 2909.38 -3.66899 -1.53201 0
M  V30 31547 N 2910.38 0.0968524 -1.57302 0
M  V30 31548 C 2911.33 1.11762 -2.01935 0
M  V30 31549 C 2912.3 1.39902 -0.895354 0
M  V30 31550 O 2913.48 1.51395 -1.16122 0
M  V30 31551 C 2910.62 2.43313 -2.4473 0
M  V30 31552 C 2909.73 2.21919 -3.70643 0
M  V30 31553 C 2908.87 3.46855 -4.02324 0
M  V30 31554 C 2907.91 3.20716 -5.21352 0
M  V30 31555 N 2907.04 4.37914 -5.48795 0
M  V30 31556 H 2911.88 0.730024 -2.8892 0
M  V30 31557 H 2909.42 0.348937 -1.42902 0
M  V30 31558 H 2911.38 3.20084 -2.67586 0
M  V30 31559 H 2910.01 2.79923 -1.60758 0
M  V30 31560 H 2909.06 1.35959 -3.55274 0
M  V30 31561 H 2910.37 1.98595 -4.57561 0
M  V30 31562 H 2909.53 4.32035 -4.25947 0
M  V30 31563 H 2908.27 3.73232 -3.13925 0
M  V30 31564 H 2907.27 2.33929 -4.97551 0
M  V30 31565 H 2908.5 2.95687 -6.11348 0
M  V30 31566 H 2906.44 4.6437 -4.63354 0
M  V30 31567 H 2906.36 4.17774 -6.3008 0
M  V30 31568 H 2907.63 5.24163 -5.76952 0
M  V30 31569 N 2911.86 1.53252 0.36763 0
M  V30 31570 C 2913.08 1.73546 1.13562 0
M  V30 31571 C 2913.51 0.462376 1.82329 0
M  V30 31572 O 2912.86 -0.583442 1.71656 0
M  V30 31573 C 2912.91 2.90001 2.14317 0
M  V30 31574 O 2912.02 2.58467 3.21355 0
M  V30 31575 H 2911.36 0.576418 0.329604 0
M  V30 31576 H 2913.89 2.00129 0.425382 0
M  V30 31577 H 2913.9 3.16108 2.57953 0
M  V30 31578 H 2912.57 3.82347 1.63657 0
M  V30 31579 H 2911.15 2.4317 2.82706 0
M  V30 31580 N 2913.34 -0.627313 1.44577 0
M  V30 31581 C 2914.75 -1.209 1.42268 0
M  V30 31582 C 2915.1 -1.957 0.139998 0
M  V30 31583 O 2914.22 -2.02636 -0.759454 0
M  V30 31584 C 2914.82 -2.1991 2.57731 0
M  V30 31585 C 2913.38 -2.73498 2.58604 0
M  V30 31586 C 2912.52 -1.4856 2.34148 0
M  V30 31587 H 2915.47 -0.417764 1.53103 0
M  V30 31588 H 2915.5 -3.02584 2.30702 0
M  V30 31589 H 2915.01 -1.65441 3.51071 0
M  V30 31590 H 2913.11 -3.31959 1.69216 0
M  V30 31591 H 2913.22 -3.19276 3.57211 0
M  V30 31592 H 2911.59 -1.76826 1.83316 0
M  V30 31593 H 2912.37 -0.959877 3.29608 0
M  V30 31594 N 2914.81 -1.31539 -0.868063 0
M  V30 31595 C 2916.06 -1.21094 -1.61805 0
M  V30 31596 C 2916.38 0.230589 -1.93632 0
M  V30 31597 O 2915.65 1.1518 -1.58462 0
M  V30 31598 H 2914.23 -0.445189 -0.599846 0
M  V30 31599 H 2916.89 -1.64889 -1.03912 0
M  V30 31600 H 2915.99 -1.78401 -2.56085 0
M  V30 31601 N 2916.29 1.08262 -1.1453 0
M  V30 31602 C 2917.71 1.32749 -0.886 0
M  V30 31603 C 2917.91 1.95892 0.472062 0
M  V30 31604 O 2916.96 2.2129 1.21602 0
M  V30 31605 C 2918.28 2.2276 -2.01986 0
M  V30 31606 C 2919.82 2.36236 -2.05333 0
M  V30 31607 C 2920.3 3.2959 -3.18016 0
M  V30 31608 N 2921.79 3.37168 -3.17604 0
M  V30 31609 C 2922.53 4.09437 -4.01434 0
M  V30 31610 N 2922.02 4.84401 -4.95306 0
M  V30 31611 N 2923.81 4.05283 -3.89489 0
M  V30 31612 H 2915.97 0.656572 -2.01997 0
M  V30 31613 H 2918.23 0.351869 -0.88028 0
M  V30 31614 H 2917.93 1.8361 -2.99967 0
M  V30 31615 H 2917.81 3.23231 -1.94426 0
M  V30 31616 H 2920.2 2.74644 -1.07957 0
M  V30 31617 H 2920.28 1.35502 -2.16963 0
M  V30 31618 H 2919.92 2.91903 -4.15638 0
M  V30 31619 H 2919.85 4.30256 -3.03623 0
M  V30 31620 H 2922.34 2.83726 -2.49615 0
M  V30 31621 H 2922.65 5.37012 -5.55732 0
M  V30 31622 H 2921 4.83449 -4.99302 0
M  V30 31623 H 2924.19 3.45826 -3.15471 0
M  V30 31624 H 2924.36 4.61342 -4.55047 0
M  V30 31625 N 2917.77 0.940655 1.26449 0
M  V30 31626 C 2919.18 0.630683 1.75725 0
M  V30 31627 C 2919.53 -0.854136 1.76632 0
M  V30 31628 O 2918.66 -1.66845 1.3781 0
M  V30 31629 C 2919.25 1.13811 3.19112 0
M  V30 31630 C 2917.81 0.878561 3.66003 0
M  V30 31631 C 2916.96 1.28932 2.45503 0
M  V30 31632 H 2919.91 1.11902 1.12533 0
M  V30 31633 H 2919.93 0.491691 3.7731 0
M  V30 31634 H 2919.44 2.21879 3.1842 0
M  V30 31635 H 2917.54 -0.187768 3.72127 0
M  V30 31636 H 2917.66 1.5052 4.54841 0
M  V30 31637 H 2916.02 0.707756 2.44669 0
M  V30 31638 H 2916.8 2.37893 2.47512 0
M  V30 31639 N 2919.25 -1.40821 0.707617 0
M  V30 31640 C 2920.18 -2.33411 0.0645335 0
M  V30 31641 C 2921.16 -1.52467 -0.754179 0
M  V30 31642 O 2922.34 -1.80962 -0.704717 0
M  V30 31643 C 2919.47 -3.36386 -0.863806 0
M  V30 31644 C 2918.43 -4.27732 -0.151305 0
M  V30 31645 C 2917.75 -5.2118 -1.19482 0
M  V30 31646 C 2919.05 -5.12837 0.989697 0
M  V30 31647 H 2920.75 -2.87437 0.83788 0
M  V30 31648 H 2918.29 -1.38206 0.404371 0
M  V30 31649 H 2920.25 -4.00093 -1.32302 0
M  V30 31650 H 2918.97 -2.80737 -1.66896 0
M  V30 31651 H 2917.63 -3.65467 0.288001 0
M  V30 31652 H 2917.28 -4.6184 -1.99281 0
M  V30 31653 H 2916.98 -5.83135 -0.723021 0
M  V30 31654 H 2918.5 -5.87763 -1.6543 0
M  V30 31655 H 2919.92 -5.70043 0.610215 0
M  V30 31656 H 2918.31 -5.83795 1.38936 0
M  V30 31657 H 2919.38 -4.49288 1.82397 0
M  V30 31658 N 2920.73 -0.453223 -1.50943 0
M  V30 31659 C 2921.64 0.355922 -2.31884 0
M  V30 31660 C 2922.65 1.01285 -1.41483 0
M  V30 31661 O 2923.83 1.00474 -1.74548 0
M  V30 31662 C 2920.89 1.43363 -3.15671 0
M  V30 31663 C 2919.95 0.795179 -4.21871 0
M  V30 31664 C 2919.19 1.82153 -5.01653 0
M  V30 31665 O 2919.41 3.04583 -4.82271 0
M  V30 31666 O 2918.34 1.40325 -5.85314 0
M  V30 31667 H 2922.17 -0.305301 -3.02162 0
M  V30 31668 H 2919.75 -0.215424 -1.47839 0
M  V30 31669 H 2921.64 2.05829 -3.67712 0
M  V30 31670 H 2920.31 2.07865 -2.48141 0
M  V30 31671 H 2919.22 0.13204 -3.73867 0
M  V30 31672 H 2920.55 0.193398 -4.9182 0
M  V30 31673 N 2922.2 1.56509 -0.185151 0
M  V30 31674 C 2923.62 1.58683 0.170837 0
M  V30 31675 C 2923.82 1.201 1.61797 0
M  V30 31676 O 2922.88 0.919079 2.35179 0
M  V30 31677 C 2924.19 3.0045 -0.122512 0
M  V30 31678 C 2925.74 3.12939 -0.0618249 0
M  V30 31679 C 2926.21 4.56821 -0.32835 0
M  V30 31680 N 2927.7 4.62373 -0.276614 0
M  V30 31681 C 2928.44 5.71577 -0.456823 0
M  V30 31682 N 2927.93 6.89287 -0.696841 0
M  V30 31683 N 2929.73 5.60733 -0.391767 0
M  V30 31684 H 2921.88 1.79872 -1.1296 0
M  V30 31685 H 2924.14 0.834321 -0.450124 0
M  V30 31686 H 2923.85 3.33204 -1.12552 0
M  V30 31687 H 2923.72 3.72722 0.579513 0
M  V30 31688 H 2926.11 2.80003 0.931776 0
M  V30 31689 H 2926.19 2.43074 -0.796774 0
M  V30 31690 H 2925.83 4.90468 -1.31922 0
M  V30 31691 H 2925.76 5.24863 0.427373 0
M  V30 31692 H 2928.25 3.77775 -0.0973123 0
M  V30 31693 H 2928.57 7.68401 -0.823426 0
M  V30 31694 H 2926.91 6.91117 -0.733619 0
M  V30 31695 H 2930.1 4.67652 -0.204745 0
M  V30 31696 H 2930.28 6.45782 -0.535632 0
M  V30 31697 N 2923.68 -0.0885089 1.57351 0
M  V30 31698 C 2924.59 -1.12512 2.05859 0
M  V30 31699 C 2925.61 -1.4345 0.984783 0
M  V30 31700 O 2926.78 -1.53961 1.29839 0
M  V30 31701 C 2923.85 -2.42391 2.47886 0
M  V30 31702 C 2922.91 -2.18576 3.6949 0
M  V30 31703 C 2922.14 -3.42261 4.09503 0
M  V30 31704 O 2922.37 -4.50749 3.49544 0
M  V30 31705 O 2921.3 -3.3146 5.02412 0
M  V30 31706 H 2925.13 -0.743094 2.94469 0
M  V30 31707 H 2922.71 -0.301481 1.46327 0
M  V30 31708 H 2924.59 -3.18857 2.75515 0
M  V30 31709 H 2923.27 -2.80007 1.62412 0
M  V30 31710 H 2922.17 -1.39869 3.46969 0
M  V30 31711 H 2923.51 -1.85849 4.55764 0
M  V30 31712 N 2925.16 -1.53445 -0.359498 0
M  V30 31713 C 2926.11 -1.80312 -1.4407 0
M  V30 31714 C 2927.08 -0.647837 -1.52945 0
M  V30 31715 O 2928.26 -0.890644 -1.68737 0
M  V30 31716 C 2925.4 -2.0042 -2.80937 0
M  V30 31717 C 2924.51 -3.28137 -2.8098 0
M  V30 31718 C 2923.65 -3.384 -4.09462 0
M  V30 31719 C 2922.69 -4.60126 -4.03671 0
M  V30 31720 N 2921.83 -4.67509 -5.23813 0
M  V30 31721 H 2926.67 -2.72568 -1.2046 0
M  V30 31722 H 2924.2 -1.35018 -0.583836 0
M  V30 31723 H 2926.16 -2.10067 -3.60455 0
M  V30 31724 H 2924.79 -1.11494 -3.02934 0
M  V30 31725 H 2923.84 -3.27414 -1.9366 0
M  V30 31726 H 2925.15 -4.17737 -2.72575 0
M  V30 31727 H 2924.31 -3.47391 -4.97398 0
M  V30 31728 H 2923.05 -2.46827 -4.20628 0
M  V30 31729 H 2922.05 -4.5123 -3.14121 0
M  V30 31730 H 2923.28 -5.53046 -3.94102 0
M  V30 31731 H 2921.22 -3.7884 -5.35552 0
M  V30 31732 H 2921.14 -5.51022 -5.17601 0
M  V30 31733 H 2922.41 -4.80791 -6.13564 0
M  V30 31734 N 2926.64 0.619637 -1.44908 0
M  V30 31735 C 2927.86 1.4108 -1.52024 0
M  V30 31736 C 2928.29 1.87503 -0.149793 0
M  V30 31737 O 2927.65 1.59428 0.863275 0
M  V30 31738 C 2927.69 2.59951 -2.49916 0
M  V30 31739 O 2926.8 3.60177 -2.00863 0
M  V30 31740 H 2926.14 0.421675 -0.512919 0
M  V30 31741 H 2928.67 0.755249 -1.9015 0
M  V30 31742 H 2928.68 3.0735 -2.68329 0
M  V30 31743 H 2927.35 2.25509 -3.49454 0
M  V30 31744 H 2925.93 3.1951 -1.92271 0
M  V30 31745 N 2928.12 1.31997 0.861075 0
M  V30 31746 C 2929.53 1.19957 1.43063 0
M  V30 31747 C 2929.88 -0.190455 1.95273 0
M  V30 31748 O 2929 -1.08879 1.87014 0
M  V30 31749 C 2929.6 2.17164 2.60048 0
M  V30 31750 C 2928.16 2.09031 3.13022 0
M  V30 31751 C 2927.3 2.05892 1.85752 0
M  V30 31752 H 2930.26 1.43919 0.668809 0
M  V30 31753 H 2930.28 1.76643 3.37013 0
M  V30 31754 H 2929.79 3.18323 2.22018 0
M  V30 31755 H 2927.89 1.11098 3.55651 0
M  V30 31756 H 2928 2.98555 3.74702 0
M  V30 31757 H 2926.37 1.51036 2.05086 0
M  V30 31758 H 2927.15 3.08821 1.49948 0
M  V30 31759 N 2929.59 -1.07653 1.15103 0
M  V30 31760 C 2930.84 -1.79834 0.92218 0
M  V30 31761 C 2931.16 -1.87015 -0.552314 0
M  V30 31762 O 2930.43 -1.36882 -1.40143 0
M  V30 31763 H 2929.01 -0.666058 0.338194 0
M  V30 31764 H 2931.68 -1.30113 1.45109 0
M  V30 31765 H 2930.77 -2.82395 1.32888 0
M  V30 31766 N 2931.07 -0.947348 -1.25949 0
M  V30 31767 C 2932.49 -0.650622 -1.45736 0
M  V30 31768 C 2932.69 0.794155 -1.8519 0
M  V30 31769 O 2931.74 1.57019 -1.9774 0
M  V30 31770 C 2933.06 -1.61732 -2.53502 0
M  V30 31771 C 2934.61 -1.6277 -2.67348 0
M  V30 31772 C 2935.08 -2.58186 -3.78291 0
M  V30 31773 N 2936.57 -2.56507 -3.85692 0
M  V30 31774 C 2937.31 -3.27018 -4.71006 0
M  V30 31775 N 2936.8 -4.06976 -5.60662 0
M  V30 31776 N 2938.6 -3.1594 -4.64907 0
M  V30 31777 H 2930.75 -1.88112 -0.986294 0
M  V30 31778 H 2933.01 -0.808734 -0.494625 0
M  V30 31779 H 2932.72 -2.64895 -2.31352 0
M  V30 31780 H 2932.59 -1.37416 -3.51278 0
M  V30 31781 H 2934.98 -0.603292 -2.88867 0
M  V30 31782 H 2935.06 -1.91142 -1.69995 0
M  V30 31783 H 2934.7 -3.60748 -3.57523 0
M  V30 31784 H 2934.63 -2.27101 -4.75113 0
M  V30 31785 H 2937.12 -1.98453 -3.21597 0
M  V30 31786 H 2937.44 -4.57715 -6.22669 0
M  V30 31787 H 2935.78 -4.11076 -5.60394 0
M  V30 31788 H 2938.97 -2.52952 -3.93869 0
M  V30 31789 H 2939.14 -3.71159 -5.31174 0
M  V30 31790 N 2932.55 1.40444 -0.715075 0
M  V30 31791 C 2933.48 2.28197 -0.0112827 0
M  V30 31792 C 2934.46 1.4331 0.768185 0
M  V30 31793 O 2935.65 1.72722 0.754931 0
M  V30 31794 C 2932.77 3.23866 0.991396 0
M  V30 31795 C 2931.82 4.25424 0.302798 0
M  V30 31796 S 2932.65 5.26661 -0.968945 0
M  V30 31797 C 2933.81 6.25892 0.0316438 0
M  V30 31798 H 2934.04 2.8754 -0.755518 0
M  V30 31799 H 2931.57 1.4587 -0.50608 0
M  V30 31800 H 2933.53 3.7951 1.56468 0
M  V30 31801 H 2932.19 2.63581 1.70833 0
M  V30 31802 H 2931.39 4.92711 1.06077 0
M  V30 31803 H 2930.99 3.73476 -0.197919 0
M  V30 31804 H 2933.28 6.71778 0.878646 0
M  V30 31805 H 2934.22 7.05486 -0.607822 0
M  V30 31806 H 2934.63 5.63115 0.395141 0
M  V30 31807 N 2934.03 0.461222 1.507 0
M  V30 31808 C 2934.96 -0.328144 2.31183 0
M  V30 31809 C 2935.94 -0.999384 1.37646 0
M  V30 31810 O 2937.12 -0.998451 1.66567 0
M  V30 31811 C 2934.25 -1.41615 3.17116 0
M  V30 31812 C 2933.21 -0.867074 4.19125 0
M  V30 31813 C 2932.53 -2.05263 4.93732 0
M  V30 31814 C 2933.83 0.1149 5.22174 0
M  V30 31815 H 2935.53 0.343553 2.97422 0
M  V30 31816 H 2933.07 0.166666 1.43032 0
M  V30 31817 H 2935.03 -1.97578 3.72211 0
M  V30 31818 H 2933.75 -2.11648 2.48742 0
M  V30 31819 H 2932.41 -0.329493 3.65116 0
M  V30 31820 H 2932.06 -2.73971 4.2184 0
M  V30 31821 H 2931.76 -1.69151 5.62727 0
M  V30 31822 H 2933.28 -2.61734 5.51659 0
M  V30 31823 H 2934.7 -0.355215 5.72198 0
M  V30 31824 H 2933.09 0.389794 5.98833 0
M  V30 31825 H 2934.16 1.044 4.73528 0
M  V30 31826 N 2935.51 -1.56408 0.193449 0
M  V30 31827 C 2936.73 -2.02358 -0.454517 0
M  V30 31828 C 2937.16 -1.07271 -1.54514 0
M  V30 31829 O 2936.51 -0.055928 -1.81214 0
M  V30 31830 C 2936.56 -3.46761 -0.989408 0
M  V30 31831 O 2935.67 -3.54787 -2.10238 0
M  V30 31832 H 2935.01 -0.655419 -0.106405 0
M  V30 31833 H 2937.54 -2.02331 0.303842 0
M  V30 31834 H 2937.55 -3.86518 -1.30643 0
M  V30 31835 H 2936.22 -4.15461 -0.19101 0
M  V30 31836 H 2934.8 -3.26903 -1.79413 0
M  V30 31837 N 2936.98 0.0801629 -1.57396 0
M  V30 31838 C 2938.21 0.794042 -1.91057 0
M  V30 31839 C 2938.63 1.71541 -0.788613 0
M  V30 31840 O 2937.98 1.80934 0.238555 0
M  V30 31841 C 2938.04 1.59478 -3.24421 0
M  V30 31842 O 2937.76 0.710456 -4.32301 0
M  V30 31843 C 2939.26 2.4104 -3.72041 0
M  V30 31844 H 2936.48 0.226227 -0.631714 0
M  V30 31845 H 2939.02 0.0529325 -2.04431 0
M  V30 31846 H 2937.18 2.28825 -3.12599 0
M  V30 31847 H 2937.59 1.26654 -5.08978 0
M  V30 31848 H 2939.06 2.92694 -4.68011 0
M  V30 31849 H 2939.54 3.20185 -3.0063 0
M  V30 31850 H 2940.15 1.76865 -3.8678 0
M  V30 31851 N 2938.46 1.53634 0.351355 0
M  V30 31852 C 2939.88 1.43723 0.693961 0
M  V30 31853 C 2940.08 0.587703 1.92739 0
M  V30 31854 O 2939.13 0.0756525 2.52387 0
M  V30 31855 C 2940.45 2.87107 0.893886 0
M  V30 31856 C 2942 2.96831 0.992999 0
M  V30 31857 C 2942.47 4.41305 1.2253 0
M  V30 31858 N 2943.96 4.44797 1.29267 0
M  V30 31859 C 2944.7 5.53709 1.48978 0
M  V30 31860 N 2944.19 6.7264 1.65912 0
M  V30 31861 N 2945.99 5.41309 1.51462 0
M  V30 31862 H 2938.14 2.07365 -0.459725 0
M  V30 31863 H 2940.4 0.937045 -0.143701 0
M  V30 31864 H 2940.11 3.5165 0.0591899 0
M  V30 31865 H 2939.98 3.31596 1.79789 0
M  V30 31866 H 2942.37 2.32432 1.81822 0
M  V30 31867 H 2942.45 2.55715 0.0660669 0
M  V30 31868 H 2942.09 5.06282 0.405028 0
M  V30 31869 H 2942.02 4.80007 2.16567 0
M  V30 31870 H 2944.51 3.59091 1.17737 0
M  V30 31871 H 2944.83 7.51409 1.80565 0
M  V30 31872 H 2943.17 6.756 1.63063 0
M  V30 31873 H 2946.36 4.47354 1.3781 0
M  V30 31874 H 2946.53 6.26249 1.66482 0
M  V30 31875 N 2939.94 -0.611943 1.45234 0
M  V30 31876 C 2941.36 -0.932228 1.29544 0
M  V30 31877 C 2941.56 -2.00002 0.245265 0
M  V30 31878 O 2940.61 -2.49887 -0.362289 0
M  V30 31879 C 2941.93 -1.37729 2.67304 0
M  V30 31880 C 2943.47 -1.49173 2.75166 0
M  V30 31881 C 2943.95 -1.97056 4.1344 0
M  V30 31882 N 2945.44 -2.04297 4.15713 0
M  V30 31883 C 2946.17 -2.42559 5.1957 0
M  V30 31884 N 2945.67 -2.79821 6.33776 0
M  V30 31885 N 2947.46 -2.4286 5.06927 0
M  V30 31886 H 2939.61 0.0939052 2.12192 0
M  V30 31887 H 2941.88 -0.0206402 0.947775 0
M  V30 31888 H 2941.58 -0.66689 3.45319 0
M  V30 31889 H 2941.46 -2.34465 2.95476 0
M  V30 31890 H 2943.84 -2.19305 1.97457 0
M  V30 31891 H 2943.93 -0.50763 2.50713 0
M  V30 31892 H 2943.57 -1.27513 4.91633 0
M  V30 31893 H 2943.5 -2.96373 4.35283 0
M  V30 31894 H 2945.99 -1.78108 3.33296 0
M  V30 31895 H 2946.3 -3.07885 7.08821 0
M  V30 31896 H 2944.65 -2.77527 6.37184 0
M  V30 31897 H 2947.84 -2.13153 4.16753 0
M  V30 31898 H 2948.01 -2.72353 5.87986 0
M  V30 31899 N 2941.42 -1.32452 -0.854063 0
M  V30 31900 C 2942.33 -1.23437 -1.995 0
M  V30 31901 C 2943.34 -0.147858 -1.73371 0
M  V30 31902 O 2944.52 -0.368644 -1.97997 0
M  V30 31903 C 2941.59 -0.958387 -3.3319 0
M  V30 31904 C 2940.65 -2.1334 -3.72538 0
M  V30 31905 C 2939.88 -1.87049 -4.99848 0
M  V30 31906 O 2940.1 -0.813338 -5.64571 0
M  V30 31907 O 2939.04 -2.73171 -5.36341 0
M  V30 31908 H 2942.86 -2.19353 -2.10042 0
M  V30 31909 H 2940.45 -1.12348 -0.984804 0
M  V30 31910 H 2942.33 -0.820991 -4.13325 0
M  V30 31911 H 2941 -0.0293868 -3.23687 0
M  V30 31912 H 2939.91 -2.32627 -2.92977 0
M  V30 31913 H 2941.24 -3.04521 -3.86688 0
M  V30 31914 N 2942.9 1.07041 -1.15672 0
M  V30 31915 C 2944.31 1.31801 -0.900029 0
M  V30 31916 C 2944.51 1.96382 0.451258 0
M  V30 31917 O 2943.57 2.22567 1.19248 0
M  V30 31918 C 2944.88 2.20605 -2.04338 0
M  V30 31919 C 2946.43 2.34045 -2.07827 0
M  V30 31920 C 2946.91 3.26199 -3.21494 0
M  V30 31921 N 2948.4 3.3378 -3.21162 0
M  V30 31922 C 2949.13 4.05156 -4.05754 0
M  V30 31923 N 2948.63 4.7912 -5.00415 0
M  V30 31924 N 2950.42 4.01129 -3.93766 0
M  V30 31925 H 2942.57 0.63511 -2.02682 0
M  V30 31926 H 2944.83 0.342512 -0.883962 0
M  V30 31927 H 2944.54 1.80418 -3.01898 0
M  V30 31928 H 2944.41 3.21151 -1.97844 0
M  V30 31929 H 2946.8 2.73483 -1.10864 0
M  V30 31930 H 2946.88 1.33193 -2.18388 0
M  V30 31931 H 2946.53 2.87478 -4.18711 0
M  V30 31932 H 2946.46 4.27012 -3.0817 0
M  V30 31933 H 2948.95 2.81063 -2.52611 0
M  V30 31934 H 2949.26 5.31087 -5.61397 0
M  V30 31935 H 2947.61 4.78126 -5.04401 0
M  V30 31936 H 2950.8 3.42461 -3.19121 0
M  V30 31937 H 2950.97 4.5649 -4.59914 0
M  V30 31938 N 2944.38 0.954014 1.25445 0
M  V30 31939 C 2945.6 0.625164 1.97754 0
M  V30 31940 C 2946.03 -0.795757 1.70439 0
M  V30 31941 O 2945.38 -1.53801 0.959947 0
M  V30 31942 C 2945.43 0.889313 3.49462 0
M  V30 31943 O 2944.54 -0.0322032 4.12387 0
M  V30 31944 H 2943.88 0.237753 0.619975 0
M  V30 31945 H 2946.41 1.28044 1.5958 0
M  V30 31946 H 2946.42 0.815333 3.9977 0
M  V30 31947 H 2945.09 1.92493 3.68672 0
M  V30 31948 H 2943.67 0.093928 3.72782 0
M  V30 31949 N 2945.85 -1.40063 0.722513 0
M  V30 31950 C 2947.26 -1.83642 0.336539 0
M  V30 31951 C 2947.62 -1.60392 -1.12999 0
M  V30 31952 O 2946.74 -1.08845 -1.87034 0
M  V30 31953 C 2947.34 -3.33372 0.604044 0
M  V30 31954 C 2945.89 -3.75418 0.271703 0
M  V30 31955 C 2945.04 -2.63201 0.872945 0
M  V30 31956 H 2947.99 -1.29232 0.921131 0
M  V30 31957 H 2948.01 -3.80283 -0.128404 0
M  V30 31958 H 2947.53 -3.50262 1.67147 0
M  V30 31959 H 2945.63 -3.6412 -0.790391 0
M  V30 31960 H 2945.74 -4.73264 0.74554 0
M  V30 31961 H 2944.1 -2.52921 0.300475 0
M  V30 31962 H 2944.89 -2.82901 1.94478 0
M  V30 31963 N 2947.33 -0.469207 -1.50453 0
M  V30 31964 C 2948.58 0.0862627 -2.01916 0
M  V30 31965 C 2948.9 1.40386 -1.3534 0
M  V30 31966 O 2948.17 1.89461 -0.498129 0
M  V30 31967 H 2946.75 0.0348693 -0.746186 0
M  V30 31968 H 2949.41 -0.619199 -1.84802 0
M  V30 31969 H 2948.51 0.239134 -3.11183 0
M  V30 31970 N 2948.81 1.56303 -0.201741 0
M  V30 31971 C 2950.23 1.58855 0.153997 0
M  V30 31972 C 2950.43 1.2181 1.60514 0
M  V30 31973 O 2949.48 0.943971 2.34191 0
M  V30 31974 C 2950.79 3.00303 -0.154372 0
M  V30 31975 C 2952.34 3.12856 -0.0950128 0
M  V30 31976 C 2952.82 4.56448 -0.376783 0
M  V30 31977 N 2954.31 4.62054 -0.32564 0
M  V30 31978 C 2955.04 5.71061 -0.51742 0
M  V30 31979 N 2954.54 6.88509 -0.76991 0
M  V30 31980 N 2956.33 5.60286 -0.451219 0
M  V30 31981 H 2948.48 1.78664 -1.14861 0
M  V30 31982 H 2950.75 0.8295 -0.458948 0
M  V30 31983 H 2950.45 3.31992 -1.1608 0
M  V30 31984 H 2950.33 3.73315 0.539948 0
M  V30 31985 H 2952.71 2.80976 0.902026 0
M  V30 31986 H 2952.79 2.42216 -0.822511 0
M  V30 31987 H 2952.44 4.89041 -1.37117 0
M  V30 31988 H 2952.37 5.25287 0.37168 0
M  V30 31989 H 2954.86 3.7765 -0.137375 0
M  V30 31990 H 2955.17 7.67484 -0.904879 0
M  V30 31991 H 2953.52 6.903 -0.80688 0
M  V30 31992 H 2956.71 4.67409 -0.254335 0
M  V30 31993 H 2956.88 6.45178 -0.604095 0
M  V30 31994 N 2950.29 -0.0718147 1.57436 0
M  V30 31995 C 2951.22 -1.08567 2.06726 0
M  V30 31996 C 2952.2 -1.40369 0.960756 0
M  V30 31997 O 2953.38 -1.49997 1.23348 0
M  V30 31998 C 2950.51 -2.39912 2.51117 0
M  V30 31999 C 2949.47 -2.22462 3.65643 0
M  V30 32000 C 2948.79 -3.59191 3.96089 0
M  V30 32001 C 2950.09 -1.64587 4.9569 0
M  V30 32002 H 2951.79 -0.675518 2.9168 0
M  V30 32003 H 2949.33 -0.323496 1.40319 0
M  V30 32004 H 2951.29 -3.1113 2.84211 0
M  V30 32005 H 2950.01 -2.82907 1.63191 0
M  V30 32006 H 2948.67 -1.53685 3.32831 0
M  V30 32007 H 2948.32 -3.99756 3.05294 0
M  V30 32008 H 2948.02 -3.48354 4.73205 0
M  V30 32009 H 2949.54 -4.31839 4.31679 0
M  V30 32010 H 2950.96 -2.25671 5.27015 0
M  V30 32011 H 2949.35 -1.64447 5.77128 0
M  V30 32012 H 2950.42 -0.607355 4.81081 0
M  V30 32013 N 2951.77 -1.53818 -0.343203 0
M  V30 32014 C 2953.01 -1.7108 -1.08341 0
M  V30 32015 C 2953.34 -0.474166 -1.88632 0
M  V30 32016 O 2952.6 0.544083 -1.87985 0
M  V30 32017 C 2952.89 -2.92629 -2.0519 0
M  V30 32018 C 2952.56 -4.28219 -1.41208 0
M  V30 32019 C 2951.22 -4.65085 -1.23487 0
M  V30 32020 C 2953.57 -5.12447 -0.951183 0
M  V30 32021 C 2950.9 -5.83797 -0.582962 0
M  V30 32022 C 2953.25 -6.31824 -0.313181 0
M  V30 32023 C 2951.92 -6.67385 -0.123662 0
M  V30 32024 H 2951.19 -0.626028 -0.396447 0
M  V30 32025 H 2953.84 -1.88035 -0.362656 0
M  V30 32026 H 2952.14 -2.7028 -2.83648 0
M  V30 32027 H 2953.84 -3.03179 -2.62456 0
M  V30 32028 H 2950.43 -3.99203 -1.55998 0
M  V30 32029 H 2954.61 -4.84497 -1.07594 0
M  V30 32030 H 2949.87 -6.09923 -0.424747 0
M  V30 32031 H 2954.04 -6.96381 0.0520403 0
M  V30 32032 H 2951.67 -7.59232 0.383532 0
M  V30 32033 N 2953.24 0.604233 -1.45557 0
M  V30 32034 C 2954.15 1.74297 -1.57028 0
M  V30 32035 C 2955.17 1.67957 -0.454589 0
M  V30 32036 O 2956.35 1.88253 -0.715745 0
M  V30 32037 C 2953.41 3.10765 -1.53707 0
M  V30 32038 C 2952.47 3.28533 -2.76341 0
M  V30 32039 C 2951.7 4.58491 -2.73169 0
M  V30 32040 O 2951.93 5.41025 -1.80687 0
M  V30 32041 O 2950.86 4.79044 -3.64418 0
M  V30 32042 H 2954.69 1.67569 -2.53287 0
M  V30 32043 H 2952.27 0.768722 -1.28105 0
M  V30 32044 H 2954.15 3.92066 -1.54475 0
M  V30 32045 H 2952.83 3.17977 -0.606013 0
M  V30 32046 H 2951.74 2.46808 -2.81134 0
M  V30 32047 H 2953.07 3.262 -3.68584 0
M  V30 32048 N 2954.72 1.32903 0.847027 0
M  V30 32049 C 2956 1.14506 1.58581 0
M  V30 32050 C 2956.38 -0.291687 2.09075 0
M  V30 32051 O 2955.73 -1.28949 1.88638 0
M  V30 32052 C 2955.94 2.17921 2.72601 0
M  V30 32053 C 2957.28 2.51652 3.41989 0
M  V30 32054 O 2958.31 2.16525 2.82834 0
M  V30 32055 O 2957.17 3.11898 4.48756 0
M  V30 32056 H 2954.26 0.442357 0.698748 0
M  V30 32057 H 2956.81 1.44459 0.890491 0
M  V30 32058 H 2955.58 3.14463 2.3287 0
M  V30 32059 H 2955.2 1.89006 3.49803 0
M  V30 32060 N 2956.2 -1.06426 1.16238 0
M  V30 32061 C 2957.42 -1.83439 0.96772 0
M  V30 32062 C 2957.85 -1.81895 -0.479135 0
M  V30 32063 O 2957.21 -1.21878 -1.34222 0
M  V30 32064 C 2957.26 -3.28007 1.49811 0
M  V30 32065 O 2956.36 -4.06354 0.703553 0
M  V30 32066 H 2955.7 -0.567654 0.344478 0
M  V30 32067 H 2958.23 -1.34195 1.54444 0
M  V30 32068 H 2958.24 -3.78829 1.51502 0
M  V30 32069 H 2956.92 -3.28446 2.55139 0
M  V30 32070 H 2955.49 -3.65134 0.757051 0
M  V30 32071 N 2957.68 -0.960653 -1.24937 0
M  V30 32072 C 2958.9 -0.635643 -1.97419 0
M  V30 32073 C 2959.33 0.786707 -1.70858 0
M  V30 32074 O 2958.69 1.5329 -0.96809 0
M  V30 32075 C 2958.73 -0.907833 -3.48985 0
M  V30 32076 O 2957.84 0.0103328 -4.12399 0
M  V30 32077 H 2957.18 -0.241038 -0.618706 0
M  V30 32078 H 2959.71 -1.28889 -1.58899 0
M  V30 32079 H 2959.72 -0.836523 -3.99332 0
M  V30 32080 H 2958.39 -1.94446 -3.67646 0
M  V30 32081 H 2956.97 -0.113696 -3.72727 0
M  V30 32082 N 2959.16 1.39677 -0.729931 0
M  V30 32083 C 2960.57 1.54376 -0.404978 0
M  V30 32084 C 2960.77 1.69811 1.08473 0
M  V30 32085 O 2959.83 1.69575 1.87084 0
M  V30 32086 C 2961.14 2.76427 -1.18357 0
M  V30 32087 C 2962.69 2.90258 -1.17129 0
M  V30 32088 C 2963.16 4.1524 -1.93235 0
M  V30 32089 N 2964.66 4.22269 -1.90375 0
M  V30 32090 C 2965.39 5.17914 -2.46074 0
M  V30 32091 N 2964.89 6.19379 -3.10389 0
M  V30 32092 N 2966.68 5.10094 -2.36136 0
M  V30 32093 H 2958.83 1.27906 -1.6957 0
M  V30 32094 H 2961.09 0.619551 -0.717538 0
M  V30 32095 H 2960.8 2.71348 -2.23748 0
M  V30 32096 H 2960.67 3.68949 -0.784653 0
M  V30 32097 H 2963.06 2.94833 -0.125529 0
M  V30 32098 H 2963.14 1.98814 -1.60955 0
M  V30 32099 H 2962.79 4.11427 -2.97809 0
M  V30 32100 H 2962.72 5.05719 -1.46819 0
M  V30 32101 H 2965.21 3.49588 -1.43516 0
M  V30 32102 H 2965.52 6.88811 -3.5037 0
M  V30 32103 H 2963.86 6.19781 -3.14478 0
M  V30 32104 H 2967.06 4.2976 -1.85537 0
M  V30 32105 H 2967.23 5.84458 -2.79843 0
M  V30 32106 N 2960.63 0.47718 1.50202 0
M  V30 32107 C 2961.88 -0.0755534 2.01959 0
M  V30 32108 C 2962.2 -1.39666 1.36082 0
M  V30 32109 O 2961.47 -1.89194 0.508169 0
M  V30 32110 H 2960.05 -0.0309117 0.74636 0
M  V30 32111 H 2962.72 0.628991 1.84471 0
M  V30 32112 H 2961.81 -0.222628 3.11305 0
M  V30 32113 N 2962.11 -1.56194 0.210027 0
M  V30 32114 C 2963.53 -1.58935 -0.145571 0
M  V30 32115 C 2963.73 -1.22659 -1.59865 0
M  V30 32116 O 2962.78 -0.956378 -2.33687 0
M  V30 32117 C 2964.1 -3.00217 0.170296 0
M  V30 32118 C 2965.65 -3.12801 0.111603 0
M  V30 32119 C 2966.12 -4.56241 0.400985 0
M  V30 32120 N 2967.61 -4.61875 0.350139 0
M  V30 32121 C 2968.35 -5.70778 0.547698 0
M  V30 32122 N 2967.84 -6.88091 0.806412 0
M  V30 32123 N 2969.64 -5.60039 0.480926 0
M  V30 32124 H 2961.79 -1.78052 1.15807 0
M  V30 32125 H 2964.05 -0.827055 0.463341 0
M  V30 32126 H 2963.76 -3.31371 1.17839 0
M  V30 32127 H 2963.63 -3.73597 -0.520143 0
M  V30 32128 H 2966.02 -2.8145 -0.887112 0
M  V30 32129 H 2966.1 -2.41776 0.835345 0
M  V30 32130 H 2965.74 -4.88307 1.39709 0
M  V30 32131 H 2965.67 -5.25476 -0.343818 0
M  V30 32132 H 2968.16 -3.77572 0.157401 0
M  V30 32133 H 2968.48 -7.66993 0.945568 0
M  V30 32134 H 2966.82 -6.89863 0.843476 0
M  V30 32135 H 2970.01 -4.67267 0.279119 0
M  V30 32136 H 2970.18 -6.44849 0.638302 0
M  V30 32137 N 2963.59 0.0634645 -1.57472 0
M  V30 32138 C 2964.52 1.07469 -2.07298 0
M  V30 32139 C 2965.5 1.39858 -0.968186 0
M  V30 32140 O 2966.69 1.4934 -1.24141 0
M  V30 32141 C 2963.82 2.38577 -2.52385 0
M  V30 32142 C 2962.77 2.2052 -3.66817 0
M  V30 32143 C 2962.1 3.57085 -3.97988 0
M  V30 32144 C 2963.4 1.61956 -4.96556 0
M  V30 32145 H 2965.09 0.66004 -2.92034 0
M  V30 32146 H 2962.64 0.316049 -1.40489 0
M  V30 32147 H 2964.59 3.09619 -2.85857 0
M  V30 32148 H 2963.31 2.82037 -1.64689 0
M  V30 32149 H 2961.97 1.51918 -3.33641 0
M  V30 32150 H 2961.62 3.98131 -3.0741 0
M  V30 32151 H 2961.32 3.4584 -4.75046 0
M  V30 32152 H 2962.84 4.29544 -4.33963 0
M  V30 32153 H 2964.26 2.22873 -5.28205 0
M  V30 32154 H 2962.66 1.61384 -5.77992 0
M  V30 32155 H 2963.73 0.581834 -4.81397 0
M  V30 32156 N 2965.07 1.53998 0.33504 0
M  V30 32157 C 2966.48 1.63012 0.910162 0
M  V30 32158 C 2966.83 0.516843 1.8927 0
M  V30 32159 O 2965.96 -0.352085 2.13517 0
M  V30 32160 C 2966.55 2.95483 1.65756 0
M  V30 32161 C 2965.11 3.06732 2.18157 0
M  V30 32162 C 2964.26 2.58512 1.00334 0
M  V30 32163 H 2967.21 1.58298 0.112937 0
M  V30 32164 H 2967.23 2.85 2.52102 0
M  V30 32165 H 2966.74 3.76489 0.942204 0
M  V30 32166 H 2964.84 2.30377 2.92843 0
M  V30 32167 H 2964.95 4.12344 2.43945 0
M  V30 32168 H 2963.32 2.14126 1.37921 0
M  V30 32169 H 2964.1 3.41965 0.30248 0
M  V30 32170 N 2966.55 -0.596505 1.45875 0
M  V30 32171 C 2967.51 -1.6885 1.54991 0
M  V30 32172 C 2968.51 -1.5499 0.428329 0
M  V30 32173 O 2969.7 -1.59858 0.692186 0
M  V30 32174 C 2966.83 -3.08193 1.45705 0
M  V30 32175 H 2968.02 -1.6213 2.52297 0
M  V30 32176 H 2965.58 -0.813183 1.3348 0
M  V30 32177 H 2966.31 -3.2048 0.496261 0
M  V30 32178 H 2966.1 -3.19661 2.27067 0
M  V30 32179 H 2967.59 -3.87713 1.5514 0
M  V30 32180 N 2968.02 -1.3335 -0.839967 0
M  V30 32181 C 2969.27 -1.24498 -1.592 0
M  V30 32182 C 2969.59 0.189465 -1.94077 0
M  V30 32183 O 2968.86 1.11793 -1.6087 0
M  V30 32184 H 2967.44 -0.457812 -0.590268 0
M  V30 32185 H 2970.11 -1.67056 -1.00391 0
M  V30 32186 H 2969.2 -1.83793 -2.52243 0
M  V30 32187 N 2969.5 1.05808 -1.16801 0
M  V30 32188 C 2970.47 2.11574 -0.881433 0
M  V30 32189 C 2971.47 1.60308 0.125711 0
M  V30 32190 O 2972.66 1.73879 -0.105746 0
M  V30 32191 C 2969.79 3.39403 -0.319097 0
M  V30 32192 H 2970.98 2.38429 -1.81911 0
M  V30 32193 H 2968.53 1.21952 -0.977619 0
M  V30 32194 H 2969.27 3.182 0.626026 0
M  V30 32195 H 2969.05 3.77922 -1.04488 0
M  V30 32196 H 2970.54 4.17376 -0.136704 0
M  V30 32197 N 2970.98 0.967265 1.24426 0
M  V30 32198 C 2972.23 0.629846 1.92771 0
M  V30 32199 C 2972.56 -0.832797 1.75437 0
M  V30 32200 O 2971.83 -1.59911 1.10719 0
M  V30 32201 C 2972.12 1.00484 3.45796 0
M  V30 32202 C 2971.97 2.52414 3.723 0
M  V30 32203 C 2973.29 0.539076 4.36786 0
M  V30 32204 H 2970.41 0.230294 0.700095 0
M  V30 32205 H 2973.05 1.20619 1.46803 0
M  V30 32206 H 2971.2 0.514404 3.85079 0
M  V30 32207 H 2972.87 3.0893 3.42578 0
M  V30 32208 H 2971.12 2.95631 3.17466 0
M  V30 32209 H 2971.79 2.73702 4.79366 0
M  V30 32210 H 2974.26 0.959946 4.04876 0
M  V30 32211 H 2973.14 0.830022 5.42588 0
M  V30 32212 H 2973.4 -0.560846 4.38528 0
M  V30 32213 N 2972.46 -1.39288 0.737328 0
M  V30 32214 C 2973.88 -1.5416 0.413159 0
M  V30 32215 C 2974.08 -1.70384 -1.07571 0
M  V30 32216 O 2973.13 -1.70565 -1.86182 0
M  V30 32217 C 2974.44 -2.75796 1.19822 0
M  V30 32218 C 2975.99 -2.89633 1.18667 0
M  V30 32219 C 2976.47 -4.1421 1.95434 0
M  V30 32220 N 2977.96 -4.21254 1.92612 0
M  V30 32221 C 2978.69 -5.16602 2.48817 0
M  V30 32222 N 2978.19 -6.17724 3.13669 0
M  V30 32223 N 2979.98 -5.08835 2.38838 0
M  V30 32224 H 2972.13 -1.27005 1.70246 0
M  V30 32225 H 2974.4 -0.615737 0.720813 0
M  V30 32226 H 2974.1 -2.70157 2.25184 0
M  V30 32227 H 2973.98 -3.68527 0.804209 0
M  V30 32228 H 2976.36 -2.94762 0.141163 0
M  V30 32229 H 2976.44 -1.97958 1.62007 0
M  V30 32230 H 2976.09 -4.09842 2.99987 0
M  V30 32231 H 2976.02 -5.04933 1.49499 0
M  V30 32232 H 2978.51 -3.48822 1.45368 0
M  V30 32233 H 2978.82 -6.86943 3.54018 0
M  V30 32234 H 2977.17 -6.18105 3.1776 0
M  V30 32235 H 2980.36 -4.2877 1.87814 0
M  V30 32236 H 2980.53 -5.82966 2.82939 0
M  V30 32237 N 2973.94 -0.485139 -1.49947 0
M  V30 32238 C 2975.17 0.062246 -2.06806 0
M  V30 32239 C 2975.58 1.32253 -1.34739 0
M  V30 32240 O 2974.94 1.77581 -0.420867 0
M  V30 32241 C 2974.99 0.336033 -3.59935 0
M  V30 32242 O 2974.71 -0.874279 -4.29288 0
M  V30 32243 C 2976.21 0.928826 -4.3346 0
M  V30 32244 H 2973.43 -0.013359 -0.670867 0
M  V30 32245 H 2975.97 -0.677951 -1.92935 0
M  V30 32246 H 2974.13 1.02618 -3.73562 0
M  V30 32247 H 2974.54 -0.627424 -5.20734 0
M  V30 32248 H 2976.02 1.07008 -5.41529 0
M  V30 32249 H 2976.49 1.92258 -3.94884 0
M  V30 32250 H 2977.1 0.276631 -4.24399 0
M  V30 32251 N 2975.42 1.56081 -0.218307 0
M  V30 32252 C 2976.83 1.84432 0.290134 0
M  V30 32253 C 2977.18 1.13961 1.5971 0
M  V30 32254 O 2976.3 0.408187 2.12515 0
M  V30 32255 C 2976.9 3.34578 0.533191 0
M  V30 32256 C 2975.46 3.63258 0.985947 0
M  V30 32257 C 2974.6 2.7726 0.047231 0
M  V30 32258 H 2977.55 1.52433 -0.441575 0
M  V30 32259 H 2977.58 3.54608 1.37961 0
M  V30 32260 H 2977.09 3.8584 -0.418205 0
M  V30 32261 H 2975.19 3.17449 1.95081 0
M  V30 32262 H 2975.3 4.71271 0.862601 0
M  V30 32263 H 2973.67 2.48615 0.553428 0
M  V30 32264 H 2974.45 3.31319 -0.899024 0
M  V30 32265 N 2976.89 -0.0551124 1.57504 0
M  V30 32266 C 2977.82 -1.06368 2.07865 0
M  V30 32267 C 2978.8 -1.39342 0.97559 0
M  V30 32268 O 2979.99 -1.4868 1.24932 0
M  V30 32269 C 2977.12 -2.37235 2.53647 0
M  V30 32270 C 2976.07 -2.18572 3.67982 0
M  V30 32271 C 2975.4 -3.54969 3.99876 0
M  V30 32272 C 2976.7 -1.59321 4.97407 0
M  V30 32273 H 2978.39 -0.644544 2.9238 0
M  V30 32274 H 2975.94 -0.308595 1.40655 0
M  V30 32275 H 2977.89 -3.08098 2.87495 0
M  V30 32276 H 2976.62 -2.8116 1.66182 0
M  V30 32277 H 2975.28 -1.50146 3.34442 0
M  V30 32278 H 2974.92 -3.96495 3.09517 0
M  V30 32279 H 2974.62 -3.43315 4.76873 0
M  V30 32280 H 2976.15 -4.27237 4.36235 0
M  V30 32281 H 2977.56 -2.20069 5.29379 0
M  V30 32282 H 2975.96 -1.58316 5.7884 0
M  V30 32283 H 2977.03 -0.556296 4.81698 0
M  V30 32284 N 2978.37 -1.54173 -0.326869 0
M  V30 32285 C 2979.6 -1.76496 -1.08921 0
M  V30 32286 C 2980.02 -0.510555 -1.81039 0
M  V30 32287 O 2979.38 0.537725 -1.73142 0
M  V30 32288 C 2979.43 -2.95581 -2.06553 0
M  V30 32289 O 2978.53 -2.66896 -3.14389 0
M  V30 32290 H 2977.87 -0.584954 -0.314205 0
M  V30 32291 H 2980.4 -2.01187 -0.372172 0
M  V30 32292 H 2980.41 -3.22836 -2.49481 0
M  V30 32293 H 2979.09 -3.86552 -1.53462 0
M  V30 32294 H 2977.66 -2.5058 -2.76159 0
M  V30 32295 N 2979.85 0.58876 -1.4619 0
M  V30 32296 C 2980.78 1.71262 -1.52322 0
M  V30 32297 C 2981.79 1.57497 -0.412124 0
M  V30 32298 O 2982.98 1.65033 -0.680175 0
M  V30 32299 C 2980.08 3.09455 -1.38169 0
M  V30 32300 C 2979.26 3.49281 -2.6329 0
M  V30 32301 C 2978.32 4.6651 -2.43423 0
M  V30 32302 O 2977.34 4.72676 -3.17121 0
M  V30 32303 N 2978.54 5.61 -1.49197 0
M  V30 32304 H 2981.31 1.66458 -2.49222 0
M  V30 32305 H 2978.87 0.774576 -1.42169 0
M  V30 32306 H 2980.86 3.85664 -1.2266 0
M  V30 32307 H 2979.43 3.0866 -0.494733 0
M  V30 32308 H 2978.65 2.6284 -2.93783 0
M  V30 32309 H 2979.94 3.72653 -3.4642 0
M  V30 32310 H 2979.34 5.58748 -0.884125 0
M  V30 32311 H 2977.89 6.36663 -1.39653 0
M  V30 32312 N 2981.33 1.33794 0.832883 0
M  V30 32313 C 2982.57 1.25775 1.59086 0
M  V30 32314 C 2982.91 -0.174567 1.93414 0
M  V30 32315 O 2982.18 -1.11743 1.59197 0
M  V30 32316 C 2982.46 2.1389 2.89695 0
M  V30 32317 C 2982.32 3.65609 2.62011 0
M  V30 32318 C 2983.64 2.01661 3.91179 0
M  V30 32319 H 2980.76 0.458237 0.577224 0
M  V30 32320 H 2983.4 1.63952 0.960199 0
M  V30 32321 H 2981.55 1.81462 3.43517 0
M  V30 32322 H 2983.22 4.08357 2.14575 0
M  V30 32323 H 2981.46 3.87192 1.95614 0
M  V30 32324 H 2982.13 4.22616 3.55105 0
M  V30 32325 H 2984.61 2.30113 3.4668 0
M  V30 32326 H 2983.49 2.65556 4.80386 0
M  V30 32327 H 2983.75 0.990612 4.30859 0
M  V30 32328 N 2982.81 -1.05187 1.1736 0
M  V30 32329 C 2983.75 -2.15041 0.886565 0
M  V30 32330 C 2984.75 -1.68745 -0.148804 0
M  V30 32331 O 2985.95 -1.8 -0.00171959 0
M  V30 32332 H 2982.33 -0.70218 0.26916 0
M  V30 32333 H 2984.3 -2.36455 1.8202 0
M  V30 32334 C 2983.05 -3.45198 0.416394 0
M  V30 32335 H 2982.37 -3.81222 1.20456 0
M  V30 32336 H 2983.81 -4.23236 0.254436 0
M  V30 32337 C 2982.27 -3.25581 -0.865959 0
M  V30 32338 O 2982.8 -3.52148 -1.93274 0
M  V30 32339 N 2981.01 -2.78963 -0.81413 0
M  V30 32340 H 2980.55 -2.57543 0.0542071 0
M  V30 32341 H 2980.51 -2.66217 -1.67259 0
M  V30 32342 N 2984.28 -0.97385 -1.23911 0
M  V30 32343 C 2985.23 -0.508405 -2.25131 0
M  V30 32344 C 2986.2 0.449279 -1.59908 0
M  V30 32345 O 2987.39 0.35828 -1.87406 0
M  V30 32346 C 2984.53 0.189361 -3.4458 0
M  V30 32347 C 2983.64 -0.807813 -4.2438 0
M  V30 32348 C 2982.77 -0.0855248 -5.31131 0
M  V30 32349 C 2981.81 -1.07235 -6.02633 0
M  V30 32350 N 2980.95 -0.379658 -7.01073 0
M  V30 32351 H 2985.79 -1.37637 -2.64311 0
M  V30 32352 H 2983.33 -0.689825 -1.29922 0
M  V30 32353 H 2985.28 0.610661 -4.12707 0
M  V30 32354 H 2983.91 1.02124 -3.0622 0
M  V30 32355 H 2982.97 -1.34753 -3.55733 0
M  V30 32356 H 2984.28 -1.56006 -4.73776 0
M  V30 32357 H 2983.43 0.393466 -6.05423 0
M  V30 32358 H 2982.17 0.699376 -4.82659 0
M  V30 32359 H 2981.18 -1.56216 -5.2714 0
M  V30 32360 H 2982.4 -1.8578 -6.53194 0
M  V30 32361 H 2980.35 0.386154 -6.54862 0
M  V30 32362 H 2980.26 -1.07067 -7.4838 0
M  V30 32363 H 2981.53 0.0771614 -7.79462 0
M  V30 32364 N 2985.76 1.38895 -0.744705 0
M  V30 32365 C 2987.01 2.00608 -0.297359 0
M  V30 32366 C 2987.34 1.5897 1.11544 0
M  V30 32367 O 2986.62 0.823088 1.76226 0
M  V30 32368 C 2986.9 3.57756 -0.410188 0
M  V30 32369 C 2986.75 4.09384 -1.86345 0
M  V30 32370 C 2988.07 4.39638 0.201683 0
M  V30 32371 H 2985.19 0.728817 -0.109522 0
M  V30 32372 H 2987.83 1.64965 -0.942682 0
M  V30 32373 H 2985.98 3.8825 0.139219 0
M  V30 32374 H 2987.65 3.8957 -2.47049 0
M  V30 32375 H 2985.9 3.62582 -2.38153 0
M  V30 32376 H 2986.57 5.18504 -1.89361 0
M  V30 32377 H 2989.04 4.15244 -0.266776 0
M  V30 32378 H 2987.92 5.48822 0.0924451 0
M  V30 32379 H 2988.18 4.22894 1.28892 0
M  V30 32380 N 2987.24 0.493084 1.49688 0
M  V30 32381 C 2988.49 -0.0463434 2.03347 0
M  V30 32382 C 2988.84 -1.35418 1.36673 0
M  V30 32383 O 2988.13 -1.85209 0.490733 0
M  V30 32384 C 2988.33 -0.263473 3.56428 0
M  V30 32385 C 2988.16 1.02177 4.37938 0
M  V30 32386 C 2986.93 1.57133 4.80247 0
M  V30 32387 C 2989.13 1.92298 4.76997 0
M  V30 32388 N 2987.11 2.80331 5.46157 0
M  V30 32389 C 2988.48 3.00077 5.42544 0
M  V30 32390 C 2990.53 1.93072 4.58942 0
M  V30 32391 C 2989.24 4.08645 5.91947 0
M  V30 32392 C 2991.26 3.00611 5.09301 0
M  V30 32393 C 2990.62 4.07108 5.74842 0
M  V30 32394 H 2986.72 0.0236235 0.781643 0
M  V30 32395 H 2989.31 0.666184 1.82948 0
M  V30 32396 H 2987.48 -0.945051 3.76727 0
M  V30 32397 H 2989.21 -0.7992 3.9673 0
M  V30 32398 H 2985.97 1.11754 4.60226 0
M  V30 32399 H 2986.39 3.42955 5.83705 0
M  V30 32400 H 2991.03 1.12046 4.07683 0
M  V30 32401 H 2988.75 4.90474 6.42231 0
M  V30 32402 H 2992.34 3.02219 4.97147 0
M  V30 32403 H 2991.22 4.8895 6.13105 0
M  V30 32404 N 2988.72 -1.55963 0.226582 0
M  V30 32405 C 2990 -1.90281 -0.453025 0
M  V30 32406 C 2990.38 -1.14461 -1.77375 0
M  V30 32407 O 2989.72 -0.255536 -2.27067 0
M  V30 32408 C 2989.93 -3.43062 -0.641047 0
M  V30 32409 C 2991.28 -4.13923 -0.946192 0
M  V30 32410 O 2992.31 -3.48688 -0.727652 0
M  V30 32411 O 2991.16 -5.29276 -1.36122 0
M  V30 32412 H 2988.26 -0.79134 -0.240228 0
M  V30 32413 H 2990.8 -1.67552 0.26914 0
M  V30 32414 H 2989.58 -3.90221 0.290351 0
M  V30 32415 H 2989.2 -3.71588 -1.41451 0
M  V30 32416 N 2990.2 0.0467589 -1.57531 0
M  V30 32417 C 2991.13 1.08004 -2.02158 0
M  V30 32418 C 2992.14 1.3352 -0.931457 0
M  V30 32419 O 2993.33 1.31319 -1.20903 0
M  V30 32420 C 2990.43 2.42562 -2.36679 0
M  V30 32421 C 2989.6 2.36651 -3.67852 0
M  V30 32422 C 2988.66 3.53516 -3.8976 0
M  V30 32423 O 2987.69 3.33809 -4.61042 0
M  V30 32424 N 2988.89 4.74765 -3.34034 0
M  V30 32425 H 2991.66 0.699794 -2.91415 0
M  V30 32426 H 2989.22 0.235012 -1.60185 0
M  V30 32427 H 2991.21 3.19431 -2.48487 0
M  V30 32428 H 2989.78 2.72495 -1.53183 0
M  V30 32429 H 2989 1.44998 -3.66564 0
M  V30 32430 H 2990.29 2.29827 -4.53935 0
M  V30 32431 H 2989.68 4.93678 -2.76222 0
M  V30 32432 H 2988.24 5.49059 -3.51251 0
M  V30 32433 N 2991.67 1.54344 0.318688 0
M  V30 32434 C 2992.9 1.77071 1.07984 0
M  V30 32435 C 2993.32 0.520148 1.80765 0
M  V30 32436 O 2992.68 -0.528535 1.73425 0
M  V30 32437 C 2992.73 2.96673 2.04982 0
M  V30 32438 O 2991.83 2.68559 3.12969 0
M  V30 32439 H 2991.18 0.586612 0.311099 0
M  V30 32440 H 2993.71 2.01381 0.361497 0
M  V30 32441 H 2993.72 3.24155 2.47765 0
M  V30 32442 H 2992.39 3.8736 1.5141 0
M  V30 32443 H 2990.97 2.52041 2.74826 0
M  V30 32444 N 2993.15 -0.580999 1.465 0
M  V30 32445 C 2994.38 -1.37 1.55711 0
M  V30 32446 C 2994.8 -1.8704 0.199453 0
M  V30 32447 O 2994.16 -1.61661 -0.820702 0
M  V30 32448 C 2994.21 -2.53233 2.5672 0
M  V30 32449 O 2993.31 -3.54725 2.10342 0
M  V30 32450 H 2992.65 -0.407928 0.523919 0
M  V30 32451 H 2995.18 -0.704568 1.92086 0
M  V30 32452 H 2995.19 -3.00127 2.76383 0
M  V30 32453 H 2993.87 -2.16165 3.5531 0
M  V30 32454 H 2992.45 -3.14299 2.00674 0
M  V30 32455 N 2994.63 -1.34234 -0.825776 0
M  V30 32456 C 2995.88 -1.26617 -1.58417 0
M  V30 32457 C 2996.21 0.164307 -1.93504 0
M  V30 32458 O 2995.48 1.10897 -1.59787 0
M  V30 32459 C 2995.77 -2.15423 -2.88557 0
M  V30 32460 C 2995.62 -3.66994 -2.60068 0
M  V30 32461 C 2996.94 -2.03733 -3.90104 0
M  V30 32462 H 2994.06 -0.461292 -0.574786 0
M  V30 32463 H 2996.7 -1.64459 -0.95149 0
M  V30 32464 H 2994.85 -1.83281 -3.4255 0
M  V30 32465 H 2996.52 -4.09489 -2.12407 0
M  V30 32466 H 2994.77 -3.88224 -1.93558 0
M  V30 32467 H 2995.44 -4.24494 -3.52858 0
M  V30 32468 H 2997.91 -2.31948 -3.45455 0
M  V30 32469 H 2996.79 -2.681 -4.78971 0
M  V30 32470 H 2997.05 -1.01345 -4.30327 0
M  V30 32471 O 2996.15 0.964093 -1.29567 0
M  V30 32472 H 2996.84 1.59088 -1.10502 0
M  V30 END ATOM
M  V30 BEGIN BOND
M  V30 END BOND
M  V30 END CTAB
M  END
$$$$
