drugbank_target|Q54331 Cellulase B (DB02379; DB02467; DB04282)
 OpenBabel12092120033D

  0  0  0     0  0            999 V3000
M  V30 BEGIN CTAB
M  V30 COUNTS 5389 5464 0 0 0
M  V30 BEGIN ATOM
M  V30 1 H -0.908 1.98254 -0.117106 0
M  V30 2 N 0 1.576 0 0
M  V30 3 C 0.933 2.03868 1.02534 0
M  V30 4 C 1.911 0.928543 1.3348 0
M  V30 5 O 3.095 1.19667 1.45644 0
M  V30 6 C 0.222 2.43627 2.35294 0
M  V30 7 C -0.732 3.65373 2.2001 0
M  V30 8 S 0.101 5.13292 1.52614 0
M  V30 9 C 1.257 5.56322 2.86805 0
M  V30 10 H 1.49 2.90518 0.631377 0
M  V30 11 H -0.977 1.52953 0.210867 0
M  V30 12 H 0.981 2.67203 3.11629 0
M  V30 13 H -0.358 1.57376 2.7183 0
M  V30 14 H -1.165 3.90944 3.18086 0
M  V30 15 H -1.563 3.418 1.51819 0
M  V30 16 H 0.729 5.58782 3.83104 0
M  V30 17 H 1.672 6.56266 2.65933 0
M  V30 18 H 2.08 4.83886 2.90714 0
M  V30 19 N 1.4781 -0.272755 1.55222 0
M  V30 20 C 2.8941 -0.619959 1.47067 0
M  V30 21 C 3.0941 -1.895 0.684978 0
M  V30 22 O 2.1501 -2.51675 0.203931 0
M  V30 23 C 3.4631 -0.746693 2.91282 0
M  V30 24 C 5.0111 -0.840731 3.01497 0
M  V30 25 C 5.4861 -0.99924 4.46967 0
M  V30 26 N 6.9771 -1.06476 4.50796 0
M  V30 27 C 7.7121 -1.20621 5.6057 0
M  V30 28 N 7.2081 -1.31483 6.80209 0
M  V30 29 N 9.0011 -1.23733 5.48312 0
M  V30 30 H 1.1521 0.564606 2.04758 0
M  V30 31 H 3.4151 0.191177 0.928523 0
M  V30 32 H 3.1211 0.119753 3.51496 0
M  V30 33 H 2.9951 -1.6269 3.40311 0
M  V30 34 H 5.3821 -1.69764 2.41379 0
M  V30 35 H 5.4631 0.0640874 2.5572 0
M  V30 36 H 5.1071 -0.146984 5.07687 0
M  V30 37 H 5.0371 -1.91871 4.90401 0
M  V30 38 H 7.5281 -0.993196 3.64615 0
M  V30 39 H 7.8411 -1.42111 7.59621 0
M  V30 40 H 6.1861 -1.28487 6.8302 0
M  V30 41 H 9.3771 -1.14877 4.53785 0
M  V30 42 H 9.5501 -1.34412 6.33906 0
M  V30 43 N 2.9562 -1.48159 -0.537278 0
M  V30 44 C 4.1842 -1.59454 -1.31841 0
M  V30 45 C 4.5992 -0.252065 -1.8711 0
M  V30 46 O 3.9562 0.757621 -1.66031 0
M  V30 47 C 4.0072 -2.63546 -2.47439 0
M  V30 48 O 3.7282 -3.92583 -1.94449 0
M  V30 49 C 5.2292 -2.85212 -3.39366 0
M  V30 50 H 2.4492 -0.53785 -0.401196 0
M  V30 51 H 4.9932 -1.93932 -0.648891 0
M  V30 52 H 3.1482 -2.31946 -3.1029 0
M  V30 53 H 3.5622 -4.49629 -2.70063 0
M  V30 54 H 5.0362 -3.61863 -4.16844 0
M  V30 55 H 5.5132 -1.93765 -3.94147 0
M  V30 56 H 6.1192 -3.18086 -2.82314 0
M  V30 57 N 4.4343 0.785586 -1.36625 0
M  V30 58 C 5.3643 1.91259 -1.33949 0
M  V30 59 C 6.3453 1.68795 -0.210325 0
M  V30 60 O 7.5303 1.89854 -0.408561 0
M  V30 61 C 4.6603 3.28339 -1.13186 0
M  V30 62 C 3.6143 3.65335 -2.22967 0
M  V30 63 C 2.9403 5.00806 -1.87342 0
M  V30 64 C 4.2403 3.7352 -3.65075 0
M  V30 65 H 5.9343 1.93755 -2.28253 0
M  V30 66 H 3.4803 0.930788 -1.09874 0
M  V30 67 H 5.4333 4.06804 -1.09948 0
M  V30 68 H 4.1573 3.2624 -0.153332 0
M  V30 69 H 2.8163 2.89169 -2.25337 0
M  V30 70 H 2.4643 4.95233 -0.880545 0
M  V30 71 H 2.1643 5.26529 -2.60846 0
M  V30 72 H 3.6883 5.81687 -1.85667 0
M  V30 73 H 5.1023 4.42168 -3.64911 0
M  V30 74 H 3.4993 4.10731 -4.37516 0
M  V30 75 H 4.5693 2.74527 -3.99703 0
M  V30 76 N 5.9124 1.20967 1.01018 0
M  V30 77 C 7.3284 0.965905 1.27053 0
M  V30 78 C 7.5284 -0.350785 1.98423 0
M  V30 79 O 6.5844 -1.07773 2.28344 0
M  V30 80 C 7.8974 2.15294 2.09926 0
M  V30 81 C 9.4454 2.19463 2.23171 0
M  V30 82 C 9.9204 3.3767 3.09424 0
M  V30 83 N 11.4114 3.37724 3.17012 0
M  V30 84 C 12.1464 4.25837 3.83993 0
M  V30 85 N 11.6424 5.24138 4.53047 0
M  V30 86 N 13.4354 4.1366 3.80581 0
M  V30 87 H 5.5864 2.0565 0.531194 0
M  V30 88 H 7.8494 0.90024 0.297106 0
M  V30 89 H 7.5554 3.10684 1.64828 0
M  V30 90 H 7.4294 2.13923 3.10672 0
M  V30 91 H 9.8164 1.24632 2.6749 0
M  V30 92 H 9.8974 2.2488 1.21912 0
M  V30 93 H 9.5414 4.32791 2.65808 0
M  V30 94 H 9.4714 3.29491 4.10784 0
M  V30 95 H 11.9624 2.6658 2.6785 0
M  V30 96 H 12.2754 5.87684 5.01844 0
M  V30 97 H 10.6204 5.28068 4.5185 0
M  V30 98 H 13.8114 3.36127 3.25785 0
M  V30 99 H 13.9844 4.82538 4.32505 0
M  V30 100 N 7.3905 -1.2043 1.01659 0
M  V30 101 C 8.8015 -1.71517 0.737482 0
M  V30 102 C 9.1525 -1.81547 -0.743973 0
M  V30 103 O 8.2775 -1.47803 -1.58061 0
M  V30 104 C 8.8725 -3.11515 1.33206 0
M  V30 105 C 7.4315 -3.59912 1.10183 0
M  V30 106 C 6.5785 -2.37116 1.43776 0
M  V30 107 H 9.5295 -1.05444 1.18606 0
M  V30 108 H 9.5505 -3.73575 0.722636 0
M  V30 109 H 9.0625 -3.04182 2.41028 0
M  V30 110 H 7.1635 -3.72577 0.0412756 0
M  V30 111 H 7.2765 -4.44731 1.78188 0
M  V30 112 H 5.6405 -2.39857 0.856778 0
M  V30 113 H 6.4235 -2.32424 2.52654 0
M  V30 114 N 8.8686 -0.792821 -1.36206 0
M  V30 115 C 9.8006 -0.151469 -2.28699 0
M  V30 116 C 10.8136 0.641262 -1.49638 0
M  V30 117 O 12.0026 0.475885 -1.72039 0
M  V30 118 C 9.1026 0.808424 -3.29117 0
M  V30 119 C 8.2756 0.0650202 -4.37352 0
M  V30 120 C 7.3346 0.941358 -5.17711 0
M  V30 121 O 6.3606 0.397352 -5.67811 0
M  V30 122 N 7.5626 2.2652 -5.3448 0
M  V30 123 H 10.3276 -0.945982 -2.84379 0
M  V30 124 H 7.8886 -0.647032 -1.48409 0
M  V30 125 H 9.8806 1.3986 -3.79765 0
M  V30 126 H 8.4506 1.5038 -2.74052 0
M  V30 127 H 7.6706 -0.706255 -3.87822 0
M  V30 128 H 8.9586 -0.447847 -5.06825 0
M  V30 129 H 8.3566 2.73128 -4.95396 0
M  V30 130 H 6.9136 2.80493 -5.88359 0
M  V30 131 N 10.3467 1.47872 -0.545128 0
M  V30 132 C 11.3097 2.28337 0.198717 0
M  V30 133 C 12.3097 1.36255 0.853888 0
M  V30 134 O 13.4997 1.59003 0.711606 0
M  V30 135 C 10.6317 3.15585 1.28915 0
M  V30 136 H 11.8247 2.95567 -0.507941 0
M  V30 137 H 9.3777 1.53362 -0.301616 0
M  V30 138 H 10.1127 2.53019 2.02859 0
M  V30 139 H 9.8977 3.83337 0.824309 0
M  V30 140 H 11.3877 3.76243 1.81194 0
M  V30 141 N 11.8248 0.280983 1.55075 0
M  V30 142 C 13.2408 -0.0729964 1.59433 0
M  V30 143 C 13.4408 -1.5411 1.29817 0
M  V30 144 O 12.4968 -2.29086 1.06187 0
M  V30 145 C 13.8098 0.306921 2.9913 0
M  V30 146 C 15.3578 0.254023 3.11968 0
M  V30 147 C 15.8328 0.608467 4.5394 0
M  V30 148 N 17.3238 0.560241 4.59799 0
M  V30 149 C 18.0588 0.80722 5.6769 0
M  V30 150 N 17.5548 1.11912 6.83701 0
M  V30 151 N 19.3478 0.735623 5.57266 0
M  V30 152 H 11.4988 1.238 1.7259 0
M  V30 153 H 13.7618 0.500547 0.805082 0
M  V30 154 H 13.4678 1.32816 3.25657 0
M  V30 155 H 13.3418 -0.349363 3.75579 0
M  V30 156 H 15.7288 -0.75794 2.852 0
M  V30 157 H 15.8098 0.944649 2.37718 0
M  V30 158 H 15.4538 1.61814 4.81434 0
M  V30 159 H 15.3838 -0.104013 5.26497 0
M  V30 160 H 17.8748 0.329288 3.76463 0
M  V30 161 H 18.1878 1.29409 7.61888 0
M  V30 162 H 16.5328 1.15695 6.85303 0
M  V30 163 H 19.7238 0.491752 4.6551 0
M  V30 164 H 19.8968 0.931482 6.4127 0
M  V30 165 N 13.3029 -1.57598 0.00835791 0
M  V30 166 C 14.2659 -2.07884 -0.965242 0
M  V30 167 C 15.2659 -0.989825 -1.26725 0
M  V30 168 O 16.4559 -1.25218 -1.21104 0
M  V30 169 C 13.5879 -2.52731 -2.28779 0
M  V30 170 H 14.7809 -2.95178 -0.530112 0
M  V30 171 H 12.3339 -1.54458 -0.239283 0
M  V30 172 H 13.0689 -1.68705 -2.76964 0
M  V30 173 H 12.8539 -3.32272 -2.08177 0
M  V30 174 H 14.3439 -2.91933 -2.98605 0
M  V30 175 N 14.781 0.264519 -1.55364 0
M  V30 176 C 16.192 0.834936 -1.6699 0
M  V30 177 C 16.543 1.86718 -0.602552 0
M  V30 178 O 15.668 2.14899 0.254425 0
M  V30 179 C 16.263 1.5212 -3.02729 0
M  V30 180 C 14.822 2.03954 -3.16354 0
M  V30 181 C 13.969 0.884498 -2.62815 0
M  V30 182 H 16.92 0.0406869 -1.58648 0
M  V30 183 H 16.941 2.38853 -2.96191 0
M  V30 184 H 16.453 0.769668 -3.80392 0
M  V30 185 H 14.554 2.82041 -2.43482 0
M  V30 186 H 14.667 2.24902 -4.23032 0
M  V30 187 H 13.031 1.2802 -2.20188 0
M  V30 188 H 13.814 0.14634 -3.42988 0
M  V30 189 N 16.2591 1.48442 0.529413 0
M  V30 190 C 17.6751 1.34575 0.858004 0
M  V30 191 C 17.8751 0.3572 1.98309 0
M  V30 192 O 16.9311 -0.221379 2.51528 0
M  V30 193 C 18.2441 2.74617 1.22499 0
M  V30 194 C 19.7921 2.83109 1.33484 0
M  V30 195 C 20.2671 4.23854 1.73526 0
M  V30 196 N 21.7581 4.2653 1.80628 0
M  V30 197 C 22.4931 5.32372 2.12997 0
M  V30 198 N 21.9891 6.48491 2.43786 0
M  V30 199 N 23.7821 5.19766 2.14008 0
M  V30 200 H 15.9331 2.1133 -0.212925 0
M  V30 201 H 18.1961 0.947439 -0.0326199 0
M  V30 202 H 17.9021 3.4852 0.471905 0
M  V30 203 H 17.7761 3.08177 2.17501 0
M  V30 204 H 20.1631 2.09462 2.0787 0
M  V30 205 H 20.2441 2.53168 0.366027 0
M  V30 206 H 19.8881 4.98018 0.997013 0
M  V30 207 H 19.8181 4.5124 2.71459 0
M  V30 208 H 22.3091 3.42772 1.59108 0
M  V30 209 H 22.6221 7.24993 2.67592 0
M  V30 210 H 20.9671 6.51765 2.41304 0
M  V30 211 H 24.1581 4.28066 1.89412 0
M  V30 212 H 24.3311 6.02354 2.38902 0
M  V30 213 N 17.7372 -0.778329 1.37039 0
M  V30 214 C 18.9852 -1.53361 1.31623 0
M  V30 215 C 19.3062 -1.94739 -0.100831 0
M  V30 216 O 18.5762 -1.65797 -1.04347 0
M  V30 217 H 17.1562 -0.568794 0.484234 0
M  V30 218 H 19.8182 -0.926742 1.71457 0
M  V30 219 H 18.9142 -2.43606 1.95096 0
M  V30 220 N 19.2153 -1.21501 -1.00376 0
M  V30 221 C 20.1453 -0.999478 -2.11028 0
M  V30 222 C 21.1263 0.0759671 -1.6993 0
M  V30 223 O 22.3113 -0.0841106 -1.94018 0
M  V30 224 C 19.4413 -0.564709 -3.42678 0
M  V30 225 C 18.3953 -1.58486 -3.97576 0
M  V30 226 C 17.7213 -1.00628 -5.25146 0
M  V30 227 C 19.0213 -2.97204 -4.29496 0
M  V30 228 H 20.7153 -1.92495 -2.29317 0
M  V30 229 H 18.2613 -0.92693 -1.102 0
M  V30 230 H 20.2143 -0.401091 -4.19487 0
M  V30 231 H 18.9383 0.396411 -3.24185 0
M  V30 232 H 17.5973 -1.73606 -3.22888 0
M  V30 233 H 17.2453 -0.0368439 -5.02987 0
M  V30 234 H 16.9453 -1.68771 -5.62841 0
M  V30 235 H 18.4693 -0.854015 -6.04598 0
M  V30 236 H 19.8833 -2.8552 -4.97143 0
M  V30 237 H 18.2803 -3.62372 -4.78338 0
M  V30 238 H 19.3503 -3.47956 -3.3772 0
M  V30 239 N 20.6934 1.19889 -1.02296 0
M  V30 240 C 21.6234 2.25141 -0.619174 0
M  V30 241 C 22.6044 1.66051 0.368915 0
M  V30 242 O 23.7894 1.92546 0.252941 0
M  V30 243 C 20.9194 3.4728 0.0368783 0
M  V30 244 C 19.8734 4.19005 -0.872865 0
M  V30 245 C 19.1994 5.34637 -0.0822402 0
M  V30 246 C 20.4994 4.74452 -2.18387 0
M  V30 247 H 22.1934 2.59171 -1.49903 0
M  V30 248 H 19.7394 1.24579 -0.722222 0
M  V30 249 H 21.6924 4.20098 0.330958 0
M  V30 250 H 20.4164 3.12433 0.95149 0
M  V30 251 H 19.0754 3.48061 -1.15105 0
M  V30 252 H 18.7234 4.96034 0.83422 0
M  V30 253 H 18.4234 5.83557 -0.688149 0
M  V30 254 H 19.9474 6.10255 0.205238 0
M  V30 255 H 21.3614 5.39055 -1.95172 0
M  V30 256 H 19.7584 5.33834 -2.74119 0
M  V30 257 H 20.8284 3.92844 -2.84257 0
M  V30 258 N 22.1715 0.800033 1.35784 0
M  V30 259 C 23.1345 0.211565 2.28221 0
M  V30 260 C 24.1345 -0.59728 1.49296 0
M  V30 261 O 25.3245 -0.416721 1.69142 0
M  V30 262 C 22.4565 -0.705846 3.33513 0
M  V30 263 H 23.6495 1.02677 2.81776 0
M  V30 264 H 21.2025 0.570211 1.45528 0
M  V30 265 H 21.9375 -1.54498 2.85133 0
M  V30 266 H 21.7225 -0.127655 3.91892 0
M  V30 267 H 23.2125 -1.11211 4.02519 0
M  V30 268 N 23.6496 -1.47581 0.552962 0
M  V30 269 C 24.6126 -2.28439 -0.186605 0
M  V30 270 C 25.6126 -1.36706 -0.84665 0
M  V30 271 O 26.8026 -1.59378 -0.703164 0
M  V30 272 C 23.9346 -3.16264 -1.2724 0
M  V30 273 H 25.1276 -2.95294 0.523609 0
M  V30 274 H 22.6806 -1.532 0.309745 0
M  V30 275 H 23.4156 -2.54091 -2.01514 0
M  V30 276 H 23.2006 -3.83769 -0.803968 0
M  V30 277 H 24.6906 -3.77198 -1.79196 0
M  V30 278 N 25.1277 -0.289203 -1.54924 0
M  V30 279 C 26.0577 0.58549 -2.2604 0
M  V30 280 C 27.0387 1.14753 -1.25562 0
M  V30 281 O 28.2237 1.17906 -1.54311 0
M  V30 282 C 25.3537 1.76305 -2.99222 0
M  V30 283 C 24.3077 1.33191 -4.06748 0
M  V30 284 C 23.6337 2.5937 -4.6758 0
M  V30 285 C 24.9337 0.471775 -5.20165 0
M  V30 286 H 26.6277 -0.00763532 -2.99399 0
M  V30 287 H 24.1737 -0.00511229 -1.43999 0
M  V30 288 H 26.1267 2.38097 -3.47689 0
M  V30 289 H 24.8507 2.38223 -2.23422 0
M  V30 290 H 23.5097 0.737121 -3.59113 0
M  V30 291 H 23.1577 3.19576 -3.88433 0
M  V30 292 H 22.8577 2.31228 -5.40192 0
M  V30 293 H 24.3817 3.21985 -5.18804 0
M  V30 294 H 25.7957 0.995056 -5.64599 0
M  V30 295 H 24.1927 0.284639 -5.99425 0
M  V30 296 H 25.2627 -0.506041 -4.82252 0
M  V30 297 N 26.6058 1.57591 -0.0167156 0
M  V30 298 C 27.8538 1.90906 0.663285 0
M  V30 299 C 28.1748 0.892509 1.73376 0
M  V30 300 O 27.4448 -0.0677623 1.95783 0
M  V30 301 H 26.0248 0.704637 0.247983 0
M  V30 302 H 28.6868 1.94803 -0.0615909 0
M  V30 303 H 27.7828 2.9116 1.12393 0
M  V30 304 N 28.0839 -0.256276 1.55502 0
M  V30 305 C 29.0469 -1.30047 1.88734 0
M  V30 306 C 30.0469 -1.4154 0.763086 0
M  V30 307 O 31.2369 -1.40403 1.03115 0
M  V30 308 C 28.3689 -2.67953 2.10747 0
M  V30 309 H 29.5619 -1.01802 2.82093 0
M  V30 310 H 27.1149 -0.495134 1.4825 0
M  V30 311 H 27.8499 -3.01351 1.19825 0
M  V30 312 H 27.6349 -2.60993 2.92617 0
M  V30 313 H 29.1249 -3.43368 2.37673 0
M  V30 314 N 29.562 -1.4872 -0.521534 0
M  V30 315 C 30.808 -1.574 -1.27879 0
M  V30 316 C 31.141 -0.250817 -1.92573 0
M  V30 317 O 30.416 0.743934 -1.79711 0
M  V30 318 C 30.699 -2.71843 -2.36164 0
M  V30 319 C 30.552 -4.13893 -1.76105 0
M  V30 320 C 31.871 -2.82008 -3.37875 0
M  V30 321 H 28.99 -0.572941 -0.463581 0
M  V30 322 H 31.632 -1.80927 -0.580119 0
M  V30 323 H 29.782 -2.51914 -2.95756 0
M  V30 324 H 31.454 -4.45284 -1.20499 0
M  V30 325 H 29.697 -4.20498 -1.06601 0
M  V30 326 H 30.368 -4.89804 -2.5455 0
M  V30 327 H 32.844 -3.00086 -2.88249 0
M  V30 328 H 31.72 -3.63796 -4.11028 0
M  V30 329 H 31.981 -1.90511 -3.98946 0
M  V30 330 N 31.0401 0.771051 -1.3745 0
M  V30 331 C 31.9701 1.89827 -1.3597 0
M  V30 332 C 32.9511 1.68562 -0.228216 0
M  V30 333 O 34.1361 1.8941 -0.428675 0
M  V30 334 C 31.2661 3.2712 -1.16662 0
M  V30 335 C 30.2201 3.6295 -2.2683 0
M  V30 336 C 29.5461 4.98791 -1.92644 0
M  V30 337 C 30.8461 3.69627 -3.69017 0
M  V30 338 H 32.5401 1.91323 -2.30295 0
M  V30 339 H 30.0861 0.919082 -1.10855 0
M  V30 340 H 32.0391 4.05615 -1.14256 0
M  V30 341 H 30.7631 3.26059 -0.187926 0
M  V30 342 H 29.4221 2.86763 -2.28392 0
M  V30 343 H 29.0701 4.94271 -0.933021 0
M  V30 344 H 28.7701 5.23733 -2.66416 0
M  V30 345 H 30.2941 5.79685 -1.91826 0
M  V30 346 H 31.7081 4.38273 -3.69581 0
M  V30 347 H 30.1051 4.06067 -4.41848 0
M  V30 348 H 31.1751 2.70273 -4.02592 0
M  V30 349 N 32.5182 1.22032 0.997298 0
M  V30 350 C 33.4812 0.987909 2.06816 0
M  V30 351 C 34.4812 -0.0440084 1.6074 0
M  V30 352 O 35.6712 0.194053 1.73116 0
M  V30 353 C 32.8032 0.49132 3.37341 0
M  V30 354 H 33.9962 1.93803 2.28868 0
M  V30 355 H 31.5492 1.03838 1.16822 0
M  V30 356 H 32.2842 -0.463364 3.20973 0
M  V30 357 H 32.0692 1.23575 3.72118 0
M  V30 358 H 33.5592 0.348824 4.16141 0
M  V30 359 N 33.9963 -1.19345 1.0293 0
M  V30 360 C 34.9593 -2.20793 0.615069 0
M  V30 361 C 35.9593 -1.57553 -0.321533 0
M  V30 362 O 37.1493 -1.73862 -0.108483 0
M  V30 363 C 34.2813 -3.40754 -0.0999222 0
M  V30 364 H 35.4743 -2.58955 1.51269 0
M  V30 365 H 33.0273 -1.3303 0.820534 0
M  V30 366 H 33.7623 -3.0811 -1.01187 0
M  V30 367 H 33.5473 -3.87889 0.57309 0
M  V30 368 H 35.0373 -4.15898 -0.376645 0
M  V30 369 N 35.4744 -0.807222 -1.35358 0
M  V30 370 C 36.7214 -0.387888 -1.9875 0
M  V30 371 C 37.0494 1.04509 -1.64037 0
M  V30 372 O 36.3044 1.73986 -0.895946 0
M  V30 373 C 36.6034 -0.519036 -3.53611 0
M  V30 374 C 36.2694 -1.91542 -4.08194 0
M  V30 375 C 34.9314 -2.29745 -4.22813 0
M  V30 376 C 37.2834 -2.82896 -4.37744 0
M  V30 377 C 34.6114 -3.58668 -4.643 0
M  V30 378 C 36.9634 -4.11265 -4.8067 0
M  V30 379 C 35.6274 -4.49466 -4.93494 0
M  V30 380 H 34.8974 -0.141938 -0.727279 0
M  V30 381 H 37.5444 -1.02814 -1.6156 0
M  V30 382 H 35.8494 0.204658 -3.91265 0
M  V30 383 H 37.5464 -0.175345 -4.00616 0
M  V30 384 H 34.1364 -1.60862 -3.97268 0
M  V30 385 H 38.3204 -2.54629 -4.26002 0
M  V30 386 H 33.5764 -3.88113 -4.72418 0
M  V30 387 H 37.7504 -4.82153 -5.02496 0
M  V30 388 H 35.3774 -5.49418 -5.25399 0
M  V30 389 N 36.9525 1.47285 -0.560781 0
M  V30 390 C 37.9155 2.28535 0.174488 0
M  V30 391 C 38.9155 1.37153 0.839388 0
M  V30 392 O 40.1055 1.59748 0.694702 0
M  V30 393 C 37.2375 3.16934 1.25561 0
M  V30 394 H 38.4305 2.95012 -0.539262 0
M  V30 395 H 35.9835 1.53034 -0.317865 0
M  V30 396 H 36.7185 2.55157 2.00164 0
M  V30 397 H 36.5035 3.8419 0.783604 0
M  V30 398 H 37.9935 3.78143 1.77193 0
M  V30 399 N 38.4306 0.297415 1.54768 0
M  V30 400 C 39.3606 -0.573494 2.26348 0
M  V30 401 C 40.3416 -1.14085 1.26169 0
M  V30 402 O 41.5266 -1.17086 1.54934 0
M  V30 403 C 38.6566 -1.74716 3.00153 0
M  V30 404 C 37.6106 -1.31032 4.07449 0
M  V30 405 C 36.9366 -2.56887 4.68949 0
M  V30 406 C 38.2366 -0.444183 5.20408 0
M  V30 407 H 39.9306 0.0235131 2.99391 0
M  V30 408 H 37.4766 0.0127488 1.43994 0
M  V30 409 H 39.4296 -2.3625 3.48947 0
M  V30 410 H 38.1536 -2.37035 2.24682 0
M  V30 411 H 36.8126 -0.718066 3.59499 0
M  V30 412 H 36.4606 -3.17512 3.90122 0
M  V30 413 H 36.1606 -2.2836 5.41411 0
M  V30 414 H 37.6846 -3.19229 5.20505 0
M  V30 415 H 39.0986 -0.9651 5.65118 0
M  V30 416 H 37.4956 -0.252846 5.99567 0
M  V30 417 H 38.5656 0.531609 4.81977 0
M  V30 418 N 39.9087 -1.5758 0.0250728 0
M  V30 419 C 41.1547 -1.91917 -0.655413 0
M  V30 420 C 41.4877 -0.901433 -1.72011 0
M  V30 421 O 40.7627 0.0764069 -1.9435 0
M  V30 422 C 41.0457 -3.36751 -1.27558 0
M  V30 423 C 40.8987 -4.49258 -0.220719 0
M  V30 424 C 42.2177 -3.81469 -2.19475 0
M  V30 425 H 39.3367 -0.697925 -0.23679 0
M  V30 426 H 41.9787 -1.89825 0.0815036 0
M  V30 427 H 40.1287 -3.38664 -1.90365 0
M  V30 428 H 41.8007 -4.59478 0.409601 0
M  V30 429 H 40.0437 -4.31415 0.454264 0
M  V30 430 H 40.7147 -5.47618 -0.694175 0
M  V30 431 H 43.1907 -3.81266 -1.66659 0
M  V30 432 H 42.0667 -4.83512 -2.59822 0
M  V30 433 H 42.3277 -3.16744 -3.08424 0
M  V30 434 N 41.3868 0.248026 -1.55636 0
M  V30 435 C 42.6118 0.998028 -1.81808 0
M  V30 436 C 43.0368 1.78207 -0.601979 0
M  V30 437 O 42.3948 1.75653 0.448961 0
M  V30 438 C 42.4428 1.9125 -3.05705 0
M  V30 439 O 41.5468 3.00406 -2.82542 0
M  V30 440 H 40.8878 0.284045 -0.600179 0
M  V30 441 H 43.4178 0.269357 -2.02819 0
M  V30 442 H 43.4278 2.32737 -3.35108 0
M  V30 443 H 42.1028 1.33602 -3.93857 0
M  V30 444 H 40.6798 2.63056 -2.64303 0
M  V30 445 N 42.8649 1.48995 0.513639 0
M  V30 446 C 44.0899 1.61792 1.29762 0
M  V30 447 C 44.5149 0.284475 1.85936 0
M  V30 448 O 43.8729 -0.746185 1.65232 0
M  V30 449 C 43.9209 2.67993 2.41272 0
M  V30 450 O 43.0249 2.26287 3.44772 0
M  V30 451 H 42.3659 0.541963 0.38363 0
M  V30 452 H 44.8959 1.95097 0.616307 0
M  V30 453 H 44.9059 2.89772 2.87221 0
M  V30 454 H 43.5809 3.64791 1.9975 0
M  V30 455 H 42.1579 2.14788 3.04829 0
M  V30 456 N 44.343 -0.763751 1.37857 0
M  V30 457 C 45.273 -1.89103 1.36975 0
M  V30 458 C 46.254 -1.68439 0.237152 0
M  V30 459 O 47.439 -1.8918 0.438713 0
M  V30 460 C 44.569 -3.26496 1.18395 0
M  V30 461 C 43.523 -3.61741 2.28751 0
M  V30 462 C 42.849 -4.97762 1.95286 0
M  V30 463 C 44.149 -3.67665 3.70972 0
M  V30 464 H 45.843 -1.90099 2.31307 0
M  V30 465 H 43.389 -0.91319 1.11341 0
M  V30 466 H 45.342 -4.05003 1.16406 0
M  V30 467 H 44.066 -3.25955 0.205215 0
M  V30 468 H 42.725 -2.85547 2.29909 0
M  V30 469 H 42.373 -4.93769 0.959221 0
M  V30 470 H 42.073 -5.22313 2.69189 0
M  V30 471 H 43.597 -5.7866 1.94898 0
M  V30 472 H 45.011 -4.36307 3.719 0
M  V30 473 H 43.408 -4.03718 4.43995 0
M  V30 474 H 44.478 -2.68134 4.0402 0
M  V30 475 N 45.8211 -1.22559 -0.990812 0
M  V30 476 C 47.0671 -1.05297 -1.73322 0
M  V30 477 C 47.4001 0.410655 -1.89808 0
M  V30 478 O 46.6751 1.30439 -1.44277 0
M  V30 479 C 46.9581 -1.76713 -3.13759 0
M  V30 480 C 46.8111 -3.30684 -3.04907 0
M  V30 481 C 48.1301 -1.52121 -4.12974 0
M  V30 482 H 45.2491 -0.38392 -0.629106 0
M  V30 483 H 47.8911 -1.50926 -1.15418 0
M  V30 484 H 46.0411 -1.37924 -3.63193 0
M  V30 485 H 47.7131 -3.7893 -2.63077 0
M  V30 486 H 45.9561 -3.60253 -2.41661 0
M  V30 487 H 46.6271 -3.75833 -4.04294 0
M  V30 488 H 49.1031 -1.85819 -3.72304 0
M  V30 489 H 47.9791 -2.04582 -5.0935 0
M  V30 490 H 48.2401 -0.454257 -4.3976 0
M  V30 491 N 47.2992 1.18797 -1.03562 0
M  V30 492 C 48.5272 1.92599 -0.755869 0
M  V30 493 C 48.9422 1.75886 0.686271 0
M  V30 494 O 48.2992 1.08517 1.46732 0
M  V30 495 C 48.3502 3.44159 -1.10619 0
M  V30 496 O 48.0712 3.60341 -2.4917 0
M  V30 497 C 49.5722 4.3507 -0.850214 0
M  V30 498 H 46.7922 0.611587 -0.276048 0
M  V30 499 H 49.3362 1.50742 -1.38192 0
M  V30 500 H 47.4912 3.83823 -0.525194 0
M  V30 501 H 47.9052 4.54128 -2.62427 0
M  V30 502 H 49.3792 5.39989 -1.14523 0
M  V30 503 H 49.8562 4.38673 0.215176 0
M  V30 504 H 50.4622 4.01097 -1.41426 0
M  V30 505 N 48.7773 0.814389 1.34928 0
M  V30 506 C 49.7403 0.235759 2.27984 0
M  V30 507 C 50.7403 -0.581412 1.49921 0
M  V30 508 O 51.9303 -0.398758 1.69575 0
M  V30 509 C 49.0623 -0.670433 3.34242 0
M  V30 510 H 50.2553 1.05659 2.80671 0
M  V30 511 H 47.8083 0.585614 1.44915 0
M  V30 512 H 48.5433 -1.51466 2.86755 0
M  V30 513 H 48.3283 -0.0860822 3.92005 0
M  V30 514 H 49.8183 -1.06935 4.03676 0
M  V30 515 N 50.2554 -1.46986 0.568584 0
M  V30 516 C 51.2184 -2.28624 -0.162366 0
M  V30 517 C 52.2184 -1.37596 -0.832103 0
M  V30 518 O 53.4084 -1.60115 -0.68622 0
M  V30 519 C 50.5404 -3.17596 -1.23878 0
M  V30 520 H 51.7334 -2.94722 0.554899 0
M  V30 521 H 49.2864 -1.52863 0.325976 0
M  V30 522 H 50.0214 -2.56214 -1.98808 0
M  V30 523 H 49.8064 -3.846 -0.763219 0
M  V30 524 H 51.2964 -3.79078 -1.75185 0
M  V30 525 N 51.7335 -0.305618 -1.54608 0
M  V30 526 C 52.6965 0.555591 -2.22364 0
M  V30 527 C 53.6965 1.05768 -1.21119 0
M  V30 528 O 54.8865 0.952972 -1.45822 0
M  V30 529 C 52.0185 1.76974 -2.91364 0
M  V30 530 H 53.2115 -0.0364572 -2.99878 0
M  V30 531 H 50.7645 -0.0565007 -1.56198 0
M  V30 532 H 51.4995 2.40151 -2.17941 0
M  V30 533 H 51.2845 1.41732 -3.65588 0
M  V30 534 H 52.7745 2.38148 -3.43038 0
M  V30 535 N 53.2116 1.57565 -0.0334293 0
M  V30 536 C 54.6226 1.79746 0.504798 0
M  V30 537 C 54.9736 0.944091 1.71992 0
M  V30 538 O 54.0986 0.155694 2.15839 0
M  V30 539 C 54.6936 3.25997 0.922567 0
M  V30 540 C 53.2526 3.49159 1.40588 0
M  V30 541 C 52.3996 2.74785 0.372633 0
M  V30 542 H 55.3506 1.56565 -0.259436 0
M  V30 543 H 55.3716 3.35945 1.78666 0
M  V30 544 H 54.8836 3.88081 0.0379825 0
M  V30 545 H 52.9846 2.92332 2.31025 0
M  V30 546 H 53.0976 4.57873 1.41028 0
M  V30 547 H 51.4616 2.40391 0.841672 0
M  V30 548 H 52.2446 3.39587 -0.503559 0
M  V30 549 N 54.6897 -0.239769 1.55765 0
M  V30 550 C 55.6527 -1.28038 1.90103 0
M  V30 551 C 56.6527 -1.40723 0.778055 0
M  V30 552 O 57.8427 -1.39301 1.04599 0
M  V30 553 C 54.9747 -2.65702 2.13577 0
M  V30 554 H 56.1677 -0.988048 2.83157 0
M  V30 555 H 53.7207 -0.479382 1.48767 0
M  V30 556 H 54.4557 -3.00063 1.23015 0
M  V30 557 H 54.2407 -2.57875 2.95369 0
M  V30 558 H 55.7307 -3.40828 2.41301 0
M  V30 559 N 56.1678 -1.49265 -0.50573 0
M  V30 560 C 57.0998 -1.617 -1.62437 0
M  V30 561 C 58.1128 -0.499924 -1.54934 0
M  V30 562 O 59.3018 -0.771785 -1.60953 0
M  V30 563 C 56.4018 -1.5533 -3.01207 0
M  V30 564 C 55.5748 -2.8249 -3.33943 0
M  V30 565 C 54.6338 -2.69238 -4.52103 0
M  V30 566 O 53.6598 -3.43167 -4.5412 0
M  V30 567 N 54.8618 -1.80468 -5.51735 0
M  V30 568 H 57.6268 -2.58177 -1.52199 0
M  V30 569 H 55.1878 -1.46294 -0.693511 0
M  V30 570 H 57.1798 -1.44125 -3.78167 0
M  V30 571 H 55.7498 -0.667297 -3.05395 0
M  V30 572 H 54.9698 -3.08081 -2.45926 0
M  V30 573 H 56.2578 -3.66802 -3.5261 0
M  V30 574 H 55.6558 -1.19653 -5.52901 0
M  V30 575 H 54.2128 -1.75188 -6.27816 0
M  V30 576 N 57.6459 0.756429 -1.3826 0
M  V30 577 C 58.6089 1.85176 -1.35065 0
M  V30 578 C 59.6089 1.58818 -0.251703 0
M  V30 579 O 60.7989 1.66615 -0.508433 0
M  V30 580 C 57.9309 3.22596 -1.10201 0
M  V30 581 H 59.1239 1.89417 -2.3251 0
M  V30 582 H 56.6769 0.95783 -1.23512 0
M  V30 583 H 57.4119 3.24025 -0.133504 0
M  V30 584 H 57.1969 3.43122 -1.89762 0
M  V30 585 H 58.6869 4.02673 -1.10654 0
M  V30 586 N 59.124 1.23083 0.984299 0
M  V30 587 C 60.401 0.9689 1.69917 0
M  V30 588 C 60.781 -0.513604 2.04757 0
M  V30 589 O 60.129 -1.48383 1.73767 0
M  V30 590 C 60.339 1.87518 2.94343 0
M  V30 591 C 61.687 2.13636 3.6694 0
M  V30 592 O 62.711 1.85036 3.04368 0
M  V30 593 O 61.57 2.62119 4.79537 0
M  V30 594 H 58.664 0.365095 0.742048 0
M  V30 595 H 61.21 1.34107 1.03987 0
M  V30 596 H 59.982 2.87756 2.65164 0
M  V30 597 H 59.605 1.50514 3.6801 0
M  V30 598 N 60.6021 -1.18246 1.0419 0
M  V30 599 C 61.8301 -1.92195 0.766072 0
M  V30 600 C 62.2451 -1.76247 -0.676933 0
M  V30 601 O 61.6021 -1.09293 -1.46155 0
M  V30 602 C 61.6531 -3.43568 1.12442 0
M  V30 603 O 61.3741 -3.59015 2.51078 0
M  V30 604 C 62.8751 -4.34613 0.873275 0
M  V30 605 H 60.0951 -0.610114 0.279288 0
M  V30 606 H 62.6391 -1.50007 1.38989 0
M  V30 607 H 60.7941 -3.8354 0.545542 0
M  V30 608 H 61.2081 -4.5273 2.64831 0
M  V30 609 H 62.6821 -5.39374 1.17385 0
M  V30 610 H 63.1591 -4.38781 -0.191909 0
M  V30 611 H 63.7651 -4.00341 1.43551 0
M  V30 612 N 62.0802 -0.821533 -1.34494 0
M  V30 613 C 63.3082 -0.421884 -2.02553 0
M  V30 614 C 63.7232 0.971745 -1.61872 0
M  V30 615 O 63.0802 1.62864 -0.823496 0
M  V30 616 C 63.1312 -0.51285 -3.57844 0
M  V30 617 O 62.8522 -1.85155 -3.97051 0
M  V30 618 C 64.3532 -0.107921 -4.43169 0
M  V30 619 H 61.5732 -0.169482 -0.649243 0
M  V30 620 H 64.1172 -1.1093 -1.71798 0
M  V30 621 H 62.2722 0.126474 -3.87193 0
M  V30 622 H 62.6862 -1.82482 -4.91732 0
M  V30 623 H 64.1602 -0.222657 -5.51551 0
M  V30 624 H 64.6372 0.948401 -4.28838 0
M  V30 625 H 65.2432 -0.720989 -4.19144 0
M  V30 626 N 63.5583 1.46682 -0.576371 0
M  V30 627 C 64.8073 2.01619 -0.0572825 0
M  V30 628 C 65.1203 1.45417 1.30818 0
M  V30 629 O 66.3263 1.92133 1.91825 0
M  V30 630 C 64.7823 3.59863 -0.0518371 0
M  V30 631 C 64.3903 4.25059 -1.41523 0
M  V30 632 C 66.1343 4.2248 0.413639 0
M  V30 633 C 64.0413 5.75364 -1.36785 0
M  V30 634 H 62.9713 0.753794 -0.0176448 0
M  V30 635 H 65.6223 1.68481 -0.727076 0
M  V30 636 H 64.0043 3.90048 0.683994 0
M  V30 637 H 65.1783 4.06491 -2.17029 0
M  V30 638 H 63.4933 3.7451 -1.8202 0
M  V30 639 H 66.0903 5.3265 0.467779 0
M  V30 640 H 66.4333 3.90976 1.42982 0
M  V30 641 H 66.9663 3.96897 -0.267929 0
M  V30 642 H 63.7053 6.11518 -2.36063 0
M  V30 643 H 63.2253 5.96214 -0.654895 0
M  V30 644 H 64.9043 6.37955 -1.07805 0
M  V30 645 N 65.0364 0.313813 1.54444 0
M  V30 646 C 66.2764 -0.292389 2.02298 0
M  V30 647 C 66.6404 -1.50105 1.19719 0
M  V30 648 O 67.8414 -2.17947 1.5733 0
M  V30 649 C 66.1124 -0.627682 3.51845 0
M  V30 650 S 67.6714 -1.21493 4.21646 0
M  V30 651 H 64.4894 -0.0890247 0.705405 0
M  V30 652 H 67.0914 0.444668 1.90376 0
M  V30 653 H 65.7954 0.260265 4.09574 0
M  V30 654 H 65.3264 -1.39519 3.67829 0
M  V30 655 H 67.3414 -2.5022 4.28491 0
M  V30 656 N 66.5145 -1.57545 0.0417849 0
M  V30 657 C 67.4245 -2.14451 -0.951213 0
M  V30 658 C 68.4405 -1.09992 -1.34825 0
M  V30 659 O 69.6165 -1.42114 -1.42708 0
M  V30 660 C 66.6815 -2.67063 -2.21084 0
M  V30 661 C 65.7425 -3.86284 -1.87304 0
M  V30 662 C 64.9755 -4.36378 -3.07261 0
M  V30 663 O 65.1985 -3.85587 -4.20332 0
M  V30 664 O 64.1325 -5.28077 -2.88822 0
M  V30 665 H 67.9585 -2.99601 -0.497287 0
M  V30 666 H 65.5435 -1.48317 -0.179567 0
M  V30 667 H 67.4255 -3.00914 -2.95006 0
M  V30 668 H 66.1005 -1.84989 -2.65633 0
M  V30 669 H 65.0075 -3.57338 -1.10727 0
M  V30 670 H 66.3405 -4.6956 -1.47562 0
M  V30 671 N 67.9926 0.231505 -1.5589 0
M  V30 672 C 69.4036 0.799327 -1.68724 0
M  V30 673 C 69.7546 1.85398 -0.642022 0
M  V30 674 O 68.8796 2.1539 0.208784 0
M  V30 675 C 69.4746 1.45664 -3.05888 0
M  V30 676 C 68.0336 1.97197 -3.20609 0
M  V30 677 C 67.1806 0.828552 -2.64632 0
M  V30 678 H 70.1316 0.00702616 -1.58698 0
M  V30 679 H 70.1526 2.32517 -3.01191 0
M  V30 680 H 69.6646 0.688808 -3.81939 0
M  V30 681 H 67.7656 2.76813 -2.4941 0
M  V30 682 H 67.8786 2.15878 -4.27707 0
M  V30 683 H 66.2426 1.23321 -2.22854 0
M  V30 684 H 67.0256 0.0735544 -3.43221 0
M  V30 685 N 69.4707 1.49531 0.497807 0
M  V30 686 C 70.7177 1.59179 1.25173 0
M  V30 687 C 71.0457 0.279932 1.92475 0
M  V30 688 O 70.3007 -0.732383 1.81479 0
M  V30 689 C 70.5997 2.70252 2.33878 0
M  V30 690 C 70.2657 4.11644 1.84012 0
M  V30 691 C 68.9277 4.50121 1.70132 0
M  V30 692 C 71.2797 5.00121 1.46725 0
M  V30 693 C 68.6077 5.74845 1.17348 0
M  V30 694 C 70.9597 6.25366 0.95392 0
M  V30 695 C 69.6237 6.6267 0.801538 0
M  V30 696 H 68.8937 0.582478 0.45804 0
M  V30 697 H 71.5407 1.83373 0.551948 0
M  V30 698 H 69.8457 2.40041 3.09657 0
M  V30 699 H 71.5427 2.74925 2.9192 0
M  V30 700 H 68.1327 3.81274 1.95775 0
M  V30 701 H 72.3167 4.71048 1.56294 0
M  V30 702 H 67.5727 6.02444 1.04264 0
M  V30 703 H 71.7467 6.93301 0.656225 0
M  V30 704 H 69.3737 7.59197 0.390351 0
M  V30 705 N 70.9488 -0.749086 1.3866 0
M  V30 706 C 72.1968 -1.50535 1.34847 0
M  V30 707 C 72.5178 -1.94909 -0.0595016 0
M  V30 708 O 71.7878 -1.67973 -1.00806 0
M  V30 709 H 70.3678 -0.558395 0.49619 0
M  V30 710 H 73.0298 -0.890165 1.73384 0
M  V30 711 H 72.1258 -2.39413 2.00219 0
M  V30 712 N 72.4269 -1.23603 -0.977757 0
M  V30 713 C 73.6549 -1.09646 -1.75458 0
M  V30 714 C 74.0699 0.351859 -1.85492 0
M  V30 715 O 73.4269 1.24327 -1.336 0
M  V30 716 C 73.4779 -1.71895 -3.18016 0
M  V30 717 O 73.1989 -3.11063 -3.08498 0
M  V30 718 C 74.6999 -1.63415 -4.12081 0
M  V30 719 H 71.9199 -0.38359 -0.550545 0
M  V30 720 H 74.4639 -1.63507 -1.22824 0
M  V30 721 H 72.6189 -1.22061 -3.67668 0
M  V30 722 H 73.0329 -3.41305 -3.9826 0
M  V30 723 H 74.5069 -2.11669 -5.09804 0
M  V30 724 H 74.9839 -0.593462 -4.35172 0
M  V30 725 H 75.5899 -2.12628 -3.68334 0
M  V30 726 N 73.905 1.17692 -1.04816 0
M  V30 727 C 75.133 1.91786 -0.776254 0
M  V30 728 C 75.548 1.76604 0.667577 0
M  V30 729 O 74.905 1.10067 1.45573 0
M  V30 730 C 74.956 3.42967 -1.14263 0
M  V30 731 O 74.677 3.57678 -2.52978 0
M  V30 732 C 76.178 4.34144 -0.896311 0
M  V30 733 H 73.398 0.608624 -0.282519 0
M  V30 734 H 75.942 1.49268 -1.39783 0
M  V30 735 H 74.097 3.83245 -0.565874 0
M  V30 736 H 74.511 4.51319 -2.67229 0
M  V30 737 H 75.985 5.38744 -1.20244 0
M  V30 738 H 76.462 4.38876 0.168636 0
M  V30 739 H 77.068 3.99574 -1.45672 0
M  V30 740 N 75.3831 0.828654 1.34056 0
M  V30 741 C 76.6111 0.43262 2.02326 0
M  V30 742 C 77.0261 -0.963147 1.62385 0
M  V30 743 O 76.3831 -1.62425 0.832121 0
M  V30 744 C 76.4341 0.53182 3.57567 0
M  V30 745 O 76.1551 1.87258 3.96063 0
M  V30 746 C 77.6561 0.131422 4.43105 0
M  V30 747 H 74.8761 0.172923 0.648335 0
M  V30 748 H 77.4201 1.1184 1.71208 0
M  V30 749 H 75.5751 -0.105938 3.87255 0
M  V30 750 H 75.9891 1.85087 4.90758 0
M  V30 751 H 77.4631 0.251904 5.51425 0
M  V30 752 H 77.9401 -0.925645 4.29335 0
M  V30 753 H 78.5461 0.743207 4.18756 0
M  V30 754 N 76.8612 -1.46375 0.584142 0
M  V30 755 C 78.1102 -2.01585 0.0679741 0
M  V30 756 C 78.4232 -1.46109 -1.30045 0
M  V30 757 O 79.6292 -1.93148 -1.90804 0
M  V30 758 C 78.0852 -3.5983 0.0709207 0
M  V30 759 C 77.6932 -4.24303 1.43775 0
M  V30 760 C 79.4372 -4.22693 -0.391228 0
M  V30 761 C 77.3442 -5.74631 1.39834 0
M  V30 762 H 76.2742 -0.753689 0.0216421 0
M  V30 763 H 78.9252 -1.68093 0.736001 0
M  V30 764 H 77.3072 -3.90405 -0.663299 0
M  V30 765 H 78.4812 -4.05335 2.19181 0
M  V30 766 H 76.7962 -3.73539 1.84004 0
M  V30 767 H 79.3932 -5.3289 -0.439524 0
M  V30 768 H 79.7362 -3.91728 -1.40906 0
M  V30 769 H 80.2692 -3.96749 0.288974 0
M  V30 770 H 77.0082 -6.10258 2.39303 0
M  V30 771 H 76.5282 -5.95858 0.686505 0
M  V30 772 H 78.2072 -6.37375 1.11187 0
M  V30 773 N 78.3393 -0.321999 -1.54275 0
M  V30 774 C 79.2713 0.578671 -2.21775 0
M  V30 775 C 80.2843 1.08109 -1.21722 0
M  V30 776 O 81.4733 0.994938 -1.482 0
M  V30 777 C 78.5733 1.80661 -2.86731 0
M  V30 778 C 77.7463 1.44314 -4.12907 0
M  V30 779 C 76.8053 2.52845 -4.61472 0
M  V30 780 O 75.8313 2.17054 -5.2619 0
M  V30 781 N 77.0333 3.83748 -4.35566 0
M  V30 782 H 79.7983 0.000709447 -2.997 0
M  V30 783 H 77.3593 -0.145132 -1.61248 0
M  V30 784 H 79.3513 2.52655 -3.16145 0
M  V30 785 H 77.9213 2.29245 -2.12521 0
M  V30 786 H 77.1413 0.554906 -3.90275 0
M  V30 787 H 78.4293 1.17598 -4.95023 0
M  V30 788 H 77.8273 4.15625 -3.83761 0
M  V30 789 H 76.3843 4.51977 -4.69638 0
M  V30 790 N 79.8174 1.5752 -0.0501392 0
M  V30 791 C 81.0654 1.9227 0.622642 0
M  V30 792 C 81.3864 0.929083 1.71444 0
M  V30 793 O 80.6564 -0.0262186 1.95882 0
M  V30 794 H 79.2364 0.709739 0.232981 0
M  V30 795 H 81.8984 1.94628 -0.102898 0
M  V30 796 H 80.9944 2.93479 1.06191 0
M  V30 797 N 81.2955 -0.223234 1.56011 0
M  V30 798 C 82.7115 -0.572856 1.48965 0
M  V30 799 C 82.9115 -1.87225 0.74492 0
M  V30 800 O 81.9675 -2.50899 0.283896 0
M  V30 801 C 83.2805 -0.653646 2.9351 0
M  V30 802 C 84.8285 -0.744386 3.0402 0
M  V30 803 C 85.3035 -0.856535 4.49919 0
M  V30 804 N 86.7945 -0.9208 4.53955 0
M  V30 805 C 87.5295 -1.02726 5.64123 0
M  V30 806 N 87.0255 -1.09777 6.84047 0
M  V30 807 N 88.8185 -1.06226 5.51971 0
M  V30 808 H 80.9695 0.629462 2.02858 0
M  V30 809 H 83.2325 0.220621 0.921971 0
M  V30 810 H 82.9385 0.231518 3.50937 0
M  V30 811 H 82.8125 -1.51781 3.45315 0
M  V30 812 H 85.1995 -1.61999 2.46658 0
M  V30 813 H 85.2805 0.14541 2.55386 0
M  V30 814 H 84.9245 0.0146069 5.07898 0
M  V30 815 H 84.8545 -1.76172 4.96257 0
M  V30 816 H 87.3455 -0.876694 3.6759 0
M  V30 817 H 87.6585 -1.17872 7.63758 0
M  V30 818 H 86.0035 -1.06693 6.86762 0
M  V30 819 H 89.1945 -1.00382 4.5721 0
M  V30 820 H 89.3675 -1.14177 6.37862 0
M  V30 821 N 82.7736 -1.49793 -0.48987 0
M  V30 822 C 84.0036 -1.6333 -1.26518 0
M  V30 823 C 84.4116 -0.308392 -1.8667 0
M  V30 824 O 83.7546 0.717512 -1.69108 0
M  V30 825 C 83.8166 -2.6522 -2.4269 0
M  V30 826 C 83.4806 -4.09279 -2.03321 0
M  V30 827 C 84.4776 -4.95738 -1.56652 0
M  V30 828 C 82.1626 -4.55082 -2.12616 0
M  V30 829 C 84.1566 -6.26041 -1.19795 0
M  V30 830 C 81.8436 -5.85396 -1.75371 0
M  V30 831 C 82.8416 -6.707 -1.29036 0
M  V30 832 O 82.5296 -7.98584 -0.92299 0
M  V30 833 H 82.2616 -0.552502 -0.389509 0
M  V30 834 H 84.8156 -1.96642 -0.593381 0
M  V30 835 H 83.0456 -2.27112 -3.12981 0
M  V30 836 H 84.7346 -2.68171 -3.04695 0
M  V30 837 H 85.5006 -4.61575 -1.48908 0
M  V30 838 H 81.3796 -3.88844 -2.47631 0
M  V30 839 H 84.9236 -6.92578 -0.835582 0
M  V30 840 H 80.8206 -6.19085 -1.82768 0
M  V30 841 H 81.5886 -8.11692 -1.05349 0
M  V30 842 N 84.2517 0.741722 -1.39055 0
M  V30 843 C 85.4977 1.50336 -1.36113 0
M  V30 844 C 85.8307 1.94148 0.0450796 0
M  V30 845 O 85.1057 1.66301 1.00868 0
M  V30 846 C 85.3887 2.74773 -2.32749 0
M  V30 847 C 85.2417 2.37023 -3.82283 0
M  V30 848 C 86.5607 3.76846 -2.27322 0
M  V30 849 H 83.6797 0.545351 -0.495743 0
M  V30 850 H 86.3217 0.848624 -1.69995 0
M  V30 851 H 84.4717 3.30639 -2.03986 0
M  V30 852 H 86.1437 1.8684 -4.21768 0
M  V30 853 H 84.3867 1.69334 -3.99385 0
M  V30 854 H 85.0577 3.26104 -4.45376 0
M  V30 855 H 87.5337 3.30548 -2.5274 0
M  V30 856 H 86.4097 4.6159 -2.97028 0
M  V30 857 H 86.6707 4.23286 -1.27599 0
M  V30 858 N 85.7298 1.2412 0.971189 0
M  V30 859 C 86.9758 1.08041 1.71625 0
M  V30 860 C 87.3088 -0.380407 1.90438 0
M  V30 861 O 86.5838 -1.28127 1.46334 0
M  V30 862 C 86.8668 1.81682 3.10908 0
M  V30 863 C 86.7198 3.35493 2.99608 0
M  V30 864 C 88.0388 1.58671 4.10501 0
M  V30 865 H 85.1578 0.39388 0.622919 0
M  V30 866 H 87.7998 1.52743 1.13003 0
M  V30 867 H 85.9498 1.43684 3.60953 0
M  V30 868 H 87.6218 3.83068 2.57015 0
M  V30 869 H 85.8648 3.64052 2.35899 0
M  V30 870 H 86.5358 3.82217 3.98264 0
M  V30 871 H 89.0118 1.91719 3.69301 0
M  V30 872 H 87.8878 2.1266 5.06031 0
M  V30 873 H 88.1488 0.524161 4.38982 0
M  V30 874 N 87.2079 -1.17134 1.05439 0
M  V30 875 C 88.1399 -2.2078 0.615539 0
M  V30 876 C 89.1529 -1.59584 -0.322001 0
M  V30 877 O 90.3419 -1.78133 -0.114344 0
M  V30 878 C 87.4419 -3.38691 -0.118938 0
M  V30 879 C 86.6149 -4.29454 0.829924 0
M  V30 880 C 85.6739 -5.26024 0.136258 0
M  V30 881 O 84.6999 -5.63952 0.77115 0
M  V30 882 N 85.9019 -5.69487 -1.1254 0
M  V30 883 H 88.6669 -2.59052 1.50705 0
M  V30 884 H 86.2279 -1.32058 0.936603 0
M  V30 885 H 88.2199 -4.00329 -0.593179 0
M  V30 886 H 86.7899 -2.98996 -0.91215 0
M  V30 887 H 86.0099 -3.65211 1.48373 0
M  V30 888 H 87.2979 -4.86984 1.47392 0
M  V30 889 H 86.6959 -5.4075 -1.6615 0
M  V30 890 H 85.2529 -6.33257 -1.54366 0
M  V30 891 N 88.686 -0.835752 -1.33615 0
M  V30 892 C 89.634 -0.255238 -2.31195 0
M  V30 893 C 90.628 0.61107 -1.57995 0
M  V30 894 O 91.834 0.500979 -1.72888 0
M  V30 895 H 88.209 -0.0638085 -0.749288 0
M  V30 896 H 90.18 -1.09283 -2.77669 0
M  V30 897 C 88.929 0.55754 -3.43201 0
M  V30 898 H 88.252 -0.0997553 -3.99676 0
M  V30 899 H 89.692 0.929622 -4.13683 0
M  V30 900 C 88.151 1.73515 -2.88781 0
M  V30 901 O 88.681 2.83376 -2.84712 0
M  V30 902 N 86.887 1.55603 -2.4543 0
M  V30 903 H 86.434 0.662354 -2.48939 0
M  V30 904 H 86.392 2.34545 -2.09371 0
M  V30 905 N 90.1641 1.46063 -0.591896 0
M  V30 906 C 91.1121 2.32124 0.148739 0
M  V30 907 C 92.1061 1.45035 0.875286 0
M  V30 908 O 93.3121 1.61609 0.792632 0
M  V30 909 H 89.6871 0.749024 0.066832 0
M  V30 910 H 91.6581 2.92392 -0.595783 0
M  V30 911 C 90.4071 3.28373 1.1431 0
M  V30 912 H 89.7301 3.95371 0.59346 0
M  V30 913 H 91.1701 3.91352 1.63155 0
M  V30 914 C 89.6291 2.54393 2.20875 0
M  V30 915 O 90.1591 2.31373 3.28374 0
M  V30 916 N 88.3651 2.14797 1.95731 0
M  V30 917 H 87.9121 2.33719 1.08319 0
M  V30 918 H 87.8701 1.65619 2.67241 0
M  V30 919 N 91.6422 0.330177 1.54103 0
M  V30 920 C 93.0582 -0.0222371 1.59585 0
M  V30 921 C 93.2582 -1.49902 1.34654 0
M  V30 922 O 92.3142 -2.25592 1.13421 0
M  V30 923 C 93.6272 0.401932 2.98002 0
M  V30 924 C 95.1752 0.353145 3.11001 0
M  V30 925 C 95.6502 0.752576 4.51775 0
M  V30 926 N 97.1412 0.706239 4.57784 0
M  V30 927 C 97.8762 0.987417 5.64834 0
M  V30 928 N 97.3722 1.33607 6.79795 0
M  V30 929 N 99.1652 0.91254 5.54643 0
M  V30 930 H 91.3162 1.29228 1.68564 0
M  V30 931 H 93.5792 0.525906 0.78875 0
M  V30 932 H 93.2852 1.4311 3.21267 0
M  V30 933 H 93.1592 -0.229699 3.765 0
M  V30 934 H 95.5462 -0.666822 2.87467 0
M  V30 935 H 95.6272 1.0198 2.34593 0
M  V30 936 H 95.2712 1.77049 4.76042 0
M  V30 937 H 95.2012 0.0635409 5.26562 0
M  V30 938 H 97.6922 0.44889 3.75224 0
M  V30 939 H 98.0052 1.53582 7.57385 0
M  V30 940 H 96.3502 1.37439 6.81275 0
M  V30 941 H 99.5412 0.639601 4.6371 0
M  V30 942 H 99.7142 1.13503 6.37982 0
M  V30 943 N 93.1203 -1.57491 0.0584922 0
M  V30 944 C 94.3663 -1.94081 -0.608617 0
M  V30 945 C 94.7213 -0.937438 -1.68017 0
M  V30 946 O 94.0143 0.0423034 -1.91553 0
M  V30 947 C 94.2083 -3.3513 -1.24188 0
M  V30 948 C 94.0373 -4.49095 -0.233187 0
M  V30 949 C 92.8073 -5.04988 0.177439 0
M  V30 950 C 95.0053 -5.1162 0.524306 0
M  V30 951 N 92.9873 -6.02487 1.17823 0
M  V30 952 C 94.3583 -6.04493 1.37796 0
M  V30 953 C 96.4133 -4.94489 0.581822 0
M  V30 954 C 95.1163 -6.82075 2.28399 0
M  V30 955 C 97.1423 -5.72703 1.47531 0
M  V30 956 C 96.5043 -6.65214 2.31667 0
M  V30 957 H 92.6033 -0.75752 -0.194134 0
M  V30 958 H 95.1873 -1.94248 0.132533 0
M  V30 959 H 93.3583 -3.35726 -1.95302 0
M  V30 960 H 95.0903 -3.5899 -1.86838 0
M  V30 961 H 91.8453 -4.73165 -0.203004 0
M  V30 962 H 92.2693 -6.55933 1.67573 0
M  V30 963 H 96.9113 -4.22765 -0.054443 0
M  V30 964 H 94.6293 -7.53085 2.93067 0
M  V30 965 H 98.2153 -5.61472 1.52448 0
M  V30 966 H 97.0953 -7.24679 2.99683 0
M  V30 967 N 94.5984 0.214957 -1.56127 0
M  V30 968 C 95.8464 0.936518 -1.79091 0
M  V30 969 C 96.1674 1.84606 -0.628148 0
M  V30 970 O 95.4374 1.92664 0.35462 0
M  V30 971 H 94.0174 0.3488 -0.660566 0
M  V30 972 H 96.6794 0.22523 -1.93594 0
M  V30 973 H 95.7754 1.53943 -2.71492 0
M  V30 974 N 96.0765 1.50051 0.48192 0
M  V30 975 C 97.3015 1.64508 1.26301 0
M  V30 976 C 97.7265 0.323851 1.85291 0
M  V30 977 O 97.0845 -0.710969 1.66778 0
M  V30 978 C 97.1325 2.7305 2.35533 0
M  V30 979 O 96.2365 2.3355 3.39895 0
M  V30 980 H 95.5775 0.549978 0.372048 0
M  V30 981 H 98.1075 1.9636 0.574786 0
M  V30 982 H 98.1175 2.95799 2.8101 0
M  V30 983 H 96.7925 3.68946 1.91967 0
M  V30 984 H 95.3695 2.21205 3.00204 0
M  V30 985 N 97.5546 -0.734337 1.39446 0
M  V30 986 C 98.7826 -1.52358 1.39981 0
M  V30 987 C 99.1976 -1.88799 -0.0054975 0
M  V30 988 O 98.5546 -1.54146 -0.976998 0
M  V30 989 C 98.6056 -2.81072 2.27333 0
M  V30 990 O 98.3266 -2.46178 3.62392 0
M  V30 991 C 99.8276 -3.75096 2.36259 0
M  V30 992 H 97.0476 -0.470806 0.478103 0
M  V30 993 H 99.5916 -0.907339 1.83269 0
M  V30 994 H 97.7466 -3.39026 1.87457 0
M  V30 995 H 98.1606 -3.28866 4.08592 0
M  V30 996 H 99.6346 -4.62305 3.01626 0
M  V30 997 H 100.112 -4.16892 1.38194 0
M  V30 998 H 100.718 -3.23061 2.76608 0
M  V30 999 N 99.0327 -1.24633 -0.964593 0
M  V30 1000 C 99.9957 -1.0424 -2.04124 0
M  V30 1001 C 100.996 0.00137563 -1.608 0
M  V30 1002 O 102.186 -0.239883 -1.7254 0
M  V30 1003 C 99.3177 -0.580588 -3.3592 0
M  V30 1004 H 100.511 -1.99803 -2.23649 0
M  V30 1005 H 98.0637 -1.06899 -1.14027 0
M  V30 1006 H 98.7987 0.3781 -3.22088 0
M  V30 1007 H 98.5837 -1.33398 -3.6871 0
M  V30 1008 H 100.074 -0.459034 -4.15069 0
M  V30 1009 N 100.511 1.16574 -1.06058 0
M  V30 1010 C 101.922 1.68662 -0.800632 0
M  V30 1011 C 102.273 1.84184 0.67608 0
M  V30 1012 O 101.398 1.53568 1.52466 0
M  V30 1013 C 101.993 3.06356 -1.44676 0
M  V30 1014 C 100.552 3.55575 -1.23465 0
M  V30 1015 C 99.6988 2.31616 -1.52477 0
M  V30 1016 H 102.65 1.00969 -1.22438 0
M  V30 1017 H 102.671 3.70636 -0.860788 0
M  V30 1018 H 102.183 2.95027 -2.52152 0
M  V30 1019 H 100.284 3.72167 -0.179527 0
M  V30 1020 H 100.397 4.37812 -1.94571 0
M  V30 1021 H 98.7608 2.36512 -0.945209 0
M  V30 1022 H 99.5438 2.22887 -2.61106 0
M  V30 1023 N 101.989 0.842826 1.3317 0
M  V30 1024 C 102.921 0.236245 2.27979 0
M  V30 1025 C 103.934 -0.585282 1.51915 0
M  V30 1026 O 105.123 -0.411705 1.73687 0
M  V30 1027 C 102.223 -0.685717 3.3189 0
M  V30 1028 C 101.396 0.0973448 4.37292 0
M  V30 1029 C 100.455 -0.748565 5.20848 0
M  V30 1030 O 99.4809 -0.186339 5.68895 0
M  V30 1031 N 100.683 -2.06527 5.42519 0
M  V30 1032 H 103.448 1.05088 2.80672 0
M  V30 1033 H 101.009 0.701667 1.45905 0
M  V30 1034 H 103.001 -1.25669 3.84694 0
M  V30 1035 H 101.571 -1.40105 2.79445 0
M  V30 1036 H 100.791 0.849706 3.84933 0
M  V30 1037 H 102.079 0.635643 5.04814 0
M  V30 1038 H 101.477 -2.54554 5.05192 0
M  V30 1039 H 100.034 -2.58464 5.98364 0
M  V30 1040 N 103.467 -1.45747 0.599634 0
M  V30 1041 C 104.707 -2.04181 0.0946309 0
M  V30 1042 C 105.071 -1.45895 -1.24815 0
M  V30 1043 O 106.272 -1.95633 -1.8434 0
M  V30 1044 C 104.543 -3.57368 0.047581 0
M  V30 1045 S 106.102 -4.36997 -0.397387 0
M  V30 1046 H 102.92 -0.70953 0.0456954 0
M  V30 1047 H 105.522 -1.78564 0.795946 0
M  V30 1048 H 104.226 -3.97303 1.02852 0
M  V30 1049 H 103.757 -3.87549 -0.675977 0
M  V30 1050 H 105.772 -4.68012 -1.64862 0
M  V30 1051 N 104.945 -0.338344 -1.53925 0
M  V30 1052 C 106.191 0.260143 -2.01125 0
M  V30 1053 C 106.524 1.50617 -1.22589 0
M  V30 1054 O 105.799 1.91979 -0.312113 0
M  V30 1055 C 106.082 0.579499 -3.55407 0
M  V30 1056 C 105.935 -0.678264 -4.44657 0
M  V30 1057 C 107.254 1.39122 -4.17532 0
M  V30 1058 H 104.373 0.0930772 -0.731099 0
M  V30 1059 H 107.015 -0.457852 -1.84401 0
M  V30 1060 H 105.165 1.19118 -3.69788 0
M  V30 1061 H 106.837 -1.31631 -4.42121 0
M  V30 1062 H 105.08 -1.3042 -4.13731 0
M  V30 1063 H 105.751 -0.410143 -5.50474 0
M  V30 1064 H 108.227 0.874035 -4.06817 0
M  V30 1065 H 107.103 1.58342 -5.25565 0
M  V30 1066 H 107.364 2.39178 -3.71815 0
M  V30 1067 N 106.423 1.57458 -0.0668435 0
M  V30 1068 C 107.651 1.97624 0.612565 0
M  V30 1069 C 108.066 0.94502 1.63447 0
M  V30 1070 O 107.423 -0.0689276 1.8237 0
M  V30 1071 C 107.474 3.37869 1.28555 0
M  V30 1072 O 107.195 4.3704 0.304557 0
M  V30 1073 C 108.696 3.92882 2.05325 0
M  V30 1074 H 105.916 0.650045 0.166381 0
M  V30 1075 H 108.46 2.04035 -0.137782 0
M  V30 1076 H 106.615 3.3256 1.98702 0
M  V30 1077 H 107.029 5.18565 0.786779 0
M  V30 1078 H 108.503 4.93247 2.47812 0
M  V30 1079 H 108.98 3.29156 2.9078 0
M  V30 1080 H 109.586 4.01577 1.40056 0
M  V30 1081 N 107.901 -0.206675 1.56239 0
M  V30 1082 C 108.864 -1.23976 1.92776 0
M  V30 1083 C 109.864 -1.39041 0.807729 0
M  V30 1084 O 111.054 -1.37051 1.0753 0
M  V30 1085 C 108.186 -2.61112 2.19165 0
M  V30 1086 H 109.379 -0.927764 2.85189 0
M  V30 1087 H 106.932 -0.447718 1.4975 0
M  V30 1088 H 107.667 -2.97386 1.29352 0
M  V30 1089 H 107.452 -2.51552 3.00772 0
M  V30 1090 H 108.942 -3.35633 2.48476 0
M  V30 1091 N 109.379 -1.50304 -0.473955 0
M  V30 1092 C 110.607 -1.64902 -1.24959 0
M  V30 1093 C 111.022 -0.331198 -1.85872 0
M  V30 1094 O 110.379 0.68652 -1.69095 0
M  V30 1095 C 110.43 -2.73803 -2.36038 0
M  V30 1096 O 110.151 -4.00477 -1.77624 0
M  V30 1097 C 111.652 -2.99349 -3.26964 0
M  V30 1098 H 108.872 -0.554383 -0.378022 0
M  V30 1099 H 111.416 -1.9651 -0.566054 0
M  V30 1100 H 109.571 -2.44898 -3.00173 0
M  V30 1101 H 109.985 -4.60678 -2.5075 0
M  V30 1102 H 111.459 -3.79217 -4.01121 0
M  V30 1103 H 111.936 -2.10307 -3.85574 0
M  V30 1104 H 112.542 -3.29774 -2.68569 0
M  V30 1105 N 110.857 0.726932 -1.39834 0
M  V30 1106 C 112.134 1.47902 -1.28001 0
M  V30 1107 C 112.514 2.1083 0.106789 0
M  V30 1108 O 111.862 1.99242 1.11869 0
M  V30 1109 C 112.072 2.52392 -2.41038 0
M  V30 1110 C 113.42 3.18546 -2.80737 0
M  V30 1111 O 114.444 2.62708 -2.40547 0
M  V30 1112 O 113.303 4.19604 -3.50135 0
M  V30 1113 H 110.397 0.657163 -0.502062 0
M  V30 1114 H 112.943 0.760071 -1.51727 0
M  V30 1115 H 111.715 2.04329 -3.33715 0
M  V30 1116 H 111.338 3.31837 -2.19021 0
M  V30 1117 N 112.336 1.25143 0.95797 0
M  V30 1118 C 113.564 1.12424 1.73691 0
M  V30 1119 C 113.979 -0.322304 1.86029 0
M  V30 1120 O 113.336 -1.22186 1.35561 0
M  V30 1121 C 113.387 1.76933 3.15241 0
M  V30 1122 O 113.108 3.15932 3.03511 0
M  V30 1123 C 114.609 1.6995 4.09429 0
M  V30 1124 H 111.829 0.3923 0.544373 0
M  V30 1125 H 114.373 1.6544 1.20207 0
M  V30 1126 H 112.528 1.27895 3.6568 0
M  V30 1127 H 112.942 3.47598 3.9278 0
M  V30 1128 H 114.416 2.19753 5.06372 0
M  V30 1129 H 114.893 0.662619 4.34173 0
M  V30 1130 H 115.499 2.18461 3.64904 0
M  V30 1131 N 113.814 -1.1601 1.06675 0
M  V30 1132 C 115.062 -1.86264 0.784229 0
M  V30 1133 C 115.383 -1.82328 -0.691488 0
M  V30 1134 O 114.653 -1.25947 -1.50047 0
M  V30 1135 H 113.233 -0.689621 0.28711 0
M  V30 1136 H 115.895 -1.40664 1.34906 0
M  V30 1137 H 114.991 -2.91595 1.11259 0
M  V30 1138 N 115.292 -0.849877 -1.32721 0
M  V30 1139 C 116.539 -0.450923 -1.97416 0
M  V30 1140 C 116.867 0.992376 -1.67279 0
M  V30 1141 O 116.122 1.71048 -0.950845 0
M  V30 1142 C 116.421 -0.631272 -3.51781 0
M  V30 1143 C 116.087 -2.04432 -4.01894 0
M  V30 1144 C 114.749 -2.4308 -4.1529 0
M  V30 1145 C 117.101 -2.96679 -4.28522 0
M  V30 1146 C 114.429 -3.73257 -4.52654 0
M  V30 1147 C 116.781 -4.26349 -4.67343 0
M  V30 1148 C 115.445 -4.64939 -4.78945 0
M  V30 1149 H 114.715 -0.165004 -0.722395 0
M  V30 1150 H 117.362 -1.07901 -1.58207 0
M  V30 1151 H 115.667 0.0800767 -3.91718 0
M  V30 1152 H 117.364 -0.302709 -3.99856 0
M  V30 1153 H 113.954 -1.73419 -3.91949 0
M  V30 1154 H 118.138 -2.68054 -4.17685 0
M  V30 1155 H 113.394 -4.02946 -4.59831 0
M  V30 1156 H 117.568 -4.97895 -4.86902 0
M  V30 1157 H 115.195 -5.65855 -5.07654 0
M  V30 1158 N 116.77 1.45427 -0.607355 0
M  V30 1159 C 118.186 1.57283 -0.270985 0
M  V30 1160 C 118.386 1.59875 1.22647 0
M  V30 1161 O 117.442 1.52893 2.00948 0
M  V30 1162 C 118.755 2.85566 -0.941952 0
M  V30 1163 C 120.303 2.9924 -0.917849 0
M  V30 1164 C 120.778 4.30293 -1.56882 0
M  V30 1165 N 122.269 4.37051 -1.5343 0
M  V30 1166 C 123.004 5.37123 -2.00715 0
M  V30 1167 N 122.5 6.43734 -2.56084 0
M  V30 1168 N 124.293 5.28479 -1.91484 0
M  V30 1169 H 116.444 1.41988 -1.57966 0
M  V30 1170 H 118.707 0.67885 -0.661715 0
M  V30 1171 H 118.413 2.8955 -1.99633 0
M  V30 1172 H 118.287 3.74322 -0.465096 0
M  V30 1173 H 120.674 2.94822 0.127984 0
M  V30 1174 H 120.755 2.11895 -1.43297 0
M  V30 1175 H 120.399 4.35469 -2.61398 0
M  V30 1176 H 120.329 5.16454 -1.02873 0
M  V30 1177 H 122.82 3.60615 -1.12982 0
M  V30 1178 H 123.133 7.16341 -2.89958 0
M  V30 1179 H 121.478 6.44485 -2.60122 0
M  V30 1180 H 124.669 4.44098 -1.47967 0
M  V30 1181 H 124.842 6.0632 -2.28648 0
M  V30 1182 N 118.248 0.346503 1.53744 0
M  V30 1183 C 119.494 -0.249473 2.0126 0
M  V30 1184 C 119.827 -1.49965 1.23386 0
M  V30 1185 O 119.102 -1.91811 0.32229 0
M  V30 1186 C 119.385 -0.560643 3.55709 0
M  V30 1187 C 119.238 0.701836 4.44291 0
M  V30 1188 C 120.557 -1.36905 4.18264 0
M  V30 1189 H 117.676 -0.0891987 0.731582 0
M  V30 1190 H 120.318 0.467624 1.84156 0
M  V30 1191 H 118.468 -1.17156 3.70414 0
M  V30 1192 H 120.14 1.33974 4.41417 0
M  V30 1193 H 118.383 1.32612 4.13033 0
M  V30 1194 H 119.054 0.43933 5.50249 0
M  V30 1195 H 121.53 -0.852448 4.07275 0
M  V30 1196 H 120.406 -1.55553 5.26398 0
M  V30 1197 H 120.667 -2.37203 3.73078 0
M  V30 1198 N 119.726 -1.57421 0.075193 0
M  V30 1199 C 120.954 -1.97946 -0.602076 0
M  V30 1200 C 121.369 -0.953674 -1.62943 0
M  V30 1201 O 120.726 0.0592551 -1.82404 0
M  V30 1202 C 120.777 -3.38546 -1.26762 0
M  V30 1203 O 120.498 -4.37195 -0.281376 0
M  V30 1204 C 121.999 -3.93966 -2.03239 0
M  V30 1205 H 119.219 -0.650918 -0.162931 0
M  V30 1206 H 121.763 -2.03959 0.148601 0
M  V30 1207 H 119.918 -3.33609 -1.96936 0
M  V30 1208 H 120.332 -5.18975 -0.759267 0
M  V30 1209 H 121.806 -4.94555 -2.45193 0
M  V30 1210 H 122.283 -3.30693 -2.8903 0
M  V30 1211 H 122.889 -4.02315 -1.37924 0
M  V30 1212 N 121.204 0.198386 -1.56346 0
M  V30 1213 C 122.136 1.26987 -1.90806 0
M  V30 1214 C 123.149 1.41877 -0.798419 0
M  V30 1215 O 124.338 1.42362 -1.07682 0
M  V30 1216 C 121.438 2.64246 -2.12196 0
M  V30 1217 C 120.611 2.71007 -3.43328 0
M  V30 1218 C 119.67 3.89439 -3.5387 0
M  V30 1219 O 118.696 3.76695 -4.26719 0
M  V30 1220 N 119.898 5.04752 -2.86715 0
M  V30 1221 H 122.663 0.977433 -2.83313 0
M  V30 1222 H 120.224 0.388322 -1.57174 0
M  V30 1223 H 122.216 3.41896 -2.1654 0
M  V30 1224 H 120.786 2.85992 -1.26204 0
M  V30 1225 H 120.006 1.79657 -3.50881 0
M  V30 1226 H 121.294 2.72512 -4.29668 0
M  V30 1227 H 120.692 5.18004 -2.2735 0
M  V30 1228 H 119.249 5.8036 -2.96691 0
M  V30 1229 N 122.682 1.50554 0.465978 0
M  V30 1230 C 123.645 1.69233 1.54574 0
M  V30 1231 C 124.645 0.562901 1.50626 0
M  V30 1232 O 125.835 0.830016 1.53155 0
M  V30 1233 C 122.967 1.7223 2.94193 0
M  V30 1234 H 124.16 2.65571 1.39327 0
M  V30 1235 H 121.713 1.40111 0.692711 0
M  V30 1236 H 122.448 0.77603 3.14878 0
M  V30 1237 H 122.233 2.54285 2.98466 0
M  V30 1238 H 123.723 1.88618 3.72576 0
M  V30 1239 N 124.16 -0.719506 1.40217 0
M  V30 1240 C 125.437 -1.47221 1.28784 0
M  V30 1241 C 125.817 -2.10883 -0.0956067 0
M  V30 1242 O 125.165 -1.99833 -1.10811 0
M  V30 1243 C 125.375 -2.5111 2.42373 0
M  V30 1244 C 126.723 -3.17053 2.82423 0
M  V30 1245 O 127.747 -2.61429 2.41937 0
M  V30 1246 O 126.606 -4.17742 3.52355 0
M  V30 1247 H 123.7 -0.654491 0.50554 0
M  V30 1248 H 126.246 -0.752014 1.52128 0
M  V30 1249 H 125.018 -2.02556 3.34793 0
M  V30 1250 H 124.641 -3.3067 2.20778 0
M  V30 1251 N 125.638 -1.25649 -0.95132 0
M  V30 1252 C 126.886 -1.10375 -1.69298 0
M  V30 1253 C 127.207 0.355339 -1.91735 0
M  V30 1254 O 126.477 1.25188 -1.50681 0
M  V30 1255 H 125.057 -0.405461 -0.627384 0
M  V30 1256 H 127.719 -1.57823 -1.14358 0
M  V30 1257 H 126.815 -1.61465 -2.67087 0
M  V30 1258 N 127.117 1.15442 -1.07289 0
M  V30 1259 C 128.342 1.90638 -0.816828 0
M  V30 1260 C 128.767 1.77445 0.624083 0
M  V30 1261 O 128.125 1.10671 1.43602 0
M  V30 1262 C 128.173 3.39008 -1.22906 0
M  V30 1263 O 127.277 4.10701 -0.373975 0
M  V30 1264 H 126.618 0.593555 -0.297638 0
M  V30 1265 H 129.148 1.46198 -1.43134 0
M  V30 1266 H 129.158 3.89801 -1.20497 0
M  V30 1267 H 127.833 3.47929 -2.27856 0
M  V30 1268 H 126.41 3.70046 -0.460499 0
M  V30 1269 N 128.595 0.856903 1.32268 0
M  V30 1270 C 129.558 0.308171 2.27119 0
M  V30 1271 C 130.558 -0.533421 1.51695 0
M  V30 1272 O 131.748 -0.344607 1.70757 0
M  V30 1273 C 128.88 -0.563757 3.36206 0
M  V30 1274 H 130.073 1.14535 2.77167 0
M  V30 1275 H 127.626 0.631421 1.42978 0
M  V30 1276 H 128.361 -1.42266 2.91429 0
M  V30 1277 H 128.146 0.0386749 3.92081 0
M  V30 1278 H 129.636 -0.940386 4.06874 0
M  V30 1279 N 130.073 -1.45103 0.615059 0
M  V30 1280 C 131.484 -1.85654 0.197383 0
M  V30 1281 C 131.835 -1.51433 -1.24749 0
M  V30 1282 O 130.96 -0.944608 -1.94695 0
M  V30 1283 C 131.555 -3.36972 0.351448 0
M  V30 1284 C 130.114 -3.76398 -0.011593 0
M  V30 1285 C 129.261 -2.69024 0.672394 0
M  V30 1286 H 132.212 -1.35797 0.821263 0
M  V30 1287 H 132.233 -3.78239 -0.414227 0
M  V30 1288 H 131.745 -3.61847 1.40314 0
M  V30 1289 H 129.846 -3.5714 -1.06217 0
M  V30 1290 H 129.959 -4.77532 0.387265 0
M  V30 1291 H 128.323 -2.54465 0.109284 0
M  V30 1292 H 129.106 -2.96735 1.72636 0
M  V30 1293 N 131.551 -0.354651 -1.53558 0
M  V30 1294 C 132.779 0.239515 -2.05509 0
M  V30 1295 C 133.194 1.4333 -1.2289 0
M  V30 1296 O 132.551 1.80538 -0.266899 0
M  V30 1297 C 132.602 0.643719 -3.55723 0
M  V30 1298 O 132.323 -0.502602 -4.35207 0
M  V30 1299 C 133.824 1.29743 -4.23889 0
M  V30 1300 H 131.044 0.0442697 -0.669538 0
M  V30 1301 H 133.588 -0.509856 -1.98042 0
M  V30 1302 H 131.743 1.34302 -3.63376 0
M  V30 1303 H 132.157 -0.178172 -5.24197 0
M  V30 1304 H 133.631 1.53091 -5.30346 0
M  V30 1305 H 134.108 2.25441 -3.76926 0
M  V30 1306 H 134.714 0.639865 -4.20459 0
M  V30 1307 N 133.029 1.57378 -0.0835403 0
M  V30 1308 C 133.977 2.14602 0.89714 0
M  V30 1309 C 134.971 1.08589 1.30018 0
M  V30 1310 O 136.177 1.26952 1.27606 0
M  V30 1311 H 132.552 0.686346 0.3073 0
M  V30 1312 H 134.523 2.95845 0.38969 0
M  V30 1313 C 133.272 2.73188 2.15089 0
M  V30 1314 H 132.595 3.54442 1.84962 0
M  V30 1315 H 134.035 3.1681 2.81793 0
M  V30 1316 C 132.494 1.68517 2.91725 0
M  V30 1317 O 133.024 1.11718 3.85852 0
M  V30 1318 N 131.23 1.39277 2.55049 0
M  V30 1319 H 130.777 1.85655 1.78577 0
M  V30 1320 H 130.735 0.694791 3.06627 0
M  V30 1321 N 134.507 -0.190092 1.56449 0
M  V30 1322 C 135.755 -0.907908 1.80559 0
M  V30 1323 C 136.076 -1.83583 0.657438 0
M  V30 1324 O 135.346 -1.93203 -0.323924 0
M  V30 1325 H 133.926 -0.338247 0.666032 0
M  V30 1326 H 136.588 -0.194403 1.93928 0
M  V30 1327 H 135.684 -1.49604 2.73907 0
M  V30 1328 N 135.985 -1.50799 -0.457987 0
M  V30 1329 C 136.948 -1.7005 -1.53674 0
M  V30 1330 C 137.948 -0.570881 -1.50325 0
M  V30 1331 O 139.138 -0.838126 -1.52712 0
M  V30 1332 C 136.27 -1.73788 -2.93276 0
M  V30 1333 H 137.463 -2.66306 -1.37917 0
M  V30 1334 H 135.016 -1.40477 -0.685271 0
M  V30 1335 H 135.751 -0.792717 -3.14462 0
M  V30 1336 H 135.536 -2.55864 -2.97113 0
M  V30 1337 H 137.026 -1.90591 -3.71571 0
M  V30 1338 N 137.463 0.71206 -1.40597 0
M  V30 1339 C 138.874 1.29135 -1.34837 0
M  V30 1340 C 139.225 1.96186 -0.0235395 0
M  V30 1341 O 138.35 1.97768 0.878444 0
M  V30 1342 C 138.945 2.34827 -2.44217 0
M  V30 1343 C 137.504 2.88371 -2.41907 0
M  V30 1344 C 136.651 1.62202 -2.24913 0
M  V30 1345 H 139.602 0.507944 -1.50352 0
M  V30 1346 H 139.623 3.15749 -2.12327 0
M  V30 1347 H 139.135 1.85996 -3.40627 0
M  V30 1348 H 137.236 3.41422 -1.49204 0
M  V30 1349 H 137.349 3.39925 -3.37621 0
M  V30 1350 H 135.713 1.874 -1.72492 0
M  V30 1351 H 136.496 1.15391 -3.23326 0
M  V30 1352 N 138.941 1.26152 0.944643 0
M  V30 1353 C 139.888 1.07408 2.04285 0
M  V30 1354 C 140.858 -0.0198413 1.66088 0
M  V30 1355 O 142.043 0.139264 1.90291 0
M  V30 1356 C 139.183 0.70945 3.37729 0
M  V30 1357 C 138.296 1.87926 3.88983 0
M  V30 1358 C 137.431 1.45807 5.10797 0
M  V30 1359 C 136.47 2.5964 5.54305 0
M  V30 1360 N 135.607 2.18226 6.67324 0
M  V30 1361 H 140.447 2.01389 2.1965 0
M  V30 1362 H 137.984 1.00275 1.07626 0
M  V30 1363 H 139.942 0.478948 4.14442 0
M  V30 1364 H 138.572 -0.193389 3.2222 0
M  V30 1365 H 137.624 2.22279 3.08701 0
M  V30 1366 H 138.936 2.73377 4.17213 0
M  V30 1367 H 138.09 1.18781 5.94959 0
M  V30 1368 H 136.829 0.574414 4.84305 0
M  V30 1369 H 135.834 2.87399 4.68702 0
M  V30 1370 H 137.059 3.48599 5.828 0
M  V30 1371 H 135.005 1.3229 6.42523 0
M  V30 1372 H 134.922 2.97221 6.95123 0
M  V30 1373 H 136.19 1.94403 7.54869 0
M  V30 1374 N 140.419 -1.14872 1.07899 0
M  V30 1375 C 141.644 -1.90202 0.826926 0
M  V30 1376 C 142.069 -1.77774 -0.614664 0
M  V30 1377 O 141.427 -1.11431 -1.43013 0
M  V30 1378 C 141.475 -3.38352 1.24702 0
M  V30 1379 O 140.579 -4.10497 0.39575 0
M  V30 1380 H 139.92 -0.591968 0.300782 0
M  V30 1381 H 142.45 -1.45437 1.43907 0
M  V30 1382 H 142.46 -3.89156 1.22563 0
M  V30 1383 H 141.135 -3.46715 2.29698 0
M  V30 1384 H 139.712 -3.69796 0.480117 0
M  V30 1385 N 141.898 -0.863906 -1.31812 0
M  V30 1386 C 143.128 -0.485406 -2.00817 0
M  V30 1387 C 143.536 0.925007 -1.65046 0
M  V30 1388 O 142.879 1.61653 -0.872574 0
M  V30 1389 C 142.941 -0.555589 -3.55181 0
M  V30 1390 C 142.605 -1.92654 -4.14407 0
M  V30 1391 C 143.602 -2.89324 -4.31958 0
M  V30 1392 C 141.287 -2.2262 -4.50273 0
M  V30 1393 C 143.281 -4.14108 -4.84555 0
M  V30 1394 C 140.968 -3.47654 -5.02573 0
M  V30 1395 C 141.966 -4.43214 -5.19664 0
M  V30 1396 O 141.654 -5.66033 -5.70843 0
M  V30 1397 H 141.386 -0.188224 -0.649267 0
M  V30 1398 H 143.94 -1.16514 -1.69156 0
M  V30 1399 H 142.17 0.181037 -3.86276 0
M  V30 1400 H 143.859 -0.19138 -4.05449 0
M  V30 1401 H 144.625 -2.6748 -4.04573 0
M  V30 1402 H 140.504 -1.4902 -4.3625 0
M  V30 1403 H 144.048 -4.88703 -4.9781 0
M  V30 1404 H 139.945 -3.69345 -5.29391 0
M  V30 1405 H 140.713 -5.6812 -5.89222 0
M  V30 1406 N 143.376 1.44774 -0.622745 0
M  V30 1407 C 144.787 1.85546 -0.207226 0
M  V30 1408 C 145.138 1.52093 1.23944 0
M  V30 1409 O 144.263 0.95492 1.94191 0
M  V30 1410 C 144.858 3.36781 -0.369313 0
M  V30 1411 C 143.417 3.76399 -0.00836847 0
M  V30 1412 C 142.564 2.68664 -0.686651 0
M  V30 1413 H 145.515 1.3536 -0.828454 0
M  V30 1414 H 145.536 3.78453 0.394162 0
M  V30 1415 H 145.048 3.61098 -1.42231 0
M  V30 1416 H 143.149 3.57698 1.04322 0
M  V30 1417 H 143.262 4.7732 -0.412584 0
M  V30 1418 H 141.626 2.54404 -0.122777 0
M  V30 1419 H 142.409 2.95815 -1.74208 0
M  V30 1420 N 144.854 0.36279 1.53368 0
M  V30 1421 C 146.079 -0.231226 2.06107 0
M  V30 1422 C 146.504 -1.419 1.23474 0
M  V30 1423 O 145.862 -1.79524 0.253128 0
M  V30 1424 C 145.91 -0.605523 3.5548 0
M  V30 1425 O 145.014 -1.70312 3.7559 0
M  V30 1426 H 144.355 -0.034327 0.663112 0
M  V30 1427 H 146.885 0.522584 1.97814 0
M  V30 1428 H 146.895 -0.877314 3.98456 0
M  V30 1429 H 145.57 0.263004 4.15068 0
M  V30 1430 H 144.147 -1.4271 3.44512 0
M  V30 1431 N 146.332 -1.57332 0.0918853 0
M  V30 1432 C 147.578 -1.94524 -0.573425 0
M  V30 1433 C 147.911 -0.973578 -1.68033 0
M  V30 1434 O 147.186 -0.00609226 -1.94499 0
M  V30 1435 C 147.469 -3.41858 -1.13161 0
M  V30 1436 C 147.322 -4.4979 -0.0299747 0
M  V30 1437 C 148.641 -3.90435 -2.03098 0
M  V30 1438 H 145.76 -0.70734 -0.206975 0
M  V30 1439 H 148.402 -1.89309 0.161942 0
M  V30 1440 H 146.552 -3.46433 -1.7583 0
M  V30 1441 H 148.224 -4.57327 0.604112 0
M  V30 1442 H 146.467 -4.291 0.636833 0
M  V30 1443 H 147.138 -5.50069 -0.461287 0
M  V30 1444 H 149.614 -3.87992 -1.50338 0
M  V30 1445 H 148.49 -4.94097 -2.39081 0
M  V30 1446 H 148.751 -3.29541 -2.94712 0
M  V30 1447 N 147.81 0.181792 -1.56548 0
M  V30 1448 C 149.057 0.900097 -1.81396 0
M  V30 1449 C 149.385 1.82695 -0.667281 0
M  V30 1450 O 148.64 1.92614 0.346146 0
M  V30 1451 C 148.939 1.73728 -3.12335 0
M  V30 1452 C 148.605 0.960255 -4.40556 0
M  V30 1453 C 147.267 0.745766 -4.75386 0
M  V30 1454 C 149.619 0.414477 -5.19549 0
M  V30 1455 C 146.947 -0.0257694 -5.86694 0
M  V30 1456 C 149.299 -0.343916 -6.31664 0
M  V30 1457 C 147.963 -0.569301 -6.65068 0
M  V30 1458 H 147.233 0.329369 -0.663775 0
M  V30 1459 H 149.88 0.165647 -1.90782 0
M  V30 1460 H 148.185 2.54081 -2.98245 0
M  V30 1461 H 149.882 2.29591 -3.28769 0
M  V30 1462 H 146.472 1.13746 -4.13231 0
M  V30 1463 H 150.656 0.567554 -4.93044 0
M  V30 1464 H 145.912 -0.210233 -6.11038 0
M  V30 1465 H 150.086 -0.774133 -6.92084 0
M  V30 1466 H 147.713 -1.16903 -7.51158 0
M  V30 1467 N 149.288 1.51039 0.449983 0
M  V30 1468 C 150.236 1.71995 1.5659 0
M  V30 1469 C 151.23 0.586029 1.5894 0
M  V30 1470 O 152.436 0.76709 1.62837 0
M  V30 1471 H 148.811 0.543233 0.520001 0
M  V30 1472 H 150.782 2.65562 1.36085 0
M  V30 1473 C 149.531 1.8506 2.9436 0
M  V30 1474 H 148.854 2.71712 2.93279 0
M  V30 1475 H 150.294 2.0374 3.71842 0
M  V30 1476 C 148.753 0.607277 3.31382 0
M  V30 1477 O 149.283 -0.243903 4.00959 0
M  V30 1478 N 147.489 0.455073 2.87015 0
M  V30 1479 H 147.036 1.14879 2.30566 0
M  V30 1480 H 146.994 -0.375611 3.12148 0
M  V30 1481 N 150.766 -0.704594 1.40972 0
M  V30 1482 C 152.014 -1.46169 1.39568 0
M  V30 1483 C 152.335 -1.95 0.00253745 0
M  V30 1484 O 151.605 -1.71095 -0.954114 0
M  V30 1485 H 150.185 -0.542326 0.513704 0
M  V30 1486 H 152.847 -0.834553 1.76128 0
M  V30 1487 H 151.943 -2.32922 2.07735 0
M  V30 1488 N 152.244 -1.26651 -0.937939 0
M  V30 1489 C 153.484 -1.13611 -1.69917 0
M  V30 1490 C 153.848 0.314687 -1.89404 0
M  V30 1491 O 155.049 0.567285 -2.62746 0
M  V30 1492 C 153.32 -1.88742 -3.03498 0
M  V30 1493 S 154.879 -1.91794 -3.94665 0
M  V30 1494 H 151.697 -0.405767 -0.583844 0
M  V30 1495 H 154.299 -1.60416 -1.11745 0
M  V30 1496 H 153.003 -2.9336 -2.86999 0
M  V30 1497 H 152.534 -1.42391 -3.66727 0
M  V30 1498 H 154.549 -1.00698 -4.85875 0
M  V30 1499 N 153.722 1.14298 -1.08507 0
M  V30 1500 C 154.672 2.17449 -0.685569 0
M  V30 1501 C 155.656 1.58167 0.295315 0
M  V30 1502 O 156.848 1.76675 0.107172 0
M  V30 1503 C 153.977 3.43161 -0.0975318 0
M  V30 1504 C 153.063 4.09471 -1.10426 0
M  V30 1505 N 153.454 4.51089 -2.28806 0
M  V30 1506 C 151.752 4.35976 -0.940258 0
M  V30 1507 C 152.453 5.02654 -2.9277 0
M  V30 1508 N 151.429 4.96927 -2.20374 0
M  V30 1509 H 155.231 2.47369 -1.587 0
M  V30 1510 H 152.745 1.30992 -0.959936 0
M  V30 1511 H 154.742 4.16388 0.20664 0
M  V30 1512 H 153.402 3.14719 0.798872 0
M  V30 1513 H 154.413 4.44097 -2.66455 0
M  V30 1514 H 151.09 4.17386 -0.0977441 0
M  V30 1515 H 152.48 5.44723 -3.93352 0
M  V30 1516 N 155.201 0.870884 1.31352 0
M  V30 1517 C 156.431 0.496049 2.00557 0
M  V30 1518 C 156.839 -0.916241 1.65534 0
M  V30 1519 O 156.182 -1.61188 0.881134 0
M  V30 1520 C 156.244 0.574418 3.54881 0
M  V30 1521 C 155.908 1.94849 4.1338 0
M  V30 1522 C 156.905 2.91611 4.30417 0
M  V30 1523 C 154.59 2.25005 4.49086 0
M  V30 1524 C 156.584 4.16672 4.82352 0
M  V30 1525 C 154.271 3.50315 5.00722 0
M  V30 1526 C 155.269 4.45964 5.17306 0
M  V30 1527 O 154.957 5.69052 5.67833 0
M  V30 1528 H 154.689 0.191664 0.64826 0
M  V30 1529 H 157.243 1.17409 1.68536 0
M  V30 1530 H 155.473 -0.160549 3.86367 0
M  V30 1531 H 157.162 0.212879 4.05341 0
M  V30 1532 H 157.928 2.69622 4.03149 0
M  V30 1533 H 153.807 1.51332 4.35453 0
M  V30 1534 H 157.351 4.91336 4.95211 0
M  V30 1535 H 153.248 3.72147 5.27424 0
M  V30 1536 H 154.016 5.71236 5.86201 0
M  V30 1537 N 156.679 -1.44442 0.630414 0
M  V30 1538 C 157.907 -2.06414 0.141671 0
M  V30 1539 C 158.322 -1.47105 -1.18345 0
M  V30 1540 O 157.679 -0.593662 -1.72574 0
M  V30 1541 C 157.73 -3.61494 0.0199784 0
M  V30 1542 O 157.451 -4.18594 1.29269 0
M  V30 1543 C 158.952 -4.40499 -0.497544 0
M  V30 1544 H 156.172 -0.666292 0.0793452 0
M  V30 1545 H 158.716 -1.85323 0.864614 0
M  V30 1546 H 156.871 -3.8185 -0.653402 0
M  V30 1547 H 157.285 -5.12026 1.13707 0
M  V30 1548 H 158.759 -5.49433 -0.531708 0
M  V30 1549 H 159.236 -4.11895 -1.52445 0
M  V30 1550 H 159.842 -4.25061 0.142562 0
M  V30 1551 N 158.157 -0.370918 -1.53173 0
M  V30 1552 C 159.105 0.488101 -2.27421 0
M  V30 1553 C 160.099 1.07884 -1.30604 0
M  V30 1554 O 161.305 1.02143 -1.48212 0
M  V30 1555 H 157.68 0.176134 -0.731082 0
M  V30 1556 H 159.651 -0.159815 -2.97972 0
M  V30 1557 C 158.4 1.61306 -3.08019 0
M  V30 1558 H 157.723 1.1678 -3.82364 0
M  V30 1559 H 159.163 2.18872 -3.63141 0
M  V30 1560 C 157.622 2.55848 -2.19188 0
M  V30 1561 O 158.152 3.58799 -1.80626 0
M  V30 1562 N 156.358 2.2516 -1.83715 0
M  V30 1563 H 155.905 1.41476 -2.15273 0
M  V30 1564 H 155.863 2.8867 -1.24567 0
M  V30 1565 N 159.635 1.57281 -0.100228 0
M  V30 1566 C 160.875 1.96419 0.56558 0
M  V30 1567 C 161.239 0.981265 1.65031 0
M  V30 1568 O 162.44 1.26133 2.37369 0
M  V30 1569 C 160.711 3.39996 1.10171 0
M  V30 1570 S 162.27 4.01134 1.77867 0
M  V30 1571 H 159.088 0.68667 0.184406 0
M  V30 1572 H 161.69 1.94662 -0.180851 0
M  V30 1573 H 160.394 4.09296 0.300803 0
M  V30 1574 H 159.925 3.45361 1.88385 0
M  V30 1575 H 161.94 3.90358 3.06326 0
M  V30 1576 N 161.113 -0.173488 1.56642 0
M  V30 1577 C 162.338 -0.910149 1.86363 0
M  V30 1578 C 162.763 -1.75132 0.686318 0
M  V30 1579 O 162.121 -1.77595 -0.364643 0
M  V30 1580 C 162.169 -1.76447 3.14482 0
M  V30 1581 O 161.273 -2.86584 2.96553 0
M  V30 1582 H 160.614 -0.255086 0.613047 0
M  V30 1583 H 163.144 -0.172283 2.03873 0
M  V30 1584 H 163.154 -2.16483 3.45831 0
M  V30 1585 H 161.829 -1.14658 3.99783 0
M  V30 1586 H 160.406 -2.50146 2.76553 0
M  V30 1587 N 162.591 -1.51276 -0.441967 0
M  V30 1588 C 164.002 -1.56244 -1.02199 0
M  V30 1589 C 164.353 -0.383149 -1.92422 0
M  V30 1590 O 163.478 0.500613 -2.1053 0
M  V30 1591 C 164.073 -2.83162 -1.86024 0
M  V30 1592 C 162.632 -2.90716 -2.39084 0
M  V30 1593 C 161.779 -2.50858 -1.18175 0
M  V30 1594 H 164.73 -1.5712 -0.223416 0
M  V30 1595 H 164.751 -2.66663 -2.71425 0
M  V30 1596 H 164.263 -3.68974 -1.20331 0
M  V30 1597 H 162.364 -2.09323 -3.08244 0
M  V30 1598 H 162.477 -3.94266 -2.72198 0
M  V30 1599 H 160.841 -2.03951 -1.52565 0
M  V30 1600 H 161.624 -3.3901 -0.541001 0
M  V30 1601 N 164.069 0.697108 -1.41344 0
M  V30 1602 C 165.317 1.45426 -1.40341 0
M  V30 1603 C 165.638 1.94996 -0.0128787 0
M  V30 1604 O 164.908 1.71599 0.945027 0
M  V30 1605 H 163.488 0.539594 -0.516573 0
M  V30 1606 H 166.15 0.825201 -1.76569 0
M  V30 1607 H 165.246 2.31817 -2.08967 0
M  V30 1608 N 165.547 1.27147 0.931209 0
M  V30 1609 C 166.775 1.16082 1.71267 0
M  V30 1610 C 167.19 -0.282772 1.8667 0
M  V30 1611 O 166.547 -1.19283 1.38122 0
M  V30 1612 C 166.598 1.8358 3.11417 0
M  V30 1613 O 166.319 3.22299 2.96741 0
M  V30 1614 C 167.82 1.78597 4.05732 0
M  V30 1615 H 165.04 0.403758 0.535929 0
M  V30 1616 H 167.584 1.67953 1.16671 0
M  V30 1617 H 165.739 1.35623 3.62885 0
M  V30 1618 H 166.153 3.55851 3.85319 0
M  V30 1619 H 167.627 2.30444 5.01597 0
M  V30 1620 H 168.104 0.754564 4.3267 0
M  V30 1621 H 168.71 2.26152 3.60188 0
M  V30 1622 N 167.025 -1.13721 1.09112 0
M  V30 1623 C 168.302 -1.81155 0.737706 0
M  V30 1624 C 168.682 -1.96253 -0.777683 0
M  V30 1625 O 168.03 -1.52807 -1.69889 0
M  V30 1626 C 168.24 -3.16392 1.47299 0
M  V30 1627 C 169.588 -3.91787 1.63671 0
M  V30 1628 O 170.612 -3.26005 1.43524 0
M  V30 1629 O 169.471 -5.0977 1.96969 0
M  V30 1630 H 166.565 -0.783518 0.26463 0
M  V30 1631 H 169.111 -1.20676 1.19312 0
M  V30 1632 H 167.883 -3.0061 2.50498 0
M  V30 1633 H 167.506 -3.8457 1.00953 0
M  V30 1634 N 168.503 -0.877838 -1.30888 0
M  V30 1635 C 169.433 -0.35534 -2.3078 0
M  V30 1636 C 170.414 0.557994 -1.60687 0
M  V30 1637 O 171.599 0.473355 -1.88343 0
M  V30 1638 C 168.729 0.437221 -3.44537 0
M  V30 1639 C 167.683 -0.383715 -4.26276 0
M  V30 1640 C 167.009 0.535014 -5.32017 0
M  V30 1641 C 168.309 -1.62201 -4.96476 0
M  V30 1642 H 170.003 -1.19007 -2.74732 0
M  V30 1643 H 167.549 -0.573698 -1.32078 0
M  V30 1644 H 169.502 0.813334 -4.13477 0
M  V30 1645 H 168.226 1.30553 -2.99372 0
M  V30 1646 H 166.885 -0.741874 -3.59015 0
M  V30 1647 H 166.533 1.40083 -4.831 0
M  V30 1648 H 166.233 -0.0104211 -5.87599 0
M  V30 1649 H 167.757 0.907799 -6.03814 0
M  V30 1650 H 169.171 -1.31689 -5.5797 0
M  V30 1651 H 167.568 -2.10711 -5.61891 0
M  V30 1652 H 168.638 -2.37044 -4.23011 0
M  V30 1653 N 169.982 1.44106 -0.638065 0
M  V30 1654 C 171.393 1.85316 -0.226894 0
M  V30 1655 C 171.744 1.53399 1.22324 0
M  V30 1656 O 170.869 0.975463 1.93167 0
M  V30 1657 C 171.464 3.3637 -0.405013 0
M  V30 1658 C 170.023 3.76369 -0.0482902 0
M  V30 1659 C 169.17 2.67921 -0.715108 0
M  V30 1660 H 172.121 1.34474 -0.842764 0
M  V30 1661 H 172.142 3.7885 0.354 0
M  V30 1662 H 171.654 3.59569 -1.46053 0
M  V30 1663 H 169.755 3.58784 1.00522 0
M  V30 1664 H 169.868 4.76856 -0.463187 0
M  V30 1665 H 168.232 2.54259 -0.149753 0
M  V30 1666 H 169.015 2.93951 -1.77335 0
M  V30 1667 N 171.46 0.379036 1.52974 0
M  V30 1668 C 172.706 -0.206727 2.01744 0
M  V30 1669 C 173.039 -1.47314 1.26539 0
M  V30 1670 O 172.314 -1.91084 0.362903 0
M  V30 1671 C 172.597 -0.485066 3.56818 0
M  V30 1672 C 172.45 0.795919 4.42702 0
M  V30 1673 C 173.769 -1.28003 4.21074 0
M  V30 1674 H 170.888 -0.0736607 0.73331 0
M  V30 1675 H 173.53 0.506581 1.83122 0
M  V30 1676 H 171.68 -1.09272 3.72816 0
M  V30 1677 H 173.352 1.43307 4.38476 0
M  V30 1678 H 171.595 1.41344 4.10127 0
M  V30 1679 H 172.266 0.555947 5.49193 0
M  V30 1680 H 174.742 -0.765867 4.08991 0
M  V30 1681 H 173.618 -1.44352 5.29579 0
M  V30 1682 H 173.879 -2.29236 3.78026 0
M  V30 1683 N 172.938 -1.57226 0.108567 0
M  V30 1684 C 174.354 -1.5766 -0.248058 0
M  V30 1685 C 174.554 -1.12063 -1.67464 0
M  V30 1686 O 173.61 -0.803236 -2.39383 0
M  V30 1687 C 174.923 -3.0069 -0.0242287 0
M  V30 1688 C 176.471 -3.12868 -0.0909372 0
M  V30 1689 C 176.946 -4.57879 0.105067 0
M  V30 1690 N 178.437 -4.63172 0.0506846 0
M  V30 1691 C 179.172 -5.73126 0.177396 0
M  V30 1692 N 178.668 -6.91866 0.359696 0
M  V30 1693 N 180.461 -5.61977 0.117709 0
M  V30 1694 H 172.612 -1.85169 1.04049 0
M  V30 1695 H 174.875 -0.85529 0.40888 0
M  V30 1696 H 174.581 -3.38299 0.961604 0
M  V30 1697 H 174.455 -3.6945 -0.76068 0
M  V30 1698 H 176.842 -2.75124 -1.06729 0
M  V30 1699 H 176.923 -2.46672 0.677225 0
M  V30 1700 H 176.567 -4.96321 1.07834 0
M  V30 1701 H 176.497 -5.22153 -0.682954 0
M  V30 1702 H 178.988 -3.778 -0.0871266 0
M  V30 1703 H 179.301 -7.71503 0.447529 0
M  V30 1704 H 177.646 -6.93874 0.395536 0
M  V30 1705 H 180.837 -4.68094 -0.0236741 0
M  V30 1706 H 181.01 -6.47627 0.219905 0
M  V30 1707 N 174.416 0.165178 -1.56732 0
M  V30 1708 C 175.346 1.20651 -1.99914 0
M  V30 1709 C 176.327 1.45827 -0.875705 0
M  V30 1710 O 177.512 1.57057 -1.14223 0
M  V30 1711 C 174.642 2.54401 -2.36427 0
M  V30 1712 C 173.596 2.43782 -3.51787 0
M  V30 1713 C 172.922 3.82078 -3.7406 0
M  V30 1714 C 174.222 1.93732 -4.85041 0
M  V30 1715 H 175.916 0.847534 -2.87154 0
M  V30 1716 H 173.462 0.40625 -1.38151 0
M  V30 1717 H 175.415 3.27458 -2.65234 0
M  V30 1718 H 174.139 2.92098 -1.46103 0
M  V30 1719 H 172.798 1.73178 -3.23117 0
M  V30 1720 H 172.446 4.17179 -2.81017 0
M  V30 1721 H 172.146 3.7584 -4.51684 0
M  V30 1722 H 173.67 4.56712 -4.05274 0
M  V30 1723 H 175.084 2.56569 -5.12684 0
M  V30 1724 H 173.481 1.98428 -5.66345 0
M  V30 1725 H 174.551 0.891962 -4.76626 0
M  V30 1726 N 175.894 1.51508 0.433938 0
M  V30 1727 C 177.171 1.54888 1.19453 0
M  V30 1728 C 177.551 0.315154 2.08734 0
M  V30 1729 O 176.899 -0.699558 2.17528 0
M  V30 1730 C 177.109 2.86467 1.99342 0
M  V30 1731 C 178.457 3.38545 2.56267 0
M  V30 1732 O 179.481 2.88041 2.0955 0
M  V30 1733 O 178.34 4.26675 3.41483 0
M  V30 1734 H 175.434 0.622863 0.544032 0
M  V30 1735 H 177.98 1.63823 0.442732 0
M  V30 1736 H 176.752 3.67718 1.33788 0
M  V30 1737 H 176.375 2.8071 2.8158 0
M  V30 1738 N 177.372 -0.689602 1.41712 0
M  V30 1739 C 178.6 -1.47827 1.44758 0
M  V30 1740 C 179.015 -1.88721 0.0545703 0
M  V30 1741 O 178.372 -1.57176 -0.927463 0
M  V30 1742 C 178.423 -2.73698 2.3616 0
M  V30 1743 O 178.144 -2.34524 3.7004 0
M  V30 1744 C 179.645 -3.67389 2.48072 0
M  V30 1745 H 176.865 -0.455357 0.49284 0
M  V30 1746 H 179.409 -0.848574 1.86063 0
M  V30 1747 H 177.564 -3.32891 1.98148 0
M  V30 1748 H 177.978 -3.15701 4.18847 0
M  V30 1749 H 179.452 -4.52475 3.16181 0
M  V30 1750 H 179.929 -4.12284 1.51388 0
M  V30 1751 H 180.535 -3.14097 2.86746 0
M  V30 1752 N 178.85 -1.27639 -0.924453 0
M  V30 1753 C 180.096 -1.14336 -1.67497 0
M  V30 1754 C 180.429 0.309465 -1.91718 0
M  V30 1755 O 179.704 1.22608 -1.50989 0
M  V30 1756 C 179.987 -1.93096 -3.0395 0
M  V30 1757 C 179.84 -3.46381 -2.8695 0
M  V30 1758 C 181.159 -1.73798 -4.0433 0
M  V30 1759 H 178.278 -0.416728 -0.607871 0
M  V30 1760 H 180.92 -1.56832 -1.07256 0
M  V30 1761 H 179.07 -1.56982 -3.55372 0
M  V30 1762 H 180.742 -3.92343 -2.42621 0
M  V30 1763 H 178.985 -3.72557 -2.22225 0
M  V30 1764 H 179.656 -3.96735 -3.83804 0
M  V30 1765 H 182.132 -2.05293 -3.61931 0
M  V30 1766 H 181.008 -2.31294 -4.97789 0
M  V30 1767 H 181.269 -0.686725 -4.36734 0
M  V30 1768 N 180.328 1.1314 -1.09713 0
M  V30 1769 C 181.553 1.88862 -0.857081 0
M  V30 1770 C 181.978 1.78729 0.586304 0
M  V30 1771 O 181.336 1.13692 1.41222 0
M  V30 1772 C 181.384 3.36325 -1.30069 0
M  V30 1773 O 180.488 4.09815 -0.461007 0
M  V30 1774 H 179.829 0.587108 -0.310162 0
M  V30 1775 H 182.359 1.43129 -1.46203 0
M  V30 1776 H 182.369 3.87157 -1.28738 0
M  V30 1777 H 181.044 3.43017 -2.35185 0
M  V30 1778 H 179.621 3.68986 -0.538888 0
M  V30 1779 N 181.806 0.884767 1.30421 0
M  V30 1780 C 182.769 0.356277 2.26414 0
M  V30 1781 C 183.769 -0.501124 1.52792 0
M  V30 1782 O 184.959 -0.30831 1.7145 0
M  V30 1783 C 182.091 -0.492316 3.37326 0
M  V30 1784 H 183.284 1.20389 2.74675 0
M  V30 1785 H 180.837 0.661607 1.41607 0
M  V30 1786 H 181.572 -1.36052 2.94381 0
M  V30 1787 H 181.357 0.121832 3.91911 0
M  V30 1788 H 182.847 -0.853871 4.08777 0
M  V30 1789 N 183.284 -1.43765 0.645699 0
M  V30 1790 C 184.247 -2.29163 -0.0409488 0
M  V30 1791 C 185.247 -1.41813 -0.757996 0
M  V30 1792 O 186.437 -1.63527 -0.600382 0
M  V30 1793 C 183.569 -3.23716 -1.06869 0
M  V30 1794 H 184.762 -2.91366 0.710345 0
M  V30 1795 H 182.315 -1.5092 0.406547 0
M  V30 1796 H 183.05 -2.66393 -1.84947 0
M  V30 1797 H 182.835 -3.88105 -0.558277 0
M  V30 1798 H 184.325 -3.87831 -1.54845 0
M  V30 1799 N 184.763 -0.387143 -1.52771 0
M  V30 1800 C 186.174 0.0873634 -1.86495 0
M  V30 1801 C 186.525 1.46336 -1.30691 0
M  V30 1802 O 185.65 2.068 -0.637409 0
M  V30 1803 C 186.245 0.165305 -3.38396 0
M  V30 1804 C 184.804 0.584101 -3.7184 0
M  V30 1805 C 183.951 -0.255279 -2.76122 0
M  V30 1806 H 186.902 -0.605104 -1.46711 0
M  V30 1807 H 186.923 0.984848 -3.67534 0
M  V30 1808 H 186.435 -0.836301 -3.78982 0
M  V30 1809 H 184.536 1.59315 -3.36823 0
M  V30 1810 H 184.649 0.343749 -4.77865 0
M  V30 1811 H 183.013 0.279126 -2.53166 0
M  V30 1812 H 183.796 -1.25482 -3.19545 0
M  V30 1813 N 186.241 1.57166 -0.116904 0
M  V30 1814 C 187.466 1.999 0.55271 0
M  V30 1815 C 187.891 0.996039 1.59564 0
M  V30 1816 O 187.249 -0.032556 1.81271 0
M  V30 1817 C 187.297 3.4152 1.15742 0
M  V30 1818 O 186.401 3.44106 2.27299 0
M  V30 1819 H 185.742 0.649447 0.138258 0
M  V30 1820 H 188.272 2.03573 -0.204759 0
M  V30 1821 H 188.282 3.79684 1.49346 0
M  V30 1822 H 186.957 4.14034 0.393493 0
M  V30 1823 H 185.534 3.17759 1.9515 0
M  V30 1824 N 187.719 -0.156864 1.56817 0
M  V30 1825 C 188.944 -0.890331 1.87318 0
M  V30 1826 C 189.369 -1.74394 0.704855 0
M  V30 1827 O 188.727 -1.77972 -0.345786 0
M  V30 1828 C 188.775 -1.73102 3.16336 0
M  V30 1829 O 187.879 -2.83422 2.99576 0
M  V30 1830 H 187.22 -0.24857 0.615718 0
M  V30 1831 H 189.75 -0.150649 2.04045 0
M  V30 1832 H 189.76 -2.12803 3.48107 0
M  V30 1833 H 188.435 -1.10412 4.00976 0
M  V30 1834 H 187.012 -2.47199 2.7919 0
M  V30 1835 N 189.197 -1.51736 -0.425897 0
M  V30 1836 C 190.446 -1.64201 -1.17136 0
M  V30 1837 C 190.759 -0.369705 -1.92074 0
M  V30 1838 O 191.965 -0.373898 -2.68913 0
M  V30 1839 C 190.421 -2.90035 -2.13091 0
M  V30 1840 C 190.029 -4.24312 -1.43747 0
M  V30 1841 C 191.773 -3.1186 -2.87999 0
M  V30 1842 C 189.68 -5.41285 -2.38253 0
M  V30 1843 H 188.61 -0.611624 -0.440944 0
M  V30 1844 H 191.261 -1.78212 -0.437328 0
M  V30 1845 H 189.643 -2.69684 -2.89977 0
M  V30 1846 H 190.817 -4.55086 -0.723408 0
M  V30 1847 H 189.132 -4.08456 -0.809465 0
M  V30 1848 H 191.729 -3.96427 -3.58817 0
M  V30 1849 H 192.072 -2.25403 -3.49999 0
M  V30 1850 H 192.605 -3.32605 -2.18217 0
M  V30 1851 H 189.344 -6.30037 -1.80925 0
M  V30 1852 H 188.864 -5.14872 -3.0768 0
M  V30 1853 H 190.543 -5.73694 -2.99139 0
M  V30 1854 N 190.675 0.682077 -1.42076 0
M  V30 1855 C 191.9 1.47558 -1.45744 0
M  V30 1856 C 192.325 1.87977 -0.0680981 0
M  V30 1857 O 191.683 1.55522 0.9318 0
M  V30 1858 C 191.731 2.70575 -2.38373 0
M  V30 1859 O 190.835 3.68573 -1.85007 0
M  V30 1860 H 190.176 0.443585 -0.494093 0
M  V30 1861 H 192.706 0.837238 -1.86686 0
M  V30 1862 H 192.716 3.18729 -2.54707 0
M  V30 1863 H 191.391 2.40495 -3.39315 0
M  V30 1864 H 189.968 3.2757 -1.78192 0
M  V30 1865 N 192.153 1.28127 0.917671 0
M  V30 1866 C 193.383 1.17722 1.6978 0
M  V30 1867 C 193.791 -0.267261 1.87303 0
M  V30 1868 O 193.134 -1.19286 1.39702 0
M  V30 1869 C 193.196 1.79958 3.11216 0
M  V30 1870 C 192.86 3.29187 3.16993 0
M  V30 1871 C 193.857 4.25679 2.98485 0
M  V30 1872 C 191.542 3.70075 3.39632 0
M  V30 1873 C 193.536 5.61035 3.02521 0
M  V30 1874 C 191.223 5.05557 3.433 0
M  V30 1875 C 192.221 6.00847 3.24764 0
M  V30 1876 O 191.909 7.33859 3.28187 0
M  V30 1877 H 191.641 0.409788 0.537634 0
M  V30 1878 H 194.195 1.69694 1.15728 0
M  V30 1879 H 192.425 1.22475 3.66793 0
M  V30 1880 H 194.114 1.64125 3.71238 0
M  V30 1881 H 194.88 3.95426 2.80826 0
M  V30 1882 H 190.759 2.96373 3.53106 0
M  V30 1883 H 194.303 6.35388 2.87971 0
M  V30 1884 H 190.2 5.35462 3.60486 0
M  V30 1885 H 190.968 7.42436 3.44575 0
M  V30 1886 N 193.631 -1.12557 1.10312 0
M  V30 1887 C 194.879 -1.83675 0.843091 0
M  V30 1888 C 195.2 -1.84435 -0.633131 0
M  V30 1889 O 194.47 -1.30657 -1.45964 0
M  V30 1890 H 193.05 -0.680138 0.308904 0
M  V30 1891 H 195.712 -1.36301 1.39313 0
M  V30 1892 H 194.808 -2.87908 1.2048 0
M  V30 1893 N 195.109 -0.891671 -1.2995 0
M  V30 1894 C 196.356 -0.513501 -1.95881 0
M  V30 1895 C 196.684 0.938655 -1.70351 0
M  V30 1896 O 195.939 1.67936 -1.00478 0
M  V30 1897 C 196.238 -0.742868 -3.49594 0
M  V30 1898 C 195.904 -2.17114 -3.95186 0
M  V30 1899 C 194.566 -2.56169 -4.07346 0
M  V30 1900 C 196.918 -3.10162 -4.18866 0
M  V30 1901 C 194.246 -3.87469 -4.4055 0
M  V30 1902 C 196.598 -4.41001 -4.53542 0
M  V30 1903 C 195.262 -4.79941 -4.63911 0
M  V30 1904 H 194.532 -0.187903 -0.71678 0
M  V30 1905 H 197.179 -1.1288 -1.54694 0
M  V30 1906 H 195.484 -0.044586 -3.91775 0
M  V30 1907 H 197.181 -0.429767 -3.9869 0
M  V30 1908 H 193.771 -1.85801 -3.86233 0
M  V30 1909 H 197.955 -2.81206 -4.08946 0
M  V30 1910 H 193.211 -4.17371 -4.46779 0
M  V30 1911 H 197.385 -5.13133 -4.70815 0
M  V30 1912 H 195.012 -5.81719 -4.89395 0
M  V30 1913 N 196.587 1.43421 -0.653314 0
M  V30 1914 C 197.833 2.02111 -0.166992 0
M  V30 1915 C 198.166 1.51423 1.21592 0
M  V30 1916 O 197.441 0.707389 1.8118 0
M  V30 1917 C 197.724 3.5966 -0.177948 0
M  V30 1918 C 197.577 4.20579 -1.59478 0
M  V30 1919 C 198.896 4.37413 0.4856 0
M  V30 1920 H 196.015 0.734374 -0.0621557 0
M  V30 1921 H 198.657 1.70717 -0.834016 0
M  V30 1922 H 196.807 3.86537 0.390032 0
M  V30 1923 H 198.479 4.04732 -2.21336 0
M  V30 1924 H 196.722 3.77226 -2.14204 0
M  V30 1925 H 197.393 5.29665 -1.5543 0
M  V30 1926 H 199.869 4.161 0.00234528 0
M  V30 1927 H 198.745 5.47075 0.447207 0
M  V30 1928 H 199.006 4.13672 1.55974 0
M  V30 1929 N 198.065 0.39524 1.52563 0
M  V30 1930 C 199.342 -0.242908 1.94086 0
M  V30 1931 C 199.722 -1.63841 1.33114 0
M  V30 1932 O 199.07 -2.22928 0.501529 0
M  V30 1933 C 199.28 -0.26327 3.48006 0
M  V30 1934 C 200.628 -0.489354 4.21771 0
M  V30 1935 O 201.652 -0.343226 3.54543 0
M  V30 1936 O 200.511 -0.776169 5.4096 0
M  V30 1937 H 197.605 -0.152536 0.812811 0
M  V30 1938 H 200.151 0.450178 1.6362 0
M  V30 1939 H 198.923 0.713985 3.84731 0
M  V30 1940 H 198.546 -1.00103 3.84792 0
M  V30 1941 N 199.544 -1.57102 0.125237 0
M  V30 1942 C 200.792 -1.95021 -0.530198 0
M  V30 1943 C 201.113 -1.00982 -1.66816 0
M  V30 1944 O 200.383 -0.0672693 -1.95784 0
M  V30 1945 H 198.963 -0.720046 -0.198853 0
M  V30 1946 H 201.625 -1.93916 0.19564 0
M  V30 1947 H 200.721 -2.98211 -0.920681 0
M  V30 1948 N 201.022 0.148545 -1.56898 0
M  V30 1949 C 201.985 1.16736 -1.97244 0
M  V30 1950 C 202.985 1.35947 -0.858777 0
M  V30 1951 O 204.175 1.32966 -1.12542 0
M  V30 1952 C 201.307 2.52798 -2.28705 0
M  V30 1953 H 202.5 0.821279 -2.88435 0
M  V30 1954 H 200.053 0.391831 -1.51309 0
M  V30 1955 H 200.788 2.92381 -1.403 0
M  V30 1956 H 200.573 2.40216 -3.09901 0
M  V30 1957 H 202.063 3.26179 -2.60762 0
M  V30 1958 N 202.5 1.5196 0.417844 0
M  V30 1959 C 203.746 1.65836 1.16732 0
M  V30 1960 C 204.079 0.382881 1.90388 0
M  V30 1961 O 203.354 -0.618368 1.84408 0
M  V30 1962 C 203.637 2.87466 2.16876 0
M  V30 1963 C 203.49 4.25041 1.47174 0
M  V30 1964 C 204.809 3.04613 3.17646 0
M  V30 1965 H 201.928 0.603515 0.423011 0
M  V30 1966 H 204.57 1.84494 0.454105 0
M  V30 1967 H 202.72 2.71689 2.777 0
M  V30 1968 H 204.392 4.52527 0.895376 0
M  V30 1969 H 202.635 4.26843 0.773806 0
M  V30 1970 H 203.306 5.06176 2.20204 0
M  V30 1971 H 205.782 3.1923 2.66892 0
M  V30 1972 H 204.658 3.91247 3.8499 0
M  V30 1973 H 204.919 2.17541 3.84874 0
M  V30 1974 N 203.978 -0.674533 1.42435 0
M  V30 1975 C 205.208 -1.46071 1.46105 0
M  V30 1976 C 205.616 -1.89067 0.0709605 0
M  V30 1977 O 204.959 -1.58731 -0.924677 0
M  V30 1978 C 205.021 -2.74145 2.32561 0
M  V30 1979 C 204.685 -2.53224 3.8043 0
M  V30 1980 C 205.682 -2.17809 4.72075 0
M  V30 1981 C 203.367 -2.6821 4.24698 0
M  V30 1982 C 205.361 -1.97648 6.05982 0
M  V30 1983 C 203.048 -2.47665 5.58664 0
M  V30 1984 C 204.046 -2.12437 6.49122 0
M  V30 1985 O 203.734 -1.9209 7.80613 0
M  V30 1986 H 203.466 -0.455959 0.499076 0
M  V30 1987 H 206.02 -0.836193 1.87609 0
M  V30 1988 H 204.25 -3.3908 1.85908 0
M  V30 1989 H 205.939 -3.36028 2.27683 0
M  V30 1990 H 206.705 -2.05826 4.39159 0
M  V30 1991 H 202.584 -2.94609 3.54579 0
M  V30 1992 H 206.128 -1.70075 6.7655 0
M  V30 1993 H 202.025 -2.59244 5.91154 0
M  V30 1994 H 202.793 -2.06686 7.91974 0
M  V30 1995 N 205.456 -1.28612 -0.910864 0
M  V30 1996 C 206.404 -1.1265 -2.03501 0
M  V30 1997 C 207.398 -0.0450054 -1.6934 0
M  V30 1998 O 208.604 -0.203988 -1.7884 0
M  V30 1999 H 204.979 -0.347639 -0.666822 0
M  V30 2000 H 206.95 -2.07849 -2.14106 0
M  V30 2001 C 205.699 -0.808143 -3.38178 0
M  V30 2002 H 205.022 -1.63231 -3.6496 0
M  V30 2003 H 206.462 -0.736426 -4.17556 0
M  V30 2004 C 204.921 0.488226 -3.33344 0
M  V30 2005 O 205.451 1.51766 -3.71927 0
M  V30 2006 N 203.657 0.490009 -2.86439 0
M  V30 2007 H 203.204 -0.348161 -2.55236 0
M  V30 2008 H 203.162 1.35741 -2.83587 0
M  V30 2009 N 206.934 1.1197 -1.10907 0
M  V30 2010 C 207.897 2.16031 -0.765707 0
M  V30 2011 C 208.897 1.59393 0.212235 0
M  V30 2012 O 210.087 1.74196 -0.0115441 0
M  V30 2013 C 207.219 3.40632 -0.135053 0
M  V30 2014 H 208.412 2.47919 -1.68748 0
M  V30 2015 H 205.965 1.27061 -0.910226 0
M  V30 2016 H 206.7 3.14348 0.797218 0
M  V30 2017 H 206.485 3.8302 -0.838937 0
M  V30 2018 H 207.975 4.17505 0.0892469 0
M  V30 2019 N 208.412 0.89855 1.29475 0
M  V30 2020 C 209.637 0.538561 2.00285 0
M  V30 2021 C 210.062 -0.869135 1.66816 0
M  V30 2022 O 209.42 -1.57831 0.892145 0
M  V30 2023 C 209.468 0.736475 3.52999 0
M  V30 2024 O 208.572 -0.211537 4.11857 0
M  V30 2025 H 207.913 0.210563 0.62973 0
M  V30 2026 H 210.443 1.20982 1.64998 0
M  V30 2027 H 210.453 0.640685 4.02938 0
M  V30 2028 H 209.128 1.76276 3.76696 0
M  V30 2029 H 207.705 -0.0682991 3.72837 0
M  V30 2030 N 209.89 -1.43072 0.660911 0
M  V30 2031 C 211.12 -2.05769 0.185153 0
M  V30 2032 C 211.528 -1.49668 -1.15742 0
M  V30 2033 O 210.871 -0.625649 -1.72717 0
M  V30 2034 C 210.933 -3.59489 0.0278237 0
M  V30 2035 C 210.597 -4.38212 1.2969 0
M  V30 2036 C 211.594 -4.69772 2.22734 0
M  V30 2037 C 209.279 -4.7809 1.54063 0
M  V30 2038 C 211.273 -5.40129 3.38437 0
M  V30 2039 C 208.96 -5.4819 2.70058 0
M  V30 2040 C 209.958 -5.79132 3.62071 0
M  V30 2041 O 209.646 -6.47798 4.76039 0
M  V30 2042 H 209.378 -0.669873 0.0908086 0
M  V30 2043 H 211.932 -1.84436 0.90402 0
M  V30 2044 H 210.162 -3.79426 -0.746489 0
M  V30 2045 H 211.851 -4.03862 -0.406275 0
M  V30 2046 H 212.617 -4.39476 2.05149 0
M  V30 2047 H 208.496 -4.53408 0.833215 0
M  V30 2048 H 212.04 -5.64198 4.10277 0
M  V30 2049 H 207.937 -5.77902 2.87574 0
M  V30 2050 H 208.705 -6.66283 4.75404 0
M  V30 2051 N 211.368 -0.403325 -1.52352 0
M  V30 2052 C 212.645 0.232611 -1.94212 0
M  V30 2053 C 213.025 1.63133 -1.33981 0
M  V30 2054 O 212.373 2.22659 -0.513344 0
M  V30 2055 C 212.583 0.244811 -3.4814 0
M  V30 2056 C 213.931 0.46698 -4.22024 0
M  V30 2057 O 214.955 0.324419 -3.5472 0
M  V30 2058 O 213.814 0.74747 -5.41364 0
M  V30 2059 H 210.908 0.148223 -0.813609 0
M  V30 2060 H 213.454 -0.458848 -1.63379 0
M  V30 2061 H 212.226 -0.734378 -3.84347 0
M  V30 2062 H 211.849 0.980611 -3.85318 0
M  V30 2063 N 212.846 1.57033 -0.133567 0
M  V30 2064 C 214.095 1.94861 0.520768 0
M  V30 2065 C 214.408 1.02012 1.66892 0
M  V30 2066 O 215.614 1.29365 2.38699 0
M  V30 2067 C 214.07 3.46362 0.977809 0
M  V30 2068 C 213.678 4.47773 -0.142674 0
M  V30 2069 C 215.422 3.93083 1.60269 0
M  V30 2070 C 213.329 5.90468 0.331883 0
M  V30 2071 H 212.259 0.727453 0.198315 0
M  V30 2072 H 214.91 1.82227 -0.215759 0
M  V30 2073 H 213.292 3.54282 1.7692 0
M  V30 2074 H 214.466 4.51536 -0.919317 0
M  V30 2075 H 212.781 4.10891 -0.675124 0
M  V30 2076 H 215.378 4.97121 1.96914 0
M  V30 2077 H 215.721 3.33876 2.48662 0
M  V30 2078 H 216.254 3.88025 0.876453 0
M  V30 2079 H 212.993 6.53463 -0.516341 0
M  V30 2080 H 212.513 5.90094 1.07469 0
M  V30 2081 H 214.192 6.42179 0.788332 0
M  V30 2082 N 214.325 -0.140222 1.56975 0
M  V30 2083 C 215.571 -0.848084 1.84876 0
M  V30 2084 C 215.926 -1.78481 0.718481 0
M  V30 2085 O 215.219 -1.89497 -0.283093 0
M  V30 2086 C 215.413 -1.65386 3.16832 0
M  V30 2087 C 215.242 -0.79665 4.42587 0
M  V30 2088 C 214.012 -0.459648 5.03205 0
M  V30 2089 C 216.21 -0.12389 5.14151 0
M  V30 2090 N 214.192 0.410446 6.12526 0
M  V30 2091 C 215.563 0.606064 6.17031 0
M  V30 2092 C 217.618 -0.0452654 4.97879 0
M  V30 2093 C 216.321 1.40723 7.054 0
M  V30 2094 C 218.347 0.742658 5.86718 0
M  V30 2095 C 217.709 1.46087 6.89085 0
M  V30 2096 H 213.808 -0.287946 0.727056 0
M  V30 2097 H 216.392 -0.11304 1.94372 0
M  V30 2098 H 214.563 -2.36009 3.08471 0
M  V30 2099 H 216.295 -2.30541 3.32615 0
M  V30 2100 H 213.05 -0.797006 4.66846 0
M  V30 2101 H 213.474 0.836716 6.7181 0
M  V30 2102 H 218.116 -0.586184 4.18717 0
M  V30 2103 H 215.834 1.95938 7.83986 0
M  V30 2104 H 219.42 0.805574 5.76196 0
M  V30 2105 H 218.3 2.06077 7.56639 0
M  V30 2106 N 215.803 -1.52179 -0.40978 0
M  V30 2107 C 216.733 -1.78435 -1.5061 0
M  V30 2108 C 217.714 -0.635295 -1.57791 0
M  V30 2109 O 218.899 -0.880823 -1.73076 0
M  V30 2110 C 216.029 -1.93444 -2.88439 0
M  V30 2111 C 214.983 -3.09038 -2.96108 0
M  V30 2112 C 214.309 -3.09268 -4.36185 0
M  V30 2113 C 215.609 -4.48508 -2.67652 0
M  V30 2114 H 217.303 -2.70237 -1.28889 0
M  V30 2115 H 214.849 -1.30036 -0.618605 0
M  V30 2116 H 216.802 -2.10394 -3.65119 0
M  V30 2117 H 215.526 -0.983129 -3.11452 0
M  V30 2118 H 214.185 -2.91837 -2.21872 0
M  V30 2119 H 213.833 -2.11861 -4.56206 0
M  V30 2120 H 213.533 -3.86907 -4.42241 0
M  V30 2121 H 215.057 -3.28348 -5.14801 0
M  V30 2122 H 216.471 -4.65918 -3.34056 0
M  V30 2123 H 214.868 -5.28059 -2.85085 0
M  V30 2124 H 215.938 -4.56649 -1.63095 0
M  V30 2125 N 217.281 0.66697 -1.42791 0
M  V30 2126 C 218.558 1.4234 -1.34159 0
M  V30 2127 C 218.938 2.11093 0.0172729 0
M  V30 2128 O 218.286 2.03808 1.03318 0
M  V30 2129 C 218.496 2.41942 -2.51526 0
M  V30 2130 C 219.844 3.06353 -2.93995 0
M  V30 2131 O 220.868 2.52269 -2.51473 0
M  V30 2132 O 219.727 4.04376 -3.67617 0
M  V30 2133 H 216.821 0.635277 -0.529483 0
M  V30 2134 H 219.367 0.695034 -1.54814 0
M  V30 2135 H 218.139 1.89991 -3.42081 0
M  V30 2136 H 217.762 3.22249 -2.32898 0
M  V30 2137 N 218.759 1.29093 0.90403 0
M  V30 2138 C 220.17 1.15186 1.46932 0
M  V30 2139 C 220.521 -0.254587 1.94541 0
M  V30 2140 O 219.646 -1.14972 1.83332 0
M  V30 2141 C 220.241 2.08492 2.67051 0
M  V30 2142 C 218.8 1.98621 3.19729 0
M  V30 2143 C 217.947 1.9967 1.92425 0
M  V30 2144 H 220.898 1.41641 0.715789 0
M  V30 2145 H 220.919 1.65461 3.42641 0
M  V30 2146 H 220.431 3.10847 2.3237 0
M  V30 2147 H 218.532 0.993389 3.59114 0
M  V30 2148 H 218.645 2.86068 3.8432 0
M  V30 2149 H 217.009 1.44208 2.09943 0
M  V30 2150 H 217.792 3.03721 1.60026 0
M  V30 2151 N 220.237 -1.11381 1.11499 0
M  V30 2152 C 221.465 -1.86934 0.88675 0
M  V30 2153 C 221.88 -1.80195 -0.563476 0
M  V30 2154 O 221.237 -1.18367 -1.38908 0
M  V30 2155 C 221.288 -3.35722 1.34064 0
M  V30 2156 O 221.009 -3.4232 2.73401 0
M  V30 2157 C 222.51 -4.2818 1.14791 0
M  V30 2158 H 219.73 -0.591117 0.317523 0
M  V30 2159 H 222.274 -1.40865 1.48248 0
M  V30 2160 H 220.429 -3.79294 0.788355 0
M  V30 2161 H 220.843 -4.34971 2.93087 0
M  V30 2162 H 222.317 -5.30817 1.5145 0
M  V30 2163 H 222.794 -4.39113 0.0875279 0
M  V30 2164 H 223.4 -3.90402 1.68721 0
M  V30 2165 N 221.715 -0.905404 -1.28997 0
M  V30 2166 C 222.678 -0.392253 -2.25819 0
M  V30 2167 C 223.678 0.476753 -1.5357 0
M  V30 2168 O 224.868 0.280994 -1.71919 0
M  V30 2169 C 222 0.438588 -3.38067 0
M  V30 2170 H 223.193 -1.24743 -2.72725 0
M  V30 2171 H 220.746 -0.684051 -1.40536 0
M  V30 2172 H 221.481 1.31352 -2.96508 0
M  V30 2173 H 221.266 -0.184167 -3.91667 0
M  V30 2174 H 222.756 0.78873 -4.10084 0
M  V30 2175 N 223.193 1.4272 -0.668489 0
M  V30 2176 C 224.609 1.55992 -0.33745 0
M  V30 2177 C 224.809 1.64933 1.15756 0
M  V30 2178 O 223.865 1.61278 1.94282 0
M  V30 2179 C 225.178 2.81314 -1.06222 0
M  V30 2180 C 226.726 2.95078 -1.04394 0
M  V30 2181 C 227.201 4.23252 -1.74991 0
M  V30 2182 N 228.692 4.3015 -1.71829 0
M  V30 2183 C 229.427 5.28127 -2.23315 0
M  V30 2184 N 228.923 6.32293 -2.83156 0
M  V30 2185 N 230.716 5.19882 -2.13726 0
M  V30 2186 H 222.867 1.3516 -1.63846 0
M  V30 2187 H 225.13 0.650174 -0.689912 0
M  V30 2188 H 224.836 2.80823 -2.11734 0
M  V30 2189 H 224.71 3.72012 -0.62344 0
M  V30 2190 H 227.097 2.951 0.0028244 0
M  V30 2191 H 227.178 2.05627 -1.52155 0
M  V30 2192 H 226.822 4.2399 -2.79633 0
M  V30 2193 H 226.752 5.11626 -1.24685 0
M  V30 2194 H 229.243 3.55499 -1.28175 0
M  V30 2195 H 229.556 7.03398 -3.20079 0
M  V30 2196 H 227.901 6.32873 -2.87223 0
M  V30 2197 H 231.092 4.37423 -1.66669 0
M  V30 2198 H 231.265 5.96077 -2.54158 0
M  V30 2199 N 224.671 0.411399 1.52136 0
M  V30 2200 C 225.899 -0.163076 2.06256 0
M  V30 2201 C 226.314 -1.3867 1.28125 0
M  V30 2202 O 225.671 -1.79423 0.333721 0
M  V30 2203 C 225.722 -0.511252 3.57867 0
M  V30 2204 O 225.443 0.66378 4.33042 0
M  V30 2205 C 226.944 -1.13921 4.28412 0
M  V30 2206 H 224.164 -0.0193897 0.67072 0
M  V30 2207 H 226.708 0.583007 1.96013 0
M  V30 2208 H 224.863 -1.20723 3.6811 0
M  V30 2209 H 225.277 0.372601 5.23175 0
M  V30 2210 H 226.751 -1.33302 5.35663 0
M  V30 2211 H 227.228 -2.11296 3.85033 0
M  V30 2212 H 227.834 -0.483373 4.22544 0
M  V30 2213 N 226.149 -1.5696 0.141893 0
M  V30 2214 C 227.426 -1.87553 -0.555281 0
M  V30 2215 C 227.806 -1.04699 -1.83306 0
M  V30 2216 O 227.154 -0.132346 -2.28116 0
M  V30 2217 C 227.364 -3.39093 -0.825664 0
M  V30 2218 C 228.712 -4.08199 -1.16869 0
M  V30 2219 O 229.736 -3.44242 -0.915185 0
M  V30 2220 O 228.595 -5.21139 -1.6455 0
M  V30 2221 H 225.689 -0.777188 -0.282679 0
M  V30 2222 H 228.235 -1.68763 0.17812 0
M  V30 2223 H 227.007 -3.91221 0.0788633 0
M  V30 2224 H 226.63 -3.63393 -1.61343 0
M  V30 2225 N 227.627 0.131896 -1.57047 0
M  V30 2226 C 228.875 0.840269 -1.83804 0
M  V30 2227 C 229.196 1.81017 -0.72512 0
M  V30 2228 O 228.466 1.94272 0.251995 0
M  V30 2229 H 227.046 0.313294 -0.678127 0
M  V30 2230 H 229.708 0.122294 -1.94516 0
M  V30 2231 H 228.804 1.39335 -2.79271 0
M  V30 2232 N 229.106 1.52395 0.401703 0
M  V30 2233 C 230.352 1.67065 1.14966 0
M  V30 2234 C 230.685 0.403052 1.89971 0
M  V30 2235 O 229.96 -0.598774 1.85054 0
M  V30 2236 C 230.243 2.8975 2.13815 0
M  V30 2237 C 230.096 4.26578 1.42658 0
M  V30 2238 C 231.415 3.07965 3.14397 0
M  V30 2239 H 228.534 0.607968 0.416587 0
M  V30 2240 H 231.176 1.84965 0.434511 0
M  V30 2241 H 229.326 2.74619 2.74803 0
M  V30 2242 H 230.998 4.53451 0.847329 0
M  V30 2243 H 229.241 4.27639 0.72849 0
M  V30 2244 H 229.912 5.08483 2.14823 0
M  V30 2245 H 232.388 3.22043 2.63491 0
M  V30 2246 H 231.264 3.95308 3.80819 0
M  V30 2247 H 231.525 2.21611 3.82545 0
M  V30 2248 N 230.584 -0.659388 1.43143 0
M  V30 2249 C 231.532 -1.79374 1.4808 0
M  V30 2250 C 232.526 -1.65639 0.354988 0
M  V30 2251 O 233.732 -1.7206 0.528704 0
M  V30 2252 H 230.107 -0.591705 0.4641 0
M  V30 2253 H 232.078 -1.72329 2.43609 0
M  V30 2254 C 230.827 -3.17606 1.41499 0
M  V30 2255 H 230.15 -3.28809 2.27431 0
M  V30 2256 H 231.59 -3.96951 1.49015 0
M  V30 2257 C 230.049 -3.36642 0.131765 0
M  V30 2258 O 230.579 -3.93461 -0.809386 0
M  V30 2259 N 228.785 -2.90567 0.0439396 0
M  V30 2260 H 228.332 -2.44513 0.810619 0
M  V30 2261 H 228.29 -3.03681 -0.813969 0
M  V30 2262 N 232.062 -1.29571 -0.897171 0
M  V30 2263 C 232.994 -1.10724 -2.00681 0
M  V30 2264 C 234.007 -0.0540026 -1.6271 0
M  V30 2265 O 235.196 -0.298783 -1.75982 0
M  V30 2266 C 232.296 -0.663912 -3.32333 0
M  V30 2267 C 231.469 -1.79622 -3.98816 0
M  V30 2268 C 230.528 -1.34349 -5.0876 0
M  V30 2269 O 229.554 -2.04864 -5.31055 0
M  V30 2270 N 230.756 -0.215764 -5.80099 0
M  V30 2271 H 233.521 -2.06291 -2.17403 0
M  V30 2272 H 231.082 -1.21544 -1.06951 0
M  V30 2273 H 233.074 -0.344295 -4.03233 0
M  V30 2274 H 231.644 0.199375 -3.11964 0
M  V30 2275 H 230.864 -2.28459 -3.21248 0
M  V30 2276 H 232.152 -2.55535 -4.39976 0
M  V30 2277 H 231.55 0.372091 -5.64475 0
M  V30 2278 H 230.107 0.0444707 -6.51785 0
M  V30 2279 N 233.54 1.10788 -1.12088 0
M  V30 2280 C 234.768 1.86461 -0.896651 0
M  V30 2281 C 235.183 1.80492 0.553912 0
M  V30 2282 O 234.54 1.19102 1.38278 0
M  V30 2283 C 234.591 3.35006 -1.35843 0
M  V30 2284 O 234.312 3.40866 -2.75213 0
M  V30 2285 C 235.813 4.27565 -1.1706 0
M  V30 2286 H 233.033 0.589425 -0.320654 0
M  V30 2287 H 235.577 1.40076 -1.48993 0
M  V30 2288 H 233.732 3.7887 -0.808458 0
M  V30 2289 H 234.146 4.33411 -2.9539 0
M  V30 2290 H 235.62 5.30007 -1.54263 0
M  V30 2291 H 236.097 4.3906 -0.110814 0
M  V30 2292 H 236.703 3.89501 -1.70789 0
M  V30 2293 N 235.018 0.912232 1.28515 0
M  V30 2294 C 235.928 0.404506 2.31086 0
M  V30 2295 C 236.944 -0.50707 1.66448 0
M  V30 2296 O 238.12 -0.393624 1.97516 0
M  V30 2297 C 235.185 -0.348572 3.44943 0
M  V30 2298 C 234.246 0.59604 4.25142 0
M  V30 2299 C 233.479 -0.121194 5.33562 0
M  V30 2300 O 233.702 -1.34317 5.5436 0
M  V30 2301 O 232.636 0.542716 5.99448 0
M  V30 2302 H 236.462 1.25579 2.76521 0
M  V30 2303 H 234.047 0.676998 1.33181 0
M  V30 2304 H 235.929 -0.77395 4.14232 0
M  V30 2305 H 234.604 -1.17571 3.01594 0
M  V30 2306 H 233.511 1.07079 3.58448 0
M  V30 2307 H 234.844 1.38995 4.72167 0
M  V30 2308 N 236.496 -1.42363 0.676048 0
M  V30 2309 C 237.745 -2.00745 0.196037 0
M  V30 2310 C 238.058 -1.54083 -1.20489 0
M  V30 2311 O 239.264 -2.04891 -1.78134 0
M  V30 2312 C 237.72 -3.58651 0.299616 0
M  V30 2313 C 237.328 -4.143 1.70468 0
M  V30 2314 C 239.072 -4.24326 -0.121619 0
M  V30 2315 C 236.979 -5.64574 1.76096 0
M  V30 2316 H 235.909 -0.750787 0.0695301 0
M  V30 2317 H 238.56 -1.63072 0.841412 0
M  V30 2318 H 236.942 -3.93833 -0.413673 0
M  V30 2319 H 238.116 -3.90575 2.44515 0
M  V30 2320 H 236.431 -3.61081 2.07387 0
M  V30 2321 H 239.028 -5.34607 -0.0997362 0
M  V30 2322 H 239.371 -3.99897 -1.15708 0
M  V30 2323 H 239.904 -3.94108 0.540706 0
M  V30 2324 H 236.643 -5.93804 2.77628 0
M  V30 2325 H 236.163 -5.90286 1.06406 0
M  V30 2326 H 237.842 -6.29013 1.51496 0
M  V30 2327 N 237.974 -0.419461 -1.51915 0
M  V30 2328 C 238.907 0.445751 -2.23804 0
M  V30 2329 C 239.885 1.03951 -1.25031 0
M  V30 2330 O 241.069 1.08541 -1.54114 0
M  V30 2331 C 238.196 1.61964 -2.97465 0
M  V30 2332 C 237.242 1.14828 -4.10751 0
M  V30 2333 S 238.075 0.104938 -5.35397 0
M  V30 2334 C 239.231 1.28391 -6.1259 0
M  V30 2335 H 239.464 -0.164627 -2.96844 0
M  V30 2336 H 236.997 -0.203833 -1.53049 0
M  V30 2337 H 238.955 2.29271 -3.40507 0
M  V30 2338 H 237.616 2.20139 -2.24048 0
M  V30 2339 H 236.809 2.02561 -4.61503 0
M  V30 2340 H 236.411 0.553712 -3.69878 0
M  V30 2341 H 238.703 2.20563 -6.40592 0
M  V30 2342 H 239.646 0.816724 -7.03374 0
M  V30 2343 H 240.054 1.51439 -5.43807 0
M  V30 2344 N 239.452 1.56882 -0.150215 0
M  V30 2345 C 240.701 1.95403 0.500071 0
M  V30 2346 C 241.014 1.03777 1.658 0
M  V30 2347 O 242.22 1.31889 2.37313 0
M  V30 2348 C 240.676 3.4738 0.941018 0
M  V30 2349 C 240.284 4.47596 -0.190158 0
M  V30 2350 C 242.028 3.9476 1.56091 0
M  V30 2351 C 239.935 5.90787 0.269237 0
M  V30 2352 H 238.865 0.729515 0.190588 0
M  V30 2353 H 241.516 1.81988 -0.235074 0
M  V30 2354 H 239.898 3.56138 1.73152 0
M  V30 2355 H 241.072 4.50536 -0.967157 0
M  V30 2356 H 239.387 4.10151 -0.718666 0
M  V30 2357 H 241.984 4.99181 1.9163 0
M  V30 2358 H 242.327 3.36494 2.45107 0
M  V30 2359 H 242.86 3.88932 0.835249 0
M  V30 2360 H 239.599 6.52879 -0.585621 0
M  V30 2361 H 239.119 5.912 1.01204 0
M  V30 2362 H 240.798 6.42979 0.720176 0
M  V30 2363 N 240.93 -0.123565 1.57115 0
M  V30 2364 C 242.176 -0.828428 1.85765 0
M  V30 2365 C 242.531 -1.77709 0.737371 0
M  V30 2366 O 241.824 -1.89787 -0.262978 0
M  V30 2367 C 242.018 -1.62016 3.18568 0
M  V30 2368 C 241.847 -0.749663 4.43407 0
M  V30 2369 C 240.617 -0.406251 5.03664 0
M  V30 2370 C 242.815 -0.0693505 5.14253 0
M  V30 2371 N 240.797 0.475389 6.12057 0
M  V30 2372 C 242.168 0.671474 6.16353 0
M  V30 2373 C 244.223 0.00754393 4.97899 0
M  V30 2374 C 242.926 1.48197 7.03868 0
M  V30 2375 C 244.952 0.804845 5.85898 0
M  V30 2376 C 244.314 1.53388 6.87497 0
M  V30 2377 H 240.413 -0.280219 0.73007 0
M  V30 2378 H 242.997 -0.0924183 1.94481 0
M  V30 2379 H 241.168 -2.32724 3.10957 0
M  V30 2380 H 242.9 -2.27 3.35042 0
M  V30 2381 H 239.655 -0.747446 4.67665 0
M  V30 2382 H 240.079 0.907924 6.70884 0
M  V30 2383 H 244.721 -0.541741 4.19315 0
M  V30 2384 H 242.439 2.04242 7.81864 0
M  V30 2385 H 246.025 0.866642 5.75309 0
M  V30 2386 H 244.905 2.1409 7.5441 0
M  V30 2387 N 242.408 -1.52605 -0.393616 0
M  V30 2388 C 243.655 -1.67424 -1.1391 0
M  V30 2389 C 243.983 -0.411859 -1.90089 0
M  V30 2390 O 243.238 0.605626 -1.86093 0
M  V30 2391 C 243.537 -2.85721 -2.14705 0
M  V30 2392 C 243.203 -4.23342 -1.55218 0
M  V30 2393 C 241.865 -4.60771 -1.3872 0
M  V30 2394 C 244.217 -5.09041 -1.11924 0
M  V30 2395 C 241.545 -5.81563 -0.774689 0
M  V30 2396 C 243.897 -6.30452 -0.520853 0
M  V30 2397 C 242.561 -6.66617 -0.343134 0
M  V30 2398 H 241.831 -0.612648 -0.416826 0
M  V30 2399 H 244.478 -1.8674 -0.424315 0
M  V30 2400 H 242.783 -2.60803 -2.92385 0
M  V30 2401 H 244.48 -2.94382 -2.72288 0
M  V30 2402 H 241.07 -3.93855 -1.69045 0
M  V30 2403 H 245.254 -4.80695 -1.23473 0
M  V30 2404 H 240.51 -6.08196 -0.625154 0
M  V30 2405 H 244.684 -6.96175 -0.177065 0
M  V30 2406 H 242.311 -7.60083 0.133571 0
M  V30 2407 N 243.887 0.651787 -1.4349 0
M  V30 2408 C 244.835 1.78586 -1.49029 0
M  V30 2409 C 245.829 1.65448 -0.363767 0
M  V30 2410 O 247.035 1.71777 -0.537821 0
M  V30 2411 H 243.41 0.589236 -0.467231 0
M  V30 2412 H 245.381 1.71035 -2.44519 0
M  V30 2413 C 244.13 3.16851 -1.43181 0
M  V30 2414 H 243.453 3.27598 -2.29171 0
M  V30 2415 H 244.893 3.96156 -1.51118 0
M  V30 2416 C 243.352 3.36568 -0.149616 0
M  V30 2417 O 243.882 3.93885 0.788509 0
M  V30 2418 N 242.088 2.90539 -0.0593484 0
M  V30 2419 H 241.635 2.4408 -0.823575 0
M  V30 2420 H 241.593 3.04108 0.797853 0
M  V30 2421 N 245.365 1.30045 0.890287 0
M  V30 2422 C 246.781 1.08261 1.17268 0
M  V30 2423 C 246.981 -0.160063 2.00863 0
M  V30 2424 O 246.037 -0.855181 2.37577 0
M  V30 2425 C 247.35 2.34323 1.8845 0
M  V30 2426 C 248.898 2.39735 2.01237 0
M  V30 2427 C 249.373 3.65625 2.7583 0
M  V30 2428 N 250.864 3.66402 2.83379 0
M  V30 2429 C 251.599 4.60498 3.41657 0
M  V30 2430 N 251.095 5.64933 4.01026 0
M  V30 2431 N 252.888 4.48051 3.39421 0
M  V30 2432 H 245.039 2.09777 0.332762 0
M  V30 2433 H 247.302 0.92446 0.209948 0
M  V30 2434 H 247.008 3.2498 1.34465 0
M  V30 2435 H 246.882 2.4256 2.88867 0
M  V30 2436 H 249.269 1.4956 2.54393 0
M  V30 2437 H 249.35 2.35476 0.999232 0
M  V30 2438 H 248.994 4.56156 2.23347 0
M  V30 2439 H 248.924 3.67144 3.77509 0
M  V30 2440 H 251.415 2.90896 2.41222 0
M  V30 2441 H 251.728 6.32841 4.43545 0
M  V30 2442 H 250.073 5.68732 3.99461 0
M  V30 2443 H 253.264 3.65649 2.92264 0
M  V30 2444 H 253.437 5.21565 3.84544 0
M  V30 2445 N 246.843 -1.10192 1.12674 0
M  V30 2446 C 248.089 -1.82475 0.884915 0
M  V30 2447 C 248.422 -1.85093 -0.58773 0
M  V30 2448 O 247.697 -1.3134 -1.43457 0
M  V30 2449 C 247.98 -3.29018 1.46353 0
M  V30 2450 C 247.833 -3.34718 3.00473 0
M  V30 2451 C 249.152 -4.25473 1.12519 0
M  V30 2452 H 246.271 -0.662492 0.322915 0
M  V30 2453 H 248.913 -1.2913 1.39375 0
M  V30 2454 H 247.063 -3.74576 1.03077 0
M  V30 2455 H 248.735 -2.97622 3.52447 0
M  V30 2456 H 246.978 -2.74541 3.35872 0
M  V30 2457 H 247.649 -4.37918 3.36053 0
M  V30 2458 H 250.125 -3.88161 1.499 0
M  V30 2459 H 249.001 -5.26365 1.55663 0
M  V30 2460 H 249.262 -4.42084 0.0377407 0
M  V30 2461 N 248.321 -0.919034 -1.28029 0
M  V30 2462 C 249.569 -0.553838 -1.94363 0
M  V30 2463 C 249.89 0.906357 -1.72656 0
M  V30 2464 O 249.16 1.64143 -1.0693 0
M  V30 2465 H 247.74 -0.201834 -0.719216 0
M  V30 2466 H 250.402 -1.16954 -1.55909 0
M  V30 2467 H 249.498 -0.752758 -3.02886 0
M  V30 2468 N 249.799 1.42003 -0.683588 0
M  V30 2469 C 251.21 1.84501 -0.285736 0
M  V30 2470 C 251.561 1.57213 1.17382 0
M  V30 2471 O 250.686 1.03642 1.89966 0
M  V30 2472 C 251.281 3.34912 -0.511821 0
M  V30 2473 C 249.84 3.76025 -0.168005 0
M  V30 2474 C 248.987 2.6551 -0.799983 0
M  V30 2475 H 251.938 1.31724 -0.885119 0
M  V30 2476 H 251.959 3.79784 0.233292 0
M  V30 2477 H 251.471 3.54741 -1.57418 0
M  V30 2478 H 249.572 3.61801 0.890567 0
M  V30 2479 H 249.685 4.75141 -0.614661 0
M  V30 2480 H 248.049 2.53654 -0.230568 0
M  V30 2481 H 248.832 2.8816 -1.86597 0
M  V30 2482 N 251.277 0.427512 1.51691 0
M  V30 2483 C 252.526 -0.143679 2.01188 0
M  V30 2484 C 252.839 -1.44642 1.31674 0
M  V30 2485 O 254.045 -2.09997 1.72086 0
M  V30 2486 C 252.501 -0.306602 3.58592 0
M  V30 2487 C 252.109 0.985125 4.37035 0
M  V30 2488 C 253.853 -0.832091 4.16265 0
M  V30 2489 C 251.76 0.788382 5.86122 0
M  V30 2490 H 250.69 -0.0574701 0.751807 0
M  V30 2491 H 253.341 0.555772 1.74881 0
M  V30 2492 H 251.723 -1.06882 3.81303 0
M  V30 2493 H 252.897 1.75492 4.26074 0
M  V30 2494 H 251.212 1.4384 3.90767 0
M  V30 2495 H 253.809 -0.995617 5.25349 0
M  V30 2496 H 254.152 -1.81186 3.74803 0
M  V30 2497 H 254.685 -0.128444 3.97593 0
M  V30 2498 H 251.424 1.74025 6.31978 0
M  V30 2499 H 250.944 0.0582143 5.99772 0
M  V30 2500 H 252.623 0.437722 6.45518 0
M  V30 2501 N 252.755 -1.56801 0.158532 0
M  V30 2502 C 253.687 -2.14488 -0.807923 0
M  V30 2503 C 254.7 -1.09721 -1.20271 0
M  V30 2504 O 255.889 -1.36956 -1.14478 0
M  V30 2505 C 252.989 -2.66217 -2.09718 0
M  V30 2506 C 252.162 -3.95507 -1.86796 0
M  V30 2507 C 251.221 -4.3243 -2.99818 0
M  V30 2508 O 250.247 -5.00543 -2.71008 0
M  V30 2509 N 251.449 -3.92947 -4.27285 0
M  V30 2510 H 254.214 -2.98042 -0.314816 0
M  V30 2511 H 251.775 -1.61881 -0.0246692 0
M  V30 2512 H 253.767 -2.87924 -2.84398 0
M  V30 2513 H 252.337 -1.87324 -2.50257 0
M  V30 2514 H 251.557 -3.82309 -0.96089 0
M  V30 2515 H 252.845 -4.79972 -1.68833 0
M  V30 2516 H 252.243 -3.38087 -4.53557 0
M  V30 2517 H 250.8 -4.19681 -4.9871 0
M  V30 2518 N 254.233 0.115231 -1.57178 0
M  V30 2519 C 255.644 0.67197 -1.74188 0
M  V30 2520 C 255.995 1.80125 -0.777777 0
M  V30 2521 O 255.12 2.16346 0.0484376 0
M  V30 2522 C 255.715 1.22573 -3.1585 0
M  V30 2523 C 254.274 1.72872 -3.34353 0
M  V30 2524 C 253.421 0.629972 -2.70049 0
M  V30 2525 H 256.372 -0.110712 -1.58313 0
M  V30 2526 H 256.393 2.09535 -3.17609 0
M  V30 2527 H 255.905 0.403598 -3.85996 0
M  V30 2528 H 254.006 2.5755 -2.69256 0
M  V30 2529 H 254.119 1.83557 -4.42542 0
M  V30 2530 H 252.483 1.0645 -2.31388 0
M  V30 2531 H 253.266 -0.181241 -3.42821 0
M  V30 2532 N 255.711 1.52812 0.385517 0
M  V30 2533 C 256.96 1.67249 1.12741 0
M  V30 2534 C 257.273 0.4205 1.91027 0
M  V30 2535 O 258.479 0.445064 2.67827 0
M  V30 2536 C 256.935 2.95583 2.05326 0
M  V30 2537 C 256.543 4.27974 1.32447 0
M  V30 2538 C 258.287 3.19386 2.7963 0
M  V30 2539 C 256.194 5.47412 2.23818 0
M  V30 2540 H 255.124 0.6231 0.424573 0
M  V30 2541 H 257.775 1.79309 0.389924 0
M  V30 2542 H 256.157 2.77277 2.82725 0
M  V30 2543 H 257.331 4.56844 0.602495 0
M  V30 2544 H 255.646 4.10459 0.700885 0
M  V30 2545 H 258.243 4.05801 3.48181 0
M  V30 2546 H 258.586 2.34604 3.43899 0
M  V30 2547 H 259.119 3.38274 2.09322 0
M  V30 2548 H 255.858 6.34612 1.64157 0
M  V30 2549 H 255.378 5.22849 2.93921 0
M  V30 2550 H 257.057 5.81423 2.83824 0
M  V30 2551 N 257.189 -0.644168 1.43834 0
M  V30 2552 C 258.437 -1.40117 1.45642 0
M  V30 2553 C 258.758 -1.94814 0.0852413 0
M  V30 2554 O 258.028 -1.74988 -0.880688 0
M  V30 2555 H 256.608 -0.52005 0.536243 0
M  V30 2556 H 259.27 -0.7591 1.7951 0
M  V30 2557 H 258.366 -2.23902 2.17427 0
M  V30 2558 N 258.668 -1.30515 -0.883378 0
M  V30 2559 C 259.893 -1.22487 -1.67367 0
M  V30 2560 C 260.318 0.208767 -1.86938 0
M  V30 2561 O 259.676 1.15015 -1.40148 0
M  V30 2562 C 259.724 -1.96041 -3.02655 0
M  V30 2563 O 258.828 -1.28859 -3.91751 0
M  V30 2564 H 258.169 -0.423573 -0.511353 0
M  V30 2565 H 260.699 -1.72362 -1.10239 0
M  V30 2566 H 260.709 -2.05124 -3.52687 0
M  V30 2567 H 259.384 -3.00307 -2.8773 0
M  V30 2568 H 257.961 -1.28141 -3.50192 0
M  V30 2569 N 260.146 1.09593 -1.13257 0
M  V30 2570 C 261.557 1.63229 -0.906274 0
M  V30 2571 C 261.908 1.8811 0.557578 0
M  V30 2572 O 261.033 1.62953 1.42391 0
M  V30 2573 C 261.628 2.96535 -1.63867 0
M  V30 2574 C 260.187 3.47003 -1.45828 0
M  V30 2575 C 259.334 2.2145 -1.66898 0
M  V30 2576 H 262.285 0.92978 -1.28611 0
M  V30 2577 H 262.306 3.64411 -1.09476 0
M  V30 2578 H 261.818 2.78394 -2.70404 0
M  V30 2579 H 259.919 3.70272 -0.415848 0
M  V30 2580 H 260.032 4.24551 -2.2202 0
M  V30 2581 H 258.396 2.30022 -1.09371 0
M  V30 2582 H 259.179 2.0583 -2.74752 0
M  V30 2583 N 261.624 0.925811 1.2754 0
M  V30 2584 C 262.87 0.566092 1.94739 0
M  V30 2585 C 263.203 -0.890057 1.72603 0
M  V30 2586 O 262.478 -1.63467 1.05399 0
M  V30 2587 C 262.761 0.89054 3.48915 0
M  V30 2588 C 262.614 2.4003 3.80402 0
M  V30 2589 C 263.933 0.395101 4.38323 0
M  V30 2590 H 261.052 0.20714 0.707292 0
M  V30 2591 H 263.694 1.15725 1.50691 0
M  V30 2592 H 261.844 0.387452 3.86563 0
M  V30 2593 H 263.516 2.97494 3.52555 0
M  V30 2594 H 261.759 2.85028 3.2702 0
M  V30 2595 H 262.43 2.57785 4.8811 0
M  V30 2596 H 264.906 0.826241 4.07814 0
M  V30 2597 H 263.782 0.651086 5.45025 0
M  V30 2598 H 264.043 -0.704798 4.36446 0
M  V30 2599 N 263.102 -1.41638 0.69111 0
M  V30 2600 C 264.35 -2.00902 0.219758 0
M  V30 2601 C 264.671 -1.54994 -1.18329 0
M  V30 2602 O 263.941 -0.778628 -1.79762 0
M  V30 2603 H 262.521 -0.74289 0.0782558 0
M  V30 2604 H 265.183 -1.73327 0.891271 0
M  V30 2605 H 264.279 -3.11224 0.233708 0
M  V30 2606 N 264.58 -0.43555 -1.51462 0
M  V30 2607 C 265.808 0.130242 -2.0649 0
M  V30 2608 C 266.223 1.36614 -1.30315 0
M  V30 2609 O 265.58 1.78869 -0.362223 0
M  V30 2610 C 265.631 0.454253 -3.58635 0
M  V30 2611 O 265.352 -0.73259 -4.31931 0
M  V30 2612 C 266.853 1.07091 -4.3017 0
M  V30 2613 H 264.073 0.00871669 -0.670943 0
M  V30 2614 H 266.617 -0.614117 -1.95061 0
M  V30 2615 H 264.772 1.14851 -3.69984 0
M  V30 2616 H 265.186 -0.455787 -5.22516 0
M  V30 2617 H 266.66 1.24764 -5.37716 0
M  V30 2618 H 267.137 2.05144 -3.88346 0
M  V30 2619 H 267.743 0.416089 -4.2326 0
M  V30 2620 N 266.058 1.56714 -0.166846 0
M  V30 2621 C 267.021 2.16539 0.751232 0
M  V30 2622 C 268.021 1.11228 1.16125 0
M  V30 2623 O 269.211 1.36765 1.07894 0
M  V30 2624 C 266.343 2.74462 2.02196 0
M  V30 2625 H 267.536 2.99013 0.230499 0
M  V30 2626 H 265.089 1.56081 0.0826982 0
M  V30 2627 H 265.824 1.95709 2.58589 0
M  V30 2628 H 265.609 3.51527 1.73698 0
M  V30 2629 H 267.099 3.20489 2.67725 0
M  V30 2630 N 267.536 -0.106894 1.57237 0
M  V30 2631 C 268.761 -0.830287 1.90055 0
M  V30 2632 C 269.186 -1.72064 0.75998 0
M  V30 2633 O 268.544 -1.78982 -0.288991 0
M  V30 2634 C 268.592 -1.6295 3.21683 0
M  V30 2635 O 267.696 -2.73748 3.08441 0
M  V30 2636 H 267.037 -0.228855 0.623315 0
M  V30 2637 H 269.567 -0.085658 2.04421 0
M  V30 2638 H 269.577 -2.01621 3.54701 0
M  V30 2639 H 268.252 -0.975989 4.04286 0
M  V30 2640 H 266.829 -2.38192 2.86913 0
M  V30 2641 N 269.014 -1.53014 -0.377408 0
M  V30 2642 C 270.26 -1.68872 -1.12294 0
M  V30 2643 C 270.593 -0.433224 -1.89306 0
M  V30 2644 O 269.868 0.569258 -1.85983 0
M  V30 2645 C 270.151 -2.93115 -2.09179 0
M  V30 2646 C 270.004 -4.28794 -1.35853 0
M  V30 2647 C 271.323 -3.12928 -3.09458 0
M  V30 2648 H 268.442 -0.614518 -0.406862 0
M  V30 2649 H 271.084 -1.85633 -0.40503 0
M  V30 2650 H 269.234 -2.78956 -2.70399 0
M  V30 2651 H 270.906 -4.54742 -0.775082 0
M  V30 2652 H 269.149 -4.28744 -0.660364 0
M  V30 2653 H 269.82 -5.11837 -2.06706 0
M  V30 2654 H 272.296 -3.26194 -2.58334 0
M  V30 2655 H 271.172 -4.01316 -3.74482 0
M  V30 2656 H 271.433 -2.27669 -3.78971 0
M  V30 2657 N 270.492 0.636531 -1.44174 0
M  V30 2658 C 271.74 1.39343 -1.46383 0
M  V30 2659 C 272.061 1.94766 -0.0955715 0
M  V30 2660 O 271.331 1.75452 0.871395 0
M  V30 2661 H 269.911 0.517199 -0.538994 0
M  V30 2662 H 272.573 0.74957 -1.7991 0
M  V30 2663 H 271.669 2.22746 -2.18611 0
M  V30 2664 N 271.97 1.30982 0.876444 0
M  V30 2665 C 273.218 1.20058 1.62575 0
M  V30 2666 C 273.539 -0.242947 1.93481 0
M  V30 2667 O 272.809 -1.1619 1.57724 0
M  V30 2668 H 271.389 0.44135 0.602677 0
M  V30 2669 H 274.051 1.64222 1.04962 0
M  V30 2670 H 273.147 1.76762 2.57219 0
M  V30 2671 N 273.449 -1.08991 1.13837 0
M  V30 2672 C 274.865 -1.33312 0.877506 0
M  V30 2673 C 275.065 -1.95587 -0.48456 0
M  V30 2674 O 274.121 -2.20509 -1.23013 0
M  V30 2675 C 275.434 -2.24045 2.0056 0
M  V30 2676 C 276.982 -2.37542 2.03821 0
M  V30 2677 C 277.457 -3.31614 3.15905 0
M  V30 2678 N 278.948 -3.39189 3.15445 0
M  V30 2679 C 279.683 -4.11992 3.98811 0
M  V30 2680 N 279.179 -4.87553 4.92203 0
M  V30 2681 N 280.972 -4.07762 3.86894 0
M  V30 2682 H 273.123 -0.669456 2.01574 0
M  V30 2683 H 275.386 -0.357482 0.878015 0
M  V30 2684 H 275.092 -1.85521 2.98789 0
M  V30 2685 H 274.966 -3.24466 1.92359 0
M  V30 2686 H 277.353 -2.75327 1.06202 0
M  V30 2687 H 277.434 -1.36884 2.16093 0
M  V30 2688 H 277.078 -2.94551 4.13766 0
M  V30 2689 H 277.008 -4.32186 3.0087 0
M  V30 2690 H 279.499 -2.85314 2.47799 0
M  V30 2691 H 279.812 -5.40549 5.52292 0
M  V30 2692 H 278.157 -4.86627 4.96205 0
M  V30 2693 H 281.348 -3.47833 3.13257 0
M  V30 2694 H 281.521 -4.64238 4.52092 0
M  V30 2695 N 274.927 -0.932562 -1.27047 0
M  V30 2696 C 276.155 -0.592031 -1.98249 0
M  V30 2697 C 276.57 0.831062 -1.69525 0
M  V30 2698 O 275.927 1.55299 -0.958561 0
M  V30 2699 C 275.978 -0.814279 -3.5221 0
M  V30 2700 O 275.699 -2.18139 -3.7993 0
M  V30 2701 C 277.2 -0.483121 -4.4066 0
M  V30 2702 H 274.42 -0.223896 -0.632544 0
M  V30 2703 H 276.964 -1.25091 -1.61779 0
M  V30 2704 H 275.119 -0.20213 -3.86872 0
M  V30 2705 H 275.533 -2.235 -4.74498 0
M  V30 2706 H 277.007 -0.689298 -5.47679 0
M  V30 2707 H 277.484 0.581546 -4.35333 0
M  V30 2708 H 278.09 -1.07362 -4.11526 0
M  V30 2709 N 276.405 1.4127 -0.698611 0
M  V30 2710 C 277.651 2.01979 -0.239972 0
M  V30 2711 C 278.006 1.54353 1.14861 0
M  V30 2712 O 277.299 0.746218 1.76471 0
M  V30 2713 C 277.493 3.56592 -0.240192 0
M  V30 2714 C 277.322 4.19226 -1.62726 0
M  V30 2715 C 276.092 4.53389 -2.23084 0
M  V30 2716 C 278.29 4.45228 -2.57443 0
M  V30 2717 N 276.272 5.01327 -3.54323 0
M  V30 2718 C 277.643 4.94973 -3.73365 0
M  V30 2719 C 279.698 4.27243 -2.55671 0
M  V30 2720 C 278.401 5.28624 -4.878 0
M  V30 2721 C 280.427 4.61985 -3.69221 0
M  V30 2722 C 279.789 5.11904 -4.83873 0
M  V30 2723 H 275.888 0.770561 -0.133269 0
M  V30 2724 H 278.472 1.71767 -0.916748 0
M  V30 2725 H 276.643 3.86271 0.406082 0
M  V30 2726 H 278.375 4.04025 0.23356 0
M  V30 2727 H 275.13 4.39946 -1.75341 0
M  V30 2728 H 275.554 5.29697 -4.21604 0
M  V30 2729 H 280.196 3.87884 -1.68243 0
M  V30 2730 H 277.914 5.66905 -5.75885 0
M  V30 2731 H 281.5 4.49725 -3.69105 0
M  V30 2732 H 280.38 5.38282 -5.70282 0
M  V30 2733 N 277.883 0.443576 1.51229 0
M  V30 2734 C 278.793 -0.370721 2.31652 0
M  V30 2735 C 279.809 -1.02186 1.40833 0
M  V30 2736 O 280.985 -1.01586 1.73903 0
M  V30 2737 C 278.05 -1.45376 3.14749 0
M  V30 2738 C 277.111 -0.822099 4.21355 0
M  V30 2739 C 276.344 -1.85353 5.0048 0
M  V30 2740 O 276.567 -3.07656 4.80316 0
M  V30 2741 O 275.501 -1.4406 5.84406 0
M  V30 2742 H 279.327 0.286002 3.0235 0
M  V30 2743 H 276.912 0.20598 1.47973 0
M  V30 2744 H 278.794 -2.08173 3.66391 0
M  V30 2745 H 277.469 -2.09445 2.46809 0
M  V30 2746 H 276.376 -0.155909 3.73775 0
M  V30 2747 H 277.709 -0.224797 4.91686 0
M  V30 2748 N 279.361 -1.56624 0.175154 0
M  V30 2749 C 280.607 -1.9729 -0.469506 0
M  V30 2750 C 280.94 -1.06128 -1.62636 0
M  V30 2751 O 280.215 -0.109183 -1.94193 0
M  V30 2752 C 280.498 -3.47375 -0.948804 0
M  V30 2753 C 280.351 -4.49317 0.208491 0
M  V30 2754 C 281.67 -4.00652 -1.82116 0
M  V30 2755 H 278.789 -0.717317 -0.16919 0
M  V30 2756 H 281.431 -1.88184 0.262062 0
M  V30 2757 H 279.581 -3.55267 -1.57219 0
M  V30 2758 H 281.253 -4.53482 0.845682 0
M  V30 2759 H 279.496 -4.25121 0.863395 0
M  V30 2760 H 280.167 -5.51741 -0.169059 0
M  V30 2761 H 282.643 -3.95416 -1.2956 0
M  V30 2762 H 281.519 -5.06075 -2.12554 0
M  V30 2763 H 281.78 -3.44699 -2.7683 0
M  V30 2764 N 280.839 0.0985539 -1.57292 0
M  V30 2765 C 282.085 0.798769 -1.87059 0
M  V30 2766 C 282.44 1.76514 -0.76555 0
M  V30 2767 O 281.733 1.90181 0.232752 0
M  V30 2768 C 281.927 1.56927 -3.21105 0
M  V30 2769 C 281.756 0.679026 -4.44544 0
M  V30 2770 C 280.526 0.326071 -5.04247 0
M  V30 2771 C 282.724 -0.0124715 -5.14298 0
M  V30 2772 N 280.706 -0.572702 -6.11223 0
M  V30 2773 C 282.077 -0.769446 -6.15207 0
M  V30 2774 C 284.132 -0.0867545 -4.97824 0
M  V30 2775 C 282.835 -1.59376 -7.01421 0
M  V30 2776 C 284.861 -0.897955 -5.84543 0
M  V30 2777 C 284.223 -1.64306 -6.84969 0
M  V30 2778 H 280.322 0.268568 -0.734435 0
M  V30 2779 H 282.906 0.0614664 -1.94603 0
M  V30 2780 H 281.077 2.27748 -3.1462 0
M  V30 2781 H 282.809 2.21641 -3.38611 0
M  V30 2782 H 279.564 0.67295 -4.68795 0
M  V30 2783 H 279.988 -1.01454 -6.69355 0
M  V30 2784 H 284.63 0.474963 -4.20124 0
M  V30 2785 H 282.348 -2.16655 -7.78515 0
M  V30 2786 H 285.934 -0.958059 -5.73858 0
M  V30 2787 H 284.814 -2.26065 -7.50909 0
M  V30 2788 N 282.317 1.53212 0.369288 0
M  V30 2789 C 283.542 1.73423 1.1375 0
M  V30 2790 C 283.967 0.460404 1.82378 0
M  V30 2791 O 283.325 -0.585298 1.71592 0
M  V30 2792 C 283.373 2.89769 2.1463 0
M  V30 2793 O 282.477 2.58119 3.21634 0
M  V30 2794 H 281.818 0.576061 0.330227 0
M  V30 2795 H 284.348 2.00083 0.427547 0
M  V30 2796 H 284.358 3.15829 2.58294 0
M  V30 2797 H 283.033 3.8217 1.64071 0
M  V30 2798 H 281.61 2.42864 2.82969 0
M  V30 2799 N 283.795 -0.628877 1.44509 0
M  V30 2800 C 285.043 -1.38565 1.4712 0
M  V30 2801 C 285.364 -1.94712 0.105899 0
M  V30 2802 O 284.634 -1.75912 -0.862079 0
M  V30 2803 H 283.214 -0.514333 0.541729 0
M  V30 2804 H 285.876 -0.740018 1.80305 0
M  V30 2805 H 284.972 -2.21583 2.19789 0
M  V30 2806 N 285.273 -1.31445 -0.869486 0
M  V30 2807 C 286.521 -1.20918 -1.61936 0
M  V30 2808 C 286.842 0.232683 -1.93607 0
M  V30 2809 O 286.112 1.15352 -1.58338 0
M  V30 2810 H 284.692 -0.44454 -0.600328 0
M  V30 2811 H 287.354 -1.64776 -1.0409 0
M  V30 2812 H 286.45 -1.78124 -2.56278 0
M  V30 2813 N 286.751 1.08385 -1.14413 0
M  V30 2814 C 287.699 2.17406 -0.826888 0
M  V30 2815 C 288.693 1.6827 0.195312 0
M  V30 2816 O 289.899 1.79927 0.0513892 0
M  V30 2817 H 286.274 0.70934 -0.249681 0
M  V30 2818 H 288.245 2.41388 -1.75426 0
M  V30 2819 C 286.994 3.46215 -0.320979 0
M  V30 2820 H 286.317 3.84401 -1.0989 0
M  V30 2821 H 287.757 4.23777 -0.137549 0
M  V30 2822 C 286.216 3.23067 0.955472 0
M  V30 2823 O 286.746 3.4668 2.02918 0
M  V30 2824 N 284.952 2.7661 0.890798 0
M  V30 2825 H 284.499 2.57594 0.0168815 0
M  V30 2826 H 284.457 2.61501 1.74542 0
M  V30 2827 N 288.23 0.939286 1.26551 0
M  V30 2828 C 289.478 0.58469 1.93457 0
M  V30 2829 C 289.799 -0.878774 1.74076 0
M  V30 2830 O 289.069 -1.62421 1.09528 0
M  V30 2831 H 287.649 0.21325 0.715914 0
M  V30 2832 H 290.311 1.1942 1.54029 0
M  V30 2833 H 289.407 0.800849 3.0165 0
M  V30 2834 N 289.708 -1.40897 0.706093 0
M  V30 2835 C 290.933 -2.05895 0.249435 0
M  V30 2836 C 291.358 -1.52823 -1.09666 0
M  V30 2837 O 290.716 -0.659589 -1.68876 0
M  V30 2838 C 290.764 -3.59872 0.22904 0
M  V30 2839 O 289.868 -4.04708 -0.792784 0
M  V30 2840 H 289.209 -0.653206 0.119241 0
M  V30 2841 H 291.739 -1.80471 0.96391 0
M  V30 2842 H 291.749 -4.07951 0.0634791 0
M  V30 2843 H 290.424 -3.97866 1.21141 0
M  V30 2844 H 289.001 -3.68111 -0.59572 0
M  V30 2845 N 291.186 -0.45159 -1.50991 0
M  V30 2846 C 292.134 0.366864 -2.29689 0
M  V30 2847 C 293.128 1.00809 -1.36139 0
M  V30 2848 O 294.334 0.941427 -1.53418 0
M  V30 2849 H 290.709 0.137133 -0.739391 0
M  V30 2850 H 292.68 -0.317538 -2.96706 0
M  V30 2851 C 291.429 1.44751 -3.16137 0
M  V30 2852 H 290.752 0.963473 -3.88017 0
M  V30 2853 H 292.192 1.99315 -3.74232 0
M  V30 2854 C 290.651 2.43869 -2.32442 0
M  V30 2855 O 291.181 3.4872 -1.99392 0
M  V30 2856 N 289.387 2.15105 -1.95392 0
M  V30 2857 H 288.934 1.29866 -2.22469 0
M  V30 2858 H 288.892 2.81661 -1.39693 0
M  V30 2859 N 292.664 1.56529 -0.183458 0
M  V30 2860 C 293.941 1.88959 0.50536 0
M  V30 2861 C 294.321 1.09523 1.80466 0
M  V30 2862 O 293.669 0.19278 2.27685 0
M  V30 2863 C 293.879 3.41162 0.73547 0
M  V30 2864 C 295.227 4.11155 1.06005 0
M  V30 2865 O 296.251 3.46548 0.823594 0
M  V30 2866 O 295.11 5.25318 1.50675 0
M  V30 2867 H 292.204 0.78441 0.261973 0
M  V30 2868 H 294.75 1.68231 -0.222802 0
M  V30 2869 H 293.522 3.90874 -0.182561 0
M  V30 2870 H 293.145 3.67543 1.51651 0
M  V30 2871 N 294.142 -0.090211 1.57342 0
M  V30 2872 C 295.388 -0.793982 1.86611 0
M  V30 2873 C 295.721 -1.78142 0.773252 0
M  V30 2874 O 294.996 -1.93271 -0.218304 0
M  V30 2875 C 295.279 -1.51839 3.26523 0
M  V30 2876 C 295.132 -0.548609 4.46442 0
M  V30 2877 C 296.451 -2.46779 3.64401 0
M  V30 2878 H 293.57 -0.287186 0.678744 0
M  V30 2879 H 296.212 -0.0575076 1.89913 0
M  V30 2880 H 294.362 -2.14617 3.23839 0
M  V30 2881 H 296.034 0.0725513 4.61243 0
M  V30 2882 H 294.277 0.137614 4.33582 0
M  V30 2883 H 294.948 -1.09271 5.41076 0
M  V30 2884 H 297.424 -1.94089 3.68061 0
M  V30 2885 H 296.3 -2.94479 4.63221 0
M  V30 2886 H 296.561 -3.30758 2.93346 0
M  V30 2887 N 295.62 -1.53406 -0.361157 0
M  V30 2888 C 296.55 -1.83136 -1.44857 0
M  V30 2889 C 297.531 -0.685174 -1.5569 0
M  V30 2890 O 298.716 -0.93544 -1.70186 0
M  V30 2891 C 295.846 -2.02522 -2.82138 0
M  V30 2892 C 294.8 -3.18302 -2.86126 0
M  V30 2893 C 294.126 -3.22989 -4.26125 0
M  V30 2894 C 295.426 -4.56796 -2.53248 0
M  V30 2895 H 297.12 -2.74201 -1.20226 0
M  V30 2896 H 294.666 -1.31938 -0.576922 0
M  V30 2897 H 296.619 -2.21904 -3.58241 0
M  V30 2898 H 295.343 -1.08172 -3.08166 0
M  V30 2899 H 294.002 -2.98747 -2.12475 0
M  V30 2900 H 293.65 -2.26267 -4.49235 0
M  V30 2901 H 293.35 -4.00781 -4.29708 0
M  V30 2902 H 294.874 -3.44559 -5.04094 0
M  V30 2903 H 296.288 -4.7631 -3.19064 0
M  V30 2904 H 294.685 -5.36862 -2.68141 0
M  V30 2905 H 295.755 -4.61606 -1.48484 0
M  V30 2906 N 297.098 0.621204 -1.44841 0
M  V30 2907 C 298.323 1.41244 -1.51871 0
M  V30 2908 C 298.748 1.87519 -0.147764 0
M  V30 2909 O 298.106 1.59334 0.865 0
M  V30 2910 C 298.154 2.60221 -2.49634 0
M  V30 2911 O 297.258 3.60395 -2.00473 0
M  V30 2912 H 296.599 0.42223 -0.512463 0
M  V30 2913 H 299.129 0.757305 -1.90069 0
M  V30 2914 H 299.139 3.0764 -2.67996 0
M  V30 2915 H 297.814 2.25887 -3.4921 0
M  V30 2916 H 296.391 3.19717 -1.91925 0
M  V30 2917 N 298.576 1.31904 0.862503 0
M  V30 2918 C 299.823 1.22017 1.61611 0
M  V30 2919 C 300.151 -0.21991 1.93253 0
M  V30 2920 O 299.406 -1.17076 1.56817 0
M  V30 2921 C 299.705 2.01713 2.95037 0
M  V30 2922 C 299.371 3.51145 2.82857 0
M  V30 2923 C 298.033 3.91889 2.79243 0
M  V30 2924 C 300.385 4.46204 2.69353 0
M  V30 2925 C 297.713 5.25947 2.59993 0
M  V30 2926 C 300.065 5.80397 2.5164 0
M  V30 2927 C 298.729 6.20352 2.46413 0
M  V30 2928 H 297.999 0.44649 0.591378 0
M  V30 2929 H 300.646 1.63248 1.00111 0
M  V30 2930 H 298.951 1.53185 3.60613 0
M  V30 2931 H 300.648 1.91437 3.52353 0
M  V30 2932 H 297.238 3.1878 2.86491 0
M  V30 2933 H 301.422 4.15652 2.71196 0
M  V30 2934 H 296.678 5.5597 2.54376 0
M  V30 2935 H 300.852 6.53676 2.40169 0
M  V30 2936 H 298.479 7.24172 2.31256 0
M  V30 2937 N 300.054 -1.07777 1.14986 0
M  V30 2938 C 301.3 -1.80557 0.923422 0
M  V30 2939 C 301.633 -1.86298 -0.548337 0
M  V30 2940 O 300.908 -1.34354 -1.40639 0
M  V30 2941 C 301.191 -3.25839 1.53299 0
M  V30 2942 C 301.044 -3.28269 3.07505 0
M  V30 2943 C 302.363 -4.22991 1.21518 0
M  V30 2944 H 299.482 -0.655493 0.336894 0
M  V30 2945 H 302.124 -1.26144 1.42083 0
M  V30 2946 H 300.274 -3.72306 1.10999 0
M  V30 2947 H 301.946 -2.90079 3.58681 0
M  V30 2948 H 300.189 -2.67355 3.4162 0
M  V30 2949 H 300.86 -4.30691 3.45266 0
M  V30 2950 H 303.336 -3.84894 1.581 0
M  V30 2951 H 302.212 -5.22945 1.66793 0
M  V30 2952 H 302.473 -4.41904 0.131505 0
M  V30 2953 N 301.532 -0.945985 -1.26051 0
M  V30 2954 C 302.495 -0.463897 -2.24456 0
M  V30 2955 C 303.495 0.427655 -1.55009 0
M  V30 2956 O 304.685 0.226157 -1.72726 0
M  V30 2957 C 301.817 0.330812 -3.39291 0
M  V30 2958 H 303.01 -1.33357 -2.68619 0
M  V30 2959 H 300.563 -0.728416 -1.38289 0
M  V30 2960 H 301.298 1.21852 -3.00537 0
M  V30 2961 H 301.083 -0.308679 -3.90883 0
M  V30 2962 H 302.573 0.657865 -4.12386 0
M  V30 2963 N 303.011 1.40521 -0.713556 0
M  V30 2964 C 304.422 1.83853 -0.324807 0
M  V30 2965 C 304.773 1.59667 1.14021 0
M  V30 2966 O 303.898 1.07649 1.87725 0
M  V30 2967 C 304.493 3.33751 -0.582746 0
M  V30 2968 C 303.052 3.75584 -0.247727 0
M  V30 2969 C 302.199 2.63753 -0.856121 0
M  V30 2970 H 305.15 1.29817 -0.91286 0
M  V30 2971 H 305.171 3.80194 0.152682 0
M  V30 2972 H 304.683 3.51322 -1.64908 0
M  V30 2973 H 302.784 3.63608 0.813624 0
M  V30 2974 H 302.897 4.7373 -0.715307 0
M  V30 2975 H 301.261 2.53108 -0.28432 0
M  V30 2976 H 302.044 2.84137 -1.92668 0
M  V30 2977 N 304.489 0.459591 1.5075 0
M  V30 2978 C 305.714 -0.0996819 2.0716 0
M  V30 2979 C 306.139 -1.33761 1.32249 0
M  V30 2980 O 305.497 -1.77551 0.366786 0
M  V30 2981 C 305.545 -0.378226 3.58611 0
M  V30 2982 O 304.649 -1.46081 3.85661 0
M  V30 2983 H 303.99 0.00791392 0.663953 0
M  V30 2984 H 306.52 0.647329 1.9409 0
M  V30 2985 H 306.53 -0.622135 4.03229 0
M  V30 2986 H 305.205 0.526439 4.12555 0
M  V30 2987 H 303.782 -1.20511 3.5289 0
M  V30 2988 N 305.967 -1.56429 0.191757 0
M  V30 2989 C 306.93 -2.17707 -0.716688 0
M  V30 2990 C 307.93 -1.13061 -1.14341 0
M  V30 2991 O 309.12 -1.38464 -1.05704 0
M  V30 2992 C 306.252 -2.77644 -1.97804 0
M  V30 2993 H 307.445 -2.99342 -0.1829 0
M  V30 2994 H 304.998 -1.56193 -0.0578566 0
M  V30 2995 H 305.733 -1.99799 -2.55443 0
M  V30 2996 H 305.518 -3.54246 -1.68083 0
M  V30 2997 H 307.008 -3.24708 -2.62592 0
M  V30 2998 N 307.445 0.0818655 -1.57387 0
M  V30 2999 C 308.694 0.781681 -1.85937 0
M  V30 3000 C 309.007 1.79246 -0.782957 0
M  V30 3001 O 310.213 2.54112 -0.955987 0
M  V30 3002 C 308.669 1.44109 -3.29789 0
M  V30 3003 C 308.277 0.469396 -4.45534 0
M  V30 3004 C 310.021 2.12386 -3.67549 0
M  V30 3005 C 307.928 1.13415 -5.80423 0
M  V30 3006 H 306.858 0.295682 -0.693605 0
M  V30 3007 H 309.509 0.0348051 -1.83467 0
M  V30 3008 H 307.891 2.23588 -3.2684 0
M  V30 3009 H 309.065 -0.294856 -4.59856 0
M  V30 3010 H 307.38 -0.108383 -4.16259 0
M  V30 3011 H 309.977 2.62878 -4.65617 0
M  V30 3012 H 310.32 2.91877 -2.96839 0
M  V30 3013 H 310.853 1.39751 -3.72444 0
M  V30 3014 H 307.592 0.379771 -6.54399 0
M  V30 3015 H 307.112 1.8695 -5.69921 0
M  V30 3016 H 308.791 1.65686 -6.25426 0
M  V30 3017 N 308.923 1.53595 0.353017 0
M  V30 3018 C 310.148 1.7462 1.11904 0
M  V30 3019 C 310.573 0.479721 1.8188 0
M  V30 3020 O 309.931 -0.567066 1.72204 0
M  V30 3021 C 309.979 2.92029 2.11545 0
M  V30 3022 O 309.083 2.61516 3.18878 0
M  V30 3023 H 308.424 0.579531 0.324099 0
M  V30 3024 H 310.954 2.00525 0.406301 0
M  V30 3025 H 310.964 3.18551 2.5493 0
M  V30 3026 H 309.639 3.83888 1.60008 0
M  V30 3027 H 308.216 2.45852 2.80377 0
M  V30 3028 N 310.401 -0.613514 1.45168 0
M  V30 3029 C 311.649 -1.36997 1.48581 0
M  V30 3030 C 311.97 -1.94589 0.126545 0
M  V30 3031 O 311.24 -1.76816 -0.843372 0
M  V30 3032 H 309.82 -0.508558 0.547154 0
M  V30 3033 H 312.482 -0.720853 1.81079 0
M  V30 3034 H 311.578 -2.1924 2.22127 0
M  V30 3035 N 311.879 -1.3236 -0.855495 0
M  V30 3036 C 313.125 -1.24064 -1.61182 0
M  V30 3037 C 313.48 0.195914 -1.914 0
M  V30 3038 O 312.773 1.13345 -1.54478 0
M  V30 3039 C 312.967 -2.03275 -2.93963 0
M  V30 3040 C 312.796 -3.54486 -2.76712 0
M  V30 3041 C 311.566 -4.23824 -2.75139 0
M  V30 3042 C 313.764 -4.49154 -2.50531 0
M  V30 3043 N 311.746 -5.61095 -2.4909 0
M  V30 3044 C 313.117 -5.74195 -2.3388 0
M  V30 3045 C 315.172 -4.3842 -2.35992 0
M  V30 3046 C 313.875 -6.89716 -2.04168 0
M  V30 3047 C 315.901 -5.53739 -2.0767 0
M  V30 3048 C 315.263 -6.77779 -1.9182 0
M  V30 3049 H 311.362 -0.509139 -0.59355 0
M  V30 3050 H 313.946 -1.66715 -1.00569 0
M  V30 3051 H 312.117 -1.6297 -3.52555 0
M  V30 3052 H 313.849 -1.86881 -3.58967 0
M  V30 3053 H 310.604 -3.75934 -2.88047 0
M  V30 3054 H 311.028 -6.33411 -2.38996 0
M  V30 3055 H 315.67 -3.43172 -2.46967 0
M  V30 3056 H 313.388 -7.84977 -1.9193 0
M  V30 3057 H 316.974 -5.4736 -1.97201 0
M  V30 3058 H 315.854 -7.65504 -1.70217 0
M  V30 3059 N 313.357 1.07166 -1.15556 0
M  V30 3060 C 314.582 1.84053 -0.955988 0
M  V30 3061 C 315.007 1.81586 0.490739 0
M  V30 3062 O 314.365 1.21018 1.34997 0
M  V30 3063 C 314.413 3.28957 -1.47714 0
M  V30 3064 O 313.517 4.06795 -0.677593 0
M  V30 3065 H 312.858 0.569842 -0.340847 0
M  V30 3066 H 315.388 1.35178 -1.53584 0
M  V30 3067 H 315.398 3.79788 -1.4908 0
M  V30 3068 H 314.073 3.30068 -2.53037 0
M  V30 3069 H 312.65 3.6561 -0.733721 0
M  V30 3070 N 314.835 0.952656 1.25548 0
M  V30 3071 C 316.082 0.606373 1.93208 0
M  V30 3072 C 316.41 -0.85631 1.74636 0
M  V30 3073 O 315.665 -1.62951 1.08376 0
M  V30 3074 C 315.964 0.908818 3.45652 0
M  V30 3075 C 315.63 2.35722 3.84378 0
M  V30 3076 C 314.292 2.75312 3.9466 0
M  V30 3077 C 316.644 3.29793 4.03591 0
M  V30 3078 C 313.972 4.08047 4.21562 0
M  V30 3079 C 316.324 4.62138 4.31985 0
M  V30 3080 C 314.988 5.01528 4.40484 0
M  V30 3081 H 314.258 0.221888 0.706998 0
M  V30 3082 H 316.905 1.20132 1.49133 0
M  V30 3083 H 315.21 0.231456 3.91116 0
M  V30 3084 H 316.907 0.619498 3.96186 0
M  V30 3085 H 313.497 2.04017 3.76928 0
M  V30 3086 H 317.681 3.00397 3.95064 0
M  V30 3087 H 312.937 4.38212 4.26357 0
M  V30 3088 H 317.111 5.35012 4.45797 0
M  V30 3089 H 314.738 6.04406 4.61083 0
M  V30 3090 N 316.313 -1.40141 0.720998 0
M  V30 3091 C 317.59 -1.94677 0.189757 0
M  V30 3092 C 317.97 -1.65879 -1.30566 0
M  V30 3093 O 317.318 -0.979391 -2.06447 0
M  V30 3094 C 317.528 -3.45279 0.508304 0
M  V30 3095 C 318.876 -4.22209 0.449934 0
M  V30 3096 O 319.9 -3.53413 0.444677 0
M  V30 3097 O 318.759 -5.44788 0.432189 0
M  V30 3098 H 315.853 -0.826459 0.0299026 0
M  V30 3099 H 318.399 -1.49719 0.7989 0
M  V30 3100 H 317.171 -3.59619 1.54239 0
M  V30 3101 H 316.794 -3.97386 -0.130525 0
M  V30 3102 N 317.792 -0.46758 -1.50504 0
M  V30 3103 C 319.038 0.0887532 -2.02606 0
M  V30 3104 C 319.371 1.39686 -1.34913 0
M  V30 3105 O 318.646 1.88644 -0.473694 0
M  V30 3106 C 318.929 0.276206 -3.59039 0
M  V30 3107 C 318.782 -1.05267 -4.37309 0
M  V30 3108 C 320.101 1.03235 -4.27821 0
M  V30 3109 H 317.22 0.0307814 -0.736357 0
M  V30 3110 H 319.862 -0.612485 -1.79857 0
M  V30 3111 H 318.012 0.8735 -3.78553 0
M  V30 3112 H 319.684 -1.68628 -4.29374 0
M  V30 3113 H 317.927 -1.65015 -4.01189 0
M  V30 3114 H 318.598 -0.875197 -5.45018 0
M  V30 3115 H 321.074 0.526111 -4.12761 0
M  V30 3116 H 319.95 1.1323 -5.37094 0
M  V30 3117 H 320.211 2.06806 -3.90748 0
M  V30 3118 N 319.27 1.56325 -0.20005 0
M  V30 3119 C 320.203 2.15234 0.758267 0
M  V30 3120 C 321.181 1.09046 1.20614 0
M  V30 3121 O 322.365 1.37186 1.29276 0
M  V30 3122 C 319.492 2.71524 2.02466 0
M  V30 3123 C 318.538 3.90345 1.71852 0
M  V30 3124 S 319.371 5.28513 0.862249 0
M  V30 3125 C 320.527 5.88227 2.13868 0
M  V30 3126 H 320.76 2.96183 0.2575 0
M  V30 3127 H 318.293 1.54393 0.0150099 0
M  V30 3128 H 320.251 3.04598 2.75191 0
M  V30 3129 H 318.912 1.90607 2.49655 0
M  V30 3130 H 318.105 4.28158 2.65888 0
M  V30 3131 H 317.707 3.58306 1.07205 0
M  V30 3132 H 319.999 6.02891 3.09076 0
M  V30 3133 H 320.942 6.84714 1.80479 0
M  V30 3134 H 321.35 5.16874 2.2694 0
M  V30 3135 N 320.748 -0.0735177 1.57428 0
M  V30 3136 C 322.025 -0.805903 1.78226 0
M  V30 3137 C 322.405 -1.95874 0.787189 0
M  V30 3138 O 321.753 -2.2779 -0.180029 0
M  V30 3139 C 321.963 -1.28045 3.24662 0
M  V30 3140 C 323.311 -1.71453 3.88444 0
M  V30 3141 O 324.335 -1.37616 3.28543 0
M  V30 3142 O 323.194 -2.34093 4.93825 0
M  V30 3143 H 320.288 -0.386041 0.73137 0
M  V30 3144 H 322.834 -0.0537269 1.69615 0
M  V30 3145 H 321.606 -0.455476 3.8864 0
M  V30 3146 H 321.229 -2.094 3.37991 0
M  V30 3147 N 322.226 -1.5378 -0.344866 0
M  V30 3148 C 323.473 -1.70963 -1.08526 0
M  V30 3149 C 323.801 -0.472126 -1.88683 0
M  V30 3150 O 323.056 0.546116 -1.87926 0
M  V30 3151 C 323.355 -2.92407 -2.05506 0
M  V30 3152 C 323.021 -4.28066 -1.41671 0
M  V30 3153 C 321.683 -4.64951 -1.2399 0
M  V30 3154 C 324.035 -5.12344 -0.956726 0
M  V30 3155 C 321.363 -5.83733 -0.589277 0
M  V30 3156 C 323.715 -6.3179 -0.320015 0
M  V30 3157 C 322.379 -6.67372 -0.130881 0
M  V30 3158 H 321.649 -0.625598 -0.397124 0
M  V30 3159 H 324.296 -1.87995 -0.36469 0
M  V30 3160 H 322.601 -2.69973 -2.8394 0
M  V30 3161 H 324.298 -3.02895 -2.62784 0
M  V30 3162 H 320.888 -3.99034 -1.56429 0
M  V30 3163 H 325.072 -4.8438 -1.08118 0
M  V30 3164 H 320.328 -6.09877 -0.431344 0
M  V30 3165 H 324.502 -6.96386 0.0445072 0
M  V30 3166 H 322.129 -7.59273 0.375318 0
M  V30 3167 N 323.704 0.605807 -1.45491 0
M  V30 3168 C 324.95 1.36679 -1.49823 0
M  V30 3169 C 325.283 1.93693 -0.140175 0
M  V30 3170 O 324.558 1.75158 0.845581 0
M  V30 3171 C 324.841 2.51337 -2.57879 0
M  V30 3172 C 324.694 1.99508 -4.03134 0
M  V30 3173 C 326.013 3.53463 -2.62205 0
M  V30 3174 H 323.132 0.495617 -0.545466 0
M  V30 3175 H 325.774 0.682732 -1.7731 0
M  V30 3176 H 323.924 3.09691 -2.34571 0
M  V30 3177 H 325.596 1.45789 -4.37656 0
M  V30 3178 H 323.839 1.30496 -4.13707 0
M  V30 3179 H 324.51 2.82169 -4.74431 0
M  V30 3180 H 326.986 3.04953 -2.83095 0
M  V30 3181 H 325.862 4.31178 -3.39672 0
M  V30 3182 H 326.123 4.09197 -1.67363 0
M  V30 3183 N 325.182 1.32811 0.848464 0
M  V30 3184 C 326.598 1.11937 1.13764 0
M  V30 3185 C 326.798 -0.0960789 2.01271 0
M  V30 3186 O 325.854 -0.779165 2.40178 0
M  V30 3187 C 327.167 2.402 1.809 0
M  V30 3188 C 328.715 2.46016 1.93508 0
M  V30 3189 C 329.19 3.74215 2.64059 0
M  V30 3190 N 330.681 3.75232 2.71579 0
M  V30 3191 C 331.416 4.71134 3.26833 0
M  V30 3192 N 330.912 5.77406 3.8285 0
M  V30 3193 N 332.705 4.58623 3.24995 0
M  V30 3194 H 324.856 2.1073 0.265855 0
M  V30 3195 H 327.119 0.930671 0.180431 0
M  V30 3196 H 326.825 3.29093 1.24058 0
M  V30 3197 H 326.699 2.51628 2.81004 0
M  V30 3198 H 329.086 1.57577 2.49506 0
M  V30 3199 H 329.167 2.38536 0.923811 0
M  V30 3200 H 328.811 4.63031 2.08722 0
M  V30 3201 H 328.741 3.78968 3.65637 0
M  V30 3202 H 331.232 2.98423 2.31845 0
M  V30 3203 H 331.545 6.46632 4.23187 0
M  V30 3204 H 329.89 5.81152 3.81165 0
M  V30 3205 H 333.081 3.74762 2.80484 0
M  V30 3206 H 333.254 5.33535 3.67756 0
M  V30 3207 N 326.66 -1.06551 1.16123 0
M  V30 3208 C 327.623 -2.12132 0.867906 0
M  V30 3209 C 328.623 -1.60224 -0.135944 0
M  V30 3210 O 329.813 -1.73943 0.0946422 0
M  V30 3211 C 326.945 -3.396 0.297419 0
M  V30 3212 H 328.138 -2.39586 1.80385 0
M  V30 3213 H 325.691 -1.22574 0.969812 0
M  V30 3214 H 326.426 -3.17794 -0.64633 0
M  V30 3215 H 326.211 -3.78581 1.02073 0
M  V30 3216 H 327.701 -4.17455 0.110052 0
M  V30 3217 N 328.138 -0.959301 -1.25041 0
M  V30 3218 C 329.366 -0.633949 -1.96948 0
M  V30 3219 C 329.781 0.794916 -1.7125 0
M  V30 3220 O 329.138 1.53231 -0.991287 0
M  V30 3221 C 329.189 -0.888805 -3.50403 0
M  V30 3222 O 328.91 -2.26149 -3.75218 0
M  V30 3223 C 330.411 -0.576482 -4.39536 0
M  V30 3224 H 327.631 -0.237263 -0.627652 0
M  V30 3225 H 330.175 -1.28495 -1.59089 0
M  V30 3226 H 328.33 -0.284145 -3.86357 0
M  V30 3227 H 328.744 -2.33514 -4.6965 0
M  V30 3228 H 330.218 -0.805314 -5.46094 0
M  V30 3229 H 330.695 0.489075 -4.36468 0
M  V30 3230 H 331.301 -1.16067 -4.09156 0
M  V30 3231 N 329.616 1.39756 -0.72842 0
M  V30 3232 C 330.862 2.00942 -0.273892 0
M  V30 3233 C 331.195 1.57656 1.13394 0
M  V30 3234 O 330.47 0.802434 1.77176 0
M  V30 3235 C 330.753 3.58211 -0.368346 0
M  V30 3236 C 330.606 4.11534 -1.81548 0
M  V30 3237 C 331.925 4.39372 0.253054 0
M  V30 3238 H 329.044 0.730047 -0.100996 0
M  V30 3239 H 331.686 1.66056 -0.923337 0
M  V30 3240 H 329.836 3.88061 0.184588 0
M  V30 3241 H 331.508 3.92431 -2.42478 0
M  V30 3242 H 329.751 3.65341 -2.33898 0
M  V30 3243 H 330.422 5.20682 -1.83288 0
M  V30 3244 H 332.898 4.15527 -0.218224 0
M  V30 3245 H 331.774 5.48677 0.156585 0
M  V30 3246 H 332.035 4.21358 1.33826 0
M  V30 3247 N 331.094 0.475555 1.50254 0
M  V30 3248 C 332.057 -0.305016 2.27161 0
M  V30 3249 C 333.057 -0.916519 1.32123 0
M  V30 3250 O 334.247 -0.785003 1.5551 0
M  V30 3251 C 331.379 -1.43496 3.09227 0
M  V30 3252 H 332.572 0.369511 2.97615 0
M  V30 3253 H 330.125 0.229747 1.54602 0
M  V30 3254 H 330.86 -2.14441 2.43281 0
M  V30 3255 H 330.645 -1.00223 3.79075 0
M  V30 3256 H 332.135 -1.98548 3.67381 0
M  V30 3257 N 332.573 -1.56217 0.208337 0
M  V30 3258 C 333.989 -1.58919 -0.14729 0
M  V30 3259 C 334.189 -1.22486 -1.59998 0
M  V30 3260 O 333.245 -0.953849 -2.3379 0
M  V30 3261 C 334.558 -3.00236 0.167048 0
M  V30 3262 C 336.106 -3.12813 0.108219 0
M  V30 3263 C 336.581 -4.56284 0.396049 0
M  V30 3264 N 338.072 -4.61912 0.345142 0
M  V30 3265 C 338.807 -5.70837 0.541523 0
M  V30 3266 N 338.303 -6.88178 0.798968 0
M  V30 3267 N 340.096 -5.60091 0.474867 0
M  V30 3268 H 332.247 -1.78177 1.15614 0
M  V30 3269 H 334.51 -0.827555 0.462446 0
M  V30 3270 H 334.216 -3.31499 1.1748 0
M  V30 3271 H 334.09 -3.7354 -0.524184 0
M  V30 3272 H 336.477 -2.81354 -0.890157 0
M  V30 3273 H 336.558 -2.41866 0.832729 0
M  V30 3274 H 336.202 -4.88458 1.3918 0
M  V30 3275 H 336.132 -5.25439 -0.349502 0
M  V30 3276 H 338.623 -3.77589 0.153316 0
M  V30 3277 H 338.936 -7.67095 0.93727 0
M  V30 3278 H 337.281 -6.89953 0.836013 0
M  V30 3279 H 340.472 -4.67297 0.274064 0
M  V30 3280 H 340.645 -6.44917 0.631326 0
M  V30 3281 N 334.051 0.0651679 -1.57465 0
M  V30 3282 C 335.299 0.761555 -1.87202 0
M  V30 3283 C 335.62 1.77778 -0.801243 0
M  V30 3284 O 334.89 1.95166 0.16937 0
M  V30 3285 H 333.47 0.284251 -0.690804 0
M  V30 3286 H 336.132 0.0396827 -1.9486 0
M  V30 3287 H 335.228 1.27365 -2.84929 0
M  V30 3288 N 335.529 1.53961 0.336706 0
M  V30 3289 C 336.459 1.85417 1.41925 0
M  V30 3290 C 337.44 0.709856 1.5458 0
M  V30 3291 O 338.625 0.962396 1.68676 0
M  V30 3292 C 335.755 2.06985 2.78881 0
M  V30 3293 C 334.709 3.22813 2.81026 0
M  V30 3294 C 334.035 3.29727 4.20932 0
M  V30 3295 C 335.335 4.60767 2.45949 0
M  V30 3296 H 337.029 2.76079 1.15848 0
M  V30 3297 H 334.575 1.32839 0.555859 0
M  V30 3298 H 336.528 2.27575 3.54665 0
M  V30 3299 H 335.252 1.13061 3.06406 0
M  V30 3300 H 333.911 3.0209 2.07695 0
M  V30 3301 H 333.559 2.33385 4.45579 0
M  V30 3302 H 333.259 4.07566 4.23277 0
M  V30 3303 H 334.783 3.52536 4.98549 0
M  V30 3304 H 336.197 4.81325 3.11446 0
M  V30 3305 H 334.594 5.4106 2.59566 0
M  V30 3306 H 335.664 4.6391 1.41122 0
M  V30 3307 N 337.007 -0.598083 1.45811 0
M  V30 3308 C 337.97 -1.69018 1.54808 0
M  V30 3309 C 338.97 -1.55037 0.426652 0
M  V30 3310 O 340.16 -1.59932 0.690456 0
M  V30 3311 C 337.292 -3.0835 1.45371 0
M  V30 3312 H 338.485 -1.62403 2.52121 0
M  V30 3313 H 336.038 -0.814626 1.33392 0
M  V30 3314 H 336.773 -3.20534 0.492793 0
M  V30 3315 H 336.558 -3.19907 2.26721 0
M  V30 3316 H 338.048 -3.8788 1.54721 0
M  V30 3317 N 338.485 -1.33259 -0.841409 0
M  V30 3318 C 339.395 -1.25332 -1.98316 0
M  V30 3319 C 340.411 -0.164364 -1.73222 0
M  V30 3320 O 341.587 -0.387486 -1.97637 0
M  V30 3321 C 338.652 -0.990078 -3.32262 0
M  V30 3322 C 337.713 -2.16879 -3.70489 0
M  V30 3323 C 336.946 -1.91801 -4.98044 0
M  V30 3324 O 337.169 -0.867075 -5.63771 0
M  V30 3325 O 336.103 -2.78267 -5.33714 0
M  V30 3326 H 339.929 -2.21344 -2.07944 0
M  V30 3327 H 337.514 -1.1328 -0.974058 0
M  V30 3328 H 339.396 -0.860321 -4.12524 0
M  V30 3329 H 338.071 -0.0602155 -3.23644 0
M  V30 3330 H 336.978 -2.35407 -2.90748 0
M  V30 3331 H 338.311 -3.0819 -3.8377 0
M  V30 3332 N 339.963 1.05934 -1.16686 0
M  V30 3333 C 340.911 2.15603 -0.872817 0
M  V30 3334 C 341.905 1.68647 0.159576 0
M  V30 3335 O 343.111 1.79995 0.0132125 0
M  V30 3336 H 339.486 0.703885 -0.264671 0
M  V30 3337 H 341.457 2.37613 -1.80507 0
M  V30 3338 C 340.206 3.45457 -0.394344 0
M  V30 3339 H 339.529 3.81984 -1.18019 0
M  V30 3340 H 340.969 4.2339 -0.227408 0
M  V30 3341 C 339.428 3.25021 0.88673 0
M  V30 3342 O 339.958 3.50906 1.95519 0
M  V30 3343 N 338.164 2.78437 0.831925 0
M  V30 3344 H 337.711 2.57572 -0.0377619 0
M  V30 3345 H 337.669 2.65144 1.68956 0
M  V30 3346 N 341.441 0.965919 1.2453 0
M  V30 3347 C 342.718 0.543777 1.87889 0
M  V30 3348 C 343.098 -0.97909 1.87021 0
M  V30 3349 O 342.446 -1.84969 1.3416 0
M  V30 3350 C 342.656 1.13327 3.30088 0
M  V30 3351 C 344.004 1.21707 4.06783 0
M  V30 3352 O 345.028 1.08566 3.39252 0
M  V30 3353 O 343.887 1.42456 5.27606 0
M  V30 3354 H 340.981 0.181054 0.806938 0
M  V30 3355 H 343.527 1.06007 1.32516 0
M  V30 3356 H 342.299 2.17612 3.25209 0
M  V30 3357 H 341.922 0.600911 3.93033 0
M  V30 3358 N 342.919 -1.39368 0.735821 0
M  V30 3359 C 344.165 -2.01272 0.293439 0
M  V30 3360 C 344.52 -1.57344 -1.10728 0
M  V30 3361 O 343.813 -0.792744 -1.74431 0
M  V30 3362 C 344.007 -3.5583 0.334651 0
M  V30 3363 C 343.836 -4.14764 1.73784 0
M  V30 3364 C 342.606 -4.47315 2.35026 0
M  V30 3365 C 344.804 -4.38246 2.69157 0
M  V30 3366 N 342.786 -4.91756 3.6749 0
M  V30 3367 C 344.157 -4.849 3.86357 0
M  V30 3368 C 346.212 -4.20315 2.66908 0
M  V30 3369 C 344.915 -5.15505 5.01645 0
M  V30 3370 C 346.941 -4.52033 3.8134 0
M  V30 3371 C 346.303 -4.98895 4.97276 0
M  V30 3372 H 342.402 -0.766756 0.153652 0
M  V30 3373 H 344.986 -1.69276 0.961967 0
M  V30 3374 H 343.157 -3.87212 -0.303527 0
M  V30 3375 H 344.889 -4.04503 -0.126358 0
M  V30 3376 H 341.644 -4.35143 1.86943 0
M  V30 3377 H 342.068 -5.18333 4.35499 0
M  V30 3378 H 346.71 -3.83287 1.78468 0
M  V30 3379 H 344.428 -5.51437 5.90713 0
M  V30 3380 H 348.014 -4.39781 3.80899 0
M  V30 3381 H 346.894 -5.22973 5.84353 0
M  V30 3382 N 344.397 -0.483516 -1.5 0
M  V30 3383 C 345.627 0.0643896 -2.065 0
M  V30 3384 C 346.035 1.32949 -1.34615 0
M  V30 3385 O 345.378 1.79003 -0.412756 0
M  V30 3386 C 345.44 0.405983 -3.572 0
M  V30 3387 C 345.104 -0.758875 -4.50655 0
M  V30 3388 C 346.101 -1.64445 -4.93208 0
M  V30 3389 C 343.786 -0.952725 -4.93182 0
M  V30 3390 C 345.78 -2.70818 -5.77006 0
M  V30 3391 C 343.467 -2.01966 -5.76761 0
M  V30 3392 C 344.465 -2.89574 -6.18576 0
M  V30 3393 O 344.153 -3.94429 -7.00486 0
M  V30 3394 H 343.885 -0.00934786 -0.675935 0
M  V30 3395 H 346.439 -0.674959 -1.93993 0
M  V30 3396 H 344.669 1.19869 -3.67652 0
M  V30 3397 H 346.358 0.890433 -3.96013 0
M  V30 3398 H 347.124 -1.50643 -4.61012 0
M  V30 3399 H 343.003 -0.280247 -4.60147 0
M  V30 3400 H 346.547 -3.3923 -6.09565 0
M  V30 3401 H 342.444 -2.1577 -6.0837 0
M  V30 3402 H 343.212 -3.91568 -7.1876 0
M  V30 3403 N 345.875 1.56104 -0.216619 0
M  V30 3404 C 346.805 2.23063 0.690296 0
M  V30 3405 C 347.786 1.20072 1.20485 0
M  V30 3406 O 348.971 1.48643 1.24976 0
M  V30 3407 C 346.101 2.90672 1.90072 0
M  V30 3408 C 345.055 4.00092 1.5202 0
M  V30 3409 C 344.381 4.54972 2.80899 0
M  V30 3410 C 345.681 5.17398 0.71391 0
M  V30 3411 H 347.375 2.99109 0.132038 0
M  V30 3412 H 344.921 1.43866 0.0620664 0
M  V30 3413 H 346.874 3.36204 2.54057 0
M  V30 3414 H 345.598 2.12066 2.48386 0
M  V30 3415 H 344.257 3.55283 0.903839 0
M  V30 3416 H 343.905 3.73102 3.37348 0
M  V30 3417 H 343.605 5.28817 2.56176 0
M  V30 3418 H 345.129 5.0322 3.45836 0
M  V30 3419 H 346.543 5.59342 1.25735 0
M  V30 3420 H 344.94 5.97444 0.563951 0
M  V30 3421 H 346.01 4.84088 -0.280527 0
M  V30 3422 N 347.353 -0.0568162 1.57498 0
M  V30 3423 C 348.581 -0.765626 1.92213 0
M  V30 3424 C 348.996 -1.70353 0.813961 0
M  V30 3425 O 348.353 -1.81268 -0.211701 0
M  V30 3426 C 348.404 -1.5465 3.2675 0
M  V30 3427 O 348.125 -0.646278 4.33307 0
M  V30 3428 C 349.626 -2.35497 3.75574 0
M  V30 3429 H 346.846 -0.216835 0.634999 0
M  V30 3430 H 349.39 -0.0226146 2.04487 0
M  V30 3431 H 347.545 -2.24165 3.15957 0
M  V30 3432 H 347.959 -1.19093 5.108 0
M  V30 3433 H 349.433 -2.85722 4.72299 0
M  V30 3434 H 349.91 -3.15692 3.05344 0
M  V30 3435 H 350.516 -1.7111 3.8936 0
M  V30 3436 N 348.832 -1.54138 -0.328536 0
M  V30 3437 C 350.057 -1.76378 -1.09112 0
M  V30 3438 C 350.482 -0.508596 -1.81094 0
M  V30 3439 O 349.84 0.539598 -1.73084 0
M  V30 3440 C 349.888 -2.95358 -2.06872 0
M  V30 3441 O 348.992 -2.66556 -3.14677 0
M  V30 3442 H 348.333 -0.584614 -0.314838 0
M  V30 3443 H 350.863 -2.01146 -0.374348 0
M  V30 3444 H 350.873 -3.22566 -2.4983 0
M  V30 3445 H 349.548 -3.86385 -1.5388 0
M  V30 3446 H 348.125 -2.50282 -2.7643 0
M  V30 3447 N 350.31 0.590341 -1.46126 0
M  V30 3448 C 351.556 1.35082 -1.51264 0
M  V30 3449 C 351.889 1.93534 -0.160711 0
M  V30 3450 O 351.164 1.76045 0.826956 0
M  V30 3451 C 351.447 2.48588 -2.6053 0
M  V30 3452 C 351.3 1.95221 -4.05227 0
M  V30 3453 C 352.619 3.50662 -2.6594 0
M  V30 3454 H 349.738 0.489803 -0.550692 0
M  V30 3455 H 352.38 0.663887 -1.78024 0
M  V30 3456 H 350.53 3.07186 -2.37843 0
M  V30 3457 H 352.202 1.41139 -4.39178 0
M  V30 3458 H 350.445 1.26101 -4.15068 0
M  V30 3459 H 351.116 2.77121 -4.77397 0
M  V30 3460 H 353.592 3.01934 -2.86313 0
M  V30 3461 H 352.468 4.27551 -3.44226 0
M  V30 3462 H 352.729 4.07399 -1.71694 0
M  V30 3463 N 351.788 1.33704 0.83433 0
M  V30 3464 C 352.72 1.20172 1.9517 0
M  V30 3465 C 353.733 0.131572 1.62267 0
M  V30 3466 O 354.922 0.382406 1.74356 0
M  V30 3467 C 352.022 0.821716 3.28787 0
M  V30 3468 C 351.195 1.98446 3.89792 0
M  V30 3469 C 350.254 1.58469 5.01771 0
M  V30 3470 O 349.28 2.29968 5.20676 0
M  V30 3471 N 350.482 0.492291 5.78409 0
M  V30 3472 H 353.247 2.16429 2.07313 0
M  V30 3473 H 350.808 1.26509 1.0103 0
M  V30 3474 H 352.8 0.536291 4.01131 0
M  V30 3475 H 351.37 -0.0503058 3.1256 0
M  V30 3476 H 350.59 2.43526 3.09982 0
M  V30 3477 H 351.878 2.76236 4.27283 0
M  V30 3478 H 351.276 -0.102349 5.65607 0
M  V30 3479 H 349.833 0.266555 6.51255 0
M  V30 3480 N 353.266 -1.05314 1.17247 0
M  V30 3481 C 354.229 -2.112 0.890357 0
M  V30 3482 C 355.229 -1.60359 -0.118943 0
M  V30 3483 O 356.419 -1.73833 0.113086 0
M  V30 3484 C 353.551 -3.39266 0.333422 0
M  V30 3485 H 354.744 -2.37659 1.82916 0
M  V30 3486 H 352.297 -1.21538 0.982758 0
M  V30 3487 H 353.032 -3.18462 -0.612587 0
M  V30 3488 H 352.817 -3.77477 1.06082 0
M  V30 3489 H 354.307 -4.17315 0.154322 0
M  V30 3490 N 354.744 -0.972509 -1.24016 0
M  V30 3491 C 355.992 -0.635776 -1.91839 0
M  V30 3492 C 356.313 0.832312 -1.76345 0
M  V30 3493 O 355.583 1.5946 -1.13795 0
M  V30 3494 H 354.163 -0.232157 -0.710009 0
M  V30 3495 H 356.825 -1.23462 -1.50809 0
M  V30 3496 H 355.921 -0.880545 -2.99421 0
M  V30 3497 N 356.222 1.38976 -0.743202 0
M  V30 3498 C 357.469 2.00343 -0.294752 0
M  V30 3499 C 357.797 1.58983 1.12047 0
M  V30 3500 O 357.052 0.813809 1.77977 0
M  V30 3501 C 357.351 3.55647 -0.353517 0
M  V30 3502 C 357.017 4.16685 -1.72292 0
M  V30 3503 C 355.679 4.3307 -2.09771 0
M  V30 3504 C 358.031 4.50464 -2.62168 0
M  V30 3505 C 355.359 4.80526 -3.36618 0
M  V30 3506 C 357.711 4.99332 -3.88395 0
M  V30 3507 C 356.375 5.13924 -4.25956 0
M  V30 3508 H 355.645 0.733108 -0.107857 0
M  V30 3509 H 358.292 1.6618 -0.951651 0
M  V30 3510 H 356.597 3.89884 0.386954 0
M  V30 3511 H 358.294 4.00998 0.0117269 0
M  V30 3512 H 354.884 4.04339 -1.42155 0
M  V30 3513 H 359.068 4.37416 -2.3448 0
M  V30 3514 H 354.324 4.90008 -3.65653 0
M  V30 3515 H 358.498 5.2444 -4.58187 0
M  V30 3516 H 356.125 5.50457 -5.2431 0
M  V30 3517 N 357.7 0.491464 1.49741 0
M  V30 3518 C 358.61 -0.296835 2.32715 0
M  V30 3519 C 359.626 -0.976536 1.44013 0
M  V30 3520 O 360.802 -0.960023 1.77047 0
M  V30 3521 C 357.867 -1.35288 3.19215 0
M  V30 3522 C 356.928 -0.687632 4.23757 0
M  V30 3523 C 356.161 -1.69336 5.06123 0
M  V30 3524 O 356.384 -2.92219 4.89861 0
M  V30 3525 O 355.318 -1.25394 5.88693 0
M  V30 3526 H 359.144 0.382048 3.01287 0
M  V30 3527 H 356.729 0.252953 1.47243 0
M  V30 3528 H 358.611 -1.96411 3.72828 0
M  V30 3529 H 357.286 -2.01487 2.53347 0
M  V30 3530 H 356.193 -0.0369159 3.74082 0
M  V30 3531 H 357.526 -0.0682566 4.92153 0
M  V30 3532 N 359.178 -1.55987 0.224894 0
M  V30 3533 C 360.589 -1.84553 -0.282345 0
M  V30 3534 C 360.94 -1.14634 -1.59227 0
M  V30 3535 O 360.065 -0.417155 -2.12341 0
M  V30 3536 C 360.66 -3.348 -0.519062 0
M  V30 3537 C 359.219 -3.63671 -0.970604 0
M  V30 3538 C 358.366 -2.77277 -0.0355261 0
M  V30 3539 H 361.317 -1.52245 0.448006 0
M  V30 3540 H 361.338 -3.55187 -1.36463 0
M  V30 3541 H 360.85 -3.8566 0.43449 0
M  V30 3542 H 358.951 -3.1827 -1.9374 0
M  V30 3543 H 359.064 -4.71631 -0.842698 0
M  V30 3544 H 357.428 -2.48846 -0.542927 0
M  V30 3545 H 358.211 -3.30937 0.913003 0
M  V30 3546 N 360.656 0.0484629 -1.57525 0
M  V30 3547 C 361.902 0.738854 -1.89506 0
M  V30 3548 C 362.257 1.73989 -0.821319 0
M  V30 3549 O 361.55 1.90825 0.172129 0
M  V30 3550 C 361.744 1.46632 -3.25935 0
M  V30 3551 C 361.573 0.537254 -4.46479 0
M  V30 3552 C 360.343 0.165484 -5.05029 0
M  V30 3553 C 362.541 -0.176085 -5.13998 0
M  V30 3554 N 360.523 -0.766868 -6.09091 0
M  V30 3555 C 361.894 -0.96478 -6.12448 0
M  V30 3556 C 363.949 -0.24509 -4.97296 0
M  V30 3557 C 362.652 -1.8161 -6.95996 0
M  V30 3558 C 364.678 -1.08347 -5.81391 0
M  V30 3559 C 364.04 -1.86014 -6.79395 0
M  V30 3560 H 360.139 0.245067 -0.742608 0
M  V30 3561 H 362.723 -0.000476161 -1.947 0
M  V30 3562 H 360.894 2.17623 -3.21706 0
M  V30 3563 H 362.626 2.10757 -3.45491 0
M  V30 3564 H 359.381 0.523466 -4.70698 0
M  V30 3565 H 359.805 -1.22698 -6.65788 0
M  V30 3566 H 364.447 0.341063 -4.21422 0
M  V30 3567 H 362.165 -2.41313 -7.71229 0
M  V30 3568 H 365.751 -1.14014 -5.70519 0
M  V30 3569 H 364.631 -2.4984 -7.43337 0
M  V30 3570 N 362.134 1.5431 0.320358 0
M  V30 3571 C 363.066 1.80262 1.41556 0
M  V30 3572 C 364.079 0.684723 1.477 0
M  V30 3573 O 365.268 0.961886 1.50366 0
M  V30 3574 C 362.368 1.90825 2.8007 0
M  V30 3575 C 361.541 3.21023 2.97091 0
M  V30 3576 C 360.6 3.22247 4.15985 0
M  V30 3577 O 359.626 3.95871 4.08992 0
M  V30 3578 N 360.828 2.46258 5.25678 0
M  V30 3579 H 363.593 2.74778 1.19655 0
M  V30 3580 H 361.154 1.53646 0.510358 0
M  V30 3581 H 363.146 1.89067 3.57821 0
M  V30 3582 H 361.716 1.03392 2.95006 0
M  V30 3583 H 360.936 3.35715 2.06614 0
M  V30 3584 H 362.224 4.0698 3.05361 0
M  V30 3585 H 361.622 1.86037 5.34235 0
M  V30 3586 H 360.179 2.50275 6.01835 0
M  V30 3587 N 363.613 -0.582584 1.46437 0
M  V30 3588 C 364.561 -1.71272 1.5738 0
M  V30 3589 C 365.555 -1.63524 0.44229 0
M  V30 3590 O 366.761 -1.69016 0.619166 0
M  V30 3591 H 363.136 -0.566273 0.494813 0
M  V30 3592 H 365.107 -1.59174 2.52401 0
M  V30 3593 C 363.856 -3.09658 1.58136 0
M  V30 3594 H 363.179 -3.16291 2.44541 0
M  V30 3595 H 364.619 -3.88494 1.69847 0
M  V30 3596 C 363.078 -3.3547 0.310026 0
M  V30 3597 O 363.608 -3.97199 -0.599683 0
M  V30 3598 N 361.814 -2.89925 0.197901 0
M  V30 3599 H 361.361 -2.39873 0.93909 0
M  V30 3600 H 361.319 -3.07568 -0.65185 0
M  V30 3601 N 365.091 -1.34144 -0.827227 0
M  V30 3602 C 366.339 -1.26009 -1.58007 0
M  V30 3603 C 366.66 0.170971 -1.94249 0
M  V30 3604 O 365.93 1.10256 -1.61927 0
M  V30 3605 H 364.51 -0.463414 -0.585881 0
M  V30 3606 H 367.172 -1.68005 -0.987951 0
M  V30 3607 H 366.268 -1.86187 -2.50481 0
M  V30 3608 N 366.569 1.04691 -1.17803 0
M  V30 3609 C 367.532 2.10724 -0.901545 0
M  V30 3610 C 368.532 1.6042 0.110437 0
M  V30 3611 O 369.722 1.7377 -0.122303 0
M  V30 3612 C 366.854 3.39084 -0.351409 0
M  V30 3613 H 368.047 2.36686 -1.84174 0
M  V30 3614 H 365.6 1.21015 -0.98919 0
M  V30 3615 H 366.335 3.18782 0.59569 0
M  V30 3616 H 366.12 3.76909 -1.08083 0
M  V30 3617 H 367.61 4.17227 -0.176451 0
M  V30 3618 N 368.047 0.979072 1.23499 0
M  V30 3619 C 369.295 0.645941 1.91499 0
M  V30 3620 C 369.616 -0.822948 1.76784 0
M  V30 3621 O 368.886 -1.58854 1.14639 0
M  V30 3622 H 367.466 0.235919 0.708767 0
M  V30 3623 H 370.128 1.2426 1.50152 0
M  V30 3624 H 369.224 0.896411 2.9895 0
M  V30 3625 N 369.525 -1.3858 0.750561 0
M  V30 3626 C 370.455 -2.33102 0.136237 0
M  V30 3627 C 371.436 -1.54713 -0.706965 0
M  V30 3628 O 372.621 -1.83043 -0.648769 0
M  V30 3629 C 369.751 -3.38882 -0.760017 0
M  V30 3630 C 368.705 -4.27995 -0.0197785 0
M  V30 3631 C 368.031 -5.24605 -1.03408 0
M  V30 3632 C 369.331 -5.09554 1.14684 0
M  V30 3633 H 371.025 -2.84726 0.925822 0
M  V30 3634 H 368.571 -1.36898 0.446654 0
M  V30 3635 H 370.524 -4.0397 -1.19943 0
M  V30 3636 H 369.248 -2.85734 -1.58189 0
M  V30 3637 H 367.907 -3.64409 0.400184 0
M  V30 3638 H 367.555 -4.67746 -1.84994 0
M  V30 3639 H 367.255 -5.85081 -0.543464 0
M  V30 3640 H 368.779 -5.9257 -1.47288 0
M  V30 3641 H 370.193 -5.67899 0.785118 0
M  V30 3642 H 368.59 -5.7925 1.56812 0
M  V30 3643 H 369.66 -4.4347 1.96118 0
M  V30 3644 N 371.003 -0.499398 -1.49478 0
M  V30 3645 C 371.966 0.268838 -2.27618 0
M  V30 3646 C 372.966 0.895383 -1.33565 0
M  V30 3647 O 374.156 0.760164 -1.56739 0
M  V30 3648 C 371.288 1.38559 -3.11471 0
M  V30 3649 H 372.481 -0.416812 -2.96989 0
M  V30 3650 H 370.034 -0.254313 -1.54217 0
M  V30 3651 H 370.769 2.10544 -2.46661 0
M  V30 3652 H 370.554 0.941797 -3.80621 0
M  V30 3653 H 372.044 1.92678 -3.70493 0
M  V30 3654 N 372.481 1.55866 -0.233164 0
M  V30 3655 C 373.727 1.98897 0.395959 0
M  V30 3656 C 374.06 1.12091 1.58585 0
M  V30 3657 O 373.335 0.181182 1.93654 0
M  V30 3658 C 373.618 3.50658 0.819224 0
M  V30 3659 C 373.471 4.48233 -0.375109 0
M  V30 3660 C 374.79 4.07135 1.67121 0
M  V30 3661 H 371.909 0.723102 0.142451 0
M  V30 3662 H 374.551 1.87082 -0.331725 0
M  V30 3663 H 372.701 3.60857 1.43925 0
M  V30 3664 H 374.373 4.50031 -1.01341 0
M  V30 3665 H 372.616 4.21624 -1.02058 0
M  V30 3666 H 373.287 5.51988 -0.0358328 0
M  V30 3667 H 375.763 3.99952 1.14795 0
M  V30 3668 H 374.639 5.13615 1.93625 0
M  V30 3669 H 374.9 3.54736 2.63846 0
M  V30 3670 N 373.959 -0.0401083 1.57549 0
M  V30 3671 C 374.907 -1.06264 2.06908 0
M  V30 3672 C 375.901 -1.38132 0.980608 0
M  V30 3673 O 377.107 -1.37167 1.16556 0
M  V30 3674 H 373.482 -0.360166 0.660139 0
M  V30 3675 H 375.453 -0.620445 2.91878 0
M  V30 3676 C 374.202 -2.35846 2.55483 0
M  V30 3677 H 373.525 -2.12183 3.38849 0
M  V30 3678 H 374.965 -3.05765 2.93741 0
M  V30 3679 C 373.424 -3.0404 1.45126 0
M  V30 3680 O 373.954 -3.93424 0.811216 0
M  V30 3681 N 372.16 -2.65184 1.18852 0
M  V30 3682 H 371.707 -1.92584 1.71083 0
M  V30 3683 H 371.665 -3.1113 0.452244 0
M  V30 3684 N 375.437 -1.54477 -0.31217 0
M  V30 3685 C 376.662 -1.77526 -1.07235 0
M  V30 3686 C 377.087 -0.527775 -1.80544 0
M  V30 3687 O 376.445 0.52121 -1.73646 0
M  V30 3688 C 376.493 -2.97535 -2.03728 0
M  V30 3689 O 375.597 -2.69878 -3.11833 0
M  V30 3690 H 374.938 -0.58792 -0.30862 0
M  V30 3691 H 377.468 -2.01532 -0.352993 0
M  V30 3692 H 377.478 -3.25198 -2.46395 0
M  V30 3693 H 376.153 -3.87996 -1.49774 0
M  V30 3694 H 374.73 -2.53199 -2.7376 0
M  V30 3695 N 376.915 0.57481 -1.46744 0
M  V30 3696 C 378.162 1.33272 -1.52462 0
M  V30 3697 C 378.49 1.93669 -0.179572 0
M  V30 3698 O 377.745 1.7743 0.825664 0
M  V30 3699 C 378.044 2.476 -2.57738 0
M  V30 3700 C 377.71 2.05146 -4.01529 0
M  V30 3701 C 376.372 1.93284 -4.40676 0
M  V30 3702 C 378.724 1.72506 -4.91824 0
M  V30 3703 C 376.052 1.47049 -5.67973 0
M  V30 3704 C 378.404 1.27748 -6.19567 0
M  V30 3705 C 377.068 1.14468 -6.57612 0
M  V30 3706 H 376.338 0.487678 -0.557899 0
M  V30 3707 H 378.985 0.646456 -1.80259 0
M  V30 3708 H 377.29 3.21708 -2.23632 0
M  V30 3709 H 378.987 3.05807 -2.5939 0
M  V30 3710 H 375.577 2.15316 -3.7059 0
M  V30 3711 H 379.761 1.80552 -4.62293 0
M  V30 3712 H 375.017 1.35417 -5.96215 0
M  V30 3713 H 379.191 1.01547 -6.88957 0
M  V30 3714 H 376.818 0.78419 -7.56145 0
M  V30 3715 N 378.394 1.34581 0.820102 0
M  V30 3716 C 379.619 1.30333 1.61332 0
M  V30 3717 C 380.044 -0.119339 1.87721 0
M  V30 3718 O 379.402 -1.08197 1.45475 0
M  V30 3719 C 379.45 2.10258 2.92957 0
M  V30 3720 O 378.554 1.47404 3.85157 0
M  V30 3721 H 377.895 0.447488 0.490561 0
M  V30 3722 H 380.425 1.77425 1.01889 0
M  V30 3723 H 380.435 2.21718 3.42498 0
M  V30 3724 H 379.11 3.13693 2.73074 0
M  V30 3725 H 377.687 1.44703 3.43679 0
M  V30 3726 N 379.872 -1.04064 1.18357 0
M  V30 3727 C 381.097 -1.81454 1.00445 0
M  V30 3728 C 381.522 -1.82823 -0.442423 0
M  V30 3729 O 380.88 -1.24555 -1.31741 0
M  V30 3730 C 380.928 -3.24925 1.56384 0
M  V30 3731 O 380.032 -4.04856 0.785209 0
M  V30 3732 H 379.373 -0.560604 0.355835 0
M  V30 3733 H 381.903 -1.31059 1.57114 0
M  V30 3734 H 381.913 -3.75702 1.59097 0
M  V30 3735 H 380.588 -3.23244 2.61699 0
M  V30 3736 H 379.165 -3.63537 0.830399 0
M  V30 3737 N 381.35 -0.985608 -1.22978 0
M  V30 3738 C 382.578 -0.675582 -1.95559 0
M  V30 3739 C 382.993 0.758413 -1.72897 0
M  V30 3740 O 382.35 1.51094 -1.02357 0
M  V30 3741 C 382.401 -0.96293 -3.48439 0
M  V30 3742 O 382.122 -2.34057 -3.70336 0
M  V30 3743 C 383.623 -0.669585 -4.38214 0
M  V30 3744 H 380.843 -0.250523 -0.622478 0
M  V30 3745 H 383.387 -1.3184 -1.56328 0
M  V30 3746 H 381.542 -0.366033 -3.85667 0
M  V30 3747 H 381.956 -2.43424 -4.64591 0
M  V30 3748 H 383.43 -0.920967 -5.44263 0
M  V30 3749 H 383.907 0.396383 -4.37408 0
M  V30 3750 H 384.513 -1.2472 -4.06602 0
M  V30 3751 N 382.828 1.3818 -0.7579 0
M  V30 3752 C 384.074 2.00316 -0.316453 0
M  V30 3753 C 384.407 1.60026 1.10025 0
M  V30 3754 O 383.682 0.839835 1.75434 0
M  V30 3755 C 383.965 3.57349 -0.444245 0
M  V30 3756 C 383.818 4.07591 -1.90236 0
M  V30 3757 C 385.137 4.3981 0.1598 0
M  V30 3758 H 382.256 0.727741 -0.116459 0
M  V30 3759 H 384.898 1.6406 -0.958352 0
M  V30 3760 H 383.048 3.88365 0.102233 0
M  V30 3761 H 384.72 3.87199 -2.50748 0
M  V30 3762 H 382.963 3.60297 -2.41595 0
M  V30 3763 H 383.634 5.16677 -1.94291 0
M  V30 3764 H 386.11 4.14971 -0.306314 0
M  V30 3765 H 384.986 5.48885 0.0401675 0
M  V30 3766 H 385.247 4.24102 1.24859 0
M  V30 3767 N 384.306 0.507319 1.49211 0
M  V30 3768 C 385.216 -0.272136 2.33016 0
M  V30 3769 C 386.232 -0.961206 1.45041 0
M  V30 3770 O 387.408 -0.941191 1.78055 0
M  V30 3771 C 384.473 -1.31895 3.20631 0
M  V30 3772 C 383.534 -0.642648 4.24463 0
M  V30 3773 C 382.767 -1.63959 5.07891 0
M  V30 3774 O 382.99 -2.87007 4.92933 0
M  V30 3775 O 381.924 -1.19143 5.8999 0
M  V30 3776 H 385.75 0.413982 3.00865 0
M  V30 3777 H 383.335 0.268556 1.46966 0
M  V30 3778 H 385.217 -1.92446 3.7489 0
M  V30 3779 H 383.892 -1.98788 2.5547 0
M  V30 3780 H 382.799 0.00276252 3.741 0
M  V30 3781 H 384.132 -0.0160534 4.92197 0
M  V30 3782 N 385.784 -1.5574 0.241426 0
M  V30 3783 C 387.012 -2.03208 -0.389134 0
M  V30 3784 C 387.427 -1.12082 -1.51931 0
M  V30 3785 O 386.784 -0.134183 -1.82006 0
M  V30 3786 C 386.835 -3.50064 -0.902087 0
M  V30 3787 O 386.556 -4.37717 0.18305 0
M  V30 3788 C 388.057 -4.13268 -1.60389 0
M  V30 3789 H 385.277 -0.664509 -0.0931053 0
M  V30 3790 H 387.821 -2.0124 0.36369 0
M  V30 3791 H 385.976 -3.52583 -1.60511 0
M  V30 3792 H 386.39 -5.24097 -0.205579 0
M  V30 3793 H 387.864 -5.17733 -1.91458 0
M  V30 3794 H 388.341 -3.59434 -2.52397 0
M  V30 3795 H 388.947 -4.14655 -0.945576 0
M  V30 3796 N 387.262 0.0317525 -1.57568 0
M  V30 3797 C 388.51 0.721676 -1.88776 0
M  V30 3798 C 388.831 1.76039 -0.838772 0
M  V30 3799 O 388.101 1.95482 0.127935 0
M  V30 3800 H 386.681 0.269534 -0.696678 0
M  V30 3801 H 389.343 -0.00165879 -1.949 0
M  V30 3802 H 388.439 1.21293 -2.87566 0
M  V30 3803 N 388.74 1.54641 0.303973 0
M  V30 3804 C 389.968 1.77768 1.05858 0
M  V30 3805 C 390.383 0.535722 1.8104 0
M  V30 3806 O 389.74 -0.494337 1.75677 0
M  V30 3807 C 389.791 2.9834 2.04146 0
M  V30 3808 O 389.512 4.17736 1.32015 0
M  V30 3809 C 391.013 3.33832 2.91669 0
M  V30 3810 H 388.233 0.592961 0.314067 0
M  V30 3811 H 390.777 2.01583 0.344149 0
M  V30 3812 H 388.932 2.76742 2.71096 0
M  V30 3813 H 389.346 4.85693 1.97998 0
M  V30 3814 H 390.82 4.21448 3.56491 0
M  V30 3815 H 391.297 2.51857 3.59812 0
M  V30 3816 H 391.903 3.57579 2.30254 0
M  V30 3817 N 390.218 -0.567019 1.47046 0
M  V30 3818 C 391.629 -1.14916 1.47143 0
M  V30 3819 C 391.98 -1.94954 0.220767 0
M  V30 3820 O 391.105 -2.05602 -0.67505 0
M  V30 3821 C 391.7 -2.09069 2.666 0
M  V30 3822 C 390.259 -2.62575 2.69687 0
M  V30 3823 C 389.406 -1.38755 2.40088 0
M  V30 3824 H 392.357 -0.354126 1.54699 0
M  V30 3825 H 392.378 -2.92789 2.43011 0
M  V30 3826 H 391.89 -1.50789 3.57609 0
M  V30 3827 H 389.991 -3.24681 1.82792 0
M  V30 3828 H 390.104 -3.04239 3.70102 0
M  V30 3829 H 388.468 -1.69098 1.90468 0
M  V30 3830 H 389.251 -0.822822 3.33293 0
M  V30 3831 N 391.696 -1.35014 -0.812953 0
M  V30 3832 C 392.944 -1.27678 -1.56661 0
M  V30 3833 C 393.265 0.150359 -1.94419 0
M  V30 3834 O 392.535 1.08532 -1.63088 0
M  V30 3835 H 391.115 -0.469602 -0.580933 0
M  V30 3836 H 393.777 -1.69043 -0.970076 0
M  V30 3837 H 392.873 -1.88833 -2.48492 0
M  V30 3838 N 393.175 1.03435 -1.18907 0
M  V30 3839 C 394.423 1.76394 -0.986382 0
M  V30 3840 C 394.744 1.88883 0.484567 0
M  V30 3841 O 394.014 1.41843 1.3512 0
M  V30 3842 H 392.594 0.65344 -0.361975 0
M  V30 3843 H 395.256 1.248 -1.49703 0
M  V30 3844 H 394.352 2.77424 -1.42978 0
M  V30 3845 N 394.653 0.992116 1.22453 0
M  V30 3846 C 395.881 0.685944 1.95198 0
M  V30 3847 C 396.296 -0.749233 1.73297 0
M  V30 3848 O 395.653 -1.50549 1.03156 0
M  V30 3849 C 395.704 0.981395 3.47924 0
M  V30 3850 O 395.425 2.36018 3.6909 0
M  V30 3851 C 396.926 0.692815 4.37853 0
M  V30 3852 H 394.146 0.253821 0.621141 0
M  V30 3853 H 396.69 1.32668 1.55626 0
M  V30 3854 H 394.845 0.386481 3.85467 0
M  V30 3855 H 395.259 2.45884 4.63294 0
M  V30 3856 H 396.733 0.949818 5.43767 0
M  V30 3857 H 397.21 -0.373181 4.37612 0
M  V30 3858 H 397.816 1.26874 4.05935 0
M  V30 3859 N 396.131 -1.37776 0.765217 0
M  V30 3860 C 397.408 -1.93975 0.251596 0
M  V30 3861 C 397.788 -1.69949 -1.25222 0
M  V30 3862 O 397.136 -1.04457 -2.03226 0
M  V30 3863 C 397.346 -3.43487 0.617895 0
M  V30 3864 C 398.694 -4.20564 0.584029 0
M  V30 3865 O 399.718 -3.5182 0.556888 0
M  V30 3866 O 398.577 -5.43138 0.605291 0
M  V30 3867 H 395.671 -0.82509 0.0561806 0
M  V30 3868 H 398.217 -1.47101 0.846128 0
M  V30 3869 H 396.989 -3.5453 1.65602 0
M  V30 3870 H 396.612 -3.976 -0.00403411 0
M  V30 3871 N 397.609 -0.515225 -1.4894 0
M  V30 3872 C 399.02 -0.0710067 -1.86565 0
M  V30 3873 C 399.371 1.34733 -1.42623 0
M  V30 3874 O 398.496 2.00653 -0.810379 0
M  V30 3875 C 399.091 -0.122083 -3.3858 0
M  V30 3876 C 397.65 0.266863 -3.75453 0
M  V30 3877 C 396.797 -0.488376 -2.72966 0
M  V30 3878 H 399.748 -0.727266 -1.41055 0
M  V30 3879 H 399.769 0.669818 -3.74558 0
M  V30 3880 H 399.281 -1.15448 -3.70531 0
M  V30 3881 H 397.382 1.30196 -3.49113 0
M  V30 3882 H 397.495 -0.0624811 -4.79059 0
M  V30 3883 H 395.859 0.0635622 -2.54621 0
M  V30 3884 H 396.642 -1.52113 -3.07761 0
M  V30 3885 N 399.087 1.5561 -0.249682 0
M  V30 3886 C 400.335 1.98618 0.373548 0
M  V30 3887 C 400.656 1.13919 1.58264 0
M  V30 3888 O 399.926 0.222637 1.94631 0
M  V30 3889 H 398.506 0.733571 0.141006 0
M  V30 3890 H 401.168 1.91748 -0.349117 0
M  V30 3891 H 400.264 3.04584 0.680796 0
M  V30 3892 N 400.565 -0.0233959 1.57583 0
M  V30 3893 C 401.842 -0.748794 1.807 0
M  V30 3894 C 402.222 -1.9327 0.849106 0
M  V30 3895 O 401.57 -2.28247 -0.107468 0
M  V30 3896 C 401.78 -1.17651 3.28571 0
M  V30 3897 C 403.128 -1.59008 3.93702 0
M  V30 3898 O 404.152 -1.27094 3.32755 0
M  V30 3899 O 403.011 -2.18264 5.01022 0
M  V30 3900 H 400.105 -0.362578 0.743281 0
M  V30 3901 H 402.651 0.000261958 1.697 0
M  V30 3902 H 401.423 -0.331603 3.89892 0
M  V30 3903 H 401.046 -1.98541 3.44481 0
M  V30 3904 N 402.043 -1.548 -0.295768 0
M  V30 3905 C 403.454 -1.65274 -0.868411 0
M  V30 3906 C 403.805 -0.56481 -1.87894 0
M  V30 3907 O 402.93 0.29767 -2.14343 0
M  V30 3908 C 403.525 -2.99603 -1.58188 0
M  V30 3909 C 402.084 -3.12181 -2.10286 0
M  V30 3910 C 401.231 -2.6098 -0.93727 0
M  V30 3911 H 404.182 -1.58534 -0.0726422 0
M  V30 3912 H 404.203 -2.91319 -2.44772 0
M  V30 3913 H 403.715 -3.78764 -0.846151 0
M  V30 3914 H 401.816 -2.3775 -2.8689 0
M  V30 3915 H 401.929 -4.18415 -2.33379 0
M  V30 3916 H 400.293 -2.17564 -1.32431 0
M  V30 3917 H 401.076 -3.42623 -0.215414 0
M  V30 3918 N 403.521 0.559213 -1.47345 0
M  V30 3919 C 404.769 1.31388 -1.53563 0
M  V30 3920 C 405.09 1.93985 -0.198678 0
M  V30 3921 O 404.36 1.79825 0.777167 0
M  V30 3922 H 402.94 0.487901 -0.565652 0
M  V30 3923 H 405.602 0.65315 -1.8363 0
M  V30 3924 H 404.698 2.10844 -2.30111 0
M  V30 3925 N 404.999 1.35443 0.805782 0
M  V30 3926 C 406.247 1.28507 1.55982 0
M  V30 3927 C 406.568 -0.140046 1.94496 0
M  V30 3928 O 405.838 -1.07666 1.63661 0
M  V30 3929 H 404.418 0.472676 0.578434 0
M  V30 3930 H 407.08 1.69555 0.961098 0
M  V30 3931 H 406.176 1.90148 2.47488 0
M  V30 3932 N 406.477 -1.02803 1.19454 0
M  V30 3933 C 407.888 -1.57667 0.999899 0
M  V30 3934 C 408.239 -1.91041 -0.446956 0
M  V30 3935 O 407.364 -1.70978 -1.32648 0
M  V30 3936 C 407.959 -2.86477 1.80877 0
M  V30 3937 C 406.518 -3.37911 1.65811 0
M  V30 3938 C 405.665 -2.11343 1.79526 0
M  V30 3939 H 408.616 -0.853214 1.33813 0
M  V30 3940 H 408.637 -3.57408 1.30536 0
M  V30 3941 H 408.149 -2.62155 2.86175 0
M  V30 3942 H 406.25 -3.67218 0.63102 0
M  V30 3943 H 406.363 -4.10885 2.46395 0
M  V30 3944 H 404.727 -2.23254 1.22596 0
M  V30 3945 H 405.51 -1.89461 2.86285 0
M  V30 3946 N 407.956 -0.998596 -1.21925 0
M  V30 3947 C 409.181 -0.696015 -1.95372 0
M  V30 3948 C 409.606 0.733826 -1.73195 0
M  V30 3949 O 408.964 1.50242 -1.01474 0
M  V30 3950 C 409.012 -1.01466 -3.4603 0
M  V30 3951 O 408.116 -0.116415 -4.12236 0
M  V30 3952 H 407.457 -0.259938 -0.611006 0
M  V30 3953 H 409.987 -1.33711 -1.54863 0
M  V30 3954 H 409.997 -0.958855 -3.96573 0
M  V30 3955 H 408.672 -2.05653 -3.61497 0
M  V30 3956 H 407.249 -0.228193 -3.72201 0
M  V30 3957 N 409.434 1.37368 -0.772513 0
M  V30 3958 C 410.397 2.28601 -0.165541 0
M  V30 3959 C 411.397 1.48062 0.627238 0
M  V30 3960 O 412.587 1.68268 0.450715 0
M  V30 3961 C 409.719 3.32023 0.772897 0
M  V30 3962 H 410.912 2.83787 -0.969787 0
M  V30 3963 H 408.465 1.46647 -0.540775 0
M  V30 3964 H 409.2 2.81962 1.60212 0
M  V30 3965 H 408.985 3.91555 0.206585 0
M  V30 3966 H 410.475 4.00197 1.19298 0
M  V30 3967 N 410.912 0.523116 1.48665 0
M  V30 3968 C 412.152 -0.0115588 2.04397 0
M  V30 3969 C 412.516 -1.32225 1.39214 0
M  V30 3970 O 413.717 -1.94253 1.85793 0
M  V30 3971 C 411.988 -0.138119 3.57133 0
M  V30 3972 S 413.547 -0.623849 4.34343 0
M  V30 3973 H 410.365 0.00877706 0.710946 0
M  V30 3974 H 412.967 0.702116 1.82457 0
M  V30 3975 H 411.671 0.820748 4.02109 0
M  V30 3976 H 411.202 -0.876377 3.83514 0
M  V30 3977 H 413.217 -1.8895 4.58816 0
M  V30 3978 N 412.39 -1.55475 0.257931 0
M  V30 3979 C 413.353 -2.20551 -0.623706 0
M  V30 3980 C 414.353 -1.17809 -1.09443 0
M  V30 3981 O 415.543 -1.42823 -0.997362 0
M  V30 3982 C 412.675 -2.85784 -1.8585 0
M  V30 3983 H 413.868 -2.99848 -0.0557743 0
M  V30 3984 H 411.421 -1.56298 0.0084422 0
M  V30 3985 H 412.156 -2.10453 -2.46739 0
M  V30 3986 H 411.941 -3.61057 -1.52907 0
M  V30 3987 H 413.431 -3.35553 -2.48584 0
M  V30 3988 N 413.868 0.0150385 -1.57593 0
M  V30 3989 C 415.114 0.704043 -1.90187 0
M  V30 3990 C 415.447 1.74249 -0.857366 0
M  V30 3991 O 414.722 1.94092 0.125843 0
M  V30 3992 C 415.005 1.36087 -3.33395 0
M  V30 3993 C 414.858 0.334981 -4.48551 0
M  V30 3994 C 416.177 2.29112 -3.7576 0
M  V30 3995 H 413.296 0.254475 -0.691673 0
M  V30 3996 H 415.938 -0.0331678 -1.89971 0
M  V30 3997 H 414.088 1.98922 -3.3371 0
M  V30 3998 H 415.76 -0.292534 -4.60372 0
M  V30 3999 H 414.003 -0.344325 -4.32431 0
M  V30 4000 H 414.674 0.833316 -5.45674 0
M  V30 4001 H 417.15 1.76308 -3.76902 0
M  V30 4002 H 416.026 2.72043 -4.76743 0
M  V30 4003 H 416.287 3.16385 -3.08793 0
M  V30 4004 N 415.346 1.54954 0.287554 0
M  V30 4005 C 416.571 1.79209 1.04397 0
M  V30 4006 C 416.996 0.556431 1.79682 0
M  V30 4007 O 416.354 -0.493518 1.74454 0
M  V30 4008 C 416.402 3.00739 1.98969 0
M  V30 4009 O 415.506 2.74805 3.075 0
M  V30 4010 H 414.847 0.592755 0.299227 0
M  V30 4011 H 417.377 2.02068 0.320886 0
M  V30 4012 H 417.387 3.29077 2.4119 0
M  V30 4013 H 416.062 3.90329 1.43582 0
M  V30 4014 H 414.639 2.57523 2.69697 0
M  V30 4015 N 416.824 -0.551391 1.4764 0
M  V30 4016 C 418.054 -1.33163 1.57959 0
M  V30 4017 C 418.462 -1.87785 0.23094 0
M  V30 4018 O 417.805 -1.65996 -0.786825 0
M  V30 4019 C 417.867 -2.53449 2.54958 0
M  V30 4020 C 417.531 -2.20071 4.00522 0
M  V30 4021 C 418.528 -1.77017 4.88836 0
M  V30 4022 C 416.213 -2.31252 4.45901 0
M  V30 4023 C 418.207 -1.4558 6.20552 0
M  V30 4024 C 415.894 -1.99427 5.77644 0
M  V30 4025 C 416.892 -1.56659 6.64791 0
M  V30 4026 O 416.58 -1.25242 7.94084 0
M  V30 4027 H 416.312 -0.412022 0.535923 0
M  V30 4028 H 418.866 -0.674186 1.9402 0
M  V30 4029 H 417.096 -3.22104 2.13976 0
M  V30 4030 H 418.785 -3.15523 2.55343 0
M  V30 4031 H 419.551 -1.67867 4.55023 0
M  V30 4032 H 415.43 -2.63498 3.78272 0
M  V30 4033 H 418.974 -1.12125 6.8853 0
M  V30 4034 H 414.871 -2.08211 6.10998 0
M  V30 4035 H 415.639 -1.38822 8.06642 0
M  V30 4036 N 418.302 -1.35869 -0.798587 0
M  V30 4037 C 419.55 -1.29332 -1.55298 0
M  V30 4038 C 419.871 0.129729 -1.94568 0
M  V30 4039 O 419.141 1.06796 -1.6423 0
M  V30 4040 H 417.721 -0.475737 -0.57592 0
M  V30 4041 H 420.383 -1.70062 -0.952093 0
M  V30 4042 H 419.479 -1.91458 -2.46476 0
M  V30 4043 N 419.78 1.02168 -1.19998 0
M  V30 4044 C 421.008 1.79296 -1.03249 0
M  V30 4045 C 421.423 1.84103 0.418502 0
M  V30 4046 O 420.78 1.29031 1.29063 0
M  V30 4047 C 420.831 3.24007 -1.60319 0
M  V30 4048 O 420.552 3.19512 -2.99739 0
M  V30 4049 C 422.053 4.17704 -1.48453 0
M  V30 4050 H 419.273 0.564016 -0.363493 0
M  V30 4051 H 421.817 1.28639 -1.58973 0
M  V30 4052 H 419.972 3.7183 -1.08727 0
M  V30 4053 H 420.386 4.10306 -3.26725 0
M  V30 4054 H 421.86 5.17104 -1.93153 0
M  V30 4055 H 422.337 4.37029 -0.436193 0
M  V30 4056 H 422.943 3.7576 -1.99211 0
M  V30 4057 N 421.258 1.00505 1.21394 0
M  V30 4058 C 422.206 0.558623 2.25792 0
M  V30 4059 C 423.2 -0.396848 1.64686 0
M  V30 4060 O 424.406 -0.268035 1.77993 0
M  V30 4061 H 420.781 0.1623 0.734277 0
M  V30 4062 H 422.752 1.4503 2.60785 0
M  V30 4063 C 421.501 -0.0989574 3.47559 0
M  V30 4064 H 420.824 0.627225 3.94849 0
M  V30 4065 H 422.264 -0.3746 4.22342 0
M  V30 4066 C 420.723 -1.33817 3.09184 0
M  V30 4067 O 421.253 -2.43252 3.19674 0
M  V30 4068 N 419.459 -1.21793 2.63846 0
M  V30 4069 H 419.006 -0.32746 2.5551 0
M  V30 4070 H 418.964 -2.04809 2.38539 0
M  V30 4071 N 422.737 -1.36956 0.779787 0
M  V30 4072 C 423.983 -1.99787 0.348281 0
M  V30 4073 C 424.316 -1.61756 -1.07465 0
M  V30 4074 O 423.591 -0.867639 -1.74075 0
M  V30 4075 C 423.874 -3.56597 0.50104 0
M  V30 4076 C 423.727 -4.04513 1.96697 0
M  V30 4077 C 425.046 -4.40008 -0.0898097 0
M  V30 4078 H 422.165 -0.725796 0.128022 0
M  V30 4079 H 424.807 -1.62514 0.984331 0
M  V30 4080 H 422.957 -3.88479 -0.0404347 0
M  V30 4081 H 424.629 -3.83161 2.56876 0
M  V30 4082 H 422.872 -3.56408 2.47297 0
M  V30 4083 H 423.543 -5.1352 2.02486 0
M  V30 4084 H 426.019 -4.14431 0.372293 0
M  V30 4085 H 424.895 -5.4888 0.0471605 0
M  V30 4086 H 425.156 -4.26035 -1.18096 0
M  V30 4087 N 424.215 -0.530993 -1.48385 0
M  V30 4088 C 425.461 -0.00538653 -2.03399 0
M  V30 4089 C 425.816 1.31899 -1.40073 0
M  V30 4090 O 425.109 1.83901 -0.537676 0
M  V30 4091 C 425.303 0.172742 -3.56982 0
M  V30 4092 C 425.132 -1.13282 -4.35198 0
M  V30 4093 C 423.902 -1.69296 -4.76096 0
M  V30 4094 C 426.1 -2.04367 -4.71952 0
M  V30 4095 N 424.082 -2.9413 -5.38851 0
M  V30 4096 C 425.453 -3.13777 -5.34737 0
M  V30 4097 C 427.508 -2.04681 -4.53883 0
M  V30 4098 C 426.211 -4.23567 -5.81363 0
M  V30 4099 C 428.237 -3.13466 -5.01491 0
M  V30 4100 C 427.599 -4.21595 -5.64302 0
M  V30 4101 H 423.698 -0.0434945 -0.780789 0
M  V30 4102 H 426.282 -0.712495 -1.81195 0
M  V30 4103 H 424.453 0.848937 -3.79009 0
M  V30 4104 H 426.185 0.698046 -3.98634 0
M  V30 4105 H 422.94 -1.23422 -4.57235 0
M  V30 4106 H 423.364 -3.57689 -5.74794 0
M  V30 4107 H 428.006 -1.22378 -4.04702 0
M  V30 4108 H 425.724 -5.06648 -6.2955 0
M  V30 4109 H 429.31 -3.14765 -4.893 0
M  V30 4110 H 428.19 -5.04384 -6.00472 0
M  V30 4111 N 425.693 1.55336 -0.266172 0
M  V30 4112 C 426.625 2.19544 0.658247 0
M  V30 4113 C 427.638 1.17746 1.12427 0
M  V30 4114 O 428.827 1.44517 1.04772 0
M  V30 4115 C 425.927 2.80032 1.9088 0
M  V30 4116 C 425.1 4.07436 1.59106 0
M  V30 4117 C 424.159 4.52056 2.69317 0
M  V30 4118 O 423.185 5.18023 2.35883 0
M  V30 4119 N 424.387 4.21448 3.99201 0
M  V30 4120 H 427.152 2.99503 0.108754 0
M  V30 4121 H 424.713 1.61667 -0.0869059 0
M  V30 4122 H 426.705 3.06831 2.63888 0
M  V30 4123 H 425.275 2.04119 2.36758 0
M  V30 4124 H 424.495 3.88021 0.695243 0
M  V30 4125 H 425.783 4.90462 1.35367 0
M  V30 4126 H 425.181 3.68528 4.29189 0
M  V30 4127 H 423.738 4.53039 4.68614 0
M  V30 4128 N 427.171 -0.0066808 1.57599 0
M  V30 4129 C 428.448 -0.729586 1.81484 0
M  V30 4130 C 428.828 -1.92359 0.869558 0
M  V30 4131 O 428.176 -2.28348 -0.0832533 0
M  V30 4132 C 428.386 -1.1416 3.29801 0
M  V30 4133 C 429.734 -1.54823 3.95367 0
M  V30 4134 O 430.758 -1.23558 3.34084 0
M  V30 4135 O 429.617 -2.12937 5.03309 0
M  V30 4136 H 426.711 -0.354674 0.747085 0
M  V30 4137 H 429.257 0.0182609 1.6969 0
M  V30 4138 H 428.029 -0.290231 3.90222 0
M  V30 4139 H 427.652 -1.94876 3.46568 0
M  V30 4140 N 428.649 -1.55105 -0.279332 0
M  V30 4141 C 429.897 -1.75066 -1.00977 0
M  V30 4142 C 430.218 -0.551276 -1.87045 0
M  V30 4143 O 429.488 0.433984 -1.91032 0
M  V30 4144 H 428.068 -0.645578 -0.375816 0
M  V30 4145 H 430.73 -1.92497 -0.305089 0
M  V30 4146 H 429.826 -2.64894 -1.65038 0
M  V30 4147 N 430.127 0.543554 -1.4793 0
M  V30 4148 C 431.374 1.30008 -1.55255 0
M  V30 4149 C 431.702 1.93245 -0.220612 0
M  V30 4150 O 430.957 1.79141 0.787843 0
M  V30 4151 C 431.256 2.42078 -2.62932 0
M  V30 4152 C 430.922 1.96583 -4.0579 0
M  V30 4153 C 429.584 1.83893 -4.44676 0
M  V30 4154 C 431.936 1.62034 -4.95373 0
M  V30 4155 C 429.264 1.34969 -5.70964 0
M  V30 4156 C 431.616 1.14577 -6.22137 0
M  V30 4157 C 430.28 1.00493 -6.59892 0
M  V30 4158 H 429.55 0.475735 -0.568117 0
M  V30 4159 H 432.197 0.608075 -1.81589 0
M  V30 4160 H 430.502 3.16892 -2.30406 0
M  V30 4161 H 432.199 3.00236 -2.65818 0
M  V30 4162 H 428.789 2.07407 -3.75074 0
M  V30 4163 H 432.973 1.70705 -4.66019 0
M  V30 4164 H 428.229 1.2274 -5.98953 0
M  V30 4165 H 432.403 0.869109 -6.90955 0
M  V30 4166 H 430.03 0.623624 -7.57638 0
M  V30 4167 N 431.605 1.3629 0.791371 0
M  V30 4168 C 432.833 1.33562 1.58016 0
M  V30 4169 C 433.248 -0.0835616 1.88615 0
M  V30 4170 O 432.605 -1.0399 1.49974 0
M  V30 4171 C 432.656 2.15517 2.90232 0
M  V30 4172 O 432.377 3.51902 2.60953 0
M  V30 4173 C 433.878 2.20546 3.84544 0
M  V30 4174 H 431.098 0.458226 0.490173 0
M  V30 4175 H 433.642 1.79361 0.982345 0
M  V30 4176 H 431.797 1.73278 3.46487 0
M  V30 4177 H 432.211 3.94644 3.4548 0
M  V30 4178 H 433.685 2.82252 4.74382 0
M  V30 4179 H 434.162 1.20838 4.2225 0
M  V30 4180 H 434.768 2.63013 3.34222 0
M  V30 4181 N 433.083 -1.0153 1.20538 0
M  V30 4182 C 434.046 -2.0826 0.957098 0
M  V30 4183 C 435.046 -1.60657 -0.0678655 0
M  V30 4184 O 436.236 -1.73385 0.168332 0
M  V30 4185 C 433.368 -3.38033 0.441188 0
M  V30 4186 H 434.561 -2.31719 1.90384 0
M  V30 4187 H 432.114 -1.1835 1.02093 0
M  V30 4188 H 432.849 -3.20249 -0.510961 0
M  V30 4189 H 432.634 -3.73911 1.18038 0
M  V30 4190 H 434.124 -4.16613 0.287009 0
M  V30 4191 N 434.561 -1.01147 -1.20859 0
M  V30 4192 C 435.838 -0.613136 -1.85742 0
M  V30 4193 C 436.218 0.909004 -1.90526 0
M  V30 4194 O 435.566 1.79862 -1.40932 0
M  V30 4195 C 435.776 -1.255 -3.25654 0
M  V30 4196 C 437.124 -1.3672 -4.01986 0
M  V30 4197 O 438.148 -1.21082 -3.34989 0
M  V30 4198 O 437.007 -1.6194 -5.21956 0
M  V30 4199 H 434.101 -0.210878 -0.799662 0
M  V30 4200 H 436.647 -1.10853 -1.2849 0
M  V30 4201 H 435.419 -2.29532 -3.16908 0
M  V30 4202 H 435.042 -0.746369 -3.90532 0
M  V30 4203 N 436.039 1.36541 -0.78704 0
M  V30 4204 C 437.285 1.99599 -0.358872 0
M  V30 4205 C 437.618 1.62323 1.06606 0
M  V30 4206 O 436.893 0.876858 1.73613 0
M  V30 4207 C 437.176 3.56327 -0.519944 0
M  V30 4208 C 437.029 4.03464 -1.98839 0
M  V30 4209 C 438.348 4.4005 0.0664737 0
M  V30 4210 H 435.467 0.725107 -0.131869 0
M  V30 4211 H 438.109 1.6199 -0.992936 0
M  V30 4212 H 436.259 3.88495 0.0198321 0
M  V30 4213 H 437.931 3.81793 -2.58905 0
M  V30 4214 H 436.174 3.55092 -2.49183 0
M  V30 4215 H 436.845 5.12439 -2.05207 0
M  V30 4216 H 439.321 4.14228 -0.394267 0
M  V30 4217 H 438.197 5.48847 -0.0762682 0
M  V30 4218 H 438.458 4.26655 1.15835 0
M  V30 4219 N 437.518 0.538854 1.48102 0
M  V30 4220 C 438.746 0.0123136 2.06896 0
M  V30 4221 C 439.161 -1.27312 1.39417 0
M  V30 4222 O 438.518 -1.75949 0.484582 0
M  V30 4223 C 438.569 -0.206118 3.60912 0
M  V30 4224 O 438.29 1.0284 4.25859 0
M  V30 4225 C 439.791 -0.772033 4.36526 0
M  V30 4226 H 437.011 0.0375239 0.66995 0
M  V30 4227 H 439.555 0.747032 1.90367 0
M  V30 4228 H 437.71 -0.89091 3.77017 0
M  V30 4229 H 438.124 0.814654 5.18135 0
M  V30 4230 H 439.598 -0.874251 5.45033 0
M  V30 4231 H 440.075 -1.77904 4.01555 0
M  V30 4232 H 440.681 -0.123526 4.25121 0
M  V30 4233 N 438.996 -1.55193 0.274407 0
M  V30 4234 C 440.242 -1.99877 -0.343086 0
M  V30 4235 C 440.575 -1.16256 -1.55558 0
M  V30 4236 O 439.85 -0.232462 -1.93106 0
M  V30 4237 C 440.133 -3.52706 -0.725965 0
M  V30 4238 C 439.986 -4.47081 0.493818 0
M  V30 4239 C 441.305 -4.11422 -1.56268 0
M  V30 4240 H 438.424 -0.726625 -0.123229 0
M  V30 4241 H 441.066 -1.86136 0.38121 0
M  V30 4242 H 439.216 -3.64546 -1.34307 0
M  V30 4243 H 440.888 -4.47186 1.13237 0
M  V30 4244 H 439.131 -4.1877 1.13201 0
M  V30 4245 H 439.802 -5.51699 0.18217 0
M  V30 4246 H 442.278 -4.02855 -1.04151 0
M  V30 4247 H 441.154 -5.18568 -1.79939 0
M  V30 4248 H 441.415 -3.61607 -2.54348 0
M  V30 4249 N 440.474 -0.00167713 -1.576 0
M  V30 4250 C 441.702 0.693759 -1.94922 0
M  V30 4251 C 442.117 1.67215 -0.876626 0
M  V30 4252 O 441.474 1.81929 0.144279 0
M  V30 4253 C 441.525 1.42416 -3.32265 0
M  V30 4254 O 441.246 0.485014 -4.35407 0
M  V30 4255 C 442.747 2.21395 -3.84056 0
M  V30 4256 H 439.967 0.193118 -0.642609 0
M  V30 4257 H 442.511 -0.0532952 -2.04431 0
M  V30 4258 H 440.666 2.12284 -3.24059 0
M  V30 4259 H 441.08 1.00053 -5.14868 0
M  V30 4260 H 442.554 2.67996 -4.82578 0
M  V30 4261 H 443.031 3.04142 -3.16851 0
M  V30 4262 H 443.637 1.56542 -3.95443 0
M  V30 4263 N 441.952 1.55251 0.271103 0
M  V30 4264 C 442.9 1.89054 1.35504 0
M  V30 4265 C 443.894 0.767064 1.51038 0
M  V30 4266 O 445.1 0.951429 1.528 0
M  V30 4267 H 441.475 0.600072 0.45323 0
M  V30 4268 H 443.446 2.79598 1.04247 0
M  V30 4269 C 442.195 2.18068 2.70817 0
M  V30 4270 H 441.518 3.04005 2.59656 0
M  V30 4271 H 442.958 2.4564 3.45597 0
M  V30 4272 C 441.417 0.988901 3.2206 0
M  V30 4273 O 441.947 0.224501 4.01072 0
M  V30 4274 N 440.153 0.786085 2.79766 0
M  V30 4275 H 439.7 1.40937 2.15626 0
M  V30 4276 H 439.658 -0.00969349 3.14399 0
M  V30 4277 N 443.43 -0.535701 1.48216 0
M  V30 4278 C 444.658 -1.31671 1.59594 0
M  V30 4279 C 445.073 -1.87083 0.254056 0
M  V30 4280 O 444.43 -1.66112 -0.755854 0
M  V30 4281 C 444.481 -2.47158 2.63809 0
M  V30 4282 O 444.202 -1.94032 3.92789 0
M  V30 4283 C 445.703 -3.39062 2.85573 0
M  V30 4284 H 442.923 -0.400623 0.538277 0
M  V30 4285 H 445.467 -0.646827 1.94001 0
M  V30 4286 H 443.622 -3.10043 2.32276 0
M  V30 4287 H 444.036 -2.69585 4.49916 0
M  V30 4288 H 445.51 -4.16459 3.62306 0
M  V30 4289 H 445.987 -3.93941 1.94184 0
M  V30 4290 H 446.593 -2.81975 3.18387 0
M  V30 4291 N 444.908 -1.36708 -0.784132 0
M  V30 4292 C 446.156 -1.30972 -1.53918 0
M  V30 4293 C 446.477 0.109086 -1.94695 0
M  V30 4294 O 445.747 1.05048 -1.65353 0
M  V30 4295 H 444.327 -0.481819 -0.570841 0
M  V30 4296 H 446.989 -1.71063 -0.934002 0
M  V30 4297 H 446.085 -1.94061 -2.44431 0
M  V30 4298 N 446.386 1.0089 -1.21074 0
M  V30 4299 C 447.614 1.78191 -1.05145 0
M  V30 4300 C 448.029 1.84537 0.398952 0
M  V30 4301 O 447.386 1.30393 1.27687 0
M  V30 4302 C 447.437 3.22288 -1.63746 0
M  V30 4303 O 447.158 3.16315 -3.03111 0
M  V30 4304 C 448.659 4.16106 -1.52875 0
M  V30 4305 H 445.879 0.560129 -0.369454 0
M  V30 4306 H 448.423 1.26945 -1.60328 0
M  V30 4307 H 446.578 3.70655 -1.12664 0
M  V30 4308 H 446.992 4.06817 -3.31059 0
M  V30 4309 H 448.466 5.15026 -1.98626 0
M  V30 4310 H 448.943 4.36541 -0.482521 0
M  V30 4311 H 449.549 3.73625 -2.03185 0
M  V30 4312 N 447.864 1.01787 1.20321 0
M  V30 4313 C 448.827 0.593972 2.2137 0
M  V30 4314 C 449.827 -0.336553 1.57239 0
M  V30 4315 O 451.017 -0.125069 1.7375 0
M  V30 4316 C 448.149 -0.132433 3.40643 0
M  V30 4317 H 449.342 1.48791 2.60387 0
M  V30 4318 H 446.895 0.807803 1.33807 0
M  V30 4319 H 447.63 -1.04123 3.0713 0
M  V30 4320 H 447.415 0.53605 3.88418 0
M  V30 4321 H 448.905 -0.416314 4.1552 0
M  V30 4322 N 449.342 -1.36122 0.79427 0
M  V30 4323 C 450.753 -1.81646 0.431446 0
M  V30 4324 C 451.104 -1.66043 -1.04518 0
M  V30 4325 O 450.229 -1.1841 -1.8113 0
M  V30 4326 C 450.824 -3.29785 0.776341 0
M  V30 4327 C 449.383 -3.73501 0.466282 0
M  V30 4328 C 448.53 -2.58313 1.00844 0
M  V30 4329 H 451.481 -1.24274 0.986995 0
M  V30 4330 H 451.502 -3.80437 0.0692413 0
M  V30 4331 H 451.014 -3.4111 1.8511 0
M  V30 4332 H 449.115 -3.67733 -0.600245 0
M  V30 4333 H 449.228 -4.68754 0.990288 0
M  V30 4334 H 447.592 -2.5102 0.431406 0
M  V30 4335 H 448.375 -2.72421 2.08906 0
M  V30 4336 N 450.82 -0.546701 -1.47814 0
M  V30 4337 C 452.066 -0.0187684 -2.02791 0
M  V30 4338 C 452.399 1.32338 -1.42128 0
M  V30 4339 O 451.674 1.85867 -0.573023 0
M  V30 4340 C 451.957 0.0854985 -3.59998 0
M  V30 4341 C 451.81 -1.283 -4.31114 0
M  V30 4342 C 453.129 0.80412 -4.32691 0
M  V30 4343 H 450.248 -0.0082946 -0.736953 0
M  V30 4344 H 452.89 -0.706962 -1.76358 0
M  V30 4345 H 451.04 0.671609 -3.82651 0
M  V30 4346 H 452.712 -1.91151 -4.19832 0
M  V30 4347 H 450.955 -1.86049 -3.91878 0
M  V30 4348 H 451.626 -1.16287 -5.39612 0
M  V30 4349 H 454.102 0.306576 -4.14969 0
M  V30 4350 H 452.978 0.846011 -5.42341 0
M  V30 4351 H 453.239 1.85802 -4.01161 0
M  V30 4352 N 452.299 1.55045 -0.282633 0
M  V30 4353 C 453.576 1.9179 0.384166 0
M  V30 4354 C 453.956 1.20778 1.73136 0
M  V30 4355 O 453.304 0.33719 2.25998 0
M  V30 4356 C 453.514 3.45149 0.517014 0
M  V30 4357 C 454.862 4.17064 0.796427 0
M  V30 4358 O 455.886 3.51084 0.601535 0
M  V30 4359 O 454.745 5.33837 1.16962 0
M  V30 4360 H 451.839 0.799483 0.211558 0
M  V30 4361 H 454.385 1.66474 -0.32934 0
M  V30 4362 H 453.157 3.88922 -0.430772 0
M  V30 4363 H 452.78 3.76443 1.2797 0
M  V30 4364 N 453.777 0.010035 1.57597 0
M  V30 4365 C 455.025 -0.671371 1.90623 0
M  V30 4366 C 455.346 -1.73753 0.885151 0
M  V30 4367 O 454.616 -1.95752 -0.0760611 0
M  V30 4368 H 453.196 -0.250968 0.703579 0
M  V30 4369 H 455.858 0.0533325 1.94827 0
M  V30 4370 H 454.954 -1.13626 2.90681 0
M  V30 4371 N 455.255 -1.55392 -0.262866 0
M  V30 4372 C 456.501 -1.77657 -0.990424 0
M  V30 4373 C 456.856 -0.576333 -1.83565 0
M  V30 4374 O 456.149 0.430795 -1.86694 0
M  V30 4375 C 456.343 -3.02889 -1.89718 0
M  V30 4376 C 456.172 -4.34979 -1.14121 0
M  V30 4377 C 454.942 -4.98052 -0.852768 0
M  V30 4378 C 457.14 -5.11597 -0.526625 0
M  V30 4379 N 455.122 -6.13859 -0.0710649 0
M  V30 4380 C 456.493 -6.19883 0.12042 0
M  V30 4381 C 458.548 -4.95992 -0.435485 0
M  V30 4382 C 457.251 -7.14262 0.849833 0
M  V30 4383 C 459.277 -5.90735 0.280359 0
M  V30 4384 C 458.639 -6.98417 0.916103 0
M  V30 4385 H 454.738 -0.702242 -0.344064 0
M  V30 4386 H 457.322 -1.92887 -0.265088 0
M  V30 4387 H 455.493 -2.89017 -2.59468 0
M  V30 4388 H 457.225 -3.13516 -2.5591 0
M  V30 4389 H 453.98 -4.5916 -1.16058 0
M  V30 4390 H 454.404 -6.76302 0.307413 0
M  V30 4391 H 459.046 -4.12832 -0.912671 0
M  V30 4392 H 456.764 -7.96935 1.33867 0
M  V30 4393 H 460.35 -5.80738 0.351332 0
M  V30 4394 H 459.23 -7.70467 1.46119 0
M  V30 4395 N 456.733 0.527833 -1.48498 0
M  V30 4396 C 457.665 1.6482 -1.5927 0
M  V30 4397 C 458.678 1.55659 -0.476869 0
M  V30 4398 O 459.867 1.62081 -0.747806 0
M  V30 4399 C 456.967 3.0348 -1.50842 0
M  V30 4400 C 456.14 3.381 -2.77502 0
M  V30 4401 C 455.199 4.5605 -2.62497 0
M  V30 4402 O 454.225 4.59165 -3.36387 0
M  V30 4403 N 455.427 5.54353 -1.72257 0
M  V30 4404 H 458.192 1.56015 -2.55889 0
M  V30 4405 H 455.753 0.715152 -1.45249 0
M  V30 4406 H 457.745 3.80264 -1.38496 0
M  V30 4407 H 456.315 3.06352 -0.621887 0
M  V30 4408 H 455.535 2.50473 -3.04396 0
M  V30 4409 H 456.823 3.58017 -3.61527 0
M  V30 4410 H 456.221 5.54617 -1.11431 0
M  V30 4411 H 454.778 6.30347 -1.65849 0
M  V30 4412 N 458.211 1.37122 0.776871 0
M  V30 4413 C 459.141 1.35164 1.90402 0
M  V30 4414 C 460.122 0.221069 1.68657 0
M  V30 4415 O 461.307 0.420642 1.8959 0
M  V30 4416 C 458.437 1.15274 3.27611 0
M  V30 4417 C 457.391 2.25289 3.63908 0
M  V30 4418 C 456.717 1.90527 4.99603 0
M  V30 4419 C 458.017 3.67446 3.71188 0
M  V30 4420 H 459.711 2.29482 1.92297 0
M  V30 4421 H 457.257 1.10465 0.923773 0
M  V30 4422 H 459.21 1.12536 4.06096 0
M  V30 4423 H 457.934 0.174102 3.26136 0
M  V30 4424 H 456.593 2.27174 2.87728 0
M  V30 4425 H 456.241 0.91206 4.94662 0
M  V30 4426 H 455.941 2.64193 5.24858 0
M  V30 4427 H 457.465 1.89367 5.80493 0
M  V30 4428 H 458.879 3.67719 4.39836 0
M  V30 4429 H 457.276 4.40123 4.07936 0
M  V30 4430 H 458.346 4.01443 2.71977 0
M  V30 4431 N 459.689 -1.00246 1.21608 0
M  V30 4432 C 460.652 -2.07233 0.979133 0
M  V30 4433 C 461.652 -1.6072 -0.0508219 0
M  V30 4434 O 462.842 -1.73196 0.186712 0
M  V30 4435 C 459.974 -3.37546 0.477016 0
M  V30 4436 H 461.167 -2.29687 1.92831 0
M  V30 4437 H 458.72 -1.17261 1.03342 0
M  V30 4438 H 459.455 -3.20773 -0.476966 0
M  V30 4439 H 459.24 -3.72638 1.21997 0
M  V30 4440 H 460.73 -4.16285 0.331181 0
M  V30 4441 N 461.167 -1.02423 -1.1978 0
M  V30 4442 C 462.414 -0.717988 -1.89344 0
M  V30 4443 C 462.742 0.753036 -1.79331 0
M  V30 4444 O 461.997 1.56355 -1.17692 0
M  V30 4445 C 462.296 -1.1088 -3.39765 0
M  V30 4446 C 461.962 -2.57731 -3.6998 0
M  V30 4447 C 460.624 -2.97854 -3.77937 0
M  V30 4448 C 462.976 -3.52763 -3.83677 0
M  V30 4449 C 460.304 -4.31931 -3.97054 0
M  V30 4450 C 462.656 -4.86538 -4.04306 0
M  V30 4451 C 461.32 -5.26356 -4.10494 0
M  V30 4452 H 460.59 -0.26273 -0.692859 0
M  V30 4453 H 463.237 -1.28623 -1.41875 0
M  V30 4454 H 461.542 -0.459094 -3.89101 0
M  V30 4455 H 463.239 -0.849432 -3.919 0
M  V30 4456 H 459.829 -2.25646 -3.64393 0
M  V30 4457 H 464.013 -3.2292 -3.76877 0
M  V30 4458 H 459.269 -4.62324 -4.00083 0
M  V30 4459 H 463.443 -5.60093 -4.13846 0
M  V30 4460 H 461.07 -6.3026 -4.2506 0
M  V30 4461 N 462.645 1.35699 -0.801477 0
M  V30 4462 C 463.873 2.03157 -0.391768 0
M  V30 4463 C 464.288 1.60412 0.995668 0
M  V30 4464 O 463.645 0.799228 1.64069 0
M  V30 4465 C 463.696 3.58566 -0.459671 0
M  V30 4466 O 463.417 3.99756 -1.7924 0
M  V30 4467 C 464.918 4.4328 -0.0421205 0
M  V30 4468 H 462.138 0.651688 -0.159825 0
M  V30 4469 H 464.682 1.73426 -1.08368 0
M  V30 4470 H 462.837 3.86963 0.183939 0
M  V30 4471 H 463.251 4.94387 -1.75162 0
M  V30 4472 H 464.725 5.51821 -0.140754 0
M  V30 4473 H 465.202 4.27383 1.01196 0
M  V30 4474 H 465.808 4.20168 -0.658687 0
M  V30 4475 N 464.123 0.554532 1.47522 0
M  V30 4476 C 465.053 -0.182974 2.32782 0
M  V30 4477 C 466.034 -0.911377 1.43624 0
M  V30 4478 O 467.219 -0.892366 1.72483 0
M  V30 4479 C 464.349 -1.21513 3.25349 0
M  V30 4480 C 463.303 -0.603355 4.23726 0
M  V30 4481 C 462.629 -1.73995 5.05598 0
M  V30 4482 C 463.929 0.441121 5.20434 0
M  V30 4483 H 465.623 0.52882 2.94693 0
M  V30 4484 H 463.169 0.255759 1.41711 0
M  V30 4485 H 465.122 -1.73922 3.83835 0
M  V30 4486 H 463.846 -1.95683 2.61487 0
M  V30 4487 H 462.505 -0.10059 3.66462 0
M  V30 4488 H 462.153 -2.47063 4.38143 0
M  V30 4489 H 461.853 -1.3364 5.72201 0
M  V30 4490 H 463.377 -2.26735 5.66942 0
M  V30 4491 H 464.791 0.00319931 5.733 0
M  V30 4492 H 463.188 0.763402 5.95224 0
M  V30 4493 H 464.258 1.33799 4.66075 0
M  V30 4494 N 465.601 -1.54893 0.290851 0
M  V30 4495 C 467.012 -1.85584 -0.203816 0
M  V30 4496 C 467.363 -1.21285 -1.54222 0
M  V30 4497 O 466.488 -0.506841 -2.10381 0
M  V30 4498 C 467.083 -3.367 -0.376595 0
M  V30 4499 C 465.642 -3.6746 -0.815485 0
M  V30 4500 C 464.789 -2.77178 0.0821087 0
M  V30 4501 H 467.74 -1.50208 0.512175 0
M  V30 4502 H 467.761 -3.60656 -1.21275 0
M  V30 4503 H 467.273 -3.8347 0.59767 0
M  V30 4504 H 465.374 -3.26201 -1.80066 0
M  V30 4505 H 465.487 -4.7478 -0.641905 0
M  V30 4506 H 463.851 -2.50925 -0.436895 0
M  V30 4507 H 464.634 -3.26767 1.05254 0
M  V30 4508 N 467.08 -0.0183926 -1.57589 0
M  V30 4509 C 468.305 0.676634 -1.96052 0
M  V30 4510 C 468.73 1.6548 -0.894307 0
M  V30 4511 O 468.088 1.80712 0.145849 0
M  V30 4512 C 468.136 1.36872 -3.33614 0
M  V30 4513 O 467.24 2.48372 -3.29219 0
M  V30 4514 H 466.581 0.1786 -0.63953 0
M  V30 4515 H 469.111 -0.077056 -2.04455 0
M  V30 4516 H 469.121 1.72797 -3.69601 0
M  V30 4517 H 467.796 0.651636 -4.10763 0
M  V30 4518 H 466.373 2.14639 -3.04934 0
M  V30 4519 N 468.558 1.5553 0.254621 0
M  V30 4520 C 469.806 1.7665 0.981793 0
M  V30 4521 C 470.127 0.580963 1.86145 0
M  V30 4522 O 469.397 -0.403537 1.91699 0
M  V30 4523 H 467.977 0.651475 0.365498 0
M  V30 4524 H 470.639 1.92958 0.274426 0
M  V30 4525 H 469.735 2.67486 1.60802 0
M  V30 4526 N 470.036 -0.519951 1.48776 0
M  V30 4527 C 470.968 -1.63973 1.60142 0
M  V30 4528 C 471.981 -1.55404 0.485117 0
M  V30 4529 O 473.17 -1.61682 0.756391 0
M  V30 4530 C 470.27 -3.02676 1.52449 0
M  V30 4531 C 469.443 -3.36624 2.79291 0
M  V30 4532 C 468.502 -4.54652 2.64912 0
M  V30 4533 O 467.528 -4.57374 3.38818 0
M  V30 4534 N 468.73 -5.53432 1.75195 0
M  V30 4535 H 471.495 -1.54656 2.56713 0
M  V30 4536 H 469.056 -0.707439 1.45626 0
M  V30 4537 H 471.048 -3.79525 1.4051 0
M  V30 4538 H 469.618 -3.06018 0.638125 0
M  V30 4539 H 468.838 -2.48855 3.0572 0
M  V30 4540 H 470.126 -3.56094 3.6342 0
M  V30 4541 H 469.524 -5.54018 1.14371 0
M  V30 4542 H 468.081 -6.29459 1.69189 0
M  V30 4543 N 471.514 -1.37532 -0.769588 0
M  V30 4544 C 472.93 -1.18379 -1.07045 0
M  V30 4545 C 473.13 -0.0214312 -2.01489 0
M  V30 4546 O 472.186 0.637809 -2.44312 0
M  V30 4547 C 473.499 -2.50338 -1.66588 0
M  V30 4548 C 475.047 -2.56879 -1.78835 0
M  V30 4549 C 475.522 -3.88974 -2.41792 0
M  V30 4550 N 477.013 -3.90428 -2.4924 0
M  V30 4551 C 477.748 -4.89388 -2.98809 0
M  V30 4552 N 477.244 -5.98745 -3.48535 0
M  V30 4553 N 479.037 -4.76791 -2.97703 0
M  V30 4554 H 471.188 -2.11921 -0.142541 0
M  V30 4555 H 473.451 -0.939608 -0.125863 0
M  V30 4556 H 473.157 -3.35767 -1.0466 0
M  V30 4557 H 473.031 -2.67583 -2.65856 0
M  V30 4558 H 475.418 -1.71856 -2.39895 0
M  V30 4559 H 475.499 -2.43516 -0.783166 0
M  V30 4560 H 475.143 -4.74412 -1.81371 0
M  V30 4561 H 475.073 -3.99641 -3.4292 0
M  V30 4562 H 477.564 -3.11433 -2.14052 0
M  V30 4563 H 477.877 -6.70205 -3.84767 0
M  V30 4564 H 476.222 -6.02387 -3.46634 0
M  V30 4565 H 479.413 -3.90478 -2.58157 0
M  V30 4566 H 479.586 -5.54069 -3.36024 0
M  V30 4567 N 472.992 0.995999 -1.22138 0
M  V30 4568 C 474.241 1.72928 -1.03821 0
M  V30 4569 C 474.554 1.90872 0.427444 0
M  V30 4570 O 475.76 2.61496 0.730212 0
M  V30 4571 C 474.216 3.11124 -1.80913 0
M  V30 4572 C 473.824 3.01122 -3.31707 0
M  V30 4573 C 475.568 3.8852 -1.71035 0
M  V30 4574 C 473.475 4.34453 -4.01253 0
M  V30 4575 H 472.405 0.648376 -0.384869 0
M  V30 4576 H 475.056 1.11213 -1.45959 0
M  V30 4577 H 473.438 3.73503 -1.31573 0
M  V30 4578 H 474.612 2.47926 -3.88419 0
M  V30 4579 H 472.927 2.3721 -3.42228 0
M  V30 4580 H 475.524 4.872 -2.20318 0
M  V30 4581 H 475.867 4.1087 -0.670196 0
M  V30 4582 H 476.4 3.32812 -2.17902 0
M  V30 4583 H 473.139 4.17303 -5.05508 0
M  V30 4584 H 472.659 4.87574 -3.49331 0
M  V30 4585 H 474.338 5.03215 -4.06674 0
M  V30 4586 N 474.47 1.03057 1.19235 0
M  V30 4587 C 475.698 0.747697 1.92917 0
M  V30 4588 C 476.113 -0.69372 1.75593 0
M  V30 4589 O 475.47 -1.47191 1.07894 0
M  V30 4590 C 475.521 1.09159 3.44625 0
M  V30 4591 O 475.242 2.47641 3.61394 0
M  V30 4592 C 476.743 0.831763 4.35427 0
M  V30 4593 H 473.963 0.273453 0.612751 0
M  V30 4594 H 476.507 1.37552 1.51327 0
M  V30 4595 H 474.662 0.508919 3.84043 0
M  V30 4596 H 475.076 2.60499 4.55237 0
M  V30 4597 H 476.55 1.12233 5.4047 0
M  V30 4598 H 477.027 -0.233769 4.38577 0
M  V30 4599 H 477.633 1.39725 4.01693 0
M  V30 4600 N 475.948 -1.35272 0.808662 0
M  V30 4601 C 476.896 -2.31663 0.208606 0
M  V30 4602 C 477.89 -1.56731 -0.642778 0
M  V30 4603 O 479.096 -1.71843 -0.53571 0
M  V30 4604 H 475.471 -0.750421 0.0486993 0
M  V30 4605 H 477.442 -2.79814 1.03666 0
M  V30 4606 C 476.191 -3.42008 -0.626573 0
M  V30 4607 H 475.514 -3.99795 0.0192103 0
M  V30 4608 H 476.954 -4.11727 -1.01278 0
M  V30 4609 C 475.413 -2.85226 -1.79298 0
M  V30 4610 O 475.943 -2.78945 -2.89055 0
M  V30 4611 N 474.149 -2.42245 -1.60516 0
M  V30 4612 H 473.696 -2.47554 -0.712375 0
M  V30 4613 H 473.654 -2.04603 -2.38715 0
M  V30 4614 N 477.426 -0.562348 -1.47226 0
M  V30 4615 C 478.389 0.172056 -2.28553 0
M  V30 4616 C 479.389 0.837928 -1.37242 0
M  V30 4617 O 480.579 0.693001 -1.59822 0
M  V30 4618 C 477.711 1.25223 -3.17068 0
M  V30 4619 H 478.904 -0.542401 -2.94954 0
M  V30 4620 H 476.457 -0.319493 -1.53 0
M  V30 4621 H 477.192 1.99892 -2.55369 0
M  V30 4622 H 476.977 0.779515 -3.84273 0
M  V30 4623 H 478.467 1.76791 -3.78332 0
M  V30 4624 N 478.904 1.54736 -0.299062 0
M  V30 4625 C 480.15 2.01114 0.304123 0
M  V30 4626 C 480.505 1.18376 1.51674 0
M  V30 4627 O 479.798 0.251635 1.8994 0
M  V30 4628 C 479.992 3.50199 0.713835 0
M  V30 4629 C 479.821 4.47366 -0.457531 0
M  V30 4630 C 478.591 4.9631 -0.948933 0
M  V30 4631 C 480.789 4.9755 -1.30186 0
M  V30 4632 N 478.771 5.77327 -2.08726 0
M  V30 4633 C 480.142 5.7625 -2.28771 0
M  V30 4634 C 482.197 4.79739 -1.33246 0
M  V30 4635 C 480.9 6.39036 -3.3019 0
M  V30 4636 C 482.926 5.43343 -2.33521 0
M  V30 4637 C 482.288 6.21874 -3.30836 0
M  V30 4638 H 478.387 0.778318 0.0757992 0
M  V30 4639 H 480.971 1.89925 -0.428536 0
M  V30 4640 H 479.142 3.61681 1.41567 0
M  V30 4641 H 480.874 3.83374 1.29639 0
M  V30 4642 H 477.629 4.7069 -0.52423 0
M  V30 4643 H 478.053 6.22521 -2.66077 0
M  V30 4644 H 482.695 4.18609 -0.59383 0
M  V30 4645 H 480.413 6.99302 -4.04973 0
M  V30 4646 H 483.999 5.31492 -2.3666 0
M  V30 4647 H 482.879 6.70217 -4.07159 0
M  V30 4648 N 480.382 0.0267497 1.57577 0
M  V30 4649 C 481.33 -0.973923 2.11229 0
M  V30 4650 C 482.324 -1.33849 1.03831 0
M  V30 4651 O 483.53 -1.321 1.22269 0
M  V30 4652 H 479.905 -0.331844 0.674821 0
M  V30 4653 H 481.876 -0.496092 2.94247 0
M  V30 4654 C 480.625 -2.24798 2.65257 0
M  V30 4655 H 479.948 -1.9762 3.47543 0
M  V30 4656 H 481.388 -2.93031 3.06445 0
M  V30 4657 C 479.847 -2.97611 1.57891 0
M  V30 4658 O 480.377 -3.89629 0.97735 0
M  V30 4659 N 478.583 -2.59905 1.29992 0
M  V30 4660 H 478.13 -1.85154 1.79097 0
M  V30 4661 H 478.088 -3.08932 0.583798 0
M  V30 4662 N 481.861 -1.55662 -0.24637 0
M  V30 4663 C 482.824 -1.89558 -1.28842 0
M  V30 4664 C 483.824 -0.772082 -1.41052 0
M  V30 4665 O 485.014 -1.04007 -1.39743 0
M  V30 4666 C 482.146 -2.12449 -2.66605 0
M  V30 4667 H 483.339 -2.82735 -1.00004 0
M  V30 4668 H 480.892 -1.48562 -0.485684 0
M  V30 4669 H 481.627 -1.21742 -3.00582 0
M  V30 4670 H 481.412 -2.94273 -2.59125 0
M  V30 4671 H 482.902 -2.39854 -3.41847 0
M  V30 4672 N 483.339 0.512053 -1.4905 0
M  V30 4673 C 484.564 1.2959 -1.6193 0
M  V30 4674 C 484.989 1.85906 -0.286454 0
M  V30 4675 O 484.347 1.65312 0.744426 0
M  V30 4676 C 484.395 2.40987 -2.68249 0
M  V30 4677 O 483.499 3.44531 -2.26654 0
M  V30 4678 H 482.84 0.383053 -0.542371 0
M  V30 4679 H 485.37 0.614231 -1.95162 0
M  V30 4680 H 485.38 2.86913 -2.90078 0
M  V30 4681 H 484.055 1.99361 -3.65004 0
M  V30 4682 H 482.632 3.046 -2.15112 0
M  V30 4683 N 484.817 1.37938 0.762283 0
M  V30 4684 C 485.747 1.37176 1.88958 0
M  V30 4685 C 486.728 0.238945 1.68413 0
M  V30 4686 O 487.913 0.440726 1.89133 0
M  V30 4687 C 485.043 1.18742 3.2637 0
M  V30 4688 C 483.997 2.29136 3.61498 0
M  V30 4689 C 483.323 1.95816 4.97554 0
M  V30 4690 C 484.623 3.71363 3.6727 0
M  V30 4691 H 486.317 2.31509 1.89853 0
M  V30 4692 H 483.863 1.11438 0.912005 0
M  V30 4693 H 485.816 1.16837 4.04879 0
M  V30 4694 H 484.54 0.208683 3.25933 0
M  V30 4695 H 483.199 2.30213 2.85303 0
M  V30 4696 H 482.847 0.964475 4.93667 0
M  V30 4697 H 482.547 2.69745 5.22026 0
M  V30 4698 H 484.071 1.95513 5.78452 0
M  V30 4699 H 485.485 3.72364 4.35911 0
M  V30 4700 H 483.882 4.44425 4.03245 0
M  V30 4701 H 484.952 4.04305 2.67704 0
M  V30 4702 N 486.295 -0.989507 1.22664 0
M  V30 4703 C 487.523 -1.76496 1.07967 0
M  V30 4704 C 487.938 -1.85148 -0.369543 0
M  V30 4705 O 487.295 -1.32408 -1.25596 0
M  V30 4706 C 487.346 -3.19642 1.68853 0
M  V30 4707 O 487.067 -3.11453 3.08105 0
M  V30 4708 C 488.568 -4.13621 1.59475 0
M  V30 4709 H 485.788 -0.55418 0.378319 0
M  V30 4710 H 488.332 -1.24378 1.62328 0
M  V30 4711 H 486.487 -3.68816 1.18547 0
M  V30 4712 H 486.901 -4.01499 3.37489 0
M  V30 4713 H 488.375 -5.11801 2.06795 0
M  V30 4714 H 488.852 -4.35718 0.55191 0
M  V30 4715 H 489.458 -3.70346 2.09103 0
M  V30 4716 N 487.773 -1.03688 -1.18687 0
M  V30 4717 C 489.184 -0.766488 -1.70241 0
M  V30 4718 C 489.535 0.713052 -1.82784 0
M  V30 4719 O 488.66 1.55529 -1.50465 0
M  V30 4720 C 489.255 -1.38475 -3.09209 0
M  V30 4721 C 487.814 -1.16276 -3.5799 0
M  V30 4722 C 486.961 -1.4778 -2.34641 0
M  V30 4723 H 489.912 -1.20378 -1.03415 0
M  V30 4724 H 489.933 -0.785939 -3.72295 0
M  V30 4725 H 489.445 -2.46157 -3.00048 0
M  V30 4726 H 487.546 -0.104508 -3.72453 0
M  V30 4727 H 487.659 -1.8571 -4.41643 0
M  V30 4728 H 486.023 -0.897366 -2.38368 0
M  V30 4729 H 486.806 -2.56562 -2.28102 0
M  V30 4730 N 489.251 1.34841 -0.815825 0
M  V30 4731 C 490.476 2.03261 -0.41226 0
M  V30 4732 C 490.901 1.61055 0.971751 0
M  V30 4733 O 490.259 0.7917 1.63101 0
M  V30 4734 C 490.307 3.56914 -0.514289 0
M  V30 4735 O 489.411 4.09728 0.468675 0
M  V30 4736 H 488.752 0.641664 -0.170771 0
M  V30 4737 H 491.282 1.72241 -1.10427 0
M  V30 4738 H 491.292 4.06156 -0.387457 0
M  V30 4739 H 489.967 3.86982 -1.52375 0
M  V30 4740 H 488.544 3.71681 0.301316 0
M  V30 4741 N 490.729 0.570148 1.46925 0
M  V30 4742 C 491.954 0.0542592 2.07329 0
M  V30 4743 C 492.379 -1.23582 1.41806 0
M  V30 4744 O 491.737 -1.74341 0.497479 0
M  V30 4745 C 491.785 -0.111175 3.60429 0
M  V30 4746 O 490.889 -1.17071 3.95434 0
M  V30 4747 H 490.23 0.0571425 0.661537 0
M  V30 4748 H 492.76 0.789516 1.88753 0
M  V30 4749 H 492.77 -0.321315 4.06733 0
M  V30 4750 H 491.445 0.831012 4.07513 0
M  V30 4751 H 490.022 -0.940029 3.60857 0
M  V30 4752 N 492.207 -1.54576 0.307264 0
M  V30 4753 C 493.455 -1.99867 -0.299574 0
M  V30 4754 C 493.776 -1.19714 -1.53927 0
M  V30 4755 O 493.046 -0.29472 -1.9367 0
M  V30 4756 H 491.626 -0.738299 -0.113683 0
M  V30 4757 H 494.288 -1.9032 0.420042 0
M  V30 4758 H 493.384 -3.06901 -0.567283 0
M  V30 4759 N 493.685 -0.035106 -1.57561 0
M  V30 4760 C 494.91 0.655802 -1.96759 0
M  V30 4761 C 495.335 1.64523 -0.911809 0
M  V30 4762 O 494.693 1.80857 0.126673 0
M  V30 4763 C 494.741 1.33326 -3.35047 0
M  V30 4764 O 493.845 2.44866 -3.31835 0
M  V30 4765 H 493.186 0.171807 -0.641388 0
M  V30 4766 H 495.716 -0.0987369 -2.04362 0
M  V30 4767 H 495.726 1.68867 -3.71413 0
M  V30 4768 H 494.401 0.608033 -4.11431 0
M  V30 4769 H 492.978 2.11392 -3.07193 0
M  V30 4770 N 495.163 1.55791 0.238111 0
M  V30 4771 C 496.409 1.78297 0.966337 0
M  V30 4772 C 496.742 0.601903 1.84637 0
M  V30 4773 O 496.017 -0.399499 1.90353 0
M  V30 4774 C 496.3 3.10758 1.81939 0
M  V30 4775 C 496.153 4.39283 0.966958 0
M  V30 4776 C 497.472 3.39519 2.80027 0
M  V30 4777 H 494.591 0.648654 0.349882 0
M  V30 4778 H 497.233 1.88525 0.236253 0
M  V30 4779 H 495.383 3.02168 2.44185 0
M  V30 4780 H 497.055 4.59873 0.362514 0
M  V30 4781 H 495.298 4.32948 0.271669 0
M  V30 4782 H 495.969 5.28368 1.59784 0
M  V30 4783 H 498.445 3.48128 2.27917 0
M  V30 4784 H 497.321 4.33402 3.36829 0
M  V30 4785 H 497.582 2.60864 3.56934 0
M  V30 4786 N 496.642 -0.504142 1.49319 0
M  V30 4787 C 497.87 -1.28256 1.62351 0
M  V30 4788 C 498.285 -1.86502 0.293682 0
M  V30 4789 O 497.642 -1.67678 -0.720449 0
M  V30 4790 C 497.693 -2.41507 2.68992 0
M  V30 4791 O 497.414 -1.85656 3.96817 0
M  V30 4792 C 498.915 -3.32929 2.927 0
M  V30 4793 H 496.135 -0.389115 0.546654 0
M  V30 4794 H 498.679 -0.605531 1.95329 0
M  V30 4795 H 496.834 -3.05046 2.38801 0
M  V30 4796 H 497.248 -2.59981 4.55533 0
M  V30 4797 H 498.722 -4.0868 3.71058 0
M  V30 4798 H 499.199 -3.89733 2.02496 0
M  V30 4799 H 499.805 -2.75158 3.24296 0
M  V30 4800 N 498.12 -1.38341 -0.754957 0
M  V30 4801 C 499.083 -1.35262 -1.85032 0
M  V30 4802 C 500.083 -0.253393 -1.58791 0
M  V30 4803 O 501.273 -0.510205 -1.66561 0
M  V30 4804 C 498.405 -1.10544 -3.22479 0
M  V30 4805 H 499.598 -2.32712 -1.8917 0
M  V30 4806 H 497.151 -1.23614 -0.956515 0
M  V30 4807 H 497.886 -0.136952 -3.24011 0
M  V30 4808 H 497.671 -1.90127 -3.4292 0
M  V30 4809 H 499.161 -1.11082 -4.02555 0
M  V30 4810 N 499.598 0.982988 -1.23187 0
M  V30 4811 C 500.826 1.75921 -1.08901 0
M  V30 4812 C 501.241 1.85341 0.359719 0
M  V30 4813 O 500.598 1.33072 1.24892 0
M  V30 4814 C 500.649 3.18742 -1.70545 0
M  V30 4815 O 500.37 3.09814 -3.09753 0
M  V30 4816 C 501.871 4.1277 -1.61667 0
M  V30 4817 H 499.091 0.552166 -0.381252 0
M  V30 4818 H 501.635 1.23516 -1.62985 0
M  V30 4819 H 499.79 3.68182 -1.20501 0
M  V30 4820 H 500.204 3.99703 -3.39614 0
M  V30 4821 H 501.678 5.10697 -2.09506 0
M  V30 4822 H 502.155 4.3542 -0.575009 0
M  V30 4823 H 502.761 3.69232 -2.11064 0
M  V30 4824 N 501.076 1.04316 1.18135 0
M  V30 4825 C 502.324 0.746542 1.87806 0
M  V30 4826 C 502.645 -0.728082 1.80898 0
M  V30 4827 O 501.915 -1.52554 1.22899 0
M  V30 4828 H 500.495 0.273157 0.695265 0
M  V30 4829 H 503.157 1.32044 1.43354 0
M  V30 4830 H 502.253 1.05362 2.93778 0
M  V30 4831 N 502.554 -1.34406 0.822964 0
M  V30 4832 C 503.517 -2.2783 0.250271 0
M  V30 4833 C 504.517 -1.50288 -0.571854 0
M  V30 4834 O 505.707 -1.69825 -0.387952 0
M  V30 4835 C 502.839 -3.34663 -0.649137 0
M  V30 4836 H 504.032 -2.79992 1.07444 0
M  V30 4837 H 501.585 -1.44539 0.594829 0
M  V30 4838 H 502.32 -2.87714 -1.49637 0
M  V30 4839 H 502.105 -3.92052 -0.0611199 0
M  V30 4840 H 503.595 -4.04349 -1.04363 0
M  V30 4841 N 504.032 -0.577932 -1.46621 0
M  V30 4842 C 505.257 -0.0652536 -2.07297 0
M  V30 4843 C 505.682 1.22828 -1.4246 0
M  V30 4844 O 505.04 1.74075 -0.506718 0
M  V30 4845 C 505.088 0.0920589 -3.60482 0
M  V30 4846 O 504.192 1.14972 -3.96049 0
M  V30 4847 H 503.533 -0.06065 -0.661224 0
M  V30 4848 H 506.063 -0.799515 -1.88332 0
M  V30 4849 H 506.073 0.299741 -4.06897 0
M  V30 4850 H 504.748 -0.852612 -4.07067 0
M  V30 4851 H 503.325 0.920879 -3.61351 0
M  V30 4852 N 505.51 1.54411 -0.315457 0
M  V30 4853 C 506.46 2.20772 0.569549 0
M  V30 4854 C 507.444 1.18551 1.08787 0
M  V30 4855 O 508.636 1.44213 1.02624 0
M  V30 4856 C 505.765 2.96293 1.73394 0
M  V30 4857 C 504.851 4.05844 1.2309 0
M  V30 4858 N 505.242 5.03822 0.446927 0
M  V30 4859 C 503.54 4.19648 1.51035 0
M  V30 4860 C 504.241 5.8143 0.17725 0
M  V30 4861 N 503.217 5.38245 0.761118 0
M  V30 4862 H 507.019 2.93877 -0.0368076 0
M  V30 4863 H 504.533 1.61949 -0.120915 0
M  V30 4864 H 506.53 3.42313 2.37965 0
M  V30 4865 H 505.19 2.24708 2.34386 0
M  V30 4866 H 506.201 5.17821 0.0905027 0
M  V30 4867 H 502.878 3.59274 2.1267 0
M  V30 4868 H 504.268 6.70369 -0.45335 0
M  V30 4869 N 506.988 0.0434614 1.5754 0
M  V30 4870 C 507.936 -0.951465 2.1225 0
M  V30 4871 C 508.93 -1.3274 1.05245 0
M  V30 4872 O 510.136 -1.30795 1.23663 0
M  V30 4873 H 506.511 -0.324667 0.678303 0
M  V30 4874 H 508.482 -0.464855 2.94757 0
M  V30 4875 C 507.231 -2.21972 2.67626 0
M  V30 4876 H 506.554 -1.93923 3.4962 0
M  V30 4877 H 507.994 -2.89765 3.09536 0
M  V30 4878 C 506.453 -2.95919 1.61038 0
M  V30 4879 O 506.983 -3.8857 1.01862 0
M  V30 4880 N 505.189 -2.58511 1.32741 0
M  V30 4881 H 504.736 -1.83244 1.81051 0
M  V30 4882 H 504.694 -3.08296 0.616531 0
M  V30 4883 N 508.466 -1.55915 -0.229846 0
M  V30 4884 C 509.429 -1.90914 -1.26824 0
M  V30 4885 C 510.429 -0.786999 -1.40225 0
M  V30 4886 O 511.619 -1.05484 -1.38632 0
M  V30 4887 C 508.751 -2.15264 -2.64337 0
M  V30 4888 H 509.944 -2.8378 -0.969998 0
M  V30 4889 H 507.497 -1.49069 -0.4699 0
M  V30 4890 H 508.232 -1.24923 -2.99274 0
M  V30 4891 H 508.017 -2.97005 -2.55989 0
M  V30 4892 H 509.507 -2.43467 -3.39284 0
M  V30 4893 N 509.944 0.496216 -1.49584 0
M  V30 4894 C 511.36 0.827814 -1.36453 0
M  V30 4895 C 511.56 1.97464 -0.401285 0
M  V30 4896 O 510.616 2.51958 0.165296 0
M  V30 4897 C 511.929 1.16352 -2.77277 0
M  V30 4898 C 513.477 1.27145 -2.86013 0
M  V30 4899 C 513.952 1.64042 -4.27615 0
M  V30 4900 N 515.443 1.71082 -4.30448 0
M  V30 4901 C 516.178 2.01085 -5.36984 0
M  V30 4902 N 515.674 2.2928 -6.5376 0
M  V30 4903 N 517.467 2.02376 -5.24405 0
M  V30 4904 H 509.618 -0.259947 -2.10803 0
M  V30 4905 H 511.881 -0.0537163 -0.946477 0
M  V30 4906 H 511.587 0.394153 -3.49484 0
M  V30 4907 H 511.461 2.10582 -3.12946 0
M  V30 4908 H 513.848 2.03152 -2.1404 0
M  V30 4909 H 513.929 0.309542 -2.5392 0
M  V30 4910 H 513.573 0.88583 -5.00115 0
M  V30 4911 H 513.503 2.6134 -4.57175 0
M  V30 4912 H 515.994 1.51434 -3.46232 0
M  V30 4913 H 516.307 2.51376 -7.30774 0
M  V30 4914 H 514.652 2.26726 -6.56978 0
M  V30 4915 H 517.843 1.79829 -4.32179 0
M  V30 4916 H 518.016 2.25425 -6.07526 0
M  V30 4917 N 511.423 1.38739 0.74761 0
M  V30 4918 C 512.672 1.3459 1.50228 0
M  V30 4919 C 512.985 -0.0595592 1.95509 0
M  V30 4920 O 514.191 -0.22361 2.70578 0
M  V30 4921 C 512.647 2.36377 2.71393 0
M  V30 4922 C 512.255 3.82573 2.33113 0
M  V30 4923 C 513.999 2.41281 3.49262 0
M  V30 4924 C 511.906 4.76032 3.50924 0
M  V30 4925 H 510.836 0.500312 0.564096 0
M  V30 4926 H 513.487 1.64324 0.8167 0
M  V30 4927 H 511.869 1.99694 3.41962 0
M  V30 4928 H 513.043 4.28227 1.70171 0
M  V30 4929 H 511.358 3.80844 1.68365 0
M  V30 4930 H 513.955 3.08301 4.36869 0
M  V30 4931 H 514.298 1.43353 3.9084 0
M  V30 4932 H 514.831 2.76793 2.85711 0
M  V30 4933 H 511.57 5.75177 3.14408 0
M  V30 4934 H 511.09 4.35066 4.12889 0
M  V30 4935 H 512.769 4.94331 4.17427 0
M  V30 4936 N 512.901 -0.976442 1.23707 0
M  V30 4937 C 513.864 -2.0511 1.02287 0
M  V30 4938 C 514.864 -1.60791 -0.0167195 0
M  V30 4939 O 516.054 -1.72761 0.223408 0
M  V30 4940 C 513.186 -3.36458 0.548507 0
M  V30 4941 H 514.379 -2.25545 1.9766 0
M  V30 4942 H 511.932 -1.15042 1.05806 0
M  V30 4943 H 512.667 -3.21713 -0.408818 0
M  V30 4944 H 512.452 -3.69967 1.29874 0
M  V30 4945 H 513.942 -4.15489 0.419406 0
M  V30 4946 N 514.379 -1.04941 -1.1758 0
M  V30 4947 C 515.79 -0.784501 -1.69418 0
M  V30 4948 C 516.141 0.693625 -1.8353 0
M  V30 4949 O 515.266 1.53925 -1.52106 0
M  V30 4950 C 515.861 -1.41746 -3.07723 0
M  V30 4951 C 514.42 -1.20066 -3.56737 0
M  V30 4952 C 513.567 -1.5026 -2.33061 0
M  V30 4953 H 516.518 -1.21469 -1.02133 0
M  V30 4954 H 516.539 -0.825381 -3.7144 0
M  V30 4955 H 516.051 -2.49325 -2.9742 0
M  V30 4956 H 514.152 -0.144006 -3.72322 0
M  V30 4957 H 514.265 -1.90384 -4.39648 0
M  V30 4958 H 512.629 -0.922598 -2.37403 0
M  V30 4959 H 513.412 -2.58967 -2.25368 0
M  V30 4960 N 515.857 1.33968 -0.830081 0
M  V30 4961 C 517.105 1.97672 -0.420734 0
M  V30 4962 C 517.426 1.66111 1.02138 0
M  V30 4963 O 516.696 0.955503 1.71017 0
M  V30 4964 H 515.276 0.73125 -0.152587 0
M  V30 4965 H 517.938 1.63483 -1.0611 0
M  V30 4966 H 517.034 3.07294 -0.545588 0
M  V30 4967 N 517.335 0.585699 1.46312 0
M  V30 4968 C 518.583 0.072278 2.01971 0
M  V30 4969 C 518.904 -1.29345 1.45928 0
M  V30 4970 O 518.174 -1.84973 0.645109 0
M  V30 4971 H 516.754 0.023729 0.746623 0
M  V30 4972 H 519.416 0.762155 1.7938 0
M  V30 4973 H 518.512 0.00552767 3.121 0
M  V30 4974 N 518.813 -1.54241 0.323641 0
M  V30 4975 C 520.038 -2.05452 -0.283605 0
M  V30 4976 C 520.463 -1.19823 -1.44997 0
M  V30 4977 O 519.821 -0.207358 -1.8011 0
M  V30 4978 C 519.869 -3.53823 -0.695795 0
M  V30 4979 O 518.973 -3.71134 -1.79815 0
M  V30 4980 H 518.314 -0.662024 -0.0511917 0
M  V30 4981 H 520.844 -1.99079 0.472073 0
M  V30 4982 H 520.854 -3.96094 -0.978434 0
M  V30 4983 H 519.529 -4.15602 0.157287 0
M  V30 4984 H 518.106 -3.40768 -1.51431 0
M  V30 4985 N 520.291 -0.0518155 -1.57515 0
M  V30 4986 C 521.221 0.920283 -2.146 0
M  V30 4987 C 522.202 1.32406 -1.06783 0
M  V30 4988 O 523.387 1.39866 -1.34726 0
M  V30 4989 C 520.517 2.1949 -2.6915 0
M  V30 4990 C 519.471 1.93116 -3.81956 0
M  V30 4991 C 518.797 3.27037 -4.23026 0
M  V30 4992 C 520.097 1.25225 -5.07066 0
M  V30 4993 H 521.791 0.444801 -2.96077 0
M  V30 4994 H 519.337 0.212508 -1.42423 0
M  V30 4995 H 521.29 2.87894 -3.07725 0
M  V30 4996 H 520.014 2.69244 -1.84865 0
M  V30 4997 H 518.673 1.27123 -3.43854 0
M  V30 4998 H 518.321 3.74595 -3.3569 0
M  V30 4999 H 518.021 3.10189 -4.99056 0
M  V30 5000 H 519.545 3.96673 -4.64202 0
M  V30 5001 H 520.959 1.83666 -5.43083 0
M  V30 5002 H 519.356 1.18702 -5.88243 0
M  V30 5003 H 520.426 0.228382 -4.84362 0
M  V30 5004 N 521.769 1.56035 0.221574 0
M  V30 5005 C 522.994 1.83476 0.967026 0
M  V30 5006 C 523.419 0.632139 1.7716 0
M  V30 5007 O 522.777 -0.419082 1.7639 0
M  V30 5008 C 522.825 3.08907 1.86034 0
M  V30 5009 O 521.929 2.876 2.95567 0
M  V30 5010 H 521.27 0.604913 0.273817 0
M  V30 5011 H 523.8 2.03247 0.234893 0
M  V30 5012 H 523.81 3.3901 2.27016 0
M  V30 5013 H 522.485 3.96068 1.26898 0
M  V30 5014 H 521.062 2.6873 2.58532 0
M  V30 5015 N 523.247 -0.488276 1.49845 0
M  V30 5016 C 524.494 -1.24157 1.59973 0
M  V30 5017 C 524.822 -1.92293 0.292182 0
M  V30 5018 O 524.077 -1.81942 -0.720813 0
M  V30 5019 C 524.376 -2.32152 2.71735 0
M  V30 5020 C 524.042 -1.81387 4.12807 0
M  V30 5021 C 522.704 -1.67262 4.51195 0
M  V30 5022 C 525.056 -1.43537 5.01045 0
M  V30 5023 C 522.384 -1.13685 5.7558 0
M  V30 5024 C 524.736 -0.914081 6.25961 0
M  V30 5025 C 523.4 -0.759327 6.63167 0
M  V30 5026 H 522.67 -0.454322 0.585383 0
M  V30 5027 H 525.317 -0.540261 1.83721 0
M  V30 5028 H 523.622 -3.08122 2.42008 0
M  V30 5029 H 525.319 -2.90164 2.76778 0
M  V30 5030 H 521.909 -1.93344 3.82513 0
M  V30 5031 H 526.093 -1.53292 4.72033 0
M  V30 5032 H 521.349 -1.00426 6.03096 0
M  V30 5033 H 525.523 -0.612066 6.93705 0
M  V30 5034 H 523.15 -0.342002 7.5943 0
M  V30 5035 N 524.725 -1.39134 -0.740242 0
M  V30 5036 C 525.973 -1.35803 -1.49673 0
M  V30 5037 C 526.294 0.0470897 -1.94943 0
M  V30 5038 O 525.564 0.997347 -1.68611 0
M  V30 5039 H 524.144 -0.499736 -0.555224 0
M  V30 5040 H 526.806 -1.73947 -0.879107 0
M  V30 5041 H 525.902 -2.0174 -2.38133 0
M  V30 5042 N 526.204 0.969867 -1.24223 0
M  V30 5043 C 527.451 1.71256 -1.08063 0
M  V30 5044 C 527.779 1.90734 0.380872 0
M  V30 5045 O 527.034 1.46469 1.29789 0
M  V30 5046 C 527.333 3.10883 -1.76314 0
M  V30 5047 C 526.999 3.11252 -3.26241 0
M  V30 5048 C 525.661 3.1106 -3.67144 0
M  V30 5049 C 528.013 3.05751 -4.22097 0
M  V30 5050 C 525.341 3.03097 -5.02344 0
M  V30 5051 C 527.693 2.9933 -5.57301 0
M  V30 5052 C 526.357 2.97466 -5.97554 0
M  V30 5053 H 525.627 0.62667 -0.395431 0
M  V30 5054 H 528.274 1.13422 -1.54297 0
M  V30 5055 H 526.579 3.72168 -1.22468 0
M  V30 5056 H 528.276 3.67138 -1.61277 0
M  V30 5057 H 524.866 3.12165 -2.93685 0
M  V30 5058 H 529.05 3.05031 -3.91497 0
M  V30 5059 H 524.306 3.00013 -5.32731 0
M  V30 5060 H 528.48 2.94033 -6.31283 0
M  V30 5061 H 526.107 2.91051 -7.02277 0
M  V30 5062 N 527.682 1.05563 1.17022 0
M  V30 5063 C 528.614 0.617888 2.20714 0
M  V30 5064 C 529.627 -0.320303 1.59618 0
M  V30 5065 O 530.816 -0.112449 1.78145 0
M  V30 5066 C 527.916 -0.115333 3.38704 0
M  V30 5067 C 527.089 0.834493 4.29366 0
M  V30 5068 C 526.148 0.141855 5.26009 0
M  V30 5069 O 525.174 0.777151 5.6387 0
M  V30 5070 N 526.376 -1.11934 5.69606 0
M  V30 5071 H 529.141 1.50981 2.58892 0
M  V30 5072 H 526.702 0.938008 1.31958 0
M  V30 5073 H 528.694 -0.588918 4.00392 0
M  V30 5074 H 527.264 -0.908967 2.99093 0
M  V30 5075 H 526.484 1.48762 3.65053 0
M  V30 5076 H 527.772 1.4791 4.86827 0
M  V30 5077 H 527.17 -1.65574 5.40927 0
M  V30 5078 H 525.727 -1.53692 6.33421 0
M  V30 5079 N 529.16 -1.33526 0.837174 0
M  V30 5080 C 530.408 -1.97446 0.431211 0
M  V30 5081 C 530.729 -1.6665 -1.01255 0
M  V30 5082 O 529.999 -0.964559 -1.70508 0
M  V30 5083 H 528.579 -0.73043 0.156463 0
M  V30 5084 H 531.241 -1.62918 1.06976 0
M  V30 5085 H 530.337 -3.07001 0.561877 0
M  V30 5086 N 530.638 -0.59345 -1.46 0
M  V30 5087 C 531.866 -0.0890934 -2.06708 0
M  V30 5088 C 532.281 1.2205 -1.44046 0
M  V30 5089 O 531.638 1.74029 -0.549551 0
M  V30 5090 C 531.689 0.0720263 -3.61428 0
M  V30 5091 O 531.41 -1.18574 -4.21748 0
M  V30 5092 C 532.911 0.609487 -4.3909 0
M  V30 5093 H 530.131 -0.0623628 -0.668096 0
M  V30 5094 H 532.675 -0.817171 -1.87464 0
M  V30 5095 H 530.83 0.750369 -3.80063 0
M  V30 5096 H 531.244 -1.0064 -5.14754 0
M  V30 5097 H 532.718 0.671363 -5.47902 0
M  V30 5098 H 533.195 1.62878 -4.07882 0
M  V30 5099 H 533.801 -0.03434 -4.25286 0
M  V30 5100 N 532.116 1.54067 -0.331816 0
M  V30 5101 C 533.346 2.04833 0.269605 0
M  V30 5102 C 533.754 1.20714 1.45687 0
M  V30 5103 O 533.097 0.232539 1.82222 0
M  V30 5104 C 533.159 3.51386 0.759499 0
M  V30 5105 C 532.823 4.55971 -0.306557 0
M  V30 5106 C 533.82 5.07126 -1.14538 0
M  V30 5107 C 531.505 5.00216 -0.457116 0
M  V30 5108 C 533.499 6.01096 -2.12042 0
M  V30 5109 C 531.186 5.93999 -1.43556 0
M  V30 5110 C 532.184 6.44326 -2.26568 0
M  V30 5111 O 531.872 7.36267 -3.22749 0
M  V30 5112 H 531.604 0.673509 0.0579763 0
M  V30 5113 H 534.158 1.99748 -0.478521 0
M  V30 5114 H 532.388 3.53896 1.55867 0
M  V30 5115 H 534.077 3.85184 1.28017 0
M  V30 5116 H 534.843 4.73716 -1.04009 0
M  V30 5117 H 530.722 4.60652 0.179142 0
M  V30 5118 H 534.266 6.40302 -2.76873 0
M  V30 5119 H 530.163 6.26825 -1.54146 0
M  V30 5120 H 530.931 7.54165 -3.18083 0
M  V30 5121 N 533.594 0.0601682 1.57485 0
M  V30 5122 C 534.842 -0.610386 1.92662 0
M  V30 5123 C 535.163 -1.70849 0.939981 0
M  V30 5124 O 534.433 -1.95895 -0.0137455 0
M  V30 5125 H 533.013 -0.228457 0.711208 0
M  V30 5126 H 535.675 0.115288 1.94559 0
M  V30 5127 H 534.771 -1.0432 2.94149 0
M  V30 5128 N 535.072 -1.5615 -0.213296 0
M  V30 5129 C 536.32 -1.79191 -0.934612 0
M  V30 5130 C 536.641 -0.630112 -1.84539 0
M  V30 5131 O 535.911 0.35257 -1.92701 0
M  V30 5132 H 534.491 -0.660937 -0.348097 0
M  V30 5133 H 537.153 -1.93618 -0.22317 0
M  V30 5134 H 536.249 -2.71656 -1.53654 0
M  V30 5135 N 536.55 0.480323 -1.50102 0
M  V30 5136 C 537.513 1.56181 -1.6775 0
M  V30 5137 C 538.513 1.51156 -0.548503 0
M  V30 5138 O 539.703 1.5394 -0.815363 0
M  V30 5139 C 536.835 2.95823 -1.69415 0
M  V30 5140 H 538.028 1.41855 -2.6423 0
M  V30 5141 H 535.581 0.70605 -1.39444 0
M  V30 5142 H 536.316 3.15604 -0.745948 0
M  V30 5143 H 536.101 3.00878 -2.51425 0
M  V30 5144 H 537.591 3.74359 -1.85054 0
M  V30 5145 N 538.028 1.39524 0.732853 0
M  V30 5146 C 539.275 1.36865 1.49246 0
M  V30 5147 C 539.603 -0.0347118 1.94469 0
M  V30 5148 O 538.858 -1.01596 1.67262 0
M  V30 5149 C 539.157 2.28916 2.74468 0
M  V30 5150 C 538.823 3.76506 2.481 0
M  V30 5151 C 537.485 4.16721 2.40619 0
M  V30 5152 C 539.837 4.69846 2.25598 0
M  V30 5153 C 537.165 5.48334 2.08679 0
M  V30 5154 C 539.517 6.01739 1.95174 0
M  V30 5155 C 538.181 6.41015 1.86163 0
M  V30 5156 H 537.451 0.500824 0.546129 0
M  V30 5157 H 540.098 1.72047 0.840958 0
M  V30 5158 H 538.403 1.86859 3.4437 0
M  V30 5159 H 540.1 2.2415 3.32502 0
M  V30 5160 H 536.69 3.44635 2.54803 0
M  V30 5161 H 540.874 4.39608 2.30344 0
M  V30 5162 H 536.13 5.77685 2.00226 0
M  V30 5163 H 540.304 6.73591 1.76771 0
M  V30 5164 H 537.931 7.42917 1.61179 0
M  V30 5165 N 539.506 -0.963266 1.24736 0
M  V30 5166 C 540.469 -2.04013 1.04457 0
M  V30 5167 C 541.469 -1.608 0.000335555 0
M  V30 5168 O 542.659 -1.72515 0.241719 0
M  V30 5169 C 539.791 -3.35858 0.584162 0
M  V30 5170 H 540.984 -2.23436 2.00041 0
M  V30 5171 H 538.537 -1.13914 1.07021 0
M  V30 5172 H 539.272 -3.22128 -0.374673 0
M  V30 5173 H 539.057 -3.68568 1.3379 0
M  V30 5174 H 540.547 -4.1502 0.463451 0
M  V30 5175 N 540.985 -1.06182 -1.16461 0
M  V30 5176 C 541.895 -0.682671 -2.24448 0
M  V30 5177 C 542.911 0.30078 -1.71381 0
M  V30 5178 O 544.087 0.150376 -2.00838 0
M  V30 5179 C 541.152 -0.0737202 -3.46622 0
M  V30 5180 C 540.213 -1.10889 -4.14731 0
M  V30 5181 C 539.446 -0.528908 -5.31073 0
M  V30 5182 O 539.669 0.65868 -5.66584 0
M  V30 5183 O 538.603 -1.26805 -5.88391 0
M  V30 5184 H 542.429 -1.58291 -2.59187 0
M  V30 5185 H 540.014 -0.834013 -1.23954 0
M  V30 5186 H 541.896 0.264192 -4.20571 0
M  V30 5187 H 540.571 0.800015 -3.13658 0
M  V30 5188 H 539.478 -1.49896 -3.42756 0
M  V30 5189 H 540.811 -1.95412 -4.51747 0
M  V30 5190 N 542.463 1.3308 -0.844243 0
M  V30 5191 C 543.874 1.7992 -0.498566 0
M  V30 5192 C 544.225 1.69808 0.982834 0
M  V30 5193 O 543.35 1.25051 1.7661 0
M  V30 5194 C 543.945 3.26677 -0.898204 0
M  V30 5195 C 542.504 3.71513 -0.604583 0
M  V30 5196 C 541.651 2.54393 -1.10362 0
M  V30 5197 H 544.602 1.20526 -1.03244 0
M  V30 5198 H 544.623 3.79918 -0.21039 0
M  V30 5199 H 544.135 3.34004 -1.97643 0
M  V30 5200 H 542.236 3.69708 0.46335 0
M  V30 5201 H 542.349 4.64755 -1.16358 0
M  V30 5202 H 540.713 2.49246 -0.524273 0
M  V30 5203 H 541.496 2.6448 -2.18873 0
M  V30 5204 N 543.941 0.601185 1.45683 0
M  V30 5205 C 545.169 0.100054 2.06658 0
M  V30 5206 C 545.584 -1.21285 1.44691 0
M  V30 5207 O 544.941 -1.73735 0.558772 0
M  V30 5208 C 544.992 -0.0528579 3.61461 0
M  V30 5209 O 544.713 1.20809 4.21114 0
M  V30 5210 C 546.214 -0.586193 4.39407 0
M  V30 5211 H 543.434 0.065905 0.667756 0
M  V30 5212 H 545.978 0.827101 1.87028 0
M  V30 5213 H 544.133 -0.730203 3.80456 0
M  V30 5214 H 544.547 1.03368 5.14213 0
M  V30 5215 H 546.021 -0.642297 5.4825 0
M  V30 5216 H 546.498 -1.60713 4.0874 0
M  V30 5217 H 547.104 0.0568935 4.25262 0
M  V30 5218 N 545.419 -1.53889 0.339982 0
M  V30 5219 C 546.667 -2.00458 -0.257112 0
M  V30 5220 C 546.988 -1.22953 -1.51353 0
M  V30 5221 O 546.258 -0.335734 -1.93002 0
M  V30 5222 H 544.838 -0.740544 -0.0979965 0
M  V30 5223 H 547.5 -1.89386 0.460317 0
M  V30 5224 H 546.596 -3.08035 -0.502057 0
M  V30 5225 N 546.897 -0.0685191 -1.57451 0
M  V30 5226 C 548.144 0.601348 -1.93365 0
M  V30 5227 C 548.472 1.69816 -0.948294 0
M  V30 5228 O 547.727 1.95666 0.0366199 0
M  V30 5229 C 548.026 1.22051 -3.35914 0
M  V30 5230 C 547.692 0.250165 -4.50205 0
M  V30 5231 C 546.354 -0.0167954 -4.81197 0
M  V30 5232 C 548.706 -0.413867 -5.19554 0
M  V30 5233 C 546.034 -0.95493 -5.78876 0
M  V30 5234 C 548.386 -1.3403 -6.18238 0
M  V30 5235 C 547.05 -1.61576 -6.47649 0
M  V30 5236 H 546.32 0.220049 -0.707573 0
M  V30 5237 H 548.967 -0.138697 -1.90997 0
M  V30 5238 H 547.272 2.03622 -3.34732 0
M  V30 5239 H 548.969 1.74605 -3.6099 0
M  V30 5240 H 545.559 0.468421 -4.26033 0
M  V30 5241 H 549.743 -0.220733 -4.95809 0
M  V30 5242 H 544.999 -1.17563 -5.99991 0
M  V30 5243 H 549.173 -1.86081 -6.71079 0
M  V30 5244 H 546.8 -2.34431 -7.2315 0
M  V30 5245 N 548.375 1.56261 0.205012 0
M  V30 5246 C 549.791 1.49623 0.555433 0
M  V30 5247 C 549.991 0.766719 1.86343 0
M  V30 5248 O 549.047 0.313158 2.50551 0
M  V30 5249 C 550.36 2.94253 0.619347 0
M  V30 5250 C 551.908 3.04868 0.708855 0
M  V30 5251 C 552.383 4.50888 0.803969 0
M  V30 5252 N 553.874 4.54999 0.867758 0
M  V30 5253 C 554.609 5.65284 0.96135 0
M  V30 5254 N 554.105 6.85282 1.01786 0
M  V30 5255 N 555.898 5.53174 0.997771 0
M  V30 5256 H 548.049 2.0211 -0.653094 0
M  V30 5257 H 550.312 0.919333 -0.231366 0
M  V30 5258 H 550.018 3.50643 -0.272458 0
M  V30 5259 H 549.892 3.47063 1.47741 0
M  V30 5260 H 552.279 2.48532 1.5911 0
M  V30 5261 H 552.36 2.55199 -0.175205 0
M  V30 5262 H 552.004 5.07846 -0.0738798 0
M  V30 5263 H 551.934 4.98279 1.70369 0
M  V30 5264 H 554.425 3.68588 0.833735 0
M  V30 5265 H 554.738 7.65081 1.08951 0
M  V30 5266 H 553.083 6.8796 0.986706 0
M  V30 5267 H 556.274 4.5835 0.950392 0
M  V30 5268 H 556.447 6.39151 1.06725 0
M  V30 5269 N 549.853 -0.472356 1.50355 0
M  V30 5270 C 550.783 -1.57859 1.72055 0
M  V30 5271 C 551.764 -1.60283 0.569505 0
M  V30 5272 O 552.949 -1.7657 0.808503 0
M  V30 5273 C 550.079 -2.96191 1.81351 0
M  V30 5274 C 549.033 -3.08633 2.96529 0
M  V30 5275 C 548.359 -4.486 2.90968 0
M  V30 5276 C 549.659 -2.85969 4.37057 0
M  V30 5277 H 551.353 -1.39953 2.64676 0
M  V30 5278 H 548.899 -0.671846 1.27367 0
M  V30 5279 H 550.852 -3.73507 1.95117 0
M  V30 5280 H 549.576 -3.15251 0.853502 0
M  V30 5281 H 548.235 -2.33749 2.82413 0
M  V30 5282 H 547.883 -4.64577 1.92815 0
M  V30 5283 H 547.583 -4.57861 3.68289 0
M  V30 5284 H 549.107 -5.27938 3.0678 0
M  V30 5285 H 550.521 -3.53036 4.51706 0
M  V30 5286 H 548.918 -3.06677 5.15819 0
M  V30 5287 H 549.988 -1.81838 4.49514 0
M  V30 5288 N 551.331 -1.39911 -0.725443 0
M  V30 5289 C 552.279 -1.39552 -1.86086 0
M  V30 5290 C 553.273 -0.277334 -1.67114 0
M  V30 5291 O 554.479 -0.447865 -1.74339 0
M  V30 5292 H 550.854 -0.435993 -0.612711 0
M  V30 5293 H 552.825 -2.35305 -1.83505 0
M  V30 5294 C 551.574 -1.26529 -3.2386 0
M  V30 5295 H 550.897 -2.11845 -3.3906 0
M  V30 5296 H 552.337 -1.30336 -4.03471 0
M  V30 5297 C 550.796 0.0254168 -3.3689 0
M  V30 5298 O 551.326 0.992048 -3.89257 0
M  V30 5299 N 549.532 0.0916528 -2.90455 0
M  V30 5300 H 549.079 -0.695675 -2.48028 0
M  V30 5301 H 549.037 0.954745 -2.99553 0
M  V30 5302 N 552.809 0.956637 -1.25245 0
M  V30 5303 C 554.057 1.69764 -1.09657 0
M  V30 5304 C 554.378 1.91583 0.363464 0
M  V30 5305 O 553.648 1.50149 1.25825 0
M  V30 5306 H 552.228 0.629097 -0.402798 0
M  V30 5307 H 554.89 1.15026 -1.57337 0
M  V30 5308 H 553.986 2.67769 -1.60331 0
M  V30 5309 N 554.287 1.06798 1.15896 0
M  V30 5310 C 555.515 0.808694 1.90441 0
M  V30 5311 C 555.93 -0.637506 1.77711 0
M  V30 5312 O 555.287 -1.43684 1.12522 0
M  V30 5313 C 555.338 1.20068 3.40978 0
M  V30 5314 O 555.059 2.59013 3.53333 0
M  V30 5315 C 556.56 0.96987 4.3256 0
M  V30 5316 H 553.78 0.292809 0.603742 0
M  V30 5317 H 556.324 1.42296 1.46874 0
M  V30 5318 H 554.479 0.630842 3.82229 0
M  V30 5319 H 554.893 2.7485 4.46719 0
M  V30 5320 H 556.367 1.29371 5.36626 0
M  V30 5321 H 556.844 -0.0941209 4.39099 0
M  V30 5322 H 557.45 1.52433 3.97044 0
M  V30 5323 N 555.766 -1.3263 0.851289 0
M  V30 5324 C 556.729 -2.27247 0.298541 0
M  V30 5325 C 557.729 -1.51467 -0.539847 0
M  V30 5326 O 558.919 -1.7061 -0.351843 0
M  V30 5327 C 556.051 -3.35964 -0.578004 0
M  V30 5328 H 557.244 -2.7765 1.13359 0
M  V30 5329 H 554.797 -1.43245 0.625354 0
M  V30 5330 H 555.532 -2.90823 -1.435 0
M  V30 5331 H 555.317 -3.92094 0.0220539 0
M  V30 5332 H 556.807 -4.06472 -0.957626 0
M  V30 5333 N 557.244 -0.608902 -1.45362 0
M  V30 5334 C 558.484 -0.10763 -2.04116 0
M  V30 5335 C 558.848 1.23883 -1.46686 0
M  V30 5336 O 560.049 1.83091 -1.96803 0
M  V30 5337 C 558.32 -0.0703351 -3.57331 0
M  V30 5338 S 559.879 0.369554 -4.37241 0
M  V30 5339 H 556.697 -0.0502123 -0.709225 0
M  V30 5340 H 559.299 -0.8073 -1.78053 0
M  V30 5341 H 558.003 -1.05379 -3.9664 0
M  V30 5342 H 557.534 0.651287 -3.87971 0
M  V30 5343 H 559.549 1.61878 -4.69052 0
M  V30 5344 N 558.722 1.53707 -0.348139 0
M  V30 5345 C 559.95 2.05406 0.248224 0
M  V30 5346 C 560.365 1.22282 1.43849 0
M  V30 5347 O 559.722 0.259244 1.80649 0
M  V30 5348 C 559.773 3.55446 0.658793 0
M  V30 5349 O 559.494 4.35417 -0.484149 0
M  V30 5350 C 560.995 4.23335 1.31539 0
M  V30 5351 H 558.215 0.669344 0.0471075 0
M  V30 5352 H 560.759 1.98257 -0.501456 0
M  V30 5353 H 558.914 3.62803 1.35841 0
M  V30 5354 H 559.328 5.24268 -0.155949 0
M  V30 5355 H 560.802 5.29692 1.55338 0
M  V30 5356 H 561.279 3.75967 2.27036 0
M  V30 5357 H 561.885 4.20184 0.657683 0
M  V30 5358 N 560.2 0.0768682 1.57412 0
M  V30 5359 C 561.428 -0.59997 1.9801 0
M  V30 5360 C 561.843 -1.62842 0.955408 0
M  V30 5361 O 561.2 -1.8241 -0.057314 0
M  V30 5362 C 561.251 -1.26401 3.38681 0
M  V30 5363 O 560.972 -0.276723 4.37225 0
M  V30 5364 C 562.473 -2.0282 3.94182 0
M  V30 5365 H 559.693 -0.162239 0.651091 0
M  V30 5366 H 562.237 0.150771 2.03943 0
M  V30 5367 H 560.392 -1.96581 3.33819 0
M  V30 5368 H 560.806 -0.753744 5.19056 0
M  V30 5369 H 562.28 -2.44667 4.94815 0
M  V30 5370 H 562.757 -2.88678 3.31001 0
M  V30 5371 H 563.363 -1.37496 4.02461 0
M  V30 5372 N 561.678 -1.56367 -0.196722 0
M  V30 5373 C 562.924 -1.80796 -0.918725 0
M  V30 5374 C 563.257 -0.650645 -1.82976 0
M  V30 5375 O 562.532 0.348889 -1.91345 0
M  V30 5376 C 562.815 -3.15472 -1.73636 0
M  V30 5377 C 562.668 -4.41693 -0.85015 0
M  V30 5378 C 563.987 -3.46824 -2.70927 0
M  V30 5379 H 561.106 -0.657702 -0.332561 0
M  V30 5380 H 563.748 -1.89086 -0.186186 0
M  V30 5381 H 561.898 -3.08536 -2.36088 0
M  V30 5382 H 563.57 -4.60673 -0.240459 0
M  V30 5383 H 561.813 -4.33517 -0.156785 0
M  V30 5384 H 562.484 -5.32419 -1.45719 0
M  V30 5385 H 564.96 -3.54049 -2.18607 0
M  V30 5386 H 563.836 -4.4218 -3.25219 0
M  V30 5387 H 564.097 -2.70236 -3.49893 0
M  V30 5388 O 563.195 0.341958 -1.57838 0
M  V30 5389 H 563.886 0.991482 -1.66401 0
M  V30 END ATOM
M  V30 BEGIN BOND
M  V30 END BOND
M  V30 END CTAB
M  END
$$$$
