drugbank_target|Q9Y663 Heparan sulfate glucosamine 3-O-sulfotransferase 3A1 (DB01812; DB02264; DB03959; DB03981)
 OpenBabel12092119563D

  0  0  0     0  0            999 V3000
M  V30 BEGIN CTAB
M  V30 COUNTS 6357 6439 0 0 0
M  V30 BEGIN ATOM
M  V30 1 H -0.908 1.98254 -0.117106 0
M  V30 2 N 0 1.576 0 0
M  V30 3 C 0.933 2.03868 1.02534 0
M  V30 4 C 1.911 0.928543 1.3348 0
M  V30 5 O 3.095 1.19667 1.45644 0
M  V30 6 C 0.222 2.43627 2.35294 0
M  V30 7 C -0.732 3.65373 2.2001 0
M  V30 8 S 0.101 5.13292 1.52614 0
M  V30 9 C 1.257 5.56322 2.86805 0
M  V30 10 H 1.49 2.90518 0.631377 0
M  V30 11 H -0.977 1.52953 0.210867 0
M  V30 12 H 0.981 2.67203 3.11629 0
M  V30 13 H -0.358 1.57376 2.7183 0
M  V30 14 H -1.165 3.90944 3.18086 0
M  V30 15 H -1.563 3.418 1.51819 0
M  V30 16 H 0.729 5.58782 3.83104 0
M  V30 17 H 1.672 6.56266 2.65933 0
M  V30 18 H 2.08 4.83886 2.90714 0
M  V30 19 N 1.4781 -0.272755 1.55222 0
M  V30 20 C 2.4411 -1.32041 1.87344 0
M  V30 21 C 3.4411 -1.42342 0.74803 0
M  V30 22 O 4.6311 -1.41488 1.0162 0
M  V30 23 C 1.7631 -2.70173 2.07893 0
M  V30 24 H 2.9561 -1.04789 2.80997 0
M  V30 25 H 0.5091 -0.51083 1.47717 0
M  V30 26 H 1.2441 -3.02605 1.16622 0
M  V30 27 H 1.0291 -2.64082 2.89833 0
M  V30 28 H 2.5191 -3.45869 2.34017 0
M  V30 29 N 2.9562 -1.48159 -0.537278 0
M  V30 30 C 4.3672 -1.49429 -1.11928 0
M  V30 31 C 4.7182 -0.26 -1.9447 0
M  V30 32 O 3.8432 0.633489 -2.0692 0
M  V30 33 C 4.4382 -2.70758 -2.03656 0
M  V30 34 C 2.9972 -2.74923 -2.57088 0
M  V30 35 C 2.1442 -2.42835 -1.3389 0
M  V30 36 H 5.0952 -1.55381 -0.322886 0
M  V30 37 H 5.1162 -2.48861 -2.87834 0
M  V30 38 H 4.6282 -3.60575 -1.43553 0
M  V30 39 H 2.7292 -1.89296 -3.20933 0
M  V30 40 H 2.8422 -3.76157 -2.9672 0
M  V30 41 H 1.2062 -1.93836 -1.65226 0
M  V30 42 H 1.9892 -3.34884 -0.755504 0
M  V30 43 N 4.4343 0.785586 -1.36625 0
M  V30 44 C 5.8453 1.36101 -1.27803 0
M  V30 45 C 6.1963 1.96035 0.0804875 0
M  V30 46 O 5.3213 1.92834 0.982042 0
M  V30 47 C 5.9163 2.47442 -2.31426 0
M  V30 48 C 4.4753 3.00789 -2.26281 0
M  V30 49 C 3.6223 1.73896 -2.15999 0
M  V30 50 H 6.5733 0.586928 -1.47448 0
M  V30 51 H 6.5943 3.2656 -1.95291 0
M  V30 52 H 6.1063 2.03791 -3.30289 0
M  V30 53 H 4.2073 3.48851 -1.30896 0
M  V30 54 H 4.3203 3.57343 -3.19128 0
M  V30 55 H 2.6843 1.9628 -1.62316 0
M  V30 56 H 3.4673 1.32368 -3.16755 0
M  V30 57 N 5.9124 1.20967 1.01018 0
M  V30 58 C 7.1604 1.02172 1.74371 0
M  V30 59 C 7.4814 -0.446414 1.89821 0
M  V30 60 O 6.7514 -1.32234 1.44537 0
M  V30 61 H 5.3314 0.375066 0.646014 0
M  V30 62 H 7.9934 1.52187 1.21758 0
M  V30 63 H 7.0894 1.48538 2.74487 0
M  V30 64 N 7.3905 -1.2043 1.01659 0
M  V30 65 C 8.8015 -1.71517 0.737482 0
M  V30 66 C 9.1525 -1.81547 -0.743973 0
M  V30 67 O 8.2775 -1.47803 -1.58061 0
M  V30 68 C 8.8725 -3.11515 1.33206 0
M  V30 69 C 7.4315 -3.59912 1.10183 0
M  V30 70 C 6.5785 -2.37116 1.43776 0
M  V30 71 H 9.5295 -1.05444 1.18606 0
M  V30 72 H 9.5505 -3.73575 0.722636 0
M  V30 73 H 9.0625 -3.04182 2.41028 0
M  V30 74 H 7.1635 -3.72577 0.0412756 0
M  V30 75 H 7.2765 -4.44731 1.78188 0
M  V30 76 H 5.6405 -2.39857 0.856778 0
M  V30 77 H 6.4235 -2.32424 2.52654 0
M  V30 78 N 8.8686 -0.792821 -1.36206 0
M  V30 79 C 9.8316 -0.199459 -2.2833 0
M  V30 80 C 10.8316 0.605189 -1.48977 0
M  V30 81 O 12.0216 0.425685 -1.68919 0
M  V30 82 C 9.1536 0.723523 -3.33134 0
M  V30 83 H 10.3466 -1.01181 -2.82316 0
M  V30 84 H 7.8996 -0.562485 -1.45828 0
M  V30 85 H 8.6346 1.56008 -2.84309 0
M  V30 86 H 8.4196 0.148436 -3.91819 0
M  V30 87 H 9.9096 1.13344 -4.01924 0
M  V30 88 N 10.3467 1.47872 -0.545128 0
M  V30 89 C 11.5717 2.07391 -0.0190611 0
M  V30 90 C 11.9967 1.39688 1.25971 0
M  V30 91 O 11.3547 0.467816 1.7516 0
M  V30 92 C 11.4027 3.60188 0.172335 0
M  V30 93 O 10.5067 3.9339 1.23766 0
M  V30 94 H 9.8477 0.662411 -0.0459059 0
M  V30 95 H 12.3777 1.90066 -0.757365 0
M  V30 96 H 12.3877 4.06129 0.390305 0
M  V30 97 H 11.0627 4.08865 -0.761725 0
M  V30 98 H 9.6397 3.5921 1.00114 0
M  V30 99 N 11.8248 0.280983 1.55075 0
M  V30 100 C 12.7878 -0.590896 2.21452 0
M  V30 101 C 13.7878 -1.07682 1.19421 0
M  V30 102 O 14.9778 -0.97605 1.44288 0
M  V30 103 C 12.1098 -1.81587 2.88511 0
M  V30 104 H 13.3028 -0.0112554 2.99898 0
M  V30 105 H 10.8558 0.0316438 1.56268 0
M  V30 106 H 11.5908 -2.43587 2.14093 0
M  V30 107 H 11.3758 -1.4753 3.63287 0
M  V30 108 H 12.8658 -2.43575 3.39206 0
M  V30 109 N 13.3029 -1.57598 0.00835791 0
M  V30 110 C 14.2329 -2.1198 -0.979113 0
M  V30 111 C 15.2139 -1.03091 -1.35301 0
M  V30 112 O 16.3989 -1.30818 -1.43528 0
M  V30 113 C 13.5289 -2.62995 -2.26828 0
M  V30 114 C 12.4829 -3.76485 -2.03576 0
M  V30 115 C 11.8089 -4.13846 -3.38579 0
M  V30 116 C 13.1089 -5.0342 -1.39161 0
M  V30 117 H 14.8029 -2.94738 -0.526281 0
M  V30 118 H 12.3489 -1.41783 -0.251704 0
M  V30 119 H 14.3019 -2.99669 -2.96271 0
M  V30 120 H 13.0259 -1.7737 -2.7424 0
M  V30 121 H 11.6849 -3.40217 -1.36557 0
M  V30 122 H 11.3329 -3.25232 -3.83709 0
M  V30 123 H 11.0329 -4.90312 -3.23834 0
M  V30 124 H 12.5569 -4.53086 -4.09323 0
M  V30 125 H 13.9709 -5.37812 -1.98573 0
M  V30 126 H 12.3679 -5.84746 -1.34878 0
M  V30 127 H 13.4379 -4.83548 -0.361868 0
M  V30 128 N 14.781 0.264519 -1.55364 0
M  V30 129 C 16.006 1.01726 -1.80739 0
M  V30 130 C 16.431 1.78836 -0.583044 0
M  V30 131 O 15.789 1.75167 0.467566 0
M  V30 132 C 15.837 1.94482 -3.03659 0
M  V30 133 O 14.941 3.03386 -2.7934 0
M  V30 134 H 14.282 0.290395 -0.597132 0
M  V30 135 H 16.812 0.290854 -2.02522 0
M  V30 136 H 16.822 2.36278 -3.32621 0
M  V30 137 H 15.497 1.37772 -3.92418 0
M  V30 138 H 14.074 2.65844 -2.61498 0
M  V30 139 N 16.2591 1.48442 0.529413 0
M  V30 140 C 17.4871 1.60151 1.30994 0
M  V30 141 C 17.9021 0.261985 1.86973 0
M  V30 142 O 17.2591 -0.748805 1.66431 0
M  V30 143 C 17.3101 2.64854 2.46038 0
M  V30 144 O 17.0311 3.93608 1.92365 0
M  V30 145 C 18.5321 2.87007 3.37849 0
M  V30 146 H 15.7521 0.539971 0.398338 0
M  V30 147 H 18.2961 1.94273 0.638597 0
M  V30 148 H 16.4511 2.33589 3.09055 0
M  V30 149 H 16.8651 4.51055 2.67675 0
M  V30 150 H 18.3391 3.64068 4.14919 0
M  V30 151 H 18.8161 1.95852 3.93114 0
M  V30 152 H 19.4221 3.19579 2.80623 0
M  V30 153 N 17.7372 -0.778329 1.37039 0
M  V30 154 C 18.9622 -1.57248 1.35233 0
M  V30 155 C 19.3872 -1.87999 -0.0615568 0
M  V30 156 O 18.7452 -1.48734 -1.03672 0
M  V30 157 C 18.7932 -2.86353 2.19167 0
M  V30 158 O 17.8972 -3.80442 1.59178 0
M  V30 159 H 17.2382 -0.476569 0.462362 0
M  V30 160 H 19.7682 -0.963853 1.80474 0
M  V30 161 H 19.7782 -3.35519 2.32145 0
M  V30 162 H 18.4532 -2.63299 3.21942 0
M  V30 163 H 17.0302 -3.39067 1.55203 0
M  V30 164 N 19.2153 -1.21501 -1.00376 0
M  V30 165 C 20.1783 -0.976927 -2.07337 0
M  V30 166 C 21.1783 0.0525322 -1.60714 0
M  V30 167 O 22.3683 -0.184869 -1.73216 0
M  V30 168 C 19.5003 -0.473423 -3.37597 0
M  V30 169 H 20.6933 -1.92587 -2.29892 0
M  V30 170 H 18.2463 -1.03217 -1.17371 0
M  V30 171 H 18.9813 0.480379 -3.20722 0
M  V30 172 H 18.7663 -1.216 -3.72768 0
M  V30 173 H 20.2563 -0.32675 -4.1632 0
M  V30 174 N 20.6934 1.19889 -1.02296 0
M  V30 175 C 21.6034 2.26571 -0.608508 0
M  V30 176 C 22.6194 1.70299 0.356964 0
M  V30 177 O 23.7954 2.00235 0.216326 0
M  V30 178 C 20.8604 3.46677 0.0402814 0
M  V30 179 C 19.9214 4.18153 -0.97194 0
M  V30 180 C 19.1544 5.32525 -0.354016 0
M  V30 181 O 19.3774 5.64112 0.844604 0
M  V30 182 O 18.3114 5.92242 -1.07391 0
M  V30 183 H 22.1374 2.64251 -1.49684 0
M  V30 184 H 19.7224 1.26629 -0.792809 0
M  V30 185 H 21.6044 4.19475 0.402324 0
M  V30 186 H 20.2794 3.10858 0.902707 0
M  V30 187 H 19.1864 3.47499 -1.38546 0
M  V30 188 H 20.5194 4.57927 -1.80454 0
M  V30 189 N 22.1715 0.800033 1.35784 0
M  V30 190 C 23.5825 0.439142 1.81462 0
M  V30 191 C 23.9335 -1.03813 1.66485 0
M  V30 192 O 23.0585 -1.80626 1.19177 0
M  V30 193 C 23.6535 0.790314 3.29453 0
M  V30 194 C 22.2125 0.482111 3.733 0
M  V30 195 C 21.3595 1.01938 2.57883 0
M  V30 196 H 24.3105 0.992254 1.23855 0
M  V30 197 H 24.3315 0.0853677 3.80404 0
M  V30 198 H 23.8435 1.86554 3.40322 0
M  V30 199 H 21.9445 -0.584652 3.67984 0
M  V30 200 H 22.0575 1.01015 4.6833 0
M  V30 201 H 20.4215 0.442043 2.50835 0
M  V30 202 H 21.2045 2.10059 2.71533 0
M  V30 203 N 23.6496 -1.47581 0.552962 0
M  V30 204 C 24.5796 -2.32762 -0.185451 0
M  V30 205 C 25.5606 -1.43527 -0.912905 0
M  V30 206 O 26.7456 -1.72388 -0.894201 0
M  V30 207 C 23.8756 -3.25219 -1.21859 0
M  V30 208 C 22.8296 -4.23661 -0.607864 0
M  V30 209 C 22.1556 -5.05413 -1.74533 0
M  V30 210 C 23.4556 -5.20481 0.435582 0
M  V30 211 H 25.1496 -2.94749 0.525684 0
M  V30 212 H 22.6956 -1.41738 0.254251 0
M  V30 213 H 24.6486 -3.8365 -1.7433 0
M  V30 214 H 23.3726 -2.61279 -1.95961 0
M  V30 215 H 22.0316 -3.66451 -0.104489 0
M  V30 216 H 21.6796 -4.3788 -2.47529 0
M  V30 217 H 21.3796 -5.72059 -1.34249 0
M  V30 218 H 22.9036 -5.66701 -2.27338 0
M  V30 219 H 24.3176 -5.733 -0.00290157 0
M  V30 220 H 22.7146 -5.95305 0.757067 0
M  V30 221 H 23.7846 -4.66217 1.33303 0
M  V30 222 N 25.1277 -0.289203 -1.54924 0
M  V30 223 C 26.3527 0.329299 -2.04769 0
M  V30 224 C 26.7777 1.4763 -1.16564 0
M  V30 225 O 26.1357 1.80527 -0.167186 0
M  V30 226 C 26.1837 0.774438 -3.52186 0
M  V30 227 O 25.2877 1.88038 -3.67036 0
M  V30 228 H 24.6287 0.0659259 -0.660719 0
M  V30 229 H 27.1587 -0.42761 -2.00082 0
M  V30 230 H 27.1687 1.06642 -3.93816 0
M  V30 231 H 25.8437 -0.0646707 -4.1585 0
M  V30 232 H 24.4207 1.58985 -3.3731 0
M  V30 233 N 26.6058 1.57591 -0.0167156 0
M  V30 234 C 28.0218 1.55946 0.339557 0
M  V30 235 C 28.2218 1.02109 1.73713 0
M  V30 236 O 27.2778 0.662303 2.43659 0
M  V30 237 C 28.5908 3.00037 0.199499 0
M  V30 238 C 30.1388 3.11805 0.273193 0
M  V30 239 C 30.6138 4.57713 0.162068 0
M  V30 240 N 32.1048 4.6268 0.219444 0
M  V30 241 C 32.8398 5.73185 0.157054 0
M  V30 242 N 32.3358 6.92786 0.0442936 0
M  V30 243 N 34.1288 5.61707 0.21014 0
M  V30 244 H 26.2798 1.90921 -0.930758 0
M  V30 245 H 28.5428 0.877674 -0.358319 0
M  V30 246 H 28.2488 3.4333 -0.76273 0
M  V30 247 H 28.1228 3.64387 0.974786 0
M  V30 248 H 30.5098 2.68433 1.22587 0
M  V30 249 H 30.5908 2.50201 -0.532256 0
M  V30 250 H 30.2348 5.01763 -0.78714 0
M  V30 251 H 30.1648 5.17283 0.986222 0
M  V30 252 H 32.6558 3.76649 0.307246 0
M  V30 253 H 32.9688 7.728 0.00304069 0
M  V30 254 H 31.3138 6.94999 0.00968457 0
M  V30 255 H 34.5048 4.6716 0.296546 0
M  V30 256 H 34.6778 6.47807 0.158054 0
M  V30 257 N 28.0839 -0.256276 1.55502 0
M  V30 258 C 29.3089 -1.00766 1.81276 0
M  V30 259 C 29.7339 -1.78524 0.59252 0
M  V30 260 O 29.0919 -1.75413 -0.45827 0
M  V30 261 C 29.1399 -1.92869 3.04687 0
M  V30 262 O 28.2439 -3.019 2.80945 0
M  V30 263 H 27.5849 -0.287224 0.598664 0
M  V30 264 H 30.1149 -0.280109 2.02674 0
M  V30 265 H 30.1249 -2.34511 3.33869 0
M  V30 266 H 28.7999 -1.35689 3.93143 0
M  V30 267 H 27.3769 -2.64454 2.62904 0
M  V30 268 N 29.562 -1.4872 -0.521534 0
M  V30 269 C 30.811 -1.56419 -1.27341 0
M  V30 270 C 31.124 -0.246805 -1.94037 0
M  V30 271 O 32.33 -0.202122 -2.70747 0
M  V30 272 C 30.786 -2.75896 -2.31105 0
M  V30 273 C 30.394 -4.14311 -1.70441 0
M  V30 274 C 32.138 -2.92913 -3.07249 0
M  V30 275 C 30.045 -5.25038 -2.72194 0
M  V30 276 H 28.975 -0.582344 -0.478949 0
M  V30 277 H 31.626 -1.75071 -0.549779 0
M  V30 278 H 30.008 -2.50697 -3.06541 0
M  V30 279 H 31.182 -4.49564 -1.01136 0
M  V30 280 H 29.497 -4.02482 -1.06759 0
M  V30 281 H 32.094 -3.72805 -3.83302 0
M  V30 282 H 32.437 -2.02689 -3.63625 0
M  V30 283 H 32.97 -3.18054 -2.38928 0
M  V30 284 H 29.709 -6.17255 -2.20627 0
M  V30 285 H 29.229 -4.94263 -3.39801 0
M  V30 286 H 30.908 -5.53508 -3.35019 0
M  V30 287 N 31.0401 0.771051 -1.3745 0
M  V30 288 C 32.2871 1.52963 -1.32697 0
M  V30 289 C 32.6151 1.94299 0.0883274 0
M  V30 290 O 31.8701 1.64397 1.0617 0
M  V30 291 C 32.1691 2.80676 -2.2126 0
M  V30 292 C 31.8351 2.58389 -3.69521 0
M  V30 293 C 30.4971 2.52019 -4.09927 0
M  V30 294 C 32.8491 2.38469 -4.63446 0
M  V30 295 C 30.1771 2.23721 -5.42371 0
M  V30 296 C 32.5291 2.11694 -5.96128 0
M  V30 297 C 31.1931 2.03769 -6.35637 0
M  V30 298 H 30.4631 0.559732 -0.485573 0
M  V30 299 H 33.1101 0.888083 -1.69662 0
M  V30 300 H 31.4151 3.49392 -1.77291 0
M  V30 301 H 33.1121 3.38557 -2.14895 0
M  V30 302 H 29.7021 2.6421 -3.37478 0
M  V30 303 H 33.8861 2.4238 -4.33089 0
M  V30 304 H 29.1421 2.16081 -5.71943 0
M  V30 305 H 33.3161 1.9528 -6.6846 0
M  V30 306 H 30.9431 1.81606 -7.38189 0
M  V30 307 N 32.5182 1.22032 0.997298 0
M  V30 308 C 33.9342 0.979326 1.26021 0
M  V30 309 C 34.1342 -0.32972 1.98784 0
M  V30 310 O 33.1902 -1.05345 2.29475 0
M  V30 311 C 34.5032 2.17509 2.07631 0
M  V30 312 C 36.0512 2.21817 2.2083 0
M  V30 313 C 36.5262 3.40933 3.05825 0
M  V30 314 N 38.0172 3.41067 3.13412 0
M  V30 315 C 38.7522 4.29885 3.79455 0
M  V30 316 N 38.2482 5.28914 4.47462 0
M  V30 317 N 40.0412 4.17673 3.76173 0
M  V30 318 H 32.1922 2.06202 0.509352 0
M  V30 319 H 34.4552 0.90334 0.287541 0
M  V30 320 H 34.1612 3.12415 1.61524 0
M  V30 321 H 34.0352 2.17206 3.08385 0
M  V30 322 H 36.4222 1.27462 2.66153 0
M  V30 323 H 36.5032 2.2616 1.1952 0
M  V30 324 H 36.1472 4.35586 2.61203 0
M  V30 325 H 36.0772 3.33829 4.07266 0
M  V30 326 H 38.5682 2.69406 2.65007 0
M  V30 327 H 38.8812 5.92973 4.95583 0
M  V30 328 H 37.2262 5.32831 4.46224 0
M  V30 329 H 40.4172 3.39564 3.22202 0
M  V30 330 H 40.5902 4.87098 4.27363 0
M  V30 331 N 33.9963 -1.19345 1.0293 0
M  V30 332 C 34.9433 -2.2258 0.610464 0
M  V30 333 C 35.9133 -1.6179 -0.375946 0
M  V30 334 O 37.0983 -1.88844 -0.272511 0
M  V30 335 C 34.2383 -3.45085 -0.0321473 0
M  V30 336 C 33.3513 -4.20258 1.00035 0
M  V30 337 C 32.4863 -5.3019 0.32746 0
M  V30 338 C 31.5253 -5.97121 1.34584 0
M  V30 339 N 30.6623 -6.98615 0.698726 0
M  V30 340 H 35.5023 -2.57764 1.49538 0
M  V30 341 H 33.0393 -1.26644 0.748311 0
M  V30 342 H 34.9973 -4.15061 -0.421966 0
M  V30 343 H 33.6273 -3.10555 -0.88064 0
M  V30 344 H 32.6793 -3.49223 1.50823 0
M  V30 345 H 33.9913 -4.66175 1.77433 0
M  V30 346 H 33.1453 -6.06587 -0.11718 0
M  V30 347 H 31.8843 -4.85345 -0.478713 0
M  V30 348 H 30.8893 -5.19474 1.80074 0
M  V30 349 H 32.1143 -6.4405 2.15352 0
M  V30 350 H 30.0603 -6.55942 -0.0873471 0
M  V30 351 H 29.9773 -7.42724 1.41058 0
M  V30 352 H 31.2453 -7.79004 0.278102 0
M  V30 353 N 35.4744 -0.807222 -1.35358 0
M  V30 354 C 36.7214 -0.387888 -1.9875 0
M  V30 355 C 37.0494 1.04509 -1.64037 0
M  V30 356 O 36.3044 1.73986 -0.895946 0
M  V30 357 C 36.6034 -0.519036 -3.53611 0
M  V30 358 C 36.2694 -1.91542 -4.08194 0
M  V30 359 C 34.9314 -2.29745 -4.22813 0
M  V30 360 C 37.2834 -2.82896 -4.37744 0
M  V30 361 C 34.6114 -3.58668 -4.643 0
M  V30 362 C 36.9634 -4.11265 -4.8067 0
M  V30 363 C 35.6274 -4.49466 -4.93494 0
M  V30 364 H 34.8974 -0.141938 -0.727279 0
M  V30 365 H 37.5444 -1.02814 -1.6156 0
M  V30 366 H 35.8494 0.204658 -3.91265 0
M  V30 367 H 37.5464 -0.175345 -4.00616 0
M  V30 368 H 34.1364 -1.60862 -3.97268 0
M  V30 369 H 38.3204 -2.54629 -4.26002 0
M  V30 370 H 33.5764 -3.88113 -4.72418 0
M  V30 371 H 37.7504 -4.82153 -5.02496 0
M  V30 372 H 35.3774 -5.49418 -5.25399 0
M  V30 373 N 36.9525 1.47285 -0.560781 0
M  V30 374 C 37.8825 2.32857 0.173105 0
M  V30 375 C 38.8635 1.44009 0.905281 0
M  V30 376 O 40.0485 1.7286 0.885046 0
M  V30 377 C 37.1785 3.25861 1.20133 0
M  V30 378 C 36.1325 4.23978 0.585388 0
M  V30 379 C 35.4585 5.06332 1.7185 0
M  V30 380 C 36.7585 5.20242 -0.463178 0
M  V30 381 H 38.4525 2.94466 -0.541307 0
M  V30 382 H 35.9985 1.41601 -0.261764 0
M  V30 383 H 37.9515 3.84569 1.72293 0
M  V30 384 H 36.6755 2.62315 1.94573 0
M  V30 385 H 35.3345 3.66501 0.085054 0
M  V30 386 H 34.9825 4.39186 2.45203 0
M  V30 387 H 34.6825 5.72762 1.31213 0
M  V30 388 H 36.2065 5.67899 2.24329 0
M  V30 389 H 37.6205 5.73293 -0.027502 0
M  V30 390 H 36.0175 5.94896 -0.788627 0
M  V30 391 H 37.0875 4.65504 -1.35773 0
M  V30 392 N 38.4306 0.297415 1.54768 0
M  V30 393 C 39.3606 -0.573494 2.26348 0
M  V30 394 C 40.3416 -1.14085 1.26169 0
M  V30 395 O 41.5266 -1.17086 1.54934 0
M  V30 396 C 38.6566 -1.74716 3.00153 0
M  V30 397 C 37.6106 -1.31032 4.07449 0
M  V30 398 C 36.9366 -2.56887 4.68949 0
M  V30 399 C 38.2366 -0.444183 5.20408 0
M  V30 400 H 39.9306 0.0235131 2.99391 0
M  V30 401 H 37.4766 0.0127488 1.43994 0
M  V30 402 H 39.4296 -2.3625 3.48947 0
M  V30 403 H 38.1536 -2.37035 2.24682 0
M  V30 404 H 36.8126 -0.718066 3.59499 0
M  V30 405 H 36.4606 -3.17512 3.90122 0
M  V30 406 H 36.1606 -2.2836 5.41411 0
M  V30 407 H 37.6846 -3.19229 5.20505 0
M  V30 408 H 39.0986 -0.9651 5.65118 0
M  V30 409 H 37.4956 -0.252846 5.99567 0
M  V30 410 H 38.5656 0.531609 4.81977 0
M  V30 411 N 39.9087 -1.5758 0.0250728 0
M  V30 412 C 40.8417 -2.05473 -0.992777 0
M  V30 413 C 41.8197 -0.949661 -1.31986 0
M  V30 414 O 43.0037 -1.21969 -1.43722 0
M  V30 415 C 40.1307 -2.4734 -2.31389 0
M  V30 416 C 39.1767 -3.68827 -2.1417 0
M  V30 417 S 40.0097 -5.15655 -1.44429 0
M  V30 418 C 41.1657 -5.60814 -2.77918 0
M  V30 419 H 41.3987 -2.91486 -0.585078 0
M  V30 420 H 38.9317 -1.53269 -0.186507 0
M  V30 421 H 40.8897 -2.72127 -3.07339 0
M  V30 422 H 39.5507 -1.6168 -2.69292 0
M  V30 423 H 38.7437 -3.95955 -3.11826 0
M  V30 424 H 38.3457 -3.44172 -1.46362 0
M  V30 425 H 40.6377 -5.64806 -3.74166 0
M  V30 426 H 41.5807 -6.60414 -2.55459 0
M  V30 427 H 41.9887 -4.8845 -2.82979 0
M  V30 428 N 41.3868 0.248026 -1.55636 0
M  V30 429 C 42.3168 1.31079 -1.93237 0
M  V30 430 C 43.2978 1.50264 -0.797174 0
M  V30 431 O 44.4828 1.62891 -1.05737 0
M  V30 432 C 41.6128 2.66575 -2.22609 0
M  V30 433 C 40.5668 2.62087 -3.3837 0
M  V30 434 C 39.8928 4.01369 -3.53281 0
M  V30 435 C 41.1928 2.19171 -4.7409 0
M  V30 436 H 42.8868 0.998556 -2.82257 0
M  V30 437 H 40.4328 0.47891 -1.35803 0
M  V30 438 H 42.3858 3.41057 -2.47503 0
M  V30 439 H 41.1098 2.99432 -1.30414 0
M  V30 440 H 39.7688 1.90063 -3.13483 0
M  V30 441 H 39.4168 4.31489 -2.58508 0
M  V30 442 H 39.1168 3.99254 -4.31127 0
M  V30 443 H 40.6408 4.77552 -3.80495 0
M  V30 444 H 42.0548 2.83384 -4.98363 0
M  V30 445 H 40.4518 2.2817 -5.5503 0
M  V30 446 H 41.5218 1.14336 -4.71227 0
M  V30 447 N 42.8649 1.48995 0.513639 0
M  V30 448 C 44.1049 1.59452 1.27885 0
M  V30 449 C 44.4689 0.269479 1.90099 0
M  V30 450 O 45.6699 0.249139 2.67643 0
M  V30 451 C 43.9409 2.71277 2.32688 0
M  V30 452 S 45.4999 3.01604 3.18717 0
M  V30 453 H 42.3179 0.562565 0.434789 0
M  V30 454 H 44.9199 1.86595 0.583301 0
M  V30 455 H 43.6239 3.66089 1.8549 0
M  V30 456 H 43.1549 2.46086 3.06929 0
M  V30 457 H 45.1699 2.42155 4.331 0
M  V30 458 N 44.343 -0.763751 1.37857 0
M  V30 459 C 45.568 -1.55805 1.36893 0
M  V30 460 C 45.993 -1.88054 -0.0416135 0
M  V30 461 O 45.351 -1.49825 -1.02089 0
M  V30 462 C 45.399 -2.84012 2.22192 0
M  V30 463 O 44.503 -3.78732 1.63204 0
M  V30 464 H 43.844 -0.471638 0.46739 0
M  V30 465 H 46.374 -0.944657 1.81487 0
M  V30 466 H 46.384 -3.33037 2.35691 0
M  V30 467 H 45.059 -2.59869 3.24716 0
M  V30 468 H 43.636 -3.37402 1.58791 0
M  V30 469 N 45.8211 -1.22559 -0.990812 0
M  V30 470 C 46.7511 -1.0218 -2.09956 0
M  V30 471 C 47.7321 0.0579394 -1.70001 0
M  V30 472 O 48.9171 -0.104684 -1.93918 0
M  V30 473 C 46.0471 -0.601023 -3.4206 0
M  V30 474 C 45.0011 -1.62694 -3.95872 0
M  V30 475 C 44.3271 -1.06193 -5.24049 0
M  V30 476 C 45.6271 -3.01743 -4.2632 0
M  V30 477 H 47.3211 -1.94916 -2.27262 0
M  V30 478 H 44.8671 -0.938566 -1.09211 0
M  V30 479 H 46.8201 -0.445561 -4.19038 0
M  V30 480 H 45.5441 0.362005 -3.24588 0
M  V30 481 H 44.2031 -1.77021 -3.21028 0
M  V30 482 H 43.8511 -0.0901903 -5.02919 0
M  V30 483 H 43.5511 -1.74732 -5.61019 0
M  V30 484 H 45.0751 -0.918092 -6.03658 0
M  V30 485 H 46.4891 -2.90777 -4.94087 0
M  V30 486 H 44.8861 -3.67425 -4.74467 0
M  V30 487 H 45.9561 -3.51518 -3.34011 0
M  V30 488 N 47.2992 1.18797 -1.03562 0
M  V30 489 C 48.2292 2.24472 -0.643019 0
M  V30 490 C 49.2102 1.66433 0.351283 0
M  V30 491 O 50.3952 1.92803 0.232505 0
M  V30 492 C 47.5252 3.473 4.24935e-05 0
M  V30 493 C 46.4792 4.18055 -0.917257 0
M  V30 494 C 45.8052 5.34519 -0.138941 0
M  V30 495 C 47.1052 4.72109 -2.23407 0
M  V30 496 H 48.7992 2.57566 -1.52643 0
M  V30 497 H 46.3452 1.23806 -0.735394 0
M  V30 498 H 48.2982 4.20426 0.286383 0
M  V30 499 H 47.0222 3.13424 0.918299 0
M  V30 500 H 45.6812 3.46821 -1.1879 0
M  V30 501 H 45.3292 4.96891 0.781562 0
M  V30 502 H 45.0292 5.82794 -0.750005 0
M  V30 503 H 46.5532 6.10438 0.1405 0
M  V30 504 H 47.9672 5.36955 -2.00879 0
M  V30 505 H 46.3642 5.30897 -2.79765 0
M  V30 506 H 47.4342 3.89807 -2.88407 0
M  V30 507 N 48.7773 0.814389 1.34928 0
M  V30 508 C 50.0053 0.411136 2.02774 0
M  V30 509 C 50.4203 -0.980316 1.61354 0
M  V30 510 O 49.7773 -1.63299 0.814847 0
M  V30 511 C 49.8283 0.493865 3.58111 0
M  V30 512 O 49.5493 1.83047 3.98027 0
M  V30 513 C 51.0503 0.0844174 4.4322 0
M  V30 514 H 48.2703 0.166037 0.650133 0
M  V30 515 H 50.8143 1.10018 1.72384 0
M  V30 516 H 48.9693 -0.147006 3.87121 0
M  V30 517 H 49.3833 1.79872 4.92693 0
M  V30 518 H 50.8573 0.193404 5.51661 0
M  V30 519 H 51.3343 -0.97113 4.28329 0
M  V30 520 H 51.9403 0.69875 4.19521 0
M  V30 521 N 50.2554 -1.46986 0.568584 0
M  V30 522 C 51.4804 -2.07335 0.0520528 0
M  V30 523 C 51.9054 -1.41675 -1.23733 0
M  V30 524 O 51.2634 -0.495623 -1.74394 0
M  V30 525 C 51.3114 -3.60417 -0.11501 0
M  V30 526 O 50.4154 -3.95309 -1.17492 0
M  V30 527 H 49.7564 -0.661597 0.0564385 0
M  V30 528 H 52.2864 -1.88837 0.787507 0
M  V30 529 H 52.2964 -4.06698 -0.325644 0
M  V30 530 H 50.9714 -4.07601 0.826675 0
M  V30 531 H 49.5484 -3.60757 -0.943869 0
M  V30 532 N 51.7335 -0.305618 -1.54608 0
M  V30 533 C 52.6635 0.561482 -2.26649 0
M  V30 534 C 53.6445 1.13415 -1.26772 0
M  V30 535 O 54.8295 1.16262 -1.55553 0
M  V30 536 C 51.9595 1.73122 -3.01075 0
M  V30 537 C 50.9135 1.2887 -4.08138 0
M  V30 538 C 50.2395 2.54396 -4.70305 0
M  V30 539 C 51.5395 0.416578 -5.20636 0
M  V30 540 H 53.2335 -0.0393902 -2.99374 0
M  V30 541 H 50.7795 -0.020385 -1.43986 0
M  V30 542 H 52.7325 2.34396 -3.50195 0
M  V30 543 H 51.4565 2.3584 -2.25936 0
M  V30 544 H 50.1155 0.698991 -3.59875 0
M  V30 545 H 49.7635 3.15439 -3.918 0
M  V30 546 H 49.4635 2.25486 -5.42614 0
M  V30 547 H 50.9875 3.16464 -5.2219 0
M  V30 548 H 52.4015 0.935116 -5.65622 0
M  V30 549 H 50.7985 0.221046 -5.99693 0
M  V30 550 H 51.8685 -0.557162 -4.81688 0
M  V30 551 N 53.2116 1.57565 -0.0334293 0
M  V30 552 C 54.4416 1.95996 0.653398 0
M  V30 553 C 54.8496 0.908749 1.65947 0
M  V30 554 O 54.1926 -0.117471 1.83324 0
M  V30 555 C 54.2546 3.30589 1.41249 0
M  V30 556 C 53.9186 4.53503 0.564263 0
M  V30 557 C 54.9156 5.19647 -0.16225 0
M  V30 558 C 52.6006 4.99801 0.500398 0
M  V30 559 C 54.5946 6.30412 -0.941255 0
M  V30 560 C 52.2816 6.10448 -0.282308 0
M  V30 561 C 53.2796 6.75612 -1.00184 0
M  V30 562 O 52.9676 7.84134 -1.77171 0
M  V30 563 H 52.6996 0.65027 0.184728 0
M  V30 564 H 55.2536 2.05199 -0.0907841 0
M  V30 565 H 53.4836 3.17888 2.20191 0
M  V30 566 H 55.1726 3.53892 1.98784 0
M  V30 567 H 55.9386 4.84846 -0.12227 0
M  V30 568 H 51.8176 4.48883 1.05002 0
M  V30 569 H 55.3616 6.81208 -1.50339 0
M  V30 570 H 51.2586 6.44686 -0.323989 0
M  V30 571 H 52.0266 8.00822 -1.69194 0
M  V30 572 N 54.6897 -0.239769 1.55765 0
M  V30 573 C 55.9357 -0.968234 1.78194 0
M  V30 574 C 56.2687 -1.84701 0.599938 0
M  V30 575 O 55.5437 -1.9031 -0.401524 0
M  V30 576 C 55.8267 -1.8227 3.10564 0
M  V30 577 C 55.6797 -0.971633 4.3918 0
M  V30 578 C 56.9987 -2.80388 3.39221 0
M  V30 579 H 54.1177 -0.350572 0.648281 0
M  V30 580 H 56.7597 -0.238259 1.885 0
M  V30 581 H 54.9097 -2.44507 3.01908 0
M  V30 582 H 56.5817 -0.367408 4.59835 0
M  V30 583 H 54.8247 -0.276276 4.32919 0
M  V30 584 H 55.4957 -1.60346 5.28198 0
M  V30 585 H 57.9717 -2.28287 3.47885 0
M  V30 586 H 56.8477 -3.3729 4.33044 0
M  V30 587 H 57.1087 -3.57212 2.60484 0
M  V30 588 N 56.1678 -1.49265 -0.50573 0
M  V30 589 C 57.4148 -1.58513 -1.26015 0
M  V30 590 C 57.7428 -0.26972 -1.92621 0
M  V30 591 O 56.9978 0.741997 -1.81088 0
M  V30 592 C 57.2968 -2.69008 -2.35308 0
M  V30 593 C 56.9628 -4.10662 -1.86192 0
M  V30 594 C 55.6248 -4.49212 -1.72516 0
M  V30 595 C 57.9768 -4.99336 -1.49375 0
M  V30 596 C 55.3048 -5.74214 -1.20394 0
M  V30 597 C 57.6568 -6.24852 -0.987072 0
M  V30 598 C 56.3208 -6.62236 -0.836669 0
M  V30 599 H 55.5908 -0.580041 -0.461122 0
M  V30 600 H 58.2378 -1.83078 -0.561665 0
M  V30 601 H 56.5428 -2.38396 -3.10926 0
M  V30 602 H 58.2398 -2.73373 -2.93374 0
M  V30 603 H 54.8298 -3.8023 -1.97795 0
M  V30 604 H 59.0138 -4.70212 -1.5879 0
M  V30 605 H 54.2698 -6.01883 -1.07458 0
M  V30 606 H 58.4438 -6.92944 -0.692983 0
M  V30 607 H 56.0708 -7.58979 -0.430607 0
M  V30 608 N 57.6459 0.756429 -1.3826 0
M  V30 609 C 58.8759 1.54341 -1.3734 0
M  V30 610 C 59.2839 1.89159 0.0393917 0
M  V30 611 O 58.6269 1.5307 1.01565 0
M  V30 612 C 58.6889 2.87238 -2.16182 0
M  V30 613 C 58.3529 2.74973 -3.65019 0
M  V30 614 C 59.3499 2.44962 -4.58574 0
M  V30 615 C 57.0349 2.92515 -4.08338 0
M  V30 616 C 59.0289 2.32642 -5.93428 0
M  V30 617 C 56.7159 2.79815 -5.43274 0
M  V30 618 C 57.7139 2.49921 -6.35632 0
M  V30 619 O 57.4019 2.37275 -7.68086 0
M  V30 620 H 57.1339 0.484281 -0.471643 0
M  V30 621 H 59.6879 0.944152 -1.82414 0
M  V30 622 H 57.9179 3.49342 -1.65822 0
M  V30 623 H 59.6069 3.48731 -2.07705 0
M  V30 624 H 60.3729 2.31081 -4.26412 0
M  V30 625 H 56.2519 3.14781 -3.368 0
M  V30 626 H 59.7959 2.0923 -6.65484 0
M  V30 627 H 55.6929 2.93269 -5.75034 0
M  V30 628 H 56.4609 2.52509 -7.78577 0
M  V30 629 N 59.124 1.23083 0.984299 0
M  V30 630 C 60.364 1.07226 1.74017 0
M  V30 631 C 60.728 -0.384766 1.88105 0
M  V30 632 O 61.929 -0.664411 2.60459 0
M  V30 633 C 60.2 1.77348 3.10294 0
M  V30 634 S 61.759 1.77014 4.01512 0
M  V30 635 H 58.577 0.383819 0.598502 0
M  V30 636 H 61.179 1.56158 1.17622 0
M  V30 637 H 59.883 2.82506 2.97689 0
M  V30 638 H 59.414 1.28682 3.71759 0
M  V30 639 H 61.429 0.825956 4.89277 0
M  V30 640 N 60.6021 -1.18246 1.0419 0
M  V30 641 C 61.5321 -2.24127 0.654914 0
M  V30 642 C 62.5131 -1.66617 -0.342451 0
M  V30 643 O 63.6981 -1.92924 -0.222277 0
M  V30 644 C 60.8281 -3.47295 0.0183757 0
M  V30 645 C 59.7821 -4.17563 0.939414 0
M  V30 646 C 59.1081 -5.34438 0.167286 0
M  V30 647 C 60.4081 -4.70917 2.25908 0
M  V30 648 H 62.1021 -2.56753 1.54007 0
M  V30 649 H 59.6481 -1.23414 0.74195 0
M  V30 650 H 61.6011 -4.20572 -0.264082 0
M  V30 651 H 60.3251 -3.13907 -0.901664 0
M  V30 652 H 58.9841 -3.46186 1.20628 0
M  V30 653 H 58.6321 -4.97298 -0.7552 0
M  V30 654 H 58.3321 -5.82388 0.780901 0
M  V30 655 H 59.8561 -6.10504 -0.108125 0
M  V30 656 H 61.2701 -5.35882 2.03724 0
M  V30 657 H 59.6671 -5.29406 2.82577 0
M  V30 658 H 60.7371 -3.88272 2.9047 0
M  V30 659 N 62.0802 -0.821533 -1.34494 0
M  V30 660 C 63.0432 -0.247847 -2.27856 0
M  V30 661 C 64.0432 0.573453 -1.50227 0
M  V30 662 O 65.2332 0.389759 -1.69784 0
M  V30 663 C 62.3652 0.652698 -3.34593 0
M  V30 664 H 63.5582 -1.07146 -2.80107 0
M  V30 665 H 61.1112 -0.593291 -1.44602 0
M  V30 666 H 61.8462 1.49943 -2.87555 0
M  V30 667 H 61.6312 0.065292 -3.92046 0
M  V30 668 H 63.1212 1.04793 -4.04238 0
M  V30 669 N 63.5583 1.46682 -0.576371 0
M  V30 670 C 64.4683 2.34032 0.163141 0
M  V30 671 C 65.4843 1.49367 0.892501 0
M  V30 672 O 66.6603 1.82252 0.857106 0
M  V30 673 C 63.7253 3.26435 1.16795 0
M  V30 674 C 62.7863 4.26998 0.443944 0
M  V30 675 C 62.0193 5.14986 1.40088 0
M  V30 676 O 62.2423 5.05785 2.637 0
M  V30 677 O 61.1763 5.94906 0.914917 0
M  V30 678 H 65.0023 2.98607 -0.55388 0
M  V30 679 H 62.5873 1.45554 -0.336821 0
M  V30 680 H 64.4693 3.83459 1.74748 0
M  V30 681 H 63.1443 2.64465 1.86655 0
M  V30 682 H 62.0513 3.7368 -0.177271 0
M  V30 683 H 63.3843 4.91736 -0.213566 0
M  V30 684 N 65.0364 0.313813 1.54444 0
M  V30 685 C 66.4524 -0.0391619 1.59552 0
M  V30 686 C 66.6524 -1.51322 1.33056 0
M  V30 687 O 65.7084 -2.26782 1.11022 0
M  V30 688 C 67.0214 0.370302 2.98411 0
M  V30 689 C 68.5694 0.320139 3.11358 0
M  V30 690 C 69.0444 0.704617 4.52547 0
M  V30 691 N 70.5354 0.657645 4.58508 0
M  V30 692 C 71.2704 0.927453 5.6585 0
M  V30 693 N 70.7664 1.26389 6.81174 0
M  V30 694 N 72.5594 0.853662 5.5558 0
M  V30 695 H 64.7104 1.27433 1.69925 0
M  V30 696 H 66.9734 0.517511 0.794284 0
M  V30 697 H 66.6794 1.39694 3.22767 0
M  V30 698 H 66.5534 -0.269619 3.76235 0
M  V30 699 H 68.9404 -0.697275 2.86744 0
M  V30 700 H 69.0214 0.99486 2.35661 0
M  V30 701 H 68.6654 1.7199 4.77893 0
M  V30 702 H 68.5954 0.00768843 5.26599 0
M  V30 703 H 71.0864 0.409067 3.75679 0
M  V30 704 H 71.3994 1.4554 7.58972 0
M  V30 705 H 69.7444 1.30206 6.82694 0
M  V30 706 H 72.9354 0.590383 4.64362 0
M  V30 707 H 73.1084 1.0673 6.3915 0
M  V30 708 N 66.5145 -1.57545 0.0417849 0
M  V30 709 C 67.7545 -1.94185 -0.63809 0
M  V30 710 C 68.1185 -0.919339 -1.68559 0
M  V30 711 O 69.3195 -1.17236 -2.41886 0
M  V30 712 C 67.5905 -3.35672 -1.22714 0
M  V30 713 S 69.1495 -3.94256 -1.92633 0
M  V30 714 H 65.9675 -0.679353 -0.209764 0
M  V30 715 H 68.5695 -1.95199 0.108479 0
M  V30 716 H 67.2735 -4.07898 -0.452503 0
M  V30 717 H 66.8045 -3.38132 -2.01073 0
M  V30 718 H 68.8195 -3.7872 -3.20602 0
M  V30 719 N 67.9926 0.231505 -1.5589 0
M  V30 720 C 68.9246 1.31006 -1.8807 0
M  V30 721 C 69.9376 1.43539 -0.768145 0
M  V30 722 O 71.1266 1.44614 -1.04638 0
M  V30 723 C 68.2266 2.68688 -2.06543 0
M  V30 724 C 67.3996 2.78228 -3.37502 0
M  V30 725 C 66.4586 3.96857 -3.4553 0
M  V30 726 O 65.4846 3.85662 -4.18633 0
M  V30 727 N 66.6866 5.1072 -2.75944 0
M  V30 728 H 69.4516 1.03731 -2.81176 0
M  V30 729 H 67.0126 0.421573 -1.56315 0
M  V30 730 H 69.0046 3.46412 -2.09239 0
M  V30 731 H 67.5746 2.88605 -1.20109 0
M  V30 732 H 66.7946 1.87059 -3.46991 0
M  V30 733 H 68.0826 2.81564 -4.23791 0
M  V30 734 H 67.4806 5.2271 -2.16311 0
M  V30 735 H 66.0376 5.86523 -2.84314 0
M  V30 736 N 69.4707 1.49531 0.497807 0
M  V30 737 C 70.6987 1.62893 1.27567 0
M  V30 738 C 71.1137 0.301585 1.86376 0
M  V30 739 O 70.4707 -0.713335 1.67982 0
M  V30 740 C 70.5217 2.70013 2.40364 0
M  V30 741 O 70.2427 3.976 1.83972 0
M  V30 742 C 71.7437 2.94109 3.31685 0
M  V30 743 H 68.9637 0.548298 0.386794 0
M  V30 744 H 71.5077 1.95584 0.597245 0
M  V30 745 H 69.6627 2.40092 3.04031 0
M  V30 746 H 70.0767 4.56631 2.58047 0
M  V30 747 H 71.5507 3.72788 4.07104 0
M  V30 748 H 72.0277 2.04147 3.88871 0
M  V30 749 H 72.6337 3.2546 2.73781 0
M  V30 750 N 70.9488 -0.749086 1.3866 0
M  V30 751 C 71.8788 -1.8764 1.38973 0
M  V30 752 C 72.8598 -1.68178 0.255004 0
M  V30 753 O 74.0448 -1.88704 0.458754 0
M  V30 754 C 71.1748 -3.25222 1.21851 0
M  V30 755 C 70.1288 -3.59295 2.32575 0
M  V30 756 C 69.4548 -4.95663 2.00555 0
M  V30 757 C 70.7548 -3.63709 3.7485 0
M  V30 758 H 72.4488 -1.87635 2.3331 0
M  V30 759 H 69.9948 -0.901329 1.12303 0
M  V30 760 H 71.9478 -4.03746 1.20695 0
M  V30 761 H 70.6718 -3.25719 0.239775 0
M  V30 762 H 69.3308 -2.83093 2.32925 0
M  V30 763 H 68.9788 -4.92724 1.01154 0
M  V30 764 H 68.6788 -5.19429 2.74714 0
M  V30 765 H 70.2028 -5.7656 2.01024 0
M  V30 766 H 71.6168 -4.32338 3.76506 0
M  V30 767 H 70.0138 -3.98986 4.48252 0
M  V30 768 H 71.0838 -2.63834 4.06841 0
M  V30 769 N 72.4269 -1.23603 -0.977757 0
M  V30 770 C 73.6519 -1.09735 -1.75991 0
M  V30 771 C 74.0769 0.346858 -1.84874 0
M  V30 772 O 73.4349 1.25093 -1.3123 0
M  V30 773 C 73.4829 -1.73051 -3.16363 0
M  V30 774 O 72.5869 -0.994452 -4.0023 0
M  V30 775 H 71.9279 -0.384476 -0.541364 0
M  V30 776 H 74.4579 -1.6371 -1.2272 0
M  V30 777 H 74.4679 -1.78398 -3.66931 0
M  V30 778 H 73.1429 -2.78137 -3.09213 0
M  V30 779 H 71.7199 -1.01812 -3.58732 0
M  V30 780 N 73.905 1.17692 -1.04816 0
M  V30 781 C 75.153 1.87488 -0.754497 0
M  V30 782 C 75.474 1.81205 0.720407 0
M  V30 783 O 74.744 1.23544 1.52032 0
M  V30 784 H 73.324 0.694101 -0.276102 0
M  V30 785 H 75.986 1.42793 -1.32651 0
M  V30 786 H 75.082 2.93328 -1.06606 0
M  V30 787 N 75.3831 0.828654 1.34056 0
M  V30 788 C 76.7941 0.477534 1.8049 0
M  V30 789 C 77.1451 -1.00258 1.6865 0
M  V30 790 O 76.2701 -1.78057 1.22982 0
M  V30 791 C 76.8651 0.860018 3.27703 0
M  V30 792 C 75.4241 0.561185 3.72193 0
M  V30 793 C 74.5711 1.07385 2.55663 0
M  V30 794 H 77.5221 1.0183 1.21722 0
M  V30 795 H 77.5431 0.166038 3.80138 0
M  V30 796 H 77.0551 1.93731 3.36288 0
M  V30 797 H 75.1561 -0.506465 3.69142 0
M  V30 798 H 75.2691 1.10926 4.66082 0
M  V30 799 H 73.6331 0.495149 2.49841 0
M  V30 800 H 74.4161 2.15771 2.67016 0
M  V30 801 N 76.8612 -1.46375 0.584142 0
M  V30 802 C 78.1072 -2.02678 0.0703716 0
M  V30 803 C 78.4402 -1.4545 -1.28678 0
M  V30 804 O 77.7152 -0.62014 -1.84349 0
M  V30 805 C 77.9982 -3.60099 0.00614674 0
M  V30 806 C 77.8512 -4.27709 1.3923 0
M  V30 807 C 79.1702 -4.34598 -0.693742 0
M  V30 808 H 76.2892 -0.736504 0.027047 0
M  V30 809 H 78.9312 -1.74501 0.751615 0
M  V30 810 H 77.0812 -3.84236 -0.574009 0
M  V30 811 H 78.7532 -4.14832 2.01773 0
M  V30 812 H 76.9962 -3.87016 1.95962 0
M  V30 813 H 77.6672 -5.36478 1.29982 0
M  V30 814 H 80.1432 -4.15615 -0.200869 0
M  V30 815 H 79.0192 -5.44318 -0.707714 0
M  V30 816 H 79.2802 -4.05759 -1.75533 0
M  V30 817 N 78.3393 -0.321999 -1.54275 0
M  V30 818 C 79.5853 0.281461 -2.00837 0
M  V30 819 C 79.9183 1.51909 -1.20985 0
M  V30 820 O 79.1933 1.923 -0.291733 0
M  V30 821 C 79.4763 0.617162 -3.54772 0
M  V30 822 C 79.3293 -0.631064 -4.45351 0
M  V30 823 C 80.6483 1.43542 -4.16033 0
M  V30 824 H 77.7673 0.100826 -0.730071 0
M  V30 825 H 80.4093 -0.438268 -1.84876 0
M  V30 826 H 78.5593 1.23034 -3.68504 0
M  V30 827 H 80.2313 -1.26934 -4.43492 0
M  V30 828 H 78.4743 -1.26025 -4.15091 0
M  V30 829 H 79.1453 -0.351735 -5.50878 0
M  V30 830 H 81.6213 0.917134 -4.05867 0
M  V30 831 H 80.4973 1.63907 -5.23856 0
M  V30 832 H 80.7583 2.43108 -3.69257 0
M  V30 833 N 79.8174 1.5752 -0.0501392 0
M  V30 834 C 81.0654 1.9227 0.622642 0
M  V30 835 C 81.3864 0.929083 1.71444 0
M  V30 836 O 80.6564 -0.0262186 1.95882 0
M  V30 837 H 79.2364 0.709739 0.232981 0
M  V30 838 H 81.8984 1.94628 -0.102898 0
M  V30 839 H 80.9944 2.93479 1.06191 0
M  V30 840 N 81.2955 -0.223234 1.56011 0
M  V30 841 C 82.2255 -1.27988 1.95298 0
M  V30 842 C 83.2065 -1.48976 0.820979 0
M  V30 843 O 84.3915 -1.61188 1.08315 0
M  V30 844 C 81.5215 -2.63 2.26822 0
M  V30 845 C 80.4755 -2.56671 3.42497 0
M  V30 846 C 79.8015 -3.95697 3.59622 0
M  V30 847 C 81.1015 -2.11601 4.77517 0
M  V30 848 H 82.7955 -0.953525 2.8381 0
M  V30 849 H 80.3415 -0.457244 1.36548 0
M  V30 850 H 82.2945 -3.37077 2.52898 0
M  V30 851 H 81.0185 -2.9732 1.35161 0
M  V30 852 H 79.6775 -1.85051 3.16467 0
M  V30 853 H 79.3255 -4.27322 2.6534 0
M  V30 854 H 79.0255 -3.92345 4.37424 0
M  V30 855 H 80.5495 -4.71438 3.88044 0
M  V30 856 H 81.9635 -2.7542 5.02809 0
M  V30 857 H 80.3605 -2.19311 5.5859 0
M  V30 858 H 81.4305 -1.06824 4.72987 0
M  V30 859 N 82.7736 -1.49793 -0.48987 0
M  V30 860 C 83.9986 -1.63836 -1.27172 0
M  V30 861 C 84.4236 -0.31402 -1.8546 0
M  V30 862 O 83.7816 0.719803 -1.66399 0
M  V30 863 C 83.8296 -2.71797 -2.36978 0
M  V30 864 O 82.9336 -2.31744 -3.41128 0
M  V30 865 H 82.2746 -0.547997 -0.37496 0
M  V30 866 H 84.8046 -1.96053 -0.585191 0
M  V30 867 H 84.8146 -2.94305 -2.82575 0
M  V30 868 H 83.4896 -3.67923 -1.93921 0
M  V30 869 H 82.0666 -2.1961 -3.01373 0
M  V30 870 N 84.2517 0.741722 -1.39055 0
M  V30 871 C 85.4997 1.49818 -1.35643 0
M  V30 872 C 85.8207 1.94938 0.0491642 0
M  V30 873 O 85.0907 1.68505 0.999141 0
M  V30 874 H 83.6707 0.555755 -0.499144 0
M  V30 875 H 86.3327 0.880957 -1.73854 0
M  V30 876 H 85.4287 2.38348 -2.01486 0
M  V30 877 N 85.7298 1.2412 0.971189 0
M  V30 878 C 86.9778 1.07668 1.71032 0
M  V30 879 C 87.2988 -0.385797 1.91146 0
M  V30 880 O 86.5688 -1.27569 1.4867 0
M  V30 881 H 85.1488 0.395429 0.633755 0
M  V30 882 H 87.8108 1.55984 1.16855 0
M  V30 883 H 86.9068 1.57195 2.69622 0
M  V30 884 N 87.2079 -1.17134 1.05439 0
M  V30 885 C 88.4559 -1.87085 0.764429 0
M  V30 886 C 88.7769 -1.81584 -0.710787 0
M  V30 887 O 88.0469 -1.24349 -1.51374 0
M  V30 888 H 86.6269 -0.692627 0.279779 0
M  V30 889 H 89.2889 -1.42087 1.33406 0
M  V30 890 H 88.3849 -2.92759 1.0816 0
M  V30 891 N 88.686 -0.835752 -1.33615 0
M  V30 892 C 89.596 -0.269088 -2.33052 0
M  V30 893 C 90.612 0.603251 -1.63208 0
M  V30 894 O 91.788 0.508112 -1.94885 0
M  V30 895 C 88.853 0.549091 -3.42324 0
M  V30 896 C 87.914 -0.347156 -4.27894 0
M  V30 897 C 87.147 0.43207 -5.31948 0
M  V30 898 O 87.37 1.66409 -5.45586 0
M  V30 899 O 86.304 -0.192298 -6.01593 0
M  V30 900 H 90.13 -1.09243 -2.83372 0
M  V30 901 H 87.715 -0.598198 -1.36901 0
M  V30 902 H 89.597 1.01414 -4.09015 0
M  V30 903 H 88.272 1.34955 -2.94226 0
M  V30 904 H 87.179 -0.859979 -3.64081 0
M  V30 905 H 88.512 -1.1123 -4.79467 0
M  V30 906 N 90.1641 1.46063 -0.591896 0
M  V30 907 C 91.0741 2.34192 0.13831 0
M  V30 908 C 92.0901 1.50305 0.876608 0
M  V30 909 O 93.2661 1.8315 0.837728 0
M  V30 910 C 90.3311 3.27656 1.13326 0
M  V30 911 C 89.3921 4.27445 0.39863 0
M  V30 912 C 88.6251 5.16443 1.34618 0
M  V30 913 O 88.8481 5.08553 2.58321 0
M  V30 914 O 87.7821 5.95843 0.851768 0
M  V30 915 H 91.6081 2.98002 -0.58552 0
M  V30 916 H 89.1931 1.45188 -0.352239 0
M  V30 917 H 91.0751 3.85291 1.70671 0
M  V30 918 H 89.7501 2.6643 1.83839 0
M  V30 919 H 88.6571 3.73471 -0.216895 0
M  V30 920 H 89.9901 4.91482 -0.265709 0
M  V30 921 N 91.6422 0.330177 1.54103 0
M  V30 922 C 92.6052 -0.520144 2.2322 0
M  V30 923 C 93.6052 -1.03828 1.22786 0
M  V30 924 O 94.7952 -0.929652 1.4732 0
M  V30 925 C 91.9272 -1.72317 2.94142 0
M  V30 926 H 93.1202 0.0841605 2.99782 0
M  V30 927 H 90.6732 0.0813433 1.56088 0
M  V30 928 H 91.4082 -2.36653 2.21734 0
M  V30 929 H 91.1932 -1.35898 3.67796 0
M  V30 930 H 92.6832 -2.3266 3.46784 0
M  V30 931 N 93.1203 -1.57491 0.0584922 0
M  V30 932 C 94.3683 -1.92597 -0.612436 0
M  V30 933 C 94.6893 -0.938162 -1.70949 0
M  V30 934 O 93.9593 0.0158301 -1.95894 0
M  V30 935 H 92.5393 -0.710964 -0.229214 0
M  V30 936 H 95.2013 -1.94571 0.113218 0
M  V30 937 H 94.2973 -2.94038 -1.04633 0
M  V30 938 N 94.5984 0.214957 -1.56127 0
M  V30 939 C 95.5614 1.24997 -1.92116 0
M  V30 940 C 96.5614 1.39467 -0.800344 0
M  V30 941 O 97.7514 1.37619 -1.06802 0
M  V30 942 C 94.8834 2.62271 -2.17777 0
M  V30 943 H 96.0764 0.942875 -2.84693 0
M  V30 944 H 93.6294 0.455654 -1.49511 0
M  V30 945 H 94.3644 2.98068 -1.27773 0
M  V30 946 H 94.1494 2.53143 -2.99434 0
M  V30 947 H 95.6394 3.36946 -2.46693 0
M  V30 948 N 96.0765 1.50051 0.48192 0
M  V30 949 C 97.4875 1.5348 1.06305 0
M  V30 950 C 97.8385 0.331997 1.93371 0
M  V30 951 O 96.9635 -0.556256 2.09129 0
M  V30 952 C 97.5585 2.7813 1.93466 0
M  V30 953 C 96.1175 2.84275 2.46707 0
M  V30 954 C 95.2645 2.47637 1.24785 0
M  V30 955 H 98.2155 1.56472 0.264995 0
M  V30 956 H 98.2365 2.59372 2.78399 0
M  V30 957 H 97.7485 3.65654 1.30072 0
M  V30 958 H 95.8495 2.01077 3.13686 0
M  V30 959 H 95.9625 3.8691 2.82555 0
M  V30 960 H 94.3265 1.99835 1.57918 0
M  V30 961 H 95.1095 3.37457 0.630694 0
M  V30 962 N 97.5546 -0.734337 1.39446 0
M  V30 963 C 98.8026 -1.49096 1.36436 0
M  V30 964 C 99.1236 -1.94961 -0.0388255 0
M  V30 965 O 98.3936 -1.69033 -0.990191 0
M  V30 966 H 96.9736 -0.5531 0.502085 0
M  V30 967 H 99.6356 -0.871725 1.74319 0
M  V30 968 H 98.7316 -2.37276 2.02747 0
M  V30 969 N 99.0327 -1.24633 -0.964593 0
M  V30 970 C 100.281 -1.08573 -1.70459 0
M  V30 971 C 100.602 0.375655 -1.91347 0
M  V30 972 O 99.8717 1.26779 -1.49345 0
M  V30 973 H 98.4517 -0.398784 -0.631649 0
M  V30 974 H 101.114 -1.56601 -1.16026 0
M  V30 975 H 100.21 -1.58623 -2.68785 0
M  V30 976 N 100.511 1.16574 -1.06058 0
M  V30 977 C 101.759 1.86677 -0.77434 0
M  V30 978 C 102.08 1.81959 0.701147 0
M  V30 979 O 101.35 1.2515 1.50713 0
M  V30 980 H 99.9298 0.691134 -0.283449 0
M  V30 981 H 102.592 1.41378 -1.34158 0
M  V30 982 H 101.688 2.92181 -1.09711 0
M  V30 983 N 101.989 0.842826 1.3317 0
M  V30 984 C 103.235 0.441099 1.97945 0
M  V30 985 C 103.568 -0.998024 1.66593 0
M  V30 986 O 102.843 -1.69839 0.947898 0
M  V30 987 C 103.126 0.666841 3.53872 0
M  V30 988 C 102.979 2.15352 3.94897 0
M  V30 989 C 104.298 0.115544 4.39948 0
M  V30 990 H 101.417 0.161739 0.719034 0
M  V30 991 H 104.059 1.05907 1.57746 0
M  V30 992 H 102.209 0.140828 3.88245 0
M  V30 993 H 103.881 2.7447 3.70761 0
M  V30 994 H 102.124 2.63653 3.44484 0
M  V30 995 H 102.795 2.26221 5.03516 0
M  V30 996 H 105.271 0.565213 4.12243 0
M  V30 997 H 104.147 0.303152 5.48062 0
M  V30 998 H 104.408 -0.980935 4.3108 0
M  V30 999 N 103.467 -1.45747 0.599634 0
M  V30 1000 C 104.397 -2.33235 -0.111306 0
M  V30 1001 C 105.378 -1.46359 -0.866781 0
M  V30 1002 O 106.563 -1.75146 -0.838904 0
M  V30 1003 C 103.693 -3.28932 -1.11451 0
M  V30 1004 C 102.647 -4.25381 -0.472772 0
M  V30 1005 C 101.973 -5.1071 -1.58365 0
M  V30 1006 C 103.273 -5.18831 0.600948 0
M  V30 1007 H 104.967 -2.92927 0.61919 0
M  V30 1008 H 102.513 -1.40857 0.299215 0
M  V30 1009 H 104.466 -3.89002 -1.62036 0
M  V30 1010 H 103.19 -2.67381 -1.8755 0
M  V30 1011 H 101.849 -3.66598 0.0121472 0
M  V30 1012 H 101.497 -4.45533 -2.33473 0
M  V30 1013 H 101.197 -5.7604 -1.15982 0
M  V30 1014 H 102.721 -5.73647 -2.09194 0
M  V30 1015 H 104.135 -5.73019 0.179491 0
M  V30 1016 H 102.532 -5.92595 0.946076 0
M  V30 1017 H 103.602 -4.6174 1.48068 0
M  V30 1018 N 104.945 -0.338344 -1.53925 0
M  V30 1019 C 105.908 0.508299 -2.23493 0
M  V30 1020 C 106.908 1.03175 -1.23335 0
M  V30 1021 O 108.098 0.921826 -1.47811 0
M  V30 1022 C 105.23 1.70754 -2.95052 0
M  V30 1023 H 106.423 -0.100058 -2.99733 0
M  V30 1024 H 103.976 -0.0896198 -1.56043 0
M  V30 1025 H 104.711 2.35474 -2.22986 0
M  V30 1026 H 104.496 1.33946 -3.68512 0
M  V30 1027 H 105.986 2.30818 -3.48013 0
M  V30 1028 N 106.423 1.57458 -0.0668435 0
M  V30 1029 C 107.671 1.92919 0.602214 0
M  V30 1030 C 107.992 0.947215 1.70449 0
M  V30 1031 O 107.262 -0.00544117 1.95899 0
M  V30 1032 H 105.842 0.71217 0.22544 0
M  V30 1033 H 108.504 1.94508 -0.123535 0
M  V30 1034 H 107.6 2.94589 1.03073 0
M  V30 1035 N 107.901 -0.206675 1.56239 0
M  V30 1036 C 109.149 -0.927007 1.79586 0
M  V30 1037 C 109.47 -1.8427 0.637929 0
M  V30 1038 O 108.74 -1.92849 -0.344398 0
M  V30 1039 H 107.32 -0.345292 0.662407 0
M  V30 1040 H 109.982 -0.21496 1.93711 0
M  V30 1041 H 109.078 -1.52501 2.72305 0
M  V30 1042 N 109.379 -1.50304 -0.473955 0
M  V30 1043 C 110.79 -1.54042 -1.0549 0
M  V30 1044 C 111.141 -0.342248 -1.93192 0
M  V30 1045 O 110.266 0.545157 -2.09421 0
M  V30 1046 C 110.861 -2.79152 -1.91989 0
M  V30 1047 C 109.42 -2.8558 -2.45196 0
M  V30 1048 C 108.567 -2.48295 -1.2347 0
M  V30 1049 H 111.518 -1.5661 -0.256693 0
M  V30 1050 H 111.539 -2.60845 -2.7702 0
M  V30 1051 H 111.051 -3.66339 -1.28131 0
M  V30 1052 H 109.152 -2.02738 -3.12615 0
M  V30 1053 H 109.265 -3.88403 -2.80499 0
M  V30 1054 H 107.629 -2.00669 -1.56856 0
M  V30 1055 H 108.412 -3.37787 -0.612789 0
M  V30 1056 N 110.857 0.726932 -1.39834 0
M  V30 1057 C 112.273 1.03354 -1.21615 0
M  V30 1058 C 112.473 2.01327 -0.08338 0
M  V30 1059 O 111.529 2.46158 0.56238 0
M  V30 1060 C 112.842 1.58811 -2.55342 0
M  V30 1061 C 114.39 1.70851 -2.62257 0
M  V30 1062 C 114.865 2.29716 -3.96225 0
M  V30 1063 N 116.356 2.37116 -3.97907 0
M  V30 1064 C 117.091 2.83619 -4.98345 0
M  V30 1065 N 116.587 3.29958 -6.09179 0
M  V30 1066 N 118.38 2.82901 -4.8572 0
M  V30 1067 H 110.531 0.0773069 -2.12259 0
M  V30 1068 H 112.794 0.0969102 -0.943034 0
M  V30 1069 H 112.5 0.942855 -3.38826 0
M  V30 1070 H 112.374 2.57502 -2.75632 0
M  V30 1071 H 114.761 2.34497 -1.79152 0
M  V30 1072 H 114.842 0.707913 -2.45809 0
M  V30 1073 H 114.486 1.66696 -4.79765 0
M  V30 1074 H 114.416 3.30469 -4.09997 0
M  V30 1075 H 116.907 2.04374 -3.17868 0
M  V30 1076 H 117.22 3.63976 -6.8172 0
M  V30 1077 H 115.565 3.27946 -6.12761 0
M  V30 1078 H 118.756 2.46027 -3.98231 0
M  V30 1079 H 118.929 3.18827 -5.6414 0
M  V30 1080 N 112.336 1.25143 0.95797 0
M  V30 1081 C 113.246 1.06968 2.08794 0
M  V30 1082 C 114.262 0.00773911 1.73998 0
M  V30 1083 O 115.438 0.207972 2.00323 0
M  V30 1084 C 112.503 0.68691 3.39827 0
M  V30 1085 C 111.564 1.82641 3.88511 0
M  V30 1086 C 110.797 1.46181 5.1329 0
M  V30 1087 O 111.02 0.355971 5.69288 0
M  V30 1088 O 109.954 2.29085 5.566 0
M  V30 1089 H 113.78 2.01723 2.27027 0
M  V30 1090 H 111.365 1.04051 1.07209 0
M  V30 1091 H 113.247 0.485417 4.18595 0
M  V30 1092 H 111.922 -0.231417 3.22872 0
M  V30 1093 H 110.829 2.08274 3.10762 0
M  V30 1094 H 112.162 2.72386 4.09959 0
M  V30 1095 N 113.814 -1.1601 1.06675 0
M  V30 1096 C 114.744 -2.22688 0.702307 0
M  V30 1097 C 115.725 -1.67306 -0.307032 0
M  V30 1098 O 116.91 -1.93352 -0.181305 0
M  V30 1099 C 114.04 -3.47178 0.092038 0
M  V30 1100 C 112.994 -4.15477 1.02777 0
M  V30 1101 C 112.32 -5.33963 0.28061 0
M  V30 1102 C 113.62 -4.66019 2.35846 0
M  V30 1103 H 115.314 -2.53429 1.59419 0
M  V30 1104 H 112.86 -1.21813 0.767961 0
M  V30 1105 H 114.813 -4.21037 -0.174814 0
M  V30 1106 H 113.537 -3.15749 -0.834877 0
M  V30 1107 H 112.196 -3.43549 1.27944 0
M  V30 1108 H 111.844 -4.98788 -0.649545 0
M  V30 1109 H 111.544 -5.806 0.904258 0
M  V30 1110 H 113.068 -6.10596 0.021396 0
M  V30 1111 H 114.482 -5.3144 2.15045 0
M  V30 1112 H 112.879 -5.23293 2.93743 0
M  V30 1113 H 113.949 -3.82023 2.98641 0
M  V30 1114 N 115.292 -0.849877 -1.32721 0
M  V30 1115 C 116.255 -0.296122 -2.27279 0
M  V30 1116 C 117.255 0.541458 -1.5141 0
M  V30 1117 O 118.445 0.353658 -1.70572 0
M  V30 1118 C 115.577 0.581579 -3.35902 0
M  V30 1119 H 116.77 -1.13064 -2.77771 0
M  V30 1120 H 114.323 -0.62383 -1.43311 0
M  V30 1121 H 115.058 1.43809 -2.9067 0
M  V30 1122 H 114.843 -0.0178814 -3.92096 0
M  V30 1123 H 116.333 0.961951 -4.0637 0
M  V30 1124 N 116.77 1.45427 -0.607355 0
M  V30 1125 C 118.016 2.0254 -0.102607 0
M  V30 1126 C 118.349 1.47478 1.26348 0
M  V30 1127 O 117.624 0.64939 1.83339 0
M  V30 1128 C 117.907 3.60044 -0.0634347 0
M  V30 1129 C 117.76 4.2544 -1.46017 0
M  V30 1130 C 119.079 4.35646 0.624514 0
M  V30 1131 H 116.198 0.73598 -0.0387607 0
M  V30 1132 H 118.84 1.73284 -0.779282 0
M  V30 1133 H 116.99 3.85101 0.512808 0
M  V30 1134 H 118.662 4.11569 -2.08347 0
M  V30 1135 H 116.905 3.83849 -2.02094 0
M  V30 1136 H 117.576 5.34342 -1.385 0
M  V30 1137 H 120.052 4.15882 0.134723 0
M  V30 1138 H 118.928 5.45376 0.621028 0
M  V30 1139 H 119.189 4.08501 1.69055 0
M  V30 1140 N 118.248 0.346503 1.53744 0
M  V30 1141 C 119.494 -0.242135 2.01954 0
M  V30 1142 C 119.849 -1.47962 1.22984 0
M  V30 1143 O 119.142 -1.89077 0.309924 0
M  V30 1144 C 119.336 -0.605809 3.52228 0
M  V30 1145 C 119.165 0.594882 4.45748 0
M  V30 1146 C 117.935 1.1011 4.93157 0
M  V30 1147 C 120.133 1.45425 4.93311 0
M  V30 1148 N 118.115 2.26381 5.70636 0
M  V30 1149 C 119.486 2.46383 5.68942 0
M  V30 1150 C 121.541 1.47935 4.75415 0
M  V30 1151 C 120.244 3.49684 6.28581 0
M  V30 1152 C 122.27 2.50119 5.35905 0
M  V30 1153 C 121.632 3.49803 6.11406 0
M  V30 1154 H 117.731 -0.0518296 0.780281 0
M  V30 1155 H 120.315 0.486736 1.88518 0
M  V30 1156 H 118.486 -1.30378 3.65864 0
M  V30 1157 H 120.218 -1.17789 3.87179 0
M  V30 1158 H 116.973 0.668721 4.68855 0
M  V30 1159 H 117.397 2.85094 6.14044 0
M  V30 1160 H 122.039 0.722274 4.16585 0
M  V30 1161 H 119.757 4.26285 6.86518 0
M  V30 1162 H 123.343 2.52892 5.23963 0
M  V30 1163 H 122.223 4.27576 6.5738 0
M  V30 1164 N 119.726 -1.57421 0.075193 0
M  V30 1165 C 121.137 -1.81021 -0.456964 0
M  V30 1166 C 121.488 -0.98936 -1.69429 0
M  V30 1167 O 120.613 -0.212865 -2.15351 0
M  V30 1168 C 121.208 -3.28329 -0.83581 0
M  V30 1169 C 119.767 -3.52764 -1.31281 0
M  V30 1170 C 118.914 -2.75676 -0.299648 0
M  V30 1171 H 121.865 -1.55822 0.300856 0
M  V30 1172 H 121.886 -3.40564 -1.69696 0
M  V30 1173 H 121.398 -3.88046 0.0649238 0
M  V30 1174 H 119.499 -2.98355 -2.23193 0
M  V30 1175 H 119.612 -4.61451 -1.28839 0
M  V30 1176 H 117.976 -2.42538 -0.777641 0
M  V30 1177 H 118.759 -3.38132 0.593417 0
M  V30 1178 N 121.204 0.198386 -1.56346 0
M  V30 1179 C 122.167 1.22952 -1.93431 0
M  V30 1180 C 123.167 1.38611 -0.815092 0
M  V30 1181 O 124.357 1.36479 -1.08255 0
M  V30 1182 C 121.489 2.59946 -2.20546 0
M  V30 1183 H 122.682 0.912626 -2.85677 0
M  V30 1184 H 120.235 0.43977 -1.49986 0
M  V30 1185 H 120.97 2.96696 -1.30927 0
M  V30 1186 H 120.755 2.49953 -3.02102 0
M  V30 1187 H 122.245 3.3431 -2.50253 0
M  V30 1188 N 122.682 1.50554 0.465978 0
M  V30 1189 C 123.645 1.69233 1.54574 0
M  V30 1190 C 124.645 0.562901 1.50626 0
M  V30 1191 O 125.835 0.830016 1.53155 0
M  V30 1192 C 122.967 1.7223 2.94193 0
M  V30 1193 H 124.16 2.65571 1.39327 0
M  V30 1194 H 121.713 1.40111 0.692711 0
M  V30 1195 H 122.448 0.77603 3.14878 0
M  V30 1196 H 122.233 2.54285 2.98466 0
M  V30 1197 H 123.723 1.88618 3.72576 0
M  V30 1198 N 124.16 -0.719506 1.40217 0
M  V30 1199 C 125.123 -1.8153 1.39927 0
M  V30 1200 C 126.123 -1.58095 0.293723 0
M  V30 1201 O 127.313 -1.65209 0.552429 0
M  V30 1202 C 124.445 -3.19561 1.18716 0
M  V30 1203 H 125.638 -1.83186 2.37451 0
M  V30 1204 H 123.191 -0.924746 1.26008 0
M  V30 1205 H 123.926 -3.23557 0.219366 0
M  V30 1206 H 123.711 -3.3797 1.98793 0
M  V30 1207 H 125.201 -3.99598 1.21291 0
M  V30 1208 N 125.638 -1.25649 -0.95132 0
M  V30 1209 C 126.57 -1.02112 -2.05197 0
M  V30 1210 C 127.583 0.0150571 -1.62793 0
M  V30 1211 O 128.772 -0.223874 -1.77091 0
M  V30 1212 C 125.872 -0.522361 -3.3485 0
M  V30 1213 C 125.045 -1.62546 -4.06076 0
M  V30 1214 C 124.104 -1.12649 -5.14001 0
M  V30 1215 O 123.13 -1.82156 -5.39266 0
M  V30 1216 N 124.332 0.03047 -5.80492 0
M  V30 1217 H 127.097 -1.96885 -2.25957 0
M  V30 1218 H 124.658 -1.16899 -1.1201 0
M  V30 1219 H 126.65 -0.172961 -4.0433 0
M  V30 1220 H 125.22 0.33151 -3.10837 0
M  V30 1221 H 124.44 -2.14628 -3.30649 0
M  V30 1222 H 125.728 -2.36644 -4.50419 0
M  V30 1223 H 125.126 0.611169 -5.62389 0
M  V30 1224 H 123.683 0.320875 -6.5101 0
M  V30 1225 N 127.117 1.15442 -1.07289 0
M  V30 1226 C 128.533 1.38201 -0.798288 0
M  V30 1227 C 128.733 1.92429 0.597769 0
M  V30 1228 O 127.789 2.12962 1.3566 0
M  V30 1229 C 129.102 2.35357 -1.87156 0
M  V30 1230 C 130.65 2.49021 -1.89624 0
M  V30 1231 C 131.125 3.49468 -2.96034 0
M  V30 1232 N 132.616 3.57003 -2.95132 0
M  V30 1233 C 133.351 4.34543 -3.74112 0
M  V30 1234 N 132.847 5.15421 -4.6294 0
M  V30 1235 N 134.64 4.29625 -3.62462 0
M  V30 1236 H 126.791 0.78584 -1.97328 0
M  V30 1237 H 129.054 0.408065 -0.855679 0
M  V30 1238 H 128.76 2.02626 -2.87464 0
M  V30 1239 H 128.634 3.35129 -1.73114 0
M  V30 1240 H 131.021 2.81051 -0.899687 0
M  V30 1241 H 131.102 1.4925 -2.07745 0
M  V30 1242 H 130.746 3.18173 -3.95889 0
M  V30 1243 H 130.676 4.48992 -2.75161 0
M  V30 1244 H 133.167 2.99276 -2.30743 0
M  V30 1245 H 133.48 5.7183 -5.19837 0
M  V30 1246 H 131.825 5.14729 -4.66989 0
M  V30 1247 H 135.016 3.65505 -2.92444 0
M  V30 1248 H 135.189 4.89807 -4.24256 0
M  V30 1249 N 128.595 0.856903 1.32268 0
M  V30 1250 C 129.542 0.301172 2.28827 0
M  V30 1251 C 130.512 -0.593104 1.5515 0
M  V30 1252 O 131.697 -0.527537 1.83362 0
M  V30 1253 C 128.837 -0.502523 3.41422 0
M  V30 1254 C 127.95 0.417797 4.29975 0
M  V30 1255 C 127.085 -0.398749 5.29701 0
M  V30 1256 C 126.124 0.518827 6.09897 0
M  V30 1257 N 125.261 -0.260674 7.01616 0
M  V30 1258 H 130.101 1.12983 2.75751 0
M  V30 1259 H 127.638 0.568582 1.35667 0
M  V30 1260 H 129.596 -0.984141 4.05426 0
M  V30 1261 H 128.226 -1.29599 2.95642 0
M  V30 1262 H 127.278 1.01781 3.66531 0
M  V30 1263 H 128.59 1.12191 4.86019 0
M  V30 1264 H 127.744 -0.943435 5.9932 0
M  V30 1265 H 126.483 -1.13622 4.7428 0
M  V30 1266 H 125.488 1.07538 5.39181 0
M  V30 1267 H 126.713 1.25495 6.67404 0
M  V30 1268 H 124.659 -0.981198 6.4862 0
M  V30 1269 H 124.576 0.384364 7.55022 0
M  V30 1270 H 125.844 -0.787014 7.75517 0
M  V30 1271 N 130.073 -1.45103 0.615059 0
M  V30 1272 C 131.489 -1.57137 0.279322 0
M  V30 1273 C 131.689 -1.60523 -1.21797 0
M  V30 1274 O 130.745 -1.53956 -2.00134 0
M  V30 1275 C 132.058 -2.85062 0.957083 0
M  V30 1276 C 133.606 -2.98749 0.933706 0
M  V30 1277 C 134.081 -4.29455 1.59162 0
M  V30 1278 N 135.572 -4.36231 1.55746 0
M  V30 1279 C 136.307 -5.36051 2.0356 0
M  V30 1280 N 135.803 -6.42367 2.59494 0
M  V30 1281 N 137.596 -5.27456 1.94284 0
M  V30 1282 H 129.747 -1.41148 1.58717 0
M  V30 1283 H 132.01 -0.675331 0.665306 0
M  V30 1284 H 131.716 -2.88488 2.01166 0
M  V30 1285 H 131.59 -3.7407 0.48494 0
M  V30 1286 H 133.977 -2.94886 -0.112347 0
M  V30 1287 H 134.058 -2.11132 1.44419 0
M  V30 1288 H 133.702 -4.34077 2.63704 0
M  V30 1289 H 133.632 -5.15901 1.0561 0
M  V30 1290 H 136.123 -3.60011 1.14893 0
M  V30 1291 H 136.436 -7.14793 2.93752 0
M  V30 1292 H 134.781 -6.43097 2.63537 0
M  V30 1293 H 137.972 -4.43308 1.5032 0
M  V30 1294 H 138.145 -6.05099 2.3186 0
M  V30 1295 N 131.551 -0.354651 -1.53558 0
M  V30 1296 C 132.481 0.489091 -2.2832 0
M  V30 1297 C 133.462 1.09324 -1.30316 0
M  V30 1298 O 134.647 1.11255 -1.59173 0
M  V30 1299 C 131.777 1.63456 -3.0643 0
M  V30 1300 C 130.731 1.1582 -4.12031 0
M  V30 1301 C 130.057 2.39305 -4.7816 0
M  V30 1302 C 131.357 0.250731 -5.21698 0
M  V30 1303 H 133.051 -0.134614 -2.99097 0
M  V30 1304 H 130.597 -0.0661826 -1.43848 0
M  V30 1305 H 132.55 2.23136 -3.57475 0
M  V30 1306 H 131.274 2.28533 -2.33325 0
M  V30 1307 H 129.933 0.584146 -3.61916 0
M  V30 1308 H 129.581 3.02814 -4.01637 0
M  V30 1309 H 129.281 2.08109 -5.49513 0
M  V30 1310 H 130.805 2.99691 -5.31994 0
M  V30 1311 H 132.219 0.754695 -5.68311 0
M  V30 1312 H 130.616 0.0301468 -6.00092 0
M  V30 1313 H 131.686 -0.710125 -4.79672 0
M  V30 1314 N 133.029 1.57378 -0.0835403 0
M  V30 1315 C 133.959 2.1641 0.87686 0
M  V30 1316 C 134.94 1.09429 1.30228 0
M  V30 1317 O 136.125 1.37516 1.37124 0
M  V30 1318 C 133.255 2.73517 2.14022 0
M  V30 1319 C 132.209 3.85769 1.85381 0
M  V30 1320 C 131.535 4.29529 3.18448 0
M  V30 1321 C 132.835 5.09486 1.14984 0
M  V30 1322 H 134.529 2.96914 0.385059 0
M  V30 1323 H 132.075 1.42823 0.18377 0
M  V30 1324 H 134.028 3.13463 2.81636 0
M  V30 1325 H 132.752 1.90252 2.65465 0
M  V30 1326 H 131.411 3.46345 1.20169 0
M  V30 1327 H 131.059 3.43169 3.67755 0
M  V30 1328 H 130.759 5.05204 3.00071 0
M  V30 1329 H 132.283 4.72099 3.8724 0
M  V30 1330 H 133.697 5.46674 1.72687 0
M  V30 1331 H 132.094 5.90515 1.06826 0
M  V30 1332 H 133.164 4.84724 0.130749 0
M  V30 1333 N 134.507 -0.190092 1.56449 0
M  V30 1334 C 135.439 -1.25973 1.91477 0
M  V30 1335 C 136.452 -1.41452 0.805931 0
M  V30 1336 O 137.641 -1.41789 1.08435 0
M  V30 1337 C 134.741 -2.63117 2.13594 0
M  V30 1338 C 133.914 -2.69182 3.4476 0
M  V30 1339 C 132.973 -3.87557 3.5593 0
M  V30 1340 O 131.999 -3.74427 4.28711 0
M  V30 1341 N 133.201 -5.03224 2.89388 0
M  V30 1342 H 135.966 -0.962394 2.83828 0
M  V30 1343 H 133.527 -0.379981 1.57378 0
M  V30 1344 H 135.519 -3.40742 2.1835 0
M  V30 1345 H 134.089 -2.85319 1.27719 0
M  V30 1346 H 133.309 -1.77793 3.51828 0
M  V30 1347 H 134.597 -2.70229 4.31107 0
M  V30 1348 H 133.995 -5.16791 2.30094 0
M  V30 1349 H 132.552 -5.78778 2.99764 0
M  V30 1350 N 135.985 -1.50799 -0.457987 0
M  V30 1351 C 136.915 -1.73553 -1.5621 0
M  V30 1352 C 137.896 -0.584774 -1.59732 0
M  V30 1353 O 139.081 -0.825314 -1.7579 0
M  V30 1354 C 136.211 -1.84169 -2.94447 0
M  V30 1355 C 135.165 -2.99461 -3.0579 0
M  V30 1356 C 134.491 -2.95235 -4.45803 0
M  V30 1357 C 135.791 -4.39766 -2.81786 0
M  V30 1358 H 137.485 -2.66 -1.37421 0
M  V30 1359 H 135.031 -1.28002 -0.659662 0
M  V30 1360 H 136.984 -1.98672 -3.71628 0
M  V30 1361 H 135.708 -0.883545 -3.14422 0
M  V30 1362 H 134.367 -2.8463 -2.31044 0
M  V30 1363 H 134.015 -1.97239 -4.62715 0
M  V30 1364 H 133.715 -3.72642 -4.54326 0
M  V30 1365 H 135.239 -3.11803 -5.24987 0
M  V30 1366 H 136.653 -4.55054 -3.4871 0
M  V30 1367 H 135.05 -5.18722 -3.0174 0
M  V30 1368 H 136.12 -4.51229 -1.7754 0
M  V30 1369 N 137.463 0.71206 -1.40597 0
M  V30 1370 C 138.874 1.29135 -1.34837 0
M  V30 1371 C 139.225 1.96186 -0.0235395 0
M  V30 1372 O 138.35 1.97768 0.878444 0
M  V30 1373 C 138.945 2.34827 -2.44217 0
M  V30 1374 C 137.504 2.88371 -2.41907 0
M  V30 1375 C 136.651 1.62202 -2.24913 0
M  V30 1376 H 139.602 0.507944 -1.50352 0
M  V30 1377 H 139.623 3.15749 -2.12327 0
M  V30 1378 H 139.135 1.85996 -3.40627 0
M  V30 1379 H 137.236 3.41422 -1.49204 0
M  V30 1380 H 137.349 3.39925 -3.37621 0
M  V30 1381 H 135.713 1.874 -1.72492 0
M  V30 1382 H 136.496 1.15391 -3.23326 0
M  V30 1383 N 138.941 1.26152 0.944643 0
M  V30 1384 C 139.873 1.03199 2.04652 0
M  V30 1385 C 140.886 -0.00642356 1.62799 0
M  V30 1386 O 142.075 0.233263 1.76969 0
M  V30 1387 C 139.175 0.540111 3.34568 0
M  V30 1388 C 138.348 1.64697 4.05208 0
M  V30 1389 C 137.407 1.15374 5.13396 0
M  V30 1390 O 136.433 1.85013 5.38293 0
M  V30 1391 N 137.635 0.00031529 5.805 0
M  V30 1392 H 140.4 1.9808 2.2491 0
M  V30 1393 H 137.961 1.17491 1.11389 0
M  V30 1394 H 139.953 0.194401 4.04233 0
M  V30 1395 H 138.523 -0.315021 3.11009 0
M  V30 1396 H 137.743 2.16379 3.29506 0
M  V30 1397 H 139.031 2.3903 4.49157 0
M  V30 1398 H 138.429 -0.581336 5.62705 0
M  V30 1399 H 136.986 -0.286346 6.51171 0
M  V30 1400 N 140.419 -1.14872 1.07899 0
M  V30 1401 C 141.665 -1.86289 0.81657 0
M  V30 1402 C 142.02 -1.8107 -0.65049 0
M  V30 1403 O 141.313 -1.22684 -1.47171 0
M  V30 1404 C 141.507 -3.34223 1.26609 0
M  V30 1405 C 141.336 -3.53846 2.77531 0
M  V30 1406 C 140.106 -3.68995 3.45212 0
M  V30 1407 C 142.304 -3.51201 3.75716 0
M  V30 1408 N 140.286 -3.76725 4.84718 0
M  V30 1409 C 141.657 -3.65112 5.01092 0
M  V30 1410 C 143.712 -3.34507 3.68794 0
M  V30 1411 C 142.415 -3.64056 6.20368 0
M  V30 1412 C 144.441 -3.34752 4.8754 0
M  V30 1413 C 143.803 -3.49199 6.11751 0
M  V30 1414 H 139.902 -0.698579 0.351443 0
M  V30 1415 H 142.486 -1.37713 1.37634 0
M  V30 1416 H 140.657 -3.81402 0.73395 0
M  V30 1417 H 142.389 -3.93377 0.95062 0
M  V30 1418 H 139.144 -3.70006 2.95622 0
M  V30 1419 H 139.568 -3.8432 5.5734 0
M  V30 1420 H 144.21 -3.22253 2.73702 0
M  V30 1421 H 141.928 -3.75087 7.15776 0
M  V30 1422 H 145.514 -3.23055 4.83866 0
M  V30 1423 H 144.394 -3.49328 7.02097 0
M  V30 1424 N 141.898 -0.863906 -1.31812 0
M  V30 1425 C 143.314 -0.555004 -1.49639 0
M  V30 1426 C 143.514 0.912266 -1.79666 0
M  V30 1427 O 142.57 1.69479 -1.87171 0
M  V30 1428 C 143.883 -1.44998 -2.63431 0
M  V30 1429 C 145.431 -1.45138 -2.77316 0
M  V30 1430 C 145.906 -2.33179 -3.94197 0
M  V30 1431 N 147.397 -2.31025 -4.01474 0
M  V30 1432 C 148.132 -2.95871 -4.9117 0
M  V30 1433 N 147.628 -3.69863 -5.8581 0
M  V30 1434 N 149.421 -2.85211 -4.84367 0
M  V30 1435 H 141.572 -1.81339 -1.10589 0
M  V30 1436 H 143.835 -0.77505 -0.545895 0
M  V30 1437 H 143.541 -2.49377 -2.48 0
M  V30 1438 H 143.415 -1.14409 -3.59431 0
M  V30 1439 H 145.802 -0.415201 -2.92164 0
M  V30 1440 H 145.883 -1.79747 -1.82001 0
M  V30 1441 H 145.527 -3.3687 -3.80107 0
M  V30 1442 H 145.457 -1.95897 -4.88807 0
M  V30 1443 H 147.948 -1.77238 -3.33759 0
M  V30 1444 H 148.261 -4.16486 -6.50968 0
M  V30 1445 H 146.606 -3.73971 -5.85808 0
M  V30 1446 H 149.797 -2.26948 -4.09405 0
M  V30 1447 H 149.97 -3.36027 -5.54066 0
M  V30 1448 N 143.376 1.44774 -0.622745 0
M  V30 1449 C 144.792 1.56986 -0.287652 0
M  V30 1450 C 144.992 1.61167 1.20944 0
M  V30 1451 O 144.048 1.55015 1.99315 0
M  V30 1452 C 145.361 2.84551 -0.972188 0
M  V30 1453 C 146.909 2.9825 -0.949536 0
M  V30 1454 C 147.384 4.28605 -1.61437 0
M  V30 1455 N 148.875 4.35399 -1.58057 0
M  V30 1456 C 149.61 5.34964 -2.064 0
M  V30 1457 N 149.106 6.40981 -2.62897 0
M  V30 1458 N 150.899 5.26419 -1.97078 0
M  V30 1459 H 143.05 1.40304 -1.59463 0
M  V30 1460 H 145.313 0.671794 -0.668878 0
M  V30 1461 H 145.019 2.87417 -2.02693 0
M  V30 1462 H 144.893 3.73807 -0.504771 0
M  V30 1463 H 147.28 2.94941 0.0967067 0
M  V30 1464 H 147.361 2.10364 -1.45536 0
M  V30 1465 H 147.005 4.32672 -2.66002 0
M  V30 1466 H 146.935 5.15334 -1.08344 0
M  V30 1467 H 149.426 3.59397 -1.16801 0
M  V30 1468 H 149.739 7.13225 -2.97539 0
M  V30 1469 H 148.084 6.4169 -2.66943 0
M  V30 1470 H 151.275 4.42504 -1.52669 0
M  V30 1471 H 151.448 6.03861 -2.35066 0
M  V30 1472 N 144.854 0.36279 1.53368 0
M  V30 1473 C 146.27 0.0116182 1.59596 0
M  V30 1474 C 146.47 -1.47012 1.37803 0
M  V30 1475 O 145.526 -2.23136 1.18181 0
M  V30 1476 C 146.839 0.465052 2.97082 0
M  V30 1477 C 148.387 0.419033 3.10182 0
M  V30 1478 C 148.862 0.848235 4.50077 0
M  V30 1479 N 150.353 0.803183 4.56183 0
M  V30 1480 C 151.088 1.107 5.62613 0
M  V30 1481 N 150.584 1.47996 6.76808 0
M  V30 1482 N 152.377 1.02998 5.52583 0
M  V30 1483 H 144.528 1.32775 1.65785 0
M  V30 1484 H 146.791 0.542518 0.777417 0
M  V30 1485 H 146.497 1.49892 3.18159 0
M  V30 1486 H 146.371 -0.149786 3.76902 0
M  V30 1487 H 148.758 -0.605696 2.88817 0
M  V30 1488 H 148.839 1.06933 2.32377 0
M  V30 1489 H 148.483 1.87107 4.7218 0
M  V30 1490 H 148.413 0.175218 5.26308 0
M  V30 1491 H 150.904 0.52838 3.74188 0
M  V30 1492 H 151.217 1.69613 7.53957 0
M  V30 1493 H 149.562 1.51859 6.78206 0
M  V30 1494 H 152.753 0.737817 4.62249 0
M  V30 1495 H 152.926 1.2701 6.35431 0
M  V30 1496 N 146.332 -1.57332 0.0918853 0
M  V30 1497 C 147.748 -1.57389 -0.264766 0
M  V30 1498 C 147.948 -1.10281 -1.68643 0
M  V30 1499 O 147.004 -0.777801 -2.40222 0
M  V30 1500 C 148.317 -3.00648 -0.0561195 0
M  V30 1501 C 149.865 -3.12754 -0.124116 0
M  V30 1502 C 150.34 -4.57965 0.0564972 0
M  V30 1503 N 151.831 -4.632 0.00155611 0
M  V30 1504 C 152.566 -5.73281 0.116598 0
M  V30 1505 N 152.062 -6.92208 0.286294 0
M  V30 1506 N 153.855 -5.6207 0.0580973 0
M  V30 1507 H 146.006 -1.86262 1.02079 0
M  V30 1508 H 148.269 -0.859579 0.399786 0
M  V30 1509 H 147.975 -3.393 0.925669 0
M  V30 1510 H 147.849 -3.68623 -0.799823 0
M  V30 1511 H 150.236 -2.73976 -1.09641 0
M  V30 1512 H 150.317 -2.47377 0.651024 0
M  V30 1513 H 149.961 -4.97436 1.02564 0
M  V30 1514 H 149.891 -5.21399 -0.738297 0
M  V30 1515 H 152.382 -3.77686 -0.127192 0
M  V30 1516 H 152.695 -7.71934 0.365676 0
M  V30 1517 H 151.04 -6.94254 0.32192 0
M  V30 1518 H 154.231 -4.68043 -0.0733204 0
M  V30 1519 H 154.404 -6.47824 0.151203 0
M  V30 1520 N 147.81 0.181792 -1.56548 0
M  V30 1521 C 149.221 0.745244 -1.71181 0
M  V30 1522 C 149.572 1.83262 -0.70068 0
M  V30 1523 O 148.697 2.15946 0.140154 0
M  V30 1524 C 149.292 1.35859 -3.10367 0
M  V30 1525 C 147.851 1.86898 -3.2672 0
M  V30 1526 C 146.998 0.743942 -2.67134 0
M  V30 1527 H 149.949 -0.0434661 -1.5864 0
M  V30 1528 H 149.97 2.22817 -3.08436 0
M  V30 1529 H 149.482 0.566948 -3.83937 0
M  V30 1530 H 147.583 2.68738 -2.5809 0
M  V30 1531 H 147.696 2.02162 -4.34359 0
M  V30 1532 H 146.06 1.16169 -2.26665 0
M  V30 1533 H 146.843 -0.035676 -3.43281 0
M  V30 1534 N 149.288 1.51039 0.449983 0
M  V30 1535 C 150.699 1.557 1.03026 0
M  V30 1536 C 151.05 0.372939 1.92623 0
M  V30 1537 O 150.175 -0.511771 2.10261 0
M  V30 1538 C 150.77 2.82171 1.87523 0
M  V30 1539 C 149.329 2.89444 2.40622 0
M  V30 1540 C 148.476 2.50228 1.19504 0
M  V30 1541 H 151.427 1.56999 0.231745 0
M  V30 1542 H 151.448 2.65219 2.72835 0
M  V30 1543 H 150.96 3.68331 1.22286 0
M  V30 1544 H 149.061 2.07685 3.0935 0
M  V30 1545 H 149.174 3.92816 2.74285 0
M  V30 1546 H 147.538 2.03139 1.53644 0
M  V30 1547 H 148.321 3.38719 0.558972 0
M  V30 1548 N 150.766 -0.704594 1.40972 0
M  V30 1549 C 151.729 -1.80035 1.41845 0
M  V30 1550 C 152.729 -1.57774 0.310474 0
M  V30 1551 O 153.919 -1.64613 0.56992 0
M  V30 1552 C 151.051 -3.18284 1.22098 0
M  V30 1553 H 152.244 -1.80658 2.3938 0
M  V30 1554 H 149.797 -0.911329 1.26982 0
M  V30 1555 H 150.532 -3.23306 0.253672 0
M  V30 1556 H 150.317 -3.35843 2.02366 0
M  V30 1557 H 151.807 -3.98289 1.25522 0
M  V30 1558 N 152.244 -1.26651 -0.937939 0
M  V30 1559 C 153.655 -1.1125 -1.49934 0
M  V30 1560 C 154.006 0.306077 -1.93798 0
M  V30 1561 O 153.131 1.19792 -1.80219 0
M  V30 1562 C 153.726 -2.01339 -2.72485 0
M  V30 1563 C 152.285 -1.90074 -3.24883 0
M  V30 1564 C 151.432 -1.94498 -1.97651 0
M  V30 1565 H 154.383 -1.39693 -0.753091 0
M  V30 1566 H 154.404 -1.56319 -3.46907 0
M  V30 1567 H 153.916 -3.04577 -2.40529 0
M  V30 1568 H 152.017 -0.897827 -3.61621 0
M  V30 1569 H 152.13 -2.75778 -3.9177 0
M  V30 1570 H 150.494 -1.38591 -2.13693 0
M  V30 1571 H 151.277 -2.99372 -1.68022 0
M  V30 1572 N 153.722 1.14298 -1.08507 0
M  V30 1573 C 155.138 1.37347 -0.812901 0
M  V30 1574 C 155.338 1.93052 0.577325 0
M  V30 1575 O 154.394 2.14389 1.33393 0
M  V30 1576 C 155.707 2.33359 -1.89642 0
M  V30 1577 C 157.255 2.46996 -1.92255 0
M  V30 1578 C 157.73 3.46309 -2.99724 0
M  V30 1579 N 159.221 3.53853 -2.98902 0
M  V30 1580 C 159.956 4.3055 -3.787 0
M  V30 1581 N 159.452 5.10482 -4.6838 0
M  V30 1582 N 161.245 4.25757 -3.66998 0
M  V30 1583 H 153.396 0.764867 -1.9815 0
M  V30 1584 H 155.659 0.398966 -0.859959 0
M  V30 1585 H 155.365 1.99565 -2.89597 0
M  V30 1586 H 155.239 3.33274 -1.76659 0
M  V30 1587 H 157.626 2.80081 -0.929445 0
M  V30 1588 H 157.707 1.47039 -2.09316 0
M  V30 1589 H 157.351 3.13957 -3.99241 0
M  V30 1590 H 157.281 4.46049 -2.79907 0
M  V30 1591 H 159.772 2.96812 -2.33904 0
M  V30 1592 H 160.085 5.66284 -5.25873 0
M  V30 1593 H 158.43 5.09747 -4.72422 0
M  V30 1594 H 161.621 3.62383 -2.96304 0
M  V30 1595 H 161.794 4.85279 -4.29427 0
M  V30 1596 N 155.201 0.870884 1.31352 0
M  V30 1597 C 156.478 0.402907 1.91405 0
M  V30 1598 C 156.858 -1.11512 1.79244 0
M  V30 1599 O 156.206 -1.94411 1.2007 0
M  V30 1600 C 156.416 0.885301 3.37585 0
M  V30 1601 C 157.764 0.911971 4.14691 0
M  V30 1602 O 158.788 0.831016 3.46371 0
M  V30 1603 O 157.647 1.02927 5.3672 0
M  V30 1604 H 154.741 0.120698 0.818145 0
M  V30 1605 H 157.287 0.958857 1.40014 0
M  V30 1606 H 156.059 1.92889 3.40455 0
M  V30 1607 H 155.682 0.307714 3.96407 0
M  V30 1608 N 156.679 -1.44442 0.630414 0
M  V30 1609 C 157.956 -1.9549 0.0655657 0
M  V30 1610 C 158.336 -1.5724 -1.40851 0
M  V30 1611 O 157.684 -0.846116 -2.12257 0
M  V30 1612 C 157.894 -3.47812 0.287691 0
M  V30 1613 C 159.242 -4.24216 0.180513 0
M  V30 1614 O 160.266 -3.55526 0.219019 0
M  V30 1615 O 159.125 -5.46434 0.0848493 0
M  V30 1616 H 156.219 -0.826688 -0.0227177 0
M  V30 1617 H 158.765 -1.54496 0.702068 0
M  V30 1618 H 157.537 -3.687 1.31056 0
M  V30 1619 H 157.16 -3.95751 -0.382984 0
M  V30 1620 N 158.157 -0.370918 -1.53173 0
M  V30 1621 C 159.405 0.216673 -2.00935 0
M  V30 1622 C 159.726 1.48845 -1.25977 0
M  V30 1623 O 158.996 1.92286 -0.374551 0
M  V30 1624 H 157.576 0.0830565 -0.742368 0
M  V30 1625 H 160.238 -0.49838 -1.8842 0
M  V30 1626 H 159.334 0.439893 -3.08984 0
M  V30 1627 N 159.635 1.57281 -0.100228 0
M  V30 1628 C 160.545 2.17833 0.870965 0
M  V30 1629 C 161.561 1.14921 1.30649 0
M  V30 1630 O 162.737 1.47313 1.37335 0
M  V30 1631 C 159.802 2.75085 2.1102 0
M  V30 1632 C 158.863 3.9297 1.72838 0
M  V30 1633 C 158.096 4.47482 2.90854 0
M  V30 1634 O 158.319 4.00922 4.05731 0
M  V30 1635 O 157.253 5.38433 2.69023 0
M  V30 1636 H 161.079 3.0124 0.38575 0
M  V30 1637 H 158.664 1.48881 0.124397 0
M  V30 1638 H 160.546 3.11656 2.83634 0
M  V30 1639 H 159.221 1.94721 2.58584 0
M  V30 1640 H 158.128 3.61201 0.973883 0
M  V30 1641 H 159.461 4.74713 1.30033 0
M  V30 1642 N 161.113 -0.173488 1.56642 0
M  V30 1643 C 162.023 -1.23482 1.99473 0
M  V30 1644 C 163.039 -1.48567 0.905752 0
M  V30 1645 O 164.215 -1.60758 1.21321 0
M  V30 1646 C 161.28 -2.55444 2.34413 0
M  V30 1647 C 160.341 -2.38241 3.57127 0
M  V30 1648 C 159.574 -3.63909 3.90392 0
M  V30 1649 O 159.797 -4.68996 3.24653 0
M  V30 1650 O 158.731 -3.58149 4.83749 0
M  V30 1651 H 162.557 -0.901279 2.90018 0
M  V30 1652 H 160.142 -0.380185 1.44482 0
M  V30 1653 H 162.024 -3.33292 2.57865 0
M  V30 1654 H 160.699 -2.88382 1.4703 0
M  V30 1655 H 159.606 -1.58431 3.38896 0
M  V30 1656 H 160.939 -2.10228 4.45045 0
M  V30 1657 N 162.591 -1.51276 -0.441967 0
M  V30 1658 C 163.554 -1.7167 -1.51862 0
M  V30 1659 C 164.554 -0.586793 -1.49711 0
M  V30 1660 O 165.744 -0.854276 -1.51815 0
M  V30 1661 C 162.876 -1.76889 -2.91416 0
M  V30 1662 H 164.069 -2.67754 -1.35084 0
M  V30 1663 H 161.622 -1.41196 -0.670333 0
M  V30 1664 H 162.357 -0.826026 -3.13604 0
M  V30 1665 H 162.142 -2.59001 -2.94382 0
M  V30 1666 H 163.632 -1.94522 -3.69528 0
M  V30 1667 N 164.069 0.697108 -1.41344 0
M  V30 1668 C 165.032 1.79281 -1.42797 0
M  V30 1669 C 166.032 1.57607 -0.318837 0
M  V30 1670 O 167.222 1.64309 -0.578642 0
M  V30 1671 C 164.354 3.17632 -1.23785 0
M  V30 1672 H 165.547 1.79385 -2.40335 0
M  V30 1673 H 163.1 0.904582 -1.27464 0
M  V30 1674 H 163.835 3.23167 -0.270814 0
M  V30 1675 H 163.62 3.34765 -2.04144 0
M  V30 1676 H 165.11 3.97617 -1.27633 0
M  V30 1677 N 165.547 1.27147 0.931209 0
M  V30 1678 C 166.793 1.14455 1.68141 0
M  V30 1679 C 167.148 -0.307172 1.89932 0
M  V30 1680 O 166.441 -1.22158 1.47607 0
M  V30 1681 C 166.635 1.8579 3.05314 0
M  V30 1682 C 166.464 3.3775 2.96909 0
M  V30 1683 C 165.234 4.07062 2.99381 0
M  V30 1684 C 167.432 4.33783 2.76291 0
M  V30 1685 N 165.414 5.45618 2.8138 0
M  V30 1686 C 166.785 5.59582 2.6696 0
M  V30 1687 C 168.84 4.23915 2.61152 0
M  V30 1688 C 167.543 6.76639 2.44033 0
M  V30 1689 C 169.569 5.40689 2.39602 0
M  V30 1690 C 168.931 6.65443 2.3101 0
M  V30 1691 H 165.03 0.473667 0.622225 0
M  V30 1692 H 167.614 1.60568 1.10118 0
M  V30 1693 H 165.785 1.42138 3.61457 0
M  V30 1694 H 167.517 1.65634 3.69253 0
M  V30 1695 H 164.272 3.585 3.09475 0
M  V30 1696 H 164.696 6.184 2.75519 0
M  V30 1697 H 169.338 3.28189 2.66555 0
M  V30 1698 H 167.056 7.72451 2.3737 0
M  V30 1699 H 170.642 5.34932 2.28778 0
M  V30 1700 H 169.522 7.54277 2.14558 0
M  V30 1701 N 167.025 -1.13721 1.09112 0
M  V30 1702 C 167.935 -2.22638 0.73957 0
M  V30 1703 C 168.951 -1.72091 -0.257068 0
M  V30 1704 O 170.127 -2.01155 -0.0992154 0
M  V30 1705 C 167.192 -3.46322 0.16191 0
M  V30 1706 C 166.253 -4.11775 1.21408 0
M  V30 1707 C 165.486 -5.29555 0.663891 0
M  V30 1708 O 165.709 -5.68077 -0.514274 0
M  V30 1709 O 164.643 -5.84973 1.41738 0
M  V30 1710 H 168.469 -2.55074 1.64836 0
M  V30 1711 H 166.054 -1.21791 0.865289 0
M  V30 1712 H 167.936 -4.21107 -0.157073 0
M  V30 1713 H 166.611 -3.15593 -0.719932 0
M  V30 1714 H 165.518 -3.3883 1.58571 0
M  V30 1715 H 166.851 -4.46627 2.06845 0
M  V30 1716 N 168.503 -0.877838 -1.30888 0
M  V30 1717 C 169.413 -0.343096 -2.32078 0
M  V30 1718 C 170.429 0.551022 -1.65045 0
M  V30 1719 O 171.605 0.445854 -1.96403 0
M  V30 1720 C 168.67 0.439905 -3.43898 0
M  V30 1721 C 167.731 -0.483111 -4.26573 0
M  V30 1722 C 166.964 0.262616 -5.33053 0
M  V30 1723 O 167.187 1.48967 -5.50604 0
M  V30 1724 O 166.121 -0.383593 -6.00676 0
M  V30 1725 H 169.947 -1.18203 -2.79753 0
M  V30 1726 H 167.532 -0.64145 -1.34929 0
M  V30 1727 H 169.414 0.883504 -4.12034 0
M  V30 1728 H 168.089 1.25526 -2.98371 0
M  V30 1729 H 166.996 -0.975374 -3.61161 0
M  V30 1730 H 168.329 -1.26427 -4.75686 0
M  V30 1731 N 169.982 1.44106 -0.638065 0
M  V30 1732 C 170.892 2.34513 0.0637334 0
M  V30 1733 C 171.908 1.53018 0.828346 0
M  V30 1734 O 173.084 1.85723 0.779036 0
M  V30 1735 C 170.149 3.31095 1.02844 0
M  V30 1736 C 169.21 4.28497 0.26244 0
M  V30 1737 C 168.443 5.20465 1.1812 0
M  V30 1738 O 168.666 5.16514 2.42011 0
M  V30 1739 O 167.6 5.98251 0.661774 0
M  V30 1740 H 171.426 2.95989 -0.68003 0
M  V30 1741 H 169.011 1.43994 -0.398252 0
M  V30 1742 H 170.893 3.90526 1.58327 0
M  V30 1743 H 169.568 2.72144 1.7527 0
M  V30 1744 H 168.475 3.72592 -0.335602 0
M  V30 1745 H 169.808 4.90388 -0.421936 0
M  V30 1746 N 171.46 0.379036 1.52974 0
M  V30 1747 C 172.685 -0.209353 2.06341 0
M  V30 1748 C 173.11 -1.40583 1.24972 0
M  V30 1749 O 172.468 -1.79246 0.272155 0
M  V30 1750 C 172.516 -0.567786 3.56102 0
M  V30 1751 O 171.62 -1.66318 3.77375 0
M  V30 1752 H 170.961 -0.0272919 0.663439 0
M  V30 1753 H 173.491 0.543536 1.97248 0
M  V30 1754 H 173.501 -0.835003 3.99364 0
M  V30 1755 H 172.176 0.307013 4.14765 0
M  V30 1756 H 170.753 -1.39048 3.46006 0
M  V30 1757 N 172.938 -1.57226 0.108567 0
M  V30 1758 C 174.349 -1.8195 -0.418464 0
M  V30 1759 C 174.7 -1.02508 -1.67292 0
M  V30 1760 O 173.825 -0.258496 -2.14851 0
M  V30 1761 C 174.42 -3.30028 -0.765979 0
M  V30 1762 C 172.979 -3.55469 -1.23769 0
M  V30 1763 C 172.126 -2.7625 -0.241106 0
M  V30 1764 H 175.077 -1.55149 0.33384 0
M  V30 1765 H 175.098 -3.44086 -1.62434 0
M  V30 1766 H 174.61 -3.87821 0.147219 0
M  V30 1767 H 172.711 -3.03022 -2.16814 0
M  V30 1768 H 172.824 -4.6408 -1.19022 0
M  V30 1769 H 171.188 -2.44133 -0.72602 0
M  V30 1770 H 171.971 -3.36797 0.665007 0
M  V30 1771 N 174.416 0.165178 -1.56732 0
M  V30 1772 C 175.664 0.879068 -1.8198 0
M  V30 1773 C 175.985 1.82514 -0.686561 0
M  V30 1774 O 175.255 1.93694 0.293146 0
M  V30 1775 H 173.835 0.327608 -0.671329 0
M  V30 1776 H 176.497 0.163526 -1.94213 0
M  V30 1777 H 175.593 1.45228 -2.76252 0
M  V30 1778 N 175.894 1.51508 0.433938 0
M  V30 1779 C 176.824 1.76016 1.53429 0
M  V30 1780 C 177.805 0.610112 1.58782 0
M  V30 1781 O 178.99 0.853177 1.74455 0
M  V30 1782 C 176.12 1.88831 2.9148 0
M  V30 1783 C 175.074 3.04288 3.00987 0
M  V30 1784 C 174.4 3.0229 4.4105 0
M  V30 1785 C 175.7 4.44193 2.74754 0
M  V30 1786 H 177.394 2.68152 1.33171 0
M  V30 1787 H 174.94 1.29035 0.639214 0
M  V30 1788 H 176.893 2.04559 3.6842 0
M  V30 1789 H 175.617 0.933455 3.12976 0
M  V30 1790 H 174.276 2.8827 2.26486 0
M  V30 1791 H 173.924 2.04576 4.59519 0
M  V30 1792 H 173.624 3.79822 4.4834 0
M  V30 1793 H 175.148 3.20116 5.1996 0
M  V30 1794 H 176.562 4.60544 3.41426 0
M  V30 1795 H 174.959 5.23457 2.9345 0
M  V30 1796 H 176.029 4.53996 1.70339 0
M  V30 1797 N 177.372 -0.689602 1.41712 0
M  V30 1798 C 178.597 -1.48329 1.44959 0
M  V30 1799 C 179.022 -1.8801 0.0581283 0
M  V30 1800 O 178.38 -1.55026 -0.940035 0
M  V30 1801 C 178.428 -2.71835 2.36935 0
M  V30 1802 O 177.532 -3.69549 1.8305 0
M  V30 1803 H 176.873 -0.446199 0.491734 0
M  V30 1804 H 179.403 -0.847127 1.86239 0
M  V30 1805 H 179.413 -3.20076 2.53013 0
M  V30 1806 H 178.088 -2.42291 3.38035 0
M  V30 1807 H 176.665 -3.2851 1.76452 0
M  V30 1808 N 178.85 -1.27639 -0.924453 0
M  V30 1809 C 180.098 -1.13941 -1.66918 0
M  V30 1810 C 180.419 0.314589 -1.92446 0
M  V30 1811 O 179.689 1.21964 -1.53303 0
M  V30 1812 H 178.269 -0.418678 -0.618642 0
M  V30 1813 H 180.931 -1.60213 -1.10985 0
M  V30 1814 H 180.027 -1.67094 -2.63602 0
M  V30 1815 N 180.328 1.1314 -1.09713 0
M  V30 1816 C 181.576 1.84119 -0.833338 0
M  V30 1817 C 181.897 1.84097 0.642904 0
M  V30 1818 O 181.167 1.29881 1.46655 0
M  V30 1819 H 179.747 0.681766 -0.305293 0
M  V30 1820 H 182.409 1.37038 -1.38588 0
M  V30 1821 H 181.505 2.88543 -1.18951 0
M  V30 1822 N 181.806 0.884767 1.30421 0
M  V30 1823 C 183.217 0.553656 1.78302 0
M  V30 1824 C 183.568 -0.930153 1.7275 0
M  V30 1825 O 182.693 -1.72681 1.30423 0
M  V30 1826 C 183.288 0.998234 3.2376 0
M  V30 1827 C 181.847 0.71854 3.69478 0
M  V30 1828 C 180.994 1.18132 2.50879 0
M  V30 1829 H 183.945 1.06901 1.17294 0
M  V30 1830 H 183.966 0.327118 3.79091 0
M  V30 1831 H 183.478 2.0782 3.27769 0
M  V30 1832 H 181.579 -0.349444 3.70958 0
M  V30 1833 H 181.692 1.30595 4.60958 0
M  V30 1834 H 180.056 0.600669 2.47516 0
M  V30 1835 H 180.839 2.26902 2.57624 0
M  V30 1836 N 183.284 -1.43765 0.645699 0
M  V30 1837 C 184.532 -2.01499 0.155731 0
M  V30 1838 C 184.853 -1.51151 -1.232 0
M  V30 1839 O 184.123 -0.721044 -1.82148 0
M  V30 1840 H 182.703 -0.745003 0.0545817 0
M  V30 1841 H 185.365 -1.76075 0.835677 0
M  V30 1842 H 184.461 -3.1181 0.134577 0
M  V30 1843 N 184.763 -0.387143 -1.52771 0
M  V30 1844 C 186.011 0.195349 -2.01154 0
M  V30 1845 C 186.332 1.475 -1.27549 0
M  V30 1846 O 185.602 1.91878 -0.394924 0
M  V30 1847 H 184.182 0.075178 -0.743207 0
M  V30 1848 H 186.844 -0.518337 -1.87881 0
M  V30 1849 H 185.94 0.407096 -3.09434 0
M  V30 1850 N 186.241 1.57166 -0.116904 0
M  V30 1851 C 187.466 1.999 0.55271 0
M  V30 1852 C 187.891 0.996039 1.59564 0
M  V30 1853 O 187.249 -0.032556 1.81271 0
M  V30 1854 C 187.297 3.4152 1.15742 0
M  V30 1855 O 186.401 3.44106 2.27299 0
M  V30 1856 H 185.742 0.649447 0.138258 0
M  V30 1857 H 188.272 2.03573 -0.204759 0
M  V30 1858 H 188.282 3.79684 1.49346 0
M  V30 1859 H 186.957 4.14034 0.393493 0
M  V30 1860 H 185.534 3.17759 1.9515 0
M  V30 1861 N 187.719 -0.156864 1.56817 0
M  V30 1862 C 188.967 -0.869404 1.82444 0
M  V30 1863 C 189.288 -1.82147 0.69623 0
M  V30 1864 O 188.558 -1.93847 -0.28287 0
M  V30 1865 H 187.138 -0.324043 0.673056 0
M  V30 1866 H 189.8 -0.153224 1.94297 0
M  V30 1867 H 188.896 -1.43761 2.77019 0
M  V30 1868 N 189.197 -1.51736 -0.425897 0
M  V30 1869 C 190.16 -1.73271 -1.50032 0
M  V30 1870 C 191.16 -0.602639 -1.4908 0
M  V30 1871 O 192.35 -0.87033 -1.509 0
M  V30 1872 C 189.482 -1.79969 -2.89523 0
M  V30 1873 H 190.675 -2.69172 -1.32237 0
M  V30 1874 H 188.228 -1.41899 -0.65532 0
M  V30 1875 H 188.963 -0.859241 -3.1271 0
M  V30 1876 H 188.748 -2.62109 -2.91619 0
M  V30 1877 H 190.238 -1.9843 -3.67444 0
M  V30 1878 N 190.675 0.682077 -1.42076 0
M  V30 1879 C 191.923 1.4393 -1.41876 0
M  V30 1880 C 192.244 1.94971 -0.0335599 0
M  V30 1881 O 191.514 1.72591 0.926773 0
M  V30 1882 H 190.094 0.534085 -0.522267 0
M  V30 1883 H 192.756 0.806427 -1.77434 0
M  V30 1884 H 191.852 2.29588 -2.11414 0
M  V30 1885 N 192.153 1.28127 0.917671 0
M  V30 1886 C 193.378 1.18007 1.70555 0
M  V30 1887 C 193.803 -0.258257 1.86319 0
M  V30 1888 O 193.161 -1.1869 1.37049 0
M  V30 1889 C 193.209 1.87948 3.07746 0
M  V30 1890 O 192.313 1.18427 3.9503 0
M  V30 1891 H 191.654 0.409867 0.522403 0
M  V30 1892 H 194.184 1.69379 1.1477 0
M  V30 1893 H 194.194 1.95701 3.58001 0
M  V30 1894 H 192.869 2.92573 2.95591 0
M  V30 1895 H 191.446 1.18811 3.53466 0
M  V30 1896 N 193.631 -1.12557 1.10312 0
M  V30 1897 C 194.859 -1.87864 0.866873 0
M  V30 1898 C 195.274 -1.79588 -0.582557 0
M  V30 1899 O 194.631 -1.16887 -1.40156 0
M  V30 1900 C 194.682 -3.37125 1.30496 0
M  V30 1901 O 194.403 -3.45201 2.69755 0
M  V30 1902 C 195.904 -4.29373 1.10243 0
M  V30 1903 H 193.124 -0.594452 0.311236 0
M  V30 1904 H 195.668 -1.42429 1.46745 0
M  V30 1905 H 193.823 -3.80109 0.748081 0
M  V30 1906 H 194.237 -4.38056 2.88457 0
M  V30 1907 H 195.711 -5.32394 1.45811 0
M  V30 1908 H 196.188 -4.39181 0.0409492 0
M  V30 1909 H 196.794 -3.92169 1.64571 0
M  V30 1910 N 195.109 -0.891671 -1.2995 0
M  V30 1911 C 196.355 -0.514261 -1.96171 0
M  V30 1912 C 196.688 0.935506 -1.70182 0
M  V30 1913 O 195.963 1.66204 -1.01028 0
M  V30 1914 C 196.246 -0.797719 -3.51153 0
M  V30 1915 C 196.099 -2.2986 -3.86632 0
M  V30 1916 C 197.418 -0.278749 -4.39216 0
M  V30 1917 H 194.537 -0.188314 -0.712535 0
M  V30 1918 H 197.179 -1.11689 -1.53706 0
M  V30 1919 H 195.329 -0.284826 -3.87455 0
M  V30 1920 H 197.001 -2.88042 -3.60319 0
M  V30 1921 H 195.244 -2.76257 -3.34462 0
M  V30 1922 H 195.915 -2.44753 -4.94773 0
M  V30 1923 H 198.391 -0.717825 -4.09862 0
M  V30 1924 H 197.267 -0.506353 -5.46559 0
M  V30 1925 H 197.528 0.820266 -4.34424 0
M  V30 1926 N 196.587 1.43421 -0.653314 0
M  V30 1927 C 197.55 2.29182 0.0287951 0
M  V30 1928 C 198.55 1.42213 0.750465 0
M  V30 1929 O 199.74 1.63843 0.591701 0
M  V30 1930 C 196.872 3.24278 1.05151 0
M  V30 1931 H 198.065 2.90985 -0.725786 0
M  V30 1932 H 195.618 1.50702 -0.414545 0
M  V30 1933 H 196.353 2.6737 1.83532 0
M  V30 1934 H 196.138 3.88396 0.537687 0
M  V30 1935 H 197.628 3.88647 1.52786 0
M  V30 1936 N 198.065 0.39524 1.52563 0
M  V30 1937 C 198.975 -0.444232 2.30356 0
M  V30 1938 C 199.991 -1.06615 1.37511 0
M  V30 1939 O 201.167 -1.07067 1.70583 0
M  V30 1940 C 198.232 -1.55315 3.09964 0
M  V30 1941 C 197.293 -0.955734 4.18526 0
M  V30 1942 C 196.526 -2.01181 4.9433 0
M  V30 1943 O 196.749 -3.22781 4.70285 0
M  V30 1944 O 195.683 -1.62579 5.79527 0
M  V30 1945 H 199.509 0.189667 3.03107 0
M  V30 1946 H 197.094 0.1588 1.48554 0
M  V30 1947 H 198.976 -2.19724 3.59582 0
M  V30 1948 H 197.651 -2.17191 2.4002 0
M  V30 1949 H 196.558 -0.274743 3.7309 0
M  V30 1950 H 197.891 -0.381109 4.90722 0
M  V30 1951 N 199.544 -1.57102 0.125237 0
M  V30 1952 C 200.507 -2.14471 -0.80838 0
M  V30 1953 C 201.507 -1.0811 -1.19033 0
M  V30 1954 O 202.697 -1.33856 -1.11482 0
M  V30 1955 C 199.829 -2.69005 -2.09402 0
M  V30 1956 H 201.022 -2.98297 -0.309696 0
M  V30 1957 H 198.575 -1.55807 -0.124051 0
M  V30 1958 H 199.31 -1.88785 -2.63687 0
M  V30 1959 H 199.095 -3.46799 -1.82957 0
M  V30 1960 H 200.585 -3.13278 -2.76128 0
M  V30 1961 N 201.022 0.148545 -1.56898 0
M  V30 1962 C 202.433 0.708766 -1.72723 0
M  V30 1963 C 202.784 1.81734 -0.739395 0
M  V30 1964 O 201.909 2.16194 0.0943169 0
M  V30 1965 C 202.504 1.29245 -3.13179 0
M  V30 1966 C 201.063 1.79925 -3.30611 0
M  V30 1967 C 200.21 0.687111 -2.68652 0
M  V30 1968 H 203.161 -0.0771063 -1.58513 0
M  V30 1969 H 203.182 2.16224 -3.13093 0
M  V30 1970 H 202.694 0.485382 -3.85053 0
M  V30 1971 H 200.795 2.63203 -2.63732 0
M  V30 1972 H 200.908 1.92903 -4.38549 0
M  V30 1973 H 199.272 1.11335 -2.29078 0
M  V30 1974 H 200.055 -0.108483 -3.43129 0
M  V30 1975 N 202.5 1.5196 0.417844 0
M  V30 1976 C 203.911 1.57851 0.997 0
M  V30 1977 C 204.262 0.413714 1.91789 0
M  V30 1978 O 203.387 -0.467057 2.113 0
M  V30 1979 C 203.982 2.86085 1.81496 0
M  V30 1980 C 202.541 2.94483 2.34428 0
M  V30 1981 C 201.688 2.52707 1.14169 0
M  V30 1982 H 204.639 1.57455 0.198392 0
M  V30 1983 H 204.66 2.70947 2.67148 0
M  V30 1984 H 204.172 3.70842 1.14446 0
M  V30 1985 H 202.273 2.142 3.04875 0
M  V30 1986 H 202.386 3.98546 2.65891 0
M  V30 1987 H 200.75 2.06353 1.49301 0
M  V30 1988 H 201.533 3.39828 0.486999 0
M  V30 1989 N 203.978 -0.674533 1.42435 0
M  V30 1990 C 205.226 -1.43175 1.42637 0
M  V30 1991 C 205.547 -1.94951 0.0438992 0
M  V30 1992 O 204.817 -1.7308 -0.917607 0
M  V30 1993 H 203.397 -0.531307 0.525092 0
M  V30 1994 H 206.059 -0.797006 1.77859 0
M  V30 1995 H 205.155 -2.28463 2.12629 0
M  V30 1996 N 205.456 -1.28612 -0.910864 0
M  V30 1997 C 206.684 -1.18792 -1.69399 0
M  V30 1998 C 207.099 0.253039 -1.87097 0
M  V30 1999 O 206.456 1.17071 -1.40003 0
M  V30 2000 C 206.507 -1.88511 -3.08457 0
M  V30 2001 O 206.228 -3.26979 -2.91576 0
M  V30 2002 C 207.729 -1.85029 -4.02839 0
M  V30 2003 H 204.949 -0.412233 -0.529438 0
M  V30 2004 H 207.493 -1.69788 -1.13984 0
M  V30 2005 H 205.648 -1.41379 -3.60681 0
M  V30 2006 H 206.062 -3.61936 -3.79608 0
M  V30 2007 H 207.536 -2.38395 -4.97867 0
M  V30 2008 H 208.013 -0.823303 -4.31414 0
M  V30 2009 H 208.619 -2.31853 -3.56545 0
M  V30 2010 N 206.934 1.1197 -1.10907 0
M  V30 2011 C 207.864 2.19928 -0.784473 0
M  V30 2012 C 208.845 1.6833 0.244726 0
M  V30 2013 O 210.03 1.93892 0.109418 0
M  V30 2014 C 207.16 3.46597 -0.220827 0
M  V30 2015 C 206.114 4.11376 -1.18127 0
M  V30 2016 C 205.44 5.32554 -0.478594 0
M  V30 2017 C 206.74 4.56945 -2.52979 0
M  V30 2018 H 208.434 2.47337 -1.68715 0
M  V30 2019 H 205.98 1.18879 -0.812642 0
M  V30 2020 H 207.933 4.21396 0.0184278 0
M  V30 2021 H 206.657 3.1863 0.717113 0
M  V30 2022 H 205.316 3.38564 -1.40606 0
M  V30 2023 H 204.964 5.00856 0.463976 0
M  V30 2024 H 204.664 5.76844 -1.11912 0
M  V30 2025 H 206.188 6.10096 -0.248 0
M  V30 2026 H 207.602 5.23093 -2.3462 0
M  V30 2027 H 205.999 5.1203 -3.12962 0
M  V30 2028 H 207.069 3.70676 -3.12614 0
M  V30 2029 N 208.412 0.89855 1.29475 0
M  V30 2030 C 209.375 0.380272 2.26023 0
M  V30 2031 C 210.375 -0.484891 1.53315 0
M  V30 2032 O 211.565 -0.290108 1.71767 0
M  V30 2033 C 208.697 -0.45651 3.3783 0
M  V30 2034 H 209.89 1.23295 2.73383 0
M  V30 2035 H 207.443 0.676589 1.40897 0
M  V30 2036 H 208.178 -1.32922 2.95808 0
M  V30 2037 H 207.963 0.163393 3.91759 0
M  V30 2038 H 209.453 -0.810466 4.0966 0
M  V30 2039 N 209.89 -1.43072 0.660911 0
M  V30 2040 C 210.82 -2.33497 -0.0122829 0
M  V30 2041 C 211.801 -1.49903 -0.803925 0
M  V30 2042 O 212.986 -1.78546 -0.763864 0
M  V30 2043 C 210.116 -3.33363 -0.973994 0
M  V30 2044 C 209.07 -4.27003 -0.291928 0
M  V30 2045 C 208.396 -5.16967 -1.36562 0
M  V30 2046 C 209.696 -5.15816 0.820462 0
M  V30 2047 H 211.39 -2.90038 0.742873 0
M  V30 2048 H 208.936 -1.39461 0.358688 0
M  V30 2049 H 210.889 -3.95524 -1.45392 0
M  V30 2050 H 209.613 -2.75095 -1.7604 0
M  V30 2051 H 208.272 -3.66217 0.167623 0
M  V30 2052 H 207.92 -4.55034 -2.14366 0
M  V30 2053 H 207.62 -5.80441 -0.914454 0
M  V30 2054 H 209.144 -5.82003 -1.84675 0
M  V30 2055 H 210.558 -5.71742 0.422366 0
M  V30 2056 H 208.955 -5.8805 1.19656 0
M  V30 2057 H 210.025 -4.55045 1.67518 0
M  V30 2058 N 211.368 -0.403325 -1.52352 0
M  V30 2059 C 212.298 0.416205 -2.29761 0
M  V30 2060 C 213.279 1.05123 -1.33728 0
M  V30 2061 O 214.464 1.06134 -1.62632 0
M  V30 2062 C 211.594 1.53624 -3.11475 0
M  V30 2063 C 210.548 1.02653 -4.15507 0
M  V30 2064 C 209.874 2.23971 -4.85532 0
M  V30 2065 C 211.174 0.08463 -5.22231 0
M  V30 2066 H 212.868 -0.229701 -2.98518 0
M  V30 2067 H 210.414 -0.111913 -1.43564 0
M  V30 2068 H 212.367 2.1165 -3.64393 0
M  V30 2069 H 211.091 2.20994 -2.40477 0
M  V30 2070 H 209.75 0.46871 -3.63591 0
M  V30 2071 H 209.398 2.89883 -4.11068 0
M  V30 2072 H 209.098 1.90521 -5.55856 0
M  V30 2073 H 210.622 2.82614 -5.41259 0
M  V30 2074 H 212.036 0.573509 -5.70424 0
M  V30 2075 H 210.433 -0.160783 -5.99885 0
M  V30 2076 H 211.503 -0.86237 -4.7717 0
M  V30 2077 N 212.846 1.57033 -0.133567 0
M  V30 2078 C 213.776 2.1909 0.807567 0
M  V30 2079 C 214.757 1.13517 1.26681 0
M  V30 2080 O 215.942 1.41809 1.32679 0
M  V30 2081 C 213.072 2.80188 2.05212 0
M  V30 2082 C 212.026 3.91471 1.73015 0
M  V30 2083 C 211.352 4.39443 3.04622 0
M  V30 2084 C 212.652 5.12886 0.987168 0
M  V30 2085 H 214.346 2.97988 0.290403 0
M  V30 2086 H 211.892 1.43335 0.138239 0
M  V30 2087 H 213.845 3.22264 2.71521 0
M  V30 2088 H 212.569 1.98601 2.59278 0
M  V30 2089 H 211.228 3.49993 1.0909 0
M  V30 2090 H 210.876 3.54695 3.56651 0
M  V30 2091 H 210.576 5.14495 2.83847 0
M  V30 2092 H 212.1 4.8418 3.72024 0
M  V30 2093 H 213.514 5.51891 1.55208 0
M  V30 2094 H 211.911 5.93615 0.87985 0
M  V30 2095 H 212.981 4.84894 -0.0235286 0
M  V30 2096 N 214.325 -0.140222 1.56975 0
M  V30 2097 C 215.602 -0.880769 1.74648 0
M  V30 2098 C 215.982 -1.99036 0.703404 0
M  V30 2099 O 215.33 -2.26821 -0.27648 0
M  V30 2100 C 215.54 -1.417 3.18939 0
M  V30 2101 C 216.888 -1.87774 3.80823 0
M  V30 2102 O 217.912 -1.51427 3.2241 0
M  V30 2103 O 216.771 -2.54827 4.83452 0
M  V30 2104 H 213.865 -0.416713 0.714338 0
M  V30 2105 H 216.411 -0.125618 1.69234 0
M  V30 2106 H 215.183 -0.619902 3.86359 0
M  V30 2107 H 214.806 -2.23546 3.28805 0
M  V30 2108 N 215.803 -1.52179 -0.40978 0
M  V30 2109 C 216.713 -1.78364 -1.52392 0
M  V30 2110 C 217.729 -0.669183 -1.60617 0
M  V30 2111 O 218.905 -0.954518 -1.77344 0
M  V30 2112 C 215.97 -1.92822 -2.88133 0
M  V30 2113 C 215.031 -3.16725 -2.898 0
M  V30 2114 C 214.264 -3.30483 -4.19067 0
M  V30 2115 O 214.487 -2.49522 -5.12928 0
M  V30 2116 O 213.421 -4.2363 -4.27576 0
M  V30 2117 H 217.247 -2.72931 -1.33201 0
M  V30 2118 H 214.832 -1.37016 -0.59557 0
M  V30 2119 H 216.714 -2.04157 -3.68643 0
M  V30 2120 H 215.389 -1.01444 -3.07393 0
M  V30 2121 H 214.296 -3.10848 -2.08146 0
M  V30 2122 H 215.629 -4.07881 -2.75489 0
M  V30 2123 N 217.281 0.66697 -1.42791 0
M  V30 2124 C 218.529 1.42417 -1.43394 0
M  V30 2125 C 218.85 1.94925 -0.0542373 0
M  V30 2126 O 218.12 1.73564 0.908415 0
M  V30 2127 H 216.7 0.528515 -0.527902 0
M  V30 2128 H 219.362 0.787562 -1.78279 0
M  V30 2129 H 218.458 2.27333 -2.13837 0
M  V30 2130 N 218.759 1.29093 0.90403 0
M  V30 2131 C 219.984 1.19809 1.69294 0
M  V30 2132 C 220.409 -0.238481 1.86582 0
M  V30 2133 O 219.767 -1.1723 1.383 0
M  V30 2134 C 219.815 1.91202 3.05736 0
M  V30 2135 O 218.919 1.22611 3.93752 0
M  V30 2136 H 218.26 0.415385 0.518027 0
M  V30 2137 H 220.79 1.70586 1.12967 0
M  V30 2138 H 220.8 1.99487 3.55906 0
M  V30 2139 H 219.475 2.95692 2.92471 0
M  V30 2140 H 218.052 1.22554 3.52186 0
M  V30 2141 N 220.237 -1.11381 1.11499 0
M  V30 2142 C 221.184 -2.17439 0.773887 0
M  V30 2143 C 222.154 -1.64132 -0.254899 0
M  V30 2144 O 223.339 -1.90345 -0.13168 0
M  V30 2145 C 220.479 -3.44373 0.223917 0
M  V30 2146 C 219.592 -4.1168 1.30934 0
M  V30 2147 C 218.727 -5.263 0.71984 0
M  V30 2148 C 217.766 -5.85493 1.78507 0
M  V30 2149 N 216.903 -6.91507 1.21502 0
M  V30 2150 H 221.743 -2.45962 1.68246 0
M  V30 2151 H 219.28 -1.20744 0.840191 0
M  V30 2152 H 221.238 -4.17047 -0.112921 0
M  V30 2153 H 219.868 -3.16232 -0.647851 0
M  V30 2154 H 218.92 -3.37073 1.76312 0
M  V30 2155 H 220.232 -4.51729 2.11524 0
M  V30 2156 H 219.386 -6.05785 0.333094 0
M  V30 2157 H 218.125 -4.87559 -0.117377 0
M  V30 2158 H 217.13 -5.04686 2.18111 0
M  V30 2159 H 218.355 -6.26301 2.62533 0
M  V30 2160 H 216.301 -6.54783 0.399455 0
M  V30 2161 H 216.218 -7.30214 1.95763 0
M  V30 2162 H 217.486 -7.74795 0.855181 0
M  V30 2163 N 221.715 -0.905404 -1.28997 0
M  V30 2164 C 222.647 -0.344748 -2.26592 0
M  V30 2165 C 223.66 0.512135 -1.54535 0
M  V30 2166 O 224.849 0.328368 -1.75454 0
M  V30 2167 C 221.949 0.526587 -3.34784 0
M  V30 2168 C 221.122 -0.305871 -4.36329 0
M  V30 2169 C 220.181 0.499209 -5.23827 0
M  V30 2170 O 219.207 -0.0853004 -5.69136 0
M  V30 2171 N 220.409 1.80408 -5.51755 0
M  V30 2172 H 223.174 -1.18359 -2.75338 0
M  V30 2173 H 220.735 -0.770481 -1.42391 0
M  V30 2174 H 222.727 1.07171 -3.90252 0
M  V30 2175 H 221.297 1.26613 -2.85811 0
M  V30 2176 H 220.517 -1.0324 -3.80441 0
M  V30 2177 H 221.805 -0.875773 -5.01206 0
M  V30 2178 H 221.203 2.3016 -5.16762 0
M  V30 2179 H 219.76 2.29621 -6.10014 0
M  V30 2180 N 223.193 1.4272 -0.668489 0
M  V30 2181 C 224.123 2.335 -0.000100175 0
M  V30 2182 C 225.104 1.50328 0.795964 0
M  V30 2183 O 226.289 1.78949 0.754385 0
M  V30 2184 C 223.419 3.33874 0.956302 0
M  V30 2185 C 222.373 4.27152 0.269278 0
M  V30 2186 C 221.699 5.17684 1.33818 0
M  V30 2187 C 222.999 5.15373 -0.847805 0
M  V30 2188 H 224.693 2.89639 -0.758244 0
M  V30 2189 H 222.239 1.39269 -0.366079 0
M  V30 2190 H 224.192 3.9629 1.43292 0
M  V30 2191 H 222.916 2.76025 1.74579 0
M  V30 2192 H 221.575 3.66123 -0.187042 0
M  V30 2193 H 221.223 4.56165 2.1195 0
M  V30 2194 H 220.923 5.80918 0.883659 0
M  V30 2195 H 222.447 5.82974 1.81586 0
M  V30 2196 H 223.861 5.7151 -0.452681 0
M  V30 2197 H 222.258 5.87407 -1.22773 0
M  V30 2198 H 223.328 4.5415 -1.69929 0
M  V30 2199 N 224.671 0.411399 1.52136 0
M  V30 2200 C 226.082 -0.0576826 1.86611 0
M  V30 2201 C 226.433 -1.44238 1.33003 0
M  V30 2202 O 225.558 -2.05759 0.670228 0
M  V30 2203 C 226.153 -0.111448 3.38617 0
M  V30 2204 C 224.712 -0.52487 3.72723 0
M  V30 2205 C 223.859 0.299176 2.75681 0
M  V30 2206 H 226.81 0.628368 1.4573 0
M  V30 2207 H 226.831 -0.926252 3.69054 0
M  V30 2208 H 226.343 0.896488 3.77604 0
M  V30 2209 H 224.444 -1.53936 3.39315 0
M  V30 2210 H 224.557 -0.267681 4.78352 0
M  V30 2211 H 222.921 -0.238814 2.53578 0
M  V30 2212 H 223.704 1.3055 3.17508 0
M  V30 2213 N 226.149 -1.5696 0.141893 0
M  V30 2214 C 227.081 -2.13619 -0.830627 0
M  V30 2215 C 228.094 -1.08439 -1.21428 0
M  V30 2216 O 229.283 -1.35734 -1.15925 0
M  V30 2217 C 226.383 -2.63978 -2.12529 0
M  V30 2218 C 225.556 -3.93504 -1.9098 0
M  V30 2219 C 224.615 -4.29225 -3.04388 0
M  V30 2220 O 223.641 -4.97641 -2.76302 0
M  V30 2221 N 224.843 -3.88393 -4.31429 0
M  V30 2222 H 227.608 -2.97691 -0.34641 0
M  V30 2223 H 225.169 -1.61846 -0.0418375 0
M  V30 2224 H 227.161 -2.84891 -2.87436 0
M  V30 2225 H 225.731 -1.84659 -2.52229 0
M  V30 2226 H 224.951 -3.81269 -1.00139 0
M  V30 2227 H 226.239 -4.78154 -1.73914 0
M  V30 2228 H 225.637 -3.33257 -4.57117 0
M  V30 2229 H 224.194 -4.14368 -5.03133 0
M  V30 2230 N 227.627 0.131896 -1.57047 0
M  V30 2231 C 228.59 1.14638 -1.98471 0
M  V30 2232 C 229.59 1.35029 -0.873148 0
M  V30 2233 O 230.78 1.31764 -1.13946 0
M  V30 2234 C 227.912 2.50358 -2.31373 0
M  V30 2235 H 229.105 0.79064 -2.8929 0
M  V30 2236 H 226.658 0.375761 -1.51716 0
M  V30 2237 H 227.393 2.90876 -1.43393 0
M  V30 2238 H 227.178 2.36915 -3.12432 0
M  V30 2239 H 228.668 3.23395 -2.64207 0
M  V30 2240 N 229.106 1.52395 0.401703 0
M  V30 2241 C 230.355 1.66044 1.14509 0
M  V30 2242 C 230.668 0.400216 1.91462 0
M  V30 2243 O 231.874 0.416632 2.68284 0
M  V30 2244 C 230.33 2.93388 2.0845 0
M  V30 2245 C 229.938 4.26545 1.36978 0
M  V30 2246 C 231.682 3.16402 2.83001 0
M  V30 2247 C 229.589 5.45007 2.29611 0
M  V30 2248 H 228.519 0.618562 0.431158 0
M  V30 2249 H 231.17 1.78886 0.40892 0
M  V30 2250 H 229.552 2.74263 2.8565 0
M  V30 2251 H 230.726 4.56179 0.650916 0
M  V30 2252 H 229.041 4.09692 0.74438 0
M  V30 2253 H 231.638 4.02085 3.52465 0
M  V30 2254 H 231.981 2.30943 3.46368 0
M  V30 2255 H 232.514 3.36034 2.12898 0
M  V30 2256 H 229.253 6.32835 1.70879 0
M  V30 2257 H 228.773 5.19702 2.9945 0
M  V30 2258 H 230.452 5.7838 2.89974 0
M  V30 2259 N 230.584 -0.659388 1.43143 0
M  V30 2260 C 231.833 -1.41518 1.43721 0
M  V30 2261 C 232.146 -1.95499 0.0628176 0
M  V30 2262 O 233.352 -2.71446 -0.0539683 0
M  V30 2263 C 231.808 -2.5608 2.52885 0
M  V30 2264 C 231.416 -2.08733 3.96402 0
M  V30 2265 C 233.16 -3.3349 2.62649 0
M  V30 2266 C 231.067 -3.20469 4.97045 0
M  V30 2267 H 229.997 -0.531705 0.534608 0
M  V30 2268 H 232.648 -0.712343 1.69109 0
M  V30 2269 H 231.03 -3.28805 2.20688 0
M  V30 2270 H 232.204 -1.43059 4.3803 0
M  V30 2271 H 230.519 -1.44219 3.90627 0
M  V30 2272 H 233.116 -4.16734 3.35017 0
M  V30 2273 H 233.459 -3.8111 1.67513 0
M  V30 2274 H 233.992 -2.67842 2.94118 0
M  V30 2275 H 230.731 -2.77824 5.93712 0
M  V30 2276 H 230.251 -3.84874 4.60034 0
M  V30 2277 H 231.93 -3.85698 5.19467 0
M  V30 2278 N 232.062 -1.29571 -0.897171 0
M  V30 2279 C 233.311 -1.1706 -1.64256 0
M  V30 2280 C 233.624 0.276476 -1.93636 0
M  V30 2281 O 234.83 0.52294 -2.66416 0
M  V30 2282 C 233.286 -2.0475 -2.95982 0
M  V30 2283 C 232.894 -3.54295 -2.74187 0
M  V30 2284 C 234.638 -2.0097 -3.73914 0
M  V30 2285 C 232.545 -4.34081 -4.01656 0
M  V30 2286 H 231.475 -0.43452 -0.616205 0
M  V30 2287 H 234.126 -1.54229 -0.994268 0
M  V30 2288 H 232.508 -1.60452 -3.62038 0
M  V30 2289 H 233.682 -4.06662 -2.1671 0
M  V30 2290 H 231.997 -3.59773 -2.09648 0
M  V30 2291 H 234.594 -2.57838 -4.68427 0
M  V30 2292 H 234.937 -0.990273 -4.0435 0
M  V30 2293 H 235.47 -2.43325 -3.14703 0
M  V30 2294 H 232.209 -5.36671 -3.76384 0
M  V30 2295 H 231.729 -3.86483 -4.58684 0
M  V30 2296 H 233.408 -4.44877 -4.69781 0
M  V30 2297 N 233.54 1.10788 -1.12088 0
M  V30 2298 C 234.788 1.8231 -0.872205 0
M  V30 2299 C 235.109 1.85419 0.603709 0
M  V30 2300 O 234.379 1.32963 1.43867 0
M  V30 2301 H 232.959 0.675137 -0.319686 0
M  V30 2302 H 235.621 1.34068 -1.41463 0
M  V30 2303 H 234.717 2.85955 -1.25045 0
M  V30 2304 N 235.018 0.912232 1.28515 0
M  V30 2305 C 236.264 0.545405 1.95328 0
M  V30 2306 C 236.597 -0.908313 1.71649 0
M  V30 2307 O 235.872 -1.64575 1.03659 0
M  V30 2308 C 236.155 0.853483 3.4984 0
M  V30 2309 C 236.008 2.35982 3.82926 0
M  V30 2310 C 237.327 0.348589 4.38717 0
M  V30 2311 H 234.446 0.199626 0.709449 0
M  V30 2312 H 237.088 1.1412 1.5191 0
M  V30 2313 H 235.238 0.34643 3.86952 0
M  V30 2314 H 236.91 2.93738 3.55691 0
M  V30 2315 H 235.153 2.81543 3.30024 0
M  V30 2316 H 235.824 2.52593 4.90816 0
M  V30 2317 H 238.3 0.78294 4.08668 0
M  V30 2318 H 237.176 0.593242 5.45685 0
M  V30 2319 H 237.437 -0.751049 4.35674 0
M  V30 2320 N 236.496 -1.42363 0.676048 0
M  V30 2321 C 237.443 -2.308 -0.00150904 0
M  V30 2322 C 238.413 -1.46032 -0.791444 0
M  V30 2323 O 239.598 -1.74861 -0.76344 0
M  V30 2324 C 236.738 -3.31883 -0.945919 0
M  V30 2325 C 235.851 -4.31741 -0.149675 0
M  V30 2326 C 234.986 -5.19898 -1.08995 0
M  V30 2327 C 234.025 -6.11434 -0.285465 0
M  V30 2328 N 233.162 -6.92138 -1.17851 0
M  V30 2329 H 238.002 -2.88187 0.758455 0
M  V30 2330 H 235.539 -1.41952 0.38576 0
M  V30 2331 H 237.497 -3.89019 -1.50731 0
M  V30 2332 H 236.127 -2.76093 -1.6725 0
M  V30 2333 H 235.179 -3.76713 0.528359 0
M  V30 2334 H 236.491 -4.96534 0.474866 0
M  V30 2335 H 235.645 -5.81772 -1.72123 0
M  V30 2336 H 234.384 -4.55284 -1.74837 0
M  V30 2337 H 233.389 -5.48627 0.359018 0
M  V30 2338 H 234.614 -6.78097 0.368883 0
M  V30 2339 H 232.56 -6.30152 -1.82332 0
M  V30 2340 H 232.477 -7.53542 -0.609082 0
M  V30 2341 H 233.745 -7.58499 -1.79722 0
M  V30 2342 N 237.974 -0.419461 -1.51915 0
M  V30 2343 C 238.921 0.400927 -2.27291 0
M  V30 2344 C 239.891 1.03224 -1.30131 0
M  V30 2345 O 241.076 1.05455 -1.59009 0
M  V30 2346 C 238.216 1.50603 -3.10504 0
M  V30 2347 C 237.329 0.89462 -4.22635 0
M  V30 2348 C 236.464 1.97328 -4.93189 0
M  V30 2349 C 235.503 1.33935 -5.97267 0
M  V30 2350 N 234.64 2.3586 -6.61298 0
M  V30 2351 H 239.48 -0.248251 -2.96964 0
M  V30 2352 H 237.017 -0.134266 -1.46486 0
M  V30 2353 H 238.975 2.15783 -3.57062 0
M  V30 2354 H 237.605 2.12509 -2.42981 0
M  V30 2355 H 236.657 0.131583 -3.80172 0
M  V30 2356 H 237.969 0.391641 -4.9726 0
M  V30 2357 H 237.123 2.70211 -5.43204 0
M  V30 2358 H 235.862 2.50994 -4.18155 0
M  V30 2359 H 234.867 0.595896 -5.46561 0
M  V30 2360 H 236.092 0.810252 -6.74249 0
M  V30 2361 H 234.038 2.88639 -5.89087 0
M  V30 2362 H 233.955 1.90403 -7.3163 0
M  V30 2363 H 235.223 3.08282 -7.15949 0
M  V30 2364 N 239.452 1.56882 -0.150215 0
M  V30 2365 C 240.7 1.9584 0.499105 0
M  V30 2366 C 241.021 1.03623 1.65188 0
M  V30 2367 O 240.291 0.0984084 1.95653 0
M  V30 2368 H 238.871 0.723119 0.187373 0
M  V30 2369 H 241.533 1.9358 -0.226466 0
M  V30 2370 H 240.629 2.99638 0.873122 0
M  V30 2371 N 240.93 -0.123565 1.57115 0
M  V30 2372 C 242.178 -0.83051 1.84247 0
M  V30 2373 C 242.499 -1.80629 0.73471 0
M  V30 2374 O 241.769 -1.94403 -0.241688 0
M  V30 2375 H 240.349 -0.309694 0.679778 0
M  V30 2376 H 243.011 -0.111976 1.94578 0
M  V30 2377 H 242.107 -1.37852 2.80006 0
M  V30 2378 N 242.408 -1.52605 -0.393616 0
M  V30 2379 C 243.636 -1.71294 -1.16043 0
M  V30 2380 C 244.051 -0.429259 -1.83855 0
M  V30 2381 O 243.408 0.595921 -1.72496 0
M  V30 2382 C 243.459 -2.8593 -2.21193 0
M  V30 2383 O 243.18 -4.09329 -1.56146 0
M  V30 2384 C 244.681 -3.16259 -3.10636 0
M  V30 2385 H 241.901 -0.573641 -0.348104 0
M  V30 2386 H 244.445 -1.99234 -0.461092 0
M  V30 2387 H 242.6 -2.60465 -2.86769 0
M  V30 2388 H 243.014 -4.73323 -2.25978 0
M  V30 2389 H 244.488 -3.99946 -3.80456 0
M  V30 2390 H 244.965 -2.3045 -3.73884 0
M  V30 2391 H 245.571 -3.43547 -2.50711 0
M  V30 2392 N 243.887 0.651787 -1.4349 0
M  V30 2393 C 245.303 0.96762 -1.26922 0
M  V30 2394 C 245.503 2.00602 -0.189982 0
M  V30 2395 O 244.559 2.48793 0.431107 0
M  V30 2396 C 245.872 1.45052 -2.63401 0
M  V30 2397 C 247.42 1.5671 -2.70945 0
M  V30 2398 C 247.895 2.0839 -4.07845 0
M  V30 2399 N 249.386 2.1569 -4.09917 0
M  V30 2400 C 250.121 2.56804 -5.12679 0
M  V30 2401 N 249.617 2.97203 -6.25813 0
M  V30 2402 N 251.41 2.56756 -5.00033 0
M  V30 2403 H 243.561 -0.0353158 -2.12371 0
M  V30 2404 H 245.824 0.0467858 -0.946845 0
M  V30 2405 H 245.53 0.761926 -3.43348 0
M  V30 2406 H 245.404 2.42529 -2.88894 0
M  V30 2407 H 247.791 2.2467 -1.9133 0
M  V30 2408 H 247.872 0.57662 -2.49216 0
M  V30 2409 H 247.516 1.41031 -4.87927 0
M  V30 2410 H 247.446 3.08271 -4.26938 0
M  V30 2411 H 249.937 1.87237 -3.28254 0
M  V30 2412 H 250.25 3.27328 -7.00055 0
M  V30 2413 H 248.595 2.95004 -6.29283 0
M  V30 2414 H 251.786 2.24572 -4.10713 0
M  V30 2415 H 251.959 2.88475 -5.80247 0
M  V30 2416 N 245.365 1.30045 0.890287 0
M  V30 2417 C 246.328 1.15963 1.977 0
M  V30 2418 C 247.328 0.0923777 1.60534 0
M  V30 2419 O 248.518 0.340071 1.70848 0
M  V30 2420 C 245.65 0.775451 3.31963 0
M  V30 2421 H 246.843 2.12502 2.11619 0
M  V30 2422 H 244.396 1.13366 1.07601 0
M  V30 2423 H 245.131 -0.189671 3.23745 0
M  V30 2424 H 244.916 1.54668 3.60306 0
M  V30 2425 H 246.406 0.700251 4.11687 0
M  V30 2426 N 246.843 -1.10192 1.12674 0
M  V30 2427 C 247.773 -2.18652 0.819362 0
M  V30 2428 C 248.754 -1.68698 -0.217915 0
M  V30 2429 O 249.939 -1.94041 -0.0785581 0
M  V30 2430 C 247.069 -3.46202 0.27594 0
M  V30 2431 C 246.023 -4.09444 1.24656 0
M  V30 2432 C 245.349 -5.31725 0.563258 0
M  V30 2433 C 246.649 -4.52863 2.60217 0
M  V30 2434 H 248.343 -2.44622 1.72628 0
M  V30 2435 H 245.889 -1.17571 0.831451 0
M  V30 2436 H 247.842 -4.21372 0.0486149 0
M  V30 2437 H 246.566 -3.1973 -0.666331 0
M  V30 2438 H 245.225 -3.36284 1.45974 0
M  V30 2439 H 244.873 -5.0153 -0.384235 0
M  V30 2440 H 244.573 -5.74991 1.21075 0
M  V30 2441 H 246.097 -6.09624 0.34503 0
M  V30 2442 H 247.511 -5.19294 2.42913 0
M  V30 2443 H 245.908 -5.06986 3.21068 0
M  V30 2444 H 246.978 -3.65656 3.18471 0
M  V30 2445 N 248.321 -0.919034 -1.28029 0
M  V30 2446 C 249.251 -0.428581 -2.29533 0
M  V30 2447 C 250.232 0.50659 -1.62381 0
M  V30 2448 O 251.417 0.413195 -1.89753 0
M  V30 2449 C 248.547 0.327388 -3.45753 0
M  V30 2450 C 247.501 -0.519137 -4.2484 0
M  V30 2451 C 246.827 0.365486 -5.33449 0
M  V30 2452 C 248.127 -1.77914 -4.91064 0
M  V30 2453 H 249.821 -1.27687 -2.70807 0
M  V30 2454 H 247.367 -0.615428 -1.30186 0
M  V30 2455 H 249.32 0.681378 -4.15855 0
M  V30 2456 H 248.044 1.20963 -3.03374 0
M  V30 2457 H 246.703 -0.855717 -3.56473 0
M  V30 2458 H 246.351 1.24642 -4.87312 0
M  V30 2459 H 246.051 -0.197356 -5.87268 0
M  V30 2460 H 247.575 0.715241 -6.06396 0
M  V30 2461 H 248.989 -1.49374 -5.53498 0
M  V30 2462 H 247.386 -2.2848 -5.54903 0
M  V30 2463 H 248.456 -2.50382 -4.15255 0
M  V30 2464 N 249.799 1.42003 -0.683588 0
M  V30 2465 C 250.709 2.34597 -0.0109075 0
M  V30 2466 C 251.725 1.55576 0.779245 0
M  V30 2467 O 252.901 1.88107 0.719555 0
M  V30 2468 C 249.966 3.34199 0.922588 0
M  V30 2469 C 249.027 4.29115 0.125984 0
M  V30 2470 C 248.26 5.23959 1.01502 0
M  V30 2471 O 248.483 5.23952 2.25456 0
M  V30 2472 O 247.417 6.00053 0.47111 0
M  V30 2473 H 251.243 2.93675 -0.773853 0
M  V30 2474 H 248.828 1.42654 -0.443861 0
M  V30 2475 H 250.71 3.95365 1.45823 0
M  V30 2476 H 249.385 2.77582 1.66523 0
M  V30 2477 H 248.292 3.71335 -0.453969 0
M  V30 2478 H 249.625 4.88798 -0.577736 0
M  V30 2479 N 251.277 0.427512 1.51691 0
M  V30 2480 C 252.524 -0.142229 2.02 0
M  V30 2481 C 252.852 -1.43566 1.31221 0
M  V30 2482 O 252.107 -1.91298 0.412744 0
M  V30 2483 C 252.406 -0.418249 3.54944 0
M  V30 2484 C 252.072 0.788187 4.43958 0
M  V30 2485 C 250.734 1.11906 4.68007 0
M  V30 2486 C 253.086 1.59347 4.96244 0
M  V30 2487 C 250.414 2.25608 5.41588 0
M  V30 2488 C 252.766 2.7214 5.71072 0
M  V30 2489 C 251.43 3.05692 5.93387 0
M  V30 2490 H 250.7 -0.0520451 0.73917 0
M  V30 2491 H 253.347 0.572697 1.82736 0
M  V30 2492 H 251.652 -1.21496 3.72486 0
M  V30 2493 H 253.349 -0.872339 3.91397 0
M  V30 2494 H 249.939 0.520344 4.2543 0
M  V30 2495 H 254.123 1.35106 4.77556 0
M  V30 2496 H 249.379 2.51929 5.57083 0
M  V30 2497 H 253.553 3.34914 6.10578 0
M  V30 2498 H 251.18 3.9391 6.50184 0
M  V30 2499 N 252.755 -1.56801 0.158532 0
M  V30 2500 C 253.685 -2.20347 -0.772609 0
M  V30 2501 C 254.666 -1.15518 -1.24859 0
M  V30 2502 O 255.851 -1.43902 -1.30406 0
M  V30 2503 C 252.981 -2.83417 -2.00729 0
M  V30 2504 C 251.935 -3.94174 -1.66765 0
M  V30 2505 C 251.261 -4.44233 -2.97592 0
M  V30 2506 C 252.561 -5.14392 -0.905447 0
M  V30 2507 H 254.255 -2.98413 -0.242959 0
M  V30 2508 H 251.801 -1.43537 -0.115419 0
M  V30 2509 H 253.754 -3.26543 -2.6636 0
M  V30 2510 H 252.478 -2.02701 -2.56086 0
M  V30 2511 H 251.137 -3.51684 -1.03508 0
M  V30 2512 H 250.785 -3.60325 -3.50963 0
M  V30 2513 H 250.485 -5.18945 -2.75626 0
M  V30 2514 H 252.009 -4.90037 -3.64274 0
M  V30 2515 H 253.423 -5.5429 -1.46408 0
M  V30 2516 H 251.82 -5.9494 -0.7853 0
M  V30 2517 H 252.89 -4.84795 0.100668 0
M  V30 2518 N 254.233 0.115231 -1.57178 0
M  V30 2519 C 255.649 0.468877 -1.52557 0
M  V30 2520 C 255.849 1.81649 -0.872125 0
M  V30 2521 O 254.905 2.48347 -0.45606 0
M  V30 2522 C 256.218 0.4499 -2.97315 0
M  V30 2523 C 257.766 0.533185 -3.08425 0
M  V30 2524 C 258.241 0.54456 -4.54751 0
M  V30 2525 N 259.732 0.605892 -4.5922 0
M  V30 2526 C 260.467 0.636203 -5.6986 0
M  V30 2527 N 259.963 0.623931 -6.89985 0
M  V30 2528 N 261.756 0.679496 -5.57978 0
M  V30 2529 H 253.907 -0.767712 -1.9804 0
M  V30 2530 H 256.17 -0.283609 -0.904583 0
M  V30 2531 H 255.876 -0.472721 -3.48509 0
M  V30 2532 H 255.75 1.27632 -3.5495 0
M  V30 2533 H 258.137 1.44623 -2.57232 0
M  V30 2534 H 258.218 -0.320995 -2.53778 0
M  V30 2535 H 257.862 -0.364452 -5.06591 0
M  V30 2536 H 257.792 1.41568 -5.07214 0
M  V30 2537 H 260.283 0.621386 -3.72756 0
M  V30 2538 H 260.596 0.649787 -7.70063 0
M  V30 2539 H 258.941 0.591296 -6.9248 0
M  V30 2540 H 262.132 0.686472 -4.63039 0
M  V30 2541 H 262.305 0.69965 -6.44212 0
M  V30 2542 N 255.711 1.52812 0.385517 0
M  V30 2543 C 256.957 1.68275 1.13188 0
M  V30 2544 C 257.29 0.423179 1.89533 0
M  V30 2545 O 256.565 -0.579113 1.85679 0
M  V30 2546 C 256.848 2.92001 2.1073 0
M  V30 2547 C 256.701 4.28067 1.38125 0
M  V30 2548 C 258.02 3.11283 3.11113 0
M  V30 2549 H 255.139 0.612352 0.410115 0
M  V30 2550 H 257.781 1.85415 0.414869 0
M  V30 2551 H 255.931 2.77519 2.71874 0
M  V30 2552 H 257.603 4.54324 0.799187 0
M  V30 2553 H 255.846 4.28388 0.683092 0
M  V30 2554 H 256.517 5.10733 2.09417 0
M  V30 2555 H 258.993 3.2482 2.6006 0
M  V30 2556 H 257.869 3.99325 3.76605 0
M  V30 2557 H 258.13 2.25656 3.80173 0
M  V30 2558 N 257.189 -0.644168 1.43834 0
M  V30 2559 C 258.139 -1.7501 1.46135 0
M  V30 2560 C 259.123 -1.57507 0.328685 0
M  V30 2561 O 260.315 -1.67465 0.5731 0
M  V30 2562 C 257.444 -3.13641 1.39585 0
M  V30 2563 C 256.53 -3.3666 2.57916 0
M  V30 2564 N 256.921 -3.30107 3.83227 0
M  V30 2565 C 255.219 -3.67411 2.52834 0
M  V30 2566 C 255.92 -3.53456 4.61999 0
M  V30 2567 N 254.896 -3.75705 3.9287 0
M  V30 2568 H 258.698 -1.68382 2.40883 0
M  V30 2569 H 256.212 -0.846169 1.38614 0
M  V30 2570 H 258.209 -3.92933 1.39317 0
M  V30 2571 H 256.869 -3.21444 0.45865 0
M  V30 2572 H 257.88 -3.09316 4.15384 0
M  V30 2573 H 254.557 -3.82275 1.67845 0
M  V30 2574 H 255.947 -3.54093 5.71024 0
M  V30 2575 N 258.668 -1.30515 -0.883378 0
M  V30 2576 C 260.079 -1.17509 -1.45081 0
M  V30 2577 C 260.43 0.223605 -1.94922 0
M  V30 2578 O 259.555 1.12041 -1.85137 0
M  V30 2579 C 260.15 -2.12715 -2.63701 0
M  V30 2580 C 258.709 -2.03682 -3.16529 0
M  V30 2581 C 257.856 -2.02706 -1.89224 0
M  V30 2582 H 260.807 -1.42762 -0.693165 0
M  V30 2583 H 260.828 -1.70891 -3.39965 0
M  V30 2584 H 260.34 -3.14505 -2.27395 0
M  V30 2585 H 258.441 -1.05039 -3.57488 0
M  V30 2586 H 258.554 -2.92146 -3.7972 0
M  V30 2587 H 256.918 -1.4753 -2.07622 0
M  V30 2588 H 257.701 -3.06229 -1.55174 0
M  V30 2589 N 260.146 1.09593 -1.13257 0
M  V30 2590 C 261.423 1.78293 -0.804432 0
M  V30 2591 C 261.803 1.99004 0.70431 0
M  V30 2592 O 261.151 1.59007 1.641 0
M  V30 2593 C 261.361 3.10707 -1.5894 0
M  V30 2594 C 262.709 3.85443 -1.78099 0
M  V30 2595 O 263.733 3.20454 -1.55525 0
M  V30 2596 O 262.592 5.02108 -2.15753 0
M  V30 2597 H 259.686 0.773156 -0.293528 0
M  V30 2598 H 262.232 1.16164 -1.23709 0
M  V30 2599 H 261.004 2.91106 -2.61482 0
M  V30 2600 H 260.627 3.80558 -1.15157 0
M  V30 2601 N 261.624 0.925811 1.2754 0
M  V30 2602 C 262.87 0.566092 1.94739 0
M  V30 2603 C 263.203 -0.890057 1.72603 0
M  V30 2604 O 262.478 -1.63467 1.05399 0
M  V30 2605 C 262.761 0.89054 3.48915 0
M  V30 2606 C 262.614 2.4003 3.80402 0
M  V30 2607 C 263.933 0.395101 4.38323 0
M  V30 2608 H 261.052 0.20714 0.707292 0
M  V30 2609 H 263.694 1.15725 1.50691 0
M  V30 2610 H 261.844 0.387452 3.86563 0
M  V30 2611 H 263.516 2.97494 3.52555 0
M  V30 2612 H 261.759 2.85028 3.2702 0
M  V30 2613 H 262.43 2.57785 4.8811 0
M  V30 2614 H 264.906 0.826241 4.07814 0
M  V30 2615 H 263.782 0.651086 5.45025 0
M  V30 2616 H 264.043 -0.704798 4.36446 0
M  V30 2617 N 263.102 -1.41638 0.69111 0
M  V30 2618 C 264.518 -1.55435 0.362224 0
M  V30 2619 C 264.718 -1.66754 -1.13117 0
M  V30 2620 O 263.774 -1.64348 -1.91692 0
M  V30 2621 C 265.087 -2.79588 1.10684 0
M  V30 2622 C 266.635 -2.9338 1.09075 0
M  V30 2623 C 267.11 -4.20414 1.81703 0
M  V30 2624 N 268.601 -4.27362 1.7865 0
M  V30 2625 C 269.336 -5.24507 2.31689 0
M  V30 2626 N 268.832 -6.27708 2.93179 0
M  V30 2627 N 270.625 -5.16416 2.2197 0
M  V30 2628 H 262.776 -1.32536 1.65976 0
M  V30 2629 H 265.039 -0.639115 0.700168 0
M  V30 2630 H 264.745 -2.77419 2.16175 0
M  V30 2631 H 264.619 -3.70973 0.682545 0
M  V30 2632 H 267.006 -2.95067 0.0441238 0
M  V30 2633 H 267.087 -2.0318 1.55407 0
M  V30 2634 H 266.731 -4.19488 2.86343 0
M  V30 2635 H 266.661 -5.09578 1.32808 0
M  V30 2636 H 269.152 -3.53415 1.33815 0
M  V30 2637 H 269.465 -6.98217 3.31229 0
M  V30 2638 H 267.81 -6.28223 2.97255 0
M  V30 2639 H 271.001 -4.34716 1.73607 0
M  V30 2640 H 271.174 -5.91958 2.63609 0
M  V30 2641 N 264.58 -0.43555 -1.51462 0
M  V30 2642 C 265.543 0.365137 -2.26273 0
M  V30 2643 C 266.543 0.951227 -1.29647 0
M  V30 2644 O 267.733 0.825958 -1.53374 0
M  V30 2645 C 264.865 1.51645 -3.05314 0
M  V30 2646 H 266.058 -0.290474 -2.9849 0
M  V30 2647 H 263.611 -0.188676 -1.55157 0
M  V30 2648 H 264.346 2.20816 -2.3751 0
M  V30 2649 H 264.131 1.10238 -3.76284 0
M  V30 2650 H 265.621 2.08218 -3.61987 0
M  V30 2651 N 266.058 1.56714 -0.166846 0
M  V30 2652 C 267.304 1.97039 0.479962 0
M  V30 2653 C 267.637 1.05264 1.63197 0
M  V30 2654 O 266.912 0.0988833 1.94248 0
M  V30 2655 C 267.195 3.46867 0.967212 0
M  V30 2656 C 267.048 4.49421 -0.18466 0
M  V30 2657 C 268.367 3.9968 1.84238 0
M  V30 2658 H 265.486 0.71641 0.172992 0
M  V30 2659 H 268.128 1.8832 -0.252079 0
M  V30 2660 H 266.278 3.54428 1.59101 0
M  V30 2661 H 267.95 4.53924 -0.821621 0
M  V30 2662 H 266.193 4.25573 -0.840837 0
M  V30 2663 H 266.864 5.51644 0.198317 0
M  V30 2664 H 269.34 3.94723 1.31655 0
M  V30 2665 H 268.216 5.04941 2.15234 0
M  V30 2666 H 268.477 3.43226 2.78654 0
M  V30 2667 N 267.536 -0.106894 1.57237 0
M  V30 2668 C 268.784 -0.810921 1.85117 0
M  V30 2669 C 269.105 -1.7984 0.753827 0
M  V30 2670 O 268.375 -1.94649 -0.221056 0
M  V30 2671 H 266.955 -0.302466 0.683025 0
M  V30 2672 H 269.617 -0.0913324 1.94686 0
M  V30 2673 H 268.713 -1.34875 2.81452 0
M  V30 2674 N 269.014 -1.53014 -0.377408 0
M  V30 2675 C 269.977 -1.77957 -1.44444 0
M  V30 2676 C 270.977 -0.649763 -1.47087 0
M  V30 2677 O 272.167 -0.917897 -1.48055 0
M  V30 2678 C 269.299 -1.89089 -2.83651 0
M  V30 2679 H 270.492 -2.73243 -1.23606 0
M  V30 2680 H 268.045 -1.43912 -0.609844 0
M  V30 2681 H 268.78 -0.958293 -3.09818 0
M  V30 2682 H 268.565 -2.71254 -2.83132 0
M  V30 2683 H 270.055 -2.1002 -3.60945 0
M  V30 2684 N 270.492 0.636531 -1.44174 0
M  V30 2685 C 271.402 1.77754 -1.53103 0
M  V30 2686 C 272.418 1.68928 -0.417034 0
M  V30 2687 O 273.594 1.89801 -0.6736 0
M  V30 2688 C 270.659 3.14115 -1.46741 0
M  V30 2689 C 269.72 3.34612 -2.68948 0
M  V30 2690 C 268.953 4.64467 -2.6288 0
M  V30 2691 O 269.176 5.44919 -1.68581 0
M  V30 2692 O 268.11 4.87049 -3.53648 0
M  V30 2693 H 271.936 1.73174 -2.49489 0
M  V30 2694 H 269.521 0.79709 -1.2636 0
M  V30 2695 H 271.403 3.95412 -1.45696 0
M  V30 2696 H 270.078 3.19249 -0.534975 0
M  V30 2697 H 268.985 2.53014 -2.75562 0
M  V30 2698 H 270.318 3.34336 -3.61221 0
M  V30 2699 N 271.97 1.30982 0.876444 0
M  V30 2700 C 273.381 1.18277 1.44456 0
M  V30 2701 C 273.732 -0.213265 1.95037 0
M  V30 2702 O 272.857 -1.11057 1.85729 0
M  V30 2703 C 273.452 2.1411 2.62569 0
M  V30 2704 C 272.011 2.05358 3.15444 0
M  V30 2705 C 271.158 2.03706 1.88146 0
M  V30 2706 H 274.109 1.43127 0.685584 0
M  V30 2707 H 274.13 1.72692 3.39054 0
M  V30 2708 H 273.642 3.15706 2.25724 0
M  V30 2709 H 271.743 1.06934 3.56926 0
M  V30 2710 H 271.856 2.94156 3.78166 0
M  V30 2711 H 270.22 1.48629 2.06837 0
M  V30 2712 H 271.003 3.07047 1.53547 0
M  V30 2713 N 273.449 -1.08991 1.13837 0
M  V30 2714 C 274.399 -2.1393 0.788535 0
M  V30 2715 C 275.383 -1.59396 -0.219516 0
M  V30 2716 O 276.575 -1.76985 -0.0227557 0
M  V30 2717 C 273.704 -3.42305 0.261147 0
M  V30 2718 C 272.79 -4.03736 1.29837 0
M  V30 2719 N 273.181 -4.39659 2.50067 0
M  V30 2720 C 271.479 -4.30993 1.1472 0
M  V30 2721 C 272.18 -4.88113 3.16419 0
M  V30 2722 N 271.156 -4.85846 2.43832 0
M  V30 2723 H 274.958 -2.39516 1.70322 0
M  V30 2724 H 272.472 -1.26263 1.02134 0
M  V30 2725 H 274.469 -4.16899 -0.0077405 0
M  V30 2726 H 273.129 -3.18172 -0.647805 0
M  V30 2727 H 274.14 -4.30878 2.8734 0
M  V30 2728 H 270.817 -4.16444 0.296773 0
M  V30 2729 H 272.207 -5.25336 4.18894 0
M  V30 2730 N 274.927 -0.932562 -1.27047 0
M  V30 2731 C 276.174 -0.575559 -1.94148 0
M  V30 2732 C 276.502 0.883984 -1.73251 0
M  V30 2733 O 275.757 1.64655 -1.0577 0
M  V30 2734 C 276.056 -0.853713 -3.47054 0
M  V30 2735 C 275.722 -2.29577 -3.88079 0
M  V30 2736 C 274.384 -2.68999 -3.9899 0
M  V30 2737 C 276.736 -3.23331 -4.08787 0
M  V30 2738 C 274.064 -4.01289 -4.28 0
M  V30 2739 C 276.416 -4.55207 -4.39282 0
M  V30 2740 C 275.08 -4.94457 -4.48407 0
M  V30 2741 H 274.35 -0.210612 -0.710439 0
M  V30 2742 H 276.997 -1.17744 -1.51025 0
M  V30 2743 H 275.302 -0.169204 -3.91434 0
M  V30 2744 H 276.999 -0.55639 -3.97121 0
M  V30 2745 H 273.589 -1.97994 -3.80127 0
M  V30 2746 H 277.773 -2.94074 -3.99793 0
M  V30 2747 H 273.029 -4.31374 -4.33275 0
M  V30 2748 H 277.203 -5.27852 -4.54252 0
M  V30 2749 H 274.83 -5.96994 -4.7064 0
M  V30 2750 N 276.405 1.4127 -0.698611 0
M  V30 2751 C 277.652 2.0118 -0.230865 0
M  V30 2752 C 277.98 1.55338 1.17049 0
M  V30 2753 O 277.235 0.756775 1.80475 0
M  V30 2754 C 277.534 3.56592 -0.240192 0
M  V30 2755 C 277.2 4.21955 -1.58948 0
M  V30 2756 C 275.862 4.39524 -1.95887 0
M  V30 2757 C 278.214 4.58576 -2.47704 0
M  V30 2758 C 275.542 4.90992 -3.2116 0
M  V30 2759 C 277.894 5.11435 -3.72313 0
M  V30 2760 C 276.558 5.27215 -4.0939 0
M  V30 2761 H 275.828 0.736169 -0.0844796 0
M  V30 2762 H 278.475 1.69124 -0.8983 0
M  V30 2763 H 276.78 3.88456 0.510797 0
M  V30 2764 H 278.477 4.00758 0.139296 0
M  V30 2765 H 275.067 4.08657 -1.29219 0
M  V30 2766 H 279.251 4.44654 -2.20445 0
M  V30 2767 H 274.507 5.01393 -3.49878 0
M  V30 2768 H 278.681 5.38752 -4.4127 0
M  V30 2769 H 276.308 5.66859 -5.06533 0
M  V30 2770 N 277.883 0.443576 1.51229 0
M  V30 2771 C 279.16 -0.181038 1.9476 0
M  V30 2772 C 279.54 -1.59523 1.38259 0
M  V30 2773 O 278.888 -2.2122 0.572198 0
M  V30 2774 C 279.098 -0.152422 3.48667 0
M  V30 2775 C 280.446 -0.354923 4.23114 0
M  V30 2776 O 281.47 -0.230257 3.55455 0
M  V30 2777 O 280.329 -0.603674 5.43156 0
M  V30 2778 H 277.423 -0.1266 0.817252 0
M  V30 2779 H 279.969 0.502004 1.62105 0
M  V30 2780 H 278.741 0.836022 3.82265 0
M  V30 2781 H 278.364 -0.878107 3.87782 0
M  V30 2782 N 279.361 -1.56624 0.175154 0
M  V30 2783 C 280.777 -1.58571 -0.180966 0
M  V30 2784 C 280.977 -1.19065 -1.6256 0
M  V30 2785 O 280.033 -0.904044 -2.35761 0
M  V30 2786 C 281.346 -3.00522 0.103326 0
M  V30 2787 C 282.894 -3.12972 0.0418426 0
M  V30 2788 C 283.369 -4.57022 0.299175 0
M  V30 2789 N 284.86 -4.62541 0.247086 0
M  V30 2790 C 285.595 -5.71857 0.420318 0
M  V30 2791 N 285.091 -6.89717 0.652816 0
M  V30 2792 N 286.884 -5.60972 0.355957 0
M  V30 2793 H 279.035 -1.80589 1.11809 0
M  V30 2794 H 281.298 -0.837178 0.444788 0
M  V30 2795 H 281.004 -3.33916 1.10422 0
M  V30 2796 H 280.878 -3.72344 -0.603299 0
M  V30 2797 H 283.265 -2.79403 -0.949636 0
M  V30 2798 H 283.346 -2.43578 0.781238 0
M  V30 2799 H 282.99 -4.913 1.28788 0
M  V30 2800 H 282.92 -5.24579 -0.460876 0
M  V30 2801 H 285.411 -3.77829 0.0731895 0
M  V30 2802 H 285.724 -7.68911 0.774347 0
M  V30 2803 H 284.069 -6.91572 0.689476 0
M  V30 2804 H 287.26 -4.67773 0.174882 0
M  V30 2805 H 287.433 -6.46111 0.494388 0
M  V30 2806 N 280.839 0.0985539 -1.57292 0
M  V30 2807 C 282.064 0.820196 -1.90493 0
M  V30 2808 C 282.489 1.71658 -0.769094 0
M  V30 2809 O 281.847 1.79133 0.279495 0
M  V30 2810 C 281.895 1.61242 -3.22542 0
M  V30 2811 O 280.999 2.72108 -3.09888 0
M  V30 2812 H 280.34 0.225547 -0.62452 0
M  V30 2813 H 282.87 0.0748159 -2.04463 0
M  V30 2814 H 282.88 1.99737 -3.55766 0
M  V30 2815 H 281.555 0.954535 -4.04798 0
M  V30 2816 H 280.132 2.36667 -2.88172 0
M  V30 2817 N 282.317 1.53212 0.369288 0
M  V30 2818 C 283.547 1.72868 1.13139 0
M  V30 2819 C 283.955 0.455754 1.83629 0
M  V30 2820 O 283.298 -0.580861 1.74275 0
M  V30 2821 C 283.36 2.83667 2.20847 0
M  V30 2822 C 283.024 4.24142 1.70155 0
M  V30 2823 C 284.021 5.06619 1.16763 0
M  V30 2824 C 281.706 4.70539 1.7578 0
M  V30 2825 C 283.7 6.33581 0.696678 0
M  V30 2826 C 281.387 5.97481 1.28297 0
M  V30 2827 C 282.385 6.78833 0.753307 0
M  V30 2828 O 282.073 8.03393 0.285475 0
M  V30 2829 H 281.805 0.581707 0.344373 0
M  V30 2830 H 284.359 2.00736 0.435243 0
M  V30 2831 H 282.589 2.51265 2.93944 0
M  V30 2832 H 284.278 2.91536 2.82421 0
M  V30 2833 H 285.044 4.71948 1.11758 0
M  V30 2834 H 280.923 4.07293 2.15949 0
M  V30 2835 H 284.467 6.97027 0.282581 0
M  V30 2836 H 280.364 6.31651 1.32994 0
M  V30 2837 H 281.132 8.17497 0.405145 0
M  V30 2838 N 283.795 -0.628877 1.44509 0
M  V30 2839 C 285.072 -1.38733 1.37886 0
M  V30 2840 C 285.452 -2.11065 0.0387008 0
M  V30 2841 O 284.8 -2.06476 -0.97878 0
M  V30 2842 C 285.01 -2.35188 2.57852 0
M  V30 2843 C 286.358 -2.9845 3.02014 0
M  V30 2844 O 287.382 -2.45513 2.58073 0
M  V30 2845 O 286.241 -3.94487 3.78209 0
M  V30 2846 H 283.335 -0.621015 0.54614 0
M  V30 2847 H 285.881 -0.653744 1.56602 0
M  V30 2848 H 284.653 -1.80855 3.46998 0
M  V30 2849 H 284.276 -3.1596 2.4136 0
M  V30 2850 N 285.273 -1.31445 -0.869486 0
M  V30 2851 C 286.22 -1.19135 -1.97675 0
M  V30 2852 C 287.19 -0.0770266 -1.65921 0
M  V30 2853 O 288.375 -0.249972 -1.89155 0
M  V30 2854 C 285.515 -0.905149 -3.33018 0
M  V30 2855 C 284.628 -2.10285 -3.77365 0
M  V30 2856 C 283.763 -1.75339 -5.01427 0
M  V30 2857 C 282.802 -2.91515 -5.38224 0
M  V30 2858 N 281.939 -2.56762 -6.53466 0
M  V30 2859 H 286.779 -2.13853 -2.07535 0
M  V30 2860 H 284.316 -1.06379 -1.01597 0
M  V30 2861 H 286.274 -0.719765 -4.10944 0
M  V30 2862 H 284.904 0.00519624 -3.228 0
M  V30 2863 H 283.956 -2.39899 -2.95216 0
M  V30 2864 H 285.268 -2.97237 -4.00564 0
M  V30 2865 H 284.422 -1.53266 -5.87022 0
M  V30 2866 H 283.161 -0.855801 -4.80133 0
M  V30 2867 H 282.166 -3.14237 -4.51149 0
M  V30 2868 H 283.391 -3.81985 -5.61484 0
M  V30 2869 H 281.337 -1.69526 -6.33717 0
M  V30 2870 H 281.254 -3.37243 -6.76612 0
M  V30 2871 H 282.522 -2.38083 -7.42251 0
M  V30 2872 N 286.751 1.08385 -1.14413 0
M  V30 2873 C 287.999 1.80419 -0.910679 0
M  V30 2874 C 288.32 1.86658 0.564243 0
M  V30 2875 O 287.59 1.35985 1.41014 0
M  V30 2876 H 286.17 0.668204 -0.333934 0
M  V30 2877 H 288.832 1.31037 -1.44275 0
M  V30 2878 H 287.928 2.83238 -1.31082 0
M  V30 2879 N 288.23 0.939286 1.26551 0
M  V30 2880 C 289.16 0.465044 2.28822 0
M  V30 2881 C 290.141 -0.480692 1.63167 0
M  V30 2882 O 291.326 -0.382955 1.90387 0
M  V30 2883 C 288.456 -0.27234 3.46231 0
M  V30 2884 C 287.41 0.58666 4.2396 0
M  V30 2885 C 286.736 -0.280573 5.33963 0
M  V30 2886 C 288.036 1.85704 4.88171 0
M  V30 2887 H 289.73 1.31979 2.68741 0
M  V30 2888 H 287.276 0.636061 1.29191 0
M  V30 2889 H 289.229 -0.615133 4.16886 0
M  V30 2890 H 287.953 -1.16121 3.0526 0
M  V30 2891 H 286.612 0.91232 3.55067 0
M  V30 2892 H 286.26 -1.16874 4.89234 0
M  V30 2893 H 285.96 0.29076 5.8688 0
M  V30 2894 H 287.484 -0.618678 6.07458 0
M  V30 2895 H 288.898 1.58161 5.51052 0
M  V30 2896 H 287.295 2.37279 5.51197 0
M  V30 2897 H 288.365 2.56957 4.11219 0
M  V30 2898 N 289.708 -1.40897 0.706093 0
M  V30 2899 C 290.671 -2.29131 0.0562841 0
M  V30 2900 C 291.671 -1.44901 -0.697166 0
M  V30 2901 O 292.861 -1.65926 -0.530484 0
M  V30 2902 C 289.993 -3.27957 -0.93043 0
M  V30 2903 H 291.186 -2.88091 0.833284 0
M  V30 2904 H 288.739 -1.4906 0.470192 0
M  V30 2905 H 289.474 -2.73997 -1.73482 0
M  V30 2906 H 289.259 -3.90124 -0.393166 0
M  V30 2907 H 290.749 -3.94049 -1.38256 0
M  V30 2908 N 291.186 -0.45159 -1.50991 0
M  V30 2909 C 292.432 0.102439 -2.03142 0
M  V30 2910 C 292.787 1.39138 -1.32884 0
M  V30 2911 O 292.08 1.86493 -0.439438 0
M  V30 2912 C 292.274 0.361728 -3.55565 0
M  V30 2913 C 292.103 -0.900535 -4.40591 0
M  V30 2914 C 290.873 -1.43821 -4.844 0
M  V30 2915 C 293.071 -1.79063 -4.82121 0
M  V30 2916 N 291.053 -2.65153 -5.53685 0
M  V30 2917 C 292.424 -2.84991 -5.50618 0
M  V30 2918 C 294.479 -1.80334 -4.64095 0
M  V30 2919 C 293.182 -3.92155 -6.02998 0
M  V30 2920 C 295.208 -2.86442 -5.17402 0
M  V30 2921 C 294.57 -3.9109 -5.85857 0
M  V30 2922 H 290.669 -0.00204537 -0.781997 0
M  V30 2923 H 293.253 -0.615446 -1.84717 0
M  V30 2924 H 291.424 1.04865 -3.73976 0
M  V30 2925 H 293.156 0.908372 -3.94374 0
M  V30 2926 H 289.911 -0.990117 -4.63135 0
M  V30 2927 H 290.335 -3.26717 -5.92946 0
M  V30 2928 H 294.977 -1.00753 -4.1062 0
M  V30 2929 H 292.695 -4.72565 -6.55521 0
M  V30 2930 H 296.281 -2.88386 -5.05297 0
M  V30 2931 H 295.161 -4.71845 -6.26364 0
M  V30 2932 N 292.664 1.56529 -0.183458 0
M  V30 2933 C 293.894 2.01331 0.463612 0
M  V30 2934 C 294.302 1.06278 1.5653 0
M  V30 2935 O 293.645 0.0577976 1.83609 0
M  V30 2936 C 293.707 3.42547 1.09096 0
M  V30 2937 C 293.371 4.56817 0.129442 0
M  V30 2938 C 294.368 5.15734 -0.656807 0
M  V30 2939 C 292.053 5.02295 0.02174 0
M  V30 2940 C 294.047 6.1857 -1.53784 0
M  V30 2941 C 291.734 6.04978 -0.862864 0
M  V30 2942 C 292.732 6.62988 -1.64123 0
M  V30 2943 O 292.42 7.63677 -2.51103 0
M  V30 2944 H 292.152 0.664917 0.121907 0
M  V30 2945 H 294.706 2.034 -0.285954 0
M  V30 2946 H 292.936 3.37428 1.88889 0
M  V30 2947 H 294.625 3.71228 1.64148 0
M  V30 2948 H 295.391 4.81473 -0.583839 0
M  V30 2949 H 291.27 4.56847 0.617392 0
M  V30 2950 H 294.814 6.63777 -2.14583 0
M  V30 2951 H 290.711 6.38663 -0.93699 0
M  V30 2952 H 291.479 7.81049 -2.44753 0
M  V30 2953 N 294.142 -0.090211 1.57342 0
M  V30 2954 C 295.558 -0.444547 1.53284 0
M  V30 2955 C 295.758 -1.80238 0.900914 0
M  V30 2956 O 294.814 -2.4759 0.495513 0
M  V30 2957 C 296.127 -0.402543 2.97993 0
M  V30 2958 C 297.675 -0.48405 3.09234 0
M  V30 2959 C 298.15 -0.472144 4.5556 0
M  V30 2960 N 299.641 -0.532757 4.60126 0
M  V30 2961 C 300.376 -0.545462 5.708 0
M  V30 2962 N 299.872 -0.514082 6.9089 0
M  V30 2963 N 301.665 -0.59064 5.58988 0
M  V30 2964 H 293.816 0.799121 1.96794 0
M  V30 2965 H 296.079 0.297965 0.899956 0
M  V30 2966 H 295.785 0.528106 3.47712 0
M  V30 2967 H 295.659 -1.21969 3.56936 0
M  V30 2968 H 298.046 -1.40512 2.595 0
M  V30 2969 H 298.127 0.361328 2.53235 0
M  V30 2970 H 297.771 0.445 5.05947 0
M  V30 2971 H 297.701 -1.3348 5.09402 0
M  V30 2972 H 300.192 -0.562006 3.73698 0
M  V30 2973 H 300.505 -0.527195 7.71 0
M  V30 2974 H 298.85 -0.481054 6.93333 0
M  V30 2975 H 302.041 -0.61272 4.64073 0
M  V30 2976 H 302.214 -0.597073 6.45243 0
M  V30 2977 N 295.62 -1.53406 -0.361157 0
M  V30 2978 C 296.897 -1.60411 -1.11927 0
M  V30 2979 C 297.277 -0.414385 -2.06993 0
M  V30 2980 O 296.625 0.594976 -2.20618 0
M  V30 2981 C 296.835 -2.95652 -1.85448 0
M  V30 2982 C 298.183 -3.50386 -2.39823 0
M  V30 2983 O 299.207 -2.97711 -1.95568 0
M  V30 2984 O 298.066 -4.42482 -3.20737 0
M  V30 2985 H 295.16 -0.64811 -0.513695 0
M  V30 2986 H 297.706 -1.65749 -0.364065 0
M  V30 2987 H 296.478 -3.73682 -1.16091 0
M  V30 2988 H 296.101 -2.93825 -2.67866 0
M  V30 2989 N 297.098 0.621204 -1.44841 0
M  V30 2990 C 298.028 1.74366 -1.55303 0
M  V30 2991 C 299.009 1.65199 -0.405385 0
M  V30 2992 O 300.194 1.83807 -0.626787 0
M  V30 2993 C 297.324 3.12931 -1.50637 0
M  V30 2994 C 296.278 3.36896 -2.63979 0
M  V30 2995 C 295.604 4.75594 -2.44366 0
M  V30 2996 C 296.904 3.28483 -4.06074 0
M  V30 2997 H 298.598 1.65867 -2.49256 0
M  V30 2998 H 296.144 0.796558 -1.19962 0
M  V30 2999 H 298.097 3.9124 -1.56555 0
M  V30 3000 H 296.821 3.22237 -0.532057 0
M  V30 3001 H 295.48 2.60972 -2.57467 0
M  V30 3002 H 295.128 4.81616 -1.45105 0
M  V30 3003 H 294.828 4.92586 -3.20364 0
M  V30 3004 H 296.352 5.5612 -2.52117 0
M  V30 3005 H 297.766 3.96684 -4.13902 0
M  V30 3006 H 296.163 3.57008 -4.82354 0
M  V30 3007 H 297.233 2.26133 -4.28943 0
M  V30 3008 N 298.576 1.31904 0.862503 0
M  V30 3009 C 299.509 1.14514 1.97388 0
M  V30 3010 C 300.487 0.0466493 1.62533 0
M  V30 3011 O 301.671 0.204484 1.87388 0
M  V30 3012 C 298.798 0.751347 3.30261 0
M  V30 3013 C 297.844 1.85395 3.84098 0
M  V30 3014 S 298.677 3.46081 4.08642 0
M  V30 3015 C 299.833 3.08655 5.44502 0
M  V30 3016 H 300.066 2.08597 2.11836 0
M  V30 3017 H 297.599 1.16475 1.01356 0
M  V30 3018 H 299.557 0.530901 4.07052 0
M  V30 3019 H 298.218 -0.170493 3.13637 0
M  V30 3020 H 297.411 1.53122 4.80177 0
M  V30 3021 H 297.013 2.02984 3.14123 0
M  V30 3022 H 299.305 2.58012 6.26447 0
M  V30 3023 H 300.248 4.03726 5.81731 0
M  V30 3024 H 300.656 2.45891 5.08132 0
M  V30 3025 N 300.054 -1.07777 1.14986 0
M  V30 3026 C 301.465 -1.61766 0.932127 0
M  V30 3027 C 301.816 -1.88974 -0.527581 0
M  V30 3028 O 300.941 -1.65198 -1.39781 0
M  V30 3029 C 301.536 -2.93891 1.68563 0
M  V30 3030 C 300.095 -3.44639 1.5133 0
M  V30 3031 C 299.242 -2.18767 1.704 0
M  V30 3032 H 302.193 -0.909201 1.30074 0
M  V30 3033 H 302.214 -3.62623 1.15259 0
M  V30 3034 H 301.726 -2.74057 2.74799 0
M  V30 3035 H 299.827 -3.69564 0.474702 0
M  V30 3036 H 299.94 -4.20966 2.28746 0
M  V30 3037 H 298.304 -2.28253 1.13016 0
M  V30 3038 H 299.087 -2.01433 2.77992 0
M  V30 3039 N 301.532 -0.945985 -1.26051 0
M  V30 3040 C 302.948 -0.649045 -1.45807 0
M  V30 3041 C 303.148 0.796158 -1.85104 0
M  V30 3042 O 302.204 1.57233 -1.97571 0
M  V30 3043 C 303.517 -1.61458 -2.53677 0
M  V30 3044 C 305.065 -1.62481 -2.67524 0
M  V30 3045 C 305.54 -2.57776 -3.7857 0
M  V30 3046 N 307.031 -2.5609 -3.85969 0
M  V30 3047 C 307.766 -3.26508 -4.7136 0
M  V30 3048 N 307.262 -4.0637 -5.61102 0
M  V30 3049 N 309.055 -3.15437 -4.65248 0
M  V30 3050 H 301.206 -1.88005 -0.988328 0
M  V30 3051 H 303.469 -0.808198 -0.4955 0
M  V30 3052 H 303.175 -2.64644 -2.31638 0
M  V30 3053 H 303.049 -1.37036 -3.51427 0
M  V30 3054 H 305.436 -0.600167 -2.88933 0
M  V30 3055 H 305.517 -1.90958 -1.70202 0
M  V30 3056 H 305.161 -3.60361 -3.57913 0
M  V30 3057 H 305.091 -2.26587 -4.75359 0
M  V30 3058 H 307.582 -1.98105 -3.21812 0
M  V30 3059 H 307.895 -4.57042 -6.23164 0
M  V30 3060 H 306.24 -4.10469 -5.60839 0
M  V30 3061 H 309.431 -2.52525 -3.94143 0
M  V30 3062 H 309.604 -3.70584 -5.31575 0
M  V30 3063 N 303.011 1.40521 -0.713556 0
M  V30 3064 C 304.239 2.05237 -0.261775 0
M  V30 3065 C 304.654 1.53755 1.09567 0
M  V30 3066 O 304.011 0.693268 1.6882 0
M  V30 3067 C 304.062 3.60763 -0.230706 0
M  V30 3068 O 303.783 4.10345 -1.53455 0
M  V30 3069 C 305.284 4.42651 0.239874 0
M  V30 3070 H 302.504 0.660533 -0.118057 0
M  V30 3071 H 305.048 1.79967 -0.971192 0
M  V30 3072 H 303.203 3.8501 0.429661 0
M  V30 3073 H 303.617 5.04526 -1.43366 0
M  V30 3074 H 305.091 5.51599 0.210468 0
M  V30 3075 H 305.568 4.20082 1.28171 0
M  V30 3076 H 306.174 4.23507 -0.390142 0
M  V30 3077 N 304.489 0.459591 1.5075 0
M  V30 3078 C 305.419 -0.330644 2.31147 0
M  V30 3079 C 306.4 -1.00087 1.37538 0
M  V30 3080 O 307.585 -1.00025 1.66459 0
M  V30 3081 C 304.715 -1.41958 3.16962 0
M  V30 3082 C 303.669 -0.871608 4.19031 0
M  V30 3083 C 302.995 -2.05797 4.9351 0
M  V30 3084 C 304.295 0.109251 5.22186 0
M  V30 3085 H 305.989 0.340336 2.97459 0
M  V30 3086 H 303.535 0.165119 1.4305 0
M  V30 3087 H 305.488 -1.9798 3.71997 0
M  V30 3088 H 304.212 -2.11917 2.48513 0
M  V30 3089 H 302.871 -0.333442 3.6508 0
M  V30 3090 H 302.519 -2.74427 4.21544 0
M  V30 3091 H 302.219 -1.6976 5.62544 0
M  V30 3092 H 303.743 -2.62331 5.51375 0
M  V30 3093 H 305.157 -0.361405 5.7216 0
M  V30 3094 H 303.554 0.383316 5.98875 0
M  V30 3095 H 304.624 1.03887 4.73641 0
M  V30 3096 N 305.967 -1.56429 0.191757 0
M  V30 3097 C 307.244 -1.89224 -0.495332 0
M  V30 3098 C 307.624 -1.10478 -1.79883 0
M  V30 3099 O 306.972 -0.204852 -2.2758 0
M  V30 3100 C 307.182 -3.41548 -0.717367 0
M  V30 3101 C 308.53 -4.11711 -1.03823 0
M  V30 3102 O 309.554 -3.4698 -0.805204 0
M  V30 3103 O 308.413 -5.2611 -1.47887 0
M  V30 3104 H 305.507 -0.785788 -0.25781 0
M  V30 3105 H 308.053 -1.68111 0.231721 0
M  V30 3106 H 306.825 -3.90772 0.203287 0
M  V30 3107 H 306.448 -3.68342 -1.497 0
M  V30 3108 N 307.445 0.0818655 -1.57387 0
M  V30 3109 C 308.693 0.781368 -1.86384 0
M  V30 3110 C 309.014 1.78618 -0.782342 0
M  V30 3111 O 308.284 1.94976 0.190061 0
M  V30 3112 H 306.864 0.291562 -0.687751 0
M  V30 3113 H 309.526 0.060348 -1.94807 0
M  V30 3114 H 308.622 1.3038 -2.83562 0
M  V30 3115 N 308.923 1.53595 0.353017 0
M  V30 3116 C 309.855 1.77219 1.45348 0
M  V30 3117 C 310.868 0.65324 1.49119 0
M  V30 3118 O 312.057 0.929775 1.52373 0
M  V30 3119 C 309.157 1.84841 2.84055 0
M  V30 3120 C 308.33 3.14649 3.03833 0
M  V30 3121 C 307.389 3.13351 4.22727 0
M  V30 3122 O 306.415 3.87107 4.17297 0
M  V30 3123 N 307.617 2.35052 5.30783 0
M  V30 3124 H 310.382 2.72178 1.25457 0
M  V30 3125 H 307.943 1.52528 0.542833 0
M  V30 3126 H 309.935 1.81435 3.61751 0
M  V30 3127 H 308.505 0.971114 2.97133 0
M  V30 3128 H 307.725 3.31256 2.13689 0
M  V30 3129 H 309.013 4.00411 3.13925 0
M  V30 3130 H 308.411 1.74663 5.38061 0
M  V30 3131 H 306.968 2.37453 6.07009 0
M  V30 3132 N 310.401 -0.613514 1.45168 0
M  V30 3133 C 311.65 -1.36874 1.4815 0
M  V30 3134 C 311.963 -1.952 0.124982 0
M  V30 3135 O 313.169 -2.71481 0.0324176 0
M  V30 3136 C 311.625 -2.47905 2.60904 0
M  V30 3137 C 311.233 -1.96016 4.02842 0
M  V30 3138 C 312.977 -3.24965 2.73126 0
M  V30 3139 C 310.884 -3.04494 5.06988 0
M  V30 3140 H 309.814 -0.514428 0.551253 0
M  V30 3141 H 312.465 -0.658182 1.7129 0
M  V30 3142 H 310.847 -3.21618 2.31037 0
M  V30 3143 H 312.021 -1.29051 4.4236 0
M  V30 3144 H 310.336 -1.31719 3.95018 0
M  V30 3145 H 312.933 -4.05865 3.48106 0
M  V30 3146 H 313.276 -3.75588 1.79553 0
M  V30 3147 H 313.809 -2.5835 3.0249 0
M  V30 3148 H 310.548 -2.58795 6.0225 0
M  V30 3149 H 310.068 -3.70044 4.72046 0
M  V30 3150 H 311.747 -3.68976 5.31475 0
M  V30 3151 N 311.879 -1.3236 -0.855495 0
M  V30 3152 C 313.107 -1.2587 -1.64208 0
M  V30 3153 C 313.522 0.173457 -1.88002 0
M  V30 3154 O 312.879 1.11027 -1.44842 0
M  V30 3155 C 312.93 -2.01424 -3.00184 0
M  V30 3156 O 312.651 -3.39051 -2.77445 0
M  V30 3157 C 314.152 -2.01948 -3.94629 0
M  V30 3158 H 311.372 -0.434318 -0.511477 0
M  V30 3159 H 313.916 -1.74469 -1.0668 0
M  V30 3160 H 312.071 -1.56549 -3.5436 0
M  V30 3161 H 312.485 -3.77711 -3.63916 0
M  V30 3162 H 313.959 -2.59297 -4.87308 0
M  V30 3163 H 314.436 -1.00554 -4.27534 0
M  V30 3164 H 315.042 -2.46767 -3.4639 0
M  V30 3165 N 313.357 1.07166 -1.15556 0
M  V30 3166 C 314.29 2.13808 -0.797593 0
M  V30 3167 C 315.268 1.6101 0.226812 0
M  V30 3168 O 316.452 1.88161 0.112932 0
M  V30 3169 C 313.579 3.38187 -0.186371 0
M  V30 3170 C 312.625 4.09766 -1.18297 0
M  V30 3171 S 313.458 4.60932 -2.72584 0
M  V30 3172 C 314.614 5.88583 -2.12886 0
M  V30 3173 H 314.847 2.43843 -1.70083 0
M  V30 3174 H 312.38 1.19467 -0.978106 0
M  V30 3175 H 314.338 4.10189 0.159837 0
M  V30 3176 H 312.999 3.06326 0.694489 0
M  V30 3177 H 312.192 4.99065 -0.703562 0
M  V30 3178 H 311.794 3.43736 -1.47381 0
M  V30 3179 H 314.086 6.60866 -1.49208 0
M  V30 3180 H 315.029 6.41241 -3.0036 0
M  V30 3181 H 315.437 5.42194 -1.57116 0
M  V30 3182 N 314.835 0.952656 1.25548 0
M  V30 3183 C 315.745 0.47782 2.29682 0
M  V30 3184 C 316.761 -0.453859 1.67977 0
M  V30 3185 O 317.937 -0.330587 1.98668 0
M  V30 3186 C 315.002 -0.238655 3.45878 0
M  V30 3187 C 314.063 0.730994 4.23031 0
M  V30 3188 C 313.296 0.0486165 5.33678 0
M  V30 3189 O 313.519 -1.16612 5.58353 0
M  V30 3190 O 312.453 0.733152 5.97418 0
M  V30 3191 H 316.279 1.34312 2.72386 0
M  V30 3192 H 313.864 0.719026 1.30959 0
M  V30 3193 H 315.746 -0.641774 4.16484 0
M  V30 3194 H 314.421 -1.07916 3.05181 0
M  V30 3195 H 313.328 1.18428 3.5486 0
M  V30 3196 H 314.661 1.53946 4.67506 0
M  V30 3197 N 316.313 -1.40141 0.720998 0
M  V30 3198 C 317.26 -2.30688 0.071919 0
M  V30 3199 C 318.23 -1.48476 -0.744584 0
M  V30 3200 O 319.415 -1.77201 -0.707423 0
M  V30 3201 C 316.555 -3.34724 -0.839855 0
M  V30 3202 C 315.668 -4.31998 -0.0122438 0
M  V30 3203 C 314.803 -5.23102 -0.923995 0
M  V30 3204 C 313.842 -6.12033 -0.0907969 0
M  V30 3205 N 312.979 -6.95537 -0.957718 0
M  V30 3206 H 317.819 -2.85628 0.849755 0
M  V30 3207 H 315.356 -1.40653 0.430726 0
M  V30 3208 H 317.314 -3.93618 -1.38279 0
M  V30 3209 H 315.944 -2.81274 -1.58381 0
M  V30 3210 H 314.996 -3.74841 0.64794 0
M  V30 3211 H 316.308 -4.94772 0.632595 0
M  V30 3212 H 315.462 -5.86953 -1.53527 0
M  V30 3213 H 314.201 -4.60615 -1.60264 0
M  V30 3214 H 313.206 -5.47207 0.533377 0
M  V30 3215 H 314.431 -6.76581 0.584428 0
M  V30 3216 H 312.377 -6.35633 -1.62192 0
M  V30 3217 H 312.294 -7.55099 -0.36904 0
M  V30 3218 H 313.562 -7.63832 -1.555 0
M  V30 3219 N 317.792 -0.46758 -1.50504 0
M  V30 3220 C 319.02 0.0864133 -2.06719 0
M  V30 3221 C 319.435 1.33819 -1.33184 0
M  V30 3222 O 318.792 1.78061 -0.400083 0
M  V30 3223 C 318.843 0.378079 -3.59517 0
M  V30 3224 O 318.564 -0.824044 -4.3028 0
M  V30 3225 C 320.065 0.979426 -4.32345 0
M  V30 3226 H 317.285 -0.00551697 -0.670977 0
M  V30 3227 H 319.829 -0.655354 -1.93715 0
M  V30 3228 H 317.984 1.06977 -3.72337 0
M  V30 3229 H 318.398 -0.566518 -5.21432 0
M  V30 3230 H 319.872 1.1333 -5.40241 0
M  V30 3231 H 320.349 1.9686 -3.9261 0
M  V30 3232 H 320.955 0.326216 -4.24047 0
M  V30 3233 N 319.27 1.56325 -0.20005 0
M  V30 3234 C 320.681 1.8408 0.31167 0
M  V30 3235 C 321.032 1.12087 1.61031 0
M  V30 3236 O 320.157 0.38332 2.12978 0
M  V30 3237 C 320.752 3.33932 0.57226 0
M  V30 3238 C 319.311 3.6208 1.02834 0
M  V30 3239 C 318.458 2.77186 0.079634 0
M  V30 3240 H 321.409 1.52939 -0.423729 0
M  V30 3241 H 321.43 3.52971 1.42096 0
M  V30 3242 H 320.942 3.86303 -0.37308 0
M  V30 3243 H 319.043 3.15147 1.98778 0
M  V30 3244 H 319.156 4.7023 0.917624 0
M  V30 3245 H 317.52 2.47951 0.582448 0
M  V30 3246 H 318.303 3.32347 -0.860238 0
M  V30 3247 N 320.748 -0.0735177 1.57428 0
M  V30 3248 C 321.973 -0.789787 1.91774 0
M  V30 3249 C 322.398 -1.70413 0.796306 0
M  V30 3250 O 321.756 -1.79555 -0.250961 0
M  V30 3251 C 321.804 -1.5609 3.25067 0
M  V30 3252 O 320.908 -2.67144 3.14178 0
M  V30 3253 H 320.249 -0.215582 0.628029 0
M  V30 3254 H 322.779 -0.0422781 2.04556 0
M  V30 3255 H 322.789 -1.94052 3.58898 0
M  V30 3256 H 321.464 -0.890015 4.06265 0
M  V30 3257 H 320.041 -2.32052 2.91901 0
M  V30 3258 N 322.226 -1.5378 -0.344866 0
M  V30 3259 C 323.456 -1.74646 -1.10374 0
M  V30 3260 C 323.864 -0.48491 -1.8288 0
M  V30 3261 O 323.207 0.553062 -1.75177 0
M  V30 3262 C 323.269 -2.87145 -2.16306 0
M  V30 3263 C 322.933 -4.26795 -1.63386 0
M  V30 3264 C 323.93 -5.08412 -1.08688 0
M  V30 3265 C 321.615 -4.73276 -1.68272 0
M  V30 3266 C 323.609 -6.34609 -0.595792 0
M  V30 3267 C 321.296 -5.99446 -1.18776 0
M  V30 3268 C 322.294 -6.79946 -0.645215 0
M  V30 3269 O 321.982 -8.03745 -0.157626 0
M  V30 3270 H 321.714 -0.587112 -0.335075 0
M  V30 3271 H 324.268 -2.01403 -0.403252 0
M  V30 3272 H 322.498 -2.55909 -2.89909 0
M  V30 3273 H 324.187 -2.95992 -2.77747 0
M  V30 3274 H 324.953 -4.73666 -1.04236 0
M  V30 3275 H 320.832 -4.10677 -2.09442 0
M  V30 3276 H 324.376 -6.97389 -0.171654 0
M  V30 3277 H 320.273 -6.33687 -1.22928 0
M  V30 3278 H 321.041 -8.18038 -0.275037 0
M  V30 3279 N 323.704 0.605807 -1.45491 0
M  V30 3280 C 324.951 1.36476 -1.49601 0
M  V30 3281 C 325.279 1.94007 -0.138452 0
M  V30 3282 O 324.534 1.75638 0.863114 0
M  V30 3283 C 324.833 2.53012 -2.52428 0
M  V30 3284 C 324.499 2.13617 -3.97087 0
M  V30 3285 C 323.161 2.02587 -4.36477 0
M  V30 3286 C 325.513 1.82899 -4.88055 0
M  V30 3287 C 322.841 1.59064 -5.64726 0
M  V30 3288 C 325.193 1.40861 -6.16718 0
M  V30 3289 C 323.857 1.28391 -6.55036 0
M  V30 3290 H 323.127 0.499402 -0.547429 0
M  V30 3291 H 325.774 0.684546 -1.78847 0
M  V30 3292 H 324.079 3.26379 -2.16758 0
M  V30 3293 H 325.776 3.1124 -2.52845 0
M  V30 3294 H 322.366 2.23129 -3.65939 0
M  V30 3295 H 326.55 1.90317 -4.58359 0
M  V30 3296 H 321.806 1.48034 -5.93208 0
M  V30 3297 H 325.98 1.16138 -6.86648 0
M  V30 3298 H 323.607 0.944403 -7.54311 0
M  V30 3299 N 325.182 1.32811 0.848464 0
M  V30 3300 C 326.428 1.23907 1.60546 0
M  V30 3301 C 326.761 -0.197161 1.93197 0
M  V30 3302 O 326.036 -1.13596 1.5788 0
M  V30 3303 C 326.319 2.10489 2.92175 0
M  V30 3304 C 326.172 3.62522 2.66266 0
M  V30 3305 C 327.491 1.97075 3.93509 0
M  V30 3306 H 324.61 0.451459 0.58254 0
M  V30 3307 H 327.252 1.62818 0.979296 0
M  V30 3308 H 325.402 1.77434 3.45614 0
M  V30 3309 H 327.074 4.05821 2.19334 0
M  V30 3310 H 325.317 3.84879 2.00126 0
M  V30 3311 H 325.988 4.18437 3.6002 0
M  V30 3312 H 328.464 2.26045 3.49346 0
M  V30 3313 H 327.34 2.59923 4.83457 0
M  V30 3314 H 327.601 0.940186 4.31987 0
M  V30 3315 N 326.66 -1.06551 1.16123 0
M  V30 3316 C 327.888 -1.83005 0.965237 0
M  V30 3317 C 328.303 -1.82423 -0.486542 0
M  V30 3318 O 327.66 -1.24152 -1.33763 0
M  V30 3319 C 327.711 -3.29733 1.48183 0
M  V30 3320 O 327.432 -3.30416 2.87674 0
M  V30 3321 C 328.933 -4.22926 1.32848 0
M  V30 3322 H 326.153 -0.577118 0.342309 0
M  V30 3323 H 328.697 -1.3445 1.54089 0
M  V30 3324 H 326.852 -3.75609 0.948517 0
M  V30 3325 H 327.266 -4.22149 3.11272 0
M  V30 3326 H 328.74 -5.23916 1.73827 0
M  V30 3327 H 329.217 -4.38346 0.273692 0
M  V30 3328 H 329.823 -3.82894 1.85127 0
M  V30 3329 N 328.138 -0.959301 -1.25041 0
M  V30 3330 C 329.554 -0.664474 -1.4511 0
M  V30 3331 C 329.754 0.776481 -1.85938 0
M  V30 3332 O 328.81 1.55128 -1.99227 0
M  V30 3333 C 330.123 -1.64139 -2.5195 0
M  V30 3334 C 331.671 -1.65309 -2.65786 0
M  V30 3335 C 332.146 -2.61777 -3.75815 0
M  V30 3336 N 333.637 -2.60169 -3.83231 0
M  V30 3337 C 334.372 -3.31489 -4.6787 0
M  V30 3338 N 333.868 -4.12298 -5.56761 0
M  V30 3339 N 335.661 -3.20354 -4.61876 0
M  V30 3340 H 327.812 -1.89043 -0.968332 0
M  V30 3341 H 330.075 -0.813408 -0.4869 0
M  V30 3342 H 329.781 -2.67086 -2.28819 0
M  V30 3343 H 329.655 -1.40756 -3.49954 0
M  V30 3344 H 332.042 -0.630778 -2.8828 0
M  V30 3345 H 332.123 -1.92753 -1.68167 0
M  V30 3346 H 331.767 -3.64137 -3.54071 0
M  V30 3347 H 331.697 -2.31616 -4.72929 0
M  V30 3348 H 334.188 -2.01507 -3.19692 0
M  V30 3349 H 334.501 -4.63625 -6.18281 0
M  V30 3350 H 332.846 -4.16395 -5.56454 0
M  V30 3351 H 336.037 -2.56692 -3.91442 0
M  V30 3352 H 336.21 -3.76201 -5.27614 0
M  V30 3353 N 329.616 1.39756 -0.72842 0
M  V30 3354 C 330.526 2.34444 -0.0855374 0
M  V30 3355 C 331.542 1.57976 0.729356 0
M  V30 3356 O 332.718 1.90301 0.659346 0
M  V30 3357 C 329.783 3.36965 0.815798 0
M  V30 3358 C 328.844 4.29299 -0.0105996 0
M  V30 3359 C 328.077 5.26923 0.84781 0
M  V30 3360 O 328.3 5.30859 2.08673 0
M  V30 3361 O 327.234 6.01249 0.279969 0
M  V30 3362 H 331.06 2.91065 -0.866892 0
M  V30 3363 H 328.645 1.4117 -0.48902 0
M  V30 3364 H 330.527 3.99804 1.33171 0
M  V30 3365 H 329.202 2.82739 1.57608 0
M  V30 3366 H 328.109 3.69703 -0.571877 0
M  V30 3367 H 329.442 4.86712 -0.73295 0
M  V30 3368 N 331.094 0.475555 1.50254 0
M  V30 3369 C 332.057 -0.305016 2.27161 0
M  V30 3370 C 333.057 -0.916519 1.32123 0
M  V30 3371 O 334.247 -0.785003 1.5551 0
M  V30 3372 C 331.379 -1.43496 3.09227 0
M  V30 3373 H 332.572 0.369511 2.97615 0
M  V30 3374 H 330.125 0.229747 1.54602 0
M  V30 3375 H 330.86 -2.14441 2.43281 0
M  V30 3376 H 330.645 -1.00223 3.79075 0
M  V30 3377 H 332.135 -1.98548 3.67381 0
M  V30 3378 N 332.573 -1.56217 0.208337 0
M  V30 3379 C 333.984 -1.84243 -0.301904 0
M  V30 3380 C 334.335 -1.12939 -1.60434 0
M  V30 3381 O 333.46 -0.39461 -2.12772 0
M  V30 3382 C 334.055 -3.34231 -0.554543 0
M  V30 3383 C 332.614 -3.62621 -1.00912 0
M  V30 3384 C 331.761 -2.77224 -0.064933 0
M  V30 3385 H 334.712 -1.52712 0.431833 0
M  V30 3386 H 334.733 -3.5372 -1.40223 0
M  V30 3387 H 334.245 -3.86099 0.393561 0
M  V30 3388 H 332.346 -3.16197 -1.97104 0
M  V30 3389 H 332.459 -4.7071 -0.892674 0
M  V30 3390 H 330.823 -2.48256 -0.56929 0
M  V30 3391 H 331.606 -3.31887 0.877851 0
M  V30 3392 N 334.051 0.0651679 -1.57465 0
M  V30 3393 C 335.014 1.06117 -2.03155 0
M  V30 3394 C 336.014 1.31204 -0.929632 0
M  V30 3395 O 337.204 1.26813 -1.19432 0
M  V30 3396 C 334.336 2.4032 -2.41783 0
M  V30 3397 H 335.529 0.667231 -2.92383 0
M  V30 3398 H 333.082 0.311075 -1.53173 0
M  V30 3399 H 333.817 2.84532 -1.55601 0
M  V30 3400 H 333.602 2.23451 -3.22199 0
M  V30 3401 H 335.092 3.11898 -2.77685 0
M  V30 3402 N 335.529 1.53961 0.336706 0
M  V30 3403 C 336.945 1.44378 0.680241 0
M  V30 3404 C 337.145 0.606034 1.9217 0
M  V30 3405 O 336.201 0.099688 2.52303 0
M  V30 3406 C 337.514 2.87945 0.8665 0
M  V30 3407 C 339.062 2.97763 0.964682 0
M  V30 3408 C 339.537 4.42453 1.18321 0
M  V30 3409 N 341.028 4.46008 1.25025 0
M  V30 3410 C 341.763 5.55102 1.43697 0
M  V30 3411 N 341.259 6.7419 1.59498 0
M  V30 3412 N 343.052 5.42727 1.463 0
M  V30 3413 H 335.203 2.06918 -0.479455 0
M  V30 3414 H 337.466 0.935634 -0.152619 0
M  V30 3415 H 337.172 3.51691 0.0256937 0
M  V30 3416 H 337.046 3.33293 1.76623 0
M  V30 3417 H 339.433 2.34153 1.796 0
M  V30 3418 H 339.514 2.55766 0.041708 0
M  V30 3419 H 339.158 5.06645 0.356788 0
M  V30 3420 H 339.088 4.82048 2.11985 0
M  V30 3421 H 341.579 3.60196 1.14312 0
M  V30 3422 H 341.892 7.53095 1.734 0
M  V30 3423 H 340.237 6.77123 1.56621 0
M  V30 3424 H 343.428 4.48647 1.33543 0
M  V30 3425 H 343.601 6.27806 1.6051 0
M  V30 3426 N 337.007 -0.598083 1.45811 0
M  V30 3427 C 338.256 -1.35295 1.49594 0
M  V30 3428 C 338.569 -1.95057 0.145679 0
M  V30 3429 O 339.775 -2.71431 0.0612099 0
M  V30 3430 C 338.231 -2.45124 2.63519 0
M  V30 3431 C 337.839 -1.91732 4.04899 0
M  V30 3432 C 339.583 -3.2205 2.76558 0
M  V30 3433 C 337.49 -2.991 5.1019 0
M  V30 3434 H 336.42 -0.508552 0.556679 0
M  V30 3435 H 339.071 -0.639977 1.71978 0
M  V30 3436 H 337.453 -3.19149 2.34435 0
M  V30 3437 H 338.627 -1.24352 4.43704 0
M  V30 3438 H 336.942 -1.27522 3.96393 0
M  V30 3439 H 339.539 -4.0215 3.52391 0
M  V30 3440 H 339.882 -3.73663 1.83526 0
M  V30 3441 H 340.415 -2.55127 3.05213 0
M  V30 3442 H 337.154 -2.52393 6.04961 0
M  V30 3443 H 336.674 -3.65017 4.75944 0
M  V30 3444 H 338.353 -3.63318 5.35359 0
M  V30 3445 N 338.485 -1.33259 -0.841409 0
M  V30 3446 C 339.71 -1.2775 -1.63385 0
M  V30 3447 C 340.135 0.149188 -1.87507 0
M  V30 3448 O 339.493 1.10498 -1.43736 0
M  V30 3449 C 339.541 -2.05571 -2.96265 0
M  V30 3450 O 338.645 -1.41257 -3.87453 0
M  V30 3451 H 337.986 -0.439627 -0.497618 0
M  V30 3452 H 340.516 -1.75782 -1.04699 0
M  V30 3453 H 340.526 -2.16241 -3.45982 0
M  V30 3454 H 339.201 -3.09309 -2.7803 0
M  V30 3455 H 337.778 -1.39217 -3.45938 0
M  V30 3456 N 339.963 1.05934 -1.16686 0
M  V30 3457 C 340.926 2.11669 -0.879144 0
M  V30 3458 C 341.926 1.60294 0.127445 0
M  V30 3459 O 343.116 1.7389 -0.103865 0
M  V30 3460 C 340.248 3.39438 -0.315425 0
M  V30 3461 H 341.441 2.38626 -1.81653 0
M  V30 3462 H 338.994 1.22058 -0.976299 0
M  V30 3463 H 339.729 3.18132 0.629468 0
M  V30 3464 H 339.514 3.78034 -1.04079 0
M  V30 3465 H 341.004 4.17391 -0.132189 0
M  V30 3466 N 341.441 0.965919 1.2453 0
M  V30 3467 C 342.374 0.4393 2.23932 0
M  V30 3468 C 343.352 -0.485615 1.55179 0
M  V30 3469 O 344.536 -0.417402 1.83821 0
M  V30 3470 C 341.663 -0.366042 3.36716 0
M  V30 3471 C 340.709 0.5009 4.23548 0
M  V30 3472 S 341.542 1.94002 4.99123 0
M  V30 3473 C 342.698 1.14342 6.15367 0
M  V30 3474 H 342.931 1.28167 2.68254 0
M  V30 3475 H 340.464 0.770819 1.33782 0
M  V30 3476 H 342.422 -0.824724 4.0213 0
M  V30 3477 H 341.083 -1.18337 2.90956 0
M  V30 3478 H 340.276 -0.117341 5.03863 0
M  V30 3479 H 339.878 0.89524 3.63127 0
M  V30 3480 H 342.17 0.397572 6.76332 0
M  V30 3481 H 343.113 1.92089 6.81548 0
M  V30 3482 H 343.521 0.668579 5.60527 0
M  V30 3483 N 342.919 -1.39368 0.735821 0
M  V30 3484 C 344.144 -2.05319 0.293052 0
M  V30 3485 C 344.569 -1.55115 -1.064 0
M  V30 3486 O 343.927 -0.695261 -1.67439 0
M  V30 3487 C 343.975 -3.59305 0.305323 0
M  V30 3488 O 343.079 -4.06299 -0.706761 0
M  V30 3489 H 342.42 -0.650529 0.13307 0
M  V30 3490 H 344.95 -1.78386 1.00197 0
M  V30 3491 H 344.96 -4.07724 0.149997 0
M  V30 3492 H 343.635 -3.95207 1.29553 0
M  V30 3493 H 342.212 -3.69292 -0.517504 0
M  V30 3494 N 344.397 -0.483516 -1.5 0
M  V30 3495 C 345.344 0.304164 -2.28787 0
M  V30 3496 C 346.314 0.976114 -1.34392 0
M  V30 3497 O 347.499 0.986156 -1.63339 0
M  V30 3498 C 344.639 1.37298 -3.16612 0
M  V30 3499 C 343.752 0.714561 -4.26049 0
M  V30 3500 C 342.887 1.76232 -5.01114 0
M  V30 3501 C 341.926 1.08483 -6.0241 0
M  V30 3502 N 341.063 2.076 -6.70706 0
M  V30 3503 H 345.903 -0.373981 -2.95644 0
M  V30 3504 H 343.44 -0.196275 -1.45785 0
M  V30 3505 H 345.398 2.00445 -3.65893 0
M  V30 3506 H 344.028 2.02012 -2.51776 0
M  V30 3507 H 343.08 -0.0297798 -3.80388 0
M  V30 3508 H 344.392 0.180383 -4.98474 0
M  V30 3509 H 343.546 2.46929 -5.54176 0
M  V30 3510 H 342.285 2.33033 -4.28424 0
M  V30 3511 H 341.29 0.363545 -5.48597 0
M  V30 3512 H 342.515 0.523551 -6.77079 0
M  V30 3513 H 340.461 2.63394 -6.00799 0
M  V30 3514 H 340.378 1.59201 -7.39047 0
M  V30 3515 H 341.646 2.77639 -7.2838 0
M  V30 3516 N 345.875 1.56104 -0.216619 0
M  V30 3517 C 347.152 1.89988 0.465165 0
M  V30 3518 C 347.532 1.13326 1.78102 0
M  V30 3519 O 346.88 0.241033 2.27225 0
M  V30 3520 C 347.09 3.42646 0.662939 0
M  V30 3521 C 348.438 4.13311 0.972602 0
M  V30 3522 O 349.462 3.48217 0.749901 0
M  V30 3523 O 348.321 5.28396 1.39499 0
M  V30 3524 H 345.415 0.78979 0.245276 0
M  V30 3525 H 347.961 1.67721 -0.258436 0
M  V30 3526 H 346.733 3.90399 -0.26543 0
M  V30 3527 H 346.356 3.70677 1.43821 0
M  V30 3528 N 347.353 -0.0568162 1.57498 0
M  V30 3529 C 348.581 -0.765626 1.92213 0
M  V30 3530 C 348.996 -1.70353 0.813961 0
M  V30 3531 O 348.353 -1.81268 -0.211701 0
M  V30 3532 C 348.404 -1.5465 3.2675 0
M  V30 3533 O 348.125 -0.646278 4.33307 0
M  V30 3534 C 349.626 -2.35497 3.75574 0
M  V30 3535 H 346.846 -0.216835 0.634999 0
M  V30 3536 H 349.39 -0.0226146 2.04487 0
M  V30 3537 H 347.545 -2.24165 3.15957 0
M  V30 3538 H 347.959 -1.19093 5.108 0
M  V30 3539 H 349.433 -2.85722 4.72299 0
M  V30 3540 H 349.91 -3.15692 3.05344 0
M  V30 3541 H 350.516 -1.7111 3.8936 0
M  V30 3542 N 348.832 -1.54138 -0.328536 0
M  V30 3543 C 349.779 -1.83176 -1.40411 0
M  V30 3544 C 350.749 -0.678494 -1.5161 0
M  V30 3545 O 351.934 -0.92443 -1.6691 0
M  V30 3546 C 349.074 -2.06035 -2.76846 0
M  V30 3547 C 348.187 -3.33727 -2.74318 0
M  V30 3548 C 347.322 -3.46574 -4.02567 0
M  V30 3549 C 346.361 -4.68159 -3.94327 0
M  V30 3550 N 345.498 -4.77959 -5.14296 0
M  V30 3551 H 350.338 -2.74938 -1.14948 0
M  V30 3552 H 347.875 -1.36166 -0.556538 0
M  V30 3553 H 349.833 -2.1728 -3.56153 0
M  V30 3554 H 348.463 -1.1757 -3.00628 0
M  V30 3555 H 347.515 -3.31246 -1.8703 0
M  V30 3556 H 348.827 -4.23139 -2.64111 0
M  V30 3557 H 347.981 -3.57333 -4.90304 0
M  V30 3558 H 346.72 -2.55245 -4.15574 0
M  V30 3559 H 345.725 -4.57461 -3.04974 0
M  V30 3560 H 346.95 -5.60868 -3.82889 0
M  V30 3561 H 344.896 -3.89544 -5.27818 0
M  V30 3562 H 344.813 -5.6133 -5.06404 0
M  V30 3563 H 346.081 -4.93044 -6.03761 0
M  V30 3564 N 350.31 0.590341 -1.46126 0
M  V30 3565 C 351.24 1.71032 -1.58966 0
M  V30 3566 C 352.221 1.64302 -0.440335 0
M  V30 3567 O 353.406 1.82436 -0.665634 0
M  V30 3568 C 350.536 3.09665 -1.57241 0
M  V30 3569 C 349.49 3.31221 -2.71066 0
M  V30 3570 C 348.816 4.70303 -2.54399 0
M  V30 3571 C 350.116 3.19796 -4.1295 0
M  V30 3572 H 351.81 1.60543 -2.52718 0
M  V30 3573 H 349.356 0.770933 -1.21625 0
M  V30 3574 H 351.309 3.87831 -1.64819 0
M  V30 3575 H 350.033 3.21036 -0.600289 0
M  V30 3576 H 348.692 2.55452 -2.62944 0
M  V30 3577 H 348.34 4.78429 -1.55288 0
M  V30 3578 H 348.04 4.85679 -3.30741 0
M  V30 3579 H 349.564 5.50647 -2.63857 0
M  V30 3580 H 350.978 3.87815 -4.22223 0
M  V30 3581 H 349.375 3.46696 -4.89818 0
M  V30 3582 H 350.445 2.16983 -4.33643 0
M  V30 3583 N 351.788 1.33704 0.83433 0
M  V30 3584 C 353.037 1.24763 1.58484 0
M  V30 3585 C 353.35 -0.183775 1.94735 0
M  V30 3586 O 354.556 -0.395234 2.68608 0
M  V30 3587 C 353.012 2.18638 2.85876 0
M  V30 3588 C 352.62 3.66974 2.56971 0
M  V30 3589 C 354.364 2.18581 3.63899 0
M  V30 3590 C 352.271 4.5275 3.80488 0
M  V30 3591 H 351.201 0.463425 0.594772 0
M  V30 3592 H 353.852 1.58797 0.919551 0
M  V30 3593 H 352.234 1.77542 3.5397 0
M  V30 3594 H 353.408 4.16538 1.9706 0
M  V30 3595 H 351.723 3.69366 1.92244 0
M  V30 3596 H 354.32 2.79894 4.55591 0
M  V30 3597 H 354.663 1.18207 3.99165 0
M  V30 3598 H 355.196 2.58062 3.02735 0
M  V30 3599 H 351.935 5.54017 3.5035 0
M  V30 3600 H 351.455 4.07927 4.39722 0
M  V30 3601 H 353.134 4.66784 4.4802 0
M  V30 3602 N 353.266 -1.05314 1.17247 0
M  V30 3603 C 354.512 -1.78557 0.961513 0
M  V30 3604 C 354.845 -1.87419 -0.508697 0
M  V30 3605 O 354.12 -1.37307 -1.37757 0
M  V30 3606 C 354.403 -3.22514 1.60176 0
M  V30 3607 C 354.256 -3.21673 3.14399 0
M  V30 3608 C 355.575 -4.20318 1.30463 0
M  V30 3609 H 352.694 -0.6482 0.350723 0
M  V30 3610 H 355.336 -1.23102 1.44727 0
M  V30 3611 H 353.486 -3.69867 1.18871 0
M  V30 3612 H 355.158 -2.82405 3.64753 0
M  V30 3613 H 353.401 -2.60048 3.47214 0
M  V30 3614 H 354.072 -4.23271 3.54324 0
M  V30 3615 H 356.548 -3.81454 1.66229 0
M  V30 3616 H 355.424 -5.19289 1.77848 0
M  V30 3617 H 355.685 -4.41526 0.22521 0
M  V30 3618 N 354.744 -0.972509 -1.24016 0
M  V30 3619 C 355.99 -0.637978 -1.92504 0
M  V30 3620 C 356.323 0.825383 -1.75787 0
M  V30 3621 O 355.598 1.59442 -1.11393 0
M  V30 3622 C 355.881 -1.01942 -3.45369 0
M  V30 3623 C 355.734 -2.53983 -3.71231 0
M  V30 3624 C 357.053 -0.55751 -4.36555 0
M  V30 3625 H 354.172 -0.233248 -0.699117 0
M  V30 3626 H 356.814 -1.21238 -1.46292 0
M  V30 3627 H 354.964 -0.530656 -3.84859 0
M  V30 3628 H 356.636 -3.10374 -3.41271 0
M  V30 3629 H 354.879 -2.96968 -3.16216 0
M  V30 3630 H 355.55 -2.75723 -4.78206 0
M  V30 3631 H 358.026 -0.977029 -4.04467 0
M  V30 3632 H 356.902 -0.85292 -5.42233 0
M  V30 3633 H 357.163 0.542328 -4.38761 0
M  V30 3634 N 356.222 1.38976 -0.743202 0
M  V30 3635 C 357.468 2.0064 -0.295189 0
M  V30 3636 C 357.801 1.5885 1.11716 0
M  V30 3637 O 357.076 0.821181 1.76315 0
M  V30 3638 C 357.359 3.578 -0.406318 0
M  V30 3639 C 357.212 4.09586 -1.85903 0
M  V30 3640 C 358.531 4.39616 0.206439 0
M  V30 3641 H 355.65 0.728935 -0.108733 0
M  V30 3642 H 358.292 1.65067 -0.940897 0
M  V30 3643 H 356.442 3.88235 0.143419 0
M  V30 3644 H 358.114 3.89837 -2.46627 0
M  V30 3645 H 356.357 3.6284 -2.3776 0
M  V30 3646 H 357.028 5.18708 -1.888 0
M  V30 3647 H 359.504 4.15273 -0.262283 0
M  V30 3648 H 358.38 5.48812 0.0983819 0
M  V30 3649 H 358.641 4.22754 1.2935 0
M  V30 3650 N 357.7 0.491464 1.49741 0
M  V30 3651 C 359.116 0.146835 1.58923 0
M  V30 3652 C 359.316 -1.34804 1.49767 0
M  V30 3653 O 358.372 -2.12317 1.36667 0
M  V30 3654 C 359.685 0.715157 2.92072 0
M  V30 3655 C 361.233 0.680407 3.05515 0
M  V30 3656 C 361.708 1.22663 4.41269 0
M  V30 3657 N 363.199 1.18691 4.47735 0
M  V30 3658 C 363.934 1.57984 5.51207 0
M  V30 3659 N 363.43 2.04824 6.6183 0
M  V30 3660 N 365.223 1.49459 5.41866 0
M  V30 3661 H 357.374 1.46347 1.53936 0
M  V30 3662 H 359.637 0.606453 0.728642 0
M  V30 3663 H 359.343 1.76317 3.04311 0
M  V30 3664 H 359.217 0.17018 3.76816 0
M  V30 3665 H 361.604 -0.358743 2.92911 0
M  V30 3666 H 361.685 1.26242 2.22478 0
M  V30 3667 H 361.329 2.26451 4.54623 0
M  V30 3668 H 361.259 0.620637 5.2293 0
M  V30 3669 H 363.75 0.843605 3.68364 0
M  V30 3670 H 364.063 2.32901 7.3687 0
M  V30 3671 H 362.408 2.08791 6.62896 0
M  V30 3672 H 365.599 1.12692 4.54333 0
M  V30 3673 H 365.772 1.80406 6.22381 0
M  V30 3674 N 359.178 -1.55987 0.224894 0
M  V30 3675 C 360.455 -1.90232 -0.455083 0
M  V30 3676 C 360.835 -1.14269 -1.77499 0
M  V30 3677 O 360.183 -0.253079 -2.27094 0
M  V30 3678 C 360.393 -3.42993 -0.644758 0
M  V30 3679 C 361.741 -4.13821 -0.950669 0
M  V30 3680 O 362.765 -3.4861 -0.731423 0
M  V30 3681 O 361.624 -5.29128 -1.36695 0
M  V30 3682 H 358.718 -0.79108 -0.241084 0
M  V30 3683 H 361.264 -1.67581 0.267327 0
M  V30 3684 H 360.036 -3.90252 0.28613 0
M  V30 3685 H 359.659 -3.71434 -1.41853 0
M  V30 3686 N 360.656 0.0484629 -1.57525 0
M  V30 3687 C 362.067 0.597486 -1.76881 0
M  V30 3688 C 362.418 1.76664 -0.853475 0
M  V30 3689 O 361.543 2.16357 -0.0433656 0
M  V30 3690 C 362.138 1.09066 -3.20765 0
M  V30 3691 C 360.697 1.58535 -3.41385 0
M  V30 3692 C 359.844 0.514868 -2.72478 0
M  V30 3693 H 362.795 -0.177758 -1.57701 0
M  V30 3694 H 362.816 1.95875 -3.2621 0
M  V30 3695 H 362.328 0.239521 -3.8736 0
M  V30 3696 H 360.429 2.45898 -2.79937 0
M  V30 3697 H 360.542 1.64622 -4.49929 0
M  V30 3698 H 358.906 0.965407 -2.35695 0
M  V30 3699 H 359.689 -0.32648 -3.41744 0
M  V30 3700 N 362.134 1.5431 0.320358 0
M  V30 3701 C 363.38 1.72924 1.05949 0
M  V30 3702 C 363.713 0.503185 1.87568 0
M  V30 3703 O 362.988 -0.499839 1.87968 0
M  V30 3704 C 363.271 3.00676 1.98156 0
M  V30 3705 C 363.124 4.3354 1.19845 0
M  V30 3706 C 364.443 3.24198 2.9763 0
M  V30 3707 H 361.562 0.629195 0.383774 0
M  V30 3708 H 364.204 1.87008 0.335854 0
M  V30 3709 H 362.354 2.888 2.59859 0
M  V30 3710 H 364.026 4.57305 0.605773 0
M  V30 3711 H 362.269 4.309 0.500784 0
M  V30 3712 H 362.94 5.19156 1.87567 0
M  V30 3713 H 365.416 3.35557 2.4605 0
M  V30 3714 H 364.292 4.14938 3.59329 0
M  V30 3715 H 364.553 2.41577 3.7026 0
M  V30 3716 N 363.613 -0.582584 1.46437 0
M  V30 3717 C 364.841 -1.36682 1.55324 0
M  V30 3718 C 365.256 -1.87796 0.194409 0
M  V30 3719 O 364.613 -1.63623 -0.808318 0
M  V30 3720 C 364.664 -2.55426 2.55812 0
M  V30 3721 O 364.385 -2.0643 3.86417 0
M  V30 3722 C 365.886 -3.47976 2.74641 0
M  V30 3723 H 363.106 -0.417545 0.525259 0
M  V30 3724 H 365.65 -0.708219 1.91845 0
M  V30 3725 H 363.805 -3.17275 2.22295 0
M  V30 3726 H 364.219 -2.83762 4.41111 0
M  V30 3727 H 365.693 -4.27775 3.48874 0
M  V30 3728 H 366.17 -3.99919 1.81553 0
M  V30 3729 H 366.776 -2.91962 3.09255 0
M  V30 3730 N 365.091 -1.34144 -0.827227 0
M  V30 3731 C 366.507 -1.13732 -1.11969 0
M  V30 3732 C 366.707 0.0640463 -2.01398 0
M  V30 3733 O 365.763 0.740856 -2.41387 0
M  V30 3734 C 367.076 -2.43047 -1.77055 0
M  V30 3735 C 368.624 -2.49063 -1.89569 0
M  V30 3736 C 369.099 -3.78369 -2.58072 0
M  V30 3737 N 370.59 -3.79505 -2.65575 0
M  V30 3738 C 371.325 -4.76274 -3.19297 0
M  V30 3739 N 370.821 -5.83424 -3.73616 0
M  V30 3740 N 372.614 -4.63735 -3.17658 0
M  V30 3741 H 364.765 -2.11126 -0.232296 0
M  V30 3742 H 367.028 -0.933424 -0.165602 0
M  V30 3743 H 366.734 -3.31025 -1.18807 0
M  V30 3744 H 366.608 -2.56066 -2.76966 0
M  V30 3745 H 368.995 -1.61527 -2.46968 0
M  V30 3746 H 369.076 -2.39975 -0.885745 0
M  V30 3747 H 368.72 -4.66293 -2.01329 0
M  V30 3748 H 368.65 -3.84737 -3.59562 0
M  V30 3749 H 371.141 -3.02074 -2.27068 0
M  V30 3750 H 371.454 -6.53282 -4.12846 0
M  V30 3751 H 369.799 -5.87143 -3.71871 0
M  V30 3752 H 372.99 -3.79177 -2.74486 0
M  V30 3753 H 373.163 -5.39318 -3.59221 0
M  V30 3754 N 366.569 1.04691 -1.17803 0
M  V30 3755 C 367.532 2.10724 -0.901545 0
M  V30 3756 C 368.532 1.6042 0.110437 0
M  V30 3757 O 369.722 1.7377 -0.122303 0
M  V30 3758 C 366.854 3.39084 -0.351409 0
M  V30 3759 H 368.047 2.36686 -1.84174 0
M  V30 3760 H 365.6 1.21015 -0.98919 0
M  V30 3761 H 366.335 3.18782 0.59569 0
M  V30 3762 H 366.12 3.76909 -1.08083 0
M  V30 3763 H 367.61 4.17227 -0.176451 0
M  V30 3764 N 368.047 0.979072 1.23499 0
M  V30 3765 C 369.296 0.642751 1.91185 0
M  V30 3766 C 369.609 -0.827253 1.77245 0
M  V30 3767 O 370.815 -1.27458 2.39722 0
M  V30 3768 C 369.271 1.09901 3.42709 0
M  V30 3769 C 368.879 2.59327 3.65313 0
M  V30 3770 C 370.623 0.836371 4.16179 0
M  V30 3771 C 368.53 2.98627 5.10467 0
M  V30 3772 H 367.46 0.236698 0.715884 0
M  V30 3773 H 370.111 1.1868 1.39955 0
M  V30 3774 H 368.493 0.48319 3.93041 0
M  V30 3775 H 369.667 3.26136 3.25533 0
M  V30 3776 H 367.982 2.83323 3.05151 0
M  V30 3777 H 370.579 1.10586 5.23139 0
M  V30 3778 H 370.922 -0.227509 4.15678 0
M  V30 3779 H 371.455 1.41371 3.71832 0
M  V30 3780 H 368.194 4.04133 5.16098 0
M  V30 3781 H 367.714 2.3651 5.51201 0
M  V30 3782 H 369.393 2.89159 5.78788 0
M  V30 3783 N 369.525 -1.3858 0.750561 0
M  V30 3784 C 370.75 -2.04997 0.314812 0
M  V30 3785 C 371.175 -1.56235 -1.04749 0
M  V30 3786 O 370.533 -0.712981 -1.66692 0
M  V30 3787 C 370.581 -3.58961 0.343415 0
M  V30 3788 O 369.685 -4.07025 -0.663628 0
M  V30 3789 H 369.026 -0.649081 0.139962 0
M  V30 3790 H 371.556 -1.77313 1.02084 0
M  V30 3791 H 371.566 -4.07542 0.193233 0
M  V30 3792 H 370.241 -3.93811 1.33738 0
M  V30 3793 H 368.818 -3.6982 -0.478307 0
M  V30 3794 N 371.003 -0.499398 -1.49478 0
M  V30 3795 C 372.28 0.108629 -1.95298 0
M  V30 3796 C 372.66 1.54282 -1.44084 0
M  V30 3797 O 372.008 2.18944 -0.653908 0
M  V30 3798 C 372.218 0.0229111 -3.48992 0
M  V30 3799 C 373.566 0.197643 -4.2414 0
M  V30 3800 O 374.59 0.0981735 -3.56065 0
M  V30 3801 O 373.449 0.401669 -5.45022 0
M  V30 3802 H 370.543 0.096181 -0.821388 0
M  V30 3803 H 373.089 -0.561822 -1.6013 0
M  V30 3804 H 371.861 -0.977321 -3.78899 0
M  V30 3805 H 371.484 0.733579 -3.90774 0
M  V30 3806 N 372.481 1.55866 -0.233164 0
M  V30 3807 C 373.711 2.02704 0.399325 0
M  V30 3808 C 374.119 1.11204 1.53069 0
M  V30 3809 O 373.462 0.116182 1.83332 0
M  V30 3810 C 373.524 3.45844 0.981429 0
M  V30 3811 C 373.188 4.56997 -0.0159561 0
M  V30 3812 C 374.185 5.13384 -0.820552 0
M  V30 3813 C 371.87 5.0211 -0.138072 0
M  V30 3814 C 373.864 6.13365 -1.73386 0
M  V30 3815 C 371.551 6.01926 -1.0549 0
M  V30 3816 C 372.549 6.57431 -1.85132 0
M  V30 3817 O 372.237 7.55302 -2.75272 0
M  V30 3818 H 371.969 0.668459 0.100692 0
M  V30 3819 H 374.523 2.02387 -0.35052 0
M  V30 3820 H 372.753 3.43267 1.78058 0
M  V30 3821 H 374.442 3.76262 1.52255 0
M  V30 3822 H 375.208 4.79372 -0.736721 0
M  V30 3823 H 371.087 4.5858 0.471737 0
M  V30 3824 H 374.631 6.56614 -2.35592 0
M  V30 3825 H 370.528 6.35359 -1.1397 0
M  V30 3826 H 371.296 7.72867 -2.69477 0
M  V30 3827 N 373.959 -0.0401083 1.57549 0
M  V30 3828 C 375.187 -0.745196 1.93014 0
M  V30 3829 C 375.602 -1.6948 0.831984 0
M  V30 3830 O 374.959 -1.81482 -0.192463 0
M  V30 3831 C 375.01 -1.51176 3.28372 0
M  V30 3832 O 374.731 -0.600284 4.33968 0
M  V30 3833 C 376.232 -2.315 3.78051 0
M  V30 3834 H 373.452 -0.210088 0.637263 0
M  V30 3835 H 375.996 -0.000924689 2.045 0
M  V30 3836 H 374.151 -2.20801 3.18317 0
M  V30 3837 H 374.565 -1.13669 5.12035 0
M  V30 3838 H 376.039 -2.80697 4.75303 0
M  V30 3839 H 376.516 -3.12436 3.08675 0
M  V30 3840 H 377.122 -1.66971 3.91153 0
M  V30 3841 N 375.437 -1.54477 -0.31217 0
M  V30 3842 C 376.369 -1.81011 -1.40598 0
M  V30 3843 C 377.382 -0.692546 -1.47335 0
M  V30 3844 O 378.571 -0.969847 -1.49854 0
M  V30 3845 C 375.671 -1.92307 -2.79054 0
M  V30 3846 C 374.844 -3.22594 -2.95384 0
M  V30 3847 C 373.903 -3.24448 -4.1427 0
M  V30 3848 O 372.929 -3.98035 -4.06887 0
M  V30 3849 N 374.131 -2.49042 -5.24365 0
M  V30 3850 H 376.896 -2.75408 -1.18196 0
M  V30 3851 H 374.457 -1.53914 -0.502202 0
M  V30 3852 H 376.449 -1.90962 -3.56813 0
M  V30 3853 H 375.019 -1.04955 -2.94454 0
M  V30 3854 H 374.239 -3.36806 -2.04831 0
M  V30 3855 H 375.527 -4.08593 -3.03198 0
M  V30 3856 H 374.925 -1.88867 -5.33241 0
M  V30 3857 H 373.482 -2.53463 -6.005 0
M  V30 3858 N 376.915 0.57481 -1.46744 0
M  V30 3859 C 378.143 1.35856 -1.56047 0
M  V30 3860 C 378.558 1.87691 -0.204365 0
M  V30 3861 O 377.915 1.64049 0.79963 0
M  V30 3862 C 377.966 2.54066 -2.57163 0
M  V30 3863 O 377.687 2.04377 -3.87507 0
M  V30 3864 C 379.188 3.46514 -2.76483 0
M  V30 3865 H 376.408 0.414754 -0.527466 0
M  V30 3866 H 378.952 0.698035 -1.92218 0
M  V30 3867 H 377.107 3.16092 -2.23974 0
M  V30 3868 H 377.521 2.81419 -4.4261 0
M  V30 3869 H 378.995 4.25919 -3.51137 0
M  V30 3870 H 379.472 3.98951 -1.83671 0
M  V30 3871 H 380.078 2.90318 -3.10799 0
M  V30 3872 N 378.394 1.34581 0.820102 0
M  V30 3873 C 379.324 1.29038 1.94606 0
M  V30 3874 C 380.305 0.1673 1.69275 0
M  V30 3875 O 381.49 0.360112 1.90832 0
M  V30 3876 C 378.62 1.04793 3.31113 0
M  V30 3877 C 377.574 2.13597 3.70891 0
M  V30 3878 C 376.9 1.74537 5.05412 0
M  V30 3879 C 378.2 3.55451 3.8269 0
M  V30 3880 H 379.894 2.23248 1.99501 0
M  V30 3881 H 377.44 1.0747 0.958449 0
M  V30 3882 H 379.393 0.995592 4.0947 0
M  V30 3883 H 378.117 0.0702565 3.26524 0
M  V30 3884 H 376.776 2.17905 2.9481 0
M  V30 3885 H 376.424 0.754226 4.97313 0
M  V30 3886 H 376.124 2.47361 5.32997 0
M  V30 3887 H 377.648 1.70803 5.86224 0
M  V30 3888 H 379.062 3.5354 4.51312 0
M  V30 3889 H 377.459 4.26922 4.21732 0
M  V30 3890 H 378.529 3.92587 2.84611 0
M  V30 3891 N 379.872 -1.04064 1.18357 0
M  V30 3892 C 381.097 -1.81454 1.00445 0
M  V30 3893 C 381.522 -1.82823 -0.442423 0
M  V30 3894 O 380.88 -1.24555 -1.31741 0
M  V30 3895 C 380.928 -3.24925 1.56384 0
M  V30 3896 O 380.032 -4.04856 0.785209 0
M  V30 3897 H 379.373 -0.560604 0.355835 0
M  V30 3898 H 381.903 -1.31059 1.57114 0
M  V30 3899 H 381.913 -3.75702 1.59097 0
M  V30 3900 H 380.588 -3.23244 2.61699 0
M  V30 3901 H 379.165 -3.63537 0.830399 0
M  V30 3902 N 381.35 -0.985608 -1.22978 0
M  V30 3903 C 382.297 -0.529825 -2.24636 0
M  V30 3904 C 383.267 0.434028 -1.60329 0
M  V30 3905 O 384.452 0.340414 -1.87739 0
M  V30 3906 C 381.592 0.156533 -3.44745 0
M  V30 3907 C 380.705 -0.848197 -4.23591 0
M  V30 3908 C 379.84 -0.136109 -5.31026 0
M  V30 3909 C 378.879 -1.1297 -6.01585 0
M  V30 3910 N 378.016 -0.446415 -7.00679 0
M  V30 3911 H 382.856 -1.40148 -2.62988 0
M  V30 3912 H 380.393 -0.702168 -1.29259 0
M  V30 3913 H 382.351 0.571324 -4.1327 0
M  V30 3914 H 380.981 0.992025 -3.07179 0
M  V30 3915 H 380.033 -1.38135 -3.54433 0
M  V30 3916 H 381.345 -1.60512 -4.72268 0
M  V30 3917 H 380.499 0.335784 -6.0577 0
M  V30 3918 H 379.238 0.653373 -4.83304 0
M  V30 3919 H 378.243 -1.6123 -5.25628 0
M  V30 3920 H 379.468 -1.91993 -6.51395 0
M  V30 3921 H 377.414 0.323763 -6.55201 0
M  V30 3922 H 377.331 -1.1419 -7.47326 0
M  V30 3923 H 378.599 0.00291697 -7.795 0
M  V30 3924 N 382.828 1.3818 -0.7579 0
M  V30 3925 C 384.244 1.5353 -0.435972 0
M  V30 3926 C 384.444 1.71961 1.05032 0
M  V30 3927 O 383.5 1.73307 1.83633 0
M  V30 3928 C 384.813 2.73989 -1.23898 0
M  V30 3929 C 386.361 2.87841 -1.22949 0
M  V30 3930 C 386.836 4.11266 -2.01554 0
M  V30 3931 N 388.327 4.18352 -1.98837 0
M  V30 3932 C 389.062 5.12856 -2.5645 0
M  V30 3933 N 388.558 6.13005 -3.22794 0
M  V30 3934 N 390.351 5.05238 -2.46356 0
M  V30 3935 H 382.502 1.24467 -1.7211 0
M  V30 3936 H 384.765 0.604982 -0.729864 0
M  V30 3937 H 384.471 2.66789 -2.29165 0
M  V30 3938 H 384.345 3.67294 -0.858764 0
M  V30 3939 H 386.732 2.9452 -0.184854 0
M  V30 3940 H 386.813 1.95534 -1.64924 0
M  V30 3941 H 386.457 4.05349 -3.06031 0
M  V30 3942 H 386.387 5.02661 -1.5697 0
M  V30 3943 H 388.878 3.46628 -1.50524 0
M  V30 3944 H 389.191 6.81619 -3.64165 0
M  V30 3945 H 387.536 6.13325 -3.2689 0
M  V30 3946 H 390.727 4.25938 -1.9415 0
M  V30 3947 H 390.9 5.78707 -2.91552 0
M  V30 3948 N 384.306 0.507319 1.49211 0
M  V30 3949 C 385.717 0.0611118 1.866 0
M  V30 3950 C 386.068 -1.35488 1.41907 0
M  V30 3951 O 385.193 -2.0108 0.799726 0
M  V30 3952 C 385.788 0.104125 3.3864 0
M  V30 3953 C 384.347 -0.28677 3.75306 0
M  V30 3954 C 383.494 0.473893 2.73221 0
M  V30 3955 H 386.445 0.719775 1.41439 0
M  V30 3956 H 386.466 -0.689672 3.74198 0
M  V30 3957 H 385.978 1.13482 3.71138 0
M  V30 3958 H 384.079 -1.32046 3.48417 0
M  V30 3959 H 384.192 0.0370745 4.79086 0
M  V30 3960 H 382.556 -0.0770644 2.54583 0
M  V30 3961 H 383.339 1.50478 3.08563 0
M  V30 3962 N 385.784 -1.5574 0.241426 0
M  V30 3963 C 387.061 -1.90704 -0.434881 0
M  V30 3964 C 387.441 -1.16145 -1.76277 0
M  V30 3965 O 386.789 -0.277152 -2.26813 0
M  V30 3966 C 386.999 -3.43657 -0.608343 0
M  V30 3967 C 388.347 -4.14806 -0.906725 0
M  V30 3968 O 389.371 -3.49366 -0.694408 0
M  V30 3969 O 388.23 -5.30548 -1.31075 0
M  V30 3970 H 385.324 -0.793592 -0.23268 0
M  V30 3971 H 387.87 -1.67288 0.285086 0
M  V30 3972 H 386.642 -3.89927 0.327505 0
M  V30 3973 H 386.265 -3.72918 -1.37906 0
M  V30 3974 N 387.262 0.0317525 -1.57568 0
M  V30 3975 C 388.511 0.722131 -1.8833 0
M  V30 3976 C 388.824 1.76664 -0.839587 0
M  V30 3977 O 390.03 2.50942 -1.03635 0
M  V30 3978 C 388.486 1.33544 -3.34207 0
M  V30 3979 C 388.094 0.327415 -4.46802 0
M  V30 3980 C 389.838 2.00585 -3.7412 0
M  V30 3981 C 387.745 0.948915 -5.83738 0
M  V30 3982 H 386.675 0.273466 -0.702661 0
M  V30 3983 H 389.326 -0.0235811 -1.83485 0
M  V30 3984 H 387.708 2.13077 -3.33788 0
M  V30 3985 H 388.882 -0.441006 -4.58685 0
M  V30 3986 H 387.197 -0.240758 -4.15703 0
M  V30 3987 H 389.794 2.47932 -4.73744 0
M  V30 3988 H 390.137 2.82285 -3.05975 0
M  V30 3989 H 390.67 1.27831 -3.76702 0
M  V30 3990 H 387.409 0.171387 -6.55276 0
M  V30 3991 H 386.929 1.68724 -5.7558 0
M  V30 3992 H 388.608 1.45705 -6.3038 0
M  V30 3993 N 388.74 1.54641 0.303973 0
M  V30 3994 C 390.151 1.64811 0.877163 0
M  V30 3995 C 390.502 0.554838 1.88191 0
M  V30 3996 O 389.627 -0.309033 2.14182 0
M  V30 3997 C 390.222 2.9876 1.59775 0
M  V30 3998 C 388.781 3.11061 2.11938 0
M  V30 3999 C 387.928 2.60479 0.951097 0
M  V30 4000 H 390.879 1.58493 0.0810486 0
M  V30 4001 H 390.9 2.90017 2.46314 0
M  V30 4002 H 390.412 3.7831 0.866226 0
M  V30 4003 H 388.513 2.36225 2.88146 0
M  V30 4004 H 388.626 4.17171 2.35595 0
M  V30 4005 H 386.99 2.16859 1.33583 0
M  V30 4006 H 387.773 3.42504 0.233581 0
M  V30 4007 N 390.218 -0.567019 1.47046 0
M  V30 4008 C 391.446 -1.35027 1.56765 0
M  V30 4009 C 391.861 -1.8758 0.214316 0
M  V30 4010 O 391.218 -1.64471 -0.790919 0
M  V30 4011 C 391.269 -2.52698 2.58507 0
M  V30 4012 O 390.99 -2.0232 3.88585 0
M  V30 4013 C 392.491 -3.45043 2.78316 0
M  V30 4014 H 389.711 -0.41195 0.529658 0
M  V30 4015 H 392.255 -0.687832 1.92585 0
M  V30 4016 H 390.41 -3.149 2.25648 0
M  V30 4017 H 390.824 -2.79068 4.44096 0
M  V30 4018 H 392.298 -4.2405 3.53391 0
M  V30 4019 H 392.775 -3.97971 1.85784 0
M  V30 4020 H 393.381 -2.88665 3.12334 0
M  V30 4021 N 391.696 -1.35014 -0.812953 0
M  V30 4022 C 392.943 -1.27931 -1.56971 0
M  V30 4023 C 393.271 0.148034 -1.93936 0
M  V30 4024 O 392.526 1.11175 -1.61054 0
M  V30 4025 C 392.825 -2.12524 -2.87347 0
M  V30 4026 C 392.491 -3.61401 -2.6963 0
M  V30 4027 C 391.153 -4.01983 -2.64506 0
M  V30 4028 C 393.505 -4.55894 -2.52607 0
M  V30 4029 C 390.833 -5.35235 -2.40293 0
M  V30 4030 C 393.185 -5.89336 -2.29925 0
M  V30 4031 C 391.849 -6.2907 -2.23219 0
M  V30 4032 H 391.119 -0.468131 -0.574399 0
M  V30 4033 H 393.766 -1.66851 -0.939836 0
M  V30 4034 H 392.071 -1.66463 -3.54679 0
M  V30 4035 H 393.768 -2.04383 -3.45005 0
M  V30 4036 H 390.358 -3.29193 -2.74463 0
M  V30 4037 H 394.542 -4.25431 -2.55583 0
M  V30 4038 H 389.798 -5.65028 -2.33566 0
M  V30 4039 H 393.972 -6.62139 -2.15743 0
M  V30 4040 H 391.599 -7.32256 -2.04219 0
M  V30 4041 N 393.175 1.03435 -1.18907 0
M  V30 4042 C 394.085 2.15075 -0.937015 0
M  V30 4043 C 395.101 1.73706 0.101085 0
M  V30 4044 O 396.277 2.01232 -0.0822948 0
M  V30 4045 C 393.342 3.43458 -0.473057 0
M  V30 4046 C 392.403 3.99172 -1.57989 0
M  V30 4047 C 391.636 5.21427 -1.13797 0
M  V30 4048 O 391.859 5.704 0.000725941 0
M  V30 4049 O 390.793 5.69837 -1.9383 0
M  V30 4050 H 394.619 2.39198 -1.87131 0
M  V30 4051 H 392.204 1.13506 -0.971427 0
M  V30 4052 H 394.086 4.20811 -0.222702 0
M  V30 4053 H 392.761 3.20793 0.432869 0
M  V30 4054 H 391.668 3.23178 -1.88433 0
M  V30 4055 H 393.001 4.2619 -2.46217 0
M  V30 4056 N 394.653 0.992116 1.22453 0
M  V30 4057 C 395.878 0.685644 1.95739 0
M  V30 4058 C 396.303 -0.743 1.72804 0
M  V30 4059 O 395.661 -1.50778 1.00676 0
M  V30 4060 C 395.709 0.996293 3.46564 0
M  V30 4061 O 394.813 0.0945512 4.12292 0
M  V30 4062 H 394.154 0.256694 0.612376 0
M  V30 4063 H 396.684 1.32888 1.5557 0
M  V30 4064 H 396.694 0.93781 3.97076 0
M  V30 4065 H 395.369 2.03733 3.62582 0
M  V30 4066 H 393.946 0.208451 3.72317 0
M  V30 4067 N 396.131 -1.37776 0.765217 0
M  V30 4068 C 397.061 -2.32945 0.160953 0
M  V30 4069 C 398.042 -1.55454 -0.690516 0
M  V30 4070 O 399.227 -1.83721 -0.629318 0
M  V30 4071 C 396.357 -3.39669 -0.724031 0
M  V30 4072 C 395.311 -4.27992 0.0256173 0
M  V30 4073 C 394.637 -5.25673 -0.978383 0
M  V30 4074 C 395.937 -5.08309 1.20082 0
M  V30 4075 H 397.631 -2.83728 0.955969 0
M  V30 4076 H 395.177 -1.36416 0.461149 0
M  V30 4077 H 397.13 -4.05219 -1.15652 0
M  V30 4078 H 395.854 -2.87396 -1.5515 0
M  V30 4079 H 394.513 -3.63964 0.438812 0
M  V30 4080 H 394.161 -4.69682 -1.80022 0
M  V30 4081 H 393.861 -5.85625 -0.481378 0
M  V30 4082 H 395.385 -5.94098 -1.40995 0
M  V30 4083 H 396.799 -5.67034 0.845307 0
M  V30 4084 H 395.196 -5.77554 1.62947 0
M  V30 4085 H 396.266 -4.41365 2.00811 0
M  V30 4086 N 397.609 -0.515225 -1.4894 0
M  V30 4087 C 398.837 0.0206034 -2.0689 0
M  V30 4088 C 399.252 1.29514 -1.37374 0
M  V30 4089 O 398.609 1.76698 -0.456529 0
M  V30 4090 C 398.66 0.26351 -3.60538 0
M  V30 4091 O 398.381 -0.960517 -4.27441 0
M  V30 4092 C 399.882 0.841383 -4.35242 0
M  V30 4093 H 397.102 -0.0268608 -0.670462 0
M  V30 4094 H 399.646 -0.716651 -1.91532 0
M  V30 4095 H 397.801 0.950777 -3.75552 0
M  V30 4096 H 398.215 -0.73212 -5.19365 0
M  V30 4097 H 399.689 0.96085 -5.43573 0
M  V30 4098 H 400.166 1.8427 -3.98674 0
M  V30 4099 H 400.772 0.191143 -4.2487 0
M  V30 4100 N 399.087 1.5561 -0.249682 0
M  V30 4101 C 400.334 1.99011 0.374287 0
M  V30 4102 C 400.662 1.13785 1.57744 0
M  V30 4103 O 399.917 0.189326 1.94782 0
M  V30 4104 C 400.216 3.4775 0.824887 0
M  V30 4105 C 399.882 4.50086 -0.270819 0
M  V30 4106 C 398.544 4.77791 -0.571746 0
M  V30 4107 C 400.896 5.11312 -1.01041 0
M  V30 4108 C 398.224 5.63997 -1.61629 0
M  V30 4109 C 400.576 5.98651 -2.0445 0
M  V30 4110 C 399.24 6.24688 -2.35204 0
M  V30 4111 H 398.51 0.728233 0.136961 0
M  V30 4112 H 401.157 1.88122 -0.358087 0
M  V30 4113 H 399.462 3.55985 1.63651 0
M  V30 4114 H 401.159 3.78721 1.31799 0
M  V30 4115 H 397.749 4.28592 -0.026136 0
M  V30 4116 H 401.933 4.89953 -0.791177 0
M  V30 4117 H 397.189 5.82425 -1.85988 0
M  V30 4118 H 401.363 6.45135 -2.62248 0
M  V30 4119 H 398.99 6.91281 -3.16282 0
M  V30 4120 N 400.565 -0.0233959 1.57583 0
M  V30 4121 C 401.512 -1.02224 2.06927 0
M  V30 4122 C 402.482 -1.35575 0.959617 0
M  V30 4123 O 403.667 -1.45815 1.23055 0
M  V30 4124 C 400.807 -2.31636 2.5581 0
M  V30 4125 C 399.92 -2.04394 3.80588 0
M  V30 4126 C 399.055 -3.27717 4.18061 0
M  V30 4127 C 398.094 -2.96056 5.3574 0
M  V30 4128 N 397.231 -4.11847 5.68618 0
M  V30 4129 H 402.071 -0.594504 2.9201 0
M  V30 4130 H 399.608 -0.281921 1.44373 0
M  V30 4131 H 401.566 -3.07258 2.82221 0
M  V30 4132 H 400.196 -2.72122 1.73636 0
M  V30 4133 H 399.248 -1.19244 3.61227 0
M  V30 4134 H 400.56 -1.77042 4.66323 0
M  V30 4135 H 399.714 -4.11702 4.4563 0
M  V30 4136 H 398.453 -3.58188 3.30988 0
M  V30 4137 H 397.458 -2.10474 5.07918 0
M  V30 4138 H 398.683 -2.66857 6.24471 0
M  V30 4139 H 396.629 -4.42258 4.84504 0
M  V30 4140 H 396.546 -3.87938 6.48876 0
M  V30 4141 H 397.814 -4.96689 6.00766 0
M  V30 4142 N 402.043 -1.548 -0.295768 0
M  V30 4143 C 402.991 -1.86874 -1.38495 0
M  V30 4144 C 403.985 -0.742938 -1.52239 0
M  V30 4145 O 405.191 -0.926999 -1.54294 0
M  V30 4146 H 401.566 -0.592786 -0.462719 0
M  V30 4147 H 403.537 -2.77904 -1.08682 0
M  V30 4148 C 402.286 -2.13732 -2.74252 0
M  V30 4149 H 401.609 -2.99835 -2.64459 0
M  V30 4150 H 403.049 -2.4011 -3.49461 0
M  V30 4151 C 401.508 -0.937539 -3.23592 0
M  V30 4152 O 402.038 -0.160665 -4.01379 0
M  V30 4153 N 400.244 -0.741478 -2.80981 0
M  V30 4154 H 399.791 -1.37489 -2.1784 0
M  V30 4155 H 399.749 0.0597103 -3.14343 0
M  V30 4156 N 403.521 0.559213 -1.47345 0
M  V30 4157 C 404.937 0.884943 -1.32819 0
M  V30 4158 C 405.137 1.98988 -0.317173 0
M  V30 4159 O 404.193 2.51031 0.272011 0
M  V30 4160 C 405.506 1.28007 -2.72093 0
M  V30 4161 C 407.054 1.39161 -2.80363 0
M  V30 4162 C 407.529 1.82031 -4.20272 0
M  V30 4163 N 409.02 1.89185 -4.22804 0
M  V30 4164 C 409.755 2.2368 -5.27973 0
M  V30 4165 N 409.251 2.56802 -6.43447 0
M  V30 4166 N 411.044 2.24436 -5.15349 0
M  V30 4167 H 403.195 -0.170304 -2.11716 0
M  V30 4168 H 405.458 -0.0135247 -0.947904 0
M  V30 4169 H 405.164 0.542027 -3.47498 0
M  V30 4170 H 405.038 2.23665 -3.03733 0
M  V30 4171 H 407.425 2.12048 -2.05231 0
M  V30 4172 H 407.506 0.41696 -2.52379 0
M  V30 4173 H 407.15 1.09715 -4.95908 0
M  V30 4174 H 407.08 2.80495 -4.45679 0
M  V30 4175 H 409.571 1.65982 -3.39497 0
M  V30 4176 H 409.884 2.82144 -7.19454 0
M  V30 4177 H 408.229 2.54387 -6.46771 0
M  V30 4178 H 411.42 1.97998 -4.24163 0
M  V30 4179 H 411.593 2.50989 -5.97418 0
M  V30 4180 N 404.999 1.35443 0.805782 0
M  V30 4181 C 406.227 1.31878 1.59423 0
M  V30 4182 C 406.642 -0.103562 1.88516 0
M  V30 4183 O 405.999 -1.05575 1.48863 0
M  V30 4184 C 406.05 2.12426 2.92502 0
M  V30 4185 O 405.771 3.49115 2.6467 0
M  V30 4186 C 407.272 2.16455 3.86862 0
M  V30 4187 H 404.492 0.453002 0.495005 0
M  V30 4188 H 407.036 1.78309 1.00131 0
M  V30 4189 H 405.191 1.69593 3.48306 0
M  V30 4190 H 405.605 3.90957 3.49647 0
M  V30 4191 H 407.079 2.77204 4.77349 0
M  V30 4192 H 407.556 1.16352 4.23508 0
M  V30 4193 H 408.162 2.59453 3.36993 0
M  V30 4194 N 406.477 -1.02803 1.19454 0
M  V30 4195 C 407.44 -2.09264 0.934955 0
M  V30 4196 C 408.44 -1.60576 -0.0849015 0
M  V30 4197 O 409.63 -1.73554 0.149933 0
M  V30 4198 C 406.762 -3.38482 0.40531 0
M  V30 4199 H 407.955 -2.33726 1.87916 0
M  V30 4200 H 405.508 -1.19426 1.00832 0
M  V30 4201 H 406.243 -3.19689 -0.544899 0
M  V30 4202 H 406.028 -3.75142 1.14065 0
M  V30 4203 H 407.518 -4.16894 0.242806 0
M  V30 4204 N 407.956 -0.998596 -1.21925 0
M  V30 4205 C 409.204 -0.676325 -1.90448 0
M  V30 4206 C 409.525 0.794719 -1.78071 0
M  V30 4207 O 408.795 1.5701 -1.17152 0
M  V30 4208 H 407.375 -0.247165 -0.704925 0
M  V30 4209 H 410.037 -1.26633 -1.48156 0
M  V30 4210 H 409.133 -0.943858 -2.97486 0
M  V30 4211 N 409.434 1.37368 -0.772513 0
M  V30 4212 C 410.364 2.32856 -0.173304 0
M  V30 4213 C 411.345 1.55818 0.682262 0
M  V30 4214 O 412.53 1.84052 0.619566 0
M  V30 4215 C 409.66 3.40048 0.706007 0
M  V30 4216 C 408.614 4.27973 -0.0483144 0
M  V30 4217 C 407.94 5.26184 0.950491 0
M  V30 4218 C 409.24 5.07665 -1.22776 0
M  V30 4219 H 410.934 2.83217 -0.971002 0
M  V30 4220 H 408.48 1.3617 -0.468377 0
M  V30 4221 H 410.433 4.05827 1.13501 0
M  V30 4222 H 409.157 2.88214 1.53623 0
M  V30 4223 H 407.816 3.63726 -0.458107 0
M  V30 4224 H 407.464 4.7063 1.77529 0
M  V30 4225 H 407.164 5.85872 0.450314 0
M  V30 4226 H 408.688 5.94838 1.37842 0
M  V30 4227 H 410.102 5.66578 -0.875366 0
M  V30 4228 H 408.499 5.76681 -1.66007 0
M  V30 4229 H 409.569 4.40294 -2.03149 0
M  V30 4230 N 410.912 0.523116 1.48665 0
M  V30 4231 C 412.161 -0.01544 2.01694 0
M  V30 4232 C 412.474 -1.35975 1.40606 0
M  V30 4233 O 413.68 -1.98627 1.85093 0
M  V30 4234 C 412.136 -0.0779303 3.59816 0
M  V30 4235 C 411.744 1.26107 4.29885 0
M  V30 4236 C 413.488 -0.565678 4.20714 0
M  V30 4237 C 411.395 1.15954 5.79921 0
M  V30 4238 H 410.325 -0.00954163 0.75394 0
M  V30 4239 H 412.976 0.665865 1.70993 0
M  V30 4240 H 411.358 -0.824165 3.87329 0
M  V30 4241 H 412.532 2.02233 4.14051 0
M  V30 4242 H 410.847 1.68401 3.80828 0
M  V30 4243 H 413.444 -0.6595 5.30617 0
M  V30 4244 H 413.787 -1.56984 3.85567 0
M  V30 4245 H 414.32 0.12467 3.97605 0
M  V30 4246 H 411.059 2.13864 6.19631 0
M  V30 4247 H 410.579 0.439529 5.98187 0
M  V30 4248 H 412.258 0.847361 6.41427 0
M  V30 4249 N 412.39 -1.55475 0.257931 0
M  V30 4250 C 413.667 -1.91155 -0.414629 0
M  V30 4251 C 414.047 -1.18008 -1.75035 0
M  V30 4252 O 413.395 -0.301193 -2.26506 0
M  V30 4253 C 413.605 -3.44283 -0.571859 0
M  V30 4254 C 414.953 -4.15744 -0.862678 0
M  V30 4255 O 415.977 -3.50083 -0.657314 0
M  V30 4256 O 414.836 -5.31909 -1.2544 0
M  V30 4257 H 411.93 -0.796016 -0.22425 0
M  V30 4258 H 414.476 -1.66976 0.302814 0
M  V30 4259 H 413.248 -3.89558 0.368844 0
M  V30 4260 H 412.871 -3.7436 -1.33943 0
M  V30 4261 N 413.868 0.0150385 -1.57593 0
M  V30 4262 C 415.096 0.714395 -1.94175 0
M  V30 4263 C 415.511 1.68135 -0.858841 0
M  V30 4264 O 414.868 1.81766 0.163567 0
M  V30 4265 C 414.919 1.45933 -3.30735 0
M  V30 4266 O 414.64 0.531167 -4.34868 0
M  V30 4267 C 416.141 2.25456 -3.81686 0
M  V30 4268 H 413.361 0.199923 -0.640525 0
M  V30 4269 H 415.905 -0.0316096 -2.04476 0
M  V30 4270 H 414.06 2.15709 -3.21789 0
M  V30 4271 H 414.474 1.05509 -5.13778 0
M  V30 4272 H 415.948 2.731 -4.79709 0
M  V30 4273 H 416.425 3.07485 -3.13607 0
M  V30 4274 H 417.031 1.60727 -3.9376 0
M  V30 4275 N 415.346 1.54954 0.287554 0
M  V30 4276 C 416.571 1.79209 1.04397 0
M  V30 4277 C 416.996 0.556431 1.79682 0
M  V30 4278 O 416.354 -0.493518 1.74454 0
M  V30 4279 C 416.402 3.00739 1.98969 0
M  V30 4280 O 415.506 2.74805 3.075 0
M  V30 4281 H 414.847 0.592755 0.299227 0
M  V30 4282 H 417.377 2.02068 0.320886 0
M  V30 4283 H 417.387 3.29077 2.4119 0
M  V30 4284 H 416.062 3.90329 1.43582 0
M  V30 4285 H 414.639 2.57523 2.69697 0
M  V30 4286 N 416.824 -0.551391 1.4764 0
M  V30 4287 C 418.07 -1.30789 1.55774 0
M  V30 4288 C 418.425 -1.91143 0.219562 0
M  V30 4289 O 417.718 -1.7521 -0.775375 0
M  V30 4290 C 417.912 -2.43469 2.61644 0
M  V30 4291 C 417.741 -1.94157 4.05627 0
M  V30 4292 C 416.511 -1.77734 4.7301 0
M  V30 4293 C 418.709 -1.48262 4.92466 0
M  V30 4294 N 416.691 -1.22823 6.01488 0
M  V30 4295 C 418.062 -1.05156 6.11017 0
M  V30 4296 C 420.117 -1.36367 4.78862 0
M  V30 4297 C 418.82 -0.513357 7.17466 0
M  V30 4298 C 420.846 -0.839484 5.85411 0
M  V30 4299 C 420.208 -0.418377 7.03156 0
M  V30 4300 H 416.307 -0.470406 0.624694 0
M  V30 4301 H 418.891 -0.624331 1.84419 0
M  V30 4302 H 417.062 -3.09348 2.34859 0
M  V30 4303 H 418.794 -3.10477 2.59589 0
M  V30 4304 H 415.549 -2.00623 4.29007 0
M  V30 4305 H 415.973 -0.974393 6.69951 0
M  V30 4306 H 420.615 -1.67535 3.88191 0
M  V30 4307 H 418.333 -0.189318 8.07878 0
M  V30 4308 H 421.919 -0.750921 5.76934 0
M  V30 4309 H 420.799 -0.0190538 7.84198 0
M  V30 4310 N 418.302 -1.35869 -0.798587 0
M  V30 4311 C 419.527 -1.32883 -1.59238 0
M  V30 4312 C 419.952 0.0894587 -1.87887 0
M  V30 4313 O 419.31 1.05869 -1.47178 0
M  V30 4314 C 419.358 -2.14892 -2.89575 0
M  V30 4315 O 418.462 -1.53512 -3.82763 0
M  V30 4316 H 417.803 -0.455236 -0.48338 0
M  V30 4317 H 420.333 -1.79024 -0.990539 0
M  V30 4318 H 420.343 -2.27139 -3.38928 0
M  V30 4319 H 419.018 -3.17998 -2.68049 0
M  V30 4320 H 417.595 -1.50153 -3.41334 0
M  V30 4321 N 419.78 1.02168 -1.19998 0
M  V30 4322 C 420.743 2.08765 -0.94604 0
M  V30 4323 C 421.743 1.60618 0.0763846 0
M  V30 4324 O 422.933 1.73472 -0.159135 0
M  V30 4325 C 420.065 3.38262 -0.423255 0
M  V30 4326 H 421.258 2.32726 -1.89153 0
M  V30 4327 H 418.811 1.1889 -1.01464 0
M  V30 4328 H 419.546 3.19974 0.527938 0
M  V30 4329 H 419.331 3.74532 -1.16053 0
M  V30 4330 H 420.821 4.16759 -0.264911 0
M  V30 4331 N 421.258 1.00505 1.21394 0
M  V30 4332 C 422.507 0.683159 1.89778 0
M  V30 4333 C 422.82 -0.789471 1.7896 0
M  V30 4334 O 424.026 -1.22344 2.42372 0
M  V30 4335 C 422.482 1.17146 3.40301 0
M  V30 4336 C 422.09 2.67017 3.5973 0
M  V30 4337 C 423.834 0.924461 4.14311 0
M  V30 4338 C 421.741 3.09387 5.04017 0
M  V30 4339 H 420.671 0.25183 0.710702 0
M  V30 4340 H 423.322 1.21622 1.37406 0
M  V30 4341 H 421.704 0.566451 3.91928 0
M  V30 4342 H 422.878 3.32968 3.18542 0
M  V30 4343 H 421.193 2.89732 2.99073 0
M  V30 4344 H 423.79 1.21658 5.20676 0
M  V30 4345 H 424.133 -0.139286 4.16067 0
M  V30 4346 H 424.666 1.49226 3.6875 0
M  V30 4347 H 421.405 4.14989 5.07409 0
M  V30 4348 H 420.925 2.48149 5.46061 0
M  V30 4349 H 422.604 3.01371 5.72525 0
M  V30 4350 N 422.737 -1.36956 0.779787 0
M  V30 4351 C 423.669 -2.28833 0.129639 0
M  V30 4352 C 424.682 -1.4902 -0.655511 0
M  V30 4353 O 425.871 -1.71578 -0.492279 0
M  V30 4354 C 422.971 -3.2833 -0.839792 0
M  V30 4355 C 422.144 -4.3727 -0.10675 0
M  V30 4356 C 421.203 -5.16789 -0.990717 0
M  V30 4357 O 420.229 -5.67406 -0.451516 0
M  V30 4358 N 421.431 -5.32294 -2.3161 0
M  V30 4359 H 424.196 -2.85268 0.918803 0
M  V30 4360 H 421.757 -1.49019 0.632841 0
M  V30 4361 H 423.749 -3.78413 -1.43477 0
M  V30 4362 H 422.319 -2.72605 -1.52988 0
M  V30 4363 H 421.539 -3.88478 0.669216 0
M  V30 4364 H 422.827 -5.07229 0.399464 0
M  V30 4365 H 422.225 -4.92768 -2.77843 0
M  V30 4366 H 420.782 -5.85656 -2.86095 0
M  V30 4367 N 424.215 -0.530993 -1.48385 0
M  V30 4368 C 425.464 0.00474348 -2.01699 0
M  V30 4369 C 425.777 1.35227 -1.41325 0
M  V30 4370 O 426.983 1.97643 -1.86144 0
M  V30 4371 C 425.439 0.0588473 -3.59852 0
M  V30 4372 C 425.047 -1.28385 -4.2921 0
M  V30 4373 C 426.791 0.543358 -4.21008 0
M  V30 4374 C 424.698 -1.19028 -5.79298 0
M  V30 4375 H 423.628 0.00554317 -0.75398 0
M  V30 4376 H 426.279 -0.674924 -1.70637 0
M  V30 4377 H 424.661 0.803612 -3.8776 0
M  V30 4378 H 425.835 -2.04426 -4.12973 0
M  V30 4379 H 424.15 -1.70418 -3.7993 0
M  V30 4380 H 426.747 0.631351 -5.3096 0
M  V30 4381 H 427.09 1.54937 -3.86394 0
M  V30 4382 H 427.623 -0.145754 -3.97533 0
M  V30 4383 H 424.362 -2.17147 -6.18488 0
M  V30 4384 H 423.882 -0.471246 -5.97946 0
M  V30 4385 H 425.561 -0.881365 -6.40969 0
M  V30 4386 N 425.693 1.55336 -0.266172 0
M  V30 4387 C 426.941 1.99003 0.35246 0
M  V30 4388 C 427.262 1.15591 1.57047 0
M  V30 4389 O 426.532 0.243268 1.94384 0
M  V30 4390 H 425.112 0.735025 0.133217 0
M  V30 4391 H 427.774 1.91367 -0.369434 0
M  V30 4392 H 426.87 3.05289 0.648453 0
M  V30 4393 N 427.171 -0.0066808 1.57599 0
M  V30 4394 C 428.42 -0.692078 1.89455 0
M  V30 4395 C 428.733 -1.75306 0.867586 0
M  V30 4396 O 429.939 -2.49262 1.07614 0
M  V30 4397 C 428.395 -1.2821 3.36289 0
M  V30 4398 C 428.003 -0.256291 4.47266 0
M  V30 4399 C 429.747 -1.94608 3.77264 0
M  V30 4400 C 427.654 -0.855927 5.85173 0
M  V30 4401 H 426.584 -0.262252 0.706923 0
M  V30 4402 H 429.235 0.052769 1.83424 0
M  V30 4403 H 427.617 -2.0774 3.37135 0
M  V30 4404 H 428.791 0.513923 4.57925 0
M  V30 4405 H 427.106 0.306862 4.15268 0
M  V30 4406 H 429.703 -2.40364 4.77629 0
M  V30 4407 H 430.046 -2.77382 3.10427 0
M  V30 4408 H 430.579 -1.21822 3.78688 0
M  V30 4409 H 427.318 -0.0671161 6.55466 0
M  V30 4410 H 426.838 -1.59546 5.78191 0
M  V30 4411 H 428.517 -1.35658 6.32618 0
M  V30 4412 N 428.649 -1.55105 -0.279332 0
M  V30 4413 C 429.879 -1.7917 -1.02867 0
M  V30 4414 C 430.287 -0.56204 -1.80659 0
M  V30 4415 O 429.63 0.478266 -1.77365 0
M  V30 4416 C 429.692 -2.96061 -2.03932 0
M  V30 4417 C 429.356 -4.33341 -1.45137 0
M  V30 4418 C 430.353 -5.12565 -0.870266 0
M  V30 4419 C 428.038 -4.79987 -1.48048 0
M  V30 4420 C 430.032 -6.36565 -0.326097 0
M  V30 4421 C 427.719 -6.03944 -0.932443 0
M  V30 4422 C 428.717 -6.8207 -0.356247 0
M  V30 4423 O 428.405 -8.03691 0.183412 0
M  V30 4424 H 428.137 -0.600796 -0.309872 0
M  V30 4425 H 430.691 -2.02932 -0.317468 0
M  V30 4426 H 428.921 -2.67975 -2.78794 0
M  V30 4427 H 430.61 -3.07506 -2.64943 0
M  V30 4428 H 431.376 -4.77661 -0.840521 0
M  V30 4429 H 427.255 -4.1919 -1.91835 0
M  V30 4430 H 430.799 -6.97489 0.124286 0
M  V30 4431 H 426.696 -6.3833 -0.959407 0
M  V30 4432 H 427.464 -8.18468 0.0721681 0
M  V30 4433 N 430.127 0.543554 -1.4793 0
M  V30 4434 C 431.09 1.63156 -1.60975 0
M  V30 4435 C 432.09 1.53346 -0.483899 0
M  V30 4436 O 433.28 1.5726 -0.749339 0
M  V30 4437 C 430.412 3.02743 -1.56716 0
M  V30 4438 H 431.605 1.52934 -2.57975 0
M  V30 4439 H 429.158 0.764557 -1.36324 0
M  V30 4440 H 429.893 3.18484 -0.611418 0
M  V30 4441 H 429.678 3.11272 -2.38438 0
M  V30 4442 H 431.168 3.81871 -1.6901 0
M  V30 4443 N 431.605 1.3629 0.791371 0
M  V30 4444 C 432.552 1.30458 1.90393 0
M  V30 4445 C 433.522 0.173632 1.6519 0
M  V30 4446 O 434.707 0.35983 1.87376 0
M  V30 4447 C 431.847 1.09777 3.27174 0
M  V30 4448 C 430.96 2.31929 3.64462 0
M  V30 4449 C 430.095 2.04276 4.90352 0
M  V30 4450 C 429.134 3.224 5.20312 0
M  V30 4451 N 428.271 2.94424 6.37385 0
M  V30 4452 H 433.111 2.25589 1.94714 0
M  V30 4453 H 430.648 1.12122 0.952216 0
M  V30 4454 H 432.606 0.958133 4.06049 0
M  V30 4455 H 431.236 0.183014 3.22281 0
M  V30 4456 H 430.288 2.56703 2.80727 0
M  V30 4457 H 431.6 3.20085 3.82553 0
M  V30 4458 H 430.754 1.87231 5.77087 0
M  V30 4459 H 429.493 1.13428 4.74326 0
M  V30 4460 H 428.498 3.40005 4.32061 0
M  V30 4461 H 429.723 4.14071 5.38258 0
M  V30 4462 H 427.669 2.06185 6.22755 0
M  V30 4463 H 427.586 3.76118 6.55798 0
M  V30 4464 H 428.854 2.80953 7.27108 0
M  V30 4465 N 433.083 -1.0153 1.20538 0
M  V30 4466 C 434.033 -2.08482 0.922991 0
M  V30 4467 C 435.017 -1.60469 -0.117702 0
M  V30 4468 O 436.209 -1.76772 0.0898465 0
M  V30 4469 C 433.338 -3.39952 0.478312 0
M  V30 4470 C 432.424 -3.94662 1.5525 0
M  V30 4471 N 432.815 -4.22866 2.77521 0
M  V30 4472 C 431.113 -4.22825 1.41897 0
M  V30 4473 C 431.814 -4.67002 3.4682 0
M  V30 4474 N 430.79 -4.69356 2.74237 0
M  V30 4475 H 434.592 -2.28199 1.85209 0
M  V30 4476 H 432.106 -1.19512 1.09957 0
M  V30 4477 H 434.103 -4.16105 0.257408 0
M  V30 4478 H 432.763 -3.21648 -0.444148 0
M  V30 4479 H 433.774 -4.11732 3.1416 0
M  V30 4480 H 430.451 -4.13714 0.561015 0
M  V30 4481 H 431.841 -4.97632 4.51455 0
M  V30 4482 N 434.561 -1.01147 -1.20859 0
M  V30 4483 C 435.491 -0.597663 -2.25722 0
M  V30 4484 C 436.472 0.384744 -1.65692 0
M  V30 4485 O 437.657 0.271303 -1.92296 0
M  V30 4486 C 434.787 0.0700149 -3.47229 0
M  V30 4487 C 433.741 -0.832843 -4.19819 0
M  V30 4488 C 433.067 -0.0312202 -5.34691 0
M  V30 4489 C 434.367 -2.1385 -4.76514 0
M  V30 4490 H 436.061 -1.47423 -2.60589 0
M  V30 4491 H 433.607 -0.710301 -1.25263 0
M  V30 4492 H 435.56 0.37103 -4.19763 0
M  V30 4493 H 434.284 0.981259 -3.11511 0
M  V30 4494 H 432.943 -1.11778 -3.49144 0
M  V30 4495 H 432.591 0.881515 -4.95215 0
M  V30 4496 H 432.291 -0.632434 -5.84187 0
M  V30 4497 H 433.815 0.26346 -6.10031 0
M  V30 4498 H 435.229 -1.9002 -5.40893 0
M  V30 4499 H 433.626 -2.69012 -5.36426 0
M  V30 4500 H 434.696 -2.80495 -3.95538 0
M  V30 4501 N 436.039 1.36541 -0.78704 0
M  V30 4502 C 436.949 2.3387 -0.184896 0
M  V30 4503 C 437.965 1.60927 0.661697 0
M  V30 4504 O 439.141 1.92927 0.57804 0
M  V30 4505 C 436.206 3.40122 0.672145 0
M  V30 4506 C 435.267 4.28867 -0.19267 0
M  V30 4507 C 434.5 5.30045 0.623561 0
M  V30 4508 O 434.723 5.39232 1.8597 0
M  V30 4509 O 433.657 6.01895 0.0247068 0
M  V30 4510 H 437.483 2.87126 -0.989562 0
M  V30 4511 H 435.068 1.38969 -0.548455 0
M  V30 4512 H 436.95 4.05093 1.16094 0
M  V30 4513 H 435.625 2.89169 1.45474 0
M  V30 4514 H 434.532 3.66945 -0.728166 0
M  V30 4515 H 435.865 4.83165 -0.938722 0
M  V30 4516 N 437.518 0.538854 1.48102 0
M  V30 4517 C 438.468 -0.23907 2.26743 0
M  V30 4518 C 439.452 -0.901923 1.33245 0
M  V30 4519 O 440.644 -0.803263 1.57723 0
M  V30 4520 C 437.773 -1.2799 3.18549 0
M  V30 4521 C 436.859 -0.621388 4.19523 0
M  V30 4522 N 437.25 0.298004 5.04921 0
M  V30 4523 C 435.548 -0.877533 4.37282 0
M  V30 4524 C 436.249 0.678757 5.77726 0
M  V30 4525 N 435.225 0.0377881 5.43587 0
M  V30 4526 H 439.027 0.468096 2.90148 0
M  V30 4527 H 436.541 0.357497 1.58416 0
M  V30 4528 H 438.538 -1.851 3.73555 0
M  V30 4529 H 437.198 -1.98835 2.567 0
M  V30 4530 H 438.209 0.671126 5.13533 0
M  V30 4531 H 434.886 -1.57588 3.86616 0
M  V30 4532 H 436.276 1.43316 6.56437 0
M  V30 4533 N 438.996 -1.55193 0.274407 0
M  V30 4534 C 440.242 -2.00604 -0.33608 0
M  V30 4535 C 440.597 -1.15948 -1.53538 0
M  V30 4536 O 439.89 -0.221385 -1.90317 0
M  V30 4537 C 440.084 -3.49019 -0.769458 0
M  V30 4538 C 439.913 -4.48038 0.386301 0
M  V30 4539 C 438.683 -4.97757 0.869854 0
M  V30 4540 C 440.881 -4.99558 1.22254 0
M  V30 4541 N 438.863 -5.80575 1.99515 0
M  V30 4542 C 440.234 -5.79816 2.19575 0
M  V30 4543 C 442.289 -4.81799 1.25597 0
M  V30 4544 C 440.992 -6.44208 3.19981 0
M  V30 4545 C 443.018 -5.46989 2.24848 0
M  V30 4546 C 442.38 -6.27058 3.20901 0
M  V30 4547 H 438.479 -0.777013 -0.088172 0
M  V30 4548 H 441.063 -1.90583 0.398266 0
M  V30 4549 H 439.234 -3.59383 -1.47303 0
M  V30 4550 H 440.966 -3.81263 -1.35722 0
M  V30 4551 H 437.721 -4.71464 0.449281 0
M  V30 4552 H 438.145 -6.26675 2.5614 0
M  V30 4553 H 442.787 -4.19501 0.527158 0
M  V30 4554 H 440.505 -7.05656 3.93796 0
M  V30 4555 H 444.091 -5.35189 2.28174 0
M  V30 4556 H 442.971 -6.7661 3.96445 0
M  V30 4557 N 440.474 -0.00167713 -1.576 0
M  V30 4558 C 441.404 0.988091 -2.11563 0
M  V30 4559 C 442.385 1.35736 -1.02517 0
M  V30 4560 O 443.57 1.44082 -1.30208 0
M  V30 4561 C 440.7 2.27941 -2.62031 0
M  V30 4562 C 439.654 2.0517 -3.75619 0
M  V30 4563 C 438.98 3.4033 -4.12407 0
M  V30 4564 C 440.28 1.41294 -5.02825 0
M  V30 4565 H 441.974 0.538771 -2.94513 0
M  V30 4566 H 439.52 0.257712 -1.41675 0
M  V30 4567 H 441.473 2.97539 -2.9841 0
M  V30 4568 H 440.197 2.74989 -1.76205 0
M  V30 4569 H 438.856 1.37998 -3.39635 0
M  V30 4570 H 438.504 3.85085 -3.23603 0
M  V30 4571 H 438.204 3.25909 -4.88935 0
M  V30 4572 H 439.728 4.1124 -4.51347 0
M  V30 4573 H 441.142 2.00851 -5.36965 0
M  V30 4574 H 439.539 1.37356 -5.84169 0
M  V30 4575 H 440.609 0.382362 -4.8339 0
M  V30 4576 N 441.952 1.55251 0.271103 0
M  V30 4577 C 443.368 1.47133 0.618393 0
M  V30 4578 C 443.568 0.686994 1.89427 0
M  V30 4579 O 442.624 0.206609 2.51653 0
M  V30 4580 C 443.937 2.91361 0.743593 0
M  V30 4581 C 445.485 3.01587 0.837522 0
M  V30 4582 C 445.96 4.47073 0.994483 0
M  V30 4583 N 447.451 4.50909 1.05996 0
M  V30 4584 C 448.186 5.60698 1.20024 0
M  V30 4585 N 447.682 6.80348 1.30759 0
M  V30 4586 N 449.475 5.48444 1.23149 0
M  V30 4587 H 441.626 2.04698 -0.566784 0
M  V30 4588 H 443.889 0.928319 -0.192165 0
M  V30 4589 H 443.595 3.51483 -0.123493 0
M  V30 4590 H 443.469 3.40484 1.62328 0
M  V30 4591 H 445.856 2.4156 1.69507 0
M  V30 4592 H 445.937 2.55713 -0.0668086 0
M  V30 4593 H 445.581 5.07703 0.141582 0
M  V30 4594 H 445.511 4.90605 1.91349 0
M  V30 4595 H 448.002 3.6472 0.989316 0
M  V30 4596 H 448.315 7.59772 1.41303 0
M  V30 4597 H 446.66 6.83156 1.27761 0
M  V30 4598 H 449.851 4.53907 1.14394 0
M  V30 4599 H 450.024 6.34049 1.33738 0
M  V30 4600 N 443.43 -0.535701 1.48216 0
M  V30 4601 C 444.38 -1.63688 1.58714 0
M  V30 4602 C 445.364 -1.54635 0.444615 0
M  V30 4603 O 446.556 -1.62753 0.695742 0
M  V30 4604 C 443.685 -3.02423 1.62466 0
M  V30 4605 C 442.771 -3.16601 2.82178 0
M  V30 4606 N 443.162 -3.00771 4.06658 0
M  V30 4607 C 441.46 -3.47645 2.79391 0
M  V30 4608 C 442.161 -3.18213 4.86945 0
M  V30 4609 N 441.137 -3.45528 4.19656 0
M  V30 4610 H 444.939 -1.5005 2.5271 0
M  V30 4611 H 442.453 -0.741018 1.44508 0
M  V30 4612 H 444.45 -3.81517 1.6808 0
M  V30 4613 H 443.11 -3.17157 0.695826 0
M  V30 4614 H 444.121 -2.77652 4.37184 0
M  V30 4615 H 440.798 -3.68771 1.95739 0
M  V30 4616 H 442.188 -3.1076 5.95716 0
M  V30 4617 N 444.908 -1.36708 -0.784132 0
M  V30 4618 C 446.155 -1.31231 -1.54222 0
M  V30 4619 C 446.483 0.106864 -1.94206 0
M  V30 4620 O 445.738 1.07734 -1.63376 0
M  V30 4621 C 446.037 -2.18571 -2.82774 0
M  V30 4622 C 445.703 -3.67039 -2.61903 0
M  V30 4623 C 444.365 -4.07503 -2.55919 0
M  V30 4624 C 446.717 -4.61149 -2.4288 0
M  V30 4625 C 444.045 -5.40211 -2.28886 0
M  V30 4626 C 446.397 -5.94081 -2.17373 0
M  V30 4627 C 445.061 -6.33664 -2.09825 0
M  V30 4628 H 444.331 -0.48021 -0.56434 0
M  V30 4629 H 446.978 -1.68807 -0.904233 0
M  V30 4630 H 445.283 -1.73949 -3.51068 0
M  V30 4631 H 446.98 -2.11655 -3.40592 0
M  V30 4632 H 443.57 -3.34941 -2.67418 0
M  V30 4633 H 447.754 -4.30756 -2.46501 0
M  V30 4634 H 443.01 -5.69855 -2.21529 0
M  V30 4635 H 447.184 -6.66566 -2.01649 0
M  V30 4636 H 444.811 -7.36423 -1.88641 0
M  V30 4637 N 446.386 1.0089 -1.21074 0
M  V30 4638 C 447.797 1.56056 -1.02486 0
M  V30 4639 C 448.148 1.91728 0.416506 0
M  V30 4640 O 447.273 1.73066 1.29912 0
M  V30 4641 C 447.868 2.83563 -1.85411 0
M  V30 4642 C 446.427 3.3523 -1.71166 0
M  V30 4643 C 445.574 2.0846 -1.82865 0
M  V30 4644 H 448.525 0.831818 -1.35154 0
M  V30 4645 H 448.546 3.55286 -1.36205 0
M  V30 4646 H 448.058 2.57569 -2.9031 0
M  V30 4647 H 446.159 3.66167 -0.689361 0
M  V30 4648 H 446.272 4.06913 -2.52901 0
M  V30 4649 H 444.636 2.21275 -1.26132 0
M  V30 4650 H 445.419 1.84883 -2.89263 0
M  V30 4651 N 447.864 1.01787 1.20321 0
M  V30 4652 C 449.113 0.703249 1.89043 0
M  V30 4653 C 449.426 -0.770445 1.79787 0
M  V30 4654 O 450.632 -1.19767 2.43656 0
M  V30 4655 C 449.088 1.20749 3.3904 0
M  V30 4656 C 448.696 2.70817 3.56878 0
M  V30 4657 C 450.44 0.968352 4.13308 0
M  V30 4658 C 448.347 3.14716 5.00708 0
M  V30 4659 H 447.277 0.259354 0.707991 0
M  V30 4660 H 449.928 1.23072 1.36108 0
M  V30 4661 H 448.31 0.607989 3.91305 0
M  V30 4662 H 449.484 3.36327 3.14993 0
M  V30 4663 H 447.799 2.92888 2.95983 0
M  V30 4664 H 450.396 1.27173 5.19356 0
M  V30 4665 H 450.739 -0.095149 4.16191 0
M  V30 4666 H 451.272 1.53129 3.67146 0
M  V30 4667 H 448.011 4.20347 5.02979 0
M  V30 4668 H 447.531 2.53927 5.43398 0
M  V30 4669 H 449.21 3.07426 5.69296 0
M  V30 4670 N 449.342 -1.36122 0.79427 0
M  V30 4671 C 450.758 -1.5232 0.476525 0
M  V30 4672 C 450.958 -1.74685 -1.00436 0
M  V30 4673 O 450.014 -1.78115 -1.78973 0
M  V30 4674 C 451.327 -2.70607 1.31119 0
M  V30 4675 C 452.875 -2.8448 1.30537 0
M  V30 4676 C 453.35 -4.05778 2.12387 0
M  V30 4677 N 454.841 -4.12933 2.09859 0
M  V30 4678 C 455.576 -5.05876 2.69957 0
M  V30 4679 N 455.072 -6.04232 3.38934 0
M  V30 4680 N 456.865 -4.98528 2.59665 0
M  V30 4681 H 449.016 -1.1986 1.75349 0
M  V30 4682 H 451.279 -0.585418 0.745647 0
M  V30 4683 H 450.985 -2.60619 2.36158 0
M  V30 4684 H 450.859 -3.64888 0.955843 0
M  V30 4685 H 453.246 -2.93927 0.262876 0
M  V30 4686 H 453.327 -1.91093 1.70051 0
M  V30 4687 H 452.971 -3.97092 3.1667 0
M  V30 4688 H 452.901 -4.98323 1.70242 0
M  V30 4689 H 455.392 -3.42515 1.59662 0
M  V30 4690 H 455.705 -6.71724 3.82109 0
M  V30 4691 H 454.05 -6.04443 3.43036 0
M  V30 4692 H 457.241 -4.20641 2.05375 0
M  V30 4693 H 457.414 -5.70773 3.06793 0
M  V30 4694 N 450.82 -0.546701 -1.47814 0
M  V30 4695 C 451.752 0.244196 -2.27895 0
M  V30 4696 C 452.765 0.88911 -1.36377 0
M  V30 4697 O 453.954 0.764733 -1.61289 0
M  V30 4698 C 451.054 1.36252 -3.10304 0
M  V30 4699 C 450.227 0.816382 -4.29714 0
M  V30 4700 C 449.286 1.81789 -4.93801 0
M  V30 4701 O 448.312 1.36818 -5.52512 0
M  V30 4702 N 449.514 3.15085 -4.87547 0
M  V30 4703 H 452.279 -0.442694 -2.96412 0
M  V30 4704 H 449.84 -0.382095 -1.57327 0
M  V30 4705 H 451.832 2.03102 -3.50045 0
M  V30 4706 H 450.402 1.95281 -2.44099 0
M  V30 4707 H 449.622 -0.0285981 -3.9419 0
M  V30 4708 H 450.91 0.430668 -5.06974 0
M  V30 4709 H 450.308 3.54275 -4.41028 0
M  V30 4710 H 448.865 3.77522 -5.31339 0
M  V30 4711 N 452.299 1.55045 -0.282633 0
M  V30 4712 C 453.232 2.18951 0.64311 0
M  V30 4713 C 454.21 1.15287 1.14664 0
M  V30 4714 O 455.394 1.43846 1.21822 0
M  V30 4715 C 452.521 2.81874 1.87789 0
M  V30 4716 C 451.567 3.98906 1.50919 0
M  V30 4717 S 452.4 5.3234 0.580884 0
M  V30 4718 C 453.556 5.98737 1.82387 0
M  V30 4719 H 453.789 2.97131 0.100138 0
M  V30 4720 H 451.322 1.54255 -0.0668514 0
M  V30 4721 H 453.28 3.18757 2.58658 0
M  V30 4722 H 451.941 2.03573 2.392 0
M  V30 4723 H 451.134 4.4165 2.42819 0
M  V30 4724 H 450.736 3.63485 0.88061 0
M  V30 4725 H 453.028 6.18427 2.76684 0
M  V30 4726 H 453.971 6.93318 1.4393 0
M  V30 4727 H 454.379 5.28177 1.99223 0
M  V30 4728 N 453.777 0.010035 1.57597 0
M  V30 4729 C 454.707 -0.976857 2.12084 0
M  V30 4730 C 455.688 -1.35191 1.03235 0
M  V30 4731 O 456.873 -1.43389 1.3097 0
M  V30 4732 C 454.003 -2.26548 2.63236 0
M  V30 4733 C 452.957 -2.03175 3.76701 0
M  V30 4734 C 452.283 -3.38138 4.14206 0
M  V30 4735 C 453.583 -1.38625 5.03568 0
M  V30 4736 H 455.277 -0.523145 2.94794 0
M  V30 4737 H 452.823 -0.250195 1.4181 0
M  V30 4738 H 454.776 -2.95952 2.99984 0
M  V30 4739 H 453.5 -2.74051 1.77661 0
M  V30 4740 H 452.159 -1.36195 3.40362 0
M  V30 4741 H 451.807 -3.83363 3.25641 0
M  V30 4742 H 451.507 -3.23312 4.90656 0
M  V30 4743 H 453.031 -4.08841 4.53521 0
M  V30 4744 H 454.445 -1.98 5.38023 0
M  V30 4745 H 452.842 -1.34256 5.84889 0
M  V30 4746 H 453.912 -0.356722 4.83586 0
M  V30 4747 N 455.255 -1.55392 -0.262866 0
M  V30 4748 C 456.502 -1.76476 -0.993109 0
M  V30 4749 C 456.83 -0.571479 -1.85915 0
M  V30 4750 O 456.085 0.445733 -1.90556 0
M  V30 4751 C 456.384 -3.02889 -1.89718 0
M  V30 4752 C 456.05 -4.34974 -1.18781 0
M  V30 4753 C 454.712 -4.7087 -0.991699 0
M  V30 4754 C 457.064 -5.16695 -0.683798 0
M  V30 4755 C 454.392 -5.86036 -0.279024 0
M  V30 4756 C 456.744 -6.32598 0.0153327 0
M  V30 4757 C 455.408 -6.67127 0.223062 0
M  V30 4758 H 454.678 -0.64577 -0.363404 0
M  V30 4759 H 457.325 -1.89664 -0.264525 0
M  V30 4760 H 455.63 -2.84644 -2.6923 0
M  V30 4761 H 457.327 -3.16399 -2.46359 0
M  V30 4762 H 453.917 -4.06765 -1.35058 0
M  V30 4763 H 458.101 -4.8943 -0.8229 0
M  V30 4764 H 453.357 -6.11306 -0.107456 0
M  V30 4765 H 457.531 -6.95171 0.413584 0
M  V30 4766 H 455.158 -7.56216 0.777265 0
M  V30 4767 N 456.733 0.527833 -1.48498 0
M  V30 4768 C 457.979 1.28545 -1.56857 0
M  V30 4769 C 458.312 1.92678 -0.242651 0
M  V30 4770 O 457.587 1.79394 0.751545 0
M  V30 4771 C 457.87 2.37314 -2.70839 0
M  V30 4772 C 457.723 1.77858 -4.13142 0
M  V30 4773 C 459.042 3.39068 -2.80573 0
M  V30 4774 H 456.161 0.466006 -0.570971 0
M  V30 4775 H 458.803 0.587784 -1.8068 0
M  V30 4776 H 456.953 2.96821 -2.50658 0
M  V30 4777 H 458.625 1.22385 -4.44769 0
M  V30 4778 H 456.868 1.08383 -4.20042 0
M  V30 4779 H 457.539 2.56624 -4.88721 0
M  V30 4780 H 460.015 2.89518 -2.98862 0
M  V30 4781 H 458.891 4.12566 -3.6205 0
M  V30 4782 H 459.152 3.9975 -1.88818 0
M  V30 4783 N 458.211 1.37122 0.776871 0
M  V30 4784 C 459.436 1.354 1.57104 0
M  V30 4785 C 459.861 -0.0595562 1.88006 0
M  V30 4786 O 459.219 -1.03514 1.48844 0
M  V30 4787 C 459.267 2.19472 2.8612 0
M  V30 4788 O 458.371 1.59582 3.80273 0
M  V30 4789 H 457.712 0.462869 0.476076 0
M  V30 4790 H 460.242 1.80577 0.961932 0
M  V30 4791 H 460.252 2.32502 3.35271 0
M  V30 4792 H 458.927 3.22222 2.62956 0
M  V30 4793 H 457.504 1.55564 3.38902 0
M  V30 4794 N 459.689 -1.00246 1.21608 0
M  V30 4795 C 460.937 -1.73717 1.0328 0
M  V30 4796 C 461.258 -1.90102 -0.434318 0
M  V30 4797 O 460.528 -1.45376 -1.31311 0
M  V30 4798 H 459.108 -0.643613 0.379172 0
M  V30 4799 H 461.77 -1.20787 1.52959 0
M  V30 4800 H 460.866 -2.73535 1.50283 0
M  V30 4801 N 461.167 -1.02423 -1.1978 0
M  V30 4802 C 462.077 -0.610919 -2.26506 0
M  V30 4803 C 463.093 0.355152 -1.70337 0
M  V30 4804 O 464.269 0.214195 -2.00258 0
M  V30 4805 C 461.334 0.0365921 -3.46681 0
M  V30 4806 C 460.395 -0.976389 -4.18049 0
M  V30 4807 C 459.628 -0.359683 -5.32487 0
M  V30 4808 O 459.851 0.838601 -5.64202 0
M  V30 4809 O 458.785 -1.08022 -5.92127 0
M  V30 4810 H 462.611 -1.49965 -2.64091 0
M  V30 4811 H 460.196 -0.794156 -1.26545 0
M  V30 4812 H 462.078 0.39786 -4.19518 0
M  V30 4813 H 460.753 0.899398 -3.10954 0
M  V30 4814 H 459.66 -1.38916 -3.47352 0
M  V30 4815 H 460.993 -1.80941 -4.57735 0
M  V30 4816 N 462.645 1.35699 -0.801477 0
M  V30 4817 C 464.061 1.52065 -0.484596 0
M  V30 4818 C 464.261 1.75215 0.995084 0
M  V30 4819 O 463.317 1.79061 1.78026 0
M  V30 4820 C 464.63 2.69908 -1.32552 0
M  V30 4821 C 466.178 2.83784 -1.32044 0
M  V30 4822 C 466.653 4.04646 -2.14536 0
M  V30 4823 N 468.144 4.11814 -2.12046 0
M  V30 4824 C 468.879 5.04437 -2.72636 0
M  V30 4825 N 468.375 6.02426 -3.42133 0
M  V30 4826 N 470.168 4.97144 -2.62305 0
M  V30 4827 H 462.319 1.18928 -1.75983 0
M  V30 4828 H 464.582 0.581455 -0.748741 0
M  V30 4829 H 464.288 2.59363 -2.37537 0
M  V30 4830 H 464.162 3.64376 -0.975181 0
M  V30 4831 H 466.549 2.93783 -0.27846 0
M  V30 4832 H 466.63 1.90188 -1.71062 0
M  V30 4833 H 466.274 3.95407 -3.18772 0
M  V30 4834 H 466.204 4.97413 -1.72882 0
M  V30 4835 H 468.695 3.41664 -1.61476 0
M  V30 4836 H 469.008 6.69688 -3.85666 0
M  V30 4837 H 467.353 6.02615 -3.46237 0
M  V30 4838 H 470.544 4.19546 -2.07603 0
M  V30 4839 H 470.717 5.69138 -3.09815 0
M  V30 4840 N 464.123 0.554532 1.47522 0
M  V30 4841 C 465.053 -0.182974 2.32782 0
M  V30 4842 C 466.034 -0.911377 1.43624 0
M  V30 4843 O 467.219 -0.892366 1.72483 0
M  V30 4844 C 464.349 -1.21513 3.25349 0
M  V30 4845 C 463.303 -0.603355 4.23726 0
M  V30 4846 C 462.629 -1.73995 5.05598 0
M  V30 4847 C 463.929 0.441121 5.20434 0
M  V30 4848 H 465.623 0.52882 2.94693 0
M  V30 4849 H 463.169 0.255759 1.41711 0
M  V30 4850 H 465.122 -1.73922 3.83835 0
M  V30 4851 H 463.846 -1.95683 2.61487 0
M  V30 4852 H 462.505 -0.10059 3.66462 0
M  V30 4853 H 462.153 -2.47063 4.38143 0
M  V30 4854 H 461.853 -1.3364 5.72201 0
M  V30 4855 H 463.377 -2.26735 5.66942 0
M  V30 4856 H 464.791 0.00319931 5.733 0
M  V30 4857 H 463.188 0.763402 5.95224 0
M  V30 4858 H 464.258 1.33799 4.66075 0
M  V30 4859 N 465.601 -1.54893 0.290851 0
M  V30 4860 C 466.85 -1.99111 -0.322113 0
M  V30 4861 C 467.163 -1.18283 -1.55784 0
M  V30 4862 O 468.369 -1.5272 -2.24475 0
M  V30 4863 C 466.825 -3.54442 -0.624438 0
M  V30 4864 C 466.433 -4.44066 0.592373 0
M  V30 4865 C 468.177 -4.07211 -1.19916 0
M  V30 4866 C 466.084 -5.90812 0.263762 0
M  V30 4867 H 465.014 -0.743712 -0.124133 0
M  V30 4868 H 467.665 -1.79132 0.39797 0
M  V30 4869 H 466.047 -3.70281 -1.40384 0
M  V30 4870 H 467.221 -4.39999 1.36886 0
M  V30 4871 H 465.536 -4.02015 1.08502 0
M  V30 4872 H 468.133 -5.14407 -1.45909 0
M  V30 4873 H 468.476 -3.57196 -2.13815 0
M  V30 4874 H 469.009 -3.94873 -0.481687 0
M  V30 4875 H 465.748 -6.44955 1.17105 0
M  V30 4876 H 465.268 -5.97911 -0.475655 0
M  V30 4877 H 466.947 -6.46852 -0.138354 0
M  V30 4878 N 467.08 -0.0183926 -1.57589 0
M  V30 4879 C 468.305 0.676634 -1.96052 0
M  V30 4880 C 468.73 1.6548 -0.894307 0
M  V30 4881 O 468.088 1.80712 0.145849 0
M  V30 4882 C 468.136 1.36872 -3.33614 0
M  V30 4883 O 467.24 2.48372 -3.29219 0
M  V30 4884 H 466.581 0.1786 -0.63953 0
M  V30 4885 H 469.111 -0.077056 -2.04455 0
M  V30 4886 H 469.121 1.72797 -3.69601 0
M  V30 4887 H 467.796 0.651636 -4.10763 0
M  V30 4888 H 466.373 2.14639 -3.04934 0
M  V30 4889 N 468.558 1.5553 0.254621 0
M  V30 4890 C 469.835 1.6774 1.00611 0
M  V30 4891 C 470.215 0.555993 2.03647 0
M  V30 4892 O 469.563 -0.441583 2.24193 0
M  V30 4893 C 469.773 3.07725 1.6464 0
M  V30 4894 C 471.121 3.66074 2.15116 0
M  V30 4895 O 472.145 3.10476 1.74595 0
M  V30 4896 O 471.004 4.63526 2.89493 0
M  V30 4897 H 468.098 0.681958 0.467828 0
M  V30 4898 H 470.644 1.67863 0.24902 0
M  V30 4899 H 469.416 3.80792 0.900734 0
M  V30 4900 H 469.039 3.1158 2.46989 0
M  V30 4901 N 470.036 -0.519951 1.48776 0
M  V30 4902 C 471.447 -1.10177 1.50725 0
M  V30 4903 C 471.798 -1.94153 0.282678 0
M  V30 4904 O 470.923 -2.07645 -0.609298 0
M  V30 4905 C 471.518 -2.00482 2.73116 0
M  V30 4906 C 470.077 -2.53862 2.77905 0
M  V30 4907 C 469.224 -1.31047 2.44381 0
M  V30 4908 H 472.175 -0.30473 1.55747 0
M  V30 4909 H 472.196 -2.8491 2.52203 0
M  V30 4910 H 471.708 -1.39335 3.62225 0
M  V30 4911 H 469.809 -3.18702 1.93029 0
M  V30 4912 H 469.922 -2.9231 3.79594 0
M  V30 4913 H 468.286 -1.62953 1.95751 0
M  V30 4914 H 469.069 -0.71637 3.35743 0
M  V30 4915 N 471.514 -1.37532 -0.769588 0
M  V30 4916 C 472.477 -1.33292 -1.86456 0
M  V30 4917 C 473.477 -0.236537 -1.59051 0
M  V30 4918 O 474.667 -0.492511 -1.67093 0
M  V30 4919 C 471.799 -1.07118 -3.23633 0
M  V30 4920 H 472.992 -2.30692 -1.91628 0
M  V30 4921 H 470.545 -1.22593 -0.969572 0
M  V30 4922 H 471.28 -0.102578 -3.24138 0
M  V30 4923 H 471.065 -1.86479 -3.44917 0
M  V30 4924 H 472.555 -1.06806 -4.03711 0
M  V30 4925 N 472.992 0.995999 -1.22138 0
M  V30 4926 C 474.24 1.73167 -1.042 0
M  V30 4927 C 474.561 1.90329 0.42423 0
M  V30 4928 O 473.831 1.4607 1.30539 0
M  V30 4929 H 472.411 0.641593 -0.38258 0
M  V30 4930 H 475.073 1.19974 -1.53598 0
M  V30 4931 H 474.169 2.72734 -1.51731 0
M  V30 4932 N 474.47 1.03057 1.19235 0
M  V30 4933 C 475.38 0.622922 2.26179 0
M  V30 4934 C 476.396 -0.346113 1.70523 0
M  V30 4935 O 477.572 -0.203572 2.00369 0
M  V30 4936 C 474.637 -0.0182063 3.46695 0
M  V30 4937 C 473.698 0.998546 4.17526 0
M  V30 4938 C 472.931 0.387917 5.32288 0
M  V30 4939 O 473.154 -0.808668 5.64639 0
M  V30 4940 O 472.088 1.1116 5.91546 0
M  V30 4941 H 475.914 1.51363 2.63292 0
M  V30 4942 H 473.499 0.800856 1.26122 0
M  V30 4943 H 475.381 -0.375606 4.19723 0
M  V30 4944 H 474.056 -0.882895 3.11427 0
M  V30 4945 H 472.963 1.40756 3.4661 0
M  V30 4946 H 474.296 1.83366 4.56769 0
M  V30 4947 N 475.948 -1.35272 0.808662 0
M  V30 4948 C 476.878 -2.32315 0.234981 0
M  V30 4949 C 477.859 -1.57572 -0.64071 0
M  V30 4950 O 479.044 -1.8563 -0.570551 0
M  V30 4951 C 476.174 -3.41801 -0.615601 0
M  V30 4952 C 475.128 -4.27694 0.161767 0
M  V30 4953 C 474.454 -5.28519 -0.810649 0
M  V30 4954 C 475.754 -5.04231 1.36193 0
M  V30 4955 H 477.448 -2.80543 1.04575 0
M  V30 4956 H 474.994 -1.3488 0.504315 0
M  V30 4957 H 476.947 -4.08693 -1.02702 0
M  V30 4958 H 475.671 -2.92186 -1.45928 0
M  V30 4959 H 474.33 -3.62384 0.554382 0
M  V30 4960 H 473.978 -4.75171 -1.64988 0
M  V30 4961 H 473.678 -5.8686 -0.294822 0
M  V30 4962 H 475.202 -5.98283 -1.22023 0
M  V30 4963 H 476.616 -5.64058 1.02528 0
M  V30 4964 H 475.013 -5.72077 1.81239 0
M  V30 4965 H 476.083 -4.34753 2.14751 0
M  V30 4966 N 477.426 -0.562348 -1.47226 0
M  V30 4967 C 478.674 -0.0401371 -2.0206 0
M  V30 4968 C 478.995 1.3165 -1.43852 0
M  V30 4969 O 478.265 1.85976 -0.615599 0
M  V30 4970 H 476.845 -0.0118479 -0.746906 0
M  V30 4971 H 479.507 -0.73352 -1.8057 0
M  V30 4972 H 478.603 0.0441254 -3.12069 0
M  V30 4973 N 478.904 1.54736 -0.299062 0
M  V30 4974 C 480.32 1.59507 0.0543849 0
M  V30 4975 C 480.52 1.31606 1.52585 0
M  V30 4976 O 479.576 1.08853 2.27832 0
M  V30 4977 C 480.889 2.98751 -0.34181 0
M  V30 4978 C 482.437 3.1165 -0.290414 0
M  V30 4979 C 482.912 4.53199 -0.661402 0
M  V30 4980 N 484.403 4.59114 -0.613863 0
M  V30 4981 C 485.138 5.66709 -0.873417 0
M  V30 4982 N 484.634 6.82349 -1.19884 0
M  V30 4983 N 486.427 5.56369 -0.800608 0
M  V30 4984 H 478.578 1.71133 -1.25806 0
M  V30 4985 H 480.841 0.799186 -0.509908 0
M  V30 4986 H 480.547 3.24085 -1.36608 0
M  V30 4987 H 480.421 3.75961 0.305508 0
M  V30 4988 H 482.808 2.86066 0.724605 0
M  V30 4989 H 482.889 2.366 -0.972327 0
M  V30 4990 H 482.533 4.79513 -1.67422 0
M  V30 4991 H 482.463 5.26583 0.0425612 0
M  V30 4992 H 484.954 3.76053 -0.3732 0
M  V30 4993 H 485.267 7.60326 -1.38291 0
M  V30 4994 H 483.612 6.83906 -1.23685 0
M  V30 4995 H 486.803 4.64904 -0.546045 0
M  V30 4996 H 486.976 6.40139 -1.00626 0
M  V30 4997 N 480.382 0.0267497 1.57577 0
M  V30 4998 C 481.628 -0.653371 1.91987 0
M  V30 4999 C 481.961 -1.71915 0.903263 0
M  V30 5000 O 481.236 -1.94358 -0.0743387 0
M  V30 5001 C 481.519 -1.272 3.36886 0
M  V30 5002 C 481.372 -0.215938 4.49281 0
M  V30 5003 C 482.691 -2.19069 3.81703 0
M  V30 5004 H 479.81 -0.236047 0.698177 0
M  V30 5005 H 482.452 0.0835236 1.89816 0
M  V30 5006 H 480.602 -1.90005 3.38866 0
M  V30 5007 H 482.274 0.41449 4.59434 0
M  V30 5008 H 480.517 0.458855 4.31366 0
M  V30 5009 H 481.188 -0.688347 5.47691 0
M  V30 5010 H 483.664 -1.66253 3.81444 0
M  V30 5011 H 482.54 -2.59307 4.83788 0
M  V30 5012 H 482.801 -3.08087 3.17072 0
M  V30 5013 N 481.861 -1.55662 -0.24637 0
M  V30 5014 C 482.793 -1.86811 -1.32794 0
M  V30 5015 C 483.806 -0.754413 -1.44265 0
M  V30 5016 O 484.995 -1.03253 -1.45606 0
M  V30 5017 C 482.095 -2.0397 -2.70646 0
M  V30 5018 C 481.268 -3.34832 -2.81436 0
M  V30 5019 C 480.327 -3.41727 -4.00136 0
M  V30 5020 O 479.353 -4.14934 -3.89639 0
M  V30 5021 N 480.555 -2.71058 -5.1333 0
M  V30 5022 H 483.32 -2.80174 -1.06409 0
M  V30 5023 H 480.881 -1.55906 -0.43647 0
M  V30 5024 H 482.873 -2.05924 -3.48393 0
M  V30 5025 H 481.443 -1.1735 -2.89738 0
M  V30 5026 H 480.663 -3.4519 -1.90361 0
M  V30 5027 H 481.951 -4.21085 -2.85595 0
M  V30 5028 H 481.349 -2.11314 -5.2475 0
M  V30 5029 H 479.906 -2.78704 -5.89209 0
M  V30 5030 N 483.339 0.512053 -1.4905 0
M  V30 5031 C 484.616 1.27337 -1.48474 0
M  V30 5032 C 484.996 2.1009 -0.206301 0
M  V30 5033 O 484.344 2.136 0.811609 0
M  V30 5034 C 484.554 2.13954 -2.75726 0
M  V30 5035 C 485.902 2.73507 -3.24776 0
M  V30 5036 O 486.926 2.24229 -2.76767 0
M  V30 5037 O 485.785 3.63186 -4.08361 0
M  V30 5038 H 482.879 0.575652 -0.593762 0
M  V30 5039 H 485.425 0.527232 -1.61302 0
M  V30 5040 H 484.197 1.52709 -3.60272 0
M  V30 5041 H 483.82 2.95782 -2.65705 0
M  V30 5042 N 484.817 1.37938 0.762283 0
M  V30 5043 C 486.064 1.33668 1.52115 0
M  V30 5044 C 486.392 -0.0759538 1.94352 0
M  V30 5045 O 485.647 -1.05121 1.6507 0
M  V30 5046 C 485.946 2.23042 2.79261 0
M  V30 5047 C 485.612 3.71159 2.56031 0
M  V30 5048 C 484.274 4.11523 2.49404 0
M  V30 5049 C 486.626 4.64955 2.35513 0
M  V30 5050 C 483.954 5.43784 2.20263 0
M  V30 5051 C 486.306 5.97464 2.07894 0
M  V30 5052 C 484.97 6.36922 1.99718 0
M  V30 5053 H 484.24 0.489127 0.556629 0
M  V30 5054 H 486.887 1.70224 0.877262 0
M  V30 5055 H 485.192 1.79512 3.48256 0
M  V30 5056 H 486.889 2.17047 3.37182 0
M  V30 5057 H 483.479 3.39153 2.62056 0
M  V30 5058 H 487.663 4.34623 2.39617 0
M  V30 5059 H 482.919 5.73307 2.12435 0
M  V30 5060 H 487.093 6.6969 1.91019 0
M  V30 5061 H 484.72 7.39331 1.76902 0
M  V30 5062 N 486.295 -0.989507 1.22664 0
M  V30 5063 C 487.225 -2.09847 1.02404 0
M  V30 5064 C 488.206 -1.70007 -0.0561303 0
M  V30 5065 O 489.391 -1.93906 0.106748 0
M  V30 5066 C 486.521 -3.41996 0.604663 0
M  V30 5067 C 485.475 -3.95699 1.63115 0
M  V30 5068 C 484.801 -5.23936 1.0675 0
M  V30 5069 C 486.101 -4.25999 3.02196 0
M  V30 5070 H 487.795 -2.27054 1.95158 0
M  V30 5071 H 485.341 -1.09111 0.939727 0
M  V30 5072 H 487.294 -4.1899 0.45002 0
M  V30 5073 H 486.018 -3.24626 -0.35855 0
M  V30 5074 H 484.677 -3.2084 1.77362 0
M  V30 5075 H 484.325 -5.02909 0.0955422 0
M  V30 5076 H 484.025 -5.60833 1.75328 0
M  V30 5077 H 485.549 -6.0356 0.924516 0
M  V30 5078 H 486.963 -4.93777 2.91303 0
M  V30 5079 H 485.36 -4.74076 3.67929 0
M  V30 5080 H 486.43 -3.33636 3.51873 0
M  V30 5081 N 487.773 -1.03688 -1.18687 0
M  V30 5082 C 489.021 -0.736572 -1.88199 0
M  V30 5083 C 489.342 0.737665 -1.80509 0
M  V30 5084 O 488.612 1.53204 -1.22088 0
M  V30 5085 H 487.192 -0.269466 -0.696704 0
M  V30 5086 H 489.854 -1.31282 -1.44052 0
M  V30 5087 H 488.95 -1.03802 -2.94332 0
M  V30 5088 N 489.251 1.34841 -0.815825 0
M  V30 5089 C 490.181 2.32187 -0.247298 0
M  V30 5090 C 491.162 1.5791 0.632344 0
M  V30 5091 O 492.347 1.8593 0.560698 0
M  V30 5092 C 489.477 3.42122 0.597466 0
M  V30 5093 C 488.431 4.27602 -0.184446 0
M  V30 5094 C 487.757 5.28942 0.782609 0
M  V30 5095 C 489.057 5.03502 -1.38865 0
M  V30 5096 H 490.751 2.79985 -1.06061 0
M  V30 5097 H 488.297 1.34611 -0.511461 0
M  V30 5098 H 490.25 4.09232 1.00533 0
M  V30 5099 H 488.974 2.92956 1.44376 0
M  V30 5100 H 487.633 3.62085 -0.573592 0
M  V30 5101 H 487.281 4.7604 1.62466 0
M  V30 5102 H 486.981 5.87008 0.263695 0
M  V30 5103 H 488.505 5.98922 1.18848 0
M  V30 5104 H 489.919 5.63506 -1.05518 0
M  V30 5105 H 488.316 5.71108 -1.8427 0
M  V30 5106 H 489.386 4.33608 -2.17054 0
M  V30 5107 N 490.729 0.570148 1.46925 0
M  V30 5108 C 491.676 -0.170257 2.30171 0
M  V30 5109 C 492.646 -0.896099 1.39855 0
M  V30 5110 O 493.831 -0.889248 1.68811 0
M  V30 5111 C 490.971 -1.18605 3.24079 0
M  V30 5112 C 490.084 -0.464947 4.29491 0
M  V30 5113 C 489.219 -1.46716 5.10537 0
M  V30 5114 C 488.258 -0.731758 6.0771 0
M  V30 5115 N 487.395 -1.68142 6.81669 0
M  V30 5116 H 492.235 0.545713 2.92961 0
M  V30 5117 H 489.772 0.280938 1.44392 0
M  V30 5118 H 491.73 -1.78771 3.76957 0
M  V30 5119 H 490.36 -1.86989 2.63125 0
M  V30 5120 H 489.412 0.251506 3.79568 0
M  V30 5121 H 490.724 0.110548 4.98677 0
M  V30 5122 H 489.878 -2.14199 5.6763 0
M  V30 5123 H 488.617 -2.07658 4.41282 0
M  V30 5124 H 487.622 -0.0430787 5.49783 0
M  V30 5125 H 488.847 -0.127904 6.7898 0
M  V30 5126 H 486.793 -2.27918 6.15134 0
M  V30 5127 H 486.71 -1.15841 7.47072 0
M  V30 5128 H 487.978 -2.347 7.43328 0
M  V30 5129 N 492.207 -1.54576 0.307264 0
M  V30 5130 C 493.623 -1.59534 -0.0459251 0
M  V30 5131 C 493.823 -1.32414 -1.51884 0
M  V30 5132 O 492.879 -1.1006 -2.27251 0
M  V30 5133 C 494.192 -2.98566 0.357649 0
M  V30 5134 C 495.74 -3.11491 0.306937 0
M  V30 5135 C 496.215 -4.52842 0.685427 0
M  V30 5136 N 497.706 -4.58782 0.638203 0
M  V30 5137 C 498.441 -5.66238 0.903458 0
M  V30 5138 N 497.937 -6.81703 1.23501 0
M  V30 5139 N 499.73 -5.55937 0.830102 0
M  V30 5140 H 491.881 -1.70464 1.26712 0
M  V30 5141 H 494.144 -0.79647 0.514139 0
M  V30 5142 H 493.85 -3.23356 1.38325 0
M  V30 5143 H 493.724 -3.76117 -0.285565 0
M  V30 5144 H 496.111 -2.86446 -0.709424 0
M  V30 5145 H 496.192 -2.36081 0.984861 0
M  V30 5146 H 495.836 -4.78618 1.69963 0
M  V30 5147 H 495.766 -5.26598 -0.0146346 0
M  V30 5148 H 498.257 -3.75849 0.393138 0
M  V30 5149 H 498.57 -7.59582 1.42322 0
M  V30 5150 H 496.915 -6.8324 1.27311 0
M  V30 5151 H 500.106 -4.64608 0.570693 0
M  V30 5152 H 500.279 -6.39597 1.04019 0
M  V30 5153 N 493.685 -0.035106 -1.57561 0
M  V30 5154 C 494.934 0.641604 -1.91223 0
M  V30 5155 C 495.247 1.72944 -0.913761 0
M  V30 5156 O 496.453 2.46321 -1.14185 0
M  V30 5157 C 494.909 1.19249 -3.3957 0
M  V30 5158 C 494.517 0.137616 -4.47789 0
M  V30 5159 C 496.261 1.84537 -3.82291 0
M  V30 5160 C 494.168 0.700478 -5.87237 0
M  V30 5161 H 493.098 0.243417 -0.713627 0
M  V30 5162 H 495.749 -0.101382 -1.8322 0
M  V30 5163 H 494.131 1.98728 -3.42525 0
M  V30 5164 H 495.305 -0.635153 -4.56402 0
M  V30 5165 H 493.62 -0.416855 -4.14308 0
M  V30 5166 H 496.217 2.27616 -4.83834 0
M  V30 5167 H 496.56 2.69054 -3.17672 0
M  V30 5168 H 497.093 1.11739 -3.81784 0
M  V30 5169 H 493.832 -0.106693 -6.55413 0
M  V30 5170 H 493.352 1.4416 -5.82218 0
M  V30 5171 H 495.031 1.18837 -6.35993 0
M  V30 5172 N 495.163 1.55791 0.238111 0
M  V30 5173 C 496.412 1.77234 0.962868 0
M  V30 5174 C 496.725 0.600661 1.86149 0
M  V30 5175 O 497.931 0.698315 2.62366 0
M  V30 5176 C 496.387 3.13808 1.76218 0
M  V30 5177 C 495.995 4.3865 0.910518 0
M  V30 5178 C 497.739 3.44585 2.47914 0
M  V30 5179 C 495.646 5.66252 1.70623 0
M  V30 5180 H 494.576 0.660731 0.36325 0
M  V30 5181 H 497.227 1.8221 0.217242 0
M  V30 5182 H 495.609 3.02963 2.55009 0
M  V30 5183 H 496.783 4.60507 0.164316 0
M  V30 5184 H 495.098 4.15271 0.30647 0
M  V30 5185 H 497.695 4.3714 3.07917 0
M  V30 5186 H 498.038 2.66314 3.19973 0
M  V30 5187 H 498.571 3.56685 1.76127 0
M  V30 5188 H 495.31 6.47369 1.02923 0
M  V30 5189 H 494.83 5.48483 2.42748 0
M  V30 5190 H 496.509 6.05829 2.27114 0
M  V30 5191 N 496.642 -0.504142 1.49319 0
M  V30 5192 C 497.87 -1.28256 1.62351 0
M  V30 5193 C 498.285 -1.86502 0.293682 0
M  V30 5194 O 497.642 -1.67678 -0.720449 0
M  V30 5195 C 497.693 -2.41507 2.68992 0
M  V30 5196 O 497.414 -1.85656 3.96817 0
M  V30 5197 C 498.915 -3.32929 2.927 0
M  V30 5198 H 496.135 -0.389115 0.546654 0
M  V30 5199 H 498.679 -0.605531 1.95329 0
M  V30 5200 H 496.834 -3.05046 2.38801 0
M  V30 5201 H 497.248 -2.59981 4.55533 0
M  V30 5202 H 498.722 -4.0868 3.71058 0
M  V30 5203 H 499.199 -3.89733 2.02496 0
M  V30 5204 H 499.805 -2.75158 3.24296 0
M  V30 5205 N 498.12 -1.38341 -0.754957 0
M  V30 5206 C 499.397 -1.24995 -1.50451 0
M  V30 5207 C 499.777 0.149244 -2.10572 0
M  V30 5208 O 499.125 1.15861 -1.96948 0
M  V30 5209 C 499.335 -2.35904 -2.57197 0
M  V30 5210 C 500.683 -2.74262 -3.24138 0
M  V30 5211 O 501.707 -2.35205 -2.67501 0
M  V30 5212 O 500.566 -3.4161 -4.26574 0
M  V30 5213 H 497.66 -0.48872 -0.667144 0
M  V30 5214 H 500.206 -1.50165 -0.790486 0
M  V30 5215 H 498.978 -3.2953 -2.11011 0
M  V30 5216 H 498.601 -2.12291 -3.36182 0
M  V30 5217 N 499.598 0.982988 -1.23187 0
M  V30 5218 C 500.545 2.07491 -1.01075 0
M  V30 5219 C 501.515 1.65949 0.070905 0
M  V30 5220 O 502.7 1.90629 -0.0806822 0
M  V30 5221 C 499.84 3.39751 -0.605261 0
M  V30 5222 C 498.953 3.94578 -1.75876 0
M  V30 5223 C 498.088 5.15039 -1.3003 0
M  V30 5224 C 497.127 5.62027 -2.42472 0
M  V30 5225 N 496.264 6.73719 -1.97602 0
M  V30 5226 H 501.104 2.25739 -1.9454 0
M  V30 5227 H 498.641 1.10659 -0.969179 0
M  V30 5228 H 500.599 4.15719 -0.351279 0
M  V30 5229 H 499.229 3.21473 0.292382 0
M  V30 5230 H 498.281 3.1539 -2.12681 0
M  V30 5231 H 499.593 4.25422 -2.60418 0
M  V30 5232 H 498.747 5.9833 -1.00429 0
M  V30 5233 H 497.486 4.85843 -0.425216 0
M  V30 5234 H 496.491 4.77318 -2.7285 0
M  V30 5235 H 497.716 5.93244 -3.30512 0
M  V30 5236 H 495.662 6.46287 -1.1247 0
M  V30 5237 H 495.579 7.03934 -2.75705 0
M  V30 5238 H 496.847 7.6049 -1.71098 0
M  V30 5239 N 501.076 1.04316 1.18135 0
M  V30 5240 C 502.026 0.606731 2.19779 0
M  V30 5241 C 503.01 -0.352144 1.56999 0
M  V30 5242 O 504.202 -0.170795 1.76174 0
M  V30 5243 C 501.331 -0.0262443 3.4329 0
M  V30 5244 C 500.417 0.955928 4.13186 0
M  V30 5245 N 500.808 2.12395 4.59045 0
M  V30 5246 C 499.106 0.782473 4.39082 0
M  V30 5247 C 499.807 2.74458 5.12882 0
M  V30 5248 N 498.783 2.02316 5.04548 0
M  V30 5249 H 502.585 1.49679 2.5293 0
M  V30 5250 H 500.099 0.912088 1.34368 0
M  V30 5251 H 502.096 -0.356617 4.15372 0
M  V30 5252 H 500.756 -0.911811 3.11635 0
M  V30 5253 H 501.767 2.50272 4.53414 0
M  V30 5254 H 498.444 -0.0527906 4.17467 0
M  V30 5255 H 499.834 3.73459 5.5855 0
M  V30 5256 N 502.554 -1.34406 0.822964 0
M  V30 5257 C 503.801 -1.98284 0.411057 0
M  V30 5258 C 504.129 -1.65245 -1.02588 0
M  V30 5259 O 503.384 -0.91619 -1.72929 0
M  V30 5260 C 503.683 -3.52981 0.560268 0
M  V30 5261 C 503.349 -4.05931 1.96293 0
M  V30 5262 C 502.011 -4.20103 2.34664 0
M  V30 5263 C 504.363 -4.34412 2.87985 0
M  V30 5264 C 501.691 -4.60082 3.64062 0
M  V30 5265 C 504.043 -4.75838 4.16847 0
M  V30 5266 C 502.707 -4.88215 4.55195 0
M  V30 5267 H 501.977 -0.725573 0.150416 0
M  V30 5268 H 504.624 -1.60349 1.04692 0
M  V30 5269 H 502.929 -3.91477 -0.158982 0
M  V30 5270 H 504.626 -4.00385 0.222087 0
M  V30 5271 H 501.216 -3.95363 1.65487 0
M  V30 5272 H 505.4 -4.23001 2.59584 0
M  V30 5273 H 500.656 -4.67856 3.93599 0
M  V30 5274 H 504.83 -4.96834 4.87984 0
M  V30 5275 H 502.457 -5.18952 5.55512 0
M  V30 5276 N 504.032 -0.577932 -1.46621 0
M  V30 5277 C 505.262 -0.0670668 -2.06491 0
M  V30 5278 C 505.67 1.24119 -1.42798 0
M  V30 5279 O 505.013 1.76016 -0.525759 0
M  V30 5280 C 505.075 0.177995 -3.59059 0
M  V30 5281 C 504.739 -1.04394 -4.44917 0
M  V30 5282 C 505.736 -1.95479 -4.81751 0
M  V30 5283 C 503.421 -1.26444 -4.86125 0
M  V30 5284 C 505.415 -3.06965 -5.58615 0
M  V30 5285 C 503.102 -2.38237 -5.62749 0
M  V30 5286 C 504.1 -3.28327 -5.98908 0
M  V30 5287 O 503.788 -4.38179 -6.73984 0
M  V30 5288 H 503.52 -0.0523159 -0.673973 0
M  V30 5289 H 506.074 -0.796966 -1.89308 0
M  V30 5290 H 504.304 0.962451 -3.74531 0
M  V30 5291 H 505.993 0.636782 -4.00874 0
M  V30 5292 H 506.759 -1.79657 -4.50498 0
M  V30 5293 H 502.638 -0.572316 -4.57434 0
M  V30 5294 H 506.182 -3.77309 -5.86757 0
M  V30 5295 H 502.079 -2.54023 -5.93416 0
M  V30 5296 H 502.847 -4.36486 -6.92403 0
M  V30 5297 N 505.51 1.54411 -0.315457 0
M  V30 5298 C 506.757 2.00419 0.289543 0
M  V30 5299 C 507.085 1.20373 1.52776 0
M  V30 5300 O 506.34 0.271769 1.93804 0
M  V30 5301 C 506.639 3.50936 0.676652 0
M  V30 5302 C 506.305 4.48532 -0.461472 0
M  V30 5303 C 504.967 4.74936 -0.773879 0
M  V30 5304 C 507.319 5.06567 -1.22637 0
M  V30 5305 C 504.647 5.56634 -1.85405 0
M  V30 5306 C 506.999 5.89441 -2.29657 0
M  V30 5307 C 505.663 6.1415 -2.61488 0
M  V30 5308 H 504.933 0.733386 0.105951 0
M  V30 5309 H 507.58 1.86434 -0.437554 0
M  V30 5310 H 505.885 3.62606 1.48405 0
M  V30 5311 H 507.582 3.83971 1.15618 0
M  V30 5312 H 504.172 4.28096 -0.207893 0
M  V30 5313 H 508.356 4.86157 -0.998271 0
M  V30 5314 H 503.612 5.74012 -2.10523 0
M  V30 5315 H 507.786 6.33432 -2.89374 0
M  V30 5316 H 505.413 6.77245 -3.45317 0
M  V30 5317 N 506.988 0.0434614 1.5754 0
M  V30 5318 C 507.936 -0.951465 2.1225 0
M  V30 5319 C 508.93 -1.3274 1.05245 0
M  V30 5320 O 510.136 -1.30795 1.23663 0
M  V30 5321 H 506.511 -0.324667 0.678303 0
M  V30 5322 H 508.482 -0.464855 2.94757 0
M  V30 5323 C 507.231 -2.21972 2.67626 0
M  V30 5324 H 506.554 -1.93923 3.4962 0
M  V30 5325 H 507.994 -2.89765 3.09536 0
M  V30 5326 C 506.453 -2.95919 1.61038 0
M  V30 5327 O 506.983 -3.8857 1.01862 0
M  V30 5328 N 505.189 -2.58511 1.32741 0
M  V30 5329 H 504.736 -1.83244 1.81051 0
M  V30 5330 H 504.694 -3.08296 0.616531 0
M  V30 5331 N 508.466 -1.55915 -0.229846 0
M  V30 5332 C 509.413 -1.91734 -1.28478 0
M  V30 5333 C 510.383 -0.773539 -1.46988 0
M  V30 5334 O 511.568 -1.02871 -1.60693 0
M  V30 5335 C 508.708 -2.23224 -2.63182 0
M  V30 5336 C 507.821 -3.50497 -2.52539 0
M  V30 5337 C 506.956 -3.71474 -3.79711 0
M  V30 5338 C 505.995 -4.92289 -3.63755 0
M  V30 5339 N 505.132 -5.09698 -4.82858 0
M  V30 5340 H 509.972 -2.81692 -0.972308 0
M  V30 5341 H 507.509 -1.39429 -0.468815 0
M  V30 5342 H 509.467 -2.3949 -3.41614 0
M  V30 5343 H 508.097 -1.36451 -2.92542 0
M  V30 5344 H 507.149 -3.4247 -1.65585 0
M  V30 5345 H 508.461 -4.39079 -2.36666 0
M  V30 5346 H 507.615 -3.87791 -4.66586 0
M  V30 5347 H 506.354 -2.81157 -3.985 0
M  V30 5348 H 505.359 -4.7593 -2.75264 0
M  V30 5349 H 506.584 -5.84083 -3.46445 0
M  V30 5350 H 504.53 -4.22322 -5.01976 0
M  V30 5351 H 504.447 -5.92399 -4.69681 0
M  V30 5352 H 505.715 -5.30443 -5.71183 0
M  V30 5353 N 509.944 0.496216 -1.49584 0
M  V30 5354 C 511.172 1.27394 -1.63029 0
M  V30 5355 C 511.587 1.86344 -0.303569 0
M  V30 5356 O 510.944 1.68057 0.711547 0
M  V30 5357 C 510.995 2.40077 -2.70269 0
M  V30 5358 O 510.716 1.83549 -3.97796 0
M  V30 5359 C 512.217 3.31372 -2.94462 0
M  V30 5360 H 509.437 0.386211 -0.54871 0
M  V30 5361 H 511.981 0.595163 -1.95648 0
M  V30 5362 H 510.136 3.03775 -2.40415 0
M  V30 5363 H 510.55 2.57561 -4.56905 0
M  V30 5364 H 512.024 4.06707 -3.73221 0
M  V30 5365 H 512.501 3.88654 -2.0456 0
M  V30 5366 H 513.107 2.73435 -3.25751 0
M  V30 5367 N 511.423 1.38739 0.74761 0
M  V30 5368 C 512.37 1.36449 1.86146 0
M  V30 5369 C 513.34 0.226098 1.64554 0
M  V30 5370 O 514.525 0.41926 1.86137 0
M  V30 5371 C 511.665 1.2013 3.23516 0
M  V30 5372 C 510.778 2.43407 3.56899 0
M  V30 5373 C 509.913 2.19773 4.83605 0
M  V30 5374 C 508.952 3.3879 5.09792 0
M  V30 5375 N 508.089 3.14553 6.27695 0
M  V30 5376 H 512.929 2.3167 1.87438 0
M  V30 5377 H 510.466 1.15094 0.916063 0
M  V30 5378 H 512.424 1.08683 4.02795 0
M  V30 5379 H 511.054 0.285453 3.21535 0
M  V30 5380 H 510.106 2.65504 2.72418 0
M  V30 5381 H 511.418 3.32094 3.72176 0
M  V30 5382 H 510.572 2.05496 5.70838 0
M  V30 5383 H 509.311 1.28461 4.70478 0
M  V30 5384 H 508.316 3.53579 4.21025 0
M  V30 5385 H 509.541 4.30986 5.24812 0
M  V30 5386 H 507.487 2.25893 6.1588 0
M  V30 5387 H 507.404 3.96791 6.435 0
M  V30 5388 H 508.672 3.03943 7.17801 0
M  V30 5389 N 512.901 -0.976442 1.23707 0
M  V30 5390 C 514.149 -1.71487 1.06942 0
M  V30 5391 C 514.47 -1.9098 -0.393897 0
M  V30 5392 O 513.74 -1.48128 -1.28198 0
M  V30 5393 H 512.32 -0.635425 0.392739 0
M  V30 5394 H 514.982 -1.17515 1.55487 0
M  V30 5395 H 514.078 -2.70286 1.56051 0
M  V30 5396 N 514.379 -1.04941 -1.1758 0
M  V30 5397 C 515.626 -0.757989 -1.87779 0
M  V30 5398 C 515.954 0.714827 -1.80888 0
M  V30 5399 O 515.209 1.53824 -1.20982 0
M  V30 5400 C 515.508 -1.18062 -3.37337 0
M  V30 5401 C 515.174 -2.65521 -3.6443 0
M  V30 5402 C 513.836 -3.05804 -3.71534 0
M  V30 5403 C 516.188 -3.60822 -3.76108 0
M  V30 5404 C 513.516 -4.40256 -3.87803 0
M  V30 5405 C 515.868 -4.95005 -3.93895 0
M  V30 5406 C 514.532 -5.34945 -3.99237 0
M  V30 5407 H 513.802 -0.277368 -0.68713 0
M  V30 5408 H 516.449 -1.31603 -1.39115 0
M  V30 5409 H 514.754 -0.541525 -3.8804 0
M  V30 5410 H 516.451 -0.932368 -3.9001 0
M  V30 5411 H 513.041 -2.33324 -3.59524 0
M  V30 5412 H 517.225 -3.30841 -3.69943 0
M  V30 5413 H 512.481 -4.70707 -3.90186 0
M  V30 5414 H 516.655 -5.68746 -4.01872 0
M  V30 5415 H 514.282 -6.39135 -4.11596 0
M  V30 5416 N 515.857 1.33968 -0.830081 0
M  V30 5417 C 517.268 1.80439 -0.479455 0
M  V30 5418 C 517.619 1.68756 1.00079 0
M  V30 5419 O 516.744 1.23171 1.77927 0
M  V30 5420 C 517.339 3.27611 -0.863505 0
M  V30 5421 C 515.898 3.72133 -0.565145 0
M  V30 5422 C 515.045 2.55549 -1.07657 0
M  V30 5423 H 517.996 1.21614 -1.0196 0
M  V30 5424 H 518.017 3.8012 -0.170083 0
M  V30 5425 H 517.529 3.36082 -1.94089 0
M  V30 5426 H 515.63 3.69196 0.502536 0
M  V30 5427 H 515.743 4.65963 -1.11422 0
M  V30 5428 H 514.107 2.49788 -0.497807 0
M  V30 5429 H 514.89 2.66786 -2.16055 0
M  V30 5430 N 517.335 0.585699 1.46312 0
M  V30 5431 C 518.575 0.0751432 2.04262 0
M  V30 5432 C 518.939 -1.26201 1.44697 0
M  V30 5433 O 520.14 -1.86198 1.93865 0
M  V30 5434 C 518.411 0.013478 3.57397 0
M  V30 5435 S 519.97 -0.439068 4.36598 0
M  V30 5436 H 516.788 0.0389228 0.709934 0
M  V30 5437 H 519.39 0.778871 1.79315 0
M  V30 5438 H 518.094 0.990558 3.98266 0
M  V30 5439 H 517.625 -0.712927 3.86886 0
M  V30 5440 H 519.64 -1.6932 4.66417 0
M  V30 5441 N 518.813 -1.54241 0.323641 0
M  V30 5442 C 519.743 -2.27289 -0.534993 0
M  V30 5443 C 520.724 -1.28087 -1.11927 0
M  V30 5444 O 521.909 -1.56899 -1.14439 0
M  V30 5445 C 519.039 -3.03075 -1.69596 0
M  V30 5446 C 517.993 -4.09614 -1.24098 0
M  V30 5447 C 517.319 -4.73242 -2.4889 0
M  V30 5448 C 518.619 -5.21087 -0.355789 0
M  V30 5449 H 520.313 -2.99308 0.0743257 0
M  V30 5450 H 517.859 -1.43952 0.0371874 0
M  V30 5451 H 519.812 -3.52907 -2.30293 0
M  V30 5452 H 518.536 -2.28673 -2.33187 0
M  V30 5453 H 517.195 -3.60666 -0.656945 0
M  V30 5454 H 516.843 -3.95455 -3.10845 0
M  V30 5455 H 516.543 -5.45209 -2.19138 0
M  V30 5456 H 518.067 -5.25848 -3.10348 0
M  V30 5457 H 519.481 -5.66675 -0.869042 0
M  V30 5458 H 517.878 -5.9991 -0.151045 0
M  V30 5459 H 518.948 -4.81005 0.613339 0
M  V30 5460 N 520.291 -0.0518155 -1.57515 0
M  V30 5461 C 521.238 0.922352 -2.11569 0
M  V30 5462 C 522.208 1.30842 -1.02321 0
M  V30 5463 O 523.393 1.39778 -1.29872 0
M  V30 5464 C 520.533 2.19167 -2.6657 0
M  V30 5465 C 519.646 1.86003 -3.89906 0
M  V30 5466 C 518.781 3.07398 -4.33221 0
M  V30 5467 C 517.82 2.70158 -5.49255 0
M  V30 5468 N 516.957 3.84248 -5.8762 0
M  V30 5469 H 521.797 0.454506 -2.94514 0
M  V30 5470 H 519.334 0.212718 -1.45554 0
M  V30 5471 H 521.292 2.93443 -2.96559 0
M  V30 5472 H 519.922 2.63528 -1.86421 0
M  V30 5473 H 518.974 1.01874 -3.66505 0
M  V30 5474 H 520.286 1.54592 -4.74239 0
M  V30 5475 H 519.44 3.89972 -4.64765 0
M  V30 5476 H 518.179 3.41988 -3.477 0
M  V30 5477 H 517.184 1.86001 -5.17382 0
M  V30 5478 H 518.409 2.36759 -6.36492 0
M  V30 5479 H 516.355 4.18638 -5.05053 0
M  V30 5480 H 516.272 3.56538 -6.66646 0
M  V30 5481 H 517.54 4.6746 -6.2378 0
M  V30 5482 N 521.769 1.56035 0.221574 0
M  V30 5483 C 522.716 1.92413 1.27459 0
M  V30 5484 C 523.686 0.781323 1.46576 0
M  V30 5485 O 524.871 1.03721 1.60145 0
M  V30 5486 C 522.011 2.24617 2.61995 0
M  V30 5487 C 521.124 3.51831 2.50677 0
M  V30 5488 C 520.259 3.73482 3.77736 0
M  V30 5489 C 519.298 4.94211 3.6114 0
M  V30 5490 N 518.435 5.12252 4.80148 0
M  V30 5491 H 523.275 2.82203 0.957355 0
M  V30 5492 H 520.812 1.39676 0.461415 0
M  V30 5493 H 522.77 2.41298 3.40339 0
M  V30 5494 H 521.4 1.38 2.91815 0
M  V30 5495 H 520.452 3.43343 1.63767 0
M  V30 5496 H 521.764 4.40328 2.34334 0
M  V30 5497 H 520.918 3.9026 4.64523 0
M  V30 5498 H 519.657 2.83266 3.97003 0
M  V30 5499 H 518.662 4.77384 2.72736 0
M  V30 5500 H 519.887 5.85912 3.43343 0
M  V30 5501 H 517.833 4.24978 4.99729 0
M  V30 5502 H 517.75 5.94881 4.66532 0
M  V30 5503 H 519.018 5.33465 5.68362 0
M  V30 5504 N 523.247 -0.488276 1.49845 0
M  V30 5505 C 524.21 -1.57069 1.66919 0
M  V30 5506 C 525.21 -1.51445 0.540479 0
M  V30 5507 O 526.4 -1.5437 0.807188 0
M  V30 5508 C 523.532 -2.96718 1.67844 0
M  V30 5509 H 524.725 -1.43254 2.63474 0
M  V30 5510 H 522.278 -0.713435 1.39068 0
M  V30 5511 H 523.013 -3.15996 0.7292 0
M  V30 5512 H 522.798 -3.02208 2.49826 0
M  V30 5513 H 524.288 -3.75335 1.83066 0
M  V30 5514 N 524.725 -1.39134 -0.740242 0
M  V30 5515 C 525.635 -1.39697 -1.88473 0
M  V30 5516 C 526.651 -0.292403 -1.71526 0
M  V30 5517 O 527.827 -0.533021 -1.94219 0
M  V30 5518 C 524.892 -1.23382 -3.24003 0
M  V30 5519 C 523.953 -2.43763 -3.53381 0
M  V30 5520 C 523.186 -2.28216 -4.82445 0
M  V30 5521 O 523.409 -1.28288 -5.55786 0
M  V30 5522 O 522.343 -3.1709 -5.11603 0
M  V30 5523 H 526.169 -2.36159 -1.90952 0
M  V30 5524 H 523.754 -1.20194 -0.887346 0
M  V30 5525 H 525.636 -1.16395 -4.05006 0
M  V30 5526 H 524.311 -0.300121 -3.22306 0
M  V30 5527 H 523.218 -2.56325 -2.72485 0
M  V30 5528 H 524.551 -3.35808 -3.59852 0
M  V30 5529 N 526.204 0.969867 -1.24223 0
M  V30 5530 C 527.452 1.70918 -1.0785 0
M  V30 5531 C 527.773 1.91186 0.383763 0
M  V30 5532 O 527.043 1.48806 1.27411 0
M  V30 5533 H 525.623 0.633334 -0.396103 0
M  V30 5534 H 528.285 1.16689 -1.56108 0
M  V30 5535 H 527.381 2.69455 -1.57482 0
M  V30 5536 N 527.682 1.05563 1.17022 0
M  V30 5537 C 528.907 0.788437 1.91829 0
M  V30 5538 C 529.332 -0.650356 1.76499 0
M  V30 5539 O 528.69 -1.45229 1.08527 0
M  V30 5540 C 528.738 1.1786 3.40795 0
M  V30 5541 O 527.842 0.312965 4.11211 0
M  V30 5542 H 527.183 0.288794 0.597908 0
M  V30 5543 H 529.713 1.40948 1.48307 0
M  V30 5544 H 529.723 1.14697 3.91546 0
M  V30 5545 H 528.398 2.22666 3.51273 0
M  V30 5546 H 526.975 0.405515 3.70689 0
M  V30 5547 N 529.16 -1.33526 0.837174 0
M  V30 5548 C 530.385 -2.0258 0.444545 0
M  V30 5549 C 530.81 -1.6258 -0.946006 0
M  V30 5550 O 530.168 -0.817548 -1.6182 0
M  V30 5551 C 530.216 -3.5605 0.571006 0
M  V30 5552 O 529.32 -4.10422 -0.403431 0
M  V30 5553 H 528.661 -0.638866 0.180958 0
M  V30 5554 H 531.191 -1.70462 1.13154 0
M  V30 5555 H 531.201 -4.05488 0.452024 0
M  V30 5556 H 529.876 -3.84509 1.58512 0
M  V30 5557 H 528.453 -3.72113 -0.242147 0
M  V30 5558 N 530.638 -0.59345 -1.46 0
M  V30 5559 C 532.054 -0.255965 -1.57534 0
M  V30 5560 C 532.254 1.24167 -1.58697 0
M  V30 5561 O 531.31 2.02398 -1.50968 0
M  V30 5562 C 532.623 -0.91466 -2.86451 0
M  V30 5563 C 534.171 -0.889253 -3.00102 0
M  V30 5564 C 534.646 -1.52769 -4.3177 0
M  V30 5565 N 536.137 -1.49253 -4.38495 0
M  V30 5566 C 536.872 -1.9558 -5.39014 0
M  V30 5567 N 536.368 -2.49929 -6.46148 0
M  V30 5568 N 538.161 -1.86432 -5.30282 0
M  V30 5569 H 530.312 -1.56604 -1.43489 0
M  V30 5570 H 532.575 -0.655207 -0.685133 0
M  V30 5571 H 532.281 -1.96861 -2.91442 0
M  V30 5572 H 532.155 -0.429356 -3.74748 0
M  V30 5573 H 534.542 0.156111 -2.94687 0
M  V30 5574 H 534.623 -1.41268 -2.13253 0
M  V30 5575 H 534.267 -2.57231 -4.37944 0
M  V30 5576 H 534.197 -0.979398 -5.17412 0
M  V30 5577 H 536.688 -1.09536 -3.61677 0
M  V30 5578 H 537.001 -2.83109 -7.19075 0
M  V30 5579 H 535.346 -2.53961 -6.46938 0
M  V30 5580 H 538.537 -1.43722 -4.4549 0
M  V30 5581 H 538.71 -2.22852 -6.08474 0
M  V30 5582 N 532.116 1.54067 -0.331816 0
M  V30 5583 C 533.527 1.86059 0.15454 0
M  V30 5584 C 533.878 1.25331 1.50952 0
M  V30 5585 O 533.003 0.562441 2.08963 0
M  V30 5586 C 533.598 3.37581 0.287192 0
M  V30 5587 C 532.157 3.69493 0.717773 0
M  V30 5588 C 531.304 2.76863 -0.155569 0
M  V30 5589 H 534.255 1.48797 -0.55182 0
M  V30 5590 H 534.276 3.63744 1.11671 0
M  V30 5591 H 533.788 3.81751 -0.699131 0
M  V30 5592 H 531.889 3.3086 1.71354 0
M  V30 5593 H 532.002 4.76315 0.5158 0
M  V30 5594 H 530.366 2.51995 0.370213 0
M  V30 5595 H 531.149 3.23861 -1.13881 0
M  V30 5596 N 533.594 0.0601682 1.57485 0
M  V30 5597 C 534.544 -0.920969 2.08572 0
M  V30 5598 C 535.528 -1.26617 0.992827 0
M  V30 5599 O 536.72 -1.24708 1.25606 0
M  V30 5600 C 533.849 -2.19267 2.64153 0
M  V30 5601 C 532.935 -1.87447 3.80427 0
M  V30 5602 N 533.326 -1.26025 4.89848 0
M  V30 5603 C 531.624 -2.17265 3.89502 0
M  V30 5604 C 532.325 -1.12036 5.70809 0
M  V30 5605 N 531.301 -1.62624 5.18705 0
M  V30 5606 H 535.103 -0.441561 2.90564 0
M  V30 5607 H 532.617 -0.144043 1.6176 0
M  V30 5608 H 534.614 -2.90462 2.99061 0
M  V30 5609 H 533.274 -2.67806 1.83603 0
M  V30 5610 H 534.285 -0.931336 5.09457 0
M  V30 5611 H 530.962 -2.68262 3.19909 0
M  V30 5612 H 532.352 -0.642783 6.68818 0
M  V30 5613 N 535.072 -1.5615 -0.213296 0
M  V30 5614 C 536.312 -1.81325 -0.943435 0
M  V30 5615 C 536.676 -0.634934 -1.81198 0
M  V30 5616 O 537.877 -0.766166 -2.5765 0
M  V30 5617 C 536.148 -3.11437 -1.75334 0
M  V30 5618 S 537.707 -3.57955 -2.53799 0
M  V30 5619 H 534.525 -0.636538 -0.316766 0
M  V30 5620 H 537.127 -1.94387 -0.208313 0
M  V30 5621 H 535.831 -3.95228 -1.10556 0
M  V30 5622 H 535.362 -3.01204 -2.53061 0
M  V30 5623 H 537.377 -3.21947 -3.77577 0
M  V30 5624 N 536.55 0.480323 -1.50102 0
M  V30 5625 C 537.48 1.58769 -1.71215 0
M  V30 5626 C 538.461 1.60583 -0.560997 0
M  V30 5627 O 539.646 1.76996 -0.799127 0
M  V30 5628 C 536.776 2.97148 -1.79778 0
M  V30 5629 C 535.73 3.10201 -2.94888 0
M  V30 5630 C 535.056 4.50137 -2.88584 0
M  V30 5631 C 536.356 2.88283 -4.35534 0
M  V30 5632 H 538.05 1.41354 -2.6393 0
M  V30 5633 H 535.596 0.678591 -1.27008 0
M  V30 5634 H 537.549 3.74536 -1.93133 0
M  V30 5635 H 536.273 3.15699 -0.836772 0
M  V30 5636 H 534.932 2.35244 -2.81169 0
M  V30 5637 H 534.58 4.65593 -1.90349 0
M  V30 5638 H 534.28 4.59808 -3.65856 0
M  V30 5639 H 535.804 5.29558 -3.03976 0
M  V30 5640 H 537.218 3.55427 -4.49827 0
M  V30 5641 H 535.615 3.09408 -5.14186 0
M  V30 5642 H 536.685 1.84219 -4.48544 0
M  V30 5643 N 538.028 1.39524 0.732853 0
M  V30 5644 C 539.276 1.36594 1.48951 0
M  V30 5645 C 539.597 -0.0367507 1.94965 0
M  V30 5646 O 538.867 -0.988391 1.69138 0
M  V30 5647 H 537.447 0.502673 0.552566 0
M  V30 5648 H 540.109 1.74411 0.869869 0
M  V30 5649 H 539.205 2.03 2.3706 0
M  V30 5650 N 539.506 -0.963266 1.24736 0
M  V30 5651 C 540.453 -2.05857 1.04363 0
M  V30 5652 C 541.423 -1.6604 -0.0444951 0
M  V30 5653 O 542.608 -1.90477 0.110999 0
M  V30 5654 C 539.748 -3.38745 0.659235 0
M  V30 5655 C 538.861 -3.9173 1.82131 0
M  V30 5656 C 537.996 -5.12906 1.38208 0
M  V30 5657 C 537.035 -5.58098 2.51382 0
M  V30 5658 N 536.172 -6.7049 2.08295 0
M  V30 5659 H 541.012 -2.22616 1.98107 0
M  V30 5660 H 538.549 -1.09103 0.986661 0
M  V30 5661 H 540.507 -4.15107 0.417371 0
M  V30 5662 H 539.137 -3.21898 -0.241201 0
M  V30 5663 H 538.189 -3.11966 2.17672 0
M  V30 5664 H 539.501 -4.21225 2.67153 0
M  V30 5665 H 538.655 -5.96657 1.09935 0
M  V30 5666 H 537.394 -4.85105 0.502456 0
M  V30 5667 H 536.399 -4.72917 2.80409 0
M  V30 5668 H 537.624 -5.87911 3.39909 0
M  V30 5669 H 535.57 -6.44416 1.22737 0
M  V30 5670 H 535.487 -6.99458 2.86869 0
M  V30 5671 H 536.755 -7.57672 1.83175 0
M  V30 5672 N 540.985 -1.06182 -1.16461 0
M  V30 5673 C 542.213 -0.798583 -1.90867 0
M  V30 5674 C 542.628 0.646921 -1.77371 0
M  V30 5675 O 541.985 1.44279 -1.11758 0
M  V30 5676 C 542.036 -1.18258 -3.4161 0
M  V30 5677 O 541.757 -2.57135 -3.54701 0
M  V30 5678 C 543.258 -0.946917 -4.33069 0
M  V30 5679 H 540.478 -0.289603 -0.605286 0
M  V30 5680 H 543.022 -1.41515 -1.47627 0
M  V30 5681 H 541.177 -0.610562 -3.82558 0
M  V30 5682 H 541.591 -2.72477 -4.4817 0
M  V30 5683 H 543.065 -1.26523 -5.37304 0
M  V30 5684 H 543.542 0.117406 -4.39043 0
M  V30 5685 H 544.148 -1.50326 -3.97847 0
M  V30 5686 N 542.463 1.3308 -0.844243 0
M  V30 5687 C 543.41 2.29104 -0.279323 0
M  V30 5688 C 544.38 1.54577 0.607882 0
M  V30 5689 O 545.565 1.8285 0.545009 0
M  V30 5690 C 542.705 3.40927 0.53508 0
M  V30 5691 C 541.818 4.30354 -0.376749 0
M  V30 5692 C 540.953 5.29297 0.449276 0
M  V30 5693 C 539.992 6.10365 -0.460606 0
M  V30 5694 N 539.129 7.01335 0.327612 0
M  V30 5695 H 543.969 2.76817 -1.10346 0
M  V30 5696 H 541.506 1.36203 -0.555611 0
M  V30 5697 H 543.464 4.04469 1.02278 0
M  V30 5698 H 542.094 2.94391 1.32414 0
M  V30 5699 H 541.146 3.67485 -0.982791 0
M  V30 5700 H 542.458 4.87067 -1.07549 0
M  V30 5701 H 541.612 5.98392 1.00058 0
M  V30 5702 H 540.351 4.73174 1.18143 0
M  V30 5703 H 539.356 5.40182 -1.02388 0
M  V30 5704 H 540.581 6.68571 -1.1912 0
M  V30 5705 H 538.527 6.47655 1.04305 0
M  V30 5706 H 538.444 7.55355 -0.3123 0
M  V30 5707 H 539.712 7.74731 0.86098 0
M  V30 5708 N 543.941 0.601185 1.45683 0
M  V30 5709 C 545.189 0.0936957 2.01883 0
M  V30 5710 C 545.51 -1.2779 1.47291 0
M  V30 5711 O 544.78 -1.84279 0.664691 0
M  V30 5712 H 543.36 0.0316466 0.746329 0
M  V30 5713 H 546.022 0.781137 1.78562 0
M  V30 5714 H 545.118 0.0386297 3.12076 0
M  V30 5715 N 545.419 -1.53889 0.339982 0
M  V30 5716 C 546.835 -1.59595 -0.0120752 0
M  V30 5717 C 547.035 -1.35605 -1.49042 0
M  V30 5718 O 546.091 -1.14856 -2.24865 0
M  V30 5719 C 547.404 -2.9774 0.420898 0
M  V30 5720 C 548.952 -3.1077 0.37294 0
M  V30 5721 C 549.427 -4.51286 0.781327 0
M  V30 5722 N 550.918 -4.57325 0.735374 0
M  V30 5723 C 551.653 -5.64194 1.02336 0
M  V30 5724 N 551.149 -6.7893 1.37933 0
M  V30 5725 N 552.942 -5.54051 0.947838 0
M  V30 5726 H 545.093 -1.67738 1.30299 0
M  V30 5727 H 547.356 -0.785385 0.530918 0
M  V30 5728 H 547.062 -3.20349 1.45152 0
M  V30 5729 H 546.936 -3.76639 -0.205721 0
M  V30 5730 H 549.323 -2.87886 -0.648505 0
M  V30 5731 H 549.404 -2.33939 1.03472 0
M  V30 5732 H 549.048 -4.74905 1.80077 0
M  V30 5733 H 548.978 -5.26511 0.0970679 0
M  V30 5734 H 551.469 -3.74931 0.472773 0
M  V30 5735 H 551.782 -7.56392 1.58402 0
M  V30 5736 H 550.127 -6.80386 1.41774 0
M  V30 5737 H 553.318 -4.63293 0.669115 0
M  V30 5738 H 553.491 -6.37246 1.17563 0
M  V30 5739 N 546.897 -0.0685191 -1.57451 0
M  V30 5740 C 548.125 0.610462 -1.97689 0
M  V30 5741 C 548.54 1.63346 -0.946758 0
M  V30 5742 O 547.897 1.82377 0.0669868 0
M  V30 5743 C 547.948 1.28196 -3.38006 0
M  V30 5744 O 547.669 0.299906 -4.37072 0
M  V30 5745 C 549.17 2.04907 -3.931 0
M  V30 5746 H 546.39 0.165689 -0.650222 0
M  V30 5747 H 548.934 -0.139953 -2.04021 0
M  V30 5748 H 547.089 1.98348 -3.32771 0
M  V30 5749 H 547.503 0.78126 -5.18649 0
M  V30 5750 H 548.977 2.47287 -4.93511 0
M  V30 5751 H 549.454 2.9043 -3.29465 0
M  V30 5752 H 550.06 1.39629 -4.01726 0
M  V30 5753 N 548.375 1.56261 0.205012 0
M  V30 5754 C 549.325 1.90155 1.25798 0
M  V30 5755 C 550.309 0.766227 1.41484 0
M  V30 5756 O 551.501 1.02893 1.44021 0
M  V30 5757 C 548.63 2.23603 2.60493 0
M  V30 5758 C 547.716 3.43568 2.48639 0
M  V30 5759 N 548.107 4.61747 2.06455 0
M  V30 5760 C 546.405 3.4751 2.79558 0
M  V30 5761 C 547.106 5.43907 2.06253 0
M  V30 5762 N 546.082 4.84051 2.47377 0
M  V30 5763 H 549.884 2.79031 0.922986 0
M  V30 5764 H 547.398 1.57048 0.413501 0
M  V30 5765 H 549.395 2.46067 3.36537 0
M  V30 5766 H 548.055 1.36049 2.94823 0
M  V30 5767 H 549.066 4.86598 1.77321 0
M  V30 5768 H 545.743 2.70345 3.18151 0
M  V30 5769 H 547.133 6.48542 1.75622 0
M  V30 5770 N 549.853 -0.472356 1.50355 0
M  V30 5771 C 551.264 -1.05326 1.54154 0
M  V30 5772 C 551.615 -1.93155 0.344303 0
M  V30 5773 O 550.74 -2.09479 -0.542928 0
M  V30 5774 C 551.335 -1.91691 2.79356 0
M  V30 5775 C 549.894 -2.44892 2.8584 0
M  V30 5776 C 549.041 -1.23205 2.48426 0
M  V30 5777 H 551.992 -0.255027 1.56637 0
M  V30 5778 H 552.013 -2.76742 2.6114 0
M  V30 5779 H 551.525 -1.27741 3.66475 0
M  V30 5780 H 549.626 -3.12399 2.0307 0
M  V30 5781 H 549.739 -2.80086 3.88701 0
M  V30 5782 H 548.103 -1.56643 2.00836 0
M  V30 5783 H 548.886 -0.609194 3.37852 0
M  V30 5784 N 551.331 -1.39911 -0.725443 0
M  V30 5785 C 552.241 -1.41688 -1.8698 0
M  V30 5786 C 553.257 -0.310579 -1.71206 0
M  V30 5787 O 554.433 -0.55359 -1.93642 0
M  V30 5788 C 551.498 -1.26811 -3.22676 0
M  V30 5789 C 550.559 -2.47497 -3.50776 0
M  V30 5790 C 549.792 -2.3332 -4.79997 0
M  V30 5791 O 550.015 -1.34175 -5.54394 0
M  V30 5792 O 548.949 -3.22498 -5.08211 0
M  V30 5793 H 552.775 -2.38171 -1.88436 0
M  V30 5794 H 550.36 -1.21128 -0.874548 0
M  V30 5795 H 552.242 -1.20684 -4.03749 0
M  V30 5796 H 550.917 -0.334289 -3.21969 0
M  V30 5797 H 549.824 -2.59201 -2.69751 0
M  V30 5798 H 551.157 -3.39606 -3.5627 0
M  V30 5799 N 552.809 0.956637 -1.25245 0
M  V30 5800 C 554.058 1.69537 -1.0927 0
M  V30 5801 C 554.371 1.92136 0.366503 0
M  V30 5802 O 555.577 2.63687 0.64665 0
M  V30 5803 C 554.033 3.05211 -1.9072 0
M  V30 5804 C 553.641 2.90416 -3.41119 0
M  V30 5805 C 555.385 3.82882 -1.83308 0
M  V30 5806 C 553.292 4.21468 -4.14872 0
M  V30 5807 H 552.222 0.635804 -0.405302 0
M  V30 5808 H 554.873 1.06513 -1.49423 0
M  V30 5809 H 553.255 3.69128 -1.43389 0
M  V30 5810 H 554.429 2.35444 -3.9611 0
M  V30 5811 H 552.744 2.26203 -3.49602 0
M  V30 5812 H 555.341 4.79944 -2.35706 0
M  V30 5813 H 555.684 4.0853 -0.800572 0
M  V30 5814 H 556.217 3.25711 -2.28379 0
M  V30 5815 H 552.956 4.01009 -5.18529 0
M  V30 5816 H 552.476 4.76213 -3.64665 0
M  V30 5817 H 554.155 4.90022 -4.22478 0
M  V30 5818 N 554.287 1.06798 1.15896 0
M  V30 5819 C 555.564 0.701057 1.82605 0
M  V30 5820 C 555.944 -0.817066 1.94646 0
M  V30 5821 O 555.292 -1.72933 1.49353 0
M  V30 5822 C 555.502 1.40895 3.19296 0
M  V30 5823 C 556.85 1.55744 3.95005 0
M  V30 5824 O 557.874 1.36927 3.28831 0
M  V30 5825 O 556.733 1.86658 5.13635 0
M  V30 5826 H 553.827 0.248791 0.78869 0
M  V30 5827 H 556.373 1.16857 1.23055 0
M  V30 5828 H 555.145 2.4439 3.05596 0
M  V30 5829 H 554.768 0.931847 3.86526 0
M  V30 5830 N 555.766 -1.3263 0.851289 0
M  V30 5831 C 557.182 -1.50162 0.5407 0
M  V30 5832 C 557.382 -1.78788 -0.929369 0
M  V30 5833 O 556.438 -1.85545 -1.71258 0
M  V30 5834 C 557.751 -2.64803 1.42478 0
M  V30 5835 C 559.299 -2.78688 1.42485 0
M  V30 5836 C 559.774 -3.96405 2.29407 0
M  V30 5837 N 561.265 -4.0366 2.27184 0
M  V30 5838 C 562 -4.93971 2.9117 0
M  V30 5839 N 561.496 -5.89313 3.64256 0
M  V30 5840 N 563.289 -4.87066 2.80576 0
M  V30 5841 H 555.44 -1.12315 1.80275 0
M  V30 5842 H 557.703 -0.553266 0.769806 0
M  V30 5843 H 557.409 -2.50368 2.46999 0
M  V30 5844 H 557.283 -3.60506 1.10974 0
M  V30 5845 H 559.67 -2.92547 0.387304 0
M  V30 5846 H 559.751 -1.83708 1.78002 0
M  V30 5847 H 559.395 -3.83304 3.33228 0
M  V30 5848 H 559.325 -4.90654 1.91224 0
M  V30 5849 H 561.816 -3.35435 1.74045 0
M  V30 5850 H 562.129 -6.54913 4.10255 0
M  V30 5851 H 560.474 -5.8935 3.68364 0
M  V30 5852 H 563.665 -4.11552 2.23031 0
M  V30 5853 H 563.838 -5.57248 3.30725 0
M  V30 5854 N 557.244 -0.608902 -1.45362 0
M  V30 5855 C 558.154 0.110969 -2.34337 0
M  V30 5856 C 559.17 0.859007 -1.51318 0
M  V30 5857 O 560.346 0.816296 -1.84116 0
M  V30 5858 C 557.411 1.09494 -3.28956 0
M  V30 5859 C 556.472 0.348718 -4.27881 0
M  V30 5860 C 555.705 1.28582 -5.17979 0
M  V30 5861 O 555.928 2.52369 -5.11533 0
M  V30 5862 O 554.862 0.782172 -5.96796 0
M  V30 5863 H 558.688 -0.620258 -2.97299 0
M  V30 5864 H 556.273 -0.36916 -1.44767 0
M  V30 5865 H 558.155 1.66163 -3.87257 0
M  V30 5866 H 556.83 1.80717 -2.68557 0
M  V30 5867 H 555.737 -0.260465 -3.73192 0
M  V30 5868 H 557.07 -0.323049 -4.91139 0
M  V30 5869 N 558.722 1.53707 -0.348139 0
M  V30 5870 C 559.968 2.01286 0.247332 0
M  V30 5871 C 560.301 1.23546 1.49834 0
M  V30 5872 O 559.576 0.324331 1.91777 0
M  V30 5873 C 559.859 3.55768 0.556858 0
M  V30 5874 C 559.712 4.44216 -0.706564 0
M  V30 5875 C 561.031 4.1841 1.3646 0
M  V30 5876 H 558.15 0.731677 0.0884201 0
M  V30 5877 H 560.792 1.84106 -0.469584 0
M  V30 5878 H 558.942 3.70539 1.16761 0
M  V30 5879 H 560.614 4.41274 -1.34444 0
M  V30 5880 H 558.857 4.12892 -1.33052 0
M  V30 5881 H 559.528 5.50202 -0.445186 0
M  V30 5882 H 562.004 4.07365 0.848113 0
M  V30 5883 H 560.88 5.26563 1.54992 0
M  V30 5884 H 561.141 3.7333 2.36805 0
M  V30 5885 N 560.2 0.0768682 1.57412 0
M  V30 5886 C 561.446 -0.591961 1.93968 0
M  V30 5887 C 561.779 -1.68954 0.9575 0
M  V30 5888 O 561.054 -1.94496 -0.0124675 0
M  V30 5889 C 561.337 -1.16418 3.40762 0
M  V30 5890 C 561.19 -0.0728933 4.49741 0
M  V30 5891 C 562.509 -2.06814 3.88479 0
M  V30 5892 H 559.628 -0.213716 0.705333 0
M  V30 5893 H 562.27 0.14387 1.89455 0
M  V30 5894 H 560.42 -1.79128 3.4474 0
M  V30 5895 H 562.092 0.560446 4.57883 0
M  V30 5896 H 560.335 0.595859 4.29688 0
M  V30 5897 H 561.006 -0.513755 5.49604 0
M  V30 5898 H 563.482 -1.54033 3.8654 0
M  V30 5899 H 562.358 -2.43785 4.91793 0
M  V30 5900 H 562.619 -2.97844 3.26713 0
M  V30 5901 N 561.678 -1.56367 -0.196722 0
M  V30 5902 C 563.094 -1.49916 -0.54749 0
M  V30 5903 C 563.294 -0.77659 -1.85934 0
M  V30 5904 O 562.35 -0.32644 -2.50381 0
M  V30 5905 C 563.663 -2.94577 -0.603734 0
M  V30 5906 C 565.211 -3.05239 -0.692677 0
M  V30 5907 C 565.686 -4.51308 -0.780046 0
M  V30 5908 N 567.177 -4.55453 -0.843616 0
M  V30 5909 C 567.912 -5.65786 -0.931358 0
M  V30 5910 N 567.408 -6.85812 -0.981503 0
M  V30 5911 N 569.201 -5.53695 -0.968421 0
M  V30 5912 H 561.352 -2.01761 0.663803 0
M  V30 5913 H 563.615 -0.918094 0.236238 0
M  V30 5914 H 563.321 -3.50494 0.29105 0
M  V30 5915 H 563.195 -3.47841 -1.45898 0
M  V30 5916 H 565.582 -2.49372 -1.57789 0
M  V30 5917 H 565.663 -2.55103 0.188736 0
M  V30 5918 H 565.307 -5.078 0.100811 0
M  V30 5919 H 565.237 -4.99176 -1.67724 0
M  V30 5920 H 567.728 -3.69025 -0.814176 0
M  V30 5921 H 568.041 -7.65648 -1.04892 0
M  V30 5922 H 566.386 -6.88474 -0.950208 0
M  V30 5923 H 569.577 -4.58848 -0.926072 0
M  V30 5924 H 569.75 -6.39708 -1.03334 0
M  V30 5925 N 563.156 0.464375 -1.50603 0
M  V30 5926 C 564.572 0.798684 -1.38178 0
M  V30 5927 C 564.772 1.96568 -0.44308 0
M  V30 5928 O 563.828 2.52252 0.111814 0
M  V30 5929 C 565.141 1.10444 -2.79683 0
M  V30 5930 C 566.689 1.2105 -2.88645 0
M  V30 5931 C 567.164 1.54934 -4.30998 0
M  V30 5932 N 568.655 1.61913 -4.3398 0
M  V30 5933 C 569.39 1.8965 -5.41129 0
M  V30 5934 N 568.886 2.15361 -6.58477 0
M  V30 5935 N 570.679 1.91207 -5.28579 0
M  V30 5936 H 562.83 -0.304603 -2.10204 0
M  V30 5937 H 565.093 -0.0737804 -0.945125 0
M  V30 5938 H 564.799 0.319934 -3.50242 0
M  V30 5939 H 564.673 2.03896 -3.17342 0
M  V30 5940 H 567.06 1.98567 -2.18301 0
M  V30 5941 H 567.141 0.255613 -2.5452 0
M  V30 5942 H 566.785 0.779549 -5.01882 0
M  V30 5943 H 566.715 2.51584 -4.62615 0
M  V30 5944 H 569.206 1.44055 -3.49366 0
M  V30 5945 H 569.519 2.35818 -7.35941 0
M  V30 5946 H 567.864 2.1274 -6.6164 0
M  V30 5947 H 571.055 1.70622 -4.35897 0
M  V30 5948 H 571.228 2.12488 -6.12171 0
M  V30 5949 N 564.634 1.40294 0.718013 0
M  V30 5950 C 565.564 1.43118 1.84498 0
M  V30 5951 C 566.545 0.292403 1.67568 0
M  V30 5952 O 567.73 0.500675 1.87635 0
M  V30 5953 C 564.86 1.29065 3.22427 0
M  V30 5954 C 563.814 2.40521 3.54025 0
M  V30 5955 C 563.14 2.11546 4.91073 0
M  V30 5956 C 564.44 3.82859 3.55269 0
M  V30 5957 H 566.134 2.37432 1.82391 0
M  V30 5958 H 563.68 1.14283 0.87609 0
M  V30 5959 H 565.633 1.29658 4.00957 0
M  V30 5960 H 564.357 0.312271 3.25104 0
M  V30 5961 H 563.016 2.39173 2.77834 0
M  V30 5962 H 562.664 1.12104 4.90348 0
M  V30 5963 H 562.364 2.86216 5.1318 0
M  V30 5964 H 563.888 2.13817 5.71939 0
M  V30 5965 H 565.302 3.86044 4.23843 0
M  V30 5966 H 563.699 4.57029 3.88902 0
M  V30 5967 H 564.769 4.12617 2.54706 0
M  V30 5968 N 566.112 -0.949982 1.2575 0
M  V30 5969 C 567.528 -1.22191 1.02672 0
M  V30 5970 C 567.728 -1.99898 -0.253588 0
M  V30 5971 O 566.784 -2.33329 -0.965076 0
M  V30 5972 C 568.097 -1.99175 2.25277 0
M  V30 5973 C 569.645 -2.12201 2.30087 0
M  V30 5974 C 570.12 -2.92586 3.5236 0
M  V30 5975 N 571.611 -3.00163 3.52784 0
M  V30 5976 C 572.346 -3.62766 4.44059 0
M  V30 5977 N 571.842 -4.26943 5.45611 0
M  V30 5978 N 573.635 -3.59953 4.3173 0
M  V30 5979 H 565.786 -0.430258 2.07996 0
M  V30 5980 H 568.049 -0.252844 0.91366 0
M  V30 5981 H 567.755 -1.49479 3.18354 0
M  V30 5982 H 567.629 -2.99868 2.28821 0
M  V30 5983 H 570.016 -2.61093 1.3753 0
M  V30 5984 H 570.097 -1.10799 2.30559 0
M  V30 5985 H 569.741 -2.44383 4.45241 0
M  V30 5986 H 569.671 -3.94224 3.49134 0
M  V30 5987 H 572.162 -2.54529 2.79327 0
M  V30 5988 H 572.475 -4.72583 6.11461 0
M  V30 5989 H 570.82 -4.25557 5.49478 0
M  V30 5990 H 574.011 -3.09003 3.51617 0
M  V30 5991 H 574.184 -4.08455 5.03059 0
M  V30 5992 N 567.59 -1.07411 -1.15328 0
M  V30 5993 C 568.5 -0.706438 -2.23711 0
M  V30 5994 C 569.516 0.282586 -1.7169 0
M  V30 5995 O 570.692 0.129066 -2.00986 0
M  V30 5996 C 567.757 -0.11048 -3.46524 0
M  V30 5997 C 566.818 -1.15282 -4.13532 0
M  V30 5998 C 566.051 -0.585205 -5.30482 0
M  V30 5999 O 566.274 0.598549 -5.67251 0
M  V30 6000 O 565.208 -1.33039 -5.87013 0
M  V30 6001 H 569.034 -1.61031 -2.57493 0
M  V30 6002 H 566.619 -0.847113 -1.23062 0
M  V30 6003 H 568.501 0.21957 -4.20828 0
M  V30 6004 H 567.176 0.766703 -3.14489 0
M  V30 6005 H 566.083 -1.53523 -3.41147 0
M  V30 6006 H 567.416 -2.00192 -4.49649 0
M  V30 6007 N 569.068 1.32177 -0.85831 0
M  V30 6008 C 570.315 1.97125 -0.463484 0
M  V30 6009 C 570.643 1.67907 0.981705 0
M  V30 6010 O 569.898 0.961717 1.70439 0
M  V30 6011 C 570.197 3.51372 -0.653658 0
M  V30 6012 C 569.863 4.00584 -2.06987 0
M  V30 6013 C 568.525 4.13733 -2.4572 0
M  V30 6014 C 570.877 4.26624 -2.99402 0
M  V30 6015 C 568.205 4.50268 -3.76132 0
M  V30 6016 C 570.557 4.64618 -4.29316 0
M  V30 6017 C 569.221 4.75975 -4.67979 0
M  V30 6018 H 568.491 0.72133 -0.169601 0
M  V30 6019 H 571.138 1.57517 -1.08907 0
M  V30 6020 H 569.443 3.91761 0.0551328 0
M  V30 6021 H 571.14 3.99655 -0.328163 0
M  V30 6022 H 567.73 3.90837 -1.75911 0
M  V30 6023 H 571.914 4.1597 -2.70708 0
M  V30 6024 H 567.17 4.57256 -4.05865 0
M  V30 6025 H 571.344 4.83722 -5.00985 0
M  V30 6026 H 568.971 5.04041 -5.69076 0
M  V30 6027 N 570.547 0.616602 1.45037 0
M  V30 6028 C 571.777 0.121791 2.06241 0
M  V30 6029 C 572.185 -1.20289 1.46038 0
M  V30 6030 O 571.528 -1.7456 0.572242 0
M  V30 6031 C 571.59 -0.0827345 3.59405 0
M  V30 6032 C 571.254 1.16153 4.41993 0
M  V30 6033 C 572.251 2.08183 4.76399 0
M  V30 6034 C 569.936 1.39288 4.82601 0
M  V30 6035 C 571.93 3.21668 5.5028 0
M  V30 6036 C 569.617 2.53073 5.56235 0
M  V30 6037 C 570.615 3.44091 5.89992 0
M  V30 6038 O 570.303 4.55894 6.6213 0
M  V30 6039 H 570.035 0.0701667 0.672349 0
M  V30 6040 H 572.589 0.846877 1.87129 0
M  V30 6041 H 570.819 -0.862812 3.76952 0
M  V30 6042 H 572.508 -0.530273 4.02421 0
M  V30 6043 H 573.274 1.91538 4.45576 0
M  V30 6044 H 569.153 0.693396 4.55755 0
M  V30 6045 H 572.697 3.92733 5.76547 0
M  V30 6046 H 568.594 2.69667 5.86472 0
M  V30 6047 H 569.362 4.5469 6.80587 0
M  V30 6048 N 572.025 -1.5352 0.356285 0
M  V30 6049 C 573.441 -1.59599 0.00485267 0
M  V30 6050 C 573.641 -1.37179 -1.47595 0
M  V30 6051 O 572.697 -1.17234 -2.23635 0
M  V30 6052 C 574.01 -2.97277 0.452454 0
M  V30 6053 C 575.558 -3.10357 0.405881 0
M  V30 6054 C 576.033 -4.50432 0.829148 0
M  V30 6055 N 577.524 -4.5652 0.783838 0
M  V30 6056 C 578.259 -5.63077 1.08315 0
M  V30 6057 N 577.755 -6.77429 1.45126 0
M  V30 6058 N 579.548 -5.53014 1.00655 0
M  V30 6059 H 571.699 -1.66346 1.32071 0
M  V30 6060 H 573.962 -0.77971 0.539218 0
M  V30 6061 H 573.668 -3.18792 1.48542 0
M  V30 6062 H 573.542 -3.76836 -0.165762 0
M  V30 6063 H 575.929 -2.88558 -0.617934 0
M  V30 6064 H 576.01 -2.32828 1.05947 0
M  V30 6065 H 575.654 -4.72968 1.85103 0
M  V30 6066 H 575.584 -5.26378 0.152906 0
M  V30 6067 H 578.075 -3.74408 0.512513 0
M  V30 6068 H 578.388 -7.54669 1.66415 0
M  V30 6069 H 576.733 -6.78844 1.48983 0
M  V30 6070 H 579.924 -4.62557 0.718215 0
M  V30 6071 H 580.097 -6.35964 1.24315 0
M  V30 6072 N 573.503 -0.0852151 -1.57369 0
M  V30 6073 C 574.914 0.445428 -1.81309 0
M  V30 6074 C 575.265 1.68795 -1.00013 0
M  V30 6075 O 574.39 2.15211 -0.226573 0
M  V30 6076 C 574.985 0.814887 -3.28854 0
M  V30 6077 C 573.544 1.29032 -3.53592 0
M  V30 6078 C 572.691 0.282089 -2.75861 0
M  V30 6079 H 575.642 -0.310771 -1.55627 0
M  V30 6080 H 575.663 1.67524 -3.41637 0
M  V30 6081 H 575.175 -0.0896309 -3.87996 0
M  V30 6082 H 573.276 2.21289 -2.9977 0
M  V30 6083 H 573.389 1.25898 -4.62262 0
M  V30 6084 H 571.753 0.762182 -2.43029 0
M  V30 6085 H 572.536 -0.614936 -3.37748 0
M  V30 6086 N 574.981 1.5647 0.188427 0
M  V30 6087 C 576.228 1.81013 0.907779 0
M  V30 6088 C 576.556 0.65953 1.82977 0
M  V30 6089 O 575.811 -0.354308 1.92466 0
M  V30 6090 C 576.11 3.11596 1.7505 0
M  V30 6091 C 575.776 4.40145 0.978922 0
M  V30 6092 C 574.438 4.75066 0.765912 0
M  V30 6093 C 576.79 5.19369 0.436498 0
M  V30 6094 C 574.118 5.867 -0.00089868 0
M  V30 6095 C 576.47 6.31805 -0.317136 0
M  V30 6096 C 575.134 6.65303 -0.541103 0
M  V30 6097 H 574.404 0.662373 0.33218 0
M  V30 6098 H 577.051 1.9071 0.173732 0
M  V30 6099 H 575.356 2.97165 2.55343 0
M  V30 6100 H 577.053 3.27793 2.30983 0
M  V30 6101 H 573.643 4.12745 1.15497 0
M  V30 6102 H 577.827 4.92799 0.588449 0
M  V30 6103 H 573.083 6.11122 -0.184329 0
M  V30 6104 H 577.257 6.92406 -0.744788 0
M  V30 6105 H 574.884 7.51646 -1.13718 0
M  V30 6106 N 576.459 -0.456382 1.50847 0
M  V30 6107 C 577.407 -1.57318 1.71329 0
M  V30 6108 C 578.401 -1.59187 0.579287 0
M  V30 6109 O 579.607 -1.6316 0.76018 0
M  V30 6110 H 575.982 -0.5223 0.541024 0
M  V30 6111 H 577.953 -1.3721 2.64983 0
M  V30 6112 C 576.702 -2.95142 1.83811 0
M  V30 6113 H 576.025 -2.94428 2.70467 0
M  V30 6114 H 577.465 -3.72702 2.02161 0
M  V30 6115 C 575.924 -3.31636 0.593224 0
M  V30 6116 O 576.454 -4.00852 -0.260898 0
M  V30 6117 N 574.66 -2.87205 0.442902 0
M  V30 6118 H 574.207 -2.31051 1.13901 0
M  V30 6119 H 574.165 -3.11986 -0.38884 0
M  V30 6120 N 577.937 -1.40673 -0.710563 0
M  V30 6121 C 578.867 -1.44095 -1.83736 0
M  V30 6122 C 579.848 -0.301286 -1.67411 0
M  V30 6123 O 581.033 -0.510618 -1.87367 0
M  V30 6124 C 578.163 -1.30773 -3.21738 0
M  V30 6125 C 577.117 -2.42395 -3.52745 0
M  V30 6126 C 576.443 -2.14147 -4.89944 0
M  V30 6127 C 577.743 -3.84738 -3.53234 0
M  V30 6128 H 579.437 -2.38396 -1.81129 0
M  V30 6129 H 576.983 -1.14746 -0.870017 0
M  V30 6130 H 578.936 -1.31783 -4.00264 0
M  V30 6131 H 577.66 -0.329507 -3.24934 0
M  V30 6132 H 576.319 -2.40643 -2.76562 0
M  V30 6133 H 575.967 -1.14703 -4.89747 0
M  V30 6134 H 575.667 -2.88934 -5.11655 0
M  V30 6135 H 577.191 -2.16848 -5.70797 0
M  V30 6136 H 578.605 -3.88286 -4.2179 0
M  V30 6137 H 577.002 -4.59085 -3.86473 0
M  V30 6138 H 578.072 -4.13962 -2.52514 0
M  V30 6139 N 579.415 0.9433 -1.26252 0
M  V30 6140 C 580.362 2.0417 -1.07625 0
M  V30 6141 C 581.332 1.6609 0.0180738 0
M  V30 6142 O 582.517 1.90276 -0.141289 0
M  V30 6143 C 579.657 3.37653 -0.713043 0
M  V30 6144 C 578.77 3.88783 -1.8834 0
M  V30 6145 C 577.905 5.10642 -1.4635 0
M  V30 6146 C 576.944 5.54028 -2.60229 0
M  V30 6147 N 576.081 6.67092 -2.18936 0
M  V30 6148 H 580.921 2.19436 -2.01623 0
M  V30 6149 H 578.458 1.07519 -1.00389 0
M  V30 6150 H 580.416 4.14391 -0.483358 0
M  V30 6151 H 579.046 3.22241 0.18996 0
M  V30 6152 H 578.098 3.08464 -2.22608 0
M  V30 6153 H 579.41 4.16922 -2.73821 0
M  V30 6154 H 578.564 5.94832 -1.19414 0
M  V30 6155 H 577.303 4.84244 -0.579568 0
M  V30 6156 H 576.308 4.68396 -2.87898 0
M  V30 6157 H 577.533 5.82429 -3.49219 0
M  V30 6158 H 575.479 6.42381 -1.32974 0
M  V30 6159 H 575.396 6.94806 -2.97961 0
M  V30 6160 H 576.664 7.54662 -1.95206 0
M  V30 6161 N 580.893 1.08022 1.14757 0
M  V30 6162 C 582.14 0.807509 1.85703 0
M  V30 6163 C 582.468 -0.666617 1.8272 0
M  V30 6164 O 581.723 -1.50562 1.25018 0
M  V30 6165 C 582.022 1.26964 3.34088 0
M  V30 6166 C 581.688 2.7509 3.57262 0
M  V30 6167 C 580.35 3.15547 3.63296 0
M  V30 6168 C 582.702 3.70667 3.66409 0
M  V30 6169 C 580.03 4.50384 3.75994 0
M  V30 6170 C 582.382 5.05274 3.80632 0
M  V30 6171 C 581.046 5.45342 3.84913 0
M  V30 6172 H 580.316 0.295488 0.679535 0
M  V30 6173 H 582.963 1.35245 1.35577 0
M  V30 6174 H 581.268 0.644216 3.86467 0
M  V30 6175 H 582.965 1.03544 3.87401 0
M  V30 6176 H 579.555 2.42775 3.53212 0
M  V30 6177 H 583.739 3.40533 3.61041 0
M  V30 6178 H 578.995 4.80886 3.77569 0
M  V30 6179 H 583.169 5.79201 3.86652 0
M  V30 6180 H 580.796 6.49823 3.94505 0
M  V30 6181 N 582.371 -1.3172 0.865308 0
M  V30 6182 C 583.601 -2.00765 0.487543 0
M  V30 6183 C 584.009 -1.65145 -0.92325 0
M  V30 6184 O 583.352 -0.874294 -1.61561 0
M  V30 6185 C 583.414 -3.55122 0.559369 0
M  V30 6186 C 583.078 -4.14202 1.93095 0
M  V30 6187 C 584.075 -4.3165 2.89784 0
M  V30 6188 C 581.76 -4.50036 2.23099 0
M  V30 6189 C 583.754 -4.84114 4.14623 0
M  V30 6190 C 581.441 -5.02203 3.48189 0
M  V30 6191 C 582.439 -5.19192 4.43767 0
M  V30 6192 O 582.127 -5.70241 5.6664 0
M  V30 6193 H 581.859 -0.649066 0.188915 0
M  V30 6194 H 584.413 -1.69032 1.16694 0
M  V30 6195 H 582.643 -3.86295 -0.176926 0
M  V30 6196 H 584.332 -4.05428 0.195694 0
M  V30 6197 H 585.098 -4.04288 2.6791 0
M  V30 6198 H 580.977 -4.36091 1.49485 0
M  V30 6199 H 584.521 -4.9729 4.89233 0
M  V30 6200 H 580.418 -5.28997 3.69908 0
M  V30 6201 H 581.186 -5.88617 5.68746 0
M  V30 6202 N 583.85 -0.624285 -1.44708 0
M  V30 6203 C 584.782 0.12305 -2.28869 0
M  V30 6204 C 585.795 0.81557 -1.40898 0
M  V30 6205 O 586.984 0.678162 -1.65116 0
M  V30 6206 C 584.084 1.19612 -3.1709 0
M  V30 6207 C 583.257 0.587452 -4.33437 0
M  V30 6208 C 582.316 1.55358 -5.02743 0
M  V30 6209 O 581.341 1.07338 -5.58988 0
M  V30 6210 N 582.543 2.88798 -5.03563 0
M  V30 6211 H 585.308 -0.599193 -2.93649 0
M  V30 6212 H 582.87 -0.464954 -1.5508 0
M  V30 6213 H 584.861 1.84261 -3.60319 0
M  V30 6214 H 583.432 1.82067 -2.54107 0
M  V30 6215 H 582.652 -0.237509 -3.93484 0
M  V30 6216 H 583.94 0.161326 -5.08544 0
M  V30 6217 H 583.338 3.30399 -4.59188 0
M  V30 6218 H 581.894 3.48826 -5.50603 0
M  V30 6219 N 585.328 1.53329 -0.364422 0
M  V30 6220 C 586.261 2.22052 0.526145 0
M  V30 6221 C 587.239 1.21203 1.08391 0
M  V30 6222 O 588.423 1.50101 1.14026 0
M  V30 6223 C 585.55 2.91432 1.72583 0
M  V30 6224 C 584.596 4.06345 1.29562 0
M  V30 6225 S 585.429 5.34671 0.297885 0
M  V30 6226 C 586.585 6.07563 1.50392 0
M  V30 6227 H 586.818 2.97244 -0.0575055 0
M  V30 6228 H 584.351 1.53684 -0.148525 0
M  V30 6229 H 586.309 3.3202 2.41398 0
M  V30 6230 H 584.97 2.15966 2.28073 0
M  V30 6231 H 584.163 4.53901 2.19067 0
M  V30 6232 H 583.765 3.67642 0.686696 0
M  V30 6233 H 586.057 6.32224 2.43513 0
M  V30 6234 H 587 6.99973 1.06977 0
M  V30 6235 H 587.408 5.37994 1.70945 0
M  V30 6236 N 586.806 0.0935595 1.57322 0
M  V30 6237 C 588.034 -0.578934 1.98635 0
M  V30 6238 C 588.449 -1.61819 0.972626 0
M  V30 6239 O 587.806 -1.82461 -0.0379638 0
M  V30 6240 C 587.857 -1.22802 3.40003 0
M  V30 6241 O 587.578 -0.230334 4.37494 0
M  V30 6242 C 589.079 -1.98627 3.96311 0
M  V30 6243 H 586.299 -0.155324 0.652775 0
M  V30 6244 H 588.843 0.172393 2.03772 0
M  V30 6245 H 586.998 -1.93029 3.35885 0
M  V30 6246 H 587.412 -0.698649 5.19826 0
M  V30 6247 H 588.886 -2.39405 4.97382 0
M  V30 6248 H 589.363 -2.85151 3.34044 0
M  V30 6249 H 589.969 -1.3322 4.03897 0
M  V30 6250 N 588.284 -1.56567 -0.180126 0
M  V30 6251 C 589.532 -1.81133 -0.896392 0
M  V30 6252 C 589.853 -0.669114 -1.83161 0
M  V30 6253 O 589.123 0.311616 -1.93406 0
M  V30 6254 H 587.703 -0.668172 -0.333999 0
M  V30 6255 H 590.365 -1.94048 -0.182051 0
M  V30 6256 H 589.461 -2.74854 -1.47857 0
M  V30 6257 N 589.762 0.448376 -1.51087 0
M  V30 6258 C 590.712 1.54156 -1.67988 0
M  V30 6259 C 591.696 1.5178 -0.534015 0
M  V30 6260 O 592.888 1.58419 -0.789448 0
M  V30 6261 C 590.017 2.92437 -1.79822 0
M  V30 6262 C 589.103 2.99611 -3.00157 0
M  V30 6263 N 589.494 2.7655 -4.23502 0
M  V30 6264 C 587.792 3.30764 -2.99184 0
M  V30 6265 C 588.493 2.89281 -5.0467 0
M  V30 6266 N 587.469 3.20473 -4.39088 0
M  V30 6267 H 591.271 1.35061 -2.61028 0
M  V30 6268 H 588.785 0.655504 -1.48583 0
M  V30 6269 H 590.782 3.71068 -1.90037 0
M  V30 6270 H 589.442 3.1256 -0.879554 0
M  V30 6271 H 590.453 2.5169 -4.52628 0
M  V30 6272 H 587.13 3.56732 -2.16907 0
M  V30 6273 H 588.52 2.75499 -6.12821 0
M  V30 6274 N 591.24 1.41047 0.703093 0
M  V30 6275 C 592.517 1.30493 1.45708 0
M  V30 6276 C 592.897 -0.0709892 2.10981 0
M  V30 6277 O 592.245 -1.08471 2.01113 0
M  V30 6278 C 592.455 2.45287 2.48265 0
M  V30 6279 C 593.803 2.86104 3.13735 0
M  V30 6280 O 594.827 2.44971 2.58587 0
M  V30 6281 O 593.686 3.57206 4.13601 0
M  V30 6282 H 590.78 0.513144 0.648546 0
M  V30 6283 H 593.326 1.52995 0.734208 0
M  V30 6284 H 592.098 3.37135 1.98635 0
M  V30 6285 H 591.721 2.24622 3.28071 0
M  V30 6286 N 592.718 -0.936591 1.26751 0
M  V30 6287 C 593.965 -1.68331 1.12566 0
M  V30 6288 C 594.293 -1.91677 -0.330168 0
M  V30 6289 O 593.548 -1.49859 -1.2586 0
M  V30 6290 C 593.847 -3.06099 1.84494 0
M  V30 6291 C 593.513 -3.02493 3.34378 0
M  V30 6292 C 592.175 -3.01217 3.75262 0
M  V30 6293 C 594.527 -2.94453 4.30055 0
M  V30 6294 C 591.855 -2.89672 5.10203 0
M  V30 6295 C 594.207 -2.84449 5.65041 0
M  V30 6296 C 592.871 -2.81518 6.0523 0
M  V30 6297 H 592.141 -0.615965 0.411907 0
M  V30 6298 H 594.788 -1.09292 1.5725 0
M  V30 6299 H 593.093 -3.6879 1.32292 0
M  V30 6300 H 594.79 -3.62733 1.70955 0
M  V30 6301 H 591.38 -3.04269 3.01858 0
M  V30 6302 H 595.564 -2.94544 3.99447 0
M  V30 6303 H 590.82 -2.85783 5.40498 0
M  V30 6304 H 594.994 -2.77192 6.38856 0
M  V30 6305 H 592.621 -2.72329 7.09747 0
M  V30 6306 N 594.196 -1.08629 -1.14182 0
M  V30 6307 C 595.444 -0.815731 -1.84906 0
M  V30 6308 C 595.765 0.660441 -1.83475 0
M  V30 6309 O 595.035 1.47888 -1.28476 0
M  V30 6310 H 593.615 -0.298773 -0.684648 0
M  V30 6311 H 596.277 -1.37274 -1.38354 0
M  V30 6312 H 595.373 -1.16193 -2.89665 0
M  V30 6313 N 595.674 1.31259 -0.872281 0
M  V30 6314 C 596.92 1.973 -0.494414 0
M  V30 6315 C 597.275 1.67684 0.94339 0
M  V30 6316 O 596.568 0.964186 1.65572 0
M  V30 6317 C 596.762 3.50659 -0.690889 0
M  V30 6318 C 596.591 3.95179 -2.14624 0
M  V30 6319 C 595.361 4.21405 -2.7883 0
M  V30 6320 C 597.559 4.08948 -3.11875 0
M  V30 6321 N 595.541 4.52295 -4.15093 0
M  V30 6322 C 596.912 4.43576 -4.33174 0
M  V30 6323 C 598.967 3.91334 -3.07835 0
M  V30 6324 C 597.67 4.62429 -5.50956 0
M  V30 6325 C 599.696 4.11381 -4.24876 0
M  V30 6326 C 599.058 4.46343 -5.44938 0
M  V30 6327 H 595.157 0.747411 -0.230002 0
M  V30 6328 H 597.741 1.58741 -1.12736 0
M  V30 6329 H 595.912 3.88301 -0.0875162 0
M  V30 6330 H 597.644 4.03722 -0.281179 0
M  V30 6331 H 594.399 4.14131 -2.29767 0
M  V30 6332 H 594.823 4.71897 -4.8543 0
M  V30 6333 H 599.465 3.6339 -2.16119 0
M  V30 6334 H 597.183 4.8922 -6.43187 0
M  V30 6335 H 600.769 3.99235 -4.23205 0
M  V30 6336 H 599.649 4.6154 -6.33996 0
M  V30 6337 N 597.152 0.631951 1.44375 0
M  V30 6338 C 598.429 0.067646 1.95483 0
M  V30 6339 C 598.809 -1.40683 1.57389 0
M  V30 6340 O 598.157 -2.12167 0.848375 0
M  V30 6341 C 598.367 0.291392 3.47781 0
M  V30 6342 C 599.715 0.185028 4.24197 0
M  V30 6343 O 600.739 0.222803 3.55503 0
M  V30 6344 O 599.598 0.0906642 5.46425 0
M  V30 6345 H 596.692 -0.0218379 0.826712 0
M  V30 6346 H 599.238 0.703711 1.54421 0
M  V30 6347 H 598.01 1.31449 3.68561 0
M  V30 6348 H 597.633 -0.378772 3.95792 0
M  V30 6349 N 598.631 -1.53133 0.372548 0
M  V30 6350 C 599.879 -2.00958 -0.214534 0
M  V30 6351 C 600.2 -1.26135 -1.48711 0
M  V30 6352 O 599.47 -0.376597 -1.92246 0
M  V30 6353 H 598.05 -0.742456 -0.0822664 0
M  V30 6354 H 600.712 -1.88367 0.500385 0
M  V30 6355 H 599.808 -3.09031 -0.436605 0
M  V30 6356 O 600.148 -0.242051 -1.59676 0
M  V30 6357 H 600.839 0.334494 -1.9079 0
M  V30 END ATOM
M  V30 BEGIN BOND
M  V30 END BOND
M  V30 END CTAB
M  END
$$$$
