drugbank_target|Q8NMG3 Transcriptional regulator (DB08167)
 OpenBabel12092120483D

  0  0  0     0  0            999 V3000
M  V30 BEGIN CTAB
M  V30 COUNTS 2843 2873 0 0 0
M  V30 BEGIN ATOM
M  V30 1 H -0.908 1.98254 -0.117106 0
M  V30 2 N 0 1.576 0 0
M  V30 3 C 0.933 2.03868 1.02534 0
M  V30 4 C 1.911 0.928543 1.3348 0
M  V30 5 O 3.095 1.19667 1.45644 0
M  V30 6 C 0.222 2.43627 2.35294 0
M  V30 7 C -0.732 3.65373 2.2001 0
M  V30 8 S 0.101 5.13292 1.52614 0
M  V30 9 C 1.257 5.56322 2.86805 0
M  V30 10 H 1.49 2.90518 0.631377 0
M  V30 11 H -0.977 1.52953 0.210867 0
M  V30 12 H 0.981 2.67203 3.11629 0
M  V30 13 H -0.358 1.57376 2.7183 0
M  V30 14 H -1.165 3.90944 3.18086 0
M  V30 15 H -1.563 3.418 1.51819 0
M  V30 16 H 0.729 5.58782 3.83104 0
M  V30 17 H 1.672 6.56266 2.65933 0
M  V30 18 H 2.08 4.83886 2.90714 0
M  V30 19 N 1.4781 -0.272755 1.55222 0
M  V30 20 C 2.8941 -0.619959 1.47067 0
M  V30 21 C 3.0941 -1.895 0.684978 0
M  V30 22 O 2.1501 -2.51675 0.203931 0
M  V30 23 C 3.4631 -0.746693 2.91282 0
M  V30 24 C 5.0111 -0.840731 3.01497 0
M  V30 25 C 5.4861 -0.99924 4.46967 0
M  V30 26 N 6.9771 -1.06476 4.50796 0
M  V30 27 C 7.7121 -1.20621 5.6057 0
M  V30 28 N 7.2081 -1.31483 6.80209 0
M  V30 29 N 9.0011 -1.23733 5.48312 0
M  V30 30 H 1.1521 0.564606 2.04758 0
M  V30 31 H 3.4151 0.191177 0.928523 0
M  V30 32 H 3.1211 0.119753 3.51496 0
M  V30 33 H 2.9951 -1.6269 3.40311 0
M  V30 34 H 5.3821 -1.69764 2.41379 0
M  V30 35 H 5.4631 0.0640874 2.5572 0
M  V30 36 H 5.1071 -0.146984 5.07687 0
M  V30 37 H 5.0371 -1.91871 4.90401 0
M  V30 38 H 7.5281 -0.993196 3.64615 0
M  V30 39 H 7.8411 -1.42111 7.59621 0
M  V30 40 H 6.1861 -1.28487 6.8302 0
M  V30 41 H 9.3771 -1.14877 4.53785 0
M  V30 42 H 9.5501 -1.34412 6.33906 0
M  V30 43 N 2.9562 -1.48159 -0.537278 0
M  V30 44 C 4.1842 -1.59454 -1.31841 0
M  V30 45 C 4.5992 -0.252065 -1.8711 0
M  V30 46 O 3.9562 0.757621 -1.66031 0
M  V30 47 C 4.0072 -2.63546 -2.47439 0
M  V30 48 O 3.7282 -3.92583 -1.94449 0
M  V30 49 C 5.2292 -2.85212 -3.39366 0
M  V30 50 H 2.4492 -0.53785 -0.401196 0
M  V30 51 H 4.9932 -1.93932 -0.648891 0
M  V30 52 H 3.1482 -2.31946 -3.1029 0
M  V30 53 H 3.5622 -4.49629 -2.70063 0
M  V30 54 H 5.0362 -3.61863 -4.16844 0
M  V30 55 H 5.5132 -1.93765 -3.94147 0
M  V30 56 H 6.1192 -3.18086 -2.82314 0
M  V30 57 N 4.4343 0.785586 -1.36625 0
M  V30 58 C 5.6593 1.57963 -1.34397 0
M  V30 59 C 6.0843 1.87964 0.071526 0
M  V30 60 O 5.4423 1.48182 1.0446 0
M  V30 61 C 5.4903 2.87511 -2.17646 0
M  V30 62 O 4.5943 3.81281 -1.57158 0
M  V30 63 H 3.9353 0.479014 -0.459828 0
M  V30 64 H 6.4653 0.973411 -1.79961 0
M  V30 65 H 6.4753 3.36745 -2.30362 0
M  V30 66 H 5.1503 2.65002 -3.20541 0
M  V30 67 H 3.7273 3.39885 -1.53403 0
M  V30 68 N 5.9124 1.20967 1.01018 0
M  V30 69 C 6.8594 0.964281 2.09691 0
M  V30 70 C 7.8294 -0.107853 1.65749 0
M  V30 71 O 9.0144 0.0381987 1.90762 0
M  V30 72 C 6.1544 0.52943 3.41015 0
M  V30 73 C 5.2674 1.67043 3.98398 0
M  V30 74 C 4.4024 1.18525 5.17808 0
M  V30 75 C 3.4414 2.29892 5.67288 0
M  V30 76 N 2.5784 1.82546 6.77954 0
M  V30 77 H 7.4184 1.89463 2.30017 0
M  V30 78 H 4.9554 0.944289 1.1279 0
M  V30 79 H 6.9134 0.258588 4.16398 0
M  V30 80 H 5.5434 -0.363919 3.20742 0
M  V30 81 H 4.5954 2.05603 3.20049 0
M  V30 82 H 5.9074 2.50877 4.31117 0
M  V30 83 H 5.0614 0.870762 6.00419 0
M  V30 84 H 3.8004 0.316887 4.86669 0
M  V30 85 H 2.8054 2.6215 4.83278 0
M  V30 86 H 4.0304 3.17216 6.00459 0
M  V30 87 H 1.9764 0.980454 6.48632 0
M  V30 88 H 1.8934 2.59956 7.09901 0
M  V30 89 H 3.1614 1.54115 7.64113 0
M  V30 90 N 7.3905 -1.2043 1.01659 0
M  V30 91 C 8.3375 -2.23215 0.586822 0
M  V30 92 C 9.3075 -1.61382 -0.393085 0
M  V30 93 O 10.4925 -1.88544 -0.292525 0
M  V30 94 C 7.6325 -3.45032 -0.0687464 0
M  V30 95 C 6.7455 -4.21296 0.955724 0
M  V30 96 C 5.8805 -5.30507 0.271208 0
M  V30 97 C 4.9195 -5.98515 1.28244 0
M  V30 98 N 4.0565 -6.99316 0.62459 0
M  V30 99 H 8.8965 -2.59336 1.46796 0
M  V30 100 H 6.4335 -1.27431 0.734836 0
M  V30 101 H 8.3915 -4.1459 -0.465965 0
M  V30 102 H 7.0215 -3.09604 -0.913529 0
M  V30 103 H 6.0735 -3.50803 1.4711 0
M  V30 104 H 7.3855 -4.6803 1.72479 0
M  V30 105 H 6.5395 -6.06428 -0.18151 0
M  V30 106 H 5.2785 -4.8481 -0.530163 0
M  V30 107 H 4.2835 -5.21355 1.74554 0
M  V30 108 H 5.5085 -6.46298 2.08509 0
M  V30 109 H 3.4545 -6.55812 -0.156914 0
M  V30 110 H 3.3715 -7.44178 1.33172 0
M  V30 111 H 4.6395 -7.79255 0.195462 0
M  V30 112 N 8.8686 -0.792821 -1.36206 0
M  V30 113 C 9.7786 -0.194808 -2.3379 0
M  V30 114 C 10.7946 0.654869 -1.61206 0
M  V30 115 O 11.9706 0.569856 -1.9317 0
M  V30 116 C 9.0356 0.657721 -3.40404 0
M  V30 117 C 8.0966 -0.210849 -4.28782 0
M  V30 118 C 7.3296 0.601086 -5.30304 0
M  V30 119 O 7.5526 1.83682 -5.40016 0
M  V30 120 O 6.4866 -0.000808277 -6.019 0
M  V30 121 H 10.3126 -1.00172 -2.86704 0
M  V30 122 H 7.8976 -0.554341 -1.38735 0
M  V30 123 H 9.7796 1.14375 -4.05581 0
M  V30 124 H 8.4546 1.44247 -2.89784 0
M  V30 125 H 7.3616 -0.743714 -3.66633 0
M  V30 126 H 8.6946 -0.959195 -4.82763 0
M  V30 127 N 10.3467 1.47872 -0.545128 0
M  V30 128 C 11.2797 2.2675 0.256885 0
M  V30 129 C 12.2577 1.33293 0.931228 0
M  V30 130 O 13.4417 1.62657 0.95262 0
M  V30 131 C 10.5687 3.09976 1.36501 0
M  V30 132 C 9.6147 4.1892 0.800496 0
M  V30 133 S 10.4477 5.34397 -0.343505 0
M  V30 134 C 11.6037 6.21186 0.766733 0
M  V30 135 H 11.8367 2.94425 -0.412479 0
M  V30 136 H 9.3697 1.50806 -0.331204 0
M  V30 137 H 11.3277 3.585 1.9997 0
M  V30 138 H 9.9887 2.41686 2.00616 0
M  V30 139 H 9.1817 4.76836 1.63227 0
M  V30 140 H 8.7837 3.73215 0.242217 0
M  V30 141 H 11.0757 6.56804 1.66178 0
M  V30 142 H 12.0187 7.07742 0.225204 0
M  V30 143 H 12.4267 5.54574 1.05396 0
M  V30 144 N 11.8248 0.280983 1.55075 0
M  V30 145 C 13.0738 -0.334784 1.98902 0
M  V30 146 C 13.3868 -1.56534 1.17288 0
M  V30 147 O 14.5928 -2.25443 1.51287 0
M  V30 148 C 13.0488 -0.646994 3.54037 0
M  V30 149 C 12.6568 0.564085 4.44435 0
M  V30 150 C 14.4008 -1.22506 4.06439 0
M  V30 151 C 12.3078 0.226137 5.90967 0
M  V30 152 H 11.2378 -0.128866 0.742906 0
M  V30 153 H 13.8888 0.386556 1.79382 0
M  V30 154 H 12.2708 -1.42739 3.6938 0
M  V30 155 H 13.4448 1.34082 4.40861 0
M  V30 156 H 11.7598 1.0594 4.02698 0
M  V30 157 H 14.3568 -1.49182 5.13468 0
M  V30 158 H 14.6998 -2.16085 3.55827 0
M  V30 159 H 15.2328 -0.50682 3.94558 0
M  V30 160 H 11.9718 1.12996 6.45687 0
M  V30 161 H 11.4918 -0.513717 5.97596 0
M  V30 162 H 13.1708 -0.179539 6.46751 0
M  V30 163 N 13.3029 -1.57598 0.00835791 0
M  V30 164 C 14.2329 -2.1198 -0.979113 0
M  V30 165 C 15.2139 -1.03091 -1.35301 0
M  V30 166 O 16.3989 -1.30818 -1.43528 0
M  V30 167 C 13.5289 -2.62995 -2.26828 0
M  V30 168 C 12.4829 -3.76485 -2.03576 0
M  V30 169 C 11.8089 -4.13846 -3.38579 0
M  V30 170 C 13.1089 -5.0342 -1.39161 0
M  V30 171 H 14.8029 -2.94738 -0.526281 0
M  V30 172 H 12.3489 -1.41783 -0.251704 0
M  V30 173 H 14.3019 -2.99669 -2.96271 0
M  V30 174 H 13.0259 -1.7737 -2.7424 0
M  V30 175 H 11.6849 -3.40217 -1.36557 0
M  V30 176 H 11.3329 -3.25232 -3.83709 0
M  V30 177 H 11.0329 -4.90312 -3.23834 0
M  V30 178 H 12.5569 -4.53086 -4.09323 0
M  V30 179 H 13.9709 -5.37812 -1.98573 0
M  V30 180 H 12.3679 -5.84746 -1.34878 0
M  V30 181 H 13.4379 -4.83548 -0.361868 0
M  V30 182 N 14.781 0.264519 -1.55364 0
M  V30 183 C 16.197 0.61215 -1.47394 0
M  V30 184 C 16.397 1.89134 -0.695018 0
M  V30 185 O 15.453 2.51563 -0.217275 0
M  V30 186 C 16.766 0.731235 -2.91674 0
M  V30 187 C 18.314 0.82473 -3.01939 0
M  V30 188 C 18.789 0.975522 -4.4749 0
M  V30 189 N 20.28 1.04083 -4.51354 0
M  V30 190 C 21.015 1.17646 -5.61201 0
M  V30 191 N 20.511 1.27874 -6.80896 0
M  V30 192 N 22.304 1.20823 -5.48961 0
M  V30 193 H 14.455 -0.575456 -2.04456 0
M  V30 194 H 16.718 -0.196099 -0.927496 0
M  V30 195 H 16.424 -0.138392 -3.51428 0
M  V30 196 H 16.298 1.60883 -3.41169 0
M  V30 197 H 18.685 1.68482 -2.42276 0
M  V30 198 H 18.766 -0.0776479 -2.55682 0
M  V30 199 H 18.41 0.120058 -5.07758 0
M  V30 200 H 18.34 1.89268 -4.91412 0
M  V30 201 H 20.831 0.973846 -3.65136 0
M  V30 202 H 21.144 1.38081 -7.60364 0
M  V30 203 H 19.489 1.24863 -6.83692 0
M  V30 204 H 22.68 1.12469 -4.54388 0
M  V30 205 H 22.853 1.31049 -6.3461 0
M  V30 206 N 16.2591 1.48442 0.529413 0
M  V30 207 C 17.4871 1.60151 1.30994 0
M  V30 208 C 17.9021 0.261985 1.86973 0
M  V30 209 O 17.2591 -0.748805 1.66431 0
M  V30 210 C 17.3101 2.64854 2.46038 0
M  V30 211 O 17.0311 3.93608 1.92365 0
M  V30 212 C 18.5321 2.87007 3.37849 0
M  V30 213 H 15.7521 0.539971 0.398338 0
M  V30 214 H 18.2961 1.94273 0.638597 0
M  V30 215 H 16.4511 2.33589 3.09055 0
M  V30 216 H 16.8651 4.51055 2.67675 0
M  V30 217 H 18.3391 3.64068 4.14919 0
M  V30 218 H 18.8161 1.95852 3.93114 0
M  V30 219 H 19.4221 3.19579 2.80623 0
M  V30 220 N 17.7372 -0.778329 1.37039 0
M  V30 221 C 18.7002 -1.87301 1.32102 0
M  V30 222 C 19.7002 -1.59198 0.226405 0
M  V30 223 O 20.8902 -1.67403 0.481861 0
M  V30 224 C 18.0222 -3.24309 1.05055 0
M  V30 225 H 19.2152 -1.93093 2.29467 0
M  V30 226 H 16.7682 -0.977358 1.21973 0
M  V30 227 H 17.5032 -3.24196 0.0819373 0
M  V30 228 H 17.2882 -3.46098 1.84279 0
M  V30 229 H 18.7782 -4.04382 1.04234 0
M  V30 230 N 19.2153 -1.21501 -1.00376 0
M  V30 231 C 20.4643 -1.02718 -1.73586 0
M  V30 232 C 20.7773 0.439589 -1.90596 0
M  V30 233 O 21.9833 0.746848 -2.61026 0
M  V30 234 C 20.4393 -1.78929 -3.1227 0
M  V30 235 C 20.0473 -3.29783 -3.03228 0
M  V30 236 C 21.7913 -1.68557 -3.89601 0
M  V30 237 C 19.6983 -3.98479 -4.36999 0
M  V30 238 H 18.6283 -0.380733 -0.650814 0
M  V30 239 H 21.2793 -1.45248 -1.1214 0
M  V30 240 H 19.6613 -1.29192 -3.74333 0
M  V30 241 H 20.8353 -3.86832 -2.50395 0
M  V30 242 H 19.1503 -3.40711 -2.39385 0
M  V30 243 H 21.7473 -2.17211 -4.88593 0
M  V30 244 H 22.0903 -0.644021 -4.11288 0
M  V30 245 H 22.6233 -2.15778 -3.34193 0
M  V30 246 H 19.3623 -5.02841 -4.20513 0
M  V30 247 H 18.8823 -3.46219 -4.89788 0
M  V30 248 H 20.5613 -4.03462 -5.05794 0
M  V30 249 N 20.6934 1.19889 -1.02296 0
M  V30 250 C 21.9704 1.85148 -0.630832 0
M  V30 251 C 22.3504 1.91385 0.890782 0
M  V30 252 O 21.6984 1.42642 1.78509 0
M  V30 253 C 21.9084 3.24442 -1.28602 0
M  V30 254 C 23.2564 4.00663 -1.4055 0
M  V30 255 O 24.2804 3.33818 -1.24273 0
M  V30 256 O 23.1394 5.20387 -1.66913 0
M  V30 257 H 20.2334 0.797613 -0.218499 0
M  V30 258 H 22.7794 1.27427 -1.12074 0
M  V30 259 H 21.5514 3.14704 -2.32545 0
M  V30 260 H 21.1744 3.89802 -0.7836 0
M  V30 261 N 22.1715 0.800033 1.35784 0
M  V30 262 C 23.4015 0.389041 2.02904 0
M  V30 263 C 23.8095 -1.0027 1.60445 0
M  V30 264 O 23.1525 -1.65633 0.794453 0
M  V30 265 C 23.2145 0.385495 3.57427 0
M  V30 266 C 22.8785 1.72662 4.23127 0
M  V30 267 C 23.8755 2.68385 4.4527 0
M  V30 268 C 21.5605 2.00883 4.60381 0
M  V30 269 C 23.5545 3.90517 5.03761 0
M  V30 270 C 21.2415 3.2328 5.18588 0
M  V30 271 C 22.2395 4.17915 5.40218 0
M  V30 272 O 21.9275 5.38153 5.97199 0
M  V30 273 H 21.6595 0.157032 0.657508 0
M  V30 274 H 24.2135 1.08311 1.74522 0
M  V30 275 H 22.4435 -0.365128 3.84972 0
M  V30 276 H 24.1325 -0.00228296 4.059 0
M  V30 277 H 24.8985 2.47872 4.16874 0
M  V30 278 H 20.7775 1.28037 4.42863 0
M  V30 279 H 24.3215 4.64395 5.2056 0
M  V30 280 H 20.2185 3.43667 5.4641 0
M  V30 281 H 20.9865 5.3936 6.15656 0
M  V30 282 N 23.6496 -1.47581 0.552962 0
M  V30 283 C 24.8986 -2.01684 0.0251995 0
M  V30 284 C 25.2116 -1.43317 -1.33115 0
M  V30 285 O 26.4176 -1.89057 -1.94858 0
M  V30 286 C 24.8736 -3.599 -0.00542052 0
M  V30 287 C 24.4816 -4.27257 1.34742 0
M  V30 288 C 26.2256 -4.21768 -0.4808 0
M  V30 289 C 24.1326 -5.77467 1.27614 0
M  V30 290 H 23.0626 -0.753979 0.00565033 0
M  V30 291 H 25.7136 -1.69616 0.70018 0
M  V30 292 H 24.0956 -3.88911 -0.745961 0
M  V30 293 H 25.2696 -4.09893 2.10534 0
M  V30 294 H 23.5846 -3.77358 1.76039 0
M  V30 295 H 26.1816 -5.31838 -0.55246 0
M  V30 296 H 26.5246 -3.88651 -1.49184 0
M  V30 297 H 27.0576 -3.97273 0.204752 0
M  V30 298 H 23.7966 -6.15196 2.26304 0
M  V30 299 H 23.3166 -5.9718 0.55996 0
M  V30 300 H 24.9956 -6.3959 0.976421 0
M  V30 301 N 25.1277 -0.289203 -1.54924 0
M  V30 302 C 26.3757 0.322879 -1.99504 0
M  V30 303 C 26.6967 1.55313 -1.1791 0
M  V30 304 O 25.9667 1.94001 -0.272097 0
M  V30 305 H 24.5467 0.122291 -0.736922 0
M  V30 306 H 27.2087 -0.397802 -1.90797 0
M  V30 307 H 26.3047 0.603061 -3.06218 0
M  V30 308 N 26.6058 1.57591 -0.0167156 0
M  V30 309 C 27.5158 2.1291 0.98521 0
M  V30 310 C 28.5318 1.07834 1.36557 0
M  V30 311 O 29.7078 1.39826 1.44951 0
M  V30 312 C 26.7728 2.63512 2.25305 0
M  V30 313 C 25.8338 3.83256 1.93426 0
M  V30 314 C 25.0668 4.31435 3.14165 0
M  V30 315 O 25.2898 3.78851 4.26413 0
M  V30 316 O 24.2238 5.23416 2.97186 0
M  V30 317 H 28.0498 2.98772 0.544888 0
M  V30 318 H 25.6348 1.48012 0.203141 0
M  V30 319 H 27.5168 2.96183 2.99756 0
M  V30 320 H 26.1918 1.8074 2.68542 0
M  V30 321 H 25.0988 3.55531 1.16398 0
M  V30 322 H 26.4318 4.67153 1.55013 0
M  V30 323 N 28.0839 -0.256276 1.55502 0
M  V30 324 C 29.3139 -1.00196 1.80677 0
M  V30 325 C 29.7219 -1.79805 0.588797 0
M  V30 326 O 29.0649 -1.78055 -0.451883 0
M  V30 327 C 29.1269 -1.99515 2.99055 0
M  V30 328 C 28.7909 -1.38688 4.35448 0
M  V30 329 C 29.7879 -0.794079 5.138 0
M  V30 330 C 27.4729 -1.40906 4.82132 0
M  V30 331 C 29.4669 -0.231562 6.36979 0
M  V30 332 C 27.1539 -0.842684 6.05262 0
M  V30 333 C 28.1519 -0.254953 6.82524 0
M  V30 334 O 27.8399 0.3027 8.0333 0
M  V30 335 H 27.5719 -0.300919 0.60533 0
M  V30 336 H 30.1259 -0.287307 2.03381 0
M  V30 337 H 28.3559 -2.74785 2.72084 0
M  V30 338 H 30.0449 -2.60349 3.11405 0
M  V30 339 H 30.8109 -0.769519 4.78856 0
M  V30 340 H 26.6899 -1.85591 4.21992 0
M  V30 341 H 30.2339 0.227816 6.97228 0
M  V30 342 H 26.1309 -0.86454 6.39684 0
M  V30 343 H 26.8989 0.193662 8.18271 0
M  V30 344 N 29.562 -1.4872 -0.521534 0
M  V30 345 C 30.787 -1.61101 -1.30618 0
M  V30 346 C 31.212 -0.274611 -1.86085 0
M  V30 347 O 30.57 0.754937 -1.64834 0
M  V30 348 C 30.618 -2.66709 -2.4269 0
M  V30 349 O 29.722 -2.24456 -3.45967 0
M  V30 350 H 29.063 -0.539921 -0.386499 0
M  V30 351 H 31.593 -1.94767 -0.626645 0
M  V30 352 H 31.603 -2.88245 -2.88754 0
M  V30 353 H 30.278 -3.63727 -2.01682 0
M  V30 354 H 28.855 -2.13168 -3.05964 0
M  V30 355 N 31.0401 0.771051 -1.3745 0
M  V30 356 C 31.9701 1.89827 -1.3597 0
M  V30 357 C 32.9511 1.68562 -0.228216 0
M  V30 358 O 34.1361 1.8941 -0.428675 0
M  V30 359 C 31.2661 3.2712 -1.16662 0
M  V30 360 C 30.2201 3.6295 -2.2683 0
M  V30 361 C 29.5461 4.98791 -1.92644 0
M  V30 362 C 30.8461 3.69627 -3.69017 0
M  V30 363 H 32.5401 1.91323 -2.30295 0
M  V30 364 H 30.0861 0.919082 -1.10855 0
M  V30 365 H 32.0391 4.05615 -1.14256 0
M  V30 366 H 30.7631 3.26059 -0.187926 0
M  V30 367 H 29.4221 2.86763 -2.28392 0
M  V30 368 H 29.0701 4.94271 -0.933021 0
M  V30 369 H 28.7701 5.23733 -2.66416 0
M  V30 370 H 30.2941 5.79685 -1.91826 0
M  V30 371 H 31.7081 4.38273 -3.69581 0
M  V30 372 H 30.1051 4.06067 -4.41848 0
M  V30 373 H 31.1751 2.70273 -4.02592 0
M  V30 374 N 32.5182 1.22032 0.997298 0
M  V30 375 C 33.4282 1.00271 2.12092 0
M  V30 376 C 34.4442 -0.047621 1.73935 0
M  V30 377 O 35.6202 0.144136 2.00884 0
M  V30 378 C 32.6852 0.578449 3.4184 0
M  V30 379 C 31.7462 1.70189 3.94125 0
M  V30 380 C 30.9792 1.29778 5.17681 0
M  V30 381 O 31.2022 0.174676 5.70132 0
M  V30 382 O 30.1362 2.11261 5.63607 0
M  V30 383 H 33.9622 1.94398 2.3333 0
M  V30 384 H 31.5472 1.00587 1.10465 0
M  V30 385 H 33.4292 0.351998 4.19927 0
M  V30 386 H 32.1042 -0.334019 3.21972 0
M  V30 387 H 31.0112 1.98282 3.1723 0
M  V30 388 H 32.3442 2.59206 4.18417 0
M  V30 389 N 33.9963 -1.19345 1.0293 0
M  V30 390 C 35.2243 -1.92997 0.745644 0
M  V30 391 C 35.6393 -1.75519 -0.695589 0
M  V30 392 O 34.9963 -1.07737 -1.47306 0
M  V30 393 C 35.0473 -3.44741 1.08792 0
M  V30 394 O 34.7683 -3.61658 2.47256 0
M  V30 395 C 36.2693 -4.35515 0.827129 0
M  V30 396 H 33.4893 -0.613042 0.272801 0
M  V30 397 H 36.0333 -1.51473 1.3739 0
M  V30 398 H 34.1883 -3.84097 0.504832 0
M  V30 399 H 34.6023 -4.55514 2.60015 0
M  V30 400 H 36.0763 -5.40589 1.11658 0
M  V30 401 H 36.5533 -4.38552 -0.238436 0
M  V30 402 H 37.1593 -4.01841 1.39297 0
M  V30 403 N 35.4744 -0.807222 -1.35358 0
M  V30 404 C 36.4044 -0.232509 -2.3234 0
M  V30 405 C 37.3854 0.642386 -1.57504 0
M  V30 406 O 38.5704 0.572526 -1.85569 0
M  V30 407 C 35.7004 0.619238 -3.41735 0
M  V30 408 C 34.6544 -0.157215 -4.27711 0
M  V30 409 C 33.9804 0.816273 -5.28433 0
M  V30 410 C 35.2804 -1.35656 -5.04376 0
M  V30 411 H 36.9744 -1.04276 -2.80654 0
M  V30 412 H 34.5204 -0.50288 -1.34934 0
M  V30 413 H 36.4734 1.03137 -4.08584 0
M  V30 414 H 35.1974 1.46239 -2.92031 0
M  V30 415 H 33.8564 -0.550525 -3.62443 0
M  V30 416 H 33.5044 1.65494 -4.74996 0
M  V30 417 H 33.2044 0.301067 -5.86828 0
M  V30 418 H 34.7284 1.22659 -5.98153 0
M  V30 419 H 36.1424 -1.01927 -5.64166 0
M  V30 420 H 34.5394 -1.8063 -5.7227 0
M  V30 421 H 35.6094 -2.14288 -4.34981 0
M  V30 422 N 36.9525 1.47285 -0.560781 0
M  V30 423 C 38.1775 2.07359 -0.0410566 0
M  V30 424 C 38.6025 1.41017 1.24483 0
M  V30 425 O 37.9605 0.486368 1.74654 0
M  V30 426 C 38.0085 3.6035 0.134123 0
M  V30 427 O 37.1125 3.94681 1.19587 0
M  V30 428 H 36.4535 0.661887 -0.0529291 0
M  V30 429 H 38.9835 1.89252 -0.777482 0
M  V30 430 H 38.9935 4.0652 0.347207 0
M  V30 431 H 37.6685 4.08034 -0.805047 0
M  V30 432 H 36.2455 3.60251 0.962987 0
M  V30 433 N 38.4306 0.297415 1.54768 0
M  V30 434 C 39.6606 -0.315165 2.04182 0
M  V30 435 C 40.0686 -1.4834 1.17439 0
M  V30 436 O 39.4116 -1.82695 0.191891 0
M  V30 437 C 39.4736 -0.837583 3.49607 0
M  V30 438 C 39.1376 0.204912 4.5654 0
M  V30 439 C 40.1346 1.03214 5.09552 0
M  V30 440 C 37.8196 0.345578 5.0111 0
M  V30 441 C 39.8136 1.986 6.05671 0
M  V30 442 C 37.5006 1.30289 5.97049 0
M  V30 443 C 38.4986 2.12159 6.49213 0
M  V30 444 O 38.1866 3.06268 7.43273 0
M  V30 445 H 37.9186 -0.0729646 0.672051 0
M  V30 446 H 40.4726 0.433907 2.00765 0
M  V30 447 H 38.7026 -1.63712 3.50336 0
M  V30 448 H 40.3916 -1.36566 3.82236 0
M  V30 449 H 41.1576 0.934312 4.75916 0
M  V30 450 H 37.0366 -0.28171 4.60138 0
M  V30 451 H 40.5806 2.62542 6.46311 0
M  V30 452 H 36.4776 1.40145 6.30103 0
M  V30 453 H 37.2456 3.01205 7.61064 0
M  V30 454 N 39.9087 -1.5758 0.0250728 0
M  V30 455 C 41.1857 -1.82917 -0.692873 0
M  V30 456 C 41.5657 -0.908137 -1.90568 0
M  V30 457 O 40.9137 0.0372298 -2.2847 0
M  V30 458 C 41.1237 -3.32034 -1.07492 0
M  V30 459 C 42.4717 -3.98406 -1.46826 0
M  V30 460 O 43.4957 -3.36505 -1.16801 0
M  V30 461 O 42.3547 -5.07497 -2.02754 0
M  V30 462 H 39.4487 -0.754079 -0.33955 0
M  V30 463 H 41.9947 -1.69619 0.0524456 0
M  V30 464 H 40.7667 -3.90728 -0.211552 0
M  V30 465 H 40.3897 -3.50424 -1.87854 0
M  V30 466 N 41.3868 0.248026 -1.55636 0
M  V30 467 C 42.6118 0.998028 -1.81808 0
M  V30 468 C 43.0368 1.78207 -0.601979 0
M  V30 469 O 42.3948 1.75653 0.448961 0
M  V30 470 C 42.4428 1.9125 -3.05705 0
M  V30 471 O 41.5468 3.00406 -2.82542 0
M  V30 472 H 40.8878 0.284045 -0.600179 0
M  V30 473 H 43.4178 0.269357 -2.02819 0
M  V30 474 H 43.4278 2.32737 -3.35108 0
M  V30 475 H 42.1028 1.33602 -3.93857 0
M  V30 476 H 40.6798 2.63056 -2.64303 0
M  V30 477 N 42.8649 1.48995 0.513639 0
M  V30 478 C 43.7949 1.67636 1.62544 0
M  V30 479 C 44.7759 0.525087 1.61793 0
M  V30 480 O 45.9609 0.759502 1.78732 0
M  V30 481 C 43.0909 1.73114 3.01079 0
M  V30 482 C 42.0449 2.87905 3.16693 0
M  V30 483 C 41.3709 2.78486 4.56453 0
M  V30 484 C 42.6709 4.29005 2.97913 0
M  V30 485 H 44.3649 2.60716 1.47198 0
M  V30 486 H 41.9109 1.25465 0.706714 0
M  V30 487 H 43.8639 1.84742 3.78746 0
M  V30 488 H 42.5879 0.766241 3.17484 0
M  V30 489 H 41.2469 2.75859 2.41448 0
M  V30 490 H 40.8949 1.7993 4.69717 0
M  V30 491 H 40.5949 3.55523 4.67843 0
M  V30 492 H 42.1189 2.92104 5.36197 0
M  V30 493 H 43.5329 4.41798 3.65359 0
M  V30 494 H 41.9299 5.07166 3.20785 0
M  V30 495 H 42.9999 4.44329 1.94165 0
M  V30 496 N 44.343 -0.763751 1.37857 0
M  V30 497 C 45.306 -1.85889 1.34081 0
M  V30 498 C 46.306 -1.58949 0.243277 0
M  V30 499 O 47.496 -1.66882 0.499589 0
M  V30 500 C 44.628 -3.23176 1.08489 0
M  V30 501 H 45.821 -1.90648 2.31502 0
M  V30 502 H 43.374 -0.964367 1.23003 0
M  V30 503 H 44.109 -3.24091 0.116318 0
M  V30 504 H 43.894 -3.44124 1.8794 0
M  V30 505 H 45.384 -4.03254 1.08517 0
M  V30 506 N 45.8211 -1.22559 -0.990812 0
M  V30 507 C 46.7311 -1.01394 -2.11557 0
M  V30 508 C 47.7471 0.0383962 -1.73958 0
M  V30 509 O 48.9231 -0.154787 -2.00804 0
M  V30 510 C 45.9881 -0.596569 -3.41529 0
M  V30 511 C 45.0491 -1.72276 -3.93217 0
M  V30 512 C 44.2821 -1.32521 -5.16985 0
M  V30 513 O 44.5051 -0.204909 -5.70032 0
M  V30 514 O 43.4391 -2.14247 -5.62478 0
M  V30 515 H 47.2651 -1.95633 -2.32296 0
M  V30 516 H 44.8501 -1.01172 -1.0993 0
M  V30 517 H 46.7321 -0.374263 -4.19735 0
M  V30 518 H 45.4071 0.316939 -3.22145 0
M  V30 519 H 44.3141 -1.99961 -3.16174 0
M  V30 520 H 45.6471 -2.61421 -4.17037 0
M  V30 521 N 47.2992 1.18797 -1.03562 0
M  V30 522 C 48.2622 2.20464 -0.626769 0
M  V30 523 C 49.2622 1.57721 0.313173 0
M  V30 524 O 50.4522 1.73917 0.0992615 0
M  V30 525 C 47.5842 3.40802 0.0818498 0
M  V30 526 H 48.7772 2.58149 -1.5264 0
M  V30 527 H 46.3302 1.32593 -0.827578 0
M  V30 528 H 47.0652 3.08642 0.995518 0
M  V30 529 H 46.8502 3.8758 -0.593652 0
M  V30 530 H 48.3402 4.16092 0.354584 0
M  V30 531 N 48.7773 0.814389 1.34928 0
M  V30 532 C 50.0053 0.411136 2.02774 0
M  V30 533 C 50.4203 -0.980316 1.61354 0
M  V30 534 O 49.7773 -1.63299 0.814847 0
M  V30 535 C 49.8283 0.493865 3.58111 0
M  V30 536 O 49.5493 1.83047 3.98027 0
M  V30 537 C 51.0503 0.0844174 4.4322 0
M  V30 538 H 48.2703 0.166037 0.650133 0
M  V30 539 H 50.8143 1.10018 1.72384 0
M  V30 540 H 48.9693 -0.147006 3.87121 0
M  V30 541 H 49.3833 1.79872 4.92693 0
M  V30 542 H 50.8573 0.193404 5.51661 0
M  V30 543 H 51.3343 -0.97113 4.28329 0
M  V30 544 H 51.9403 0.69875 4.19521 0
M  V30 545 N 50.2554 -1.46986 0.568584 0
M  V30 546 C 51.5034 -2.02041 0.0487022 0
M  V30 547 C 51.8244 -1.44408 -1.31039 0
M  V30 548 O 51.0944 -0.623477 -1.85714 0
M  V30 549 H 49.6744 -0.746849 0.015014 0
M  V30 550 H 52.3364 -1.80257 0.741168 0
M  V30 551 H 51.4324 -3.12085 -0.0308961 0
M  V30 552 N 51.7335 -0.305618 -1.54608 0
M  V30 553 C 52.6635 0.561482 -2.26649 0
M  V30 554 C 53.6445 1.13415 -1.26772 0
M  V30 555 O 54.8295 1.16262 -1.55553 0
M  V30 556 C 51.9595 1.73122 -3.01075 0
M  V30 557 C 50.9135 1.2887 -4.08138 0
M  V30 558 C 50.2395 2.54396 -4.70305 0
M  V30 559 C 51.5395 0.416578 -5.20636 0
M  V30 560 H 53.2335 -0.0393902 -2.99374 0
M  V30 561 H 50.7795 -0.020385 -1.43986 0
M  V30 562 H 52.7325 2.34396 -3.50195 0
M  V30 563 H 51.4565 2.3584 -2.25936 0
M  V30 564 H 50.1155 0.698991 -3.59875 0
M  V30 565 H 49.7635 3.15439 -3.918 0
M  V30 566 H 49.4635 2.25486 -5.42614 0
M  V30 567 H 50.9875 3.16464 -5.2219 0
M  V30 568 H 52.4015 0.935116 -5.65622 0
M  V30 569 H 50.7985 0.221046 -5.99693 0
M  V30 570 H 51.8685 -0.557162 -4.81688 0
M  V30 571 N 53.2116 1.57565 -0.0334293 0
M  V30 572 C 54.4366 1.96689 0.657895 0
M  V30 573 C 54.8616 0.910057 1.64619 0
M  V30 574 O 54.2196 -0.128598 1.80843 0
M  V30 575 C 54.2676 3.34905 1.33683 0
M  V30 576 O 53.3716 3.31574 2.45219 0
M  V30 577 H 52.7126 0.641205 0.172489 0
M  V30 578 H 55.2426 2.04372 -0.0965621 0
M  V30 579 H 55.2526 3.71234 1.69262 0
M  V30 580 H 53.9276 4.11366 0.612411 0
M  V30 581 H 52.5046 3.06968 2.11719 0
M  V30 582 N 54.6897 -0.239769 1.55765 0
M  V30 583 C 55.6367 -1.29696 1.90913 0
M  V30 584 C 56.6067 -1.47478 0.764164 0
M  V30 585 O 57.7917 -1.61345 1.01845 0
M  V30 586 C 54.9317 -2.64598 2.21544 0
M  V30 587 C 54.0447 -2.54765 3.48882 0
M  V30 588 C 53.1797 -3.82069 3.69049 0
M  V30 589 C 52.2187 -3.66883 4.89963 0
M  V30 590 N 51.3557 -4.86094 5.06614 0
M  V30 591 H 56.1957 -0.990224 2.81067 0
M  V30 592 H 53.7327 -0.477684 1.39128 0
M  V30 593 H 55.6907 -3.43132 2.3731 0
M  V30 594 H 54.3207 -2.93405 1.34585 0
M  V30 595 H 53.3727 -1.67763 3.41409 0
M  V30 596 H 54.6847 -2.39457 4.37563 0
M  V30 597 H 53.8387 -4.69046 3.84812 0
M  V30 598 H 52.5777 -4.00282 2.78614 0
M  V30 599 H 51.5827 -2.78289 4.74168 0
M  V30 600 H 52.8077 -3.50157 5.81865 0
M  V30 601 H 50.7537 -5.04655 4.19117 0
M  V30 602 H 50.6707 -4.73443 5.89396 0
M  V30 603 H 51.9387 -5.74549 5.26795 0
M  V30 604 N 56.1678 -1.49265 -0.50573 0
M  V30 605 C 57.3928 -1.62478 -1.28902 0
M  V30 606 C 57.8178 -0.294332 -1.85783 0
M  V30 607 O 57.1758 0.737412 -1.65626 0
M  V30 608 C 57.2238 -2.69268 -2.39848 0
M  V30 609 O 56.3278 -2.28113 -3.43567 0
M  V30 610 H 55.6688 -0.54399 -0.380751 0
M  V30 611 H 58.1988 -1.95421 -0.605952 0
M  V30 612 H 58.2088 -2.91291 -2.85681 0
M  V30 613 H 56.8838 -3.65846 -1.97812 0
M  V30 614 H 55.4608 -2.16401 -3.03685 0
M  V30 615 N 57.6459 0.756429 -1.3826 0
M  V30 616 C 58.8939 1.51248 -1.34047 0
M  V30 617 C 59.2149 1.94875 0.0698372 0
M  V30 618 O 58.4849 1.67436 1.01696 0
M  V30 619 H 57.0649 0.561018 -0.493222 0
M  V30 620 H 59.7269 0.899347 -1.7291 0
M  V30 621 H 58.8229 2.40472 -1.98947 0
M  V30 622 N 59.124 1.23083 0.984299 0
M  V30 623 C 60.054 1.03292 2.09411 0
M  V30 624 C 61.035 -0.048923 1.7003 0
M  V30 625 O 62.22 0.114967 1.93859 0
M  V30 626 C 59.35 0.619155 3.41736 0
M  V30 627 C 58.304 1.64791 3.95004 0
M  V30 628 C 57.63 1.0897 5.23478 0
M  V30 629 C 58.93 3.03999 4.24714 0
M  V30 630 H 60.624 1.96119 2.26225 0
M  V30 631 H 58.17 0.944344 1.08711 0
M  V30 632 H 60.123 0.467777 4.18796 0
M  V30 633 H 58.847 -0.344786 3.24775 0
M  V30 634 H 57.506 1.78721 3.20085 0
M  V30 635 H 57.154 0.11686 5.02864 0
M  V30 636 H 56.854 1.77704 5.60085 0
M  V30 637 H 58.378 0.950093 6.03163 0
M  V30 638 H 59.792 2.93393 4.92538 0
M  V30 639 H 58.189 3.69936 4.72512 0
M  V30 640 H 59.259 3.53285 3.32142 0
M  V30 641 N 60.6021 -1.18246 1.0419 0
M  V30 642 C 61.8511 -1.87588 0.741194 0
M  V30 643 C 62.1641 -1.81303 -0.734066 0
M  V30 644 O 63.3701 -2.46019 -1.14834 0
M  V30 645 C 61.8261 -3.36538 1.27555 0
M  V30 646 C 61.4341 -3.51349 2.77953 0
M  V30 647 C 63.1781 -4.11273 1.05143 0
M  V30 648 C 61.0851 -4.94265 3.2474 0
M  V30 649 H 60.0151 -0.702622 0.273565 0
M  V30 650 H 62.6661 -1.33601 1.25789 0
M  V30 651 H 61.0481 -3.9 0.686703 0
M  V30 652 H 62.2221 -3.08153 3.42605 0
M  V30 653 H 60.5371 -2.90022 2.98791 0
M  V30 654 H 63.1341 -5.16689 1.37611 0
M  V30 655 H 63.4771 -4.16298 -0.0112774 0
M  V30 656 H 64.0101 -3.63987 1.60495 0
M  V30 657 H 60.7491 -4.94408 4.30396 0
M  V30 658 H 60.2691 -5.38172 2.64823 0
M  V30 659 H 61.9481 -5.62987 3.18834 0
M  V30 660 N 62.0802 -0.821533 -1.34494 0
M  V30 661 C 63.3102 -0.421272 -2.02259 0
M  V30 662 C 63.7182 0.977047 -1.6202 0
M  V30 663 O 63.0612 1.64348 -0.820703 0
M  V30 664 C 63.1232 -0.44231 -3.56769 0
M  V30 665 C 62.7872 -1.79372 -4.20327 0
M  V30 666 C 63.7842 -2.75435 -4.40944 0
M  V30 667 C 61.4692 -2.08182 -4.57127 0
M  V30 668 C 63.4632 -3.98482 -4.97484 0
M  V30 669 C 61.1502 -3.31489 -5.13379 0
M  V30 670 C 62.1482 -4.26457 -5.33501 0
M  V30 671 O 61.8362 -5.47585 -5.88562 0
M  V30 672 H 61.5682 -0.167473 -0.654927 0
M  V30 673 H 64.1222 -1.11073 -1.72777 0
M  V30 674 H 62.3522 0.303836 -3.85505 0
M  V30 675 H 64.0412 -0.0622925 -4.05852 0
M  V30 676 H 64.8072 -2.54473 -4.12878 0
M  V30 677 H 60.6862 -1.35066 -4.4077 0
M  V30 678 H 64.2302 -4.72618 -5.13106 0
M  V30 679 H 60.1272 -3.52316 -5.40873 0
M  V30 680 H 60.8952 -5.49086 -6.06998 0
M  V30 681 N 63.5583 1.46682 -0.576371 0
M  V30 682 C 64.5083 2.27278 0.181288 0
M  V30 683 C 65.4923 1.35497 0.867721 0
M  V30 684 O 66.6843 1.59717 0.762863 0
M  V30 685 C 63.8133 3.21703 1.19841 0
M  V30 686 C 62.8993 4.20969 0.51442 0
M  V30 687 N 63.2903 5.03999 -0.426407 0
M  V30 688 C 61.5883 4.39373 0.765963 0
M  V30 689 C 62.2893 5.75812 -0.825565 0
M  V30 690 N 61.2653 5.43315 -0.176116 0
M  V30 691 H 65.0673 2.88863 -0.541785 0
M  V30 692 H 62.5813 1.57455 -0.397697 0
M  V30 693 H 64.5783 3.78145 1.75533 0
M  V30 694 H 63.2383 2.61677 1.92238 0
M  V30 695 H 64.2493 5.11659 -0.8016 0
M  V30 696 H 60.9263 3.90502 1.47698 0
M  V30 697 H 62.3163 6.52577 -1.59976 0
M  V30 698 N 65.0364 0.313813 1.54444 0
M  V30 699 C 66.2834 -0.291675 2.00388 0
M  V30 700 C 66.6114 -1.52904 1.2021 0
M  V30 701 O 65.8664 -1.93833 0.269707 0
M  V30 702 C 66.1654 -0.680386 3.50864 0
M  V30 703 C 65.8314 0.456699 4.48581 0
M  V30 704 C 64.4934 0.768824 4.75018 0
M  V30 705 C 66.8454 1.22098 5.06697 0
M  V30 706 C 64.1734 1.84812 5.56831 0
M  V30 707 C 66.5254 2.29029 5.89685 0
M  V30 708 C 65.1894 2.60834 6.14428 0
M  V30 709 H 64.4594 -0.106732 0.733273 0
M  V30 710 H 67.1064 0.43557 1.86481 0
M  V30 711 H 65.4114 -1.48791 3.62448 0
M  V30 712 H 67.1084 -1.16026 3.83847 0
M  V30 713 H 63.6984 0.203337 4.28117 0
M  V30 714 H 67.8824 0.993096 4.86263 0
M  V30 715 H 63.1384 2.09912 5.74236 0
M  V30 716 H 67.3124 2.887 6.33739 0
M  V30 717 H 64.9394 3.44596 6.77612 0
M  V30 718 N 66.5145 -1.57545 0.0417849 0
M  V30 719 C 67.9255 -1.80011 -0.495259 0
M  V30 720 C 68.2765 -0.953199 -1.71489 0
M  V30 721 O 67.4015 -0.167138 -2.15754 0
M  V30 722 C 67.9965 -3.26482 -0.905265 0
M  V30 723 C 66.5555 -3.499 -1.38734 0
M  V30 724 C 65.7025 -2.74979 -0.358056 0
M  V30 725 H 68.6535 -1.56425 0.267736 0
M  V30 726 H 68.6745 -3.36887 -1.76882 0
M  V30 727 H 68.1865 -3.88096 -0.017401 0
M  V30 728 H 66.2875 -2.93553 -2.29471 0
M  V30 729 H 66.4005 -4.58615 -1.38598 0
M  V30 730 H 64.7645 -2.40834 -0.828912 0
M  V30 731 H 65.5475 -3.39315 0.521561 0
M  V30 732 N 67.9926 0.231505 -1.5589 0
M  V30 733 C 69.2176 0.978689 -1.82856 0
M  V30 734 C 69.6426 1.77559 -0.620846 0
M  V30 735 O 69.0006 1.76119 0.430305 0
M  V30 736 C 69.0486 1.87997 -3.07716 0
M  V30 737 O 68.1526 2.97393 -2.85712 0
M  V30 738 H 67.4936 0.277663 -0.603158 0
M  V30 739 H 70.0236 0.24783 -2.03093 0
M  V30 740 H 70.0336 2.2917 -3.37558 0
M  V30 741 H 68.7086 1.29417 -3.95252 0
M  V30 742 H 67.2856 2.60238 -2.67078 0
M  V30 743 N 69.4707 1.49531 0.497807 0
M  V30 744 C 70.8867 1.36365 0.829266 0
M  V30 745 C 71.0867 0.399184 1.97506 0
M  V30 746 O 70.1427 -0.167977 2.51941 0
M  V30 747 C 71.4557 2.77153 1.16647 0
M  V30 748 C 73.0037 2.85877 1.27449 0
M  V30 749 C 73.4787 4.2744 1.64497 0
M  V30 750 N 74.9697 4.30265 1.7154 0
M  V30 751 C 75.7047 5.3677 2.01656 0
M  V30 752 N 75.2007 6.53516 2.29976 0
M  V30 753 N 76.9937 5.24189 2.02934 0
M  V30 754 H 69.1447 2.10831 -0.257703 0
M  V30 755 H 71.4077 0.946534 -0.0527091 0
M  V30 756 H 71.1137 3.49442 0.397872 0
M  V30 757 H 70.9877 3.12722 2.10915 0
M  V30 758 H 73.3747 2.13824 2.0338 0
M  V30 759 H 73.4557 2.53887 0.312244 0
M  V30 760 H 73.0997 5.00021 0.891151 0
M  V30 761 H 73.0297 4.56896 2.61827 0
M  V30 762 H 75.5207 3.4607 1.51802 0
M  V30 763 H 75.8337 7.30506 2.52153 0
M  V30 764 H 74.1787 6.56737 2.27425 0
M  V30 765 H 77.3697 4.31988 1.80289 0
M  V30 766 H 77.5427 6.07286 2.26071 0
M  V30 767 N 70.9488 -0.749086 1.3866 0
M  V30 768 C 71.8988 -1.85368 1.32751 0
M  V30 769 C 72.8828 -1.59511 0.210945 0
M  V30 770 O 74.0748 -1.71255 0.447299 0
M  V30 771 C 71.2038 -3.23131 1.15935 0
M  V30 772 C 70.2898 -3.54864 2.32233 0
M  V30 773 N 70.6808 -3.57625 3.57684 0
M  V30 774 C 68.9788 -3.85154 2.24883 0
M  V30 775 C 69.6798 -3.86753 4.34508 0
M  V30 776 N 68.6558 -4.03812 3.63918 0
M  V30 777 H 72.4578 -1.85787 2.27729 0
M  V30 778 H 69.9718 -0.946658 1.31955 0
M  V30 779 H 71.9688 -4.02185 1.09786 0
M  V30 780 H 70.6288 -3.23961 0.218947 0
M  V30 781 H 71.6398 -3.39276 3.91295 0
M  V30 782 H 68.3168 -3.93672 1.39027 0
M  V30 783 H 69.7068 -3.95474 5.43185 0
M  V30 784 N 72.4269 -1.23603 -0.977757 0
M  V30 785 C 73.3899 -1.02069 -2.05218 0
M  V30 786 C 74.3899 0.0184305 -1.60789 0
M  V30 787 O 75.5799 -0.221569 -1.72785 0
M  V30 788 C 72.7119 -0.544926 -3.36517 0
M  V30 789 H 73.9049 -1.9742 -2.25755 0
M  V30 790 H 71.4579 -1.05684 -1.15155 0
M  V30 791 H 72.1929 0.412241 -3.21669 0
M  V30 792 H 71.9779 -1.2948 -3.70105 0
M  V30 793 H 73.4679 -0.414985 -4.15533 0
M  V30 794 N 73.905 1.17692 -1.04816 0
M  V30 795 C 74.835 2.23777 -0.666791 0
M  V30 796 C 75.816 1.66796 0.33361 0
M  V30 797 O 77.001 1.93039 0.212042 0
M  V30 798 C 74.131 3.47281 -0.0367933 0
M  V30 799 C 73.085 4.17059 -0.961546 0
M  V30 800 C 72.411 5.34342 -0.195626 0
M  V30 801 C 73.711 4.69713 -2.28402 0
M  V30 802 H 75.405 2.55933 -1.55367 0
M  V30 803 H 72.951 1.23019 -0.748484 0
M  V30 804 H 74.904 4.20706 0.241775 0
M  V30 805 H 73.628 3.14381 0.885004 0
M  V30 806 H 72.287 3.45541 -1.22462 0
M  V30 807 H 71.935 4.97692 0.728816 0
M  V30 808 H 71.635 5.81966 -0.811775 0
M  V30 809 H 73.159 6.10553 0.0757473 0
M  V30 810 H 74.573 5.34794 -2.06563 0
M  V30 811 H 72.97 5.279 -2.8538 0
M  V30 812 H 74.04 3.86726 -2.92525 0
M  V30 813 N 75.3831 0.828654 1.34056 0
M  V30 814 C 76.3131 0.269443 2.3194 0
M  V30 815 C 77.2941 -0.617247 1.58506 0
M  V30 816 O 78.4791 -0.542931 1.86456 0
M  V30 817 C 75.6091 -0.564793 3.42677 0
M  V30 818 C 74.5631 0.225241 4.27407 0
M  V30 819 C 73.8891 -0.7321 5.29664 0
M  V30 820 C 75.1891 1.43663 5.02154 0
M  V30 821 H 76.8831 1.08728 2.7896 0
M  V30 822 H 74.4291 0.524283 1.34117 0
M  V30 823 H 76.3821 -0.966233 4.10173 0
M  V30 824 H 75.1061 -1.41574 2.9432 0
M  V30 825 H 73.7651 0.608117 3.61521 0
M  V30 826 H 73.4131 -1.57916 4.77568 0
M  V30 827 H 73.1131 -0.20767 5.87233 0
M  V30 828 H 74.6371 -1.13128 6.00029 0
M  V30 829 H 76.0511 1.1089 5.62473 0
M  V30 830 H 74.4481 1.89711 5.69324 0
M  V30 831 H 75.5181 2.21181 4.31517 0
M  V30 832 N 76.8612 -1.46375 0.584142 0
M  V30 833 C 77.7912 -2.33103 -0.136037 0
M  V30 834 C 78.7722 -1.45431 -0.882255 0
M  V30 835 O 79.9572 -1.74246 -0.857434 0
M  V30 836 C 77.0872 -3.27731 -1.14933 0
M  V30 837 C 76.0412 -4.24855 -0.517862 0
M  V30 838 C 75.3672 -5.09001 -1.63773 0
M  V30 839 C 76.6672 -5.19439 0.545886 0
M  V30 840 H 78.3612 -2.93568 0.588086 0
M  V30 841 H 75.9072 -1.41166 0.284259 0
M  V30 842 H 77.8602 -3.87261 -1.66153 0
M  V30 843 H 76.5842 -2.65377 -1.90375 0
M  V30 844 H 75.2432 -3.6659 -0.0267361 0
M  V30 845 H 74.8912 -4.43031 -2.38185 0
M  V30 846 H 74.5912 -5.74777 -1.22085 0
M  V30 847 H 76.1152 -5.71396 -2.15266 0
M  V30 848 H 77.5292 -5.73177 0.118704 0
M  V30 849 H 75.9262 -5.93566 0.88317 0
M  V30 850 H 76.9962 -4.63285 1.43162 0
M  V30 851 N 78.3393 -0.321999 -1.54275 0
M  V30 852 C 79.5873 0.280489 -2.00144 0
M  V30 853 C 79.9083 1.52777 -1.21178 0
M  V30 854 O 79.1783 1.9338 -0.313187 0
M  V30 855 H 77.7583 0.106632 -0.73935 0
M  V30 856 H 80.4203 -0.438184 -1.8991 0
M  V30 857 H 79.5163 0.537972 -3.07428 0
M  V30 858 N 79.8174 1.5752 -0.0501392 0
M  V30 859 C 80.7504 2.07026 0.959962 0
M  V30 860 C 81.7284 0.970539 1.30458 0
M  V30 861 O 82.9124 1.2424 1.41763 0
M  V30 862 C 80.0394 2.5099 2.27424 0
M  V30 863 C 79.0854 3.72188 2.08275 0
M  V30 864 S 79.9184 5.17888 1.36207 0
M  V30 865 C 81.0744 5.65165 2.6896 0
M  V30 866 H 81.3074 2.9238 0.538631 0
M  V30 867 H 78.8404 1.53547 0.162099 0
M  V30 868 H 80.7984 2.76982 3.02971 0
M  V30 869 H 79.4594 1.65944 2.66686 0
M  V30 870 H 78.6524 4.00866 3.05487 0
M  V30 871 H 78.2544 3.46457 1.40868 0
M  V30 872 H 80.5464 5.70687 3.65133 0
M  V30 873 H 81.4894 6.64394 2.4492 0
M  V30 874 H 81.8974 4.9289 2.75172 0
M  V30 875 N 81.2955 -0.223234 1.56011 0
M  V30 876 C 82.2455 -1.28008 1.88674 0
M  V30 877 C 83.2295 -1.42369 0.749663 0
M  V30 878 O 84.4215 -1.45212 1.01205 0
M  V30 879 C 81.5505 -2.63084 2.20548 0
M  V30 880 C 80.6365 -2.52632 3.40643 0
M  V30 881 N 81.0275 -2.11829 4.59306 0
M  V30 882 C 79.3255 -2.83594 3.44224 0
M  V30 883 C 80.0265 -2.12587 5.41463 0
M  V30 884 N 79.0025 -2.5301 4.81131 0
M  V30 885 H 82.8045 -0.955487 2.77935 0
M  V30 886 H 80.3185 -0.431801 1.56554 0
M  V30 887 H 82.3155 -3.39385 2.42122 0
M  V30 888 H 80.9755 -2.96391 1.32599 0
M  V30 889 H 81.9865 -1.82988 4.84496 0
M  V30 890 H 78.6635 -3.21284 2.66614 0
M  V30 891 H 80.0535 -1.83179 6.46448 0
M  V30 892 N 82.7736 -1.49793 -0.48987 0
M  V30 893 C 83.6836 -1.70036 -1.61632 0
M  V30 894 C 84.6996 -0.583102 -1.63939 0
M  V30 895 O 85.8756 -0.859169 -1.82154 0
M  V30 896 C 82.9406 -1.77277 -2.97949 0
M  V30 897 C 82.0016 -3.00918 -3.06181 0
M  V30 898 C 81.2346 -3.07804 -4.35996 0
M  V30 899 O 81.4576 -2.21982 -5.25433 0
M  V30 900 O 80.3916 -4.00369 -4.49431 0
M  V30 901 H 84.2176 -2.65486 -1.47482 0
M  V30 902 H 81.8026 -1.33666 -0.667362 0
M  V30 903 H 83.6846 -1.84329 -3.78947 0
M  V30 904 H 82.3596 -0.850076 -3.12339 0
M  V30 905 H 81.2666 -2.99377 -2.2433 0
M  V30 906 H 82.5996 -3.92704 -2.96723 0
M  V30 907 N 84.2517 0.741722 -1.39055 0
M  V30 908 C 85.1817 1.869 -1.39966 0
M  V30 909 C 86.1627 1.6804 -0.26392 0
M  V30 910 O 87.3477 1.88458 -0.468755 0
M  V30 911 C 84.4777 3.24572 -1.23574 0
M  V30 912 C 83.4317 3.58056 -2.34477 0
M  V30 913 C 82.7577 4.94593 -2.0318 0
M  V30 914 C 84.0577 3.61716 -3.76774 0
M  V30 915 H 85.7517 1.86395 -2.34302 0
M  V30 916 H 83.2977 0.895361 -1.1278 0
M  V30 917 H 85.2507 4.031 -1.22834 0
M  V30 918 H 83.9747 3.25587 -0.257045 0
M  V30 919 H 82.6337 2.81854 -2.34423 0
M  V30 920 H 82.2817 4.92181 -1.03765 0
M  V30 921 H 81.9817 5.17964 -2.77465 0
M  V30 922 H 83.5057 5.75486 -2.04079 0
M  V30 923 H 84.9197 4.30335 -3.78794 0
M  V30 924 H 83.3167 3.96603 -4.50362 0
M  V30 925 H 84.3867 2.61672 -4.08235 0
M  V30 926 N 85.7298 1.2412 0.971189 0
M  V30 927 C 86.6598 1.05508 2.08304 0
M  V30 928 C 87.6408 -0.0308864 1.70072 0
M  V30 929 O 88.8258 0.135521 1.93727 0
M  V30 930 C 85.9558 0.655365 3.4106 0
M  V30 931 C 84.9098 1.68971 3.93234 0
M  V30 932 C 84.2358 1.14516 5.22293 0
M  V30 933 C 85.5358 3.08487 4.21465 0
M  V30 934 H 87.2298 1.98507 2.24132 0
M  V30 935 H 84.7758 0.955821 1.07704 0
M  V30 936 H 86.7288 0.51217 4.18276 0
M  V30 937 H 85.4528 -0.31032 3.25122 0
M  V30 938 H 84.1118 1.82106 3.18171 0
M  V30 939 H 83.7598 0.170189 5.02712 0
M  V30 940 H 83.4598 1.83635 5.58168 0
M  V30 941 H 84.9838 1.01401 6.02121 0
M  V30 942 H 86.3978 2.98601 4.89398 0
M  V30 943 H 84.7948 3.74926 4.68562 0
M  V30 944 H 85.8648 3.56787 3.28376 0
M  V30 945 N 87.2079 -1.17134 1.05439 0
M  V30 946 C 88.1709 -2.19439 0.661764 0
M  V30 947 C 89.1709 -1.58199 -0.288042 0
M  V30 948 O 90.3609 -1.74053 -0.0715803 0
M  V30 949 C 87.4929 -3.40889 -0.0276209 0
M  V30 950 H 88.6859 -2.55688 1.56728 0
M  V30 951 H 86.2389 -1.31259 0.848567 0
M  V30 952 H 86.9739 -3.10187 -0.94629 0
M  V30 953 H 86.7589 -3.86586 0.655238 0
M  V30 954 H 88.2489 -4.16603 -0.288342 0
M  V30 955 N 88.686 -0.835752 -1.33615 0
M  V30 956 C 89.963 -0.352017 -1.92406 0
M  V30 957 C 90.343 1.16225 -1.76224 0
M  V30 958 O 89.691 1.97526 -1.14873 0
M  V30 959 C 89.901 -0.795485 -3.39813 0
M  V30 960 C 91.249 -0.801703 -4.16963 0
M  V30 961 O 92.273 -0.738889 -3.48452 0
M  V30 962 O 91.132 -0.886607 -5.3926 0
M  V30 963 H 88.226 -0.0989641 -0.821057 0
M  V30 964 H 90.772 -0.921397 -1.42507 0
M  V30 965 H 89.544 -1.83795 -3.45449 0
M  V30 966 H 89.167 -0.202505 -3.97084 0
M  V30 967 N 90.1641 1.46063 -0.591896 0
M  V30 968 C 91.4411 1.95595 -0.0137119 0
M  V30 969 C 91.8211 1.5345 1.4497 0
M  V30 970 O 91.1691 0.789543 2.14426 0
M  V30 971 C 91.3791 3.48453 -0.195373 0
M  V30 972 C 92.7271 4.24546 -0.0679765 0
M  V30 973 O 93.7511 3.55982 -0.124681 0
M  V30 974 O 92.6101 5.46467 0.0600579 0
M  V30 975 H 89.7041 0.825795 0.0446279 0
M  V30 976 H 92.2501 1.56303 -0.660859 0
M  V30 977 H 91.0221 3.72045 -1.21235 0
M  V30 978 H 90.6451 3.94597 0.487775 0
M  V30 979 N 91.6422 0.330177 1.54103 0
M  V30 980 C 92.8882 -0.263542 2.01685 0
M  V30 981 C 93.2432 -1.49258 1.21408 0
M  V30 982 O 92.5362 -1.89395 0.289852 0
M  V30 983 C 92.7302 -0.643134 3.51566 0
M  V30 984 C 92.5592 0.547571 4.46354 0
M  V30 985 C 91.3292 1.04873 4.94297 0
M  V30 986 C 93.5272 1.40184 4.94826 0
M  V30 987 N 91.5092 2.20316 5.73005 0
M  V30 988 C 92.8802 2.40335 5.71524 0
M  V30 989 C 94.9352 1.42884 4.76958 0
M  V30 990 C 93.6382 3.42998 6.32254 0
M  V30 991 C 95.6642 2.44421 5.38528 0
M  V30 992 C 95.0262 3.43298 6.15082 0
M  V30 993 H 91.1252 -0.0601026 0.779687 0
M  V30 994 H 93.7092 0.466714 1.89023 0
M  V30 995 H 91.8802 -1.34251 3.6446 0
M  V30 996 H 93.6122 -1.21889 3.85908 0
M  V30 997 H 90.3672 0.618956 4.69538 0
M  V30 998 H 90.7912 2.78565 6.17034 0
M  V30 999 H 95.4332 0.678049 4.17328 0
M  V30 1000 H 93.1512 4.1898 6.91 0
M  V30 1001 H 96.7372 2.4732 5.26616 0
M  V30 1002 H 95.6172 4.20579 6.61878 0
M  V30 1003 N 93.1203 -1.57491 0.0584922 0
M  V30 1004 C 94.3973 -1.84346 -0.653918 0
M  V30 1005 C 94.7773 -0.948355 -1.88599 0
M  V30 1006 O 94.1253 -0.0112403 -2.28497 0
M  V30 1007 C 94.3353 -3.34239 -1.00425 0
M  V30 1008 C 95.6833 -4.01431 -1.38342 0
M  V30 1009 O 96.7073 -3.38907 -1.09637 0
M  V30 1010 O 95.5663 -5.11683 -1.91943 0
M  V30 1011 H 92.6603 -0.761112 -0.323478 0
M  V30 1012 H 95.2063 -1.6947 0.0884125 0
M  V30 1013 H 93.9783 -3.91089 -0.128625 0
M  V30 1014 H 93.6013 -3.54329 -1.80378 0
M  V30 1015 N 94.5984 0.214957 -1.56127 0
M  V30 1016 C 95.5454 1.26642 -1.92952 0
M  V30 1017 C 96.5154 1.46244 -0.78753 0
M  V30 1018 O 97.7004 1.59704 -1.04399 0
M  V30 1019 C 94.8404 2.6104 -2.25726 0
M  V30 1020 C 93.9534 2.49183 -3.52891 0
M  V30 1021 C 93.0884 3.76149 -3.7508 0
M  V30 1022 C 92.1274 3.59041 -4.95738 0
M  V30 1023 N 91.2644 4.77972 -5.14283 0
M  V30 1024 H 96.1044 0.945384 -2.82607 0
M  V30 1025 H 93.6414 0.455489 -1.3987 0
M  V30 1026 H 95.5994 3.39313 -2.42739 0
M  V30 1027 H 94.2294 2.91227 -1.39236 0
M  V30 1028 H 93.2814 1.6231 -3.44034 0
M  V30 1029 H 94.5934 2.32466 -4.41318 0
M  V30 1030 H 93.7474 4.62865 -3.92226 0
M  V30 1031 H 92.4864 3.95799 -2.84947 0
M  V30 1032 H 91.4914 2.7071 -4.78535 0
M  V30 1033 H 92.7164 3.40856 -5.87362 0
M  V30 1034 H 90.6624 4.97923 -4.27093 0
M  V30 1035 H 90.5794 4.64006 -5.96853 0
M  V30 1036 H 91.8474 5.66096 -5.35869 0
M  V30 1037 N 96.0765 1.50051 0.48192 0
M  V30 1038 C 96.9865 1.7089 1.60728 0
M  V30 1039 C 98.0025 0.591788 1.63627 0
M  V30 1040 O 99.1785 0.868817 1.81696 0
M  V30 1041 C 96.2435 1.78855 2.97005 0
M  V30 1042 C 95.3045 3.02537 3.04581 0
M  V30 1043 C 94.5375 3.10112 4.34357 0
M  V30 1044 O 94.7605 2.24765 5.24249 0
M  V30 1045 O 93.6945 4.02747 4.47301 0
M  V30 1046 H 97.5205 2.66264 1.46072 0
M  V30 1047 H 95.1055 1.34018 0.660264 0
M  V30 1048 H 96.9875 1.86336 3.77964 0
M  V30 1049 H 95.6625 0.866628 3.11883 0
M  V30 1050 H 94.5695 3.00563 2.22739 0
M  V30 1051 H 95.9025 3.94272 2.94636 0
M  V30 1052 N 97.5546 -0.734337 1.39446 0
M  V30 1053 C 98.4846 -1.86155 1.40955 0
M  V30 1054 C 99.4656 -1.67898 0.272827 0
M  V30 1055 O 100.651 -1.88207 0.478743 0
M  V30 1056 C 97.7806 -3.23912 1.25294 0
M  V30 1057 C 96.7346 -3.56808 2.36373 0
M  V30 1058 C 96.0606 -4.93508 2.058 0
M  V30 1059 C 97.3606 -3.59713 3.78687 0
M  V30 1060 H 99.0546 -1.8515 2.35287 0
M  V30 1061 H 96.6006 -0.889367 1.13253 0
M  V30 1062 H 98.5536 -4.02443 1.2497 0
M  V30 1063 H 97.2776 -3.25446 0.274308 0
M  V30 1064 H 95.9366 -2.80606 2.35914 0
M  V30 1065 H 95.5846 -4.91623 1.06374 0
M  V30 1066 H 95.2846 -5.16486 2.80208 0
M  V30 1067 H 96.8086 -5.74396 2.07128 0
M  V30 1068 H 98.2226 -4.2832 3.81071 0
M  V30 1069 H 96.6196 -3.94209 4.52459 0
M  V30 1070 H 97.6896 -2.59504 4.09617 0
M  V30 1071 N 99.0327 -1.24633 -0.964593 0
M  V30 1072 C 100.449 -1.01239 -1.2338 0
M  V30 1073 C 100.649 0.2769 -1.99588 0
M  V30 1074 O 99.7047 0.992241 -2.32187 0
M  V30 1075 C 101.018 -2.22937 -2.01791 0
M  V30 1076 C 102.566 -2.27594 -2.14872 0
M  V30 1077 C 103.041 -3.48921 -2.96678 0
M  V30 1078 N 104.532 -3.49257 -3.04259 0
M  V30 1079 C 105.267 -4.39795 -3.67924 0
M  V30 1080 N 104.763 -5.40591 -4.33281 0
M  V30 1081 N 106.556 -4.275 -3.64966 0
M  V30 1082 H 98.7067 -2.0748 -0.454502 0
M  V30 1083 H 100.97 -0.910647 -0.26349 0
M  V30 1084 H 100.676 -3.16587 -1.53184 0
M  V30 1085 H 100.55 -2.25306 -3.02518 0
M  V30 1086 H 102.937 -1.34473 -2.6268 0
M  V30 1087 H 103.018 -2.2925 -1.13482 0
M  V30 1088 H 102.662 -4.42359 -2.49562 0
M  V30 1089 H 102.592 -3.4451 -3.98272 0
M  V30 1090 H 105.083 -2.76337 -2.57771 0
M  V30 1091 H 105.396 -6.05904 -4.79687 0
M  V30 1092 H 103.741 -5.44475 -4.3194 0
M  V30 1093 H 106.932 -3.47987 -3.13086 0
M  V30 1094 H 107.105 -4.98258 -4.14298 0
M  V30 1095 N 100.511 1.16574 -1.06058 0
M  V30 1096 C 101.788 1.83048 -0.689416 0
M  V30 1097 C 102.168 1.94122 0.829443 0
M  V30 1098 O 101.516 1.48249 1.7388 0
M  V30 1099 C 101.726 3.20186 -1.38859 0
M  V30 1100 C 103.074 3.95989 -1.53226 0
M  V30 1101 O 104.098 3.29696 -1.3483 0
M  V30 1102 O 102.957 5.14813 -1.83384 0
M  V30 1103 H 100.051 0.790258 -0.243764 0
M  V30 1104 H 102.597 1.23797 -1.16071 0
M  V30 1105 H 101.369 3.07146 -2.4244 0
M  V30 1106 H 100.992 3.87112 -0.907216 0
M  V30 1107 N 101.989 0.842826 1.3317 0
M  V30 1108 C 103.238 0.436738 1.96915 0
M  V30 1109 C 103.551 -1.01025 1.67491 0
M  V30 1110 O 104.757 -1.5212 2.24881 0
M  V30 1111 C 103.213 0.730021 3.52418 0
M  V30 1112 C 102.821 2.19195 3.90714 0
M  V30 1113 C 104.565 0.391076 4.22695 0
M  V30 1114 C 102.472 2.42907 5.39212 0
M  V30 1115 H 101.402 0.15958 0.736919 0
M  V30 1116 H 104.053 1.03196 1.51733 0
M  V30 1117 H 102.435 0.0643755 3.95948 0
M  V30 1118 H 103.609 2.8984 3.58231 0
M  V30 1119 H 101.924 2.49425 3.33431 0
M  V30 1120 H 104.521 0.545817 5.31907 0
M  V30 1121 H 104.864 -0.666294 4.10933 0
M  V30 1122 H 105.397 1.01212 3.84709 0
M  V30 1123 H 102.136 3.47224 5.55982 0
M  V30 1124 H 101.656 1.76827 5.73142 0
M  V30 1125 H 103.335 2.2626 6.06148 0
M  V30 1126 N 103.467 -1.45747 0.599634 0
M  V30 1127 C 104.695 -2.06668 0.0978551 0
M  V30 1128 C 105.11 -1.44562 -1.21439 0
M  V30 1129 O 104.467 -0.556923 -1.73795 0
M  V30 1130 C 104.518 -3.61456 -0.0567044 0
M  V30 1131 O 104.239 -4.21242 1.20361 0
M  V30 1132 C 105.74 -4.39345 -0.590869 0
M  V30 1133 H 102.96 -0.667825 0.0651943 0
M  V30 1134 H 105.504 -1.87115 0.82511 0
M  V30 1135 H 103.659 -3.80378 -0.734251 0
M  V30 1136 H 104.073 -5.14323 1.02821 0
M  V30 1137 H 105.547 -5.48182 -0.648131 0
M  V30 1138 H 106.024 -4.08568 -1.61147 0
M  V30 1139 H 106.63 -4.25268 0.0523679 0
M  V30 1140 N 104.945 -0.338344 -1.53925 0
M  V30 1141 C 106.361 0.0137736 -1.59594 0
M  V30 1142 C 106.561 1.49186 -1.35447 0
M  V30 1143 O 105.617 2.24987 -1.14616 0
M  V30 1144 C 106.93 -0.41773 -2.97784 0
M  V30 1145 C 108.478 -0.369633 -3.1081 0
M  V30 1146 C 108.953 -0.776524 -4.51369 0
M  V30 1147 N 110.444 -0.730506 -4.57403 0
M  V30 1148 C 111.179 -1.01736 -5.64303 0
M  V30 1149 N 110.675 -1.3721 -6.79077 0
M  V30 1150 N 112.468 -0.941942 -5.54151 0
M  V30 1151 H 104.619 -1.3012 -1.67876 0
M  V30 1152 H 106.882 -0.530082 -0.78595 0
M  V30 1153 H 106.588 -1.44811 -3.20504 0
M  V30 1154 H 106.462 0.209729 -3.76616 0
M  V30 1155 H 108.849 0.651568 -2.87817 0
M  V30 1156 H 108.93 -1.03223 -2.34049 0
M  V30 1157 H 108.574 -1.79571 -4.75096 0
M  V30 1158 H 108.504 -0.0914649 -5.26521 0
M  V30 1159 H 110.995 -0.468783 -3.74981 0
M  V30 1160 H 111.308 -1.57597 -7.5656 0
M  V30 1161 H 109.653 -1.4105 -6.80536 0
M  V30 1162 H 112.844 -0.664184 -4.63364 0
M  V30 1163 H 113.017 -1.16884 -6.37371 0
M  V30 1164 N 106.423 1.57458 -0.0668435 0
M  V30 1165 C 107.7 1.8469 0.644132 0
M  V30 1166 C 108.08 0.958343 1.88093 0
M  V30 1167 O 107.428 0.0233579 2.28488 0
M  V30 1168 C 107.638 3.34767 0.986509 0
M  V30 1169 C 108.986 4.02159 1.36212 0
M  V30 1170 O 110.01 3.39484 1.07839 0
M  V30 1171 O 108.869 5.12694 1.89227 0
M  V30 1172 H 105.963 0.762816 0.319437 0
M  V30 1173 H 108.509 1.6942 -0.0973986 0
M  V30 1174 H 107.281 3.91151 0.107883 0
M  V30 1175 H 106.904 3.55281 1.78497 0
M  V30 1176 N 107.901 -0.206675 1.56239 0
M  V30 1177 C 109.312 -0.772383 1.69974 0
M  V30 1178 C 109.663 -1.84353 0.671436 0
M  V30 1179 O 108.788 -2.15695 -0.174491 0
M  V30 1180 C 109.383 -1.40779 3.08167 0
M  V30 1181 C 107.942 -1.92072 3.23706 0
M  V30 1182 C 107.089 -0.786347 2.65917 0
M  V30 1183 H 110.04 0.0182223 1.5869 0
M  V30 1184 H 110.061 -2.27696 3.04852 0
M  V30 1185 H 109.573 -0.627958 3.82986 0
M  V30 1186 H 107.674 -2.7281 2.53782 0
M  V30 1187 H 107.787 -2.09046 4.31087 0
M  V30 1188 H 106.151 -1.1976 2.24788 0
M  V30 1189 H 106.934 -0.0189416 3.43295 0
M  V30 1190 N 109.379 -1.50304 -0.473955 0
M  V30 1191 C 110.289 -1.7174 -1.5982 0
M  V30 1192 C 111.305 -0.600457 -1.63311 0
M  V30 1193 O 112.481 -0.878441 -1.81233 0
M  V30 1194 C 109.546 -1.80427 -2.96052 0
M  V30 1195 C 108.607 -3.04148 -3.02972 0
M  V30 1196 C 107.84 -3.12411 -4.32706 0
M  V30 1197 O 108.063 -2.27542 -5.23049 0
M  V30 1198 O 106.997 -4.05113 -4.45159 0
M  V30 1199 H 110.823 -2.67035 -1.44657 0
M  V30 1200 H 108.408 -1.34366 -0.653148 0
M  V30 1201 H 110.29 -1.88338 -3.7697 0
M  V30 1202 H 108.965 -0.883156 -3.11419 0
M  V30 1203 H 107.872 -3.0174 -2.21142 0
M  V30 1204 H 109.205 -3.95829 -2.92541 0
M  V30 1205 N 110.857 0.726932 -1.39834 0
M  V30 1206 C 112.134 1.47902 -1.28001 0
M  V30 1207 C 112.514 2.1083 0.106789 0
M  V30 1208 O 111.862 1.99242 1.11869 0
M  V30 1209 C 112.072 2.52392 -2.41038 0
M  V30 1210 C 113.42 3.18546 -2.80737 0
M  V30 1211 O 114.444 2.62708 -2.40547 0
M  V30 1212 O 113.303 4.19604 -3.50135 0
M  V30 1213 H 110.397 0.657163 -0.502062 0
M  V30 1214 H 112.943 0.760071 -1.51727 0
M  V30 1215 H 111.715 2.04329 -3.33715 0
M  V30 1216 H 111.338 3.31837 -2.19021 0
M  V30 1217 N 112.336 1.25143 0.95797 0
M  V30 1218 C 113.747 1.08851 1.51685 0
M  V30 1219 C 114.098 -0.33687 1.93286 0
M  V30 1220 O 113.223 -1.22644 1.7829 0
M  V30 1221 C 113.818 1.96978 2.75654 0
M  V30 1222 C 112.377 1.84881 3.27866 0
M  V30 1223 C 111.524 1.91329 2.0072 0
M  V30 1224 H 114.475 1.38478 0.77522 0
M  V30 1225 H 114.496 1.5078 3.4935 0
M  V30 1226 H 114.008 3.00712 2.45345 0
M  V30 1227 H 112.109 0.840182 3.63004 0
M  V30 1228 H 112.222 2.6951 3.96107 0
M  V30 1229 H 110.586 1.35174 2.15871 0
M  V30 1230 H 111.369 2.96661 1.72764 0
M  V30 1231 N 113.814 -1.1601 1.06675 0
M  V30 1232 C 114.744 -2.22688 0.702307 0
M  V30 1233 C 115.725 -1.67306 -0.307032 0
M  V30 1234 O 116.91 -1.93352 -0.181305 0
M  V30 1235 C 114.04 -3.47178 0.092038 0
M  V30 1236 C 112.994 -4.15477 1.02777 0
M  V30 1237 C 112.32 -5.33963 0.28061 0
M  V30 1238 C 113.62 -4.66019 2.35846 0
M  V30 1239 H 115.314 -2.53429 1.59419 0
M  V30 1240 H 112.86 -1.21813 0.767961 0
M  V30 1241 H 114.813 -4.21037 -0.174814 0
M  V30 1242 H 113.537 -3.15749 -0.834877 0
M  V30 1243 H 112.196 -3.43549 1.27944 0
M  V30 1244 H 111.844 -4.98788 -0.649545 0
M  V30 1245 H 111.544 -5.806 0.904258 0
M  V30 1246 H 113.068 -6.10596 0.021396 0
M  V30 1247 H 114.482 -5.3144 2.15045 0
M  V30 1248 H 112.879 -5.23293 2.93743 0
M  V30 1249 H 113.949 -3.82023 2.98641 0
M  V30 1250 N 115.292 -0.849877 -1.32721 0
M  V30 1251 C 116.202 -0.293791 -2.32753 0
M  V30 1252 C 117.218 0.585906 -1.63839 0
M  V30 1253 O 118.394 0.487413 -1.95413 0
M  V30 1254 C 115.459 0.512752 -3.42887 0
M  V30 1255 C 114.52 -0.39252 -4.27502 0
M  V30 1256 C 113.753 0.375625 -5.32377 0
M  V30 1257 O 113.976 1.60613 -5.4732 0
M  V30 1258 O 112.91 -0.256094 -6.01355 0
M  V30 1259 H 116.736 -1.12242 -2.82197 0
M  V30 1260 H 114.321 -0.612685 -1.36259 0
M  V30 1261 H 116.203 0.970704 -4.10067 0
M  V30 1262 H 114.878 1.31826 -2.95641 0
M  V30 1263 H 113.785 -0.898547 -3.63149 0
M  V30 1264 H 115.118 -1.16309 -4.7826 0
M  V30 1265 N 116.77 1.45427 -0.607355 0
M  V30 1266 C 118.186 1.57283 -0.270985 0
M  V30 1267 C 118.386 1.59875 1.22647 0
M  V30 1268 O 117.442 1.52893 2.00948 0
M  V30 1269 C 118.755 2.85566 -0.941952 0
M  V30 1270 C 120.303 2.9924 -0.917849 0
M  V30 1271 C 120.778 4.30293 -1.56882 0
M  V30 1272 N 122.269 4.37051 -1.5343 0
M  V30 1273 C 123.004 5.37123 -2.00715 0
M  V30 1274 N 122.5 6.43734 -2.56084 0
M  V30 1275 N 124.293 5.28479 -1.91484 0
M  V30 1276 H 116.444 1.41988 -1.57966 0
M  V30 1277 H 118.707 0.67885 -0.661715 0
M  V30 1278 H 118.413 2.8955 -1.99633 0
M  V30 1279 H 118.287 3.74322 -0.465096 0
M  V30 1280 H 120.674 2.94822 0.127984 0
M  V30 1281 H 120.755 2.11895 -1.43297 0
M  V30 1282 H 120.399 4.35469 -2.61398 0
M  V30 1283 H 120.329 5.16454 -1.02873 0
M  V30 1284 H 122.82 3.60615 -1.12982 0
M  V30 1285 H 123.133 7.16341 -2.89958 0
M  V30 1286 H 121.478 6.44485 -2.60122 0
M  V30 1287 H 124.669 4.44098 -1.47967 0
M  V30 1288 H 124.842 6.0632 -2.28648 0
M  V30 1289 N 118.248 0.346503 1.53744 0
M  V30 1290 C 119.178 -0.501193 2.28058 0
M  V30 1291 C 120.159 -1.10014 1.29734 0
M  V30 1292 O 121.344 -1.12097 1.58581 0
M  V30 1293 C 118.474 -1.65078 3.05559 0
M  V30 1294 C 117.428 -1.18003 4.11411 0
M  V30 1295 C 116.754 -2.41837 4.76884 0
M  V30 1296 C 118.054 -0.278394 5.21558 0
M  V30 1297 H 119.748 0.11875 2.99164 0
M  V30 1298 H 117.294 0.0585531 1.43881 0
M  V30 1299 H 119.247 -2.25028 3.56287 0
M  V30 1300 H 117.971 -2.29767 2.32109 0
M  V30 1301 H 116.63 -0.603331 3.61601 0
M  V30 1302 H 116.278 -3.0494 4.00026 0
M  V30 1303 H 115.978 -2.1102 5.48402 0
M  V30 1304 H 117.502 -3.02508 5.30397 0
M  V30 1305 H 118.916 -0.784823 5.67903 0
M  V30 1306 H 117.313 -0.0619707 6.00068 0
M  V30 1307 H 118.383 0.684677 4.80042 0
M  V30 1308 N 119.726 -1.57421 0.075193 0
M  V30 1309 C 121.142 -1.57099 -0.281444 0
M  V30 1310 C 121.342 -1.08486 -1.69803 0
M  V30 1311 O 120.398 -0.752279 -2.41033 0
M  V30 1312 C 121.711 -3.00571 -0.0880041 0
M  V30 1313 C 123.259 -3.12605 -0.157281 0
M  V30 1314 C 123.734 -4.57999 0.0079207 0
M  V30 1315 N 125.225 -4.63176 -0.0475725 0
M  V30 1316 C 125.96 -5.73373 0.0557876 0
M  V30 1317 N 125.456 -6.92473 0.21286 0
M  V30 1318 N 127.249 -5.621 -0.00152098 0
M  V30 1319 H 119.4 -1.87335 1.00098 0
M  V30 1320 H 121.663 -0.86377 0.390646 0
M  V30 1321 H 121.369 -3.40262 0.889629 0
M  V30 1322 H 121.243 -3.67754 -0.838875 0
M  V30 1323 H 123.63 -2.72798 -1.1254 0
M  V30 1324 H 123.711 -2.48053 0.62475 0
M  V30 1325 H 123.355 -4.98496 0.972824 0
M  V30 1326 H 123.285 -5.20586 -0.793556 0
M  V30 1327 H 125.776 -3.7753 -0.167244 0
M  V30 1328 H 126.089 -7.72279 0.283781 0
M  V30 1329 H 124.434 -6.94556 0.248267 0
M  V30 1330 H 127.625 -4.67938 -0.122958 0
M  V30 1331 H 127.798 -6.47948 0.0824844 0
M  V30 1332 N 121.204 0.198386 -1.56346 0
M  V30 1333 C 122.167 1.22952 -1.93431 0
M  V30 1334 C 123.167 1.38611 -0.815092 0
M  V30 1335 O 124.357 1.36479 -1.08255 0
M  V30 1336 C 121.489 2.59946 -2.20546 0
M  V30 1337 H 122.682 0.912626 -2.85677 0
M  V30 1338 H 120.235 0.43977 -1.49986 0
M  V30 1339 H 120.97 2.96696 -1.30927 0
M  V30 1340 H 120.755 2.49953 -3.02102 0
M  V30 1341 H 122.245 3.3431 -2.50253 0
M  V30 1342 N 122.682 1.50554 0.465978 0
M  V30 1343 C 123.928 1.62038 1.21949 0
M  V30 1344 C 124.261 0.322116 1.9151 0
M  V30 1345 O 123.536 -0.676723 1.82348 0
M  V30 1346 C 123.819 2.80421 2.25912 0
M  V30 1347 C 123.672 4.20144 1.60622 0
M  V30 1348 C 124.991 2.94354 3.27176 0
M  V30 1349 H 122.11 0.589752 0.441998 0
M  V30 1350 H 124.752 1.82956 0.51257 0
M  V30 1351 H 122.902 2.62717 2.86203 0
M  V30 1352 H 124.574 4.49449 1.03889 0
M  V30 1353 H 122.817 4.24165 0.909211 0
M  V30 1354 H 123.488 4.98914 2.36196 0
M  V30 1355 H 125.964 3.10578 2.76913 0
M  V30 1356 H 124.84 3.788 3.97242 0
M  V30 1357 H 125.101 2.05186 3.916 0
M  V30 1358 N 124.16 -0.719506 1.40217 0
M  V30 1359 C 125.406 -1.48152 1.38488 0
M  V30 1360 C 125.739 -1.94195 -0.0141867 0
M  V30 1361 O 125.014 -1.67884 -0.982096 0
M  V30 1362 C 125.297 -2.71035 2.37091 0
M  V30 1363 C 125.15 -2.30912 3.86005 0
M  V30 1364 C 126.469 -3.73182 2.33288 0
M  V30 1365 H 123.588 -0.537395 0.504357 0
M  V30 1366 H 126.23 -0.821472 1.71324 0
M  V30 1367 H 124.38 -3.27352 2.0922 0
M  V30 1368 H 126.052 -1.80107 4.24687 0
M  V30 1369 H 124.295 -1.62958 4.02029 0
M  V30 1370 H 124.966 -3.18978 4.50508 0
M  V30 1371 H 127.442 -3.26485 2.57966 0
M  V30 1372 H 126.318 -4.56806 3.04334 0
M  V30 1373 H 126.579 -4.21202 1.34317 0
M  V30 1374 N 125.638 -1.25649 -0.95132 0
M  V30 1375 C 126.884 -1.10757 -1.69884 0
M  V30 1376 C 127.217 0.350061 -1.91019 0
M  V30 1377 O 126.492 1.25783 -1.48354 0
M  V30 1378 C 126.775 -1.86606 -3.07978 0
M  V30 1379 C 126.628 -3.40217 -2.94232 0
M  V30 1380 C 127.947 -1.65182 -4.07925 0
M  V30 1381 H 125.066 -0.40374 -0.616574 0
M  V30 1382 H 127.708 -1.54521 -1.10558 0
M  V30 1383 H 125.858 -1.49409 -3.58621 0
M  V30 1384 H 127.53 -3.87108 -2.50889 0
M  V30 1385 H 125.773 -3.67759 -2.30078 0
M  V30 1386 H 126.444 -3.88505 -3.92133 0
M  V30 1387 H 128.92 -1.9757 -3.66204 0
M  V30 1388 H 127.796 -2.20683 -5.02583 0
M  V30 1389 H 128.057 -0.593933 -4.38092 0
M  V30 1390 N 127.117 1.15442 -1.07289 0
M  V30 1391 C 128.345 1.90096 -0.81676 0
M  V30 1392 C 128.76 1.7798 0.629966 0
M  V30 1393 O 128.117 1.1313 1.43206 0
M  V30 1394 C 128.168 3.40466 -1.21512 0
M  V30 1395 O 127.889 3.52232 -2.60508 0
M  V30 1396 C 129.39 4.32145 -0.988198 0
M  V30 1397 H 126.61 0.602495 -0.295366 0
M  V30 1398 H 129.154 1.4627 -1.42918 0
M  V30 1399 H 127.309 3.81958 -0.647039 0
M  V30 1400 H 127.723 4.45549 -2.76742 0
M  V30 1401 H 129.197 5.36072 -1.31645 0
M  V30 1402 H 129.674 4.39135 0.0755063 0
M  V30 1403 H 130.28 3.96395 -1.54115 0
M  V30 1404 N 128.595 0.856903 1.32268 0
M  V30 1405 C 129.525 0.31858 2.31316 0
M  V30 1406 C 130.506 -0.583487 1.59779 0
M  V30 1407 O 131.691 -0.503259 1.87566 0
M  V30 1408 C 128.821 -0.491979 3.43798 0
M  V30 1409 C 127.775 0.315849 4.26833 0
M  V30 1410 C 127.101 -0.619586 5.31098 0
M  V30 1411 C 128.401 1.54282 4.98993 0
M  V30 1412 H 130.095 1.14621 2.76591 0
M  V30 1413 H 127.641 0.552613 1.32974 0
M  V30 1414 H 129.594 -0.879012 4.1213 0
M  V30 1415 H 128.318 -1.35299 2.97257 0
M  V30 1416 H 126.977 0.684664 3.6015 0
M  V30 1417 H 126.625 -1.47751 4.8081 0
M  V30 1418 H 126.325 -0.0830621 5.87541 0
M  V30 1419 H 127.849 -1.00375 6.02293 0
M  V30 1420 H 129.263 1.22796 5.59995 0
M  V30 1421 H 127.66 2.01745 5.65172 0
M  V30 1422 H 128.73 2.30285 4.26728 0
M  V30 1423 N 130.073 -1.45103 0.615059 0
M  V30 1424 C 131.036 -2.29025 -0.0895485 0
M  V30 1425 C 132.036 -1.40174 -0.787906 0
M  V30 1426 O 133.226 -1.62217 -0.634933 0
M  V30 1427 C 130.358 -3.21376 -1.13711 0
M  V30 1428 H 131.551 -2.92807 0.648382 0
M  V30 1429 H 129.104 -1.51749 0.374444 0
M  V30 1430 H 129.839 -2.6241 -1.90556 0
M  V30 1431 H 129.624 -3.86834 -0.640475 0
M  V30 1432 H 131.114 -3.84459 -1.63036 0
M  V30 1433 N 131.551 -0.354651 -1.53558 0
M  V30 1434 C 132.461 0.50515 -2.29097 0
M  V30 1435 C 133.477 1.10223 -1.34636 0
M  V30 1436 O 134.653 1.11553 -1.67684 0
M  V30 1437 C 131.718 1.63479 -3.05738 0
M  V30 1438 C 130.779 1.06636 -4.15845 0
M  V30 1439 C 130.012 2.14217 -4.88822 0
M  V30 1440 O 130.235 3.35137 -4.61562 0
M  V30 1441 O 129.169 1.77887 -5.75013 0
M  V30 1442 H 132.995 -0.109237 -3.03503 0
M  V30 1443 H 130.58 -0.119357 -1.48922 0
M  V30 1444 H 132.462 2.2918 -3.5363 0
M  V30 1445 H 131.137 2.23478 -2.34178 0
M  V30 1446 H 130.044 0.373565 -3.7223 0
M  V30 1447 H 131.377 0.511081 -4.89539 0
M  V30 1448 N 133.029 1.57378 -0.0835403 0
M  V30 1449 C 133.977 2.14602 0.89714 0
M  V30 1450 C 134.971 1.08589 1.30018 0
M  V30 1451 O 136.177 1.26952 1.27606 0
M  V30 1452 H 132.552 0.686346 0.3073 0
M  V30 1453 H 134.523 2.95845 0.38969 0
M  V30 1454 C 133.272 2.73188 2.15089 0
M  V30 1455 H 132.595 3.54442 1.84962 0
M  V30 1456 H 134.035 3.1681 2.81793 0
M  V30 1457 C 132.494 1.68517 2.91725 0
M  V30 1458 O 133.024 1.11718 3.85852 0
M  V30 1459 N 131.23 1.39277 2.55049 0
M  V30 1460 H 130.777 1.85655 1.78577 0
M  V30 1461 H 130.735 0.694791 3.06627 0
M  V30 1462 N 134.507 -0.190092 1.56449 0
M  V30 1463 C 135.753 -0.911052 1.81184 0
M  V30 1464 C 136.086 -1.82699 0.658396 0
M  V30 1465 O 135.361 -1.91491 -0.340775 0
M  V30 1466 C 135.644 -1.72297 3.16205 0
M  V30 1467 C 135.497 -0.831419 4.42049 0
M  V30 1468 C 136.816 -2.69454 3.47969 0
M  V30 1469 H 133.935 -0.32977 0.659106 0
M  V30 1470 H 136.577 -0.178169 1.89163 0
M  V30 1471 H 134.727 -2.34778 3.09534 0
M  V30 1472 H 136.399 -0.220929 4.60771 0
M  V30 1473 H 134.642 -0.138406 4.33579 0
M  V30 1474 H 135.313 -1.43461 5.33032 0
M  V30 1475 H 137.789 -2.17104 3.54972 0
M  V30 1476 H 136.665 -3.23342 4.43555 0
M  V30 1477 H 136.926 -3.48744 2.71717 0
M  V30 1478 N 135.985 -1.50799 -0.457987 0
M  V30 1479 C 137.21 -1.66496 -1.23668 0
M  V30 1480 C 137.635 -0.353288 -1.84752 0
M  V30 1481 O 136.993 0.684346 -1.67888 0
M  V30 1482 C 137.041 -2.76763 -2.3116 0
M  V30 1483 O 136.145 -2.38928 -3.36136 0
M  V30 1484 H 135.486 -0.555828 -0.363252 0
M  V30 1485 H 138.016 -1.9725 -0.543474 0
M  V30 1486 H 138.026 -3.00232 -2.76269 0
M  V30 1487 H 136.701 -3.71954 -1.86073 0
M  V30 1488 H 135.278 -2.25953 -2.96647 0
M  V30 1489 N 137.463 0.71206 -1.40597 0
M  V30 1490 C 138.879 1.02058 -1.22704 0
M  V30 1491 C 139.079 2.01228 -0.104729 0
M  V30 1492 O 138.135 2.4674 0.53624 0
M  V30 1493 C 139.448 1.56094 -2.57012 0
M  V30 1494 C 140.996 1.6806 -2.64054 0
M  V30 1495 C 141.471 2.25501 -3.9864 0
M  V30 1496 N 142.962 2.32882 -4.004 0
M  V30 1497 C 143.697 2.78317 -5.01325 0
M  V30 1498 N 143.193 3.23478 -6.12645 0
M  V30 1499 N 144.986 2.77733 -4.88693 0
M  V30 1500 H 137.137 0.0547896 -2.12329 0
M  V30 1501 H 139.4 0.0869027 -0.944008 0
M  V30 1502 H 139.106 0.906865 -3.39807 0
M  V30 1503 H 138.98 2.54564 -2.78347 0
M  V30 1504 H 141.367 2.32583 -1.81629 0
M  V30 1505 H 141.448 0.681802 -2.46546 0
M  V30 1506 H 141.092 1.61598 -4.81506 0
M  V30 1507 H 141.022 3.26102 -4.13479 0
M  V30 1508 H 143.513 2.00991 -3.20017 0
M  V30 1509 H 143.826 3.56725 -6.85542 0
M  V30 1510 H 142.171 3.21429 -6.16205 0
M  V30 1511 H 145.362 2.4179 -4.00818 0
M  V30 1512 H 145.535 3.12826 -5.67489 0
M  V30 1513 N 138.941 1.26152 0.944643 0
M  V30 1514 C 140.352 1.10454 1.50522 0
M  V30 1515 C 140.703 -0.31635 1.93633 0
M  V30 1516 O 139.828 -1.20746 1.79581 0
M  V30 1517 C 140.423 1.99891 2.73549 0
M  V30 1518 C 138.982 1.88348 3.25886 0
M  V30 1519 C 138.129 1.93447 1.9868 0
M  V30 1520 H 141.08 1.39292 0.760489 0
M  V30 1521 H 141.101 1.54477 3.47732 0
M  V30 1522 H 140.613 3.03297 2.42141 0
M  V30 1523 H 138.714 0.878636 3.62092 0
M  V30 1524 H 138.827 2.73696 3.93227 0
M  V30 1525 H 137.191 1.37456 2.14425 0
M  V30 1526 H 137.974 2.98476 1.69607 0
M  V30 1527 N 140.419 -1.14872 1.07899 0
M  V30 1528 C 141.329 -2.2341 0.715915 0
M  V30 1529 C 142.345 -1.71808 -0.275306 0
M  V30 1530 O 143.521 -2.01039 -0.120545 0
M  V30 1531 C 140.586 -3.46474 0.125168 0
M  V30 1532 C 139.647 -4.13039 1.17034 0
M  V30 1533 C 138.88 -5.30229 0.607688 0
M  V30 1534 O 139.103 -5.675 -0.574497 0
M  V30 1535 O 138.037 -5.86444 1.35526 0
M  V30 1536 H 141.863 -2.56808 1.62121 0
M  V30 1537 H 139.448 -1.22702 0.852322 0
M  V30 1538 H 141.33 -4.20917 -0.201729 0
M  V30 1539 H 140.005 -3.14811 -0.753364 0
M  V30 1540 H 138.912 -3.40493 1.54968 0
M  V30 1541 H 140.245 -4.48796 2.02097 0
M  V30 1542 N 141.898 -0.863906 -1.31812 0
M  V30 1543 C 142.828 -0.330843 -2.31144 0
M  V30 1544 C 143.809 0.575005 -1.60087 0
M  V30 1545 O 144.994 0.493304 -1.8783 0
M  V30 1546 C 142.124 0.47374 -3.44054 0
M  V30 1547 C 141.078 -0.338481 -4.26659 0
M  V30 1548 C 140.404 0.591412 -5.31419 0
M  V30 1549 C 141.704 -1.56926 -4.98168 0
M  V30 1550 H 143.398 -1.16086 -2.75979 0
M  V30 1551 H 140.944 -0.559657 -1.32679 0
M  V30 1552 H 142.897 0.857143 -4.12591 0
M  V30 1553 H 141.621 1.33721 -2.9797 0
M  V30 1554 H 140.28 -0.703754 -3.59782 0
M  V30 1555 H 139.928 1.45199 -4.81587 0
M  V30 1556 H 139.628 0.0519022 -5.87577 0
M  V30 1557 H 141.152 0.97179 -6.02817 0
M  V30 1558 H 142.566 -1.25764 -5.59336 0
M  V30 1559 H 140.963 -2.04739 -5.64094 0
M  V30 1560 H 142.033 -2.32544 -4.25501 0
M  V30 1561 N 143.376 1.44774 -0.622745 0
M  V30 1562 C 144.306 2.33382 0.0741861 0
M  V30 1563 C 145.287 1.47719 0.843387 0
M  V30 1564 O 146.472 1.76458 0.810934 0
M  V30 1565 C 143.602 3.30663 1.06204 0
M  V30 1566 C 142.556 4.26079 0.405037 0
M  V30 1567 C 141.882 5.13165 1.5022 0
M  V30 1568 C 143.182 5.1781 -0.683414 0
M  V30 1569 H 144.876 2.91905 -0.665713 0
M  V30 1570 H 142.422 1.40363 -0.321587 0
M  V30 1571 H 144.375 3.9153 1.55827 0
M  V30 1572 H 143.099 2.70331 1.83272 0
M  V30 1573 H 141.758 3.66532 -0.0704683 0
M  V30 1574 H 141.406 4.49191 2.26355 0
M  V30 1575 H 141.106 5.77812 1.06803 0
M  V30 1576 H 142.63 5.76902 2.00041 0
M  V30 1577 H 144.044 5.72661 -0.270631 0
M  V30 1578 H 142.441 5.91015 -1.04023 0
M  V30 1579 H 143.511 4.59326 -1.55395 0
M  V30 1580 N 144.854 0.36279 1.53368 0
M  V30 1581 C 145.784 -0.476976 2.28576 0
M  V30 1582 C 146.765 -1.08631 1.30894 0
M  V30 1583 O 147.95 -1.10409 1.59761 0
M  V30 1584 C 145.08 -1.61828 3.07293 0
M  V30 1585 C 144.034 -1.13633 4.1264 0
M  V30 1586 C 143.36 -2.36766 4.79423 0
M  V30 1587 C 144.66 -0.223061 5.21823 0
M  V30 1588 H 146.354 0.150474 2.99022 0
M  V30 1589 H 143.9 0.0738103 1.43811 0
M  V30 1590 H 145.853 -2.21237 3.58653 0
M  V30 1591 H 144.577 -2.27292 2.34533 0
M  V30 1592 H 143.236 -0.564945 3.62221 0
M  V30 1593 H 142.884 -3.0068 4.03238 0
M  V30 1594 H 142.584 -2.05192 5.50609 0
M  V30 1595 H 144.108 -2.96865 5.33576 0
M  V30 1596 H 145.522 -0.724545 5.68703 0
M  V30 1597 H 143.919 0.001678 6.001 0
M  V30 1598 H 144.989 0.735553 4.79289 0
M  V30 1599 N 146.332 -1.57332 0.0918853 0
M  V30 1600 C 147.262 -2.16872 -0.865371 0
M  V30 1601 C 148.243 -1.10118 -1.29646 0
M  V30 1602 O 149.428 -1.38242 -1.36392 0
M  V30 1603 C 146.558 -2.74649 -2.12569 0
M  V30 1604 C 145.512 -3.86747 -1.83333 0
M  V30 1605 C 144.838 -4.31212 -3.16166 0
M  V30 1606 C 146.138 -5.10089 -1.1228 0
M  V30 1607 H 147.832 -2.97114 -0.369307 0
M  V30 1608 H 145.378 -1.42918 -0.176194 0
M  V30 1609 H 147.331 -3.14952 -2.7997 0
M  V30 1610 H 146.055 -1.91657 -2.64452 0
M  V30 1611 H 144.714 -3.46978 -1.18331 0
M  V30 1612 H 144.362 -3.45115 -3.6593 0
M  V30 1613 H 144.062 -5.06788 -2.97388 0
M  V30 1614 H 145.586 -4.74146 -3.84731 0
M  V30 1615 H 147 -5.47582 -1.69785 0
M  V30 1616 H 145.397 -5.91073 -1.03693 0
M  V30 1617 H 146.467 -4.84786 -0.105041 0
M  V30 1618 N 147.81 0.181792 -1.56548 0
M  V30 1619 C 149.059 0.898348 -1.8059 0
M  V30 1620 C 149.372 1.83862 -0.667379 0
M  V30 1621 O 150.578 2.59678 -0.792446 0
M  V30 1622 C 149.034 1.64791 -3.19956 0
M  V30 1623 C 148.642 0.751789 -4.41647 0
M  V30 1624 C 150.386 2.35331 -3.53298 0
M  V30 1625 C 148.293 1.50098 -5.72035 0
M  V30 1626 H 147.223 0.339194 -0.673397 0
M  V30 1627 H 149.874 0.151413 -1.82874 0
M  V30 1628 H 148.256 2.43921 -3.11959 0
M  V30 1629 H 149.43 -0.0018076 -4.608 0
M  V30 1630 H 147.745 0.156562 -4.16106 0
M  V30 1631 H 150.342 2.91958 -4.47956 0
M  V30 1632 H 150.685 3.10164 -2.77676 0
M  V30 1633 H 151.218 1.63154 -3.62803 0
M  V30 1634 H 147.957 0.795175 -6.50659 0
M  V30 1635 H 147.477 2.22817 -5.56878 0
M  V30 1636 H 149.156 2.05125 -6.13622 0
M  V30 1637 N 149.288 1.51039 0.449983 0
M  V30 1638 C 150.565 1.53612 1.21089 0
M  V30 1639 C 150.945 0.292997 2.09057 0
M  V30 1640 O 150.293 -0.72259 2.16774 0
M  V30 1641 C 150.503 2.84337 2.0237 0
M  V30 1642 C 151.851 3.35807 2.59843 0
M  V30 1643 O 152.875 2.85802 2.12593 0
M  V30 1644 O 151.734 4.23029 3.45989 0
M  V30 1645 H 148.828 0.617057 0.550608 0
M  V30 1646 H 151.374 1.63344 0.460082 0
M  V30 1647 H 150.146 3.66278 1.37681 0
M  V30 1648 H 149.769 2.77708 2.84542 0
M  V30 1649 N 150.766 -0.704594 1.40972 0
M  V30 1650 C 151.729 -1.80035 1.41845 0
M  V30 1651 C 152.729 -1.57774 0.310474 0
M  V30 1652 O 153.919 -1.64613 0.56992 0
M  V30 1653 C 151.051 -3.18284 1.22098 0
M  V30 1654 H 152.244 -1.80658 2.3938 0
M  V30 1655 H 149.797 -0.911329 1.26982 0
M  V30 1656 H 150.532 -3.23306 0.253672 0
M  V30 1657 H 150.317 -3.35843 2.02366 0
M  V30 1658 H 151.807 -3.98289 1.25522 0
M  V30 1659 N 152.244 -1.26651 -0.937939 0
M  V30 1660 C 153.655 -1.1125 -1.49934 0
M  V30 1661 C 154.006 0.306077 -1.93798 0
M  V30 1662 O 153.131 1.19792 -1.80219 0
M  V30 1663 C 153.726 -2.01339 -2.72485 0
M  V30 1664 C 152.285 -1.90074 -3.24883 0
M  V30 1665 C 151.432 -1.94498 -1.97651 0
M  V30 1666 H 154.383 -1.39693 -0.753091 0
M  V30 1667 H 154.404 -1.56319 -3.46907 0
M  V30 1668 H 153.916 -3.04577 -2.40529 0
M  V30 1669 H 152.017 -0.897827 -3.61621 0
M  V30 1670 H 152.13 -2.75778 -3.9177 0
M  V30 1671 H 150.494 -1.38591 -2.13693 0
M  V30 1672 H 151.277 -2.99372 -1.68022 0
M  V30 1673 N 153.722 1.14298 -1.08507 0
M  V30 1674 C 154.947 1.8976 -0.837001 0
M  V30 1675 C 155.372 1.78097 0.605228 0
M  V30 1676 O 154.73 1.12188 1.4242 0
M  V30 1677 C 154.778 3.37685 -1.26495 0
M  V30 1678 O 153.882 4.10281 -0.417514 0
M  V30 1679 H 153.223 0.590365 -0.303917 0
M  V30 1680 H 155.753 1.44672 -1.44676 0
M  V30 1681 H 155.763 3.88501 -1.24625 0
M  V30 1682 H 154.438 3.45492 -2.31534 0
M  V30 1683 H 153.015 3.69536 -0.499722 0
M  V30 1684 N 155.201 0.870884 1.31352 0
M  V30 1685 C 156.151 0.298889 2.26032 0
M  V30 1686 C 157.135 -0.564595 1.50669 0
M  V30 1687 O 158.327 -0.411323 1.72154 0
M  V30 1688 C 155.456 -0.497842 3.39671 0
M  V30 1689 C 154.542 0.378937 4.22404 0
M  V30 1690 N 154.933 1.47284 4.83881 0
M  V30 1691 C 153.231 0.171535 4.4567 0
M  V30 1692 C 153.932 2.01359 5.45738 0
M  V30 1693 N 152.908 1.31047 5.27568 0
M  V30 1694 H 156.71 1.13494 2.71102 0
M  V30 1695 H 154.224 0.718745 1.45629 0
M  V30 1696 H 156.221 -0.924155 4.06528 0
M  V30 1697 H 154.881 -1.33149 2.96144 0
M  V30 1698 H 155.892 1.85575 4.8351 0
M  V30 1699 H 152.569 -0.626091 4.12779 0
M  V30 1700 H 153.959 2.93143 6.0458 0
M  V30 1701 N 156.679 -1.44442 0.630414 0
M  V30 1702 C 158.09 -1.85434 0.217063 0
M  V30 1703 C 158.441 -1.52748 -1.23136 0
M  V30 1704 O 157.566 -0.965205 -1.93682 0
M  V30 1705 C 158.161 -3.36581 0.387168 0
M  V30 1706 C 156.72 -3.76389 0.0283297 0
M  V30 1707 C 155.867 -2.68296 0.700889 0
M  V30 1708 H 158.818 -1.34919 0.83562 0
M  V30 1709 H 158.839 -3.78657 -0.374086 0
M  V30 1710 H 158.351 -3.60339 1.44144 0
M  V30 1711 H 156.452 -3.58246 -1.02423 0
M  V30 1712 H 156.565 -4.77095 0.437892 0
M  V30 1713 H 154.929 -2.54335 0.136267 0
M  V30 1714 H 155.712 -2.94887 1.75774 0
M  V30 1715 N 158.157 -0.370918 -1.53173 0
M  V30 1716 C 159.434 0.273754 -1.93675 0
M  V30 1717 C 159.814 1.65938 -1.3049 0
M  V30 1718 O 159.162 2.23698 -0.465999 0
M  V30 1719 C 159.372 0.318602 -3.47543 0
M  V30 1720 C 160.72 0.556392 -4.20939 0
M  V30 1721 O 161.744 0.399587 -3.53952 0
M  V30 1722 O 160.603 0.862133 -5.39657 0
M  V30 1723 H 157.697 0.165448 -0.810281 0
M  V30 1724 H 160.243 -0.42409 -1.64315 0
M  V30 1725 H 159.015 -0.652687 -3.85818 0
M  V30 1726 H 158.638 1.06212 -3.83151 0
M  V30 1727 N 159.635 1.57281 -0.100228 0
M  V30 1728 C 160.882 1.94537 0.562268 0
M  V30 1729 C 161.21 0.982315 1.67871 0
M  V30 1730 O 160.465 0.00280936 1.957 0
M  V30 1731 C 160.764 3.38305 1.15259 0
M  V30 1732 C 160.43 4.50618 0.159409 0
M  V30 1733 C 159.092 4.81066 -0.113741 0
M  V30 1734 C 161.444 5.18615 -0.518461 0
M  V30 1735 C 158.772 5.76835 -1.07137 0
M  V30 1736 C 161.124 6.15412 -1.46459 0
M  V30 1737 C 159.788 6.44262 -1.74592 0
M  V30 1738 H 159.058 0.711863 0.205748 0
M  V30 1739 H 161.705 1.90679 -0.17715 0
M  V30 1740 H 160.01 3.38766 1.96836 0
M  V30 1741 H 161.707 3.64435 1.67297 0
M  V30 1742 H 158.297 4.2689 0.382491 0
M  V30 1743 H 162.481 4.95264 -0.320581 0
M  V30 1744 H 157.737 5.975 -1.29628 0
M  V30 1745 H 161.911 6.67194 -1.99564 0
M  V30 1746 H 159.538 7.1828 -2.48953 0
M  V30 1747 N 161.113 -0.173488 1.56642 0
M  V30 1748 C 162.043 -1.2171 1.99271 0
M  V30 1749 C 163.024 -1.46289 0.867959 0
M  V30 1750 O 164.209 -1.5766 1.13388 0
M  V30 1751 C 161.339 -2.55651 2.35074 0
M  V30 1752 C 160.293 -2.45645 3.50489 0
M  V30 1753 C 159.619 -3.84056 3.72028 0
M  V30 1754 C 160.919 -1.96302 4.84007 0
M  V30 1755 H 162.613 -0.86275 2.867 0
M  V30 1756 H 160.159 -0.413571 1.37933 0
M  V30 1757 H 162.112 -3.2886 2.63494 0
M  V30 1758 H 160.836 -2.92869 1.44552 0
M  V30 1759 H 159.495 -1.7489 3.22194 0
M  V30 1760 H 159.143 -4.18664 2.788 0
M  V30 1761 H 158.843 -3.7823 4.49684 0
M  V30 1762 H 160.367 -4.58854 4.02846 0
M  V30 1763 H 161.781 -2.59284 5.11317 0
M  V30 1764 H 160.178 -2.01429 5.65284 0
M  V30 1765 H 161.248 -0.917226 4.76146 0
M  V30 1766 N 162.591 -1.51276 -0.441967 0
M  V30 1767 C 163.539 -1.72823 -1.55676 0
M  V30 1768 C 164.533 -0.59445 -1.58627 0
M  V30 1769 O 165.739 -0.775715 -1.62427 0
M  V30 1770 H 162.114 -0.545983 -0.517113 0
M  V30 1771 H 164.085 -2.6628 -1.34675 0
M  V30 1772 C 162.834 -1.86619 -2.93375 0
M  V30 1773 H 162.157 -2.73264 -2.91834 0
M  V30 1774 H 163.597 -2.05709 -3.70756 0
M  V30 1775 C 162.056 -0.624842 -3.31055 0
M  V30 1776 O 162.586 0.222636 -4.01083 0
M  V30 1777 N 160.792 -0.470288 -2.86769 0
M  V30 1778 H 160.339 -1.161 -2.29953 0
M  V30 1779 H 160.297 0.359051 -3.12343 0
M  V30 1780 N 164.069 0.697108 -1.41344 0
M  V30 1781 C 165.032 1.79281 -1.42797 0
M  V30 1782 C 166.032 1.57607 -0.318837 0
M  V30 1783 O 167.222 1.64309 -0.578642 0
M  V30 1784 C 164.354 3.17632 -1.23785 0
M  V30 1785 H 165.547 1.79385 -2.40335 0
M  V30 1786 H 163.1 0.904582 -1.27464 0
M  V30 1787 H 163.835 3.23167 -0.270814 0
M  V30 1788 H 163.62 3.34765 -2.04144 0
M  V30 1789 H 165.11 3.97617 -1.27633 0
M  V30 1790 N 165.547 1.27147 0.931209 0
M  V30 1791 C 166.793 1.14455 1.68141 0
M  V30 1792 C 167.148 -0.307172 1.89932 0
M  V30 1793 O 166.441 -1.22158 1.47607 0
M  V30 1794 C 166.635 1.8579 3.05314 0
M  V30 1795 C 166.464 3.3775 2.96909 0
M  V30 1796 C 165.234 4.07062 2.99381 0
M  V30 1797 C 167.432 4.33783 2.76291 0
M  V30 1798 N 165.414 5.45618 2.8138 0
M  V30 1799 C 166.785 5.59582 2.6696 0
M  V30 1800 C 168.84 4.23915 2.61152 0
M  V30 1801 C 167.543 6.76639 2.44033 0
M  V30 1802 C 169.569 5.40689 2.39602 0
M  V30 1803 C 168.931 6.65443 2.3101 0
M  V30 1804 H 165.03 0.473667 0.622225 0
M  V30 1805 H 167.614 1.60568 1.10118 0
M  V30 1806 H 165.785 1.42138 3.61457 0
M  V30 1807 H 167.517 1.65634 3.69253 0
M  V30 1808 H 164.272 3.585 3.09475 0
M  V30 1809 H 164.696 6.184 2.75519 0
M  V30 1810 H 169.338 3.28189 2.66555 0
M  V30 1811 H 167.056 7.72451 2.3737 0
M  V30 1812 H 170.642 5.34932 2.28778 0
M  V30 1813 H 169.522 7.54277 2.14558 0
M  V30 1814 N 167.025 -1.13721 1.09112 0
M  V30 1815 C 168.441 -1.36914 0.820174 0
M  V30 1816 C 168.641 -1.93356 -0.567079 0
M  V30 1817 O 167.697 -2.15093 -1.32255 0
M  V30 1818 C 169.01 -2.3235 1.90877 0
M  V30 1819 C 170.558 -2.45973 1.93562 0
M  V30 1820 C 171.033 -3.44714 3.01556 0
M  V30 1821 N 172.524 -3.52263 3.00775 0
M  V30 1822 C 173.259 -4.28536 3.80978 0
M  V30 1823 N 172.755 -5.07991 4.71081 0
M  V30 1824 N 174.548 -4.23804 3.69251 0
M  V30 1825 H 166.699 -0.754348 1.98553 0
M  V30 1826 H 168.962 -0.3944 0.862063 0
M  V30 1827 H 168.668 -1.98027 2.90651 0
M  V30 1828 H 168.542 -3.32332 1.78424 0
M  V30 1829 H 170.929 -2.79584 0.944286 0
M  V30 1830 H 171.01 -1.45926 2.10093 0
M  V30 1831 H 170.654 -3.11835 4.00901 0
M  V30 1832 H 170.584 -4.44558 2.82269 0
M  V30 1833 H 173.075 -2.95567 2.35475 0
M  V30 1834 H 173.388 -5.63487 5.28869 0
M  V30 1835 H 171.733 -5.07235 4.75119 0
M  V30 1836 H 174.924 -3.60806 2.98222 0
M  V30 1837 H 175.097 -4.82995 4.31995 0
M  V30 1838 N 168.503 -0.877838 -1.30888 0
M  V30 1839 C 169.731 -0.507414 -2.00581 0
M  V30 1840 C 170.146 0.902216 -1.65848 0
M  V30 1841 O 169.503 1.59225 -0.891831 0
M  V30 1842 C 169.554 -0.664162 -3.55347 0
M  V30 1843 O 169.275 -2.01829 -3.8884 0
M  V30 1844 C 170.776 -0.295787 -4.42312 0
M  V30 1845 H 167.996 -0.196866 -0.641471 0
M  V30 1846 H 170.54 -1.18117 -1.66939 0
M  V30 1847 H 168.695 -0.0378619 -3.87381 0
M  V30 1848 H 169.109 -2.03174 -4.8355 0
M  V30 1849 H 170.583 -0.456388 -5.5011 0
M  V30 1850 H 171.06 0.765663 -4.32475 0
M  V30 1851 H 171.666 -0.898113 -4.15709 0
M  V30 1852 N 169.982 1.44106 -0.638065 0
M  V30 1853 C 171.228 2.02277 -0.145546 0
M  V30 1854 C 171.561 1.50125 1.23191 0
M  V30 1855 O 170.836 0.688133 1.8192 0
M  V30 1856 C 171.119 3.59829 -0.139791 0
M  V30 1857 C 170.972 4.22247 -1.55008 0
M  V30 1858 C 172.291 4.36873 0.531966 0
M  V30 1859 H 169.41 0.734992 -0.0543632 0
M  V30 1860 H 172.052 1.71592 -0.815863 0
M  V30 1861 H 170.202 3.86102 0.431007 0
M  V30 1862 H 171.874 4.07057 -2.1703 0
M  V30 1863 H 170.117 3.79476 -2.10191 0
M  V30 1864 H 170.788 5.31284 -1.49804 0
M  V30 1865 H 173.264 4.16074 0.0464781 0
M  V30 1866 H 172.14 5.4657 0.505206 0
M  V30 1867 H 172.401 4.11995 1.60352 0
M  V30 1868 N 171.46 0.379036 1.52974 0
M  V30 1869 C 172.408 -0.476033 2.27677 0
M  V30 1870 C 173.402 -1.0719 1.31174 0
M  V30 1871 O 174.608 -1.01355 1.48752 0
M  V30 1872 H 170.983 -0.172255 0.732006 0
M  V30 1873 H 172.954 0.175615 2.97883 0
M  V30 1874 C 171.703 -1.5967 3.0887 0
M  V30 1875 H 171.026 -1.1475 3.82978 0
M  V30 1876 H 172.466 -2.16943 3.64296 0
M  V30 1877 C 170.925 -2.54682 2.20542 0
M  V30 1878 O 171.455 -3.57836 1.82527 0
M  V30 1879 N 169.661 -2.24183 1.84907 0
M  V30 1880 H 169.208 -1.40333 2.1602 0
M  V30 1881 H 169.166 -2.88006 1.26096 0
M  V30 1882 N 172.938 -1.57226 0.108567 0
M  V30 1883 C 173.888 -2.11305 -0.856396 0
M  V30 1884 C 174.872 -1.03129 -1.23504 0
M  V30 1885 O 176.064 -1.29381 -1.20787 0
M  V30 1886 C 173.193 -2.70771 -2.11041 0
M  V30 1887 C 172.279 -3.86011 -1.7566 0
M  V30 1888 N 172.67 -4.93492 -1.10902 0
M  V30 1889 C 170.968 -3.95999 -2.05185 0
M  V30 1890 C 171.669 -5.73984 -0.944308 0
M  V30 1891 N 170.645 -5.2346 -1.46596 0
M  V30 1892 H 174.447 -2.91784 -0.352002 0
M  V30 1893 H 171.961 -1.62126 -0.0942324 0
M  V30 1894 H 173.958 -3.07851 -2.81128 0
M  V30 1895 H 172.618 -1.91751 -2.62034 0
M  V30 1896 H 173.629 -5.1208 -0.774235 0
M  V30 1897 H 170.306 -3.28007 -2.58298 0
M  V30 1898 H 171.696 -6.70479 -0.436813 0
M  V30 1899 N 174.416 0.165178 -1.56732 0
M  V30 1900 C 175.348 1.22911 -1.93457 0
M  V30 1901 C 176.361 1.40152 -0.828333 0
M  V30 1902 O 177.55 1.40046 -1.10677 0
M  V30 1903 C 174.65 2.59686 -2.17753 0
M  V30 1904 C 173.823 2.63663 -3.48999 0
M  V30 1905 C 172.882 3.81845 -3.62051 0
M  V30 1906 O 171.908 3.67559 -4.34613 0
M  V30 1907 N 173.11 4.98557 -2.97357 0
M  V30 1908 H 175.875 0.917118 -2.85323 0
M  V30 1909 H 173.436 0.354895 -1.57962 0
M  V30 1910 H 175.428 3.37225 -2.23743 0
M  V30 1911 H 173.998 2.83251 -1.32242 0
M  V30 1912 H 173.218 1.72173 -3.54612 0
M  V30 1913 H 174.506 2.63336 -4.35352 0
M  V30 1914 H 173.904 5.13065 -2.38287 0
M  V30 1915 H 172.461 5.73936 -3.08934 0
M  V30 1916 N 175.894 1.51508 0.433938 0
M  V30 1917 C 177.14 1.65549 1.18173 0
M  V30 1918 C 177.495 0.368751 1.88833 0
M  V30 1919 O 176.788 -0.635616 1.8075 0
M  V30 1920 C 176.982 2.79928 2.22205 0
M  V30 1921 C 176.811 4.19601 1.61756 0
M  V30 1922 C 175.581 4.85489 1.40101 0
M  V30 1923 C 177.779 5.02574 1.09194 0
M  V30 1924 N 175.761 6.09266 0.752859 0
M  V30 1925 C 177.132 6.17381 0.569255 0
M  V30 1926 C 179.187 4.88079 0.984025 0
M  V30 1927 C 177.89 7.19282 -0.0507472 0
M  V30 1928 C 179.916 5.90191 0.377912 0
M  V30 1929 C 179.278 7.04272 -0.134216 0
M  V30 1930 H 175.377 0.659653 0.419979 0
M  V30 1931 H 177.961 1.88746 0.477818 0
M  V30 1932 H 176.132 2.5839 2.89982 0
M  V30 1933 H 177.864 2.83132 2.89168 0
M  V30 1934 H 174.619 4.43417 1.66369 0
M  V30 1935 H 175.043 6.75528 0.446123 0
M  V30 1936 H 179.685 4.00131 1.36583 0
M  V30 1937 H 177.403 8.06876 -0.444676 0
M  V30 1938 H 180.989 5.81045 0.296269 0
M  V30 1939 H 179.869 7.81933 -0.59585 0
M  V30 1940 N 177.372 -0.689602 1.41712 0
M  V30 1941 C 178.621 -1.44534 1.40686 0
M  V30 1942 C 178.934 -1.95588 0.0213352 0
M  V30 1943 O 180.14 -2.71271 -0.111534 0
M  V30 1944 C 178.596 -2.61387 2.47396 0
M  V30 1945 C 178.204 -2.17094 3.91885 0
M  V30 1946 C 179.948 -3.38986 2.55517 0
M  V30 1947 C 177.855 -3.3094 4.90135 0
M  V30 1948 H 176.785 -0.542925 0.52321 0
M  V30 1949 H 179.436 -0.748054 1.6756 0
M  V30 1950 H 177.818 -3.33412 2.13664 0
M  V30 1951 H 178.992 -1.52318 4.34897 0
M  V30 1952 H 177.307 -1.52473 3.8748 0
M  V30 1953 H 179.904 -4.23747 3.26102 0
M  V30 1954 H 180.247 -3.84578 1.59391 0
M  V30 1955 H 180.78 -2.74021 2.8837 0
M  V30 1956 H 177.519 -2.90355 5.87685 0
M  V30 1957 H 177.039 -3.94546 4.51767 0
M  V30 1958 H 178.718 -3.9663 5.11169 0
M  V30 1959 N 178.85 -1.27639 -0.924453 0
M  V30 1960 C 180.261 -1.12834 -1.48746 0
M  V30 1961 C 180.612 0.285505 -1.94112 0
M  V30 1962 O 179.737 1.17874 -1.81479 0
M  V30 1963 C 180.332 -2.04217 -2.70334 0
M  V30 1964 C 178.891 -1.93509 -3.22848 0
M  V30 1965 C 178.038 -1.96583 -1.95577 0
M  V30 1966 H 180.989 -1.40484 -0.738233 0
M  V30 1967 H 181.01 -1.59989 -3.4523 0
M  V30 1968 H 180.522 -3.07111 -2.37285 0
M  V30 1969 H 178.623 -0.936131 -3.60649 0
M  V30 1970 H 178.736 -2.79917 -3.88823 0
M  V30 1971 H 177.1 -1.4085 -2.12211 0
M  V30 1972 H 177.883 -3.01137 -1.64837 0
M  V30 1973 N 180.328 1.1314 -1.09713 0
M  V30 1974 C 181.605 1.80762 -0.747302 0
M  V30 1975 C 181.985 1.96663 0.767265 0
M  V30 1976 O 181.333 1.53706 1.69076 0
M  V30 1977 C 181.543 3.15606 -1.48975 0
M  V30 1978 C 182.891 3.90914 -1.65746 0
M  V30 1979 O 183.915 3.25239 -1.45251 0
M  V30 1980 O 182.774 5.08718 -1.9967 0
M  V30 1981 H 179.868 0.782103 -0.268782 0
M  V30 1982 H 182.414 1.20041 -1.19951 0
M  V30 1983 H 181.186 2.99278 -2.52088 0
M  V30 1984 H 180.809 3.84029 -1.02991 0
M  V30 1985 N 181.806 0.884767 1.30421 0
M  V30 1986 C 183.034 0.518044 2.0031 0
M  V30 1987 C 183.449 -0.893408 1.66324 0
M  V30 1988 O 182.806 -1.5875 0.900262 0
M  V30 1989 C 182.857 0.682997 3.54989 0
M  V30 1990 O 182.578 2.03888 3.87764 0
M  V30 1991 C 184.079 0.31924 4.42149 0
M  V30 1992 H 181.299 0.200265 0.640418 0
M  V30 1993 H 183.843 1.19001 1.6631 0
M  V30 1994 H 181.998 0.0584052 3.87356 0
M  V30 1995 H 182.412 2.05735 4.82466 0
M  V30 1996 H 183.886 0.485555 5.4986 0
M  V30 1997 H 184.363 -0.742717 4.32875 0
M  V30 1998 H 184.969 0.920147 4.15227 0
M  V30 1999 N 183.284 -1.43765 0.645699 0
M  V30 2000 C 184.561 -1.9541 0.0862963 0
M  V30 2001 C 184.941 -1.58725 -1.39175 0
M  V30 2002 O 184.289 -0.868581 -2.11348 0
M  V30 2003 C 184.499 -3.47488 0.324565 0
M  V30 2004 C 185.847 -4.24001 0.225497 0
M  V30 2005 O 186.871 -3.55274 0.256715 0
M  V30 2006 O 185.73 -5.46313 0.142801 0
M  V30 2007 H 182.824 -0.826882 -0.0139483 0
M  V30 2008 H 185.37 -1.53743 0.718415 0
M  V30 2009 H 184.142 -3.67289 1.3496 0
M  V30 2010 H 183.765 -3.96135 -0.340987 0
M  V30 2011 N 184.763 -0.387143 -1.52771 0
M  V30 2012 C 186.04 0.253197 -1.93954 0
M  V30 2013 C 186.42 1.64545 -1.32243 0
M  V30 2014 O 185.768 2.23191 -0.489699 0
M  V30 2015 C 185.978 0.281722 -3.47861 0
M  V30 2016 C 187.326 0.511715 -4.21505 0
M  V30 2017 O 188.35 0.362023 -3.54356 0
M  V30 2018 O 187.209 0.804847 -5.40541 0
M  V30 2019 H 184.303 0.156845 -0.811991 0
M  V30 2020 H 186.849 -0.441494 -1.63856 0
M  V30 2021 H 185.621 -0.693571 -3.85104 0
M  V30 2022 H 185.244 1.02142 -3.84256 0
M  V30 2023 N 186.241 1.57166 -0.116904 0
M  V30 2024 C 187.171 2.18222 0.830759 0
M  V30 2025 C 188.152 1.12167 1.27877 0
M  V30 2026 O 189.337 1.40394 1.34176 0
M  V30 2027 C 186.467 2.77996 2.08172 0
M  V30 2028 C 185.421 3.89614 1.77157 0
M  V30 2029 C 184.747 4.36187 3.09265 0
M  V30 2030 C 186.047 5.1181 1.04151 0
M  V30 2031 H 187.741 2.97664 0.321992 0
M  V30 2032 H 185.287 1.4318 0.153434 0
M  V30 2033 H 187.24 3.19366 2.74924 0
M  V30 2034 H 185.964 1.9584 2.6137 0
M  V30 2035 H 184.623 3.48816 1.12796 0
M  V30 2036 H 184.271 3.50893 3.60393 0
M  V30 2037 H 183.971 5.11455 2.89288 0
M  V30 2038 H 185.495 4.80207 3.77139 0
M  V30 2039 H 186.909 5.50214 1.61052 0
M  V30 2040 H 185.306 5.92648 0.942762 0
M  V30 2041 H 186.376 4.84892 0.0279022 0
M  V30 2042 N 187.719 -0.156864 1.56817 0
M  V30 2043 C 188.629 -1.2136 2.00771 0
M  V30 2044 C 189.645 -1.47598 0.921459 0
M  V30 2045 O 190.821 -1.59462 1.2302 0
M  V30 2046 C 187.886 -2.52943 2.37109 0
M  V30 2047 C 186.947 -2.34439 3.59634 0
M  V30 2048 C 186.18 -3.59748 3.94229 0
M  V30 2049 O 186.403 -4.65526 3.29609 0
M  V30 2050 O 185.337 -3.52998 4.8752 0
M  V30 2051 H 189.163 -0.870468 2.90958 0
M  V30 2052 H 186.748 -0.36484 1.44877 0
M  V30 2053 H 188.63 -3.30538 2.61386 0
M  V30 2054 H 187.305 -2.86806 1.5008 0
M  V30 2055 H 186.212 -1.54828 3.40557 0
M  V30 2056 H 187.545 -2.05496 4.4725 0
M  V30 2057 N 189.197 -1.51736 -0.425897 0
M  V30 2058 C 190.145 -1.74464 -1.53834 0
M  V30 2059 C 191.139 -0.611241 -1.57988 0
M  V30 2060 O 192.345 -0.792899 -1.61596 0
M  V30 2061 H 188.72 -0.551437 -0.511293 0
M  V30 2062 H 190.691 -2.67694 -1.31843 0
M  V30 2063 C 189.44 -1.8972 -2.91379 0
M  V30 2064 H 188.763 -2.76344 -2.88919 0
M  V30 2065 H 190.203 -2.09629 -3.68553 0
M  V30 2066 C 188.662 -0.65992 -3.30374 0
M  V30 2067 O 189.192 0.180083 -4.01296 0
M  V30 2068 N 187.398 -0.500677 -2.86254 0
M  V30 2069 H 186.945 -1.18532 -2.28709 0
M  V30 2070 H 186.903 0.325903 -3.12706 0
M  V30 2071 N 190.675 0.682077 -1.42076 0
M  V30 2072 C 191.952 1.43755 -1.32642 0
M  V30 2073 C 192.332 2.11063 0.0396611 0
M  V30 2074 O 191.68 2.02701 1.05474 0
M  V30 2075 C 191.89 2.44596 -2.48946 0
M  V30 2076 C 193.238 3.09454 -2.9073 0
M  V30 2077 O 194.262 2.54922 -2.48783 0
M  V30 2078 O 193.121 4.08253 -3.63307 0
M  V30 2079 H 190.215 0.640857 -0.522715 0
M  V30 2080 H 192.761 0.711415 -1.54068 0
M  V30 2081 H 191.533 1.93609 -3.40046 0
M  V30 2082 H 191.156 3.24701 -2.29467 0
M  V30 2083 N 192.153 1.28127 0.917671 0
M  V30 2084 C 193.116 1.11744 2.00115 0
M  V30 2085 C 194.116 0.0583052 1.60694 0
M  V30 2086 O 195.306 0.303755 1.71531 0
M  V30 2087 C 192.438 0.704862 3.33533 0
M  V30 2088 H 193.631 2.07966 2.16079 0
M  V30 2089 H 191.184 1.11058 1.09981 0
M  V30 2090 H 191.919 -0.258299 3.2327 0
M  V30 2091 H 191.704 1.4699 3.63505 0
M  V30 2092 H 193.194 0.612768 4.1308 0
M  V30 2093 N 193.631 -1.12557 1.10312 0
M  V30 2094 C 194.581 -2.16331 0.720076 0
M  V30 2095 C 195.565 -1.58616 -0.270115 0
M  V30 2096 O 196.757 -1.76823 -0.0790507 0
M  V30 2097 C 193.886 -3.42963 0.152113 0
M  V30 2098 C 192.972 -4.07663 1.16927 0
M  V30 2099 N 193.363 -4.47392 2.35953 0
M  V30 2100 C 191.661 -4.34425 1.0095 0
M  V30 2101 C 192.362 -4.97932 3.0073 0
M  V30 2102 N 191.338 -4.93358 2.28252 0
M  V30 2103 H 195.14 -2.44813 1.62616 0
M  V30 2104 H 192.654 -1.29449 0.980654 0
M  V30 2105 H 194.651 -4.16664 -0.14037 0
M  V30 2106 H 193.311 -3.1595 -0.748701 0
M  V30 2107 H 194.322 -4.39802 2.73486 0
M  V30 2108 H 190.999 -4.17177 0.164134 0
M  V30 2109 H 192.389 -5.38397 4.01969 0
M  V30 2110 N 195.109 -0.891671 -1.2995 0
M  V30 2111 C 196.056 -0.361736 -2.27948 0
M  V30 2112 C 197.026 0.551761 -1.56668 0
M  V30 2113 O 198.211 0.478736 -1.84696 0
M  V30 2114 C 195.351 0.411825 -3.42634 0
M  V30 2115 C 194.464 -0.531651 -4.28716 0
M  V30 2116 C 193.599 0.258167 -5.30572 0
M  V30 2117 C 192.638 -0.680349 -6.08307 0
M  V30 2118 N 191.775 0.0745613 -7.0206 0
M  V30 2119 H 196.615 -1.20254 -2.72659 0
M  V30 2120 H 194.152 -0.604352 -1.34112 0
M  V30 2121 H 196.11 0.876304 -4.07893 0
M  V30 2122 H 194.74 1.21715 -2.98974 0
M  V30 2123 H 193.792 -1.11463 -3.63703 0
M  V30 2124 H 195.104 -1.25038 -4.82874 0
M  V30 2125 H 194.258 0.784204 -6.0161 0
M  V30 2126 H 192.997 1.01008 -4.77126 0
M  V30 2127 H 192.002 -1.21796 -5.3614 0
M  V30 2128 H 193.227 -1.43145 -6.63842 0
M  V30 2129 H 191.173 0.808883 -6.50994 0
M  V30 2130 H 191.09 -0.584409 -7.53738 0
M  V30 2131 H 192.358 0.581123 -7.77331 0
M  V30 2132 N 196.587 1.43421 -0.653314 0
M  V30 2133 C 198.003 1.56341 -0.320886 0
M  V30 2134 C 198.203 1.63696 1.17499 0
M  V30 2135 O 197.259 1.59208 1.95982 0
M  V30 2136 C 198.572 2.82424 -1.03233 0
M  V30 2137 C 200.12 2.96168 -1.01259 0
M  V30 2138 C 200.595 4.25084 -1.70492 0
M  V30 2139 N 202.086 4.31948 -1.67257 0
M  V30 2140 C 202.821 5.30466 -2.17701 0
M  V30 2141 N 202.317 6.35261 -2.76434 0
M  V30 2142 N 204.11 5.2212 -2.082 0
M  V30 2143 H 196.261 1.3689 -1.62403 0
M  V30 2144 H 198.524 0.657455 -0.682977 0
M  V30 2145 H 198.23 2.83053 -2.08744 0
M  V30 2146 H 198.104 3.72653 -0.583948 0
M  V30 2147 H 200.491 2.9508 0.0341235 0
M  V30 2148 H 200.572 2.07229 -1.49966 0
M  V30 2149 H 200.216 4.26932 -2.7512 0
M  V30 2150 H 200.146 5.1292 -1.19251 0
M  V30 2151 H 202.637 3.56838 -1.24398 0
M  V30 2152 H 202.95 7.06754 -3.12601 0
M  V30 2153 H 201.295 6.35884 -2.80495 0
M  V30 2154 H 204.486 4.39166 -1.62021 0
M  V30 2155 H 204.659 5.98739 -2.47822 0
M  V30 2156 N 198.065 0.39524 1.52563 0
M  V30 2157 C 199.028 -0.425001 2.25225 0
M  V30 2158 C 200.028 -0.985266 1.27079 0
M  V30 2159 O 201.218 -0.866332 1.5113 0
M  V30 2160 C 198.35 -1.59686 3.01186 0
M  V30 2161 H 199.543 0.211233 2.99155 0
M  V30 2162 H 197.096 0.147472 1.55603 0
M  V30 2163 H 197.831 -2.27035 2.31572 0
M  V30 2164 H 197.616 -1.20176 3.73229 0
M  V30 2165 H 199.106 -2.17743 3.5634 0
M  V30 2166 N 199.544 -1.57102 0.125237 0
M  V30 2167 C 200.79 -1.95697 -0.532035 0
M  V30 2168 C 201.123 -1.009 -1.6593 0
M  V30 2169 O 200.398 -0.047347 -1.94442 0
M  V30 2170 C 200.681 -3.44181 -1.05884 0
M  V30 2171 C 200.534 -4.49752 0.0654392 0
M  V30 2172 C 201.853 -3.94655 -1.9477 0
M  V30 2173 H 198.972 -0.711571 -0.191925 0
M  V30 2174 H 201.614 -1.88923 0.20206 0
M  V30 2175 H 199.764 -3.50085 -1.68442 0
M  V30 2176 H 201.436 -4.55943 0.700982 0
M  V30 2177 H 199.679 -4.27653 0.727709 0
M  V30 2178 H 200.35 -5.50924 -0.344505 0
M  V30 2179 H 202.826 -3.91094 -1.42074 0
M  V30 2180 H 201.702 -4.99057 -2.28546 0
M  V30 2181 H 201.963 -3.35718 -2.87656 0
M  V30 2182 N 201.022 0.148545 -1.56898 0
M  V30 2183 C 202.252 0.875118 -1.8715 0
M  V30 2184 C 202.66 1.75322 -0.711262 0
M  V30 2185 O 202.003 1.80745 0.328151 0
M  V30 2186 C 202.065 1.7844 -3.12089 0
M  V30 2187 C 201.729 1.08361 -4.43967 0
M  V30 2188 C 202.726 0.438247 -5.1805 0
M  V30 2189 C 200.411 1.07358 -4.90693 0
M  V30 2190 C 202.405 -0.20779 -6.37061 0
M  V30 2191 C 200.092 0.42373 -6.09629 0
M  V30 2192 C 201.09 -0.215829 -6.82659 0
M  V30 2193 O 200.778 -0.855378 -7.99336 0
M  V30 2194 H 200.51 0.258504 -0.624621 0
M  V30 2195 H 203.064 0.14652 -2.04877 0
M  V30 2196 H 201.294 2.55389 -2.90367 0
M  V30 2197 H 202.983 2.38279 -3.286 0
M  V30 2198 H 203.749 0.437817 -4.8302 0
M  V30 2199 H 199.628 1.5608 -4.33774 0
M  V30 2200 H 203.172 -0.70758 -6.94002 0
M  V30 2201 H 199.069 0.421822 -6.4412 0
M  V30 2202 H 199.837 -0.756892 -8.14993 0
M  V30 2203 N 202.5 1.5196 0.417844 0
M  V30 2204 C 203.43 1.77634 1.51554 0
M  V30 2205 C 204.411 0.626918 1.58126 0
M  V30 2206 O 205.596 0.871632 1.7354 0
M  V30 2207 C 202.726 1.91911 2.8946 0
M  V30 2208 C 201.68 3.07463 2.97743 0
M  V30 2209 C 201.006 3.06951 4.37819 0
M  V30 2210 C 202.306 4.47082 2.70027 0
M  V30 2211 H 204 2.6955 1.3032 0
M  V30 2212 H 201.546 1.29706 0.625492 0
M  V30 2213 H 203.499 2.08455 3.6623 0
M  V30 2214 H 202.223 0.966598 3.11969 0
M  V30 2215 H 200.882 2.90656 2.23416 0
M  V30 2216 H 200.53 2.09438 4.57323 0
M  V30 2217 H 200.23 3.84556 4.44286 0
M  V30 2218 H 201.754 3.25613 5.16535 0
M  V30 2219 H 203.168 4.6414 3.36522 0
M  V30 2220 H 201.565 5.2654 2.87881 0
M  V30 2221 H 202.635 4.55777 1.65514 0
M  V30 2222 N 203.978 -0.674533 1.42435 0
M  V30 2223 C 205.224 -1.43671 1.43131 0
M  V30 2224 C 205.557 -1.94142 0.0476021 0
M  V30 2225 O 204.832 -1.70924 -0.928188 0
M  V30 2226 C 205.115 -2.63355 2.45594 0
M  V30 2227 C 204.968 -2.18514 3.93156 0
M  V30 2228 C 206.287 -3.65571 2.45043 0
M  V30 2229 H 203.406 -0.521077 0.521198 0
M  V30 2230 H 206.048 -0.766551 1.7385 0
M  V30 2231 H 204.198 -3.2053 2.19528 0
M  V30 2232 H 205.87 -1.66504 4.30202 0
M  V30 2233 H 204.113 -1.50086 4.07009 0
M  V30 2234 H 204.784 -3.04484 4.60428 0
M  V30 2235 H 207.26 -3.18113 2.68223 0
M  V30 2236 H 206.136 -4.46893 3.18713 0
M  V30 2237 H 206.397 -4.16716 1.47649 0
M  V30 2238 N 205.456 -1.28612 -0.910864 0
M  V30 2239 C 206.388 -1.08589 -2.01844 0
M  V30 2240 C 207.401 -0.0367419 -1.62759 0
M  V30 2241 O 208.59 -0.280101 -1.76289 0
M  V30 2242 C 205.69 -0.628626 -3.33019 0
M  V30 2243 C 204.863 -1.75382 -4.00699 0
M  V30 2244 C 203.922 -1.28945 -5.10156 0
M  V30 2245 O 202.948 -1.9922 -5.33198 0
M  V30 2246 N 204.15 -0.154224 -5.80295 0
M  V30 2247 H 206.915 -2.03973 -2.19579 0
M  V30 2248 H 204.476 -1.20403 -1.08234 0
M  V30 2249 H 206.468 -0.301508 -4.03575 0
M  V30 2250 H 205.038 0.232451 -3.11735 0
M  V30 2251 H 204.258 -2.25039 -3.23653 0
M  V30 2252 H 205.546 -2.50854 -4.42662 0
M  V30 2253 H 204.944 0.43194 -5.64049 0
M  V30 2254 H 203.501 0.113599 -6.51701 0
M  V30 2255 N 206.934 1.1197 -1.10907 0
M  V30 2256 C 207.864 2.19928 -0.784473 0
M  V30 2257 C 208.845 1.6833 0.244726 0
M  V30 2258 O 210.03 1.93892 0.109418 0
M  V30 2259 C 207.16 3.46597 -0.220827 0
M  V30 2260 C 206.114 4.11376 -1.18127 0
M  V30 2261 C 205.44 5.32554 -0.478594 0
M  V30 2262 C 206.74 4.56945 -2.52979 0
M  V30 2263 H 208.434 2.47337 -1.68715 0
M  V30 2264 H 205.98 1.18879 -0.812642 0
M  V30 2265 H 207.933 4.21396 0.0184278 0
M  V30 2266 H 206.657 3.1863 0.717113 0
M  V30 2267 H 205.316 3.38564 -1.40606 0
M  V30 2268 H 204.964 5.00856 0.463976 0
M  V30 2269 H 204.664 5.76844 -1.11912 0
M  V30 2270 H 206.188 6.10096 -0.248 0
M  V30 2271 H 207.602 5.23093 -2.3462 0
M  V30 2272 H 205.999 5.1203 -3.12962 0
M  V30 2273 H 207.069 3.70676 -3.12614 0
M  V30 2274 N 208.412 0.89855 1.29475 0
M  V30 2275 C 209.375 0.380272 2.26023 0
M  V30 2276 C 210.375 -0.484891 1.53315 0
M  V30 2277 O 211.565 -0.290108 1.71767 0
M  V30 2278 C 208.697 -0.45651 3.3783 0
M  V30 2279 H 209.89 1.23295 2.73383 0
M  V30 2280 H 207.443 0.676589 1.40897 0
M  V30 2281 H 208.178 -1.32922 2.95808 0
M  V30 2282 H 207.963 0.163393 3.91759 0
M  V30 2283 H 209.453 -0.810466 4.0966 0
M  V30 2284 N 209.89 -1.43072 0.660911 0
M  V30 2285 C 210.853 -2.29194 -0.0166406 0
M  V30 2286 C 211.853 -1.42609 -0.742912 0
M  V30 2287 O 213.043 -1.64155 -0.583004 0
M  V30 2288 C 210.175 -3.24831 -1.0343 0
M  V30 2289 H 211.368 -2.90596 0.741208 0
M  V30 2290 H 208.921 -1.5048 0.422532 0
M  V30 2291 H 209.656 -2.68339 -1.82111 0
M  V30 2292 H 209.441 -3.88676 -0.517082 0
M  V30 2293 H 210.931 -3.89451 -1.50723 0
M  V30 2294 N 211.368 -0.403325 -1.52352 0
M  V30 2295 C 212.645 0.232611 -1.94212 0
M  V30 2296 C 213.025 1.63133 -1.33981 0
M  V30 2297 O 212.373 2.22659 -0.513344 0
M  V30 2298 C 212.583 0.244811 -3.4814 0
M  V30 2299 C 213.931 0.46698 -4.22024 0
M  V30 2300 O 214.955 0.324419 -3.5472 0
M  V30 2301 O 213.814 0.74747 -5.41364 0
M  V30 2302 H 210.908 0.148223 -0.813609 0
M  V30 2303 H 213.454 -0.458848 -1.63379 0
M  V30 2304 H 212.226 -0.734378 -3.84347 0
M  V30 2305 H 211.849 0.980611 -3.85318 0
M  V30 2306 N 212.846 1.57033 -0.133567 0
M  V30 2307 C 214.094 1.953 0.519848 0
M  V30 2308 C 214.415 1.01866 1.66278 0
M  V30 2309 O 213.685 0.0776513 1.95746 0
M  V30 2310 H 212.265 0.721091 0.195032 0
M  V30 2311 H 214.927 1.93809 -0.205921 0
M  V30 2312 H 214.023 2.98695 0.904854 0
M  V30 2313 N 214.325 -0.140222 1.56975 0
M  V30 2314 C 215.255 -1.17456 2.01808 0
M  V30 2315 C 216.236 -1.44415 0.898794 0
M  V30 2316 O 217.421 -1.5522 1.16707 0
M  V30 2317 C 214.551 -2.50607 2.40444 0
M  V30 2318 C 213.505 -2.38155 3.55621 0
M  V30 2319 C 212.831 -3.76078 3.80091 0
M  V30 2320 C 214.131 -1.85991 4.88062 0
M  V30 2321 H 215.825 -0.801743 2.88466 0
M  V30 2322 H 213.371 -0.38422 1.38779 0
M  V30 2323 H 215.324 -3.23197 2.7041 0
M  V30 2324 H 214.048 -2.89737 1.50732 0
M  V30 2325 H 212.707 -1.68016 3.25832 0
M  V30 2326 H 212.355 -4.12656 2.87618 0
M  V30 2327 H 212.055 -3.68606 4.57606 0
M  V30 2328 H 213.579 -4.50206 4.12488 0
M  V30 2329 H 214.993 -2.4838 5.16701 0
M  V30 2330 H 213.39 -1.89393 5.6943 0
M  V30 2331 H 214.46 -0.816023 4.77984 0
M  V30 2332 N 215.803 -1.52179 -0.40978 0
M  V30 2333 C 217.05 -1.66206 -1.15679 0
M  V30 2334 C 217.378 -0.391674 -1.90516 0
M  V30 2335 O 216.633 0.62533 -1.8544 0
M  V30 2336 C 216.932 -2.83428 -2.17723 0
M  V30 2337 C 216.598 -4.21672 -1.59699 0
M  V30 2338 C 215.26 -4.59274 -1.43599 0
M  V30 2339 C 217.612 -5.07825 -1.17317 0
M  V30 2340 C 214.94 -5.80709 -0.836328 0
M  V30 2341 C 217.292 -6.29864 -0.587691 0
M  V30 2342 C 215.956 -6.66216 -0.413818 0
M  V30 2343 H 215.226 -0.608192 -0.423301 0
M  V30 2344 H 217.873 -1.86279 -0.444097 0
M  V30 2345 H 216.178 -2.57687 -2.95135 0
M  V30 2346 H 217.875 -2.91477 -2.75394 0
M  V30 2347 H 214.465 -3.9204 -1.73213 0
M  V30 2348 H 218.649 -4.79359 -1.28565 0
M  V30 2349 H 213.905 -6.07498 -0.689626 0
M  V30 2350 H 218.079 -6.95948 -0.250894 0
M  V30 2351 H 215.706 -7.60182 0.0529471 0
M  V30 2352 N 217.281 0.66697 -1.42791 0
M  V30 2353 C 218.527 1.4291 -1.43891 0
M  V30 2354 C 218.86 1.94114 -0.0578972 0
M  V30 2355 O 218.135 1.71414 0.91911 0
M  V30 2356 C 218.418 2.62049 -2.46987 0
M  V30 2357 C 218.271 2.16426 -3.94309 0
M  V30 2358 C 219.59 3.64266 -2.46978 0
M  V30 2359 H 216.709 0.518306 -0.523954 0
M  V30 2360 H 219.351 0.757321 -1.74255 0
M  V30 2361 H 217.501 3.19361 -2.21225 0
M  V30 2362 H 219.173 1.64221 -4.31079 0
M  V30 2363 H 217.416 1.47925 -4.078 0
M  V30 2364 H 218.087 3.02038 -4.62036 0
M  V30 2365 H 220.563 3.16686 -2.69906 0
M  V30 2366 H 219.439 4.45196 -3.21079 0
M  V30 2367 H 219.7 4.15927 -1.49857 0
M  V30 2368 N 218.759 1.29093 0.90403 0
M  V30 2369 C 219.709 1.10482 1.99443 0
M  V30 2370 C 220.693 0.0255401 1.6088 0
M  V30 2371 O 221.885 0.24677 1.75271 0
M  V30 2372 C 219.014 0.778882 3.34348 0
M  V30 2373 C 218.1 1.89749 3.79284 0
M  V30 2374 N 218.491 3.14045 3.96497 0
M  V30 2375 C 216.789 1.78955 4.08523 0
M  V30 2376 C 217.49 3.86996 4.34292 0
M  V30 2377 N 216.466 3.14909 4.43095 0
M  V30 2378 H 220.268 2.04778 2.10815 0
M  V30 2379 H 217.782 1.20155 1.09255 0
M  V30 2380 H 219.779 0.62661 4.12164 0
M  V30 2381 H 218.439 -0.156205 3.24324 0
M  V30 2382 H 219.45 3.49548 3.82148 0
M  V30 2383 H 216.127 0.926886 4.07081 0
M  V30 2384 H 217.517 4.93941 4.55491 0
M  V30 2385 N 220.237 -1.11381 1.11499 0
M  V30 2386 C 221.514 -1.7955 0.775965 0
M  V30 2387 C 221.894 -1.97859 -0.73588 0
M  V30 2388 O 221.242 -1.56376 -1.66609 0
M  V30 2389 C 221.452 -3.13196 1.53977 0
M  V30 2390 C 222.8 -3.88227 1.71944 0
M  V30 2391 O 223.824 -3.22887 1.50407 0
M  V30 2392 O 222.683 -5.05477 2.07738 0
M  V30 2393 H 219.777 -0.777728 0.28119 0
M  V30 2394 H 222.323 -1.18118 1.21845 0
M  V30 2395 H 221.095 -2.95229 2.56818 0
M  V30 2396 H 220.718 -3.82342 1.09088 0
M  V30 2397 N 221.715 -0.905404 -1.28997 0
M  V30 2398 C 222.945 -0.549049 -1.99171 0
M  V30 2399 C 223.353 0.87203 -1.67906 0
M  V30 2400 O 222.696 1.58796 -0.923561 0
M  V30 2401 C 222.758 -0.668306 -3.53234 0
M  V30 2402 C 222.422 -2.0574 -4.08069 0
M  V30 2403 C 223.419 -3.0292 -4.22534 0
M  V30 2404 C 221.104 -2.36833 -4.42962 0
M  V30 2405 C 223.098 -4.29314 -4.71135 0
M  V30 2406 C 220.785 -3.63467 -4.91258 0
M  V30 2407 C 221.783 -4.59522 -5.053 0
M  V30 2408 O 221.471 -5.83907 -5.52546 0
M  V30 2409 H 221.203 -0.208784 -0.64295 0
M  V30 2410 H 223.757 -1.21836 -1.65363 0
M  V30 2411 H 221.987 0.0580547 -3.86656 0
M  V30 2412 H 223.676 -0.320273 -4.04634 0
M  V30 2413 H 224.442 -2.80216 -3.95859 0
M  V30 2414 H 220.321 -1.62824 -4.31288 0
M  V30 2415 H 223.865 -5.04293 -4.8201 0
M  V30 2416 H 219.762 -3.86 -5.17372 0
M  V30 2417 H 220.53 -5.86578 -5.70849 0
M  V30 2418 N 223.193 1.4272 -0.668489 0
M  V30 2419 C 224.442 2.00846 -0.185389 0
M  V30 2420 C 224.755 1.53442 1.21305 0
M  V30 2421 O 225.961 2.03944 1.79218 0
M  V30 2422 C 224.417 3.58805 -0.280591 0
M  V30 2423 C 224.025 4.15198 -1.68268 0
M  V30 2424 C 225.769 4.24255 0.14412 0
M  V30 2425 C 223.676 5.655 -1.73099 0
M  V30 2426 H 222.606 0.751145 -0.0655475 0
M  V30 2427 H 225.257 1.63516 -0.832752 0
M  V30 2428 H 223.639 3.93608 0.434553 0
M  V30 2429 H 224.813 3.91866 -2.42441 0
M  V30 2430 H 223.128 3.62176 -2.05469 0
M  V30 2431 H 225.725 5.34547 0.128086 0
M  V30 2432 H 226.068 3.99277 1.17827 0
M  V30 2433 H 226.601 3.94389 -0.519798 0
M  V30 2434 H 223.34 5.95268 -2.74475 0
M  V30 2435 H 222.86 5.90842 -1.03274 0
M  V30 2436 H 224.539 6.29808 -1.48158 0
M  V30 2437 N 224.671 0.411399 1.52136 0
M  V30 2438 C 225.621 -0.430376 2.23901 0
M  V30 2439 C 226.605 -1.0116 1.25121 0
M  V30 2440 O 227.797 -0.934044 1.50348 0
M  V30 2441 C 224.926 -1.54527 3.06556 0
M  V30 2442 C 224.012 -0.9747 4.12747 0
M  V30 2443 N 224.403 -0.130991 5.0563 0
M  V30 2444 C 222.701 -1.24497 4.28271 0
M  V30 2445 C 223.402 0.186689 5.814 0
M  V30 2446 N 222.378 -0.42304 5.41951 0
M  V30 2447 H 226.18 0.220509 2.93072 0
M  V30 2448 H 223.694 0.221952 1.60876 0
M  V30 2449 H 225.691 -2.16093 3.56524 0
M  V30 2450 H 224.351 -2.19875 2.38925 0
M  V30 2451 H 225.362 0.23349 5.17373 0
M  V30 2452 H 222.039 -1.89787 3.7187 0
M  V30 2453 H 223.429 0.871673 6.66222 0
M  V30 2454 N 226.149 -1.5696 0.141893 0
M  V30 2455 C 227.426 -1.87553 -0.555281 0
M  V30 2456 C 227.806 -1.04699 -1.83306 0
M  V30 2457 O 227.154 -0.132346 -2.28116 0
M  V30 2458 C 227.364 -3.39093 -0.825664 0
M  V30 2459 C 228.712 -4.08199 -1.16869 0
M  V30 2460 O 229.736 -3.44242 -0.915185 0
M  V30 2461 O 228.595 -5.21139 -1.6455 0
M  V30 2462 H 225.689 -0.777188 -0.282679 0
M  V30 2463 H 228.235 -1.68763 0.17812 0
M  V30 2464 H 227.007 -3.91221 0.0788633 0
M  V30 2465 H 226.63 -3.63393 -1.61343 0
M  V30 2466 N 227.627 0.131896 -1.57047 0
M  V30 2467 C 228.904 0.871495 -1.75112 0
M  V30 2468 C 229.284 1.9866 -0.713949 0
M  V30 2469 O 228.632 2.26965 0.264447 0
M  V30 2470 C 228.842 1.40007 -3.19686 0
M  V30 2471 C 230.19 1.85752 -3.81813 0
M  V30 2472 O 231.214 1.49715 -3.23209 0
M  V30 2473 O 230.073 2.5226 -4.84796 0
M  V30 2474 H 227.167 0.412919 -0.716538 0
M  V30 2475 H 229.713 0.116641 -1.69299 0
M  V30 2476 H 228.485 0.599404 -3.86682 0
M  V30 2477 H 228.108 2.218 -3.29986 0
M  V30 2478 N 229.106 1.52395 0.401703 0
M  V30 2479 C 230.352 1.67065 1.14966 0
M  V30 2480 C 230.685 0.403052 1.89971 0
M  V30 2481 O 229.96 -0.598774 1.85054 0
M  V30 2482 C 230.243 2.8975 2.13815 0
M  V30 2483 C 230.096 4.26578 1.42658 0
M  V30 2484 C 231.415 3.07965 3.14397 0
M  V30 2485 H 228.534 0.607968 0.416587 0
M  V30 2486 H 231.176 1.84965 0.434511 0
M  V30 2487 H 229.326 2.74619 2.74803 0
M  V30 2488 H 230.998 4.53451 0.847329 0
M  V30 2489 H 229.241 4.27639 0.72849 0
M  V30 2490 H 229.912 5.08483 2.14823 0
M  V30 2491 H 232.388 3.22043 2.63491 0
M  V30 2492 H 231.264 3.95308 3.80819 0
M  V30 2493 H 231.525 2.21611 3.82545 0
M  V30 2494 N 230.584 -0.659388 1.43143 0
M  V30 2495 C 231.514 -1.78422 1.50625 0
M  V30 2496 C 232.495 -1.66216 0.361443 0
M  V30 2497 O 233.68 -1.85404 0.577834 0
M  V30 2498 C 230.81 -3.16815 1.42287 0
M  V30 2499 C 229.764 -3.43777 2.54954 0
M  V30 2500 C 229.09 -4.81905 2.31671 0
M  V30 2501 C 230.39 -3.39134 3.97222 0
M  V30 2502 H 232.084 -1.72417 2.44771 0
M  V30 2503 H 229.63 -0.828084 1.17808 0
M  V30 2504 H 231.583 -3.95253 1.46127 0
M  V30 2505 H 230.307 -3.23534 0.446435 0
M  V30 2506 H 228.966 -2.67707 2.50457 0
M  V30 2507 H 228.614 -4.85294 1.32284 0
M  V30 2508 H 228.314 -5.00906 3.07192 0
M  V30 2509 H 229.838 -5.62609 2.37284 0
M  V30 2510 H 231.252 -4.07518 4.03239 0
M  V30 2511 H 229.649 -3.69671 4.72719 0
M  V30 2512 H 230.719 -2.37426 4.22797 0
M  V30 2513 N 232.062 -1.29571 -0.897171 0
M  V30 2514 C 233.287 -1.20705 -1.68656 0
M  V30 2515 C 233.712 0.228582 -1.86706 0
M  V30 2516 O 233.07 1.16494 -1.3892 0
M  V30 2517 C 233.118 -1.9282 -3.04717 0
M  V30 2518 O 232.222 -1.24697 -3.93096 0
M  V30 2519 H 231.563 -0.418126 -0.515816 0
M  V30 2520 H 234.093 -1.71183 -1.12061 0
M  V30 2521 H 234.103 -2.01372 -3.54843 0
M  V30 2522 H 232.778 -2.97239 -2.90899 0
M  V30 2523 H 231.355 -1.2442 -3.51531 0
M  V30 2524 N 233.54 1.10788 -1.12088 0
M  V30 2525 C 234.487 2.17025 -0.785407 0
M  V30 2526 C 235.457 1.64265 0.246191 0
M  V30 2527 O 236.642 1.90412 0.121584 0
M  V30 2528 C 233.782 3.44249 -0.242177 0
M  V30 2529 C 232.895 4.1098 -1.33115 0
M  V30 2530 C 232.03 5.25911 -0.747741 0
M  V30 2531 C 231.069 5.84538 -1.81609 0
M  V30 2532 N 230.206 6.90853 -1.25167 0
M  V30 2533 H 235.046 2.45066 -1.69548 0
M  V30 2534 H 232.583 1.20297 -0.846582 0
M  V30 2535 H 234.541 4.17101 0.0908026 0
M  V30 2536 H 233.171 3.16571 0.631072 0
M  V30 2537 H 232.223 3.36133 -1.78097 0
M  V30 2538 H 233.535 4.50601 -2.13917 0
M  V30 2539 H 232.689 6.056 -0.365216 0
M  V30 2540 H 231.428 4.87614 0.0915188 0
M  V30 2541 H 230.433 5.03522 -2.20785 0
M  V30 2542 H 231.658 6.249 -2.6585 0
M  V30 2543 H 229.604 6.54562 -0.434174 0
M  V30 2544 H 229.521 7.29166 -1.99633 0
M  V30 2545 H 230.789 7.7433 -0.896259 0
M  V30 2546 N 235.018 0.912232 1.28515 0
M  V30 2547 C 236.243 0.559774 1.99703 0
M  V30 2548 C 236.668 -0.851393 1.67729 0
M  V30 2549 O 236.026 -1.56875 0.908834 0
M  V30 2550 C 236.074 0.773874 3.52198 0
M  V30 2551 O 235.178 -0.167842 4.12058 0
M  V30 2552 H 234.519 0.21723 0.627461 0
M  V30 2553 H 237.049 1.22725 1.63706 0
M  V30 2554 H 237.059 0.683386 4.02236 0
M  V30 2555 H 235.734 1.80261 3.74805 0
M  V30 2556 H 234.311 -0.0287509 3.72889 0
M  V30 2557 N 236.496 -1.42363 0.676048 0
M  V30 2558 C 237.443 -2.308 -0.00150904 0
M  V30 2559 C 238.413 -1.46032 -0.791444 0
M  V30 2560 O 239.598 -1.74861 -0.76344 0
M  V30 2561 C 236.738 -3.31883 -0.945919 0
M  V30 2562 C 235.851 -4.31741 -0.149675 0
M  V30 2563 C 234.986 -5.19898 -1.08995 0
M  V30 2564 C 234.025 -6.11434 -0.285465 0
M  V30 2565 N 233.162 -6.92138 -1.17851 0
M  V30 2566 H 238.002 -2.88187 0.758455 0
M  V30 2567 H 235.539 -1.41952 0.38576 0
M  V30 2568 H 237.497 -3.89019 -1.50731 0
M  V30 2569 H 236.127 -2.76093 -1.6725 0
M  V30 2570 H 235.179 -3.76713 0.528359 0
M  V30 2571 H 236.491 -4.96534 0.474866 0
M  V30 2572 H 235.645 -5.81772 -1.72123 0
M  V30 2573 H 234.384 -4.55284 -1.74837 0
M  V30 2574 H 233.389 -5.48627 0.359018 0
M  V30 2575 H 234.614 -6.78097 0.368883 0
M  V30 2576 H 232.56 -6.30152 -1.82332 0
M  V30 2577 H 232.477 -7.53542 -0.609082 0
M  V30 2578 H 233.745 -7.58499 -1.79722 0
M  V30 2579 N 237.974 -0.419461 -1.51915 0
M  V30 2580 C 239.39 -0.0708431 -1.59443 0
M  V30 2581 C 239.59 1.41796 -1.43164 0
M  V30 2582 O 238.646 2.18596 -1.26381 0
M  V30 2583 C 239.959 -0.574991 -2.95151 0
M  V30 2584 C 241.507 -0.533867 -3.08413 0
M  V30 2585 C 241.982 -1.01469 -4.46618 0
M  V30 2586 N 243.473 -0.971939 -4.52888 0
M  V30 2587 C 244.208 -1.31505 -5.58116 0
M  V30 2588 N 243.704 -1.73014 -6.70849 0
M  V30 2589 N 245.497 -1.23436 -5.48379 0
M  V30 2590 H 237.648 -1.38836 -1.60743 0
M  V30 2591 H 239.911 -0.570998 -0.756747 0
M  V30 2592 H 239.617 -1.61597 -3.12377 0
M  V30 2593 H 239.491 0.00979777 -3.77199 0
M  V30 2594 H 241.878 0.498086 -2.90866 0
M  V30 2595 H 241.959 -1.15484 -2.28248 0
M  V30 2596 H 241.603 -2.04502 -4.6491 0
M  V30 2597 H 241.533 -0.370433 -5.25295 0
M  V30 2598 H 244.024 -0.666893 -3.71969 0
M  V30 2599 H 244.337 -1.97479 -7.47143 0
M  V30 2600 H 242.682 -1.76926 -6.72103 0
M  V30 2601 H 245.873 -0.908869 -4.59192 0
M  V30 2602 H 246.046 -1.50506 -6.30279 0
M  V30 2603 N 239.452 1.56882 -0.150215 0
M  V30 2604 C 240.384 2.14057 0.819286 0
M  V30 2605 C 241.397 1.09082 1.20851 0
M  V30 2606 O 242.586 1.36347 1.15203 0
M  V30 2607 C 239.686 2.65102 2.11127 0
M  V30 2608 C 238.859 3.94511 1.88891 0
M  V30 2609 C 237.918 4.30834 3.02107 0
M  V30 2610 O 236.944 4.99099 2.73659 0
M  V30 2611 N 238.146 3.90676 4.29363 0
M  V30 2612 H 240.911 2.97871 0.330618 0
M  V30 2613 H 238.472 1.61866 0.0332538 0
M  V30 2614 H 240.464 2.86411 2.85921 0
M  V30 2615 H 239.034 1.85994 2.51247 0
M  V30 2616 H 238.254 3.81795 0.981152 0
M  V30 2617 H 239.542 4.7907 1.71376 0
M  V30 2618 H 238.94 3.35677 4.55343 0
M  V30 2619 H 237.497 4.1703 5.00928 0
M  V30 2620 N 240.93 -0.123565 1.57115 0
M  V30 2621 C 241.893 -1.13583 1.99076 0
M  V30 2622 C 242.893 -1.34564 0.880296 0
M  V30 2623 O 244.083 -1.31158 1.14644 0
M  V30 2624 C 241.215 -2.49128 2.32698 0
M  V30 2625 H 242.408 -0.775287 2.89706 0
M  V30 2626 H 239.961 -0.36771 1.51913 0
M  V30 2627 H 240.696 -2.90111 1.44934 0
M  V30 2628 H 240.481 -2.35255 3.13684 0
M  V30 2629 H 241.971 -3.2199 2.65918 0
M  V30 2630 N 242.408 -1.52605 -0.393616 0
M  V30 2631 C 243.341 -1.71798 -1.50202 0
M  V30 2632 C 244.319 -0.565743 -1.52441 0
M  V30 2633 O 245.503 -0.794987 -1.70916 0
M  V30 2634 C 242.63 -1.7714 -2.88685 0
M  V30 2635 C 241.676 -2.98845 -3.04292 0
M  V30 2636 S 242.509 -4.58909 -2.75976 0
M  V30 2637 C 243.665 -4.6706 -4.1666 0
M  V30 2638 H 243.898 -2.65542 -1.33696 0
M  V30 2639 H 241.431 -1.42839 -0.586195 0
M  V30 2640 H 243.389 -1.80903 -3.68489 0
M  V30 2641 H 242.05 -0.844969 -3.02521 0
M  V30 2642 H 241.243 -2.99111 -4.05646 0
M  V30 2643 H 240.845 -2.9305 -2.32374 0
M  V30 2644 H 243.137 -4.45391 -5.10523 0
M  V30 2645 H 244.08 -5.6905 -4.21412 0
M  V30 2646 H 244.488 -3.95944 -4.02354 0
M  V30 2647 N 243.887 0.651787 -1.4349 0
M  V30 2648 C 244.817 1.77621 -1.51569 0
M  V30 2649 C 245.798 1.66022 -0.370253 0
M  V30 2650 O 246.983 1.85095 -0.587658 0
M  V30 2651 C 244.113 3.16056 -1.43966 0
M  V30 2652 C 243.067 3.4242 -2.56774 0
M  V30 2653 C 242.393 4.8067 -2.34223 0
M  V30 2654 C 243.693 3.37023 -3.99015 0
M  V30 2655 H 245.387 1.71117 -2.45681 0
M  V30 2656 H 242.933 0.821825 -1.18246 0
M  V30 2657 H 244.886 3.94472 -1.48221 0
M  V30 2658 H 243.61 3.23293 -0.463586 0
M  V30 2659 H 242.269 2.66375 -2.51873 0
M  V30 2660 H 241.917 4.84585 -1.34856 0
M  V30 2661 H 241.617 4.9927 -3.09844 0
M  V30 2662 H 243.141 5.61342 -2.40265 0
M  V30 2663 H 244.555 4.05374 -4.05395 0
M  V30 2664 H 242.952 3.67159 -4.74673 0
M  V30 2665 H 244.022 2.3518 -4.2405 0
M  V30 2666 N 245.365 1.30045 0.890287 0
M  V30 2667 C 246.275 1.17885 2.02831 0
M  V30 2668 C 247.291 0.0999609 1.73713 0
M  V30 2669 O 248.467 0.313867 1.98939 0
M  V30 2670 C 245.532 0.866079 3.35708 0
M  V30 2671 C 244.593 2.02979 3.78283 0
M  V30 2672 C 243.826 1.73184 5.0482 0
M  V30 2673 O 244.049 0.657237 5.66601 0
M  V30 2674 O 242.983 2.58267 5.43674 0
M  V30 2675 H 246.809 2.13474 2.16015 0
M  V30 2676 H 244.394 1.09587 1.01543 0
M  V30 2677 H 246.276 0.706623 4.15433 0
M  V30 2678 H 244.951 -0.0599443 3.23644 0
M  V30 2679 H 243.858 2.24454 2.99285 0
M  V30 2680 H 245.191 2.93734 3.94944 0
M  V30 2681 N 246.843 -1.10192 1.12674 0
M  V30 2682 C 248.071 -1.85983 0.906527 0
M  V30 2683 C 248.486 -1.80783 -0.544333 0
M  V30 2684 O 247.843 -1.19834 -1.37645 0
M  V30 2685 C 247.894 -3.34281 1.37618 0
M  V30 2686 O 247.615 -3.39401 2.77017 0
M  V30 2687 C 249.116 -4.26938 1.19325 0
M  V30 2688 H 246.336 -0.587716 0.323775 0
M  V30 2689 H 248.88 -1.39284 1.49734 0
M  V30 2690 H 247.035 -3.78436 0.828539 0
M  V30 2691 H 247.449 -4.31838 2.97684 0
M  V30 2692 H 248.923 -5.29181 1.57071 0
M  V30 2693 H 249.4 -4.38995 0.134097 0
M  V30 2694 H 250.006 -3.8859 1.72852 0
M  V30 2695 N 248.321 -0.919034 -1.28029 0
M  V30 2696 C 249.57 -0.550802 -1.94034 0
M  V30 2697 C 249.883 0.910877 -1.73096 0
M  V30 2698 O 251.089 1.3875 -2.33368 0
M  V30 2699 C 249.545 -0.934249 -3.47563 0
M  V30 2700 C 249.153 -2.41602 -3.7727 0
M  V30 2701 C 250.897 -0.636854 -4.19696 0
M  V30 2702 C 248.804 -2.73932 -5.24133 0
M  V30 2703 H 247.734 -0.202273 -0.726362 0
M  V30 2704 H 250.385 -1.11867 -1.45458 0
M  V30 2705 H 248.767 -0.295115 -3.94899 0
M  V30 2706 H 249.941 -3.10233 -3.40723 0
M  V30 2707 H 248.256 -2.68441 -3.18321 0
M  V30 2708 H 250.853 -0.855005 -5.2782 0
M  V30 2709 H 251.196 0.425575 -4.14119 0
M  V30 2710 H 251.729 -1.23469 -3.78154 0
M  V30 2711 H 248.468 -3.79049 -5.34792 0
M  V30 2712 H 247.988 -2.09942 -5.61858 0
M  V30 2713 H 249.667 -2.61215 -5.91925 0
M  V30 2714 N 249.799 1.42003 -0.683588 0
M  V30 2715 C 250.729 2.33487 -0.024866 0
M  V30 2716 C 251.71 1.51163 0.779975 0
M  V30 2717 O 252.895 1.79739 0.735362 0
M  V30 2718 C 250.025 3.3487 0.920836 0
M  V30 2719 C 248.979 4.27414 0.223958 0
M  V30 2720 C 248.305 5.19074 1.2832 0
M  V30 2721 C 249.605 5.14445 -0.90242 0
M  V30 2722 H 251.299 2.88819 -0.788921 0
M  V30 2723 H 248.845 1.38873 -0.38083 0
M  V30 2724 H 250.798 3.97787 1.39081 0
M  V30 2725 H 249.522 2.77861 1.71642 0
M  V30 2726 H 248.181 3.65904 -0.225864 0
M  V30 2727 H 247.829 4.58387 2.071 0
M  V30 2728 H 247.529 5.81822 0.821995 0
M  V30 2729 H 249.053 5.84867 1.75392 0
M  V30 2730 H 250.467 5.70998 -0.513272 0
M  V30 2731 H 248.864 5.86072 -1.28997 0
M  V30 2732 H 249.934 4.52322 -1.74737 0
M  V30 2733 N 251.277 0.427512 1.51691 0
M  V30 2734 C 252.187 -0.39527 2.31246 0
M  V30 2735 C 253.203 -1.03674 1.39742 0
M  V30 2736 O 254.379 -1.03425 1.72816 0
M  V30 2737 C 251.444 -1.48706 3.13189 0
M  V30 2738 C 250.505 -0.866743 4.20459 0
M  V30 2739 C 249.738 -1.90651 4.98486 0
M  V30 2740 O 249.961 -3.12733 4.77026 0
M  V30 2741 O 248.895 -1.5025 5.82845 0
M  V30 2742 H 252.721 0.253918 3.02637 0
M  V30 2743 H 250.306 0.190274 1.48183 0
M  V30 2744 H 252.188 -2.12047 3.64162 0
M  V30 2745 H 250.863 -2.12051 2.44573 0
M  V30 2746 H 249.77 -0.195544 3.73589 0
M  V30 2747 H 251.103 -0.276934 4.9142 0
M  V30 2748 N 252.755 -1.56801 0.158532 0
M  V30 2749 C 253.685 -2.20347 -0.772609 0
M  V30 2750 C 254.666 -1.15518 -1.24859 0
M  V30 2751 O 255.851 -1.43902 -1.30406 0
M  V30 2752 C 252.981 -2.83417 -2.00729 0
M  V30 2753 C 251.935 -3.94174 -1.66765 0
M  V30 2754 C 251.261 -4.44233 -2.97592 0
M  V30 2755 C 252.561 -5.14392 -0.905447 0
M  V30 2756 H 254.255 -2.98413 -0.242959 0
M  V30 2757 H 251.801 -1.43537 -0.115419 0
M  V30 2758 H 253.754 -3.26543 -2.6636 0
M  V30 2759 H 252.478 -2.02701 -2.56086 0
M  V30 2760 H 251.137 -3.51684 -1.03508 0
M  V30 2761 H 250.785 -3.60325 -3.50963 0
M  V30 2762 H 250.485 -5.18945 -2.75626 0
M  V30 2763 H 252.009 -4.90037 -3.64274 0
M  V30 2764 H 253.423 -5.5429 -1.46408 0
M  V30 2765 H 251.82 -5.9494 -0.7853 0
M  V30 2766 H 252.89 -4.84795 0.100668 0
M  V30 2767 N 254.233 0.115231 -1.57178 0
M  V30 2768 C 255.482 0.820945 -1.84237 0
M  V30 2769 C 255.795 1.80866 -0.744761 0
M  V30 2770 O 257.001 2.56083 -0.901871 0
M  V30 2771 C 255.457 1.51072 -3.26658 0
M  V30 2772 C 255.065 0.563795 -4.44438 0
M  V30 2773 C 256.809 2.20134 -3.62962 0
M  V30 2774 C 254.716 1.25701 -5.77887 0
M  V30 2775 H 253.646 0.310328 -0.687177 0
M  V30 2776 H 256.297 0.0737134 -1.83352 0
M  V30 2777 H 254.679 2.30471 -3.22024 0
M  V30 2778 H 255.853 -0.197247 -4.60378 0
M  V30 2779 H 254.168 -0.0200638 -4.16395 0
M  V30 2780 H 256.765 2.72696 -4.59936 0
M  V30 2781 H 257.108 2.98107 -2.90582 0
M  V30 2782 H 257.641 1.47619 -3.69396 0
M  V30 2783 H 254.38 0.518493 -6.53446 0
M  V30 2784 H 253.9 1.98997 -5.65827 0
M  V30 2785 H 255.579 1.78915 -6.2177 0
M  V30 2786 N 255.711 1.52812 0.385517 0
M  V30 2787 C 257.122 1.5993 0.963293 0
M  V30 2788 C 257.473 0.454302 1.90868 0
M  V30 2789 O 256.598 -0.422132 2.12243 0
M  V30 2790 C 257.193 2.89871 1.75387 0
M  V30 2791 C 255.752 2.99389 2.28129 0
M  V30 2792 C 254.899 2.55071 1.08783 0
M  V30 2793 H 257.85 1.5784 0.164948 0
M  V30 2794 H 257.871 2.76553 2.61341 0
M  V30 2795 H 257.383 3.73186 1.06554 0
M  V30 2796 H 255.484 2.20619 3.00263 0
M  V30 2797 H 255.597 4.04096 2.57377 0
M  V30 2798 H 253.961 2.09473 1.4489 0
M  V30 2799 H 254.744 3.40785 0.414807 0
M  V30 2800 N 257.189 -0.644168 1.43834 0
M  V30 2801 C 258.414 -1.43642 1.49605 0
M  V30 2802 C 258.839 -1.8773 0.117913 0
M  V30 2803 O 258.197 -1.57938 -0.890239 0
M  V30 2804 C 258.245 -2.6416 2.45463 0
M  V30 2805 O 257.349 -3.63538 1.94714 0
M  V30 2806 H 256.69 -0.430329 0.50568 0
M  V30 2807 H 259.22 -0.787448 1.8884 0
M  V30 2808 H 259.23 -3.11864 2.63068 0
M  V30 2809 H 257.905 -2.31414 3.45572 0
M  V30 2810 H 256.482 -3.2273 1.86814 0
M  V30 2811 N 258.668 -1.30515 -0.883378 0
M  V30 2812 C 259.6 -1.12846 -1.99496 0
M  V30 2813 C 260.613 -0.0712571 -1.62644 0
M  V30 2814 O 261.802 -0.317432 -1.75655 0
M  V30 2815 C 258.902 -0.699123 -3.3161 0
M  V30 2816 C 258.075 -1.83842 -3.96889 0
M  V30 2817 C 257.134 -1.39737 -5.07307 0
M  V30 2818 O 256.16 -2.10485 -5.28852 0
M  V30 2819 N 257.362 -0.277279 -5.79837 0
M  V30 2820 H 260.127 -2.08585 -2.15203 0
M  V30 2821 H 257.688 -1.22672 -1.05656 0
M  V30 2822 H 259.68 -0.387044 -4.02845 0
M  V30 2823 H 258.25 0.166276 -3.12157 0
M  V30 2824 H 257.47 -2.31853 -3.18807 0
M  V30 2825 H 258.758 -2.60187 -4.37241 0
M  V30 2826 H 258.156 0.3122 -5.64838 0
M  V30 2827 H 256.713 -0.0246623 -6.51795 0
M  V30 2828 N 260.146 1.09593 -1.13257 0
M  V30 2829 C 261.374 1.855 -0.916378 0
M  V30 2830 C 261.789 1.81069 0.534738 0
M  V30 2831 O 261.146 1.20562 1.37007 0
M  V30 2832 C 261.197 3.33546 -1.39388 0
M  V30 2833 O 260.918 3.37927 -2.78813 0
M  V30 2834 C 262.419 4.26299 -1.21588 0
M  V30 2835 H 259.639 0.585991 -0.326887 0
M  V30 2836 H 262.183 1.38488 -1.5047 0
M  V30 2837 H 260.338 3.77992 -0.848597 0
M  V30 2838 H 260.752 4.30254 -2.9997 0
M  V30 2839 H 262.226 5.28341 -1.59876 0
M  V30 2840 H 262.703 4.38918 -0.157376 0
M  V30 2841 H 263.309 3.87668 -1.7491 0
M  V30 2842 O 261.663 1.05716 1.22092 0
M  V30 2843 H 262.354 0.735773 1.79182 0
M  V30 END ATOM
M  V30 BEGIN BOND
M  V30 END BOND
M  V30 END CTAB
M  END
$$$$
