drugbank_target|Q8TE23 Taste receptor type 1 member 2 (DB00168; DB02772)
 OpenBabel12092119313D

  0  0  0     0  0            999 V3000
M  V30 BEGIN CTAB
M  V30 COUNTS 13362 13540 0 0 0
M  V30 BEGIN ATOM
M  V30 1 H -0.908 1.98254 -0.117106 0
M  V30 2 N 0 1.576 0 0
M  V30 3 C 0.933 2.03868 1.02534 0
M  V30 4 C 1.911 0.928543 1.3348 0
M  V30 5 O 3.095 1.19667 1.45644 0
M  V30 6 C 0.222 2.43627 2.35294 0
M  V30 7 C -0.732 3.65373 2.2001 0
M  V30 8 S 0.101 5.13292 1.52614 0
M  V30 9 C 1.257 5.56322 2.86805 0
M  V30 10 H 1.49 2.90518 0.631377 0
M  V30 11 H -0.977 1.52953 0.210867 0
M  V30 12 H 0.981 2.67203 3.11629 0
M  V30 13 H -0.358 1.57376 2.7183 0
M  V30 14 H -1.165 3.90944 3.18086 0
M  V30 15 H -1.563 3.418 1.51819 0
M  V30 16 H 0.729 5.58782 3.83104 0
M  V30 17 H 1.672 6.56266 2.65933 0
M  V30 18 H 2.08 4.83886 2.90714 0
M  V30 19 N 1.4781 -0.272755 1.55222 0
M  V30 20 C 2.7261 -1.00234 1.75492 0
M  V30 21 C 3.0471 -1.8681 0.5592 0
M  V30 22 O 2.3171 -1.91215 -0.425882 0
M  V30 23 H 0.8971 -0.373076 0.647166 0
M  V30 24 H 3.5591 -0.296926 1.92625 0
M  V30 25 H 2.6551 -1.63913 2.65592 0
M  V30 26 N 2.9562 -1.48159 -0.537278 0
M  V30 27 C 4.3672 -1.49429 -1.11928 0
M  V30 28 C 4.7182 -0.26 -1.9447 0
M  V30 29 O 3.8432 0.633489 -2.0692 0
M  V30 30 C 4.4382 -2.70758 -2.03656 0
M  V30 31 C 2.9972 -2.74923 -2.57088 0
M  V30 32 C 2.1442 -2.42835 -1.3389 0
M  V30 33 H 5.0952 -1.55381 -0.322886 0
M  V30 34 H 5.1162 -2.48861 -2.87834 0
M  V30 35 H 4.6282 -3.60575 -1.43553 0
M  V30 36 H 2.7292 -1.89296 -3.20933 0
M  V30 37 H 2.8422 -3.76157 -2.9672 0
M  V30 38 H 1.2062 -1.93836 -1.65226 0
M  V30 39 H 1.9892 -3.34884 -0.755504 0
M  V30 40 N 4.4343 0.785586 -1.36625 0
M  V30 41 C 5.8503 1.08419 -1.17122 0
M  V30 42 C 6.0503 2.015 0.00208491 0
M  V30 43 O 5.1063 2.43551 0.666278 0
M  V30 44 C 6.4193 1.69498 -2.48377 0
M  V30 45 C 7.9673 1.81821 -2.54775 0
M  V30 46 C 8.4423 2.46315 -3.86126 0
M  V30 47 N 9.9333 2.53779 -3.87492 0
M  V30 48 C 10.6683 3.045 -4.85868 0
M  V30 49 N 10.1643 3.55499 -5.94637 0
M  V30 50 N 11.9573 3.03247 -4.73284 0
M  V30 51 H 4.1083 0.167264 -2.1174 0
M  V30 52 H 6.3713 0.13682 -0.938075 0
M  V30 53 H 6.0773 1.08571 -3.34522 0
M  V30 54 H 5.9513 2.6896 -2.64462 0
M  V30 55 H 8.3383 2.41884 -1.69045 0
M  V30 56 H 8.4193 0.811532 -2.42586 0
M  V30 57 H 8.0633 1.86895 -4.72263 0
M  V30 58 H 7.9933 3.47561 -3.95612 0
M  V30 59 H 10.4843 2.17672 -3.08913 0
M  V30 60 H 10.7973 3.92562 -6.65669 0
M  V30 61 H 9.1423 3.5364 -5.98301 0
M  V30 62 H 12.3333 2.62696 -3.87438 0
M  V30 63 H 12.5063 3.42467 -5.50109 0
M  V30 64 N 5.9124 1.20967 1.01018 0
M  V30 65 C 6.8754 0.965918 2.07853 0
M  V30 66 C 7.8754 -0.0610545 1.60684 0
M  V30 67 O 9.0654 0.175681 1.73312 0
M  V30 68 C 6.1974 0.455513 3.37843 0
M  V30 69 H 7.3904 1.91365 2.3091 0
M  V30 70 H 4.9434 1.02594 1.17916 0
M  V30 71 H 5.6784 -0.497381 3.20463 0
M  V30 72 H 5.4634 1.19622 3.73407 0
M  V30 73 H 6.9534 0.304667 4.16487 0
M  V30 74 N 7.3905 -1.2043 1.01659 0
M  V30 75 C 8.3375 -2.23215 0.586822 0
M  V30 76 C 9.3075 -1.61382 -0.393085 0
M  V30 77 O 10.4925 -1.88544 -0.292525 0
M  V30 78 C 7.6325 -3.45032 -0.0687464 0
M  V30 79 C 6.7455 -4.21296 0.955724 0
M  V30 80 C 5.8805 -5.30507 0.271208 0
M  V30 81 C 4.9195 -5.98515 1.28244 0
M  V30 82 N 4.0565 -6.99316 0.62459 0
M  V30 83 H 8.8965 -2.59336 1.46796 0
M  V30 84 H 6.4335 -1.27431 0.734836 0
M  V30 85 H 8.3915 -4.1459 -0.465965 0
M  V30 86 H 7.0215 -3.09604 -0.913529 0
M  V30 87 H 6.0735 -3.50803 1.4711 0
M  V30 88 H 7.3855 -4.6803 1.72479 0
M  V30 89 H 6.5395 -6.06428 -0.18151 0
M  V30 90 H 5.2785 -4.8481 -0.530163 0
M  V30 91 H 4.2835 -5.21355 1.74554 0
M  V30 92 H 5.5085 -6.46298 2.08509 0
M  V30 93 H 3.4545 -6.55812 -0.156914 0
M  V30 94 H 3.3715 -7.44178 1.33172 0
M  V30 95 H 4.6395 -7.79255 0.195462 0
M  V30 96 N 8.8686 -0.792821 -1.36206 0
M  V30 97 C 10.0966 -0.378825 -2.03402 0
M  V30 98 C 10.5116 1.00586 -1.59774 0
M  V30 99 O 9.8686 1.64574 -0.788764 0
M  V30 100 C 9.9196 -0.43683 -3.58851 0
M  V30 101 O 9.6406 -1.76691 -4.00889 0
M  V30 102 C 11.1416 -0.0138943 -4.43298 0
M  V30 103 H 8.3616 -0.155673 -0.652692 0
M  V30 104 H 10.9056 -1.07261 -1.74113 0
M  V30 105 H 9.0606 0.208575 -3.86838 0
M  V30 106 H 9.4746 -1.72011 -4.95492 0
M  V30 107 H 10.9486 -0.105615 -5.51899 0
M  V30 108 H 11.4256 1.03915 -4.2673 0
M  V30 109 H 12.0316 -0.63192 -4.20579 0
M  V30 110 N 10.3467 1.47872 -0.545128 0
M  V30 111 C 11.5957 2.01695 -0.0145033 0
M  V30 112 C 11.9087 1.42609 1.33873 0
M  V30 113 O 13.1147 1.88021 1.95858 0
M  V30 114 C 11.5707 3.59892 0.0245068 0
M  V30 115 C 11.1787 4.27966 -1.32475 0
M  V30 116 C 12.9227 4.21507 0.50316 0
M  V30 117 C 10.8297 5.78136 -1.2455 0
M  V30 118 H 9.7597 0.753998 -0.00165172 0
M  V30 119 H 12.4107 1.69985 -0.691175 0
M  V30 120 H 10.7927 3.88509 0.766575 0
M  V30 121 H 11.9667 4.11003 -2.08357 0
M  V30 122 H 10.2817 3.78286 -1.74036 0
M  V30 123 H 12.8787 5.31538 0.580656 0
M  V30 124 H 13.2217 3.87855 1.51243 0
M  V30 125 H 13.7547 3.97376 -0.183681 0
M  V30 126 H 10.4937 6.16388 -2.23039 0
M  V30 127 H 10.0137 5.97469 -0.528282 0
M  V30 128 H 11.6927 6.40099 -0.942488 0
M  V30 129 N 11.8248 0.280983 1.55075 0
M  V30 130 C 13.0498 -0.340154 2.04592 0
M  V30 131 C 13.4748 -1.48246 1.15779 0
M  V30 132 O 12.8328 -1.80614 0.15761 0
M  V30 133 C 12.8808 -0.793104 3.5177 0
M  V30 134 O 11.9848 -1.89981 3.66034 0
M  V30 135 H 11.3258 -0.0694289 0.66036 0
M  V30 136 H 13.8558 0.416993 2.00306 0
M  V30 137 H 13.8658 -1.08729 3.93245 0
M  V30 138 H 12.5408 0.0426163 4.15878 0
M  V30 139 H 11.1178 -1.60771 3.36463 0
M  V30 140 N 13.3029 -1.57598 0.00835791 0
M  V30 141 C 14.5279 -1.95617 -0.689103 0
M  V30 142 C 14.9529 -0.883753 -1.66046 0
M  V30 143 O 14.3109 0.157352 -1.80616 0
M  V30 144 C 14.3589 -3.32736 -1.38994 0
M  V30 145 O 13.4629 -3.27631 -2.50463 0
M  V30 146 H 12.8039 -0.638379 -0.182668 0
M  V30 147 H 15.3339 -2.045 0.064036 0
M  V30 148 H 15.3439 -3.68494 -1.75147 0
M  V30 149 H 14.0189 -4.1034 -0.677778 0
M  V30 150 H 12.5959 -3.03561 -2.16576 0
M  V30 151 N 14.781 0.264519 -1.55364 0
M  V30 152 C 15.711 1.33121 -1.91836 0
M  V30 153 C 16.692 1.51101 -0.781192 0
M  V30 154 O 17.877 1.64003 -1.04003 0
M  V30 155 C 15.007 2.68921 -2.19769 0
M  V30 156 C 13.961 2.65661 -3.35571 0
M  V30 157 C 13.287 4.05093 -3.49004 0
M  V30 158 C 14.587 2.24187 -4.71739 0
M  V30 159 H 16.281 1.02844 -2.81182 0
M  V30 160 H 13.827 0.493286 -1.35287 0
M  V30 161 H 15.78 3.43663 -2.43872 0
M  V30 162 H 14.504 3.00799 -1.27231 0
M  V30 163 H 13.163 1.93377 -3.1145 0
M  V30 164 H 12.811 4.34206 -2.53917 0
M  V30 165 H 12.511 4.03804 -4.26868 0
M  V30 166 H 14.035 4.81561 -3.75408 0
M  V30 167 H 15.449 2.88654 -4.9533 0
M  V30 168 H 13.846 2.34044 -5.52579 0
M  V30 169 H 14.916 1.19327 -4.69988 0
M  V30 170 N 16.2591 1.48442 0.529413 0
M  V30 171 C 17.5061 1.56488 1.28521 0
M  V30 172 C 17.8341 0.239042 1.93025 0
M  V30 173 O 17.0891 -0.770713 1.79885 0
M  V30 174 C 17.3881 2.6523 2.39558 0
M  V30 175 C 17.0541 4.07648 1.92702 0
M  V30 176 C 15.7161 4.46411 1.79641 0
M  V30 177 C 18.0681 4.96896 1.573 0
M  V30 178 C 15.3961 5.72226 1.29514 0
M  V30 179 C 17.7481 6.23202 1.08636 0
M  V30 180 C 16.4121 6.60821 0.941919 0
M  V30 181 H 15.6821 0.572631 0.470292 0
M  V30 182 H 18.3291 1.82161 0.59072 0
M  V30 183 H 16.6341 2.33419 3.14679 0
M  V30 184 H 18.3311 2.68671 2.97686 0
M  V30 185 H 14.9211 3.77036 2.03819 0
M  V30 186 H 19.1051 4.67626 1.66251 0
M  V30 187 H 14.3611 6.00097 1.17019 0
M  V30 188 H 18.5351 6.91753 0.803136 0
M  V30 189 H 16.1621 7.58198 0.5513 0
M  V30 190 N 17.7372 -0.778329 1.37039 0
M  V30 191 C 18.9842 -1.53665 1.31884 0
M  V30 192 C 19.3122 -1.9425 -0.0986303 0
M  V30 193 O 18.5672 -1.63832 -1.07041 0
M  V30 194 C 18.8662 -2.81845 2.19768 0
M  V30 195 C 18.5322 -2.60345 3.68146 0
M  V30 196 C 17.1942 -2.5419 4.08584 0
M  V30 197 C 19.5462 -2.40923 4.62175 0
M  V30 198 C 16.8742 -2.26594 5.41177 0
M  V30 199 C 19.2262 -2.14852 5.94997 0
M  V30 200 C 17.8902 -2.07137 6.34547 0
M  V30 201 H 17.1602 -0.562299 0.482598 0
M  V30 202 H 19.8072 -0.897069 1.69189 0
M  V30 203 H 18.1122 -3.50328 1.75436 0
M  V30 204 H 19.8092 -3.39692 2.13097 0
M  V30 205 H 16.3992 -2.65996 3.36072 0
M  V30 206 H 20.5832 -2.44673 4.31797 0
M  V30 207 H 15.8392 -2.19111 5.70789 0
M  V30 208 H 20.0132 -1.98822 6.67415 0
M  V30 209 H 17.6402 -1.85518 7.37216 0
M  V30 210 N 19.2153 -1.21501 -1.00376 0
M  V30 211 C 20.1453 -0.999478 -2.11028 0
M  V30 212 C 21.1263 0.0759671 -1.6993 0
M  V30 213 O 22.3113 -0.0841106 -1.94018 0
M  V30 214 C 19.4413 -0.564709 -3.42678 0
M  V30 215 C 18.3953 -1.58486 -3.97576 0
M  V30 216 C 17.7213 -1.00628 -5.25146 0
M  V30 217 C 19.0213 -2.97204 -4.29496 0
M  V30 218 H 20.7153 -1.92495 -2.29317 0
M  V30 219 H 18.2613 -0.92693 -1.102 0
M  V30 220 H 20.2143 -0.401091 -4.19487 0
M  V30 221 H 18.9383 0.396411 -3.24185 0
M  V30 222 H 17.5973 -1.73606 -3.22888 0
M  V30 223 H 17.2453 -0.0368439 -5.02987 0
M  V30 224 H 16.9453 -1.68771 -5.62841 0
M  V30 225 H 18.4693 -0.854015 -6.04598 0
M  V30 226 H 19.8833 -2.8552 -4.97143 0
M  V30 227 H 18.2803 -3.62372 -4.78338 0
M  V30 228 H 19.3503 -3.47956 -3.3772 0
M  V30 229 N 20.6934 1.19889 -1.02296 0
M  V30 230 C 21.6234 2.25141 -0.619174 0
M  V30 231 C 22.6044 1.66051 0.368915 0
M  V30 232 O 23.7894 1.92546 0.252941 0
M  V30 233 C 20.9194 3.4728 0.0368783 0
M  V30 234 C 19.8734 4.19005 -0.872865 0
M  V30 235 C 19.1994 5.34637 -0.0822402 0
M  V30 236 C 20.4994 4.74452 -2.18387 0
M  V30 237 H 22.1934 2.59171 -1.49903 0
M  V30 238 H 19.7394 1.24579 -0.722222 0
M  V30 239 H 21.6924 4.20098 0.330958 0
M  V30 240 H 20.4164 3.12433 0.95149 0
M  V30 241 H 19.0754 3.48061 -1.15105 0
M  V30 242 H 18.7234 4.96034 0.83422 0
M  V30 243 H 18.4234 5.83557 -0.688149 0
M  V30 244 H 19.9474 6.10255 0.205238 0
M  V30 245 H 21.3614 5.39055 -1.95172 0
M  V30 246 H 19.7584 5.33834 -2.74119 0
M  V30 247 H 20.8284 3.92844 -2.84257 0
M  V30 248 N 22.1715 0.800033 1.35784 0
M  V30 249 C 23.4175 0.38701 1.99684 0
M  V30 250 C 23.7725 -1.03268 1.62338 0
M  V30 251 O 23.0655 -1.70543 0.87325 0
M  V30 252 C 23.2595 0.500276 3.53881 0
M  V30 253 C 23.0885 1.92942 4.06206 0
M  V30 254 C 21.8585 2.55637 4.35865 0
M  V30 255 C 24.0565 2.89307 4.25213 0
M  V30 256 N 22.0385 3.9003 4.74078 0
M  V30 257 C 23.4095 4.08556 4.66349 0
M  V30 258 C 25.4645 2.86225 4.07406 0
M  V30 259 C 24.1675 5.25146 4.91543 0
M  V30 260 C 26.1935 4.02011 4.33752 0
M  V30 261 C 25.5555 5.20007 4.75155 0
M  V30 262 H 21.6545 0.189252 0.758754 0
M  V30 263 H 24.2385 1.03988 1.64604 0
M  V30 264 H 22.4095 -0.122568 3.88207 0
M  V30 265 H 24.1415 0.0624733 4.04652 0
M  V30 266 H 20.8965 2.07039 4.25948 0
M  V30 267 H 21.3205 4.59205 4.97454 0
M  V30 268 H 25.9625 1.96154 3.74544 0
M  V30 269 H 23.6805 6.15794 5.23281 0
M  V30 270 H 27.2665 4.00999 4.21534 0
M  V30 271 H 26.1465 6.08113 4.95145 0
M  V30 272 N 23.6496 -1.47581 0.552962 0
M  V30 273 C 24.8956 -2.02782 0.0273648 0
M  V30 274 C 25.2286 -1.42687 -1.31734 0
M  V30 275 O 24.5036 -0.580897 -1.85623 0
M  V30 276 C 24.7866 -3.60031 -0.0702371 0
M  V30 277 C 24.6396 -4.30566 1.30126 0
M  V30 278 C 25.9586 -4.33028 -0.785771 0
M  V30 279 H 23.0776 -0.736912 0.0114185 0
M  V30 280 H 25.7196 -1.76056 0.714432 0
M  V30 281 H 23.8696 -3.82932 -0.655382 0
M  V30 282 H 25.5416 -4.19018 1.92929 0
M  V30 283 H 23.7846 -3.91086 1.87709 0
M  V30 284 H 24.4556 -5.39114 1.18573 0
M  V30 285 H 26.9316 -4.15095 -0.288982 0
M  V30 286 H 25.8076 -5.42695 -0.823013 0
M  V30 287 H 26.0686 -4.01945 -1.841 0
M  V30 288 N 25.1277 -0.289203 -1.54924 0
M  V30 289 C 26.0577 0.58549 -2.2604 0
M  V30 290 C 27.0387 1.14753 -1.25562 0
M  V30 291 O 28.2237 1.17906 -1.54311 0
M  V30 292 C 25.3537 1.76305 -2.99222 0
M  V30 293 C 24.3077 1.33191 -4.06748 0
M  V30 294 C 23.6337 2.5937 -4.6758 0
M  V30 295 C 24.9337 0.471775 -5.20165 0
M  V30 296 H 26.6277 -0.00763532 -2.99399 0
M  V30 297 H 24.1737 -0.00511229 -1.43999 0
M  V30 298 H 26.1267 2.38097 -3.47689 0
M  V30 299 H 24.8507 2.38223 -2.23422 0
M  V30 300 H 23.5097 0.737121 -3.59113 0
M  V30 301 H 23.1577 3.19576 -3.88433 0
M  V30 302 H 22.8577 2.31228 -5.40192 0
M  V30 303 H 24.3817 3.21985 -5.18804 0
M  V30 304 H 25.7957 0.995056 -5.64599 0
M  V30 305 H 24.1927 0.284639 -5.99425 0
M  V30 306 H 25.2627 -0.506041 -4.82252 0
M  V30 307 N 26.6058 1.57591 -0.0167156 0
M  V30 308 C 27.5688 2.08393 0.954204 0
M  V30 309 C 28.5688 0.996531 1.26198 0
M  V30 310 O 29.7588 1.25858 1.20438 0
M  V30 311 C 26.8908 2.5394 2.27436 0
M  V30 312 H 28.0838 2.95455 0.514451 0
M  V30 313 H 25.6368 1.54582 0.231089 0
M  V30 314 H 26.3718 1.70171 2.76066 0
M  V30 315 H 26.1568 3.33371 2.06412 0
M  V30 316 H 27.6468 2.93512 2.97053 0
M  V30 317 N 28.0839 -0.256276 1.55502 0
M  V30 318 C 28.9939 -1.33882 1.92647 0
M  V30 319 C 30.0099 -1.53159 0.825727 0
M  V30 320 O 31.1859 -1.66963 1.12629 0
M  V30 321 C 28.2509 -2.6751 2.20543 0
M  V30 322 C 27.3119 -2.56836 3.43997 0
M  V30 323 C 26.5449 -3.84092 3.70553 0
M  V30 324 O 26.7679 -4.85545 2.99336 0
M  V30 325 O 25.7019 -3.83288 4.64084 0
M  V30 326 H 29.5279 -1.05374 2.84833 0
M  V30 327 H 27.1129 -0.456237 1.42263 0
M  V30 328 H 28.9949 -3.46492 2.39835 0
M  V30 329 H 27.6699 -2.9577 1.31536 0
M  V30 330 H 26.5769 -1.76172 3.30021 0
M  V30 331 H 27.9099 -2.33523 4.33275 0
M  V30 332 N 29.562 -1.4872 -0.521534 0
M  V30 333 C 30.973 -1.50607 -1.10337 0
M  V30 334 C 31.324 -0.280612 -1.94183 0
M  V30 335 O 30.449 0.611507 -2.0758 0
M  V30 336 C 31.044 -2.72903 -2.00772 0
M  V30 337 C 29.603 -2.77634 -2.54158 0
M  V30 338 C 28.75 -2.44241 -1.31307 0
M  V30 339 H 31.701 -1.55714 -0.306388 0
M  V30 340 H 31.722 -2.519 -2.85178 0
M  V30 341 H 31.234 -3.62077 -1.39721 0
M  V30 342 H 29.335 -1.92689 -3.18907 0
M  V30 343 H 29.448 -3.79283 -2.92714 0
M  V30 344 H 27.812 -1.95577 -1.63161 0
M  V30 345 H 28.595 -3.35666 -0.719943 0
M  V30 346 N 31.0401 0.771051 -1.3745 0
M  V30 347 C 32.0031 1.86598 -1.33093 0
M  V30 348 C 33.0031 1.59076 -0.234845 0
M  V30 349 O 34.1931 1.67145 -0.490732 0
M  V30 350 C 31.3251 3.23747 -1.06773 0
M  V30 351 H 32.5181 1.91873 -2.30488 0
M  V30 352 H 30.0711 0.970876 -1.2249 0
M  V30 353 H 30.8061 3.24148 -0.099129 0
M  V30 354 H 30.5911 3.45115 -1.86112 0
M  V30 355 H 32.0811 4.03824 -1.06377 0
M  V30 356 N 32.5182 1.22032 0.997298 0
M  V30 357 C 33.4282 1.00271 2.12092 0
M  V30 358 C 34.4442 -0.047621 1.73935 0
M  V30 359 O 35.6202 0.144136 2.00884 0
M  V30 360 C 32.6852 0.578449 3.4184 0
M  V30 361 C 31.7462 1.70189 3.94125 0
M  V30 362 C 30.9792 1.29778 5.17681 0
M  V30 363 O 31.2022 0.174676 5.70132 0
M  V30 364 O 30.1362 2.11261 5.63607 0
M  V30 365 H 33.9622 1.94398 2.3333 0
M  V30 366 H 31.5472 1.00587 1.10465 0
M  V30 367 H 33.4292 0.351998 4.19927 0
M  V30 368 H 32.1042 -0.334019 3.21972 0
M  V30 369 H 31.0112 1.98282 3.1723 0
M  V30 370 H 32.3442 2.59206 4.18417 0
M  V30 371 N 33.9963 -1.19345 1.0293 0
M  V30 372 C 34.9443 -2.24621 0.604001 0
M  V30 373 C 35.9383 -1.65452 -0.363587 0
M  V30 374 O 37.1443 -1.78497 -0.23212 0
M  V30 375 H 33.5193 -0.730858 0.177061 0
M  V30 376 H 35.4903 -2.5781 1.50255 0
M  V30 377 C 34.2393 -3.47688 -0.0289127 0
M  V30 378 H 33.5623 -3.93505 0.706651 0
M  V30 379 H 35.0023 -4.23011 -0.289432 0
M  V30 380 C 33.4613 -3.11817 -1.2756 0
M  V30 381 O 33.9913 -3.2451 -2.36762 0
M  V30 382 N 32.1973 -2.66246 -1.16453 0
M  V30 383 H 31.7443 -2.56118 -0.275914 0
M  V30 384 H 31.7023 -2.42617 -1.99961 0
M  V30 385 N 35.4744 -0.807222 -1.35358 0
M  V30 386 C 36.6994 -0.399309 -2.0352 0
M  V30 387 C 37.1244 0.981986 -1.60433 0
M  V30 388 O 36.4824 1.63601 -0.781299 0
M  V30 389 C 36.5304 -0.491552 -3.57234 0
M  V30 390 O 35.6344 0.494754 -4.09421 0
M  V30 391 H 34.9754 -0.166682 -0.642739 0
M  V30 392 H 37.5054 -1.09328 -1.72941 0
M  V30 393 H 37.5154 -0.361588 -4.06395 0
M  V30 394 H 36.1904 -1.49907 -3.87944 0
M  V30 395 H 34.7674 0.324977 -3.71481 0
M  V30 396 N 36.9525 1.47285 -0.560781 0
M  V30 397 C 38.2295 1.9558 0.0277798 0
M  V30 398 C 38.6095 1.5034 1.48192 0
M  V30 399 O 37.9575 0.743882 2.16052 0
M  V30 400 C 38.1675 3.48789 -0.121418 0
M  V30 401 C 39.5155 4.24594 0.0220912 0
M  V30 402 O 40.5395 3.56166 -0.0491439 0
M  V30 403 O 39.3985 5.46217 0.175958 0
M  V30 404 H 36.4925 0.824663 0.0621342 0
M  V30 405 H 39.0385 1.5767 -0.627556 0
M  V30 406 H 37.8105 3.74533 -1.13316 0
M  V30 407 H 37.4335 3.93473 0.571366 0
M  V30 408 N 38.4306 0.297415 1.54768 0
M  V30 409 C 39.6776 -0.312913 2.00068 0
M  V30 410 C 40.0056 -1.54171 1.18582 0
M  V30 411 O 39.2606 -1.94108 0.249133 0
M  V30 412 C 39.5596 -0.717561 3.50123 0
M  V30 413 C 39.2256 0.409095 4.4904 0
M  V30 414 C 37.8876 0.718399 4.75807 0
M  V30 415 C 40.2396 1.16717 5.07963 0
M  V30 416 C 37.5676 1.78896 5.5876 0
M  V30 417 C 39.9196 2.22762 5.92081 0
M  V30 418 C 38.5836 2.54303 6.1716 0
M  V30 419 H 37.8536 -0.114503 0.7321 0
M  V30 420 H 40.5006 0.415767 1.86932 0
M  V30 421 H 38.8056 -1.52627 3.60849 0
M  V30 422 H 40.5026 -1.20091 3.82595 0
M  V30 423 H 37.0926 0.157918 4.28309 0
M  V30 424 H 41.2766 0.941466 4.87289 0
M  V30 425 H 36.5326 2.0381 5.7643 0
M  V30 426 H 40.7066 2.81962 6.36765 0
M  V30 427 H 38.3336 3.3739 6.81229 0
M  V30 428 N 39.9087 -1.5758 0.0250728 0
M  V30 429 C 41.1387 -1.95646 -0.663783 0
M  V30 430 C 41.5467 -0.899935 -1.66427 0
M  V30 431 O 40.8897 0.127191 -1.83259 0
M  V30 432 C 40.9517 -3.29835 -1.43 0
M  V30 433 C 40.6157 -4.53197 -0.588305 0
M  V30 434 C 41.6127 -5.19726 0.13469 0
M  V30 435 C 39.2977 -4.99529 -0.526897 0
M  V30 436 C 41.2917 -6.30902 0.90781 0
M  V30 437 C 38.9787 -6.10589 0.24993 0
M  V30 438 C 39.9767 -6.76134 0.965994 0
M  V30 439 O 39.6647 -7.85062 1.7301 0
M  V30 440 H 39.3967 -0.649282 -0.188174 0
M  V30 441 H 41.9507 -2.05245 0.0799006 0
M  V30 442 H 40.1807 -3.16716 -2.21873 0
M  V30 443 H 41.8697 -3.52833 -2.00658 0
M  V30 444 H 42.6357 -4.84904 0.0965562 0
M  V30 445 H 38.5147 -4.48319 -1.07381 0
M  V30 446 H 42.0587 -6.81995 1.46724 0
M  V30 447 H 37.9557 -6.44849 0.289795 0
M  V30 448 H 38.7237 -8.01708 1.64944 0
M  V30 449 N 41.3868 0.248026 -1.55636 0
M  V30 450 C 42.3168 1.31079 -1.93237 0
M  V30 451 C 43.2978 1.50264 -0.797174 0
M  V30 452 O 44.4828 1.62891 -1.05737 0
M  V30 453 C 41.6128 2.66575 -2.22609 0
M  V30 454 C 40.5668 2.62087 -3.3837 0
M  V30 455 C 39.8928 4.01369 -3.53281 0
M  V30 456 C 41.1928 2.19171 -4.7409 0
M  V30 457 H 42.8868 0.998556 -2.82257 0
M  V30 458 H 40.4328 0.47891 -1.35803 0
M  V30 459 H 42.3858 3.41057 -2.47503 0
M  V30 460 H 41.1098 2.99432 -1.30414 0
M  V30 461 H 39.7688 1.90063 -3.13483 0
M  V30 462 H 39.4168 4.31489 -2.58508 0
M  V30 463 H 39.1168 3.99254 -4.31127 0
M  V30 464 H 40.6408 4.77552 -3.80495 0
M  V30 465 H 42.0548 2.83384 -4.98363 0
M  V30 466 H 40.4518 2.2817 -5.5503 0
M  V30 467 H 41.5218 1.14336 -4.71227 0
M  V30 468 N 42.8649 1.48995 0.513639 0
M  V30 469 C 44.2759 1.5119 1.09537 0
M  V30 470 C 44.6269 0.290906 1.94031 0
M  V30 471 O 43.7519 -0.60049 2.07902 0
M  V30 472 C 44.3469 2.73964 1.99322 0
M  V30 473 C 42.9059 2.78978 2.52682 0
M  V30 474 C 42.0529 2.44934 1.30009 0
M  V30 475 H 45.0039 1.55875 0.298125 0
M  V30 476 H 45.0249 2.53409 2.83838 0
M  V30 477 H 44.5369 3.62813 1.37799 0
M  V30 478 H 42.6379 1.94378 3.1788 0
M  V30 479 H 42.7509 3.8083 2.90698 0
M  V30 480 H 41.1149 1.9644 1.62122 0
M  V30 481 H 41.8979 3.36043 0.702131 0
M  V30 482 N 44.343 -0.763751 1.37857 0
M  V30 483 C 45.591 -1.51957 1.33243 0
M  V30 484 C 45.912 -1.94835 -0.0801709 0
M  V30 485 O 45.182 -1.66894 -1.02582 0
M  V30 486 H 43.762 -0.563626 0.49024 0
M  V30 487 H 46.424 -0.908504 1.7243 0
M  V30 488 H 45.52 -2.41523 1.97669 0
M  V30 489 N 45.8211 -1.22559 -0.990812 0
M  V30 490 C 47.0981 -0.959875 -1.70428 0
M  V30 491 C 47.4781 0.524455 -2.04481 0
M  V30 492 O 46.8261 1.49302 -1.72977 0
M  V30 493 C 47.0361 -1.85955 -2.95333 0
M  V30 494 C 48.3841 -2.11687 -3.68068 0
M  V30 495 O 49.4081 -1.8342 -3.05345 0
M  V30 496 O 48.2671 -2.59572 -4.80921 0
M  V30 497 H 45.3611 -0.361154 -0.743974 0
M  V30 498 H 47.9071 -1.33554 -1.04697 0
M  V30 499 H 46.6791 -2.86346 -2.66687 0
M  V30 500 H 46.3021 -1.4856 -3.68803 0
M  V30 501 N 47.2992 1.18797 -1.03562 0
M  V30 502 C 48.5292 1.92319 -0.754773 0
M  V30 503 C 48.9372 1.7612 0.691248 0
M  V30 504 O 48.2802 1.08491 1.48241 0
M  V30 505 C 48.3422 3.44284 -1.03484 0
M  V30 506 C 48.0062 3.84258 -2.47376 0
M  V30 507 C 49.0032 3.88459 -3.45537 0
M  V30 508 C 46.6882 4.15701 -2.81954 0
M  V30 509 C 48.6822 4.23545 -4.76328 0
M  V30 510 C 46.3692 4.50458 -4.12954 0
M  V30 511 C 47.3672 4.54356 -5.09951 0
M  V30 512 O 47.0552 4.88305 -6.38603 0
M  V30 513 H 46.7872 0.617527 -0.275021 0
M  V30 514 H 49.3412 1.51683 -1.38497 0
M  V30 515 H 47.5712 3.85135 -0.347513 0
M  V30 516 H 49.2602 3.99049 -0.7426 0
M  V30 517 H 50.0262 3.6431 -3.20162 0
M  V30 518 H 45.9052 4.11847 -2.0713 0
M  V30 519 H 49.4492 4.26502 -5.52035 0
M  V30 520 H 45.3462 4.74067 -4.38099 0
M  V30 521 H 46.1142 5.06227 -6.43177 0
M  V30 522 N 48.7773 0.814389 1.34928 0
M  V30 523 C 49.7073 0.244827 2.32213 0
M  V30 524 C 50.6883 -0.634024 1.57842 0
M  V30 525 O 51.8733 -0.562676 1.8587 0
M  V30 526 C 49.0033 -0.601106 3.42058 0
M  V30 527 C 47.9573 0.179896 4.27622 0
M  V30 528 C 47.2833 -0.788237 5.28858 0
M  V30 529 C 48.5833 1.38329 5.03649 0
M  V30 530 H 50.2773 1.05763 2.80097 0
M  V30 531 H 47.8233 0.510029 1.34665 0
M  V30 532 H 49.7763 -1.00968 4.09125 0
M  V30 533 H 48.5003 -1.44688 2.92802 0
M  V30 534 H 47.1593 0.569739 3.62146 0
M  V30 535 H 46.8073 -1.62973 4.75866 0
M  V30 536 H 46.5073 -0.269942 5.8698 0
M  V30 537 H 48.0313 -1.19485 5.98795 0
M  V30 538 H 49.4453 1.04918 5.63618 0
M  V30 539 H 47.8423 1.83662 5.71304 0
M  V30 540 H 48.9123 2.16592 4.33839 0
M  V30 541 N 50.2554 -1.46986 0.568584 0
M  V30 542 C 51.1854 -2.32946 -0.160753 0
M  V30 543 C 52.1664 -1.44487 -0.897631 0
M  V30 544 O 53.3514 -1.73327 -0.875867 0
M  V30 545 C 50.4814 -3.26494 -1.18403 0
M  V30 546 C 49.4354 -4.24282 -0.562895 0
M  V30 547 C 48.7614 -5.07236 -1.69163 0
M  V30 548 C 50.0614 -5.19989 0.490761 0
M  V30 549 H 51.7554 -2.94175 0.556916 0
M  V30 550 H 49.3014 -1.4146 0.26927 0
M  V30 551 H 51.2544 -3.85477 -1.70251 0
M  V30 552 H 49.9784 -2.63343 -1.93179 0
M  V30 553 H 48.6374 -3.66541 -0.0656164 0
M  V30 554 H 48.2854 -4.4048 -2.42871 0
M  V30 555 H 47.9854 -5.7345 -1.28174 0
M  V30 556 H 49.5094 -5.6908 -2.21314 0
M  V30 557 H 50.9234 -5.73271 0.0579047 0
M  V30 558 H 49.3204 -5.94469 0.820165 0
M  V30 559 H 50.3904 -4.64777 1.3824 0
M  V30 560 N 51.7335 -0.305618 -1.54608 0
M  V30 561 C 52.9815 0.301701 -1.99835 0
M  V30 562 C 53.3025 1.54054 -1.19551 0
M  V30 563 O 52.5725 1.93702 -0.292658 0
M  V30 564 H 51.1525 0.114468 -0.738178 0
M  V30 565 H 53.8145 -0.418016 -1.90364 0
M  V30 566 H 52.9105 0.570548 -3.06841 0
M  V30 567 N 53.2116 1.57565 -0.0334293 0
M  V30 568 C 54.4596 1.91598 0.642999 0
M  V30 569 C 54.7806 0.910847 1.7242 0
M  V30 570 O 54.0506 -0.0469931 1.95844 0
M  V30 571 H 52.6306 0.707228 0.240496 0
M  V30 572 H 55.2926 1.94726 -0.0822488 0
M  V30 573 H 54.3886 2.92336 1.09298 0
M  V30 574 N 54.6897 -0.239769 1.55765 0
M  V30 575 C 55.6197 -1.30052 1.9393 0
M  V30 576 C 56.6007 -1.49839 0.805132 0
M  V30 577 O 57.7857 -1.62328 1.06599 0
M  V30 578 C 54.9157 -2.65391 2.2402 0
M  V30 579 C 53.8697 -2.60289 3.39755 0
M  V30 580 C 53.1957 -3.99489 3.55405 0
M  V30 581 C 54.4957 -2.16654 4.75246 0
M  V30 582 H 56.1897 -0.983573 2.82783 0
M  V30 583 H 53.7357 -0.471701 1.36055 0
M  V30 584 H 55.6887 -3.3974 2.49308 0
M  V30 585 H 54.4127 -2.98736 1.32 0
M  V30 586 H 53.0717 -1.88398 3.14487 0
M  V30 587 H 52.7197 -4.30112 2.60793 0
M  V30 588 H 52.4197 -3.96962 4.33238 0
M  V30 589 H 53.9437 -4.75528 3.83022 0
M  V30 590 H 55.3577 -2.80737 4.99859 0
M  V30 591 H 53.7547 -2.25223 5.56232 0
M  V30 592 H 54.8247 -1.11835 4.71827 0
M  V30 593 N 56.1678 -1.49265 -0.50573 0
M  V30 594 C 57.4148 -1.58513 -1.26015 0
M  V30 595 C 57.7428 -0.26972 -1.92621 0
M  V30 596 O 56.9978 0.741997 -1.81088 0
M  V30 597 C 57.2968 -2.69008 -2.35308 0
M  V30 598 C 56.9628 -4.10662 -1.86192 0
M  V30 599 C 55.6248 -4.49212 -1.72516 0
M  V30 600 C 57.9768 -4.99336 -1.49375 0
M  V30 601 C 55.3048 -5.74214 -1.20394 0
M  V30 602 C 57.6568 -6.24852 -0.987072 0
M  V30 603 C 56.3208 -6.62236 -0.836669 0
M  V30 604 H 55.5908 -0.580041 -0.461122 0
M  V30 605 H 58.2378 -1.83078 -0.561665 0
M  V30 606 H 56.5428 -2.38396 -3.10926 0
M  V30 607 H 58.2398 -2.73373 -2.93374 0
M  V30 608 H 54.8298 -3.8023 -1.97795 0
M  V30 609 H 59.0138 -4.70212 -1.5879 0
M  V30 610 H 54.2698 -6.01883 -1.07458 0
M  V30 611 H 58.4438 -6.92944 -0.692983 0
M  V30 612 H 56.0708 -7.58979 -0.430607 0
M  V30 613 N 57.6459 0.756429 -1.3826 0
M  V30 614 C 58.8709 1.55077 -1.37717 0
M  V30 615 C 59.2959 1.88073 0.03164 0
M  V30 616 O 58.6539 1.50364 1.01293 0
M  V30 617 C 58.7019 2.8283 -2.23695 0
M  V30 618 O 57.8059 3.77862 -1.6521 0
M  V30 619 H 57.1469 0.469152 -0.469885 0
M  V30 620 H 59.6769 0.935019 -1.81985 0
M  V30 621 H 59.6869 3.31783 -2.37453 0
M  V30 622 H 58.3619 2.58144 -3.2609 0
M  V30 623 H 56.9389 3.36555 -1.60578 0
M  V30 624 N 59.124 1.23083 0.984299 0
M  V30 625 C 60.054 1.03292 2.09411 0
M  V30 626 C 61.035 -0.048923 1.7003 0
M  V30 627 O 62.22 0.114967 1.93859 0
M  V30 628 C 59.35 0.619155 3.41736 0
M  V30 629 C 58.304 1.64791 3.95004 0
M  V30 630 C 57.63 1.0897 5.23478 0
M  V30 631 C 58.93 3.03999 4.24714 0
M  V30 632 H 60.624 1.96119 2.26225 0
M  V30 633 H 58.17 0.944344 1.08711 0
M  V30 634 H 60.123 0.467777 4.18796 0
M  V30 635 H 58.847 -0.344786 3.24775 0
M  V30 636 H 57.506 1.78721 3.20085 0
M  V30 637 H 57.154 0.11686 5.02864 0
M  V30 638 H 56.854 1.77704 5.60085 0
M  V30 639 H 58.378 0.950093 6.03163 0
M  V30 640 H 59.792 2.93393 4.92538 0
M  V30 641 H 58.189 3.69936 4.72512 0
M  V30 642 H 59.259 3.53285 3.32142 0
M  V30 643 N 60.6021 -1.18246 1.0419 0
M  V30 644 C 61.5521 -2.19843 0.604392 0
M  V30 645 C 62.5361 -1.56962 -0.353814 0
M  V30 646 O 63.7281 -1.76156 -0.17267 0
M  V30 647 C 60.8571 -3.43287 -0.0298975 0
M  V30 648 C 59.9431 -4.13288 0.951531 0
M  V30 649 N 60.3341 -4.59271 2.11906 0
M  V30 650 C 58.6321 -4.39165 0.7778 0
M  V30 651 C 59.3331 -5.13173 2.73912 0
M  V30 652 N 58.3091 -5.04763 2.01779 0
M  V30 653 H 62.1111 -2.53089 1.4941 0
M  V30 654 H 59.6251 -1.34465 0.910658 0
M  V30 655 H 61.6221 -4.15334 -0.361037 0
M  V30 656 H 60.2821 -3.11537 -0.915127 0
M  V30 657 H 61.2931 -4.5368 2.49789 0
M  V30 658 H 57.9701 -4.17461 -0.0572331 0
M  V30 659 H 59.3601 -5.58947 3.72864 0
M  V30 660 N 62.0802 -0.821533 -1.34494 0
M  V30 661 C 63.0432 -0.247847 -2.27856 0
M  V30 662 C 64.0432 0.573453 -1.50227 0
M  V30 663 O 65.2332 0.389759 -1.69784 0
M  V30 664 C 62.3652 0.652698 -3.34593 0
M  V30 665 H 63.5582 -1.07146 -2.80107 0
M  V30 666 H 61.1112 -0.593291 -1.44602 0
M  V30 667 H 61.8462 1.49943 -2.87555 0
M  V30 668 H 61.6312 0.065292 -3.92046 0
M  V30 669 H 63.1212 1.04793 -4.04238 0
M  V30 670 N 63.5583 1.46682 -0.576371 0
M  V30 671 C 64.5063 2.31953 0.17335 0
M  V30 672 C 65.5003 1.44098 0.89062 0
M  V30 673 O 66.7063 1.60759 0.809728 0
M  V30 674 H 63.0813 0.748273 0.0747727 0
M  V30 675 H 65.0523 2.93007 -0.564738 0
M  V30 676 C 63.8013 3.27142 1.17786 0
M  V30 677 H 63.1243 3.94719 0.635361 0
M  V30 678 H 64.5643 3.896 1.67296 0
M  V30 679 C 63.0233 2.52036 2.23561 0
M  V30 680 O 63.5533 2.27877 3.3081 0
M  V30 681 N 61.7593 2.12709 1.97998 0
M  V30 682 H 61.3063 2.32557 1.10792 0
M  V30 683 H 61.2643 1.62776 2.68982 0
M  V30 684 N 65.0364 0.313813 1.54444 0
M  V30 685 C 65.9694 -0.598866 2.20202 0
M  V30 686 C 66.9474 -1.12318 1.17573 0
M  V30 687 O 68.1314 -1.18899 1.46271 0
M  V30 688 C 65.2584 -1.82071 2.85601 0
M  V30 689 C 64.3044 -1.42851 4.01865 0
M  V30 690 S 65.1374 -0.473512 5.33402 0
M  V30 691 C 66.2934 -1.70286 6.0229 0
M  V30 692 H 66.5264 -0.0402532 2.97273 0
M  V30 693 H 64.0594 0.0979165 1.54089 0
M  V30 694 H 66.0174 -2.52184 3.23904 0
M  V30 695 H 64.6784 -2.3505 2.08351 0
M  V30 696 H 63.8714 -2.33871 4.46453 0
M  V30 697 H 63.4734 -0.807198 3.65185 0
M  V30 698 H 65.7654 -2.64168 6.23876 0
M  V30 699 H 66.7084 -1.29932 6.96077 0
M  V30 700 H 67.1164 -1.88541 5.32083 0
M  V30 701 N 66.5145 -1.57545 0.0417849 0
M  V30 702 C 67.4615 -2.10977 -0.935805 0
M  V30 703 C 68.4315 -1.01486 -1.31491 0
M  V30 704 O 69.6165 -1.2898 -1.40602 0
M  V30 705 C 66.7565 -2.65169 -2.2086 0
M  V30 706 C 65.8695 -3.88714 -1.88482 0
M  V30 707 C 65.0045 -4.31254 -3.1015 0
M  V30 708 C 64.0435 -5.47524 -2.7365 0
M  V30 709 N 63.1805 -5.85162 -3.87982 0
M  V30 710 H 68.0205 -2.94218 -0.473249 0
M  V30 711 H 65.5575 -1.45415 -0.221981 0
M  V30 712 H 67.5155 -2.94685 -2.95325 0
M  V30 713 H 66.1455 -1.8474 -2.64709 0
M  V30 714 H 65.1975 -3.65849 -1.04205 0
M  V30 715 H 66.5095 -4.73245 -1.57608 0
M  V30 716 H 65.6635 -4.62273 -3.92923 0
M  V30 717 H 64.4025 -3.45516 -3.44195 0
M  V30 718 H 63.4075 -5.16187 -1.89291 0
M  V30 719 H 64.6325 -6.34971 -2.40807 0
M  V30 720 H 62.5785 -5.02377 -4.21846 0
M  V30 721 H 62.4955 -6.64362 -3.60775 0
M  V30 722 H 63.7635 -6.20791 -4.71422 0
M  V30 723 N 67.9926 0.231505 -1.5589 0
M  V30 724 C 69.2406 0.955461 -1.78088 0
M  V30 725 C 69.5616 1.85262 -0.608533 0
M  V30 726 O 68.8316 1.92277 0.375035 0
M  V30 727 H 67.4116 0.355787 -0.656829 0
M  V30 728 H 70.0736 0.245751 -1.93344 0
M  V30 729 H 69.1696 1.56814 -2.69844 0
M  V30 730 N 69.4707 1.49531 0.497807 0
M  V30 731 C 70.7197 1.58426 1.24837 0
M  V30 732 C 71.0327 0.277643 1.93619 0
M  V30 733 O 72.2387 0.24517 2.70391 0
M  V30 734 C 70.6947 2.79538 2.26686 0
M  V30 735 C 70.3027 4.16971 1.63828 0
M  V30 736 C 72.0467 2.97764 3.0255 0
M  V30 737 C 69.9537 5.29301 2.63807 0
M  V30 738 H 68.8837 0.58989 0.469623 0
M  V30 739 H 71.5347 1.75923 0.521857 0
M  V30 740 H 69.9167 2.55542 3.02514 0
M  V30 741 H 71.0907 4.51116 0.939711 0
M  V30 742 H 69.4057 4.04129 1.00342 0
M  V30 743 H 72.0027 3.78856 3.77323 0
M  V30 744 H 72.3457 2.08448 3.60354 0
M  V30 745 H 72.8787 3.21815 2.33838 0
M  V30 746 H 69.6177 6.20687 2.10779 0
M  V30 747 H 69.1377 4.99606 3.31894 0
M  V30 748 H 70.8167 5.58768 3.2617 0
M  V30 749 N 70.9488 -0.749086 1.3866 0
M  V30 750 C 72.1948 -1.51056 1.35314 0
M  V30 751 C 72.5278 -1.94121 -0.0553751 0
M  V30 752 O 71.8028 -1.65763 -1.01749 0
M  V30 753 C 72.0858 -2.76003 2.31288 0
M  V30 754 C 71.9388 -2.39047 3.8102 0
M  V30 755 C 73.2578 -3.78046 2.2532 0
M  V30 756 H 70.3768 -0.547972 0.492844 0
M  V30 757 H 73.0188 -0.857628 1.69543 0
M  V30 758 H 71.1688 -3.31716 2.02229 0
M  V30 759 H 72.8408 -1.89074 4.20771 0
M  V30 760 H 71.0838 -1.71449 3.98482 0
M  V30 761 H 71.7548 -3.28462 4.4364 0
M  V30 762 H 74.2308 -3.31884 2.50983 0
M  V30 763 H 73.1068 -4.63159 2.94576 0
M  V30 764 H 73.3678 -4.23957 1.25352 0
M  V30 765 N 72.4269 -1.23603 -0.977757 0
M  V30 766 C 73.3769 -0.986664 -2.05545 0
M  V30 767 C 74.3609 0.0683009 -1.60755 0
M  V30 768 O 75.5529 -0.144162 -1.76412 0
M  V30 769 C 72.6819 -0.582623 -3.3832 0
M  V30 770 C 71.7679 -1.67313 -3.89701 0
M  V30 771 N 72.1589 -2.90394 -4.14132 0
M  V30 772 C 70.4569 -1.54832 -4.18262 0
M  V30 773 C 71.1579 -3.61017 -4.56116 0
M  V30 774 N 70.1339 -2.8854 -4.60701 0
M  V30 775 H 73.9359 -1.92139 -2.22396 0
M  V30 776 H 71.4499 -1.1358 -1.16074 0
M  V30 777 H 73.4469 -0.38524 -4.15116 0
M  V30 778 H 72.1069 0.34503 -3.22862 0
M  V30 779 H 73.1179 -3.26673 -4.01877 0
M  V30 780 H 69.7949 -0.687969 -4.11793 0
M  V30 781 H 71.1849 -4.66544 -4.83514 0
M  V30 782 N 73.905 1.17692 -1.04816 0
M  V30 783 C 74.835 2.23777 -0.666791 0
M  V30 784 C 75.816 1.66796 0.33361 0
M  V30 785 O 77.001 1.93039 0.212042 0
M  V30 786 C 74.131 3.47281 -0.0367933 0
M  V30 787 C 73.085 4.17059 -0.961546 0
M  V30 788 C 72.411 5.34342 -0.195626 0
M  V30 789 C 73.711 4.69713 -2.28402 0
M  V30 790 H 75.405 2.55933 -1.55367 0
M  V30 791 H 72.951 1.23019 -0.748484 0
M  V30 792 H 74.904 4.20706 0.241775 0
M  V30 793 H 73.628 3.14381 0.885004 0
M  V30 794 H 72.287 3.45541 -1.22462 0
M  V30 795 H 71.935 4.97692 0.728816 0
M  V30 796 H 71.635 5.81966 -0.811775 0
M  V30 797 H 73.159 6.10553 0.0757473 0
M  V30 798 H 74.573 5.34794 -2.06563 0
M  V30 799 H 72.97 5.279 -2.8538 0
M  V30 800 H 74.04 3.86726 -2.92525 0
M  V30 801 N 75.3831 0.828654 1.34056 0
M  V30 802 C 76.3311 0.242973 2.31327 0
M  V30 803 C 77.3251 -0.61944 1.57668 0
M  V30 804 O 78.5311 -0.51014 1.7262 0
M  V30 805 H 74.9061 0.059834 0.749616 0
M  V30 806 H 76.8771 1.07809 2.78244 0
M  V30 807 C 75.6261 -0.575733 3.429 0
M  V30 808 H 74.9491 0.0785582 3.99723 0
M  V30 809 H 76.3891 -0.951547 4.13185 0
M  V30 810 C 74.8481 -1.75044 2.87856 0
M  V30 811 O 75.3781 -2.84882 2.83205 0
M  V30 812 N 73.5841 -1.56903 2.44602 0
M  V30 813 H 73.1311 -0.675547 2.48584 0
M  V30 814 H 73.0891 -2.35652 2.08124 0
M  V30 815 N 76.8612 -1.46375 0.584142 0
M  V30 816 C 78.1082 -2.02378 0.0702675 0
M  V30 817 C 78.4362 -1.45545 -1.29023 0
M  V30 818 O 77.6912 -0.610967 -1.85918 0
M  V30 819 C 77.9902 -3.57373 -0.0439342 0
M  V30 820 C 77.6562 -4.33252 1.24915 0
M  V30 821 C 76.3182 -4.53701 1.60341 0
M  V30 822 C 78.6702 -4.7681 2.1048 0
M  V30 823 C 75.9982 -5.1496 2.81128 0
M  V30 824 C 78.3502 -5.39404 3.30494 0
M  V30 825 C 77.0142 -5.5808 3.66201 0
M  V30 826 H 76.2842 -0.740554 0.0257127 0
M  V30 827 H 78.9312 -1.75727 0.761065 0
M  V30 828 H 77.2362 -3.83169 -0.817869 0
M  V30 829 H 78.9332 -3.98384 -0.457318 0
M  V30 830 H 75.5232 -4.17633 0.963364 0
M  V30 831 H 79.7072 -4.60766 1.84414 0
M  V30 832 H 74.9632 -5.27611 3.08928 0
M  V30 833 H 79.1372 -5.72114 3.97063 0
M  V30 834 H 76.7642 -6.05318 4.59885 0
M  V30 835 N 78.3393 -0.321999 -1.54275 0
M  V30 836 C 79.2693 0.537411 -2.27231 0
M  V30 837 C 80.2503 1.12064 -1.27968 0
M  V30 838 O 81.4353 1.14606 -1.56777 0
M  V30 839 C 78.5653 1.69919 -3.02894 0
M  V30 840 C 77.5193 1.24534 -4.09482 0
M  V30 841 C 76.8453 2.49394 -4.72977 0
M  V30 842 C 78.1453 0.361335 -5.21049 0
M  V30 843 H 79.8393 -0.0711406 -2.99315 0
M  V30 844 H 77.3853 -0.0356555 -1.43956 0
M  V30 845 H 79.3383 2.30668 -3.52662 0
M  V30 846 H 78.0623 2.33431 -2.28424 0
M  V30 847 H 76.7213 0.660782 -3.60596 0
M  V30 848 H 76.3693 3.11265 -3.95124 0
M  V30 849 H 76.0693 2.19718 -5.44975 0
M  V30 850 H 77.5933 3.10908 -5.25517 0
M  V30 851 H 79.0073 0.875072 -5.66582 0
M  V30 852 H 77.4043 0.157428 -5.99893 0
M  V30 853 H 78.4743 -0.60822 -4.8107 0
M  V30 854 N 79.8174 1.5752 -0.0501392 0
M  V30 855 C 80.7494 2.08413 0.95376 0
M  V30 856 C 81.7624 1.01175 1.27544 0
M  V30 857 O 82.9514 1.28744 1.23641 0
M  V30 858 C 80.0514 2.51138 2.27559 0
M  V30 859 C 79.2244 3.817 2.13598 0
M  V30 860 C 78.2834 4.10749 3.28895 0
M  V30 861 O 77.3094 4.80685 3.04845 0
M  V30 862 N 78.5114 3.62579 4.5334 0
M  V30 863 H 81.2764 2.95165 0.519383 0
M  V30 864 H 78.8374 1.61327 0.136127 0
M  V30 865 H 80.8294 2.67648 3.03557 0
M  V30 866 H 79.3994 1.6964 2.62567 0
M  V30 867 H 78.6194 3.74782 1.22197 0
M  V30 868 H 79.9074 4.67201 2.01496 0
M  V30 869 H 79.3054 3.06039 4.75769 0
M  V30 870 H 77.8624 3.84329 5.26436 0
M  V30 871 N 81.2955 -0.223234 1.56011 0
M  V30 872 C 82.5415 -0.949279 1.79211 0
M  V30 873 C 82.8745 -1.84054 0.619494 0
M  V30 874 O 82.1495 -1.90726 -0.381317 0
M  V30 875 C 82.4325 -1.78965 3.12479 0
M  V30 876 C 82.2855 -0.924997 4.40186 0
M  V30 877 C 83.6045 -2.76774 3.42175 0
M  V30 878 H 80.7235 -0.343676 0.651963 0
M  V30 879 H 83.3655 -0.218253 1.88742 0
M  V30 880 H 81.5155 -2.41291 3.04485 0
M  V30 881 H 83.1875 -0.318615 4.60198 0
M  V30 882 H 81.4305 -0.230344 4.33188 0
M  V30 883 H 82.1015 -1.54735 5.29869 0
M  V30 884 H 84.5775 -2.24584 3.50287 0
M  V30 885 H 83.4535 -3.32678 4.36597 0
M  V30 886 H 83.7145 -3.54429 2.64258 0
M  V30 887 N 82.7736 -1.49793 -0.48987 0
M  V30 888 C 84.1846 -1.52914 -1.07118 0
M  V30 889 C 84.5356 -0.321738 -1.93544 0
M  V30 890 O 83.6606 0.567338 -2.08831 0
M  V30 891 C 84.2556 -2.771 -1.94938 0
M  V30 892 C 82.8146 -2.82963 -2.48212 0
M  V30 893 C 81.9616 -2.46972 -1.26096 0
M  V30 894 H 84.9126 -1.56329 -0.273289 0
M  V30 895 H 84.9336 -2.57892 -2.79771 0
M  V30 896 H 84.4456 -3.64959 -1.32009 0
M  V30 897 H 82.5466 -1.99411 -3.14748 0
M  V30 898 H 82.6596 -3.85406 -2.84603 0
M  V30 899 H 81.0236 -1.98994 -1.58976 0
M  V30 900 H 81.8066 -3.37118 -0.648581 0
M  V30 901 N 84.2517 0.741722 -1.39055 0
M  V30 902 C 85.1847 1.86416 -1.31622 0
M  V30 903 C 86.1627 1.61473 -0.191076 0
M  V30 904 O 87.3467 1.84825 -0.370399 0
M  V30 905 C 84.4737 3.22266 -1.04221 0
M  V30 906 C 83.5197 3.66079 -2.18834 0
M  V30 907 S 84.3527 3.7623 -3.81066 0
M  V30 908 C 85.5087 5.14881 -3.55877 0
M  V30 909 H 85.7417 1.92437 -2.26617 0
M  V30 910 H 83.2747 0.905907 -1.25031 0
M  V30 911 H 85.2327 4.00714 -0.890964 0
M  V30 912 H 83.8937 3.1391 -0.109237 0
M  V30 913 H 83.0867 4.64648 -1.95238 0
M  V30 914 H 82.6887 2.94817 -2.30128 0
M  V30 915 H 84.9807 6.01006 -3.12726 0
M  V30 916 H 85.9237 5.43503 -4.53884 0
M  V30 917 H 86.3317 4.84239 -2.90126 0
M  V30 918 N 85.7298 1.2412 0.971189 0
M  V30 919 C 86.9698 1.09066 1.7287 0
M  V30 920 C 87.3338 -0.364794 1.88503 0
M  V30 921 O 88.5348 -0.636748 2.61149 0
M  V30 922 C 86.8058 1.80629 3.08396 0
M  V30 923 S 88.3648 1.81263 3.99611 0
M  V30 924 H 85.1828 0.390145 0.594397 0
M  V30 925 H 87.7848 1.57397 1.15959 0
M  V30 926 H 86.4888 2.85647 2.94676 0
M  V30 927 H 86.0198 1.32617 3.70373 0
M  V30 928 H 88.0348 0.877804 4.88374 0
M  V30 929 N 87.2079 -1.17134 1.05439 0
M  V30 930 C 88.1549 -2.21235 0.657539 0
M  V30 931 C 89.1249 -1.62551 -0.341543 0
M  V30 932 O 90.3099 -1.89379 -0.232393 0
M  V30 933 C 87.4499 -3.45076 0.0410575 0
M  V30 934 C 86.5629 -4.18042 1.08927 0
M  V30 935 C 85.6979 -5.29376 0.439848 0
M  V30 936 C 84.7369 -5.94132 1.4722 0
M  V30 937 N 83.8739 -6.96975 0.846756 0
M  V30 938 H 88.7139 -2.54534 1.54972 0
M  V30 939 H 86.2509 -1.25028 0.775006 0
M  V30 940 H 88.2089 -4.15862 -0.33383 0
M  V30 941 H 86.8389 -3.12353 -0.814568 0
M  V30 942 H 85.8909 -3.45945 1.58196 0
M  V30 943 H 87.2029 -4.62306 1.87282 0
M  V30 944 H 86.3569 -6.06699 0.0115125 0
M  V30 945 H 85.0959 -4.86251 -0.375656 0
M  V30 946 H 84.1009 -5.15538 1.91052 0
M  V30 947 H 85.3259 -6.39337 2.28965 0
M  V30 948 H 83.2719 -6.5598 0.0518075 0
M  V30 949 H 83.1889 -7.39565 1.5678 0
M  V30 950 H 84.4569 -7.78239 0.443277 0
M  V30 951 N 88.686 -0.835752 -1.33615 0
M  V30 952 C 89.596 -0.269088 -2.33052 0
M  V30 953 C 90.612 0.603251 -1.63208 0
M  V30 954 O 91.788 0.508112 -1.94885 0
M  V30 955 C 88.853 0.549091 -3.42324 0
M  V30 956 C 87.914 -0.347156 -4.27894 0
M  V30 957 C 87.147 0.43207 -5.31948 0
M  V30 958 O 87.37 1.66409 -5.45586 0
M  V30 959 O 86.304 -0.192298 -6.01593 0
M  V30 960 H 90.13 -1.09243 -2.83372 0
M  V30 961 H 87.715 -0.598198 -1.36901 0
M  V30 962 H 89.597 1.01414 -4.09015 0
M  V30 963 H 88.272 1.34955 -2.94226 0
M  V30 964 H 87.179 -0.859979 -3.64081 0
M  V30 965 H 88.512 -1.1123 -4.79467 0
M  V30 966 N 90.1641 1.46063 -0.591896 0
M  V30 967 C 91.3941 2.06418 -0.0867676 0
M  V30 968 C 91.8021 1.43975 1.22751 0
M  V30 969 O 91.1451 0.542531 1.75506 0
M  V30 970 C 91.2071 3.59213 0.143725 0
M  V30 971 C 90.8711 4.439 -1.08635 0
M  V30 972 C 91.8681 4.79864 -2.00067 0
M  V30 973 C 89.5531 4.84896 -1.31077 0
M  V30 974 C 91.5471 5.55661 -3.12282 0
M  V30 975 C 89.2341 5.6045 -2.43596 0
M  V30 976 C 90.2321 5.95747 -3.34027 0
M  V30 977 O 89.9201 6.69772 -4.4459 0
M  V30 978 H 89.6521 0.673443 -0.0587447 0
M  V30 979 H 92.2061 1.88539 -0.814994 0
M  V30 980 H 90.4361 3.75433 0.926668 0
M  V30 981 H 92.1251 4.01463 0.5985 0
M  V30 982 H 92.8911 4.48763 -1.83947 0
M  V30 983 H 88.7701 4.56867 -0.61594 0
M  V30 984 H 92.3141 5.8313 -3.82891 0
M  V30 985 H 88.2111 5.90965 -2.59674 0
M  V30 986 H 88.9791 6.88207 -4.43073 0
M  V30 987 N 91.6422 0.330177 1.54103 0
M  V30 988 C 92.5522 -0.541534 2.28264 0
M  V30 989 C 93.5682 -1.12351 1.32866 0
M  V30 990 O 94.7442 -1.14206 1.65888 0
M  V30 991 C 91.8092 -1.68322 3.03098 0
M  V30 992 C 90.8702 -1.13238 4.14096 0
M  V30 993 C 90.1032 -2.21966 4.85352 0
M  V30 994 O 90.3262 -3.42437 4.56172 0
M  V30 995 O 89.2602 -1.87013 5.7211 0
M  V30 996 H 93.0862 0.060938 3.03639 0
M  V30 997 H 90.6712 0.09565 1.49093 0
M  V30 998 H 92.5532 -2.34777 3.49939 0
M  V30 999 H 91.2282 -2.27176 2.30593 0
M  V30 1000 H 90.1352 -0.432736 3.71589 0
M  V30 1001 H 91.4682 -0.588898 4.88664 0
M  V30 1002 N 93.1203 -1.57491 0.0584922 0
M  V30 1003 C 94.3663 -1.93264 -0.614558 0
M  V30 1004 C 94.6993 -0.937717 -1.7006 0
M  V30 1005 O 93.9743 0.0351652 -1.94468 0
M  V30 1006 C 94.2573 -3.3938 -1.20386 0
M  V30 1007 C 94.1103 -4.49625 -0.125375 0
M  V30 1008 C 95.4293 -3.86039 -2.11334 0
M  V30 1009 H 92.5483 -0.702791 -0.221933 0
M  V30 1010 H 95.1903 -1.8961 0.12175 0
M  V30 1011 H 93.3403 -3.42626 -1.83139 0
M  V30 1012 H 95.0123 -4.58506 0.506971 0
M  V30 1013 H 93.2553 -4.30354 0.545672 0
M  V30 1014 H 93.9263 -5.48967 -0.577861 0
M  V30 1015 H 96.4023 -3.84716 -1.58534 0
M  V30 1016 H 95.2783 -4.88914 -2.49507 0
M  V30 1017 H 95.5393 -3.23215 -3.01636 0
M  V30 1018 N 94.5984 0.214957 -1.56127 0
M  V30 1019 C 95.5454 1.26642 -1.92952 0
M  V30 1020 C 96.5154 1.46244 -0.78753 0
M  V30 1021 O 97.7004 1.59704 -1.04399 0
M  V30 1022 C 94.8404 2.6104 -2.25726 0
M  V30 1023 C 93.9534 2.49183 -3.52891 0
M  V30 1024 C 93.0884 3.76149 -3.7508 0
M  V30 1025 C 92.1274 3.59041 -4.95738 0
M  V30 1026 N 91.2644 4.77972 -5.14283 0
M  V30 1027 H 96.1044 0.945384 -2.82607 0
M  V30 1028 H 93.6414 0.455489 -1.3987 0
M  V30 1029 H 95.5994 3.39313 -2.42739 0
M  V30 1030 H 94.2294 2.91227 -1.39236 0
M  V30 1031 H 93.2814 1.6231 -3.44034 0
M  V30 1032 H 94.5934 2.32466 -4.41318 0
M  V30 1033 H 93.7474 4.62865 -3.92226 0
M  V30 1034 H 92.4864 3.95799 -2.84947 0
M  V30 1035 H 91.4914 2.7071 -4.78535 0
M  V30 1036 H 92.7164 3.40856 -5.87362 0
M  V30 1037 H 90.6624 4.97923 -4.27093 0
M  V30 1038 H 90.5794 4.64006 -5.96853 0
M  V30 1039 H 91.8474 5.66096 -5.35869 0
M  V30 1040 N 96.0765 1.50051 0.48192 0
M  V30 1041 C 97.3225 1.60736 1.2366 0
M  V30 1042 C 97.6555 0.301786 1.91841 0
M  V30 1043 O 96.9305 -0.696025 1.8162 0
M  V30 1044 C 97.2135 2.78009 2.28874 0
M  V30 1045 C 97.0665 4.18416 1.65069 0
M  V30 1046 C 98.3855 2.90867 3.30279 0
M  V30 1047 H 95.5045 0.585031 0.448228 0
M  V30 1048 H 98.1465 1.82402 0.531946 0
M  V30 1049 H 96.2965 2.59667 2.88973 0
M  V30 1050 H 97.9685 4.48322 1.0865 0
M  V30 1051 H 96.2115 4.23177 0.954148 0
M  V30 1052 H 96.8825 4.96381 2.41474 0
M  V30 1053 H 99.3585 3.07623 2.80191 0
M  V30 1054 H 98.2345 3.74566 4.01238 0
M  V30 1055 H 98.4955 2.01021 3.93755 0
M  V30 1056 N 97.5546 -0.734337 1.39446 0
M  V30 1057 C 98.8036 -1.48937 1.36017 0
M  V30 1058 C 99.1166 -1.95557 -0.0409005 0
M  V30 1059 O 100.323 -2.70779 -0.19778 0
M  V30 1060 C 98.7786 -2.69125 2.38955 0
M  V30 1061 C 98.3866 -2.29452 3.8478 0
M  V30 1062 C 100.131 -3.46944 2.44603 0
M  V30 1063 C 98.0376 -3.46366 4.79358 0
M  V30 1064 H 96.9676 -0.559296 0.505672 0
M  V30 1065 H 99.6186 -0.800983 1.65095 0
M  V30 1066 H 98.0006 -3.40041 2.02948 0
M  V30 1067 H 99.1746 -1.66077 4.29831 0
M  V30 1068 H 97.4896 -1.64723 3.82433 0
M  V30 1069 H 100.087 -4.33907 3.12456 0
M  V30 1070 H 100.43 -3.89454 1.47076 0
M  V30 1071 H 100.963 -2.83056 2.79507 0
M  V30 1072 H 97.7016 -3.08905 5.78151 0
M  V30 1073 H 97.2216 -4.08719 4.38986 0
M  V30 1074 H 98.9006 -4.12691 4.98292 0
M  V30 1075 N 99.0327 -1.24633 -0.964593 0
M  V30 1076 C 100.281 -1.08573 -1.70459 0
M  V30 1077 C 100.602 0.375655 -1.91347 0
M  V30 1078 O 99.8717 1.26779 -1.49345 0
M  V30 1079 H 98.4517 -0.398784 -0.631649 0
M  V30 1080 H 101.114 -1.56601 -1.16026 0
M  V30 1081 H 100.21 -1.58623 -2.68785 0
M  V30 1082 N 100.511 1.16574 -1.06058 0
M  V30 1083 C 101.741 1.90675 -0.795397 0
M  V30 1084 C 102.149 1.77547 0.653735 0
M  V30 1085 O 101.492 1.11611 1.45907 0
M  V30 1086 C 101.554 3.42011 -1.10764 0
M  V30 1087 C 101.218 3.78924 -2.55471 0
M  V30 1088 C 102.215 3.81042 -3.53699 0
M  V30 1089 C 99.8998 4.09626 -2.90708 0
M  V30 1090 C 101.894 4.13346 -4.85205 0
M  V30 1091 C 99.5808 4.41597 -4.22416 0
M  V30 1092 C 100.579 4.43436 -5.19474 0
M  V30 1093 O 100.267 4.74649 -6.48817 0
M  V30 1094 H 99.9988 0.611554 -0.288058 0
M  V30 1095 H 102.553 1.48711 -1.41683 0
M  V30 1096 H 100.783 3.84312 -0.429128 0
M  V30 1097 H 102.472 3.97384 -0.827077 0
M  V30 1098 H 103.238 3.57437 -3.27817 0
M  V30 1099 H 99.1168 4.07361 -2.15819 0
M  V30 1100 H 102.661 4.14696 -5.60957 0
M  V30 1101 H 98.5578 4.64667 -4.48056 0
M  V30 1102 H 99.3258 4.9247 -6.5377 0
M  V30 1103 N 101.989 0.842826 1.3317 0
M  V30 1104 C 102.937 0.267495 2.31057 0
M  V30 1105 C 103.931 -0.602682 1.58316 0
M  V30 1106 O 105.137 -0.491803 1.73151 0
M  V30 1107 H 101.512 0.0677813 0.748939 0
M  V30 1108 H 103.483 1.10754 2.77085 0
M  V30 1109 C 102.232 -0.539331 3.43492 0
M  V30 1110 H 101.555 0.12095 3.99617 0
M  V30 1111 H 102.995 -0.90767 4.14171 0
M  V30 1112 C 101.454 -1.71981 2.89697 0
M  V30 1113 O 101.984 -2.81862 2.86211 0
M  V30 1114 N 100.19 -1.54299 2.46252 0
M  V30 1115 H 99.7369 -0.649143 2.49287 0
M  V30 1116 H 99.6949 -2.33431 2.10612 0
M  V30 1117 N 103.467 -1.45747 0.599634 0
M  V30 1118 C 104.397 -2.33235 -0.111306 0
M  V30 1119 C 105.378 -1.46359 -0.866781 0
M  V30 1120 O 106.563 -1.75146 -0.838904 0
M  V30 1121 C 103.693 -3.28932 -1.11451 0
M  V30 1122 C 102.647 -4.25381 -0.472772 0
M  V30 1123 C 101.973 -5.1071 -1.58365 0
M  V30 1124 C 103.273 -5.18831 0.600948 0
M  V30 1125 H 104.967 -2.92927 0.61919 0
M  V30 1126 H 102.513 -1.40857 0.299215 0
M  V30 1127 H 104.466 -3.89002 -1.62036 0
M  V30 1128 H 103.19 -2.67381 -1.8755 0
M  V30 1129 H 101.849 -3.66598 0.0121472 0
M  V30 1130 H 101.497 -4.45533 -2.33473 0
M  V30 1131 H 101.197 -5.7604 -1.15982 0
M  V30 1132 H 102.721 -5.73647 -2.09194 0
M  V30 1133 H 104.135 -5.73019 0.179491 0
M  V30 1134 H 102.532 -5.92595 0.946076 0
M  V30 1135 H 103.602 -4.6174 1.48068 0
M  V30 1136 N 104.945 -0.338344 -1.53925 0
M  V30 1137 C 105.878 0.563758 -2.21127 0
M  V30 1138 C 106.856 1.10433 -1.19345 0
M  V30 1139 O 108.04 1.16557 -1.48144 0
M  V30 1140 C 105.167 1.77505 -2.88461 0
M  V30 1141 C 104.213 1.3644 -4.04087 0
M  V30 1142 S 105.046 0.388593 -5.34088 0
M  V30 1143 C 106.202 1.60683 -6.04923 0
M  V30 1144 H 106.435 -0.00704546 -2.97299 0
M  V30 1145 H 103.968 -0.122418 -1.53914 0
M  V30 1146 H 105.926 2.46999 -3.27875 0
M  V30 1147 H 104.587 2.31706 -2.12064 0
M  V30 1148 H 103.78 2.26739 -4.50117 0
M  V30 1149 H 103.382 0.748998 -3.66423 0
M  V30 1150 H 105.674 2.54209 -6.28 0
M  V30 1151 H 106.617 1.18842 -6.98056 0
M  V30 1152 H 107.025 1.80052 -5.35015 0
M  V30 1153 N 106.423 1.57458 -0.0668435 0
M  V30 1154 C 107.355 2.09413 0.931601 0
M  V30 1155 C 108.368 1.02522 1.26464 0
M  V30 1156 O 109.557 1.30049 1.22269 0
M  V30 1157 C 106.657 2.53537 2.24882 0
M  V30 1158 C 105.83 3.83944 2.09537 0
M  V30 1159 C 104.889 4.14214 3.2452 0
M  V30 1160 O 103.915 4.83891 2.9973 0
M  V30 1161 N 105.117 3.67367 4.49469 0
M  V30 1162 H 107.882 2.95699 0.488048 0
M  V30 1163 H 105.443 1.61462 0.119009 0
M  V30 1164 H 107.435 2.70853 3.00701 0
M  V30 1165 H 106.005 1.72415 2.60753 0
M  V30 1166 H 105.225 3.76057 1.18215 0
M  V30 1167 H 106.513 4.69312 1.96529 0
M  V30 1168 H 105.911 3.11068 4.72497 0
M  V30 1169 H 104.468 3.89891 5.2233 0
M  V30 1170 N 107.901 -0.206675 1.56239 0
M  V30 1171 C 108.864 -1.23976 1.92776 0
M  V30 1172 C 109.864 -1.39041 0.807729 0
M  V30 1173 O 111.054 -1.37051 1.0753 0
M  V30 1174 C 108.186 -2.61112 2.19165 0
M  V30 1175 H 109.379 -0.927764 2.85189 0
M  V30 1176 H 106.932 -0.447718 1.4975 0
M  V30 1177 H 107.667 -2.97386 1.29352 0
M  V30 1178 H 107.452 -2.51552 3.00772 0
M  V30 1179 H 108.942 -3.35633 2.48476 0
M  V30 1180 N 109.379 -1.50304 -0.473955 0
M  V30 1181 C 110.312 -1.63595 -1.59097 0
M  V30 1182 C 111.29 -0.484142 -1.55225 0
M  V30 1183 O 112.474 -0.703271 -1.7489 0
M  V30 1184 C 109.601 -1.61589 -2.97669 0
M  V30 1185 C 108.647 -2.82295 -3.19705 0
M  V30 1186 S 109.48 -4.43635 -2.99913 0
M  V30 1187 C 110.636 -4.44317 -4.40832 0
M  V30 1188 H 110.869 -2.58082 -1.47583 0
M  V30 1189 H 108.402 -1.39531 -0.661087 0
M  V30 1190 H 110.36 -1.61116 -3.7756 0
M  V30 1191 H 109.021 -0.683421 -3.06575 0
M  V30 1192 H 108.214 -2.77188 -4.20931 0
M  V30 1193 H 107.816 -2.8032 -2.47582 0
M  V30 1194 H 110.108 -4.17703 -5.33414 0
M  V30 1195 H 111.051 -5.45911 -4.50984 0
M  V30 1196 H 111.459 -3.74059 -4.22777 0
M  V30 1197 N 110.857 0.726932 -1.39834 0
M  V30 1198 C 112.273 1.03354 -1.21615 0
M  V30 1199 C 112.473 2.01327 -0.08338 0
M  V30 1200 O 111.529 2.46158 0.56238 0
M  V30 1201 C 112.842 1.58811 -2.55342 0
M  V30 1202 C 114.39 1.70851 -2.62257 0
M  V30 1203 C 114.865 2.29716 -3.96225 0
M  V30 1204 N 116.356 2.37116 -3.97907 0
M  V30 1205 C 117.091 2.83619 -4.98345 0
M  V30 1206 N 116.587 3.29958 -6.09179 0
M  V30 1207 N 118.38 2.82901 -4.8572 0
M  V30 1208 H 110.531 0.0773069 -2.12259 0
M  V30 1209 H 112.794 0.0969102 -0.943034 0
M  V30 1210 H 112.5 0.942855 -3.38826 0
M  V30 1211 H 112.374 2.57502 -2.75632 0
M  V30 1212 H 114.761 2.34497 -1.79152 0
M  V30 1213 H 114.842 0.707913 -2.45809 0
M  V30 1214 H 114.486 1.66696 -4.79765 0
M  V30 1215 H 114.416 3.30469 -4.09997 0
M  V30 1216 H 116.907 2.04374 -3.17868 0
M  V30 1217 H 117.22 3.63976 -6.8172 0
M  V30 1218 H 115.565 3.27946 -6.12761 0
M  V30 1219 H 118.756 2.46027 -3.98231 0
M  V30 1220 H 118.929 3.18827 -5.6414 0
M  V30 1221 N 112.336 1.25143 0.95797 0
M  V30 1222 C 113.583 1.09692 1.70217 0
M  V30 1223 C 113.911 -0.362654 1.91089 0
M  V30 1224 O 113.166 -1.28386 1.47701 0
M  V30 1225 C 113.465 1.79272 3.09187 0
M  V30 1226 C 113.131 3.29196 3.08125 0
M  V30 1227 C 111.793 3.70096 3.07543 0
M  V30 1228 C 114.145 4.24995 3.0171 0
M  V30 1229 C 111.473 5.05213 2.9829 0
M  V30 1230 C 113.825 5.60132 2.93999 0
M  V30 1231 C 112.489 6.00365 2.9175 0
M  V30 1232 H 111.759 0.401393 0.622868 0
M  V30 1233 H 114.406 1.55372 1.11945 0
M  V30 1234 H 112.711 1.26014 3.70982 0
M  V30 1235 H 114.408 1.64773 3.65583 0
M  V30 1236 H 110.998 2.96651 3.09348 0
M  V30 1237 H 115.182 3.9439 3.01281 0
M  V30 1238 H 110.438 5.35569 2.94916 0
M  V30 1239 H 114.612 6.3406 2.87996 0
M  V30 1240 H 112.239 7.05023 2.84336 0
M  V30 1241 N 113.814 -1.1601 1.06675 0
M  V30 1242 C 114.777 -2.18724 0.685001 0
M  V30 1243 C 115.777 -1.58496 -0.271246 0
M  V30 1244 O 116.967 -1.74119 -0.0531156 0
M  V30 1245 C 114.099 -3.40899 0.00853648 0
M  V30 1246 H 115.292 -2.54011 1.59431 0
M  V30 1247 H 112.845 -1.30352 0.862441 0
M  V30 1248 H 113.58 -3.11173 -0.913337 0
M  V30 1249 H 113.365 -3.8587 0.696204 0
M  V30 1250 H 114.855 -4.16886 -0.24414 0
M  V30 1251 N 115.292 -0.849877 -1.32721 0
M  V30 1252 C 116.538 -0.451591 -1.97708 0
M  V30 1253 C 116.871 0.989175 -1.6712 0
M  V30 1254 O 116.146 1.69334 -0.956891 0
M  V30 1255 C 116.429 -0.685598 -3.53513 0
M  V30 1256 C 116.282 -2.17444 -3.93749 0
M  V30 1257 C 117.601 -0.138874 -4.39881 0
M  V30 1258 H 114.72 -0.16555 -0.718166 0
M  V30 1259 H 117.362 -1.06742 -1.57182 0
M  V30 1260 H 115.512 -0.161416 -3.88165 0
M  V30 1261 H 117.184 -2.76433 -3.693 0
M  V30 1262 H 115.427 -2.65476 -3.43081 0
M  V30 1263 H 116.098 -2.28888 -5.02309 0
M  V30 1264 H 118.574 -0.587068 -4.11938 0
M  V30 1265 H 117.45 -0.332213 -5.47894 0
M  V30 1266 H 117.711 0.95806 -4.31594 0
M  V30 1267 N 116.77 1.45427 -0.607355 0
M  V30 1268 C 117.68 2.34325 0.113463 0
M  V30 1269 C 118.696 1.51226 0.860617 0
M  V30 1270 O 119.872 1.84029 0.818255 0
M  V30 1271 C 116.937 3.28839 1.09844 0
M  V30 1272 C 115.998 4.27844 0.353271 0
M  V30 1273 C 115.231 5.17842 1.29133 0
M  V30 1274 O 115.454 5.11264 2.52913 0
M  V30 1275 O 114.388 5.96713 0.788523 0
M  V30 1276 H 118.214 2.97364 -0.617094 0
M  V30 1277 H 115.799 1.44807 -0.367619 0
M  V30 1278 H 117.681 3.8708 1.66575 0
M  V30 1279 H 116.356 2.68365 1.81003 0
M  V30 1280 H 115.263 3.7322 -0.256494 0
M  V30 1281 H 116.596 4.91173 -0.317822 0
M  V30 1282 N 118.248 0.346503 1.53744 0
M  V30 1283 C 119.158 -0.517293 2.28826 0
M  V30 1284 C 120.174 -1.10935 1.3405 0
M  V30 1285 O 121.35 -1.1244 1.6709 0
M  V30 1286 C 118.415 -1.65098 3.04866 0
M  V30 1287 C 117.476 -1.0884 4.15274 0
M  V30 1288 C 116.709 -2.16806 4.87679 0
M  V30 1289 O 116.932 -3.3758 4.59778 0
M  V30 1290 O 115.866 -1.80934 5.74061 0
M  V30 1291 H 119.692 0.0931396 3.03557 0
M  V30 1292 H 117.277 0.111458 1.48984 0
M  V30 1293 H 119.159 -2.31053 3.5241 0
M  V30 1294 H 117.834 -2.24717 2.32989 0
M  V30 1295 H 116.741 -0.3933 3.72027 0
M  V30 1296 H 118.074 -0.537036 4.89261 0
M  V30 1297 N 119.726 -1.57421 0.075193 0
M  V30 1298 C 120.975 -1.92794 -0.592731 0
M  V30 1299 C 121.288 -0.957478 -1.70563 0
M  V30 1300 O 122.494 -1.20417 -2.43335 0
M  V30 1301 C 120.95 -3.42495 -1.10569 0
M  V30 1302 C 120.558 -4.47994 -0.0236121 0
M  V30 1303 C 122.302 -3.86864 -1.74748 0
M  V30 1304 C 120.209 -5.88829 -0.550803 0
M  V30 1305 H 119.139 -0.719591 -0.225177 0
M  V30 1306 H 121.79 -1.82902 0.147978 0
M  V30 1307 H 120.172 -3.47471 -1.89947 0
M  V30 1308 H 121.346 -4.54637 0.751099 0
M  V30 1309 H 119.661 -4.13113 0.522159 0
M  V30 1310 H 122.258 -4.8947 -2.15229 0
M  V30 1311 H 122.601 -3.24417 -2.60882 0
M  V30 1312 H 123.134 -3.84504 -1.01986 0
M  V30 1313 H 119.873 -6.54929 0.273457 0
M  V30 1314 H 119.393 -5.85698 -1.29296 0
M  V30 1315 H 121.072 -6.38811 -1.02613 0
M  V30 1316 N 121.204 0.198386 -1.56346 0
M  V30 1317 C 122.152 1.26538 -1.95169 0
M  V30 1318 C 123.146 1.47295 -0.836685 0
M  V30 1319 O 124.352 1.48195 -1.02167 0
M  V30 1320 H 120.727 0.424744 -0.620561 0
M  V30 1321 H 122.698 0.910904 -2.84157 0
M  V30 1322 C 121.447 2.6035 -2.30463 0
M  V30 1323 H 120.77 2.45192 -3.15786 0
M  V30 1324 H 122.21 3.33762 -2.61494 0
M  V30 1325 C 120.669 3.17096 -1.13806 0
M  V30 1326 O 121.199 3.99588 -0.41135 0
M  V30 1327 N 119.405 2.75795 -0.915736 0
M  V30 1328 H 118.952 2.08816 -1.50843 0
M  V30 1329 H 118.91 3.14101 -0.136979 0
M  V30 1330 N 122.682 1.50554 0.465978 0
M  V30 1331 C 123.63 1.70324 1.58406 0
M  V30 1332 C 124.624 0.569139 1.59553 0
M  V30 1333 O 125.83 0.749776 1.63641 0
M  V30 1334 H 122.205 0.537688 0.525734 0
M  V30 1335 H 124.176 2.64104 1.38894 0
M  V30 1336 C 122.925 1.81928 2.96307 0
M  V30 1337 H 122.248 2.68586 2.96144 0
M  V30 1338 H 123.688 1.99784 3.73982 0
M  V30 1339 C 122.147 0.572095 3.32007 0
M  V30 1340 O 122.677 -0.286416 4.00678 0
M  V30 1341 N 120.883 0.424606 2.87481 0
M  V30 1342 H 120.43 1.12427 2.31771 0
M  V30 1343 H 120.388 -0.408697 3.11732 0
M  V30 1344 N 124.16 -0.719506 1.40217 0
M  V30 1345 C 125.437 -1.47221 1.28784 0
M  V30 1346 C 125.817 -2.10883 -0.0956067 0
M  V30 1347 O 125.165 -1.99833 -1.10811 0
M  V30 1348 C 125.375 -2.5111 2.42373 0
M  V30 1349 C 126.723 -3.17053 2.82423 0
M  V30 1350 O 127.747 -2.61429 2.41937 0
M  V30 1351 O 126.606 -4.17742 3.52355 0
M  V30 1352 H 123.7 -0.654491 0.50554 0
M  V30 1353 H 126.246 -0.752014 1.52128 0
M  V30 1354 H 125.018 -2.02556 3.34793 0
M  V30 1355 H 124.641 -3.3067 2.20778 0
M  V30 1356 N 125.638 -1.25649 -0.95132 0
M  V30 1357 C 126.863 -1.13443 -1.73624 0
M  V30 1358 C 127.288 0.307565 -1.85568 0
M  V30 1359 O 126.646 1.22282 -1.33854 0
M  V30 1360 C 126.694 -1.79723 -3.12621 0
M  V30 1361 O 125.798 -1.07912 -3.98031 0
M  V30 1362 H 125.139 -0.395872 -0.533086 0
M  V30 1363 H 127.669 -1.66276 -1.1922 0
M  V30 1364 H 127.679 -1.86141 -3.63064 0
M  V30 1365 H 126.354 -2.84633 -3.03244 0
M  V30 1366 H 124.931 -1.09398 -3.56492 0
M  V30 1367 N 127.117 1.15442 -1.07289 0
M  V30 1368 C 128.342 1.90638 -0.816828 0
M  V30 1369 C 128.767 1.77445 0.624083 0
M  V30 1370 O 128.125 1.10671 1.43602 0
M  V30 1371 C 128.173 3.39008 -1.22906 0
M  V30 1372 O 127.277 4.10701 -0.373975 0
M  V30 1373 H 126.618 0.593555 -0.297638 0
M  V30 1374 H 129.148 1.46198 -1.43134 0
M  V30 1375 H 129.158 3.89801 -1.20497 0
M  V30 1376 H 127.833 3.47929 -2.27856 0
M  V30 1377 H 126.41 3.70046 -0.460499 0
M  V30 1378 N 128.595 0.856903 1.32268 0
M  V30 1379 C 129.525 0.31858 2.31316 0
M  V30 1380 C 130.506 -0.583487 1.59779 0
M  V30 1381 O 131.691 -0.503259 1.87566 0
M  V30 1382 C 128.821 -0.491979 3.43798 0
M  V30 1383 C 127.775 0.315849 4.26833 0
M  V30 1384 C 127.101 -0.619586 5.31098 0
M  V30 1385 C 128.401 1.54282 4.98993 0
M  V30 1386 H 130.095 1.14621 2.76591 0
M  V30 1387 H 127.641 0.552613 1.32974 0
M  V30 1388 H 129.594 -0.879012 4.1213 0
M  V30 1389 H 128.318 -1.35299 2.97257 0
M  V30 1390 H 126.977 0.684664 3.6015 0
M  V30 1391 H 126.625 -1.47751 4.8081 0
M  V30 1392 H 126.325 -0.0830621 5.87541 0
M  V30 1393 H 127.849 -1.00375 6.02293 0
M  V30 1394 H 129.263 1.22796 5.59995 0
M  V30 1395 H 127.66 2.01745 5.65172 0
M  V30 1396 H 128.73 2.30285 4.26728 0
M  V30 1397 N 130.073 -1.45103 0.615059 0
M  V30 1398 C 131.003 -2.33339 -0.0865619 0
M  V30 1399 C 131.984 -1.4727 -0.851209 0
M  V30 1400 O 133.169 -1.76026 -0.820281 0
M  V30 1401 C 130.299 -3.30095 -1.07956 0
M  V30 1402 C 129.253 -4.25858 -0.427628 0
M  V30 1403 C 128.579 -5.12361 -1.5294 0
M  V30 1404 C 129.879 -5.18165 0.655944 0
M  V30 1405 H 131.573 -2.92254 0.650224 0
M  V30 1406 H 129.119 -1.40532 0.314138 0
M  V30 1407 H 131.072 -3.90698 -1.57901 0
M  V30 1408 H 129.796 -2.69355 -1.84703 0
M  V30 1409 H 128.455 -3.66564 0.0510292 0
M  V30 1410 H 128.103 -4.47984 -2.28734 0
M  V30 1411 H 127.803 -5.77238 -1.09865 0
M  V30 1412 H 129.327 -5.75833 -2.03098 0
M  V30 1413 H 130.741 -5.72796 0.240257 0
M  V30 1414 H 129.138 -5.91559 1.00888 0
M  V30 1415 H 130.208 -4.60144 1.52957 0
M  V30 1416 N 131.551 -0.354651 -1.53558 0
M  V30 1417 C 132.962 0.126902 -1.86268 0
M  V30 1418 C 133.313 1.49075 -1.27558 0
M  V30 1419 O 132.438 2.08105 -0.5934 0
M  V30 1420 C 133.033 0.237046 -3.3797 0
M  V30 1421 C 131.592 0.662842 -3.70518 0
M  V30 1422 C 130.739 -0.196652 -2.76602 0
M  V30 1423 H 133.69 -0.573849 -1.47962 0
M  V30 1424 H 133.711 1.06259 -3.65362 0
M  V30 1425 H 133.223 -0.755725 -3.80671 0
M  V30 1426 H 131.324 1.66424 -3.33367 0
M  V30 1427 H 131.437 0.445034 -4.77029 0
M  V30 1428 H 129.801 0.332763 -2.52517 0
M  V30 1429 H 130.584 -1.18676 -3.22135 0
M  V30 1430 N 133.029 1.57378 -0.0835403 0
M  V30 1431 C 134.277 1.93547 0.581718 0
M  V30 1432 C 134.598 0.96524 1.69435 0
M  V30 1433 O 133.868 0.0153369 1.95894 0
M  V30 1434 H 132.448 0.714521 0.217874 0
M  V30 1435 H 135.11 1.94366 -0.144158 0
M  V30 1436 H 134.206 2.95665 0.999423 0
M  V30 1437 N 134.507 -0.190092 1.56449 0
M  V30 1438 C 135.753 -0.911052 1.81184 0
M  V30 1439 C 136.086 -1.82699 0.658396 0
M  V30 1440 O 135.361 -1.91491 -0.340775 0
M  V30 1441 C 135.644 -1.72297 3.16205 0
M  V30 1442 C 135.497 -0.831419 4.42049 0
M  V30 1443 C 136.816 -2.69454 3.47969 0
M  V30 1444 H 133.935 -0.32977 0.659106 0
M  V30 1445 H 136.577 -0.178169 1.89163 0
M  V30 1446 H 134.727 -2.34778 3.09534 0
M  V30 1447 H 136.399 -0.220929 4.60771 0
M  V30 1448 H 134.642 -0.138406 4.33579 0
M  V30 1449 H 135.313 -1.43461 5.33032 0
M  V30 1450 H 137.789 -2.17104 3.54972 0
M  V30 1451 H 136.665 -3.23342 4.43555 0
M  V30 1452 H 136.926 -3.48744 2.71717 0
M  V30 1453 N 135.985 -1.50799 -0.457987 0
M  V30 1454 C 136.915 -1.73553 -1.5621 0
M  V30 1455 C 137.896 -0.584774 -1.59732 0
M  V30 1456 O 139.081 -0.825314 -1.7579 0
M  V30 1457 C 136.211 -1.84169 -2.94447 0
M  V30 1458 C 135.165 -2.99461 -3.0579 0
M  V30 1459 C 134.491 -2.95235 -4.45803 0
M  V30 1460 C 135.791 -4.39766 -2.81786 0
M  V30 1461 H 137.485 -2.66 -1.37421 0
M  V30 1462 H 135.031 -1.28002 -0.659662 0
M  V30 1463 H 136.984 -1.98672 -3.71628 0
M  V30 1464 H 135.708 -0.883545 -3.14422 0
M  V30 1465 H 134.367 -2.8463 -2.31044 0
M  V30 1466 H 134.015 -1.97239 -4.62715 0
M  V30 1467 H 133.715 -3.72642 -4.54326 0
M  V30 1468 H 135.239 -3.11803 -5.24987 0
M  V30 1469 H 136.653 -4.55054 -3.4871 0
M  V30 1470 H 135.05 -5.18722 -3.0174 0
M  V30 1471 H 136.12 -4.51229 -1.7754 0
M  V30 1472 N 137.463 0.71206 -1.40597 0
M  V30 1473 C 138.393 1.83889 -1.43899 0
M  V30 1474 C 139.374 1.67442 -0.299504 0
M  V30 1475 O 140.559 1.87421 -0.508624 0
M  V30 1476 C 137.689 3.21877 -1.30431 0
M  V30 1477 C 136.643 3.53002 -2.42019 0
M  V30 1478 C 135.969 4.90172 -2.13626 0
M  V30 1479 C 137.269 3.53643 -3.84362 0
M  V30 1480 H 138.963 1.81383 -2.38203 0
M  V30 1481 H 136.509 0.871237 -1.14654 0
M  V30 1482 H 138.462 4.00404 -1.31357 0
M  V30 1483 H 137.186 3.24968 -0.326049 0
M  V30 1484 H 135.845 2.76818 -2.40349 0
M  V30 1485 H 135.493 4.89869 -1.14182 0
M  V30 1486 H 135.193 5.11962 -2.88389 0
M  V30 1487 H 136.717 5.71028 -2.1624 0
M  V30 1488 H 138.131 4.22203 -3.87837 0
M  V30 1489 H 136.528 3.86961 -4.58673 0
M  V30 1490 H 137.598 2.52954 -4.13693 0
M  V30 1491 N 138.941 1.26152 0.944643 0
M  V30 1492 C 140.189 1.11271 1.6871 0
M  V30 1493 C 140.51 -0.345166 1.91921 0
M  V30 1494 O 139.78 -1.24387 1.51343 0
M  V30 1495 H 138.36 0.408783 0.625224 0
M  V30 1496 H 141.022 1.58427 1.1352 0
M  V30 1497 H 140.118 1.62879 2.66227 0
M  V30 1498 N 140.419 -1.14872 1.07899 0
M  V30 1499 C 141.649 -1.89386 0.825631 0
M  V30 1500 C 142.057 -1.78565 -0.625406 0
M  V30 1501 O 141.4 -1.13918 -1.44113 0
M  V30 1502 C 141.462 -3.40206 1.16191 0
M  V30 1503 C 141.126 -3.74812 2.61467 0
M  V30 1504 C 142.123 -3.75367 3.59716 0
M  V30 1505 C 139.808 -4.0495 2.97189 0
M  V30 1506 C 141.802 -4.05574 4.9172 0
M  V30 1507 C 139.489 -4.34821 4.29388 0
M  V30 1508 C 140.487 -4.35116 5.26463 0
M  V30 1509 O 140.175 -4.64267 6.56286 0
M  V30 1510 H 139.907 -0.606894 0.297751 0
M  V30 1511 H 142.461 -1.46438 1.44031 0
M  V30 1512 H 140.691 -3.8358 0.490214 0
M  V30 1513 H 142.38 -3.96018 0.890193 0
M  V30 1514 H 143.146 -3.52176 3.33462 0
M  V30 1515 H 139.025 -4.03876 2.22273 0
M  V30 1516 H 142.569 -4.05719 5.67484 0
M  V30 1517 H 138.466 -4.5748 4.55392 0
M  V30 1518 H 139.234 -4.82007 6.61522 0
M  V30 1519 N 141.898 -0.863906 -1.31812 0
M  V30 1520 C 142.808 -0.318461 -2.32428 0
M  V30 1521 C 143.824 0.568496 -1.64451 0
M  V30 1522 O 145 0.46666 -1.95919 0
M  V30 1523 C 142.065 0.476355 -3.43412 0
M  V30 1524 C 141.126 -0.43784 -4.27061 0
M  V30 1525 C 140.359 0.319138 -5.32745 0
M  V30 1526 O 140.582 1.54799 -5.48993 0
M  V30 1527 O 139.516 -0.319861 -6.01049 0
M  V30 1528 H 143.342 -1.15229 -2.80991 0
M  V30 1529 H 140.927 -0.627103 -1.35602 0
M  V30 1530 H 142.809 0.927156 -4.11074 0
M  V30 1531 H 141.484 1.28683 -2.97022 0
M  V30 1532 H 140.391 -0.937013 -3.62175 0
M  V30 1533 H 141.724 -1.21375 -4.77 0
M  V30 1534 N 143.376 1.44774 -0.622745 0
M  V30 1535 C 144.625 2.01334 -0.121397 0
M  V30 1536 C 144.938 1.49505 1.26125 0
M  V30 1537 O 146.144 1.98139 1.85616 0
M  V30 1538 C 144.6 3.59516 -0.166298 0
M  V30 1539 C 144.208 4.20342 -1.54974 0
M  V30 1540 C 145.952 4.23582 0.279021 0
M  V30 1541 C 143.859 5.70721 -1.55021 0
M  V30 1542 H 142.789 0.752851 -0.0416172 0
M  V30 1543 H 145.44 1.66083 -0.780309 0
M  V30 1544 H 143.822 3.92027 0.559557 0
M  V30 1545 H 144.996 3.99381 -2.29851 0
M  V30 1546 H 143.311 3.68529 -1.93843 0
M  V30 1547 H 145.908 5.33868 0.298083 0
M  V30 1548 H 146.251 3.95327 1.30471 0
M  V30 1549 H 146.784 3.95843 -0.394063 0
M  V30 1550 H 143.523 6.03698 -2.55399 0
M  V30 1551 H 143.043 5.93829 -0.844245 0
M  V30 1552 H 144.722 6.34203 -1.28047 0
M  V30 1553 N 144.854 0.36279 1.53368 0
M  V30 1554 C 146.1 -0.228113 2.01513 0
M  V30 1555 C 146.433 -1.48648 1.2497 0
M  V30 1556 O 145.708 -1.91459 0.342616 0
M  V30 1557 C 145.991 -0.522884 3.56284 0
M  V30 1558 C 145.844 0.74892 4.43521 0
M  V30 1559 C 147.163 -1.32461 4.19693 0
M  V30 1560 H 144.282 -0.0814343 0.732487 0
M  V30 1561 H 146.924 0.48713 1.83649 0
M  V30 1562 H 145.074 -1.1322 3.71636 0
M  V30 1563 H 146.746 1.38648 4.39971 0
M  V30 1564 H 144.989 1.36986 4.11603 0
M  V30 1565 H 145.66 0.497667 5.49752 0
M  V30 1566 H 148.136 -0.809203 4.08156 0
M  V30 1567 H 147.012 -1.49961 5.28018 0
M  V30 1568 H 147.273 -2.33232 3.75573 0
M  V30 1569 N 146.332 -1.57332 0.0918853 0
M  V30 1570 C 147.609 -1.85691 -0.614668 0
M  V30 1571 C 147.989 -0.988146 -1.86545 0
M  V30 1572 O 147.337 -0.0597055 -2.28422 0
M  V30 1573 C 147.547 -3.36294 -0.933126 0
M  V30 1574 C 148.895 -4.04275 -1.29796 0
M  V30 1575 O 149.919 -3.41157 -1.02424 0
M  V30 1576 O 148.778 -5.1564 -1.81047 0
M  V30 1577 H 145.872 -0.767802 -0.307261 0
M  V30 1578 H 148.418 -1.69244 0.12434 0
M  V30 1579 H 147.19 -3.91273 -0.0456404 0
M  V30 1580 H 146.813 -3.58076 -1.72822 0
M  V30 1581 N 147.81 0.181792 -1.56548 0
M  V30 1582 C 149.056 0.901431 -1.81665 0
M  V30 1583 C 149.389 1.82347 -0.668075 0
M  V30 1584 O 148.664 1.91669 0.330615 0
M  V30 1585 C 148.947 1.70618 -3.17115 0
M  V30 1586 C 148.8 0.807964 -4.42484 0
M  V30 1587 C 150.119 2.67605 -3.49393 0
M  V30 1588 H 147.238 0.32627 -0.660846 0
M  V30 1589 H 149.88 0.168134 -1.89255 0
M  V30 1590 H 148.03 2.33133 -3.10775 0
M  V30 1591 H 149.702 0.19649 -4.60881 0
M  V30 1592 H 147.945 0.115411 -4.33646 0
M  V30 1593 H 148.616 1.40632 -5.33785 0
M  V30 1594 H 151.092 2.15218 -3.56118 0
M  V30 1595 H 149.968 3.20985 -4.45264 0
M  V30 1596 H 150.229 3.47298 -2.73563 0
M  V30 1597 N 149.288 1.51039 0.449983 0
M  V30 1598 C 150.528 1.64732 1.21007 0
M  V30 1599 C 150.892 0.349865 1.88785 0
M  V30 1600 O 152.093 0.362431 2.66345 0
M  V30 1601 C 150.364 2.80902 2.20973 0
M  V30 1602 S 151.923 3.14851 3.05638 0
M  V30 1603 H 148.741 0.5805 0.410538 0
M  V30 1604 H 151.343 1.88901 0.503634 0
M  V30 1605 H 150.047 3.73627 1.69796 0
M  V30 1606 H 149.578 2.58882 2.96215 0
M  V30 1607 H 151.593 2.60306 4.22439 0
M  V30 1608 N 150.766 -0.704594 1.40972 0
M  V30 1609 C 151.996 -1.49138 1.42974 0
M  V30 1610 C 152.404 -1.89175 0.0308406 0
M  V30 1611 O 151.747 -1.56734 -0.958138 0
M  V30 1612 C 151.809 -2.79016 2.26694 0
M  V30 1613 C 151.473 -2.61236 3.74973 0
M  V30 1614 C 152.47 -2.27773 4.67349 0
M  V30 1615 C 150.155 -2.77158 4.18914 0
M  V30 1616 C 152.149 -2.10457 6.01653 0
M  V30 1617 C 149.836 -2.59459 5.53285 0
M  V30 1618 C 150.834 -2.26158 6.4447 0
M  V30 1619 O 150.522 -2.08605 7.76363 0
M  V30 1620 H 150.254 -0.466443 0.489292 0
M  V30 1621 H 152.808 -0.8758 1.85793 0
M  V30 1622 H 151.038 -3.42947 1.78673 0
M  V30 1623 H 152.727 -3.40782 2.20504 0
M  V30 1624 H 153.493 -2.15095 4.34694 0
M  V30 1625 H 149.372 -3.02064 3.48251 0
M  V30 1626 H 152.916 -1.84387 6.72791 0
M  V30 1627 H 148.813 -2.71725 5.85522 0
M  V30 1628 H 149.581 -2.23439 7.87412 0
M  V30 1629 N 152.244 -1.26651 -0.937939 0
M  V30 1630 C 153.493 -1.11775 -1.67897 0
M  V30 1631 C 153.806 0.33794 -1.92659 0
M  V30 1632 O 155.012 0.607434 -2.64618 0
M  V30 1633 C 153.468 -1.9523 -3.02346 0
M  V30 1634 C 153.076 -3.45393 -2.8532 0
M  V30 1635 C 154.82 -1.88972 -3.80118 0
M  V30 1636 C 152.727 -4.21083 -4.15263 0
M  V30 1637 H 151.657 -0.414696 -0.629717 0
M  V30 1638 H 154.308 -1.50988 -1.04283 0
M  V30 1639 H 152.69 -1.48853 -3.66959 0
M  V30 1640 H 153.864 -3.99561 -2.29537 0
M  V30 1641 H 152.179 -3.52921 -2.20988 0
M  V30 1642 H 154.776 -2.42805 -4.76392 0
M  V30 1643 H 155.119 -0.86113 -4.07296 0
M  V30 1644 H 155.652 -2.33189 -3.22285 0
M  V30 1645 H 152.391 -5.24425 -3.93267 0
M  V30 1646 H 151.911 -3.71695 -4.70747 0
M  V30 1647 H 153.59 -4.29706 -4.83696 0
M  V30 1648 N 153.722 1.14298 -1.08507 0
M  V30 1649 C 154.947 1.8976 -0.837001 0
M  V30 1650 C 155.372 1.78097 0.605228 0
M  V30 1651 O 154.73 1.12188 1.4242 0
M  V30 1652 C 154.778 3.37685 -1.26495 0
M  V30 1653 O 153.882 4.10281 -0.417514 0
M  V30 1654 H 153.223 0.590365 -0.303917 0
M  V30 1655 H 155.753 1.44672 -1.44676 0
M  V30 1656 H 155.763 3.88501 -1.24625 0
M  V30 1657 H 154.438 3.45492 -2.31534 0
M  V30 1658 H 153.015 3.69536 -0.499722 0
M  V30 1659 N 155.201 0.870884 1.31352 0
M  V30 1660 C 156.149 0.316445 2.30437 0
M  V30 1661 C 157.143 -0.568965 1.59559 0
M  V30 1662 O 158.349 -0.454964 1.74155 0
M  V30 1663 H 154.724 0.0836521 0.747333 0
M  V30 1664 H 156.695 1.16606 2.74673 0
M  V30 1665 C 155.444 -0.46635 3.44558 0
M  V30 1666 H 154.767 0.205687 3.99271 0
M  V30 1667 H 156.207 -0.819614 4.16003 0
M  V30 1668 C 154.666 -1.65797 2.9328 0
M  V30 1669 O 155.196 -2.75728 2.92125 0
M  V30 1670 N 153.402 -1.49041 2.4947 0
M  V30 1671 H 152.949 -0.59612 2.50608 0
M  V30 1672 H 152.907 -2.28911 2.15516 0
M  V30 1673 N 156.679 -1.44442 0.630414 0
M  V30 1674 C 157.627 -2.32437 -0.0871428 0
M  V30 1675 C 158.621 -1.47304 -0.836525 0
M  V30 1676 O 159.827 -1.63653 -0.749506 0
M  V30 1677 H 156.202 -0.750533 -0.0469495 0
M  V30 1678 H 158.173 -2.90709 0.673096 0
M  V30 1679 C 156.922 -3.31288 -1.05563 0
M  V30 1680 H 156.245 -3.96805 -0.488426 0
M  V30 1681 H 157.685 -3.9554 -1.52721 0
M  V30 1682 C 156.144 -2.6016 -2.14052 0
M  V30 1683 O 156.674 -2.39997 -3.22124 0
M  V30 1684 N 154.88 -2.19911 -1.89967 0
M  V30 1685 H 154.427 -2.36509 -1.02085 0
M  V30 1686 H 154.385 -1.72646 -2.62756 0
M  V30 1687 N 158.157 -0.370918 -1.53173 0
M  V30 1688 C 159.403 0.217423 -2.01631 0
M  V30 1689 C 159.736 1.47983 -1.25756 0
M  V30 1690 O 159.011 1.91274 -0.352764 0
M  V30 1691 C 159.294 0.503982 -3.56556 0
M  V30 1692 C 159.147 -0.77243 -4.43118 0
M  V30 1693 C 160.466 1.30234 -4.20389 0
M  V30 1694 H 157.585 0.0775486 -0.732909 0
M  V30 1695 H 160.227 -0.496863 -1.83388 0
M  V30 1696 H 158.377 1.11248 -3.72231 0
M  V30 1697 H 160.049 -1.4098 -4.39229 0
M  V30 1698 H 158.292 -1.39167 -4.10871 0
M  V30 1699 H 158.963 -0.526815 -5.4948 0
M  V30 1700 H 161.439 0.787546 -4.08579 0
M  V30 1701 H 160.315 1.47158 -5.28806 0
M  V30 1702 H 160.576 2.31237 -3.76805 0
M  V30 1703 N 159.635 1.57281 -0.100228 0
M  V30 1704 C 160.567 2.11342 0.886972 0
M  V30 1705 C 161.58 1.05182 1.24261 0
M  V30 1706 O 162.769 1.32613 1.19483 0
M  V30 1707 C 159.869 2.5825 2.19454 0
M  V30 1708 C 159.042 3.88302 2.01346 0
M  V30 1709 C 158.101 4.21004 3.15661 0
M  V30 1710 O 157.127 4.9014 2.89398 0
M  V30 1711 N 158.329 3.76818 4.41575 0
M  V30 1712 H 161.094 2.96668 0.425216 0
M  V30 1713 H 158.655 1.61678 0.0847334 0
M  V30 1714 H 160.647 2.7717 2.94888 0
M  V30 1715 H 159.217 1.77907 2.57037 0
M  V30 1716 H 158.437 3.7848 1.10212 0
M  V30 1717 H 159.725 4.73375 1.8653 0
M  V30 1718 H 159.123 3.2102 4.65792 0
M  V30 1719 H 157.68 4.00882 5.13942 0
M  V30 1720 N 161.113 -0.173488 1.56642 0
M  V30 1721 C 162.524 -0.736155 1.71574 0
M  V30 1722 C 162.875 -1.82888 0.710389 0
M  V30 1723 O 162 -2.16017 -0.1287 0
M  V30 1724 C 162.595 -1.34211 3.11083 0
M  V30 1725 C 161.154 -1.85162 3.27707 0
M  V30 1726 C 160.301 -0.729765 2.67525 0
M  V30 1727 H 163.252 0.0518786 1.58615 0
M  V30 1728 H 163.273 -2.21178 3.09613 0
M  V30 1729 H 162.785 -0.546579 3.84232 0
M  V30 1730 H 160.886 -2.67366 2.59512 0
M  V30 1731 H 160.999 -1.99855 4.35425 0
M  V30 1732 H 159.363 -1.14965 2.27278 0
M  V30 1733 H 160.146 0.0538806 3.43258 0
M  V30 1734 N 162.591 -1.51276 -0.441967 0
M  V30 1735 C 163.837 -1.63958 -1.19355 0
M  V30 1736 C 164.17 -0.352543 -1.90973 0
M  V30 1737 O 163.445 0.647627 -1.83401 0
M  V30 1738 C 163.728 -2.83979 -2.21422 0
M  V30 1739 C 163.581 -4.22646 -1.53918 0
M  V30 1740 C 164.9 -2.99521 -3.22451 0
M  V30 1741 H 162.019 -0.596709 -0.432559 0
M  V30 1742 H 164.661 -1.83748 -0.483398 0
M  V30 1743 H 162.811 -2.67237 -2.81987 0
M  V30 1744 H 164.483 -4.51045 -0.967256 0
M  V30 1745 H 162.726 -4.25558 -0.841615 0
M  V30 1746 H 163.397 -5.02609 -2.28229 0
M  V30 1747 H 165.873 -3.14944 -2.71937 0
M  V30 1748 H 164.749 -3.85072 -3.91166 0
M  V30 1749 H 165.01 -2.11391 -3.88287 0
M  V30 1750 N 164.069 0.697108 -1.41344 0
M  V30 1751 C 164.999 1.82353 -1.45841 0
M  V30 1752 C 165.98 1.67115 -0.317247 0
M  V30 1753 O 167.165 1.86871 -0.528474 0
M  V30 1754 C 164.295 3.20476 -1.33838 0
M  V30 1755 C 163.249 3.50415 -2.4575 0
M  V30 1756 C 162.575 4.87878 -2.18813 0
M  V30 1757 C 163.875 3.49546 -3.88091 0
M  V30 1758 H 165.569 1.78846 -2.40113 0
M  V30 1759 H 163.115 0.859028 -1.15571 0
M  V30 1760 H 165.068 3.98988 -1.35596 0
M  V30 1761 H 163.792 3.24604 -0.360498 0
M  V30 1762 H 162.451 2.74253 -2.43271 0
M  V30 1763 H 162.099 4.8863 -1.19371 0
M  V30 1764 H 161.799 5.08875 -2.93803 0
M  V30 1765 H 163.323 5.68702 -2.22284 0
M  V30 1766 H 164.737 4.18066 -3.92293 0
M  V30 1767 H 163.134 3.82075 -4.62751 0
M  V30 1768 H 164.204 2.48552 -4.16353 0
M  V30 1769 N 165.547 1.27147 0.931209 0
M  V30 1770 C 166.777 1.15914 1.71019 0
M  V30 1771 C 167.185 -0.287112 1.87009 0
M  V30 1772 O 166.528 -1.20761 1.38429 0
M  V30 1773 C 166.59 1.76647 3.13107 0
M  V30 1774 C 166.254 3.25807 3.20467 0
M  V30 1775 C 167.251 4.22489 3.02983 0
M  V30 1776 C 164.936 3.66452 3.43538 0
M  V30 1777 C 166.93 5.57794 3.08454 0
M  V30 1778 C 164.617 5.01888 3.48643 0
M  V30 1779 C 165.615 5.97369 3.31119 0
M  V30 1780 O 165.303 7.30337 3.35952 0
M  V30 1781 H 165.035 0.404062 0.54195 0
M  V30 1782 H 167.589 1.68457 1.17521 0
M  V30 1783 H 165.819 1.18578 3.68071 0
M  V30 1784 H 167.508 1.60179 3.72958 0
M  V30 1785 H 168.274 3.92425 2.85004 0
M  V30 1786 H 164.153 2.92611 3.5623 0
M  V30 1787 H 167.697 6.32298 2.94694 0
M  V30 1788 H 163.594 5.31609 3.66145 0
M  V30 1789 H 164.362 7.38739 3.5243 0
M  V30 1790 N 167.025 -1.13721 1.09112 0
M  V30 1791 C 168.272 -1.84924 0.825192 0
M  V30 1792 C 168.6 -1.83347 -0.649151 0
M  V30 1793 O 167.855 -1.26449 -1.49362 0
M  V30 1794 C 168.154 -3.32861 1.30146 0
M  V30 1795 C 167.82 -3.54621 2.78486 0
M  V30 1796 C 166.482 -3.60268 3.18999 0
M  V30 1797 C 168.834 -3.62855 3.74146 0
M  V30 1798 C 166.162 -3.71679 4.53951 0
M  V30 1799 C 168.514 -3.75793 5.08883 0
M  V30 1800 C 167.178 -3.79692 5.4899 0
M  V30 1801 H 166.448 -0.676684 0.301959 0
M  V30 1802 H 169.095 -1.3428 1.36533 0
M  V30 1803 H 167.4 -3.85835 0.681064 0
M  V30 1804 H 169.097 -3.86395 1.07236 0
M  V30 1805 H 165.687 -3.50879 2.46134 0
M  V30 1806 H 169.871 -3.57775 3.43963 0
M  V30 1807 H 165.127 -3.72963 4.84467 0
M  V30 1808 H 169.301 -3.81107 5.82864 0
M  V30 1809 H 166.928 -3.88287 6.53558 0
M  V30 1810 N 168.503 -0.877838 -1.30888 0
M  V30 1811 C 169.433 -0.35534 -2.3078 0
M  V30 1812 C 170.414 0.557994 -1.60687 0
M  V30 1813 O 171.599 0.473355 -1.88343 0
M  V30 1814 C 168.729 0.437221 -3.44537 0
M  V30 1815 C 167.683 -0.383715 -4.26276 0
M  V30 1816 C 167.009 0.535014 -5.32017 0
M  V30 1817 C 168.309 -1.62201 -4.96476 0
M  V30 1818 H 170.003 -1.19007 -2.74732 0
M  V30 1819 H 167.549 -0.573698 -1.32078 0
M  V30 1820 H 169.502 0.813334 -4.13477 0
M  V30 1821 H 168.226 1.30553 -2.99372 0
M  V30 1822 H 166.885 -0.741874 -3.59015 0
M  V30 1823 H 166.533 1.40083 -4.831 0
M  V30 1824 H 166.233 -0.0104211 -5.87599 0
M  V30 1825 H 167.757 0.907799 -6.03814 0
M  V30 1826 H 169.171 -1.31689 -5.5797 0
M  V30 1827 H 167.568 -2.10711 -5.61891 0
M  V30 1828 H 168.638 -2.37044 -4.23011 0
M  V30 1829 N 169.982 1.44106 -0.638065 0
M  V30 1830 C 170.945 2.29138 0.0531013 0
M  V30 1831 C 171.945 1.41409 0.765506 0
M  V30 1832 O 173.135 1.63206 0.609046 0
M  V30 1833 C 170.267 3.23144 1.08584 0
M  V30 1834 H 171.46 2.91739 -0.694883 0
M  V30 1835 H 169.013 1.51134 -0.398538 0
M  V30 1836 H 169.748 2.65408 1.86357 0
M  V30 1837 H 169.533 3.87804 0.578852 0
M  V30 1838 H 171.023 3.87004 1.56899 0
M  V30 1839 N 171.46 0.379036 1.52974 0
M  V30 1840 C 172.41 -0.477772 2.22938 0
M  V30 1841 C 173.394 -1.03792 1.22948 0
M  V30 1842 O 174.586 -0.965725 1.48333 0
M  V30 1843 C 171.715 -1.60994 3.03209 0
M  V30 1844 C 170.801 -1.06203 4.10587 0
M  V30 1845 N 171.192 -0.238214 5.05239 0
M  V30 1846 C 169.49 -1.33554 4.25534 0
M  V30 1847 C 170.191 0.0633235 5.81666 0
M  V30 1848 N 169.167 -0.537901 5.40932 0
M  V30 1849 H 172.969 0.158295 2.93473 0
M  V30 1850 H 170.483 0.187778 1.61311 0
M  V30 1851 H 172.48 -2.23607 3.5186 0
M  V30 1852 H 171.14 -2.24893 2.34207 0
M  V30 1853 H 172.151 0.123695 5.17752 0
M  V30 1854 H 168.828 -1.97632 3.6776 0
M  V30 1855 H 170.218 0.730161 6.67921 0
M  V30 1856 N 172.938 -1.57226 0.108567 0
M  V30 1857 C 173.848 -2.18292 -0.859401 0
M  V30 1858 C 174.864 -1.15612 -1.30038 0
M  V30 1859 O 176.04 -1.48039 -1.36552 0
M  V30 1860 C 173.105 -2.762 -2.09558 0
M  V30 1861 C 172.166 -3.93881 -1.70752 0
M  V30 1862 C 171.399 -4.49018 -2.88477 0
M  V30 1863 O 171.622 -4.03068 -4.036 0
M  V30 1864 O 170.556 -5.39852 -2.66164 0
M  V30 1865 H 174.382 -3.01441 -0.369769 0
M  V30 1866 H 171.967 -1.48945 -0.1165 0
M  V30 1867 H 173.849 -3.13156 -2.81978 0
M  V30 1868 H 172.524 -1.96089 -2.57548 0
M  V30 1869 H 171.431 -3.61713 -0.954714 0
M  V30 1870 H 172.764 -4.75396 -1.27513 0
M  V30 1871 N 174.416 0.165178 -1.56732 0
M  V30 1872 C 175.693 0.908443 -1.73224 0
M  V30 1873 C 176.073 2.0013 -0.67165 0
M  V30 1874 O 175.421 2.26353 0.31253 0
M  V30 1875 C 175.631 1.46756 -3.16644 0
M  V30 1876 C 176.979 1.93809 -3.77787 0
M  V30 1877 O 178.003 1.56537 -3.1996 0
M  V30 1878 O 176.862 2.62486 -4.79336 0
M  V30 1879 H 173.956 0.428025 -0.707618 0
M  V30 1880 H 176.502 0.152526 -1.69013 0
M  V30 1881 H 175.274 0.68129 -3.85323 0
M  V30 1882 H 174.897 2.28749 -3.25207 0
M  V30 1883 N 175.894 1.51508 0.433938 0
M  V30 1884 C 176.842 1.73646 1.54757 0
M  V30 1885 C 177.836 0.602854 1.5831 0
M  V30 1886 O 179.042 0.784318 1.62014 0
M  V30 1887 H 175.417 0.548718 0.51421 0
M  V30 1888 H 177.388 2.66991 1.33261 0
M  V30 1889 C 176.137 1.88172 2.92381 0
M  V30 1890 H 175.46 2.74808 2.90381 0
M  V30 1891 H 176.9 2.07672 3.6966 0
M  V30 1892 C 175.359 0.64239 3.30719 0
M  V30 1893 O 175.889 -0.201362 4.01195 0
M  V30 1894 N 174.095 0.485489 2.86516 0
M  V30 1895 H 173.642 1.17318 2.29334 0
M  V30 1896 H 173.6 -0.342482 3.12529 0
M  V30 1897 N 177.372 -0.689602 1.41712 0
M  V30 1898 C 178.302 -1.81577 1.46806 0
M  V30 1899 C 179.283 -1.66945 0.326105 0
M  V30 1900 O 180.468 -1.86588 0.538377 0
M  V30 1901 C 177.598 -3.19762 1.35535 0
M  V30 1902 C 176.552 -3.49107 2.47605 0
M  V30 1903 C 175.878 -4.86711 2.21397 0
M  V30 1904 C 177.178 -3.47483 3.89939 0
M  V30 1905 H 178.872 -1.7757 2.41058 0
M  V30 1906 H 176.418 -0.852887 1.16025 0
M  V30 1907 H 178.371 -3.98263 1.3771 0
M  V30 1908 H 177.095 -3.24409 0.377708 0
M  V30 1909 H 175.754 -2.72959 2.44722 0
M  V30 1910 H 175.402 -4.8799 1.21961 0
M  V30 1911 H 175.102 -5.0731 2.96497 0
M  V30 1912 H 176.626 -5.67515 2.25297 0
M  V30 1913 H 178.04 -4.1598 3.94505 0
M  V30 1914 H 176.437 -3.79615 4.64771 0
M  V30 1915 H 177.507 -2.46341 4.17665 0
M  V30 1916 N 178.85 -1.27639 -0.924453 0
M  V30 1917 C 179.78 -1.13166 -2.04244 0
M  V30 1918 C 180.761 -0.032256 -1.70069 0
M  V30 1919 O 181.946 -0.207328 -1.9309 0
M  V30 1920 C 179.076 -0.781496 -3.38393 0
M  V30 1921 C 178.03 -1.83449 -3.86692 0
M  V30 1922 C 177.356 -1.33822 -5.17683 0
M  V30 1923 C 178.656 -3.23917 -4.09726 0
M  V30 1924 H 180.35 -2.06689 -2.1661 0
M  V30 1925 H 177.896 -0.995136 -1.04082 0
M  V30 1926 H 179.849 -0.667057 -4.16087 0
M  V30 1927 H 178.573 0.189439 -3.2605 0
M  V30 1928 H 177.232 -1.93789 -3.11193 0
M  V30 1929 H 176.88 -0.35665 -5.01734 0
M  V30 1930 H 176.58 -2.04224 -5.50968 0
M  V30 1931 H 178.104 -1.23679 -5.97943 0
M  V30 1932 H 179.518 -3.16559 -4.77978 0
M  V30 1933 H 177.915 -3.92059 -4.54324 0
M  V30 1934 H 178.985 -3.68729 -3.14908 0
M  V30 1935 N 180.328 1.1314 -1.09713 0
M  V30 1936 C 181.739 1.66029 -0.853885 0
M  V30 1937 C 182.09 1.86241 0.617142 0
M  V30 1938 O 181.215 1.5834 1.47503 0
M  V30 1939 C 181.81 3.01599 -1.5435 0
M  V30 1940 C 180.369 3.51467 -1.34714 0
M  V30 1941 C 179.516 2.26648 -1.59769 0
M  V30 1942 H 182.467 0.970226 -1.25588 0
M  V30 1943 H 182.488 3.67709 -0.978267 0
M  V30 1944 H 182 2.86856 -2.6141 0
M  V30 1945 H 180.101 3.71408 -0.297838 0
M  V30 1946 H 180.214 4.314 -2.08401 0
M  V30 1947 H 178.578 2.33385 -1.01998 0
M  V30 1948 H 179.361 2.14467 -2.68065 0
M  V30 1949 N 181.806 0.884767 1.30421 0
M  V30 1950 C 183.055 0.499164 1.95426 0
M  V30 1951 C 183.368 -0.95645 1.70621 0
M  V30 1952 O 184.574 -1.44889 2.29607 0
M  V30 1953 C 183.03 0.84177 3.49917 0
M  V30 1954 C 182.638 2.31514 3.83543 0
M  V30 1955 C 184.382 0.525355 4.21237 0
M  V30 1956 C 182.289 2.59939 5.31212 0
M  V30 1957 H 181.219 0.182944 0.73147 0
M  V30 1958 H 183.87 1.07971 1.48373 0
M  V30 1959 H 182.252 0.190311 3.95542 0
M  V30 1960 H 183.426 3.0109 3.48829 0
M  V30 1961 H 181.741 2.59907 3.25326 0
M  V30 1962 H 184.338 0.714762 5.29901 0
M  V30 1963 H 184.681 -0.535222 4.12845 0
M  V30 1964 H 185.214 1.134 3.81294 0
M  V30 1965 H 181.953 3.64736 5.44654 0
M  V30 1966 H 181.473 1.94972 5.67227 0
M  V30 1967 H 183.152 2.45429 5.98643 0
M  V30 1968 N 183.284 -1.43765 0.645699 0
M  V30 1969 C 184.216 -2.29027 -0.0890605 0
M  V30 1970 C 185.229 -1.42093 -0.794563 0
M  V30 1971 O 186.418 -1.66104 -0.653575 0
M  V30 1972 C 183.518 -3.18831 -1.14891 0
M  V30 1973 C 182.691 -4.34261 -0.523043 0
M  V30 1974 C 181.75 -5.04994 -1.47878 0
M  V30 1975 O 180.776 -5.6052 -0.990277 0
M  V30 1976 N 181.978 -5.07795 -2.81291 0
M  V30 1977 H 184.743 -2.92727 0.64272 0
M  V30 1978 H 182.304 -1.54373 0.487924 0
M  V30 1979 H 184.296 -3.63015 -1.78892 0
M  V30 1980 H 182.866 -2.56782 -1.78275 0
M  V30 1981 H 182.086 -3.93088 0.295896 0
M  V30 1982 H 183.374 -5.08728 -0.0858147 0
M  V30 1983 H 182.772 -4.64042 -3.23546 0
M  V30 1984 H 181.329 -5.55721 -3.40614 0
M  V30 1985 N 184.763 -0.387143 -1.52771 0
M  V30 1986 C 185.673 0.456442 -2.30117 0
M  V30 1987 C 186.689 1.07342 -1.36944 0
M  V30 1988 O 187.865 1.07971 -1.70013 0
M  V30 1989 C 184.93 1.56957 -3.09136 0
M  V30 1990 C 183.991 0.977916 -4.18014 0
M  V30 1991 C 183.224 2.038 -4.93256 0
M  V30 1992 O 183.447 3.25271 -4.68567 0
M  V30 1993 O 182.381 1.6565 -5.78657 0
M  V30 1994 H 186.207 -0.17359 -3.03203 0
M  V30 1995 H 183.792 -0.150919 -1.48636 0
M  V30 1996 H 185.674 2.21628 -3.58412 0
M  V30 1997 H 184.349 2.18461 -2.38865 0
M  V30 1998 H 183.256 0.294525 -3.72939 0
M  V30 1999 H 184.589 0.407128 -4.90513 0
M  V30 2000 N 186.241 1.57166 -0.116904 0
M  V30 2001 C 187.518 1.86645 0.585049 0
M  V30 2002 C 187.898 1.0177 1.84949 0
M  V30 2003 O 187.246 0.0960379 2.28298 0
M  V30 2004 C 187.456 3.37736 0.879507 0
M  V30 2005 C 188.804 4.06289 1.23348 0
M  V30 2006 O 189.828 3.42743 0.969836 0
M  V30 2007 O 188.687 5.18455 1.7282 0
M  V30 2008 H 185.781 0.772593 0.295007 0
M  V30 2009 H 188.327 1.69025 -0.151249 0
M  V30 2010 H 187.099 3.91296 -0.0166136 0
M  V30 2011 H 186.722 3.6078 1.67103 0
M  V30 2012 N 187.719 -0.156864 1.56817 0
M  V30 2013 C 188.949 -0.885031 1.86684 0
M  V30 2014 C 189.357 -1.75696 0.701954 0
M  V30 2015 O 188.7 -1.80569 -0.337732 0
M  V30 2016 C 188.762 -1.80092 3.11138 0
M  V30 2017 C 188.426 -1.10714 4.43386 0
M  V30 2018 C 189.423 -0.465714 5.1781 0
M  V30 2019 C 187.108 -1.09959 4.90117 0
M  V30 2020 C 189.102 0.174002 6.37162 0
M  V30 2021 C 186.789 -0.456055 6.09396 0
M  V30 2022 C 187.787 0.179622 6.82764 0
M  V30 2023 O 187.475 0.812975 7.99779 0
M  V30 2024 H 187.207 -0.261813 0.623242 0
M  V30 2025 H 189.761 -0.157383 2.04796 0
M  V30 2026 H 187.991 -2.56926 2.89009 0
M  V30 2027 H 189.68 -2.40018 3.27332 0
M  V30 2028 H 190.446 -0.463427 4.82781 0
M  V30 2029 H 186.325 -1.58378 4.3294 0
M  V30 2030 H 189.869 0.670765 6.94368 0
M  V30 2031 H 185.766 -0.455975 6.43888 0
M  V30 2032 H 186.534 0.71366 8.15383 0
M  V30 2033 N 189.197 -1.51736 -0.425897 0
M  V30 2034 C 190.422 -1.69082 -1.20108 0
M  V30 2035 C 190.847 -0.392398 -1.83962 0
M  V30 2036 O 190.205 0.64858 -1.69302 0
M  V30 2037 C 190.253 -2.81604 -2.25237 0
M  V30 2038 O 189.357 -2.46004 -3.30992 0
M  V30 2039 H 188.698 -0.563408 -0.35138 0
M  V30 2040 H 191.228 -1.98358 -0.501512 0
M  V30 2041 H 191.238 -3.06025 -2.69838 0
M  V30 2042 H 189.913 -3.75817 -1.78142 0
M  V30 2043 H 188.49 -2.32195 -2.91787 0
M  V30 2044 N 190.675 0.682077 -1.42076 0
M  V30 2045 C 191.623 1.81707 -1.45208 0
M  V30 2046 C 192.617 1.66183 -0.328591 0
M  V30 2047 O 193.823 1.7288 -0.501264 0
M  V30 2048 H 190.198 0.599014 -0.454628 0
M  V30 2049 H 192.169 1.76183 -2.40836 0
M  V30 2050 C 190.918 3.19816 -1.36428 0
M  V30 2051 H 190.241 3.32385 -2.22171 0
M  V30 2052 H 191.681 3.99272 -1.42681 0
M  V30 2053 C 190.14 3.36809 -0.078191 0
M  V30 2054 O 190.67 3.92124 0.87188 0
M  V30 2055 N 188.876 2.906 0.00229266 0
M  V30 2056 H 188.423 2.45772 -0.771616 0
M  V30 2057 H 188.381 3.02347 0.862179 0
M  V30 2058 N 192.153 1.28127 0.917671 0
M  V30 2059 C 193.383 1.17722 1.6978 0
M  V30 2060 C 193.791 -0.267261 1.87303 0
M  V30 2061 O 193.134 -1.19286 1.39702 0
M  V30 2062 C 193.196 1.79958 3.11216 0
M  V30 2063 C 192.86 3.29187 3.16993 0
M  V30 2064 C 193.857 4.25679 2.98485 0
M  V30 2065 C 191.542 3.70075 3.39632 0
M  V30 2066 C 193.536 5.61035 3.02521 0
M  V30 2067 C 191.223 5.05557 3.433 0
M  V30 2068 C 192.221 6.00847 3.24764 0
M  V30 2069 O 191.909 7.33859 3.28187 0
M  V30 2070 H 191.641 0.409788 0.537634 0
M  V30 2071 H 194.195 1.69694 1.15728 0
M  V30 2072 H 192.425 1.22475 3.66793 0
M  V30 2073 H 194.114 1.64125 3.71238 0
M  V30 2074 H 194.88 3.95426 2.80826 0
M  V30 2075 H 190.759 2.96373 3.53106 0
M  V30 2076 H 194.303 6.35388 2.87971 0
M  V30 2077 H 190.2 5.35462 3.60486 0
M  V30 2078 H 190.968 7.42436 3.44575 0
M  V30 2079 N 193.631 -1.12557 1.10312 0
M  V30 2080 C 194.88 -1.83395 0.839588 0
M  V30 2081 C 195.193 -1.84939 -0.636929 0
M  V30 2082 O 196.399 -2.51761 -1.01631 0
M  V30 2083 C 194.855 -3.29303 1.45215 0
M  V30 2084 C 194.463 -3.36122 2.96186 0
M  V30 2085 C 196.207 -4.05121 1.26796 0
M  V30 2086 C 194.114 -4.76357 3.50483 0
M  V30 2087 H 193.044 -0.687133 0.310425 0
M  V30 2088 H 195.695 -1.26746 1.32694 0
M  V30 2089 H 194.077 -3.85812 0.892469 0
M  V30 2090 H 195.251 -2.89559 3.58458 0
M  V30 2091 H 193.566 -2.73776 3.13745 0
M  V30 2092 H 196.163 -5.08668 1.64806 0
M  V30 2093 H 196.506 -4.15773 0.209409 0
M  V30 2094 H 197.039 -3.54967 1.79563 0
M  V30 2095 H 193.778 -4.70899 4.55998 0
M  V30 2096 H 193.298 -5.23377 2.92978 0
M  V30 2097 H 194.977 -5.45294 3.48228 0
M  V30 2098 N 195.109 -0.891671 -1.2995 0
M  V30 2099 C 196.334 -0.527932 -2.00568 0
M  V30 2100 C 196.759 0.877969 -1.66353 0
M  V30 2101 O 196.117 1.58301 -0.883762 0
M  V30 2102 C 196.165 -0.717745 -3.53385 0
M  V30 2103 O 195.269 0.233376 -4.11739 0
M  V30 2104 H 194.61 -0.20722 -0.630837 0
M  V30 2105 H 197.14 -1.20105 -1.65638 0
M  V30 2106 H 197.15 -0.619307 -4.03272 0
M  V30 2107 H 195.825 -1.74276 -3.77625 0
M  V30 2108 H 194.402 0.0880706 -3.72796 0
M  V30 2109 N 196.587 1.43421 -0.653314 0
M  V30 2110 C 198.003 1.56341 -0.320886 0
M  V30 2111 C 198.203 1.63696 1.17499 0
M  V30 2112 O 197.259 1.59208 1.95982 0
M  V30 2113 C 198.572 2.82424 -1.03233 0
M  V30 2114 C 200.12 2.96168 -1.01259 0
M  V30 2115 C 200.595 4.25084 -1.70492 0
M  V30 2116 N 202.086 4.31948 -1.67257 0
M  V30 2117 C 202.821 5.30466 -2.17701 0
M  V30 2118 N 202.317 6.35261 -2.76434 0
M  V30 2119 N 204.11 5.2212 -2.082 0
M  V30 2120 H 196.261 1.3689 -1.62403 0
M  V30 2121 H 198.524 0.657455 -0.682977 0
M  V30 2122 H 198.23 2.83053 -2.08744 0
M  V30 2123 H 198.104 3.72653 -0.583948 0
M  V30 2124 H 200.491 2.9508 0.0341235 0
M  V30 2125 H 200.572 2.07229 -1.49966 0
M  V30 2126 H 200.216 4.26932 -2.7512 0
M  V30 2127 H 200.146 5.1292 -1.19251 0
M  V30 2128 H 202.637 3.56838 -1.24398 0
M  V30 2129 H 202.95 7.06754 -3.12601 0
M  V30 2130 H 201.295 6.35884 -2.80495 0
M  V30 2131 H 204.486 4.39166 -1.62021 0
M  V30 2132 H 204.659 5.98739 -2.47822 0
M  V30 2133 N 198.065 0.39524 1.52563 0
M  V30 2134 C 199.311 -0.185318 2.01952 0
M  V30 2135 C 199.644 -1.45964 1.28095 0
M  V30 2136 O 198.919 -1.90689 0.38315 0
M  V30 2137 C 199.202 -0.447193 3.57312 0
M  V30 2138 C 199.055 0.842828 4.41833 0
M  V30 2139 C 200.374 -1.23529 4.22408 0
M  V30 2140 H 197.493 -0.0658788 0.73405 0
M  V30 2141 H 200.135 0.525975 1.82575 0
M  V30 2142 H 198.285 -1.05312 3.73954 0
M  V30 2143 H 199.957 1.4795 4.36931 0
M  V30 2144 H 198.2 1.45686 4.08605 0
M  V30 2145 H 198.871 0.614165 5.48573 0
M  V30 2146 H 201.347 -0.722445 4.0978 0
M  V30 2147 H 200.223 -1.38727 5.3108 0
M  V30 2148 H 200.484 -2.25213 3.80436 0
M  V30 2149 N 199.544 -1.57102 0.125237 0
M  V30 2150 C 200.79 -1.95697 -0.532035 0
M  V30 2151 C 201.123 -1.009 -1.6593 0
M  V30 2152 O 200.398 -0.047347 -1.94442 0
M  V30 2153 C 200.681 -3.44181 -1.05884 0
M  V30 2154 C 200.534 -4.49752 0.0654392 0
M  V30 2155 C 201.853 -3.94655 -1.9477 0
M  V30 2156 H 198.972 -0.711571 -0.191925 0
M  V30 2157 H 201.614 -1.88923 0.20206 0
M  V30 2158 H 199.764 -3.50085 -1.68442 0
M  V30 2159 H 201.436 -4.55943 0.700982 0
M  V30 2160 H 199.679 -4.27653 0.727709 0
M  V30 2161 H 200.35 -5.50924 -0.344505 0
M  V30 2162 H 202.826 -3.91094 -1.42074 0
M  V30 2163 H 201.702 -4.99057 -2.28546 0
M  V30 2164 H 201.963 -3.35718 -2.87656 0
M  V30 2165 N 201.022 0.148545 -1.56898 0
M  V30 2166 C 201.985 1.16736 -1.97244 0
M  V30 2167 C 202.985 1.35947 -0.858777 0
M  V30 2168 O 204.175 1.32966 -1.12542 0
M  V30 2169 C 201.307 2.52798 -2.28705 0
M  V30 2170 H 202.5 0.821279 -2.88435 0
M  V30 2171 H 200.053 0.391831 -1.51309 0
M  V30 2172 H 200.788 2.92381 -1.403 0
M  V30 2173 H 200.573 2.40216 -3.09901 0
M  V30 2174 H 202.063 3.26179 -2.60762 0
M  V30 2175 N 202.5 1.5196 0.417844 0
M  V30 2176 C 203.746 1.65836 1.16732 0
M  V30 2177 C 204.079 0.382881 1.90388 0
M  V30 2178 O 203.354 -0.618368 1.84408 0
M  V30 2179 C 203.637 2.87466 2.16876 0
M  V30 2180 C 203.49 4.25041 1.47174 0
M  V30 2181 C 204.809 3.04613 3.17646 0
M  V30 2182 H 201.928 0.603515 0.423011 0
M  V30 2183 H 204.57 1.84494 0.454105 0
M  V30 2184 H 202.72 2.71689 2.777 0
M  V30 2185 H 204.392 4.52527 0.895376 0
M  V30 2186 H 202.635 4.26843 0.773806 0
M  V30 2187 H 203.306 5.06176 2.20204 0
M  V30 2188 H 205.782 3.1923 2.66892 0
M  V30 2189 H 204.658 3.91247 3.8499 0
M  V30 2190 H 204.919 2.17541 3.84874 0
M  V30 2191 N 203.978 -0.674533 1.42435 0
M  V30 2192 C 205.227 -1.43034 1.42212 0
M  V30 2193 C 205.54 -1.95555 0.0420788 0
M  V30 2194 O 206.746 -2.71374 -0.0827558 0
M  V30 2195 C 205.202 -2.58748 2.50155 0
M  V30 2196 C 204.81 -2.12925 3.94166 0
M  V30 2197 C 206.554 -3.36257 2.59098 0
M  V30 2198 C 204.461 -3.25723 4.93618 0
M  V30 2199 H 203.391 -0.537345 0.528939 0
M  V30 2200 H 206.042 -0.73024 1.68344 0
M  V30 2201 H 204.424 -3.31128 2.17188 0
M  V30 2202 H 205.598 -1.47697 4.36488 0
M  V30 2203 H 203.913 -1.48354 3.89076 0
M  V30 2204 H 206.51 -4.20264 3.30578 0
M  V30 2205 H 206.853 -3.82866 1.63461 0
M  V30 2206 H 207.386 -2.70947 2.9126 0
M  V30 2207 H 204.125 -2.84105 5.90732 0
M  V30 2208 H 203.645 -3.89732 4.55926 0
M  V30 2209 H 205.324 -3.91186 5.15347 0
M  V30 2210 N 205.456 -1.28612 -0.910864 0
M  V30 2211 C 206.704 -1.15705 -1.65701 0
M  V30 2212 C 207.025 0.29416 -1.92769 0
M  V30 2213 O 206.295 1.20331 -1.54588 0
M  V30 2214 H 204.875 -0.425216 -0.614167 0
M  V30 2215 H 207.537 -1.61381 -1.0928 0
M  V30 2216 H 206.633 -1.6988 -2.61815 0
M  V30 2217 N 206.934 1.1197 -1.10907 0
M  V30 2218 C 208.345 1.65114 -0.871446 0
M  V30 2219 C 208.696 1.86885 0.597353 0
M  V30 2220 O 207.821 1.59896 1.45816 0
M  V30 2221 C 208.416 2.99944 -1.5754 0
M  V30 2222 C 206.975 3.50018 -1.38435 0
M  V30 2223 C 206.122 2.24941 -1.62164 0
M  V30 2224 H 209.073 0.956851 -1.2661 0
M  V30 2225 H 209.094 3.66651 -1.01721 0
M  V30 2226 H 208.606 2.84067 -2.64438 0
M  V30 2227 H 206.707 3.71071 -0.337214 0
M  V30 2228 H 206.82 4.29165 -2.12965 0
M  V30 2229 H 205.184 2.3229 -1.04467 0
M  V30 2230 H 205.967 2.11612 -2.70324 0
M  V30 2231 N 208.412 0.89855 1.29475 0
M  V30 2232 C 209.689 0.443416 1.90508 0
M  V30 2233 C 210.069 -1.07685 1.81569 0
M  V30 2234 O 209.417 -1.9182 1.24166 0
M  V30 2235 C 209.627 0.956708 3.35631 0
M  V30 2236 C 210.975 0.999728 4.12663 0
M  V30 2237 O 211.999 0.904299 3.4453 0
M  V30 2238 O 210.858 1.14289 5.34416 0
M  V30 2239 H 207.952 0.138025 0.815401 0
M  V30 2240 H 210.498 0.98834 1.37949 0
M  V30 2241 H 209.27 2.00067 3.36287 0
M  V30 2242 H 208.893 0.391728 3.95666 0
M  V30 2243 N 209.89 -1.43072 0.660911 0
M  V30 2244 C 210.838 -2.32569 -0.0378199 0
M  V30 2245 C 211.832 -1.49046 -0.805092 0
M  V30 2246 O 213.038 -1.65206 -0.714624 0
M  V30 2247 H 209.413 -0.75136 -0.031019 0
M  V30 2248 H 211.384 -2.89216 0.734609 0
M  V30 2249 C 210.133 -3.33453 -0.985124 0
M  V30 2250 H 209.456 -3.97752 -0.404147 0
M  V30 2251 H 210.896 -3.98691 -1.44297 0
M  V30 2252 C 209.355 -2.64642 -2.08486 0
M  V30 2253 O 209.885 -2.46776 -3.16961 0
M  V30 2254 N 208.091 -2.23891 -1.8526 0
M  V30 2255 H 207.638 -2.38621 -0.970449 0
M  V30 2256 H 207.596 -1.78181 -2.59034 0
M  V30 2257 N 211.368 -0.403325 -1.52352 0
M  V30 2258 C 212.593 0.176499 -2.06648 0
M  V30 2259 C 213.018 1.38577 -1.27193 0
M  V30 2260 O 212.376 1.7879 -0.300637 0
M  V30 2261 C 212.424 0.511061 -3.5696 0
M  V30 2262 O 211.528 1.60294 -3.79973 0
M  V30 2263 H 210.869 0.0167337 -0.663789 0
M  V30 2264 H 213.399 -0.574848 -1.96359 0
M  V30 2265 H 213.409 0.771362 -4.00642 0
M  V30 2266 H 212.084 -0.37296 -4.14224 0
M  V30 2267 H 210.661 1.33526 -3.48174 0
M  V30 2268 N 212.846 1.57033 -0.133567 0
M  V30 2269 C 213.756 2.19632 0.824564 0
M  V30 2270 C 214.772 1.17666 1.28182 0
M  V30 2271 O 215.948 1.50193 1.3418 0
M  V30 2272 C 213.013 2.79499 2.05137 0
M  V30 2273 C 212.074 3.96548 1.64464 0
M  V30 2274 C 211.307 4.5355 2.81297 0
M  V30 2275 O 211.53 4.09438 3.97136 0
M  V30 2276 O 210.464 5.44018 2.57542 0
M  V30 2277 H 214.29 3.01991 0.321766 0
M  V30 2278 H 211.875 1.49112 0.0927889 0
M  V30 2279 H 213.757 3.17602 2.7696 0
M  V30 2280 H 212.432 2.00162 2.54395 0
M  V30 2281 H 211.339 3.63186 0.897048 0
M  V30 2282 H 212.672 4.77364 1.19934 0
M  V30 2283 N 214.325 -0.140222 1.56975 0
M  V30 2284 C 215.55 -0.870414 1.88251 0
M  V30 2285 C 215.975 -1.73637 0.723312 0
M  V30 2286 O 215.333 -1.78329 -0.32689 0
M  V30 2287 C 215.381 -1.69737 3.18154 0
M  V30 2288 O 214.485 -2.80229 3.02565 0
M  V30 2289 H 213.826 -0.242025 0.61832 0
M  V30 2290 H 216.356 -0.128999 2.04193 0
M  V30 2291 H 216.366 -2.09099 3.50345 0
M  V30 2292 H 215.041 -1.06152 4.02125 0
M  V30 2293 H 213.618 -2.44224 2.81796 0
M  V30 2294 N 215.803 -1.52179 -0.40978 0
M  V30 2295 C 217.049 -1.66453 -1.15851 0
M  V30 2296 C 217.382 -0.392972 -1.90182 0
M  V30 2297 O 216.657 0.608579 -1.84734 0
M  V30 2298 C 216.94 -2.88612 -2.15349 0
M  V30 2299 C 216.793 -4.25815 -1.44918 0
M  V30 2300 C 218.112 -3.06294 -3.16026 0
M  V30 2301 H 215.231 -0.60575 -0.419805 0
M  V30 2302 H 217.873 -1.84732 -0.444314 0
M  V30 2303 H 216.023 -2.73158 -2.76255 0
M  V30 2304 H 217.695 -4.52995 -0.871365 0
M  V30 2305 H 215.938 -4.27247 -0.751159 0
M  V30 2306 H 216.609 -5.07337 -2.17516 0
M  V30 2307 H 219.085 -3.20641 -2.65195 0
M  V30 2308 H 217.961 -3.93283 -3.8291 0
M  V30 2309 H 218.222 -2.19579 -3.83715 0
M  V30 2310 N 217.281 0.66697 -1.42791 0
M  V30 2311 C 218.214 1.79177 -1.41318 0
M  V30 2312 C 219.192 1.60234 -0.276401 0
M  V30 2313 O 220.376 1.82602 -0.46785 0
M  V30 2314 C 217.503 3.16289 -1.21157 0
M  V30 2315 C 216.549 3.53964 -2.37932 0
M  V30 2316 S 217.382 3.55501 -4.00474 0
M  V30 2317 C 218.538 4.95292 -3.8267 0
M  V30 2318 H 218.771 1.80153 -2.365 0
M  V30 2319 H 216.304 0.838357 -1.29657 0
M  V30 2320 H 218.262 3.95428 -1.10212 0
M  V30 2321 H 216.923 3.1289 -0.275481 0
M  V30 2322 H 216.116 4.53646 -2.19594 0
M  V30 2323 H 215.718 2.82204 -2.45432 0
M  V30 2324 H 218.01 5.83584 -3.44145 0
M  V30 2325 H 218.953 5.18679 -4.82055 0
M  V30 2326 H 219.361 4.68179 -3.15386 0
M  V30 2327 N 218.759 1.29093 0.90403 0
M  V30 2328 C 219.987 1.19689 1.68766 0
M  V30 2329 C 220.402 -0.243113 1.87228 0
M  V30 2330 O 219.759 -1.16326 1.40621 0
M  V30 2331 C 219.81 1.90144 3.07453 0
M  V30 2332 O 219.531 3.2852 2.89838 0
M  V30 2333 C 221.032 1.87162 4.01852 0
M  V30 2334 H 218.252 0.415035 0.527244 0
M  V30 2335 H 220.796 1.7039 1.13082 0
M  V30 2336 H 218.951 1.43289 3.59926 0
M  V30 2337 H 219.365 3.63944 3.77684 0
M  V30 2338 H 220.839 2.41032 4.96596 0
M  V30 2339 H 221.316 0.84617 4.30972 0
M  V30 2340 H 221.922 2.33741 3.5531 0
M  V30 2341 N 220.237 -1.11381 1.11499 0
M  V30 2342 C 221.483 -1.83403 0.865512 0
M  V30 2343 C 221.816 -1.84459 -0.607329 0
M  V30 2344 O 221.091 -1.29811 -1.44842 0
M  V30 2345 C 221.374 -3.30552 1.42855 0
M  V30 2346 C 221.227 -3.37886 2.96906 0
M  V30 2347 C 222.546 -4.26643 1.08 0
M  V30 2348 H 219.665 -0.665879 0.31587 0
M  V30 2349 H 222.307 -1.30601 1.37998 0
M  V30 2350 H 220.457 -3.75648 0.990985 0
M  V30 2351 H 222.129 -3.01343 3.49271 0
M  V30 2352 H 220.372 -2.78088 3.32941 0
M  V30 2353 H 221.043 -4.41458 3.31389 0
M  V30 2354 H 223.519 -3.89729 1.45775 0
M  V30 2355 H 222.395 -5.27986 1.50072 0
M  V30 2356 H 222.656 -4.42099 -0.00915037 0
M  V30 2357 N 221.715 -0.905404 -1.28997 0
M  V30 2358 C 222.678 -0.392253 -2.25819 0
M  V30 2359 C 223.678 0.476753 -1.5357 0
M  V30 2360 O 224.868 0.280994 -1.71919 0
M  V30 2361 C 222 0.438588 -3.38067 0
M  V30 2362 H 223.193 -1.24743 -2.72725 0
M  V30 2363 H 220.746 -0.684051 -1.40536 0
M  V30 2364 H 221.481 1.31352 -2.96508 0
M  V30 2365 H 221.266 -0.184167 -3.91667 0
M  V30 2366 H 222.756 0.78873 -4.10084 0
M  V30 2367 N 223.193 1.4272 -0.668489 0
M  V30 2368 C 224.141 2.32586 0.0254857 0
M  V30 2369 C 225.135 1.49471 0.797176 0
M  V30 2370 O 226.341 1.65583 0.705853 0
M  V30 2371 H 222.716 0.751514 0.0270339 0
M  V30 2372 H 224.687 2.88823 -0.749936 0
M  V30 2373 C 223.436 3.3397 0.967427 0
M  V30 2374 H 222.759 3.97961 0.383048 0
M  V30 2375 H 224.199 3.9945 1.42181 0
M  V30 2376 C 222.658 2.65744 2.0708 0
M  V30 2377 O 223.188 2.48454 3.15648 0
M  V30 2378 N 221.394 2.2487 1.8407 0
M  V30 2379 H 220.941 2.39132 0.95778 0
M  V30 2380 H 220.899 1.79552 2.58086 0
M  V30 2381 N 224.671 0.411399 1.52136 0
M  V30 2382 C 225.918 -0.163645 2.01838 0
M  V30 2383 C 226.246 -1.4495 1.29691 0
M  V30 2384 O 225.501 -1.91725 0.392431 0
M  V30 2385 C 225.8 -0.455872 3.54481 0
M  V30 2386 C 225.466 0.741055 4.44769 0
M  V30 2387 C 224.128 1.06936 4.69167 0
M  V30 2388 C 226.48 1.54075 4.97906 0
M  V30 2389 C 223.808 2.19851 5.43951 0
M  V30 2390 C 226.16 2.66067 5.73926 0
M  V30 2391 C 224.824 2.99381 5.96596 0
M  V30 2392 H 224.094 -0.0598821 0.738576 0
M  V30 2393 H 226.741 0.553283 1.83333 0
M  V30 2394 H 225.046 -1.2544 3.71177 0
M  V30 2395 H 226.743 -0.913802 3.90449 0
M  V30 2396 H 223.333 0.475192 4.25958 0
M  V30 2397 H 227.517 1.30033 4.78963 0
M  V30 2398 H 222.773 2.46006 5.59724 0
M  V30 2399 H 226.947 3.28419 6.14096 0
M  V30 2400 H 224.574 3.86992 6.54325 0
M  V30 2401 N 226.149 -1.5696 0.141893 0
M  V30 2402 C 227.079 -2.19516 -0.795936 0
M  V30 2403 C 228.06 -1.14187 -1.26077 0
M  V30 2404 O 229.245 -1.42511 -1.31925 0
M  V30 2405 C 226.375 -2.81272 -2.03723 0
M  V30 2406 C 225.329 -3.92384 -1.70936 0
M  V30 2407 C 224.655 -4.41052 -3.02287 0
M  V30 2408 C 225.955 -5.13403 -0.959954 0
M  V30 2409 H 227.649 -2.98138 -0.274596 0
M  V30 2410 H 225.195 -1.43406 -0.130636 0
M  V30 2411 H 227.148 -3.237 -2.69808 0
M  V30 2412 H 225.872 -1.99973 -2.58221 0
M  V30 2413 H 224.531 -3.50566 -1.07232 0
M  V30 2414 H 224.179 -3.56582 -3.54765 0
M  V30 2415 H 223.879 -5.15993 -2.81114 0
M  V30 2416 H 225.403 -4.86146 -3.69451 0
M  V30 2417 H 226.817 -5.52706 -1.52279 0
M  V30 2418 H 225.214 -5.94073 -0.848357 0
M  V30 2419 H 226.284 -4.84875 0.0492434 0
M  V30 2420 N 227.627 0.131896 -1.57047 0
M  V30 2421 C 228.852 0.860418 -1.8871 0
M  V30 2422 C 229.277 1.73251 -0.73251 0
M  V30 2423 O 228.635 1.785 0.317429 0
M  V30 2424 C 228.683 1.68047 -3.19049 0
M  V30 2425 O 227.787 2.7862 -3.04047 0
M  V30 2426 H 227.128 0.238743 -0.619595 0
M  V30 2427 H 229.658 0.118169 -2.04258 0
M  V30 2428 H 229.668 2.07238 -3.51449 0
M  V30 2429 H 228.343 1.04018 -4.02682 0
M  V30 2430 H 226.92 2.42726 -2.83088 0
M  V30 2431 N 229.106 1.52395 0.401703 0
M  V30 2432 C 230.036 1.79231 1.49661 0
M  V30 2433 C 231.017 0.643654 1.57452 0
M  V30 2434 O 232.202 0.889989 1.72606 0
M  V30 2435 C 229.332 1.94971 2.87409 0
M  V30 2436 C 228.286 3.10604 2.94465 0
M  V30 2437 C 227.612 3.11577 4.34538 0
M  V30 2438 C 228.912 4.49921 2.6527 0
M  V30 2439 H 230.606 2.70917 1.27454 0
M  V30 2440 H 228.152 1.30362 0.6117 0
M  V30 2441 H 230.105 2.12328 3.63999 0
M  V30 2442 H 228.829 0.999632 3.10926 0
M  V30 2443 H 227.488 2.93009 2.20321 0
M  V30 2444 H 227.136 2.14277 4.55076 0
M  V30 2445 H 226.836 3.89247 4.40183 0
M  V30 2446 H 228.36 3.31073 5.13053 0
M  V30 2447 H 229.774 4.67683 3.31581 0
M  V30 2448 H 228.171 5.29564 2.82281 0
M  V30 2449 H 229.241 4.57507 1.60671 0
M  V30 2450 N 230.584 -0.659388 1.43143 0
M  V30 2451 C 231.831 -1.41935 1.44433 0
M  V30 2452 C 232.159 -1.94387 0.0663522 0
M  V30 2453 O 231.414 -1.72314 -0.927706 0
M  V30 2454 C 231.713 -2.62206 2.42864 0
M  V30 2455 C 231.379 -2.28208 3.88886 0
M  V30 2456 C 230.041 -2.18647 4.28657 0
M  V30 2457 C 232.393 -2.00887 4.8093 0
M  V30 2458 C 229.721 -1.79914 5.58433 0
M  V30 2459 C 232.073 -1.63653 6.11065 0
M  V30 2460 C 230.737 -1.52614 6.49819 0
M  V30 2461 H 230.007 -0.519376 0.528517 0
M  V30 2462 H 232.654 -0.750453 1.76183 0
M  V30 2463 H 230.959 -3.34199 2.04495 0
M  V30 2464 H 232.656 -3.2041 2.41119 0
M  V30 2465 H 229.246 -2.36557 3.57406 0
M  V30 2466 H 233.43 -2.07198 4.5098 0
M  V30 2467 H 228.686 -1.69948 5.87305 0
M  V30 2468 H 232.86 -1.41543 6.81864 0
M  V30 2469 H 230.487 -1.22371 7.50286 0
M  V30 2470 N 232.062 -1.29571 -0.897171 0
M  V30 2471 C 232.992 -1.17473 -2.01798 0
M  V30 2472 C 233.973 -0.068323 -1.69963 0
M  V30 2473 O 235.158 -0.248239 -1.92607 0
M  V30 2474 C 232.288 -0.853099 -3.36659 0
M  V30 2475 C 231.242 -1.9161 -3.82713 0
M  V30 2476 C 230.568 -1.44773 -5.14728 0
M  V30 2477 C 231.868 -3.32535 -4.02763 0
M  V30 2478 H 233.562 -2.11237 -2.12177 0
M  V30 2479 H 231.108 -1.01699 -1.01948 0
M  V30 2480 H 233.061 -0.755165 -4.14578 0
M  V30 2481 H 231.785 0.120236 -3.26379 0
M  V30 2482 H 230.444 -2.00346 -3.07013 0
M  V30 2483 H 230.092 -0.462995 -5.00865 0
M  V30 2484 H 229.792 -2.15865 -5.46513 0
M  V30 2485 H 231.316 -1.36334 -5.95185 0
M  V30 2486 H 232.73 -3.26626 -4.71156 0
M  V30 2487 H 231.127 -4.01607 -4.45905 0
M  V30 2488 H 232.197 -3.75326 -3.07016 0
M  V30 2489 N 233.54 1.10788 -1.12088 0
M  V30 2490 C 234.47 2.19083 -0.807755 0
M  V30 2491 C 235.451 1.6858 0.226859 0
M  V30 2492 O 236.636 1.93997 0.0888475 0
M  V30 2493 C 233.766 3.46344 -0.257576 0
M  V30 2494 C 232.72 4.101 -1.22483 0
M  V30 2495 C 232.046 5.32016 -0.535052 0
M  V30 2496 C 233.346 4.54236 -2.57811 0
M  V30 2497 H 235.04 2.45534 -1.71328 0
M  V30 2498 H 232.586 1.1801 -0.825205 0
M  V30 2499 H 234.539 4.21392 -0.0262679 0
M  V30 2500 H 233.263 3.19373 0.683278 0
M  V30 2501 H 231.922 3.37054 -1.44189 0
M  V30 2502 H 231.57 5.01319 0.410827 0
M  V30 2503 H 231.27 5.75625 -1.18024 0
M  V30 2504 H 232.794 6.09799 -0.312695 0
M  V30 2505 H 234.208 5.20575 -2.40155 0
M  V30 2506 H 232.605 5.08682 -3.18375 0
M  V30 2507 H 233.675 3.6734 -3.16528 0
M  V30 2508 N 235.018 0.912232 1.28515 0
M  V30 2509 C 236.429 0.591352 1.77087 0
M  V30 2510 C 236.78 -0.8933 1.74684 0
M  V30 2511 O 235.905 -1.69876 1.34056 0
M  V30 2512 C 236.5 1.06668 3.2157 0
M  V30 2513 C 235.059 0.79675 3.67871 0
M  V30 2514 C 234.206 1.23427 2.48316 0
M  V30 2515 H 237.157 1.09365 1.15 0
M  V30 2516 H 237.178 0.407455 3.78312 0
M  V30 2517 H 236.69 2.14726 3.23287 0
M  V30 2518 H 234.791 -0.270679 3.71616 0
M  V30 2519 H 234.904 1.40343 4.58084 0
M  V30 2520 H 233.268 0.653036 2.46186 0
M  V30 2521 H 234.051 2.32316 2.52753 0
M  V30 2522 N 236.496 -1.42363 0.676048 0
M  V30 2523 C 237.428 -2.29164 -0.0404605 0
M  V30 2524 C 238.441 -1.43747 -0.764245 0
M  V30 2525 O 239.63 -1.67453 -0.618195 0
M  V30 2526 C 236.73 -3.21196 -1.08103 0
M  V30 2527 C 235.903 -4.35273 -0.430812 0
M  V30 2528 C 234.962 -5.08017 -1.37133 0
M  V30 2529 O 233.988 -5.62494 -0.87116 0
M  V30 2530 N 235.19 -5.13647 -2.70456 0
M  V30 2531 H 237.955 -2.91298 0.704667 0
M  V30 2532 H 235.516 -1.53303 0.520559 0
M  V30 2533 H 237.508 -3.66728 -1.71152 0
M  V30 2534 H 236.078 -2.60505 -1.72788 0
M  V30 2535 H 235.298 -3.92372 0.379209 0
M  V30 2536 H 236.586 -5.08795 0.0221132 0
M  V30 2537 H 235.984 -4.708 -3.1363 0
M  V30 2538 H 234.541 -5.62821 -3.28749 0
M  V30 2539 N 237.974 -0.419461 -1.51915 0
M  V30 2540 C 239.223 0.154346 -2.01109 0
M  V30 2541 C 239.536 1.45338 -1.30905 0
M  V30 2542 O 240.742 2.10906 -1.7097 0
M  V30 2543 C 239.198 0.325615 -3.58424 0
M  V30 2544 C 238.806 -0.961934 -4.37551 0
M  V30 2545 C 240.55 0.854155 -4.15818 0
M  V30 2546 C 238.457 -0.757287 -5.86531 0
M  V30 2547 H 237.387 0.0614563 -0.751491 0
M  V30 2548 H 240.038 -0.54649 -1.75173 0
M  V30 2549 H 238.42 1.08903 -3.80731 0
M  V30 2550 H 239.594 -1.7323 -4.26999 0
M  V30 2551 H 237.909 -1.41766 -3.91524 0
M  V30 2552 H 240.506 1.02346 -5.24814 0
M  V30 2553 H 240.849 1.83172 -3.73837 0
M  V30 2554 H 241.382 0.149528 -3.97519 0
M  V30 2555 H 238.121 -1.70671 -6.32892 0
M  V30 2556 H 237.641 -0.0264061 -5.99794 0
M  V30 2557 H 239.32 -0.403482 -6.45741 0
M  V30 2558 N 239.452 1.56882 -0.150215 0
M  V30 2559 C 240.68 2.00593 0.506948 0
M  V30 2560 C 241.095 1.03033 1.58208 0
M  V30 2561 O 240.452 0.0278396 1.82479 0
M  V30 2562 C 240.503 3.44209 1.10465 0
M  V30 2563 O 240.224 4.3804 0.0724636 0
M  V30 2564 C 241.725 4.03214 1.84211 0
M  V30 2565 H 238.945 0.65795 0.13169 0
M  V30 2566 H 241.489 2.03018 -0.245743 0
M  V30 2567 H 239.644 3.42625 1.80795 0
M  V30 2568 H 240.058 5.22007 0.510793 0
M  V30 2569 H 241.532 5.0569 2.21318 0
M  V30 2570 H 242.009 3.44107 2.72923 0
M  V30 2571 H 242.615 4.08437 1.18572 0
M  V30 2572 N 240.93 -0.123565 1.57115 0
M  V30 2573 C 242.16 -0.845233 1.88519 0
M  V30 2574 C 242.568 -1.74168 0.739064 0
M  V30 2575 O 241.911 -1.81244 -0.299355 0
M  V30 2576 C 241.973 -1.73452 3.14888 0
M  V30 2577 C 241.637 -1.01285 4.45635 0
M  V30 2578 C 242.634 -0.355774 5.18681 0
M  V30 2579 C 240.319 -0.99538 4.92339 0
M  V30 2580 C 242.313 0.309114 6.3665 0
M  V30 2581 C 240 -0.32669 6.10226 0
M  V30 2582 C 240.998 0.324406 6.82229 0
M  V30 2583 O 240.686 0.982437 7.97874 0
M  V30 2584 H 240.418 -0.248534 0.628655 0
M  V30 2585 H 242.972 -0.113907 2.05084 0
M  V30 2586 H 241.202 -2.50737 2.94394 0
M  V30 2587 H 242.891 -2.33021 3.32349 0
M  V30 2588 H 243.657 -0.360918 4.83655 0
M  V30 2589 H 239.536 -1.49159 4.36202 0
M  V30 2590 H 243.08 0.8179 6.92789 0
M  V30 2591 H 238.977 -0.319294 6.4471 0
M  V30 2592 H 239.745 0.886454 8.13686 0
M  V30 2593 N 242.408 -1.52605 -0.393616 0
M  V30 2594 C 243.633 -1.71592 -1.16495 0
M  V30 2595 C 244.058 -0.43133 -1.83088 0
M  V30 2596 O 243.416 0.612523 -1.7064 0
M  V30 2597 C 243.464 -2.86318 -2.19213 0
M  V30 2598 O 242.568 -2.52969 -3.257 0
M  V30 2599 H 241.909 -0.570734 -0.33935 0
M  V30 2600 H 244.439 -1.99377 -0.459324 0
M  V30 2601 H 244.449 -3.1168 -2.63286 0
M  V30 2602 H 243.124 -3.79511 -1.7013 0
M  V30 2603 H 241.701 -2.38332 -2.86797 0
M  V30 2604 N 243.887 0.651787 -1.4349 0
M  V30 2605 C 244.85 1.74647 -1.48429 0
M  V30 2606 C 245.85 1.56513 -0.368817 0
M  V30 2607 O 247.04 1.62385 -0.630623 0
M  V30 2608 C 244.172 3.13533 -1.33827 0
M  V30 2609 H 245.365 1.71649 -2.4592 0
M  V30 2610 H 242.918 0.863573 -1.30277 0
M  V30 2611 H 243.653 3.22142 -0.37349 0
M  V30 2612 H 243.438 3.28101 -2.14691 0
M  V30 2613 H 244.928 3.93356 -1.40218 0
M  V30 2614 N 245.365 1.30045 0.890287 0
M  V30 2615 C 246.614 1.17929 1.63633 0
M  V30 2616 C 246.927 -0.266204 1.9378 0
M  V30 2617 O 248.133 -0.508804 2.6669 0
M  V30 2618 C 246.589 2.06317 2.94892 0
M  V30 2619 C 246.197 3.55745 2.72305 0
M  V30 2620 C 247.941 2.0295 3.72843 0
M  V30 2621 C 245.848 4.36205 3.99348 0
M  V30 2622 H 244.778 0.437782 0.613892 0
M  V30 2623 H 247.429 1.54754 0.986075 0
M  V30 2624 H 245.811 1.6237 3.61182 0
M  V30 2625 H 246.985 4.07805 2.1455 0
M  V30 2626 H 245.3 3.6088 2.07737 0
M  V30 2627 H 247.897 2.60319 4.67053 0
M  V30 2628 H 248.24 1.0117 4.0382 0
M  V30 2629 H 248.773 2.4499 3.13408 0
M  V30 2630 H 245.512 5.38659 3.73533 0
M  V30 2631 H 245.032 3.8891 4.56628 0
M  V30 2632 H 246.711 4.47362 4.67415 0
M  V30 2633 N 246.843 -1.10192 1.12674 0
M  V30 2634 C 248.068 -1.86523 0.906853 0
M  V30 2635 C 248.493 -1.80221 -0.538711 0
M  V30 2636 O 247.851 -1.17396 -1.38158 0
M  V30 2637 C 247.899 -3.32758 1.3894 0
M  V30 2638 O 247.003 -4.08449 0.5695 0
M  V30 2639 H 246.344 -0.578678 0.325619 0
M  V30 2640 H 248.874 -1.39203 1.49946 0
M  V30 2641 H 248.884 -3.83608 1.38958 0
M  V30 2642 H 247.559 -3.36661 2.44197 0
M  V30 2643 H 246.136 -3.67427 0.636528 0
M  V30 2644 N 248.321 -0.919034 -1.28029 0
M  V30 2645 C 249.598 -0.473668 -1.89778 0
M  V30 2646 C 249.978 1.04783 -1.83259 0
M  V30 2647 O 249.326 1.8982 -1.27202 0
M  V30 2648 C 249.536 -1.00998 -3.34066 0
M  V30 2649 C 250.884 -1.06525 -4.1102 0
M  V30 2650 O 251.908 -0.958996 -3.43048 0
M  V30 2651 O 250.767 -1.22776 -5.3253 0
M  V30 2652 H 247.861 -0.15098 -0.813101 0
M  V30 2653 H 250.407 -1.01016 -1.36359 0
M  V30 2654 H 249.179 -2.05392 -3.33061 0
M  V30 2655 H 248.802 -0.454626 -3.94992 0
M  V30 2656 N 249.799 1.42003 -0.683588 0
M  V30 2657 C 250.709 2.34597 -0.0109075 0
M  V30 2658 C 251.725 1.55576 0.779245 0
M  V30 2659 O 252.901 1.88107 0.719555 0
M  V30 2660 C 249.966 3.34199 0.922588 0
M  V30 2661 C 249.027 4.29115 0.125984 0
M  V30 2662 C 248.26 5.23959 1.01502 0
M  V30 2663 O 248.483 5.23952 2.25456 0
M  V30 2664 O 247.417 6.00053 0.47111 0
M  V30 2665 H 251.243 2.93675 -0.773853 0
M  V30 2666 H 248.828 1.42654 -0.443861 0
M  V30 2667 H 250.71 3.95365 1.45823 0
M  V30 2668 H 249.385 2.77582 1.66523 0
M  V30 2669 H 248.292 3.71335 -0.453969 0
M  V30 2670 H 249.625 4.88798 -0.577736 0
M  V30 2671 N 251.277 0.427512 1.51691 0
M  V30 2672 C 252.207 -0.3796 2.30394 0
M  V30 2673 C 253.188 -1.02982 1.35384 0
M  V30 2674 O 254.373 -1.03534 1.643 0
M  V30 2675 C 251.503 -1.48649 3.1388 0
M  V30 2676 C 250.457 -0.960294 4.17088 0
M  V30 2677 C 249.783 -2.16219 4.89033 0
M  V30 2678 C 251.083 -0.00153679 5.223 0
M  V30 2679 H 252.777 0.277164 2.98114 0
M  V30 2680 H 250.323 0.134739 1.43368 0
M  V30 2681 H 252.276 -2.05826 3.67714 0
M  V30 2682 H 251 -2.1714 2.43962 0
M  V30 2683 H 249.659 -0.410806 3.64291 0
M  V30 2684 H 249.307 -2.83307 4.15628 0
M  V30 2685 H 249.007 -1.81654 5.58816 0
M  V30 2686 H 250.531 -2.73968 5.45687 0
M  V30 2687 H 251.945 -0.482687 5.71264 0
M  V30 2688 H 250.342 0.256199 5.99553 0
M  V30 2689 H 251.412 0.938174 4.75738 0
M  V30 2690 N 252.755 -1.56801 0.158532 0
M  V30 2691 C 254.171 -1.5837 -0.197774 0
M  V30 2692 C 254.371 -1.17334 -1.63814 0
M  V30 2693 O 253.427 -0.878988 -2.36707 0
M  V30 2694 C 254.74 -3.00615 0.0714459 0
M  V30 2695 C 256.288 -3.12999 0.00864533 0
M  V30 2696 C 256.763 -4.57313 0.250685 0
M  V30 2697 N 258.254 -4.62777 0.198014 0
M  V30 2698 C 258.989 -5.72271 0.359642 0
M  V30 2699 N 258.485 -6.90371 0.579625 0
M  V30 2700 N 260.278 -5.61318 0.296438 0
M  V30 2701 H 252.429 -1.81765 1.09887 0
M  V30 2702 H 254.692 -0.841849 0.435884 0
M  V30 2703 H 254.398 -3.35068 1.06874 0
M  V30 2704 H 254.272 -3.71683 -0.642757 0
M  V30 2705 H 256.659 -2.7838 -0.979217 0
M  V30 2706 H 256.74 -2.44393 0.755359 0
M  V30 2707 H 256.384 -4.92639 1.2357 0
M  V30 2708 H 256.314 -5.24061 -0.516489 0
M  V30 2709 H 258.805 -3.77885 0.0331115 0
M  V30 2710 H 259.118 -7.69689 0.69275 0
M  V30 2711 H 257.463 -6.92264 0.616087 0
M  V30 2712 H 260.654 -4.67932 0.125258 0
M  V30 2713 H 260.827 -6.46599 0.425831 0
M  V30 2714 N 254.233 0.115231 -1.57178 0
M  V30 2715 C 255.51 0.852873 -1.76027 0
M  V30 2716 C 255.89 1.97892 -0.73498 0
M  V30 2717 O 255.238 2.27232 0.24036 0
M  V30 2718 C 255.448 1.36608 -3.21153 0
M  V30 2719 C 256.796 1.81692 -3.83762 0
M  V30 2720 O 257.82 1.46278 -3.24779 0
M  V30 2721 O 256.679 2.47104 -4.87444 0
M  V30 2722 H 253.773 0.405296 -0.720877 0
M  V30 2723 H 256.319 0.0986785 -1.69413 0
M  V30 2724 H 255.091 0.558357 -3.87296 0
M  V30 2725 H 254.714 2.18287 -3.3232 0
M  V30 2726 N 255.711 1.52812 0.385517 0
M  V30 2727 C 256.658 1.77838 1.47113 0
M  V30 2728 C 257.628 0.621757 1.54024 0
M  V30 2729 O 258.813 0.861846 1.70226 0
M  V30 2730 C 255.953 1.95618 2.84302 0
M  V30 2731 C 255.066 3.23316 2.86515 0
M  V30 2732 C 254.201 3.31394 4.15152 0
M  V30 2733 C 253.24 4.53201 4.1143 0
M  V30 2734 N 252.377 4.58542 5.3168 0
M  V30 2735 H 257.217 2.70482 1.25073 0
M  V30 2736 H 254.754 1.34006 0.606692 0
M  V30 2737 H 256.712 2.03912 3.63972 0
M  V30 2738 H 255.342 1.06331 3.04784 0
M  V30 2739 H 254.394 3.24076 1.99195 0
M  V30 2740 H 255.706 4.13045 2.79634 0
M  V30 2741 H 254.86 3.3889 5.03228 0
M  V30 2742 H 253.599 2.39645 4.24761 0
M  V30 2743 H 252.604 4.45827 3.21742 0
M  V30 2744 H 253.829 5.46271 4.03442 0
M  V30 2745 H 251.775 3.69686 5.41912 0
M  V30 2746 H 251.692 5.42148 5.26889 0
M  V30 2747 H 252.96 4.70296 6.21644 0
M  V30 2748 N 257.189 -0.644168 1.43834 0
M  V30 2749 C 258.435 -1.40603 1.46146 0
M  V30 2750 C 258.768 -1.93997 0.0887717 0
M  V30 2751 O 258.043 -1.72854 -0.891724 0
M  V30 2752 C 258.326 -2.58086 2.51124 0
M  V30 2753 C 258.179 -2.10126 3.97702 0
M  V30 2754 C 259.498 -3.60291 2.52742 0
M  V30 2755 H 256.617 -0.509905 0.532134 0
M  V30 2756 H 259.259 -0.729502 1.75437 0
M  V30 2757 H 257.409 -3.15801 2.26278 0
M  V30 2758 H 259.081 -1.57342 4.33637 0
M  V30 2759 H 257.324 -1.41419 4.10101 0
M  V30 2760 H 257.995 -2.94649 4.66783 0
M  V30 2761 H 260.471 -3.12352 2.7491 0
M  V30 2762 H 259.347 -4.40032 3.28121 0
M  V30 2763 H 259.608 -4.1349 1.56455 0
M  V30 2764 N 258.668 -1.30515 -0.883378 0
M  V30 2765 C 260.084 -1.08881 -1.16692 0
M  V30 2766 C 260.284 0.149409 -2.00945 0
M  V30 2767 O 259.34 0.84257 -2.38027 0
M  V30 2768 C 260.653 -2.35319 -1.87204 0
M  V30 2769 C 262.201 -2.40799 -1.99962 0
M  V30 2770 C 262.676 -3.67083 -2.73887 0
M  V30 2771 N 264.167 -3.679 -2.81432 0
M  V30 2772 C 264.902 -4.62303 -3.3921 0
M  V30 2773 N 264.398 -5.67052 -3.98025 0
M  V30 2774 N 266.191 -4.49845 -3.3704 0
M  V30 2775 H 258.342 -2.09951 -0.321633 0
M  V30 2776 H 260.605 -0.92556 -0.205043 0
M  V30 2777 H 260.311 -3.25689 -1.3274 0
M  V30 2778 H 260.185 -2.44089 -2.87577 0
M  V30 2779 H 262.572 -1.50907 -2.53597 0
M  V30 2780 H 262.653 -2.36003 -0.98673 0
M  V30 2781 H 262.297 -4.57334 -2.20925 0
M  V30 2782 H 262.227 -3.69141 -3.75556 0
M  V30 2783 H 264.718 -2.92171 -2.39676 0
M  V30 2784 H 265.031 -6.35184 -4.40183 0
M  V30 2785 H 263.376 -5.70842 -3.96439 0
M  V30 2786 H 266.567 -3.67194 -2.90321 0
M  V30 2787 H 266.74 -5.23597 -3.81772 0
M  V30 2788 N 260.146 1.09593 -1.13257 0
M  V30 2789 C 261.393 1.81734 -0.893257 0
M  V30 2790 C 261.721 1.8563 0.580656 0
M  V30 2791 O 260.976 1.31906 1.44566 0
M  V30 2792 C 261.275 3.27802 -1.42411 0
M  V30 2793 C 260.941 3.44041 -2.91456 0
M  V30 2794 C 259.603 3.48181 -3.3215 0
M  V30 2795 C 261.955 3.48719 -3.87356 0
M  V30 2796 C 259.283 3.54575 -4.67433 0
M  V30 2797 C 261.635 3.56648 -5.2248 0
M  V30 2798 C 260.299 3.59055 -5.62704 0
M  V30 2799 H 259.569 0.665011 -0.326866 0
M  V30 2800 H 262.216 1.2912 -1.41422 0
M  V30 2801 H 260.521 3.83042 -0.823795 0
M  V30 2802 H 262.218 3.82149 -1.21503 0
M  V30 2803 H 258.808 3.41502 -2.58987 0
M  V30 2804 H 262.992 3.44763 -3.57004 0
M  V30 2805 H 258.248 3.54725 -4.97976 0
M  V30 2806 H 262.422 3.59212 -5.96607 0
M  V30 2807 H 260.049 3.63763 -6.67518 0
M  V30 2808 N 261.624 0.925811 1.2754 0
M  V30 2809 C 263.035 0.610102 1.7645 0
M  V30 2810 C 263.386 -0.874723 1.75622 0
M  V30 2811 O 262.511 -1.68444 1.35851 0
M  V30 2812 C 263.106 1.10073 3.20421 0
M  V30 2813 C 261.665 0.835723 3.67005 0
M  V30 2814 C 260.812 1.26054 2.46993 0
M  V30 2815 H 263.763 1.10579 1.13833 0
M  V30 2816 H 263.784 0.447557 3.77859 0
M  V30 2817 H 263.296 2.18143 3.20991 0
M  V30 2818 H 261.397 -0.231249 3.71882 0
M  V30 2819 H 261.51 1.45193 4.56569 0
M  V30 2820 H 259.874 0.679111 2.45479 0
M  V30 2821 H 260.657 2.34984 2.50275 0
M  V30 2822 N 263.102 -1.41638 0.69111 0
M  V30 2823 C 264.065 -2.29178 0.0319786 0
M  V30 2824 C 265.065 -1.44153 -0.712496 0
M  V30 2825 O 266.255 -1.65354 -0.548053 0
M  V30 2826 C 263.387 -3.26952 -0.965161 0
M  V30 2827 H 264.58 -2.88959 0.802681 0
M  V30 2828 H 262.133 -1.4955 0.454356 0
M  V30 2829 H 262.868 -2.72142 -1.76378 0
M  V30 2830 H 262.653 -3.89685 -0.434522 0
M  V30 2831 H 264.143 -3.92561 -1.42428 0
M  V30 2832 N 264.58 -0.43555 -1.51462 0
M  V30 2833 C 265.51 0.367376 -2.30592 0
M  V30 2834 C 266.491 1.02263 -1.35928 0
M  V30 2835 O 267.676 1.02661 -1.64847 0
M  V30 2836 C 264.806 1.46983 -3.14664 0
M  V30 2837 C 263.76 0.938161 -4.17591 0
M  V30 2838 C 263.086 2.13622 -4.90173 0
M  V30 2839 C 264.386 -0.0261621 -5.22293 0
M  V30 2840 H 266.08 -0.292969 -2.97963 0
M  V30 2841 H 263.626 -0.14234 -1.43295 0
M  V30 2842 H 265.579 2.03873 -3.688 0
M  V30 2843 H 264.303 2.15843 -2.4511 0
M  V30 2844 H 262.962 0.391481 -3.64504 0
M  V30 2845 H 262.61 2.81098 -4.17124 0
M  V30 2846 H 262.31 1.78688 -5.59772 0
M  V30 2847 H 263.834 2.7107 -5.47132 0
M  V30 2848 H 265.248 0.452384 -5.71512 0
M  V30 2849 H 263.645 -0.287992 -5.99409 0
M  V30 2850 H 264.715 -0.963391 -4.75233 0
M  V30 2851 N 266.058 1.56714 -0.166846 0
M  V30 2852 C 266.988 2.20754 0.760913 0
M  V30 2853 C 267.969 1.16178 1.24244 0
M  V30 2854 O 269.154 1.44592 1.29641 0
M  V30 2855 C 266.284 2.84478 1.99223 0
M  V30 2856 C 265.238 3.95053 1.64672 0
M  V30 2857 C 264.564 4.45805 2.95232 0
M  V30 2858 C 265.864 5.14865 0.878155 0
M  V30 2859 H 267.558 2.98537 0.22713 0
M  V30 2860 H 265.104 1.43596 0.107805 0
M  V30 2861 H 267.057 3.27951 2.64624 0
M  V30 2862 H 265.781 2.04056 2.55007 0
M  V30 2863 H 264.44 3.52228 1.01641 0
M  V30 2864 H 264.088 3.62181 3.49047 0
M  V30 2865 H 263.788 5.204 2.7287 0
M  V30 2866 H 265.312 4.91962 3.6167 0
M  V30 2867 H 266.726 5.55059 1.43466 0
M  V30 2868 H 265.123 5.95348 0.753738 0
M  V30 2869 H 266.193 4.84735 -0.126377 0
M  V30 2870 N 267.536 -0.106894 1.57237 0
M  V30 2871 C 268.952 -0.46078 1.52804 0
M  V30 2872 C 269.152 -1.81184 0.881746 0
M  V30 2873 O 268.208 -2.48102 0.469224 0
M  V30 2874 C 269.521 -0.434127 2.9755 0
M  V30 2875 C 271.069 -0.516821 3.08704 0
M  V30 2876 C 271.544 -0.520436 4.55033 0
M  V30 2877 N 273.035 -0.58153 4.59535 0
M  V30 2878 C 273.77 -0.605973 5.70189 0
M  V30 2879 N 273.266 -0.587331 6.90306 0
M  V30 2880 N 275.059 -0.649895 5.5833 0
M  V30 2881 H 267.21 0.778203 1.9763 0
M  V30 2882 H 269.473 0.288403 0.903066 0
M  V30 2883 H 269.179 0.491197 3.48253 0
M  V30 2884 H 269.053 -1.25748 3.55622 0
M  V30 2885 H 271.44 -1.43256 2.57995 0
M  V30 2886 H 271.521 0.334449 2.53604 0
M  V30 2887 H 271.165 0.391313 5.0639 0
M  V30 2888 H 271.095 -1.38876 5.07958 0
M  V30 2889 H 273.586 -0.60161 3.73081 0
M  V30 2890 H 273.899 -0.60894 7.70397 0
M  V30 2891 H 272.244 -0.554564 6.92784 0
M  V30 2892 H 275.435 -0.661907 4.63397 0
M  V30 2893 H 275.608 -0.665476 6.44574 0
M  V30 2894 N 269.014 -1.53014 -0.377408 0
M  V30 2895 C 270.242 -1.72515 -1.14219 0
M  V30 2896 C 270.657 -0.448735 -1.8339 0
M  V30 2897 O 270.014 0.577592 -1.73119 0
M  V30 2898 C 270.065 -2.8826 -2.18148 0
M  V30 2899 O 269.786 -4.10962 -1.51795 0
M  V30 2900 C 271.287 -3.19536 -3.07264 0
M  V30 2901 H 268.507 -0.577301 -0.342001 0
M  V30 2902 H 271.051 -1.99712 -0.439935 0
M  V30 2903 H 269.206 -2.63492 -2.83991 0
M  V30 2904 H 269.62 -4.75693 -2.20945 0
M  V30 2905 H 271.094 -4.03959 -3.76193 0
M  V30 2906 H 271.571 -2.34403 -3.71419 0
M  V30 2907 H 272.177 -3.46186 -2.47053 0
M  V30 2908 N 270.492 0.636531 -1.44174 0
M  V30 2909 C 271.72 1.42353 -1.50144 0
M  V30 2910 C 272.135 1.88389 -0.124575 0
M  V30 2911 O 271.492 1.6051 0.868489 0
M  V30 2912 C 271.543 2.64744 -2.46156 0
M  V30 2913 O 271.264 2.20629 -3.7849 0
M  V30 2914 C 272.765 3.57929 -2.61537 0
M  V30 2915 H 269.985 0.436752 -0.5094 0
M  V30 2916 H 272.529 0.778933 -1.89084 0
M  V30 2917 H 270.684 3.25307 -2.10366 0
M  V30 2918 H 271.098 2.99938 -4.30276 0
M  V30 2919 H 272.572 4.40428 -3.32757 0
M  V30 2920 H 273.049 4.06382 -1.66585 0
M  V30 2921 H 273.655 3.03238 -2.98206 0
M  V30 2922 N 271.97 1.30982 0.876444 0
M  V30 2923 C 273.381 1.18277 1.44456 0
M  V30 2924 C 273.732 -0.213265 1.95037 0
M  V30 2925 O 272.857 -1.11057 1.85729 0
M  V30 2926 C 273.452 2.1411 2.62569 0
M  V30 2927 C 272.011 2.05358 3.15444 0
M  V30 2928 C 271.158 2.03706 1.88146 0
M  V30 2929 H 274.109 1.43127 0.685584 0
M  V30 2930 H 274.13 1.72692 3.39054 0
M  V30 2931 H 273.642 3.15706 2.25724 0
M  V30 2932 H 271.743 1.06934 3.56926 0
M  V30 2933 H 271.856 2.94156 3.78166 0
M  V30 2934 H 270.22 1.48629 2.06837 0
M  V30 2935 H 271.003 3.07047 1.53547 0
M  V30 2936 N 273.449 -1.08991 1.13837 0
M  V30 2937 C 274.674 -1.85551 0.926585 0
M  V30 2938 C 275.099 -1.80782 -0.519566 0
M  V30 2939 O 274.457 -1.18855 -1.36906 0
M  V30 2940 C 274.505 -3.31266 1.42462 0
M  V30 2941 O 273.609 -4.07822 0.612789 0
M  V30 2942 H 272.95 -0.575192 0.331738 0
M  V30 2943 H 275.48 -1.37604 1.51414 0
M  V30 2944 H 275.49 -3.82112 1.43019 0
M  V30 2945 H 274.165 -3.34052 2.47754 0
M  V30 2946 H 272.742 -3.66731 0.675463 0
M  V30 2947 N 274.927 -0.932562 -1.27047 0
M  V30 2948 C 275.89 -0.440064 -2.24936 0
M  V30 2949 C 276.89 0.444071 -1.54547 0
M  V30 2950 O 278.08 0.244465 -1.72476 0
M  V30 2951 C 275.212 0.36678 -3.38921 0
M  V30 2952 H 276.405 -1.305 -2.70018 0
M  V30 2953 H 273.958 -0.713707 -1.39054 0
M  V30 2954 H 274.693 1.25033 -2.99228 0
M  V30 2955 H 274.478 -0.267204 -3.91188 0
M  V30 2956 H 275.968 0.701567 -4.11665 0
M  V30 2957 N 276.405 1.4127 -0.698611 0
M  V30 2958 C 277.682 1.94955 -0.158762 0
M  V30 2959 C 278.062 1.63781 1.33188 0
M  V30 2960 O 277.41 0.946423 2.07979 0
M  V30 2961 C 277.62 3.46044 -0.453309 0
M  V30 2962 C 278.968 4.22872 -0.382707 0
M  V30 2963 O 279.992 3.54076 -0.388396 0
M  V30 2964 O 278.851 5.45407 -0.345463 0
M  V30 2965 H 275.945 0.82683 -0.0167505 0
M  V30 2966 H 278.491 1.50971 -0.77498 0
M  V30 2967 H 277.263 3.62028 -1.48498 0
M  V30 2968 H 276.886 3.97128 0.19373 0
M  V30 2969 N 277.883 0.443576 1.51229 0
M  V30 2970 C 278.833 -0.382787 2.24764 0
M  V30 2971 C 279.817 -0.984836 1.27239 0
M  V30 2972 O 281.009 -0.901943 1.52296 0
M  V30 2973 C 278.138 -1.47989 3.09765 0
M  V30 2974 C 277.224 -0.886931 4.14722 0
M  V30 2975 N 277.615 -0.0237103 5.05794 0
M  V30 2976 C 275.913 -1.15385 4.30816 0
M  V30 2977 C 276.614 0.309971 5.80874 0
M  V30 2978 N 275.59 -0.307989 5.42727 0
M  V30 2979 H 279.392 0.282624 2.92538 0
M  V30 2980 H 276.906 0.256027 1.60369 0
M  V30 2981 H 278.903 -2.08482 3.61027 0
M  V30 2982 H 277.563 -2.14758 2.43535 0
M  V30 2983 H 278.574 0.34318 5.16762 0
M  V30 2984 H 275.251 -1.81857 3.75812 0
M  V30 2985 H 276.641 1.01279 6.64223 0
M  V30 2986 N 279.361 -1.56624 0.175154 0
M  V30 2987 C 280.311 -2.14747 -0.766004 0
M  V30 2988 C 281.295 -1.08275 -1.19018 0
M  V30 2989 O 282.487 -1.34388 -1.15191 0
M  V30 2990 C 279.616 -2.79478 -1.99366 0
M  V30 2991 C 278.702 -3.93114 -1.5913 0
M  V30 2992 N 279.093 -4.97752 -0.89872 0
M  V30 2993 C 277.391 -4.04345 -1.88204 0
M  V30 2994 C 278.092 -5.77473 -0.700012 0
M  V30 2995 N 277.068 -5.29207 -1.24263 0
M  V30 2996 H 280.87 -2.93015 -0.22793 0
M  V30 2997 H 278.384 -1.6238 -0.0253843 0
M  V30 2998 H 280.381 -3.19498 -2.67818 0
M  V30 2999 H 279.041 -2.02692 -2.53665 0
M  V30 3000 H 280.052 -5.14903 -0.556347 0
M  V30 3001 H 276.729 -3.38667 -2.44153 0
M  V30 3002 H 278.119 -6.71728 -0.152047 0
M  V30 3003 N 280.839 0.0985539 -1.57292 0
M  V30 3004 C 282.088 0.801358 -1.85098 0
M  V30 3005 C 282.401 1.80066 -0.763902 0
M  V30 3006 O 283.607 2.55112 -0.928981 0
M  V30 3007 C 282.063 1.47599 -3.28242 0
M  V30 3008 C 281.671 0.516624 -4.45011 0
M  V30 3009 C 283.415 2.16272 -3.65276 0
M  V30 3010 C 281.322 1.19564 -5.79188 0
M  V30 3011 H 280.252 0.303022 -0.69043 0
M  V30 3012 H 282.903 0.0542623 -1.8342 0
M  V30 3013 H 281.285 2.27042 -3.2445 0
M  V30 3014 H 282.459 -0.246065 -4.60143 0
M  V30 3015 H 280.774 -0.064227 -4.1635 0
M  V30 3016 H 283.371 2.67802 -4.62803 0
M  V30 3017 H 283.714 2.95009 -2.93727 0
M  V30 3018 H 284.247 1.43693 -3.70941 0
M  V30 3019 H 280.986 0.449157 -6.53959 0
M  V30 3020 H 280.506 1.92984 -5.67906 0
M  V30 3021 H 282.185 1.7231 -6.23633 0
M  V30 3022 N 282.317 1.53212 0.369288 0
M  V30 3023 C 283.227 1.82342 1.47609 0
M  V30 3024 C 284.243 0.711532 1.58787 0
M  V30 3025 O 285.419 1.0012 1.74751 0
M  V30 3026 C 282.484 2.00393 2.8292 0
M  V30 3027 C 281.545 3.24297 2.81301 0
M  V30 3028 C 280.778 3.41478 4.10157 0
M  V30 3029 O 281.001 2.63033 5.06132 0
M  V30 3030 O 279.935 4.34817 4.16194 0
M  V30 3031 H 283.761 2.76366 1.25918 0
M  V30 3032 H 281.346 1.38547 0.559034 0
M  V30 3033 H 283.228 2.13859 3.63101 0
M  V30 3034 H 281.903 1.09559 3.04596 0
M  V30 3035 H 280.81 3.16257 1.99831 0
M  V30 3036 H 282.143 4.15041 2.64578 0
M  V30 3037 N 283.795 -0.628877 1.44509 0
M  V30 3038 C 284.758 -1.72263 1.51188 0
M  V30 3039 C 285.758 -1.55907 0.39367 0
M  V30 3040 O 286.948 -1.61361 0.656377 0
M  V30 3041 C 284.08 -3.11365 1.38798 0
M  V30 3042 H 285.273 -1.67714 2.4862 0
M  V30 3043 H 282.826 -0.842737 1.31634 0
M  V30 3044 H 283.561 -3.21507 0.424693 0
M  V30 3045 H 283.346 -3.24644 2.19884 0
M  V30 3046 H 284.836 -3.91075 1.46458 0
M  V30 3047 N 285.273 -1.31445 -0.869486 0
M  V30 3048 C 286.206 -1.13465 -1.97992 0
M  V30 3049 C 287.184 -0.0380291 -1.62556 0
M  V30 3050 O 288.368 -0.194544 -1.87493 0
M  V30 3051 C 285.495 -0.733822 -3.30655 0
M  V30 3052 C 284.541 -1.83356 -3.85075 0
M  V30 3053 S 285.374 -3.43909 -4.10472 0
M  V30 3054 C 286.53 -3.05763 -5.46132 0
M  V30 3055 H 286.763 -2.07471 -2.1294 0
M  V30 3056 H 284.296 -1.15936 -1.01972 0
M  V30 3057 H 286.254 -0.509306 -4.07328 0
M  V30 3058 H 284.915 0.187123 -3.13542 0
M  V30 3059 H 284.108 -1.50574 -4.80982 0
M  V30 3060 H 283.71 -2.01315 -3.15195 0
M  V30 3061 H 286.002 -2.54686 -6.27807 0
M  V30 3062 H 286.945 -4.00635 -5.83864 0
M  V30 3063 H 287.353 -2.43192 -5.09429 0
M  V30 3064 N 286.751 1.08385 -1.14413 0
M  V30 3065 C 287.997 1.81044 -0.913834 0
M  V30 3066 C 288.33 1.86004 0.558209 0
M  V30 3067 O 287.605 1.33606 1.4135 0
M  V30 3068 C 287.888 3.26648 -1.51569 0
M  V30 3069 C 287.741 3.29895 -3.0576 0
M  V30 3070 C 289.06 4.23629 -1.19273 0
M  V30 3071 H 286.179 0.65727 -0.333414 0
M  V30 3072 H 288.821 1.26896 -1.41412 0
M  V30 3073 H 286.971 3.72889 -1.09023 0
M  V30 3074 H 288.643 2.91977 -3.57137 0
M  V30 3075 H 286.886 2.69163 -3.40197 0
M  V30 3076 H 287.557 4.32516 -3.42977 0
M  V30 3077 H 290.033 3.85727 -1.56057 0
M  V30 3078 H 288.909 5.23822 -1.64017 0
M  V30 3079 H 289.17 4.41968 -0.108068 0
M  V30 3080 N 288.23 0.939286 1.26551 0
M  V30 3081 C 289.162 0.404704 2.25599 0
M  V30 3082 C 290.175 -0.470983 1.55838 0
M  V30 3083 O 291.364 -0.281734 1.76263 0
M  V30 3084 C 288.464 -0.43764 3.36062 0
M  V30 3085 C 287.637 0.421449 4.35365 0
M  V30 3086 C 286.696 -0.36015 5.24966 0
M  V30 3087 O 285.722 0.236167 5.6871 0
M  V30 3088 N 286.924 -1.65715 5.56344 0
M  V30 3089 H 289.689 1.25618 2.72103 0
M  V30 3090 H 287.25 0.807963 1.40298 0
M  V30 3091 H 289.242 -0.967866 3.92956 0
M  V30 3092 H 287.812 -1.18991 2.89067 0
M  V30 3093 H 287.032 1.1329 3.7757 0
M  V30 3094 H 288.32 1.00835 4.98708 0
M  V30 3095 H 287.718 -2.16378 5.22682 0
M  V30 3096 H 286.275 -2.13366 6.15888 0
M  V30 3097 N 289.708 -1.40897 0.706093 0
M  V30 3098 C 290.638 -2.33418 0.0620085 0
M  V30 3099 C 291.619 -1.52385 -0.755827 0
M  V30 3100 O 292.804 -1.80886 -0.706674 0
M  V30 3101 C 289.934 -3.36293 -0.867445 0
M  V30 3102 C 288.888 -4.27716 -0.155932 0
M  V30 3103 C 288.214 -5.2105 -1.20046 0
M  V30 3104 C 289.514 -5.12944 0.984149 0
M  V30 3105 H 291.208 -2.87527 0.83477 0
M  V30 3106 H 288.754 -1.38249 0.402875 0
M  V30 3107 H 290.707 -3.99949 -1.32735 0
M  V30 3108 H 289.431 -2.80556 -1.67199 0
M  V30 3109 H 288.09 -3.65498 0.284047 0
M  V30 3110 H 287.738 -4.61624 -1.99781 0
M  V30 3111 H 287.438 -5.83056 -0.729328 0
M  V30 3112 H 288.962 -5.87584 -1.66066 0
M  V30 3113 H 290.376 -5.70109 0.604048 0
M  V30 3114 H 288.773 -5.83945 1.38304 0
M  V30 3115 H 289.843 -4.49485 1.81911 0
M  V30 3116 N 291.186 -0.45159 -1.50991 0
M  V30 3117 C 292.119 0.398179 -2.24699 0
M  V30 3118 C 293.097 1.01276 -1.27208 0
M  V30 3119 O 294.281 1.05247 -1.56382 0
M  V30 3120 C 291.408 1.55618 -3.00833 0
M  V30 3121 C 290.454 1.0609 -4.13095 0
M  V30 3122 S 291.287 -0.00865136 -5.35499 0
M  V30 3123 C 292.443 1.15369 -6.15175 0
M  V30 3124 H 292.676 -0.227555 -2.96428 0
M  V30 3125 H 290.209 -0.236251 -1.52582 0
M  V30 3126 H 292.167 2.21997 -3.45293 0
M  V30 3127 H 290.828 2.15337 -2.28667 0
M  V30 3128 H 290.021 1.92726 -4.65696 0
M  V30 3129 H 289.623 0.47513 -3.7097 0
M  V30 3130 H 291.915 2.06925 -6.45126 0
M  V30 3131 H 292.858 0.667344 -7.04948 0
M  V30 3132 H 293.266 1.3987 -5.46897 0
M  V30 3133 N 292.664 1.56529 -0.183458 0
M  V30 3134 C 293.594 2.21549 0.737456 0
M  V30 3135 C 294.575 1.17489 1.23005 0
M  V30 3136 O 295.76 1.45959 1.281 0
M  V30 3137 C 292.89 2.86575 1.96194 0
M  V30 3138 C 291.844 3.96778 1.60473 0
M  V30 3139 C 291.17 4.48911 2.90487 0
M  V30 3140 C 292.47 5.15767 0.823497 0
M  V30 3141 H 294.164 2.98761 0.195453 0
M  V30 3142 H 291.71 1.43702 0.0925686 0
M  V30 3143 H 293.663 3.30739 2.61131 0
M  V30 3144 H 292.387 2.06749 2.52828 0
M  V30 3145 H 291.046 3.53286 0.978997 0
M  V30 3146 H 290.694 3.65862 3.45186 0
M  V30 3147 H 290.394 5.23265 2.67335 0
M  V30 3148 H 291.918 4.95771 3.56432 0
M  V30 3149 H 293.332 5.56549 1.37571 0
M  V30 3150 H 291.729 5.96114 0.690551 0
M  V30 3151 H 292.799 4.84574 -0.177782 0
M  V30 3152 N 294.142 -0.090211 1.57342 0
M  V30 3153 C 295.092 -1.11557 1.98844 0
M  V30 3154 C 296.076 -1.35503 0.867624 0
M  V30 3155 O 297.268 -1.36113 1.13148 0
M  V30 3156 C 294.397 -2.43446 2.42051 0
M  V30 3157 C 293.483 -2.22853 3.60828 0
M  V30 3158 N 293.874 -1.72141 4.75606 0
M  V30 3159 C 292.172 -2.53401 3.67021 0
M  V30 3160 C 292.873 -1.65932 5.57531 0
M  V30 3161 N 291.849 -2.11323 5.00843 0
M  V30 3162 H 295.651 -0.716499 2.85032 0
M  V30 3163 H 293.165 -0.297567 1.59651 0
M  V30 3164 H 295.162 -3.17644 2.70014 0
M  V30 3165 H 293.822 -2.84087 1.57241 0
M  V30 3166 H 294.833 -1.41268 4.98261 0
M  V30 3167 H 291.51 -2.97532 2.92884 0
M  V30 3168 H 292.9 -1.27733 6.59647 0
M  V30 3169 N 295.62 -1.53406 -0.361157 0
M  V30 3170 C 296.867 -1.69802 -1.10333 0
M  V30 3171 C 297.195 -0.452087 -1.89173 0
M  V30 3172 O 296.45 0.566017 -1.87336 0
M  V30 3173 C 296.749 -2.90211 -2.08596 0
M  V30 3174 C 296.415 -4.26539 -1.46203 0
M  V30 3175 C 295.077 -4.6361 -1.28915 0
M  V30 3176 C 297.429 -5.113 -1.01101 0
M  V30 3177 C 294.757 -5.83075 -0.651157 0
M  V30 3178 C 297.109 -6.31415 -0.387007 0
M  V30 3179 C 295.773 -6.67195 -0.201657 0
M  V30 3180 H 295.043 -0.621351 -0.403737 0
M  V30 3181 H 297.69 -1.87598 -0.384609 0
M  V30 3182 H 295.995 -2.66946 -2.86788 0
M  V30 3183 H 297.692 -3.00091 -2.65982 0
M  V30 3184 H 294.282 -3.97352 -1.60653 0
M  V30 3185 H 298.466 -4.83206 -1.13249 0
M  V30 3186 H 293.722 -6.09385 -0.496006 0
M  V30 3187 H 297.896 -6.96394 -0.0293563 0
M  V30 3188 H 295.523 -7.59628 0.294766 0
M  V30 3189 N 297.098 0.621204 -1.44841 0
M  V30 3190 C 298.514 0.94048 -1.28946 0
M  V30 3191 C 298.714 2.00154 -0.23249 0
M  V30 3192 O 297.77 2.49651 0.378237 0
M  V30 3193 C 299.083 1.39433 -2.66419 0
M  V30 3194 C 300.631 1.50927 -2.74208 0
M  V30 3195 C 301.106 1.99692 -4.12174 0
M  V30 3196 N 302.597 2.06947 -4.144 0
M  V30 3197 C 303.332 2.45871 -5.1801 0
M  V30 3198 N 302.828 2.83862 -6.31977 0
M  V30 3199 N 304.621 2.46092 -5.05366 0
M  V30 3200 H 296.772 -0.0803548 -2.12248 0
M  V30 3201 H 299.035 0.0266913 -0.947624 0
M  V30 3202 H 298.741 0.688925 -3.44887 0
M  V30 3203 H 298.615 2.36347 -2.93973 0
M  V30 3204 H 301.002 2.20561 -1.96053 0
M  V30 3205 H 301.083 0.523627 -2.50383 0
M  V30 3206 H 300.727 1.30649 -4.90809 0
M  V30 3207 H 300.657 2.99146 -4.33381 0
M  V30 3208 H 303.148 1.80232 -3.32152 0
M  V30 3209 H 303.461 3.12405 -7.0684 0
M  V30 3210 H 301.806 2.8159 -6.35399 0
M  V30 3211 H 304.997 2.1581 -4.15384 0
M  V30 3212 H 305.17 2.76102 -5.86235 0
M  V30 3213 N 298.576 1.31904 0.862503 0
M  V30 3214 C 299.822 1.23207 1.61838 0
M  V30 3215 C 300.177 -0.206062 1.91293 0
M  V30 3216 O 299.47 -1.14162 1.53875 0
M  V30 3217 C 299.664 2.01713 2.95037 0
M  V30 3218 C 299.493 3.53014 2.78588 0
M  V30 3219 C 298.263 4.22359 2.77382 0
M  V30 3220 C 300.461 4.47819 2.52909 0
M  V30 3221 N 298.443 5.59766 2.52062 0
M  V30 3222 C 299.814 5.72947 2.36922 0
M  V30 3223 C 301.869 4.37162 2.38314 0
M  V30 3224 C 300.572 6.88623 2.07823 0
M  V30 3225 C 302.598 5.5263 2.10604 0
M  V30 3226 C 301.96 6.76752 1.95411 0
M  V30 3227 H 298.059 0.505984 0.596242 0
M  V30 3228 H 300.643 1.66179 1.01452 0
M  V30 3229 H 298.814 1.61098 3.53415 0
M  V30 3230 H 300.546 1.84975 3.59953 0
M  V30 3231 H 297.301 3.74401 2.90036 0
M  V30 3232 H 297.725 6.32135 2.42352 0
M  V30 3233 H 302.367 3.41857 2.48784 0
M  V30 3234 H 300.085 7.83948 1.9609 0
M  V30 3235 H 303.671 5.46307 2.00101 0
M  V30 3236 H 302.551 7.6459 1.74274 0
M  V30 3237 N 300.054 -1.07777 1.14986 0
M  V30 3238 C 301.002 -2.16964 0.838406 0
M  V30 3239 C 301.996 -1.68372 -0.186386 0
M  V30 3240 O 303.202 -1.79951 -0.0418465 0
M  V30 3241 H 299.577 -0.708006 0.253439 0
M  V30 3242 H 301.548 -2.40454 1.76704 0
M  V30 3243 C 300.297 -3.4604 0.339335 0
M  V30 3244 H 299.62 -3.83813 1.11927 0
M  V30 3245 H 301.06 -4.23698 0.160021 0
M  V30 3246 C 299.519 -3.23569 -0.938325 0
M  V30 3247 O 300.049 -3.47752 -2.01077 0
M  V30 3248 N 298.255 -2.77079 -0.876117 0
M  V30 3249 H 297.802 -2.576 -0.00322037 0
M  V30 3250 H 297.76 -2.62422 -1.73153 0
M  V30 3251 N 301.532 -0.945985 -1.26051 0
M  V30 3252 C 302.778 -0.606539 -1.94146 0
M  V30 3253 C 303.133 0.84586 -1.72809 0
M  V30 3254 O 302.426 1.59781 -1.05738 0
M  V30 3255 C 302.62 -0.890475 -3.46129 0
M  V30 3256 C 302.449 -2.36892 -3.82246 0
M  V30 3257 C 301.219 -3.02494 -4.04753 0
M  V30 3258 C 303.417 -3.34772 -3.90425 0
M  V30 3259 N 301.399 -4.40302 -4.27794 0
M  V30 3260 C 302.77 -4.57855 -4.18054 0
M  V30 3261 C 304.825 -3.2973 -3.73072 0
M  V30 3262 C 303.528 -5.76522 -4.30134 0
M  V30 3263 C 305.554 -4.47727 -3.86386 0
M  V30 3264 C 304.916 -5.69593 -4.14419 0
M  V30 3265 H 301.015 -0.272407 -0.73302 0
M  V30 3266 H 303.599 -1.21638 -1.52027 0
M  V30 3267 H 301.77 -0.309638 -3.87164 0
M  V30 3268 H 303.502 -0.51181 -4.01451 0
M  V30 3269 H 300.257 -2.53095 -4.003 0
M  V30 3270 H 300.681 -5.11646 -4.43337 0
M  V30 3271 H 305.323 -2.36565 -3.50424 0
M  V30 3272 H 303.041 -6.70136 -4.51601 0
M  V30 3273 H 306.627 -4.45363 -3.74356 0
M  V30 3274 H 305.507 -6.59375 -4.24493 0
M  V30 3275 N 303.011 1.40521 -0.713556 0
M  V30 3276 C 304.26 2.00155 -0.249192 0
M  V30 3277 C 304.573 1.57224 1.16362 0
M  V30 3278 O 305.779 2.09542 1.72639 0
M  V30 3279 C 304.235 3.5773 -0.3946 0
M  V30 3280 C 303.843 4.09635 -1.81392 0
M  V30 3281 C 305.587 4.24499 0.00907364 0
M  V30 3282 C 303.494 5.59707 -1.91003 0
M  V30 3283 H 302.424 0.74868 -0.0894114 0
M  V30 3284 H 305.075 1.60784 -0.884352 0
M  V30 3285 H 303.457 3.94792 0.30911 0
M  V30 3286 H 304.631 3.83955 -2.54785 0
M  V30 3287 H 302.946 3.55456 -2.16888 0
M  V30 3288 H 305.543 5.34683 -0.0420404 0
M  V30 3289 H 305.886 4.02824 1.05065 0
M  V30 3290 H 306.419 3.92536 -0.645007 0
M  V30 3291 H 303.158 5.86234 -2.93275 0
M  V30 3292 H 302.678 5.87258 -1.22019 0
M  V30 3293 H 304.357 6.24776 -1.6812 0
M  V30 3294 N 304.489 0.459591 1.5075 0
M  V30 3295 C 305.738 -0.100971 2.01447 0
M  V30 3296 C 306.051 -1.41816 1.34713 0
M  V30 3297 O 307.257 -2.06299 1.76502 0
M  V30 3298 C 305.713 -0.23047 3.59161 0
M  V30 3299 C 305.321 1.0776 4.34847 0
M  V30 3300 C 307.065 -0.743608 4.17936 0
M  V30 3301 C 304.972 0.91253 5.84317 0
M  V30 3302 H 303.902 -0.0415102 0.752856 0
M  V30 3303 H 306.553 0.592742 1.73663 0
M  V30 3304 H 304.935 -0.987703 3.83485 0
M  V30 3305 H 306.109 1.8449 4.22256 0
M  V30 3306 H 304.424 1.52097 3.87628 0
M  V30 3307 H 307.021 -0.883959 5.27343 0
M  V30 3308 H 307.364 -1.73196 3.78562 0
M  V30 3309 H 307.897 -0.04408 3.97776 0
M  V30 3310 H 304.636 1.87391 6.28144 0
M  V30 3311 H 304.156 0.185422 5.99513 0
M  V30 3312 H 305.835 0.574547 6.44444 0
M  V30 3313 N 305.967 -1.56429 0.191757 0
M  V30 3314 C 307.213 -1.97777 -0.448554 0
M  V30 3315 C 307.546 -1.07847 -1.61501 0
M  V30 3316 O 306.821 -0.129774 -1.94067 0
M  V30 3317 C 307.104 -3.48362 -0.911906 0
M  V30 3318 C 306.957 -4.4907 0.256136 0
M  V30 3319 C 308.276 -4.02561 -1.77857 0
M  V30 3320 H 305.395 -0.719071 -0.161572 0
M  V30 3321 H 308.037 -1.87896 0.282007 0
M  V30 3322 H 306.187 -3.56914 -1.53442 0
M  V30 3323 H 307.859 -4.5256 0.893733 0
M  V30 3324 H 306.102 -4.24181 0.908436 0
M  V30 3325 H 306.773 -5.51889 -0.11053 0
M  V30 3326 H 309.249 -3.96767 -1.25359 0
M  V30 3327 H 308.125 -5.08301 -2.07174 0
M  V30 3328 H 308.386 -3.47616 -2.73158 0
M  V30 3329 N 307.445 0.0818655 -1.57387 0
M  V30 3330 C 308.375 1.09885 -2.06028 0
M  V30 3331 C 309.356 1.4098 -0.951774 0
M  V30 3332 O 310.541 1.50781 -1.22387 0
M  V30 3333 C 307.671 2.4151 -2.4958 0
M  V30 3334 C 306.625 2.24792 -3.64215 0
M  V30 3335 C 305.951 3.61712 -3.93787 0
M  V30 3336 C 307.251 1.67749 -4.94629 0
M  V30 3337 H 308.945 0.694128 -2.91243 0
M  V30 3338 H 306.491 0.332448 -1.4011 0
M  V30 3339 H 308.444 3.12939 -2.82219 0
M  V30 3340 H 307.168 2.83943 -1.61381 0
M  V30 3341 H 305.827 1.55807 -3.31843 0
M  V30 3342 H 305.475 4.01697 -3.02735 0
M  V30 3343 H 305.175 3.51368 -4.70971 0
M  V30 3344 H 306.699 4.34587 -4.28913 0
M  V30 3345 H 308.113 2.29032 -5.25564 0
M  V30 3346 H 306.51 1.68128 -5.76067 0
M  V30 3347 H 307.58 0.638059 -4.80684 0
M  V30 3348 N 308.923 1.53595 0.353017 0
M  V30 3349 C 310.169 1.70638 1.09593 0
M  V30 3350 C 310.502 0.463286 1.88593 0
M  V30 3351 O 309.777 -0.539597 1.86865 0
M  V30 3352 C 310.06 2.96406 2.04489 0
M  V30 3353 C 309.913 4.30901 1.29014 0
M  V30 3354 C 311.232 3.17812 3.0444 0
M  V30 3355 H 308.351 0.620913 0.397034 0
M  V30 3356 H 310.993 1.86254 0.375446 0
M  V30 3357 H 309.143 2.83223 2.65927 0
M  V30 3358 H 310.815 4.55917 0.702638 0
M  V30 3359 H 309.058 4.29741 0.592071 0
M  V30 3360 H 309.729 5.1506 1.98537 0
M  V30 3361 H 312.205 3.30263 2.53112 0
M  V30 3362 H 311.081 4.07223 3.6805 0
M  V30 3363 H 311.342 2.33669 3.75301 0
M  V30 3364 N 310.401 -0.613514 1.45168 0
M  V30 3365 C 311.626 -1.40437 1.52618 0
M  V30 3366 C 312.051 -1.87438 0.157707 0
M  V30 3367 O 311.409 -1.59791 -0.856537 0
M  V30 3368 C 311.457 -2.58894 2.51011 0
M  V30 3369 O 310.561 -3.59326 2.02382 0
M  V30 3370 H 309.902 -0.419506 0.514695 0
M  V30 3371 H 312.432 -0.747215 1.90467 0
M  V30 3372 H 312.442 -3.06214 2.69624 0
M  V30 3373 H 311.117 -2.24032 3.50403 0
M  V30 3374 H 309.694 -3.18695 1.93618 0
M  V30 3375 N 311.879 -1.3236 -0.855495 0
M  V30 3376 C 313.104 -1.2601 -1.64731 0
M  V30 3377 C 313.529 0.169068 -1.87339 0
M  V30 3378 O 312.887 1.12016 -1.42556 0
M  V30 3379 C 312.935 -2.02417 -2.98429 0
M  V30 3380 O 312.039 -1.3714 -3.8893 0
M  V30 3381 H 311.38 -0.434325 -0.502253 0
M  V30 3382 H 313.91 -1.74661 -1.06558 0
M  V30 3383 H 313.92 -2.12559 -3.48257 0
M  V30 3384 H 312.595 -3.06343 -2.81295 0
M  V30 3385 H 311.172 -1.3554 -3.47395 0
M  V30 3386 N 313.357 1.07166 -1.15556 0
M  V30 3387 C 314.634 1.76546 -0.842069 0
M  V30 3388 C 315.014 2.00453 0.661939 0
M  V30 3389 O 314.362 1.62452 1.60691 0
M  V30 3390 C 314.572 3.07266 -1.65495 0
M  V30 3391 C 315.92 3.81578 -1.86234 0
M  V30 3392 O 316.944 3.17083 -1.62287 0
M  V30 3393 O 315.803 4.97419 -2.26355 0
M  V30 3394 H 312.897 0.766756 -0.309862 0
M  V30 3395 H 315.443 1.13514 -1.26145 0
M  V30 3396 H 314.215 2.85494 -2.67598 0
M  V30 3397 H 313.838 3.7803 -1.23203 0
M  V30 3398 N 314.835 0.952656 1.25548 0
M  V30 3399 C 316.063 0.623496 1.97282 0
M  V30 3400 C 316.478 -0.803987 1.70826 0
M  V30 3401 O 315.835 -1.53755 0.983147 0
M  V30 3402 C 315.886 0.870209 3.5087 0
M  V30 3403 O 315.607 2.24156 3.76412 0
M  V30 3404 C 317.108 0.553164 4.39835 0
M  V30 3405 H 314.328 0.233931 0.628902 0
M  V30 3406 H 316.872 1.27649 1.59768 0
M  V30 3407 H 315.027 0.263652 3.86502 0
M  V30 3408 H 315.441 2.31021 4.70882 0
M  V30 3409 H 316.915 0.776342 5.46513 0
M  V30 3410 H 317.392 -0.512215 4.36203 0
M  V30 3411 H 317.998 1.13896 4.09766 0
M  V30 3412 N 316.313 -1.40141 0.720998 0
M  V30 3413 C 317.543 -2.04798 0.27226 0
M  V30 3414 C 317.951 -1.54442 -1.09289 0
M  V30 3415 O 317.294 -0.698342 -1.69908 0
M  V30 3416 C 317.356 -3.59048 0.18027 0
M  V30 3417 C 317.02 -4.32317 1.48159 0
M  V30 3418 C 318.017 -4.59902 2.42458 0
M  V30 3419 C 315.702 -4.71125 1.74202 0
M  V30 3420 C 317.696 -5.25288 3.61042 0
M  V30 3421 C 315.383 -5.36242 2.93066 0
M  V30 3422 C 316.381 -5.63254 3.86308 0
M  V30 3423 O 316.069 -6.27024 5.03086 0
M  V30 3424 H 315.801 -0.665419 0.119139 0
M  V30 3425 H 318.355 -1.80436 0.981432 0
M  V30 3426 H 316.585 -3.82251 -0.58489 0
M  V30 3427 H 318.274 -4.05221 -0.234618 0
M  V30 3428 H 319.04 -4.30379 2.23604 0
M  V30 3429 H 314.919 -4.49466 1.02477 0
M  V30 3430 H 318.463 -5.46289 4.33837 0
M  V30 3431 H 314.36 -5.65185 3.11826 0
M  V30 3432 H 315.128 -6.4552 5.03235 0
M  V30 3433 N 317.792 -0.46758 -1.50504 0
M  V30 3434 C 319.04 0.0884469 -2.01906 0
M  V30 3435 C 319.361 1.40532 -1.35188 0
M  V30 3436 O 318.631 1.89515 -0.496079 0
M  V30 3437 H 317.211 0.0356765 -0.746148 0
M  V30 3438 H 319.873 -0.6172 -1.84869 0
M  V30 3439 H 318.969 0.2425 -3.11156 0
M  V30 3440 N 319.27 1.56325 -0.20005 0
M  V30 3441 C 320.686 1.58839 0.155716 0
M  V30 3442 C 320.886 1.21636 1.60645 0
M  V30 3443 O 319.942 0.941437 2.34293 0
M  V30 3444 C 321.255 3.0032 -0.151124 0
M  V30 3445 C 322.803 3.12866 -0.0916284 0
M  V30 3446 C 323.278 4.56488 -0.371845 0
M  V30 3447 N 324.769 4.62089 -0.320641 0
M  V30 3448 C 325.504 5.71116 -0.511243 0
M  V30 3449 N 325 6.88592 -0.762461 0
M  V30 3450 N 326.793 5.60335 -0.445157 0
M  V30 3451 H 318.944 1.78788 -1.14668 0
M  V30 3452 H 321.207 0.829996 -0.458051 0
M  V30 3453 H 320.913 3.32117 -1.15721 0
M  V30 3454 H 320.787 3.73257 0.543986 0
M  V30 3455 H 323.174 2.80878 0.905065 0
M  V30 3456 H 323.255 2.42304 -0.81989 0
M  V30 3457 H 322.899 4.89189 -1.36588 0
M  V30 3458 H 322.829 5.25246 0.377362 0
M  V30 3459 H 325.32 3.77665 -0.13329 0
M  V30 3460 H 325.633 7.67581 -0.896576 0
M  V30 3461 H 323.978 6.90387 -0.799412 0
M  V30 3462 H 327.169 4.67436 -0.249278 0
M  V30 3463 H 327.342 6.45243 -0.597116 0
M  V30 3464 N 320.748 -0.0735177 1.57428 0
M  V30 3465 C 322.025 -0.805903 1.78226 0
M  V30 3466 C 322.405 -1.95874 0.787189 0
M  V30 3467 O 321.753 -2.2779 -0.180029 0
M  V30 3468 C 321.963 -1.28045 3.24662 0
M  V30 3469 C 323.311 -1.71453 3.88444 0
M  V30 3470 O 324.335 -1.37616 3.28543 0
M  V30 3471 O 323.194 -2.34093 4.93825 0
M  V30 3472 H 320.288 -0.386041 0.73137 0
M  V30 3473 H 322.834 -0.0537269 1.69615 0
M  V30 3474 H 321.606 -0.455476 3.8864 0
M  V30 3475 H 321.229 -2.094 3.37991 0
M  V30 3476 N 322.226 -1.5378 -0.344866 0
M  V30 3477 C 323.174 -1.82373 -1.4437 0
M  V30 3478 C 324.168 -0.694128 -1.54526 0
M  V30 3479 O 325.374 -0.877442 -1.57165 0
M  V30 3480 H 321.749 -0.577765 -0.481344 0
M  V30 3481 H 323.72 -2.74306 -1.17468 0
M  V30 3482 C 322.469 -2.04898 -2.80913 0
M  V30 3483 H 321.792 -2.9127 -2.73865 0
M  V30 3484 H 323.232 -2.28871 -3.56923 0
M  V30 3485 C 321.691 -0.834116 -3.26411 0
M  V30 3486 O 322.221 -0.0328885 -4.01687 0
M  V30 3487 N 320.427 -0.65171 -2.83198 0
M  V30 3488 H 319.974 -1.30489 -2.22104 0
M  V30 3489 H 319.932 0.159686 -3.13994 0
M  V30 3490 N 323.704 0.605807 -1.45491 0
M  V30 3491 C 324.952 1.36207 -1.49305 0
M  V30 3492 C 325.273 1.94519 -0.136863 0
M  V30 3493 O 324.543 1.77261 0.833983 0
M  V30 3494 H 323.123 0.50565 -0.549843 0
M  V30 3495 H 325.785 0.711239 -1.81459 0
M  V30 3496 H 324.881 2.18058 -2.23287 0
M  V30 3497 N 325.182 1.32811 0.848464 0
M  V30 3498 C 326.114 1.18095 1.96433 0
M  V30 3499 C 327.127 0.114354 1.62398 0
M  V30 3500 O 328.316 0.363892 1.74751 0
M  V30 3501 C 325.416 0.786798 3.2964 0
M  V30 3502 C 324.589 1.943 3.91875 0
M  V30 3503 C 323.648 1.53138 5.03423 0
M  V30 3504 O 322.674 2.24432 5.23086 0
M  V30 3505 N 323.876 0.430915 5.78898 0
M  V30 3506 H 326.641 2.14218 2.09597 0
M  V30 3507 H 324.202 1.2543 1.02367 0
M  V30 3508 H 326.194 0.493715 4.01677 0
M  V30 3509 H 324.764 -0.0834541 3.12489 0
M  V30 3510 H 323.984 2.40224 3.12547 0
M  V30 3511 H 325.272 2.71689 4.30189 0
M  V30 3512 H 324.67 -0.162333 5.65467 0
M  V30 3513 H 323.227 0.197466 6.51501 0
M  V30 3514 N 326.66 -1.06551 1.16123 0
M  V30 3515 C 327.59 -2.15935 0.88851 0
M  V30 3516 C 328.571 -1.69306 -0.164135 0
M  V30 3517 O 329.756 -1.94193 -0.0167857 0
M  V30 3518 C 326.886 -3.45149 0.385942 0
M  V30 3519 C 325.84 -4.05271 1.3762 0
M  V30 3520 C 325.166 -5.29664 0.732137 0
M  V30 3521 C 326.466 -4.44355 2.74493 0
M  V30 3522 H 328.16 -2.39006 1.80323 0
M  V30 3523 H 325.706 -1.14866 0.868435 0
M  V30 3524 H 327.659 -4.21004 0.182647 0
M  V30 3525 H 326.383 -3.21689 -0.564274 0
M  V30 3526 H 325.042 -3.3147 1.56599 0
M  V30 3527 H 324.69 -5.02499 -0.224483 0
M  V30 3528 H 324.39 -5.70848 1.39307 0
M  V30 3529 H 325.914 -6.08218 0.538802 0
M  V30 3530 H 327.328 -5.11303 2.59311 0
M  V30 3531 H 325.725 -4.96515 3.37035 0
M  V30 3532 H 326.795 -3.55339 3.29943 0
M  V30 3533 N 328.138 -0.959301 -1.25041 0
M  V30 3534 C 329.068 -0.501388 -2.28053 0
M  V30 3535 C 330.049 0.454673 -1.63911 0
M  V30 3536 O 331.234 0.352618 -1.90972 0
M  V30 3537 C 328.364 0.217224 -3.4662 0
M  V30 3538 C 327.318 -0.654034 -4.22973 0
M  V30 3539 C 326.644 0.195589 -5.34342 0
M  V30 3540 C 327.944 -1.93447 -4.85155 0
M  V30 3541 H 329.638 -1.36238 -2.66608 0
M  V30 3542 H 327.184 -0.656534 -1.28163 0
M  V30 3543 H 329.137 0.548732 -4.17812 0
M  V30 3544 H 327.861 1.1125 -3.07068 0
M  V30 3545 H 326.52 -0.968693 -3.5357 0
M  V30 3546 H 326.168 1.09076 -4.91031 0
M  V30 3547 H 325.868 -0.384091 -5.86343 0
M  V30 3548 H 327.392 0.521958 -6.08365 0
M  V30 3549 H 328.806 -1.66908 -5.48466 0
M  V30 3550 H 327.203 -2.46018 -5.47353 0
M  V30 3551 H 328.273 -2.63466 -4.07079 0
M  V30 3552 N 329.616 1.39756 -0.72842 0
M  V30 3553 C 330.864 2.00248 -0.272946 0
M  V30 3554 C 331.185 1.58077 1.14178 0
M  V30 3555 O 330.455 0.826014 1.77634 0
M  V30 3556 H 329.035 0.740554 -0.0979247 0
M  V30 3557 H 331.697 1.70903 -0.936912 0
M  V30 3558 H 330.793 3.10495 -0.316142 0
M  V30 3559 N 331.094 0.475555 1.50254 0
M  V30 3560 C 332.004 -0.321501 2.32387 0
M  V30 3561 C 333.02 -0.991755 1.42969 0
M  V30 3562 O 334.196 -0.978747 1.76018 0
M  V30 3563 C 331.261 -1.38667 3.17762 0
M  V30 3564 C 330.322 -0.732538 4.23004 0
M  V30 3565 C 329.555 -1.74695 5.04299 0
M  V30 3566 O 329.778 -2.97399 4.86734 0
M  V30 3567 O 328.712 -1.31631 5.8733 0
M  V30 3568 H 332.538 0.350071 3.01676 0
M  V30 3569 H 330.123 0.237321 1.47503 0
M  V30 3570 H 332.005 -2.00354 3.70724 0
M  V30 3571 H 330.68 -2.04163 2.51196 0
M  V30 3572 H 329.587 -0.0765902 3.74022 0
M  V30 3573 H 330.92 -0.120452 4.92053 0
M  V30 3574 N 332.573 -1.56217 0.208337 0
M  V30 3575 C 333.989 -1.58919 -0.14729 0
M  V30 3576 C 334.189 -1.22486 -1.59998 0
M  V30 3577 O 333.245 -0.953849 -2.3379 0
M  V30 3578 C 334.558 -3.00236 0.167048 0
M  V30 3579 C 336.106 -3.12813 0.108219 0
M  V30 3580 C 336.581 -4.56284 0.396049 0
M  V30 3581 N 338.072 -4.61912 0.345142 0
M  V30 3582 C 338.807 -5.70837 0.541523 0
M  V30 3583 N 338.303 -6.88178 0.798968 0
M  V30 3584 N 340.096 -5.60091 0.474867 0
M  V30 3585 H 332.247 -1.78177 1.15614 0
M  V30 3586 H 334.51 -0.827555 0.462446 0
M  V30 3587 H 334.216 -3.31499 1.1748 0
M  V30 3588 H 334.09 -3.7354 -0.524184 0
M  V30 3589 H 336.477 -2.81354 -0.890157 0
M  V30 3590 H 336.558 -2.41866 0.832729 0
M  V30 3591 H 336.202 -4.88458 1.3918 0
M  V30 3592 H 336.132 -5.25439 -0.349502 0
M  V30 3593 H 338.623 -3.77589 0.153316 0
M  V30 3594 H 338.936 -7.67095 0.93727 0
M  V30 3595 H 337.281 -6.89953 0.836013 0
M  V30 3596 H 340.472 -4.67297 0.274064 0
M  V30 3597 H 340.645 -6.44917 0.631326 0
M  V30 3598 N 334.051 0.0651679 -1.57465 0
M  V30 3599 C 335.297 0.764193 -1.87851 0
M  V30 3600 C 335.63 1.76889 -0.801495 0
M  V30 3601 O 334.905 1.93594 0.187528 0
M  V30 3602 C 335.188 1.46625 -3.28897 0
M  V30 3603 C 335.041 0.477515 -4.47258 0
M  V30 3604 C 336.36 2.4095 -3.68281 0
M  V30 3605 H 333.479 0.276351 -0.683227 0
M  V30 3606 H 336.121 0.0272868 -1.8998 0
M  V30 3607 H 334.271 2.09438 -3.27212 0
M  V30 3608 H 335.943 -0.145922 -4.61069 0
M  V30 3609 H 334.186 -0.206576 -4.33308 0
M  V30 3610 H 334.857 1.0065 -5.42746 0
M  V30 3611 H 337.333 1.88209 -3.71102 0
M  V30 3612 H 336.209 2.87072 -4.67847 0
M  V30 3613 H 336.47 3.26049 -2.98571 0
M  V30 3614 N 335.529 1.53961 0.336706 0
M  V30 3615 C 336.492 1.81724 1.39675 0
M  V30 3616 C 337.492 0.688532 1.45313 0
M  V30 3617 O 338.682 0.956829 1.45569 0
M  V30 3618 C 335.814 1.96543 2.78538 0
M  V30 3619 H 337.007 2.76424 1.16318 0
M  V30 3620 H 334.56 1.45478 0.571474 0
M  V30 3621 H 335.295 1.0401 3.07168 0
M  V30 3622 H 335.08 2.78665 2.75841 0
M  V30 3623 H 336.57 2.19516 3.5525 0
M  V30 3624 N 337.007 -0.598083 1.45811 0
M  V30 3625 C 338.423 -0.919847 1.30426 0
M  V30 3626 C 338.623 -1.99759 0.264303 0
M  V30 3627 O 337.679 -2.50221 -0.338472 0
M  V30 3628 C 338.992 -1.35176 2.68603 0
M  V30 3629 C 340.54 -1.46546 2.76574 0
M  V30 3630 C 341.015 -1.9311 4.15298 0
M  V30 3631 N 342.506 -2.00328 4.1764 0
M  V30 3632 C 343.241 -2.37599 5.21856 0
M  V30 3633 N 342.737 -2.73771 6.36413 0
M  V30 3634 N 344.53 -2.38021 5.09218 0
M  V30 3635 H 336.681 0.114111 2.12093 0
M  V30 3636 H 338.944 -0.0116121 0.947929 0
M  V30 3637 H 338.65 -0.633969 3.45939 0
M  V30 3638 H 338.524 -2.3164 2.97696 0
M  V30 3639 H 340.911 -2.17415 1.99537 0
M  V30 3640 H 340.992 -0.483727 2.51185 0
M  V30 3641 H 340.636 -1.22824 4.92825 0
M  V30 3642 H 340.566 -2.92213 4.38086 0
M  V30 3643 H 343.057 -1.74925 3.34977 0
M  V30 3644 H 343.37 -3.0112 7.11721 0
M  V30 3645 H 341.715 -2.71445 6.39799 0
M  V30 3646 H 344.906 -2.09174 4.18765 0
M  V30 3647 H 345.079 -2.66741 5.90554 0
M  V30 3648 N 338.485 -1.33259 -0.841409 0
M  V30 3649 C 339.901 -1.12538 -1.13169 0
M  V30 3650 C 340.101 0.0854037 -2.01319 0
M  V30 3651 O 339.157 0.766417 -2.40587 0
M  V30 3652 C 340.47 -2.41156 -1.79623 0
M  V30 3653 C 342.018 -2.47038 -1.922 0
M  V30 3654 C 342.493 -3.7561 -2.6207 0
M  V30 3655 N 343.984 -3.76667 -2.69585 0
M  V30 3656 C 344.719 -4.72861 -3.2433 0
M  V30 3657 N 344.215 -5.79428 -3.79783 0
M  V30 3658 N 346.008 -4.6034 -3.22558 0
M  V30 3659 H 338.159 -2.10868 -0.254676 0
M  V30 3660 H 340.422 -0.931615 -0.175493 0
M  V30 3661 H 340.128 -3.29747 -1.22311 0
M  V30 3662 H 340.002 -2.53114 -2.79666 0
M  V30 3663 H 342.389 -1.58898 -2.48667 0
M  V30 3664 H 342.47 -2.39022 -0.911148 0
M  V30 3665 H 342.114 -4.64131 -2.06263 0
M  V30 3666 H 342.044 -3.80902 -3.63622 0
M  V30 3667 H 344.535 -2.99648 -2.30259 0
M  V30 3668 H 344.848 -6.48867 -4.19752 0
M  V30 3669 H 343.193 -5.83166 -3.78078 0
M  V30 3670 H 346.384 -3.76244 -2.78492 0
M  V30 3671 H 346.557 -5.35478 -3.64921 0
M  V30 3672 N 339.963 1.05934 -1.16686 0
M  V30 3673 C 341.24 1.75643 -0.860747 0
M  V30 3674 C 341.62 2.01144 0.640641 0
M  V30 3675 O 340.968 1.64147 1.58959 0
M  V30 3676 C 341.178 3.05493 -1.68745 0
M  V30 3677 C 342.526 3.79581 -1.90271 0
M  V30 3678 O 343.55 3.15344 -1.65641 0
M  V30 3679 O 342.409 4.9499 -2.31618 0
M  V30 3680 H 339.503 0.763426 -0.317977 0
M  V30 3681 H 342.049 1.1217 -1.27342 0
M  V30 3682 H 340.821 2.8264 -2.70611 0
M  V30 3683 H 340.444 3.76702 -1.27206 0
M  V30 3684 N 341.441 0.965919 1.2453 0
M  V30 3685 C 342.69 0.622437 1.91856 0
M  V30 3686 C 343.003 -0.846006 1.76358 0
M  V30 3687 O 344.209 -1.29993 2.38357 0
M  V30 3688 C 342.665 1.0626 3.43856 0
M  V30 3689 C 342.273 2.55437 3.68043 0
M  V30 3690 C 344.017 0.792183 4.17043 0
M  V30 3691 C 341.924 2.93196 5.13605 0
M  V30 3692 H 340.854 0.229092 0.718354 0
M  V30 3693 H 343.505 1.17189 1.41206 0
M  V30 3694 H 341.887 0.441476 3.93531 0
M  V30 3695 H 343.061 3.22665 3.28974 0
M  V30 3696 H 341.376 2.8007 3.08139 0
M  V30 3697 H 343.973 1.05031 5.24283 0
M  V30 3698 H 344.316 -0.271584 4.15413 0
M  V30 3699 H 344.849 1.37419 3.73311 0
M  V30 3700 H 341.588 3.98636 5.20355 0
M  V30 3701 H 341.108 2.30651 5.53679 0
M  V30 3702 H 342.787 2.83004 5.81823 0
M  V30 3703 N 342.919 -1.39368 0.735821 0
M  V30 3704 C 344.159 -2.02349 0.288813 0
M  V30 3705 C 344.523 -1.57127 -1.10341 0
M  V30 3706 O 345.724 -2.12312 -1.64854 0
M  V30 3707 C 343.995 -3.55288 0.387986 0
M  V30 3708 S 345.554 -4.38795 0.0209408 0
M  V30 3709 H 342.372 -0.701944 0.113115 0
M  V30 3710 H 344.974 -1.70164 0.962518 0
M  V30 3711 H 343.678 -3.85691 1.40252 0
M  V30 3712 H 343.209 -3.92227 -0.303512 0
M  V30 3713 H 345.224 -4.81595 -1.19503 0
M  V30 3714 N 344.397 -0.483516 -1.5 0
M  V30 3715 C 345.646 0.0689102 -2.01582 0
M  V30 3716 C 345.959 1.39655 -1.36952 0
M  V30 3717 O 347.165 2.03465 -1.79762 0
M  V30 3718 C 345.621 0.173302 -3.59483 0
M  V30 3719 C 345.229 -1.14665 -4.33077 0
M  V30 3720 C 346.973 0.677024 -4.19066 0
M  V30 3721 C 344.88 -1.00537 -5.82792 0
M  V30 3722 H 343.81 0.0295277 -0.753422 0
M  V30 3723 H 346.461 -0.620295 -1.72698 0
M  V30 3724 H 344.843 0.926569 -3.85007 0
M  V30 3725 H 346.017 -1.91184 -4.19268 0
M  V30 3726 H 344.332 -1.58244 -3.85159 0
M  V30 3727 H 346.929 0.799952 -5.28682 0
M  V30 3728 H 347.272 1.67151 -3.81269 0
M  V30 3729 H 347.805 -0.0192083 -3.97795 0
M  V30 3730 H 344.544 -1.9736 -6.25083 0
M  V30 3731 H 344.064 -0.280776 -5.99142 0
M  V30 3732 H 345.743 -0.677 -6.43448 0
M  V30 3733 N 345.875 1.56104 -0.216619 0
M  V30 3734 C 346.838 2.18819 0.681962 0
M  V30 3735 C 347.838 1.14866 1.12528 0
M  V30 3736 O 349.028 1.40128 1.03488 0
M  V30 3737 C 346.16 2.80756 1.93362 0
M  V30 3738 H 347.353 2.99595 0.135254 0
M  V30 3739 H 344.906 1.56265 0.0330003 0
M  V30 3740 H 345.641 2.03837 2.52232 0
M  V30 3741 H 345.426 3.56876 1.62426 0
M  V30 3742 H 346.916 3.28844 2.57393 0
M  V30 3743 N 347.353 -0.0568162 1.57498 0
M  V30 3744 C 348.6 -0.753104 1.87975 0
M  V30 3745 C 348.928 -1.76815 0.81035 0
M  V30 3746 O 348.183 -1.94756 -0.19199 0
M  V30 3747 C 348.482 -1.48359 3.25153 0
M  V30 3748 C 348.148 -0.60713 4.46794 0
M  V30 3749 C 346.81 -0.365642 4.79809 0
M  V30 3750 C 349.162 -0.000305978 5.212 0
M  V30 3751 C 346.49 0.491905 5.84634 0
M  V30 3752 C 348.842 0.844781 6.26934 0
M  V30 3753 C 347.506 1.096 6.58441 0
M  V30 3754 H 346.776 -0.27558 0.687849 0
M  V30 3755 H 349.423 -0.0135173 1.91495 0
M  V30 3756 H 347.728 -2.29577 3.17492 0
M  V30 3757 H 349.425 -2.02739 3.45974 0
M  V30 3758 H 346.015 -0.805487 4.20963 0
M  V30 3759 H 350.199 -0.173961 4.95995 0
M  V30 3760 H 345.455 0.695131 6.07436 0
M  V30 3761 H 349.629 1.32165 6.83744 0
M  V30 3762 H 347.256 1.76224 7.39492 0
M  V30 3763 N 348.832 -1.54138 -0.328536 0
M  V30 3764 C 349.764 -1.79509 -1.4251 0
M  V30 3765 C 350.777 -0.67688 -1.48061 0
M  V30 3766 O 351.966 -0.953898 -1.50874 0
M  V30 3767 C 349.066 -1.89337 -2.81078 0
M  V30 3768 C 348.239 -3.19443 -2.98789 0
M  V30 3769 C 347.298 -3.20036 -4.17688 0
M  V30 3770 O 346.324 -3.93697 -4.11086 0
M  V30 3771 N 347.526 -2.43467 -5.26976 0
M  V30 3772 H 350.291 -2.74139 -1.21111 0
M  V30 3773 H 347.852 -1.53373 -0.518499 0
M  V30 3774 H 349.844 -1.87167 -3.58818 0
M  V30 3775 H 348.414 -1.01826 -2.95551 0
M  V30 3776 H 347.634 -3.34614 -2.08391 0
M  V30 3777 H 348.922 -4.05354 -3.07515 0
M  V30 3778 H 348.32 -1.83201 -5.35214 0
M  V30 3779 H 346.877 -2.4708 -6.03154 0
M  V30 3780 N 350.31 0.590341 -1.46126 0
M  V30 3781 C 351.22 1.72793 -1.58681 0
M  V30 3782 C 352.236 1.67516 -0.470566 0
M  V30 3783 O 353.412 1.87562 -0.733642 0
M  V30 3784 C 350.477 3.09287 -1.5666 0
M  V30 3785 C 349.538 3.25886 -2.79458 0
M  V30 3786 C 348.771 4.55869 -2.77524 0
M  V30 3787 O 348.994 5.3928 -1.85832 0
M  V30 3788 O 347.928 4.75552 -3.68964 0
M  V30 3789 H 351.754 1.65149 -2.54872 0
M  V30 3790 H 349.339 0.756486 -1.28832 0
M  V30 3791 H 351.221 3.90577 -1.58202 0
M  V30 3792 H 349.896 3.17385 -0.636271 0
M  V30 3793 H 348.803 2.44119 -2.83472 0
M  V30 3794 H 350.136 3.22675 -3.71674 0
M  V30 3795 N 351.788 1.33704 0.83433 0
M  V30 3796 C 353.016 1.28467 1.62185 0
M  V30 3797 C 353.431 -0.143526 1.88254 0
M  V30 3798 O 352.788 -1.08709 1.4659 0
M  V30 3799 C 352.839 2.06174 2.96942 0
M  V30 3800 O 352.56 3.43422 2.72016 0
M  V30 3801 C 354.061 2.08201 3.91366 0
M  V30 3802 H 351.281 0.4424 0.504503 0
M  V30 3803 H 353.825 1.76145 1.03891 0
M  V30 3804 H 351.98 1.62167 3.51825 0
M  V30 3805 H 352.394 3.83453 3.57861 0
M  V30 3806 H 353.868 2.67017 4.83121 0
M  V30 3807 H 354.345 1.07343 4.2588 0
M  V30 3808 H 354.951 2.52246 3.42421 0
M  V30 3809 N 353.266 -1.05314 1.17247 0
M  V30 3810 C 354.196 -2.1498 0.911362 0
M  V30 3811 C 355.177 -1.69471 -0.146169 0
M  V30 3812 O 356.362 -1.942 0.003812 0
M  V30 3813 C 353.492 -3.4472 0.422528 0
M  V30 3814 C 352.446 -4.03789 1.4191 0
M  V30 3815 C 351.772 -5.28858 0.788274 0
M  V30 3816 C 353.072 -4.41418 2.7919 0
M  V30 3817 H 354.766 -2.3708 1.82848 0
M  V30 3818 H 352.312 -1.13938 0.880569 0
M  V30 3819 H 354.265 -4.20787 0.227289 0
M  V30 3820 H 352.989 -3.22269 -0.530123 0
M  V30 3821 H 351.648 -3.2979 1.60106 0
M  V30 3822 H 351.296 -5.02709 -0.171173 0
M  V30 3823 H 350.996 -5.69338 1.45353 0
M  V30 3824 H 352.52 -6.07612 0.603282 0
M  V30 3825 H 353.934 -5.08524 2.64719 0
M  V30 3826 H 352.331 -4.92913 3.42282 0
M  V30 3827 H 353.401 -3.51819 3.33693 0
M  V30 3828 N 354.744 -0.972509 -1.24016 0
M  V30 3829 C 356.155 -0.67517 -1.74064 0
M  V30 3830 C 356.506 0.808939 -1.78747 0
M  V30 3831 O 355.631 1.63286 -1.42009 0
M  V30 3832 C 356.226 -1.21889 -3.16115 0
M  V30 3833 C 354.785 -0.971358 -3.6365 0
M  V30 3834 C 353.932 -1.35134 -2.42145 0
M  V30 3835 H 356.883 -1.14727 -1.09651 0
M  V30 3836 H 356.904 -0.587489 -3.75937 0
M  V30 3837 H 356.416 -2.29906 -3.12674 0
M  V30 3838 H 354.517 0.0930686 -3.72484 0
M  V30 3839 H 354.63 -1.62039 -4.50866 0
M  V30 3840 H 352.994 -0.769751 -2.4279 0
M  V30 3841 H 353.777 -2.4411 -2.41381 0
M  V30 3842 N 356.222 1.38976 -0.743202 0
M  V30 3843 C 357.45 2.04636 -0.30525 0
M  V30 3844 C 357.865 1.56044 1.06281 0
M  V30 3845 O 357.222 0.728921 1.67311 0
M  V30 3846 C 357.273 3.60193 -0.307177 0
M  V30 3847 O 356.994 4.06998 -1.62124 0
M  V30 3848 C 358.495 4.4306 0.145928 0
M  V30 3849 H 355.715 0.65788 -0.132041 0
M  V30 3850 H 358.259 1.77866 -1.00915 0
M  V30 3851 H 356.414 3.85835 0.347898 0
M  V30 3852 H 356.828 5.01371 -1.54036 0
M  V30 3853 H 358.302 5.51921 0.0934183 0
M  V30 3854 H 358.779 4.22706 1.19231 0
M  V30 3855 H 359.385 4.22584 -0.479886 0
M  V30 3856 N 357.7 0.491464 1.49741 0
M  V30 3857 C 358.63 -0.28154 2.31796 0
M  V30 3858 C 359.611 -0.971473 1.3963 0
M  V30 3859 O 360.796 -0.964719 1.68543 0
M  V30 3860 C 357.926 -1.35203 3.19902 0
M  V30 3861 C 356.88 -0.782529 4.20786 0
M  V30 3862 C 356.206 -1.95283 4.97764 0
M  V30 3863 C 357.506 0.21999 5.21837 0
M  V30 3864 H 359.2 0.403355 2.96671 0
M  V30 3865 H 356.746 0.195425 1.42668 0
M  V30 3866 H 358.699 -1.90045 3.76113 0
M  V30 3867 H 357.423 -2.06598 2.52953 0
M  V30 3868 H 356.082 -0.255928 3.65706 0
M  V30 3869 H 355.73 -2.65423 4.2727 0
M  V30 3870 H 355.43 -1.57789 5.66018 0
M  V30 3871 H 356.954 -2.50577 5.56816 0
M  V30 3872 H 358.368 -0.23996 5.72798 0
M  V30 3873 H 356.765 0.51026 5.97927 0
M  V30 3874 H 357.835 1.13911 4.7133 0
M  V30 3875 N 359.178 -1.55987 0.224894 0
M  V30 3876 C 360.11 -2.17722 -0.716224 0
M  V30 3877 C 361.123 -1.14723 -1.15509 0
M  V30 3878 O 362.312 -1.41688 -1.08567 0
M  V30 3879 C 359.412 -2.74873 -1.98238 0
M  V30 3880 C 358.585 -4.03074 -1.69853 0
M  V30 3881 C 357.644 -4.44757 -2.81208 0
M  V30 3882 O 356.67 -5.11587 -2.49534 0
M  V30 3883 N 357.872 -4.10716 -4.10235 0
M  V30 3884 H 360.637 -2.99109 -0.188123 0
M  V30 3885 H 358.198 -1.6184 0.0440123 0
M  V30 3886 H 360.19 -2.99727 -2.7193 0
M  V30 3887 H 358.76 -1.9777 -2.42086 0
M  V30 3888 H 357.98 -3.86041 -0.797875 0
M  V30 3889 H 359.268 -4.86701 -1.48324 0
M  V30 3890 H 358.666 -3.57019 -4.38809 0
M  V30 3891 H 357.223 -4.40455 -4.80461 0
M  V30 3892 N 360.656 0.0484629 -1.57525 0
M  V30 3893 C 362.067 0.597486 -1.76881 0
M  V30 3894 C 362.418 1.76664 -0.853475 0
M  V30 3895 O 361.543 2.16357 -0.0433656 0
M  V30 3896 C 362.138 1.09066 -3.20765 0
M  V30 3897 C 360.697 1.58535 -3.41385 0
M  V30 3898 C 359.844 0.514868 -2.72478 0
M  V30 3899 H 362.795 -0.177758 -1.57701 0
M  V30 3900 H 362.816 1.95875 -3.2621 0
M  V30 3901 H 362.328 0.239521 -3.8736 0
M  V30 3902 H 360.429 2.45898 -2.79937 0
M  V30 3903 H 360.542 1.64622 -4.49929 0
M  V30 3904 H 358.906 0.965407 -2.35695 0
M  V30 3905 H 359.689 -0.32648 -3.41744 0
M  V30 3906 N 362.134 1.5431 0.320358 0
M  V30 3907 C 363.082 1.84647 1.4145 0
M  V30 3908 C 364.076 0.718624 1.53402 0
M  V30 3909 O 365.282 0.902335 1.5575 0
M  V30 3910 H 361.657 0.585349 0.472091 0
M  V30 3911 H 363.628 2.7614 1.13089 0
M  V30 3912 C 362.377 2.09341 2.77617 0
M  V30 3913 H 361.7 2.9559 2.69196 0
M  V30 3914 H 363.14 2.3452 3.53237 0
M  V30 3915 C 361.599 0.885939 3.25043 0
M  V30 3916 O 362.129 0.0967891 4.01583 0
M  V30 3917 N 360.335 0.696682 2.82125 0
M  V30 3918 H 359.882 1.34006 2.2 0
M  V30 3919 H 359.84 -0.109712 3.14209 0
M  V30 3920 N 363.613 -0.582584 1.46437 0
M  V30 3921 C 364.545 -1.70618 1.53043 0
M  V30 3922 C 365.558 -1.57322 0.418769 0
M  V30 3923 O 366.747 -1.64744 0.687136 0
M  V30 3924 C 363.847 -3.08869 1.39474 0
M  V30 3925 C 363.02 -3.48166 2.64762 0
M  V30 3926 C 362.079 -4.65478 2.4539 0
M  V30 3927 O 361.105 -4.71333 3.19114 0
M  V30 3928 N 362.307 -5.60365 1.51564 0
M  V30 3929 H 365.072 -1.65405 2.49923 0
M  V30 3930 H 362.633 -0.768567 1.42494 0
M  V30 3931 H 364.625 -3.85143 1.24287 0
M  V30 3932 H 363.195 -3.08449 0.507758 0
M  V30 3933 H 362.415 -2.61598 2.9489 0
M  V30 3934 H 363.703 -3.71188 3.4799 0
M  V30 3935 H 363.101 -5.5837 0.907705 0
M  V30 3936 H 361.658 -6.36068 1.4234 0
M  V30 3937 N 365.091 -1.34144 -0.827227 0
M  V30 3938 C 366.039 -1.25364 -1.95925 0
M  V30 3939 C 367.033 -0.152608 -1.68711 0
M  V30 3940 O 368.239 -0.317311 -1.77181 0
M  V30 3941 H 364.614 -0.389342 -0.643364 0
M  V30 3942 H 366.585 -2.21045 -2.00454 0
M  V30 3943 C 365.334 -1.02158 -3.32354 0
M  V30 3944 H 364.657 -1.86111 -3.5384 0
M  V30 3945 H 366.097 -1.00048 -4.12027 0
M  V30 3946 C 364.556 0.275244 -3.35774 0
M  V30 3947 O 365.086 1.27806 -3.80826 0
M  V30 3948 N 363.292 0.306853 -2.88975 0
M  V30 3949 H 362.839 -0.509777 -2.52506 0
M  V30 3950 H 362.797 1.17432 -2.91646 0
M  V30 3951 N 366.569 1.04691 -1.17803 0
M  V30 3952 C 367.502 2.12068 -0.842765 0
M  V30 3953 C 368.48 1.61455 0.192608 0
M  V30 3954 O 369.664 1.88359 0.072995 0
M  V30 3955 C 366.791 3.37715 -0.258063 0
M  V30 3956 C 365.837 4.07164 -1.26962 0
M  V30 3957 S 366.67 4.55047 -2.82299 0
M  V30 3958 C 367.826 5.83935 -2.25323 0
M  V30 3959 H 368.059 2.4018 -1.75217 0
M  V30 3960 H 365.592 1.17366 -1.00323 0
M  V30 3961 H 367.55 4.10435 0.0727935 0
M  V30 3962 H 366.211 3.0773 0.629357 0
M  V30 3963 H 365.404 4.9746 -0.809263 0
M  V30 3964 H 365.006 3.40533 -1.54639 0
M  V30 3965 H 367.298 6.57552 -1.63192 0
M  V30 3966 H 368.241 6.34725 -3.13894 0
M  V30 3967 H 368.649 5.3874 -1.68582 0
M  V30 3968 N 368.047 0.979072 1.23499 0
M  V30 3969 C 369.275 0.665202 1.95915 0
M  V30 3970 C 369.69 -0.767571 1.72493 0
M  V30 3971 O 369.047 -1.51635 1.01554 0
M  V30 3972 C 369.098 0.944438 3.48945 0
M  V30 3973 O 368.819 2.3209 3.71572 0
M  V30 3974 C 370.32 0.646336 4.38563 0
M  V30 3975 H 367.54 0.247218 0.623798 0
M  V30 3976 H 370.084 1.31009 1.57025 0
M  V30 3977 H 368.239 0.345575 3.85856 0
M  V30 3978 H 368.653 2.40957 4.65876 0
M  V30 3979 H 370.127 0.892091 5.44744 0
M  V30 3980 H 370.604 -0.419575 4.37191 0
M  V30 3981 H 371.21 1.22562 4.07258 0
M  V30 3982 N 369.525 -1.3858 0.750561 0
M  V30 3983 C 370.75 -2.04997 0.314812 0
M  V30 3984 C 371.175 -1.56235 -1.04749 0
M  V30 3985 O 370.533 -0.712981 -1.66692 0
M  V30 3986 C 370.581 -3.58961 0.343415 0
M  V30 3987 O 369.685 -4.07025 -0.663628 0
M  V30 3988 H 369.026 -0.649081 0.139962 0
M  V30 3989 H 371.556 -1.77313 1.02084 0
M  V30 3990 H 371.566 -4.07542 0.193233 0
M  V30 3991 H 370.241 -3.93811 1.33738 0
M  V30 3992 H 368.818 -3.6982 -0.478307 0
M  V30 3993 N 371.003 -0.499398 -1.49478 0
M  V30 3994 C 371.913 0.284489 -2.32869 0
M  V30 3995 C 372.929 0.968885 -1.44529 0
M  V30 3996 O 374.105 0.95062 -1.77553 0
M  V30 3997 C 371.17 1.33594 -3.19928 0
M  V30 3998 C 370.231 0.665149 -4.24116 0
M  V30 3999 C 369.464 1.6665 -5.07014 0
M  V30 4000 O 369.687 2.89618 -4.91404 0
M  V30 4001 O 368.621 1.22271 -5.8935 0
M  V30 4002 H 372.447 -0.39802 -3.01081 0
M  V30 4003 H 370.032 -0.260758 -1.47107 0
M  V30 4004 H 371.914 1.94431 -3.73864 0
M  V30 4005 H 370.589 2.0014 -2.54412 0
M  V30 4006 H 369.496 0.0170769 -3.74096 0
M  V30 4007 H 370.829 0.0421555 -4.92182 0
M  V30 4008 N 372.481 1.55866 -0.233164 0
M  V30 4009 C 373.391 2.24431 0.683217 0
M  V30 4010 C 374.407 1.2558 1.2044 0
M  V30 4011 O 375.583 1.58422 1.24356 0
M  V30 4012 C 372.648 2.91979 1.86947 0
M  V30 4013 C 371.709 4.06204 1.38912 0
M  V30 4014 C 370.942 4.70522 2.51883 0
M  V30 4015 O 371.165 4.33865 3.70293 0
M  V30 4016 O 370.099 5.59296 2.22423 0
M  V30 4017 H 373.925 3.03426 0.129059 0
M  V30 4018 H 371.51 1.494 -0.0022283 0
M  V30 4019 H 373.392 3.34573 2.56201 0
M  V30 4020 H 372.067 2.15935 2.41151 0
M  V30 4021 H 370.974 3.68155 0.664259 0
M  V30 4022 H 372.307 4.84025 0.893328 0
M  V30 4023 N 373.959 -0.0401083 1.57549 0
M  V30 4024 C 375.375 -0.395556 1.54621 0
M  V30 4025 C 375.575 -1.77281 0.957799 0
M  V30 4026 O 374.631 -2.45888 0.574031 0
M  V30 4027 C 375.944 -0.307535 2.99123 0
M  V30 4028 C 377.492 -0.385425 3.10618 0
M  V30 4029 C 377.967 -0.326973 4.56831 0
M  V30 4030 N 379.458 -0.386102 4.61588 0
M  V30 4031 C 380.193 -0.363591 5.72246 0
M  V30 4032 N 379.689 -0.29402 6.92176 0
M  V30 4033 N 381.482 -0.412503 5.60584 0
M  V30 4034 H 373.633 0.861325 1.94152 0
M  V30 4035 H 375.896 0.326445 0.890021 0
M  V30 4036 H 375.602 0.638461 3.45856 0
M  V30 4037 H 375.476 -1.10552 3.60636 0
M  V30 4038 H 377.863 -1.32185 2.63839 0
M  V30 4039 H 377.944 0.44171 2.51957 0
M  V30 4040 H 377.588 0.605738 5.04275 0
M  V30 4041 H 377.518 -1.17207 5.13391 0
M  V30 4042 H 380.009 -0.442832 3.75296 0
M  V30 4043 H 380.322 -0.28164 7.72287 0
M  V30 4044 H 378.667 -0.260232 6.94513 0
M  V30 4045 H 381.858 -0.464769 4.65787 0
M  V30 4046 H 382.031 -0.391492 6.46816 0
M  V30 4047 N 375.437 -1.54477 -0.31217 0
M  V30 4048 C 376.369 -1.81011 -1.40598 0
M  V30 4049 C 377.382 -0.692546 -1.47335 0
M  V30 4050 O 378.571 -0.969847 -1.49854 0
M  V30 4051 C 375.671 -1.92307 -2.79054 0
M  V30 4052 C 374.844 -3.22594 -2.95384 0
M  V30 4053 C 373.903 -3.24448 -4.1427 0
M  V30 4054 O 372.929 -3.98035 -4.06887 0
M  V30 4055 N 374.131 -2.49042 -5.24365 0
M  V30 4056 H 376.896 -2.75408 -1.18196 0
M  V30 4057 H 374.457 -1.53914 -0.502202 0
M  V30 4058 H 376.449 -1.90962 -3.56813 0
M  V30 4059 H 375.019 -1.04955 -2.94454 0
M  V30 4060 H 374.239 -3.36806 -2.04831 0
M  V30 4061 H 375.527 -4.08593 -3.03198 0
M  V30 4062 H 374.925 -1.88867 -5.33241 0
M  V30 4063 H 373.482 -2.53463 -6.005 0
M  V30 4064 N 376.915 0.57481 -1.46744 0
M  V30 4065 C 378.331 0.898981 -1.31873 0
M  V30 4066 C 378.531 1.99313 -0.29605 0
M  V30 4067 O 377.587 2.50728 0.298621 0
M  V30 4068 C 378.9 1.30886 -2.7072 0
M  V30 4069 C 380.448 1.42127 -2.78871 0
M  V30 4070 C 380.923 1.86478 -4.18318 0
M  V30 4071 N 382.414 1.93658 -4.20774 0
M  V30 4072 C 383.149 2.29267 -5.2557 0
M  V30 4073 N 382.645 2.63612 -6.40688 0
M  V30 4074 N 384.438 2.29889 -5.1294 0
M  V30 4075 H 376.589 -0.147839 -2.11885 0
M  V30 4076 H 378.852 -0.00347013 -0.947994 0
M  V30 4077 H 378.558 0.578853 -3.46904 0
M  V30 4078 H 378.432 2.26874 -3.01343 0
M  V30 4079 H 380.819 2.14213 -2.0297 0
M  V30 4080 H 380.9 0.443705 -2.51922 0
M  V30 4081 H 380.544 1.14968 -4.94717 0
M  V30 4082 H 380.474 2.85207 -4.42679 0
M  V30 4083 H 382.965 1.69574 -3.37718 0
M  V30 4084 H 383.278 2.89759 -7.16421 0
M  V30 4085 H 381.623 2.61232 -6.44036 0
M  V30 4086 H 384.814 2.02485 -4.22039 0
M  V30 4087 H 384.987 2.57312 -5.94722 0
M  V30 4088 N 378.394 1.34581 0.820102 0
M  V30 4089 C 379.324 1.29038 1.94606 0
M  V30 4090 C 380.305 0.1673 1.69275 0
M  V30 4091 O 381.49 0.360112 1.90832 0
M  V30 4092 C 378.62 1.04793 3.31113 0
M  V30 4093 C 377.574 2.13597 3.70891 0
M  V30 4094 C 376.9 1.74537 5.05412 0
M  V30 4095 C 378.2 3.55451 3.8269 0
M  V30 4096 H 379.894 2.23248 1.99501 0
M  V30 4097 H 377.44 1.0747 0.958449 0
M  V30 4098 H 379.393 0.995592 4.0947 0
M  V30 4099 H 378.117 0.0702565 3.26524 0
M  V30 4100 H 376.776 2.17905 2.9481 0
M  V30 4101 H 376.424 0.754226 4.97313 0
M  V30 4102 H 376.124 2.47361 5.32997 0
M  V30 4103 H 377.648 1.70803 5.86224 0
M  V30 4104 H 379.062 3.5354 4.51312 0
M  V30 4105 H 377.459 4.26922 4.21732 0
M  V30 4106 H 378.529 3.92587 2.84611 0
M  V30 4107 N 379.872 -1.04064 1.18357 0
M  V30 4108 C 381.118 -1.77528 0.980397 0
M  V30 4109 C 381.451 -1.87948 -0.48879 0
M  V30 4110 O 380.726 -1.3876 -1.36293 0
M  V30 4111 C 381.009 -3.20797 1.63588 0
M  V30 4112 C 380.862 -3.1832 3.17793 0
M  V30 4113 C 382.181 -4.18911 1.34914 0
M  V30 4114 H 379.3 -0.644443 0.357578 0
M  V30 4115 H 381.942 -1.2156 1.46024 0
M  V30 4116 H 380.092 -3.68586 1.22788 0
M  V30 4117 H 381.764 -2.78521 3.67728 0
M  V30 4118 H 380.007 -2.56351 3.49952 0
M  V30 4119 H 380.678 -4.19489 3.58794 0
M  V30 4120 H 383.154 -3.7967 1.70265 0
M  V30 4121 H 382.03 -5.17374 1.83346 0
M  V30 4122 H 382.291 -4.41262 0.272027 0
M  V30 4123 N 381.35 -0.985608 -1.22978 0
M  V30 4124 C 382.578 -0.675582 -1.95559 0
M  V30 4125 C 382.993 0.758413 -1.72897 0
M  V30 4126 O 382.35 1.51094 -1.02357 0
M  V30 4127 C 382.401 -0.96293 -3.48439 0
M  V30 4128 O 382.122 -2.34057 -3.70336 0
M  V30 4129 C 383.623 -0.669585 -4.38214 0
M  V30 4130 H 380.843 -0.250523 -0.622478 0
M  V30 4131 H 383.387 -1.3184 -1.56328 0
M  V30 4132 H 381.542 -0.366033 -3.85667 0
M  V30 4133 H 381.956 -2.43424 -4.64591 0
M  V30 4134 H 383.43 -0.920967 -5.44263 0
M  V30 4135 H 383.907 0.396383 -4.37408 0
M  V30 4136 H 384.513 -1.2472 -4.06602 0
M  V30 4137 N 382.828 1.3818 -0.7579 0
M  V30 4138 C 384.077 1.99261 -0.312744 0
M  V30 4139 C 384.39 1.60846 1.11301 0
M  V30 4140 O 385.596 2.14929 1.65885 0
M  V30 4141 C 384.052 3.56294 -0.50821 0
M  V30 4142 C 383.66 4.03657 -1.94333 0
M  V30 4143 C 385.404 4.24313 -0.125982 0
M  V30 4144 C 383.311 5.53347 -2.08712 0
M  V30 4145 H 382.241 0.745456 -0.113185 0
M  V30 4146 H 384.892 1.57889 -0.935056 0
M  V30 4147 H 383.274 3.95575 0.183353 0
M  V30 4148 H 384.448 3.75655 -2.66871 0
M  V30 4149 H 382.763 3.48376 -2.28086 0
M  V30 4150 H 385.36 5.34279 -0.212125 0
M  V30 4151 H 385.703 4.05962 0.921964 0
M  V30 4152 H 386.236 3.90285 -0.769563 0
M  V30 4153 H 382.975 5.76607 -3.11777 0
M  V30 4154 H 382.495 5.83078 -1.4064 0
M  V30 4155 H 384.174 6.19111 -1.87912 0
M  V30 4156 N 384.306 0.507319 1.49211 0
M  V30 4157 C 385.552 -0.0350047 2.0277 0
M  V30 4158 C 385.885 -1.3606 1.38569 0
M  V30 4159 O 385.16 -1.87321 0.523542 0
M  V30 4160 C 385.443 -0.180916 3.59645 0
M  V30 4161 C 385.296 1.16825 4.34364 0
M  V30 4162 C 386.615 -0.918558 4.30407 0
M  V30 4163 H 383.734 -0.0112473 0.736914 0
M  V30 4164 H 386.376 0.659956 1.7817 0
M  V30 4165 H 384.526 -0.772826 3.80736 0
M  V30 4166 H 386.198 1.79952 4.24753 0
M  V30 4167 H 384.441 1.75594 3.96673 0
M  V30 4168 H 385.112 1.01939 5.42506 0
M  V30 4169 H 387.588 -0.41649 4.1401 0
M  V30 4170 H 386.464 -0.989505 5.39907 0
M  V30 4171 H 386.725 -1.96373 3.96093 0
M  V30 4172 N 385.784 -1.5574 0.241426 0
M  V30 4173 C 387.061 -1.90704 -0.434881 0
M  V30 4174 C 387.441 -1.16145 -1.76277 0
M  V30 4175 O 386.789 -0.277152 -2.26813 0
M  V30 4176 C 386.999 -3.43657 -0.608343 0
M  V30 4177 C 388.347 -4.14806 -0.906725 0
M  V30 4178 O 389.371 -3.49366 -0.694408 0
M  V30 4179 O 388.23 -5.30548 -1.31075 0
M  V30 4180 H 385.324 -0.793592 -0.23268 0
M  V30 4181 H 387.87 -1.67288 0.285086 0
M  V30 4182 H 386.642 -3.89927 0.327505 0
M  V30 4183 H 386.265 -3.72918 -1.37906 0
M  V30 4184 N 387.262 0.0317525 -1.57568 0
M  V30 4185 C 388.209 1.0332 -2.06382 0
M  V30 4186 C 389.179 1.36082 -0.952414 0
M  V30 4187 O 390.364 1.46466 -1.2228 0
M  V30 4188 C 387.504 2.32989 -2.54578 0
M  V30 4189 C 386.617 2.0641 -3.79498 0
M  V30 4190 C 385.752 3.2993 -4.16317 0
M  V30 4191 C 384.791 2.98893 -5.34162 0
M  V30 4192 N 383.928 4.14857 -5.66426 0
M  V30 4193 H 388.768 0.609982 -2.9169 0
M  V30 4194 H 386.305 0.289573 -1.44222 0
M  V30 4195 H 388.263 3.0875 -2.80587 0
M  V30 4196 H 386.893 2.73039 -1.7219 0
M  V30 4197 H 385.945 1.21158 -3.6059 0
M  V30 4198 H 387.257 1.79513 -4.65378 0
M  V30 4199 H 386.411 4.1406 -4.4344 0
M  V30 4200 H 385.15 3.59938 -3.29083 0
M  V30 4201 H 384.155 2.13164 -5.06795 0
M  V30 4202 H 385.38 2.70165 -6.23047 0
M  V30 4203 H 383.326 4.44821 -4.82151 0
M  V30 4204 H 383.243 3.91374 -6.4681 0
M  V30 4205 H 384.511 4.99868 -5.98124 0
M  V30 4206 N 388.74 1.54641 0.303973 0
M  V30 4207 C 389.67 1.88386 1.3796 0
M  V30 4208 C 390.651 0.742485 1.5304 0
M  V30 4209 O 391.836 0.997959 1.66597 0
M  V30 4210 C 388.966 2.12854 2.74427 0
M  V30 4211 C 387.92 3.28702 2.74115 0
M  V30 4212 C 387.246 3.38582 4.13844 0
M  V30 4213 C 388.546 4.65881 2.3612 0
M  V30 4214 H 390.24 2.78474 1.09966 0
M  V30 4215 H 387.786 1.33988 0.527556 0
M  V30 4216 H 389.739 2.35047 3.49758 0
M  V30 4217 H 388.463 1.19535 3.03939 0
M  V30 4218 H 387.122 3.06428 2.0124 0
M  V30 4219 H 386.77 2.42784 4.40528 0
M  V30 4220 H 386.47 4.16453 4.14537 0
M  V30 4221 H 387.994 3.63031 4.90959 0
M  V30 4222 H 389.408 4.87823 3.01167 0
M  V30 4223 H 387.805 5.46444 2.48031 0
M  V30 4224 H 388.875 4.66799 1.3125 0
M  V30 4225 N 390.218 -0.567019 1.47046 0
M  V30 4226 C 391.15 -1.68985 1.54844 0
M  V30 4227 C 392.163 -1.56869 0.435431 0
M  V30 4228 O 393.352 -1.64006 0.70457 0
M  V30 4229 C 390.452 -3.07373 1.42742 0
M  V30 4230 C 389.625 -3.45339 2.6844 0
M  V30 4231 C 388.684 -4.62849 2.50314 0
M  V30 4232 O 387.71 -4.67922 3.24095 0
M  V30 4233 N 388.912 -5.58726 1.57499 0
M  V30 4234 H 391.677 -1.62745 2.51663 0
M  V30 4235 H 389.238 -0.753411 1.43302 0
M  V30 4236 H 391.23 -3.83803 1.28365 0
M  V30 4237 H 389.8 -3.07893 0.540445 0
M  V30 4238 H 389.02 -2.58455 2.97648 0
M  V30 4239 H 390.308 -3.67476 3.51907 0
M  V30 4240 H 389.706 -5.57376 0.966876 0
M  V30 4241 H 388.263 -6.34523 1.49078 0
M  V30 4242 N 391.696 -1.35014 -0.812953 0
M  V30 4243 C 392.628 -1.23262 -1.93233 0
M  V30 4244 C 393.641 -0.157371 -1.62038 0
M  V30 4245 O 394.83 -0.410096 -1.73725 0
M  V30 4246 C 391.93 -0.87392 -3.27438 0
M  V30 4247 C 391.103 -2.04622 -3.86586 0
M  V30 4248 C 390.162 -1.66432 -4.99186 0
M  V30 4249 O 389.188 -2.38222 -5.16951 0
M  V30 4250 N 390.39 -0.584248 -5.77552 0
M  V30 4251 H 393.155 -2.19699 -2.03844 0
M  V30 4252 H 390.716 -1.281 -0.99005 0
M  V30 4253 H 392.708 -0.600039 -4.00227 0
M  V30 4254 H 391.278 0.00057392 -3.126 0
M  V30 4255 H 390.498 -2.48427 -3.06068 0
M  V30 4256 H 391.786 -2.82999 -4.22835 0
M  V30 4257 H 391.184 0.0123526 -5.65699 0
M  V30 4258 H 389.741 -0.37013 -6.50748 0
M  V30 4259 N 393.175 1.03435 -1.18907 0
M  V30 4260 C 394.4 1.80919 -1.01406 0
M  V30 4261 C 394.825 1.83055 0.432721 0
M  V30 4262 O 394.183 1.25252 1.31079 0
M  V30 4263 C 394.231 3.24091 -1.58105 0
M  V30 4264 O 393.335 4.04434 -0.806669 0
M  V30 4265 H 392.676 0.558709 -0.358803 0
M  V30 4266 H 395.206 1.30223 -1.57807 0
M  V30 4267 H 395.216 3.74853 -1.61087 0
M  V30 4268 H 393.891 3.21851 -2.6341 0
M  V30 4269 H 392.468 3.63091 -0.849666 0
M  V30 4270 N 394.653 0.992116 1.22453 0
M  V30 4271 C 395.881 0.685944 1.95198 0
M  V30 4272 C 396.296 -0.749233 1.73297 0
M  V30 4273 O 395.653 -1.50549 1.03156 0
M  V30 4274 C 395.704 0.981395 3.47924 0
M  V30 4275 O 395.425 2.36018 3.6909 0
M  V30 4276 C 396.926 0.692815 4.37853 0
M  V30 4277 H 394.146 0.253821 0.621141 0
M  V30 4278 H 396.69 1.32668 1.55626 0
M  V30 4279 H 394.845 0.386481 3.85467 0
M  V30 4280 H 395.259 2.45884 4.63294 0
M  V30 4281 H 396.733 0.949818 5.43767 0
M  V30 4282 H 397.21 -0.373181 4.37612 0
M  V30 4283 H 397.816 1.26874 4.05935 0
M  V30 4284 N 396.131 -1.37776 0.765217 0
M  V30 4285 C 397.094 -2.28686 0.153416 0
M  V30 4286 C 398.094 -1.47727 -0.635081 0
M  V30 4287 O 399.284 -1.68027 -0.459632 0
M  V30 4288 C 396.416 -3.31608 -0.790495 0
M  V30 4289 H 397.609 -2.84297 0.954723 0
M  V30 4290 H 395.162 -1.46932 0.53299 0
M  V30 4291 H 395.897 -2.81109 -1.61705 0
M  V30 4292 H 395.682 -3.9144 -0.227348 0
M  V30 4293 H 397.172 -3.99559 -1.21419 0
M  V30 4294 N 397.609 -0.515225 -1.4894 0
M  V30 4295 C 399.025 -0.172099 -1.58669 0
M  V30 4296 C 399.225 1.32405 -1.51892 0
M  V30 4297 O 398.281 2.10116 -1.40027 0
M  V30 4298 C 399.594 -0.761533 -2.90897 0
M  V30 4299 C 401.142 -0.728926 -3.04394 0
M  V30 4300 C 401.617 -1.29667 -4.39261 0
M  V30 4301 N 403.108 -1.25799 -4.4579 0
M  V30 4302 C 403.843 -1.66733 -5.48623 0
M  V30 4303 N 403.339 -2.15327 -6.58488 0
M  V30 4304 N 405.132 -1.58061 -5.39419 0
M  V30 4305 H 397.283 -1.48778 -1.51588 0
M  V30 4306 H 399.546 -0.617968 -0.718901 0
M  V30 4307 H 399.252 -1.81136 -3.01468 0
M  V30 4308 H 399.126 -0.230106 -3.76497 0
M  V30 4309 H 401.513 0.312098 -2.93445 0
M  V30 4310 H 401.594 -1.29766 -2.20442 0
M  V30 4311 H 401.238 -2.33655 -4.50963 0
M  V30 4312 H 401.168 -0.703752 -5.21876 0
M  V30 4313 H 403.659 -0.902102 -3.66975 0
M  V30 4314 H 403.972 -2.44594 -7.33071 0
M  V30 4315 H 402.317 -2.19311 -6.59491 0
M  V30 4316 H 405.508 -1.19906 -4.52482 0
M  V30 4317 H 405.681 -1.90284 -6.19432 0
M  V30 4318 N 399.087 1.5561 -0.249682 0
M  V30 4319 C 400.333 1.99306 0.374841 0
M  V30 4320 C 400.666 1.13767 1.57387 0
M  V30 4321 O 399.941 0.201711 1.93451 0
M  V30 4322 C 400.224 3.51507 0.781986 0
M  V30 4323 C 400.077 4.4781 -0.422629 0
M  V30 4324 C 401.396 4.08884 1.62793 0
M  V30 4325 H 398.515 0.724572 0.134773 0
M  V30 4326 H 401.157 1.86719 -0.351549 0
M  V30 4327 H 399.307 3.62363 1.4009 0
M  V30 4328 H 400.979 4.48931 -1.06108 0
M  V30 4329 H 399.222 4.20518 -1.06524 0
M  V30 4330 H 399.893 5.51919 -0.0943766 0
M  V30 4331 H 402.369 4.01147 1.10547 0
M  V30 4332 H 401.245 5.1564 1.88166 0
M  V30 4333 H 401.506 3.57515 2.60068 0
M  V30 4334 N 400.565 -0.0233959 1.57583 0
M  V30 4335 C 401.811 -0.714119 1.89811 0
M  V30 4336 C 402.144 -1.74702 0.848113 0
M  V30 4337 O 401.419 -1.94023 -0.136135 0
M  V30 4338 C 401.702 -1.37853 3.32669 0
M  V30 4339 C 401.555 -0.358764 4.48367 0
M  V30 4340 C 402.874 -2.31101 3.7454 0
M  V30 4341 H 399.993 -0.25814 0.690314 0
M  V30 4342 H 402.635 0.0230927 1.89986 0
M  V30 4343 H 400.785 -2.00689 3.3265 0
M  V30 4344 H 402.457 0.268115 4.6052 0
M  V30 4345 H 400.7 0.321387 4.32608 0
M  V30 4346 H 401.371 -0.862242 5.45224 0
M  V30 4347 H 403.847 -1.78304 3.75961 0
M  V30 4348 H 402.723 -2.74567 4.75294 0
M  V30 4349 H 402.984 -3.18018 3.0711 0
M  V30 4350 N 402.043 -1.548 -0.295768 0
M  V30 4351 C 403.289 -1.74588 -1.03184 0
M  V30 4352 C 403.622 -0.532962 -1.86744 0
M  V30 4353 O 402.897 0.469872 -1.88739 0
M  V30 4354 C 403.18 -3.03791 -1.93347 0
M  V30 4355 C 403.033 -4.35392 -1.12933 0
M  V30 4356 C 404.352 -3.28892 -2.92435 0
M  V30 4357 H 401.471 -0.635221 -0.373715 0
M  V30 4358 H 404.113 -1.87519 -0.30606 0
M  V30 4359 H 402.263 -2.92898 -2.55232 0
M  V30 4360 H 403.935 -4.58211 -0.532943 0
M  V30 4361 H 402.178 -4.31642 -0.432168 0
M  V30 4362 H 402.849 -5.22074 -1.79284 0
M  V30 4363 H 405.325 -3.39429 -2.4068 0
M  V30 4364 H 404.201 -4.20603 -3.52682 0
M  V30 4365 H 404.462 -2.47437 -3.6637 0
M  V30 4366 N 403.521 0.559213 -1.47345 0
M  V30 4367 C 404.767 1.31843 -1.54095 0
M  V30 4368 C 405.1 1.93149 -0.201726 0
M  V30 4369 O 404.375 1.77759 0.789428 0
M  V30 4370 C 404.658 2.43006 -2.65744 0
M  V30 4371 C 404.511 1.86581 -4.09277 0
M  V30 4372 C 405.83 3.44943 -2.73318 0
M  V30 4373 H 402.949 0.478012 -0.560957 0
M  V30 4374 H 405.591 0.625977 -1.79392 0
M  V30 4375 H 403.741 3.02072 -2.44305 0
M  V30 4376 H 405.413 1.31792 -4.42073 0
M  V30 4377 H 403.656 1.17268 -4.17649 0
M  V30 4378 H 404.327 2.66933 -4.83168 0
M  V30 4379 H 406.803 2.95793 -2.92653 0
M  V30 4380 H 405.679 4.20153 -3.53218 0
M  V30 4381 H 405.94 4.03665 -1.80296 0
M  V30 4382 N 404.999 1.35443 0.805782 0
M  V30 4383 C 406.246 1.28761 1.56291 0
M  V30 4384 C 406.574 -0.137747 1.94012 0
M  V30 4385 O 405.829 -1.1032 1.61642 0
M  V30 4386 C 406.128 2.14045 2.86216 0
M  V30 4387 C 405.794 3.62826 2.67709 0
M  V30 4388 C 404.456 4.0338 2.6237 0
M  V30 4389 C 406.808 4.57227 2.50186 0
M  V30 4390 C 404.136 5.36501 2.37451 0
M  V30 4391 C 406.488 5.90547 2.26797 0
M  V30 4392 C 405.152 6.30245 2.1988 0
M  V30 4393 H 404.422 0.471171 0.571908 0
M  V30 4394 H 407.069 1.67347 0.930974 0
M  V30 4395 H 405.374 1.68342 3.53791 0
M  V30 4396 H 407.071 2.0621 3.43917 0
M  V30 4397 H 403.661 3.30644 2.72713 0
M  V30 4398 H 407.845 4.2678 2.53323 0
M  V30 4399 H 403.101 5.66259 2.30567 0
M  V30 4400 H 407.275 6.63274 2.12228 0
M  V30 4401 H 404.902 7.33328 2.00333 0
M  V30 4402 N 406.477 -1.02803 1.19454 0
M  V30 4403 C 407.702 -1.80378 1.02364 0
M  V30 4404 C 408.127 -1.83282 -0.423007 0
M  V30 4405 O 407.485 -1.25945 -1.30413 0
M  V30 4406 C 407.533 -3.23248 1.59821 0
M  V30 4407 O 406.637 -4.04 0.828105 0
M  V30 4408 H 405.978 -0.556799 0.361761 0
M  V30 4409 H 408.508 -1.29385 1.58495 0
M  V30 4410 H 408.518 -3.73994 1.63073 0
M  V30 4411 H 407.193 -3.2045 2.65113 0
M  V30 4412 H 405.77 -3.62635 0.86891 0
M  V30 4413 N 407.956 -0.998596 -1.21925 0
M  V30 4414 C 409.367 -0.711939 -1.72593 0
M  V30 4415 C 409.718 0.770842 -1.80423 0
M  V30 4416 O 408.843 1.60237 -1.4544 0
M  V30 4417 C 409.438 -1.28567 -3.13458 0
M  V30 4418 C 407.997 -1.04828 -3.61508 0
M  V30 4419 C 407.144 -1.4024 -2.39224 0
M  V30 4420 H 410.095 -1.17027 -1.07193 0
M  V30 4421 H 410.116 -0.667098 -3.74607 0
M  V30 4422 H 409.628 -2.36486 -3.07727 0
M  V30 4423 H 407.729 0.0140383 -3.72597 0
M  V30 4424 H 407.842 -1.71566 -4.47328 0
M  V30 4425 H 406.206 -0.821077 -2.41103 0
M  V30 4426 H 406.989 -2.49176 -2.36149 0
M  V30 4427 N 409.434 1.37368 -0.772513 0
M  V30 4428 C 410.711 1.93839 -0.26188 0
M  V30 4429 C 411.091 1.7061 1.24319 0
M  V30 4430 O 410.439 1.05534 2.02669 0
M  V30 4431 C 410.649 3.43154 -0.636102 0
M  V30 4432 C 411.997 4.20249 -0.606324 0
M  V30 4433 O 413.021 3.5152 -0.575538 0
M  V30 4434 O 411.88 5.42809 -0.634086 0
M  V30 4435 H 408.974 0.82478 -0.0605555 0
M  V30 4436 H 411.52 1.4665 -0.853917 0
M  V30 4437 H 410.292 3.53647 -1.6748 0
M  V30 4438 H 409.915 3.97596 -0.0170516 0
M  V30 4439 N 410.912 0.523116 1.48665 0
M  V30 4440 C 411.842 -0.23231 2.32342 0
M  V30 4441 C 412.823 -0.941637 1.41659 0
M  V30 4442 O 414.008 -0.928751 1.70552 0
M  V30 4443 C 411.138 -1.28387 3.22698 0
M  V30 4444 C 410.092 -0.693098 4.22351 0
M  V30 4445 C 409.418 -1.8468 5.01794 0
M  V30 4446 C 410.718 0.33063 5.21252 0
M  V30 4447 H 412.412 0.466192 2.95748 0
M  V30 4448 H 409.958 0.225643 1.42221 0
M  V30 4449 H 411.911 -1.82024 3.80059 0
M  V30 4450 H 410.635 -2.01186 2.57278 0
M  V30 4451 H 409.294 -0.178299 3.66166 0
M  V30 4452 H 408.942 -2.56301 4.32804 0
M  V30 4453 H 408.642 -1.45747 5.69238 0
M  V30 4454 H 410.166 -2.38709 5.62006 0
M  V30 4455 H 411.58 -0.118407 5.73178 0
M  V30 4456 H 409.977 0.636974 5.9671 0
M  V30 4457 H 411.047 1.23883 4.68808 0
M  V30 4458 N 412.39 -1.55475 0.257931 0
M  V30 4459 C 413.618 -2.03609 -0.367559 0
M  V30 4460 C 414.033 -1.13687 -1.50734 0
M  V30 4461 O 413.39 -0.153479 -1.81853 0
M  V30 4462 C 413.441 -3.51001 -0.864908 0
M  V30 4463 O 413.162 -4.37499 0.229465 0
M  V30 4464 C 414.663 -4.14946 -1.55997 0
M  V30 4465 H 411.883 -0.665459 -0.0860521 0
M  V30 4466 H 414.427 -2.00843 0.385014 0
M  V30 4467 H 412.582 -3.54266 -1.56762 0
M  V30 4468 H 412.996 -5.24286 -0.14998 0
M  V30 4469 H 414.47 -5.19735 -1.85956 0
M  V30 4470 H 414.947 -3.6209 -2.4857 0
M  V30 4471 H 415.553 -4.15635 -0.901543 0
M  V30 4472 N 413.868 0.0150385 -1.57593 0
M  V30 4473 C 414.798 1.01047 -2.10503 0
M  V30 4474 C 415.779 1.36816 -1.01071 0
M  V30 4475 O 416.964 1.45455 -1.28672 0
M  V30 4476 C 414.094 2.30708 -2.59598 0
M  V30 4477 C 413.048 2.09142 -3.73421 0
M  V30 4478 C 412.374 3.44685 -4.08774 0
M  V30 4479 C 413.674 1.46619 -5.01298 0
M  V30 4480 H 415.368 0.569978 -2.93925 0
M  V30 4481 H 412.914 0.272724 -1.41394 0
M  V30 4482 H 414.867 3.00687 -2.95238 0
M  V30 4483 H 413.591 2.76843 -1.73279 0
M  V30 4484 H 412.25 1.41592 -3.38153 0
M  V30 4485 H 411.898 3.88495 -3.195 0
M  V30 4486 H 411.598 3.31077 -4.8545 0
M  V30 4487 H 413.122 4.16004 -4.4696 0
M  V30 4488 H 414.536 2.06535 -5.34805 0
M  V30 4489 H 412.933 1.43544 -5.82679 0
M  V30 4490 H 414.003 0.433611 -4.82957 0
M  V30 4491 N 415.346 1.54954 0.287554 0
M  V30 4492 C 416.576 1.78622 1.03816 0
M  V30 4493 C 416.984 0.552451 1.80955 0
M  V30 4494 O 416.327 -0.487665 1.77109 0
M  V30 4495 C 416.389 2.94975 2.055 0
M  V30 4496 C 416.053 4.32565 1.47433 0
M  V30 4497 C 417.05 5.12096 0.897436 0
M  V30 4498 C 414.735 4.79195 1.50591 0
M  V30 4499 C 416.729 6.36383 0.359851 0
M  V30 4500 C 414.416 6.03441 0.964459 0
M  V30 4501 C 415.414 6.81872 0.392413 0
M  V30 4502 O 415.102 8.03777 -0.140788 0
M  V30 4503 H 414.834 0.599144 0.313053 0
M  V30 4504 H 417.388 2.02761 0.328225 0
M  V30 4505 H 415.618 2.66493 2.80211 0
M  V30 4506 H 417.307 3.06097 2.6657 0
M  V30 4507 H 418.073 4.77209 0.865841 0
M  V30 4508 H 413.952 4.18167 1.94055 0
M  V30 4509 H 417.496 6.97545 -0.0872951 0
M  V30 4510 H 413.393 6.37813 0.993246 0
M  V30 4511 H 414.161 8.18495 -0.0287617 0
M  V30 4512 N 416.824 -0.551391 1.4764 0
M  V30 4513 C 417.774 -1.65362 1.56969 0
M  V30 4514 C 418.758 -1.55098 0.428189 0
M  V30 4515 O 419.95 -1.63481 0.678441 0
M  V30 4516 C 417.079 -3.04129 1.59249 0
M  V30 4517 C 416.165 -3.19576 2.78804 0
M  V30 4518 N 416.556 -3.05067 4.03445 0
M  V30 4519 C 414.854 -3.50588 2.75688 0
M  V30 4520 C 415.555 -3.2336 4.83543 0
M  V30 4521 N 414.531 -3.4996 4.15968 0
M  V30 4522 H 418.333 -1.52722 2.51104 0
M  V30 4523 H 415.847 -0.756303 1.43714 0
M  V30 4524 H 417.844 -3.83278 1.64024 0
M  V30 4525 H 416.504 -3.17877 0.662148 0
M  V30 4526 H 417.515 -2.82273 4.34215 0
M  V30 4527 H 414.192 -3.70827 1.91817 0
M  V30 4528 H 415.582 -3.17061 5.92387 0
M  V30 4529 N 418.302 -1.35869 -0.798587 0
M  V30 4530 C 419.549 -1.29588 -1.55606 0
M  V30 4531 C 419.877 0.127456 -1.94082 0
M  V30 4532 O 419.132 1.09461 -1.62225 0
M  V30 4533 C 419.431 -2.1556 -2.85077 0
M  V30 4534 C 419.097 -3.6424 -2.65781 0
M  V30 4535 C 417.759 -4.04766 -2.60227 0
M  V30 4536 C 420.111 -4.58547 -2.47758 0
M  V30 4537 C 417.439 -5.37753 -2.34603 0
M  V30 4538 C 419.791 -5.91742 -2.23662 0
M  V30 4539 C 418.455 -6.31402 -2.16534 0
M  V30 4540 H 417.725 -0.474197 -0.569402 0
M  V30 4541 H 420.372 -1.67839 -0.922086 0
M  V30 4542 H 418.677 -1.70216 -3.52893 0
M  V30 4543 H 420.374 -2.08031 -3.42818 0
M  V30 4544 H 416.964 -3.32086 -2.70956 0
M  V30 4545 H 421.148 -4.28117 -2.51056 0
M  V30 4546 H 416.404 -5.67474 -2.2756 0
M  V30 4547 H 420.578 -6.6439 -2.08708 0
M  V30 4548 H 418.205 -7.34381 -1.96441 0
M  V30 4549 N 419.78 1.02168 -1.19998 0
M  V30 4550 C 421.027 1.75685 -1.00702 0
M  V30 4551 C 421.355 1.88947 0.461426 0
M  V30 4552 O 420.61 1.40832 1.35885 0
M  V30 4553 C 420.909 3.18081 -1.62969 0
M  V30 4554 C 420.575 3.24809 -3.12746 0
M  V30 4555 C 419.237 3.26352 -3.53621 0
M  V30 4556 C 421.589 3.23379 -4.08749 0
M  V30 4557 C 418.917 3.2413 -4.89036 0
M  V30 4558 C 421.269 3.22698 -5.44104 0
M  V30 4559 C 419.933 3.22542 -5.84399 0
M  V30 4560 H 419.203 0.642877 -0.368496 0
M  V30 4561 H 421.85 1.19865 -1.49348 0
M  V30 4562 H 420.155 3.77027 -1.06573 0
M  V30 4563 H 421.852 3.73648 -1.45561 0
M  V30 4564 H 418.442 3.2434 -2.80181 0
M  V30 4565 H 422.626 3.21361 -3.78207 0
M  V30 4566 H 417.882 3.22338 -5.19527 0
M  V30 4567 H 422.056 3.20543 -6.18244 0
M  V30 4568 H 419.683 3.20575 -6.89301 0
M  V30 4569 N 421.258 1.00505 1.21394 0
M  V30 4570 C 422.206 0.558623 2.25792 0
M  V30 4571 C 423.2 -0.396848 1.64686 0
M  V30 4572 O 424.406 -0.268035 1.77993 0
M  V30 4573 H 420.781 0.1623 0.734277 0
M  V30 4574 H 422.752 1.4503 2.60785 0
M  V30 4575 C 421.501 -0.0989574 3.47559 0
M  V30 4576 H 420.824 0.627225 3.94849 0
M  V30 4577 H 422.264 -0.3746 4.22342 0
M  V30 4578 C 420.723 -1.33817 3.09184 0
M  V30 4579 O 421.253 -2.43252 3.19674 0
M  V30 4580 N 419.459 -1.21793 2.63846 0
M  V30 4581 H 419.006 -0.32746 2.5551 0
M  V30 4582 H 418.964 -2.04809 2.38539 0
M  V30 4583 N 422.737 -1.36956 0.779787 0
M  V30 4584 C 423.647 -2.33965 0.172491 0
M  V30 4585 C 424.663 -1.60574 -0.670222 0
M  V30 4586 O 425.839 -1.92617 -0.588263 0
M  V30 4587 C 422.904 -3.39761 -0.690173 0
M  V30 4588 C 421.965 -4.28964 0.169924 0
M  V30 4589 C 421.198 -5.29707 -0.651662 0
M  V30 4590 O 421.421 -5.38238 -1.88827 0
M  V30 4591 O 420.355 -6.01873 -0.0566264 0
M  V30 4592 H 424.181 -2.87647 0.974321 0
M  V30 4593 H 421.766 -1.39258 0.541078 0
M  V30 4594 H 423.648 -4.04471 -1.1824 0
M  V30 4595 H 422.323 -2.88394 -1.47006 0
M  V30 4596 H 421.23 -3.67326 0.708696 0
M  V30 4597 H 422.563 -4.83656 0.913085 0
M  V30 4598 N 424.215 -0.530993 -1.48385 0
M  V30 4599 C 425.461 0.00274135 -2.028 0
M  V30 4600 C 425.794 1.33838 -1.40716 0
M  V30 4601 O 425.069 1.86465 -0.553277 0
M  V30 4602 C 425.352 0.123676 -3.59888 0
M  V30 4603 C 425.205 -1.2372 -4.3245 0
M  V30 4604 C 426.524 0.849967 -4.31814 0
M  V30 4605 H 423.643 -0.000477758 -0.737 0
M  V30 4606 H 426.285 -0.688217 -1.77098 0
M  V30 4607 H 424.435 0.712157 -3.81917 0
M  V30 4608 H 426.107 -1.86687 -4.21836 0
M  V30 4609 H 424.35 -1.81882 -3.93829 0
M  V30 4610 H 425.021 -1.10557 -5.40815 0
M  V30 4611 H 427.497 0.350572 -4.14621 0
M  V30 4612 H 426.373 0.903486 -5.41413 0
M  V30 4613 H 426.634 1.90047 -3.99167 0
M  V30 4614 N 425.693 1.55336 -0.266172 0
M  V30 4615 C 426.623 2.25146 0.618981 0
M  V30 4616 C 427.604 1.23845 1.16604 0
M  V30 4617 O 428.789 1.52544 1.20183 0
M  V30 4618 C 425.919 2.96572 1.80728 0
M  V30 4619 C 424.873 4.04726 1.39215 0
M  V30 4620 C 424.199 4.63678 2.66283 0
M  V30 4621 C 425.499 5.19407 0.548942 0
M  V30 4622 H 427.193 2.99377 0.0368116 0
M  V30 4623 H 424.739 1.43991 0.0162651 0
M  V30 4624 H 426.692 3.44116 2.43232 0
M  V30 4625 H 425.416 2.19861 2.41514 0
M  V30 4626 H 424.075 3.57979 0.790351 0
M  V30 4627 H 423.723 3.83646 3.25308 0
M  V30 4628 H 423.423 5.367 2.39222 0
M  V30 4629 H 424.947 5.13967 3.29651 0
M  V30 4630 H 426.361 5.63059 1.07876 0
M  V30 4631 H 424.758 5.98936 0.373593 0
M  V30 4632 H 425.828 4.8295 -0.434394 0
M  V30 4633 N 427.171 -0.0066808 1.57599 0
M  V30 4634 C 428.587 -0.36267 1.55425 0
M  V30 4635 C 428.787 -1.75209 0.995187 0
M  V30 4636 O 427.843 -2.44616 0.626058 0
M  V30 4637 C 429.156 -0.244017 2.99708 0
M  V30 4638 C 430.704 -0.319451 3.11366 0
M  V30 4639 C 431.179 -0.229998 4.57422 0
M  V30 4640 N 432.67 -0.288105 4.62303 0
M  V30 4641 C 433.405 -0.242127 5.72889 0
M  V30 4642 N 432.901 -0.147133 6.92644 0
M  V30 4643 N 434.694 -0.293502 5.61333 0
M  V30 4644 H 426.845 0.902314 1.92281 0
M  V30 4645 H 429.108 0.34525 0.882896 0
M  V30 4646 H 428.814 0.711678 3.44424 0
M  V30 4647 H 428.688 -1.02877 3.629 0
M  V30 4648 H 431.075 -1.26559 2.66584 0
M  V30 4649 H 431.156 0.495055 2.50964 0
M  V30 4650 H 430.8 0.712566 5.02877 0
M  V30 4651 H 430.73 -1.0629 5.15761 0
M  V30 4652 H 433.221 -0.363126 3.76151 0
M  V30 4653 H 433.534 -0.117763 7.7271 0
M  V30 4654 H 431.879 -0.112857 6.94908 0
M  V30 4655 H 435.07 -0.365864 4.66668 0
M  V30 4656 H 435.243 -0.254204 6.47501 0
M  V30 4657 N 428.649 -1.55105 -0.279332 0
M  V30 4658 C 429.581 -1.83952 -1.36727 0
M  V30 4659 C 430.594 -0.723642 -1.45833 0
M  V30 4660 O 431.783 -1.00141 -1.47763 0
M  V30 4661 C 428.883 -1.98183 -2.74912 0
M  V30 4662 C 428.056 -3.28787 -2.88475 0
M  V30 4663 C 427.115 -3.33162 -4.07295 0
M  V30 4664 O 426.141 -4.06576 -3.98353 0
M  V30 4665 N 427.343 -2.60109 -5.18964 0
M  V30 4666 H 430.108 -2.77853 -1.12328 0
M  V30 4667 H 427.669 -1.54945 -0.469442 0
M  V30 4668 H 429.661 -1.98488 -3.52682 0
M  V30 4669 H 428.231 -1.11177 -2.92162 0
M  V30 4670 H 427.451 -3.41075 -1.97641 0
M  V30 4671 H 428.739 -4.14933 -2.94463 0
M  V30 4672 H 428.137 -2.00136 -5.29115 0
M  V30 4673 H 426.694 -2.66143 -5.94988 0
M  V30 4674 N 430.127 0.543554 -1.4793 0
M  V30 4675 C 431.075 1.67039 -1.61866 0
M  V30 4676 C 432.069 1.62294 -0.48549 0
M  V30 4677 O 433.275 1.67315 -0.66376 0
M  V30 4678 H 429.65 0.552954 -0.509652 0
M  V30 4679 H 431.621 1.52426 -2.56533 0
M  V30 4680 C 430.37 3.05357 -1.6629 0
M  V30 4681 H 429.693 3.09696 -2.5284 0
M  V30 4682 H 431.133 3.83855 -1.80088 0
M  V30 4683 C 429.592 3.34531 -0.398861 0
M  V30 4684 O 430.122 3.98649 0.494162 0
M  V30 4685 N 428.328 2.89299 -0.2747 0
M  V30 4686 H 427.875 2.37298 -1.00236 0
M  V30 4687 H 427.833 3.09188 0.570075 0
M  V30 4688 N 431.605 1.3629 0.791371 0
M  V30 4689 C 432.852 1.30412 1.54916 0
M  V30 4690 C 433.18 -0.117162 1.94147 0
M  V30 4691 O 432.435 -1.08599 1.62803 0
M  V30 4692 C 432.734 2.17068 2.8393 0
M  V30 4693 C 432.4 3.65645 2.63846 0
M  V30 4694 C 431.062 4.0614 2.58077 0
M  V30 4695 C 433.414 4.59855 2.45322 0
M  V30 4696 C 430.742 5.3899 2.31748 0
M  V30 4697 C 433.094 5.9292 2.2052 0
M  V30 4698 C 431.758 6.32542 2.13183 0
M  V30 4699 H 431.028 0.47721 0.566879 0
M  V30 4700 H 433.675 1.68325 0.913172 0
M  V30 4701 H 431.98 1.72085 3.51986 0
M  V30 4702 H 433.677 2.09846 3.4171 0
M  V30 4703 H 430.267 3.33518 2.69191 0
M  V30 4704 H 434.451 4.29443 2.48782 0
M  V30 4705 H 429.707 5.68672 2.24548 0
M  V30 4706 H 433.881 6.65487 2.05182 0
M  V30 4707 H 431.508 7.35412 1.92544 0
M  V30 4708 N 433.083 -1.0153 1.20538 0
M  V30 4709 C 434.311 -1.78746 1.04199 0
M  V30 4710 C 434.726 -1.84323 -0.408733 0
M  V30 4711 O 434.083 -1.29714 -1.28377 0
M  V30 4712 C 434.134 -3.23152 1.62035 0
M  V30 4713 O 433.855 -3.17918 3.0143 0
M  V30 4714 C 435.356 -4.16911 1.50666 0
M  V30 4715 H 432.576 -0.56208 0.366479 0
M  V30 4716 H 435.12 -1.27794 1.59653 0
M  V30 4717 H 433.275 -3.71248 1.10697 0
M  V30 4718 H 433.689 -4.08567 3.28897 0
M  V30 4719 H 435.163 -5.16072 1.95892 0
M  V30 4720 H 435.64 -4.36791 0.459363 0
M  V30 4721 H 436.246 -3.74698 2.01201 0
M  V30 4722 N 434.561 -1.01147 -1.20859 0
M  V30 4723 C 435.809 -0.696486 -1.89719 0
M  V30 4724 C 436.13 0.775788 -1.78904 0
M  V30 4725 O 435.4 1.55759 -1.18811 0
M  V30 4726 H 433.98 -0.254628 -0.702263 0
M  V30 4727 H 436.642 -1.28197 -1.46804 0
M  V30 4728 H 435.738 -0.975357 -2.96468 0
M  V30 4729 N 436.039 1.36541 -0.78704 0
M  V30 4730 C 437.002 2.28413 -0.189778 0
M  V30 4731 C 438.002 1.48719 0.611499 0
M  V30 4732 O 439.192 1.68737 0.432842 0
M  V30 4733 C 436.324 3.32824 0.737638 0
M  V30 4734 H 437.517 2.82743 -0.999831 0
M  V30 4735 H 435.07 1.46065 -0.556298 0
M  V30 4736 H 435.805 2.83646 1.57212 0
M  V30 4737 H 435.59 3.91752 0.165044 0
M  V30 4738 H 437.08 4.0144 1.15047 0
M  V30 4739 N 437.518 0.538854 1.48102 0
M  V30 4740 C 438.764 0.00801365 2.02798 0
M  V30 4741 C 439.097 -1.3309 1.41424 0
M  V30 4742 O 438.372 -1.86169 0.563158 0
M  V30 4743 C 438.655 -0.104589 3.59948 0
M  V30 4744 C 438.508 1.26012 4.31788 0
M  V30 4745 C 439.827 -0.827055 4.32259 0
M  V30 4746 H 436.946 0.00438624 0.736987 0
M  V30 4747 H 439.588 0.6976 1.7673 0
M  V30 4748 H 437.738 -0.691893 3.82289 0
M  V30 4749 H 439.41 1.88922 4.2084 0
M  V30 4750 H 437.653 1.83968 3.92859 0
M  V30 4751 H 438.324 1.13424 5.40221 0
M  V30 4752 H 440.8 -0.328578 4.14801 0
M  V30 4753 H 439.676 -0.87476 5.41885 0
M  V30 4754 H 439.937 -1.87927 4.0017 0
M  V30 4755 N 438.996 -1.55193 0.274407 0
M  V30 4756 C 440.242 -2.00604 -0.33608 0
M  V30 4757 C 440.597 -1.15948 -1.53538 0
M  V30 4758 O 439.89 -0.221385 -1.90317 0
M  V30 4759 C 440.084 -3.49019 -0.769458 0
M  V30 4760 C 439.913 -4.48038 0.386301 0
M  V30 4761 C 438.683 -4.97757 0.869854 0
M  V30 4762 C 440.881 -4.99558 1.22254 0
M  V30 4763 N 438.863 -5.80575 1.99515 0
M  V30 4764 C 440.234 -5.79816 2.19575 0
M  V30 4765 C 442.289 -4.81799 1.25597 0
M  V30 4766 C 440.992 -6.44208 3.19981 0
M  V30 4767 C 443.018 -5.46989 2.24848 0
M  V30 4768 C 442.38 -6.27058 3.20901 0
M  V30 4769 H 438.479 -0.777013 -0.088172 0
M  V30 4770 H 441.063 -1.90583 0.398266 0
M  V30 4771 H 439.234 -3.59383 -1.47303 0
M  V30 4772 H 440.966 -3.81263 -1.35722 0
M  V30 4773 H 437.721 -4.71464 0.449281 0
M  V30 4774 H 438.145 -6.26675 2.5614 0
M  V30 4775 H 442.787 -4.19501 0.527158 0
M  V30 4776 H 440.505 -7.05656 3.93796 0
M  V30 4777 H 444.091 -5.35189 2.28174 0
M  V30 4778 H 442.971 -6.7661 3.96445 0
M  V30 4779 N 440.474 -0.00167713 -1.576 0
M  V30 4780 C 441.723 0.682021 -1.89819 0
M  V30 4781 C 442.036 1.74844 -0.876871 0
M  V30 4782 O 443.242 2.48688 -1.08934 0
M  V30 4783 C 441.698 1.26425 -3.36964 0
M  V30 4784 C 441.306 0.232568 -4.47396 0
M  V30 4785 C 443.05 1.92604 -3.78291 0
M  V30 4786 C 440.957 0.824882 -5.85619 0
M  V30 4787 H 439.887 0.258499 -0.708304 0
M  V30 4788 H 442.538 -0.0624957 -1.83394 0
M  V30 4789 H 440.92 2.05949 -3.38232 0
M  V30 4790 H 442.094 -0.5382 -4.57646 0
M  V30 4791 H 440.409 -0.32888 -4.15099 0
M  V30 4792 H 443.006 2.37827 -4.78897 0
M  V30 4793 H 443.349 2.75732 -3.11894 0
M  V30 4794 H 443.882 1.19812 -3.79328 0
M  V30 4795 H 440.621 0.0323542 -6.55492 0
M  V30 4796 H 440.141 1.56477 -5.79029 0
M  V30 4797 H 441.82 1.32301 -6.33329 0
M  V30 4798 N 441.952 1.55251 0.271103 0
M  V30 4799 C 442.915 1.87484 1.31842 0
M  V30 4800 C 443.915 0.749545 1.42262 0
M  V30 4801 O 445.105 1.01771 1.4138 0
M  V30 4802 C 442.237 2.0818 2.69951 0
M  V30 4803 H 443.43 2.81108 1.0449 0
M  V30 4804 H 440.983 1.47771 0.509258 0
M  V30 4805 H 441.718 1.16944 3.02481 0
M  V30 4806 H 441.503 2.90114 2.63774 0
M  V30 4807 H 442.993 2.34385 3.4562 0
M  V30 4808 N 443.43 -0.535701 1.48216 0
M  V30 4809 C 444.655 -1.32149 1.59848 0
M  V30 4810 C 445.08 -1.86338 0.256842 0
M  V30 4811 O 444.438 -1.64107 -0.770632 0
M  V30 4812 C 444.486 -2.45224 2.64381 0
M  V30 4813 O 443.59 -3.48093 2.21144 0
M  V30 4814 H 442.931 -0.391634 0.536208 0
M  V30 4815 H 445.461 -0.645202 1.94161 0
M  V30 4816 H 445.471 -2.91491 2.85476 0
M  V30 4817 H 444.146 -2.05143 3.61786 0
M  V30 4818 H 442.723 -3.07984 2.10239 0
M  V30 4819 N 444.908 -1.36708 -0.784132 0
M  V30 4820 C 445.818 -1.3363 -1.92822 0
M  V30 4821 C 446.834 -0.237686 -1.72369 0
M  V30 4822 O 448.01 -0.470962 -1.95816 0
M  V30 4823 C 445.075 -1.13011 -3.27764 0
M  V30 4824 C 444.136 -2.32397 -3.60957 0
M  V30 4825 C 443.369 -2.12752 -4.89461 0
M  V30 4826 O 443.592 -1.10541 -5.59586 0
M  V30 4827 O 442.526 -3.00653 -5.21432 0
M  V30 4828 H 446.352 -2.29964 -1.98369 0
M  V30 4829 H 443.937 -1.1731 -0.925136 0
M  V30 4830 H 445.819 -1.03451 -4.08504 0
M  V30 4831 H 444.494 -0.19743 -3.23097 0
M  V30 4832 H 443.401 -2.47527 -2.80502 0
M  V30 4833 H 444.734 -3.2419 -3.70354 0
M  V30 4834 N 446.386 1.0089 -1.21074 0
M  V30 4835 C 447.611 1.78727 -1.05221 0
M  V30 4836 C 448.036 1.83932 0.393795 0
M  V30 4837 O 447.394 1.28004 1.28393 0
M  V30 4838 C 447.442 3.20665 -1.64944 0
M  V30 4839 O 446.546 4.02632 -0.892273 0
M  V30 4840 H 445.887 0.550973 -0.370574 0
M  V30 4841 H 448.417 1.26847 -1.60534 0
M  V30 4842 H 448.427 3.71352 -1.69002 0
M  V30 4843 H 447.102 3.16191 -2.70177 0
M  V30 4844 H 445.679 3.61207 -0.926492 0
M  V30 4845 N 447.864 1.01787 1.20321 0
M  V30 4846 C 449.11 0.718699 1.90279 0
M  V30 4847 C 449.465 -0.743669 1.77447 0
M  V30 4848 O 448.758 -1.53345 1.14874 0
M  V30 4849 C 448.952 1.09076 3.40349 0
M  V30 4850 C 448.781 2.58775 3.67784 0
M  V30 4851 C 447.551 3.25578 3.86428 0
M  V30 4852 C 449.749 3.56966 3.70243 0
M  V30 4853 N 447.731 4.64495 4.01395 0
M  V30 4854 C 449.102 4.8145 3.90649 0
M  V30 4855 C 451.157 3.5092 3.53213 0
M  V30 4856 C 449.86 6.00619 3.95789 0
M  V30 4857 C 451.886 4.69493 3.59625 0
M  V30 4858 C 451.248 5.92786 3.80505 0
M  V30 4859 H 447.347 0.31468 0.715891 0
M  V30 4860 H 449.931 1.30295 1.44677 0
M  V30 4861 H 448.102 0.534839 3.847 0
M  V30 4862 H 449.834 0.744997 3.97784 0
M  V30 4863 H 446.589 2.76003 3.84862 0
M  V30 4864 H 447.013 5.36624 4.12752 0
M  V30 4865 H 451.655 2.56593 3.36035 0
M  V30 4866 H 449.373 6.95326 4.11762 0
M  V30 4867 H 452.959 4.66432 3.47754 0
M  V30 4868 H 451.839 6.83003 3.85327 0
M  V30 4869 N 449.342 -1.36122 0.79427 0
M  V30 4870 C 450.305 -2.28309 0.201889 0
M  V30 4871 C 451.305 -1.49041 -0.603603 0
M  V30 4872 O 452.495 -1.68964 -0.423888 0
M  V30 4873 C 449.627 -3.3321 -0.719978 0
M  V30 4874 H 450.82 -2.82208 1.01481 0
M  V30 4875 H 448.373 -1.45768 0.564037 0
M  V30 4876 H 449.108 -2.84475 -1.55706 0
M  V30 4877 H 448.893 -3.91835 -0.144266 0
M  V30 4878 H 450.383 -4.02044 -1.12916 0
M  V30 4879 N 450.82 -0.546701 -1.47814 0
M  V30 4880 C 452.069 -0.0166497 -2.01693 0
M  V30 4881 C 452.382 1.33721 -1.42752 0
M  V30 4882 O 453.588 1.95658 -1.8823 0
M  V30 4883 C 452.044 0.0206769 -3.59894 0
M  V30 4884 C 451.652 -1.3293 -4.27824 0
M  V30 4885 C 453.396 0.498674 -4.21561 0
M  V30 4886 C 451.303 -1.25165 -5.78003 0
M  V30 4887 H 450.233 -0.0024541 -0.753996 0
M  V30 4888 H 452.884 -0.692984 -1.69912 0
M  V30 4889 H 451.266 0.76244 -3.88591 0
M  V30 4890 H 452.44 -2.08795 -4.10781 0
M  V30 4891 H 450.755 -1.74438 -3.78101 0
M  V30 4892 H 453.352 0.575 -5.31599 0
M  V30 4893 H 453.695 1.5083 -3.88016 0
M  V30 4894 H 454.228 -0.18791 -3.97356 0
M  V30 4895 H 450.967 -2.23695 -6.1615 0
M  V30 4896 H 450.487 -0.53464 -5.97412 0
M  V30 4897 H 452.166 -0.949299 -6.39998 0
M  V30 4898 N 452.299 1.55045 -0.282633 0
M  V30 4899 C 453.576 1.9179 0.384166 0
M  V30 4900 C 453.956 1.20778 1.73136 0
M  V30 4901 O 453.304 0.33719 2.25998 0
M  V30 4902 C 453.514 3.45149 0.517014 0
M  V30 4903 C 454.862 4.17064 0.796427 0
M  V30 4904 O 455.886 3.51084 0.601535 0
M  V30 4905 O 454.745 5.33837 1.16962 0
M  V30 4906 H 451.839 0.799483 0.211558 0
M  V30 4907 H 454.385 1.66474 -0.32934 0
M  V30 4908 H 453.157 3.88922 -0.430772 0
M  V30 4909 H 452.78 3.76443 1.2797 0
M  V30 4910 N 453.777 0.010035 1.57597 0
M  V30 4911 C 455.188 -0.531426 1.78977 0
M  V30 4912 C 455.539 -1.73375 0.918454 0
M  V30 4913 O 454.664 -2.16047 0.123635 0
M  V30 4914 C 455.259 -0.97086 3.24592 0
M  V30 4915 C 453.818 -1.45756 3.47033 0
M  V30 4916 C 452.965 -0.413384 2.74201 0
M  V30 4917 H 455.916 0.236166 1.56933 0
M  V30 4918 H 455.937 -1.83633 3.33255 0
M  V30 4919 H 455.449 -0.0955893 3.87982 0
M  V30 4920 H 453.55 -2.35339 2.88871 0
M  V30 4921 H 453.663 -1.4781 4.55729 0
M  V30 4922 H 452.027 -0.877266 2.39115 0
M  V30 4923 H 452.81 0.453092 3.40297 0
M  V30 4924 N 455.255 -1.55392 -0.262866 0
M  V30 4925 C 456.501 -1.76737 -0.99458 0
M  V30 4926 C 456.834 -0.572453 -1.85571 0
M  V30 4927 O 456.109 0.429732 -1.89693 0
M  V30 4928 C 456.392 -3.07824 -1.8686 0
M  V30 4929 C 456.245 -4.3769 -1.03672 0
M  V30 4930 C 457.564 -3.35021 -2.85393 0
M  V30 4931 H 454.683 -0.643005 -0.360157 0
M  V30 4932 H 457.325 -1.88126 -0.266216 0
M  V30 4933 H 455.475 -2.98245 -2.48962 0
M  V30 4934 H 457.147 -4.59238 -0.43563 0
M  V30 4935 H 455.39 -4.32461 -0.340513 0
M  V30 4936 H 456.061 -5.25759 -1.6817 0
M  V30 4937 H 458.537 -3.44458 -2.33426 0
M  V30 4938 H 457.413 -4.27989 -3.43681 0
M  V30 4939 H 457.674 -2.55153 -3.61039 0
M  V30 4940 N 456.733 0.527833 -1.48498 0
M  V30 4941 C 457.663 1.64136 -1.66077 0
M  V30 4942 C 458.644 1.62286 -0.509625 0
M  V30 4943 O 459.829 1.79449 -0.742413 0
M  V30 4944 C 456.959 3.02717 -1.70234 0
M  V30 4945 C 455.913 3.19426 -2.8487 0
M  V30 4946 C 455.239 4.5909 -2.74118 0
M  V30 4947 C 456.539 3.01993 -4.26142 0
M  V30 4948 H 458.233 1.4968 -2.593 0
M  V30 4949 H 455.779 0.718654 -1.24785 0
M  V30 4950 H 457.732 3.80491 -1.8112 0
M  V30 4951 H 456.456 3.18201 -0.735911 0
M  V30 4952 H 455.115 2.4407 -2.73542 0
M  V30 4953 H 454.763 4.71413 -1.7544 0
M  V30 4954 H 454.463 4.71214 -3.51042 0
M  V30 4955 H 455.987 5.3896 -2.86974 0
M  V30 4956 H 457.401 3.69558 -4.38292 0
M  V30 4957 H 455.798 3.2561 -5.04082 0
M  V30 4958 H 456.868 1.98396 -4.42456 0
M  V30 4959 N 458.211 1.37122 0.776871 0
M  V30 4960 C 459.161 1.28989 1.88005 0
M  V30 4961 C 460.145 0.178765 1.59904 0
M  V30 4962 O 461.337 0.412705 1.72121 0
M  V30 4963 C 458.466 1.09402 3.25402 0
M  V30 4964 C 457.552 2.25036 3.59471 0
M  V30 4965 N 457.943 3.50407 3.64759 0
M  V30 4966 C 456.241 2.17078 3.89607 0
M  V30 4967 C 456.942 4.26628 3.95428 0
M  V30 4968 N 455.918 3.55709 4.11062 0
M  V30 4969 H 459.72 2.2394 1.90337 0
M  V30 4970 H 457.234 1.30021 0.973052 0
M  V30 4971 H 459.231 1.01661 4.04315 0
M  V30 4972 H 457.891 0.153632 3.24336 0
M  V30 4973 H 458.902 3.8438 3.47091 0
M  V30 4974 H 455.579 1.31067 3.96393 0
M  V30 4975 H 456.969 5.35107 4.06338 0
M  V30 4976 N 459.689 -1.00246 1.21608 0
M  V30 4977 C 460.637 -2.11193 0.97469 0
M  V30 4978 C 461.631 -1.69216 -0.0789303 0
M  V30 4979 O 462.837 -1.79853 0.0726806 0
M  V30 4980 H 459.212 -0.690455 0.297953 0
M  V30 4981 H 461.183 -2.2873 1.91638 0
M  V30 4982 C 459.932 -3.43182 0.558717 0
M  V30 4983 H 459.255 -3.75918 1.3611 0
M  V30 4984 H 460.695 -4.21823 0.429154 0
M  V30 4985 C 459.154 -3.28882 -0.730648 0
M  V30 4986 O 459.684 -3.59835 -1.78554 0
M  V30 4987 N 457.89 -2.8209 -0.698131 0
M  V30 4988 H 457.437 -2.57099 0.16061 0
M  V30 4989 H 457.395 -2.72903 -1.56113 0
M  V30 4990 N 461.167 -1.02423 -1.1978 0
M  V30 4991 C 462.097 -0.62157 -2.25075 0
M  V30 4992 C 463.078 0.367148 -1.6609 0
M  V30 4993 O 464.263 0.250892 -1.92573 0
M  V30 4994 C 461.393 0.0331826 -3.47284 0
M  V30 4995 C 460.347 -0.877323 -4.18912 0
M  V30 4996 C 459.673 -0.0879296 -5.34628 0
M  V30 4997 C 460.973 -2.18892 -4.74219 0
M  V30 4998 H 462.667 -1.50179 -2.59011 0
M  V30 4999 H 460.213 -0.723547 -1.24502 0
M  V30 5000 H 462.166 0.326488 -4.20133 0
M  V30 5001 H 460.89 0.948164 -3.12534 0
M  V30 5002 H 459.549 -1.15475 -3.47938 0
M  V30 5003 H 459.197 0.828941 -4.96123 0
M  V30 5004 H 458.897 -0.694359 -5.83483 0
M  V30 5005 H 460.421 0.198743 -6.10276 0
M  V30 5006 H 461.835 -1.95746 -5.38847 0
M  V30 5007 H 460.232 -2.74686 -5.33542 0
M  V30 5008 H 461.302 -2.84674 -3.92541 0
M  V30 5009 N 462.645 1.35699 -0.801477 0
M  V30 5010 C 463.873 2.03157 -0.391768 0
M  V30 5011 C 464.288 1.60412 0.995668 0
M  V30 5012 O 463.645 0.799228 1.64069 0
M  V30 5013 C 463.696 3.58566 -0.459671 0
M  V30 5014 O 463.417 3.99756 -1.7924 0
M  V30 5015 C 464.918 4.4328 -0.0421205 0
M  V30 5016 H 462.138 0.651688 -0.159825 0
M  V30 5017 H 464.682 1.73426 -1.08368 0
M  V30 5018 H 462.837 3.86963 0.183939 0
M  V30 5019 H 463.251 4.94387 -1.75162 0
M  V30 5020 H 464.725 5.51821 -0.140754 0
M  V30 5021 H 465.202 4.27383 1.01196 0
M  V30 5022 H 465.808 4.20168 -0.658687 0
M  V30 5023 N 464.123 0.554532 1.47522 0
M  V30 5024 C 465.033 -0.197865 2.33764 0
M  V30 5025 C 466.049 -0.914576 1.48025 0
M  V30 5026 O 467.225 -0.884067 1.80959 0
M  V30 5027 C 464.29 -1.21628 3.24665 0
M  V30 5028 C 463.351 -0.507283 4.26292 0
M  V30 5029 C 462.584 -1.47718 5.1285 0
M  V30 5030 O 462.807 -2.7118 5.01814 0
M  V30 5031 O 461.741 -1.00313 5.93482 0
M  V30 5032 H 465.567 0.50949 2.99396 0
M  V30 5033 H 463.152 0.315176 1.46038 0
M  V30 5034 H 465.034 -1.80421 3.80823 0
M  V30 5035 H 463.709 -1.9056 2.61665 0
M  V30 5036 H 462.616 0.121778 3.73902 0
M  V30 5037 H 463.949 0.140544 4.91999 0
M  V30 5038 N 465.601 -1.54893 0.290851 0
M  V30 5039 C 466.531 -2.26103 -0.583084 0
M  V30 5040 C 467.512 -1.25684 -1.14619 0
M  V30 5041 O 468.697 -1.54436 -1.17741 0
M  V30 5042 C 465.827 -2.99409 -1.75987 0
M  V30 5043 C 464.781 -4.0689 -1.32758 0
M  V30 5044 C 464.107 -4.67856 -2.58872 0
M  V30 5045 C 465.407 -5.20215 -0.46624 0
M  V30 5046 H 467.101 -2.99398 0.0108214 0
M  V30 5047 H 464.647 -1.43998 0.00664468 0
M  V30 5048 H 466.6 -3.47943 -2.37727 0
M  V30 5049 H 465.324 -2.23675 -2.37985 0
M  V30 5050 H 463.983 -3.59191 -0.733299 0
M  V30 5051 H 463.631 -3.88772 -3.19163 0
M  V30 5052 H 463.331 -5.40438 -2.30653 0
M  V30 5053 H 464.855 -5.19147 -3.21433 0
M  V30 5054 H 466.269 -5.64704 -0.989047 0
M  V30 5055 H 464.666 -5.99455 -0.27826 0
M  V30 5056 H 465.736 -4.82198 0.511173 0
M  V30 5057 N 467.08 -0.0183926 -1.57589 0
M  V30 5058 C 468.496 0.337897 -1.55982 0
M  V30 5059 C 468.696 1.73604 -1.02294 0
M  V30 5060 O 467.752 2.43589 -0.664895 0
M  V30 5061 C 469.065 0.196305 -3.00059 0
M  V30 5062 C 470.613 0.269875 -3.11834 0
M  V30 5063 C 471.088 0.157197 -4.5773 0
M  V30 5064 N 472.579 0.214521 -4.62703 0
M  V30 5065 C 473.314 0.150955 -5.73201 0
M  V30 5066 N 472.81 0.0369212 -6.9279 0
M  V30 5067 N 474.603 0.204162 -5.61729 0
M  V30 5068 H 466.754 -0.93279 -1.90821 0
M  V30 5069 H 469.017 -0.359253 -0.877292 0
M  V30 5070 H 468.723 -0.766383 -3.43248 0
M  V30 5071 H 468.597 0.970908 -3.6449 0
M  V30 5072 H 470.984 1.22302 -2.68563 0
M  V30 5073 H 471.065 -0.534918 -2.50144 0
M  V30 5074 H 470.709 -0.792479 -5.01679 0
M  V30 5075 H 470.639 0.980717 -5.17387 0
M  V30 5076 H 473.13 0.303238 -3.76681 0
M  V30 5077 H 473.443 -0.00518321 -7.728 0
M  V30 5078 H 471.788 0.0022886 -6.95 0
M  V30 5079 H 474.979 0.291575 -4.67191 0
M  V30 5080 H 475.152 0.15116 -6.47824 0
M  V30 5081 N 468.558 1.5553 0.254621 0
M  V30 5082 C 469.508 1.86057 1.31783 0
M  V30 5083 C 470.492 0.720827 1.4385 0
M  V30 5084 O 471.684 0.982586 1.47222 0
M  V30 5085 C 468.813 2.15203 2.67475 0
M  V30 5086 C 467.899 3.35484 2.59444 0
M  V30 5087 N 468.29 4.54945 2.2104 0
M  V30 5088 C 466.588 3.38441 2.90472 0
M  V30 5089 C 467.289 5.3707 2.23453 0
M  V30 5090 N 466.265 4.75936 2.62652 0
M  V30 5091 H 470.067 2.75953 1.01129 0
M  V30 5092 H 467.581 1.55653 0.463255 0
M  V30 5093 H 469.578 2.35235 3.44195 0
M  V30 5094 H 468.238 1.26601 2.99002 0
M  V30 5095 H 469.249 4.8071 1.92712 0
M  V30 5096 H 465.926 2.60087 3.2659 0
M  V30 5097 H 467.316 6.42626 1.96166 0
M  V30 5098 N 470.036 -0.519951 1.48776 0
M  V30 5099 C 470.966 -1.63253 1.66945 0
M  V30 5100 C 471.947 -1.62014 0.518224 0
M  V30 5101 O 473.132 -1.79053 0.751919 0
M  V30 5102 C 470.262 -3.0181 1.71836 0
M  V30 5103 C 469.216 -3.17911 2.8656 0
M  V30 5104 C 468.542 -4.5763 2.76548 0
M  V30 5105 C 469.842 -2.99729 4.27738 0
M  V30 5106 H 471.536 -1.48302 2.6009 0
M  V30 5107 H 469.082 -0.712026 1.25165 0
M  V30 5108 H 471.035 -3.79525 1.83135 0
M  V30 5109 H 469.759 -3.17806 0.752775 0
M  V30 5110 H 468.418 -2.42616 2.74833 0
M  V30 5111 H 468.066 -4.70476 1.77937 0
M  V30 5112 H 467.766 -4.69346 3.53536 0
M  V30 5113 H 469.29 -5.37431 2.89828 0
M  V30 5114 H 470.704 -3.67228 4.40246 0
M  V30 5115 H 469.101 -3.22932 5.05801 0
M  V30 5116 H 470.171 -1.96047 4.43502 0
M  V30 5117 N 471.514 -1.37532 -0.769588 0
M  V30 5118 C 472.762 -1.32597 -1.5252 0
M  V30 5119 C 473.083 0.0884294 -1.94799 0
M  V30 5120 O 472.353 1.03289 -1.66458 0
M  V30 5121 H 470.933 -0.487846 -0.565699 0
M  V30 5122 H 473.595 -1.72044 -0.915806 0
M  V30 5123 H 472.691 -1.96643 -2.42359 0
M  V30 5124 N 472.992 0.995999 -1.22138 0
M  V30 5125 C 474.22 1.77066 -1.07029 0
M  V30 5126 C 474.635 1.8495 0.379357 0
M  V30 5127 O 473.992 1.3174 1.26297 0
M  V30 5128 C 474.043 3.20533 -1.67155 0
M  V30 5129 O 473.764 3.13082 -3.06449 0
M  V30 5130 C 475.265 4.14461 -1.5728 0
M  V30 5131 H 472.485 0.556179 -0.375374 0
M  V30 5132 H 475.029 1.25238 -1.61666 0
M  V30 5133 H 473.184 3.6944 -1.16589 0
M  V30 5134 H 473.598 4.03283 -3.35355 0
M  V30 5135 H 475.072 5.1289 -2.04078 0
M  V30 5136 H 475.549 4.36005 -0.528795 0
M  V30 5137 H 476.155 3.71449 -2.07136 0
M  V30 5138 N 474.47 1.03057 1.19235 0
M  V30 5139 C 475.717 0.728019 1.88961 0
M  V30 5140 C 476.045 -0.743515 1.79728 0
M  V30 5141 O 475.3 -1.55729 1.1852 0
M  V30 5142 C 475.599 1.1268 3.39172 0
M  V30 5143 C 475.265 2.5969 3.68608 0
M  V30 5144 C 473.927 2.99854 3.76352 0
M  V30 5145 C 476.279 3.54793 3.81801 0
M  V30 5146 C 473.607 4.34031 3.94758 0
M  V30 5147 C 475.959 4.88675 4.0172 0
M  V30 5148 C 474.623 5.28526 4.07697 0
M  V30 5149 H 473.893 0.266401 0.691456 0
M  V30 5150 H 476.54 1.29373 1.41191 0
M  V30 5151 H 474.845 0.479722 3.88852 0
M  V30 5152 H 476.542 0.870203 3.91444 0
M  V30 5153 H 473.132 2.27575 3.63191 0
M  V30 5154 H 477.316 3.24914 3.7516 0
M  V30 5155 H 472.572 4.6444 3.97625 0
M  V30 5156 H 476.746 5.6228 4.1087 0
M  V30 5157 H 474.373 6.32506 4.21712 0
M  V30 5158 N 475.948 -1.35272 0.808662 0
M  V30 5159 C 476.878 -2.32315 0.234981 0
M  V30 5160 C 477.859 -1.57572 -0.64071 0
M  V30 5161 O 479.044 -1.8563 -0.570551 0
M  V30 5162 C 476.174 -3.41801 -0.615601 0
M  V30 5163 C 475.128 -4.27694 0.161767 0
M  V30 5164 C 474.454 -5.28519 -0.810649 0
M  V30 5165 C 475.754 -5.04231 1.36193 0
M  V30 5166 H 477.448 -2.80543 1.04575 0
M  V30 5167 H 474.994 -1.3488 0.504315 0
M  V30 5168 H 476.947 -4.08693 -1.02702 0
M  V30 5169 H 475.671 -2.92186 -1.45928 0
M  V30 5170 H 474.33 -3.62384 0.554382 0
M  V30 5171 H 473.978 -4.75171 -1.64988 0
M  V30 5172 H 473.678 -5.8686 -0.294822 0
M  V30 5173 H 475.202 -5.98283 -1.22023 0
M  V30 5174 H 476.616 -5.64058 1.02528 0
M  V30 5175 H 475.013 -5.72077 1.81239 0
M  V30 5176 H 476.083 -4.34753 2.14751 0
M  V30 5177 N 477.426 -0.562348 -1.47226 0
M  V30 5178 C 478.674 -0.0401371 -2.0206 0
M  V30 5179 C 478.995 1.3165 -1.43852 0
M  V30 5180 O 478.265 1.85976 -0.615599 0
M  V30 5181 H 476.845 -0.0118479 -0.746906 0
M  V30 5182 H 479.507 -0.73352 -1.8057 0
M  V30 5183 H 478.603 0.0441254 -3.12069 0
M  V30 5184 N 478.904 1.54736 -0.299062 0
M  V30 5185 C 480.153 1.99279 0.311549 0
M  V30 5186 C 480.466 1.19107 1.55154 0
M  V30 5187 O 481.672 1.53908 2.23662 0
M  V30 5188 C 480.128 3.54768 0.605632 0
M  V30 5189 C 479.736 4.43746 -0.615914 0
M  V30 5190 C 481.48 4.07841 1.17754 0
M  V30 5191 C 479.387 5.90663 -0.29509 0
M  V30 5192 H 478.317 0.744359 0.120187 0
M  V30 5193 H 480.968 1.78919 -0.407464 0
M  V30 5194 H 479.35 3.71021 1.38419 0
M  V30 5195 H 480.524 4.39267 -1.39218 0
M  V30 5196 H 478.839 4.01434 -1.10633 0
M  V30 5197 H 481.436 5.15174 1.43179 0
M  V30 5198 H 481.779 3.58324 2.11918 0
M  V30 5199 H 482.312 3.95123 0.460739 0
M  V30 5200 H 479.051 6.44325 -1.20524 0
M  V30 5201 H 478.571 5.98155 0.44394 0
M  V30 5202 H 480.25 6.46916 0.104048 0
M  V30 5203 N 480.382 0.0267497 1.57577 0
M  V30 5204 C 481.61 -0.662661 1.96001 0
M  V30 5205 C 482.025 -1.65799 0.903117 0
M  V30 5206 O 481.382 -1.82135 -0.115317 0
M  V30 5207 C 481.433 -1.37112 3.34488 0
M  V30 5208 O 481.154 -0.415683 4.36123 0
M  V30 5209 C 482.655 -2.15257 3.8753 0
M  V30 5210 H 479.875 -0.18287 0.6456 0
M  V30 5211 H 482.419 0.0858116 2.0432 0
M  V30 5212 H 480.574 -2.07101 3.27395 0
M  V30 5213 H 480.988 -0.918496 5.16395 0
M  V30 5214 H 482.462 -2.60285 4.86781 0
M  V30 5215 H 482.939 -2.99063 3.21649 0
M  V30 5216 H 483.545 -1.50231 3.97883 0
M  V30 5217 N 481.861 -1.55662 -0.24637 0
M  V30 5218 C 483.11 -1.7672 -0.972254 0
M  V30 5219 C 483.423 -0.59078 -1.86465 0
M  V30 5220 O 484.629 -0.684391 -2.62732 0
M  V30 5221 C 483.085 -3.12869 -1.7788 0
M  V30 5222 C 482.693 -4.38161 -0.933768 0
M  V30 5223 C 484.437 -3.43265 -2.49738 0
M  V30 5224 C 482.344 -5.6534 -1.73623 0
M  V30 5225 H 481.274 -0.658795 -0.366749 0
M  V30 5226 H 483.925 -1.82092 -0.226902 0
M  V30 5227 H 482.307 -3.01606 -2.56612 0
M  V30 5228 H 483.481 -4.60413 -0.188736 0
M  V30 5229 H 481.796 -4.15102 -0.328488 0
M  V30 5230 H 484.393 -4.35501 -3.10231 0
M  V30 5231 H 484.736 -2.64614 -3.2138 0
M  V30 5232 H 485.269 -3.55746 -1.78016 0
M  V30 5233 H 482.008 -6.46814 -1.06354 0
M  V30 5234 H 481.528 -5.47188 -2.45653 0
M  V30 5235 H 483.207 -6.04616 -2.30323 0
M  V30 5236 N 483.339 0.512053 -1.4905 0
M  V30 5237 C 484.271 1.63121 -1.6101 0
M  V30 5238 C 485.284 1.55145 -0.493352 0
M  V30 5239 O 486.473 1.61278 -0.764955 0
M  V30 5240 C 483.573 3.01863 -1.54052 0
M  V30 5241 C 482.746 3.35138 -2.81072 0
M  V30 5242 C 481.805 4.5324 -2.67319 0
M  V30 5243 O 480.831 4.55571 -3.41238 0
M  V30 5244 N 482.033 5.52495 -1.78127 0
M  V30 5245 H 484.798 1.53292 -2.5753 0
M  V30 5246 H 482.359 0.699706 -1.45999 0
M  V30 5247 H 484.351 3.78774 -1.42521 0
M  V30 5248 H 482.921 3.05675 -0.654345 0
M  V30 5249 H 482.141 2.4723 -3.07036 0
M  V30 5250 H 483.429 3.54162 -3.65304 0
M  V30 5251 H 482.827 5.53403 -1.17308 0
M  V30 5252 H 481.384 6.28553 -1.72525 0
M  V30 5253 N 484.817 1.37938 0.762283 0
M  V30 5254 C 486.042 1.37059 1.55659 0
M  V30 5255 C 486.467 -0.0396123 1.88058 0
M  V30 5256 O 485.825 -1.01929 1.49934 0
M  V30 5257 C 485.873 2.22494 2.83776 0
M  V30 5258 O 484.977 1.63607 3.78559 0
M  V30 5259 H 484.318 0.467892 0.47114 0
M  V30 5260 H 486.848 1.81587 0.942725 0
M  V30 5261 H 486.858 2.36045 3.32786 0
M  V30 5262 H 485.533 3.24993 2.59524 0
M  V30 5263 H 484.11 1.5915 3.37233 0
M  V30 5264 N 486.295 -0.989507 1.22664 0
M  V30 5265 C 487.541 -1.7321 1.05481 0
M  V30 5266 C 487.874 -1.89852 -0.408635 0
M  V30 5267 O 487.149 -1.44416 -1.30285 0
M  V30 5268 C 487.432 -3.1357 1.77047 0
M  V30 5269 C 487.285 -3.04555 3.31008 0
M  V30 5270 C 488.604 -4.12812 1.5256 0
M  V30 5271 H 485.723 -0.628697 0.384589 0
M  V30 5272 H 488.365 -1.15258 1.51049 0
M  V30 5273 H 486.515 -3.63046 1.3831 0
M  V30 5274 H 488.187 -2.62674 3.7921 0
M  V30 5275 H 486.43 -2.41278 3.6051 0
M  V30 5276 H 487.101 -4.03894 3.76263 0
M  V30 5277 H 489.577 -3.72106 1.86215 0
M  V30 5278 H 488.453 -5.09132 2.05124 0
M  V30 5279 H 488.714 -4.39711 0.458936 0
M  V30 5280 N 487.773 -1.03688 -1.18687 0
M  V30 5281 C 489.184 -0.766488 -1.70241 0
M  V30 5282 C 489.535 0.713052 -1.82784 0
M  V30 5283 O 488.66 1.55529 -1.50465 0
M  V30 5284 C 489.255 -1.38475 -3.09209 0
M  V30 5285 C 487.814 -1.16276 -3.5799 0
M  V30 5286 C 486.961 -1.4778 -2.34641 0
M  V30 5287 H 489.912 -1.20378 -1.03415 0
M  V30 5288 H 489.933 -0.785939 -3.72295 0
M  V30 5289 H 489.445 -2.46157 -3.00048 0
M  V30 5290 H 487.546 -0.104508 -3.72453 0
M  V30 5291 H 487.659 -1.8571 -4.41643 0
M  V30 5292 H 486.023 -0.897366 -2.38368 0
M  V30 5293 H 486.806 -2.56562 -2.28102 0
M  V30 5294 N 489.251 1.34841 -0.815825 0
M  V30 5295 C 490.5 1.97755 -0.396976 0
M  V30 5296 C 490.813 1.65422 1.04379 0
M  V30 5297 O 492.019 2.21771 1.5662 0
M  V30 5298 C 490.475 3.53818 -0.658869 0
M  V30 5299 C 490.083 3.95051 -2.11278 0
M  V30 5300 C 491.827 4.23397 -0.305834 0
M  V30 5301 C 489.734 5.43997 -2.31994 0
M  V30 5302 H 488.664 0.739985 -0.1447 0
M  V30 5303 H 491.315 1.53781 -1.00118 0
M  V30 5304 H 489.697 3.95997 0.0154112 0
M  V30 5305 H 490.871 3.63998 -2.82564 0
M  V30 5306 H 489.186 3.38388 -2.42657 0
M  V30 5307 H 491.783 5.32899 -0.43854 0
M  V30 5308 H 492.126 4.09508 0.748952 0
M  V30 5309 H 492.659 3.8667 -0.934403 0
M  V30 5310 H 489.398 5.62865 -3.35952 0
M  V30 5311 H 488.918 5.76589 -1.65244 0
M  V30 5312 H 490.597 6.10584 -2.14001 0
M  V30 5313 N 490.729 0.570148 1.46925 0
M  V30 5314 C 492.14 0.1402 1.86173 0
M  V30 5315 C 492.491 -1.29347 1.47526 0
M  V30 5316 O 491.616 -1.97508 0.884292 0
M  V30 5317 C 492.211 0.247661 3.37894 0
M  V30 5318 C 490.77 -0.127332 3.76185 0
M  V30 5319 C 489.917 0.589349 2.70965 0
M  V30 5320 H 492.868 0.779117 1.38259 0
M  V30 5321 H 492.889 -0.530341 3.76786 0
M  V30 5322 H 492.401 1.29121 3.65991 0
M  V30 5323 H 490.502 -1.17149 3.53704 0
M  V30 5324 H 490.615 0.240238 4.78497 0
M  V30 5325 H 488.979 0.0309824 2.54681 0
M  V30 5326 H 489.762 1.6343 3.01903 0
M  V30 5327 N 492.207 -1.54576 0.307264 0
M  V30 5328 C 493.455 -1.99867 -0.299574 0
M  V30 5329 C 493.776 -1.19714 -1.53927 0
M  V30 5330 O 493.046 -0.29472 -1.9367 0
M  V30 5331 H 491.626 -0.738299 -0.113683 0
M  V30 5332 H 494.288 -1.9032 0.420042 0
M  V30 5333 H 493.384 -3.06901 -0.567283 0
M  V30 5334 N 493.685 -0.035106 -1.57561 0
M  V30 5335 C 494.932 0.642229 -1.92046 0
M  V30 5336 C 495.26 1.7179 -0.91206 0
M  V30 5337 O 494.515 1.95544 0.0781153 0
M  V30 5338 C 494.814 1.29149 -3.3325 0
M  V30 5339 C 494.48 0.345604 -4.49574 0
M  V30 5340 C 493.142 0.0852775 -4.81124 0
M  V30 5341 C 495.494 -0.303569 -5.20315 0
M  V30 5342 C 492.822 -0.831927 -5.80772 0
M  V30 5343 C 495.174 -1.20886 -6.20942 0
M  V30 5344 C 493.838 -1.47802 -6.50931 0
M  V30 5345 H 493.108 0.235008 -0.702746 0
M  V30 5346 H 495.755 -0.0981529 -1.91248 0
M  V30 5347 H 494.06 2.10676 -3.30337 0
M  V30 5348 H 495.757 1.82223 -3.57205 0
M  V30 5349 H 492.347 0.558683 -4.24943 0
M  V30 5350 H 496.531 -0.115515 -4.96166 0
M  V30 5351 H 491.787 -1.0481 -6.02349 0
M  V30 5352 H 495.961 -1.71804 -6.74875 0
M  V30 5353 H 493.588 -2.19039 -7.2796 0
M  V30 5354 N 495.163 1.55791 0.238111 0
M  V30 5355 C 496.388 1.8244 0.986432 0
M  V30 5356 C 496.813 0.613314 1.7782 0
M  V30 5357 O 496.171 -0.437767 1.75935 0
M  V30 5358 C 496.219 3.06917 1.893 0
M  V30 5359 O 495.323 2.84449 2.98601 0
M  V30 5360 H 494.664 0.601975 0.280218 0
M  V30 5361 H 497.194 2.02987 0.256437 0
M  V30 5362 H 497.204 3.36583 2.30598 0
M  V30 5363 H 495.879 3.947 1.31091 0
M  V30 5364 H 494.456 2.65972 2.61368 0
M  V30 5365 N 496.642 -0.504142 1.49319 0
M  V30 5366 C 497.552 -1.63248 1.68486 0
M  V30 5367 C 498.568 -1.64488 0.567432 0
M  V30 5368 O 499.744 -1.82966 0.841749 0
M  V30 5369 C 496.809 -2.99627 1.74426 0
M  V30 5370 C 495.87 -3.09039 2.97982 0
M  V30 5371 C 495.103 -4.38913 3.0363 0
M  V30 5372 O 495.326 -5.27528 2.16958 0
M  V30 5373 O 494.26 -4.53231 3.96062 0
M  V30 5374 H 498.086 -1.50008 2.64067 0
M  V30 5375 H 495.671 -0.680086 1.33023 0
M  V30 5376 H 497.553 -3.80689 1.80705 0
M  V30 5377 H 496.228 -3.13136 0.820233 0
M  V30 5378 H 495.135 -2.27177 2.97223 0
M  V30 5379 H 496.468 -3.00456 3.89855 0
M  V30 5380 N 498.12 -1.38341 -0.754957 0
M  V30 5381 C 499.367 -1.34473 -1.51404 0
M  V30 5382 C 499.695 0.0656458 -1.94389 0
M  V30 5383 O 498.95 1.04244 -1.65625 0
M  V30 5384 C 499.249 -2.2452 -2.78075 0
M  V30 5385 C 498.915 -3.72512 -2.54059 0
M  V30 5386 C 497.577 -4.1284 -2.47218 0
M  V30 5387 C 499.929 -4.66197 -2.33044 0
M  V30 5388 C 497.257 -5.44945 -2.17376 0
M  V30 5389 C 499.609 -5.98558 -2.04723 0
M  V30 5390 C 498.273 -6.37972 -1.96337 0
M  V30 5391 H 497.543 -0.492072 -0.554027 0
M  V30 5392 H 500.19 -1.70687 -0.868223 0
M  V30 5393 H 498.495 -1.81357 -3.473 0
M  V30 5394 H 500.192 -2.18832 -3.36026 0
M  V30 5395 H 496.782 -3.40538 -2.60253 0
M  V30 5396 H 500.966 -4.35888 -2.37309 0
M  V30 5397 H 496.222 -5.74426 -2.09391 0
M  V30 5398 H 500.396 -6.70693 -1.87465 0
M  V30 5399 H 498.023 -7.40258 -1.72978 0
M  V30 5400 N 499.598 0.982988 -1.23187 0
M  V30 5401 C 501.014 1.2487 -0.993967 0
M  V30 5402 C 501.214 1.99155 0.306498 0
M  V30 5403 O 500.27 2.30688 1.0266 0
M  V30 5404 C 501.583 2.05078 -2.19917 0
M  V30 5405 C 503.131 2.18227 -2.2438 0
M  V30 5406 C 503.606 3.01825 -3.44479 0
M  V30 5407 N 505.097 3.09411 -3.44702 0
M  V30 5408 C 505.832 3.74412 -4.34285 0
M  V30 5409 N 505.328 4.41259 -5.341 0
M  V30 5410 N 507.121 3.71273 -4.22035 0
M  V30 5411 H 499.272 0.485253 -2.06783 0
M  V30 5412 H 501.535 0.276979 -0.906635 0
M  V30 5413 H 501.241 1.57867 -3.14279 0
M  V30 5414 H 501.115 3.05829 -2.2079 0
M  V30 5415 H 503.502 2.64648 -1.30559 0
M  V30 5416 H 503.583 1.16873 -2.2754 0
M  V30 5417 H 503.227 2.56102 -4.38605 0
M  V30 5418 H 503.157 4.03342 -3.38559 0
M  V30 5419 H 505.648 2.61845 -2.7248 0
M  V30 5420 H 505.961 4.88629 -5.98717 0
M  V30 5421 H 504.306 4.39975 -5.38002 0
M  V30 5422 H 507.497 3.18217 -3.43301 0
M  V30 5423 H 507.67 4.21649 -4.92053 0
M  V30 5424 N 501.076 1.04316 1.18135 0
M  V30 5425 C 501.986 0.646876 2.25505 0
M  V30 5426 C 503.002 -0.328008 1.7088 0
M  V30 5427 O 504.178 -0.182309 2.00573 0
M  V30 5428 C 501.243 0.0185664 3.46695 0
M  V30 5429 C 500.304 1.04277 4.16443 0
M  V30 5430 C 499.537 0.444352 5.31847 0
M  V30 5431 O 499.76 -0.748735 5.65465 0
M  V30 5432 O 498.694 1.17428 5.90334 0
M  V30 5433 H 502.52 1.54147 2.61672 0
M  V30 5434 H 500.105 0.814188 1.25265 0
M  V30 5435 H 501.987 -0.331068 4.20097 0
M  V30 5436 H 500.662 -0.849814 3.12346 0
M  V30 5437 H 499.569 1.44425 3.45098 0
M  V30 5438 H 500.902 1.882 4.54798 0
M  V30 5439 N 502.554 -1.34406 0.822964 0
M  V30 5440 C 503.8 -1.98999 0.420847 0
M  V30 5441 C 504.155 -1.64067 -1.00498 0
M  V30 5442 O 503.448 -0.902071 -1.69036 0
M  V30 5443 C 503.642 -3.52981 0.560268 0
M  V30 5444 C 503.471 -4.02873 1.99809 0
M  V30 5445 C 502.241 -4.31463 2.62998 0
M  V30 5446 C 504.439 -4.20241 2.96483 0
M  V30 5447 N 502.421 -4.6739 3.9802 0
M  V30 5448 C 503.792 -4.59348 4.16413 0
M  V30 5449 C 505.847 -4.02489 2.93098 0
M  V30 5450 C 504.55 -4.82559 5.33413 0
M  V30 5451 C 506.576 -4.26866 4.09315 0
M  V30 5452 C 505.938 -4.6626 5.27997 0
M  V30 5453 H 502.037 -0.755432 0.202104 0
M  V30 5454 H 504.621 -1.62815 1.06767 0
M  V30 5455 H 502.792 -3.88359 -0.0566596 0
M  V30 5456 H 504.524 -4.04487 0.131146 0
M  V30 5457 H 501.279 -4.22373 2.14238 0
M  V30 5458 H 501.703 -4.89588 4.67582 0
M  V30 5459 H 506.345 -3.71161 2.02483 0
M  V30 5460 H 504.063 -5.12754 6.24587 0
M  V30 5461 H 507.649 -4.14667 4.08096 0
M  V30 5462 H 506.529 -4.84752 6.16429 0
M  V30 5463 N 504.032 -0.577932 -1.46621 0
M  V30 5464 C 505.28 -0.061566 -2.02006 0
M  V30 5465 C 505.601 1.30117 -1.4524 0
M  V30 5466 O 504.871 1.85313 -0.63529 0
M  V30 5467 H 503.451 -0.0197692 -0.746738 0
M  V30 5468 H 506.113 -0.752631 -1.79782 0
M  V30 5469 H 505.209 0.0110238 -3.12098 0
M  V30 5470 N 505.51 1.54411 -0.315457 0
M  V30 5471 C 506.921 1.85885 0.174265 0
M  V30 5472 C 507.272 1.23723 1.52273 0
M  V30 5473 O 506.397 0.540246 2.09548 0
M  V30 5474 C 506.992 3.37257 0.322981 0
M  V30 5475 C 505.551 3.68711 0.756922 0
M  V30 5476 C 504.698 2.77013 -0.126195 0
M  V30 5477 H 507.649 1.49374 -0.536007 0
M  V30 5478 H 507.67 3.62539 1.15522 0
M  V30 5479 H 507.182 3.82471 -0.658602 0
M  V30 5480 H 505.283 3.29024 1.74854 0
M  V30 5481 H 505.396 4.75741 0.566291 0
M  V30 5482 H 503.76 2.51588 0.39692 0
M  V30 5483 H 504.543 3.25051 -1.1044 0
M  V30 5484 N 506.988 0.0434614 1.5754 0
M  V30 5485 C 507.92 -0.962586 2.08007 0
M  V30 5486 C 508.933 -1.27972 1.00634 0
M  V30 5487 O 510.122 -1.24186 1.28219 0
M  V30 5488 C 507.222 -2.28621 2.50171 0
M  V30 5489 C 506.395 -2.15214 3.80791 0
M  V30 5490 C 505.454 -3.30633 4.09351 0
M  V30 5491 O 504.48 -3.0688 4.79388 0
M  V30 5492 N 505.682 -4.54873 3.60654 0
M  V30 5493 H 508.447 -0.531891 2.94942 0
M  V30 5494 H 506.008 -0.142965 1.61268 0
M  V30 5495 H 508 -3.04689 2.66359 0
M  V30 5496 H 506.57 -2.63283 1.68525 0
M  V30 5497 H 505.79 -1.23785 3.74261 0
M  V30 5498 H 507.078 -2.03475 4.66343 0
M  V30 5499 H 506.476 -4.77063 3.04019 0
M  V30 5500 H 505.033 -5.2806 3.82094 0
M  V30 5501 N 508.466 -1.55915 -0.229846 0
M  V30 5502 C 509.429 -1.90914 -1.26824 0
M  V30 5503 C 510.429 -0.786999 -1.40225 0
M  V30 5504 O 511.619 -1.05484 -1.38632 0
M  V30 5505 C 508.751 -2.15264 -2.64337 0
M  V30 5506 H 509.944 -2.8378 -0.969998 0
M  V30 5507 H 507.497 -1.49069 -0.4699 0
M  V30 5508 H 508.232 -1.24923 -2.99274 0
M  V30 5509 H 508.017 -2.97005 -2.55989 0
M  V30 5510 H 509.507 -2.43467 -3.39284 0
M  V30 5511 N 509.944 0.496216 -1.49584 0
M  V30 5512 C 511.192 1.24756 -1.58998 0
M  V30 5513 C 511.513 1.92968 -0.280775 0
M  V30 5514 O 510.783 1.82959 0.700198 0
M  V30 5515 H 509.363 0.463471 -0.585836 0
M  V30 5516 H 512.025 0.574678 -1.86235 0
M  V30 5517 H 511.121 2.00895 -2.38847 0
M  V30 5518 N 511.423 1.38739 0.74761 0
M  V30 5519 C 512.834 1.31507 1.32524 0
M  V30 5520 C 513.185 -0.0263963 1.96182 0
M  V30 5521 O 512.31 -0.92849 1.95469 0
M  V30 5522 C 512.905 2.38162 2.40966 0
M  V30 5523 C 511.464 2.34489 2.94434 0
M  V30 5524 C 510.611 2.20712 1.67873 0
M  V30 5525 H 513.562 1.4901 0.546043 0
M  V30 5526 H 513.583 2.04222 3.21051 0
M  V30 5527 H 513.095 3.35783 1.94605 0
M  V30 5528 H 511.196 1.40467 3.45108 0
M  V30 5529 H 511.309 3.28861 3.48407 0
M  V30 5530 H 509.673 1.67667 1.91729 0
M  V30 5531 H 510.456 3.20285 1.23582 0
M  V30 5532 N 512.901 -0.976442 1.23707 0
M  V30 5533 C 514.312 -1.53284 1.06587 0
M  V30 5534 C 514.663 -1.92765 -0.365526 0
M  V30 5535 O 513.788 -1.7645 -1.25277 0
M  V30 5536 C 514.383 -2.78548 1.92864 0
M  V30 5537 C 512.942 -3.30574 1.79994 0
M  V30 5538 C 512.089 -2.03538 1.88328 0
M  V30 5539 H 515.04 -0.795692 1.37311 0
M  V30 5540 H 515.061 -3.5155 1.45577 0
M  V30 5541 H 514.573 -2.49782 2.97037 0
M  V30 5542 H 512.674 -3.64211 0.786202 0
M  V30 5543 H 512.787 -4.00065 2.636 0
M  V30 5544 H 511.151 -2.17853 1.31954 0
M  V30 5545 H 511.934 -1.77149 2.94063 0
M  V30 5546 N 514.379 -1.04941 -1.1758 0
M  V30 5547 C 515.79 -0.784501 -1.69418 0
M  V30 5548 C 516.141 0.693625 -1.8353 0
M  V30 5549 O 515.266 1.53925 -1.52106 0
M  V30 5550 C 515.861 -1.41746 -3.07723 0
M  V30 5551 C 514.42 -1.20066 -3.56737 0
M  V30 5552 C 513.567 -1.5026 -2.33061 0
M  V30 5553 H 516.518 -1.21469 -1.02133 0
M  V30 5554 H 516.539 -0.825381 -3.7144 0
M  V30 5555 H 516.051 -2.49325 -2.9742 0
M  V30 5556 H 514.152 -0.144006 -3.72322 0
M  V30 5557 H 514.265 -1.90384 -4.39648 0
M  V30 5558 H 512.629 -0.922598 -2.37403 0
M  V30 5559 H 513.412 -2.58967 -2.25368 0
M  V30 5560 N 515.857 1.33968 -0.830081 0
M  V30 5561 C 516.787 2.31911 -0.271911 0
M  V30 5562 C 517.768 1.58571 0.61556 0
M  V30 5563 O 518.953 1.86514 0.540946 0
M  V30 5564 C 516.083 3.42737 0.561146 0
M  V30 5565 C 515.037 4.27383 -0.229789 0
M  V30 5566 C 514.363 5.29742 0.726463 0
M  V30 5567 C 515.663 5.02 -1.44197 0
M  V30 5568 H 517.357 2.78844 -1.09025 0
M  V30 5569 H 514.903 1.34061 -0.52571 0
M  V30 5570 H 516.856 4.10276 0.961867 0
M  V30 5571 H 515.58 2.94471 1.41261 0
M  V30 5572 H 514.239 3.61456 -0.611964 0
M  V30 5573 H 513.887 4.77736 1.57408 0
M  V30 5574 H 513.587 5.87255 0.20142 0
M  V30 5575 H 515.111 6.00149 1.12489 0
M  V30 5576 H 516.525 5.62355 -1.11488 0
M  V30 5577 H 514.922 5.69122 -1.90317 0
M  V30 5578 H 515.992 4.31281 -2.2164 0
M  V30 5579 N 517.335 0.585699 1.46312 0
M  V30 5580 C 518.56 0.0762461 2.0726 0
M  V30 5581 C 518.985 -1.22071 1.43109 0
M  V30 5582 O 518.343 -1.73804 0.515942 0
M  V30 5583 C 518.391 -0.0729404 3.60526 0
M  V30 5584 O 517.495 -1.1287 3.96654 0
M  V30 5585 H 516.836 0.0641558 0.660893 0
M  V30 5586 H 519.366 0.809492 1.87905 0
M  V30 5587 H 519.376 -0.278158 4.07051 0
M  V30 5588 H 518.051 0.874188 4.06609 0
M  V30 5589 H 516.628 -0.901703 3.61834 0
M  V30 5590 N 518.813 -1.54241 0.323641 0
M  V30 5591 C 520.229 -1.59574 -0.0290018 0
M  V30 5592 C 520.429 -1.34017 -1.50472 0
M  V30 5593 O 519.485 -1.12464 -2.26071 0
M  V30 5594 C 520.798 -2.98169 0.389295 0
M  V30 5595 C 522.346 -3.11148 0.339958 0
M  V30 5596 C 522.821 -4.5209 0.733418 0
M  V30 5597 N 524.312 -4.5808 0.686827 0
M  V30 5598 C 525.047 -5.65248 0.963464 0
M  V30 5599 N 524.543 -6.80355 1.30724 0
M  V30 5600 N 526.336 -5.55025 0.88902 0
M  V30 5601 H 518.487 -1.6911 1.28512 0
M  V30 5602 H 520.75 -0.790972 0.522558 0
M  V30 5603 H 520.456 -3.21871 1.41746 0
M  V30 5604 H 520.33 -3.76399 -0.245657 0
M  V30 5605 H 522.717 -2.87182 -0.679002 0
M  V30 5606 H 522.798 -2.35023 1.00985 0
M  V30 5607 H 522.442 -4.76788 1.75029 0
M  V30 5608 H 522.372 -5.26584 0.0412189 0
M  V30 5609 H 524.863 -3.75411 0.43298 0
M  V30 5610 H 525.176 -7.58029 1.5037 0
M  V30 5611 H 523.521 -6.81851 1.3455 0
M  V30 5612 H 526.712 -4.63977 0.619939 0
M  V30 5613 H 526.885 -6.38458 1.10797 0
M  V30 5614 N 520.291 -0.0518155 -1.57515 0
M  V30 5615 C 521.519 0.631395 -1.9703 0
M  V30 5616 C 521.934 1.64341 -0.92938 0
M  V30 5617 O 521.291 1.82296 0.0863266 0
M  V30 5618 C 521.342 1.31774 -3.36627 0
M  V30 5619 O 521.063 0.346247 -4.3673 0
M  V30 5620 C 522.564 2.09065 -3.90905 0
M  V30 5621 H 519.784 0.172576 -0.648428 0
M  V30 5622 H 522.328 -0.118306 -2.04158 0
M  V30 5623 H 520.483 2.01867 -3.30649 0
M  V30 5624 H 520.897 0.836226 -5.17791 0
M  V30 5625 H 522.371 2.52508 -4.9086 0
M  V30 5626 H 522.848 2.93908 -3.26366 0
M  V30 5627 H 523.454 1.43882 -4.00223 0
M  V30 5628 N 521.769 1.56035 0.221574 0
M  V30 5629 C 522.994 1.83476 0.967026 0
M  V30 5630 C 523.419 0.632139 1.7716 0
M  V30 5631 O 522.777 -0.419082 1.7639 0
M  V30 5632 C 522.825 3.08907 1.86034 0
M  V30 5633 O 521.929 2.876 2.95567 0
M  V30 5634 H 521.27 0.604913 0.273817 0
M  V30 5635 H 523.8 2.03247 0.234893 0
M  V30 5636 H 523.81 3.3901 2.27016 0
M  V30 5637 H 522.485 3.96068 1.26898 0
M  V30 5638 H 521.062 2.6873 2.58532 0
M  V30 5639 N 523.247 -0.488276 1.49845 0
M  V30 5640 C 524.179 -1.60539 1.63584 0
M  V30 5641 C 525.192 -1.5434 0.517972 0
M  V30 5642 O 526.381 -1.60041 0.790516 0
M  V30 5643 C 523.481 -2.99374 1.58835 0
M  V30 5644 C 522.654 -3.30624 2.86368 0
M  V30 5645 C 521.713 -4.4893 2.74496 0
M  V30 5646 O 520.739 -4.50085 3.48443 0
M  V30 5647 N 521.941 -5.49591 1.86894 0
M  V30 5648 H 524.706 -1.49176 2.59936 0
M  V30 5649 H 522.267 -0.67639 1.47094 0
M  V30 5650 H 524.259 -3.76459 1.48529 0
M  V30 5651 H 522.829 -3.04595 0.702892 0
M  V30 5652 H 522.049 -2.42314 3.1093 0
M  V30 5653 H 523.337 -3.48305 3.70892 0
M  V30 5654 H 522.735 -5.51467 1.26097 0
M  V30 5655 H 521.292 -6.25728 1.82503 0
M  V30 5656 N 524.725 -1.39134 -0.740242 0
M  V30 5657 C 525.95 -1.39518 -1.53459 0
M  V30 5658 C 526.375 0.00968883 -1.88098 0
M  V30 5659 O 525.733 0.995312 -1.51536 0
M  V30 5660 C 525.781 -2.26981 -2.802 0
M  V30 5661 O 524.885 -1.69609 -3.75908 0
M  V30 5662 H 524.226 -0.475328 -0.463637 0
M  V30 5663 H 526.756 -1.83064 -0.913717 0
M  V30 5664 H 526.766 -2.41309 -3.28989 0
M  V30 5665 H 525.441 -3.29081 -2.5432 0
M  V30 5666 H 524.018 -1.64495 -3.34658 0
M  V30 5667 N 526.204 0.969867 -1.24223 0
M  V30 5668 C 527.434 1.74502 -1.106 0
M  V30 5669 C 527.842 1.86038 0.344483 0
M  V30 5670 O 527.185 1.3465 1.24961 0
M  V30 5671 C 527.247 3.18391 -1.66935 0
M  V30 5672 C 526.911 3.30334 -3.15798 0
M  V30 5673 C 527.908 3.15832 -4.12973 0
M  V30 5674 C 525.593 3.54644 -3.55715 0
M  V30 5675 C 527.587 3.25461 -5.48045 0
M  V30 5676 C 525.274 3.63912 -4.90929 0
M  V30 5677 C 526.272 3.49332 -5.86904 0
M  V30 5678 O 525.96 3.58251 -7.1966 0
M  V30 5679 H 525.692 0.554119 -0.387206 0
M  V30 5680 H 528.246 1.22646 -1.64764 0
M  V30 5681 H 526.476 3.71543 -1.07203 0
M  V30 5682 H 528.165 3.77707 -1.48634 0
M  V30 5683 H 528.931 2.96937 -3.83476 0
M  V30 5684 H 524.81 3.65059 -2.81519 0
M  V30 5685 H 528.354 3.13998 -6.22937 0
M  V30 5686 H 524.251 3.82319 -5.20098 0
M  V30 5687 H 525.019 3.7498 -7.27552 0
M  V30 5688 N 527.682 1.05563 1.17022 0
M  V30 5689 C 528.91 0.78845 1.91288 0
M  V30 5690 C 529.325 -0.656318 1.77025 0
M  V30 5691 O 528.682 -1.44869 1.10992 0
M  V30 5692 C 528.733 1.16444 3.42232 0
M  V30 5693 O 528.454 2.5525 3.5606 0
M  V30 5694 C 529.955 0.923937 4.33565 0
M  V30 5695 H 527.175 0.286389 0.606813 0
M  V30 5696 H 529.719 1.4073 1.48375 0
M  V30 5697 H 527.874 0.590266 3.82877 0
M  V30 5698 H 528.288 2.70097 4.49609 0
M  V30 5699 H 529.762 1.23672 5.37968 0
M  V30 5700 H 530.239 -0.140688 4.38975 0
M  V30 5701 H 530.845 1.48214 3.98639 0
M  V30 5702 N 529.16 -1.33526 0.837174 0
M  V30 5703 C 530.4 -1.99649 0.438115 0
M  V30 5704 C 530.764 -1.64879 -0.983816 0
M  V30 5705 O 531.965 -2.23956 -1.48651 0
M  V30 5706 C 530.236 -3.51431 0.650461 0
M  V30 5707 S 531.795 -4.37431 0.346371 0
M  V30 5708 H 528.613 -0.69162 0.164872 0
M  V30 5709 H 531.215 -1.62556 1.08609 0
M  V30 5710 H 529.919 -3.74225 1.68475 0
M  V30 5711 H 529.45 -3.93398 -0.0117309 0
M  V30 5712 H 531.465 -4.89132 -0.834504 0
M  V30 5713 N 530.638 -0.59345 -1.46 0
M  V30 5714 C 531.586 0.146268 -2.3214 0
M  V30 5715 C 532.58 0.873743 -1.45128 0
M  V30 5716 O 533.786 0.790912 -1.61693 0
M  V30 5717 H 530.161 0.0660349 -0.749095 0
M  V30 5718 H 532.132 -0.598895 -2.92328 0
M  V30 5719 C 530.881 1.1396 -3.28494 0
M  V30 5720 H 530.204 0.589252 -3.95434 0
M  V30 5721 H 531.644 1.62738 -3.91526 0
M  V30 5722 C 530.103 2.20604 -2.54628 0
M  V30 5723 O 530.633 3.28128 -2.31722 0
M  V30 5724 N 528.839 1.95502 -2.15005 0
M  V30 5725 H 528.386 1.0807 -2.33834 0
M  V30 5726 H 528.344 2.67064 -1.65904 0
M  V30 5727 N 532.116 1.54067 -0.331816 0
M  V30 5728 C 533.048 2.22139 0.564538 0
M  V30 5729 C 534.061 1.22408 1.07332 0
M  V30 5730 O 535.25 1.4883 0.985481 0
M  V30 5731 C 532.35 2.87876 1.78831 0
M  V30 5732 C 531.523 4.13817 1.41682 0
M  V30 5733 C 530.582 4.63072 2.49901 0
M  V30 5734 O 529.608 5.27562 2.13699 0
M  V30 5735 N 530.81 4.38001 3.80967 0
M  V30 5736 H 533.575 2.99694 -0.0183736 0
M  V30 5737 H 531.136 1.61153 -0.155396 0
M  V30 5738 H 533.128 3.17747 2.50637 0
M  V30 5739 H 531.698 2.13977 2.27887 0
M  V30 5740 H 530.918 3.9062 0.530044 0
M  V30 5741 H 532.206 4.95762 1.14443 0
M  V30 5742 H 531.604 3.864 4.13173 0
M  V30 5743 H 530.161 4.72507 4.48977 0
M  V30 5744 N 533.594 0.0601682 1.57485 0
M  V30 5745 C 534.504 -0.926121 2.15546 0
M  V30 5746 C 535.52 -1.33532 1.11558 0
M  V30 5747 O 536.696 -1.4104 1.4377 0
M  V30 5748 C 533.761 -2.17952 2.69625 0
M  V30 5749 C 532.822 -1.82783 3.88444 0
M  V30 5750 C 532.055 -3.02148 4.39935 0
M  V30 5751 O 532.278 -4.15803 3.90466 0
M  V30 5752 O 531.212 -2.82639 5.31412 0
M  V30 5753 H 535.038 -0.462289 3.00161 0
M  V30 5754 H 532.623 -0.162246 1.48516 0
M  V30 5755 H 534.505 -2.91474 3.04337 0
M  V30 5756 H 533.18 -2.63456 1.88077 0
M  V30 5757 H 532.087 -1.06549 3.58606 0
M  V30 5758 H 533.42 -1.42072 4.7125 0
M  V30 5759 N 535.072 -1.5615 -0.213296 0
M  V30 5760 C 536.312 -1.81325 -0.943435 0
M  V30 5761 C 536.676 -0.634934 -1.81198 0
M  V30 5762 O 537.877 -0.766166 -2.5765 0
M  V30 5763 C 536.148 -3.11437 -1.75334 0
M  V30 5764 S 537.707 -3.57955 -2.53799 0
M  V30 5765 H 534.525 -0.636538 -0.316766 0
M  V30 5766 H 537.127 -1.94387 -0.208313 0
M  V30 5767 H 535.831 -3.95228 -1.10556 0
M  V30 5768 H 535.362 -3.01204 -2.53061 0
M  V30 5769 H 537.377 -3.21947 -3.77577 0
M  V30 5770 N 536.55 0.480323 -1.50102 0
M  V30 5771 C 537.827 1.24159 -1.51142 0
M  V30 5772 C 538.207 2.09605 -0.250818 0
M  V30 5773 O 537.555 2.15274 0.766118 0
M  V30 5774 C 537.765 2.08057 -2.80202 0
M  V30 5775 C 539.113 2.66556 -3.30504 0
M  V30 5776 O 540.137 2.18308 -2.81461 0
M  V30 5777 O 538.996 3.54442 -4.15973 0
M  V30 5778 H 536.09 0.562928 -0.605839 0
M  V30 5779 H 538.636 0.492899 -1.62384 0
M  V30 5780 H 537.408 1.45032 -3.6343 0
M  V30 5781 H 537.031 2.90079 -2.71919 0
M  V30 5782 N 538.028 1.39524 0.732853 0
M  V30 5783 C 538.976 1.38563 1.86824 0
M  V30 5784 C 539.97 0.268467 1.67259 0
M  V30 5785 O 541.176 0.438613 1.74574 0
M  V30 5786 H 537.551 0.432737 0.615014 0
M  V30 5787 H 539.522 2.34328 1.84751 0
M  V30 5788 C 538.271 1.2481 3.24527 0
M  V30 5789 H 537.594 2.10044 3.40179 0
M  V30 5790 H 539.034 1.28194 4.04156 0
M  V30 5791 C 537.493 -0.0432825 3.36872 0
M  V30 5792 O 538.023 -1.01268 3.88726 0
M  V30 5793 N 536.229 -0.107055 2.90403 0
M  V30 5794 H 535.776 0.682512 2.48394 0
M  V30 5795 H 535.734 -0.970618 2.99042 0
M  V30 5796 N 539.506 -0.963266 1.24736 0
M  V30 5797 C 540.746 -1.72172 1.10165 0
M  V30 5798 C 541.11 -1.88731 -0.352784 0
M  V30 5799 O 542.311 -2.61549 -0.620107 0
M  V30 5800 C 540.582 -3.0724 1.82589 0
M  V30 5801 S 542.141 -3.98449 1.83803 0
M  V30 5802 H 538.959 -0.591901 0.393922 0
M  V30 5803 H 541.561 -1.14955 1.58132 0
M  V30 5804 H 540.265 -2.92851 2.87518 0
M  V30 5805 H 539.796 -3.69521 1.34973 0
M  V30 5806 H 541.811 -4.87805 0.908883 0
M  V30 5807 N 540.985 -1.06182 -1.16461 0
M  V30 5808 C 541.915 -0.692861 -2.22984 0
M  V30 5809 C 542.896 0.314122 -1.67174 0
M  V30 5810 O 544.081 0.189499 -1.93273 0
M  V30 5811 C 541.211 -0.07732 -3.47214 0
M  V30 5812 C 540.165 -1.01015 -4.15909 0
M  V30 5813 C 539.491 -0.257973 -5.34077 0
M  V30 5814 C 540.791 -2.33868 -4.67015 0
M  V30 5815 H 542.485 -1.58343 -2.54102 0
M  V30 5816 H 540.031 -0.76279 -1.22137 0
M  V30 5817 H 541.984 0.19266 -4.20959 0
M  V30 5818 H 540.708 0.848254 -3.15392 0
M  V30 5819 H 539.367 -1.26486 -3.44088 0
M  V30 5820 H 539.015 0.670684 -4.98509 0
M  V30 5821 H 538.715 -0.879638 -5.80979 0
M  V30 5822 H 540.239 0.00448788 -6.106 0
M  V30 5823 H 541.653 -2.1279 -5.32347 0
M  V30 5824 H 540.05 -2.91522 -5.24533 0
M  V30 5825 H 541.12 -2.97019 -3.83286 0
M  V30 5826 N 542.463 1.3308 -0.844243 0
M  V30 5827 C 543.411 2.31028 -0.269954 0
M  V30 5828 C 544.405 1.58381 0.600997 0
M  V30 5829 O 545.611 1.73203 0.48996 0
M  V30 5830 H 541.986 0.748866 -0.0685782 0
M  V30 5831 H 543.957 2.76967 -1.11049 0
M  V30 5832 C 542.706 3.43549 0.535676 0
M  V30 5833 H 542.029 3.99604 -0.125202 0
M  V30 5834 H 543.469 4.14267 0.903262 0
M  V30 5835 C 541.928 2.8988 1.71672 0
M  V30 5836 O 542.458 2.86511 2.81557 0
M  V30 5837 N 540.664 2.46416 1.54037 0
M  V30 5838 H 540.211 2.49356 0.64649 0
M  V30 5839 H 540.169 2.1086 2.33207 0
M  V30 5840 N 543.941 0.601185 1.45683 0
M  V30 5841 C 544.904 -0.111398 2.28929 0
M  V30 5842 C 545.904 -0.801246 1.39416 0
M  V30 5843 O 547.094 -0.650383 1.61603 0
M  V30 5844 C 544.226 -1.16773 3.20276 0
M  V30 5845 H 545.419 0.620412 2.93413 0
M  V30 5846 H 542.972 0.359946 1.52099 0
M  V30 5847 H 543.707 -1.93051 2.60579 0
M  V30 5848 H 543.492 -0.677358 3.86205 0
M  V30 5849 H 544.982 -1.66698 3.82886 0
M  V30 5850 N 545.419 -1.53889 0.339982 0
M  V30 5851 C 546.647 -2.05271 -0.259114 0
M  V30 5852 C 547.062 -1.21517 -1.44496 0
M  V30 5853 O 546.419 -0.24966 -1.80784 0
M  V30 5854 C 546.47 -3.55092 -0.677634 0
M  V30 5855 O 546.191 -4.35667 0.461051 0
M  V30 5856 C 547.692 -4.22631 -1.33782 0
M  V30 5857 H 544.912 -0.669085 -0.0506566 0
M  V30 5858 H 547.456 -1.9852 0.490935 0
M  V30 5859 H 545.611 -3.62077 -1.37763 0
M  V30 5860 H 546.025 -5.24343 0.128144 0
M  V30 5861 H 547.499 -5.28861 -1.58145 0
M  V30 5862 H 547.976 -3.74758 -2.29027 0
M  V30 5863 H 548.582 -4.19829 -0.679957 0
M  V30 5864 N 546.897 -0.0685191 -1.57451 0
M  V30 5865 C 547.827 0.89747 -2.15564 0
M  V30 5866 C 548.808 1.31266 -1.08181 0
M  V30 5867 O 549.993 1.38429 -1.36202 0
M  V30 5868 C 547.123 2.16623 -2.71463 0
M  V30 5869 C 546.077 1.89054 -3.83982 0
M  V30 5870 C 545.403 3.22532 -4.26471 0
M  V30 5871 C 546.703 1.1984 -5.08366 0
M  V30 5872 H 548.397 0.413373 -2.96533 0
M  V30 5873 H 545.943 0.197391 -1.42641 0
M  V30 5874 H 547.896 2.84614 -3.10761 0
M  V30 5875 H 546.62 2.67269 -1.8771 0
M  V30 5876 H 545.279 1.23469 -3.45183 0
M  V30 5877 H 544.927 3.71013 -3.39644 0
M  V30 5878 H 544.627 3.04879 -5.02317 0
M  V30 5879 H 546.151 3.91727 -4.68383 0
M  V30 5880 H 547.565 1.77896 -5.45001 0
M  V30 5881 H 545.962 1.12456 -5.89469 0
M  V30 5882 H 547.032 0.176996 -4.84577 0
M  V30 5883 N 548.375 1.56261 0.205012 0
M  V30 5884 C 549.6 1.84491 0.947512 0
M  V30 5885 C 550.025 0.650894 1.76479 0
M  V30 5886 O 549.383 -0.40035 1.76824 0
M  V30 5887 C 549.431 3.10863 1.82747 0
M  V30 5888 O 548.535 2.90719 2.925 0
M  V30 5889 H 547.876 0.607783 0.267386 0
M  V30 5890 H 550.406 2.03485 0.213323 0
M  V30 5891 H 550.416 3.41399 2.23407 0
M  V30 5892 H 549.091 3.97392 1.2269 0
M  V30 5893 H 547.668 2.71457 2.55667 0
M  V30 5894 N 549.853 -0.472356 1.50355 0
M  V30 5895 C 551.1 -1.22453 1.61281 0
M  V30 5896 C 551.428 -1.91972 0.31256 0
M  V30 5897 O 550.683 -1.82696 -0.701475 0
M  V30 5898 C 550.982 -2.29257 2.74182 0
M  V30 5899 C 550.648 -1.76999 4.14708 0
M  V30 5900 C 549.31 -1.62467 4.52944 0
M  V30 5901 C 551.662 -1.38215 5.0254 0
M  V30 5902 C 548.99 -1.07574 5.76754 0
M  V30 5903 C 551.342 -0.847638 6.26895 0
M  V30 5904 C 550.006 -0.688946 6.63935 0
M  V30 5905 H 549.276 -0.448087 0.590168 0
M  V30 5906 H 551.923 -0.520744 1.84284 0
M  V30 5907 H 550.228 -3.05538 2.45263 0
M  V30 5908 H 551.925 -2.87212 2.7984 0
M  V30 5909 H 548.515 -1.89276 3.84542 0
M  V30 5910 H 552.699 -1.48276 4.73633 0
M  V30 5911 H 547.955 -0.940237 6.04127 0
M  V30 5912 H 552.129 -0.538455 6.94315 0
M  V30 5913 H 549.756 -0.261435 7.5975 0
M  V30 5914 N 551.331 -1.39911 -0.725443 0
M  V30 5915 C 552.279 -1.39552 -1.86086 0
M  V30 5916 C 553.273 -0.277334 -1.67114 0
M  V30 5917 O 554.479 -0.447865 -1.74339 0
M  V30 5918 H 550.854 -0.435993 -0.612711 0
M  V30 5919 H 552.825 -2.35305 -1.83505 0
M  V30 5920 C 551.574 -1.26529 -3.2386 0
M  V30 5921 H 550.897 -2.11845 -3.3906 0
M  V30 5922 H 552.337 -1.30336 -4.03471 0
M  V30 5923 C 550.796 0.0254168 -3.3689 0
M  V30 5924 O 551.326 0.992048 -3.89257 0
M  V30 5925 N 549.532 0.0916528 -2.90455 0
M  V30 5926 H 549.079 -0.695675 -2.48028 0
M  V30 5927 H 549.037 0.954745 -2.99553 0
M  V30 5928 N 552.809 0.956637 -1.25245 0
M  V30 5929 C 554.037 1.73571 -1.12608 0
M  V30 5930 C 554.452 1.86063 0.320324 0
M  V30 5931 O 553.809 1.35691 1.22042 0
M  V30 5932 C 553.86 3.15053 -1.77268 0
M  V30 5933 O 553.581 3.03174 -3.16255 0
M  V30 5934 C 555.082 4.09248 -1.70386 0
M  V30 5935 H 552.302 0.543955 -0.392879 0
M  V30 5936 H 554.846 1.20031 -1.65568 0
M  V30 5937 H 553.001 3.65543 -1.28284 0
M  V30 5938 H 553.415 3.9241 -3.48015 0
M  V30 5939 H 554.889 5.06138 -2.20291 0
M  V30 5940 H 555.366 4.34102 -0.667239 0
M  V30 5941 H 555.972 3.64672 -2.18849 0
M  V30 5942 N 554.287 1.06798 1.15896 0
M  V30 5943 C 555.536 0.782796 1.8589 0
M  V30 5944 C 555.849 -0.693498 1.82893 0
M  V30 5945 O 557.055 -1.09325 2.48516 0
M  V30 5946 C 555.511 1.3502 3.33613 0
M  V30 5947 C 555.119 2.8571 3.45071 0
M  V30 5948 C 556.863 1.14278 4.08829 0
M  V30 5949 C 554.77 3.35669 4.86909 0
M  V30 5950 H 553.7 0.289149 0.696354 0
M  V30 5951 H 556.351 1.28734 1.30766 0
M  V30 5952 H 554.733 0.773407 3.88374 0
M  V30 5953 H 555.907 3.49385 3.00445 0
M  V30 5954 H 554.222 3.05178 2.83294 0
M  V30 5955 H 556.819 1.49087 5.13495 0
M  V30 5956 H 557.162 0.0814575 4.1622 0
M  V30 5957 H 557.695 1.68563 3.60321 0
M  V30 5958 H 554.434 4.41302 4.84698 0
M  V30 5959 H 553.954 2.76745 5.32139 0
M  V30 5960 H 555.633 3.31296 5.55745 0
M  V30 5961 N 555.766 -1.3263 0.851289 0
M  V30 5962 C 556.696 -2.31449 0.308771 0
M  V30 5963 C 557.677 -1.59531 -0.590255 0
M  V30 5964 O 558.862 -1.87351 -0.511205 0
M  V30 5965 C 555.992 -3.43586 -0.506548 0
M  V30 5966 C 554.946 -4.26963 0.297753 0
M  V30 5967 C 554.272 -5.30831 -0.642094 0
M  V30 5968 C 555.572 -4.99643 1.52166 0
M  V30 5969 H 557.266 -2.77074 1.13447 0
M  V30 5970 H 554.812 -1.33207 0.546971 0
M  V30 5971 H 556.765 -4.11754 -0.896474 0
M  V30 5972 H 555.489 -2.96681 -1.36558 0
M  V30 5973 H 554.148 -3.60437 0.669391 0
M  V30 5974 H 553.796 -4.8018 -1.49788 0
M  V30 5975 H 553.496 -5.87501 -0.107968 0
M  V30 5976 H 555.02 -6.01862 -1.02927 0
M  V30 5977 H 556.434 -5.6051 1.20421 0
M  V30 5978 H 554.831 -5.66022 1.99347 0
M  V30 5979 H 555.901 -4.27701 2.28474 0
M  V30 5980 N 557.244 -0.608902 -1.45362 0
M  V30 5981 C 558.66 -0.272659 -1.57254 0
M  V30 5982 C 558.86 1.22477 -1.60005 0
M  V30 5983 O 557.916 2.00785 -1.53106 0
M  V30 5984 C 559.229 -0.944991 -2.85465 0
M  V30 5985 C 560.777 -0.921033 -2.99142 0
M  V30 5986 C 561.252 -1.5734 -4.30126 0
M  V30 5987 N 562.743 -1.53895 -4.36887 0
M  V30 5988 C 563.478 -2.01286 -5.36909 0
M  V30 5989 N 562.974 -2.56768 -6.43461 0
M  V30 5990 N 564.767 -1.92046 -5.28275 0
M  V30 5991 H 556.918 -1.58117 -1.4182 0
M  V30 5992 H 559.181 -0.662437 -0.678146 0
M  V30 5993 H 558.887 -1.99941 -2.89338 0
M  V30 5994 H 558.761 -0.469079 -3.74272 0
M  V30 5995 H 561.148 0.124846 -2.94836 0
M  V30 5996 H 561.229 -1.43522 -2.11743 0
M  V30 5997 H 560.873 -2.61862 -4.35191 0
M  V30 5998 H 560.803 -1.03422 -5.16344 0
M  V30 5999 H 563.294 -1.13366 -3.60495 0
M  V30 6000 H 563.607 -2.9072 -7.16032 0
M  V30 6001 H 561.952 -2.60808 -6.44208 0
M  V30 6002 H 565.143 -1.48439 -4.43941 0
M  V30 6003 H 565.316 -2.29293 -6.06077 0
M  V30 6004 N 558.722 1.53707 -0.348139 0
M  V30 6005 C 559.652 2.28111 0.498766 0
M  V30 6006 C 560.633 1.29851 1.09876 0
M  V30 6007 O 561.818 1.587 1.11928 0
M  V30 6008 C 558.948 3.05735 1.64753 0
M  V30 6009 C 557.902 4.11537 1.17565 0
M  V30 6010 C 557.228 4.77142 2.4133 0
M  V30 6011 C 558.528 5.21587 0.272844 0
M  V30 6012 H 560.222 2.99152 -0.121934 0
M  V30 6013 H 557.768 1.43875 -0.0600842 0
M  V30 6014 H 559.721 3.56526 2.24649 0
M  V30 6015 H 558.445 2.32354 2.2952 0
M  V30 6016 H 557.104 3.61665 0.599483 0
M  V30 6017 H 556.752 4.0035 3.04514 0
M  V30 6018 H 556.452 5.48626 2.10436 0
M  V30 6019 H 557.976 5.30719 3.01943 0
M  V30 6020 H 559.39 5.67986 0.778779 0
M  V30 6021 H 557.787 6.00074 0.0555849 0
M  V30 6022 H 558.857 4.79969 -0.689785 0
M  V30 6023 N 560.2 0.0768682 1.57412 0
M  V30 6024 C 561.425 -0.603404 1.98428 0
M  V30 6025 C 561.85 -1.62047 0.955108 0
M  V30 6026 O 561.208 -1.81129 -0.0786778 0
M  V30 6027 C 561.256 -1.24396 3.38464 0
M  V30 6028 O 560.36 -2.35982 3.3821 0
M  V30 6029 H 559.701 -0.154741 0.645718 0
M  V30 6030 H 562.231 0.152885 2.04028 0
M  V30 6031 H 562.241 -1.5896 3.7576 0
M  V30 6032 H 560.916 -0.498735 4.12899 0
M  V30 6033 H 559.493 -2.03173 3.1269 0
M  V30 6034 N 561.678 -1.56367 -0.196722 0
M  V30 6035 C 562.926 -1.80172 -0.915554 0
M  V30 6036 C 563.247 -0.649649 -1.8386 0
M  V30 6037 O 562.517 0.332111 -1.93064 0
M  V30 6038 H 561.097 -0.664592 -0.341067 0
M  V30 6039 H 563.759 -1.93844 -0.202622 0
M  V30 6040 H 562.855 -2.7327 -1.50764 0
M  V30 6041 N 563.156 0.464375 -1.50603 0
M  V30 6042 C 564.066 1.58723 -1.72754 0
M  V30 6043 C 565.082 1.62925 -0.610844 0
M  V30 6044 O 566.258 1.8067 -0.889963 0
M  V30 6045 C 563.323 2.94897 -1.82309 0
M  V30 6046 C 562.384 3.0103 -3.06071 0
M  V30 6047 C 561.617 4.30708 -3.1516 0
M  V30 6048 O 561.84 5.2159 -2.30868 0
M  V30 6049 O 560.774 4.42571 -4.0794 0
M  V30 6050 H 564.6 1.42954 -2.67951 0
M  V30 6051 H 562.185 0.644579 -1.3478 0
M  V30 6052 H 564.067 3.75764 -1.90735 0
M  V30 6053 H 562.742 3.10851 -0.902967 0
M  V30 6054 H 561.649 2.19217 -3.03142 0
M  V30 6055 H 562.982 2.90014 -3.97684 0
M  V30 6056 N 564.634 1.40294 0.718013 0
M  V30 6057 C 566.05 1.2227 1.02577 0
M  V30 6058 C 566.25 0.0961976 2.0127 0
M  V30 6059 O 565.306 -0.546695 2.46511 0
M  V30 6060 C 566.619 2.56348 1.57182 0
M  V30 6061 C 568.167 2.6334 1.69178 0
M  V30 6062 C 568.642 3.9768 2.27188 0
M  V30 6063 N 570.133 3.99409 2.34578 0
M  V30 6064 C 570.868 5.00141 2.8044 0
M  V30 6065 N 570.364 6.11268 3.26073 0
M  V30 6066 N 572.157 4.87511 2.79802 0
M  V30 6067 H 564.308 2.12304 0.0637899 0
M  V30 6068 H 566.571 0.943632 0.0909036 0
M  V30 6069 H 566.277 3.3942 0.921262 0
M  V30 6070 H 566.151 2.77266 2.55741 0
M  V30 6071 H 568.538 1.80641 2.33351 0
M  V30 6072 H 568.619 2.46255 0.692247 0
M  V30 6073 H 568.263 4.80817 1.63638 0
M  V30 6074 H 568.193 4.12093 3.27852 0
M  V30 6075 H 570.684 3.19162 2.02346 0
M  V30 6076 H 570.997 6.84023 3.59628 0
M  V30 6077 H 569.342 6.14837 3.24038 0
M  V30 6078 H 572.533 3.9979 2.43487 0
M  V30 6079 H 572.706 5.66158 3.15228 0
M  V30 6080 N 566.112 -0.949982 1.2575 0
M  V30 6081 C 567.358 -1.69766 1.10938 0
M  V30 6082 C 567.691 -1.91056 -0.348028 0
M  V30 6083 O 566.966 -1.48488 -1.25625 0
M  V30 6084 C 567.249 -3.07779 1.86933 0
M  V30 6085 C 567.102 -2.9387 3.4053 0
M  V30 6086 C 568.421 -4.07749 1.65616 0
M  V30 6087 H 565.54 -0.616144 0.404396 0
M  V30 6088 H 568.182 -1.10394 1.54639 0
M  V30 6089 H 566.332 -3.58462 1.4979 0
M  V30 6090 H 568.004 -2.50476 3.87375 0
M  V30 6091 H 566.247 -2.29686 3.68004 0
M  V30 6092 H 566.918 -3.91719 3.88922 0
M  V30 6093 H 569.394 -3.65994 1.97959 0
M  V30 6094 H 568.27 -5.02348 2.21218 0
M  V30 6095 H 568.531 -4.38029 0.598595 0
M  V30 6096 N 567.59 -1.07411 -1.15328 0
M  V30 6097 C 568.836 -0.798831 -1.86404 0
M  V30 6098 C 569.169 0.673433 -1.8215 0
M  V30 6099 O 568.444 1.49428 -1.24505 0
M  V30 6100 C 568.727 -1.30846 -3.35487 0
M  V30 6101 C 568.58 -2.84532 -3.4837 0
M  V30 6102 C 569.899 -0.925486 -4.30259 0
M  V30 6103 H 567.018 -0.291659 -0.676834 0
M  V30 6104 H 569.66 -1.332 -1.35491 0
M  V30 6105 H 567.81 -0.854916 -3.78977 0
M  V30 6106 H 569.482 -3.3818 -3.13739 0
M  V30 6107 H 567.725 -3.22699 -2.8991 0
M  V30 6108 H 568.396 -3.15259 -4.53118 0
M  V30 6109 H 570.872 -1.3163 -3.94731 0
M  V30 6110 H 569.748 -1.3094 -5.33053 0
M  V30 6111 H 570.009 0.168525 -4.41779 0
M  V30 6112 N 569.068 1.32177 -0.85831 0
M  V30 6113 C 570.298 2.01021 -0.476889 0
M  V30 6114 C 570.706 1.64653 0.931995 0
M  V30 6115 O 570.049 0.865713 1.62022 0
M  V30 6116 C 570.111 3.55413 -0.540528 0
M  V30 6117 C 569.775 4.1522 -1.90895 0
M  V30 6118 C 570.772 4.3318 -2.87491 0
M  V30 6119 C 568.457 4.51212 -2.20709 0
M  V30 6120 C 570.451 4.86306 -4.1205 0
M  V30 6121 C 568.138 5.04042 -3.45521 0
M  V30 6122 C 569.136 5.21538 -4.41007 0
M  V30 6123 O 568.824 5.73238 -5.63608 0
M  V30 6124 H 568.556 0.650059 -0.18547 0
M  V30 6125 H 571.11 1.69648 -1.15796 0
M  V30 6126 H 569.34 3.86196 0.19741 0
M  V30 6127 H 571.029 4.05526 -0.174191 0
M  V30 6128 H 571.795 4.05704 -2.65762 0
M  V30 6129 H 567.674 4.36878 -1.4717 0
M  V30 6130 H 571.218 4.99877 -4.86589 0
M  V30 6131 H 567.115 5.30952 -3.67098 0
M  V30 6132 H 567.883 5.91625 -5.65617 0
M  V30 6133 N 570.547 0.616602 1.45037 0
M  V30 6134 C 571.772 0.120192 2.07051 0
M  V30 6135 C 572.197 -1.19008 1.45666 0
M  V30 6136 O 571.555 -1.7267 0.552692 0
M  V30 6137 C 571.603 0.00354901 3.606 0
M  V30 6138 O 570.707 -1.04431 3.98958 0
M  V30 6139 H 570.048 0.0781599 0.659384 0
M  V30 6140 H 572.578 0.849167 1.86146 0
M  V30 6141 H 572.588 -0.191754 4.07549 0
M  V30 6142 H 571.263 0.960239 4.04663 0
M  V30 6143 H 569.84 -0.824749 3.63665 0
M  V30 6144 N 572.025 -1.5352 0.356285 0
M  V30 6145 C 573.271 -2.01414 -0.236653 0
M  V30 6146 C 573.604 -1.24339 -1.49176 0
M  V30 6147 O 572.879 -0.334496 -1.91602 0
M  V30 6148 C 573.162 -3.56059 -0.537982 0
M  V30 6149 C 573.015 -4.43835 0.730112 0
M  V30 6150 C 574.334 -4.19127 -1.34239 0
M  V30 6151 H 571.453 -0.732135 -0.0845386 0
M  V30 6152 H 574.095 -1.83854 0.479341 0
M  V30 6153 H 572.245 -3.71153 -1.14795 0
M  V30 6154 H 573.917 -4.40555 1.36782 0
M  V30 6155 H 572.16 -4.1218 1.3524 0
M  V30 6156 H 572.831 -5.49958 0.474358 0
M  V30 6157 H 575.307 -4.07809 -0.826498 0
M  V30 6158 H 574.183 -5.27378 -1.52198 0
M  V30 6159 H 574.444 -3.74581 -2.34822 0
M  V30 6160 N 573.503 -0.0852151 -1.57369 0
M  V30 6161 C 574.733 0.588605 -1.98038 0
M  V30 6162 C 575.141 1.62869 -0.962817 0
M  V30 6163 O 574.484 1.83611 0.057134 0
M  V30 6164 C 574.546 1.30303 -3.35054 0
M  V30 6165 C 574.21 0.414855 -4.55113 0
M  V30 6166 C 575.207 -0.333011 -5.18832 0
M  V30 6167 C 572.892 0.335804 -5.01176 0
M  V30 6168 C 574.886 -1.14801 -6.26976 0
M  V30 6169 C 572.573 -0.482857 -6.09189 0
M  V30 6170 C 573.571 -1.22342 -6.71953 0
M  V30 6171 O 573.259 -2.02855 -7.77885 0
M  V30 6172 H 572.991 0.163249 -0.655992 0
M  V30 6173 H 575.545 -0.1582 -2.0479 0
M  V30 6174 H 573.775 2.0962 -3.24956 0
M  V30 6175 H 575.464 1.87041 -3.60237 0
M  V30 6176 H 576.23 -0.281611 -4.84182 0
M  V30 6177 H 572.109 0.901869 -4.52092 0
M  V30 6178 H 575.653 -1.72654 -6.75897 0
M  V30 6179 H 571.55 -0.535773 -6.43273 0
M  V30 6180 H 572.318 -1.95432 -7.94826 0
M  V30 6181 N 574.981 1.5647 0.188427 0
M  V30 6182 C 576.206 1.85486 0.927891 0
M  V30 6183 C 576.631 0.669575 1.75779 0
M  V30 6184 O 575.989 -0.381573 1.77239 0
M  V30 6185 C 576.037 3.12784 1.7944 0
M  V30 6186 O 575.141 2.93805 2.894 0
M  V30 6187 H 574.482 0.610585 0.260925 0
M  V30 6188 H 577.012 2.037 0.191729 0
M  V30 6189 H 577.022 3.43749 2.19774 0
M  V30 6190 H 575.697 3.98671 1.18468 0
M  V30 6191 H 574.274 2.74153 2.52774 0
M  V30 6192 N 576.459 -0.456382 1.50847 0
M  V30 6193 C 577.422 -1.53493 1.70213 0
M  V30 6194 C 578.422 -1.50264 0.572481 0
M  V30 6195 O 579.612 -1.52623 0.839751 0
M  V30 6196 C 576.744 -2.93091 1.741 0
M  V30 6197 H 577.937 -1.37633 2.66453 0
M  V30 6198 H 575.49 -0.683776 1.4055 0
M  V30 6199 H 576.225 -3.14378 0.796063 0
M  V30 6200 H 576.01 -2.9684 2.5618 0
M  V30 6201 H 577.5 -3.71368 1.90987 0
M  V30 6202 N 577.937 -1.40673 -0.710563 0
M  V30 6203 C 579.183 -1.39428 -1.47267 0
M  V30 6204 C 579.516 0.00182129 -1.942 0
M  V30 6205 O 578.791 0.971387 -1.68506 0
M  V30 6206 C 579.074 -2.38812 -2.6952 0
M  V30 6207 C 578.927 -3.87467 -2.28449 0
M  V30 6208 C 580.246 -2.3566 -3.71689 0
M  V30 6209 H 577.365 -0.507768 -0.534173 0
M  V30 6210 H 580.007 -1.71843 -0.810547 0
M  V30 6211 H 578.157 -2.113 -3.26013 0
M  V30 6212 H 579.829 -4.25825 -1.77399 0
M  V30 6213 H 578.072 -4.03058 -1.60395 0
M  V30 6214 H 578.743 -4.5253 -3.16103 0
M  V30 6215 H 581.219 -2.6004 -3.24836 0
M  V30 6216 H 580.095 -3.07237 -4.54859 0
M  V30 6217 H 580.356 -1.36996 -4.20339 0
M  V30 6218 N 579.415 0.9433 -1.26252 0
M  V30 6219 C 580.645 1.72117 -1.14277 0
M  V30 6220 C 581.053 1.86726 0.304944 0
M  V30 6221 O 580.396 1.3727 1.22076 0
M  V30 6222 C 580.458 3.14778 -1.73651 0
M  V30 6223 C 580.122 3.23561 -3.22734 0
M  V30 6224 C 581.119 3.07001 -4.19579 0
M  V30 6225 C 578.804 3.47019 -3.63157 0
M  V30 6226 C 580.798 3.13763 -5.54826 0
M  V30 6227 C 578.485 3.53416 -4.98538 0
M  V30 6228 C 579.483 3.36804 -5.94182 0
M  V30 6229 O 579.171 3.42906 -7.27098 0
M  V30 6230 H 578.903 0.545781 -0.398873 0
M  V30 6231 H 581.457 1.19123 -1.67328 0
M  V30 6232 H 579.687 3.69186 -1.1506 0
M  V30 6233 H 581.376 3.74469 -1.56613 0
M  V30 6234 H 582.142 2.88736 -3.89688 0
M  V30 6235 H 578.021 3.59006 -2.89199 0
M  V30 6236 H 581.565 3.00714 -6.29458 0
M  V30 6237 H 577.462 3.71201 -5.28091 0
M  V30 6238 H 578.23 3.59463 -7.35342 0
M  V30 6239 N 580.893 1.08022 1.14757 0
M  V30 6240 C 581.856 0.71048 2.1791 0
M  V30 6241 C 582.856 -0.252731 1.58801 0
M  V30 6242 O 584.046 -0.0327915 1.74169 0
M  V30 6243 C 581.178 0.0483203 3.40866 0
M  V30 6244 H 582.371 1.62384 2.52134 0
M  V30 6245 H 579.924 0.877595 1.29337 0
M  V30 6246 H 580.659 -0.876959 3.12218 0
M  V30 6247 H 580.444 0.741189 3.85031 0
M  V30 6248 H 581.934 -0.195471 4.17142 0
M  V30 6249 N 582.371 -1.3172 0.865308 0
M  V30 6250 C 583.617 -1.97168 0.474633 0
M  V30 6251 C 583.95 -1.68263 -0.969604 0
M  V30 6252 O 583.225 -0.976588 -1.68205 0
M  V30 6253 C 583.508 -3.52689 0.726808 0
M  V30 6254 C 583.361 -3.91185 2.22024 0
M  V30 6255 C 584.68 -4.39689 0.190201 0
M  V30 6256 H 581.799 -0.716185 0.17392 0
M  V30 6257 H 584.441 -1.55925 1.08569 0
M  V30 6258 H 582.591 -3.8795 0.206705 0
M  V30 6259 H 584.263 -3.66049 2.80724 0
M  V30 6260 H 582.506 -3.3996 2.69462 0
M  V30 6261 H 583.177 -4.99604 2.34735 0
M  V30 6262 H 585.653 -4.11225 0.635103 0
M  V30 6263 H 584.529 -5.47469 0.396132 0
M  V30 6264 H 584.79 -4.32683 -0.907625 0
M  V30 6265 N 583.85 -0.624285 -1.44708 0
M  V30 6266 C 584.812 0.0749638 -2.29077 0
M  V30 6267 C 585.812 0.778965 -1.40673 0
M  V30 6268 O 587.003 0.624591 -1.62618 0
M  V30 6269 C 584.135 1.11663 -3.22094 0
M  V30 6270 H 585.327 -0.667013 -2.92388 0
M  V30 6271 H 582.88 -0.384098 -1.51507 0
M  V30 6272 H 583.615 1.88881 -2.63618 0
M  V30 6273 H 583.401 0.61583 -3.87234 0
M  V30 6274 H 584.891 1.60585 -3.8549 0
M  V30 6275 N 585.328 1.53329 -0.364422 0
M  V30 6276 C 586.278 2.22472 0.499024 0
M  V30 6277 C 587.262 1.21952 1.0496 0
M  V30 6278 O 588.454 1.47405 0.979836 0
M  V30 6279 C 585.583 3.01659 1.6388 0
M  V30 6280 C 584.669 4.09555 1.10116 0
M  V30 6281 N 585.06 5.04988 0.286414 0
M  V30 6282 C 583.358 4.2424 1.37608 0
M  V30 6283 C 584.059 5.81699 -0.00781682 0
M  V30 6284 N 583.035 5.40394 0.589494 0
M  V30 6285 H 586.837 2.93611 -0.130284 0
M  V30 6286 H 584.351 1.61483 -0.172377 0
M  V30 6287 H 586.348 3.4971 2.26954 0
M  V30 6288 H 585.008 2.32051 2.27118 0
M  V30 6289 H 586.019 5.17847 -0.0742839 0
M  V30 6290 H 582.696 3.65858 2.01133 0
M  V30 6291 H 584.086 6.68587 -0.666394 0
M  V30 6292 N 586.806 0.0935595 1.57322 0
M  V30 6293 C 587.769 -0.851426 2.12799 0
M  V30 6294 C 588.769 -1.21187 1.0569 0
M  V30 6295 O 589.959 -1.14156 1.31583 0
M  V30 6296 C 587.091 -2.14779 2.64731 0
M  V30 6297 H 588.284 -0.369733 2.97612 0
M  V30 6298 H 585.837 -0.155417 1.55525 0
M  V30 6299 H 586.572 -2.67437 1.83434 0
M  V30 6300 H 586.357 -1.89907 3.43042 0
M  V30 6301 H 587.847 -2.82383 3.07651 0
M  V30 6302 N 588.284 -1.56567 -0.180126 0
M  V30 6303 C 589.214 -1.98753 -1.22553 0
M  V30 6304 C 590.195 -0.86175 -1.46656 0
M  V30 6305 O 591.38 -1.12719 -1.58139 0
M  V30 6306 C 588.51 -2.33988 -2.56645 0
M  V30 6307 C 587.464 -3.49445 -2.47128 0
M  V30 6308 C 586.79 -3.70397 -3.8563 0
M  V30 6309 C 588.09 -4.83171 -1.98352 0
M  V30 6310 H 589.784 -2.86332 -0.874896 0
M  V30 6311 H 587.33 -1.37757 -0.419414 0
M  V30 6312 H 589.283 -2.62097 -3.29974 0
M  V30 6313 H 588.007 -1.43309 -2.93479 0
M  V30 6314 H 586.666 -3.2145 -1.76254 0
M  V30 6315 H 586.314 -2.77023 -4.19842 0
M  V30 6316 H 586.014 -4.48077 -3.80132 0
M  V30 6317 H 587.538 -4.00897 -4.60558 0
M  V30 6318 H 588.952 -5.10213 -2.61449 0
M  V30 6319 H 587.349 -5.64425 -2.03823 0
M  V30 6320 H 588.419 -4.75753 -0.937402 0
M  V30 6321 N 589.762 0.448376 -1.51087 0
M  V30 6322 C 590.712 1.54156 -1.67988 0
M  V30 6323 C 591.696 1.5178 -0.534015 0
M  V30 6324 O 592.888 1.58419 -0.789448 0
M  V30 6325 C 590.017 2.92437 -1.79822 0
M  V30 6326 C 589.103 2.99611 -3.00157 0
M  V30 6327 N 589.494 2.7655 -4.23502 0
M  V30 6328 C 587.792 3.30764 -2.99184 0
M  V30 6329 C 588.493 2.89281 -5.0467 0
M  V30 6330 N 587.469 3.20473 -4.39088 0
M  V30 6331 H 591.271 1.35061 -2.61028 0
M  V30 6332 H 588.785 0.655504 -1.48583 0
M  V30 6333 H 590.782 3.71068 -1.90037 0
M  V30 6334 H 589.442 3.1256 -0.879554 0
M  V30 6335 H 590.453 2.5169 -4.52628 0
M  V30 6336 H 587.13 3.56732 -2.16907 0
M  V30 6337 H 588.52 2.75499 -6.12821 0
M  V30 6338 N 591.24 1.41047 0.703093 0
M  V30 6339 C 592.465 1.43537 1.49706 0
M  V30 6340 C 592.89 0.0401853 1.88057 0
M  V30 6341 O 592.248 -0.954785 1.54122 0
M  V30 6342 C 592.296 2.3433 2.74084 0
M  V30 6343 O 591.4 1.79515 3.71279 0
M  V30 6344 H 590.741 0.487454 0.450871 0
M  V30 6345 H 593.271 1.85422 0.86486 0
M  V30 6346 H 593.281 2.49947 3.22476 0
M  V30 6347 H 591.956 3.35708 2.45506 0
M  V30 6348 H 590.533 1.7331 3.30179 0
M  V30 6349 N 592.718 -0.936591 1.26751 0
M  V30 6350 C 593.648 -2.05315 1.11212 0
M  V30 6351 C 594.629 -1.70092 0.0160262 0
M  V30 6352 O 595.814 -1.93279 0.188894 0
M  V30 6353 C 592.944 -3.39123 0.749171 0
M  V30 6354 C 591.898 -3.88425 1.79751 0
M  V30 6355 C 591.224 -5.18936 1.28876 0
M  V30 6356 C 592.524 -4.12798 3.19992 0
M  V30 6357 H 594.218 -2.18573 2.04613 0
M  V30 6358 H 591.764 -1.05027 0.985159 0
M  V30 6359 H 593.717 -4.16704 0.627323 0
M  V30 6360 H 592.441 -3.25855 -0.220543 0
M  V30 6361 H 591.1 -3.13028 1.90811 0
M  V30 6362 H 590.748 -5.02051 0.308757 0
M  V30 6363 H 590.448 -5.52892 1.98958 0
M  V30 6364 H 591.972 -5.99096 1.17967 0
M  V30 6365 H 593.386 -4.80977 3.11983 0
M  V30 6366 H 591.783 -4.58044 3.87705 0
M  V30 6367 H 592.853 -3.18412 3.65707 0
M  V30 6368 N 594.196 -1.08629 -1.14182 0
M  V30 6369 C 595.126 -0.740003 -2.21464 0
M  V30 6370 C 596.107 0.278591 -1.67803 0
M  V30 6371 O 597.292 0.148461 -1.93632 0
M  V30 6372 C 594.422 -0.150952 -3.46972 0
M  V30 6373 C 593.376 -1.09815 -4.13672 0
M  V30 6374 C 592.702 -0.3712 -5.3341 0
M  V30 6375 C 594.002 -2.43722 -4.61949 0
M  V30 6376 H 595.696 -1.63697 -2.50686 0
M  V30 6377 H 593.242 -0.788526 -1.20492 0
M  V30 6378 H 595.195 0.103325 -4.21273 0
M  V30 6379 H 593.919 0.781164 -3.1712 0
M  V30 6380 H 592.578 -1.33756 -3.41328 0
M  V30 6381 H 592.226 0.564792 -4.99819 0
M  V30 6382 H 591.926 -1.00267 -5.78982 0
M  V30 6383 H 593.45 -0.12503 -6.10472 0
M  V30 6384 H 594.864 -2.24034 -5.27714 0
M  V30 6385 H 593.261 -3.02582 -5.18232 0
M  V30 6386 H 594.331 -3.05082 -3.76899 0
M  V30 6387 N 595.674 1.31259 -0.872281 0
M  V30 6388 C 596.922 1.96233 -0.483409 0
M  V30 6389 C 597.243 1.69276 0.968012 0
M  V30 6390 O 596.513 1.00943 1.67891 0
M  V30 6391 H 595.093 0.726025 -0.175774 0
M  V30 6392 H 597.755 1.60024 -1.11258 0
M  V30 6393 H 596.851 3.05403 -0.643075 0
M  V30 6394 N 597.152 0.631951 1.44375 0
M  V30 6395 C 598.392 0.14009 2.03919 0
M  V30 6396 C 598.756 -1.21534 1.48639 0
M  V30 6397 O 599.957 -1.79936 1.99691 0
M  V30 6398 C 598.228 0.127174 3.57174 0
M  V30 6399 S 599.787 -0.299946 4.37774 0
M  V30 6400 H 596.605 0.0614891 0.708336 0
M  V30 6401 H 599.207 0.835524 1.76746 0
M  V30 6402 H 597.911 1.11676 3.94913 0
M  V30 6403 H 597.442 -0.589482 3.88958 0
M  V30 6404 H 599.457 -1.54396 4.71568 0
M  V30 6405 N 598.631 -1.53133 0.372548 0
M  V30 6406 C 599.908 -1.93704 -0.271693 0
M  V30 6407 C 600.288 -1.30667 -1.65799 0
M  V30 6408 O 599.636 -0.46838 -2.23648 0
M  V30 6409 C 599.846 -3.47576 -0.314903 0
M  V30 6410 C 601.194 -4.20998 -0.551912 0
M  V30 6411 O 602.218 -3.53994 -0.39582 0
M  V30 6412 O 601.077 -5.39748 -0.85639 0
M  V30 6413 H 598.171 -0.810457 -0.164586 0
M  V30 6414 H 600.717 -1.6427 0.425838 0
M  V30 6415 H 599.489 -3.85749 0.656792 0
M  V30 6416 H 599.112 -3.83264 -1.05804 0
M  V30 6417 N 600.109 -0.101901 -1.5727 0
M  V30 6418 C 601.056 0.854577 -2.14396 0
M  V30 6419 C 602.026 1.27521 -1.06432 0
M  V30 6420 O 603.211 1.35575 -1.34253 0
M  V30 6421 C 600.351 2.10576 -2.73408 0
M  V30 6422 C 599.464 1.73504 -3.95626 0
M  V30 6423 C 598.599 2.9346 -4.42781 0
M  V30 6424 C 597.638 2.52547 -5.57572 0
M  V30 6425 N 596.775 3.65359 -5.99547 0
M  V30 6426 H 601.615 0.360578 -2.9581 0
M  V30 6427 H 599.152 0.166303 -1.46157 0
M  V30 6428 H 601.11 2.83859 -3.05745 0
M  V30 6429 H 599.74 2.57463 -1.94711 0
M  V30 6430 H 598.792 0.901622 -3.6956 0
M  V30 6431 H 600.104 1.39426 -4.78917 0
M  V30 6432 H 599.258 3.74988 -4.76937 0
M  V30 6433 H 597.997 3.30753 -3.58404 0
M  V30 6434 H 597.002 1.69446 -5.23037 0
M  V30 6435 H 598.227 2.1639 -6.43702 0
M  V30 6436 H 596.173 4.02358 -5.18116 0
M  V30 6437 H 596.09 3.35148 -6.77652 0
M  V30 6438 H 597.358 4.47378 -6.38336 0
M  V30 6439 N 601.587 1.56661 0.17182 0
M  V30 6440 C 602.812 1.86459 0.908165 0
M  V30 6441 C 603.237 0.688181 1.75059 0
M  V30 6442 O 602.595 -0.362753 1.77634 0
M  V30 6443 C 602.643 3.14669 1.76112 0
M  V30 6444 O 601.747 2.96858 2.86268 0
M  V30 6445 H 601.088 0.613318 0.254434 0
M  V30 6446 H 603.618 2.03892 0.170113 0
M  V30 6447 H 603.628 3.46061 2.16115 0
M  V30 6448 H 602.303 3.99905 1.14233 0
M  V30 6449 H 600.88 2.76819 2.49852 0
M  V30 6450 N 603.065 -0.440357 1.51323 0
M  V30 6451 C 604.293 -1.21255 1.67645 0
M  V30 6452 C 604.708 -1.85088 0.37252 0
M  V30 6453 O 604.065 -1.70582 -0.648683 0
M  V30 6454 C 604.116 -2.29881 2.78993 0
M  V30 6455 O 603.837 -1.68659 4.04334 0
M  V30 6456 C 605.338 -3.20214 3.06558 0
M  V30 6457 H 602.558 -0.36558 0.562666 0
M  V30 6458 H 605.102 -0.52214 1.97722 0
M  V30 6459 H 603.257 -2.94643 2.51524 0
M  V30 6460 H 603.671 -2.40426 4.6615 0
M  V30 6461 H 605.145 -3.92575 3.88058 0
M  V30 6462 H 605.622 -3.80794 2.18844 0
M  V30 6463 H 606.228 -2.61156 3.35675 0
M  V30 6464 N 604.543 -1.41418 -0.695603 0
M  V30 6465 C 605.783 -1.42241 -1.46788 0
M  V30 6466 C 606.147 -0.0300827 -1.91976 0
M  V30 6467 O 607.348 0.0868914 -2.6866 0
M  V30 6468 C 605.619 -2.4011 -2.6473 0
M  V30 6469 S 607.178 -2.59462 -3.53871 0
M  V30 6470 H 603.996 -0.503893 -0.50161 0
M  V30 6471 H 606.598 -1.77855 -0.811654 0
M  V30 6472 H 605.302 -3.40073 -2.29736 0
M  V30 6473 H 604.833 -2.05849 -3.35246 0
M  V30 6474 H 606.848 -1.862 -4.59939 0
M  V30 6475 N 606.021 0.929856 -1.27246 0
M  V30 6476 C 607.249 1.71144 -1.16265 0
M  V30 6477 C 607.664 1.867 0.280786 0
M  V30 6478 O 607.021 1.38249 1.19136 0
M  V30 6479 C 607.072 3.11222 -1.83911 0
M  V30 6480 O 606.793 2.96398 -3.22614 0
M  V30 6481 C 608.294 4.05541 -1.79028 0
M  V30 6482 H 605.514 0.535499 -0.404328 0
M  V30 6483 H 608.058 1.16492 -1.68077 0
M  V30 6484 H 606.213 3.6274 -1.36009 0
M  V30 6485 H 606.627 3.8494 -3.56261 0
M  V30 6486 H 608.101 5.01351 -2.30978 0
M  V30 6487 H 608.578 4.32589 -0.759168 0
M  V30 6488 H 609.184 3.59947 -2.26535 0
M  V30 6489 N 607.499 1.09233 1.13605 0
M  V30 6490 C 608.446 0.729921 2.18954 0
M  V30 6491 C 609.416 -0.287916 1.63586 0
M  V30 6492 O 610.601 -0.170003 1.90041 0
M  V30 6493 C 607.741 0.154489 3.44754 0
M  V30 6494 C 606.854 1.22613 4.14234 0
M  V30 6495 C 605.989 0.613657 5.27644 0
M  V30 6496 C 605.028 1.66674 5.8897 0
M  V30 6497 N 604.165 1.07545 6.93814 0
M  V30 6498 H 609.005 1.63257 2.49302 0
M  V30 6499 H 606.542 0.815693 1.22413 0
M  V30 6500 H 608.5 -0.196923 4.16735 0
M  V30 6501 H 607.13 -0.711433 3.14863 0
M  V30 6502 H 606.182 1.69485 3.40557 0
M  V30 6503 H 607.494 2.0238 4.55899 0
M  V30 6504 H 606.648 0.210976 6.06333 0
M  V30 6505 H 605.387 -0.215584 4.87223 0
M  V30 6506 H 604.392 2.07899 5.08978 0
M  V30 6507 H 605.617 2.49861 6.31464 0
M  V30 6508 H 603.563 0.267451 6.55455 0
M  V30 6509 H 603.48 1.81011 7.3401 0
M  V30 6510 H 604.748 0.698906 7.7636 0
M  V30 6511 N 608.977 -1.30795 0.87923 0
M  V30 6512 C 610.393 -1.48981 0.57243 0
M  V30 6513 C 610.593 -1.80719 -0.891236 0
M  V30 6514 O 609.649 -1.89136 -1.67283 0
M  V30 6515 C 610.962 -2.61721 1.48063 0
M  V30 6516 C 612.51 -2.75603 1.48365 0
M  V30 6517 C 612.985 -3.91449 2.37763 0
M  V30 6518 N 614.476 -3.98751 2.35695 0
M  V30 6519 C 615.211 -4.87684 3.01583 0
M  V30 6520 N 614.707 -5.81454 3.76674 0
M  V30 6521 N 616.5 -4.81005 2.90844 0
M  V30 6522 H 608.651 -1.08465 1.82617 0
M  V30 6523 H 610.914 -0.536813 0.781368 0
M  V30 6524 H 610.62 -2.45073 2.52254 0
M  V30 6525 H 610.494 -3.58071 1.18596 0
M  V30 6526 H 612.881 -2.9166 0.44927 0
M  V30 6527 H 612.962 -1.79891 1.81859 0
M  V30 6528 H 612.606 -3.76149 3.41283 0
M  V30 6529 H 612.536 -4.86487 2.01589 0
M  V30 6530 H 615.027 -3.31668 1.81121 0
M  V30 6531 H 615.34 -6.46063 4.24054 0
M  V30 6532 H 613.685 -5.81403 3.80782 0
M  V30 6533 H 616.876 -4.06728 2.31711 0
M  V30 6534 H 617.049 -5.50107 3.42471 0
M  V30 6535 N 610.455 -0.639598 -1.44038 0
M  V30 6536 C 611.701 -0.147698 -2.02261 0
M  V30 6537 C 612.034 1.23031 -1.50256 0
M  V30 6538 O 611.309 1.81847 -0.690068 0
M  V30 6539 C 611.592 -0.14362 -3.59813 0
M  V30 6540 C 611.445 -1.55458 -4.22082 0
M  V30 6541 C 612.764 0.527317 -4.36929 0
M  V30 6542 H 609.883 -0.0551453 -0.734934 0
M  V30 6543 H 612.525 -0.817688 -1.71505 0
M  V30 6544 H 610.675 0.426898 -3.86147 0
M  V30 6545 H 612.347 -2.17464 -4.06826 0
M  V30 6546 H 610.59 -2.10594 -3.79253 0
M  V30 6547 H 611.261 -1.50369 -5.31124 0
M  V30 6548 H 613.737 0.0420504 -4.16079 0
M  V30 6549 H 612.613 0.499389 -5.46624 0
M  V30 6550 H 612.874 1.59914 -4.12165 0
M  V30 6551 N 611.933 1.52934 -0.380664 0
M  V30 6552 C 613.179 2.01765 0.20458 0
M  V30 6553 C 613.512 1.26696 1.47179 0
M  V30 6554 O 612.787 0.364936 1.91046 0
M  V30 6555 C 613.07 3.56869 0.481269 0
M  V30 6556 C 612.923 4.42617 -0.800629 0
M  V30 6557 C 614.242 4.2121 1.27554 0
M  V30 6558 H 611.361 0.733388 0.0728803 0
M  V30 6559 H 614.003 1.83068 -0.50853 0
M  V30 6560 H 612.153 3.72932 1.08875 0
M  V30 6561 H 613.825 4.38323 -1.43773 0
M  V30 6562 H 612.068 4.09977 -1.4178 0
M  V30 6563 H 612.739 5.49134 -0.561791 0
M  V30 6564 H 615.215 4.09072 0.761514 0
M  V30 6565 H 614.091 5.29732 1.43788 0
M  V30 6566 H 614.352 3.78269 2.28833 0
M  V30 6567 N 613.412 0.11024 1.57214 0
M  V30 6568 C 614.642 -0.557025 1.98949 0
M  V30 6569 C 615.05 -1.61317 0.988606 0
M  V30 6570 O 614.393 -1.83679 -0.0279159 0
M  V30 6571 C 614.455 -1.24956 3.37085 0
M  V30 6572 C 614.119 -0.342398 4.55716 0
M  V30 6573 C 615.116 0.415511 5.18237 0
M  V30 6574 C 612.801 -0.256029 5.01647 0
M  V30 6575 C 614.795 1.24761 6.25071 0
M  V30 6576 C 612.482 0.579713 6.08344 0
M  V30 6577 C 613.48 1.33017 6.69922 0
M  V30 6578 O 613.168 2.15205 7.74559 0
M  V30 6579 H 612.9 -0.152792 0.658506 0
M  V30 6580 H 615.454 0.19076 2.04512 0
M  V30 6581 H 613.684 -2.04424 3.2825 0
M  V30 6582 H 615.373 -1.81286 3.63167 0
M  V30 6583 H 616.139 0.358605 4.83672 0
M  V30 6584 H 612.018 -0.829831 4.5347 0
M  V30 6585 H 615.562 1.83386 6.73064 0
M  V30 6586 H 611.459 0.638044 6.42339 0
M  V30 6587 H 612.227 2.08052 7.91617 0
M  V30 6588 N 614.89 -1.56749 -0.16351 0
M  V30 6589 C 616.301 -1.72039 -0.725216 0
M  V30 6590 C 616.652 -0.72202 -1.82432 0
M  V30 6591 O 615.777 0.114942 -2.16095 0
M  V30 6592 C 616.372 -3.11932 -1.32227 0
M  V30 6593 C 614.931 -3.28879 -1.83072 0
M  V30 6594 C 614.078 -2.67984 -0.712716 0
M  V30 6595 H 617.029 -1.58579 0.0619772 0
M  V30 6596 H 617.05 -3.11015 -2.19202 0
M  V30 6597 H 616.562 -3.84572 -0.522103 0
M  V30 6598 H 614.663 -2.61209 -2.65708 0
M  V30 6599 H 614.776 -4.36688 -1.97079 0
M  V30 6600 H 613.14 -2.28005 -1.13515 0
M  V30 6601 H 613.923 -3.43216 0.0757361 0
M  V30 6602 N 616.368 0.432326 -1.51554 0
M  V30 6603 C 617.614 1.17997 -1.65675 0
M  V30 6604 C 617.969 1.88794 -0.37076 0
M  V30 6605 O 617.262 1.80817 0.633692 0
M  V30 6606 C 617.456 2.21907 -2.80164 0
M  V30 6607 C 617.285 1.6131 -4.19773 0
M  V30 6608 C 616.055 1.39585 -4.85638 0
M  V30 6609 C 618.253 1.08659 -5.0269 0
M  V30 6610 N 616.235 0.746374 -6.09346 0
M  V30 6611 C 617.606 0.562685 -6.17441 0
M  V30 6612 C 619.661 0.978831 -4.88184 0
M  V30 6613 C 618.364 -0.0584015 -7.19276 0
M  V30 6614 C 620.39 0.371631 -5.90231 0
M  V30 6615 C 619.752 -0.141711 -7.04257 0
M  V30 6616 H 615.851 0.419277 -0.660099 0
M  V30 6617 H 618.435 0.475809 -1.88797 0
M  V30 6618 H 616.606 2.89706 -2.58698 0
M  V30 6619 H 618.338 2.88867 -2.8344 0
M  V30 6620 H 615.093 1.65897 -4.43593 0
M  V30 6621 H 615.517 0.438934 -6.75576 0
M  V30 6622 H 620.159 1.36157 -4.00276 0
M  V30 6623 H 617.877 -0.453262 -8.06828 0
M  V30 6624 H 621.463 0.290086 -5.81076 0
M  V30 6625 H 620.343 -0.60417 -7.81869 0
M  V30 6626 N 617.846 1.41785 0.688094 0
M  V30 6627 C 618.778 1.40159 1.81351 0
M  V30 6628 C 619.791 0.30262 1.59963 0
M  V30 6629 O 620.98 0.564841 1.69327 0
M  V30 6630 C 618.08 1.16517 3.1824 0
M  V30 6631 C 617.253 2.38597 3.66593 0
M  V30 6632 C 616.312 2.10699 4.82174 0
M  V30 6633 O 615.338 2.83798 4.93404 0
M  V30 6634 N 616.54 1.10187 5.69947 0
M  V30 6635 H 619.305 2.3716 1.83236 0
M  V30 6636 H 616.866 1.36494 0.870697 0
M  V30 6637 H 618.858 0.957941 3.93199 0
M  V30 6638 H 617.428 0.280873 3.11336 0
M  V30 6639 H 616.648 2.74974 2.82459 0
M  V30 6640 H 617.936 3.19919 3.95638 0
M  V30 6641 H 617.334 0.497016 5.63512 0
M  V30 6642 H 615.891 0.954518 6.44773 0
M  V30 6643 N 619.324 -0.923095 1.27737 0
M  V30 6644 C 620.254 -2.04124 1.13383 0
M  V30 6645 C 621.235 -1.70066 0.0340658 0
M  V30 6646 O 622.42 -1.93068 0.209383 0
M  V30 6647 C 619.55 -3.3831 0.785097 0
M  V30 6648 C 618.504 -3.86496 1.8386 0
M  V30 6649 C 617.83 -5.1754 1.34373 0
M  V30 6650 C 619.13 -4.09381 3.24353 0
M  V30 6651 H 620.824 -2.1639 2.06919 0
M  V30 6652 H 618.37 -1.03976 0.996243 0
M  V30 6653 H 620.323 -4.16016 0.671485 0
M  V30 6654 H 619.047 -3.2607 -0.185969 0
M  V30 6655 H 617.706 -3.10987 1.9412 0
M  V30 6656 H 617.354 -5.01696 0.361989 0
M  V30 6657 H 617.054 -5.50751 2.04811 0
M  V30 6658 H 618.578 -5.97811 1.24315 0
M  V30 6659 H 619.992 -4.77641 3.17067 0
M  V30 6660 H 618.389 -4.53906 3.92542 0
M  V30 6661 H 619.459 -3.14515 3.69064 0
M  V30 6662 N 620.802 -1.09834 -1.13024 0
M  V30 6663 C 621.732 -0.763451 -2.20666 0
M  V30 6664 C 622.713 0.260778 -1.68089 0
M  V30 6665 O 623.898 0.127915 -1.93778 0
M  V30 6666 C 621.028 -0.187744 -3.46792 0
M  V30 6667 C 619.982 -1.14196 -4.12484 0
M  V30 6668 C 619.308 -0.427755 -5.32986 0
M  V30 6669 C 620.608 -2.48607 -4.59338 0
M  V30 6670 H 622.302 -1.66347 -2.48936 0
M  V30 6671 H 619.848 -0.801261 -1.19649 0
M  V30 6672 H 621.801 0.0586375 -4.21359 0
M  V30 6673 H 620.525 0.747485 -3.17931 0
M  V30 6674 H 619.184 -1.37369 -3.3989 0
M  V30 6675 H 618.832 0.511747 -5.0039 0
M  V30 6676 H 618.532 -1.06403 -5.77886 0
M  V30 6677 H 620.056 -0.189772 -6.10305 0
M  V30 6678 H 621.47 -2.29618 -5.25308 0
M  V30 6679 H 619.867 -3.08062 -5.14993 0
M  V30 6680 H 620.937 -3.09062 -3.73642 0
M  V30 6681 N 622.28 1.30327 -0.886154 0
M  V30 6682 C 623.19 2.31854 -0.357866 0
M  V30 6683 C 624.206 1.65392 0.540502 0
M  V30 6684 O 625.382 1.96683 0.433339 0
M  V30 6685 C 622.447 3.44171 0.417999 0
M  V30 6686 C 621.508 4.26257 -0.510263 0
M  V30 6687 C 620.741 5.3321 0.228669 0
M  V30 6688 O 620.964 5.51542 1.45458 0
M  V30 6689 O 619.898 6.0042 -0.421832 0
M  V30 6690 H 623.724 2.78995 -1.19982 0
M  V30 6691 H 621.309 1.34518 -0.650028 0
M  V30 6692 H 623.191 4.12588 0.857251 0
M  V30 6693 H 621.866 2.99164 1.23623 0
M  V30 6694 H 620.773 3.60533 -0.99835 0
M  V30 6695 H 622.106 4.74871 -1.29454 0
M  V30 6696 N 623.758 0.647228 1.43697 0
M  V30 6697 C 624.668 -0.0487997 2.34549 0
M  V30 6698 C 625.684 -0.818586 1.53542 0
M  V30 6699 O 626.86 -0.767195 1.86215 0
M  V30 6700 C 623.925 -1.00734 3.31743 0
M  V30 6701 C 622.986 -0.23515 4.28655 0
M  V30 6702 C 622.219 -1.14803 5.21206 0
M  V30 6703 O 622.442 -2.38717 5.18045 0
M  V30 6704 O 621.376 -0.623667 5.9866 0
M  V30 6705 H 625.202 0.698863 2.9555 0
M  V30 6706 H 622.787 0.407412 1.43738 0
M  V30 6707 H 624.669 -1.55837 3.91526 0
M  V30 6708 H 623.344 -1.73534 2.73254 0
M  V30 6709 H 622.251 0.359319 3.7237 0
M  V30 6710 H 623.584 0.453152 4.9011 0
M  V30 6711 N 625.236 -1.5273 0.388769 0
M  V30 6712 C 626.485 -2.00757 -0.194833 0
M  V30 6713 C 626.798 -1.27951 -1.47946 0
M  V30 6714 O 628.004 -1.66686 -2.14308 0
M  V30 6715 C 626.46 -3.57695 -0.397762 0
M  V30 6716 C 626.068 -4.394 0.873583 0
M  V30 6717 C 627.812 -4.14012 -0.937759 0
M  V30 6718 C 625.719 -5.87938 0.638962 0
M  V30 6719 H 624.649 -0.750101 -0.0765845 0
M  V30 6720 H 627.3 -1.76239 0.511086 0
M  V30 6721 H 625.682 -3.7846 -1.16552 0
M  V30 6722 H 626.856 -4.30403 1.64591 0
M  V30 6723 H 625.171 -3.94301 1.33849 0
M  V30 6724 H 627.768 -5.22645 -1.12899 0
M  V30 6725 H 628.111 -3.7007 -1.90666 0
M  V30 6726 H 628.644 -3.97137 -0.229588 0
M  V30 6727 H 625.383 -6.36202 1.57885 0
M  V30 6728 H 624.903 -5.99726 -0.094443 0
M  V30 6729 H 626.582 -6.46423 0.273299 0
M  V30 6730 N 626.714 -0.118576 -1.57153 0
M  V30 6731 C 627.96 0.534078 -1.96263 0
M  V30 6732 C 628.315 1.64316 -1.0009 0
M  V30 6733 O 627.608 1.91575 -0.0308582 0
M  V30 6734 C 627.802 1.11303 -3.39627 0
M  V30 6735 C 627.631 0.0615624 -4.49658 0
M  V30 6736 C 626.401 -0.370103 -5.03943 0
M  V30 6737 C 628.599 -0.719249 -5.09246 0
M  V30 6738 N 626.581 -1.40738 -5.9755 0
M  V30 6739 C 627.952 -1.60774 -5.98792 0
M  V30 6740 C 630.007 -0.770183 -4.91907 0
M  V30 6741 C 628.71 -2.54272 -6.72858 0
M  V30 6742 C 630.736 -1.69288 -5.66653 0
M  V30 6743 C 630.098 -2.56894 -6.55885 0
M  V30 6744 H 626.197 0.165072 -0.764379 0
M  V30 6745 H 628.781 -0.206596 -1.93601 0
M  V30 6746 H 626.952 1.82342 -3.42937 0
M  V30 6747 H 628.684 1.72996 -3.65861 0
M  V30 6748 H 625.439 0.0222121 -4.73595 0
M  V30 6749 H 625.863 -1.92493 -6.49057 0
M  V30 6750 H 630.505 -0.106999 -4.22665 0
M  V30 6751 H 628.223 -3.21605 -7.41347 0
M  V30 6752 H 631.809 -1.73772 -5.55243 0
M  V30 6753 H 630.689 -3.27131 -7.1271 0
M  V30 6754 N 628.193 1.56834 0.155195 0
M  V30 6755 C 629.14 1.97646 1.19184 0
M  V30 6756 C 630.11 0.842788 1.4313 0
M  V30 6757 O 631.295 1.1042 1.55602 0
M  V30 6758 C 628.435 2.35527 2.52232 0
M  V30 6759 C 627.548 3.62147 2.35529 0
M  V30 6760 C 626.683 3.89167 3.61555 0
M  V30 6761 C 625.722 5.09084 3.39853 0
M  V30 6762 N 624.859 5.32156 4.5799 0
M  V30 6763 H 629.699 2.8601 0.836802 0
M  V30 6764 H 627.236 1.41507 0.401758 0
M  V30 6765 H 629.194 2.55516 3.29799 0
M  V30 6766 H 627.824 1.50253 2.85699 0
M  V30 6767 H 626.876 3.4998 1.49057 0
M  V30 6768 H 628.188 4.49871 2.15448 0
M  V30 6769 H 627.342 4.09611 4.47553 0
M  V30 6770 H 626.081 2.9985 3.84632 0
M  V30 6771 H 625.086 4.88522 2.52243 0
M  V30 6772 H 626.311 5.99947 3.18183 0
M  V30 6773 H 624.257 4.45791 4.81255 0
M  V30 6774 H 624.174 6.14133 4.40882 0
M  V30 6775 H 625.442 5.57091 5.45225 0
M  V30 6776 N 629.671 -0.424282 1.51781 0
M  V30 6777 C 630.917 -1.17434 1.6534 0
M  V30 6778 C 631.25 -1.90549 0.374806 0
M  V30 6779 O 630.525 -1.84145 -0.626179 0
M  V30 6780 C 630.808 -2.18093 2.86544 0
M  V30 6781 C 630.661 -1.48975 4.24413 0
M  V30 6782 C 631.98 -3.18934 3.03264 0
M  V30 6783 H 629.099 -0.425566 0.601716 0
M  V30 6784 H 631.741 -0.461921 1.84299 0
M  V30 6785 H 629.891 -2.78849 2.7051 0
M  V30 6786 H 631.563 -0.914551 4.52143 0
M  V30 6787 H 629.806 -0.791893 4.26511 0
M  V30 6788 H 630.477 -2.22347 5.05238 0
M  V30 6789 H 632.953 -2.68243 3.18096 0
M  V30 6790 H 631.829 -3.86645 3.89611 0
M  V30 6791 H 632.09 -3.85793 2.15908 0
M  V30 6792 N 631.149 -1.42148 -0.680565 0
M  V30 6793 C 632.097 -1.45401 -1.81552 0
M  V30 6794 C 633.091 -0.33036 -1.66147 0
M  V30 6795 O 634.297 -0.503103 -1.72826 0
M  V30 6796 H 630.672 -0.455265 -0.59853 0
M  V30 6797 H 632.643 -2.41024 -1.75926 0
M  V30 6798 C 631.392 -1.36769 -3.19671 0
M  V30 6799 H 630.715 -2.22525 -3.32149 0
M  V30 6800 H 632.155 -1.43106 -3.9912 0
M  V30 6801 C 630.614 -0.0817752 -3.36801 0
M  V30 6802 O 631.144 0.867707 -3.92216 0
M  V30 6803 N 629.35 -0.000799811 -2.906 0
M  V30 6804 H 628.897 -0.774231 -2.4569 0
M  V30 6805 H 628.855 0.858961 -3.02439 0
M  V30 6806 N 632.627 0.916307 -1.28225 0
M  V30 6807 C 633.874 1.66518 -1.1523 0
M  V30 6808 C 634.202 1.92178 0.299632 0
M  V30 6809 O 633.457 1.51842 1.2346 0
M  V30 6810 C 633.756 3.03125 -1.8934 0
M  V30 6811 C 633.422 2.97135 -3.39148 0
M  V30 6812 C 632.084 2.95208 -3.80007 0
M  V30 6813 C 634.436 2.87574 -4.34685 0
M  V30 6814 C 631.764 2.81518 -5.14747 0
M  V30 6815 C 634.116 2.75424 -5.69495 0
M  V30 6816 C 632.78 2.71854 -6.09632 0
M  V30 6817 H 632.05 0.609334 -0.421655 0
M  V30 6818 H 634.697 1.06776 -1.58969 0
M  V30 6819 H 633.002 3.66639 -1.38143 0
M  V30 6820 H 634.699 3.59968 -1.76704 0
M  V30 6821 H 631.289 2.99428 -3.06661 0
M  V30 6822 H 635.473 2.88152 -4.04082 0
M  V30 6823 H 630.729 2.77148 -5.44976 0
M  V30 6824 H 634.903 2.66993 -6.43185 0
M  V30 6825 H 632.53 2.61003 -7.1399 0
M  V30 6826 N 634.105 1.10431 1.1244 0
M  V30 6827 C 635.333 0.868872 1.87772 0
M  V30 6828 C 635.748 -0.580645 1.7965 0
M  V30 6829 O 635.105 -1.40031 1.17036 0
M  V30 6830 C 635.156 1.30855 3.36986 0
M  V30 6831 O 634.877 2.70123 3.44914 0
M  V30 6832 C 636.378 1.107 4.29256 0
M  V30 6833 H 633.598 0.311868 0.59412 0
M  V30 6834 H 636.142 1.46897 1.42273 0
M  V30 6835 H 634.297 0.752126 3.80029 0
M  V30 6836 H 634.711 2.88923 4.37748 0
M  V30 6837 H 636.185 1.46378 5.32238 0
M  V30 6838 H 636.662 0.0456228 4.39176 0
M  V30 6839 H 637.268 1.64988 3.91994 0
M  V30 6840 N 635.583 -1.29855 0.893053 0
M  V30 6841 C 636.513 -2.3035 0.382249 0
M  V30 6842 C 637.494 -1.61328 -0.539203 0
M  V30 6843 O 638.679 -1.88882 -0.451342 0
M  V30 6844 C 635.809 -3.45024 -0.396983 0
M  V30 6845 C 634.763 -4.258 0.433437 0
M  V30 6846 C 634.089 -5.32605 -0.472889 0
M  V30 6847 C 635.389 -4.94549 1.67984 0
M  V30 6848 H 637.083 -2.73325 1.22205 0
M  V30 6849 H 634.629 -1.314 0.589073 0
M  V30 6850 H 636.582 -4.14398 -0.765024 0
M  V30 6851 H 635.306 -3.00875 -1.2705 0
M  V30 6852 H 633.965 -3.58125 0.783723 0
M  V30 6853 H 633.613 -4.84702 -1.34435 0
M  V30 6854 H 633.313 -5.87547 0.0789958 0
M  V30 6855 H 634.837 -6.04832 -0.837269 0
M  V30 6856 H 636.251 -5.56395 1.38192 0
M  V30 6857 H 634.648 -5.59393 2.17254 0
M  V30 6858 H 635.718 -4.20215 2.41965 0
M  V30 6859 N 637.061 -0.65484 -1.43351 0
M  V30 6860 C 637.991 0.0221809 -2.33489 0
M  V30 6861 C 638.972 0.810272 -1.49561 0
M  V30 6862 O 640.157 0.771426 -1.78221 0
M  V30 6863 C 637.287 0.988117 -3.32947 0
M  V30 6864 C 636.241 0.310026 -4.26876 0
M  V30 6865 C 635.567 1.38752 -5.16384 0
M  V30 6866 C 636.867 -0.798589 -5.16159 0
M  V30 6867 H 638.561 -0.730571 -2.9035 0
M  V30 6868 H 636.107 -0.352773 -1.39612 0
M  V30 6869 H 638.06 1.47067 -3.94904 0
M  V30 6870 H 636.784 1.77205 -2.74346 0
M  V30 6871 H 635.443 -0.152097 -3.66284 0
M  V30 6872 H 635.091 2.16293 -4.54121 0
M  V30 6873 H 634.791 0.939051 -5.80048 0
M  V30 6874 H 636.315 1.87141 -5.81215 0
M  V30 6875 H 637.729 -0.398126 -5.71916 0
M  V30 6876 H 636.126 -1.17163 -5.88552 0
M  V30 6877 H 637.196 -1.65588 -4.55751 0
M  V30 6878 N 638.539 1.52521 -0.396863 0
M  V30 6879 C 639.816 1.94112 0.240842 0
M  V30 6880 C 640.196 1.33288 1.637 0
M  V30 6881 O 639.544 0.503901 2.22875 0
M  V30 6882 C 639.754 3.48033 0.259567 0
M  V30 6883 C 641.102 4.21822 0.484866 0
M  V30 6884 O 642.126 3.54579 0.339453 0
M  V30 6885 O 640.985 5.41042 0.770412 0
M  V30 6886 H 638.079 0.812973 0.151671 0
M  V30 6887 H 640.625 1.63572 -0.451918 0
M  V30 6888 H 639.397 3.84655 -0.718078 0
M  V30 6889 H 639.02 3.84899 0.996937 0
M  V30 6890 N 640.017 0.126909 1.57088 0
M  V30 6891 C 640.967 -0.831678 2.1229 0
M  V30 6892 C 641.951 -1.22292 1.04564 0
M  V30 6893 O 643.143 -1.19269 1.30782 0
M  V30 6894 C 640.272 -2.07866 2.73215 0
M  V30 6895 C 639.358 -1.71143 3.88035 0
M  V30 6896 N 639.749 -1.05136 4.94753 0
M  V30 6897 C 638.047 -2.00549 3.98367 0
M  V30 6898 C 638.748 -0.877257 5.75047 0
M  V30 6899 N 637.724 -1.40477 5.25135 0
M  V30 6900 H 641.526 -0.317926 2.92175 0
M  V30 6901 H 639.04 -0.0753052 1.62225 0
M  V30 6902 H 641.037 -2.77516 3.11111 0
M  V30 6903 H 639.697 -2.59778 1.94796 0
M  V30 6904 H 640.708 -0.71442 5.12949 0
M  V30 6905 H 637.385 -2.54452 3.30999 0
M  V30 6906 H 638.775 -0.358536 6.70943 0
M  V30 6907 N 641.495 -1.56914 -0.146875 0
M  V30 6908 C 642.427 -1.94878 -1.20645 0
M  V30 6909 C 643.44 -0.844633 -1.39175 0
M  V30 6910 O 644.629 -1.12304 -1.38744 0
M  V30 6911 C 641.729 -2.20769 -2.57127 0
M  V30 6912 C 640.902 -3.52053 -2.59572 0
M  V30 6913 C 639.961 -3.66482 -3.77594 0
M  V30 6914 O 638.987 -4.38873 -3.62462 0
M  V30 6915 N 640.189 -3.03156 -4.95052 0
M  V30 6916 H 642.954 -2.86374 -0.883757 0
M  V30 6917 H 640.515 -1.58366 -0.336436 0
M  V30 6918 H 642.507 -2.27664 -3.34591 0
M  V30 6919 H 641.077 -1.35538 -2.81688 0
M  V30 6920 H 640.297 -3.56598 -1.68023 0
M  V30 6921 H 641.585 -4.38396 -2.58238 0
M  V30 6922 H 640.983 -2.44258 -5.10249 0
M  V30 6923 H 639.54 -3.15611 -5.70292 0
M  V30 6924 N 642.974 0.416227 -1.52004 0
M  V30 6925 C 644.223 1.16088 -1.64944 0
M  V30 6926 C 644.536 1.91835 -0.381928 0
M  V30 6927 O 645.742 2.6867 -0.391013 0
M  V30 6928 C 644.198 2.1124 -2.91386 0
M  V30 6929 C 643.806 1.41042 -4.25219 0
M  V30 6930 C 645.55 2.86008 -3.13688 0
M  V30 6931 C 643.457 2.34801 -5.42791 0
M  V30 6932 H 642.387 0.437041 -0.61442 0
M  V30 6933 H 645.038 0.425971 -1.78487 0
M  V30 6934 H 643.42 2.88254 -2.71525 0
M  V30 6935 H 644.594 0.694416 -4.55538 0
M  V30 6936 H 642.909 0.78344 -4.08964 0
M  V30 6937 H 645.506 3.56286 -3.98703 0
M  V30 6938 H 645.849 3.48556 -2.27628 0
M  V30 6939 H 646.382 2.16095 -3.33988 0
M  V30 6940 H 643.121 1.7691 -6.31176 0
M  V30 6941 H 642.641 3.04395 -5.16821 0
M  V30 6942 H 644.32 2.9548 -5.75587 0
M  V30 6943 N 644.452 1.42507 0.673017 0
M  V30 6944 C 645.699 1.43072 1.43306 0
M  V30 6945 C 646.027 0.0478004 1.94441 0
M  V30 6946 O 645.282 -0.944106 1.71421 0
M  V30 6947 C 645.581 2.40351 2.64511 0
M  V30 6948 C 645.247 3.8669 2.31908 0
M  V30 6949 C 643.909 4.26551 2.22728 0
M  V30 6950 C 646.261 4.78991 2.05467 0
M  V30 6951 C 643.589 5.56691 1.85234 0
M  V30 6952 C 645.941 6.09476 1.69477 0
M  V30 6953 C 644.605 6.48334 1.58808 0
M  V30 6954 H 643.875 0.523536 0.524395 0
M  V30 6955 H 646.522 1.75459 0.76723 0
M  V30 6956 H 644.827 2.01297 3.36135 0
M  V30 6957 H 646.524 2.38051 3.22696 0
M  V30 6958 H 643.114 3.55132 2.39956 0
M  V30 6959 H 647.298 4.48982 2.11492 0
M  V30 6960 H 642.554 5.85657 1.75545 0
M  V30 6961 H 646.728 6.80482 1.48043 0
M  V30 6962 H 644.355 7.49084 1.29525 0
M  V30 6963 N 645.93 -0.909495 1.28709 0
M  V30 6964 C 647.177 -1.65905 1.16111 0
M  V30 6965 C 647.505 -1.92334 -0.289436 0
M  V30 6966 O 646.76 -1.52495 -1.22653 0
M  V30 6967 C 647.059 -3.02117 1.90945 0
M  V30 6968 C 646.725 -2.95332 3.40719 0
M  V30 6969 C 645.387 -2.93189 3.81567 0
M  V30 6970 C 647.739 -2.85264 4.36204 0
M  V30 6971 C 645.067 -2.78784 5.16233 0
M  V30 6972 C 647.419 -2.724 5.70948 0
M  V30 6973 C 646.083 -2.68617 6.11066 0
M  V30 6974 H 645.353 -0.60709 0.42488 0
M  V30 6975 H 648 -1.05932 1.59533 0
M  V30 6976 H 646.305 -3.65901 1.40085 0
M  V30 6977 H 648.002 -3.59026 1.7861 0
M  V30 6978 H 644.592 -2.97797 3.08245 0
M  V30 6979 H 648.776 -2.86005 4.05605 0
M  V30 6980 H 644.032 -2.74254 5.46438 0
M  V30 6981 H 648.206 -2.63579 6.44592 0
M  V30 6982 H 645.833 -2.57213 7.15364 0
M  V30 6983 N 647.408 -1.11026 -1.11852 0
M  V30 6984 C 648.685 -0.768347 -1.79877 0
M  V30 6985 C 649.065 0.744261 -1.97545 0
M  V30 6986 O 648.413 1.67271 -1.55669 0
M  V30 6987 C 648.623 -1.52648 -3.13846 0
M  V30 6988 C 649.971 -1.70297 -3.88953 0
M  V30 6989 O 650.995 -1.49037 -3.23522 0
M  V30 6990 O 649.854 -2.05593 -5.06353 0
M  V30 6991 H 646.948 -0.277891 -0.778913 0
M  V30 6992 H 649.494 -1.21343 -1.18633 0
M  V30 6993 H 648.266 -2.55564 -2.96315 0
M  V30 6994 H 647.889 -1.07466 -3.82801 0
M  V30 6995 N 648.886 1.2938 -0.899927 0
M  V30 6996 C 650.297 1.77644 -0.574427 0
M  V30 6997 C 650.648 1.73824 0.909928 0
M  V30 6998 O 649.773 1.32429 1.71147 0
M  V30 6999 C 650.368 3.22573 -1.03595 0
M  V30 7000 C 648.927 3.68614 -0.76161 0
M  V30 7001 C 648.074 2.49483 -1.21052 0
M  V30 7002 H 651.025 1.16038 -1.08263 0
M  V30 7003 H 651.046 3.78684 -0.371337 0
M  V30 7004 H 650.558 3.25321 -2.11631 0
M  V30 7005 H 648.659 3.7134 0.306127 0
M  V30 7006 H 648.772 4.59402 -1.35965 0
M  V30 7007 H 647.136 2.46798 -0.629515 0
M  V30 7008 H 647.919 2.54959 -2.29893 0
M  V30 7009 N 650.364 0.662433 1.43002 0
M  V30 7010 C 651.296 -0.062326 2.29115 0
M  V30 7011 C 652.309 -0.777926 1.43011 0
M  V30 7012 O 653.498 -0.634146 1.66856 0
M  V30 7013 C 650.598 -1.11163 3.2015 0
M  V30 7014 C 649.771 -0.472327 4.34842 0
M  V30 7015 C 648.83 -1.41974 5.06685 0
M  V30 7016 O 647.856 -0.924795 5.61637 0
M  V30 7017 N 649.058 -2.75345 5.11043 0
M  V30 7018 H 651.823 0.676838 2.91957 0
M  V30 7019 H 649.384 0.505907 1.53793 0
M  V30 7020 H 651.376 -1.74643 3.65078 0
M  V30 7021 H 649.946 -1.75266 2.58845 0
M  V30 7022 H 649.166 0.341751 3.92716 0
M  V30 7023 H 650.454 -0.0264381 5.08793 0
M  V30 7024 H 649.852 -3.18108 4.67786 0
M  V30 7025 H 648.409 -3.34105 5.59658 0
M  V30 7026 N 651.842 -1.52309 0.404946 0
M  V30 7027 C 653.09 -2.01368 -0.17186 0
M  V30 7028 C 653.411 -1.29261 -1.46002 0
M  V30 7029 O 652.681 -0.41729 -1.91404 0
M  V30 7030 H 651.261 -0.744034 -0.0664993 0
M  V30 7031 H 653.923 -1.87263 0.540228 0
M  V30 7032 H 653.019 -3.09888 -0.370957 0
M  V30 7033 N 653.32 -0.135238 -1.57019 0
M  V30 7034 C 654.597 0.563227 -1.87316 0
M  V30 7035 C 654.977 1.83749 -1.03921 0
M  V30 7036 O 654.325 2.2817 -0.122675 0
M  V30 7037 C 654.535 0.840031 -3.3874 0
M  V30 7038 C 655.883 1.18598 -4.077 0
M  V30 7039 O 656.907 0.92977 -3.43851 0
M  V30 7040 O 655.766 1.66758 -5.20436 0
M  V30 7041 H 652.86 0.285971 -0.775983 0
M  V30 7042 H 655.406 -0.170965 -1.68837 0
M  V30 7043 H 654.178 -0.0622785 -3.9125 0
M  V30 7044 H 653.801 1.62882 -3.62706 0
M  V30 7045 N 654.798 1.5699 0.138552 0
M  V30 7046 C 656.044 1.84081 0.85099 0
M  V30 7047 C 656.377 0.718107 1.80435 0
M  V30 7048 O 655.652 -0.277633 1.92508 0
M  V30 7049 C 655.935 3.21699 1.61808 0
M  V30 7050 C 655.788 4.44544 0.685633 0
M  V30 7051 C 657.107 3.5664 2.57868 0
M  V30 7052 H 654.226 0.669592 0.307922 0
M  V30 7053 H 656.868 1.89646 0.11588 0
M  V30 7054 H 655.018 3.17086 2.24474 0
M  V30 7055 H 656.69 4.61248 0.0693179 0
M  V30 7056 H 654.933 4.338 -0.00421993 0
M  V30 7057 H 655.604 5.3746 1.25858 0
M  V30 7058 H 658.08 3.61918 2.05316 0
M  V30 7059 H 656.956 4.53946 3.08584 0
M  V30 7060 H 657.217 2.83036 3.39622 0
M  V30 7061 N 656.276 -0.40816 1.52223 0
M  V30 7062 C 657.239 -1.48 1.7501 0
M  V30 7063 C 658.239 -1.48367 0.619996 0
M  V30 7064 O 659.429 -1.49874 0.887881 0
M  V30 7065 C 656.561 -2.87403 1.83336 0
M  V30 7066 H 657.754 -1.29086 2.70697 0
M  V30 7067 H 655.307 -0.638715 1.42654 0
M  V30 7068 H 656.042 -3.11686 0.895677 0
M  V30 7069 H 655.827 -2.8854 2.65494 0
M  V30 7070 H 657.317 -3.65103 2.02705 0
M  V30 7071 N 657.755 -1.42862 -0.66545 0
M  V30 7072 C 658.685 -1.49867 -1.79059 0
M  V30 7073 C 659.666 -0.354394 -1.66367 0
M  V30 7074 O 660.851 -0.569969 -1.85647 0
M  V30 7075 C 657.981 -1.40943 -3.17415 0
M  V30 7076 C 656.935 -2.53495 -3.44854 0
M  V30 7077 C 656.261 -2.29626 -4.82883 0
M  V30 7078 C 657.561 -3.95781 -3.40815 0
M  V30 7079 H 659.255 -2.44037 -1.73453 0
M  V30 7080 H 656.801 -1.17456 -0.833071 0
M  V30 7081 H 658.754 -1.4445 -3.95869 0
M  V30 7082 H 657.478 -0.432716 -3.23721 0
M  V30 7083 H 656.137 -2.4932 -2.68766 0
M  V30 7084 H 655.785 -1.30226 -4.8585 0
M  V30 7085 H 655.485 -3.05065 -5.02204 0
M  V30 7086 H 657.009 -2.34897 -5.63609 0
M  V30 7087 H 658.423 -4.01508 -4.09224 0
M  V30 7088 H 656.82 -4.71148 -3.71672 0
M  V30 7089 H 657.89 -4.21786 -2.39216 0
M  V30 7090 N 659.233 0.902656 -1.29189 0
M  V30 7091 C 660.183 1.99326 -1.10695 0
M  V30 7092 C 661.167 1.60877 -0.0272521 0
M  V30 7093 O 662.359 1.75245 -0.248635 0
M  V30 7094 C 659.488 3.34265 -0.78244 0
M  V30 7095 C 658.574 3.79081 -1.90153 0
M  V30 7096 N 658.965 3.96162 -3.14466 0
M  V30 7097 C 657.263 4.08333 -1.79389 0
M  V30 7098 C 657.964 4.3388 -3.87458 0
M  V30 7099 N 656.94 4.42759 -3.15381 0
M  V30 7100 H 660.742 2.10597 -2.05003 0
M  V30 7101 H 658.256 1.09127 -1.20271 0
M  V30 7102 H 660.253 4.12097 -0.630996 0
M  V30 7103 H 658.913 3.2434 0.152754 0
M  V30 7104 H 659.924 3.81775 -3.49954 0
M  V30 7105 H 656.601 4.06982 -0.931217 0
M  V30 7106 H 657.991 4.54965 -4.94425 0
M  V30 7107 N 660.711 1.11618 1.11262 0
M  V30 7108 C 661.641 0.79846 2.19424 0
M  V30 7109 C 662.622 -0.234003 1.68483 0
M  V30 7110 O 663.807 -0.0970704 1.93957 0
M  V30 7111 C 660.937 0.242892 3.4645 0
M  V30 7112 C 659.891 1.20744 4.10615 0
M  V30 7113 C 659.217 0.512494 5.32238 0
M  V30 7114 C 660.517 2.55884 4.55325 0
M  V30 7115 H 662.211 1.70286 2.46258 0
M  V30 7116 H 659.757 0.820195 1.18359 0
M  V30 7117 H 661.71 0.00840447 4.21399 0
M  V30 7118 H 660.434 -0.696811 3.1908 0
M  V30 7119 H 659.093 1.42759 3.37662 0
M  V30 7120 H 658.741 -0.432075 5.01141 0
M  V30 7121 H 658.441 1.15583 5.7612 0
M  V30 7122 H 659.965 0.286842 6.09926 0
M  V30 7123 H 661.379 2.37946 5.21588 0
M  V30 7124 H 659.776 3.16216 5.10027 0
M  V30 7125 H 660.846 3.14968 3.68678 0
M  V30 7126 N 662.189 -1.289 0.906776 0
M  V30 7127 C 663.099 -2.31256 0.394707 0
M  V30 7128 C 664.115 -1.66231 -0.514121 0
M  V30 7129 O 665.291 -1.97347 -0.401994 0
M  V30 7130 C 662.356 -3.44792 -0.363191 0
M  V30 7131 C 661.417 -4.25391 0.578012 0
M  V30 7132 C 660.65 -5.33506 -0.143811 0
M  V30 7133 O 660.873 -5.53786 -1.36665 0
M  V30 7134 O 659.807 -5.99673 0.5173 0
M  V30 7135 H 663.633 -2.77051 1.24405 0
M  V30 7136 H 661.218 -1.33466 0.671346 0
M  V30 7137 H 663.1 -4.139 -0.791503 0
M  V30 7138 H 661.775 -3.01093 -1.18848 0
M  V30 7139 H 660.682 -3.58899 1.05558 0
M  V30 7140 H 662.015 -4.72752 1.36992 0
M  V30 7141 N 663.667 -0.670007 -1.42649 0
M  V30 7142 C 664.916 -0.187526 -2.00826 0
M  V30 7143 C 665.229 1.21142 -1.53571 0
M  V30 7144 O 666.435 1.79001 -2.04134 0
M  V30 7145 C 664.891 -0.284409 -3.58774 0
M  V30 7146 C 664.499 -1.6871 -4.15019 0
M  V30 7147 C 666.243 0.139605 -4.2427 0
M  V30 7148 C 664.15 -1.73701 -5.65316 0
M  V30 7149 H 663.08 -0.0663468 -0.751075 0
M  V30 7150 H 665.731 -0.834492 -1.63427 0
M  V30 7151 H 664.113 0.430364 -3.93655 0
M  V30 7152 H 665.287 -2.42857 -3.91608 0
M  V30 7153 H 663.602 -2.05855 -3.61957 0
M  V30 7154 H 666.199 0.122398 -5.3456 0
M  V30 7155 H 666.542 1.17403 -3.99402 0
M  V30 7156 H 667.075 -0.523995 -3.94334 0
M  V30 7157 H 663.814 -2.75109 -5.94975 0
M  V30 7158 H 663.334 -1.03903 -5.90732 0
M  V30 7159 H 665.013 -1.48829 -6.2965 0
M  V30 7160 N 665.145 1.52092 -0.413018 0
M  V30 7161 C 666.391 2.02154 0.161737 0
M  V30 7162 C 666.724 1.29789 1.44459 0
M  V30 7163 O 665.999 0.405378 1.90229 0
M  V30 7164 C 666.282 3.5781 0.405463 0
M  V30 7165 C 666.135 4.40819 -0.894335 0
M  V30 7166 C 667.454 4.23821 1.18591 0
M  V30 7167 H 664.573 0.734769 0.0573077 0
M  V30 7168 H 667.215 1.81948 -0.547247 0
M  V30 7169 H 665.365 3.75158 1.0094 0
M  V30 7170 H 667.037 4.35175 -1.53039 0
M  V30 7171 H 665.28 4.06877 -1.50444 0
M  V30 7172 H 665.951 5.47819 -0.678144 0
M  V30 7173 H 668.427 4.10596 0.674573 0
M  V30 7174 H 667.303 5.32663 1.3252 0
M  V30 7175 H 667.564 3.83038 2.20758 0
M  V30 7176 N 666.623 0.143563 1.56945 0
M  V30 7177 C 667.555 -0.828353 2.13708 0
M  V30 7178 C 668.568 -1.21313 1.08568 0
M  V30 7179 O 669.757 -1.1578 1.35857 0
M  V30 7180 C 666.857 -2.12248 2.64204 0
M  V30 7181 C 666.03 -1.90561 3.93707 0
M  V30 7182 C 665.089 -3.03931 4.29549 0
M  V30 7183 O 664.115 -2.75772 4.97934 0
M  V30 7184 N 665.317 -4.31016 3.88852 0
M  V30 7185 H 668.082 -0.343242 2.97728 0
M  V30 7186 H 665.643 -0.0401152 1.6185 0
M  V30 7187 H 667.635 -2.87132 2.85197 0
M  V30 7188 H 666.205 -2.52033 1.84928 0
M  V30 7189 H 665.425 -0.997327 3.81375 0
M  V30 7190 H 666.713 -1.73405 4.78339 0
M  V30 7191 H 666.111 -4.56762 3.33743 0
M  V30 7192 H 664.668 -5.02691 4.14903 0
M  V30 7193 N 668.101 -1.57061 -0.130224 0
M  V30 7194 C 669.347 -1.85412 -0.836295 0
M  V30 7195 C 669.702 -0.729831 -1.7802 0
M  V30 7196 O 668.995 0.271021 -1.89673 0
M  V30 7197 C 669.189 -3.17878 -1.63365 0
M  V30 7198 C 669.018 -4.43086 -0.768453 0
M  V30 7199 C 667.788 -5.03488 -0.427598 0
M  V30 7200 C 669.986 -5.14219 -0.0911495 0
M  V30 7201 N 667.968 -6.12253 0.449439 0
M  V30 7202 C 669.339 -6.16632 0.645341 0
M  V30 7203 C 671.394 -4.97898 -0.0135625 0
M  V30 7204 C 670.097 -7.0449 1.45212 0
M  V30 7205 C 672.123 -5.86234 0.780001 0
M  V30 7206 C 671.485 -6.88141 1.50472 0
M  V30 7207 H 667.584 -0.728875 -0.283311 0
M  V30 7208 H 670.168 -1.9444 -0.100662 0
M  V30 7209 H 668.339 -3.09967 -2.3404 0
M  V30 7210 H 670.071 -3.34076 -2.28419 0
M  V30 7211 H 666.826 -4.67344 -0.767264 0
M  V30 7212 H 667.25 -6.71263 0.879476 0
M  V30 7213 H 671.892 -4.19082 -0.559511 0
M  V30 7214 H 669.61 -7.82722 2.00926 0
M  V30 7215 H 673.196 -5.75671 0.842246 0
M  V30 7216 H 672.076 -7.55311 2.1089 0
M  V30 7217 N 669.579 0.400081 -1.52437 0
M  V30 7218 C 670.511 1.50729 -1.72666 0
M  V30 7219 C 671.524 1.51058 -0.607075 0
M  V30 7220 O 672.713 1.5516 -0.88248 0
M  V30 7221 C 669.813 2.89604 -1.76019 0
M  V30 7222 C 668.986 3.13365 -3.05157 0
M  V30 7223 C 668.045 4.32163 -3.00203 0
M  V30 7224 O 667.071 4.29004 -3.74092 0
M  V30 7225 N 668.273 5.3776 -2.18619 0
M  V30 7226 H 671.038 1.33767 -2.68191 0
M  V30 7227 H 668.599 0.58948 -1.50787 0
M  V30 7228 H 670.591 3.67159 -1.70225 0
M  V30 7229 H 669.161 2.99979 -0.879284 0
M  V30 7230 H 668.381 2.23774 -3.24529 0
M  V30 7231 H 669.669 3.26089 -3.90568 0
M  V30 7232 H 669.067 5.43177 -1.58035 0
M  V30 7233 H 667.624 6.14023 -2.18674 0
M  V30 7234 N 671.057 1.43213 0.657864 0
M  V30 7235 C 672.303 1.45795 1.41829 0
M  V30 7236 C 672.658 0.0792176 1.92237 0
M  V30 7237 O 671.951 -0.901406 1.69072 0
M  V30 7238 C 672.145 2.43143 2.61947 0
M  V30 7239 C 671.974 3.90345 2.23295 0
M  V30 7240 C 670.744 4.58749 2.11843 0
M  V30 7241 C 672.942 4.80308 1.83873 0
M  V30 7242 N 670.924 5.90898 1.66473 0
M  V30 7243 C 672.295 6.01693 1.49549 0
M  V30 7244 C 674.35 4.67609 1.71015 0
M  V30 7245 C 673.053 7.11792 1.03657 0
M  V30 7246 C 675.079 5.77707 1.26527 0
M  V30 7247 C 674.441 6.98215 0.931379 0
M  V30 7248 H 670.54 0.588628 0.514822 0
M  V30 7249 H 673.124 1.7936 0.7575 0
M  V30 7250 H 671.295 2.11612 3.25692 0
M  V30 7251 H 673.027 2.36193 3.28626 0
M  V30 7252 H 669.782 4.1319 2.31453 0
M  V30 7253 H 670.206 6.61034 1.46163 0
M  V30 7254 H 674.848 3.74902 1.95469 0
M  V30 7255 H 672.566 8.04332 0.779502 0
M  V30 7256 H 676.152 5.69899 1.17074 0
M  V30 7257 H 675.032 7.81959 0.592379 0
M  V30 7258 N 672.536 -0.895792 1.29666 0
M  V30 7259 C 673.813 -1.62723 1.08538 0
M  V30 7260 C 674.193 -2.07848 -0.369119 0
M  V30 7261 O 673.541 -1.8372 -1.35864 0
M  V30 7262 C 673.751 -2.80505 2.07648 0
M  V30 7263 C 675.099 -3.51098 2.3878 0
M  V30 7264 O 676.123 -2.90679 2.05874 0
M  V30 7265 O 674.982 -4.60028 2.9502 0
M  V30 7266 H 672.076 -0.714692 0.416106 0
M  V30 7267 H 674.622 -0.943517 1.41053 0
M  V30 7268 H 673.394 -2.44386 3.05599 0
M  V30 7269 H 673.017 -3.5658 1.75887 0
M  V30 7270 N 674.014 -1.12206 -1.10668 0
M  V30 7271 C 675.43 -0.857619 -1.346 0
M  V30 7272 C 675.63 0.513542 -1.94846 0
M  V30 7273 O 674.686 1.26273 -2.18658 0
M  V30 7274 C 675.999 -1.97212 -2.26998 0
M  V30 7275 C 677.547 -2.00272 -2.40542 0
M  V30 7276 C 678.022 -3.10948 -3.36267 0
M  V30 7277 N 679.513 -3.10375 -3.43834 0
M  V30 7278 C 680.248 -3.92651 -4.17867 0
M  V30 7279 N 679.744 -4.84911 -4.94807 0
M  V30 7280 N 681.537 -3.80798 -4.1346 0
M  V30 7281 H 673.688 -2.00558 -0.699306 0
M  V30 7282 H 675.951 -0.872612 -0.370477 0
M  V30 7283 H 675.657 -2.96002 -1.89936 0
M  V30 7284 H 675.531 -1.87521 -3.27286 0
M  V30 7285 H 677.918 -1.02103 -2.76874 0
M  V30 7286 H 677.999 -2.14037 -1.40077 0
M  V30 7287 H 677.643 -4.09348 -3.00661 0
M  V30 7288 H 677.573 -2.94421 -4.36605 0
M  V30 7289 H 680.064 -2.43536 -2.88961 0
M  V30 7290 H 680.377 -5.44207 -5.48688 0
M  V30 7291 H 678.722 -4.88926 -4.93939 0
M  V30 7292 H 681.913 -3.08058 -3.52445 0
M  V30 7293 H 682.086 -4.4515 -4.70898 0
M  V30 7294 N 675.492 1.28418 -0.913599 0
M  V30 7295 C 676.717 1.99643 -0.561899 0
M  V30 7296 C 677.142 1.67819 0.849608 0
M  V30 7297 O 676.5 0.910503 1.56779 0
M  V30 7298 C 676.548 3.52116 -0.777622 0
M  V30 7299 O 675.652 4.12076 0.163457 0
M  V30 7300 H 674.993 0.627229 -0.217898 0
M  V30 7301 H 677.523 1.63575 -1.229 0
M  V30 7302 H 677.533 4.02163 -0.687666 0
M  V30 7303 H 676.208 3.74613 -1.8066 0
M  V30 7304 H 674.785 3.72892 0.0247827 0
M  V30 7305 N 676.97 0.677563 1.42291 0
M  V30 7306 C 677.902 -0.0380218 2.29168 0
M  V30 7307 C 678.915 -0.762714 1.43828 0
M  V30 7308 O 680.104 -0.616413 1.67519 0
M  V30 7309 C 677.204 -1.07761 3.21311 0
M  V30 7310 C 676.377 -0.42618 4.35319 0
M  V30 7311 C 675.436 -1.36592 5.08162 0
M  V30 7312 O 674.462 -0.865174 5.62586 0
M  V30 7313 N 675.664 -2.69909 5.13935 0
M  V30 7314 H 678.429 0.707766 2.91223 0
M  V30 7315 H 675.99 0.52219 1.53247 0
M  V30 7316 H 677.982 -1.70761 3.6691 0
M  V30 7317 H 676.552 -1.72511 2.60689 0
M  V30 7318 H 675.772 0.383385 3.92331 0
M  V30 7319 H 677.06 0.0275277 5.08793 0
M  V30 7320 H 676.458 -3.13129 4.71134 0
M  V30 7321 H 675.015 -3.2815 5.6317 0
M  V30 7322 N 678.448 -1.51871 0.421078 0
M  V30 7323 C 679.396 -2.28903 -0.413066 0
M  V30 7324 C 680.39 -1.3408 -1.03532 0
M  V30 7325 O 681.596 -1.5149 -0.972146 0
M  V30 7326 H 677.971 -0.736478 -0.152003 0
M  V30 7327 H 679.942 -2.97285 0.257695 0
M  V30 7328 C 678.691 -3.13156 -1.51091 0
M  V30 7329 H 678.014 -3.85997 -1.04145 0
M  V30 7330 H 679.454 -3.7014 -2.06814 0
M  V30 7331 C 677.913 -2.27482 -2.48503 0
M  V30 7332 O 678.443 -1.92325 -3.52667 0
M  V30 7333 N 676.649 -1.91019 -2.18998 0
M  V30 7334 H 676.196 -2.19808 -1.34322 0
M  V30 7335 H 676.154 -1.3399 -2.84419 0
M  V30 7336 N 679.926 -0.151884 -1.56866 0
M  V30 7337 C 681.337 0.368128 -1.83035 0
M  V30 7338 C 681.688 1.64402 -1.07082 0
M  V30 7339 O 680.813 2.14056 -0.317647 0
M  V30 7340 C 681.408 0.674676 -3.32014 0
M  V30 7341 C 679.967 1.13919 -3.58747 0
M  V30 7342 C 679.114 0.164833 -2.7681 0
M  V30 7343 H 682.065 -0.376499 -1.54169 0
M  V30 7344 H 682.086 1.52883 -3.48435 0
M  V30 7345 H 681.598 -0.254113 -3.87267 0
M  V30 7346 H 679.699 2.08375 -3.08886 0
M  V30 7347 H 679.812 1.06179 -4.67186 0
M  V30 7348 H 678.176 0.658419 -2.46043 0
M  V30 7349 H 678.959 -0.757633 -3.34836 0
M  V30 7350 N 681.404 1.57128 0.121893 0
M  V30 7351 C 682.651 1.847 0.830188 0
M  V30 7352 C 682.979 0.736543 1.80015 0
M  V30 7353 O 682.234 -0.272358 1.93796 0
M  V30 7354 C 682.533 3.1874 1.61677 0
M  V30 7355 C 682.199 4.43901 0.791361 0
M  V30 7356 C 680.861 4.77887 0.563731 0
M  V30 7357 C 683.213 5.20753 0.215823 0
M  V30 7358 C 680.541 5.86168 -0.249737 0
M  V30 7359 C 682.893 6.29891 -0.584821 0
M  V30 7360 C 681.557 6.6241 -0.822794 0
M  V30 7361 H 680.827 0.675866 0.303787 0
M  V30 7362 H 683.474 1.91276 0.0926894 0
M  V30 7363 H 681.779 3.07728 2.42509 0
M  V30 7364 H 683.476 3.37295 2.16872 0
M  V30 7365 H 680.066 4.17272 0.978867 0
M  V30 7366 H 684.25 4.94851 0.378907 0
M  V30 7367 H 679.506 6.0979 -0.44336 0
M  V30 7368 H 683.68 6.88624 -1.03779 0
M  V30 7369 H 681.307 7.46147 -1.45496 0
M  V30 7370 N 682.882 -0.391992 1.52647 0
M  V30 7371 C 683.814 -1.49811 1.73463 0
M  V30 7372 C 684.827 -1.50734 0.615078 0
M  V30 7373 O 686.016 -1.5469 0.890696 0
M  V30 7374 C 683.116 -2.88667 1.77552 0
M  V30 7375 C 682.289 -3.11743 3.06815 0
M  V30 7376 C 681.348 -4.30564 3.02491 0
M  V30 7377 O 680.374 -4.27014 3.76361 0
M  V30 7378 N 681.576 -5.36593 2.21468 0
M  V30 7379 H 684.341 -1.32343 2.68897 0
M  V30 7380 H 681.902 -0.581475 1.51098 0
M  V30 7381 H 683.894 -3.66251 1.7217 0
M  V30 7382 H 682.464 -2.99508 0.895181 0
M  V30 7383 H 681.684 -2.2205 3.25711 0
M  V30 7384 H 682.972 -3.24013 3.92292 0
M  V30 7385 H 682.37 -5.42332 1.60913 0
M  V30 7386 H 680.927 -6.12855 2.21928 0
M  V30 7387 N 684.36 -1.4356 -0.65026 0
M  V30 7388 C 685.585 -1.48995 -1.44275 0
M  V30 7389 C 686.01 -0.109954 -1.87778 0
M  V30 7390 O 685.368 0.896926 -1.57559 0
M  V30 7391 C 685.416 -2.44341 -2.65198 0
M  V30 7392 O 684.52 -1.93172 -3.6436 0
M  V30 7393 H 683.861 -0.503852 -0.432469 0
M  V30 7394 H 686.391 -1.88504 -0.795446 0
M  V30 7395 H 686.401 -2.61743 -3.12977 0
M  V30 7396 H 685.076 -3.44588 -2.32877 0
M  V30 7397 H 683.653 -1.85445 -3.23519 0
M  V30 7398 N 685.838 0.888903 -1.30139 0
M  V30 7399 C 687.084 1.6428 -1.18912 0
M  V30 7400 C 687.417 1.92499 0.256477 0
M  V30 7401 O 686.692 1.54312 1.18397 0
M  V30 7402 C 686.975 2.9851 -2.01405 0
M  V30 7403 C 686.828 2.77288 -3.54163 0
M  V30 7404 C 688.147 3.99383 -1.84882 0
M  V30 7405 H 685.266 0.596148 -0.433333 0
M  V30 7406 H 687.908 1.0289 -1.5973 0
M  V30 7407 H 686.058 3.50907 -1.66722 0
M  V30 7408 H 687.73 2.31709 -3.98884 0
M  V30 7409 H 685.973 2.11867 -3.78543 0
M  V30 7410 H 686.644 3.72717 -4.07168 0
M  V30 7411 H 689.12 3.56132 -2.15196 0
M  V30 7412 H 687.996 4.91222 -2.44934 0
M  V30 7413 H 688.257 4.34674 -0.806902 0
M  V30 7414 N 687.317 1.12792 1.10072 0
M  V30 7415 C 688.28 0.802264 2.14701 0
M  V30 7416 C 689.28 -0.18515 1.59731 0
M  V30 7417 O 690.47 0.041109 1.74151 0
M  V30 7418 C 687.602 0.19285 3.40354 0
M  V30 7419 H 688.795 1.72932 2.45019 0
M  V30 7420 H 686.348 0.931662 1.25498 0
M  V30 7421 H 687.083 -0.743748 3.15656 0
M  V30 7422 H 686.868 0.903827 3.81541 0
M  V30 7423 H 688.358 -0.0183704 4.17596 0
M  V30 7424 N 688.795 -1.27931 0.920396 0
M  V30 7425 C 690.02 -1.99343 0.572478 0
M  V30 7426 C 690.445 -1.68267 -0.840696 0
M  V30 7427 O 689.803 -0.918805 -1.56294 0
M  V30 7428 C 689.851 -3.51698 0.796284 0
M  V30 7429 O 688.955 -4.12157 -0.141602 0
M  V30 7430 H 688.296 -0.626065 0.221221 0
M  V30 7431 H 690.826 -1.62921 1.23765 0
M  V30 7432 H 690.836 -4.01793 0.708984 0
M  V30 7433 H 689.511 -3.73649 1.82644 0
M  V30 7434 H 688.088 -3.729 -0.005007 0
M  V30 7435 N 690.273 -0.685099 -1.4193 0
M  V30 7436 C 691.503 -0.220052 -2.05425 0
M  V30 7437 C 691.911 1.13185 -1.51611 0
M  V30 7438 O 691.254 1.71631 -0.654875 0
M  V30 7439 C 691.316 -0.0888364 -3.5939 0
M  V30 7440 C 690.98 -1.37109 -4.35947 0
M  V30 7441 C 691.977 -2.30675 -4.65924 0
M  V30 7442 C 689.662 -1.62155 -4.75406 0
M  V30 7443 C 691.656 -3.47556 -5.34306 0
M  V30 7444 C 689.343 -2.79324 -5.43527 0
M  V30 7445 C 690.341 -3.71848 -5.72903 0
M  V30 7446 O 690.029 -4.86966 -6.39624 0
M  V30 7447 H 689.761 -0.102165 -0.668235 0
M  V30 7448 H 692.315 -0.935194 -1.82875 0
M  V30 7449 H 690.545 0.681981 -3.80639 0
M  V30 7450 H 692.234 0.337669 -4.04493 0
M  V30 7451 H 693 -2.12579 -4.3593 0
M  V30 7452 H 688.879 -0.910053 -4.51928 0
M  V30 7453 H 692.423 -4.19794 -5.57153 0
M  V30 7454 H 688.32 -2.97342 -5.72938 0
M  V30 7455 H 689.088 -4.86644 -6.58118 0
M  V30 7456 N 691.751 1.51645 -0.429126 0
M  V30 7457 C 692.981 2.06133 0.138793 0
M  V30 7458 C 693.389 1.29735 1.37716 0
M  V30 7459 O 692.732 0.347955 1.80375 0
M  V30 7460 C 692.794 3.55504 0.534493 0
M  V30 7461 C 692.458 4.53098 -0.595917 0
M  V30 7462 C 693.455 4.98815 -1.46558 0
M  V30 7463 C 691.14 4.96296 -0.774309 0
M  V30 7464 C 693.134 5.86394 -2.4984 0
M  V30 7465 C 690.821 5.83667 -1.81042 0
M  V30 7466 C 691.819 6.28613 -2.67086 0
M  V30 7467 O 691.507 7.14251 -3.68919 0
M  V30 7468 H 691.239 0.675833 0.0150263 0
M  V30 7469 H 693.793 1.96301 -0.604584 0
M  V30 7470 H 692.023 3.63092 1.33045 0
M  V30 7471 H 693.712 3.92545 1.03262 0
M  V30 7472 H 694.478 4.66143 -1.33925 0
M  V30 7473 H 690.357 4.60859 -0.114178 0
M  V30 7474 H 693.901 6.21398 -3.17034 0
M  V30 7475 H 689.798 6.15753 -1.93698 0
M  V30 7476 H 690.566 7.3241 -3.65402 0
M  V30 7477 N 693.229 0.160201 1.56784 0
M  V30 7478 C 694.64 -0.358417 1.83227 0
M  V30 7479 C 694.991 -1.63831 1.07952 0
M  V30 7480 O 694.116 -2.13885 0.328995 0
M  V30 7481 C 694.711 -0.657058 3.32368 0
M  V30 7482 C 693.27 -1.12015 3.59346 0
M  V30 7483 C 692.417 -0.15015 2.76893 0
M  V30 7484 H 695.368 0.384669 1.53967 0
M  V30 7485 H 695.389 -1.51033 3.49241 0
M  V30 7486 H 694.901 0.274647 3.87127 0
M  V30 7487 H 693.002 -2.06734 3.09987 0
M  V30 7488 H 693.115 -1.037 4.67743 0
M  V30 7489 H 691.479 -0.645361 2.46388 0
M  V30 7490 H 692.262 0.775379 3.34429 0
M  V30 7491 N 694.707 -1.5719 -0.113559 0
M  V30 7492 C 695.637 -2.03772 -1.14013 0
M  V30 7493 C 696.618 -0.923176 -1.42869 0
M  V30 7494 O 697.803 -1.19325 -1.53216 0
M  V30 7495 C 694.933 -2.44663 -2.4649 0
M  V30 7496 C 693.887 -3.59612 -2.32085 0
M  V30 7497 C 693.213 -3.8642 -3.69573 0
M  V30 7498 C 694.513 -4.91149 -1.7768 0
M  V30 7499 H 696.207 -2.89785 -0.752665 0
M  V30 7500 H 693.753 -1.39412 -0.360609 0
M  V30 7501 H 695.706 -2.75857 -3.18561 0
M  V30 7502 H 694.43 -1.55628 -2.87137 0
M  V30 7503 H 693.089 -3.28636 -1.62461 0
M  V30 7504 H 692.737 -2.94581 -4.07715 0
M  V30 7505 H 692.437 -4.63797 -3.60786 0
M  V30 7506 H 693.961 -4.2007 -4.4314 0
M  V30 7507 H 695.375 -5.20843 -2.39574 0
M  V30 7508 H 693.772 -5.72562 -1.79701 0
M  V30 7509 H 694.842 -4.79301 -0.734776 0
M  V30 7510 N 696.185 0.383891 -1.52853 0
M  V30 7511 C 697.117 1.48889 -1.74255 0
M  V30 7512 C 698.13 1.50405 -0.623063 0
M  V30 7513 O 699.319 1.54215 -0.898887 0
M  V30 7514 C 696.419 2.87721 -1.79081 0
M  V30 7515 C 695.592 3.10111 -3.08464 0
M  V30 7516 C 694.651 4.28954 -3.0477 0
M  V30 7517 O 693.677 4.25012 -3.78621 0
M  V30 7518 N 694.879 5.35411 -2.24311 0
M  V30 7519 H 697.644 1.30915 -2.69595 0
M  V30 7520 H 695.205 0.573454 -1.51404 0
M  V30 7521 H 697.197 3.65333 -1.7411 0
M  V30 7522 H 695.767 2.99029 -0.911052 0
M  V30 7523 H 694.987 2.20319 -3.26884 0
M  V30 7524 H 696.275 3.21928 -3.94005 0
M  V30 7525 H 695.673 5.41471 -1.63787 0
M  V30 7526 H 694.23 6.1167 -2.25175 0
M  V30 7527 N 697.663 1.43903 0.642637 0
M  V30 7528 C 699.079 1.27536 0.959519 0
M  V30 7529 C 699.279 0.202751 2.00477 0
M  V30 7530 O 698.335 -0.415256 2.49062 0
M  V30 7531 C 699.648 2.6432 1.43372 0
M  V30 7532 C 701.196 2.71937 1.54981 0
M  V30 7533 C 701.671 4.09164 2.05789 0
M  V30 7534 N 703.162 4.11282 2.13076 0
M  V30 7535 C 703.897 5.14303 2.53534 0
M  V30 7536 N 703.393 6.27693 2.93212 0
M  V30 7537 N 705.186 5.01657 2.53567 0
M  V30 7538 H 697.337 2.12344 -0.0488376 0
M  V30 7539 H 699.6 0.947124 0.0407559 0
M  V30 7540 H 699.306 3.43826 0.740048 0
M  V30 7541 H 699.18 2.90432 2.40685 0
M  V30 7542 H 701.567 1.92757 2.23448 0
M  V30 7543 H 701.648 2.49578 0.560739 0
M  V30 7544 H 701.292 4.88815 1.37921 0
M  V30 7545 H 701.222 4.28893 3.05546 0
M  V30 7546 H 703.713 3.2944 1.85143 0
M  V30 7547 H 704.026 7.02125 3.22863 0
M  V30 7548 H 702.371 6.31149 2.90991 0
M  V30 7549 H 705.562 4.12134 2.21952 0
M  V30 7550 H 705.735 5.82072 2.84774 0
M  V30 7551 N 699.141 -0.881989 1.30609 0
M  V30 7552 C 700.073 -1.99375 1.13058 0
M  V30 7553 C 701.086 -1.62636 0.0729879 0
M  V30 7554 O 702.275 -1.75621 0.319301 0
M  V30 7555 C 699.375 -3.31536 0.702651 0
M  V30 7556 C 698.548 -3.96693 1.84265 0
M  V30 7557 C 697.607 -5.07158 1.40277 0
M  V30 7558 O 696.633 -5.28628 2.11048 0
M  V30 7559 N 697.835 -5.79808 0.283449 0
M  V30 7560 H 700.6 -2.14981 2.08814 0
M  V30 7561 H 698.161 -1.05526 1.22784 0
M  V30 7562 H 700.153 -4.02804 0.391331 0
M  V30 7563 H 698.723 -3.12175 -0.162954 0
M  V30 7564 H 697.943 -3.1856 2.32192 0
M  V30 7565 H 699.231 -4.36964 2.60653 0
M  V30 7566 H 698.629 -5.64871 -0.306189 0
M  V30 7567 H 697.186 -6.51792 0.0315985 0
M  V30 7568 N 700.619 -1.13374 -1.09472 0
M  V30 7569 C 701.549 -0.833268 -2.18126 0
M  V30 7570 C 702.53 0.207169 -1.68834 0
M  V30 7571 O 703.715 0.0662012 -1.94087 0
M  V30 7572 C 700.845 -0.297979 -3.46019 0
M  V30 7573 C 699.799 -1.27261 -4.08642 0
M  V30 7574 C 699.125 -0.597104 -5.31356 0
M  V30 7575 C 700.425 -2.63095 -4.51197 0
M  V30 7576 H 702.119 -1.74182 -2.43518 0
M  V30 7577 H 699.665 -0.838921 -1.17039 0
M  V30 7578 H 701.618 -0.0754444 -4.21332 0
M  V30 7579 H 700.342 0.645959 -3.20148 0
M  V30 7580 H 699.001 -1.48113 -3.35348 0
M  V30 7581 H 698.649 0.352293 -5.01765 0
M  V30 7582 H 698.349 -1.24734 -5.74208 0
M  V30 7583 H 699.873 -0.38384 -6.09392 0
M  V30 7584 H 701.287 -2.46214 -5.17737 0
M  V30 7585 H 699.684 -3.2429 -5.04932 0
M  V30 7586 H 700.754 -3.20793 -3.6362 0
M  V30 7587 N 702.098 1.27442 -0.927168 0
M  V30 7588 C 703.045 2.26863 -0.424459 0
M  V30 7589 C 704.015 1.5813 0.508346 0
M  V30 7590 O 705.2 1.85946 0.42762 0
M  V30 7591 C 702.34 3.43639 0.31718 0
M  V30 7592 C 701.453 4.27087 -0.649675 0
M  V30 7593 C 700.588 5.31082 0.111753 0
M  V30 7594 C 699.627 6.062 -0.847843 0
M  V30 7595 N 698.764 7.01999 -0.119074 0
M  V30 7596 H 703.604 2.69239 -1.27728 0
M  V30 7597 H 701.141 1.32394 -0.641106 0
M  V30 7598 H 703.099 4.10155 0.763486 0
M  V30 7599 H 701.729 3.02217 1.13424 0
M  V30 7600 H 700.781 3.60491 -1.21451 0
M  V30 7601 H 702.093 4.79242 -1.38307 0
M  V30 7602 H 701.247 6.03544 0.618 0
M  V30 7603 H 699.986 4.7973 0.878114 0
M  V30 7604 H 698.991 5.32577 -1.36534 0
M  V30 7605 H 700.216 6.59642 -1.61398 0
M  V30 7606 H 698.162 6.52977 0.629051 0
M  V30 7607 H 698.079 7.5184 -0.792046 0
M  V30 7608 H 699.347 7.78638 0.366537 0
M  V30 7609 N 703.576 0.692616 1.41565 0
M  V30 7610 C 704.524 0.0139952 2.32596 0
M  V30 7611 C 705.518 -0.771691 1.50802 0
M  V30 7612 O 706.724 -0.677646 1.66757 0
M  V30 7613 H 703.099 -0.0142745 0.751865 0
M  V30 7614 H 705.07 0.798851 2.87508 0
M  V30 7615 C 703.819 -0.910602 3.35564 0
M  V30 7616 H 703.142 -0.315446 3.98554 0
M  V30 7617 H 704.582 -1.3538 4.01806 0
M  V30 7618 C 703.041 -2.02539 2.6922 0
M  V30 7619 O 703.571 -3.11386 2.53775 0
M  V30 7620 N 701.777 -1.80227 2.27962 0
M  V30 7621 H 701.324 -0.917054 2.40724 0
M  V30 7622 H 701.282 -2.55001 1.83907 0
M  V30 7623 N 705.054 -1.51416 0.437162 0
M  V30 7624 C 706.303 -2.01275 -0.130865 0
M  V30 7625 C 706.616 -1.32593 -1.438 0
M  V30 7626 O 707.822 -1.7342 -2.08897 0
M  V30 7627 C 706.278 -3.5878 -0.283763 0
M  V30 7628 C 705.886 -4.36399 1.01293 0
M  V30 7629 C 707.63 -4.16786 -0.805569 0
M  V30 7630 C 705.537 -5.85608 0.825687 0
M  V30 7631 H 704.467 -0.752157 -0.0526818 0
M  V30 7632 H 707.118 -1.74524 0.566896 0
M  V30 7633 H 705.5 -3.81976 -1.04452 0
M  V30 7634 H 706.674 -4.24948 1.78201 0
M  V30 7635 H 704.989 -3.89843 1.46326 0
M  V30 7636 H 707.586 -5.25972 -0.962146 0
M  V30 7637 H 707.929 -3.75949 -1.78796 0
M  V30 7638 H 708.462 -3.97666 -0.103125 0
M  V30 7639 H 705.201 -6.30857 1.78045 0
M  V30 7640 H 704.721 -5.99723 0.0964029 0
M  V30 7641 H 706.4 -6.45226 0.478815 0
M  V30 7642 N 706.532 -0.168513 -1.56696 0
M  V30 7643 C 707.464 0.794249 -2.14998 0
M  V30 7644 C 708.477 1.1957 -1.10485 0
M  V30 7645 O 709.666 1.13604 -1.37682 0
M  V30 7646 C 706.766 2.08018 -2.67547 0
M  V30 7647 C 705.939 1.84274 -3.96689 0
M  V30 7648 C 704.998 2.97059 -4.3433 0
M  V30 7649 O 704.024 2.67815 -5.02259 0
M  V30 7650 N 705.226 4.24775 -3.9566 0
M  V30 7651 H 707.991 0.295832 -2.98236 0
M  V30 7652 H 705.552 0.0143611 -1.61894 0
M  V30 7653 H 707.544 2.82559 -2.89729 0
M  V30 7654 H 706.114 2.49059 -1.88914 0
M  V30 7655 H 705.334 0.936528 -3.82914 0
M  V30 7656 H 706.622 1.65773 -4.81037 0
M  V30 7657 H 706.02 4.51395 -3.40968 0
M  V30 7658 H 704.577 4.96027 -4.22848 0
M  V30 7659 N 708.01 1.57248 0.105221 0
M  V30 7660 C 709.287 1.76566 0.841647 0
M  V30 7661 C 709.667 0.747566 1.9742 0
M  V30 7662 O 709.015 -0.225886 2.27381 0
M  V30 7663 C 709.225 3.22016 1.3456 0
M  V30 7664 C 710.573 3.84911 1.79244 0
M  V30 7665 O 711.597 3.25703 1.44207 0
M  V30 7666 O 710.456 4.89008 2.43995 0
M  V30 7667 H 707.55 0.723443 0.400698 0
M  V30 7668 H 710.096 1.69472 0.0878893 0
M  V30 7669 H 708.868 3.87644 0.533685 0
M  V30 7670 H 708.491 3.33703 2.16167 0
M  V30 7671 N 709.488 -0.375779 1.53054 0
M  V30 7672 C 710.737 -1.11674 1.67964 0
M  V30 7673 C 711.05 -1.90755 0.432655 0
M  V30 7674 O 712.256 -2.67538 0.462109 0
M  V30 7675 C 710.712 -2.0344 2.96884 0
M  V30 7676 C 710.32 -1.29719 4.28809 0
M  V30 7677 C 712.064 -2.7759 3.2116 0
M  V30 7678 C 709.971 -2.20327 5.48826 0
M  V30 7679 H 708.901 -0.420597 0.625791 0
M  V30 7680 H 711.552 -0.378499 1.79554 0
M  V30 7681 H 709.934 -2.80953 2.79072 0
M  V30 7682 H 711.108 -0.573394 4.57219 0
M  V30 7683 H 709.423 -0.674735 4.10897 0
M  V30 7684 H 712.02 -3.4559 4.0801 0
M  V30 7685 H 712.363 -3.42399 2.36789 0
M  V30 7686 H 712.896 -2.07164 3.396 0
M  V30 7687 H 709.635 -1.60113 6.35645 0
M  V30 7688 H 709.155 -2.90585 5.2471 0
M  V30 7689 H 710.834 -2.80116 5.83219 0
M  V30 7690 N 710.966 -1.44241 -0.634997 0
M  V30 7691 C 712.191 -1.50516 -1.42687 0
M  V30 7692 C 712.616 -0.129864 -1.87651 0
M  V30 7693 O 711.974 0.880164 -1.58502 0
M  V30 7694 C 712.022 -2.4714 -2.62591 0
M  V30 7695 O 711.126 -1.97025 -3.62291 0
M  V30 7696 H 710.467 -0.50841 -0.427101 0
M  V30 7697 H 712.997 -1.89337 -0.775408 0
M  V30 7698 H 713.007 -2.65048 -3.10183 0
M  V30 7699 H 711.682 -3.47039 -2.29209 0
M  V30 7700 H 710.259 -1.88866 -3.21534 0
M  V30 7701 N 712.444 0.87505 -1.31075 0
M  V30 7702 C 713.69 1.63006 -1.21657 0
M  V30 7703 C 714.045 1.91088 0.224306 0
M  V30 7704 O 713.338 1.52779 1.15625 0
M  V30 7705 C 713.532 2.96948 -1.98888 0
M  V30 7706 C 713.361 2.81944 -3.50339 0
M  V30 7707 C 712.131 2.814 -4.19693 0
M  V30 7708 C 714.329 2.57171 -4.45385 0
M  V30 7709 N 712.311 2.57392 -5.57335 0
M  V30 7710 C 713.682 2.42379 -5.7066 0
M  V30 7711 C 715.737 2.42474 -4.34868 0
M  V30 7712 C 714.44 2.14385 -6.86609 0
M  V30 7713 C 716.466 2.15868 -5.50595 0
M  V30 7714 C 715.828 2.0186 -6.74857 0
M  V30 7715 H 711.927 0.601043 -0.500271 0
M  V30 7716 H 714.511 1.03033 -1.65204 0
M  V30 7717 H 712.682 3.54936 -1.57718 0
M  V30 7718 H 714.414 3.61702 -1.81531 0
M  V30 7719 H 711.169 2.93596 -3.71616 0
M  V30 7720 H 711.593 2.48373 -6.29794 0
M  V30 7721 H 716.235 2.52035 -3.39468 0
M  V30 7722 H 713.953 2.03562 -7.82041 0
M  V30 7723 H 717.539 2.05304 -5.44372 0
M  V30 7724 H 716.419 1.81562 -7.62892 0
M  V30 7725 N 713.922 1.13953 1.08869 0
M  V30 7726 C 714.872 0.790812 2.13846 0
M  V30 7727 C 715.856 -0.217819 1.59419 0
M  V30 7728 O 717.048 -0.0208723 1.76988 0
M  V30 7729 C 714.177 0.26479 3.42277 0
M  V30 7730 C 713.263 1.30267 4.03598 0
M  V30 7731 N 713.654 2.50535 4.39393 0
M  V30 7732 C 711.952 1.15178 4.30871 0
M  V30 7733 C 712.653 3.16938 4.87776 0
M  V30 7734 N 711.629 2.44349 4.85587 0
M  V30 7735 H 715.431 1.70577 2.39334 0
M  V30 7736 H 712.945 1.02268 1.26154 0
M  V30 7737 H 714.942 -0.00330398 4.169 0
M  V30 7738 H 713.602 -0.644419 3.18241 0
M  V30 7739 H 714.613 2.87798 4.30572 0
M  V30 7740 H 711.29 0.301204 4.16412 0
M  V30 7741 H 712.68 4.19453 5.2489 0
M  V30 7742 N 715.4 -1.26948 0.933913 0
M  V30 7743 C 716.628 -1.98186 0.59414 0
M  V30 7744 C 717.043 -1.69614 -0.829257 0
M  V30 7745 O 716.4 -0.960213 -1.55197 0
M  V30 7746 C 716.451 -3.52123 0.818026 0
M  V30 7747 O 716.172 -3.79698 2.18543 0
M  V30 7748 C 717.673 -4.40608 0.48781 0
M  V30 7749 H 714.893 -0.632305 0.224569 0
M  V30 7750 H 717.437 -1.61646 1.25263 0
M  V30 7751 H 715.592 -3.86851 0.206246 0
M  V30 7752 H 716.006 -4.7426 2.24005 0
M  V30 7753 H 717.48 -5.47606 0.695126 0
M  V30 7754 H 717.957 -4.35394 -0.576913 0
M  V30 7755 H 718.563 -4.11411 1.078 0
M  V30 7756 N 716.879 -0.700114 -1.41195 0
M  V30 7757 C 718.128 -0.230082 -2.00383 0
M  V30 7758 C 718.441 1.17857 -1.56106 0
M  V30 7759 O 719.647 1.74631 -2.07885 0
M  V30 7760 C 718.103 -0.360447 -3.5809 0
M  V30 7761 C 717.711 -1.77475 -4.11347 0
M  V30 7762 C 719.455 0.0495799 -4.24471 0
M  V30 7763 C 717.362 -1.85653 -5.61504 0
M  V30 7764 H 716.292 -0.0822633 -0.749499 0
M  V30 7765 H 718.943 -0.868969 -1.6162 0
M  V30 7766 H 717.325 0.346768 -3.94479 0
M  V30 7767 H 718.499 -2.51109 -3.86369 0
M  V30 7768 H 716.814 -2.13486 -3.57509 0
M  V30 7769 H 719.411 0.00898219 -5.34699 0
M  V30 7770 H 719.754 1.08904 -4.01803 0
M  V30 7771 H 720.287 -0.607521 -3.93134 0
M  V30 7772 H 717.026 -2.87667 -5.89006 0
M  V30 7773 H 716.546 -1.1641 -5.88395 0
M  V30 7774 H 718.225 -1.62151 -6.26351 0
M  V30 7775 N 718.357 1.51182 -0.445186 0
M  V30 7776 C 719.305 2.29531 0.376597 0
M  V30 7777 C 720.299 1.35711 1.01385 0
M  V30 7778 O 721.505 1.53018 0.947922 0
M  V30 7779 H 717.88 0.738803 0.140267 0
M  V30 7780 H 719.851 2.96838 -0.304958 0
M  V30 7781 C 718.6 3.1552 1.4609 0
M  V30 7782 H 717.923 3.87605 0.979912 0
M  V30 7783 H 719.363 3.73384 2.009 0
M  V30 7784 C 717.822 2.31406 2.44852 0
M  V30 7785 O 718.352 1.97912 3.49562 0
M  V30 7786 N 716.558 1.94478 2.15932 0
M  V30 7787 H 716.105 2.21917 1.30808 0
M  V30 7788 H 716.063 1.38498 2.82251 0
M  V30 7789 N 719.835 0.176821 1.56605 0
M  V30 7790 C 720.783 -0.768159 2.1955 0
M  V30 7791 C 721.777 -1.23343 1.16116 0
M  V30 7792 O 722.983 -1.19844 1.34303 0
M  V30 7793 H 719.358 -0.266013 0.703378 0
M  V30 7794 H 721.329 -0.213374 2.97636 0
M  V30 7795 C 720.078 -1.98492 2.85475 0
M  V30 7796 H 719.401 -1.63595 3.64797 0
M  V30 7797 H 720.841 -2.62489 3.3298 0
M  V30 7798 C 719.3 -2.81207 1.85538 0
M  V30 7799 O 719.83 -3.7854 1.34427 0
M  V30 7800 N 718.036 -2.46331 1.54173 0
M  V30 7801 H 717.583 -1.67241 1.95929 0
M  V30 7802 H 717.541 -3.01961 0.875595 0
M  V30 7803 N 721.313 -1.57302 -0.09688 0
M  V30 7804 C 722.541 -1.90202 -0.814295 0
M  V30 7805 C 722.956 -0.770344 -1.72369 0
M  V30 7806 O 722.313 0.257764 -1.8067 0
M  V30 7807 C 722.364 -3.22708 -1.62916 0
M  V30 7808 O 722.085 -4.31522 -0.756343 0
M  V30 7809 C 723.586 -3.69459 -2.44979 0
M  V30 7810 H 720.806 -0.629275 -0.232925 0
M  V30 7811 H 723.35 -2.04364 -0.0746482 0
M  V30 7812 H 721.505 -3.1015 -2.32133 0
M  V30 7813 H 721.919 -5.07604 -1.32054 0
M  V30 7814 H 723.393 -4.64875 -2.9765 0
M  V30 7815 H 723.87 -2.97211 -3.23361 0
M  V30 7816 H 724.476 -3.84879 -1.80964 0
M  V30 7817 N 722.791 0.367657 -1.53252 0
M  V30 7818 C 724.04 1.10782 -1.68554 0
M  V30 7819 C 724.353 1.90523 -0.442765 0
M  V30 7820 O 725.559 2.6729 -0.47629 0
M  V30 7821 C 724.015 2.01863 -2.97959 0
M  V30 7822 C 723.623 1.27443 -4.29491 0
M  V30 7823 C 725.367 2.75883 -3.22628 0
M  V30 7824 C 723.274 2.17414 -5.49987 0
M  V30 7825 H 722.204 0.417272 -0.628013 0
M  V30 7826 H 724.855 0.368971 -1.79752 0
M  V30 7827 H 723.237 2.7947 -2.80558 0
M  V30 7828 H 724.411 0.549138 -4.57516 0
M  V30 7829 H 722.726 0.652935 -4.11249 0
M  V30 7830 H 725.323 3.43421 -4.09837 0
M  V30 7831 H 725.666 3.41138 -2.38601 0
M  V30 7832 H 726.199 2.0536 -3.40693 0
M  V30 7833 H 722.938 1.5674 -6.36485 0
M  V30 7834 H 722.458 2.87799 -5.26243 0
M  V30 7835 H 724.137 2.77019 -5.84696 0
M  V30 7836 N 724.269 1.44576 0.627338 0
M  V30 7837 C 725.68 1.42266 1.20902 0
M  V30 7838 C 726.031 0.139964 1.957 0
M  V30 7839 O 725.156 -0.759489 2.02634 0
M  V30 7840 C 725.751 2.57727 2.19914 0
M  V30 7841 C 724.31 2.58599 2.73502 0
M  V30 7842 C 723.457 2.34145 1.48564 0
M  V30 7843 H 726.408 1.53102 0.417791 0
M  V30 7844 H 726.429 2.30697 3.02588 0
M  V30 7845 H 725.941 3.51068 1.65447 0
M  V30 7846 H 724.042 1.6921 3.31962 0
M  V30 7847 H 724.155 3.57205 3.19282 0
M  V30 7848 H 722.519 1.83313 1.76829 0
M  V30 7849 H 723.302 3.29606 0.959935 0
M  V30 7850 N 725.747 -0.868086 1.31537 0
M  V30 7851 C 726.68 -1.97871 1.13676 0
M  V30 7852 C 727.658 -1.62551 0.0397589 0
M  V30 7853 O 728.842 -1.87473 0.196539 0
M  V30 7854 C 725.969 -3.30577 0.73734 0
M  V30 7855 C 725.015 -3.8488 1.83765 0
M  V30 7856 S 725.848 -4.10106 3.44345 0
M  V30 7857 C 727.004 -5.45806 3.06344 0
M  V30 7858 H 727.237 -2.12719 2.07697 0
M  V30 7859 H 724.77 -1.01849 1.16044 0
M  V30 7860 H 726.728 -4.07274 0.513641 0
M  V30 7861 H 725.389 -3.13562 -0.183787 0
M  V30 7862 H 724.582 -4.80821 1.51085 0
M  V30 7863 H 724.184 -3.14981 2.01651 0
M  V30 7864 H 726.476 -6.27535 2.55354 0
M  V30 7865 H 727.419 -5.83437 4.01257 0
M  V30 7866 H 727.827 -5.0917 2.43734 0
M  V30 7867 N 727.225 -1.14528 -1.08264 0
M  V30 7868 C 728.45 -0.938381 -1.84957 0
M  V30 7869 C 728.875 0.508044 -1.81109 0
M  V30 7870 O 728.233 1.36146 -1.19724 0
M  V30 7871 C 728.281 -1.44568 -3.30352 0
M  V30 7872 O 727.385 -0.638745 -4.07423 0
M  V30 7873 H 726.726 -0.335394 -0.573068 0
M  V30 7874 H 729.256 -1.52287 -1.36637 0
M  V30 7875 H 729.266 -1.45449 -3.81194 0
M  V30 7876 H 727.941 -2.49876 -3.32468 0
M  V30 7877 H 726.518 -0.698801 -3.66294 0
M  V30 7878 N 728.703 1.26451 -0.940633 0
M  V30 7879 C 729.636 2.24771 -0.394094 0
M  V30 7880 C 730.614 1.54169 0.516781 0
M  V30 7881 O 731.798 1.82942 0.454352 0
M  V30 7882 C 728.925 3.3591 0.433807 0
M  V30 7883 C 727.971 4.24472 -0.415464 0
M  V30 7884 S 728.804 5.0293 -1.83907 0
M  V30 7885 C 729.96 6.17546 -1.01921 0
M  V30 7886 H 730.193 2.70782 -1.22737 0
M  V30 7887 H 727.726 1.35308 -0.743709 0
M  V30 7888 H 729.684 4.00387 0.905576 0
M  V30 7889 H 728.345 2.88512 1.24175 0
M  V30 7890 H 727.538 5.03525 0.218833 0
M  V30 7891 H 727.14 3.64857 -0.821897 0
M  V30 7892 H 729.432 6.76996 -0.261227 0
M  V30 7893 H 730.375 6.8528 -1.78318 0
M  V30 7894 H 730.783 5.6176 -0.555511 0
M  V30 7895 N 730.181 0.707592 1.40822 0
M  V30 7896 C 731.421 0.247986 2.0289 0
M  V30 7897 C 731.785 -1.13484 1.54872 0
M  V30 7898 O 732.986 -1.69098 2.08948 0
M  V30 7899 C 731.257 0.316326 3.55997 0
M  V30 7900 S 732.816 -0.0674698 4.38748 0
M  V30 7901 H 729.634 0.09895 0.704081 0
M  V30 7902 H 732.236 0.928039 1.72069 0
M  V30 7903 H 730.94 1.32453 3.88438 0
M  V30 7904 H 730.471 -0.382474 3.91536 0
M  V30 7905 H 732.486 -1.29182 4.79089 0
M  V30 7906 N 731.66 -1.50943 0.453197 0
M  V30 7907 C 732.885 -2.07116 -0.108463 0
M  V30 7908 C 733.31 -1.31681 -1.3432 0
M  V30 7909 O 732.668 -0.359256 -1.77705 0
M  V30 7910 C 732.716 -3.58447 -0.393424 0
M  V30 7911 O 731.82 -3.85038 -1.47714 0
M  V30 7912 H 731.161 -0.66398 0.0050993 0
M  V30 7913 H 733.691 -1.94362 0.639095 0
M  V30 7914 H 733.701 -4.02961 -0.639222 0
M  V30 7915 H 732.376 -4.12774 0.508946 0
M  V30 7916 H 730.953 -3.52376 -1.22006 0
M  V30 7917 N 733.138 -0.185124 -1.56509 0
M  V30 7918 C 734.085 0.739729 -2.18624 0
M  V30 7919 C 735.055 1.217 -1.13042 0
M  V30 7920 O 736.24 1.28268 -1.41251 0
M  V30 7921 C 733.38 1.95787 -2.84186 0
M  V30 7922 C 732.493 1.52289 -4.04267 0
M  V30 7923 C 731.628 2.69576 -4.57714 0
M  V30 7924 C 730.667 2.22636 -5.70175 0
M  V30 7925 N 729.804 3.33065 -6.18071 0
M  V30 7926 H 734.644 0.203269 -2.97306 0
M  V30 7927 H 732.181 0.0885946 -1.46833 0
M  V30 7928 H 734.139 2.67253 -3.20361 0
M  V30 7929 H 732.769 2.4678 -2.08085 0
M  V30 7930 H 731.821 0.704458 -3.7382 0
M  V30 7931 H 733.133 1.13843 -4.85635 0
M  V30 7932 H 732.287 3.4918 -4.96143 0
M  V30 7933 H 731.026 3.1129 -3.75433 0
M  V30 7934 H 730.031 1.41483 -5.31284 0
M  V30 7935 H 731.256 1.81964 -6.54267 0
M  V30 7936 H 729.202 3.74328 -5.38715 0
M  V30 7937 H 729.119 2.98756 -6.94464 0
M  V30 7938 H 730.387 4.12912 -6.61153 0
M  V30 7939 N 734.616 1.57351 0.0885366 0
M  V30 7940 C 736.032 1.53331 0.442916 0
M  V30 7941 C 736.232 0.902831 1.80142 0
M  V30 7942 O 735.288 0.498147 2.47537 0
M  V30 7943 C 736.601 2.98036 0.399372 0
M  V30 7944 C 738.149 3.09286 0.480759 0
M  V30 7945 C 738.624 4.5561 0.467296 0
M  V30 7946 N 740.115 4.60182 0.52786 0
M  V30 7947 C 740.85 5.70857 0.539388 0
M  V30 7948 N 740.346 6.90944 0.506729 0
M  V30 7949 N 742.139 5.59051 0.584691 0
M  V30 7950 H 734.29 1.96709 -0.801215 0
M  V30 7951 H 736.553 0.899639 -0.298922 0
M  V30 7952 H 736.259 3.47656 -0.531806 0
M  V30 7953 H 736.133 3.57066 1.21589 0
M  V30 7954 H 738.52 2.5965 1.40236 0
M  V30 7955 H 738.601 2.53197 -0.364023 0
M  V30 7956 H 738.245 5.05899 -0.450384 0
M  V30 7957 H 738.175 5.09544 1.32938 0
M  V30 7958 H 740.666 3.73757 0.558028 0
M  V30 7959 H 740.979 7.71055 0.518989 0
M  V30 7960 H 739.324 6.93384 0.473675 0
M  V30 7961 H 742.515 4.64138 0.607781 0
M  V30 7962 H 742.688 6.45307 0.590206 0
M  V30 7963 N 736.094 -0.359525 1.53444 0
M  V30 7964 C 737.334 -1.11014 1.71625 0
M  V30 7965 C 737.698 -1.86376 0.46132 0
M  V30 7966 O 738.899 -2.63724 0.519908 0
M  V30 7967 C 737.17 -2.03907 2.93524 0
M  V30 7968 S 738.729 -2.86408 3.3244 0
M  V30 7969 H 735.547 -0.375352 0.603847 0
M  V30 7970 H 738.149 -0.390604 1.91558 0
M  V30 7971 H 736.853 -1.47316 3.83048 0
M  V30 7972 H 736.384 -2.80324 2.76011 0
M  V30 7973 H 738.399 -4.06241 2.84926 0
M  V30 7974 N 737.572 -1.44907 -0.619662 0
M  V30 7975 C 738.504 -1.48652 -1.74457 0
M  V30 7976 C 739.517 -0.378596 -1.58337 0
M  V30 7977 O 740.706 -0.644987 -1.6644 0
M  V30 7978 C 737.806 -1.31568 -3.12319 0
M  V30 7979 C 736.979 -2.55816 -3.54792 0
M  V30 7980 C 736.038 -2.33465 -4.71573 0
M  V30 7981 O 735.064 -3.07015 -4.79302 0
M  V30 7982 N 736.266 -1.37254 -5.6404 0
M  V30 7983 H 739.031 -2.45632 -1.71712 0
M  V30 7984 H 736.592 -1.40492 -0.804582 0
M  V30 7985 H 738.584 -1.14445 -3.88181 0
M  V30 7986 H 737.154 -0.429095 -3.09641 0
M  V30 7987 H 736.374 -2.88137 -2.69018 0
M  V30 7988 H 737.662 -3.38431 -3.79924 0
M  V30 7989 H 737.06 -0.765309 -5.60499 0
M  V30 7990 H 735.617 -1.26106 -6.39485 0
M  V30 7991 N 739.05 0.861098 -1.31996 0
M  V30 7992 C 740.275 1.65264 -1.2531 0
M  V30 7993 C 740.7 1.87265 0.177007 0
M  V30 7994 O 740.058 1.4208 1.12619 0
M  V30 7995 C 740.106 2.99284 -2.0115 0
M  V30 7996 O 739.21 3.89508 -1.3549 0
M  V30 7997 H 738.551 0.50409 -0.432192 0
M  V30 7998 H 741.081 1.07297 -1.74208 0
M  V30 7999 H 741.091 3.49154 -2.11081 0
M  V30 8000 H 739.766 2.82591 -3.05148 0
M  V30 8001 H 738.343 3.47966 -1.34066 0
M  V30 8002 N 740.528 1.15101 1.07655 0
M  V30 8003 C 741.776 0.922149 1.79836 0
M  V30 8004 C 742.097 -0.552346 1.87014 0
M  V30 8005 O 741.367 -1.40145 1.3688 0
M  V30 8006 H 739.947 0.338182 0.666064 0
M  V30 8007 H 742.609 1.45107 1.30115 0
M  V30 8008 H 741.705 1.32883 2.82398 0
M  V30 8009 N 742.006 -1.2595 0.947325 0
M  V30 8010 C 742.938 -2.25336 0.41906 0
M  V30 8011 C 743.951 -1.56135 -0.461051 0
M  V30 8012 O 745.14 -1.76438 -0.270505 0
M  V30 8013 C 742.24 -3.36334 -0.416233 0
M  V30 8014 C 741.413 -4.35088 0.449162 0
M  V30 8015 C 740.472 -5.25185 -0.326716 0
M  V30 8016 O 739.498 -5.68548 0.272374 0
M  V30 8017 N 740.7 -5.57388 -1.6217 0
M  V30 8018 H 743.465 -2.71298 1.27348 0
M  V30 8019 H 741.026 -1.39781 0.81688 0
M  V30 8020 H 743.018 -3.93564 -0.942826 0
M  V30 8021 H 741.588 -2.89819 -1.17148 0
M  V30 8022 H 740.808 -3.76841 1.15692 0
M  V30 8023 H 742.096 -4.98056 1.04008 0
M  V30 8024 H 741.494 -5.2405 -2.13046 0
M  V30 8025 H 740.051 -6.17234 -2.0944 0
M  V30 8026 N 743.484 -0.715051 -1.40445 0
M  V30 8027 C 744.431 -0.0621393 -2.30716 0
M  V30 8028 C 745.401 0.750871 -1.48159 0
M  V30 8029 O 746.586 0.714928 -1.76899 0
M  V30 8030 C 743.726 0.854036 -3.34365 0
M  V30 8031 C 742.839 0.0305565 -4.31989 0
M  V30 8032 C 741.974 0.946162 -5.22706 0
M  V30 8033 C 741.013 0.116741 -6.11989 0
M  V30 8034 N 740.15 0.987194 -6.95125 0
M  V30 8035 H 744.99 -0.83764 -2.85985 0
M  V30 8036 H 742.527 -0.424759 -1.40834 0
M  V30 8037 H 744.485 1.39946 -3.93028 0
M  V30 8038 H 743.115 1.59572 -2.806 0
M  V30 8039 H 742.167 -0.632044 -3.75112 0
M  V30 8040 H 743.479 -0.611615 -4.95036 0
M  V30 8041 H 742.633 1.56014 -5.86297 0
M  V30 8042 H 741.372 1.62216 -4.59932 0
M  V30 8043 H 740.377 -0.510176 -5.47428 0
M  V30 8044 H 741.602 -0.555742 -6.76822 0
M  V30 8045 H 739.548 1.64885 -6.3494 0
M  V30 8046 H 739.465 0.401046 -7.54936 0
M  V30 8047 H 740.733 1.58737 -7.63166 0
M  V30 8048 N 744.962 1.50701 -0.461195 0
M  V30 8049 C 745.909 2.2831 0.338094 0
M  V30 8050 C 746.879 1.32928 0.995957 0
M  V30 8051 O 748.064 1.61857 1.0103 0
M  V30 8052 C 745.204 3.14539 1.41983 0
M  V30 8053 C 744.317 4.24942 0.77773 0
M  V30 8054 C 743.452 4.98443 1.83652 0
M  V30 8055 C 742.491 6.00733 1.17413 0
M  V30 8056 N 741.628 6.6755 2.17533 0
M  V30 8057 H 746.468 2.96167 -0.330051 0
M  V30 8058 H 744.005 1.4606 -0.174611 0
M  V30 8059 H 745.963 3.62877 2.05855 0
M  V30 8060 H 744.593 2.48749 2.05727 0
M  V30 8061 H 743.645 3.80391 0.0266924 0
M  V30 8062 H 744.957 4.98151 0.254362 0
M  V30 8063 H 744.111 5.50449 2.55129 0
M  V30 8064 H 742.85 4.24917 2.39367 0
M  V30 8065 H 741.855 5.47997 0.444944 0
M  V30 8066 H 743.08 6.76227 0.624006 0
M  V30 8067 H 741.026 5.96823 2.72284 0
M  V30 8068 H 740.943 7.36603 1.70154 0
M  V30 8069 H 742.211 7.24178 2.88421 0
M  V30 8070 N 746.441 0.193421 1.56409 0
M  V30 8071 C 747.388 -0.728124 2.19014 0
M  V30 8072 C 748.358 -1.21098 1.13686 0
M  V30 8073 O 749.543 -1.27517 1.4193 0
M  V30 8074 C 746.683 -1.94277 2.8522 0
M  V30 8075 C 745.796 -1.50143 4.05069 0
M  V30 8076 C 744.931 -2.67145 4.59137 0
M  V30 8077 C 743.97 -2.19609 5.71348 0
M  V30 8078 N 743.107 -3.29782 6.19829 0
M  V30 8079 H 747.947 -0.187499 2.9741 0
M  V30 8080 H 745.484 -0.0808064 1.46878 0
M  V30 8081 H 747.442 -2.65551 3.21774 0
M  V30 8082 H 746.072 -2.45673 2.09391 0
M  V30 8083 H 745.124 -0.684624 3.74189 0
M  V30 8084 H 746.436 -1.11266 4.86232 0
M  V30 8085 H 745.59 -3.46544 4.97988 0
M  V30 8086 H 744.329 -3.09295 3.77078 0
M  V30 8087 H 743.334 -1.38664 5.32027 0
M  V30 8088 H 744.559 -1.78492 6.55223 0
M  V30 8089 H 742.505 -3.71466 5.40693 0
M  V30 8090 H 742.422 -2.95069 6.96039 0
M  V30 8091 H 743.69 -4.094 6.63334 0
M  V30 8092 N 747.919 -1.57396 -0.0801906 0
M  V30 8093 C 749.33 -1.75642 -0.633002 0
M  V30 8094 C 749.681 -0.817708 -1.78348 0
M  V30 8095 O 748.806 0.000233743 -2.164 0
M  V30 8096 C 749.401 -3.18502 -1.15507 0
M  V30 8097 C 747.96 -3.38121 -1.65381 0
M  V30 8098 C 747.107 -2.71386 -0.569661 0
M  V30 8099 H 750.058 -1.58027 0.145949 0
M  V30 8100 H 750.079 -3.22198 -2.02408 0
M  V30 8101 H 749.591 -3.86799 -0.317515 0
M  V30 8102 H 747.692 -2.74926 -2.51488 0
M  V30 8103 H 747.805 -4.46521 -1.73654 0
M  V30 8104 H 746.169 -2.33702 -1.0127 0
M  V30 8105 H 746.952 -3.42332 0.257561 0
M  V30 8106 N 749.397 0.351382 -1.53633 0
M  V30 8107 C 750.643 1.09411 -1.70754 0
M  V30 8108 C 750.976 1.88544 -0.465293 0
M  V30 8109 O 750.251 1.86923 0.537608 0
M  V30 8110 C 750.534 2.04173 -2.96623 0
M  V30 8111 C 750.387 1.28556 -4.31038 0
M  V30 8112 C 751.706 3.04102 -3.18136 0
M  V30 8113 H 748.825 0.396373 -0.621335 0
M  V30 8114 H 751.467 0.373464 -1.86293 0
M  V30 8115 H 749.617 2.65625 -2.83506 0
M  V30 8116 H 751.289 0.697786 -4.55992 0
M  V30 8117 H 749.532 0.587498 -4.29803 0
M  V30 8118 H 750.203 1.97989 -5.15271 0
M  V30 8119 H 752.679 2.5276 -3.30532 0
M  V30 8120 H 751.555 3.67616 -4.07615 0
M  V30 8121 H 751.816 3.75053 -2.34068 0
M  V30 8122 N 750.875 1.45233 0.611969 0
M  V30 8123 C 752.123 1.48727 1.36838 0
M  V30 8124 C 752.444 0.128616 1.94575 0
M  V30 8125 O 751.714 -0.84149 1.76906 0
M  V30 8126 H 750.294 0.547695 0.507976 0
M  V30 8127 H 752.956 1.81156 0.718925 0
M  V30 8128 H 752.052 2.2236 2.19003 0
M  V30 8129 N 752.353 -0.854086 1.3245 0
M  V30 8130 C 753.602 -1.60318 1.22397 0
M  V30 8131 C 753.915 -1.9444 -0.212664 0
M  V30 8132 O 755.121 -2.67991 -0.435066 0
M  V30 8133 C 753.577 -2.8909 2.1437 0
M  V30 8134 C 753.185 -2.62391 3.63119 0
M  V30 8135 C 754.929 -3.67104 2.13155 0
M  V30 8136 C 752.836 -3.87167 4.47052 0
M  V30 8137 H 751.766 -0.601586 0.454544 0
M  V30 8138 H 754.417 -0.943023 1.57415 0
M  V30 8139 H 752.799 -3.56567 1.72268 0
M  V30 8140 H 753.973 -2.03222 4.13567 0
M  V30 8141 H 752.288 -1.97706 3.66471 0
M  V30 8142 H 754.885 -4.59696 2.731 0
M  V30 8143 H 755.228 -4.00876 1.12268 0
M  V30 8144 H 755.761 -3.06533 2.5354 0
M  V30 8145 H 752.5 -3.58536 5.48755 0
M  V30 8146 H 752.02 -4.45729 4.01355 0
M  V30 8147 H 753.699 -4.549 4.60081 0
M  V30 8148 N 753.831 -1.1567 -1.07043 0
M  V30 8149 C 754.781 -0.824733 -2.12561 0
M  V30 8150 C 755.765 0.19243 -1.59745 0
M  V30 8151 O 756.957 -0.00728759 -1.76998 0
M  V30 8152 C 754.086 -0.31921 -3.41813 0
M  V30 8153 C 753.172 -1.36671 -4.01475 0
M  V30 8154 N 753.563 -2.57493 -4.35351 0
M  V30 8155 C 751.861 -1.22018 -4.28984 0
M  V30 8156 C 752.562 -3.24658 -4.82672 0
M  V30 8157 N 751.538 -2.52043 -4.81638 0
M  V30 8158 H 755.34 -1.74363 -2.3659 0
M  V30 8159 H 752.854 -1.04262 -1.24511 0
M  V30 8160 H 754.851 -0.0630216 -4.16852 0
M  V30 8161 H 753.511 0.593708 -3.19226 0
M  V30 8162 H 754.522 -2.94612 -4.25939 0
M  V30 8163 H 751.199 -0.367414 -4.1588 0
M  V30 8164 H 752.589 -4.2775 -5.1815 0
M  V30 8165 N 755.309 1.25446 -0.953992 0
M  V30 8166 C 756.555 1.9343 -0.60933 0
M  V30 8167 C 756.888 1.74542 0.851388 0
M  V30 8168 O 756.163 1.09014 1.61078 0
M  V30 8169 C 756.446 3.46844 -0.968041 0
M  V30 8170 C 756.299 3.74961 -2.48444 0
M  V30 8171 C 757.618 4.37334 -0.492641 0
M  V30 8172 H 754.737 0.702502 -0.222844 0
M  V30 8173 H 757.379 1.48076 -1.19053 0
M  V30 8174 H 755.529 3.85604 -0.473465 0
M  V30 8175 H 757.201 3.45841 -3.05273 0
M  V30 8176 H 755.444 3.20589 -2.92241 0
M  V30 8177 H 756.115 4.82246 -2.68594 0
M  V30 8178 H 758.591 4.05873 -0.916878 0
M  V30 8179 H 757.467 5.43439 -0.772331 0
M  V30 8180 H 757.728 4.37908 0.607403 0
M  V30 8181 N 756.787 0.722489 1.40064 0
M  V30 8182 C 758.027 0.269491 2.02616 0
M  V30 8183 C 758.391 -1.11835 1.56067 0
M  V30 8184 O 759.592 -1.66873 2.1073 0
M  V30 8185 C 757.863 0.354066 3.55642 0
M  V30 8186 S 759.422 -0.0209309 4.38795 0
M  V30 8187 H 756.24 0.106412 0.702992 0
M  V30 8188 H 758.842 0.946237 1.71075 0
M  V30 8189 H 757.546 1.36565 3.87012 0
M  V30 8190 H 757.077 -0.340925 3.9192 0
M  V30 8191 H 759.092 -1.24093 4.80432 0
M  V30 8192 N 758.265 -1.50454 0.469181 0
M  V30 8193 C 759.505 -2.04222 -0.0852381 0
M  V30 8194 C 759.869 -1.34357 -1.37158 0
M  V30 8195 O 761.07 -1.78669 -2.00825 0
M  V30 8196 C 759.341 -3.56403 -0.266778 0
M  V30 8197 S 760.9 -4.31811 -0.780028 0
M  V30 8198 H 757.718 -0.7108 -0.0168589 0
M  V30 8199 H 760.32 -1.8487 0.635883 0
M  V30 8200 H 759.024 -4.04807 0.67525 0
M  V30 8201 H 758.555 -3.80106 -1.01407 0
M  V30 8202 H 760.57 -4.51706 -2.05368 0
M  V30 8203 N 759.743 -0.201713 -1.56304 0
M  V30 8204 C 760.99 0.435307 -1.97766 0
M  V30 8205 C 761.318 1.61169 -1.0888 0
M  V30 8206 O 760.573 1.95272 -0.12934 0
M  V30 8207 C 760.872 0.931432 -3.45049 0
M  V30 8208 C 760.538 -0.132287 -4.50706 0
M  V30 8209 C 759.2 -0.424552 -4.79323 0
M  V30 8210 C 761.552 -0.852703 -5.14177 0
M  V30 8211 C 758.88 -1.4421 -5.68701 0
M  V30 8212 C 761.232 -1.85944 -6.04655 0
M  V30 8213 C 759.896 -2.15884 -6.31625 0
M  V30 8214 H 759.166 0.15929 -0.723676 0
M  V30 8215 H 761.813 -0.300069 -1.89134 0
M  V30 8216 H 760.118 1.7452 -3.50785 0
M  V30 8217 H 761.815 1.43383 -3.74489 0
M  V30 8218 H 758.405 0.105671 -4.2847 0
M  V30 8219 H 762.589 -0.640139 -4.92154 0
M  V30 8220 H 757.845 -1.6799 -5.87869 0
M  V30 8221 H 762.019 -2.42286 -6.52894 0
M  V30 8222 H 759.646 -2.94875 -7.0068 0
M  V30 8223 N 761.222 1.57436 0.0718424 0
M  V30 8224 C 762.132 2.07039 1.10326 0
M  V30 8225 C 763.148 0.999918 1.424 0
M  V30 8226 O 764.324 1.31462 1.52577 0
M  V30 8227 C 761.389 2.50439 2.39752 0
M  V30 8228 C 760.45 3.71784 2.14651 0
M  V30 8229 C 759.683 4.13104 3.37906 0
M  V30 8230 O 759.906 3.54298 4.47023 0
M  V30 8231 O 758.84 5.05894 3.26121 0
M  V30 8232 H 762.666 2.95239 0.711872 0
M  V30 8233 H 760.251 1.46638 0.28597 0
M  V30 8234 H 762.133 2.78876 3.15921 0
M  V30 8235 H 760.808 1.65368 2.78271 0
M  V30 8236 H 759.715 3.48431 1.36187 0
M  V30 8237 H 761.048 4.57707 1.81012 0
M  V30 8238 N 762.7 -0.34323 1.53817 0
M  V30 8239 C 763.94 -1.09188 1.72793 0
M  V30 8240 C 764.304 -1.85876 0.481062 0
M  V30 8241 O 765.505 -2.63158 0.547851 0
M  V30 8242 C 763.776 -2.00783 2.9567 0
M  V30 8243 S 765.335 -2.82866 3.35459 0
M  V30 8244 H 762.153 -0.368926 0.607795 0
M  V30 8245 H 764.755 -0.370265 1.91962 0
M  V30 8246 H 763.459 -1.43245 3.84589 0
M  V30 8247 H 762.99 -2.77381 2.78968 0
M  V30 8248 H 765.005 -4.03196 2.89218 0
M  V30 8249 N 764.178 -1.45556 -0.604258 0
M  V30 8250 C 765.427 -1.49019 -1.35928 0
M  V30 8251 C 765.74 -0.137409 -1.95117 0
M  V30 8252 O 766.946 -0.0497032 -2.71455 0
M  V30 8253 C 765.402 -2.62477 -2.46239 0
M  V30 8254 C 765.01 -4.04082 -1.93447 0
M  V30 8255 C 766.754 -2.7519 -3.23219 0
M  V30 8256 C 764.661 -5.08917 -3.0126 0
M  V30 8257 H 763.591 -0.554518 -0.510907 0
M  V30 8258 H 766.242 -1.71705 -0.647262 0
M  V30 8259 H 764.624 -2.3308 -3.2014 0
M  V30 8260 H 765.798 -4.43173 -1.26232 0
M  V30 8261 H 764.113 -3.95849 -1.29201 0
M  V30 8262 H 766.71 -3.50683 -4.0364 0
M  V30 8263 H 767.053 -1.81941 -3.74437 0
M  V30 8264 H 767.586 -3.04129 -2.56418 0
M  V30 8265 H 764.325 -6.03886 -2.54955 0
M  V30 8266 H 763.845 -4.74393 -3.67031 0
M  V30 8267 H 765.524 -5.33814 -3.65584 0
M  V30 8268 N 765.656 0.84705 -1.32902 0
M  V30 8269 C 766.933 1.58583 -1.14503 0
M  V30 8270 C 767.313 2.09075 0.291724 0
M  V30 8271 O 766.661 1.88636 1.28952 0
M  V30 8272 C 766.871 2.72605 -2.17916 0
M  V30 8273 C 768.219 3.41993 -2.51646 0
M  V30 8274 O 769.243 2.82838 -2.1652 0
M  V30 8275 O 768.102 4.48761 -3.1189 0
M  V30 8276 H 765.196 0.698756 -0.442345 0
M  V30 8277 H 767.742 0.890516 -1.44457 0
M  V30 8278 H 766.514 2.32876 -3.14459 0
M  V30 8279 H 766.137 3.49807 -1.89 0
M  V30 8280 N 767.134 1.16236 1.06428 0
M  V30 8281 C 768.374 0.95369 1.80787 0
M  V30 8282 C 768.738 -0.509495 1.85117 0
M  V30 8283 O 769.939 -0.836822 2.55442 0
M  V30 8284 C 768.21 1.56235 3.21443 0
M  V30 8285 S 769.769 1.49812 4.12434 0
M  V30 8286 H 766.587 0.343004 0.622792 0
M  V30 8287 H 769.189 1.47957 1.27785 0
M  V30 8288 H 767.893 2.62 3.15886 0
M  V30 8289 H 767.424 1.03574 3.79521 0
M  V30 8290 H 769.439 0.49745 4.937 0
M  V30 8291 N 768.612 -1.24939 0.960631 0
M  V30 8292 C 769.542 -2.28 0.503815 0
M  V30 8293 C 770.523 -1.63959 -0.452928 0
M  V30 8294 O 771.708 -1.91009 -0.350585 0
M  V30 8295 C 768.838 -3.46643 -0.213535 0
M  V30 8296 C 767.792 -4.22903 0.658535 0
M  V30 8297 C 767.118 -5.34363 -0.189902 0
M  V30 8298 C 768.418 -4.84949 1.93963 0
M  V30 8299 H 770.112 -2.66462 1.36521 0
M  V30 8300 H 767.658 -1.28093 0.657897 0
M  V30 8301 H 769.611 -4.1787 -0.544286 0
M  V30 8302 H 768.335 -3.07187 -1.10923 0
M  V30 8303 H 766.994 -3.53467 0.972455 0
M  V30 8304 H 766.642 -4.91147 -1.08553 0
M  V30 8305 H 766.342 -5.86302 0.390331 0
M  V30 8306 H 767.866 -6.0842 -0.515484 0
M  V30 8307 H 769.28 -5.48288 1.67491 0
M  V30 8308 H 767.677 -5.47091 2.46601 0
M  V30 8309 H 768.747 -4.06799 2.639 0
M  V30 8310 N 770.09 -0.729906 -1.39679 0
M  V30 8311 C 771.501 -0.346241 -1.83461 0
M  V30 8312 C 771.852 1.1215 -1.60987 0
M  V30 8313 O 770.977 1.86456 -1.09832 0
M  V30 8314 C 771.572 -0.621656 -3.33048 0
M  V30 8315 C 770.131 -0.291543 -3.75269 0
M  V30 8316 C 769.278 -0.886844 -2.62736 0
M  V30 8317 H 772.229 -0.927949 -1.28743 0
M  V30 8318 H 772.25 0.108301 -3.80346 0
M  V30 8319 H 771.762 -1.68996 -3.49373 0
M  V30 8320 H 769.863 0.771133 -3.64533 0
M  V30 8321 H 769.976 -0.770544 -4.72863 0
M  V30 8322 H 768.34 -0.313839 -2.52759 0
M  V30 8323 H 769.123 -1.95971 -2.81869 0
M  V30 8324 N 771.568 1.50203 -0.477153 0
M  V30 8325 C 772.816 2.01959 0.0755889 0
M  V30 8326 C 773.137 1.3608 1.39668 0
M  V30 8327 O 772.407 0.508136 1.89195 0
M  V30 8328 H 770.987 0.74636 0.0309248 0
M  V30 8329 H 773.649 1.84473 -0.628959 0
M  V30 8330 H 772.745 3.11305 0.222683 0
M  V30 8331 N 773.046 0.209999 1.56195 0
M  V30 8332 C 774.274 -0.429996 2.02382 0
M  V30 8333 C 774.689 -1.54159 1.08998 0
M  V30 8334 O 774.046 -1.82239 0.0974856 0
M  V30 8335 C 774.097 -0.972433 3.48175 0
M  V30 8336 O 773.818 0.0948231 4.37997 0
M  V30 8337 C 775.319 -1.68683 4.09952 0
M  V30 8338 H 772.539 -0.106475 0.662498 0
M  V30 8339 H 775.083 0.323072 2.01932 0
M  V30 8340 H 773.238 -1.67582 3.49278 0
M  V30 8341 H 773.652 -0.31113 5.23576 0
M  V30 8342 H 775.126 -2.01851 5.13771 0
M  V30 8343 H 775.603 -2.59587 3.54276 0
M  V30 8344 H 776.209 -1.02893 4.12666 0
M  V30 8345 N 774.524 -1.57472 -0.0634922 0
M  V30 8346 C 775.771 -1.87654 -0.761066 0
M  V30 8347 C 776.099 -0.802847 -1.77157 0
M  V30 8348 O 775.354 0.200244 -1.94673 0
M  V30 8349 C 775.653 -3.24521 -1.49736 0
M  V30 8350 C 775.319 -4.46532 -0.626065 0
M  V30 8351 C 773.981 -4.7965 -0.385978 0
M  V30 8352 C 776.333 -5.21195 -0.0224001 0
M  V30 8353 C 773.661 -5.84837 0.467118 0
M  V30 8354 C 776.013 -6.27286 0.818198 0
M  V30 8355 C 774.677 -6.58899 1.06808 0
M  V30 8356 H 773.947 -0.686675 -0.278494 0
M  V30 8357 H 776.594 -1.91488 -0.0216348 0
M  V30 8358 H 774.899 -3.16516 -2.30921 0
M  V30 8359 H 776.596 -3.45111 -2.04204 0
M  V30 8360 H 773.186 -4.20618 -0.823325 0
M  V30 8361 H 777.37 -4.95917 -0.194985 0
M  V30 8362 H 772.626 -6.07725 0.669375 0
M  V30 8363 H 776.8 -6.84298 1.29265 0
M  V30 8364 H 774.427 -7.40233 1.73088 0
M  V30 8365 N 776.003 0.335068 -1.53997 0
M  V30 8366 C 776.933 1.41727 -1.85568 0
M  V30 8367 C 777.914 1.54505 -0.7115 0
M  V30 8368 O 779.099 1.68573 -0.964191 0
M  V30 8369 C 776.229 2.7866 -2.07282 0
M  V30 8370 C 775.183 2.80682 -3.23112 0
M  V30 8371 C 774.509 4.20581 -3.30175 0
M  V30 8372 C 775.809 2.45458 -4.61029 0
M  V30 8373 H 777.503 1.15555 -2.76202 0
M  V30 8374 H 775.049 0.554445 -1.32898 0
M  V30 8375 H 777.002 3.54423 -2.27952 0
M  V30 8376 H 775.726 3.06286 -1.13387 0
M  V30 8377 H 774.385 2.07373 -3.02311 0
M  V30 8378 H 774.033 4.4533 -2.33859 0
M  V30 8379 H 773.733 4.22843 -4.08016 0
M  V30 8380 H 775.257 4.98174 -3.53066 0
M  V30 8381 H 776.671 3.10934 -4.81656 0
M  V30 8382 H 775.068 2.5899 -5.41336 0
M  V30 8383 H 776.138 1.40628 -4.6406 0
M  V30 8384 N 777.481 1.45874 0.596531 0
M  V30 8385 C 778.429 1.55739 1.72766 0
M  V30 8386 C 779.423 0.426666 1.63939 0
M  V30 8387 O 780.629 0.60301 1.69599 0
M  V30 8388 H 777.004 0.489386 0.570968 0
M  V30 8389 H 778.975 2.50871 1.61575 0
M  V30 8390 C 777.724 1.55174 3.11153 0
M  V30 8391 H 777.047 2.41511 3.1861 0
M  V30 8392 H 778.487 1.66133 3.90097 0
M  V30 8393 C 776.946 0.278001 3.35751 0
M  V30 8394 O 777.476 -0.637557 3.96608 0
M  V30 8395 N 775.682 0.170227 2.90101 0
M  V30 8396 H 775.229 0.916159 2.40758 0
M  V30 8397 H 775.187 -0.68117 3.06932 0
M  V30 8398 N 778.959 -0.83999 1.33349 0
M  V30 8399 C 779.909 -1.93817 1.20079 0
M  V30 8400 C 780.893 -1.60564 0.103978 0
M  V30 8401 O 782.085 -1.73859 0.331964 0
M  V30 8402 C 779.214 -3.30151 0.941031 0
M  V30 8403 C 778.3 -3.69577 2.08023 0
M  V30 8404 N 778.691 -3.80707 3.3301 0
M  V30 8405 C 776.989 -3.99309 1.98667 0
M  V30 8406 C 777.69 -4.14899 4.07717 0
M  V30 8407 N 776.666 -4.27208 3.36146 0
M  V30 8408 H 780.468 -2.00576 2.14817 0
M  V30 8409 H 777.982 -1.03264 1.2534 0
M  V30 8410 H 779.979 -4.08617 0.826894 0
M  V30 8411 H 778.639 -3.247 0.00216738 0
M  V30 8412 H 779.65 -3.64644 3.67771 0
M  V30 8413 H 776.327 -4.02076 1.12433 0
M  V30 8414 H 777.717 -4.30857 5.15569 0
M  V30 8415 N 780.437 -1.16799 -1.0581 0
M  V30 8416 C 781.665 -0.97687 -1.82387 0
M  V30 8417 C 782.08 0.474917 -1.82729 0
M  V30 8418 O 781.437 1.3297 -1.25001 0
M  V30 8419 C 781.488 -1.50279 -3.28783 0
M  V30 8420 O 781.209 -2.89772 -3.28578 0
M  V30 8421 C 782.71 -1.35538 -4.22071 0
M  V30 8422 H 779.93 -0.345977 -0.574927 0
M  V30 8423 H 782.474 -1.54942 -1.33466 0
M  V30 8424 H 780.629 -0.972414 -3.74997 0
M  V30 8425 H 781.043 -3.13954 -4.20159 0
M  V30 8426 H 782.517 -1.7716 -5.22799 0
M  V30 8427 H 782.994 -0.301598 -4.38163 0
M  V30 8428 H 783.6 -1.87562 -3.81708 0
M  V30 8429 N 781.915 1.24427 -0.967243 0
M  V30 8430 C 782.825 2.29109 -0.504592 0
M  V30 8431 C 783.841 1.68495 0.434224 0
M  V30 8432 O 785.017 1.99041 0.307379 0
M  V30 8433 C 782.082 3.46133 0.198273 0
M  V30 8434 C 781.143 4.22149 -0.780313 0
M  V30 8435 C 780.376 5.33585 -0.110896 0
M  V30 8436 O 780.599 5.59676 1.10088 0
M  V30 8437 O 779.533 5.96522 -0.802823 0
M  V30 8438 H 783.359 2.708 -1.37482 0
M  V30 8439 H 780.944 1.30111 -0.73426 0
M  V30 8440 H 782.826 4.17205 0.593124 0
M  V30 8441 H 781.501 3.0642 1.04347 0
M  V30 8442 H 780.408 3.53454 -1.22561 0
M  V30 8443 H 781.741 4.65677 -1.59392 0
M  V30 8444 N 783.393 0.737304 1.3929 0
M  V30 8445 C 784.67 0.212464 1.94443 0
M  V30 8446 C 785.05 -1.28621 1.67391 0
M  V30 8447 O 784.398 -2.0529 1.00342 0
M  V30 8448 C 784.608 0.548565 3.44662 0
M  V30 8449 C 785.956 0.499177 4.21656 0
M  V30 8450 O 786.98 0.485892 3.5287 0
M  V30 8451 O 785.839 0.495739 5.44247 0
M  V30 8452 H 782.933 0.0395457 0.826054 0
M  V30 8453 H 785.479 0.816319 1.48776 0
M  V30 8454 H 784.251 1.58426 3.57795 0
M  V30 8455 H 783.874 -0.0841399 3.97511 0
M  V30 8456 N 784.871 -1.49948 0.485112 0
M  V30 8457 C 785.781 -2.32587 -0.306697 0
M  V30 8458 C 786.797 -1.43598 -0.982632 0
M  V30 8459 O 787.973 -1.76638 -0.967519 0
M  V30 8460 C 785.038 -3.18638 -1.3664 0
M  V30 8461 C 784.099 -4.23462 -0.705589 0
M  V30 8462 C 783.332 -5.05401 -1.7148 0
M  V30 8463 O 783.555 -4.88618 -2.94293 0
M  V30 8464 O 782.489 -5.88157 -1.27889 0
M  V30 8465 H 786.315 -3.01447 0.369272 0
M  V30 8466 H 783.9 -1.47349 0.246709 0
M  V30 8467 H 785.782 -3.71992 -1.9799 0
M  V30 8468 H 784.457 -2.52491 -2.02559 0
M  V30 8469 H 783.364 -3.74063 -0.0527733 0
M  V30 8470 H 784.697 -4.92119 -0.0891187 0
M  V30 8471 N 786.349 -0.21828 -1.56081 0
M  V30 8472 C 787.579 0.41865 -2.02314 0
M  V30 8473 C 787.987 1.54124 -1.09739 0
M  V30 8474 O 787.33 1.83435 -0.0986829 0
M  V30 8475 C 787.392 1.01439 -3.44892 0
M  V30 8476 C 787.056 0.0276523 -4.56992 0
M  V30 8477 C 788.053 -0.771526 -5.14143 0
M  V30 8478 C 785.738 -0.0901537 -5.02219 0
M  V30 8479 C 787.732 -1.67525 -6.14991 0
M  V30 8480 C 785.419 -0.997411 -6.02905 0
M  V30 8481 C 786.417 -1.78851 -6.59167 0
M  V30 8482 O 786.105 -2.68052 -7.57894 0
M  V30 8483 H 785.837 0.107066 -0.667468 0
M  V30 8484 H 788.391 -0.331191 -2.02712 0
M  V30 8485 H 786.621 1.81326 -3.41552 0
M  V30 8486 H 788.31 1.55838 -3.74792 0
M  V30 8487 H 789.076 -0.690945 -4.80053 0
M  V30 8488 H 784.955 0.515474 -4.58109 0
M  V30 8489 H 788.499 -2.29316 -6.58832 0
M  V30 8490 H 784.396 -1.07902 -6.36418 0
M  V30 8491 H 785.164 -2.6209 -7.75404 0
M  V30 8492 N 787.827 1.57504 0.0551401 0
M  V30 8493 C 788.737 2.08198 1.08124 0
M  V30 8494 C 789.753 1.01496 1.41331 0
M  V30 8495 O 790.929 1.33073 1.51174 0
M  V30 8496 C 787.994 2.52968 2.37083 0
M  V30 8497 C 787.055 3.7404 2.10696 0
M  V30 8498 C 786.288 4.16665 3.33505 0
M  V30 8499 O 786.511 3.59019 4.4324 0
M  V30 8500 O 785.445 5.09324 3.20737 0
M  V30 8501 H 789.271 2.95977 0.680518 0
M  V30 8502 H 786.856 1.46933 0.270401 0
M  V30 8503 H 788.738 2.82211 3.12946 0
M  V30 8504 H 787.413 1.6831 2.76502 0
M  V30 8505 H 786.32 3.49855 1.32484 0
M  V30 8506 H 787.653 4.59601 1.76148 0
M  V30 8507 N 789.305 -0.326896 1.54172 0
M  V30 8508 C 790.545 -1.07349 1.73941 0
M  V30 8509 C 790.909 -1.85355 0.50075 0
M  V30 8510 O 792.11 -2.62562 0.575731 0
M  V30 8511 C 790.381 -1.97636 2.97783 0
M  V30 8512 S 791.94 -2.79292 3.3844 0
M  V30 8513 H 788.758 -0.362459 0.611673 0
M  V30 8514 H 791.36 -0.349884 1.92344 0
M  V30 8515 H 790.064 -1.39158 3.86087 0
M  V30 8516 H 789.595 -2.74406 2.81895 0
M  V30 8517 H 791.61 -4.00106 2.93478 0
M  V30 8518 N 790.784 -1.46188 -0.588786 0
M  V30 8519 C 791.716 -1.52319 -1.71265 0
M  V30 8520 C 792.729 -0.412096 -1.57498 0
M  V30 8521 O 793.918 -0.680146 -1.65034 0
M  V30 8522 C 791.018 -1.38164 -3.09458 0
M  V30 8523 C 790.191 -2.63284 -3.49286 0
M  V30 8524 C 789.25 -2.43415 -4.66514 0
M  V30 8525 O 788.276 -3.17113 -4.72682 0
M  V30 8526 N 789.478 -1.49187 -5.61002 0
M  V30 8527 H 792.243 -2.49219 -1.66463 0
M  V30 8528 H 789.804 -1.42167 -0.774601 0
M  V30 8529 H 791.796 -1.22653 -3.85666 0
M  V30 8530 H 790.366 -0.494678 -3.08661 0
M  V30 8531 H 789.586 -2.93779 -2.62845 0
M  V30 8532 H 790.874 -3.46413 -3.7266 0
M  V30 8533 H 790.272 -0.884027 -5.5875 0
M  V30 8534 H 788.829 -1.39642 -6.36666 0
M  V30 8535 N 792.262 0.832906 -1.33792 0
M  V30 8536 C 793.225 1.92471 -1.24449 0
M  V30 8537 C 794.225 1.59981 -0.162085 0
M  V30 8538 O 795.415 1.69208 -0.414029 0
M  V30 8539 C 792.547 3.28278 -0.919044 0
M  V30 8540 H 793.74 2.0218 -2.21502 0
M  V30 8541 H 791.293 1.0257 -1.17936 0
M  V30 8542 H 792.028 3.24263 0.048738 0
M  V30 8543 H 791.813 3.53241 -1.70187 0
M  V30 8544 H 793.303 4.08253 -0.878576 0
M  V30 8545 N 793.74 1.17359 1.05189 0
M  V30 8546 C 794.98 0.972812 1.79766 0
M  V30 8547 C 795.344 -0.489832 1.85647 0
M  V30 8548 O 796.545 -0.809682 2.56315 0
M  V30 8549 C 794.816 1.59636 3.19767 0
M  V30 8550 S 796.375 1.54178 4.10822 0
M  V30 8551 H 793.193 0.34959 0.619119 0
M  V30 8552 H 795.795 1.49304 1.26209 0
M  V30 8553 H 794.499 2.65336 3.13089 0
M  V30 8554 H 794.03 1.07594 3.78401 0
M  V30 8555 H 796.045 0.549785 4.93145 0
M  V30 8556 N 795.218 -1.23913 0.973828 0
M  V30 8557 C 796.629 -1.73992 0.677021 0
M  V30 8558 C 796.98 -1.78833 -0.807036 0
M  V30 8559 O 796.105 -1.42183 -1.63135 0
M  V30 8560 C 796.7 -3.15985 1.22226 0
M  V30 8561 C 795.259 -3.63547 0.975228 0
M  V30 8562 C 794.406 -2.42001 1.35392 0
M  V30 8563 H 797.357 -1.09529 1.14844 0
M  V30 8564 H 797.378 -3.75875 0.591489 0
M  V30 8565 H 796.89 -3.12429 2.30238 0
M  V30 8566 H 794.991 -3.72493 -0.0891047 0
M  V30 8567 H 795.104 -4.50693 1.62518 0
M  V30 8568 H 793.468 -2.42708 0.772334 0
M  V30 8569 H 794.251 -2.41122 2.44367 0
M  V30 8570 N 796.696 -0.74468 -1.38897 0
M  V30 8571 C 797.644 -0.100312 -2.32384 0
M  V30 8572 C 798.638 0.715191 -1.53562 0
M  V30 8573 O 799.844 0.615288 -1.69157 0
M  V30 8574 H 796.219 -0.0136403 -0.751876 0
M  V30 8575 H 798.19 -0.905007 -2.84345 0
M  V30 8576 C 796.939 0.785432 -3.38713 0
M  V30 8577 H 796.262 0.167308 -3.9945 0
M  V30 8578 H 797.702 1.20374 -4.06554 0
M  V30 8579 C 796.161 1.92408 -2.76552 0
M  V30 8580 O 796.691 3.01752 -2.65157 0
M  V30 8581 N 794.897 1.71642 -2.34494 0
M  V30 8582 H 794.444 0.827079 -2.43961 0
M  V30 8583 H 794.402 2.48 -1.93244 0
M  V30 8584 N 798.174 1.49689 -0.493057 0
M  V30 8585 C 799.122 2.30613 0.303383 0
M  V30 8586 C 800.116 1.38867 0.970165 0
M  V30 8587 O 801.322 1.55956 0.898761 0
M  V30 8588 H 797.697 0.742891 0.116691 0
M  V30 8589 H 799.668 2.95717 -0.39924 0
M  V30 8590 C 798.417 3.20008 1.35978 0
M  V30 8591 H 797.74 3.90526 0.856103 0
M  V30 8592 H 799.18 3.79586 1.88919 0
M  V30 8593 C 797.639 2.39079 2.37367 0
M  V30 8594 O 798.169 2.08933 3.43089 0
M  V30 8595 N 796.375 2.0125 2.09635 0
M  V30 8596 H 795.922 2.25966 1.23682 0
M  V30 8597 H 795.88 1.47408 2.77702 0
M  V30 8598 N 799.652 0.226554 1.55963 0
M  V30 8599 C 800.562 -0.692725 2.24139 0
M  V30 8600 C 801.578 -1.20971 1.25068 0
M  V30 8601 O 802.754 -1.25027 1.57893 0
M  V30 8602 C 799.819 -1.88183 2.91184 0
M  V30 8603 C 798.88 -1.40633 4.05612 0
M  V30 8604 C 798.113 -2.53875 4.6945 0
M  V30 8605 O 798.336 -3.72129 4.32292 0
M  V30 8606 O 797.27 -2.24792 5.58348 0
M  V30 8607 H 801.096 -0.141921 3.03368 0
M  V30 8608 H 798.681 -0.0041049 1.49399 0
M  V30 8609 H 800.563 -2.57617 3.33484 0
M  V30 8610 H 799.238 -2.42064 2.14911 0
M  V30 8611 H 798.145 -0.67986 3.67871 0
M  V30 8612 H 799.478 -0.913838 4.83642 0
M  V30 8613 N 801.13 -1.57531 -0.0467866 0
M  V30 8614 C 802.376 -1.89584 -0.736837 0
M  V30 8615 C 802.731 -0.82317 -1.73901 0
M  V30 8616 O 802.024 0.170098 -1.90843 0
M  V30 8617 C 802.218 -3.26091 -1.46285 0
M  V30 8618 C 802.047 -4.46536 -0.532502 0
M  V30 8619 C 800.817 -5.05046 -0.160109 0
M  V30 8620 C 803.015 -5.13979 0.181555 0
M  V30 8621 N 800.997 -6.09009 0.773349 0
M  V30 8622 C 802.368 -6.12345 0.971297 0
M  V30 8623 C 804.423 -4.9727 0.250382 0
M  V30 8624 C 803.126 -6.95802 1.82351 0
M  V30 8625 C 805.152 -5.81275 1.08965 0
M  V30 8626 C 804.514 -6.79197 1.86737 0
M  V30 8627 H 800.613 -0.742868 -0.244277 0
M  V30 8628 H 803.197 -1.947 0.0025481 0
M  V30 8629 H 801.368 -3.21938 -2.1728 0
M  V30 8630 H 803.1 -3.45715 -2.10389 0
M  V30 8631 H 799.855 -4.70754 -0.518457 0
M  V30 8632 H 800.279 -6.65658 1.23406 0
M  V30 8633 H 804.921 -4.21458 -0.336578 0
M  V30 8634 H 802.639 -7.70971 2.42134 0
M  V30 8635 H 806.225 -5.70397 1.14621 0
M  V30 8636 H 805.105 -7.4307 2.50631 0
M  V30 8637 N 802.608 0.318715 -1.54344 0
M  V30 8638 C 803.833 1.07987 -1.77069 0
M  V30 8639 C 804.258 1.80766 -0.520117 0
M  V30 8640 O 803.616 1.73424 0.528566 0
M  V30 8641 C 803.664 2.04987 -2.96669 0
M  V30 8642 O 802.768 3.12974 -2.68554 0
M  V30 8643 H 802.109 0.311109 -0.586606 0
M  V30 8644 H 804.639 0.361533 -2.0138 0
M  V30 8645 H 804.649 2.47771 -3.2415 0
M  V30 8646 H 803.324 1.51417 -3.87357 0
M  V30 8647 H 801.901 2.74831 -2.52037 0
M  V30 8648 N 804.086 1.46499 0.581025 0
M  V30 8649 C 805.316 1.55244 1.36319 0
M  V30 8650 C 805.724 0.193059 1.88212 0
M  V30 8651 O 805.067 -0.820109 1.64377 0
M  V30 8652 C 805.129 2.498 2.58535 0
M  V30 8653 C 804.793 3.96007 2.28096 0
M  V30 8654 C 805.79 4.85171 1.8683 0
M  V30 8655 C 803.475 4.41152 2.40189 0
M  V30 8656 C 805.469 6.17493 1.58053 0
M  V30 8657 C 803.156 5.73508 2.11024 0
M  V30 8658 C 804.154 6.615 1.70021 0
M  V30 8659 O 803.842 7.914 1.41215 0
M  V30 8660 H 803.574 0.527513 0.422736 0
M  V30 8661 H 806.128 1.92623 0.713139 0
M  V30 8662 H 804.358 2.07443 3.2635 0
M  V30 8663 H 806.047 2.48934 3.20604 0
M  V30 8664 H 806.813 4.51548 1.77001 0
M  V30 8665 H 802.692 3.72886 2.71066 0
M  V30 8666 H 806.236 6.86131 1.25974 0
M  V30 8667 H 802.133 6.06679 2.20478 0
M  V30 8668 H 802.901 8.03681 1.55046 0
M  V30 8669 N 805.565 -0.825799 1.34232 0
M  V30 8670 C 806.497 -1.94401 1.21413 0
M  V30 8671 C 807.51 -1.6218 0.141902 0
M  V30 8672 O 808.699 -1.74109 0.3935 0
M  V30 8673 C 805.799 -3.28257 0.842635 0
M  V30 8674 C 804.972 -3.88521 2.00924 0
M  V30 8675 C 804.031 -5.00752 1.61661 0
M  V30 8676 O 803.057 -5.19201 2.33279 0
M  V30 8677 N 804.259 -5.78084 0.52911 0
M  V30 8678 H 807.024 -2.05931 2.17744 0
M  V30 8679 H 804.585 -1.00223 1.27149 0
M  V30 8680 H 806.577 -4.00781 0.561822 0
M  V30 8681 H 805.147 -3.12585 -0.0304029 0
M  V30 8682 H 804.367 -3.08425 2.45495 0
M  V30 8683 H 805.655 -4.25516 2.78951 0
M  V30 8684 H 805.053 -5.65661 -0.0663322 0
M  V30 8685 H 803.61 -6.51072 0.308017 0
M  V30 8686 N 807.043 -1.17915 -1.04565 0
M  V30 8687 C 808.268 -0.996749 -1.81878 0
M  V30 8688 C 808.693 0.450169 -1.82634 0
M  V30 8689 O 808.051 1.32268 -1.23995 0
M  V30 8690 C 808.099 -1.55005 -3.25585 0
M  V30 8691 O 807.203 -0.76804 -4.05185 0
M  V30 8692 H 806.544 -0.353456 -0.562108 0
M  V30 8693 H 809.074 -1.56557 -1.31723 0
M  V30 8694 H 809.084 -1.57503 -3.76373 0
M  V30 8695 H 807.759 -2.60327 -3.2435 0
M  V30 8696 H 806.336 -0.81498 -3.63885 0
M  V30 8697 N 808.521 1.23394 -0.980386 0
M  V30 8698 C 809.431 2.28561 -0.528864 0
M  V30 8699 C 810.447 1.68946 0.416329 0
M  V30 8700 O 811.623 1.99355 0.286251 0
M  V30 8701 C 808.688 3.46323 0.16155 0
M  V30 8702 C 807.749 4.21297 -0.825044 0
M  V30 8703 C 806.982 5.33437 -0.167483 0
M  V30 8704 O 807.205 5.60812 1.04146 0
M  V30 8705 O 806.139 5.95637 -0.866047 0
M  V30 8706 H 809.965 2.69326 -1.40346 0
M  V30 8707 H 807.55 1.29325 -0.748019 0
M  V30 8708 H 809.432 4.17811 0.548841 0
M  V30 8709 H 808.107 3.0751 1.01092 0
M  V30 8710 H 807.014 3.52134 -1.26303 0
M  V30 8711 H 808.347 4.6396 -1.64322 0
M  V30 8712 N 809.999 0.752036 1.385 0
M  V30 8713 C 811.227 0.318274 2.04437 0
M  V30 8714 C 811.642 -1.05285 1.56718 0
M  V30 8715 O 810.999 -1.66844 0.73956 0
M  V30 8716 C 811.05 0.330106 3.5999 0
M  V30 8717 O 810.771 1.64712 4.05957 0
M  V30 8718 C 812.272 -0.117713 4.43144 0
M  V30 8719 H 809.492 0.136228 0.657026 0
M  V30 8720 H 812.036 1.02045 1.7722 0
M  V30 8721 H 810.191 -0.323323 3.86048 0
M  V30 8722 H 810.605 1.57225 5.0038 0
M  V30 8723 H 812.079 -0.0582735 5.51969 0
M  V30 8724 H 812.556 -1.16538 4.23457 0
M  V30 8725 H 813.162 0.506784 4.2227 0
M  V30 8726 N 811.477 -1.49425 0.500989 0
M  V30 8727 C 812.702 -2.07356 -0.0425154 0
M  V30 8728 C 813.127 -1.35887 -1.30063 0
M  V30 8729 O 812.485 -0.41561 -1.76472 0
M  V30 8730 C 812.533 -3.59518 -0.279188 0
M  V30 8731 O 811.637 -3.89542 -1.3539 0
M  V30 8732 H 810.978 -0.663482 0.0262207 0
M  V30 8733 H 813.508 -1.92231 0.700607 0
M  V30 8734 H 813.518 -4.04791 -0.5107 0
M  V30 8735 H 812.193 -4.10946 0.640009 0
M  V30 8736 H 810.77 -3.56079 -1.10734 0
M  V30 8737 N 812.955 -0.234822 -1.55841 0
M  V30 8738 C 814.195 0.394944 -2.00548 0
M  V30 8739 C 814.559 1.56002 -1.11926 0
M  V30 8740 O 815.76 2.2567 -1.46037 0
M  V30 8741 C 814.031 0.805896 -3.48195 0
M  V30 8742 S 815.59 1.4279 -4.14918 0
M  V30 8743 H 812.408 0.124802 -0.699961 0
M  V30 8744 H 815.01 -0.347224 -1.92392 0
M  V30 8745 H 813.714 -0.0515271 -4.10368 0
M  V30 8746 H 813.245 1.58055 -3.60253 0
M  V30 8747 H 815.26 2.71699 -4.15204 0
M  V30 8748 N 814.433 1.57553 0.0384317 0
M  V30 8749 C 815.68 1.88841 0.731116 0
M  V30 8750 C 816.008 0.83093 1.75857 0
M  V30 8751 O 815.263 -0.169248 1.94967 0
M  V30 8752 C 815.562 3.26862 1.44554 0
M  V30 8753 C 815.228 4.47472 0.554946 0
M  V30 8754 C 813.89 4.80203 0.309621 0
M  V30 8755 C 816.242 5.21165 -0.0605204 0
M  V30 8756 C 813.57 5.8402 -0.560101 0
M  V30 8757 C 815.922 6.25905 -0.91789 0
M  V30 8758 C 814.586 6.57117 -1.17277 0
M  V30 8759 H 813.856 0.691018 0.267534 0
M  V30 8760 H 816.503 1.91498 -0.00883195 0
M  V30 8761 H 814.808 3.2015 2.25856 0
M  V30 8762 H 816.505 3.48316 1.98688 0
M  V30 8763 H 813.095 4.21874 0.756304 0
M  V30 8764 H 817.279 4.96164 0.116064 0
M  V30 8765 H 812.535 6.06583 -0.765974 0
M  V30 8766 H 816.709 6.82155 -1.40136 0
M  V30 8767 H 814.336 7.37385 -1.84843 0
M  V30 8768 N 815.911 -0.310526 1.54511 0
M  V30 8769 C 816.858 -1.38264 1.84802 0
M  V30 8770 C 817.828 -1.50808 0.696141 0
M  V30 8771 O 819.013 -1.6582 0.943846 0
M  V30 8772 C 816.153 -2.74422 2.09252 0
M  V30 8773 C 815.266 -2.70405 3.36906 0
M  V30 8774 C 814.401 -3.98495 3.51248 0
M  V30 8775 C 813.44 -3.88836 4.72729 0
M  V30 8776 N 812.577 -5.08683 4.83928 0
M  V30 8777 H 817.417 -1.11732 2.76261 0
M  V30 8778 H 814.954 -0.540609 1.36806 0
M  V30 8779 H 816.912 -3.53593 2.21422 0
M  V30 8780 H 815.542 -2.99235 1.2107 0
M  V30 8781 H 814.594 -1.83151 3.33406 0
M  V30 8782 H 815.906 -2.59155 4.26193 0
M  V30 8783 H 815.06 -4.861 3.63031 0
M  V30 8784 H 813.799 -4.12567 2.60077 0
M  V30 8785 H 812.804 -2.99615 4.60989 0
M  V30 8786 H 814.029 -3.76318 5.65298 0
M  V30 8787 H 811.975 -5.23236 3.95677 0
M  V30 8788 H 811.892 -4.99819 5.67201 0
M  V30 8789 H 813.16 -5.97966 5.00057 0
M  V30 8790 N 817.389 -1.46805 -0.573248 0
M  V30 8791 C 818.805 -1.31969 -0.897577 0
M  V30 8792 C 819.005 -0.298171 -1.99282 0
M  V30 8793 O 818.061 0.295953 -2.5076 0
M  V30 8794 C 819.374 -2.70859 -1.30598 0
M  V30 8795 C 820.922 -2.79022 -1.4183 0
M  V30 8796 C 821.397 -4.18516 -1.86033 0
M  V30 8797 N 822.888 -4.2098 -1.9321 0
M  V30 8798 C 823.623 -5.25814 -2.28707 0
M  V30 8799 N 823.119 -6.40968 -2.6293 0
M  V30 8800 N 824.912 -5.13184 -2.29343 0
M  V30 8801 H 817.063 -2.11869 0.150094 0
M  V30 8802 H 819.326 -0.947989 0.00447895 0
M  V30 8803 H 819.032 -3.46965 -0.575161 0
M  V30 8804 H 818.906 -3.01585 -2.26554 0
M  V30 8805 H 821.293 -2.03198 -2.13996 0
M  V30 8806 H 821.374 -2.51969 -0.441024 0
M  V30 8807 H 821.018 -4.94839 -1.14442 0
M  V30 8808 H 820.948 -4.42982 -2.84735 0
M  V30 8809 H 823.439 -3.37898 -1.69214 0
M  V30 8810 H 823.752 -7.16729 -2.88996 0
M  V30 8811 H 822.097 -6.44314 -2.60547 0
M  V30 8812 H 825.288 -4.22255 -2.02036 0
M  V30 8813 H 825.461 -5.94996 -2.56679 0
M  V30 8814 N 818.867 0.818669 -1.34668 0
M  V30 8815 C 819.799 1.93754 -1.22442 0
M  V30 8816 C 820.812 1.62103 -0.150501 0
M  V30 8817 O 822.001 1.73898 -0.402728 0
M  V30 8818 C 819.101 3.27806 -0.860031 0
M  V30 8819 C 818.274 3.8745 -2.02981 0
M  V30 8820 C 817.333 4.99887 -1.64314 0
M  V30 8821 O 816.359 5.17957 -2.36029 0
M  V30 8822 N 817.561 5.77795 -0.55976 0
M  V30 8823 H 820.326 2.04773 -2.18833 0
M  V30 8824 H 817.887 0.995472 -1.27679 0
M  V30 8825 H 819.879 4.00478 -0.583068 0
M  V30 8826 H 818.449 3.12597 0.0138253 0
M  V30 8827 H 817.669 3.07119 -2.47127 0
M  V30 8828 H 818.957 4.2403 -2.81204 0
M  V30 8829 H 818.355 5.65688 0.0363329 0
M  V30 8830 H 816.912 6.50899 -0.342541 0
M  V30 8831 N 820.346 1.18468 1.03938 0
M  V30 8832 C 821.276 0.936389 2.13902 0
M  V30 8833 C 822.257 -0.126381 1.6963 0
M  V30 8834 O 823.442 0.0264757 1.94182 0
M  V30 8835 C 820.572 0.462729 3.44204 0
M  V30 8836 C 819.526 1.46613 4.02105 0
M  V30 8837 C 818.852 0.84994 5.27902 0
M  V30 8838 C 820.152 2.84323 4.3813 0
M  V30 8839 H 821.846 1.85602 2.3493 0
M  V30 8840 H 819.392 0.893806 1.12903 0
M  V30 8841 H 821.345 0.276382 4.20493 0
M  V30 8842 H 820.069 -0.492477 3.22866 0
M  V30 8843 H 818.728 1.63944 3.27899 0
M  V30 8844 H 818.376 -0.112493 5.02874 0
M  V30 8845 H 818.076 1.51988 5.67603 0
M  V30 8846 H 819.6 0.674152 6.06867 0
M  V30 8847 H 821.014 2.70636 5.054 0
M  V30 8848 H 819.411 3.48012 4.88884 0
M  V30 8849 H 820.481 3.37776 3.47901 0
M  V30 8850 N 821.824 -1.22873 0.986916 0
M  V30 8851 C 823.07 -1.91746 0.660401 0
M  V30 8852 C 823.403 -1.76738 -0.804812 0
M  V30 8853 O 822.678 -1.13246 -1.58131 0
M  V30 8854 C 822.961 -3.44156 1.05966 0
M  V30 8855 C 822.814 -3.68242 2.58298 0
M  V30 8856 C 824.133 -4.35874 0.60842 0
M  V30 8857 H 821.252 -0.696347 0.241391 0
M  V30 8858 H 823.894 -1.44867 1.22937 0
M  V30 8859 H 822.044 -3.84213 0.575534 0
M  V30 8860 H 823.716 -3.37626 3.14335 0
M  V30 8861 H 821.959 -3.12728 3.00638 0
M  V30 8862 H 822.63 -4.74956 2.81285 0
M  V30 8863 H 825.106 -4.03299 1.02417 0
M  V30 8864 H 823.982 -5.41201 0.916142 0
M  V30 8865 H 824.243 -4.39364 -0.491086 0
M  V30 8866 N 823.302 -0.75937 -1.38099 0
M  V30 8867 C 824.549 -0.318113 -1.99986 0
M  V30 8868 C 824.877 1.10184 -1.6028 0
M  V30 8869 O 824.132 1.77015 -0.834524 0
M  V30 8870 C 824.431 -0.394999 -3.55211 0
M  V30 8871 C 824.097 -1.77143 -4.14646 0
M  V30 8872 C 822.759 -2.14811 -4.30592 0
M  V30 8873 C 825.111 -2.67407 -4.47373 0
M  V30 8874 C 822.439 -3.42203 -4.76565 0
M  V30 8875 C 824.791 -3.94196 -4.94765 0
M  V30 8876 C 823.455 -4.31925 -5.08918 0
M  V30 8877 H 822.725 -0.116406 -0.7318 0
M  V30 8878 H 825.372 -0.97098 -1.65058 0
M  V30 8879 H 823.677 0.341426 -3.9031 0
M  V30 8880 H 825.374 -0.0350722 -4.00985 0
M  V30 8881 H 821.964 -1.46864 -4.02652 0
M  V30 8882 H 826.148 -2.39569 -4.3465 0
M  V30 8883 H 821.404 -3.71346 -4.85708 0
M  V30 8884 H 825.578 -4.64276 -5.19057 0
M  V30 8885 H 823.205 -5.30699 -5.443 0
M  V30 8886 N 824.78 1.49157 -0.508906 0
M  V30 8887 C 825.71 2.32109 0.254469 0
M  V30 8888 C 826.691 1.40754 0.955111 0
M  V30 8889 O 827.876 1.69658 0.944983 0
M  V30 8890 C 825.006 3.21458 1.3146 0
M  V30 8891 C 823.96 4.2167 0.733368 0
M  V30 8892 C 823.286 5.00009 1.8946 0
M  V30 8893 C 824.586 5.21544 -0.280875 0
M  V30 8894 H 826.28 2.9618 -0.43795 0
M  V30 8895 H 823.826 1.4243 -0.212062 0
M  V30 8896 H 825.779 3.78305 1.85643 0
M  V30 8897 H 824.503 2.55346 2.03632 0
M  V30 8898 H 823.162 3.65979 0.213231 0
M  V30 8899 H 822.81 4.30338 2.60419 0
M  V30 8900 H 822.51 5.67821 1.51173 0
M  V30 8901 H 824.034 5.59702 2.44061 0
M  V30 8902 H 825.448 5.73039 0.173095 0
M  V30 8903 H 823.845 5.97291 -0.580006 0
M  V30 8904 H 824.915 4.69969 -1.19404 0
M  V30 8905 N 826.258 0.243083 1.55714 0
M  V30 8906 C 827.168 -0.668913 2.24862 0
M  V30 8907 C 828.184 -1.19638 1.26344 0
M  V30 8908 O 829.36 -1.23345 1.5921 0
M  V30 8909 C 826.425 -1.85084 2.93163 0
M  V30 8910 C 825.486 -1.36323 4.07081 0
M  V30 8911 C 824.719 -2.48882 4.72116 0
M  V30 8912 O 824.942 -3.67523 4.36214 0
M  V30 8913 O 823.876 -2.18857 5.60701 0
M  V30 8914 H 827.702 -0.109737 3.03502 0
M  V30 8915 H 825.287 0.0117411 1.49395 0
M  V30 8916 H 827.169 -2.54065 3.36197 0
M  V30 8917 H 825.844 -2.39771 2.17466 0
M  V30 8918 H 824.751 -0.640804 3.68571 0
M  V30 8919 H 826.084 -0.86249 4.84584 0
M  V30 8920 N 827.736 -1.57571 -0.0300757 0
M  V30 8921 C 828.982 -1.90355 -0.716687 0
M  V30 8922 C 829.337 -0.841568 -1.73018 0
M  V30 8923 O 828.63 0.149847 -1.91013 0
M  V30 8924 C 828.824 -3.27624 -1.42818 0
M  V30 8925 C 828.653 -4.47076 -0.485111 0
M  V30 8926 C 827.423 -5.05188 -0.106533 0
M  V30 8927 C 829.621 -5.13758 0.236059 0
M  V30 8928 N 827.603 -6.08155 0.837899 0
M  V30 8929 C 828.974 -6.1128 1.03619 0
M  V30 8930 C 831.029 -4.96977 0.30311 0
M  V30 8931 C 829.732 -6.93829 1.89721 0
M  V30 8932 C 831.758 -5.80086 1.15125 0
M  V30 8933 C 831.12 -6.77178 1.9393 0
M  V30 8934 H 827.219 -0.745417 -0.236384 0
M  V30 8935 H 829.803 -1.94686 0.0231985 0
M  V30 8936 H 827.974 -3.24224 -2.13854 0
M  V30 8937 H 829.706 -3.47927 -2.0671 0
M  V30 8938 H 826.461 -4.71277 -0.468498 0
M  V30 8939 H 826.885 -6.64311 1.30459 0
M  V30 8940 H 831.527 -4.21791 -0.291858 0
M  V30 8941 H 829.245 -7.6836 2.50298 0
M  V30 8942 H 832.831 -5.6915 1.20665 0
M  V30 8943 H 831.711 -7.4037 2.58499 0
M  V30 8944 N 829.214 0.302327 -1.54673 0
M  V30 8945 C 830.164 1.37443 -1.81916 0
M  V30 8946 C 831.148 1.45999 -0.676251 0
M  V30 8947 O 832.34 1.50174 -0.93685 0
M  V30 8948 C 829.469 2.73966 -2.06876 0
M  V30 8949 C 828.555 2.69637 -3.27348 0
M  V30 8950 N 828.946 2.34926 -4.47933 0
M  V30 8951 C 827.244 3.00742 -3.29348 0
M  V30 8952 C 827.945 2.39862 -5.29944 0
M  V30 8953 N 826.921 2.77163 -4.67634 0
M  V30 8954 H 830.723 1.09567 -2.72713 0
M  V30 8955 H 828.237 0.5109 -1.54154 0
M  V30 8956 H 830.234 3.51265 -2.2454 0
M  V30 8957 H 828.894 3.02754 -1.17346 0
M  V30 8958 H 829.905 2.07403 -4.74557 0
M  V30 8959 H 826.582 3.34434 -2.49921 0
M  V30 8960 H 827.972 2.15835 -6.3629 0
M  V30 8961 N 830.692 1.47107 0.565454 0
M  V30 8962 C 831.602 1.61591 1.70075 0
M  V30 8963 C 832.618 0.498931 1.66693 0
M  V30 8964 O 833.794 0.765372 1.8629 0
M  V30 8965 C 830.859 1.61887 3.06583 0
M  V30 8966 C 829.92 2.84949 3.21096 0
M  V30 8967 C 829.153 2.85221 4.51093 0
M  V30 8968 O 829.376 1.94959 5.36048 0
M  V30 8969 O 828.31 3.76982 4.69221 0
M  V30 8970 H 832.136 2.57638 1.60799 0
M  V30 8971 H 829.721 1.30097 0.73451 0
M  V30 8972 H 831.603 1.64809 3.87835 0
M  V30 8973 H 830.278 0.69005 3.16259 0
M  V30 8974 H 829.185 2.87575 2.39273 0
M  V30 8975 H 830.518 3.77098 3.1632 0
M  V30 8976 N 832.17 -0.811516 1.35101 0
M  V30 8977 C 833.133 -1.90467 1.27495 0
M  V30 8978 C 834.133 -1.59703 0.187516 0
M  V30 8979 O 835.323 -1.68528 0.440896 0
M  V30 8980 C 832.455 -3.26774 0.971154 0
M  V30 8981 H 833.648 -1.98631 2.2469 0
M  V30 8982 H 831.201 -1.00681 1.19553 0
M  V30 8983 H 831.936 -3.243 0.0028557 0
M  V30 8984 H 831.721 -3.50488 1.75785 0
M  V30 8985 H 833.211 -4.06804 0.943414 0
M  V30 8986 N 833.648 -1.19017 -1.03309 0
M  V30 8987 C 835.059 -0.993206 -1.5809 0
M  V30 8988 C 835.41 0.45505 -1.9085 0
M  V30 8989 O 834.535 1.33372 -1.70414 0
M  V30 8990 C 835.13 -1.79661 -2.87241 0
M  V30 8991 C 833.689 -1.64377 -3.38611 0
M  V30 8992 C 832.836 -1.78628 -2.12102 0
M  V30 8993 H 835.787 -1.3345 -0.858879 0
M  V30 8994 H 835.808 -1.29019 -3.57958 0
M  V30 8995 H 835.32 -2.85061 -2.63366 0
M  V30 8996 H 833.421 -0.615447 -3.67482 0
M  V30 8997 H 833.534 -2.44651 -4.11926 0
M  V30 8998 H 831.898 -1.21648 -2.23772 0
M  V30 8999 H 832.681 -2.8548 -1.90673 0
M  V30 9000 N 835.127 1.22348 -0.993418 0
M  V30 9001 C 836.355 1.95125 -0.688021 0
M  V30 9002 C 836.77 1.73377 0.747388 0
M  V30 9003 O 836.127 1.03317 1.50439 0
M  V30 9004 C 836.178 3.47819 -0.985097 0
M  V30 9005 O 835.899 3.68838 -2.3641 0
M  V30 9006 C 837.4 4.37779 -0.697474 0
M  V30 9007 H 834.62 0.62087 -0.254481 0
M  V30 9008 H 837.164 1.55485 -1.32833 0
M  V30 9009 H 835.319 3.85426 -0.390583 0
M  V30 9010 H 835.733 4.63032 -2.46377 0
M  V30 9011 H 837.207 5.43666 -0.955604 0
M  V30 9012 H 837.684 4.37651 0.368524 0
M  V30 9013 H 838.29 4.05799 -1.27306 0
M  V30 9014 N 836.605 0.766683 1.37694 0
M  V30 9015 C 837.854 0.325425 1.99057 0
M  V30 9016 C 838.167 -1.10275 1.61551 0
M  V30 9017 O 839.373 -1.64513 2.1598 0
M  V30 9018 C 837.829 0.530886 3.55963 0
M  V30 9019 C 837.437 1.96899 4.02411 0
M  V30 9020 C 839.181 0.152997 4.24224 0
M  V30 9021 C 837.088 2.12232 5.52007 0
M  V30 9022 H 836.018 0.117929 0.744721 0
M  V30 9023 H 838.669 0.945091 1.5729 0
M  V30 9024 H 837.051 -0.158162 3.95684 0
M  V30 9025 H 838.225 2.69258 3.73948 0
M  V30 9026 H 836.54 2.303 3.46916 0
M  V30 9027 H 839.137 0.24614 5.34133 0
M  V30 9028 H 839.48 -0.896096 4.06541 0
M  V30 9029 H 840.013 0.794398 3.89787 0
M  V30 9030 H 836.752 3.15442 5.7461 0
M  V30 9031 H 836.272 1.4435 5.82171 0
M  V30 9032 H 837.951 1.9185 6.17902 0
M  V30 9033 N 838.083 -1.48885 0.516809 0
M  V30 9034 C 839.046 -2.27916 -0.242256 0
M  V30 9035 C 840.046 -1.34601 -0.879735 0
M  V30 9036 O 841.236 -1.57616 -0.74182 0
M  V30 9037 C 838.368 -3.13067 -1.34914 0
M  V30 9038 H 839.561 -2.96483 0.451444 0
M  V30 9039 H 837.114 -1.5391 0.272294 0
M  V30 9040 H 837.849 -2.49102 -2.07651 0
M  V30 9041 H 837.634 -3.81695 -0.897313 0
M  V30 9042 H 839.124 -3.72716 -1.88341 0
M  V30 9043 N 839.561 -0.251338 -1.55583 0
M  V30 9044 C 840.807 0.37272 -1.99346 0
M  V30 9045 C 841.14 1.57266 -1.13934 0
M  V30 9046 O 840.415 1.9343 -0.20377 0
M  V30 9047 C 840.698 0.778245 -3.5159 0
M  V30 9048 C 840.551 -0.427394 -4.47765 0
M  V30 9049 C 841.87 1.62358 -4.09057 0
M  V30 9050 H 838.989 0.134002 -0.724715 0
M  V30 9051 H 841.631 -0.353536 -1.86682 0
M  V30 9052 H 839.781 1.39704 -3.62512 0
M  V30 9053 H 841.453 -1.06586 -4.48818 0
M  V30 9054 H 839.696 -1.06972 -4.20404 0
M  V30 9055 H 840.367 -0.10025 -5.51909 0
M  V30 9056 H 842.843 1.1012 -4.01264 0
M  V30 9057 H 841.719 1.87617 -5.1584 0
M  V30 9058 H 841.98 2.59688 -3.57791 0
M  V30 9059 N 841.039 1.57585 0.0217189 0
M  V30 9060 C 842.002 2.06004 1.00474 0
M  V30 9061 C 843.002 0.965461 1.2859 0
M  V30 9062 O 844.192 1.22884 1.23471 0
M  V30 9063 C 841.324 2.48319 2.33561 0
M  V30 9064 H 842.517 2.94112 0.586346 0
M  V30 9065 H 840.07 1.53973 0.268716 0
M  V30 9066 H 840.805 1.63389 2.80133 0
M  V30 9067 H 840.59 3.28239 2.1448 0
M  V30 9068 H 842.08 2.86181 3.04122 0
M  V30 9069 N 842.517 -0.29412 1.54831 0
M  V30 9070 C 843.447 -1.36757 1.89261 0
M  V30 9071 C 844.428 -1.52564 0.752214 0
M  V30 9072 O 845.613 -1.65958 1.00855 0
M  V30 9073 C 842.743 -2.73066 2.14597 0
M  V30 9074 C 841.697 -2.72017 3.3044 0
M  V30 9075 C 841.023 -4.11679 3.4121 0
M  V30 9076 C 842.323 -2.33149 4.67375 0
M  V30 9077 H 844.017 -1.08191 2.79169 0
M  V30 9078 H 841.563 -0.519014 1.34321 0
M  V30 9079 H 843.516 -3.48255 2.37269 0
M  V30 9080 H 842.24 -3.03172 1.21467 0
M  V30 9081 H 840.899 -1.99285 3.07703 0
M  V30 9082 H 840.547 -4.38973 2.45584 0
M  V30 9083 H 840.247 -4.11877 4.19084 0
M  V30 9084 H 841.771 -4.88637 3.6615 0
M  V30 9085 H 843.185 -2.98054 4.89731 0
M  V30 9086 H 841.582 -2.44546 5.48012 0
M  V30 9087 H 842.652 -1.28275 4.67626 0
M  V30 9088 N 843.995 -1.47404 -0.557645 0
M  V30 9089 C 844.925 -1.62736 -1.67449 0
M  V30 9090 C 845.906 -0.476824 -1.6328 0
M  V30 9091 O 847.091 -0.706108 -1.80908 0
M  V30 9092 C 844.221 -1.641 -3.06086 0
M  V30 9093 C 843.175 -2.78377 -3.25101 0
M  V30 9094 C 842.501 -2.64812 -4.6452 0
M  V30 9095 C 843.801 -4.19971 -3.10518 0
M  V30 9096 H 845.495 -2.56232 -1.54873 0
M  V30 9097 H 843.041 -1.23312 -0.743649 0
M  V30 9098 H 844.994 -1.73417 -3.84063 0
M  V30 9099 H 843.718 -0.671652 -3.19619 0
M  V30 9100 H 842.377 -2.6857 -2.49531 0
M  V30 9101 H 842.025 -1.65906 -4.74852 0
M  V30 9102 H 841.725 -3.41477 -4.78191 0
M  V30 9103 H 843.249 -2.76057 -5.44633 0
M  V30 9104 H 844.663 -4.30757 -3.78313 0
M  V30 9105 H 843.06 -4.97419 -3.35699 0
M  V30 9106 H 844.13 -4.38369 -2.0727 0
M  V30 9107 N 845.473 0.80434 -1.35529 0
M  V30 9108 C 846.436 1.89788 -1.28503 0
M  V30 9109 C 847.436 1.59601 -0.195983 0
M  V30 9110 O 848.626 1.68292 -0.449827 0
M  V30 9111 C 845.758 3.26255 -0.98847 0
M  V30 9112 H 846.951 1.97436 -2.25741 0
M  V30 9113 H 844.504 1.00046 -1.20086 0
M  V30 9114 H 845.239 3.24294 -0.0200541 0
M  V30 9115 H 845.024 3.49551 -1.77641 0
M  V30 9116 H 846.514 4.06298 -0.964975 0
M  V30 9117 N 846.951 1.19563 1.02676 0
M  V30 9118 C 847.914 0.937182 2.09164 0
M  V30 9119 C 848.914 -0.0831927 1.60585 0
M  V30 9120 O 850.104 0.15178 1.73538 0
M  V30 9121 C 847.236 0.408912 3.38439 0
M  V30 9122 H 848.429 1.88164 2.33526 0
M  V30 9123 H 845.982 1.00959 1.19319 0
M  V30 9124 H 846.717 -0.541497 3.19747 0
M  V30 9125 H 846.502 1.14464 3.7502 0
M  V30 9126 H 847.992 0.247242 4.16867 0
M  V30 9127 N 848.429 -1.21819 0.999893 0
M  V30 9128 C 849.359 -2.26282 0.576096 0
M  V30 9129 C 850.34 -1.65317 -0.400537 0
M  V30 9130 O 851.525 -1.92028 -0.28964 0
M  V30 9131 C 848.655 -3.47147 -0.103145 0
M  V30 9132 C 847.609 -4.20594 0.792745 0
M  V30 9133 C 846.935 -5.34696 -0.0198026 0
M  V30 9134 C 848.235 -4.78533 2.09293 0
M  V30 9135 H 849.929 -2.61984 1.4493 0
M  V30 9136 H 847.475 -1.25935 0.698316 0
M  V30 9137 H 849.428 -4.1939 -0.411068 0
M  V30 9138 H 848.152 -3.1056 -1.01094 0
M  V30 9139 H 846.811 -3.50194 1.08442 0
M  V30 9140 H 846.459 -4.94352 -0.928729 0
M  V30 9141 H 846.159 -5.84764 0.576661 0
M  V30 9142 H 847.683 -6.09752 -0.321659 0
M  V30 9143 H 849.097 -5.42682 1.8485 0
M  V30 9144 H 847.494 -5.38968 2.63881 0
M  V30 9145 H 848.564 -3.98197 2.76708 0
M  V30 9146 N 849.908 -0.773975 -1.37286 0
M  V30 9147 C 851.156 -0.338636 -1.99243 0
M  V30 9148 C 851.477 1.08919 -1.61746 0
M  V30 9149 O 850.747 1.74822 -0.88397 0
M  V30 9150 H 849.327 -0.12222 -0.736934 0
M  V30 9151 H 851.989 -0.992595 -1.67731 0
M  V30 9152 H 851.085 -0.418055 -3.09287 0
M  V30 9153 N 851.386 1.48609 -0.524698 0
M  V30 9154 C 852.633 2.02497 0.0113214 0
M  V30 9155 C 852.961 1.40229 1.34781 0
M  V30 9156 O 852.216 0.53557 1.88229 0
M  V30 9157 C 852.515 3.56906 0.187873 0
M  V30 9158 C 852.181 4.37932 -1.07359 0
M  V30 9159 C 850.843 4.59792 -1.41933 0
M  V30 9160 C 853.195 4.84902 -1.911 0
M  V30 9161 C 850.523 5.25868 -2.60154 0
M  V30 9162 C 852.875 5.52281 -3.08495 0
M  V30 9163 C 851.539 5.7238 -3.4342 0
M  V30 9164 H 850.809 0.740988 0.0041428 0
M  V30 9165 H 853.456 1.78651 -0.689652 0
M  V30 9166 H 851.761 3.79563 0.971572 0
M  V30 9167 H 853.458 3.96218 0.617443 0
M  V30 9168 H 850.048 4.21175 -0.794331 0
M  V30 9169 H 854.232 4.67821 -1.65701 0
M  V30 9170 H 849.488 5.39628 -2.87422 0
M  V30 9171 H 853.662 5.87645 -3.73692 0
M  V30 9172 H 851.289 6.23354 -4.35126 0
M  V30 9173 N 852.864 0.259585 1.55447 0
M  V30 9174 C 853.794 -0.62852 2.24882 0
M  V30 9175 C 854.775 -1.17128 1.23349 0
M  V30 9176 O 855.96 -1.20829 1.52033 0
M  V30 9177 C 853.09 -1.81983 2.95803 0
M  V30 9178 C 852.044 -1.40929 4.04132 0
M  V30 9179 C 851.37 -2.68246 4.62545 0
M  V30 9180 C 852.67 -0.570956 5.1917 0
M  V30 9181 H 854.364 -0.0495021 2.99359 0
M  V30 9182 H 851.91 -0.0223688 1.43983 0
M  V30 9183 H 853.863 -2.44689 3.43082 0
M  V30 9184 H 852.587 -2.42444 2.18835 0
M  V30 9185 H 851.246 -0.805519 3.57641 0
M  V30 9186 H 850.894 -3.26931 3.82263 0
M  V30 9187 H 850.594 -2.41495 5.35681 0
M  V30 9188 H 852.118 -3.31827 5.12565 0
M  V30 9189 H 853.532 -1.10262 5.62597 0
M  V30 9190 H 851.929 -0.398979 5.98772 0
M  V30 9191 H 852.999 0.413918 4.8313 0
M  V30 9192 N 854.342 -1.57594 -0.0133615 0
M  V30 9193 C 855.567 -1.94649 -0.715996 0
M  V30 9194 C 855.992 -0.860786 -1.67249 0
M  V30 9195 O 855.35 0.182228 -1.80382 0
M  V30 9196 C 855.398 -3.30789 -1.43566 0
M  V30 9197 O 854.502 -3.24148 -2.54955 0
M  V30 9198 H 853.843 -0.635801 -0.191449 0
M  V30 9199 H 856.373 -2.04569 0.0358478 0
M  V30 9200 H 856.383 -3.66045 -1.80208 0
M  V30 9201 H 855.058 -4.09367 -0.734263 0
M  V30 9202 H 853.635 -3.00548 -2.20739 0
M  V30 9203 N 855.82 0.285905 -1.54985 0
M  V30 9204 C 857.048 1.03776 -1.78992 0
M  V30 9205 C 857.463 1.80402 -0.556814 0
M  V30 9206 O 856.82 1.76242 0.473801 0
M  V30 9207 C 856.871 2.0065 -3.00702 0
M  V30 9208 O 856.592 1.27131 -4.19249 0
M  V30 9209 C 858.093 2.87753 -3.37214 0
M  V30 9210 H 855.313 0.307126 -0.596586 0
M  V30 9211 H 857.857 0.3206 -2.01971 0
M  V30 9212 H 856.012 2.67847 -2.79887 0
M  V30 9213 H 856.426 1.92316 -4.8797 0
M  V30 9214 H 857.9 3.51548 -4.2558 0
M  V30 9215 H 858.377 3.56848 -2.56039 0
M  V30 9216 H 858.983 2.26065 -3.60242 0
M  V30 9217 N 857.298 1.47698 0.54982 0
M  V30 9218 C 858.228 1.63622 1.66583 0
M  V30 9219 C 859.209 0.485477 1.63025 0
M  V30 9220 O 860.394 0.715692 1.80531 0
M  V30 9221 C 857.524 1.65721 3.05211 0
M  V30 9222 C 856.478 2.80097 3.2362 0
M  V30 9223 C 855.804 2.67272 4.63109 0
M  V30 9224 C 857.104 4.21612 3.08286 0
M  V30 9225 H 858.798 2.57049 1.53512 0
M  V30 9226 H 856.344 1.23705 0.737099 0
M  V30 9227 H 858.297 1.75451 3.83138 0
M  V30 9228 H 857.021 0.688593 3.19258 0
M  V30 9229 H 855.68 2.69889 2.48104 0
M  V30 9230 H 855.328 1.68422 4.73965 0
M  V30 9231 H 855.028 3.44008 4.76374 0
M  V30 9232 H 856.552 2.78942 5.43161 0
M  V30 9233 H 857.966 4.32758 3.76024 0
M  V30 9234 H 856.363 4.99193 3.33057 0
M  V30 9235 H 857.433 4.39462 2.04942 0
M  V30 9236 N 858.776 -0.797141 1.35954 0
M  V30 9237 C 859.739 -1.89104 1.29508 0
M  V30 9238 C 860.739 -1.59495 0.204444 0
M  V30 9239 O 861.929 -1.68051 0.458746 0
M  V30 9240 C 859.061 -3.25726 1.00576 0
M  V30 9241 H 860.254 -1.96237 2.26785 0
M  V30 9242 H 857.807 -0.994075 1.20614 0
M  V30 9243 H 858.542 -3.24279 0.0372519 0
M  V30 9244 H 858.327 -3.48604 1.79492 0
M  V30 9245 H 859.817 -4.0578 0.986508 0
M  V30 9246 N 860.254 -1.20106 -1.0204 0
M  V30 9247 C 861.503 -1.00316 -1.74985 0
M  V30 9248 C 861.816 0.465814 -1.89972 0
M  V30 9249 O 863.022 0.782749 -2.59972 0
M  V30 9250 C 861.478 -1.74608 -3.14706 0
M  V30 9251 C 861.086 -3.25573 -3.07744 0
M  V30 9252 C 862.83 -1.63172 -3.91887 0
M  V30 9253 C 860.737 -3.92419 -4.42449 0
M  V30 9254 H 859.667 -0.371728 -0.655999 0
M  V30 9255 H 862.318 -1.43688 -1.14131 0
M  V30 9256 H 860.7 -1.24021 -3.76078 0
M  V30 9257 H 861.874 -3.83345 -2.55702 0
M  V30 9258 H 860.189 -3.3738 -2.44057 0
M  V30 9259 H 862.786 -2.10457 -4.9154 0
M  V30 9260 H 863.129 -0.58728 -4.12137 0
M  V30 9261 H 863.662 -2.11152 -3.37135 0
M  V30 9262 H 860.401 -4.96998 -4.27403 0
M  V30 9263 H 859.921 -3.39436 -4.94513 0
M  V30 9264 H 861.6 -3.96453 -5.11306 0
M  V30 9265 N 861.732 1.21287 -1.00634 0
M  V30 9266 C 862.662 2.25973 -0.588089 0
M  V30 9267 C 863.643 1.65527 0.391764 0
M  V30 9268 O 864.828 1.92179 0.279452 0
M  V30 9269 C 861.958 3.47197 0.0847336 0
M  V30 9270 C 860.912 4.20168 -0.815039 0
M  V30 9271 C 860.238 5.34699 -0.00855393 0
M  V30 9272 C 861.538 4.77416 -2.11828 0
M  V30 9273 H 863.232 2.61212 -1.46317 0
M  V30 9274 H 860.778 1.25563 -0.704985 0
M  V30 9275 H 862.731 4.19602 0.388821 0
M  V30 9276 H 861.455 3.11092 0.994456 0
M  V30 9277 H 860.114 3.49614 -1.10297 0
M  V30 9278 H 859.762 4.94837 0.902499 0
M  V30 9279 H 859.462 5.84449 -0.607664 0
M  V30 9280 H 860.986 6.09914 0.289317 0
M  V30 9281 H 862.4 5.41694 -1.87725 0
M  V30 9282 H 860.797 5.37561 -2.66736 0
M  V30 9283 H 861.867 3.96724 -2.78816 0
M  V30 9284 N 863.21 0.781244 1.36873 0
M  V30 9285 C 864.456 0.350407 1.9975 0
M  V30 9286 C 864.789 -1.07293 1.6187 0
M  V30 9287 O 864.064 -1.73983 0.869491 0
M  V30 9288 C 864.347 0.504834 3.56544 0
M  V30 9289 C 864.2 1.97127 4.04303 0
M  V30 9290 C 865.519 -0.0851272 4.40018 0
M  V30 9291 H 862.638 0.128794 0.725659 0
M  V30 9292 H 865.28 0.98606 1.6241 0
M  V30 9293 H 863.43 -0.0363006 3.88483 0
M  V30 9294 H 865.102 2.57284 3.82887 0
M  V30 9295 H 863.345 2.47676 3.56145 0
M  V30 9296 H 864.016 2.03033 5.13305 0
M  V30 9297 H 866.492 0.376704 4.14391 0
M  V30 9298 H 865.368 0.0530015 5.48874 0
M  V30 9299 H 865.629 -1.17642 4.2616 0
M  V30 9300 N 864.689 -1.48329 0.532571 0
M  V30 9301 C 865.938 -2.017 -0.00259705 0
M  V30 9302 C 866.251 -1.41469 -1.35077 0
M  V30 9303 O 867.457 -1.86354 -1.97445 0
M  V30 9304 C 865.913 -3.59858 -0.0550179 0
M  V30 9305 C 865.521 -4.29073 1.28842 0
M  V30 9306 C 867.265 -4.21066 -0.538878 0
M  V30 9307 C 865.172 -5.79171 1.19644 0
M  V30 9308 H 864.102 -0.753985 -0.00474081 0
M  V30 9309 H 866.753 -1.70565 0.676739 0
M  V30 9310 H 865.135 -3.87846 -0.799486 0
M  V30 9311 H 866.309 -4.12755 2.04865 0
M  V30 9312 H 864.624 -3.79748 1.70822 0
M  V30 9313 H 867.221 -5.31026 -0.6257 0
M  V30 9314 H 867.564 -3.86559 -1.54525 0
M  V30 9315 H 868.097 -3.97517 0.149984 0
M  V30 9316 H 864.836 -6.18257 2.17805 0
M  V30 9317 H 864.356 -5.97895 0.477609 0
M  V30 9318 H 866.035 -6.40875 0.888186 0
M  V30 9319 N 866.167 -0.267825 -1.55308 0
M  V30 9320 C 867.414 0.351036 -1.99434 0
M  V30 9321 C 867.742 1.56406 -1.15618 0
M  V30 9322 O 866.997 1.94548 -0.212045 0
M  V30 9323 C 867.296 0.784247 -3.48689 0
M  V30 9324 C 866.962 -0.323328 -4.49739 0
M  V30 9325 C 865.624 -0.627467 -4.77091 0
M  V30 9326 C 867.976 -1.07002 -5.10098 0
M  V30 9327 C 865.304 -1.682 -5.62073 0
M  V30 9328 C 867.656 -2.11422 -5.96224 0
M  V30 9329 C 866.32 -2.42479 -6.21901 0
M  V30 9330 H 865.59 0.128453 -0.729781 0
M  V30 9331 H 868.237 -0.380018 -1.87692 0
M  V30 9332 H 866.542 1.59485 -3.57871 0
M  V30 9333 H 868.239 1.2737 -3.80234 0
M  V30 9334 H 864.829 -0.0761528 -4.28532 0
M  V30 9335 H 869.013 -0.848302 -4.88996 0
M  V30 9336 H 864.269 -1.92772 -5.80215 0
M  V30 9337 H 868.443 -2.69759 -6.4203 0
M  V30 9338 H 866.07 -3.24328 -6.87543 0
M  V30 9339 N 867.645 1.57599 0.00500368 0
M  V30 9340 C 868.891 1.91471 0.686313 0
M  V30 9341 C 869.246 0.868988 1.71658 0
M  V30 9342 O 868.539 -0.11944 1.91227 0
M  V30 9343 C 868.733 3.29855 1.37588 0
M  V30 9344 C 868.562 4.47791 0.413924 0
M  V30 9345 C 867.332 5.05293 0.0261488 0
M  V30 9346 C 869.53 5.13317 -0.317764 0
M  V30 9347 N 867.512 6.06745 -0.934545 0
M  V30 9348 C 868.883 6.09554 -1.13331 0
M  V30 9349 C 870.938 4.96431 -0.382136 0
M  V30 9350 C 869.641 6.90723 -2.00735 0
M  V30 9351 C 871.667 5.78182 -1.24339 0
M  V30 9352 C 871.029 6.74007 -2.04679 0
M  V30 9353 H 867.128 0.749083 0.224495 0
M  V30 9354 H 869.712 1.94625 -0.0541684 0
M  V30 9355 H 867.883 3.27585 2.08668 0
M  V30 9356 H 869.615 3.51171 2.01149 0
M  V30 9357 H 866.37 4.71963 0.393462 0
M  V30 9358 H 866.794 6.62152 -1.41012 0
M  V30 9359 H 871.436 4.22202 0.224718 0
M  V30 9360 H 869.154 7.64281 -2.6249 0
M  V30 9361 H 872.74 5.67158 -1.29704 0
M  V30 9362 H 871.62 7.36164 -2.70244 0
M  V30 9363 N 869.123 -0.277682 1.55134 0
M  V30 9364 C 870.539 -0.624625 1.46869 0
M  V30 9365 C 870.739 -1.89717 0.678958 0
M  V30 9366 O 869.795 -2.51739 0.195939 0
M  V30 9367 C 871.108 -0.755937 2.91043 0
M  V30 9368 C 872.656 -0.850299 3.01229 0
M  V30 9369 C 873.131 -1.01343 4.46647 0
M  V30 9370 N 874.622 -1.07906 4.50456 0
M  V30 9371 C 875.357 -1.224 5.60184 0
M  V30 9372 N 874.853 -1.33642 6.79788 0
M  V30 9373 N 876.646 -1.25473 5.47917 0
M  V30 9374 H 868.797 0.558102 2.04937 0
M  V30 9375 H 871.06 0.188228 0.929125 0
M  V30 9376 H 870.766 0.108593 3.51532 0
M  V30 9377 H 870.64 -1.6377 3.39793 0
M  V30 9378 H 873.027 -1.7053 2.40839 0
M  V30 9379 H 873.108 0.0559681 2.55739 0
M  V30 9380 H 872.752 -0.163102 5.07638 0
M  V30 9381 H 872.682 -1.93427 4.89789 0
M  V30 9382 H 875.173 -1.00477 3.64298 0
M  V30 9383 H 875.486 -1.44522 7.59166 0
M  V30 9384 H 873.831 -1.30655 6.82608 0
M  V30 9385 H 877.022 -1.16317 4.53418 0
M  V30 9386 H 877.195 -1.36424 6.33476 0
M  V30 9387 N 870.601 -1.47988 -0.541979 0
M  V30 9388 C 871.551 -1.58019 -1.64359 0
M  V30 9389 C 872.535 -0.438056 -1.54822 0
M  V30 9390 O 873.727 -0.688837 -1.63046 0
M  V30 9391 C 870.856 -1.61182 -3.03109 0
M  V30 9392 C 869.942 -2.80834 -3.17794 0
M  V30 9393 N 870.333 -4.05379 -3.02492 0
M  V30 9394 C 868.631 -2.77914 -3.48826 0
M  V30 9395 C 869.332 -4.85592 -3.20274 0
M  V30 9396 N 868.308 -4.18188 -3.47304 0
M  V30 9397 H 872.11 -2.52071 -1.5112 0
M  V30 9398 H 869.624 -1.44193 -0.747137 0
M  V30 9399 H 871.621 -1.66461 -3.82226 0
M  V30 9400 H 870.281 -0.682375 -3.17449 0
M  V30 9401 H 871.292 -4.36003 -2.79503 0
M  V30 9402 H 867.969 -1.94174 -3.69598 0
M  V30 9403 H 869.359 -5.94394 -3.13282 0
M  V30 9404 N 872.079 0.78992 -1.36375 0
M  V30 9405 C 873.326 1.54777 -1.30576 0
M  V30 9406 C 873.654 1.94159 0.115095 0
M  V30 9407 O 872.909 1.62918 1.08426 0
M  V30 9408 C 873.208 2.83698 -2.17371 0
M  V30 9409 C 872.874 2.63457 -3.65925 0
M  V30 9410 C 871.536 2.57645 -4.06415 0
M  V30 9411 C 873.888 2.44833 -4.60115 0
M  V30 9412 C 871.216 2.31174 -5.39236 0
M  V30 9413 C 873.568 2.19889 -5.93154 0
M  V30 9414 C 872.232 2.1251 -6.32768 0
M  V30 9415 H 871.502 0.566371 -0.477813 0
M  V30 9416 H 874.149 0.91138 -1.68422 0
M  V30 9417 H 872.454 3.51802 -1.72459 0
M  V30 9418 H 874.151 3.41487 -2.10209 0
M  V30 9419 H 870.741 2.68836 -3.33804 0
M  V30 9420 H 874.925 2.48325 -4.29707 0
M  V30 9421 H 870.181 2.23942 -5.68911 0
M  V30 9422 H 874.355 2.04473 -6.65705 0
M  V30 9423 H 871.982 1.91761 -7.35616 0
M  V30 9424 N 873.557 1.20646 1.01402 0
M  V30 9425 C 874.489 0.915392 2.10127 0
M  V30 9426 C 875.502 -0.0978705 1.62506 0
M  V30 9427 O 876.691 0.133477 1.78 0
M  V30 9428 C 873.791 0.351304 3.37074 0
M  V30 9429 C 872.964 1.41673 4.13821 0
M  V30 9430 C 872.023 0.8635 5.19067 0
M  V30 9431 O 871.049 1.54481 5.47836 0
M  V30 9432 N 872.251 -0.325799 5.79585 0
M  V30 9433 H 875.016 1.85132 2.35682 0
M  V30 9434 H 872.577 1.11048 1.17813 0
M  V30 9435 H 874.569 -0.032996 4.04687 0
M  V30 9436 H 873.139 -0.489242 3.08748 0
M  V30 9437 H 872.359 1.97526 3.41141 0
M  V30 9438 H 873.647 2.1342 4.61876 0
M  V30 9439 H 873.045 -0.896534 5.58551 0
M  V30 9440 H 871.602 -0.651708 6.48534 0
M  V30 9441 N 875.035 -1.20752 1.01276 0
M  V30 9442 C 876.263 -1.94006 0.718976 0
M  V30 9443 C 876.678 -1.74544 -0.719711 0
M  V30 9444 O 876.035 -1.05697 -1.48776 0
M  V30 9445 C 876.086 -3.46208 1.04031 0
M  V30 9446 O 875.807 -3.65031 2.42248 0
M  V30 9447 C 877.308 -4.36614 0.767032 0
M  V30 9448 H 874.528 -0.616743 0.264327 0
M  V30 9449 H 877.072 -1.53352 1.3529 0
M  V30 9450 H 875.227 -3.84756 0.451852 0
M  V30 9451 H 875.641 -4.59054 2.53712 0
M  V30 9452 H 877.115 -5.42076 1.04198 0
M  V30 9453 H 877.592 -4.38182 -0.298851 0
M  V30 9454 H 878.198 -4.03723 1.33746 0
M  V30 9455 N 876.513 -0.788492 -1.36457 0
M  V30 9456 C 877.924 -0.423742 -1.81828 0
M  V30 9457 C 878.275 1.05221 -1.65599 0
M  V30 9458 O 877.4 1.8163 -1.17641 0
M  V30 9459 C 877.995 -0.762354 -3.30112 0
M  V30 9460 C 876.554 -0.450445 -3.73695 0
M  V30 9461 C 875.701 -0.997482 -2.58738 0
M  V30 9462 H 878.652 -0.981718 -1.24692 0
M  V30 9463 H 878.673 -0.0531136 -3.80463 0
M  V30 9464 H 878.185 -1.83662 -3.41891 0
M  V30 9465 H 876.286 0.615829 -3.67476 0
M  V30 9466 H 876.399 -0.970408 -4.69169 0
M  V30 9467 H 874.763 -0.420761 -2.51201 0
M  V30 9468 H 875.546 -2.07749 -2.73304 0
M  V30 9469 N 877.991 1.48044 -0.54043 0
M  V30 9470 C 879.24 2.01698 -0.00809961 0
M  V30 9471 C 879.553 1.42184 1.34325 0
M  V30 9472 O 880.759 1.87398 1.96454 0
M  V30 9473 C 879.215 3.59882 0.035933 0
M  V30 9474 C 878.823 4.28384 -1.31115 0
M  V30 9475 C 880.567 4.21346 0.51654 0
M  V30 9476 C 878.474 5.78529 -1.22714 0
M  V30 9477 H 877.404 0.754 0.000742174 0
M  V30 9478 H 880.055 1.70204 -0.685775 0
M  V30 9479 H 878.437 3.88264 0.778906 0
M  V30 9480 H 879.611 4.11663 -2.07051 0
M  V30 9481 H 877.926 3.78837 -1.72834 0
M  V30 9482 H 880.523 5.31351 0.597529 0
M  V30 9483 H 880.866 3.87373 1.52473 0
M  V30 9484 H 881.399 3.97432 -0.171064 0
M  V30 9485 H 878.138 6.17093 -2.21081 0
M  V30 9486 H 877.658 5.97634 -0.50931 0
M  V30 9487 H 879.337 6.40395 -0.92216 0
M  V30 9488 N 879.47 0.276058 1.55163 0
M  V30 9489 C 880.716 -0.340959 1.99913 0
M  V30 9490 C 881.049 -1.55434 1.16422 0
M  V30 9491 O 880.324 -1.93081 0.234517 0
M  V30 9492 C 880.607 -0.722211 3.52783 0
M  V30 9493 C 880.46 0.498575 4.47028 0
M  V30 9494 C 881.779 -1.5583 4.11589 0
M  V30 9495 H 878.898 -0.122455 0.726756 0
M  V30 9496 H 881.54 0.38319 1.86096 0
M  V30 9497 H 879.69 -1.33919 3.64689 0
M  V30 9498 H 881.362 1.13713 4.47065 0
M  V30 9499 H 879.605 1.13646 4.18649 0
M  V30 9500 H 880.276 0.188041 5.5168 0
M  V30 9501 H 882.752 -1.03722 4.02965 0
M  V30 9502 H 881.628 -1.79387 5.1876 0
M  V30 9503 H 881.889 -2.53963 3.61877 0
M  V30 9504 N 880.948 -1.576 0.00335426 0
M  V30 9505 C 882.364 -1.55653 -0.352766 0
M  V30 9506 C 882.564 -1.00632 -1.74572 0
M  V30 9507 O 881.62 -0.641621 -2.44212 0
M  V30 9508 C 882.933 -2.99858 -0.224929 0
M  V30 9509 C 884.481 -3.11563 -0.299619 0
M  V30 9510 C 884.956 -4.57559 -0.200868 0
M  V30 9511 N 886.447 -4.62477 -0.258663 0
M  V30 9512 C 887.182 -5.73031 -0.205644 0
M  V30 9513 N 886.678 -6.92723 -0.103027 0
M  V30 9514 N 888.471 -5.61509 -0.257754 0
M  V30 9515 H 880.622 -1.91703 0.914539 0
M  V30 9516 H 882.885 -0.88068 0.350865 0
M  V30 9517 H 882.591 -3.43964 0.733595 0
M  V30 9518 H 882.465 -3.63547 -1.00564 0
M  V30 9519 H 884.852 -2.67384 -1.24859 0
M  V30 9520 H 884.933 -2.50644 0.511025 0
M  V30 9521 H 884.577 -5.02413 0.744572 0
M  V30 9522 H 884.507 -5.16428 -1.03004 0
M  V30 9523 H 886.998 -3.76375 -0.339168 0
M  V30 9524 H 887.311 -7.7277 -0.0685593 0
M  V30 9525 H 885.656 -6.94966 -0.0686069 0
M  V30 9526 H 888.847 -4.66892 -0.336142 0
M  V30 9527 H 889.02 -6.4765 -0.21297 0
M  V30 9528 N 882.426 0.269451 -1.5528 0
M  V30 9529 C 883.651 1.02299 -1.80415 0
M  V30 9530 C 884.076 1.7902 -0.577363 0
M  V30 9531 O 883.434 1.75018 0.473125 0
M  V30 9532 C 883.482 1.95445 -3.0304 0
M  V30 9533 O 882.586 3.04271 -2.78375 0
M  V30 9534 H 881.927 0.292289 -0.596207 0
M  V30 9535 H 884.457 0.297282 -2.02429 0
M  V30 9536 H 884.467 2.37333 -3.31869 0
M  V30 9537 H 883.142 1.39017 -3.91978 0
M  V30 9538 H 881.719 2.66673 -2.60653 0
M  V30 9539 N 883.904 1.48273 0.534124 0
M  V30 9540 C 884.867 1.6201 1.62127 0
M  V30 9541 C 885.867 0.493653 1.53035 0
M  V30 9542 O 887.057 0.759337 1.56779 0
M  V30 9543 C 884.189 1.5864 3.01739 0
M  V30 9544 H 885.382 2.58944 1.51288 0
M  V30 9545 H 882.935 1.36808 0.755861 0
M  V30 9546 H 883.67 0.631685 3.18088 0
M  V30 9547 H 883.455 2.40415 3.09747 0
M  V30 9548 H 884.945 1.71438 3.80787 0
M  V30 9549 N 885.382 -0.782676 1.36792 0
M  V30 9550 C 886.63 -1.53778 1.31136 0
M  V30 9551 C 886.951 -1.94706 -0.107014 0
M  V30 9552 O 886.221 -1.65465 -1.04872 0
M  V30 9553 H 884.801 -0.570328 0.482426 0
M  V30 9554 H 887.463 -0.932181 1.71162 0
M  V30 9555 H 886.559 -2.44224 1.94321 0
M  V30 9556 N 886.86 -1.21182 -1.00761 0
M  V30 9557 C 888.108 -1.02543 -1.74153 0
M  V30 9558 C 888.429 0.442372 -1.89916 0
M  V30 9559 O 887.699 1.31927 -1.44818 0
M  V30 9560 H 886.279 -0.37644 -0.645214 0
M  V30 9561 H 888.941 -1.52446 -1.21434 0
M  V30 9562 H 888.037 -1.49122 -2.7417 0
M  V30 9563 N 888.338 1.20213 -1.01915 0
M  V30 9564 C 889.749 1.7136 -0.741131 0
M  V30 9565 C 890.1 1.81705 0.740107 0
M  V30 9566 O 889.225 1.48139 1.57746 0
M  V30 9567 C 889.82 3.11231 -1.33869 0
M  V30 9568 C 888.379 3.59677 -1.10948 0
M  V30 9569 C 887.526 2.36809 -1.4428 0
M  V30 9570 H 890.477 1.05191 -1.1883 0
M  V30 9571 H 890.498 3.7342 -0.730585 0
M  V30 9572 H 890.01 3.03669 -2.41675 0
M  V30 9573 H 888.111 3.72568 -0.0492052 0
M  V30 9574 H 888.224 4.44351 -1.79134 0
M  V30 9575 H 886.588 2.39674 -0.861881 0
M  V30 9576 H 887.371 2.31886 -2.53148 0
M  V30 9577 N 889.816 0.795718 1.36037 0
M  V30 9578 C 890.749 0.144269 2.27744 0
M  V30 9579 C 891.727 -0.683351 1.47543 0
M  V30 9580 O 892.911 -0.652976 1.76829 0
M  V30 9581 C 890.038 -0.800944 3.29094 0
M  V30 9582 C 889.084 -0.0543234 4.26465 0
M  V30 9583 S 889.917 1.27426 5.20118 0
M  V30 9584 C 891.073 0.333213 6.25012 0
M  V30 9585 H 891.306 0.921827 2.82648 0
M  V30 9586 H 888.839 0.590241 1.42673 0
M  V30 9587 H 890.797 -1.34082 3.87985 0
M  V30 9588 H 889.458 -1.5518 2.7309 0
M  V30 9589 H 888.651 -0.771788 4.98056 0
M  V30 9590 H 888.253 0.415264 3.71687 0
M  V30 9591 H 890.545 -0.485604 6.75757 0
M  V30 9592 H 891.488 1.01798 7.00744 0
M  V30 9593 H 891.896 -0.066256 5.64461 0
M  V30 9594 N 891.294 -1.47756 0.548274 0
M  V30 9595 C 892.534 -2.04387 0.0231354 0
M  V30 9596 C 892.898 -1.41438 -1.29843 0
M  V30 9597 O 894.099 -1.89064 -1.91072 0
M  V30 9598 C 892.37 -3.57316 -0.077482 0
M  V30 9599 S 893.929 -4.35339 -0.550038 0
M  V30 9600 H 890.747 -0.710694 0.0208428 0
M  V30 9601 H 893.349 -1.81239 0.732984 0
M  V30 9602 H 892.053 -4.00658 0.88888 0
M  V30 9603 H 891.584 -3.84947 -0.811157 0
M  V30 9604 H 893.599 -4.61957 -1.81135 0
M  V30 9605 N 892.772 -0.284283 -1.55015 0
M  V30 9606 C 894.019 0.329864 -1.99795 0
M  V30 9607 C 894.347 1.55171 -1.1727 0
M  V30 9608 O 893.602 1.94312 -0.232667 0
M  V30 9609 C 893.901 0.747219 -3.49502 0
M  V30 9610 C 893.567 -0.37101 -4.49371 0
M  V30 9611 C 892.229 -0.678034 -4.76399 0
M  V30 9612 C 894.581 -1.12406 -5.08935 0
M  V30 9613 C 891.909 -1.74152 -5.60257 0
M  V30 9614 C 894.261 -2.17734 -5.93948 0
M  V30 9615 C 892.925 -2.49061 -6.19294 0
M  V30 9616 H 892.195 0.120706 -0.731103 0
M  V30 9617 H 894.842 -0.399904 -1.87278 0
M  V30 9618 H 893.147 1.55681 -3.59542 0
M  V30 9619 H 894.844 1.2333 -3.81563 0
M  V30 9620 H 891.434 -0.1216 -4.28427 0
M  V30 9621 H 895.618 -0.900119 -4.88069 0
M  V30 9622 H 890.874 -1.98915 -5.78137 0
M  V30 9623 H 895.048 -2.76553 -6.39133 0
M  V30 9624 H 892.675 -3.31602 -6.84064 0
M  V30 9625 N 894.251 1.57596 -0.0117121 0
M  V30 9626 C 895.181 2.12188 0.9746 0
M  V30 9627 C 896.162 1.03379 1.35081 0
M  V30 9628 O 897.347 1.31123 1.4325 0
M  V30 9629 C 894.477 2.63477 2.26268 0
M  V30 9630 C 893.431 3.76917 2.02774 0
M  V30 9631 C 892.757 4.14566 3.37697 0
M  V30 9632 C 894.057 5.03715 1.38089 0
M  V30 9633 H 895.751 2.9485 0.520007 0
M  V30 9634 H 893.297 1.41836 0.248685 0
M  V30 9635 H 895.25 3.00299 2.95633 0
M  V30 9636 H 893.974 1.77953 2.73862 0
M  V30 9637 H 892.633 3.40507 1.35832 0
M  V30 9638 H 892.281 3.26048 3.83016 0
M  V30 9639 H 891.981 4.91 3.22789 0
M  V30 9640 H 893.505 4.53956 4.08358 0
M  V30 9641 H 894.919 5.38233 1.97428 0
M  V30 9642 H 893.316 5.85032 1.33634 0
M  V30 9643 H 894.386 4.83624 0.351575 0
M  V30 9644 N 895.729 -0.261212 1.5542 0
M  V30 9645 C 896.662 -1.34906 1.84054 0
M  V30 9646 C 897.64 -1.47024 0.694466 0
M  V30 9647 O 898.824 -1.63463 0.938719 0
M  V30 9648 C 895.951 -2.7242 2.01259 0
M  V30 9649 C 894.997 -2.77526 3.23855 0
M  V30 9650 S 895.83 -2.35578 4.80898 0
M  V30 9651 C 896.986 -3.75045 5.01091 0
M  V30 9652 H 897.219 -1.10416 2.76035 0
M  V30 9653 H 894.752 -0.461461 1.47343 0
M  V30 9654 H 896.71 -3.51606 2.11857 0
M  V30 9655 H 895.371 -2.94155 1.10145 0
M  V30 9656 H 894.564 -3.78483 3.32816 0
M  V30 9657 H 894.166 -2.0637 3.11909 0
M  V30 9658 H 896.458 -4.7042 4.87556 0
M  V30 9659 H 897.401 -3.71027 6.03112 0
M  V30 9660 H 897.809 -3.66894 4.29009 0
M  V30 9661 N 897.207 -1.48554 -0.526253 0
M  V30 9662 C 898.137 -1.66252 -1.63959 0
M  V30 9663 C 899.118 -0.511351 -1.62232 0
M  V30 9664 O 900.303 -0.744322 -1.7937 0
M  V30 9665 C 897.433 -1.70556 -3.02536 0
M  V30 9666 C 896.387 -2.8521 -3.19123 0
M  V30 9667 C 895.713 -2.74606 -4.58798 0
M  V30 9668 C 897.013 -4.26463 -3.0154 0
M  V30 9669 H 898.707 -2.59459 -1.49404 0
M  V30 9670 H 896.253 -1.24862 -0.717326 0
M  V30 9671 H 898.206 -1.81524 -3.80298 0
M  V30 9672 H 896.93 -0.739297 -3.18123 0
M  V30 9673 H 895.589 -2.73802 -2.43779 0
M  V30 9674 H 895.237 -1.75941 -4.71226 0
M  V30 9675 H 894.937 -3.51544 -4.70841 0
M  V30 9676 H 896.461 -2.87548 -5.38655 0
M  V30 9677 H 897.875 -4.38685 -3.69091 0
M  V30 9678 H 896.272 -5.04428 -3.25073 0
M  V30 9679 H 897.342 -4.42667 -1.97925 0
M  V30 9680 N 898.685 0.775411 -1.37205 0
M  V30 9681 C 899.913 1.56446 -1.35397 0
M  V30 9682 C 900.328 1.887 0.0615437 0
M  V30 9683 O 899.685 1.51178 1.02233 0
M  V30 9684 C 899.736 2.87697 -2.18889 0
M  V30 9685 O 899.457 2.56828 -3.54924 0
M  V30 9686 C 900.958 3.81944 -2.25019 0
M  V30 9687 H 898.178 0.484792 -0.463916 0
M  V30 9688 H 900.722 0.961346 -1.80495 0
M  V30 9689 H 898.877 3.44442 -1.7731 0
M  V30 9690 H 899.291 3.40851 -3.98649 0
M  V30 9691 H 900.765 4.71055 -2.87769 0
M  V30 9692 H 901.242 4.20811 -1.25757 0
M  V30 9693 H 901.848 3.3113 -2.66895 0
M  V30 9694 N 900.163 1.21714 1.00117 0
M  V30 9695 C 901.093 1.00397 2.10815 0
M  V30 9696 C 902.074 -0.0723502 1.69946 0
M  V30 9697 O 903.259 0.0882398 1.93999 0
M  V30 9698 C 900.389 0.572001 3.42557 0
M  V30 9699 C 899.343 1.59331 3.97237 0
M  V30 9700 C 898.669 1.01746 5.2493 0
M  V30 9701 C 899.969 2.98117 4.28863 0
M  V30 9702 H 901.663 1.92983 2.28906 0
M  V30 9703 H 899.209 0.929273 1.10002 0
M  V30 9704 H 901.162 0.410018 4.19401 0
M  V30 9705 H 899.886 -0.38951 3.24269 0
M  V30 9706 H 898.545 1.74293 3.22518 0
M  V30 9707 H 898.193 0.0475491 5.02978 0
M  V30 9708 H 897.893 1.69969 5.62481 0
M  V30 9709 H 899.417 0.866881 6.04415 0
M  V30 9710 H 900.831 2.86578 4.96534 0
M  V30 9711 H 899.228 3.63389 4.77565 0
M  V30 9712 H 900.298 3.48674 3.36979 0
M  V30 9713 N 901.641 -1.19671 1.02551 0
M  V30 9714 C 902.571 -2.25009 0.623965 0
M  V30 9715 C 903.552 -1.66129 -0.36538 0
M  V30 9716 O 904.737 -1.92599 -0.248842 0
M  V30 9717 C 901.867 -3.47287 -0.0294869 0
M  V30 9718 C 900.821 -4.18818 0.881781 0
M  V30 9719 C 900.147 -5.34618 0.0936189 0
M  V30 9720 C 901.447 -4.73986 2.19396 0
M  V30 9721 H 903.141 -2.58851 1.50454 0
M  V30 9722 H 900.687 -1.24425 0.724872 0
M  V30 9723 H 902.64 -4.20168 -0.322016 0
M  V30 9724 H 901.364 -3.12635 -0.944838 0
M  V30 9725 H 900.023 -3.47815 1.15845 0
M  V30 9726 H 899.671 -4.9621 -0.823661 0
M  V30 9727 H 899.371 -5.83409 0.700568 0
M  V30 9728 H 900.895 -6.10297 -0.192249 0
M  V30 9729 H 902.309 -5.38639 1.96319 0
M  V30 9730 H 900.706 -5.3325 2.75254 0
M  V30 9731 H 901.776 -3.92238 2.85092 0
M  V30 9732 N 903.119 -0.802921 -1.35613 0
M  V30 9733 C 904.049 -0.225131 -2.32412 0
M  V30 9734 C 905.03 0.647383 -1.57299 0
M  V30 9735 O 906.215 0.578414 -1.85386 0
M  V30 9736 C 903.345 0.630085 -3.41537 0
M  V30 9737 C 902.299 -0.143635 -4.27759 0
M  V30 9738 C 901.625 0.833046 -5.28171 0
M  V30 9739 C 902.925 -1.34054 -5.04804 0
M  V30 9740 H 904.619 -1.03385 -2.80984 0
M  V30 9741 H 902.165 -0.498593 -1.35093 0
M  V30 9742 H 904.118 1.04433 -4.08254 0
M  V30 9743 H 902.842 1.47165 -2.91565 0
M  V30 9744 H 901.501 -0.539015 -3.62616 0
M  V30 9745 H 901.149 1.67001 -4.74468 0
M  V30 9746 H 900.849 0.319697 -5.8673 0
M  V30 9747 H 902.373 1.24558 -5.97761 0
M  V30 9748 H 903.787 -1.00136 -5.64487 0
M  V30 9749 H 902.184 -1.78812 -5.72841 0
M  V30 9750 H 903.254 -2.12906 -4.35659 0
M  V30 9751 N 904.597 1.47463 -0.556102 0
M  V30 9752 C 905.843 2.02775 -0.0316806 0
M  V30 9753 C 906.176 1.42967 1.3143 0
M  V30 9754 O 905.451 0.584847 1.85499 0
M  V30 9755 C 905.734 3.60046 0.0625742 0
M  V30 9756 C 905.587 4.30288 -1.31043 0
M  V30 9757 C 906.906 4.33195 0.776553 0
M  V30 9758 H 904.025 0.736886 -0.0129869 0
M  V30 9759 H 906.667 1.75904 -0.718177 0
M  V30 9760 H 904.817 3.83071 0.647231 0
M  V30 9761 H 906.489 4.18607 -1.9382 0
M  V30 9762 H 904.732 3.90685 -1.8854 0
M  V30 9763 H 905.403 5.38861 -1.1972 0
M  V30 9764 H 907.879 4.15156 0.280147 0
M  V30 9765 H 906.755 5.42869 0.81146 0
M  V30 9766 H 907.016 4.02336 1.83244 0
M  V30 9767 N 906.075 0.2925 1.54862 0
M  V30 9768 C 907.038 -0.574423 2.21885 0
M  V30 9769 C 908.038 -1.06791 1.20218 0
M  V30 9770 O 909.228 -0.9653 1.45009 0
M  V30 9771 C 906.36 -1.79438 2.89853 0
M  V30 9772 H 907.553 0.0110319 2.99898 0
M  V30 9773 H 905.106 0.043256 1.5624 0
M  V30 9774 H 905.841 -2.4199 2.15897 0
M  V30 9775 H 905.626 -1.44827 3.64373 0
M  V30 9776 H 907.116 -2.41048 3.41007 0
M  V30 9777 N 907.553 -1.57587 0.0200696 0
M  V30 9778 C 908.783 -1.95435 -0.669991 0
M  V30 9779 C 909.191 -0.894647 -1.66711 0
M  V30 9780 O 908.534 0.133009 -1.83218 0
M  V30 9781 C 908.596 -3.29379 -1.44047 0
M  V30 9782 C 908.26 -4.53008 -0.602691 0
M  V30 9783 C 909.257 -5.19766 0.118188 0
M  V30 9784 C 906.942 -4.99359 -0.542754 0
M  V30 9785 C 908.936 -6.31187 0.887774 0
M  V30 9786 C 906.623 -6.10665 0.230543 0
M  V30 9787 C 907.621 -6.76438 0.944522 0
M  V30 9788 O 907.309 -7.85608 1.70516 0
M  V30 9789 H 907.041 -0.648681 -0.190234 0
M  V30 9790 H 909.595 -2.05269 0.0733838 0
M  V30 9791 H 907.825 -3.1601 -2.22878 0
M  V30 9792 H 909.514 -3.52194 -2.01777 0
M  V30 9793 H 910.28 -4.84932 0.0811604 0
M  V30 9794 H 906.159 -4.47976 -1.08804 0
M  V30 9795 H 909.703 -6.82458 1.44558 0
M  V30 9796 H 905.6 -6.44938 0.26932 0
M  V30 9797 H 906.368 -8.02228 1.62398 0
M  V30 9798 N 909.032 0.252966 -1.55557 0
M  V30 9799 C 909.965 1.33928 -1.84766 0
M  V30 9800 C 910.943 1.46653 -0.702254 0
M  V30 9801 O 912.127 1.62963 -0.947375 0
M  V30 9802 C 909.254 2.71348 -2.02701 0
M  V30 9803 C 908.3 2.75804 -3.25322 0
M  V30 9804 S 909.133 2.33025 -4.82141 0
M  V30 9805 C 910.289 3.72382 -5.03073 0
M  V30 9806 H 910.522 1.08951 -2.76617 0
M  V30 9807 H 908.055 0.45364 -1.47585 0
M  V30 9808 H 910.013 3.50478 -2.13718 0
M  V30 9809 H 908.674 2.93566 -1.11703 0
M  V30 9810 H 907.867 3.76713 -3.34819 0
M  V30 9811 H 907.469 2.04713 -3.12999 0
M  V30 9812 H 909.761 4.67828 -4.90044 0
M  V30 9813 H 910.704 3.67824 -6.05071 0
M  V30 9814 H 911.112 3.64614 -4.30949 0
M  V30 9815 N 910.51 1.48831 0.518367 0
M  V30 9816 C 911.756 1.57672 1.27543 0
M  V30 9817 C 912.089 0.254915 1.9252 0
M  V30 9818 O 911.364 -0.740107 1.79868 0
M  V30 9819 C 911.647 2.72345 2.35585 0
M  V30 9820 C 911.5 4.14267 1.75224 0
M  V30 9821 C 912.819 2.82726 3.37274 0
M  V30 9822 H 909.938 0.573926 0.462361 0
M  V30 9823 H 912.58 1.8105 0.576267 0
M  V30 9824 H 910.73 2.52543 2.95219 0
M  V30 9825 H 912.402 4.45539 1.19551 0
M  V30 9826 H 910.645 4.20724 1.05706 0
M  V30 9827 H 911.316 4.90345 2.53507 0
M  V30 9828 H 913.792 3.00699 2.8761 0
M  V30 9829 H 912.668 3.6467 4.10252 0
M  V30 9830 H 912.929 1.9136 3.9854 0
M  V30 9831 N 911.988 -0.768124 1.37614 0
M  V30 9832 C 913.234 -1.52907 1.33219 0
M  V30 9833 C 913.567 -1.94026 -0.0821218 0
M  V30 9834 O 912.842 -1.64345 -1.04023 0
M  V30 9835 C 913.125 -2.79164 2.27463 0
M  V30 9836 C 912.978 -2.44276 3.7769 0
M  V30 9837 C 914.297 -3.81115 2.20089 0
M  V30 9838 H 911.416 -0.554712 0.485246 0
M  V30 9839 H 914.058 -0.880911 1.68345 0
M  V30 9840 H 912.208 -3.34472 1.97639 0
M  V30 9841 H 913.88 -1.94855 4.18126 0
M  V30 9842 H 912.123 -1.76925 3.96081 0
M  V30 9843 H 912.794 -3.34544 4.39072 0
M  V30 9844 H 915.27 -3.35311 2.46386 0
M  V30 9845 H 914.146 -4.67174 2.88166 0
M  V30 9846 H 914.407 -4.25644 1.19498 0
M  V30 9847 N 913.466 -1.22244 -0.994698 0
M  V30 9848 C 914.877 -1.043 -1.5485 0
M  V30 9849 C 915.228 0.394102 -1.92201 0
M  V30 9850 O 914.353 1.27883 -1.74571 0
M  V30 9851 C 914.948 -1.88708 -2.8138 0
M  V30 9852 C 913.507 -1.75067 -3.3321 0
M  V30 9853 C 912.654 -1.85286 -2.06312 0
M  V30 9854 H 915.605 -1.36115 -0.815988 0
M  V30 9855 H 915.626 -1.40342 -3.53673 0
M  V30 9856 H 915.138 -2.93296 -2.54164 0
M  V30 9857 H 913.239 -0.732047 -3.65338 0
M  V30 9858 H 913.352 -2.57632 -4.03934 0
M  V30 9859 H 911.716 -1.28706 -2.19788 0
M  V30 9860 H 912.499 -2.91401 -1.81494 0
M  V30 9861 N 914.944 1.19125 -1.03184 0
M  V30 9862 C 916.19 1.89163 -0.731111 0
M  V30 9863 C 916.523 1.79604 0.738662 0
M  V30 9864 O 915.798 1.19037 1.53819 0
M  V30 9865 C 916.081 3.39986 -1.18666 0
M  V30 9866 C 915.934 3.58401 -2.71788 0
M  V30 9867 C 917.253 4.33316 -0.769772 0
M  V30 9868 H 914.372 0.686908 -0.267069 0
M  V30 9869 H 917.014 1.40205 -1.28229 0
M  V30 9870 H 915.164 3.81813 -0.717736 0
M  V30 9871 H 916.836 3.25727 -3.26649 0
M  V30 9872 H 915.079 3.01355 -3.12038 0
M  V30 9873 H 915.75 4.64189 -2.98719 0
M  V30 9874 H 918.226 3.9922 -1.17314 0
M  V30 9875 H 917.102 5.37427 -1.11637 0
M  V30 9876 H 917.363 4.40884 0.327681 0
M  V30 9877 N 916.422 0.810101 1.35185 0
M  V30 9878 C 917.652 0.404109 2.02609 0
M  V30 9879 C 918.06 -0.990748 1.61186 0
M  V30 9880 O 917.403 -1.65038 0.80674 0
M  V30 9881 C 917.465 0.412047 3.57131 0
M  V30 9882 C 917.129 1.75802 4.21832 0
M  V30 9883 C 918.126 2.71687 4.43263 0
M  V30 9884 C 915.811 2.04299 4.58876 0
M  V30 9885 C 917.805 3.9425 5.00845 0
M  V30 9886 C 915.492 3.27125 5.16171 0
M  V30 9887 C 916.49 4.21918 5.37098 0
M  V30 9888 O 916.178 5.42576 5.93184 0
M  V30 9889 H 915.91 0.161914 0.656323 0
M  V30 9890 H 918.464 1.09605 1.73712 0
M  V30 9891 H 916.694 -0.336509 3.85233 0
M  V30 9892 H 918.383 0.0278817 4.0589 0
M  V30 9893 H 919.149 2.50964 4.15021 0
M  V30 9894 H 915.028 1.31324 4.41899 0
M  V30 9895 H 918.572 4.68251 5.17094 0
M  V30 9896 H 914.469 3.47718 5.43841 0
M  V30 9897 H 915.237 5.43921 6.11631 0
M  V30 9898 N 917.9 -1.47166 0.563914 0
M  V30 9899 C 919.146 -2.02756 0.0424338 0
M  V30 9900 C 919.479 -1.43662 -1.3067 0
M  V30 9901 O 918.754 -0.594676 -1.85186 0
M  V30 9902 C 919.037 -3.60074 -0.0434793 0
M  V30 9903 C 918.89 -4.29587 1.33323 0
M  V30 9904 C 920.209 -4.336 -0.753568 0
M  V30 9905 H 917.328 -0.736806 0.0168946 0
M  V30 9906 H 919.97 -1.75521 0.727496 0
M  V30 9907 H 918.12 -3.83409 -0.626906 0
M  V30 9908 H 919.792 -4.17573 1.96037 0
M  V30 9909 H 918.035 -3.8968 1.9061 0
M  V30 9910 H 918.706 -5.38218 1.22576 0
M  V30 9911 H 921.182 -4.15299 -0.258126 0
M  V30 9912 H 920.058 -5.43291 -0.782659 0
M  V30 9913 H 920.319 -4.03302 -1.81108 0
M  V30 9914 N 919.378 -0.300708 -1.54705 0
M  V30 9915 C 920.626 0.308044 -1.99739 0
M  V30 9916 C 920.947 1.54433 -1.19061 0
M  V30 9917 O 920.217 1.93794 -0.286507 0
M  V30 9918 H 918.797 0.116811 -0.73781 0
M  V30 9919 H 921.459 -0.41197 -1.90496 0
M  V30 9920 H 920.555 0.580287 -3.06658 0
M  V30 9921 N 920.856 1.57574 -0.0284266 0
M  V30 9922 C 922.267 1.79585 0.510502 0
M  V30 9923 C 922.618 0.938625 1.72291 0
M  V30 9924 O 921.743 0.14884 2.15888 0
M  V30 9925 C 922.338 3.25703 0.932912 0
M  V30 9926 C 920.897 3.48711 1.41696 0
M  V30 9927 C 920.044 2.74665 0.381356 0
M  V30 9928 H 922.995 1.56647 -0.254464 0
M  V30 9929 H 923.016 3.35376 1.79731 0
M  V30 9930 H 922.528 3.88067 0.0503036 0
M  V30 9931 H 920.629 2.91597 2.31952 0
M  V30 9932 H 920.742 4.57423 1.42481 0
M  V30 9933 H 919.106 2.40123 0.8493 0
M  V30 9934 H 919.889 3.39745 -0.492775 0
M  V30 9935 N 922.334 -0.244713 1.55689 0
M  V30 9936 C 923.745 -0.813603 1.6804 0
M  V30 9937 C 924.096 -1.85936 0.626281 0
M  V30 9938 O 923.221 -2.15206 -0.227038 0
M  V30 9939 C 923.816 -1.48252 3.04642 0
M  V30 9940 C 922.375 -1.99908 3.18926 0
M  V30 9941 C 921.522 -0.850958 2.6392 0
M  V30 9942 H 924.473 -0.0204805 1.58687 0
M  V30 9943 H 924.494 -2.35062 2.99209 0
M  V30 9944 H 924.006 -0.721164 3.81341 0
M  V30 9945 H 922.107 -2.78918 2.47054 0
M  V30 9946 H 922.22 -2.19497 4.25862 0
M  V30 9947 H 920.584 -1.25206 2.21801 0
M  V30 9948 H 921.367 -0.10265 3.43146 0
M  V30 9949 N 923.813 -1.49104 -0.510467 0
M  V30 9950 C 924.76 -1.65074 -1.61305 0
M  V30 9951 C 925.73 -0.492362 -1.58635 0
M  V30 9952 O 926.915 -0.718241 -1.76765 0
M  V30 9953 C 924.055 -1.71457 -2.99493 0
M  V30 9954 C 923.168 -2.98536 -3.12251 0
M  V30 9955 C 922.303 -2.95957 -4.41116 0
M  V30 9956 C 921.342 -4.17655 -4.47471 0
M  V30 9957 N 920.479 -4.13041 -5.67751 0
M  V30 9958 H 925.319 -2.59222 -1.46996 0
M  V30 9959 H 922.856 -1.28535 -0.715346 0
M  V30 9960 H 924.814 -1.7314 -3.79577 0
M  V30 9961 H 923.444 -0.807834 -3.12528 0
M  V30 9962 H 922.496 -3.06509 -2.25292 0
M  V30 9963 H 923.808 -3.88527 -3.12807 0
M  V30 9964 H 922.962 -2.96149 -5.2951 0
M  V30 9965 H 921.701 -2.03728 -4.4311 0
M  V30 9966 H 920.706 -4.17717 -3.57481 0
M  V30 9967 H 921.931 -5.11066 -4.472 0
M  V30 9968 H 919.877 -3.23643 -5.70606 0
M  V30 9969 H 919.794 -4.96757 -5.69884 0
M  V30 9970 H 921.062 -4.17322 -6.58379 0
M  V30 9971 N 925.291 0.760815 -1.38019 0
M  V30 9972 C 926.537 1.52198 -1.34028 0
M  V30 9973 C 926.87 1.94067 0.0718309 0
M  V30 9974 O 926.145 1.64895 1.0315 0
M  V30 9975 C 926.428 2.77954 -2.2894 0
M  V30 9976 C 926.281 2.42269 -3.7898 0
M  V30 9977 C 927.6 3.79943 -2.22107 0
M  V30 9978 H 924.719 0.552131 -0.488181 0
M  V30 9979 H 927.361 0.871971 -1.6881 0
M  V30 9980 H 925.511 3.33419 -1.9941 0
M  V30 9981 H 927.183 1.92635 -4.19153 0
M  V30 9982 H 925.426 1.74822 -3.97014 0
M  V30 9983 H 926.097 3.32211 -4.4084 0
M  V30 9984 H 928.573 3.34 -2.4816 0
M  V30 9985 H 927.449 4.6564 -2.90639 0
M  V30 9986 H 927.71 4.25004 -1.21753 0
M  V30 9987 N 926.769 1.22769 0.988202 0
M  V30 9988 C 927.994 1.08239 1.76915 0
M  V30 9989 C 928.419 -0.362519 1.84574 0
M  V30 9990 O 927.777 -1.26202 1.30165 0
M  V30 9991 C 927.825 1.70363 3.17819 0
M  V30 9992 O 926.929 0.960484 4.01059 0
M  V30 9993 H 926.27 0.379872 0.544604 0
M  V30 9994 H 928.8 1.62663 1.24104 0
M  V30 9995 H 928.81 1.7528 3.6843 0
M  V30 9996 H 927.485 2.75505 3.1156 0
M  V30 9997 H 926.062 0.987667 3.59582 0
M  V30 9998 N 928.247 -1.18576 1.03814 0
M  V30 9999 C 929.475 -1.92437 0.759966 0
M  V30 10000 C 929.89 -1.76031 -0.682526 0
M  V30 10001 O 929.247 -1.08829 -1.46501 0
M  V30 10002 C 929.298 -3.43923 1.11351 0
M  V30 10003 O 929.019 -3.5981 2.49937 0
M  V30 10004 C 930.52 -4.34888 0.859472 0
M  V30 10005 H 927.74 -0.610998 0.277349 0
M  V30 10006 H 930.284 -1.50448 1.38512 0
M  V30 10007 H 928.439 -3.83711 0.533362 0
M  V30 10008 H 928.853 -4.53569 2.63393 0
M  V30 10009 H 930.327 -5.39744 1.15672 0
M  V30 10010 H 930.804 -4.38717 -0.205839 0
M  V30 10011 H 931.41 -4.00795 1.42279 0
M  V30 10012 N 929.725 -0.817259 -1.34754 0
M  V30 10013 C 930.965 -0.408429 -2.00278 0
M  V30 10014 C 931.329 1.00818 -1.634 0
M  V30 10015 O 932.53 1.51959 -2.21725 0
M  V30 10016 C 930.801 -0.598219 -3.52358 0
M  V30 10017 S 932.36 -0.281395 -4.37897 0
M  V30 10018 H 929.178 -0.154587 -0.693991 0
M  V30 10019 H 931.78 -1.06184 -1.6415 0
M  V30 10020 H 930.484 -1.62901 -3.76685 0
M  V30 10021 H 930.015 0.0701299 -3.93337 0
M  V30 10022 H 932.03 0.907024 -4.8784 0
M  V30 10023 N 931.203 1.46865 -0.571711 0
M  V30 10024 C 932.133 2.3298 0.155795 0
M  V30 10025 C 933.114 1.44678 0.894553 0
M  V30 10026 O 934.299 1.73513 0.872176 0
M  V30 10027 C 931.429 3.26745 1.17708 0
M  V30 10028 C 930.383 4.24401 0.553863 0
M  V30 10029 C 929.709 5.07595 1.68083 0
M  V30 10030 C 931.009 5.19884 -0.501827 0
M  V30 10031 H 932.703 2.94056 -0.563176 0
M  V30 10032 H 930.249 1.41402 -0.27228 0
M  V30 10033 H 932.202 3.85838 1.6943 0
M  V30 10034 H 930.926 2.63753 1.92618 0
M  V30 10035 H 929.585 3.66554 0.057815 0
M  V30 10036 H 929.233 4.40996 2.41933 0
M  V30 10037 H 928.933 5.73722 1.26953 0
M  V30 10038 H 930.457 5.6955 2.20103 0
M  V30 10039 H 931.871 5.73257 -0.0701057 0
M  V30 10040 H 930.268 5.94293 -0.832815 0
M  V30 10041 H 931.338 4.64482 -1.39229 0
M  V30 10042 N 932.681 0.308908 1.54543 0
M  V30 10043 C 933.921 -0.298811 2.02204 0
M  V30 10044 C 934.285 -1.50484 1.19242 0
M  V30 10045 O 935.486 -2.18445 1.56637 0
M  V30 10046 C 933.757 -0.638849 3.51644 0
M  V30 10047 S 935.316 -1.22831 4.21258 0
M  V30 10048 H 932.134 -0.0912638 0.705118 0
M  V30 10049 H 934.736 0.438622 1.90516 0
M  V30 10050 H 933.44 0.24726 4.09654 0
M  V30 10051 H 932.971 -1.40687 3.67384 0
M  V30 10052 H 934.986 -2.51579 4.27694 0
M  V30 10053 N 934.159 -1.57557 0.0367827 0
M  V30 10054 C 935.575 -1.56366 -0.31967 0
M  V30 10055 C 935.775 -1.04313 -1.72398 0
M  V30 10056 O 934.831 -0.693278 -2.42796 0
M  V30 10057 C 936.144 -3.00267 -0.161274 0
M  V30 10058 C 937.692 -3.12128 -0.233464 0
M  V30 10059 C 938.167 -4.57882 -0.103767 0
M  V30 10060 N 939.658 -4.62922 -0.160506 0
M  V30 10061 C 940.393 -5.73338 -0.0840493 0
M  V30 10062 N 939.889 -6.92786 0.043933 0
M  V30 10063 N 941.682 -5.61929 -0.138592 0
M  V30 10064 H 933.833 -1.8972 0.954996 0
M  V30 10065 H 936.096 -0.87304 0.369467 0
M  V30 10066 H 935.802 -3.42331 0.80639 0
M  V30 10067 H 935.676 -3.65599 -0.928304 0
M  V30 10068 H 938.063 -2.69972 -1.19159 0
M  V30 10069 H 938.144 -2.49503 0.564075 0
M  V30 10070 H 937.788 -5.0072 0.850973 0
M  V30 10071 H 937.718 -5.18496 -0.920268 0
M  V30 10072 H 940.209 -3.7701 -0.259257 0
M  V30 10073 H 940.522 -7.72741 0.095372 0
M  V30 10074 H 938.867 -6.94955 0.0788211 0
M  V30 10075 H 942.058 -4.67499 -0.237031 0
M  V30 10076 H 942.231 -6.47956 -0.075546 0
M  V30 10077 N 935.637 0.236453 -1.55816 0
M  V30 10078 C 936.569 1.31602 -1.87653 0
M  V30 10079 C 937.582 1.43782 -0.763584 0
M  V30 10080 O 938.771 1.44945 -1.04178 0
M  V30 10081 C 935.871 2.69342 -2.05689 0
M  V30 10082 C 935.044 2.79298 -3.36617 0
M  V30 10083 C 934.103 3.97952 -3.44268 0
M  V30 10084 O 933.129 3.86989 -4.17406 0
M  V30 10085 N 934.331 5.11594 -2.74321 0
M  V30 10086 H 937.096 1.04623 -2.80845 0
M  V30 10087 H 934.657 0.426534 -1.5618 0
M  V30 10088 H 936.649 3.47074 -2.08138 0
M  V30 10089 H 935.219 2.88984 -1.19192 0
M  V30 10090 H 934.439 1.8816 -3.46395 0
M  V30 10091 H 935.727 2.82908 -4.22895 0
M  V30 10092 H 935.125 5.23394 -2.14651 0
M  V30 10093 H 933.682 5.87422 -2.8245 0
M  V30 10094 N 937.115 1.49373 0.502552 0
M  V30 10095 C 938.078 1.65413 1.58654 0
M  V30 10096 C 939.078 0.526003 1.51953 0
M  V30 10097 O 940.268 0.792421 1.55133 0
M  V30 10098 C 937.4 1.65005 2.98306 0
M  V30 10099 H 938.593 2.62095 1.45762 0
M  V30 10100 H 936.146 1.38381 0.726672 0
M  V30 10101 H 936.881 0.699014 3.16677 0
M  V30 10102 H 936.666 2.46931 3.04578 0
M  V30 10103 H 938.156 1.79477 3.77065 0
M  V30 10104 N 938.594 -0.753485 1.38421 0
M  V30 10105 C 939.524 -1.8808 1.38377 0
M  V30 10106 C 940.505 -1.68258 0.249664 0
M  V30 10107 O 941.69 -1.88848 0.45276 0
M  V30 10108 C 938.82 -3.25608 1.20818 0
M  V30 10109 C 937.774 -3.60032 2.31433 0
M  V30 10110 C 937.1 -4.96297 1.9898 0
M  V30 10111 C 938.4 -3.64898 3.73694 0
M  V30 10112 H 940.094 -1.88375 2.32713 0
M  V30 10113 H 937.64 -0.90489 1.12017 0
M  V30 10114 H 939.593 -4.04127 1.19412 0
M  V30 10115 H 938.317 -3.25793 0.229433 0
M  V30 10116 H 936.976 -2.83831 2.32025 0
M  V30 10117 H 936.624 -4.93043 0.995889 0
M  V30 10118 H 936.324 -5.20298 2.73063 0
M  V30 10119 H 937.848 -5.77196 1.99193 0
M  V30 10120 H 939.262 -4.33531 3.75132 0
M  V30 10121 H 937.659 -4.00407 4.46983 0
M  V30 10122 H 938.729 -2.65124 4.06002 0
M  V30 10123 N 940.072 -1.23292 -0.981677 0
M  V30 10124 C 941.319 -1.06424 -1.72279 0
M  V30 10125 C 941.647 0.399055 -1.90362 0
M  V30 10126 O 940.902 1.31181 -1.45224 0
M  V30 10127 C 941.201 -1.73339 -3.12551 0
M  V30 10128 C 940.867 -3.23256 -3.14351 0
M  V30 10129 C 939.529 -3.64159 -3.14549 0
M  V30 10130 C 941.881 -4.1916 -3.09765 0
M  V30 10131 C 939.209 -4.99428 -3.07877 0
M  V30 10132 C 941.561 -5.54419 -3.04635 0
M  V30 10133 C 940.225 -5.94688 -3.03154 0
M  V30 10134 H 939.495 -0.389434 -0.630415 0
M  V30 10135 H 942.142 -1.53208 -1.1489 0
M  V30 10136 H 940.447 -1.18911 -3.73319 0
M  V30 10137 H 942.144 -1.57767 -3.68661 0
M  V30 10138 H 938.734 -2.90693 -3.14953 0
M  V30 10139 H 942.918 -3.88569 -3.08753 0
M  V30 10140 H 938.174 -5.29844 -3.05083 0
M  V30 10141 H 942.348 -6.28448 -3.00043 0
M  V30 10142 H 939.975 -6.99468 -2.97739 0
M  V30 10143 N 941.55 1.18024 -1.04442 0
M  V30 10144 C 942.961 1.69749 -0.777312 0
M  V30 10145 C 943.312 1.83234 0.701399 0
M  V30 10146 O 942.437 1.51452 1.54568 0
M  V30 10147 C 943.032 3.08321 -1.40441 0
M  V30 10148 C 941.591 3.57243 -1.18553 0
M  V30 10149 C 940.738 2.33695 -1.49271 0
M  V30 10150 H 943.689 1.02647 -1.21035 0
M  V30 10151 H 943.71 3.71787 -0.809628 0
M  V30 10152 H 943.222 2.98474 -2.48062 0
M  V30 10153 H 941.323 3.72379 -0.128221 0
M  V30 10154 H 941.436 4.40451 -1.88519 0
M  V30 10155 H 939.8 2.37792 -0.912526 0
M  V30 10156 H 940.583 2.26464 -2.5801 0
M  V30 10157 N 943.028 0.824394 1.34319 0
M  V30 10158 C 943.958 0.262077 2.32025 0
M  V30 10159 C 944.939 -0.622277 1.58309 0
M  V30 10160 O 946.124 -0.548848 1.86283 0
M  V30 10161 C 943.254 -0.57567 3.42496 0
M  V30 10162 C 942.208 0.21167 4.27476 0
M  V30 10163 C 941.534 -0.748913 5.29429 0
M  V30 10164 C 942.834 1.42068 5.02607 0
M  V30 10165 H 944.528 1.07842 2.79304 0
M  V30 10166 H 942.074 0.520022 1.34282 0
M  V30 10167 H 944.027 -0.979251 4.09864 0
M  V30 10168 H 942.751 -1.42508 2.93869 0
M  V30 10169 H 941.41 0.596636 3.61712 0
M  V30 10170 H 941.058 -1.59432 4.77064 0
M  V30 10171 H 940.758 -0.226313 5.87164 0
M  V30 10172 H 942.282 -1.15032 5.99667 0
M  V30 10173 H 943.696 1.09103 5.62823 0
M  V30 10174 H 942.093 1.87903 5.69923 0
M  V30 10175 H 943.163 2.1981 4.32217 0
M  V30 10176 N 944.506 -1.46559 0.579492 0
M  V30 10177 C 945.746 -2.04292 0.0664837 0
M  V30 10178 C 946.11 -1.44161 -1.26814 0
M  V30 10179 O 947.311 -1.93074 -1.87018 0
M  V30 10180 C 945.582 -3.574 -0.00167254 0
M  V30 10181 S 947.141 -4.36408 -0.457572 0
M  V30 10182 H 943.959 -0.710092 0.035913 0
M  V30 10183 H 946.561 -1.79644 0.771263 0
M  V30 10184 H 945.265 -3.98683 0.973666 0
M  V30 10185 H 944.796 -3.8658 -0.729321 0
M  V30 10186 H 946.811 -4.65695 -1.71296 0
M  V30 10187 N 945.984 -0.3171 -1.54377 0
M  V30 10188 C 947.231 0.28741 -2.0045 0
M  V30 10189 C 947.559 1.52648 -1.20535 0
M  V30 10190 O 946.814 1.93775 -0.273831 0
M  V30 10191 C 947.113 0.672917 -3.51008 0
M  V30 10192 C 946.779 -0.466245 -4.48483 0
M  V30 10193 C 945.441 -0.778933 -4.74854 0
M  V30 10194 C 947.793 -1.23176 -5.06436 0
M  V30 10195 C 945.121 -1.85997 -5.56437 0
M  V30 10196 C 947.473 -2.30284 -5.89196 0
M  V30 10197 C 946.137 -2.62141 -6.13872 0
M  V30 10198 H 945.407 0.105171 -0.733499 0
M  V30 10199 H 948.054 -0.439538 -1.86388 0
M  V30 10200 H 946.359 1.48019 -3.62764 0
M  V30 10201 H 948.056 1.15209 -3.84094 0
M  V30 10202 H 944.646 -0.212449 -4.28073 0
M  V30 10203 H 948.83 -1.00344 -4.8605 0
M  V30 10204 H 944.086 -2.11134 -5.73788 0
M  V30 10205 H 948.26 -2.90048 -6.33123 0
M  V30 10206 H 945.887 -3.46037 -6.76877 0
M  V30 10207 N 947.462 1.57535 -0.0451378 0
M  V30 10208 C 948.69 1.96761 0.639742 0
M  V30 10209 C 949.105 0.922405 1.64734 0
M  V30 10210 O 948.462 -0.0940535 1.82257 0
M  V30 10211 C 948.513 3.36066 1.33199 0
M  V30 10212 O 948.234 4.36579 0.364757 0
M  V30 10213 C 949.735 3.90015 2.1072 0
M  V30 10214 H 946.955 0.64769 0.175324 0
M  V30 10215 H 949.499 2.04206 -0.109651 0
M  V30 10216 H 947.654 3.2979 2.03266 0
M  V30 10217 H 948.068 5.17432 0.858168 0
M  V30 10218 H 949.542 4.89785 2.54586 0
M  V30 10219 H 950.019 3.25117 2.95288 0
M  V30 10220 H 950.625 3.99609 1.45577 0
M  V30 10221 N 948.94 -0.228186 1.55939 0
M  V30 10222 C 950.189 -0.951563 1.77843 0
M  V30 10223 C 950.502 -1.85763 0.612501 0
M  V30 10224 O 951.708 -2.61916 0.715006 0
M  V30 10225 C 950.164 -1.74216 3.14923 0
M  V30 10226 C 949.772 -0.882569 4.39221 0
M  V30 10227 C 951.516 -2.45715 3.46156 0
M  V30 10228 C 949.423 -1.67014 5.67327 0
M  V30 10229 H 948.353 -0.359035 0.663031 0
M  V30 10230 H 951.004 -0.205636 1.82344 0
M  V30 10231 H 949.386 -2.53075 3.0458 0
M  V30 10232 H 950.56 -0.13499 4.60602 0
M  V30 10233 H 948.875 -0.280022 4.15457 0
M  V30 10234 H 951.472 -3.05127 4.39092 0
M  V30 10235 H 951.815 -3.1827 2.68346 0
M  V30 10236 H 952.348 -1.73852 3.57799 0
M  V30 10237 H 949.087 -0.987985 6.48012 0
M  V30 10238 H 948.607 -2.3925 5.50018 0
M  V30 10239 H 950.286 -2.23252 6.07262 0
M  V30 10240 N 950.418 -1.49637 -0.494624 0
M  V30 10241 C 951.658 -1.61067 -1.25844 0
M  V30 10242 C 952.022 -0.293666 -1.89741 0
M  V30 10243 O 953.223 -0.283202 -2.67304 0
M  V30 10244 C 951.494 -2.74218 -2.29215 0
M  V30 10245 S 953.053 -3.05639 -3.1485 0
M  V30 10246 H 949.871 -0.568056 -0.42759 0
M  V30 10247 H 952.473 -1.87323 -0.559491 0
M  V30 10248 H 951.177 -3.68422 -1.80813 0
M  V30 10249 H 950.708 -2.49975 -3.0377 0
M  V30 10250 H 952.723 -2.47651 -4.29981 0
M  V30 10251 N 951.896 0.746133 -1.38819 0
M  V30 10252 C 953.145 1.50085 -1.34749 0
M  V30 10253 C 953.458 1.95516 0.0574786 0
M  V30 10254 O 954.664 2.70601 0.22073 0
M  V30 10255 C 953.12 2.71141 -2.36665 0
M  V30 10256 C 952.728 2.32706 -3.82821 0
M  V30 10257 C 954.472 3.49005 -2.41652 0
M  V30 10258 C 952.379 3.50418 -4.76405 0
M  V30 10259 H 951.309 0.563563 -0.500912 0
M  V30 10260 H 953.96 0.814951 -1.6441 0
M  V30 10261 H 952.342 3.4175 -2.00058 0
M  V30 10262 H 953.516 1.69715 -4.28408 0
M  V30 10263 H 951.831 1.67959 -3.81023 0
M  V30 10264 H 954.428 4.36541 -3.08766 0
M  V30 10265 H 954.771 3.90687 -1.43769 0
M  V30 10266 H 955.304 2.85416 -2.77097 0
M  V30 10267 H 952.043 3.13795 -5.75511 0
M  V30 10268 H 951.563 4.12426 -4.35505 0
M  V30 10269 H 953.242 4.16901 -4.94775 0
M  V30 10270 N 953.375 1.23811 0.975125 0
M  V30 10271 C 954.6 1.10109 1.75757 0
M  V30 10272 C 955.025 -0.342922 1.84948 0
M  V30 10273 O 954.383 -1.24814 1.31496 0
M  V30 10274 C 954.431 1.73724 3.15994 0
M  V30 10275 O 953.535 1.00297 4.00018 0
M  V30 10276 H 952.876 0.385627 0.540544 0
M  V30 10277 H 955.406 1.63971 1.22372 0
M  V30 10278 H 955.416 1.79178 3.6655 0
M  V30 10279 H 954.091 2.78794 3.0862 0
M  V30 10280 H 952.668 1.02575 3.58515 0
M  V30 10281 N 954.853 -1.17469 1.05066 0
M  V30 10282 C 956.093 -1.89382 0.769012 0
M  V30 10283 C 956.457 -1.79126 -0.691217 0
M  V30 10284 O 957.658 -2.45845 -1.08692 0
M  V30 10285 C 955.929 -3.35397 1.23465 0
M  V30 10286 S 957.488 -4.25297 1.08018 0
M  V30 10287 H 954.306 -0.653839 0.279312 0
M  V30 10288 H 956.908 -1.41877 1.34503 0
M  V30 10289 H 955.612 -3.40395 2.29258 0
M  V30 10290 H 955.143 -3.87945 0.652853 0
M  V30 10291 H 957.158 -4.962 0.00358573 0
M  V30 10292 N 956.331 -0.831506 -1.3388 0
M  V30 10293 C 957.58 -0.420028 -1.97278 0
M  V30 10294 C 957.893 1.02441 -1.66629 0
M  V30 10295 O 959.099 1.54021 -2.23584 0
M  V30 10296 C 957.555 -0.700116 -3.53025 0
M  V30 10297 C 957.163 -2.15874 -3.92559 0
M  V30 10298 C 958.907 -0.355226 -4.23011 0
M  V30 10299 C 956.814 -2.38327 -5.41252 0
M  V30 10300 H 955.744 -0.153326 -0.738246 0
M  V30 10301 H 958.395 -1.01906 -1.52602 0
M  V30 10302 H 956.777 -0.0308044 -3.95988 0
M  V30 10303 H 957.951 -2.86792 -3.60675 0
M  V30 10304 H 956.266 -2.4659 -3.35533 0
M  V30 10305 H 958.863 -0.500701 -5.32351 0
M  V30 10306 H 959.206 0.70111 -4.10354 0
M  V30 10307 H 959.739 -0.979466 -3.85553 0
M  V30 10308 H 956.478 -3.42498 -5.58906 0
M  V30 10309 H 955.998 -1.71962 -5.74621 0
M  V30 10310 H 957.677 -2.21113 -6.08045 0
M  V30 10311 N 957.809 1.4625 -0.587256 0
M  V30 10312 C 958.772 2.28812 0.133238 0
M  V30 10313 C 959.772 1.38645 0.814513 0
M  V30 10314 O 960.962 1.60975 0.665774 0
M  V30 10315 C 958.094 3.19147 1.19824 0
M  V30 10316 H 959.287 2.93991 -0.592386 0
M  V30 10317 H 956.84 1.52435 -0.345416 0
M  V30 10318 H 957.575 2.58725 1.95529 0
M  V30 10319 H 957.36 3.85541 0.71418 0
M  V30 10320 H 958.85 3.81278 1.70344 0
M  V30 10321 N 959.287 0.325282 1.54207 0
M  V30 10322 C 960.533 -0.277185 2.00897 0
M  V30 10323 C 960.866 -1.51651 1.21308 0
M  V30 10324 O 960.141 -1.92237 0.295825 0
M  V30 10325 C 960.424 -0.60961 3.54902 0
M  V30 10326 C 960.277 0.640542 4.45216 0
M  V30 10327 C 961.596 -1.42656 4.16338 0
M  V30 10328 H 958.715 -0.0992722 0.730284 0
M  V30 10329 H 961.357 0.442201 1.84783 0
M  V30 10330 H 959.507 -1.22249 3.68765 0
M  V30 10331 H 961.179 1.27878 4.43221 0
M  V30 10332 H 959.422 1.26908 4.14821 0
M  V30 10333 H 960.093 0.363459 5.50802 0
M  V30 10334 H 962.569 -0.908494 4.06061 0
M  V30 10335 H 961.445 -1.62792 5.24204 0
M  V30 10336 H 961.706 -2.42321 3.69774 0
M  V30 10337 N 960.765 -1.57509 0.0534917 0
M  V30 10338 C 962.181 -1.56696 -0.303067 0
M  V30 10339 C 962.381 -1.06135 -1.71282 0
M  V30 10340 O 961.437 -0.71899 -2.42047 0
M  V30 10341 C 962.75 -3.00421 -0.129418 0
M  V30 10342 C 964.298 -3.12358 -0.200346 0
M  V30 10343 C 964.773 -4.57967 -0.0551971 0
M  V30 10344 N 966.264 -4.63066 -0.111398 0
M  V30 10345 C 966.999 -5.73395 -0.0232344 0
M  V30 10346 N 966.495 -6.92701 0.11741 0
M  V30 10347 N 968.288 -5.62045 -0.078984 0
M  V30 10348 H 960.439 -1.88696 0.975064 0
M  V30 10349 H 962.702 -0.869072 0.378706 0
M  V30 10350 H 962.408 -3.41456 0.842653 0
M  V30 10351 H 962.282 -3.66563 -0.889476 0
M  V30 10352 H 964.669 -2.71221 -1.16289 0
M  V30 10353 H 964.75 -2.48891 0.590506 0
M  V30 10354 H 964.394 -4.9979 0.904034 0
M  V30 10355 H 964.324 -5.19443 -0.865223 0
M  V30 10356 H 966.815 -3.77263 -0.219256 0
M  V30 10357 H 967.128 -7.72597 0.177326 0
M  V30 10358 H 965.473 -6.94833 0.152526 0
M  V30 10359 H 968.664 -4.67725 -0.187434 0
M  V30 10360 H 968.837 -6.48 -0.00681731 0
M  V30 10361 N 962.243 0.219913 -1.56058 0
M  V30 10362 C 963.468 0.965073 -1.83579 0
M  V30 10363 C 963.893 1.77092 -0.634024 0
M  V30 10364 O 963.251 1.76434 0.417205 0
M  V30 10365 C 963.299 1.85705 -3.09105 0
M  V30 10366 O 962.403 2.95261 -2.87914 0
M  V30 10367 H 961.744 0.273173 -0.605204 0
M  V30 10368 H 964.274 0.23273 -2.03272 0
M  V30 10369 H 964.284 2.26655 -3.39252 0
M  V30 10370 H 962.959 1.26476 -3.96203 0
M  V30 10371 H 961.536 2.58246 -2.69005 0
M  V30 10372 N 963.721 1.49897 0.486681 0
M  V30 10373 C 964.968 1.60105 1.23986 0
M  V30 10374 C 965.296 0.294228 1.92262 0
M  V30 10375 O 964.551 -0.718876 1.82018 0
M  V30 10376 C 964.85 2.71982 2.31863 0
M  V30 10377 C 964.516 4.13 1.80948 0
M  V30 10378 C 963.178 4.51373 1.66782 0
M  V30 10379 C 965.53 5.01198 1.43004 0
M  V30 10380 C 962.858 5.75701 1.13072 0
M  V30 10381 C 965.21 6.26058 0.90742 0
M  V30 10382 C 963.874 6.63247 0.752269 0
M  V30 10383 H 963.144 0.585866 0.453698 0
M  V30 10384 H 965.791 1.83778 0.538305 0
M  V30 10385 H 964.096 2.42336 3.07865 0
M  V30 10386 H 965.793 2.77087 2.89869 0
M  V30 10387 H 962.383 3.82718 1.92937 0
M  V30 10388 H 966.567 4.72196 1.52789 0
M  V30 10389 H 961.823 6.03202 0.997842 0
M  V30 10390 H 965.997 6.9377 0.604684 0
M  V30 10391 H 963.624 7.59466 0.33392 0
M  V30 10392 N 965.199 -0.738761 1.39212 0
M  V30 10393 C 966.131 -1.86286 1.3353 0
M  V30 10394 C 967.144 -1.6095 0.244755 0
M  V30 10395 O 968.333 -1.71254 0.50343 0
M  V30 10396 C 965.433 -3.22234 1.04969 0
M  V30 10397 C 964.606 -3.74956 2.25226 0
M  V30 10398 C 963.665 -4.89457 1.9318 0
M  V30 10399 O 962.691 -5.03314 2.65826 0
M  V30 10400 N 963.893 -5.73548 0.895679 0
M  V30 10401 H 966.658 -1.91666 2.304 0
M  V30 10402 H 964.219 -0.919338 1.33266 0
M  V30 10403 H 966.211 -3.96397 0.815566 0
M  V30 10404 H 964.781 -3.12146 0.168451 0
M  V30 10405 H 964.001 -2.92188 2.64612 0
M  V30 10406 H 965.289 -4.06914 3.05448 0
M  V30 10407 H 964.687 -5.64938 0.293541 0
M  V30 10408 H 963.244 -6.47795 0.721451 0
M  V30 10409 N 966.677 -1.24326 -0.968545 0
M  V30 10410 C 967.926 -1.07647 -1.70572 0
M  V30 10411 C 968.239 0.384821 -1.91777 0
M  V30 10412 O 969.445 0.671782 -2.63058 0
M  V30 10413 C 967.901 -1.87799 -3.07017 0
M  V30 10414 C 967.509 -3.38333 -2.93658 0
M  V30 10415 C 969.253 -1.79647 -3.84613 0
M  V30 10416 C 967.16 -4.10831 -4.25407 0
M  V30 10417 H 966.09 -0.399216 -0.639642 0
M  V30 10418 H 968.741 -1.484 -1.07934 0
M  V30 10419 H 967.123 -1.3986 -3.7048 0
M  V30 10420 H 968.297 -3.93845 -2.39213 0
M  V30 10421 H 966.612 -3.47427 -2.29528 0
M  V30 10422 H 969.209 -2.31116 -4.82172 0
M  V30 10423 H 969.552 -0.761553 -4.09275 0
M  V30 10424 H 970.085 -2.25261 -3.27875 0
M  V30 10425 H 966.824 -5.14679 -4.05939 0
M  V30 10426 H 966.344 -3.60105 -4.79671 0
M  V30 10427 H 968.023 -4.17783 -4.94031 0
M  V30 10428 N 968.156 1.1691 -1.05688 0
M  V30 10429 C 969.402 1.8757 -0.771071 0
M  V30 10430 C 969.735 1.8113 0.700399 0
M  V30 10431 O 969.01 1.22273 1.5126 0
M  V30 10432 C 969.293 3.37392 -1.25851 0
M  V30 10433 C 969.146 3.52556 -2.79329 0
M  V30 10434 C 970.465 4.31585 -0.861512 0
M  V30 10435 H 967.584 0.681089 -0.281579 0
M  V30 10436 H 970.226 1.37453 -1.31174 0
M  V30 10437 H 968.376 3.80204 -0.798563 0
M  V30 10438 H 970.048 3.18725 -3.33485 0
M  V30 10439 H 968.291 2.94668 -3.1836 0
M  V30 10440 H 968.962 4.57748 -3.08498 0
M  V30 10441 H 971.438 3.96642 -1.25756 0
M  V30 10442 H 970.314 5.34939 -1.23012 0
M  V30 10443 H 970.575 4.4148 0.234089 0
M  V30 10444 N 969.634 0.838594 1.33437 0
M  V30 10445 C 970.874 0.440239 1.99603 0
M  V30 10446 C 971.238 -0.982061 1.64984 0
M  V30 10447 O 972.439 -1.48413 2.24114 0
M  V30 10448 C 970.71 0.654201 3.51362 0
M  V30 10449 S 972.269 0.351025 4.37394 0
M  V30 10450 H 969.087 0.165608 0.691444 0
M  V30 10451 H 971.689 1.08782 1.6244 0
M  V30 10452 H 970.393 1.68873 3.74045 0
M  V30 10453 H 969.924 -0.00754449 3.93399 0
M  V30 10454 H 971.939 -0.829298 4.89221 0
M  V30 10455 N 971.112 -1.45937 0.595003 0
M  V30 10456 C 972.075 -2.2888 -0.121102 0
M  V30 10457 C 973.075 -1.39075 -0.807149 0
M  V30 10458 O 974.265 -1.61326 -0.657228 0
M  V30 10459 C 971.397 -3.19778 -1.1813 0
M  V30 10460 H 972.59 -2.93673 0.607968 0
M  V30 10461 H 970.143 -1.5225 0.353495 0
M  V30 10462 H 970.878 -2.59759 -1.94154 0
M  V30 10463 H 970.663 -3.85914 -0.693724 0
M  V30 10464 H 972.153 -3.82176 -1.68319 0
M  V30 10465 N 972.59 -0.333456 -1.54032 0
M  V30 10466 C 973.837 0.266133 -2.00744 0
M  V30 10467 C 974.165 1.51361 -1.22148 0
M  V30 10468 O 973.42 1.93473 -0.294368 0
M  V30 10469 C 973.719 0.63565 -3.51702 0
M  V30 10470 C 973.385 -0.513786 -4.47963 0
M  V30 10471 C 972.047 -0.829253 -4.74001 0
M  V30 10472 C 974.399 -1.2854 -5.05101 0
M  V30 10473 C 971.727 -1.91888 -5.54433 0
M  V30 10474 C 974.079 -2.3652 -5.86721 0
M  V30 10475 C 972.743 -2.68637 -6.11057 0
M  V30 10476 H 972.013 0.097385 -0.734573 0
M  V30 10477 H 974.66 -0.459282 -1.85911 0
M  V30 10478 H 972.965 1.44163 -3.64313 0
M  V30 10479 H 974.662 1.11129 -3.85294 0
M  V30 10480 H 971.252 -0.25784 -4.27824 0
M  V30 10481 H 975.436 -1.05494 -4.84958 0
M  V30 10482 H 970.692 -2.17208 -5.71516 0
M  V30 10483 H 974.866 -2.96747 -6.30011 0
M  V30 10484 H 972.493 -3.53197 -6.73169 0
M  V30 10485 N 974.068 1.57479 -0.061844 0
M  V30 10486 C 975.015 2.12152 0.908862 0
M  V30 10487 C 975.985 1.03152 1.30188 0
M  V30 10488 O 977.17 1.3076 1.38948 0
M  V30 10489 C 974.31 2.6796 2.17465 0
M  V30 10490 C 973.423 3.91083 1.83517 0
M  V30 10491 C 972.558 4.35169 3.04633 0
M  V30 10492 C 971.597 5.50964 2.66655 0
M  V30 10493 N 970.734 5.90055 3.80499 0
M  V30 10494 H 975.574 2.94797 0.435743 0
M  V30 10495 H 973.111 1.45686 0.203445 0
M  V30 10496 H 975.069 2.98421 2.91548 0
M  V30 10497 H 973.699 1.88096 2.62335 0
M  V30 10498 H 972.751 3.67146 0.995381 0
M  V30 10499 H 974.063 4.75214 1.51569 0
M  V30 10500 H 973.217 4.67239 3.87005 0
M  V30 10501 H 971.956 3.49871 3.39767 0
M  V30 10502 H 970.961 5.18556 1.82703 0
M  V30 10503 H 972.186 6.37986 2.32702 0
M  V30 10504 H 970.132 5.07708 4.15414 0
M  V30 10505 H 970.049 6.68903 3.52285 0
M  V30 10506 H 971.317 6.26744 4.63479 0
M  V30 10507 N 975.546 -0.211634 1.56173 0
M  V30 10508 C 976.479 -1.28982 1.88252 0
M  V30 10509 C 977.457 -1.4474 0.740889 0
M  V30 10510 O 978.641 -1.60394 0.990249 0
M  V30 10511 C 975.768 -2.65879 2.09824 0
M  V30 10512 C 974.814 -2.67082 3.3252 0
M  V30 10513 S 975.647 -2.2016 4.8815 0
M  V30 10514 C 976.803 -3.58913 5.12769 0
M  V30 10515 H 977.036 -1.01578 2.79409 0
M  V30 10516 H 974.569 -0.414351 1.48736 0
M  V30 10517 H 976.527 -3.44688 2.22935 0
M  V30 10518 H 975.188 -2.90502 1.19447 0
M  V30 10519 H 974.381 -3.67703 3.44689 0
M  V30 10520 H 973.983 -1.96343 3.18317 0
M  V30 10521 H 976.275 -4.54671 5.02276 0
M  V30 10522 H 977.218 -3.51652 6.14611 0
M  V30 10523 H 977.626 -3.5306 4.40465 0
M  V30 10524 N 977.024 -1.50153 -0.478725 0
M  V30 10525 C 977.987 -1.67916 -1.56003 0
M  V30 10526 C 978.987 -0.550111 -1.51097 0
M  V30 10527 O 980.177 -0.817001 -1.53853 0
M  V30 10528 C 977.309 -1.6973 -2.95643 0
M  V30 10529 H 978.502 -2.6438 -1.41573 0
M  V30 10530 H 976.055 -1.39519 -0.704565 0
M  V30 10531 H 976.79 -0.749306 -3.15525 0
M  V30 10532 H 976.575 -2.51745 -3.00611 0
M  V30 10533 H 978.065 -1.85453 -3.74162 0
M  V30 10534 N 978.502 0.731368 -1.39602 0
M  V30 10535 C 979.727 1.52567 -1.40492 0
M  V30 10536 C 980.152 1.881 -0.00228828 0
M  V30 10537 O 979.51 1.52167 0.985643 0
M  V30 10538 C 979.558 2.78749 -2.2876 0
M  V30 10539 O 978.662 3.7482 -1.71999 0
M  V30 10540 H 978.003 0.460601 -0.478271 0
M  V30 10541 H 980.533 0.902042 -1.83642 0
M  V30 10542 H 980.543 3.27446 -2.43399 0
M  V30 10543 H 979.218 2.5222 -3.30693 0
M  V30 10544 H 977.795 3.33604 -1.66622 0
M  V30 10545 N 979.98 1.24838 0.961938 0
M  V30 10546 C 981.396 1.01502 1.23165 0
M  V30 10547 C 981.596 -0.272651 1.99647 0
M  V30 10548 O 980.652 -0.987297 2.32398 0
M  V30 10549 C 981.965 2.23366 2.01316 0
M  V30 10550 C 983.513 2.28051 2.14387 0
M  V30 10551 C 983.988 3.49552 2.95935 0
M  V30 10552 N 985.479 3.49904 3.03515 0
M  V30 10553 C 986.214 4.40577 3.66987 0
M  V30 10554 N 985.71 5.41512 4.3213 0
M  V30 10555 N 987.503 4.28275 3.64056 0
M  V30 10556 H 979.654 2.07576 0.450086 0
M  V30 10557 H 981.917 0.911205 0.261551 0
M  V30 10558 H 981.623 3.16913 1.5251 0
M  V30 10559 H 981.497 2.25949 3.02038 0
M  V30 10560 H 983.884 1.35032 2.62393 0
M  V30 10561 H 983.965 2.29491 1.12994 0
M  V30 10562 H 983.609 4.42889 2.4862 0
M  V30 10563 H 983.539 3.45357 3.97538 0
M  V30 10564 H 986.03 2.76885 2.57183 0
M  V30 10565 H 986.343 6.06924 4.78396 0
M  V30 10566 H 984.688 5.45393 4.3078 0
M  V30 10567 H 987.879 3.48653 3.12344 0
M  V30 10568 H 988.052 4.99138 4.13237 0
M  V30 10569 N 981.458 -1.16348 1.06306 0
M  V30 10570 C 982.705 -1.86881 0.779852 0
M  V30 10571 C 983.033 -1.8171 -0.693668 0
M  V30 10572 O 982.288 -1.22769 -1.52401 0
M  V30 10573 C 982.587 -3.35936 1.21991 0
M  V30 10574 C 982.253 -3.61307 2.69756 0
M  V30 10575 C 980.915 -3.6794 3.10119 0
M  V30 10576 C 983.267 -3.71871 3.65187 0
M  V30 10577 C 980.595 -3.82639 4.44752 0
M  V30 10578 C 982.947 -3.88091 4.99568 0
M  V30 10579 C 981.611 -3.92967 5.39568 0
M  V30 10580 H 980.881 -0.683847 0.285368 0
M  V30 10581 H 983.528 -1.37569 1.33218 0
M  V30 10582 H 981.833 -3.87381 0.586774 0
M  V30 10583 H 983.53 -3.88895 0.977821 0
M  V30 10584 H 980.12 -3.56777 2.37504 0
M  V30 10585 H 984.304 -3.66057 3.35136 0
M  V30 10586 H 979.56 -3.84666 4.75228 0
M  V30 10587 H 983.734 -3.95207 5.73397 0
M  V30 10588 H 981.361 -4.04109 6.43895 0
M  V30 10589 N 982.937 -0.845659 -1.3299 0
M  V30 10590 C 984.348 -0.50048 -1.79867 0
M  V30 10591 C 984.699 0.981027 -1.69913 0
M  V30 10592 O 983.824 1.76477 -1.25239 0
M  V30 10593 C 984.419 -0.901679 -3.26581 0
M  V30 10594 C 982.978 -0.608536 -3.71448 0
M  V30 10595 C 982.125 -1.10632 -2.54275 0
M  V30 10596 H 985.076 -1.03372 -1.20416 0
M  V30 10597 H 985.097 -0.214433 -3.79895 0
M  V30 10598 H 984.609 -1.97998 -3.33794 0
M  V30 10599 H 982.71 0.459416 -3.69757 0
M  V30 10600 H 982.823 -1.16853 -4.64631 0
M  V30 10601 H 981.187 -0.526925 -2.4919 0
M  V30 10602 H 981.97 -2.19154 -2.64247 0
M  V30 10603 N 984.415 1.45619 -0.602734 0
M  V30 10604 C 985.831 1.57368 -0.26599 0
M  V30 10605 C 986.031 1.59485 1.23154 0
M  V30 10606 O 985.087 1.52254 2.01432 0
M  V30 10607 C 986.4 2.85863 -0.932881 0
M  V30 10608 C 987.948 2.9953 -0.908344 0
M  V30 10609 C 988.423 4.30789 -1.55515 0
M  V30 10610 N 989.914 4.37536 -1.52042 0
M  V30 10611 C 990.649 5.37758 -1.99008 0
M  V30 10612 N 990.145 6.44544 -2.54038 0
M  V30 10613 N 991.938 5.29085 -1.89805 0
M  V30 10614 H 984.089 1.42489 -1.57514 0
M  V30 10615 H 986.352 0.680948 -0.659556 0
M  V30 10616 H 986.058 2.90183 -1.98713 0
M  V30 10617 H 985.932 3.74467 -0.453209 0
M  V30 10618 H 988.319 2.9478 0.137344 0
M  V30 10619 H 988.4 2.12349 -1.42623 0
M  V30 10620 H 988.044 4.36297 -2.60014 0
M  V30 10621 H 987.974 5.16778 -1.01232 0
M  V30 10622 H 990.465 3.60972 -1.11837 0
M  V30 10623 H 990.778 7.17258 -2.87682 0
M  V30 10624 H 989.123 6.45308 -2.58075 0
M  V30 10625 H 992.314 4.44566 -1.46556 0
M  V30 10626 H 992.487 6.07043 -2.26722 0
M  V30 10627 N 985.893 0.34162 1.53853 0
M  V30 10628 C 986.856 -0.503541 2.236 0
M  V30 10629 C 987.856 -1.02912 1.23554 0
M  V30 10630 O 989.046 -0.918678 1.48007 0
M  V30 10631 C 986.178 -1.70126 2.95415 0
M  V30 10632 H 987.371 0.106437 2.99711 0
M  V30 10633 H 984.924 0.0929408 1.56023 0
M  V30 10634 H 985.659 -2.34999 2.23486 0
M  V30 10635 H 985.444 -1.33161 3.68796 0
M  V30 10636 H 986.934 -2.30077 3.48503 0
M  V30 10637 N 987.371 -1.57444 0.0701946 0
M  V30 10638 C 988.601 -1.97467 -0.607476 0
M  V30 10639 C 989.009 -0.947232 -1.63781 0
M  V30 10640 O 988.352 0.074652 -1.83548 0
M  V30 10641 C 988.414 -3.33795 -1.33495 0
M  V30 10642 C 988.078 -4.54697 -0.458265 0
M  V30 10643 C 989.075 -5.19127 0.283488 0
M  V30 10644 C 986.76 -5.00833 -0.383612 0
M  V30 10645 C 988.754 -6.28043 1.08813 0
M  V30 10646 C 986.441 -6.09622 0.424705 0
M  V30 10647 C 987.439 -6.7309 1.15925 0
M  V30 10648 O 987.127 -7.79785 1.95423 0
M  V30 10649 H 986.859 -0.654405 -0.169501 0
M  V30 10650 H 989.413 -2.04931 0.138651 0
M  V30 10651 H 987.643 -3.22941 -2.12711 0
M  V30 10652 H 989.332 -3.58435 -1.9047 0
M  V30 10653 H 990.098 -4.84428 0.235397 0
M  V30 10654 H 985.977 -4.51211 -0.944968 0
M  V30 10655 H 989.521 -6.77513 1.66197 0
M  V30 10656 H 985.418 -6.43755 0.474366 0
M  V30 10657 H 986.186 -7.96655 1.87838 0
M  V30 10658 N 988.849 0.203349 -1.56283 0
M  V30 10659 C 990.074 0.945548 -1.84592 0
M  V30 10660 C 990.499 1.7641 -0.652772 0
M  V30 10661 O 989.857 1.76867 0.398468 0
M  V30 10662 C 989.905 1.82416 -3.11057 0
M  V30 10663 O 989.009 2.92191 -2.9103 0
M  V30 10664 H 988.35 0.266739 -0.608068 0
M  V30 10665 H 990.88 0.211158 -2.03507 0
M  V30 10666 H 990.89 2.23044 -3.41636 0
M  V30 10667 H 989.565 1.22267 -3.97522 0
M  V30 10668 H 988.142 2.55378 -2.71728 0
M  V30 10669 N 990.327 1.50405 0.470755 0
M  V30 10670 C 991.557 1.64928 1.24428 0
M  V30 10671 C 991.965 0.332139 1.86262 0
M  V30 10672 O 991.308 -0.695919 1.70008 0
M  V30 10673 C 991.37 2.6829 2.39293 0
M  V30 10674 C 991.034 4.11835 1.98093 0
M  V30 10675 C 992.031 4.97693 1.50326 0
M  V30 10676 C 989.716 4.57753 2.06803 0
M  V30 10677 C 991.71 6.27516 1.11813 0
M  V30 10678 C 989.397 5.87582 1.67902 0
M  V30 10679 C 990.395 6.72289 1.20485 0
M  V30 10680 O 990.083 7.99694 0.821219 0
M  V30 10681 H 989.815 0.557418 0.382442 0
M  V30 10682 H 992.369 1.97382 0.568292 0
M  V30 10683 H 990.599 2.31079 3.10063 0
M  V30 10684 H 992.288 2.7203 3.01255 0
M  V30 10685 H 993.054 4.63434 1.43018 0
M  V30 10686 H 988.933 3.91966 2.42659 0
M  V30 10687 H 992.477 6.93586 0.747317 0
M  V30 10688 H 988.374 6.21362 1.74869 0
M  V30 10689 H 989.142 8.12968 0.950038 0
M  V30 10690 N 991.805 -0.723954 1.39988 0
M  V30 10691 C 993.051 -1.48476 1.3902 0
M  V30 10692 C 993.406 -1.92397 -0.0105439 0
M  V30 10693 O 992.699 -1.64683 -0.979294 0
M  V30 10694 C 992.893 -2.73004 2.30659 0
M  V30 10695 C 992.722 -2.41261 3.79504 0
M  V30 10696 C 991.492 -2.33013 4.48367 0
M  V30 10697 C 993.69 -2.06078 4.71207 0
M  V30 10698 N 991.672 -1.93856 5.82489 0
M  V30 10699 C 993.043 -1.77455 5.94062 0
M  V30 10700 C 995.098 -1.92642 4.59123 0
M  V30 10701 C 993.801 -1.36748 7.06182 0
M  V30 10702 C 995.827 -1.53338 5.71175 0
M  V30 10703 C 995.189 -1.25607 6.93111 0
M  V30 10704 H 991.288 -0.54172 0.563971 0
M  V30 10705 H 993.872 -0.840344 1.75631 0
M  V30 10706 H 992.043 -3.35209 1.96188 0
M  V30 10707 H 993.775 -3.39286 2.20606 0
M  V30 10708 H 990.53 -2.50476 4.01944 0
M  V30 10709 H 990.954 -1.7684 6.53496 0
M  V30 10710 H 995.596 -2.12745 3.65376 0
M  V30 10711 H 993.314 -1.15386 7.9982 0
M  V30 10712 H 996.9 -1.43532 5.63817 0
M  V30 10713 H 995.78 -0.956505 7.78345 0
M  V30 10714 N 993.283 -1.25346 -0.955304 0
M  V30 10715 C 994.529 -1.10218 -1.70235 0
M  V30 10716 C 994.862 0.356124 -1.90907 0
M  V30 10717 O 994.137 1.26253 -1.47954 0
M  V30 10718 C 994.42 -1.85627 -3.08569 0
M  V30 10719 C 994.273 -3.39281 -2.95311 0
M  V30 10720 C 995.592 -1.63886 -4.08448 0
M  V30 10721 H 992.711 -0.401781 -0.617852 0
M  V30 10722 H 995.353 -1.5417 -1.11048 0
M  V30 10723 H 993.503 -1.48269 -3.59094 0
M  V30 10724 H 995.175 -3.8631 -2.52116 0
M  V30 10725 H 993.418 -3.67027 -2.31244 0
M  V30 10726 H 994.089 -3.87258 -3.93364 0
M  V30 10727 H 996.565 -1.96406 -3.6683 0
M  V30 10728 H 995.441 -2.19087 -5.03281 0
M  V30 10729 H 995.702 -0.580021 -4.38279 0
M  V30 10730 N 994.761 1.15782 -1.06922 0
M  V30 10731 C 996.177 1.38454 -0.793896 0
M  V30 10732 C 996.377 1.92238 0.603875 0
M  V30 10733 O 995.433 2.1253 1.36335 0
M  V30 10734 C 996.746 2.3595 -1.86408 0
M  V30 10735 C 998.294 2.49622 -1.88833 0
M  V30 10736 C 998.769 3.50406 -2.94923 0
M  V30 10737 N 1000.26 3.57938 -2.93997 0
M  V30 10738 C 1001 4.35728 -3.72731 0
M  V30 10739 N 1000.49 5.16888 -4.61301 0
M  V30 10740 N 1002.28 4.30774 -3.61096 0
M  V30 10741 H 994.435 0.792101 -1.97077 0
M  V30 10742 H 996.698 0.410779 -0.85438 0
M  V30 10743 H 996.404 2.03537 -2.86819 0
M  V30 10744 H 996.278 3.35677 -1.72049 0
M  V30 10745 H 998.665 2.81335 -0.890759 0
M  V30 10746 H 998.746 1.49909 -2.0727 0
M  V30 10747 H 998.39 3.19429 -3.94877 0
M  V30 10748 H 998.32 4.49864 -2.73734 0
M  V30 10749 H 1000.81 3.00007 -2.29791 0
M  V30 10750 H 1001.12 5.73477 -5.18019 0
M  V30 10751 H 999.469 5.16209 -4.65353 0
M  V30 10752 H 1002.66 3.66432 -2.91282 0
M  V30 10753 H 1002.83 4.91151 -4.22699 0
M  V30 10754 N 996.239 0.8527 1.3254 0
M  V30 10755 C 997.469 0.468363 2.01221 0
M  V30 10756 C 997.877 -0.938966 1.64256 0
M  V30 10757 O 997.22 -1.62387 0.858837 0
M  V30 10758 C 997.282 0.525457 3.55639 0
M  V30 10759 C 996.946 1.89133 4.16026 0
M  V30 10760 C 997.943 2.85652 4.34395 0
M  V30 10761 C 995.628 2.18795 4.52144 0
M  V30 10762 C 997.622 4.09985 4.88048 0
M  V30 10763 C 995.309 3.43381 5.05502 0
M  V30 10764 C 996.307 4.38792 5.23403 0
M  V30 10765 O 995.995 5.61173 5.75622 0
M  V30 10766 H 995.727 0.182712 0.65084 0
M  V30 10767 H 998.281 1.15076 1.70138 0
M  V30 10768 H 996.511 -0.213779 3.86109 0
M  V30 10769 H 998.2 0.156999 4.05596 0
M  V30 10770 H 998.966 2.6404 4.06827 0
M  V30 10771 H 994.845 1.45317 4.37498 0
M  V30 10772 H 998.389 4.84465 5.01936 0
M  V30 10773 H 994.286 3.64844 5.32503 0
M  V30 10774 H 995.054 5.63104 5.94017 0
M  V30 10775 N 997.718 -1.45297 0.610449 0
M  V30 10776 C 998.65 -2.28742 -0.144884 0
M  V30 10777 C 999.663 -1.40114 -0.828977 0
M  V30 10778 O 1000.85 -1.64461 -0.693887 0
M  V30 10779 C 997.952 -3.15934 -1.22632 0
M  V30 10780 C 997.125 -4.32857 -0.628785 0
M  V30 10781 C 996.184 -5.01237 -1.60148 0
M  V30 10782 O 995.21 -5.57938 -1.12667 0
M  V30 10783 N 996.412 -5.00785 -2.9359 0
M  V30 10784 H 999.177 -2.94207 0.571145 0
M  V30 10785 H 996.738 -1.55517 0.450134 0
M  V30 10786 H 998.73 -3.58545 -1.87691 0
M  V30 10787 H 997.3 -2.52358 -1.84483 0
M  V30 10788 H 996.52 -3.93693 0.199951 0
M  V30 10789 H 997.808 -5.08367 -0.209845 0
M  V30 10790 H 997.206 -4.56014 -3.34765 0
M  V30 10791 H 995.763 -5.4725 -3.54064 0
M  V30 10792 N 999.196 -0.349774 -1.5367 0
M  V30 10793 C 1000.44 0.244343 -2.00617 0
M  V30 10794 C 1000.76 1.50567 -1.23914 0
M  V30 10795 O 1000.03 1.92784 -0.348016 0
M  V30 10796 H 998.615 0.0932792 -0.741153 0
M  V30 10797 H 1001.28 -0.472367 -1.89089 0
M  V30 10798 H 1000.37 0.482433 -3.08349 0
M  V30 10799 N 1000.67 1.57404 -0.0785433 0
M  V30 10800 C 1002.08 1.81118 0.45311 0
M  V30 10801 C 1002.44 0.992963 1.69218 0
M  V30 10802 O 1001.56 0.217448 2.15305 0
M  V30 10803 C 1002.16 3.28506 0.82882 0
M  V30 10804 C 1000.71 3.53042 1.3053 0
M  V30 10805 C 999.862 2.75739 0.29378 0
M  V30 10806 H 1002.81 1.55758 -0.304171 0
M  V30 10807 H 1002.83 3.40924 1.68971 0
M  V30 10808 H 1002.35 3.88031 -0.0731826 0
M  V30 10809 H 1000.45 2.98829 2.22558 0
M  V30 10810 H 1000.56 4.61724 1.27857 0
M  V30 10811 H 998.924 2.42703 0.772477 0
M  V30 10812 H 999.707 3.38005 -0.600613 0
M  V30 10813 N 1002.15 -0.195058 1.56388 0
M  V30 10814 C 1003.38 -0.930291 1.8447 0
M  V30 10815 C 1003.79 -1.77356 0.658901 0
M  V30 10816 O 1003.13 -1.79691 -0.381664 0
M  V30 10817 C 1003.19 -1.87626 3.06654 0
M  V30 10818 C 1002.86 -1.21494 4.40555 0
M  V30 10819 C 1003.86 -0.591847 5.1652 0
M  V30 10820 C 1001.54 -1.21878 4.8729 0
M  V30 10821 C 1003.53 0.0185743 6.37397 0
M  V30 10822 C 1001.22 -0.604524 6.08103 0
M  V30 10823 C 1002.22 0.0130731 6.82999 0
M  V30 10824 O 1001.91 0.617703 8.01523 0
M  V30 10825 H 1001.64 -0.276933 0.616672 0
M  V30 10826 H 1004.19 -0.207277 2.04351 0
M  V30 10827 H 1002.42 -2.63897 2.82658 0
M  V30 10828 H 1004.11 -2.47929 3.21382 0
M  V30 10829 H 1004.88 -0.581018 4.81507 0
M  V30 10830 H 1000.76 -1.68888 4.2895 0
M  V30 10831 H 1004.3 0.50124 6.95797 0
M  V30 10832 H 1000.2 -0.612855 6.42584 0
M  V30 10833 H 1000.97 0.514612 8.16881 0
M  V30 10834 N 1003.63 -1.50653 -0.462772 0
M  V30 10835 C 1004.88 -1.62297 -1.21603 0
M  V30 10836 C 1005.21 -0.326191 -1.91441 0
M  V30 10837 O 1004.48 0.67284 -1.82491 0
M  V30 10838 C 1004.77 -2.80901 -2.25315 0
M  V30 10839 C 1004.62 -4.20484 -1.59728 0
M  V30 10840 C 1005.94 -2.95049 -3.26549 0
M  V30 10841 H 1003.06 -0.590691 -0.440741 0
M  V30 10842 H 1005.7 -1.83064 -0.508675 0
M  V30 10843 H 1003.85 -2.63325 -2.85643 0
M  V30 10844 H 1005.52 -4.49669 -1.02932 0
M  V30 10845 H 1003.76 -4.24357 -0.900181 0
M  V30 10846 H 1004.44 -4.99416 -2.35133 0
M  V30 10847 H 1006.91 -3.11166 -2.76251 0
M  V30 10848 H 1005.79 -3.79645 -3.96435 0
M  V30 10849 H 1006.05 -2.06019 -3.91163 0
M  V30 10850 N 1005.11 0.71652 -1.4037 0
M  V30 10851 C 1006.33 1.51069 -1.42102 0
M  V30 10852 C 1006.76 1.88087 -0.0222387 0
M  V30 10853 O 1006.12 1.53204 0.969448 0
M  V30 10854 C 1006.16 2.76307 -2.31704 0
M  V30 10855 O 1005.27 3.72975 -1.75964 0
M  V30 10856 H 1004.61 0.455502 -0.483129 0
M  V30 10857 H 1007.14 0.882514 -1.84588 0
M  V30 10858 H 1007.15 3.24846 -2.46859 0
M  V30 10859 H 1005.82 2.48698 -3.3335 0
M  V30 10860 H 1004.4 3.31818 -1.70151 0
M  V30 10861 N 1006.59 1.25851 0.948643 0
M  V30 10862 C 1007.52 1.0108 2.04593 0
M  V30 10863 C 1008.5 -0.0619691 1.62482 0
M  V30 10864 O 1009.68 0.0789196 1.88335 0
M  V30 10865 C 1006.81 0.529174 3.34541 0
M  V30 10866 C 1005.85 1.59337 3.95618 0
M  V30 10867 S 1006.69 3.18026 4.30836 0
M  V30 10868 C 1007.84 2.71613 5.63895 0
M  V30 10869 H 1008.08 1.93988 2.2529 0
M  V30 10870 H 1005.61 1.09448 1.08906 0
M  V30 10871 H 1007.57 0.25795 4.09689 0
M  V30 10872 H 1006.23 -0.37951 3.11799 0
M  V30 10873 H 1005.42 1.20722 4.89328 0
M  V30 10874 H 1005.02 1.81559 3.26975 0
M  V30 10875 H 1007.32 2.15612 6.42275 0
M  V30 10876 H 1008.26 3.63986 6.07387 0
M  V30 10877 H 1008.67 2.11417 5.23415 0
M  V30 10878 N 1008.06 -1.15214 1.07534 0
M  V30 10879 C 1009.03 -2.18209 0.701237 0
M  V30 10880 C 1010.03 -1.58693 -0.25946 0
M  V30 10881 O 1011.22 -1.74154 -0.0401744 0
M  V30 10882 C 1008.35 -3.40883 0.0338703 0
M  V30 10883 H 1009.54 -2.5282 1.61314 0
M  V30 10884 H 1007.1 -1.29707 0.872105 0
M  V30 10885 H 1007.83 -3.11843 -0.890187 0
M  V30 10886 H 1007.62 -3.85342 0.72486 0
M  V30 10887 H 1009.11 -4.17056 -0.213152 0
M  V30 10888 N 1009.54 -0.859717 -1.32086 0
M  V30 10889 C 1010.79 -0.465581 -1.97075 0
M  V30 10890 C 1011.12 0.979917 -1.68012 0
M  V30 10891 O 1010.37 1.70337 -0.96353 0
M  V30 10892 C 1010.67 -0.657397 -3.51302 0
M  V30 10893 C 1010.34 -2.07413 -4.00363 0
M  V30 10894 C 1009 -2.4616 -4.13472 0
M  V30 10895 C 1011.35 -2.99855 -4.26305 0
M  V30 10896 C 1008.68 -3.76611 -4.49868 0
M  V30 10897 C 1011.03 -4.2981 -4.64161 0
M  V30 10898 C 1009.7 -4.68485 -4.75476 0
M  V30 10899 H 1008.97 -0.170368 -0.721149 0
M  V30 10900 H 1011.61 -1.09074 -1.57401 0
M  V30 10901 H 1009.92 0.0509638 -3.91767 0
M  V30 10902 H 1011.61 -0.332416 -3.9962 0
M  V30 10903 H 1008.2 -1.76327 -3.90649 0
M  V30 10904 H 1012.39 -2.7115 -4.15682 0
M  V30 10905 H 1007.64 -4.06352 -4.56824 0
M  V30 10906 H 1011.82 -5.015 -4.83188 0
M  V30 10907 H 1009.45 -5.69612 -5.03435 0
M  V30 10908 N 1011.02 1.44971 -0.618145 0
M  V30 10909 C 1012.27 2.01372 -0.115004 0
M  V30 10910 C 1012.58 1.49104 1.26599 0
M  V30 10911 O 1013.79 1.97549 1.86244 0
M  V30 10912 C 1012.24 3.59567 -0.154883 0
M  V30 10913 C 1011.85 4.20832 -1.53639 0
M  V30 10914 C 1013.6 4.23491 0.292468 0
M  V30 10915 C 1011.5 5.7121 -1.53208 0
M  V30 10916 H 1010.43 0.752979 -0.0392267 0
M  V30 10917 H 1013.08 1.66329 -0.775032 0
M  V30 10918 H 1011.47 3.91847 0.572001 0
M  V30 10919 H 1012.64 4.00109 -2.28582 0
M  V30 10920 H 1010.96 3.69143 -1.92672 0
M  V30 10921 H 1013.55 5.33771 0.315032 0
M  V30 10922 H 1013.9 3.9491 1.31725 0
M  V30 10923 H 1014.43 3.95967 -0.381493 0
M  V30 10924 H 1011.17 6.04506 -2.53481 0
M  V30 10925 H 1010.69 5.94094 -0.825387 0
M  V30 10926 H 1012.37 6.34606 -1.26032 0
M  V30 10927 N 1012.5 0.357919 1.53482 0
M  V30 10928 C 1013.73 -0.23514 2.05559 0
M  V30 10929 C 1014.14 -1.43068 1.23195 0
M  V30 10930 O 1013.5 -1.80481 0.270741 0
M  V30 10931 C 1013.55 -0.636147 3.55859 0
M  V30 10932 O 1013.27 0.511864 4.35099 0
M  V30 10933 C 1014.77 -1.28841 4.24164 0
M  V30 10934 H 1011.99 -0.0428446 0.669631 0
M  V30 10935 H 1014.54 0.51407 1.97933 0
M  V30 10936 H 1012.69 -1.33528 3.63661 0
M  V30 10937 H 1013.1 0.189328 5.24158 0
M  V30 10938 H 1014.58 -1.51962 5.30671 0
M  V30 10939 H 1015.06 -2.24638 3.77405 0
M  V30 10940 H 1015.66 -0.630914 4.20594 0
M  V30 10941 N 1013.98 -1.5736 0.0868897 0
M  V30 10942 C 1015.22 -1.94341 -0.579598 0
M  V30 10943 C 1015.56 -0.968238 -1.68341 0
M  V30 10944 O 1014.83 8.29649e-05 -1.945 0
M  V30 10945 C 1015.11 -3.41497 -1.14245 0
M  V30 10946 C 1014.97 -4.49778 -0.044255 0
M  V30 10947 C 1016.29 -3.89788 -2.04336 0
M  V30 10948 H 1013.4 -0.70668 -0.20922 0
M  V30 10949 H 1016.05 -1.89359 0.15593 0
M  V30 10950 H 1014.2 -3.45873 -1.76929 0
M  V30 10951 H 1015.87 -4.57517 0.58959 0
M  V30 10952 H 1014.11 -4.293 0.623207 0
M  V30 10953 H 1014.78 -5.4992 -0.478749 0
M  V30 10954 H 1017.26 -3.87513 -1.51569 0
M  V30 10955 H 1016.13 -4.93335 -2.40648 0
M  V30 10956 H 1016.4 -3.28603 -2.95757 0
M  V30 10957 N 1015.45 0.186762 -1.56489 0
M  V30 10958 C 1016.38 1.23395 -1.98232 0
M  V30 10959 C 1017.37 1.4702 -0.855526 0
M  V30 10960 O 1018.55 1.58616 -1.12048 0
M  V30 10961 C 1015.68 2.57635 -2.32898 0
M  V30 10962 C 1014.63 2.48607 -3.48394 0
M  V30 10963 C 1013.96 3.87196 -3.68759 0
M  V30 10964 C 1015.26 2.00398 -4.82325 0
M  V30 10965 H 1016.95 0.887026 -2.85958 0
M  V30 10966 H 1014.5 0.42525 -1.37578 0
M  V30 10967 H 1016.45 3.31082 -2.60696 0
M  V30 10968 H 1015.18 2.94084 -1.42064 0
M  V30 10969 H 1013.84 1.77615 -3.207 0
M  V30 10970 H 1013.48 4.21012 -2.75241 0
M  V30 10971 H 1013.18 3.82029 -4.46462 0
M  V30 10972 H 1014.71 4.62253 -3.98941 0
M  V30 10973 H 1016.12 2.6361 -5.091 0
M  V30 10974 H 1014.52 2.06214 -5.63556 0
M  V30 10975 H 1015.59 0.957562 -4.75351 0
M  V30 10976 N 1016.93 1.50896 0.454776 0
M  V30 10977 C 1017.88 1.70947 1.55067 0
M  V30 10978 C 1018.85 0.550899 1.56698 0
M  V30 10979 O 1020.03 0.783352 1.73978 0
M  V30 10980 C 1017.17 1.82455 2.92924 0
M  V30 10981 C 1016.29 3.09919 3.00956 0
M  V30 10982 C 1015.42 3.12125 4.29827 0
M  V30 10983 C 1014.46 4.33975 4.31662 0
M  V30 10984 N 1013.6 4.33828 5.5203 0
M  V30 10985 H 1018.44 2.645 1.37273 0
M  V30 10986 H 1015.98 1.31101 0.667148 0
M  V30 10987 H 1017.93 1.87108 3.72889 0
M  V30 10988 H 1016.56 0.92327 3.09315 0
M  V30 10989 H 1015.62 3.14659 2.13761 0
M  V30 10990 H 1016.93 3.99869 2.98172 0
M  V30 10991 H 1016.08 3.15598 5.18154 0
M  V30 10992 H 1014.82 2.20033 4.35243 0
M  V30 10993 H 1013.83 4.30697 3.41731 0
M  V30 10994 H 1015.05 5.27312 4.27924 0
M  V30 10995 H 1013 3.44598 5.58201 0
M  V30 10996 H 1012.91 5.17566 5.51055 0
M  V30 10997 H 1014.18 4.4147 6.42437 0
M  V30 10998 N 1018.41 -0.709066 1.40748 0
M  V30 10999 C 1019.34 -1.83293 1.35937 0
M  V30 11000 C 1020.32 -1.60983 0.22871 0
M  V30 11001 O 1021.51 -1.8391 0.413435 0
M  V30 11002 C 1018.63 -3.19746 1.11714 0
M  V30 11003 C 1017.68 -3.60872 2.27319 0
M  V30 11004 S 1018.51 -3.67233 3.89743 0
M  V30 11005 C 1019.67 -5.06434 3.67797 0
M  V30 11006 H 1019.9 -1.87095 2.31047 0
M  V30 11007 H 1017.43 -0.876479 1.27111 0
M  V30 11008 H 1019.39 -3.98526 0.984245 0
M  V30 11009 H 1018.05 -3.1357 0.182472 0
M  V30 11010 H 1017.25 -4.59965 2.06029 0
M  V30 11011 H 1016.85 -2.89366 2.36946 0
M  V30 11012 H 1019.14 -5.93544 3.26668 0
M  V30 11013 H 1020.08 -5.32761 4.66445 0
M  V30 11014 H 1020.49 -4.77336 3.01348 0
M  V30 11015 N 1019.89 -1.26353 -0.941956 0
M  V30 11016 C 1021.14 -1.12017 -1.69056 0
M  V30 11017 C 1021.47 0.335856 -1.91274 0
M  V30 11018 O 1020.74 1.24677 -1.49285 0
M  V30 11019 C 1021.03 -1.88889 -3.06583 0
M  V30 11020 C 1020.88 -3.42394 -2.91696 0
M  V30 11021 C 1022.2 -1.68209 -4.06686 0
M  V30 11022 H 1019.32 -0.408311 -0.613556 0
M  V30 11023 H 1021.96 -1.55339 -1.09407 0
M  V30 11024 H 1020.11 -1.5207 -3.57501 0
M  V30 11025 H 1021.78 -3.88962 -2.48005 0
M  V30 11026 H 1020.02 -3.69459 -2.27338 0
M  V30 11027 H 1020.7 -3.91408 -3.89235 0
M  V30 11028 H 1023.17 -2.00286 -3.64726 0
M  V30 11029 H 1022.05 -2.24412 -5.00929 0
M  V30 11030 H 1022.31 -0.626474 -4.37639 0
M  V30 11031 N 1021.37 1.14642 -1.08144 0
M  V30 11032 C 1022.62 1.84964 -0.804437 0
M  V30 11033 C 1022.93 1.8369 0.672106 0
M  V30 11034 O 1024.14 2.49775 1.06417 0
M  V30 11035 C 1022.59 3.32015 -1.38904 0
M  V30 11036 C 1022.2 3.41713 -2.89718 0
M  V30 11037 C 1023.94 4.07467 -1.19041 0
M  V30 11038 C 1021.85 4.82958 -3.41329 0
M  V30 11039 H 1020.78 0.692932 -0.297256 0
M  V30 11040 H 1023.43 1.29255 -1.30251 0
M  V30 11041 H 1021.81 3.87445 -0.818679 0
M  V30 11042 H 1022.99 2.96347 -3.52867 0
M  V30 11043 H 1021.3 2.79713 -3.08463 0
M  V30 11044 H 1023.9 5.1172 -1.55069 0
M  V30 11045 H 1024.24 4.16097 -0.130027 0
M  V30 11046 H 1024.78 3.58329 -1.72757 0
M  V30 11047 H 1021.51 4.79515 -4.46929 0
M  V30 11048 H 1021.03 5.28873 -2.82937 0
M  V30 11049 H 1022.71 5.51841 -3.37759 0
M  V30 11050 N 1022.85 0.866709 1.31628 0
M  V30 11051 C 1024.09 0.476731 1.97117 0
M  V30 11052 C 1024.42 -0.967813 1.68366 0
M  V30 11053 O 1023.7 -1.68101 0.978377 0
M  V30 11054 C 1023.98 0.730561 3.52611 0
M  V30 11055 C 1023.84 2.2244 3.90948 0
M  V30 11056 C 1025.15 0.19488 4.39668 0
M  V30 11057 H 1022.27 0.174682 0.715999 0
M  V30 11058 H 1024.92 1.08735 1.5581 0
M  V30 11059 H 1023.07 0.210834 3.87927 0
M  V30 11060 H 1024.74 2.81113 3.6575 0
M  V30 11061 H 1022.98 2.69824 3.39673 0
M  V30 11062 H 1023.65 2.35266 4.99353 0
M  V30 11063 H 1026.13 0.639478 4.11157 0
M  V30 11064 H 1025 0.401958 5.47426 0
M  V30 11065 H 1025.26 -0.90302 4.32779 0
M  V30 11066 N 1024.32 -1.44642 0.625825 0
M  V30 11067 C 1025.57 -2.02393 0.128391 0
M  V30 11068 C 1025.9 -1.49075 -1.2446 0
M  V30 11069 O 1025.18 -0.672684 -1.82497 0
M  V30 11070 C 1025.46 -3.59934 0.109279 0
M  V30 11071 C 1025.31 -4.23546 1.51423 0
M  V30 11072 C 1026.63 -4.36406 -0.568985 0
M  V30 11073 H 1023.75 -0.735427 0.0481299 0
M  V30 11074 H 1026.39 -1.72277 0.801286 0
M  V30 11075 H 1024.54 -3.85722 -0.463726 0
M  V30 11076 H 1026.22 -4.08882 2.13572 0
M  V30 11077 H 1024.46 -3.81245 2.06966 0
M  V30 11078 H 1025.13 -5.32535 1.45294 0
M  V30 11079 H 1027.61 -4.1602 -0.0817516 0
M  V30 11080 H 1026.48 -5.46122 -0.551527 0
M  V30 11081 H 1026.74 -4.1062 -1.6384 0
M  V30 11082 N 1025.8 -0.366053 -1.5329 0
M  V30 11083 C 1027.05 0.224614 -2.00445 0
M  V30 11084 C 1027.36 1.49829 -1.2574 0
M  V30 11085 O 1028.57 2.16759 -1.63487 0
M  V30 11086 C 1027.03 0.450818 -3.57065 0
M  V30 11087 C 1026.63 -0.808257 -4.40649 0
M  V30 11088 C 1028.38 0.999116 -4.12575 0
M  V30 11089 C 1026.28 -0.551612 -5.88822 0
M  V30 11090 H 1025.21 0.0877114 -0.748881 0
M  V30 11091 H 1027.87 -0.484866 -1.76978 0
M  V30 11092 H 1026.25 1.22157 -3.76688 0
M  V30 11093 H 1027.42 -1.58184 -4.32798 0
M  V30 11094 H 1025.74 -1.27981 -3.96245 0
M  V30 11095 H 1028.33 1.20646 -5.20911 0
M  V30 11096 H 1028.68 1.96139 -3.67199 0
M  V30 11097 H 1029.21 0.288518 -3.96752 0
M  V30 11098 H 1025.95 -1.48423 -6.38475 0
M  V30 11099 H 1025.47 0.183462 -5.99519 0
M  V30 11100 H 1027.15 -0.177307 -6.46757 0
M  V30 11101 N 1027.28 1.57312 -0.0952337 0
M  V30 11102 C 1028.53 1.93974 0.567319 0
M  V30 11103 C 1028.85 0.977805 1.68713 0
M  V30 11104 O 1028.12 0.0298944 1.95877 0
M  V30 11105 H 1026.7 0.71612 0.212558 0
M  V30 11106 H 1029.36 1.94254 -0.158598 0
M  V30 11107 H 1028.46 2.964 0.977423 0
M  V30 11108 N 1028.76 -0.17846 1.56586 0
M  V30 11109 C 1029.69 -1.2496 1.90946 0
M  V30 11110 C 1030.67 -1.43136 0.771424 0
M  V30 11111 O 1031.85 -1.58258 1.02405 0
M  V30 11112 C 1028.98 -2.61368 2.15417 0
M  V30 11113 C 1028.03 -2.59969 3.3811 0
M  V30 11114 S 1028.86 -2.09756 4.9271 0
M  V30 11115 C 1030.01 -3.47956 5.20267 0
M  V30 11116 H 1030.25 -0.956287 2.815 0
M  V30 11117 H 1027.78 -0.382709 1.49582 0
M  V30 11118 H 1029.74 -3.39882 2.30197 0
M  V30 11119 H 1028.4 -2.87903 1.25582 0
M  V30 11120 H 1027.59 -3.60309 3.52411 0
M  V30 11121 H 1027.19 -1.89547 3.2241 0
M  V30 11122 H 1029.49 -4.43914 5.11807 0
M  V30 11123 H 1030.43 -3.38536 6.21932 0
M  V30 11124 H 1030.84 -3.43637 4.47855 0
M  V30 11125 N 1030.24 -1.51135 -0.446768 0
M  V30 11126 C 1031.17 -1.74709 -1.54916 0
M  V30 11127 C 1032.15 -0.596628 -1.59293 0
M  V30 11128 O 1033.33 -0.838356 -1.75172 0
M  V30 11129 C 1030.46 -1.86353 -2.9307 0
M  V30 11130 C 1029.42 -3.01725 -3.03556 0
M  V30 11131 C 1028.74 -2.9854 -4.43597 0
M  V30 11132 C 1030.04 -4.41848 -2.7851 0
M  V30 11133 H 1031.74 -2.67014 -1.3544 0
M  V30 11134 H 1029.28 -1.28489 -0.650131 0
M  V30 11135 H 1031.23 -2.01428 -3.70141 0
M  V30 11136 H 1029.96 -0.906887 -3.13756 0
M  V30 11137 H 1028.62 -2.86339 -2.28922 0
M  V30 11138 H 1028.27 -2.00673 -4.61237 0
M  V30 11139 H 1027.97 -3.76008 -4.51544 0
M  V30 11140 H 1029.49 -3.15696 -5.22655 0
M  V30 11141 H 1030.9 -4.57633 -3.45319 0
M  V30 11142 H 1029.3 -5.2095 -2.97877 0
M  V30 11143 H 1030.37 -4.52536 -1.74182 0
M  V30 11144 N 1031.71 0.701592 -1.41122 0
M  V30 11145 C 1032.68 1.79733 -1.42227 0
M  V30 11146 C 1033.68 1.57708 -0.313831 0
M  V30 11147 O 1034.87 1.64492 -0.573423 0
M  V30 11148 C 1032 3.18024 -1.22775 0
M  V30 11149 H 1033.19 1.80148 -2.39764 0
M  V30 11150 H 1030.74 0.908624 -1.27176 0
M  V30 11151 H 1031.48 3.23252 -0.260552 0
M  V30 11152 H 1031.26 3.35411 -2.0308 0
M  V30 11153 H 1032.75 3.98021 -1.2637 0
M  V30 11154 N 1033.19 1.2685 0.935242 0
M  V30 11155 C 1034.42 1.15538 1.71635 0
M  V30 11156 C 1034.83 -0.288698 1.8658 0
M  V30 11157 O 1034.19 -1.19721 1.37743 0
M  V30 11158 C 1034.24 1.8259 3.11999 0
M  V30 11159 O 1033.96 3.21355 2.97763 0
M  V30 11160 C 1035.46 1.77307 4.06297 0
M  V30 11161 H 1032.68 0.402055 0.537208 0
M  V30 11162 H 1035.23 1.67582 1.17203 0
M  V30 11163 H 1033.38 1.3447 3.63313 0
M  V30 11164 H 1033.8 3.54626 3.86446 0
M  V30 11165 H 1035.27 2.28851 5.02326 0
M  V30 11166 H 1035.75 0.740823 4.32907 0
M  V30 11167 H 1036.35 2.25007 3.60904 0
M  V30 11168 N 1034.67 -1.14067 1.0875 0
M  V30 11169 C 1035.92 -1.84819 0.817698 0
M  V30 11170 C 1036.24 -1.83545 -0.658488 0
M  V30 11171 O 1035.51 -1.28633 -1.47751 0
M  V30 11172 H 1034.09 -0.68433 0.299502 0
M  V30 11173 H 1036.75 -1.38208 1.37421 0
M  V30 11174 H 1035.85 -2.89541 1.16501 0
M  V30 11175 N 1036.15 -0.873678 -1.31166 0
M  V30 11176 C 1037.08 -0.348011 -2.30892 0
M  V30 11177 C 1038.06 0.563092 -1.60509 0
M  V30 11178 O 1039.24 0.479332 -1.88192 0
M  V30 11179 C 1036.37 0.448158 -3.44396 0
M  V30 11180 C 1035.33 -0.370179 -4.26396 0
M  V30 11181 C 1034.65 0.551903 -5.31844 0
M  V30 11182 C 1035.95 -1.60624 -4.96988 0
M  V30 11183 H 1037.65 -1.18134 -2.75109 0
M  V30 11184 H 1035.19 -0.569502 -1.3226 0
M  V30 11185 H 1037.15 0.826458 -4.13216 0
M  V30 11186 H 1035.87 1.31503 -2.98956 0
M  V30 11187 H 1034.53 -0.730472 -3.59249 0
M  V30 11188 H 1034.18 1.41616 -4.82653 0
M  V30 11189 H 1033.88 0.00823478 -5.87599 0
M  V30 11190 H 1035.4 0.926965 -6.03523 0
M  V30 11191 H 1036.82 -1.29917 -5.58386 0
M  V30 11192 H 1035.21 -2.08926 -5.62557 0
M  V30 11193 H 1036.28 -2.357 -4.23761 0
M  V30 11194 N 1037.63 1.44308 -0.633487 0
M  V30 11195 C 1038.85 2.06897 -0.144347 0
M  V30 11196 C 1039.28 1.47045 1.173 0
M  V30 11197 O 1038.63 0.572806 1.72013 0
M  V30 11198 C 1038.68 3.60571 -0.0456324 0
M  V30 11199 O 1037.79 4.0015 0.997682 0
M  V30 11200 H 1037.13 0.658427 -0.0858499 0
M  V30 11201 H 1039.66 1.85142 -0.870833 0
M  V30 11202 H 1039.67 4.07745 0.144178 0
M  V30 11203 H 1038.34 4.03515 -1.0074 0
M  V30 11204 H 1036.92 3.64603 0.782252 0
M  V30 11205 N 1039.1 0.374177 1.53094 0
M  V30 11206 C 1040.52 -0.103172 1.86415 0
M  V30 11207 C 1040.87 -1.47439 1.29446 0
M  V30 11208 O 1039.99 -2.07333 0.619853 0
M  V30 11209 C 1040.59 -0.193988 3.38244 0
M  V30 11210 C 1039.15 -0.615605 3.71332 0
M  V30 11211 C 1038.29 0.23186 2.76329 0
M  V30 11212 H 1041.24 0.592644 1.47219 0
M  V30 11213 H 1041.26 -1.01597 3.66686 0
M  V30 11214 H 1040.78 0.80414 3.79678 0
M  V30 11215 H 1038.88 -1.62165 3.3546 0
M  V30 11216 H 1038.99 -0.38425 4.77557 0
M  V30 11217 H 1037.35 -0.300579 2.5292 0
M  V30 11218 H 1038.14 1.22769 3.20597 0
M  V30 11219 N 1040.58 -1.57259 0.103575 0
M  V30 11220 C 1041.81 -1.99 -0.566275 0
M  V30 11221 C 1042.23 -0.982909 -1.61197 0
M  V30 11222 O 1041.58 0.026345 -1.82481 0
M  V30 11223 C 1041.63 -3.40778 -1.20635 0
M  V30 11224 O 1041.35 -4.37632 -0.202472 0
M  V30 11225 C 1042.86 -3.97567 -1.961 0
M  V30 11226 H 1040.08 -0.653751 -0.151164 0
M  V30 11227 H 1042.62 -2.03658 0.185365 0
M  V30 11228 H 1040.77 -3.37107 -1.90886 0
M  V30 11229 H 1041.19 -5.2026 -0.665535 0
M  V30 11230 H 1042.66 -4.98897 -2.36233 0
M  V30 11231 H 1043.14 -3.35853 -2.83018 0
M  V30 11232 H 1043.75 -4.04737 -1.30645 0
M  V30 11233 N 1042.06 0.170153 -1.56679 0
M  V30 11234 C 1043.29 0.902134 -1.86197 0
M  V30 11235 C 1043.7 1.75775 -0.689098 0
M  V30 11236 O 1043.06 1.79271 0.341763 0
M  V30 11237 C 1043.11 1.77792 -3.14757 0
M  V30 11238 O 1042.83 0.956817 -4.27524 0
M  V30 11239 C 1044.33 2.61947 -3.57629 0
M  V30 11240 H 1041.55 0.262026 -0.617724 0
M  V30 11241 H 1044.1 0.169899 -2.03793 0
M  V30 11242 H 1042.25 2.46348 -2.98984 0
M  V30 11243 H 1042.67 1.5559 -5.00891 0
M  V30 11244 H 1044.14 3.19011 -4.50484 0
M  V30 11245 H 1044.62 3.36873 -2.81803 0
M  V30 11246 H 1045.22 1.98721 -3.76019 0
M  V30 11247 N 1043.54 1.5137 0.438746 0
M  V30 11248 C 1044.95 1.39514 0.775116 0
M  V30 11249 C 1045.15 0.47638 1.95788 0
M  V30 11250 O 1044.21 -0.0689832 2.52406 0
M  V30 11251 C 1045.52 2.81517 1.05681 0
M  V30 11252 C 1047.07 2.90658 1.16133 0
M  V30 11253 C 1047.55 4.33566 1.47597 0
M  V30 11254 N 1049.04 4.36665 1.54524 0
M  V30 11255 C 1049.77 5.4427 1.80438 0
M  V30 11256 N 1049.27 6.62037 2.04154 0
M  V30 11257 N 1051.06 5.31749 1.82208 0
M  V30 11258 H 1043.21 2.09657 -0.340237 0
M  V30 11259 H 1045.48 0.943736 -0.0898115 0
M  V30 11260 H 1045.18 3.50734 0.260441 0
M  V30 11261 H 1045.06 3.20757 1.98481 0
M  V30 11262 H 1047.44 2.2164 1.94833 0
M  V30 11263 H 1047.52 2.54917 0.212376 0
M  V30 11264 H 1047.17 5.03133 0.694251 0
M  V30 11265 H 1047.1 4.66819 2.43696 0
M  V30 11266 H 1049.59 3.51761 1.38105 0
M  V30 11267 H 1049.9 7.39838 2.23293 0
M  V30 11268 H 1048.25 6.65155 2.01479 0
M  V30 11269 H 1051.44 4.3873 1.63198 0
M  V30 11270 H 1051.61 6.15689 2.02067 0
M  V30 11271 N 1045.02 -0.694098 1.41492 0
M  V30 11272 C 1046.24 -1.48286 1.44288 0
M  V30 11273 C 1046.66 -1.88737 0.0485783 0
M  V30 11274 O 1046.02 -1.56881 -0.932449 0
M  V30 11275 C 1046.07 -2.74446 2.3529 0
M  V30 11276 O 1045.79 -2.35698 3.69294 0
M  V30 11277 C 1047.29 -3.68175 2.46905 0
M  V30 11278 H 1044.51 -0.45692 0.491391 0
M  V30 11279 H 1047.05 -0.854477 1.85793 0
M  V30 11280 H 1045.21 -3.33518 1.9709 0
M  V30 11281 H 1045.62 -3.17029 4.17843 0
M  V30 11282 H 1047.1 -4.53476 3.14743 0
M  V30 11283 H 1047.57 -4.12763 1.50078 0
M  V30 11284 H 1048.18 -3.15006 2.85747 0
M  V30 11285 N 1046.49 -1.27344 -0.928501 0
M  V30 11286 C 1047.77 -1.04362 -1.65433 0
M  V30 11287 C 1048.15 0.421896 -2.06841 0
M  V30 11288 O 1047.5 1.40496 -1.80203 0
M  V30 11289 C 1047.71 -2.00442 -2.85699 0
M  V30 11290 C 1049.06 -2.29767 -3.57061 0
M  V30 11291 O 1050.08 -1.98409 -2.95825 0
M  V30 11292 O 1048.94 -2.83217 -4.67387 0
M  V30 11293 H 1046.03 -0.397783 -0.72505 0
M  V30 11294 H 1048.58 -1.38606 -0.979109 0
M  V30 11295 H 1047.35 -2.99281 -2.52085 0
M  V30 11296 H 1046.98 -1.66755 -3.60941 0
M  V30 11297 N 1047.97 1.13488 -1.09353 0
M  V30 11298 C 1049.38 1.66299 -0.848609 0
M  V30 11299 C 1049.73 1.86044 0.623051 0
M  V30 11300 O 1048.86 1.57871 1.48005 0
M  V30 11301 C 1049.45 3.02087 -1.53391 0
M  V30 11302 C 1048.01 3.51893 -1.33598 0
M  V30 11303 C 1047.16 2.27154 -1.59048 0
M  V30 11304 H 1050.11 0.974208 -1.25279 0
M  V30 11305 H 1050.13 3.68018 -0.966587 0
M  V30 11306 H 1049.64 2.87684 -2.60498 0
M  V30 11307 H 1047.75 3.715 -0.286045 0
M  V30 11308 H 1047.86 4.32059 -2.0703 0
M  V30 11309 H 1046.22 2.33708 -1.01256 0
M  V30 11310 H 1047.01 2.15317 -2.67383 0
M  V30 11311 N 1049.45 0.880621 1.30701 0
M  V30 11312 C 1050.73 0.41712 1.91101 0
M  V30 11313 C 1051.11 -1.10177 1.80067 0
M  V30 11314 O 1050.46 -1.93513 1.21511 0
M  V30 11315 C 1050.67 0.910364 3.36917 0
M  V30 11316 C 1052.01 0.942764 4.14001 0
M  V30 11317 O 1053.04 0.856733 3.45743 0
M  V30 11318 O 1051.9 1.06913 5.3594 0
M  V30 11319 H 1048.99 0.126775 0.817225 0
M  V30 11320 H 1051.54 0.969236 1.39298 0
M  V30 11321 H 1050.31 1.95414 3.39012 0
M  V30 11322 H 1049.93 0.337164 3.96168 0
M  V30 11323 N 1050.93 -1.4397 0.641131 0
M  V30 11324 C 1052.21 -1.95436 0.0800918 0
M  V30 11325 C 1052.59 -1.58282 -1.39678 0
M  V30 11326 O 1051.93 -0.861867 -2.11623 0
M  V30 11327 C 1052.14 -3.47589 0.313531 0
M  V30 11328 C 1053.49 -4.2407 0.212034 0
M  V30 11329 O 1054.52 -3.55353 0.245434 0
M  V30 11330 O 1053.38 -5.46356 0.125455 0
M  V30 11331 H 1050.47 -0.826834 -0.0165735 0
M  V30 11332 H 1053.02 -1.5397 0.71353 0
M  V30 11333 H 1051.79 -3.67716 1.33793 0
M  V30 11334 H 1051.41 -3.96025 -0.353563 0
M  V30 11335 N 1052.41 -0.382291 -1.52893 0
M  V30 11336 C 1053.82 0.0932841 -1.86467 0
M  V30 11337 C 1054.17 1.4675 -1.30226 0
M  V30 11338 O 1053.29 2.07001 -0.63084 0
M  V30 11339 C 1053.89 0.176048 -3.38342 0
M  V30 11340 C 1052.45 0.595904 -3.71653 0
M  V30 11341 C 1051.6 -0.246511 -2.76202 0
M  V30 11342 H 1054.55 -0.600443 -1.46903 0
M  V30 11343 H 1054.57 0.996512 -3.67219 0
M  V30 11344 H 1054.08 -0.824264 -3.79246 0
M  V30 11345 H 1052.18 1.60384 -3.36315 0
M  V30 11346 H 1052.29 0.358919 -4.77754 0
M  V30 11347 H 1050.66 0.287162 -2.53076 0
M  V30 11348 H 1051.44 -1.24467 -3.19942 0
M  V30 11349 N 1053.89 1.57202 -0.111913 0
M  V30 11350 C 1054.83 2.14936 0.840908 0
M  V30 11351 C 1055.8 1.07242 1.2684 0
M  V30 11352 O 1056.99 1.35114 1.34718 0
M  V30 11353 C 1054.13 2.74743 2.0883 0
M  V30 11354 C 1053.24 3.96723 1.70982 0
M  V30 11355 C 1052.38 4.4464 2.90634 0
M  V30 11356 C 1051.41 5.59169 2.48992 0
M  V30 11357 N 1050.55 6.01862 3.61534 0
M  V30 11358 H 1055.39 2.96034 0.341735 0
M  V30 11359 H 1052.93 1.4626 0.156993 0
M  V30 11360 H 1054.89 3.07546 2.81907 0
M  V30 11361 H 1053.52 1.96346 2.56218 0
M  V30 11362 H 1052.57 3.70127 0.878072 0
M  V30 11363 H 1053.88 4.79795 1.36373 0
M  V30 11364 H 1053.03 4.79315 3.71944 0
M  V30 11365 H 1051.77 3.60503 3.28464 0
M  V30 11366 H 1050.78 5.24106 1.66113 0
M  V30 11367 H 1052 6.45067 2.12287 0
M  V30 11368 H 1049.95 5.20667 3.99051 0
M  V30 11369 H 1049.87 6.79772 3.30827 0
M  V30 11370 H 1051.13 6.41172 4.43305 0
M  V30 11371 N 1055.36 -0.161842 1.56767 0
M  V30 11372 C 1056.61 -0.875278 1.81719 0
M  V30 11373 C 1056.93 -1.82998 0.690739 0
M  V30 11374 O 1058.13 -2.58648 0.82545 0
M  V30 11375 C 1056.59 -1.60703 3.22029 0
M  V30 11376 C 1056.2 -0.695486 4.42569 0
M  V30 11377 C 1057.94 -2.30813 3.56266 0
M  V30 11378 C 1055.85 -1.42801 5.73901 0
M  V30 11379 H 1054.78 -0.330591 0.677662 0
M  V30 11380 H 1057.43 -0.128112 1.83052 0
M  V30 11381 H 1055.81 -2.39929 3.1504 0
M  V30 11382 H 1056.98 0.0604882 4.6076 0
M  V30 11383 H 1055.3 -0.10356 4.16271 0
M  V30 11384 H 1057.9 -2.86229 4.51638 0
M  V30 11385 H 1058.24 -3.06603 2.81604 0
M  V30 11386 H 1058.77 -1.5852 3.64851 0
M  V30 11387 H 1055.51 -0.712253 6.51619 0
M  V30 11388 H 1055.03 -2.15707 5.5967 0
M  V30 11389 H 1056.71 -1.97295 6.16185 0
M  V30 11390 N 1056.84 -1.516 -0.430713 0
M  V30 11391 C 1058.07 -1.68414 -1.20185 0
M  V30 11392 C 1058.48 -0.384297 -1.84847 0
M  V30 11393 O 1057.84 0.637808 -1.70992 0
M  V30 11394 C 1057.89 -2.80451 -2.28099 0
M  V30 11395 O 1057.61 -4.05399 -1.66081 0
M  V30 11396 C 1059.11 -3.0859 -3.18256 0
M  V30 11397 H 1056.33 -0.564982 -0.361989 0
M  V30 11398 H 1058.88 -1.9805 -0.50954 0
M  V30 11399 H 1057.03 -2.53395 -2.93036 0
M  V30 11400 H 1057.45 -4.67671 -2.37453 0
M  V30 11401 H 1058.92 -3.9055 -3.90096 0
M  V30 11402 H 1059.4 -2.21264 -3.79393 0
M  V30 11403 H 1060 -3.37331 -2.59014 0
M  V30 11404 N 1058.32 0.686584 -1.41858 0
M  V30 11405 C 1059.57 1.44235 -1.40994 0
M  V30 11406 C 1059.88 1.95583 -0.0254979 0
M  V30 11407 O 1061.09 2.71294 0.10576 0
M  V30 11408 C 1059.54 2.6086 -2.47952 0
M  V30 11409 C 1059.15 2.16259 -3.92347 0
M  V30 11410 C 1060.9 3.38441 -2.56237 0
M  V30 11411 C 1058.8 3.29896 -4.90838 0
M  V30 11412 H 1057.73 0.54181 -0.524364 0
M  V30 11413 H 1060.38 0.744486 -1.67719 0
M  V30 11414 H 1058.77 3.32957 -2.14373 0
M  V30 11415 H 1059.94 1.51392 -4.35221 0
M  V30 11416 H 1058.25 1.51648 -3.87804 0
M  V30 11417 H 1060.85 4.23052 -3.27003 0
M  V30 11418 H 1061.19 3.84238 -1.6021 0
M  V30 11419 H 1061.73 2.73406 -2.88953 0
M  V30 11420 H 1058.47 2.89104 -5.88302 0
M  V30 11421 H 1057.99 3.93584 -4.52606 0
M  V30 11422 H 1059.67 3.95541 -5.12012 0
M  V30 11423 N 1059.8 1.27835 0.921735 0
M  V30 11424 C 1061.04 1.14692 1.67253 0
M  V30 11425 C 1061.38 -0.305384 1.91784 0
M  V30 11426 O 1060.65 -1.22286 1.51249 0
M  V30 11427 C 1060.93 1.93743 3.03539 0
M  V30 11428 C 1060.79 3.46991 2.86212 0
M  V30 11429 C 1062.11 1.74658 4.03959 0
M  V30 11430 H 1059.23 0.418021 0.606983 0
M  V30 11431 H 1061.87 1.5706 1.06922 0
M  V30 11432 H 1060.02 1.57738 3.55037 0
M  V30 11433 H 1061.69 3.92858 2.41785 0
M  V30 11434 H 1059.93 3.73029 2.21432 0
M  V30 11435 H 1060.6 3.97551 3.82958 0
M  V30 11436 H 1063.08 2.06063 3.61493 0
M  V30 11437 H 1061.96 2.32353 4.97296 0
M  V30 11438 H 1062.22 0.696019 4.36587 0
M  V30 11439 N 1061.28 -1.12907 1.09954 0
M  V30 11440 C 1062.5 -1.88679 0.861099 0
M  V30 11441 C 1062.93 -1.78853 -0.582499 0
M  V30 11442 O 1062.28 -1.13992 -1.4098 0
M  V30 11443 C 1062.33 -3.36047 1.30785 0
M  V30 11444 O 1061.44 -4.09716 0.469728 0
M  V30 11445 H 1060.78 -0.586447 0.31141 0
M  V30 11446 H 1063.31 -1.42818 1.46507 0
M  V30 11447 H 1063.32 -3.86882 1.29562 0
M  V30 11448 H 1061.99 -3.42516 2.35914 0
M  V30 11449 H 1060.57 -3.6887 0.54674 0
M  V30 11450 N 1062.75 -0.88754 -1.30232 0
M  V30 11451 C 1063.99 -0.514017 -1.97831 0
M  V30 11452 C 1064.36 0.920151 -1.68515 0
M  V30 11453 O 1065.56 1.39993 -2.29468 0
M  V30 11454 C 1063.83 -0.784155 -3.48692 0
M  V30 11455 S 1065.39 -0.513119 -4.3579 0
M  V30 11456 H 1062.21 -0.191157 -0.684821 0
M  V30 11457 H 1064.81 -1.14736 -1.58291 0
M  V30 11458 H 1063.51 -1.82639 -3.6752 0
M  V30 11459 H 1063.04 -0.138468 -3.93156 0
M  V30 11460 H 1065.06 0.647155 -4.91962 0
M  V30 11461 N 1064.23 1.43628 -0.648757 0
M  V30 11462 C 1065.18 2.32529 0.057536 0
M  V30 11463 C 1066.17 1.48358 0.817699 0
M  V30 11464 O 1067.38 1.64595 0.728605 0
M  V30 11465 H 1063.76 0.75107 0.037388 0
M  V30 11466 H 1065.73 2.89829 -0.710062 0
M  V30 11467 C 1064.48 3.32605 1.01336 0
M  V30 11468 H 1063.8 3.97395 0.437855 0
M  V30 11469 H 1065.24 3.97453 1.47672 0
M  V30 11470 C 1063.7 2.62865 2.10722 0
M  V30 11471 O 1064.23 2.4408 3.19042 0
M  V30 11472 N 1062.43 2.22312 1.87152 0
M  V30 11473 H 1061.98 2.3779 0.990644 0
M  V30 11474 H 1061.94 1.75979 2.60536 0
M  V30 11475 N 1065.71 0.390394 1.52688 0
M  V30 11476 C 1067.12 -0.083394 1.86514 0
M  V30 11477 C 1067.47 -1.46057 1.31003 0
M  V30 11478 O 1066.6 -2.06663 0.641809 0
M  V30 11479 C 1067.19 -0.158102 3.38431 0
M  V30 11480 C 1065.75 -0.576186 3.71964 0
M  V30 11481 C 1064.9 0.261156 2.76068 0
M  V30 11482 H 1067.85 0.608226 1.46582 0
M  V30 11483 H 1067.87 -0.977023 3.67742 0
M  V30 11484 H 1067.38 0.844365 3.78803 0
M  V30 11485 H 1065.48 -1.58598 3.37161 0
M  V30 11486 H 1065.6 -0.333577 4.77937 0
M  V30 11487 H 1063.96 -0.273737 2.53225 0
M  V30 11488 H 1064.74 1.26162 3.19277 0
M  V30 11489 N 1067.19 -1.57141 0.120249 0
M  V30 11490 C 1068.14 -2.16638 -0.846809 0
M  V30 11491 C 1069.13 -1.11594 -1.27449 0
M  V30 11492 O 1070.34 -1.29895 -1.24608 0
M  V30 11493 H 1066.71 -0.693331 -0.291197 0
M  V30 11494 H 1068.68 -2.96673 -0.320536 0
M  V30 11495 C 1067.43 -2.78134 -2.08655 0
M  V30 11496 H 1066.75 -3.58662 -1.76639 0
M  V30 11497 H 1068.19 -3.23301 -2.74322 0
M  V30 11498 C 1066.65 -1.7528 -2.87713 0
M  V30 11499 O 1067.18 -1.20693 -3.8314 0
M  V30 11500 N 1065.39 -1.45192 -2.51729 0
M  V30 11501 H 1064.94 -1.89773 -1.74195 0
M  V30 11502 H 1064.89 -0.766166 -3.04922 0
M  V30 11503 N 1068.67 0.153526 -1.5685 0
M  V30 11504 C 1069.9 0.881055 -1.86872 0
M  V30 11505 C 1070.3 1.75547 -0.705692 0
M  V30 11506 O 1069.65 1.8064 0.333888 0
M  V30 11507 C 1069.71 1.79429 -3.11521 0
M  V30 11508 C 1069.37 1.0977 -4.43621 0
M  V30 11509 C 1070.37 0.454693 -5.17908 0
M  V30 11510 C 1068.06 1.08915 -4.9035 0
M  V30 11511 C 1070.05 -0.187562 -6.37124 0
M  V30 11512 C 1067.74 0.443084 -6.09492 0
M  V30 11513 C 1068.73 -0.194154 -6.82724 0
M  V30 11514 O 1068.42 -0.829995 -7.99604 0
M  V30 11515 H 1068.15 0.260486 -0.623797 0
M  V30 11516 H 1070.71 0.153024 -2.04829 0
M  V30 11517 H 1068.94 2.5631 -2.89555 0
M  V30 11518 H 1070.63 2.39321 -3.27842 0
M  V30 11519 H 1071.39 0.453151 -4.82878 0
M  V30 11520 H 1067.27 1.57456 -4.33276 0
M  V30 11521 H 1070.82 -0.685542 -6.94223 0
M  V30 11522 H 1066.71 0.44227 -6.43983 0
M  V30 11523 H 1067.48 -0.731013 -8.15229 0
M  V30 11524 N 1070.14 1.51827 0.422667 0
M  V30 11525 C 1071.56 1.40328 0.760275 0
M  V30 11526 C 1071.76 0.497119 1.95272 0
M  V30 11527 O 1070.82 -0.0422083 2.52465 0
M  V30 11528 C 1072.13 2.82622 1.02689 0
M  V30 11529 C 1073.68 2.91874 1.13044 0
M  V30 11530 C 1074.15 4.35107 1.4299 0
M  V30 11531 N 1075.64 4.3828 1.49883 0
M  V30 11532 C 1076.38 5.46153 1.74655 0
M  V30 11533 N 1075.87 6.64165 1.9712 0
M  V30 11534 N 1077.67 5.33651 1.76558 0
M  V30 11535 H 1069.82 2.09285 -0.362455 0
M  V30 11536 H 1072.08 0.94273 -0.0998161 0
M  V30 11537 H 1071.79 3.50991 0.223226 0
M  V30 11538 H 1071.66 3.22844 1.95068 0
M  V30 11539 H 1074.05 2.23694 1.92471 0
M  V30 11540 H 1074.13 2.55128 0.185326 0
M  V30 11541 H 1073.77 5.03841 0.640848 0
M  V30 11542 H 1073.7 4.69377 2.38731 0
M  V30 11543 H 1076.19 3.53206 1.34366 0
M  V30 11544 H 1076.51 7.42165 2.15434 0
M  V30 11545 H 1074.85 6.67255 1.94413 0
M  V30 11546 H 1078.04 4.40436 1.58536 0
M  V30 11547 H 1078.22 6.17798 1.95525 0
M  V30 11548 N 1071.62 -0.679052 1.4222 0
M  V30 11549 C 1072.57 -1.81398 1.45594 0
M  V30 11550 C 1073.56 -1.66112 0.332127 0
M  V30 11551 O 1074.77 -1.72772 0.504942 0
M  V30 11552 H 1071.15 -0.598045 0.455902 0
M  V30 11553 H 1073.12 -1.7567 2.41211 0
M  V30 11554 C 1071.87 -3.19525 1.37109 0
M  V30 11555 H 1071.19 -3.31912 2.22878 0
M  V30 11556 H 1072.63 -3.98967 1.43531 0
M  V30 11557 C 1071.09 -3.36792 0.0853593 0
M  V30 11558 O 1071.62 -3.92309 -0.863532 0
M  V30 11559 N 1069.82 -2.906 0.00389229 0
M  V30 11560 H 1069.37 -2.45607 0.776846 0
M  V30 11561 H 1069.33 -3.0253 -0.855742 0
M  V30 11562 N 1073.1 -1.28322 -0.914942 0
M  V30 11563 C 1074.33 -1.1837 -1.70304 0
M  V30 11564 C 1074.75 0.254291 -1.86373 0
M  V30 11565 O 1074.11 1.18398 -1.37301 0
M  V30 11566 C 1074.16 -1.88603 -3.07346 0
M  V30 11567 O 1073.26 -1.19268 -3.94777 0
M  V30 11568 H 1072.6 -0.410978 -0.52153 0
M  V30 11569 H 1075.13 -1.69622 -1.14409 0
M  V30 11570 H 1075.14 -1.96463 -3.57584 0
M  V30 11571 H 1073.82 -2.93201 -2.94967 0
M  V30 11572 H 1072.39 -1.19563 -3.53212 0
M  V30 11573 N 1074.58 1.12322 -1.10551 0
M  V30 11574 C 1075.51 2.20176 -0.777486 0
M  V30 11575 C 1076.49 1.68252 0.250069 0
M  V30 11576 O 1077.67 1.93856 0.115574 0
M  V30 11577 C 1074.8 3.46666 -0.209822 0
M  V30 11578 C 1073.76 4.11749 -1.1682 0
M  V30 11579 C 1073.08 5.32703 -0.461684 0
M  V30 11580 C 1074.38 4.57746 -2.51527 0
M  V30 11581 H 1076.08 2.47872 -1.67928 0
M  V30 11582 H 1073.62 1.19136 -0.808863 0
M  V30 11583 H 1075.58 4.21388 0.0318068 0
M  V30 11584 H 1074.3 3.18401 0.727226 0
M  V30 11585 H 1072.96 3.39009 -1.3953 0
M  V30 11586 H 1072.61 5.00706 0.479875 0
M  V30 11587 H 1072.31 5.77197 -1.1008 0
M  V30 11588 H 1073.83 6.10172 -0.228629 0
M  V30 11589 H 1075.25 5.23835 -2.32958 0
M  V30 11590 H 1073.64 5.13021 -3.11335 0
M  V30 11591 H 1074.71 3.71667 -3.11435 0
M  V30 11592 N 1076.06 0.894434 1.2976 0
M  V30 11593 C 1076.99 0.3847 2.30309 0
M  V30 11594 C 1077.97 -0.537486 1.61385 0
M  V30 11595 O 1079.15 -0.449332 1.8893 0
M  V30 11596 C 1076.28 -0.393311 3.45066 0
M  V30 11597 C 1075.24 0.437968 4.25753 0
M  V30 11598 C 1074.56 -0.467221 5.32655 0
M  V30 11599 C 1075.86 1.6851 4.9437 0
M  V30 11600 H 1077.56 1.22496 2.73194 0
M  V30 11601 H 1075.1 0.590471 1.31337 0
M  V30 11602 H 1077.06 -0.760614 4.14479 0
M  V30 11603 H 1075.78 -1.2673 3.0101 0
M  V30 11604 H 1074.44 0.787533 3.58041 0
M  V30 11605 H 1074.09 -1.33919 4.84845 0
M  V30 11606 H 1073.79 0.0852482 5.87538 0
M  V30 11607 H 1075.31 -0.830833 6.04921 0
M  V30 11608 H 1076.72 1.38784 5.56248 0
M  V30 11609 H 1075.12 2.17849 5.59162 0
M  V30 11610 H 1076.19 2.42412 4.19958 0
M  V30 11611 N 1077.53 -1.43282 0.656365 0
M  V30 11612 C 1078.78 -2.01776 0.171039 0
M  V30 11613 C 1079.11 -1.51795 -1.21609 0
M  V30 11614 O 1078.36 -0.702864 -1.82643 0
M  V30 11615 C 1078.66 -3.57148 0.134225 0
M  V30 11616 C 1078.33 -4.26488 1.46352 0
M  V30 11617 C 1076.99 -4.45146 1.82753 0
M  V30 11618 C 1079.34 -4.65728 2.33981 0
M  V30 11619 C 1076.67 -5.0031 3.06443 0
M  V30 11620 C 1079.02 -5.22263 3.56966 0
M  V30 11621 C 1077.69 -5.39136 3.93559 0
M  V30 11622 H 1076.96 -0.738352 0.0625878 0
M  V30 11623 H 1079.6 -1.71716 0.847697 0
M  V30 11624 H 1077.91 -3.86768 -0.625892 0
M  V30 11625 H 1079.61 -4.00168 -0.258207 0
M  V30 11626 H 1076.2 -4.12313 1.1703 0
M  V30 11627 H 1080.38 -4.51003 2.07148 0
M  V30 11628 H 1075.64 -5.11559 3.34839 0
M  V30 11629 H 1079.81 -5.51614 4.25082 0
M  V30 11630 H 1077.44 -5.81646 4.89481 0
M  V30 11631 N 1079.01 -0.398486 -1.52479 0
M  V30 11632 C 1079.96 0.447001 -2.28264 0
M  V30 11633 C 1080.96 1.05511 -1.32529 0
M  V30 11634 O 1082.16 0.994528 -1.5003 0
M  V30 11635 H 1078.54 0.162919 -0.73414 0
M  V30 11636 H 1080.51 -0.213534 -2.97635 0
M  V30 11637 C 1079.26 1.55724 -3.10879 0
M  V30 11638 H 1078.58 1.09864 -3.84409 0
M  V30 11639 H 1080.02 2.12286 -3.67029 0
M  V30 11640 C 1078.48 2.51853 -2.23768 0
M  V30 11641 O 1079.01 3.55483 -1.87069 0
M  V30 11642 N 1077.21 2.2181 -1.87746 0
M  V30 11643 H 1076.76 1.3757 -2.17789 0
M  V30 11644 H 1076.72 2.86376 -1.29753 0
M  V30 11645 N 1080.49 1.57075 -0.12858 0
M  V30 11646 C 1081.72 1.99876 0.534544 0
M  V30 11647 C 1082.13 1.00843 1.59612 0
M  V30 11648 O 1081.49 0.00268947 1.825 0
M  V30 11649 C 1081.54 3.42654 1.15198 0
M  V30 11650 O 1081.26 4.37899 0.132823 0
M  V30 11651 C 1082.76 4.00637 1.8975 0
M  V30 11652 H 1079.98 0.656073 0.140744 0
M  V30 11653 H 1082.53 2.03337 -0.217742 0
M  V30 11654 H 1080.68 3.40101 1.85499 0
M  V30 11655 H 1081.1 5.21253 0.582682 0
M  V30 11656 H 1082.57 5.02592 2.28266 0
M  V30 11657 H 1083.05 3.40313 2.7764 0
M  V30 11658 H 1083.65 4.06764 1.2419 0
M  V30 11659 N 1081.97 -0.145205 1.5693 0
M  V30 11660 C 1083.19 -0.876386 1.87974 0
M  V30 11661 C 1083.62 -1.73866 0.717795 0
M  V30 11662 O 1082.98 -1.78224 -0.332551 0
M  V30 11663 C 1083.03 -1.70746 3.17613 0
M  V30 11664 O 1082.13 -2.81188 3.01674 0
M  V30 11665 H 1081.47 -0.243987 0.617549 0
M  V30 11666 H 1084 -0.135482 2.04151 0
M  V30 11667 H 1084.01 -2.1021 3.49679 0
M  V30 11668 H 1082.69 -1.07429 4.01786 0
M  V30 11669 H 1081.26 -2.45117 2.81019 0
M  V30 11670 N 1083.45 -1.52049 -0.414609 0
M  V30 11671 C 1084.38 -1.77956 -1.51175 0
M  V30 11672 C 1085.36 -0.630282 -1.57992 0
M  V30 11673 O 1086.54 -0.875324 -1.73354 0
M  V30 11674 C 1083.67 -1.92527 -2.89051 0
M  V30 11675 C 1082.63 -3.08096 -2.97087 0
M  V30 11676 C 1081.95 -3.07882 -4.37164 0
M  V30 11677 C 1083.25 -4.47656 -2.69075 0
M  V30 11678 H 1084.95 -2.69827 -1.29746 0
M  V30 11679 H 1082.49 -1.29839 -0.62273 0
M  V30 11680 H 1084.45 -2.09234 -3.65786 0
M  V30 11681 H 1083.17 -0.973235 -3.11762 0
M  V30 11682 H 1081.83 -2.91131 -2.22797 0
M  V30 11683 H 1081.48 -2.10411 -4.56877 0
M  V30 11684 H 1081.18 -3.85501 -4.43467 0
M  V30 11685 H 1082.7 -3.26712 -5.15841 0
M  V30 11686 H 1084.12 -4.64855 -3.35534 0
M  V30 11687 H 1082.51 -5.27151 -2.8676 0
M  V30 11688 H 1083.58 -4.56129 -1.64544 0
M  V30 11689 N 1084.93 0.6715 -1.42579 0
M  V30 11690 C 1086.2 1.42766 -1.33706 0
M  V30 11691 C 1086.58 2.11086 0.0239748 0
M  V30 11692 O 1085.93 2.03479 1.03964 0
M  V30 11693 C 1086.14 2.42739 -2.50756 0
M  V30 11694 C 1087.49 3.07284 -2.93021 0
M  V30 11695 O 1088.51 2.53066 -2.50671 0
M  V30 11696 O 1087.37 4.05541 -3.66331 0
M  V30 11697 H 1084.47 0.636955 -0.527463 0
M  V30 11698 H 1087.01 0.699946 -1.54593 0
M  V30 11699 H 1085.78 1.91076 -3.41476 0
M  V30 11700 H 1085.41 3.22986 -2.31874 0
M  V30 11701 N 1086.4 1.28806 0.908124 0
M  V30 11702 C 1087.33 1.15758 2.02787 0
M  V30 11703 C 1088.31 0.053911 1.70015 0
M  V30 11704 O 1089.5 0.231901 1.9281 0
M  V30 11705 C 1086.63 0.824526 3.37371 0
M  V30 11706 C 1085.58 1.88359 3.84324 0
M  V30 11707 C 1084.91 1.40404 5.15937 0
M  V30 11708 C 1086.21 3.29108 4.05568 0
M  V30 11709 H 1087.9 2.09431 2.13961 0
M  V30 11710 H 1085.45 1.00831 1.02806 0
M  V30 11711 H 1087.4 0.71999 4.15204 0
M  V30 11712 H 1086.13 -0.147902 3.26265 0
M  V30 11713 H 1084.79 1.97736 3.087 0
M  V30 11714 H 1084.43 0.420515 5.01239 0
M  V30 11715 H 1084.13 2.11224 5.48323 0
M  V30 11716 H 1085.66 1.31283 5.9632 0
M  V30 11717 H 1087.07 3.2262 4.73909 0
M  V30 11718 H 1085.47 3.97812 4.49294 0
M  V30 11719 H 1086.54 3.72709 3.10187 0
M  V30 11720 N 1087.88 -1.11734 1.11145 0
M  V30 11721 C 1088.81 -2.1976 0.789152 0
M  V30 11722 C 1089.79 -1.68382 -0.241143 0
M  V30 11723 O 1090.98 -1.93914 -0.105292 0
M  V30 11724 C 1088.11 -3.46549 0.228204 0
M  V30 11725 C 1087.06 -4.11123 1.19002 0
M  V30 11726 C 1086.39 -5.32451 0.489928 0
M  V30 11727 C 1087.69 -4.56406 2.53951 0
M  V30 11728 H 1089.38 -2.46978 1.69241 0
M  V30 11729 H 1086.93 -1.18705 0.81517 0
M  V30 11730 H 1088.88 -4.21399 -0.00945908 0
M  V30 11731 H 1087.6 -3.18782 -0.71033 0
M  V30 11732 H 1086.26 -3.38264 1.41326 0
M  V30 11733 H 1085.91 -5.00953 -0.453315 0
M  V30 11734 H 1085.61 -5.76605 1.1314 0
M  V30 11735 H 1087.14 -6.10042 0.260984 0
M  V30 11736 H 1088.55 -5.22592 2.35733 0
M  V30 11737 H 1086.95 -5.11363 3.14051 0
M  V30 11738 H 1088.02 -3.7001 3.13402 0
M  V30 11739 N 1089.36 -0.901303 -1.29284 0
M  V30 11740 C 1090.29 -0.396909 -2.30102 0
M  V30 11741 C 1091.27 0.528919 -1.61668 0
M  V30 11742 O 1092.46 0.439306 -1.89166 0
M  V30 11743 C 1089.59 0.375006 -3.45269 0
M  V30 11744 C 1088.54 -0.46054 -4.25515 0
M  V30 11745 C 1087.87 0.438967 -5.32895 0
M  V30 11746 C 1089.17 -1.7113 -4.93469 0
M  V30 11747 H 1090.86 -1.23943 -2.72541 0
M  V30 11748 H 1088.41 -0.597428 -1.31022 0
M  V30 11749 H 1090.36 0.738622 -4.14876 0
M  V30 11750 H 1089.08 1.25132 -3.01678 0
M  V30 11751 H 1087.74 -0.80651 -3.57618 0
M  V30 11752 H 1087.39 1.31346 -4.85548 0
M  V30 11753 H 1087.09 -0.116406 -5.87485 0
M  V30 11754 H 1088.61 0.79874 -6.05353 0
M  V30 11755 H 1090.03 -1.41732 -5.55504 0
M  V30 11756 H 1088.42 -2.20811 -5.57999 0
M  V30 11757 H 1089.49 -2.44636 -4.18666 0
M  V30 11758 N 1090.84 1.42931 -0.663954 0
M  V30 11759 C 1092.06 2.06544 -0.188201 0
M  V30 11760 C 1092.49 1.495 1.14155 0
M  V30 11761 O 1091.85 0.609164 1.7076 0
M  V30 11762 C 1091.89 3.60393 -0.122105 0
M  V30 11763 O 1091 4.02176 0.91258 0
M  V30 11764 H 1090.34 0.656458 -0.0997967 0
M  V30 11765 H 1092.87 1.83253 -0.909909 0
M  V30 11766 H 1092.88 4.07959 0.0576568 0
M  V30 11767 H 1091.55 4.01287 -1.09276 0
M  V30 11768 H 1090.13 3.6618 0.704738 0
M  V30 11769 N 1092.32 0.406567 1.52266 0
M  V30 11770 C 1093.56 -0.170305 2.02084 0
M  V30 11771 C 1093.89 -1.45008 1.29176 0
M  V30 11772 O 1093.17 -1.90399 0.39731 0
M  V30 11773 C 1093.45 -0.420627 3.57635 0
M  V30 11774 C 1093.31 0.87564 4.41194 0
M  V30 11775 C 1094.62 -1.20387 4.23314 0
M  V30 11776 H 1091.74 -0.0604219 0.734519 0
M  V30 11777 H 1094.39 0.539529 1.82179 0
M  V30 11778 H 1092.54 -1.0253 3.74726 0
M  V30 11779 H 1094.21 1.51192 4.35819 0
M  V30 11780 H 1092.45 1.48718 4.07511 0
M  V30 11781 H 1093.12 0.654916 5.48101 0
M  V30 11782 H 1095.6 -0.691972 4.10306 0
M  V30 11783 H 1094.47 -1.34776 5.32096 0
M  V30 11784 H 1094.73 -2.2238 3.82099 0
M  V30 11785 N 1093.79 -1.57004 0.136909 0
M  V30 11786 C 1095.04 -1.96087 -0.517477 0
M  V30 11787 C 1095.37 -1.0213 -1.65176 0
M  V30 11788 O 1094.65 -0.0617958 -1.94402 0
M  V30 11789 C 1094.93 -3.44958 -1.03323 0
M  V30 11790 C 1094.78 -4.49691 0.0988609 0
M  V30 11791 C 1096.1 -3.96091 -1.91832 0
M  V30 11792 H 1093.22 -0.712978 -0.186632 0
M  V30 11793 H 1095.86 -1.88767 0.216095 0
M  V30 11794 H 1094.01 -3.51327 -1.65836 0
M  V30 11795 H 1095.69 -4.55409 0.734847 0
M  V30 11796 H 1093.93 -4.271 0.75947 0
M  V30 11797 H 1094.6 -5.51165 -0.303554 0
M  V30 11798 H 1097.08 -3.92139 -1.39164 0
M  V30 11799 H 1095.95 -5.00742 -2.24831 0
M  V30 11800 H 1096.21 -3.37846 -2.85153 0
M  V30 11801 N 1095.27 0.136881 -1.57004 0
M  V30 11802 C 1096.52 0.8461 -1.83536 0
M  V30 11803 C 1096.84 1.81246 -0.71937 0
M  V30 11804 O 1096.11 1.94191 0.258161 0
M  V30 11805 H 1094.69 0.315446 -0.677128 0
M  V30 11806 H 1097.35 0.128469 -1.94476 0
M  V30 11807 H 1096.45 1.40221 -2.78827 0
M  V30 11808 N 1096.75 1.52266 0.40654 0
M  V30 11809 C 1098 1.66452 1.15325 0
M  V30 11810 C 1098.33 0.395728 1.90432 0
M  V30 11811 O 1097.58 -0.621382 1.85573 0
M  V30 11812 C 1097.88 2.8389 2.1712 0
M  V30 11813 C 1097.55 4.22011 1.58801 0
M  V30 11814 C 1096.21 4.59579 1.42621 0
M  V30 11815 C 1098.56 5.08074 1.16236 0
M  V30 11816 C 1095.89 5.80885 0.823967 0
M  V30 11817 C 1098.24 6.29988 0.574284 0
M  V30 11818 C 1096.9 6.66303 0.399638 0
M  V30 11819 H 1096.17 0.609092 0.422005 0
M  V30 11820 H 1098.82 1.86374 0.440131 0
M  V30 11821 H 1097.13 2.58314 2.94586 0
M  V30 11822 H 1098.82 2.92063 2.74774 0
M  V30 11823 H 1095.41 3.92408 1.72378 0
M  V30 11824 H 1099.6 4.79631 1.27544 0
M  V30 11825 H 1094.85 6.07644 0.676694 0
M  V30 11826 H 1099.03 6.96 0.236081 0
M  V30 11827 H 1096.65 7.60169 -0.0691262 0
M  V30 11828 N 1098.23 -0.663929 1.42933 0
M  V30 11829 C 1099.45 -1.45691 1.47611 0
M  V30 11830 C 1099.88 -1.87875 0.0920305 0
M  V30 11831 O 1099.24 -1.56696 -0.91192 0
M  V30 11832 C 1099.28 -2.67517 2.41799 0
M  V30 11833 O 1098.39 -3.66187 1.89686 0
M  V30 11834 H 1097.73 -0.437257 0.499702 0
M  V30 11835 H 1100.26 -0.813397 1.87737 0
M  V30 11836 H 1100.27 -3.1546 2.58745 0
M  V30 11837 H 1098.94 -2.36155 3.4235 0
M  V30 11838 H 1097.52 -3.25274 1.82349 0
M  V30 11839 N 1099.71 -1.29285 -0.901281 0
M  V30 11840 C 1100.95 -1.17165 -1.65162 0
M  V30 11841 C 1101.28 0.277184 -1.92515 0
M  V30 11842 O 1100.54 1.2168 -1.53273 0
M  V30 11843 C 1100.84 -1.92865 -3.00895 0
M  V30 11844 C 1100.5 -3.42593 -2.93157 0
M  V30 11845 C 1099.16 -3.83426 -2.90754 0
M  V30 11846 C 1101.52 -4.38011 -2.82481 0
M  V30 11847 C 1098.84 -5.17997 -2.75492 0
M  V30 11848 C 1101.2 -5.7267 -2.68759 0
M  V30 11849 C 1099.86 -6.12764 -2.64721 0
M  V30 11850 H 1099.13 -0.428737 -0.604372 0
M  V30 11851 H 1101.78 -1.60204 -1.04914 0
M  V30 11852 H 1100.08 -1.42412 -3.65001 0
M  V30 11853 H 1101.78 -1.80893 -3.57881 0
M  V30 11854 H 1098.37 -3.10134 -2.95829 0
M  V30 11855 H 1102.55 -4.07417 -2.83416 0
M  V30 11856 H 1097.81 -5.48173 -2.70769 0
M  V30 11857 H 1101.98 -6.46258 -2.59469 0
M  V30 11858 H 1099.61 -7.16987 -2.52652 0
M  V30 11859 N 1101.18 1.11143 -1.11736 0
M  V30 11860 C 1102.15 2.15456 -0.78174 0
M  V30 11861 C 1103.15 1.59547 0.200383 0
M  V30 11862 O 1104.34 1.74183 -0.0244893 0
M  V30 11863 C 1101.47 3.40523 -0.160364 0
M  V30 11864 H 1102.66 2.46658 -1.70586 0
M  V30 11865 H 1100.22 1.26381 -0.919644 0
M  V30 11866 H 1100.95 3.14932 0.773835 0
M  V30 11867 H 1100.74 3.82386 -0.867378 0
M  V30 11868 H 1102.23 4.17559 0.0582175 0
M  V30 11869 N 1102.66 0.908147 1.28804 0
M  V30 11870 C 1103.89 0.553287 1.99054 0
M  V30 11871 C 1104.3 -0.868455 1.68091 0
M  V30 11872 O 1103.64 -1.58599 0.926939 0
M  V30 11873 C 1103.71 0.675823 3.5309 0
M  V30 11874 C 1103.37 2.06608 4.0763 0
M  V30 11875 C 1104.37 3.03819 4.21889 0
M  V30 11876 C 1102.05 2.37775 4.42457 0
M  V30 11877 C 1104.05 4.30316 4.7022 0
M  V30 11878 C 1101.73 3.64512 4.90484 0
M  V30 11879 C 1102.73 4.60597 5.04321 0
M  V30 11880 O 1102.42 5.85082 5.51302 0
M  V30 11881 H 1102.15 0.210152 0.642504 0
M  V30 11882 H 1104.7 1.22188 1.65104 0
M  V30 11883 H 1102.93 -0.0498253 3.86668 0
M  V30 11884 H 1104.62 0.328884 4.04565 0
M  V30 11885 H 1105.39 2.81057 3.95262 0
M  V30 11886 H 1101.27 1.63742 4.3094 0
M  V30 11887 H 1104.81 5.05318 4.80936 0
M  V30 11888 H 1100.71 3.87101 5.1655 0
M  V30 11889 H 1101.48 5.87791 5.69599 0
M  V30 11890 N 1104.14 -1.42577 0.671525 0
M  V30 11891 C 1105.07 -2.28124 -0.0589347 0
M  V30 11892 C 1106.05 -1.40878 -0.811915 0
M  V30 11893 O 1107.24 -1.70318 -0.807717 0
M  V30 11894 C 1104.36 -3.20662 -1.09057 0
M  V30 11895 C 1103.41 -4.24291 -0.43355 0
M  V30 11896 S 1104.24 -5.29393 0.806442 0
M  V30 11897 C 1105.4 -6.25498 -0.224204 0
M  V30 11898 H 1105.63 -2.89728 0.666689 0
M  V30 11899 H 1103.16 -1.47359 0.460959 0
M  V30 11900 H 1105.12 -3.74516 -1.68071 0
M  V30 11901 H 1103.78 -2.582 -1.78862 0
M  V30 11902 H 1102.98 -4.89213 -1.21186 0
M  V30 11903 H 1102.58 -3.73908 0.0829136 0
M  V30 11904 H 1104.87 -6.68757 -1.08492 0
M  V30 11905 H 1105.81 -7.07023 0.390469 0
M  V30 11906 H 1106.22 -5.61633 -0.568214 0
M  V30 11907 N 1105.62 -0.414636 -1.52048 0
M  V30 11908 C 1106.87 0.159034 -2.01473 0
M  V30 11909 C 1107.19 1.45176 -1.30188 0
M  V30 11910 O 1106.46 1.91134 -0.429469 0
M  V30 11911 H 1105.04 0.0617604 -0.744443 0
M  V30 11912 H 1107.7 -0.552141 -1.86916 0
M  V30 11913 H 1106.8 0.351217 -3.10118 0
M  V30 11914 N 1107.1 1.56929 -0.145233 0
M  V30 11915 C 1108.04 2.16671 0.795128 0
M  V30 11916 C 1109.01 1.09908 1.24537 0
M  V30 11917 O 1110.2 1.37941 1.31821 0
M  V30 11918 C 1107.34 2.79111 2.02956 0
M  V30 11919 C 1106.45 4.00261 1.62528 0
M  V30 11920 C 1105.59 4.50705 2.81137 0
M  V30 11921 C 1104.63 5.64324 2.37075 0
M  V30 11922 N 1103.76 6.09395 3.48687 0
M  V30 11923 H 1108.6 2.96692 0.278865 0
M  V30 11924 H 1106.14 1.4656 0.125934 0
M  V30 11925 H 1108.1 3.13456 2.7532 0
M  V30 11926 H 1106.73 2.01737 2.51996 0
M  V30 11927 H 1105.78 3.71906 0.799365 0
M  V30 11928 H 1107.09 4.8258 1.26166 0
M  V30 11929 H 1106.25 4.87096 3.61693 0
M  V30 11930 H 1104.98 3.67389 3.20744 0
M  V30 11931 H 1103.99 5.27511 1.54958 0
M  V30 11932 H 1105.21 6.49425 1.98556 0
M  V30 11933 H 1103.16 5.29014 3.87917 0
M  V30 11934 H 1103.08 6.86636 3.16333 0
M  V30 11935 H 1104.35 6.50431 4.29605 0
M  V30 11936 N 1108.58 -0.128553 1.57075 0
M  V30 11937 C 1109.49 -1.17718 2.02927 0
M  V30 11938 C 1110.5 -1.45912 0.947932 0
M  V30 11939 O 1111.68 -1.57217 1.25876 0
M  V30 11940 C 1108.74 -2.48625 2.41633 0
M  V30 11941 C 1107.8 -2.27914 3.63804 0
M  V30 11942 C 1107.04 -3.52579 4.00654 0
M  V30 11943 O 1107.26 -4.59505 3.37952 0
M  V30 11944 O 1106.19 -3.44147 4.93808 0
M  V30 11945 H 1110.02 -0.817846 2.92481 0
M  V30 11946 H 1107.6 -0.338649 1.45511 0
M  V30 11947 H 1109.49 -3.2577 2.67305 0
M  V30 11948 H 1108.16 -2.84052 1.55229 0
M  V30 11949 H 1107.07 -1.4866 3.43294 0
M  V30 11950 H 1108.4 -1.97395 4.50883 0
M  V30 11951 N 1110.05 -1.5248 -0.398459 0
M  V30 11952 C 1110.98 -1.79549 -1.49279 0
M  V30 11953 C 1111.96 -0.647004 -1.57315 0
M  V30 11954 O 1113.15 -0.893661 -1.72416 0
M  V30 11955 C 1110.28 -1.95582 -2.86993 0
M  V30 11956 C 1109.23 -3.1123 -2.93803 0
M  V30 11957 C 1108.56 -3.12501 -4.33874 0
M  V30 11958 C 1109.86 -4.50485 -2.64312 0
M  V30 11959 H 1111.55 -2.71187 -1.26877 0
M  V30 11960 H 1109.1 -1.30492 -0.608924 0
M  V30 11961 H 1111.05 -2.13102 -3.63546 0
M  V30 11962 H 1109.78 -1.00625 -3.10712 0
M  V30 11963 H 1108.44 -2.93477 -2.19697 0
M  V30 11964 H 1108.08 -2.15245 -4.54619 0
M  V30 11965 H 1107.78 -3.90183 -4.39353 0
M  V30 11966 H 1109.31 -3.32164 -5.12347 0
M  V30 11967 H 1110.72 -4.68387 -3.30585 0
M  V30 11968 H 1109.12 -5.30163 -2.81153 0
M  V30 11969 H 1110.19 -4.57848 -1.59696 0
M  V30 11970 N 1111.53 0.65634 -1.43283 0
M  V30 11971 C 1112.94 1.23744 -1.39801 0
M  V30 11972 C 1113.29 1.95942 -0.100507 0
M  V30 11973 O 1112.42 2.01063 0.800161 0
M  V30 11974 C 1113.01 2.25062 -2.53244 0
M  V30 11975 C 1111.57 2.78657 -2.53036 0
M  V30 11976 C 1110.72 1.53251 -2.31105 0
M  V30 11977 H 1113.67 0.448553 -1.52229 0
M  V30 11978 H 1113.69 3.07174 -2.24553 0
M  V30 11979 H 1113.2 1.72487 -3.47664 0
M  V30 11980 H 1111.3 3.35304 -1.62487 0
M  V30 11981 H 1111.42 3.26414 -3.507 0
M  V30 11982 H 1109.78 1.80487 -1.79713 0
M  V30 11983 H 1110.56 1.02615 -3.27605 0
M  V30 11984 N 1113.01 1.29761 0.894412 0
M  V30 11985 C 1114.24 1.2094 1.67872 0
M  V30 11986 C 1114.65 -0.229192 1.87404 0
M  V30 11987 O 1114.01 -1.15278 1.41482 0
M  V30 11988 C 1114.06 1.92424 3.06032 0
M  V30 11989 O 1113.78 3.30665 2.87388 0
M  V30 11990 C 1115.28 1.90144 4.0045 0
M  V30 11991 H 1112.5 0.418942 0.524145 0
M  V30 11992 H 1115.05 1.71226 1.11813 0
M  V30 11993 H 1113.2 1.4596 3.58851 0
M  V30 11994 H 1113.62 3.66741 3.74969 0
M  V30 11995 H 1115.09 2.44716 4.94791 0
M  V30 11996 H 1115.57 0.878175 4.30331 0
M  V30 11997 H 1116.17 2.36375 3.53563 0
M  V30 11998 N 1114.49 -1.10549 1.12324 0
M  V30 11999 C 1115.44 -2.18944 0.785248 0
M  V30 12000 C 1116.43 -1.67867 -0.227389 0
M  V30 12001 O 1117.64 -1.79796 -0.0857162 0
M  V30 12002 H 1114.01 -0.713976 0.236098 0
M  V30 12003 H 1115.98 -2.44692 1.70788 0
M  V30 12004 C 1114.73 -3.46765 0.25485 0
M  V30 12005 H 1114.05 -3.86428 1.02534 0
M  V30 12006 H 1115.49 -4.23962 0.0566526 0
M  V30 12007 C 1113.95 -3.21185 -1.01695 0
M  V30 12008 O 1114.48 -3.42745 -2.09497 0
M  V30 12009 N 1112.69 -2.7486 -0.943423 0
M  V30 12010 H 1112.24 -2.57515 -0.0660366 0
M  V30 12011 H 1112.19 -2.58122 -1.795 0
M  V30 12012 N 1115.97 -0.914965 -1.28321 0
M  V30 12013 C 1117.2 -0.563835 -1.98757 0
M  V30 12014 C 1117.6 0.859528 -1.68549 0
M  V30 12015 O 1116.95 1.58105 -0.935336 0
M  V30 12016 C 1117.01 -0.694539 -3.52727 0
M  V30 12017 C 1116.67 -2.08767 -4.06528 0
M  V30 12018 C 1117.67 -3.06052 -4.20272 0
M  V30 12019 C 1115.35 -2.40118 -4.4119 0
M  V30 12020 C 1117.35 -4.32803 -4.67932 0
M  V30 12021 C 1115.04 -3.67108 -4.88544 0
M  V30 12022 C 1116.03 -4.63265 -5.01871 0
M  V30 12023 O 1115.72 -5.87997 -5.48192 0
M  V30 12024 H 1115.45 -0.213557 -0.641381 0
M  V30 12025 H 1118.01 -1.23062 -1.64453 0
M  V30 12026 H 1116.24 0.0293186 -3.86689 0
M  V30 12027 H 1117.93 -0.350335 -4.04385 0
M  V30 12028 H 1118.69 -2.8315 -3.93765 0
M  V30 12029 H 1114.57 -1.66025 -4.30066 0
M  V30 12030 H 1118.12 -5.07861 -4.78249 0
M  V30 12031 H 1114.01 -3.89834 -5.14489 0
M  V30 12032 H 1114.78 -5.90804 -5.66474 0
M  V30 12033 N 1117.44 1.42219 -0.679077 0
M  V30 12034 C 1118.39 2.32599 0.00820028 0
M  V30 12035 C 1119.39 1.50059 0.786046 0
M  V30 12036 O 1120.59 1.66103 0.693528 0
M  V30 12037 H 1116.97 0.751694 0.0214483 0
M  V30 12038 H 1118.94 2.88257 -0.77138 0
M  V30 12039 C 1117.69 3.3468 0.942581 0
M  V30 12040 H 1117.01 3.98234 0.353463 0
M  V30 12041 H 1118.45 4.00496 1.39208 0
M  V30 12042 C 1116.91 2.67275 2.05099 0
M  V30 12043 O 1117.44 2.50793 3.13793 0
M  V30 12044 N 1115.64 2.26232 1.82394 0
M  V30 12045 H 1115.19 2.39838 0.939983 0
M  V30 12046 H 1115.15 1.81465 2.56744 0
M  V30 12047 N 1118.92 0.422693 1.51826 0
M  V30 12048 C 1119.83 -0.40261 2.31119 0
M  V30 12049 C 1120.85 -1.04117 1.39412 0
M  V30 12050 O 1122.02 -1.03973 1.72486 0
M  V30 12051 C 1119.09 -1.49699 3.12716 0
M  V30 12052 C 1118.15 -0.880088 4.20182 0
M  V30 12053 C 1117.38 -1.92232 4.97878 0
M  V30 12054 O 1117.61 -3.14246 4.76031 0
M  V30 12055 O 1116.54 -1.521 5.82365 0
M  V30 12056 H 1120.37 0.244308 3.02716 0
M  V30 12057 H 1117.95 0.185569 1.48243 0
M  V30 12058 H 1119.83 -2.13202 3.63487 0
M  V30 12059 H 1118.51 -2.12826 2.43899 0
M  V30 12060 H 1117.41 -0.207404 3.73525 0
M  V30 12061 H 1118.75 -0.292535 4.9133 0
M  V30 12062 N 1120.4 -1.5685 0.153553 0
M  V30 12063 C 1121.36 -2.15894 -0.769564 0
M  V30 12064 C 1122.36 -1.10239 -1.17064 0
M  V30 12065 O 1123.55 -1.35845 -1.09049 0
M  V30 12066 C 1120.68 -2.72738 -2.04516 0
M  V30 12067 H 1121.88 -2.98807 -0.255842 0
M  V30 12068 H 1119.43 -1.56005 -0.0959279 0
M  V30 12069 H 1120.17 -1.9351 -2.60239 0
M  V30 12070 H 1119.95 -3.50042 -1.76672 0
M  V30 12071 H 1121.44 -3.18208 -2.70432 0
M  V30 12072 N 1121.88 0.120221 -1.57141 0
M  V30 12073 C 1122.82 1.14751 -2.00252 0
M  V30 12074 C 1123.79 1.41217 -0.874462 0
M  V30 12075 O 1124.98 1.53104 -1.13859 0
M  V30 12076 C 1122.12 2.46923 -2.41087 0
M  V30 12077 C 1121.23 2.27403 -3.67303 0
M  V30 12078 C 1120.37 3.52797 -3.97125 0
M  V30 12079 C 1119.41 3.28429 -5.16528 0
M  V30 12080 N 1118.54 4.46022 -5.42226 0
M  V30 12081 H 1123.38 0.772884 -2.87803 0
M  V30 12082 H 1120.92 0.370137 -1.42367 0
M  V30 12083 H 1122.88 3.24025 -2.62799 0
M  V30 12084 H 1121.51 2.82281 -1.5658 0
M  V30 12085 H 1120.56 1.41224 -3.53214 0
M  V30 12086 H 1121.87 2.05373 -4.54558 0
M  V30 12087 H 1121.03 4.38318 -4.19479 0
M  V30 12088 H 1119.77 3.77857 -3.08343 0
M  V30 12089 H 1118.77 2.41299 -4.94019 0
M  V30 12090 H 1120 3.0474 -6.06886 0
M  V30 12091 H 1117.94 4.71205 -4.56401 0
M  V30 12092 H 1117.86 4.27092 -6.23802 0
M  V30 12093 H 1119.13 5.3268 -5.69098 0
M  V30 12094 N 1123.36 1.52689 0.390367 0
M  V30 12095 C 1124.6 1.67666 1.13553 0
M  V30 12096 C 1124.93 0.415903 1.90001 0
M  V30 12097 O 1124.19 -0.601664 1.86222 0
M  V30 12098 C 1124.49 2.86177 2.14096 0
M  V30 12099 C 1124.15 4.23671 1.54316 0
M  V30 12100 C 1122.81 4.61066 1.37739 0
M  V30 12101 C 1125.17 5.09278 1.1084 0
M  V30 12102 C 1122.49 5.81727 0.76231 0
M  V30 12103 C 1124.85 6.30562 0.507433 0
M  V30 12104 C 1123.51 6.66689 0.328945 0
M  V30 12105 H 1122.78 0.613533 0.415521 0
M  V30 12106 H 1125.43 1.8683 0.420339 0
M  V30 12107 H 1123.73 2.61424 2.9183 0
M  V30 12108 H 1125.43 2.9496 2.7166 0
M  V30 12109 H 1122.02 3.94214 1.68207 0
M  V30 12110 H 1126.2 4.80957 1.2245 0
M  V30 12111 H 1121.46 6.08327 0.612208 0
M  V30 12112 H 1125.63 6.96211 0.162248 0
M  V30 12113 H 1123.26 7.60052 -0.149748 0
M  V30 12114 N 1124.83 -0.648732 1.43629 0
M  V30 12115 C 1126.08 -1.40446 1.44768 0
M  V30 12116 C 1126.4 -1.95447 0.0773445 0
M  V30 12117 O 1127.6 -2.71479 -0.0337942 0
M  V30 12118 C 1126.06 -2.54194 2.54781 0
M  V30 12119 C 1125.67 -2.05781 3.97942 0
M  V30 12120 C 1127.41 -3.31529 2.65121 0
M  V30 12121 C 1125.32 -3.16767 4.99412 0
M  V30 12122 H 1124.25 -0.527717 0.538545 0
M  V30 12123 H 1126.9 -0.699756 1.69634 0
M  V30 12124 H 1125.28 -3.27156 2.23125 0
M  V30 12125 H 1126.45 -1.398 4.39081 0
M  V30 12126 H 1124.77 -1.41312 3.91688 0
M  V30 12127 H 1127.37 -4.14233 3.38105 0
M  V30 12128 H 1127.71 -3.79855 1.70341 0
M  V30 12129 H 1128.24 -2.65649 2.961 0
M  V30 12130 H 1124.98 -2.73404 5.9576 0
M  V30 12131 H 1124.5 -3.81445 4.62882 0
M  V30 12132 H 1126.18 -3.81827 5.22319 0
M  V30 12133 N 1126.31 -1.30234 -0.887518 0
M  V30 12134 C 1127.54 -1.21829 -1.67229 0
M  V30 12135 C 1127.96 0.219251 -1.87523 0
M  V30 12136 O 1127.31 1.14526 -1.42091 0
M  V30 12137 C 1127.36 -1.94044 -3.05007 0
M  V30 12138 O 1127.08 -3.32185 -2.85631 0
M  V30 12139 C 1128.59 -1.92265 -3.99436 0
M  V30 12140 H 1125.81 -0.421716 -0.521916 0
M  V30 12141 H 1128.35 -1.71816 -1.10903 0
M  V30 12142 H 1126.5 -1.47861 -3.58072 0
M  V30 12143 H 1126.92 -3.68724 -3.73018 0
M  V30 12144 H 1128.39 -2.47336 -4.93486 0
M  V30 12145 H 1128.87 -0.900984 -4.29859 0
M  V30 12146 H 1129.48 -2.38247 -3.52305 0
M  V30 12147 N 1127.79 1.09952 -1.12909 0
M  V30 12148 C 1128.72 2.18477 -0.824014 0
M  V30 12149 C 1129.7 1.68744 0.214324 0
M  V30 12150 O 1130.89 1.94057 0.0744281 0
M  V30 12151 C 1128.02 3.46143 -0.283308 0
M  V30 12152 C 1126.97 4.09178 -1.25528 0
M  V30 12153 C 1126.3 5.31604 -0.574574 0
M  V30 12154 C 1127.6 4.52308 -2.6118 0
M  V30 12155 H 1129.29 2.44254 -1.73148 0
M  V30 12156 H 1126.84 1.17394 -0.833952 0
M  V30 12157 H 1128.79 4.21361 -0.057583 0
M  V30 12158 H 1127.51 3.19872 0.659525 0
M  V30 12159 H 1126.17 3.35973 -1.4669 0
M  V30 12160 H 1125.82 5.01611 0.37356 0
M  V30 12161 H 1125.52 5.74732 -1.22299 0
M  V30 12162 H 1127.04 6.0955 -0.358004 0
M  V30 12163 H 1128.46 5.18776 -2.44017 0
M  V30 12164 H 1126.86 5.06302 -3.22147 0
M  V30 12165 H 1127.93 3.64977 -3.19249 0
M  V30 12166 N 1129.27 0.921757 1.27833 0
M  V30 12167 C 1130.49 0.574599 1.99281 0
M  V30 12168 C 1130.92 -0.838905 1.68357 0
M  V30 12169 O 1130.28 -1.56196 0.920468 0
M  V30 12170 C 1130.32 0.800027 3.51613 0
M  V30 12171 O 1129.43 -0.137215 4.12172 0
M  V30 12172 H 1128.77 0.221887 0.625829 0
M  V30 12173 H 1131.3 1.23939 1.62789 0
M  V30 12174 H 1131.31 0.71326 4.01717 0
M  V30 12175 H 1129.98 1.83042 3.73455 0
M  V30 12176 H 1128.56 -0.00103872 3.729 0
M  V30 12177 N 1130.75 -1.41857 0.686609 0
M  V30 12178 C 1131.68 -2.28174 -0.0347358 0
M  V30 12179 C 1132.66 -1.41732 -0.796928 0
M  V30 12180 O 1133.84 -1.71165 -0.789607 0
M  V30 12181 C 1130.97 -3.21801 -1.0565 0
M  V30 12182 C 1130.01 -4.24727 -0.388523 0
M  V30 12183 S 1130.85 -5.28508 0.862546 0
M  V30 12184 C 1132 -6.25701 -0.157849 0
M  V30 12185 H 1132.24 -2.89005 0.697381 0
M  V30 12186 H 1129.77 -1.46861 0.476562 0
M  V30 12187 H 1131.73 -3.76278 -1.64089 0
M  V30 12188 H 1130.39 -2.60082 -1.76114 0
M  V30 12189 H 1129.58 -4.90471 -1.15991 0
M  V30 12190 H 1129.18 -3.73799 0.122567 0
M  V30 12191 H 1131.48 -6.6987 -1.01393 0
M  V30 12192 H 1132.42 -7.06569 0.465437 0
M  V30 12193 H 1132.83 -5.62204 -0.508614 0
M  V30 12194 N 1132.22 -0.430739 -1.51599 0
M  V30 12195 C 1133.45 0.136797 -2.06447 0
M  V30 12196 C 1133.87 1.37027 -1.29881 0
M  V30 12197 O 1133.22 1.78983 -0.356543 0
M  V30 12198 C 1133.28 0.465637 -3.58489 0
M  V30 12199 O 1133 -0.718873 -4.32162 0
M  V30 12200 C 1134.5 1.08456 -4.29828 0
M  V30 12201 H 1131.72 0.0108468 -0.670912 0
M  V30 12202 H 1134.26 -0.607921 -1.95255 0
M  V30 12203 H 1132.42 1.16025 -3.69617 0
M  V30 12204 H 1132.83 -0.439195 -5.22658 0
M  V30 12205 H 1134.3 1.2647 -5.37317 0
M  V30 12206 H 1134.78 2.06376 -3.87693 0
M  V30 12207 H 1135.39 0.429525 -4.23125 0
M  V30 12208 N 1133.7 1.56767 -0.161869 0
M  V30 12209 C 1134.95 1.96594 0.485496 0
M  V30 12210 C 1135.28 1.04743 1.63887 0
M  V30 12211 O 1134.53 0.079602 1.95538 0
M  V30 12212 C 1134.83 3.42567 1.01894 0
M  V30 12213 C 1134.5 4.50897 -0.0175419 0
M  V30 12214 C 1133.16 4.80249 -0.302429 0
M  V30 12215 C 1135.51 5.16181 -0.721572 0
M  V30 12216 C 1132.84 5.72187 -1.2969 0
M  V30 12217 C 1135.19 6.09191 -1.70496 0
M  V30 12218 C 1133.86 6.36915 -1.99739 0
M  V30 12219 H 1133.13 0.719388 0.177656 0
M  V30 12220 H 1135.77 1.89837 -0.251839 0
M  V30 12221 H 1134.08 3.4623 1.83391 0
M  V30 12222 H 1135.77 3.70719 1.52867 0
M  V30 12223 H 1132.36 4.28062 0.21468 0
M  V30 12224 H 1136.55 4.93624 -0.514681 0
M  V30 12225 H 1131.8 5.91953 -1.52974 0
M  V30 12226 H 1135.98 6.58849 -2.25591 0
M  V30 12227 H 1133.61 7.07958 -2.76948 0
M  V30 12228 N 1135.18 -0.111886 1.57202 0
M  V30 12229 C 1136.41 -0.8312 1.89142 0
M  V30 12230 C 1136.82 -1.73614 0.751987 0
M  V30 12231 O 1136.16 -1.81462 -0.285877 0
M  V30 12232 C 1136.22 -1.71107 3.16169 0
M  V30 12233 C 1135.89 -0.9797 4.46375 0
M  V30 12234 C 1136.88 -0.317219 5.18931 0
M  V30 12235 C 1134.57 -0.958764 4.93065 0
M  V30 12236 C 1136.56 0.356419 6.36403 0
M  V30 12237 C 1134.25 -0.281332 6.10452 0
M  V30 12238 C 1135.25 0.375098 6.81969 0
M  V30 12239 O 1134.94 1.0417 7.97122 0
M  V30 12240 H 1134.67 -0.243855 0.630484 0
M  V30 12241 H 1137.22 -0.0986634 2.05163 0
M  V30 12242 H 1135.45 -2.48543 2.96249 0
M  V30 12243 H 1137.14 -2.30544 3.34072 0
M  V30 12244 H 1137.91 -0.324965 4.8391 0
M  V30 12245 H 1133.79 -1.45913 4.37299 0
M  V30 12246 H 1137.33 0.869362 6.92162 0
M  V30 12247 H 1133.23 -0.271374 6.44929 0
M  V30 12248 H 1134 0.946899 8.13004 0
M  V30 12249 N 1136.66 -1.52894 -0.382264 0
M  V30 12250 C 1137.91 -1.68266 -1.12663 0
M  V30 12251 C 1138.23 -0.425974 -1.89778 0
M  V30 12252 O 1137.49 0.59178 -1.86538 0
M  V30 12253 C 1137.79 -2.87309 -2.12576 0
M  V30 12254 C 1137.45 -4.24484 -1.52067 0
M  V30 12255 C 1136.12 -4.6179 -1.35292 0
M  V30 12256 C 1138.47 -5.09858 -1.08138 0
M  V30 12257 C 1135.8 -5.82123 -0.731449 0
M  V30 12258 C 1138.15 -6.30822 -0.473986 0
M  V30 12259 C 1136.81 -6.66854 -0.293585 0
M  V30 12260 H 1136.08 -0.615728 -0.412262 0
M  V30 12261 H 1138.73 -1.8705 -0.410425 0
M  V30 12262 H 1137.03 -2.62968 -2.90439 0
M  V30 12263 H 1138.73 -2.96397 -2.70092 0
M  V30 12264 H 1135.32 -3.951 -1.66114 0
M  V30 12265 H 1139.5 -4.816 -1.19898 0
M  V30 12266 H 1134.76 -6.08643 -0.579938 0
M  V30 12267 H 1138.93 -6.96287 -0.125324 0
M  V30 12268 H 1136.56 -7.59962 0.190054 0
M  V30 12269 N 1138.14 0.641106 -1.43971 0
M  V30 12270 C 1139.37 1.42829 -1.49692 0
M  V30 12271 C 1139.78 1.88427 -0.118594 0
M  V30 12272 O 1139.14 1.60234 0.873581 0
M  V30 12273 C 1139.19 2.65524 -2.45314 0
M  V30 12274 O 1138.91 2.2183 -3.77787 0
M  V30 12275 C 1140.41 3.58758 -2.60399 0
M  V30 12276 H 1137.63 0.438367 -0.508011 0
M  V30 12277 H 1140.17 0.784933 -1.88836 0
M  V30 12278 H 1138.33 3.25973 -2.09332 0
M  V30 12279 H 1138.74 3.01303 -4.29321 0
M  V30 12280 H 1140.22 4.41483 -3.31357 0
M  V30 12281 H 1140.69 4.06909 -1.65294 0
M  V30 12282 H 1141.3 3.04184 -2.97241 0
M  V30 12283 N 1139.62 1.30703 0.880598 0
M  V30 12284 C 1140.84 1.22843 1.67106 0
M  V30 12285 C 1141.27 -0.204788 1.86982 0
M  V30 12286 O 1140.62 -1.14716 1.40392 0
M  V30 12287 C 1140.67 1.96685 3.02237 0
M  V30 12288 O 1139.78 1.29693 3.91476 0
M  V30 12289 H 1139.12 0.424661 0.51045 0
M  V30 12290 H 1141.65 1.72596 1.09871 0
M  V30 12291 H 1141.66 2.05874 3.52249 0
M  V30 12292 H 1140.33 3.00919 2.8709 0
M  V30 12293 H 1138.91 1.28886 3.49918 0
M  V30 12294 N 1141.09 -1.09351 1.1349 0
M  V30 12295 C 1142.32 -1.85844 0.92069 0
M  V30 12296 C 1142.74 -1.80616 -0.525303 0
M  V30 12297 O 1142.1 -1.1842 -1.37282 0
M  V30 12298 C 1142.15 -3.31716 1.4141 0
M  V30 12299 O 1141.25 -4.08014 0.599838 0
M  V30 12300 H 1140.59 -0.576242 0.32991 0
M  V30 12301 H 1143.12 -1.38084 1.50976 0
M  V30 12302 H 1143.13 -3.82564 1.41805 0
M  V30 12303 H 1141.81 -3.34837 2.46692 0
M  V30 12304 H 1140.39 -3.66944 0.663816 0
M  V30 12305 N 1142.57 -0.928524 -1.27343 0
M  V30 12306 C 1143.82 -0.570235 -1.94618 0
M  V30 12307 C 1144.15 0.886381 -1.72792 0
M  V30 12308 O 1143.43 1.63242 -1.05747 0
M  V30 12309 C 1143.71 -0.897964 -3.48724 0
M  V30 12310 C 1143.56 -2.40839 -3.7989 0
M  V30 12311 C 1144.88 -0.404429 -4.38238 0
M  V30 12312 H 1142 -0.208645 -0.70685 0
M  V30 12313 H 1144.64 -1.16045 -1.50444 0
M  V30 12314 H 1142.79 -0.395679 -3.8648 0
M  V30 12315 H 1144.46 -2.98243 -3.51921 0
M  V30 12316 H 1142.71 -2.85723 -3.26412 0
M  V30 12317 H 1143.38 -2.58823 -4.8756 0
M  V30 12318 H 1145.85 -0.834918 -4.07637 0
M  V30 12319 H 1144.73 -0.662684 -5.44885 0
M  V30 12320 H 1144.99 0.695507 -4.36595 0
M  V30 12321 N 1144.05 1.41491 -0.694123 0
M  V30 12322 C 1145.27 2.06099 -0.23197 0
M  V30 12323 C 1145.7 1.51888 1.10958 0
M  V30 12324 O 1145.06 0.645247 1.69429 0
M  V30 12325 C 1145.11 3.60053 -0.198522 0
M  V30 12326 O 1144.21 4.04021 0.827067 0
M  V30 12327 H 1143.55 0.654193 -0.113699 0
M  V30 12328 H 1146.08 1.81282 -0.948575 0
M  V30 12329 H 1146.09 4.0799 -0.0288904 0
M  V30 12330 H 1144.77 3.98879 -1.17764 0
M  V30 12331 H 1143.34 3.67593 0.626908 0
M  V30 12332 N 1145.53 0.438773 1.51369 0
M  V30 12333 C 1146.46 -0.362467 2.3067 0
M  V30 12334 C 1147.44 -1.01973 1.36145 0
M  V30 12335 O 1148.62 -1.0231 1.65065 0
M  V30 12336 C 1145.75 -1.46313 3.14976 0
M  V30 12337 C 1144.71 -0.929272 4.1779 0
M  V30 12338 C 1144.03 -2.12579 4.90627 0
M  V30 12339 C 1145.33 0.0372782 5.22287 0
M  V30 12340 H 1147.03 0.29931 2.979 0
M  V30 12341 H 1144.57 0.14539 1.43264 0
M  V30 12342 H 1146.53 -2.03088 3.69233 0
M  V30 12343 H 1145.25 -2.15321 2.45569 0
M  V30 12344 H 1143.91 -0.383722 3.64586 0
M  V30 12345 H 1143.56 -2.8021 4.17722 0
M  V30 12346 H 1143.26 -1.77496 5.60151 0
M  V30 12347 H 1144.78 -2.69905 5.47708 0
M  V30 12348 H 1146.2 -0.44022 5.71607 0
M  V30 12349 H 1144.59 0.300748 5.99346 0
M  V30 12350 H 1145.66 0.973503 4.75027 0
M  V30 12351 N 1147.01 -1.56678 0.170181 0
M  V30 12352 C 1148.25 -1.98743 -0.477534 0
M  V30 12353 C 1148.61 -1.0538 -1.60497 0
M  V30 12354 O 1149.81 -1.3658 -2.31515 0
M  V30 12355 C 1148.08 -3.44565 -0.949186 0
M  V30 12356 S 1149.64 -4.08658 -1.59824 0
M  V30 12357 H 1146.46 -0.694202 -0.153639 0
M  V30 12358 H 1149.06 -1.93663 0.267373 0
M  V30 12359 H 1147.76 -4.1023 -0.118205 0
M  V30 12360 H 1147.3 -3.53409 -1.72816 0
M  V30 12361 H 1149.31 -4.03614 -2.88635 0
M  V30 12362 N 1148.48 0.103547 -1.57259 0
M  V30 12363 C 1149.71 0.82235 -1.89855 0
M  V30 12364 C 1150.13 1.72694 -0.76303 0
M  V30 12365 O 1149.48 1.8056 0.265421 0
M  V30 12366 C 1149.53 1.64282 -3.22015 0
M  V30 12367 O 1149.26 0.774628 -4.31197 0
M  V30 12368 C 1150.76 2.46543 -3.68418 0
M  V30 12369 H 1147.98 0.235591 -0.628282 0
M  V30 12370 H 1150.52 0.0833106 -2.0433 0
M  V30 12371 H 1148.68 2.33446 -3.09163 0
M  V30 12372 H 1149.09 1.34205 -5.0704 0
M  V30 12373 H 1150.56 2.99618 -4.63609 0
M  V30 12374 H 1151.04 3.24618 -2.95838 0
M  V30 12375 H 1151.65 1.82594 -3.84109 0
M  V30 12376 N 1149.96 1.53094 0.37415 0
M  V30 12377 C 1151.21 1.68861 1.11769 0
M  V30 12378 C 1151.54 0.436032 1.89549 0
M  V30 12379 O 1150.79 -0.581879 1.86849 0
M  V30 12380 C 1151.09 2.88432 2.11049 0
M  V30 12381 C 1150.76 4.25284 1.49814 0
M  V30 12382 C 1149.42 4.62501 1.32841 0
M  V30 12383 C 1151.77 5.10425 1.05433 0
M  V30 12384 C 1149.1 5.82502 0.700567 0
M  V30 12385 C 1151.45 6.31064 0.440525 0
M  V30 12386 C 1150.11 6.67 0.258216 0
M  V30 12387 H 1149.38 0.617906 0.40899 0
M  V30 12388 H 1152.03 1.87265 0.4005 0
M  V30 12389 H 1150.34 2.64505 2.8904 0
M  V30 12390 H 1152.03 2.97825 2.68517 0
M  V30 12391 H 1148.62 3.95976 1.64016 0
M  V30 12392 H 1152.81 4.82229 1.17342 0
M  V30 12393 H 1148.06 6.08942 0.547652 0
M  V30 12394 H 1152.24 6.96344 0.0883962 0
M  V30 12395 H 1149.86 7.59851 -0.230354 0
M  V30 12396 N 1151.44 -0.633461 1.44309 0
M  V30 12397 C 1152.37 -1.7583 1.45462 0
M  V30 12398 C 1153.35 -1.59545 0.313723 0
M  V30 12399 O 1154.53 -1.8146 0.51034 0
M  V30 12400 C 1151.66 -3.13375 1.28506 0
M  V30 12401 C 1150.71 -3.48315 2.46128 0
M  V30 12402 S 1151.54 -3.46058 4.08662 0
M  V30 12403 C 1152.7 -4.86226 3.94125 0
M  V30 12404 H 1152.93 -1.74585 2.4064 0
M  V30 12405 H 1150.46 -0.807868 1.31578 0
M  V30 12406 H 1152.42 -3.92748 1.19411 0
M  V30 12407 H 1151.08 -3.12161 0.348432 0
M  V30 12408 H 1150.27 -4.48397 2.30122 0
M  V30 12409 H 1149.88 -2.76399 2.51951 0
M  V30 12410 H 1152.17 -5.75393 3.57671 0
M  V30 12411 H 1153.11 -5.07287 4.9403 0
M  V30 12412 H 1153.52 -4.60691 3.26227 0
M  V30 12413 N 1152.92 -1.31168 -0.873655 0
M  V30 12414 C 1154.14 -1.23728 -1.66452 0
M  V30 12415 C 1154.57 0.194869 -1.87088 0
M  V30 12416 O 1153.93 1.1397 -1.40998 0
M  V30 12417 C 1153.97 -1.98285 -3.0119 0
M  V30 12418 O 1153.08 -1.31767 -3.90783 0
M  V30 12419 H 1152.42 -0.427362 -0.508191 0
M  V30 12420 H 1154.95 -1.73176 -1.08955 0
M  V30 12421 H 1154.96 -2.0774 -3.51153 0
M  V30 12422 H 1153.63 -3.02437 -2.8549 0
M  V30 12423 H 1152.21 -1.3074 -3.4923 0
M  V30 12424 N 1154.4 1.08748 -1.14068 0
M  V30 12425 C 1155.36 2.1375 -0.827266 0
M  V30 12426 C 1156.36 1.59936 0.166496 0
M  V30 12427 O 1157.55 1.74092 -0.0614305 0
M  V30 12428 C 1154.68 3.40106 -0.232557 0
M  V30 12429 H 1155.87 2.42985 -1.7578 0
M  V30 12430 H 1153.43 1.24402 -0.946244 0
M  V30 12431 H 1154.16 3.16503 0.706859 0
M  V30 12432 H 1153.95 3.8046 -0.948293 0
M  V30 12433 H 1155.44 4.17589 -0.0303662 0
M  V30 12434 N 1155.87 0.935264 1.26849 0
M  V30 12435 C 1157.1 0.595384 1.97835 0
M  V30 12436 C 1157.51 -0.832605 1.69895 0
M  V30 12437 O 1156.86 -1.56597 0.960371 0
M  V30 12438 C 1156.92 0.750567 3.51578 0
M  V30 12439 C 1156.58 2.15208 4.03156 0
M  V30 12440 C 1157.58 3.12699 4.15349 0
M  V30 12441 C 1155.26 2.47106 4.37314 0
M  V30 12442 C 1157.26 4.40193 4.60987 0
M  V30 12443 C 1154.94 3.74834 4.82641 0
M  V30 12444 C 1155.94 4.7119 4.94438 0
M  V30 12445 O 1155.63 5.96644 5.38768 0
M  V30 12446 H 1155.36 0.223734 0.637902 0
M  V30 12447 H 1157.92 1.25663 1.62475 0
M  V30 12448 H 1156.15 0.0322039 3.86687 0
M  V30 12449 H 1157.84 0.414625 4.03777 0
M  V30 12450 H 1158.6 2.89378 3.89211 0
M  V30 12451 H 1154.48 1.72846 4.2737 0
M  V30 12452 H 1158.02 5.15406 4.70109 0
M  V30 12453 H 1153.92 3.9797 5.08222 0
M  V30 12454 H 1154.69 5.99741 5.57003 0
M  V30 12455 N 1157.35 -1.41121 0.701616 0
M  V30 12456 C 1158.58 -2.05973 0.242896 0
M  V30 12457 C 1159 -1.52474 -1.10151 0
M  V30 12458 O 1158.36 -0.654224 -1.69085 0
M  V30 12459 C 1158.41 -3.59943 0.217614 0
M  V30 12460 O 1157.51 -4.04454 -0.805629 0
M  V30 12461 H 1156.85 -0.653581 0.117166 0
M  V30 12462 H 1159.38 -1.80777 0.958175 0
M  V30 12463 H 1159.39 -4.07969 0.0505267 0
M  V30 12464 H 1158.07 -3.98249 1.19877 0
M  V30 12465 H 1156.65 -3.6792 -0.607404 0
M  V30 12466 N 1158.83 -0.446794 -1.51134 0
M  V30 12467 C 1160.08 0.116263 -2.01765 0
M  V30 12468 C 1160.4 1.42382 -1.33238 0
M  V30 12469 O 1159.67 1.9018 -0.469915 0
M  V30 12470 H 1158.25 0.0459558 -0.745585 0
M  V30 12471 H 1160.91 -0.591664 -1.85702 0
M  V30 12472 H 1160.01 0.285358 -3.10793 0
M  V30 12473 N 1160.31 1.56586 -0.178487 0
M  V30 12474 C 1161.55 1.9739 0.465306 0
M  V30 12475 C 1161.89 1.06474 1.6241 0
M  V30 12476 O 1161.16 0.113316 1.9417 0
M  V30 12477 C 1161.45 3.47577 0.941408 0
M  V30 12478 C 1161.3 4.49271 -0.218054 0
M  V30 12479 C 1162.62 4.01038 1.81263 0
M  V30 12480 H 1159.74 0.717676 0.167663 0
M  V30 12481 H 1162.38 1.88128 -0.266067 0
M  V30 12482 H 1160.53 3.556 1.56463 0
M  V30 12483 H 1162.2 4.53301 -0.855332 0
M  V30 12484 H 1160.44 4.24936 -0.872441 0
M  V30 12485 H 1161.11 5.51776 0.157315 0
M  V30 12486 H 1163.59 3.9569 1.28718 0
M  V30 12487 H 1162.47 5.06526 2.11476 0
M  V30 12488 H 1162.73 3.45288 2.76096 0
M  V30 12489 N 1161.79 -0.095206 1.57312 0
M  V30 12490 C 1162.72 -1.11627 2.05089 0
M  V30 12491 C 1163.7 -1.41782 0.939787 0
M  V30 12492 O 1164.88 -1.51813 1.21105 0
M  V30 12493 C 1162.01 -2.43618 2.47523 0
M  V30 12494 C 1160.97 -2.27872 3.62296 0
M  V30 12495 C 1160.29 -3.65038 3.90706 0
M  V30 12496 C 1161.59 -1.71936 4.93189 0
M  V30 12497 H 1163.29 -0.718795 2.90644 0
M  V30 12498 H 1160.83 -0.344315 1.39823 0
M  V30 12499 H 1162.79 -3.1532 2.79556 0
M  V30 12500 H 1161.51 -2.85301 1.58968 0
M  V30 12501 H 1160.17 -1.58615 3.3051 0
M  V30 12502 H 1159.82 -4.04249 2.99319 0
M  V30 12503 H 1159.52 -3.55349 4.67976 0
M  V30 12504 H 1161.04 -4.38208 4.25213 0
M  V30 12505 H 1162.45 -2.33479 5.23603 0
M  V30 12506 H 1160.85 -1.73006 5.74621 0
M  V30 12507 H 1161.92 -0.678789 4.80125 0
M  V30 12508 N 1163.26 -1.53291 -0.366026 0
M  V30 12509 C 1164.51 -1.69702 -1.11036 0
M  V30 12510 C 1164.84 -0.44728 -1.88979 0
M  V30 12511 O 1164.12 0.55542 -1.86401 0
M  V30 12512 C 1164.4 -2.94661 -2.06995 0
M  V30 12513 C 1164.25 -4.29791 -1.32663 0
M  V30 12514 C 1165.57 -3.15219 -3.07123 0
M  V30 12515 H 1162.69 -0.617525 -0.402284 0
M  V30 12516 H 1165.33 -1.85929 -0.391223 0
M  V30 12517 H 1163.48 -2.80958 -2.68318 0
M  V30 12518 H 1165.16 -4.55305 -0.741266 0
M  V30 12519 H 1163.4 -4.29223 -0.628484 0
M  V30 12520 H 1164.07 -5.13359 -2.02896 0
M  V30 12521 H 1166.55 -3.28105 -2.55903 0
M  V30 12522 H 1165.42 -4.04088 -3.71489 0
M  V30 12523 H 1165.68 -2.30479 -3.77269 0
M  V30 12524 N 1164.74 0.6258 -1.44643 0
M  V30 12525 C 1165.97 1.41233 -1.51198 0
M  V30 12526 C 1166.39 1.88291 -0.138572 0
M  V30 12527 O 1165.74 1.61151 0.856537 0
M  V30 12528 C 1165.79 2.62908 -2.48117 0
M  V30 12529 O 1165.51 2.1781 -3.80119 0
M  V30 12530 C 1167.02 3.55976 -2.6419 0
M  V30 12531 H 1164.24 0.432954 -0.512632 0
M  V30 12532 H 1166.78 0.76486 -1.89658 0
M  V30 12533 H 1164.93 3.23735 -2.12778 0
M  V30 12534 H 1165.35 2.96732 -4.32493 0
M  V30 12535 H 1166.82 4.37943 -3.3602 0
M  V30 12536 H 1167.3 4.05133 -1.696 0
M  V30 12537 H 1167.91 3.01014 -3.00451 0
M  V30 12538 N 1166.22 1.31629 0.866686 0
M  V30 12539 C 1167.47 1.20861 1.61479 0
M  V30 12540 C 1167.78 -0.231208 1.94229 0
M  V30 12541 O 1168.99 -0.460618 2.67564 0
M  V30 12542 C 1167.44 2.11602 2.91123 0
M  V30 12543 C 1167.05 3.60598 2.65844 0
M  V30 12544 C 1168.8 2.09642 3.69121 0
M  V30 12545 C 1166.7 4.43337 3.91415 0
M  V30 12546 H 1165.63 0.448783 0.605896 0
M  V30 12547 H 1168.28 1.56507 0.958001 0
M  V30 12548 H 1166.67 1.68858 3.58194 0
M  V30 12549 H 1167.84 4.11609 2.07159 0
M  V30 12550 H 1166.16 3.64568 2.01194 0
M  V30 12551 H 1168.75 2.68701 4.62281 0
M  V30 12552 H 1169.1 1.08438 4.01929 0
M  V30 12553 H 1169.63 2.50603 3.08938 0
M  V30 12554 H 1166.37 5.45309 3.63756 0
M  V30 12555 H 1165.89 3.97083 4.49539 0
M  V30 12556 H 1167.57 4.5572 4.5927 0
M  V30 12557 N 1167.7 -1.08142 1.14644 0
M  V30 12558 C 1168.95 -1.80849 0.917685 0
M  V30 12559 C 1169.28 -1.86123 -0.554249 0
M  V30 12560 O 1168.55 -1.33907 -1.41065 0
M  V30 12561 C 1168.84 -3.26325 1.52264 0
M  V30 12562 C 1168.69 -3.29244 3.06461 0
M  V30 12563 C 1170.01 -4.23375 1.20175 0
M  V30 12564 H 1167.13 -0.656559 0.334812 0
M  V30 12565 H 1169.77 -1.26595 1.41682 0
M  V30 12566 H 1167.92 -3.72656 1.09817 0
M  V30 12567 H 1169.59 -2.91216 3.57758 0
M  V30 12568 H 1167.83 -2.68438 3.40769 0
M  V30 12569 H 1168.51 -4.31785 3.43897 0
M  V30 12570 H 1170.98 -3.85394 1.56877 0
M  V30 12571 H 1169.86 -5.23472 1.65132 0
M  V30 12572 H 1170.12 -4.41944 0.117474 0
M  V30 12573 N 1169.18 -0.941978 -1.26351 0
M  V30 12574 C 1170.45 -0.507822 -1.88893 0
M  V30 12575 C 1170.83 1.0146 -1.85119 0
M  V30 12576 O 1170.18 1.87495 -1.30606 0
M  V30 12577 C 1170.39 -1.07007 -3.3219 0
M  V30 12578 C 1171.74 -1.13922 -4.09032 0
M  V30 12579 O 1172.76 -1.02072 -3.41262 0
M  V30 12580 O 1171.62 -1.32362 -5.30229 0
M  V30 12581 H 1168.72 -0.165621 -0.810246 0
M  V30 12582 H 1171.26 -1.03459 -1.34515 0
M  V30 12583 H 1170.04 -2.11366 -3.29302 0
M  V30 12584 H 1169.66 -0.525797 -3.94108 0
M  V30 12585 N 1170.66 1.40747 -0.709091 0
M  V30 12586 C 1171.59 2.33404 -0.0669763 0
M  V30 12587 C 1172.57 1.52546 0.752582 0
M  V30 12588 O 1173.75 1.81036 0.702823 0
M  V30 12589 C 1170.88 3.36476 0.860285 0
M  V30 12590 C 1169.84 4.27748 0.146828 0
M  V30 12591 C 1169.16 5.21304 1.18937 0
M  V30 12592 C 1170.46 5.12734 -0.995064 0
M  V30 12593 H 1172.16 2.87349 -0.840888 0
M  V30 12594 H 1169.7 1.38163 -0.405817 0
M  V30 12595 H 1171.65 4.00231 1.31883 0
M  V30 12596 H 1170.38 2.80912 1.66602 0
M  V30 12597 H 1169.04 3.65437 -0.291826 0
M  V30 12598 H 1168.69 4.62048 1.98798 0
M  V30 12599 H 1168.39 5.8321 0.716917 0
M  V30 12600 H 1169.91 5.87936 1.64815 0
M  V30 12601 H 1171.32 5.69979 -0.61618 0
M  V30 12602 H 1169.72 5.83649 -1.39547 0
M  V30 12603 H 1170.79 4.49097 -1.82867 0
M  V30 12604 N 1172.13 0.454803 1.50895 0
M  V30 12605 C 1173.06 -0.337982 2.31041 0
M  V30 12606 C 1174.04 -1.00523 1.37219 0
M  V30 12607 O 1175.23 -1.00553 1.66141 0
M  V30 12608 C 1172.36 -1.42964 3.1651 0
M  V30 12609 C 1171.31 -0.884907 4.18752 0
M  V30 12610 C 1170.64 -2.07363 4.92854 0
M  V30 12611 C 1171.94 0.0926716 5.22218 0
M  V30 12612 H 1173.63 0.33089 2.97566 0
M  V30 12613 H 1171.18 0.160577 1.43102 0
M  V30 12614 H 1173.13 -1.9916 3.71367 0
M  V30 12615 H 1171.86 -2.12705 2.47839 0
M  V30 12616 H 1170.52 -0.345031 3.64973 0
M  V30 12617 H 1170.16 -2.75764 4.2067 0
M  V30 12618 H 1169.86 -1.71545 5.62002 0
M  V30 12619 H 1171.39 -2.6408 5.5054 0
M  V30 12620 H 1172.8 -0.379568 5.72042 0
M  V30 12621 H 1171.2 0.3643 5.98993 0
M  V30 12622 H 1172.27 1.02383 4.73968 0
M  V30 12623 N 1173.61 -1.56489 0.186789 0
M  V30 12624 C 1174.86 -1.97634 -0.454831 0
M  V30 12625 C 1175.19 -1.07334 -1.61843 0
M  V30 12626 O 1174.47 -0.123612 -1.94107 0
M  V30 12627 C 1174.75 -3.48071 -0.922962 0
M  V30 12628 C 1174.6 -4.49149 0.241877 0
M  V30 12629 C 1175.92 -4.01994 -1.79134 0
M  V30 12630 H 1173.04 -0.718555 -0.163854 0
M  V30 12631 H 1175.68 -1.87984 0.27604 0
M  V30 12632 H 1173.83 -3.56425 -1.54575 0
M  V30 12633 H 1175.5 -4.52841 0.87936 0
M  V30 12634 H 1173.75 -4.24468 0.894964 0
M  V30 12635 H 1174.42 -5.51851 -0.128051 0
M  V30 12636 H 1176.89 -3.96367 -1.26618 0
M  V30 12637 H 1175.77 -5.07641 -2.08787 0
M  V30 12638 H 1176.03 -3.46747 -2.74261 0
M  V30 12639 N 1175.09 0.086862 -1.5736 0
M  V30 12640 C 1176.32 0.802167 -1.90717 0
M  V30 12641 C 1176.73 1.71875 -0.781304 0
M  V30 12642 O 1176.09 1.80831 0.246255 0
M  V30 12643 C 1176.14 1.60858 -3.23739 0
M  V30 12644 O 1175.86 0.728851 -4.31995 0
M  V30 12645 C 1177.36 2.42621 -3.71012 0
M  V30 12646 H 1174.58 0.228914 -0.630745 0
M  V30 12647 H 1177.13 0.061634 -2.04407 0
M  V30 12648 H 1175.28 2.30153 -3.11622 0
M  V30 12649 H 1175.7 1.2882 -5.08435 0
M  V30 12650 H 1177.17 2.94683 -4.66761 0
M  V30 12651 H 1177.65 3.21462 -2.99264 0
M  V30 12652 H 1178.25 1.78509 -3.86024 0
M  V30 12653 N 1176.57 1.53483 0.357892 0
M  V30 12654 C 1177.81 1.70289 1.10134 0
M  V30 12655 C 1178.15 0.457296 1.88739 0
M  V30 12656 O 1177.42 -0.545527 1.86693 0
M  V30 12657 C 1177.7 2.95755 2.05429 0
M  V30 12658 C 1177.56 4.30489 1.30382 0
M  V30 12659 C 1178.88 3.16844 3.05447 0
M  V30 12660 H 1176 0.61965 0.399003 0
M  V30 12661 H 1178.64 1.86133 0.381357 0
M  V30 12662 H 1176.79 2.82377 2.66825 0
M  V30 12663 H 1178.46 4.55692 0.71711 0
M  V30 12664 H 1176.7 4.2955 0.605712 0
M  V30 12665 H 1177.37 5.14427 2.00171 0
M  V30 12666 H 1179.85 3.29458 2.54159 0
M  V30 12667 H 1178.73 4.06053 3.69341 0
M  V30 12668 H 1178.99 2.32476 3.76041 0
M  V30 12669 N 1178.05 -0.61812 1.44973 0
M  V30 12670 C 1178.98 -1.74035 1.55673 0
M  V30 12671 C 1179.96 -1.65112 0.4089 0
M  V30 12672 O 1181.14 -1.83673 0.630698 0
M  V30 12673 C 1178.27 -3.1261 1.51303 0
M  V30 12674 C 1177.23 -3.36334 2.64696 0
M  V30 12675 C 1176.55 -4.75072 2.45378 0
M  V30 12676 C 1177.85 -3.27618 4.06772 0
M  V30 12677 H 1179.55 -1.65336 2.49608 0
M  V30 12678 H 1177.09 -0.794003 1.20132 0
M  V30 12679 H 1179.04 -3.90906 1.57388 0
M  V30 12680 H 1177.77 -3.22123 0.538914 0
M  V30 12681 H 1176.43 -2.60423 2.58022 0
M  V30 12682 H 1176.08 -4.81306 1.46129 0
M  V30 12683 H 1175.78 -4.91903 3.21412 0
M  V30 12684 H 1177.3 -5.55582 2.53301 0
M  V30 12685 H 1178.71 -3.95802 4.14746 0
M  V30 12686 H 1177.11 -3.55981 4.83113 0
M  V30 12687 H 1178.18 -2.25219 4.29423 0
M  V30 12688 N 1179.52 -1.32087 -0.859693 0
M  V30 12689 C 1180.47 -1.20549 -1.98924 0
M  V30 12690 C 1181.47 -0.111422 -1.69033 0
M  V30 12691 O 1182.67 -0.27401 -1.77902 0
M  V30 12692 H 1179.05 -0.373538 -0.652667 0
M  V30 12693 H 1181.02 -2.16091 -2.05785 0
M  V30 12694 C 1179.77 -0.940226 -3.34746 0
M  V30 12695 H 1179.09 -1.77427 -3.58273 0
M  V30 12696 H 1180.53 -0.899712 -4.14344 0
M  V30 12697 C 1178.99 0.357042 -3.35003 0
M  V30 12698 O 1179.52 1.37054 -3.77596 0
M  V30 12699 N 1177.72 0.37723 -2.88141 0
M  V30 12700 H 1177.27 -0.448051 -2.53674 0
M  V30 12701 H 1177.23 1.24509 -2.88695 0
M  V30 12702 N 1181 1.07532 -1.15215 0
M  V30 12703 C 1181.93 2.1668 -0.870171 0
M  V30 12704 C 1182.91 1.69161 0.178483 0
M  V30 12705 O 1184.1 1.94172 0.0332489 0
M  V30 12706 C 1181.23 3.45464 -0.356666 0
M  V30 12707 C 1180.18 4.06424 -1.34179 0
M  V30 12708 C 1179.51 5.30266 -0.687206 0
M  V30 12709 C 1180.81 4.46666 -2.70715 0
M  V30 12710 H 1182.5 2.40526 -1.7829 0
M  V30 12711 H 1180.05 1.15598 -0.858665 0
M  V30 12712 H 1182 4.21144 -0.146947 0
M  V30 12713 H 1180.72 3.21199 0.591527 0
M  V30 12714 H 1179.38 3.32786 -1.53783 0
M  V30 12715 H 1179.03 5.0229 0.267077 0
M  V30 12716 H 1178.73 5.72009 -1.34462 0
M  V30 12717 H 1180.26 6.08653 -0.487218 0
M  V30 12718 H 1181.67 5.13483 -2.54966 0
M  V30 12719 H 1180.07 4.99355 -3.32813 0
M  V30 12720 H 1181.14 3.58123 -3.26919 0
M  V30 12721 N 1182.48 0.948665 1.2585 0
M  V30 12722 C 1183.41 0.482036 2.2847 0
M  V30 12723 C 1184.39 -0.468553 1.63519 0
M  V30 12724 O 1185.58 -0.368796 1.90666 0
M  V30 12725 C 1182.71 -0.246603 3.46423 0
M  V30 12726 C 1181.66 0.61815 4.23513 0
M  V30 12727 C 1180.99 -0.240884 5.34157 0
M  V30 12728 C 1182.29 1.89327 4.86778 0
M  V30 12729 H 1183.98 1.33973 2.67753 0
M  V30 12730 H 1181.53 0.645645 1.28715 0
M  V30 12731 H 1183.48 -0.584135 4.17332 0
M  V30 12732 H 1182.2 -1.13849 3.06114 0
M  V30 12733 H 1180.86 0.938682 3.54379 0
M  V30 12734 H 1180.51 -1.13235 4.90089 0
M  V30 12735 H 1180.21 0.334367 5.86648 0
M  V30 12736 H 1181.73 -0.573517 6.07901 0
M  V30 12737 H 1183.15 1.62252 5.49861 0
M  V30 12738 H 1181.55 2.41369 5.49419 0
M  V30 12739 H 1182.62 2.60006 4.09298 0
M  V30 12740 N 1183.96 -1.40369 0.716545 0
M  V30 12741 C 1184.92 -2.29083 0.0733105 0
M  V30 12742 C 1185.92 -1.45415 -0.686378 0
M  V30 12743 O 1187.11 -1.66316 -0.518139 0
M  V30 12744 C 1184.24 -3.28639 -0.906032 0
M  V30 12745 H 1185.44 -2.87464 0.85467 0
M  V30 12746 H 1182.99 -1.48706 0.481256 0
M  V30 12747 H 1183.72 -2.75279 -1.71441 0
M  V30 12748 H 1183.51 -3.90405 -0.364163 0
M  V30 12749 H 1185 -3.95066 -1.35324 0
M  V30 12750 N 1185.44 -0.462799 -1.50652 0
M  V30 12751 C 1186.69 0.0966838 -2.01468 0
M  V30 12752 C 1187 1.41529 -1.35014 0
M  V30 12753 O 1188.2 2.05923 -1.76941 0
M  V30 12754 C 1186.66 0.222826 -3.5921 0
M  V30 12755 C 1186.27 -1.08686 -4.34616 0
M  V30 12756 C 1188.01 0.734711 -4.18094 0
M  V30 12757 C 1185.92 -0.924964 -5.84122 0
M  V30 12758 H 1184.85 0.0399078 -0.752943 0
M  V30 12759 H 1187.5 -0.596437 -1.73536 0
M  V30 12760 H 1185.88 0.979539 -3.83694 0
M  V30 12761 H 1187.06 -1.85388 -4.21862 0
M  V30 12762 H 1185.37 -1.52922 -3.87303 0
M  V30 12763 H 1187.97 0.872734 -5.2753 0
M  V30 12764 H 1188.31 1.72389 -3.7893 0
M  V30 12765 H 1188.84 0.0356139 -3.97784 0
M  V30 12766 H 1185.58 -1.88727 -6.27744 0
M  V30 12767 H 1185.1 -0.198181 -5.99473 0
M  V30 12768 H 1186.78 -0.588262 -6.4432 0
M  V30 12769 N 1186.91 1.56388 -0.195085 0
M  V30 12770 C 1188.14 2.02406 0.452399 0
M  V30 12771 C 1188.56 1.07432 1.54402 0
M  V30 12772 O 1187.92 0.0578246 1.81208 0
M  V30 12773 C 1187.97 3.46864 0.985778 0
M  V30 12774 O 1187.07 3.55007 2.09867 0
M  V30 12775 H 1186.42 0.65553 0.105719 0
M  V30 12776 H 1188.95 2.02299 -0.30596 0
M  V30 12777 H 1188.96 3.86655 1.30238 0
M  V30 12778 H 1187.63 4.15481 0.186662 0
M  V30 12779 H 1186.21 3.2709 1.79071 0
M  V30 12780 N 1188.39 -0.0785156 1.57404 0
M  V30 12781 C 1189.32 -1.09446 2.06262 0
M  V30 12782 C 1190.3 -1.40777 0.954772 0
M  V30 12783 O 1191.49 -1.5052 1.22708 0
M  V30 12784 C 1188.62 -2.40979 2.50093 0
M  V30 12785 C 1187.57 -2.24017 3.64692 0
M  V30 12786 C 1186.9 -3.60873 3.94556 0
M  V30 12787 C 1188.2 -1.66696 4.94985 0
M  V30 12788 H 1189.89 -0.687928 2.9139 0
M  V30 12789 H 1187.44 -0.329466 1.4018 0
M  V30 12790 H 1189.39 -3.12337 2.82884 0
M  V30 12791 H 1188.12 -2.83599 1.61985 0
M  V30 12792 H 1186.77 -1.55101 3.32174 0
M  V30 12793 H 1186.42 -4.01051 3.0359 0
M  V30 12794 H 1186.12 -3.50365 4.71718 0
M  V30 12795 H 1187.65 -4.33673 4.29837 0
M  V30 12796 H 1189.06 -2.27913 5.2605 0
M  V30 12797 H 1187.46 -1.66902 5.76423 0
M  V30 12798 H 1188.53 -0.627827 4.80818 0
M  V30 12799 N 1189.87 -1.5367 -0.349747 0
M  V30 12800 C 1191.12 -1.70281 -1.08853 0
M  V30 12801 C 1191.44 -0.465438 -1.89364 0
M  V30 12802 O 1190.71 0.520615 -1.88856 0
M  V30 12803 H 1189.29 -0.627775 -0.404854 0
M  V30 12804 H 1191.95 -1.90906 -0.392523 0
M  V30 12805 H 1191.05 -2.57096 -1.76941 0
M  V30 12806 N 1191.35 0.610423 -1.45298 0
M  V30 12807 C 1192.58 1.39419 -1.52466 0
M  V30 12808 C 1192.99 1.88563 -0.1551 0
M  V30 12809 O 1192.33 1.62692 0.853061 0
M  V30 12810 C 1192.39 2.63515 -2.44541 0
M  V30 12811 C 1192.06 2.36028 -3.91331 0
M  V30 12812 C 1193.05 1.96567 -4.81308 0
M  V30 12813 C 1190.74 2.49028 -4.36223 0
M  V30 12814 C 1192.73 1.70461 -6.14184 0
M  V30 12815 C 1190.42 2.22536 -5.6914 0
M  V30 12816 C 1191.42 1.83314 -6.5794 0
M  V30 12817 O 1191.1 1.57131 -7.88394 0
M  V30 12818 H 1190.84 0.433278 -0.518889 0
M  V30 12819 H 1193.39 0.751803 -1.91147 0
M  V30 12820 H 1191.62 3.30463 -2.00826 0
M  V30 12821 H 1193.31 3.25554 -2.42424 0
M  V30 12822 H 1194.08 1.86062 -4.4789 0
M  V30 12823 H 1189.95 2.78524 -3.67349 0
M  V30 12824 H 1193.5 1.39773 -6.83454 0
M  V30 12825 H 1189.4 2.32657 -6.02114 0
M  V30 12826 H 1190.16 1.71207 -8.00394 0
M  V30 12827 N 1192.83 1.32541 0.852676 0
M  V30 12828 C 1194.07 1.23214 1.607 0
M  V30 12829 C 1194.4 -0.205542 1.93411 0
M  V30 12830 O 1193.66 -1.15907 1.57683 0
M  V30 12831 C 1193.96 2.039 2.9353 0
M  V30 12832 C 1193.62 3.53237 2.8024 0
M  V30 12833 C 1192.28 3.93953 2.76323 0
M  V30 12834 C 1194.64 4.48194 2.6603 0
M  V30 12835 C 1191.96 5.27865 2.56077 0
M  V30 12836 C 1194.32 5.82251 2.47319 0
M  V30 12837 C 1192.98 6.22166 2.41796 0
M  V30 12838 H 1192.25 0.450873 0.588043 0
M  V30 12839 H 1194.9 1.63988 0.988954 0
M  V30 12840 H 1193.2 1.55861 3.59464 0
M  V30 12841 H 1194.9 1.94051 3.50921 0
M  V30 12842 H 1191.49 3.209 2.84114 0
M  V30 12843 H 1195.67 4.17656 2.681 0
M  V30 12844 H 1190.93 5.57845 2.50237 0
M  V30 12845 H 1195.1 6.55442 2.35305 0
M  V30 12846 H 1192.73 7.2587 2.25868 0
M  V30 12847 N 1194.3 -1.0692 1.15784 0
M  V30 12848 C 1195.55 -1.79245 0.933581 0
M  V30 12849 C 1195.87 -1.87362 -0.540427 0
M  V30 12850 O 1195.14 -1.37769 -1.39271 0
M  V30 12851 H 1193.72 -0.663898 0.342416 0
M  V30 12852 H 1196.39 -1.29189 1.45932 0
M  V30 12853 H 1195.48 -2.81546 1.34679 0
M  V30 12854 N 1195.78 -0.955326 -1.25345 0
M  V30 12855 C 1197.19 -0.651118 -1.74978 0
M  V30 12856 C 1197.54 0.833495 -1.77616 0
M  V30 12857 O 1196.67 1.65228 -1.39745 0
M  V30 12858 C 1197.26 -1.17521 -3.17764 0
M  V30 12859 C 1195.82 -0.921151 -3.64954 0
M  V30 12860 C 1194.97 -1.31784 -2.43984 0
M  V30 12861 H 1197.92 -1.13205 -1.11222 0
M  V30 12862 H 1197.94 -0.535625 -3.76711 0
M  V30 12863 H 1197.45 -2.25575 -3.15813 0
M  V30 12864 H 1195.56 0.144392 -3.7232 0
M  V30 12865 H 1195.67 -1.5581 -4.53056 0
M  V30 12866 H 1194.03 -0.736219 -2.43828 0
M  V30 12867 H 1194.82 -2.40761 -2.44723 0
M  V30 12868 N 1197.26 1.39987 -0.723979 0
M  V30 12869 C 1198.21 2.30672 -0.0768286 0
M  V30 12870 C 1199.18 1.48634 0.741422 0
M  V30 12871 O 1200.36 1.77351 0.703649 0
M  V30 12872 C 1197.5 3.34902 0.832729 0
M  V30 12873 C 1196.62 4.32 0.00304942 0
M  V30 12874 C 1195.75 5.23298 0.91286 0
M  V30 12875 C 1194.79 6.12051 0.0777706 0
M  V30 12876 N 1193.93 6.9574 0.942912 0
M  V30 12877 H 1198.77 2.85446 -0.855832 0
M  V30 12878 H 1196.3 1.40561 -0.433718 0
M  V30 12879 H 1198.26 3.93911 1.37441 0
M  V30 12880 H 1196.89 2.81611 1.57782 0
M  V30 12881 H 1195.94 3.74702 -0.655916 0
M  V30 12882 H 1197.26 4.94637 -0.643124 0
M  V30 12883 H 1196.41 5.87279 1.52277 0
M  V30 12884 H 1195.15 4.60956 1.59284 0
M  V30 12885 H 1194.15 5.47092 -0.545022 0
M  V30 12886 H 1195.38 6.76455 -0.598827 0
M  V30 12887 H 1193.33 6.35977 1.60838 0
M  V30 12888 H 1193.24 7.55176 0.352968 0
M  V30 12889 H 1194.51 7.64162 1.53874 0
M  V30 12890 N 1198.74 0.470782 1.50404 0
M  V30 12891 C 1199.98 -0.0830648 2.04231 0
M  V30 12892 C 1200.34 -1.37015 1.34503 0
M  V30 12893 O 1201.54 -2.00635 1.78883 0
M  V30 12894 C 1199.82 -0.262986 3.56431 0
M  V30 12895 S 1201.37 -0.775432 4.31894 0
M  V30 12896 H 1198.19 -0.0161025 0.710818 0
M  V30 12897 H 1200.79 0.63785 1.84802 0
M  V30 12898 H 1199.5 0.679558 4.04735 0
M  V30 12899 H 1199.03 -1.01002 3.80213 0
M  V30 12900 H 1201.04 -2.04887 4.51924 0
M  V30 12901 N 1200.22 -1.56282 0.203376 0
M  V30 12902 C 1201.45 -2.01905 -0.437936 0
M  V30 12903 C 1201.86 -1.08263 -1.55164 0
M  V30 12904 O 1201.2 -0.0811746 -1.83521 0
M  V30 12905 C 1201.26 -3.43908 -1.04725 0
M  V30 12906 C 1200.92 -4.56944 -0.0712582 0
M  V30 12907 C 1201.92 -5.14856 0.72243 0
M  V30 12908 C 1199.61 -5.02282 0.0422267 0
M  V30 12909 C 1201.6 -6.16562 1.61649 0
M  V30 12910 C 1199.29 -6.0383 0.939835 0
M  V30 12911 C 1200.29 -6.60844 1.72552 0
M  V30 12912 O 1199.97 -7.60417 2.60808 0
M  V30 12913 H 1199.71 -0.666416 -0.11343 0
M  V30 12914 H 1202.26 -2.03019 0.311833 0
M  V30 12915 H 1200.49 -3.39806 -1.84577 0
M  V30 12916 H 1202.18 -3.73288 -1.59407 0
M  V30 12917 H 1202.94 -4.80691 0.645105 0
M  V30 12918 H 1198.82 -4.57596 -0.559165 0
M  V30 12919 H 1202.37 -6.6099 2.23019 0
M  V30 12920 H 1198.26 -6.37418 1.01824 0
M  V30 12921 H 1199.03 -7.77869 2.54679 0
M  V30 12922 N 1201.7 0.070167 -1.57444 0
M  V30 12923 C 1202.63 1.11509 -1.991 0
M  V30 12924 C 1203.61 1.37481 -0.868194 0
M  V30 12925 O 1204.79 1.50827 -1.13064 0
M  V30 12926 C 1201.92 2.45908 -2.3291 0
M  V30 12927 C 1200.96 2.36059 -3.55216 0
M  V30 12928 S 1201.8 1.75316 -5.05989 0
M  V30 12929 C 1202.95 3.11289 -5.43001 0
M  V30 12930 H 1203.19 0.760096 -2.87419 0
M  V30 12931 H 1200.72 0.278756 -1.51863 0
M  V30 12932 H 1202.68 3.23217 -2.53063 0
M  V30 12933 H 1201.34 2.78567 -1.45117 0
M  V30 12934 H 1200.53 3.35176 -3.76395 0
M  V30 12935 H 1200.13 1.66886 -3.34701 0
M  V30 12936 H 1202.42 4.07603 -5.41171 0
M  V30 12937 H 1203.37 2.94888 -6.43775 0
M  V30 12938 H 1203.78 3.11969 -4.70463 0
M  V30 12939 N 1203.17 1.53854 0.341593 0
M  V30 12940 C 1204.42 1.7041 1.07905 0
M  V30 12941 C 1204.74 0.475039 1.89744 0
M  V30 12942 O 1205.94 0.521589 2.66443 0
M  V30 12943 C 1204.4 3.01342 1.96776 0
M  V30 12944 C 1204.01 4.31592 1.20135 0
M  V30 12945 C 1205.75 3.27264 2.70367 0
M  V30 12946 C 1203.66 5.53598 2.08047 0
M  V30 12947 H 1202.59 0.635005 0.406553 0
M  V30 12948 H 1205.24 1.80353 0.338409 0
M  V30 12949 H 1203.62 2.85261 2.74667 0
M  V30 12950 H 1204.79 4.58382 0.471404 0
M  V30 12951 H 1203.11 4.12298 0.583039 0
M  V30 12952 H 1205.71 4.15607 3.36415 0
M  V30 12953 H 1206.05 2.44357 3.37039 0
M  V30 12954 H 1206.58 3.4413 1.99548 0
M  V30 12955 H 1203.32 6.39053 1.45914 0
M  V30 12956 H 1202.84 5.31052 2.78825 0
M  V30 12957 H 1204.52 5.89314 2.67055 0
M  V30 12958 N 1204.65 -0.602709 1.4562 0
M  V30 12959 C 1205.58 -1.72374 1.5751 0
M  V30 12960 C 1206.56 -1.64669 0.426389 0
M  V30 12961 O 1207.75 -1.82994 0.650143 0
M  V30 12962 C 1204.88 -3.10987 1.5461 0
M  V30 12963 C 1203.83 -3.33507 2.68248 0
M  V30 12964 C 1203.16 -4.72443 2.50403 0
M  V30 12965 C 1204.46 -3.23285 4.10224 0
M  V30 12966 H 1206.15 -1.62679 2.51348 0
M  V30 12967 H 1203.7 -0.781217 1.20967 0
M  V30 12968 H 1205.65 -3.89214 1.61525 0
M  V30 12969 H 1204.37 -3.21533 0.573049 0
M  V30 12970 H 1203.03 -2.57672 2.60769 0
M  V30 12971 H 1202.68 -4.79729 1.51226 0
M  V30 12972 H 1202.38 -4.88466 3.26611 0
M  V30 12973 H 1203.91 -5.52864 2.59179 0
M  V30 12974 H 1205.32 -3.91381 4.1892 0
M  V30 12975 H 1203.72 -3.50837 4.86861 0
M  V30 12976 H 1204.79 -2.20652 4.31788 0
M  V30 12977 N 1206.13 -1.32992 -0.845635 0
M  V30 12978 C 1207.38 -1.24065 -1.60044 0
M  V30 12979 C 1207.7 0.195282 -1.93517 0
M  V30 12980 O 1206.96 1.1507 -1.58296 0
M  V30 12981 C 1207.26 -2.05454 -2.92444 0
M  V30 12982 C 1206.92 -3.54718 -2.78362 0
M  V30 12983 C 1205.59 -3.95413 -2.74229 0
M  V30 12984 C 1207.94 -4.49598 -2.63649 0
M  V30 12985 C 1205.27 -5.29216 -2.53274 0
M  V30 12986 C 1207.62 -5.83554 -2.44228 0
M  V30 12987 C 1206.28 -6.2344 -2.38493 0
M  V30 12988 H 1205.55 -0.453985 -0.585644 0
M  V30 12989 H 1208.2 -1.6451 -0.980244 0
M  V30 12990 H 1206.5 -1.57765 -3.58633 0
M  V30 12991 H 1208.2 -1.95909 -3.49887 0
M  V30 12992 H 1204.79 -3.22403 -2.82409 0
M  V30 12993 H 1208.98 -4.19072 -2.65881 0
M  V30 12994 H 1204.23 -5.59164 -2.47275 0
M  V30 12995 H 1208.41 -6.56681 -2.31825 0
M  V30 12996 H 1206.03 -7.27058 -2.22015 0
M  V30 12997 N 1207.61 1.06304 -1.1635 0
M  V30 12998 C 1208.84 1.82534 -0.967725 0
M  V30 12999 C 1209.25 1.82816 0.487338 0
M  V30 13000 O 1208.59 1.24581 1.35001 0
M  V30 13001 C 1208.65 3.30349 -1.4181 0
M  V30 13002 C 1208.31 3.53769 -2.89303 0
M  V30 13003 C 1209.31 3.46826 -3.87308 0
M  V30 13004 C 1207 3.81094 -3.2722 0
M  V30 13005 C 1208.99 3.66874 -5.21232 0
M  V30 13006 C 1206.68 4.00792 -4.61313 0
M  V30 13007 C 1207.68 3.93679 -5.58127 0
M  V30 13008 O 1207.36 4.12839 -6.89796 0
M  V30 13009 H 1207.1 0.582407 -0.343189 0
M  V30 13010 H 1209.65 1.35022 -1.54784 0
M  V30 13011 H 1207.88 3.78722 -0.781456 0
M  V30 13012 H 1209.57 3.88072 -1.18976 0
M  V30 13013 H 1210.33 3.25706 -3.59361 0
M  V30 13014 H 1206.21 3.85739 -2.5244 0
M  V30 13015 H 1209.76 3.61238 -5.96786 0
M  V30 13016 H 1205.65 4.214 -4.8897 0
M  V30 13017 H 1206.42 4.30128 -6.96371 0
M  V30 13018 N 1209.09 0.96196 1.24836 0
M  V30 13019 C 1210.5 0.660388 1.7463 0
M  V30 13020 C 1210.85 -0.824064 1.78055 0
M  V30 13021 O 1209.97 -1.64485 1.40619 0
M  V30 13022 C 1210.57 1.19205 3.17137 0
M  V30 13023 C 1209.13 0.940493 3.64461 0
M  V30 13024 C 1208.27 1.33076 2.43282 0
M  V30 13025 H 1211.22 1.13794 1.1062 0
M  V30 13026 H 1211.25 0.555595 3.76422 0
M  V30 13027 H 1210.76 2.27247 3.14612 0
M  V30 13028 H 1208.86 -0.124645 3.72391 0
M  V30 13029 H 1208.97 1.5821 4.52224 0
M  V30 13030 H 1207.34 0.749139 2.43434 0
M  V30 13031 H 1208.12 2.42055 2.43442 0
M  V30 13032 N 1210.56 -1.39601 0.731392 0
M  V30 13033 C 1211.47 -2.34425 0.090527 0
M  V30 13034 C 1212.49 -1.58131 -0.725992 0
M  V30 13035 O 1213.67 -1.90441 -0.655294 0
M  V30 13036 C 1210.73 -3.37138 -0.808624 0
M  V30 13037 C 1209.79 -4.29295 0.0197365 0
M  V30 13038 C 1209.02 -5.27102 -0.836593 0
M  V30 13039 O 1209.25 -5.31302 -2.07543 0
M  V30 13040 O 1208.18 -6.01307 -0.267172 0
M  V30 13041 H 1212.01 -2.9088 0.873084 0
M  V30 13042 H 1209.59 -1.41066 0.492024 0
M  V30 13043 H 1211.47 -4.00087 -1.32319 0
M  V30 13044 H 1210.15 -2.83074 -1.57006 0
M  V30 13045 H 1209.06 -3.69581 0.579744 0
M  V30 13046 H 1210.39 -4.86555 0.743308 0
M  V30 13047 N 1212.04 -0.478751 -1.50152 0
M  V30 13048 C 1213.46 -0.133356 -1.59042 0
M  V30 13049 C 1213.66 1.36069 -1.48618 0
M  V30 13050 O 1212.71 2.13468 -1.34862 0
M  V30 13051 C 1214.03 -0.690369 -2.92668 0
M  V30 13052 C 1215.58 -0.654481 -3.06081 0
M  V30 13053 C 1216.05 -1.18917 -4.42293 0
M  V30 13054 N 1217.54 -1.14891 -4.48725 0
M  V30 13055 C 1218.28 -1.53305 -5.52526 0
M  V30 13056 N 1217.77 -1.99205 -6.63543 0
M  V30 13057 N 1219.57 -1.4486 -5.43113 0
M  V30 13058 H 1211.72 -1.45037 -1.55171 0
M  V30 13059 H 1213.98 -0.600254 -0.733757 0
M  V30 13060 H 1213.69 -1.7373 -3.05795 0
M  V30 13061 H 1213.56 -0.138227 -3.76947 0
M  V30 13062 H 1215.95 0.383564 -2.92597 0
M  V30 13063 H 1216.03 -1.24352 -2.2354 0
M  V30 13064 H 1215.67 -2.22588 -4.56527 0
M  V30 13065 H 1215.6 -0.57628 -5.23437 0
M  V30 13066 H 1218.09 -0.812344 -3.69066 0
M  V30 13067 H 1218.41 -2.26645 -7.38818 0
M  V30 13068 H 1216.75 -2.03164 -6.64642 0
M  V30 13069 H 1219.94 -1.08836 -4.55272 0
M  V30 13070 H 1220.11 -1.75123 -6.23888 0
M  V30 13071 N 1213.52 1.56172 -0.211661 0
M  V30 13072 C 1214.47 2.21206 0.719063 0
M  V30 13073 C 1215.46 1.18835 1.20725 0
M  V30 13074 O 1216.67 1.36939 1.16823 0
M  V30 13075 H 1213.04 0.709129 0.250279 0
M  V30 13076 H 1215.01 2.98038 0.147022 0
M  V30 13077 C 1213.76 2.89826 1.92084 0
M  V30 13078 H 1213.09 3.68351 1.55428 0
M  V30 13079 H 1214.53 3.38744 2.55006 0
M  V30 13080 C 1212.99 1.91756 2.77004 0
M  V30 13081 O 1213.52 1.42826 3.75451 0
M  V30 13082 N 1211.72 1.59622 2.42836 0
M  V30 13083 H 1211.27 1.99606 1.62835 0
M  V30 13084 H 1211.23 0.942641 2.99936 0
M  V30 13085 N 1215 -0.0618163 1.57479 0
M  V30 13086 C 1216.23 -0.771724 1.91969 0
M  V30 13087 C 1216.64 -1.7061 0.808549 0
M  V30 13088 O 1216 -1.812 -0.217455 0
M  V30 13089 C 1216.05 -1.55687 3.26257 0
M  V30 13090 O 1215.77 -0.660032 4.331 0
M  V30 13091 C 1217.27 -2.36688 3.74825 0
M  V30 13092 H 1214.49 -0.21885 0.634307 0
M  V30 13093 H 1217.04 -0.0291068 2.04479 0
M  V30 13094 H 1215.19 -2.25167 3.15244 0
M  V30 13095 H 1215.6 -1.20715 5.1042 0
M  V30 13096 H 1217.08 -2.8722 4.7139 0
M  V30 13097 H 1217.56 -3.1666 3.0434 0
M  V30 13098 H 1218.16 -1.72346 3.88815 0
M  V30 13099 N 1216.48 -1.54033 -0.333429 0
M  V30 13100 C 1217.89 -1.63107 -0.908455 0
M  V30 13101 C 1218.24 -0.518823 -1.89216 0
M  V30 13102 O 1217.36 0.34985 -2.13553 0
M  V30 13103 C 1217.96 -2.95657 -1.65447 0
M  V30 13104 C 1216.52 -3.0696 -2.17836 0
M  V30 13105 C 1215.66 -2.58617 -1.00063 0
M  V30 13106 H 1218.62 -1.58309 -0.11128 0
M  V30 13107 H 1218.64 -2.85263 -2.51804 0
M  V30 13108 H 1218.15 -3.76588 -0.938263 0
M  V30 13109 H 1216.25 -2.30683 -2.92602 0
M  V30 13110 H 1216.36 -4.12599 -2.43513 0
M  V30 13111 H 1214.73 -2.1427 -1.37697 0
M  V30 13112 H 1215.51 -3.41996 -0.298901 0
M  V30 13113 N 1217.95 0.594978 -1.45938 0
M  V30 13114 C 1218.92 1.68688 -1.55168 0
M  V30 13115 C 1219.92 1.54945 -0.429951 0
M  V30 13116 O 1221.11 1.59785 -0.693859 0
M  V30 13117 C 1218.24 3.0804 -1.46027 0
M  V30 13118 H 1219.43 1.61866 -2.52467 0
M  V30 13119 H 1216.99 0.811785 -1.33565 0
M  V30 13120 H 1217.72 3.20428 -0.499614 0
M  V30 13121 H 1217.51 3.19423 -2.27401 0
M  V30 13122 H 1219 3.8755 -1.55546 0
M  V30 13123 N 1219.43 1.33438 0.838571 0
M  V30 13124 C 1220.66 1.27766 1.62356 0
M  V30 13125 C 1221.07 -0.15359 1.88576 0
M  V30 13126 O 1220.41 -1.10626 1.46654 0
M  V30 13127 C 1220.48 1.98435 2.99773 0
M  V30 13128 C 1220.14 3.47741 2.96522 0
M  V30 13129 C 1221.14 4.42938 2.72217 0
M  V30 13130 C 1218.82 3.89922 3.16648 0
M  V30 13131 C 1220.82 5.7829 2.68066 0
M  V30 13132 C 1218.5 5.25378 3.12123 0
M  V30 13133 C 1219.5 6.19374 2.87863 0
M  V30 13134 O 1219.19 7.52349 2.83242 0
M  V30 13135 H 1218.92 0.441527 0.511889 0
M  V30 13136 H 1221.47 1.76377 1.05262 0
M  V30 13137 H 1219.7 1.44415 3.58721 0
M  V30 13138 H 1221.39 1.86258 3.60642 0
M  V30 13139 H 1222.16 4.11673 2.56418 0
M  V30 13140 H 1218.04 3.17169 3.34552 0
M  V30 13141 H 1221.58 6.51629 2.4905 0
M  V30 13142 H 1217.48 5.56267 3.27471 0
M  V30 13143 H 1218.25 7.61901 2.99082 0
M  V30 13144 N 1220.91 -1.05686 1.16912 0
M  V30 13145 C 1222.16 -1.78597 0.954425 0
M  V30 13146 C 1222.49 -1.87494 -0.517315 0
M  V30 13147 O 1221.74 -1.36736 -1.40006 0
M  V30 13148 C 1222.04 -3.22779 1.53455 0
M  V30 13149 C 1221.71 -3.3395 3.02965 0
M  V30 13150 C 1220.37 -3.36706 3.43777 0
M  V30 13151 C 1222.72 -3.35371 3.98969 0
M  V30 13152 C 1220.05 -3.38506 4.79198 0
M  V30 13153 C 1222.4 -3.38708 5.34284 0
M  V30 13154 C 1221.06 -3.39749 5.74567 0
M  V30 13155 H 1220.33 -0.653534 0.349249 0
M  V30 13156 H 1222.98 -1.24245 1.45723 0
M  V30 13157 H 1221.29 -3.80025 0.953331 0
M  V30 13158 H 1222.98 -3.77805 1.34404 0
M  V30 13159 H 1219.57 -3.32515 2.70429 0
M  V30 13160 H 1223.76 -3.32447 3.685 0
M  V30 13161 H 1219.01 -3.37619 5.09729 0
M  V30 13162 H 1223.19 -3.38755 6.08455 0
M  V30 13163 H 1220.81 -3.40897 6.7948 0
M  V30 13164 N 1222.39 -0.968567 -1.24324 0
M  V30 13165 C 1223.34 -0.491346 -2.27351 0
M  V30 13166 C 1224.33 0.445563 -1.63435 0
M  V30 13167 O 1225.54 0.320758 -1.77119 0
M  V30 13168 H 1221.91 -0.14043 -0.738772 0
M  V30 13169 H 1223.88 -1.37224 -2.64976 0
M  V30 13170 C 1222.63 0.202093 -3.47112 0
M  V30 13171 H 1221.95 -0.50973 -3.96537 0
M  V30 13172 H 1223.39 0.499815 -4.21044 0
M  V30 13173 C 1221.85 1.42937 -3.05075 0
M  V30 13174 O 1222.38 2.52635 -3.12312 0
M  V30 13175 N 1220.59 1.29572 -2.60114 0
M  V30 13176 H 1220.14 0.403169 -2.54425 0
M  V30 13177 H 1220.09 2.118 -2.32353 0
M  V30 13178 N 1223.87 1.39211 -0.738786 0
M  V30 13179 C 1225.09 2.05256 -0.297421 0
M  V30 13180 C 1225.52 1.55341 1.06069 0
M  V30 13181 O 1224.87 0.698823 1.67291 0
M  V30 13182 C 1224.92 3.59239 -0.312969 0
M  V30 13183 O 1224.03 4.06448 0.698112 0
M  V30 13184 H 1223.37 0.650245 -0.134454 0
M  V30 13185 H 1225.9 1.78173 -1.00577 0
M  V30 13186 H 1225.91 4.07691 -0.158675 0
M  V30 13187 H 1224.58 3.94931 -1.30394 0
M  V30 13188 H 1223.16 3.69401 0.509643 0
M  V30 13189 N 1225.34 0.486708 1.49896 0
M  V30 13190 C 1226.28 -0.345627 2.25567 0
M  V30 13191 C 1227.26 -0.982794 1.29537 0
M  V30 13192 O 1228.44 -1.01569 1.58796 0
M  V30 13193 C 1225.57 -1.48555 3.04383 0
M  V30 13194 C 1224.61 -0.964196 4.15458 0
M  V30 13195 S 1225.45 0.133631 5.35333 0
M  V30 13196 C 1226.6 -1.00979 6.17701 0
M  V30 13197 H 1226.83 0.296677 2.95816 0
M  V30 13198 H 1224.37 0.271798 1.51989 0
M  V30 13199 H 1226.33 -2.13878 3.50381 0
M  V30 13200 H 1224.99 -2.09942 2.33631 0
M  V30 13201 H 1224.18 -1.81804 4.70067 0
M  V30 13202 H 1223.78 -0.388419 3.71978 0
M  V30 13203 H 1226.07 -1.91812 6.4978 0
M  V30 13204 H 1227.02 -0.502633 7.06314 0
M  V30 13205 H 1227.42 -1.27067 5.50013 0
M  V30 13206 N 1226.82 -1.56058 0.219941 0
M  V30 13207 C 1228.07 -1.97436 -0.412543 0
M  V30 13208 C 1228.39 -1.11058 -1.61014 0
M  V30 13209 O 1229.59 -1.42328 -2.31203 0
M  V30 13210 C 1228.05 -3.51227 -0.785362 0
M  V30 13211 C 1227.66 -4.46305 0.389328 0
M  V30 13212 C 1229.4 -4.01321 -1.38354 0
M  V30 13213 C 1227.31 -5.914 -0.00583531 0
M  V30 13214 H 1226.24 -0.73728 -0.157906 0
M  V30 13215 H 1228.89 -1.8076 0.315898 0
M  V30 13216 H 1227.27 -3.63497 -1.57118 0
M  V30 13217 H 1228.44 -4.45781 1.16686 0
M  V30 13218 H 1226.76 -4.06543 0.900633 0
M  V30 13219 H 1229.36 -5.07221 -1.69207 0
M  V30 13220 H 1229.7 -3.47077 -2.29876 0
M  V30 13221 H 1230.23 -3.92267 -0.66119 0
M  V30 13222 H 1226.97 -6.49623 0.87583 0
M  V30 13223 H 1226.49 -5.95121 -0.74772 0
M  V30 13224 H 1228.17 -6.45549 -0.43308 0
M  V30 13225 N 1228.3 0.053464 -1.57509 0
M  V30 13226 C 1229.23 1.08863 -2.01696 0
M  V30 13227 C 1230.25 1.33916 -0.925765 0
M  V30 13228 O 1231.44 1.31833 -1.20343 0
M  V30 13229 C 1228.54 2.43567 -2.35644 0
M  V30 13230 C 1227.71 2.38215 -3.66841 0
M  V30 13231 C 1226.77 3.55172 -3.88252 0
M  V30 13232 O 1225.79 3.35769 -4.59617 0
M  V30 13233 N 1227 4.76182 -3.3201 0
M  V30 13234 H 1229.76 0.712192 -2.91115 0
M  V30 13235 H 1227.32 0.241829 -1.60084 0
M  V30 13236 H 1229.31 3.20486 -2.47125 0
M  V30 13237 H 1227.88 2.73145 -1.52022 0
M  V30 13238 H 1227.1 1.46557 -3.65943 0
M  V30 13239 H 1228.39 2.31757 -4.52953 0
M  V30 13240 H 1227.79 4.94849 -2.74118 0
M  V30 13241 H 1226.35 5.5055 -3.4891 0
M  V30 13242 N 1229.78 1.54207 0.325255 0
M  V30 13243 C 1231.03 1.71991 1.0613 0
M  V30 13244 C 1231.35 0.495505 1.88599 0
M  V30 13245 O 1230.62 -0.490504 1.8966 0
M  V30 13246 H 1229.2 0.634137 0.394816 0
M  V30 13247 H 1231.86 1.91507 0.362101 0
M  V30 13248 H 1230.96 2.59878 1.72829 0
M  V30 13249 N 1231.26 -0.58723 1.46251 0
M  V30 13250 C 1232.49 -1.36976 1.54665 0
M  V30 13251 C 1232.9 -1.88293 0.185079 0
M  V30 13252 O 1232.24 -1.64028 -0.82707 0
M  V30 13253 C 1232.3 -2.59591 2.48702 0
M  V30 13254 C 1231.96 -2.29773 3.95036 0
M  V30 13255 C 1232.96 -1.88885 4.84374 0
M  V30 13256 C 1230.65 -2.42057 4.40129 0
M  V30 13257 C 1232.64 -1.60669 6.16818 0
M  V30 13258 C 1230.33 -2.13454 5.72609 0
M  V30 13259 C 1231.33 -1.72824 6.60773 0
M  V30 13260 O 1231.01 -1.44569 7.90794 0
M  V30 13261 H 1230.75 -0.424968 0.525717 0
M  V30 13262 H 1233.3 -0.721298 1.92319 0
M  V30 13263 H 1231.53 -3.27226 2.06058 0
M  V30 13264 H 1233.22 -3.21656 2.47573 0
M  V30 13265 H 1233.98 -1.78913 4.50794 0
M  V30 13266 H 1229.86 -2.72644 3.71734 0
M  V30 13267 H 1233.41 -1.28882 6.85591 0
M  V30 13268 H 1229.3 -2.23048 6.05739 0
M  V30 13269 H 1230.07 -1.58452 8.03016 0
M  V30 13270 N 1232.74 -1.33881 -0.831482 0
M  V30 13271 C 1233.96 -1.28812 -1.61911 0
M  V30 13272 C 1234.38 0.139519 -1.88284 0
M  V30 13273 O 1233.74 1.08397 -1.46821 0
M  V30 13274 C 1233.79 -2.06806 -2.96502 0
M  V30 13275 O 1233.51 -3.44 -2.71285 0
M  V30 13276 C 1235.01 -2.09033 -3.90922 0
M  V30 13277 H 1232.23 -0.443473 -0.50356 0
M  V30 13278 H 1234.77 -1.76365 -1.03516 0
M  V30 13279 H 1232.93 -1.62915 -3.51479 0
M  V30 13280 H 1233.34 -3.84213 -3.57044 0
M  V30 13281 H 1234.82 -2.68044 -4.82552 0
M  V30 13282 H 1235.29 -1.08249 -4.25651 0
M  V30 13283 H 1235.9 -2.52975 -3.41883 0
M  V30 13284 N 1234.21 1.05064 -1.1747 0
M  V30 13285 C 1235.15 2.12334 -0.836028 0
M  V30 13286 C 1236.12 1.61393 0.197733 0
M  V30 13287 O 1237.31 1.88334 0.0789748 0
M  V30 13288 C 1234.44 3.37796 -0.24734 0
M  V30 13289 C 1233.48 4.07565 -1.25669 0
M  V30 13290 S 1234.31 4.55941 -2.80853 0
M  V30 13291 C 1235.47 5.84648 -2.23468 0
M  V30 13292 H 1235.7 2.40735 -1.74453 0
M  V30 13293 H 1233.24 1.17684 -0.999495 0
M  V30 13294 H 1235.19 4.1041 0.0858241 0
M  V30 13295 H 1233.86 3.07529 0.639124 0
M  V30 13296 H 1233.05 4.97715 -0.793465 0
M  V30 13297 H 1232.65 3.41022 -1.53557 0
M  V30 13298 H 1234.94 6.58067 -1.61104 0
M  V30 13299 H 1235.89 6.35719 -3.11877 0
M  V30 13300 H 1236.29 5.39272 -1.6687 0
M  V30 13301 N 1235.69 0.975146 1.23809 0
M  V30 13302 C 1237.11 0.682899 1.44252 0
M  V30 13303 C 1237.31 -0.752739 1.86912 0
M  V30 13304 O 1236.36 -1.52579 2.01186 0
M  V30 13305 C 1237.68 1.67335 2.49839 0
M  V30 13306 C 1239.22 1.6868 2.63659 0
M  V30 13307 C 1239.7 2.66542 3.72451 0
M  V30 13308 N 1241.19 2.65028 3.79887 0
M  V30 13309 C 1241.93 3.37421 4.63611 0
M  V30 13310 N 1241.42 4.19355 5.51465 0
M  V30 13311 N 1243.21 3.2621 4.57759 0
M  V30 13312 H 1235.37 1.9026 0.94418 0
M  V30 13313 H 1237.63 0.819543 0.476502 0
M  V30 13314 H 1237.33 2.69978 2.25399 0
M  V30 13315 H 1237.21 1.45201 3.48133 0
M  V30 13316 H 1239.6 0.667438 2.87453 0
M  V30 13317 H 1239.68 1.94878 1.65699 0
M  V30 13318 H 1239.32 3.68617 3.49405 0
M  V30 13319 H 1239.25 2.3762 4.69941 0
M  V30 13320 H 1241.74 2.05562 3.171 0
M  V30 13321 H 1242.05 4.71461 6.12327 0
M  V30 13322 H 1240.4 4.23447 5.51106 0
M  V30 13323 H 1243.59 2.61656 3.88142 0
M  V30 13324 H 1243.76 3.82889 5.22781 0
M  V30 13325 N 1237.17 -1.38817 0.746158 0
M  V30 13326 C 1238.59 -1.53894 0.42294 0
M  V30 13327 C 1238.79 -1.71064 -1.06486 0
M  V30 13328 O 1237.84 -1.71744 -1.85095 0
M  V30 13329 C 1239.15 -2.75029 1.2157 0
M  V30 13330 C 1240.7 -2.88873 1.20504 0
M  V30 13331 C 1241.18 -4.1296 1.9806 0
M  V30 13332 N 1242.67 -4.20022 1.95283 0
M  V30 13333 C 1243.4 -5.15011 2.52093 0
M  V30 13334 N 1242.9 -6.1572 3.17586 0
M  V30 13335 N 1244.69 -5.07308 2.42064 0
M  V30 13336 H 1236.84 -1.25921 1.71049 0
M  V30 13337 H 1239.11 -0.611148 0.724708 0
M  V30 13338 H 1238.81 -2.68722 2.26895 0
M  V30 13339 H 1238.69 -3.68009 0.827593 0
M  V30 13340 H 1241.07 -2.94667 0.159877 0
M  V30 13341 H 1241.15 -1.96925 1.63261 0
M  V30 13342 H 1240.8 -4.07929 3.02583 0
M  V30 13343 H 1240.73 -5.03974 1.52702 0
M  V30 13344 H 1243.22 -3.47892 1.4758 0
M  V30 13345 H 1243.53 -6.84682 3.58373 0
M  V30 13346 H 1241.88 -6.16075 3.21678 0
M  V30 13347 H 1245.07 -4.27569 1.90532 0
M  V30 13348 H 1245.24 -5.81158 2.86635 0
M  V30 13349 N 1238.65 -0.49465 -1.49636 0
M  V30 13350 C 1239.92 0.114829 -1.95263 0
M  V30 13351 C 1240.3 1.54739 -1.43593 0
M  V30 13352 O 1239.65 2.1915 -0.646953 0
M  V30 13353 C 1239.86 0.0339912 -3.48983 0
M  V30 13354 C 1241.21 0.211108 -4.24075 0
M  V30 13355 O 1242.23 0.109478 -3.56032 0
M  V30 13356 O 1241.09 0.418971 -5.44892 0
M  V30 13357 H 1238.19 0.0987883 -0.821078 0
M  V30 13358 H 1240.73 -0.556736 -1.60308 0
M  V30 13359 H 1239.51 -0.965287 -3.79207 0
M  V30 13360 H 1239.13 0.745982 -3.90539 0
M  V30 13361 O 1240.16 1.57208 -0.369845 0
M  V30 13362 H 1240.86 1.92864 0.179772 0
M  V30 END ATOM
M  V30 BEGIN BOND
M  V30 END BOND
M  V30 END CTAB
M  END
$$$$
